# generated using pymatgen
data_Ba3NaRu2O9
_symmetry_space_group_name_H-M   'P 1'
_cell_length_a   11.93152749
_cell_length_b   11.90582250
_cell_length_c   14.60043666
_cell_angle_alpha   90.00000000
_cell_angle_beta   90.00000000
_cell_angle_gamma   120.07144574
_symmetry_Int_Tables_number   1
_chemical_formula_structural   Ba3NaRu2O9
_chemical_formula_sum   'Ba24 Na8 Ru16 O72'
_cell_volume   1794.89402500
_cell_formula_units_Z   8
loop_
 _symmetry_equiv_pos_site_id
 _symmetry_equiv_pos_as_xyz
  1  'x, y, z'
loop_
 _atom_site_type_symbol
 _atom_site_label
 _atom_site_symmetry_multiplicity
 _atom_site_fract_x
 _atom_site_fract_y
 _atom_site_fract_z
 _atom_site_occupancy
  Ba  Ba0  1  0.00253639  0.00507278  0.75000000  1
  Ba  Ba1  1  0.99746361  0.99492722  0.25000000  1
  Ba  Ba2  1  0.49855121  0.99710242  0.25000000  1
  Ba  Ba3  1  0.50144879  0.00289758  0.75000000  1
  Ba  Ba4  1  0.99416123  0.49100064  0.25000000  1
  Ba  Ba5  1  0.50316059  0.50899936  0.75000000  1
  Ba  Ba6  1  0.00583877  0.50899936  0.75000000  1
  Ba  Ba7  1  0.49683941  0.49100064  0.25000000  1
  Ba  Ba8  1  0.66782062  0.33564125  0.41555866  1
  Ba  Ba9  1  0.33217938  0.66435875  0.58444134  1
  Ba  Ba10  1  0.66782062  0.33564125  0.08444134  1
  Ba  Ba11  1  0.33217938  0.66435875  0.91555866  1
  Ba  Ba12  1  0.16783618  0.33567235  0.41322254  1
  Ba  Ba13  1  0.83216382  0.66432765  0.58677746  1
  Ba  Ba14  1  0.16783618  0.33567235  0.08677746  1
  Ba  Ba15  1  0.83216382  0.66432765  0.91322254  1
  Ba  Ba16  1  0.66065871  0.82338884  0.40428670  1
  Ba  Ba17  1  0.83726988  0.17661116  0.59571330  1
  Ba  Ba18  1  0.66065871  0.82338884  0.09571330  1
  Ba  Ba19  1  0.83726988  0.17661116  0.90428670  1
  Ba  Ba20  1  0.33934129  0.17661116  0.59571330  1
  Ba  Ba21  1  0.16273012  0.82338884  0.40428670  1
  Ba  Ba22  1  0.33934129  0.17661116  0.90428670  1
  Ba  Ba23  1  0.16273012  0.82338884  0.09571330  1
  Na  Na0  1  0.00000000  0.50000000  0.50000000  1
  Na  Na1  1  0.50000000  0.50000000  0.50000000  1
  Na  Na2  1  0.00000000  0.50000000  -0.00000000  1
  Na  Na3  1  0.50000000  0.50000000  -0.00000000  1
  Na  Na4  1  0.50000000  0.00000000  0.50000000  1
  Na  Na5  1  0.50000000  0.00000000  -0.00000000  1
  Na  Na6  1  0.00000000  0.00000000  0.50000000  1
  Na  Na7  1  0.00000000  0.00000000  -0.00000000  1
  Ru  Ru0  1  0.83020069  0.66040138  0.33694761  1
  Ru  Ru1  1  0.16979931  0.33959862  0.66305239  1
  Ru  Ru2  1  0.83020069  0.66040138  0.16305239  1
  Ru  Ru3  1  0.16979931  0.33959862  0.83694761  1
  Ru  Ru4  1  0.33115643  0.66231285  0.33640525  1
  Ru  Ru5  1  0.66884357  0.33768715  0.66359475  1
  Ru  Ru6  1  0.33115643  0.66231285  0.16359475  1
  Ru  Ru7  1  0.66884357  0.33768715  0.83640525  1
  Ru  Ru8  1  0.83168489  0.16139925  0.34640349  1
  Ru  Ru9  1  0.67028564  0.83860075  0.65359651  1
  Ru  Ru10  1  0.83168489  0.16139925  0.15359651  1
  Ru  Ru11  1  0.67028564  0.83860075  0.84640349  1
  Ru  Ru12  1  0.16831511  0.83860075  0.65359651  1
  Ru  Ru13  1  0.32971436  0.16139925  0.34640349  1
  Ru  Ru14  1  0.16831511  0.83860075  0.84640349  1
  Ru  Ru15  1  0.32971436  0.16139925  0.15359651  1
  O  O0  1  0.90585283  0.58259915  0.40800858  1
  O  O1  1  0.32325367  0.41740085  0.59199142  1
  O  O2  1  0.90585283  0.58259915  0.09199142  1
  O  O3  1  0.32325367  0.41740085  0.90800858  1
  O  O4  1  0.09414717  0.41740085  0.59199142  1
  O  O5  1  0.67674633  0.58259915  0.40800858  1
  O  O6  1  0.09414717  0.41740085  0.90800858  1
  O  O7  1  0.67674633  0.58259915  0.09199142  1
  O  O8  1  0.75066660  0.50133320  0.25000000  1
  O  O9  1  0.24933340  0.49866680  0.75000000  1
  O  O10  1  0.75075290  0.73973962  0.25000000  1
  O  O11  1  0.01101328  0.26026038  0.75000000  1
  O  O12  1  0.24924710  0.26026038  0.75000000  1
  O  O13  1  0.98898672  0.73973962  0.25000000  1
  O  O14  1  0.90684307  0.81368614  0.40856772  1
  O  O15  1  0.09315693  0.18631386  0.59143228  1
  O  O16  1  0.90684307  0.81368614  0.09143228  1
  O  O17  1  0.09315693  0.18631386  0.90856772  1
  O  O18  1  0.17616499  0.58427887  0.40593262  1
  O  O19  1  0.59188612  0.41572113  0.59406738  1
  O  O20  1  0.17616499  0.58427887  0.09406738  1
  O  O21  1  0.59188612  0.41572113  0.90593262  1
  O  O22  1  0.82383501  0.41572113  0.59406738  1
  O  O23  1  0.40811388  0.58427887  0.40593262  1
  O  O24  1  0.82383501  0.41572113  0.90593262  1
  O  O25  1  0.40811388  0.58427887  0.09406738  1
  O  O26  1  0.25203592  0.50407184  0.25000000  1
  O  O27  1  0.74796408  0.49592816  0.75000000  1
  O  O28  1  0.40696466  0.81392932  0.41039861  1
  O  O29  1  0.59303534  0.18607068  0.58960139  1
  O  O30  1  0.40696466  0.81392932  0.08960139  1
  O  O31  1  0.59303534  0.18607068  0.91039861  1
  O  O32  1  0.25451084  0.74521125  0.25000000  1
  O  O33  1  0.50929958  0.25478875  0.75000000  1
  O  O34  1  0.74548916  0.25478875  0.75000000  1
  O  O35  1  0.49070042  0.74521125  0.25000000  1
  O  O36  1  0.90394610  0.31555570  0.41458976  1
  O  O37  1  0.58839040  0.68444430  0.58541024  1
  O  O38  1  0.90394610  0.31555570  0.08541024  1
  O  O39  1  0.58839040  0.68444430  0.91458976  1
  O  O40  1  0.09605390  0.68444430  0.58541024  1
  O  O41  1  0.41160960  0.31555570  0.41458976  1
  O  O42  1  0.09605390  0.68444430  0.91458976  1
  O  O43  1  0.41160960  0.31555570  0.08541024  1
  O  O44  1  0.97841983  0.24280367  0.25000000  1
  O  O45  1  0.73561616  0.75719633  0.75000000  1
  O  O46  1  0.02158017  0.75719633  0.75000000  1
  O  O47  1  0.26438384  0.24280367  0.25000000  1
  O  O48  1  0.75573837  0.23160568  0.25000000  1
  O  O49  1  0.52413268  0.76839432  0.75000000  1
  O  O50  1  0.24426163  0.76839432  0.75000000  1
  O  O51  1  0.47586732  0.23160568  0.25000000  1
  O  O52  1  0.67450364  0.07866623  0.40837718  1
  O  O53  1  0.59583741  0.92133377  0.59162282  1
  O  O54  1  0.67450364  0.07866623  0.09162282  1
  O  O55  1  0.59583741  0.92133377  0.90837718  1
  O  O56  1  0.32549636  0.92133377  0.59162282  1
  O  O57  1  0.40416259  0.07866623  0.40837718  1
  O  O58  1  0.32549636  0.92133377  0.90837718  1
  O  O59  1  0.40416259  0.07866623  0.09162282  1
  O  O60  1  0.91544853  0.08845596  0.40828060  1
  O  O61  1  0.82699257  0.91154404  0.59171940  1
  O  O62  1  0.91544853  0.08845596  0.09171940  1
  O  O63  1  0.82699257  0.91154404  0.90828060  1
  O  O64  1  0.08455147  0.91154404  0.59171940  1
  O  O65  1  0.17300743  0.08845596  0.40828060  1
  O  O66  1  0.08455147  0.91154404  0.90828060  1
  O  O67  1  0.17300743  0.08845596  0.09171940  1
  O  O68  1  0.76339258  0.01378950  0.25000000  1
  O  O69  1  0.74960308  0.98621050  0.75000000  1
  O  O70  1  0.23660742  0.98621050  0.75000000  1
  O  O71  1  0.25039692  0.01378950  0.25000000  1
loop_
_geom_bond_atom_site_label_1
_geom_bond_atom_site_label_2
_geom_bond_distance
_geom_bond_site_symmetry_2
Ba0 O70 2.911846 1_545
Ba0 O69 2.911846 1_445
Ba0 O64 2.937710 1_545
Ba0 O66 2.937710 1_545
Ba0 O61 2.937710 1_445
Ba0 O63 2.937710 1_445
Ba0 O17 2.974404 1_555
Ba0 O15 2.974404 1_555
Ba0 O11 2.988820 1_555
Ba0 O12 2.988820 1_555
Ba0 O46 3.071330 1_545
Ba0 O45 3.071330 1_445
Ba1 O68 2.911846 1_565
Ba1 O71 2.911846 1_665
Ba1 O60 2.937710 1_565
Ba1 O62 2.937710 1_565
Ba1 O65 2.937710 1_665
Ba1 O67 2.937710 1_665
Ba1 O16 2.974404 1_555
Ba1 O14 2.974404 1_555
Ba1 O13 2.988820 1_555
Ba1 O10 2.988820 1_555
Ba1 O44 3.071330 1_565
Ba1 O47 3.071330 1_665
Ba2 O51 2.936928 1_565
Ba2 O48 2.936928 1_565
Ba2 O57 2.941838 1_565
Ba2 O59 2.941838 1_565
Ba2 O52 2.941838 1_565
Ba2 O54 2.941838 1_565
Ba2 O32 2.953147 1_555
Ba2 O35 2.953147 1_555
Ba2 O30 3.007709 1_555
Ba2 O28 3.007709 1_555
Ba2 O71 3.065237 1_565
Ba2 O68 3.065237 1_565
Ba3 O49 2.936928 1_545
Ba3 O50 2.936928 1_545
Ba3 O55 2.941838 1_545
Ba3 O53 2.941838 1_545
Ba3 O58 2.941838 1_545
Ba3 O56 2.941838 1_545
Ba3 O34 2.953147 1_555
Ba3 O33 2.953147 1_555
Ba3 O31 3.007709 1_555
Ba3 O29 3.007709 1_555
Ba3 O69 3.065237 1_545
Ba3 O70 3.065237 1_545
Ba4 O44 2.865490 1_555
Ba4 O18 2.952207 1_655
Ba4 O20 2.952207 1_655
Ba4 O2 2.961971 1_555
Ba4 O0 2.961971 1_555
Ba4 O8 2.968814 1_555
Ba4 O48 2.970828 1_555
Ba4 O13 2.992856 1_555
Ba4 O26 3.001882 1_655
Ba4 O36 3.007215 1_555
Ba4 O38 3.007215 1_555
Ba4 O32 3.063945 1_655
Ba5 O45 2.865490 1_555
Ba5 O19 2.952207 1_555
Ba5 O21 2.952207 1_555
Ba5 O3 2.961971 1_555
Ba5 O1 2.961971 1_555
Ba5 O9 2.968814 1_555
Ba5 O49 2.970828 1_555
Ba5 O12 2.992856 1_555
Ba5 O27 3.001882 1_555
Ba5 O37 3.007215 1_555
Ba5 O39 3.007215 1_555
Ba5 O33 3.063945 1_555
Ba6 O46 2.865490 1_555
Ba6 O24 2.952207 1_455
Ba6 O22 2.952207 1_455
Ba6 O4 2.961971 1_555
Ba6 O6 2.961971 1_555
Ba6 O9 2.968814 1_555
Ba6 O50 2.970828 1_555
Ba6 O11 2.992856 1_555
Ba6 O27 3.001882 1_455
Ba6 O42 3.007215 1_555
Ba6 O40 3.007215 1_555
Ba6 O34 3.063945 1_455
Ba7 O47 2.865490 1_555
Ba7 O25 2.952207 1_555
Ba7 O23 2.952207 1_555
Ba7 O7 2.961971 1_555
Ba7 O5 2.961971 1_555
Ba7 O8 2.968814 1_555
Ba7 O51 2.970828 1_555
Ba7 O10 2.992856 1_555
Ba7 O26 3.001882 1_555
Ba7 O41 3.007215 1_555
Ba7 O43 3.007215 1_555
Ba7 O35 3.063945 1_555
Ba8 O5 2.890447 1_555
Ba8 O0 2.890447 1_555
Ba8 O41 2.944479 1_555
Ba8 O36 2.944479 1_555
Ba8 O8 2.959298 1_555
Ba8 O29 2.971884 1_555
Ba8 O19 3.064044 1_555
Ba8 O22 3.064044 1_555
Ba8 O57 3.101995 1_555
Ba8 O52 3.101995 1_555
Ba8 O51 3.127251 1_555
Ba8 O48 3.127251 1_555
Ba9 O1 2.890447 1_555
Ba9 O4 2.890447 1_555
Ba9 O37 2.944479 1_555
Ba9 O40 2.944479 1_555
Ba9 O9 2.959298 1_555
Ba9 O28 2.971884 1_555
Ba9 O23 3.064044 1_555
Ba9 O18 3.064044 1_555
Ba9 O53 3.101995 1_555
Ba9 O56 3.101995 1_555
Ba9 O49 3.127251 1_555
Ba9 O50 3.127251 1_555
Ba10 O7 2.890447 1_555
Ba10 O2 2.890447 1_555
Ba10 O43 2.944479 1_555
Ba10 O38 2.944479 1_555
Ba10 O8 2.959298 1_555
Ba10 O31 2.971884 1_554
Ba10 O21 3.064044 1_554
Ba10 O24 3.064044 1_554
Ba10 O59 3.101995 1_555
Ba10 O54 3.101995 1_555
Ba10 O51 3.127251 1_555
Ba10 O48 3.127251 1_555
Ba11 O3 2.890447 1_555
Ba11 O6 2.890447 1_555
Ba11 O39 2.944479 1_555
Ba11 O42 2.944479 1_555
Ba11 O9 2.959298 1_555
Ba11 O30 2.971884 1_556
Ba11 O25 3.064044 1_556
Ba11 O20 3.064044 1_556
Ba11 O55 3.101995 1_555
Ba11 O58 3.101995 1_555
Ba11 O49 3.127251 1_555
Ba11 O50 3.127251 1_555
Ba12 O23 2.913285 1_555
Ba12 O18 2.913286 1_555
Ba12 O26 2.947837 1_555
Ba12 O65 2.975586 1_555
Ba12 O60 2.975586 1_455
Ba12 O15 3.022957 1_555
Ba12 O41 3.035750 1_555
Ba12 O36 3.035750 1_455
Ba12 O1 3.064288 1_555
Ba12 O4 3.064288 1_555
Ba12 O47 3.083058 1_555
Ba12 O44 3.083058 1_455
Ba13 O19 2.913285 1_555
Ba13 O22 2.913286 1_555
Ba13 O27 2.947837 1_555
Ba13 O61 2.975586 1_555
Ba13 O64 2.975586 1_655
Ba13 O14 3.022957 1_555
Ba13 O37 3.035750 1_555
Ba13 O40 3.035750 1_655
Ba13 O5 3.064288 1_555
Ba13 O0 3.064288 1_555
Ba13 O45 3.083058 1_555
Ba13 O46 3.083058 1_655
Ba14 O25 2.913285 1_555
Ba14 O20 2.913286 1_555
Ba14 O26 2.947837 1_555
Ba14 O67 2.975586 1_555
Ba14 O62 2.975586 1_455
Ba14 O17 3.022957 1_554
Ba14 O43 3.035750 1_555
Ba14 O38 3.035750 1_455
Ba14 O3 3.064288 1_554
Ba14 O6 3.064288 1_554
Ba14 O47 3.083058 1_555
Ba14 O44 3.083058 1_455
Ba15 O21 2.913285 1_555
Ba15 O24 2.913286 1_555
Ba15 O27 2.947837 1_555
Ba15 O63 2.975586 1_555
Ba15 O66 2.975586 1_655
Ba15 O16 3.022957 1_556
Ba15 O39 3.035750 1_555
Ba15 O42 3.035750 1_655
Ba15 O7 3.064288 1_556
Ba15 O2 3.064288 1_556
Ba15 O45 3.083058 1_555
Ba15 O46 3.083058 1_655
Ba16 O35 2.856826 1_555
Ba16 O10 2.880054 1_555
Ba16 O23 2.930507 1_555
Ba16 O52 2.960570 1_565
Ba16 O5 2.968132 1_555
Ba16 O28 2.973462 1_555
Ba16 O68 2.988481 1_565
Ba16 O14 2.997559 1_555
Ba16 O37 3.007299 1_555
Ba16 O60 3.096766 1_565
Ba16 O53 3.216069 1_555
Ba16 O61 3.231375 1_555
Ba17 O34 2.856826 1_555
Ba17 O11 2.880054 1_655
Ba17 O22 2.930507 1_555
Ba17 O53 2.960570 1_545
Ba17 O4 2.968132 1_655
Ba17 O29 2.973462 1_555
Ba17 O69 2.988481 1_545
Ba17 O15 2.997559 1_655
Ba17 O36 3.007299 1_555
Ba17 O61 3.096766 1_545
Ba17 O52 3.216069 1_555
Ba17 O60 3.231375 1_555
Ba18 O35 2.856826 1_555
Ba18 O10 2.880054 1_555
Ba18 O25 2.930507 1_555
Ba18 O54 2.960570 1_565
Ba18 O7 2.968132 1_555
Ba18 O30 2.973462 1_555
Ba18 O68 2.988481 1_565
Ba18 O16 2.997559 1_555
Ba18 O39 3.007299 1_554
Ba18 O62 3.096766 1_565
Ba18 O55 3.216069 1_554
Ba18 O63 3.231375 1_554
Ba19 O34 2.856826 1_555
Ba19 O11 2.880054 1_655
Ba19 O24 2.930507 1_555
Ba19 O55 2.960570 1_545
Ba19 O6 2.968132 1_655
Ba19 O31 2.973462 1_555
Ba19 O69 2.988481 1_545
Ba19 O17 2.997559 1_655
Ba19 O38 3.007299 1_556
Ba19 O63 3.096766 1_545
Ba19 O54 3.216069 1_556
Ba19 O62 3.231375 1_556
Ba20 O33 2.856826 1_555
Ba20 O12 2.880054 1_555
Ba20 O19 2.930507 1_555
Ba20 O56 2.960570 1_545
Ba20 O1 2.968132 1_555
Ba20 O29 2.973462 1_555
Ba20 O70 2.988481 1_545
Ba20 O15 2.997559 1_555
Ba20 O41 3.007299 1_555
Ba20 O64 3.096766 1_545
Ba20 O57 3.216069 1_555
Ba20 O65 3.231375 1_555
Ba21 O32 2.856826 1_555
Ba21 O13 2.880054 1_455
Ba21 O18 2.930507 1_555
Ba21 O57 2.960570 1_565
Ba21 O0 2.968132 1_455
Ba21 O28 2.973462 1_555
Ba21 O71 2.988481 1_565
Ba21 O14 2.997559 1_455
Ba21 O40 3.007299 1_555
Ba21 O65 3.096766 1_565
Ba21 O56 3.216069 1_555
Ba21 O64 3.231375 1_555
Ba22 O33 2.856826 1_555
Ba22 O12 2.880054 1_555
Ba22 O21 2.930507 1_555
Ba22 O58 2.960570 1_545
Ba22 O3 2.968132 1_555
Ba22 O31 2.973462 1_555
Ba22 O70 2.988481 1_545
Ba22 O17 2.997559 1_555
Ba22 O43 3.007299 1_556
Ba22 O66 3.096766 1_545
Ba22 O59 3.216069 1_556
Ba22 O67 3.231375 1_556
Ba23 O32 2.856826 1_555
Ba23 O13 2.880054 1_455
Ba23 O20 2.930507 1_555
Ba23 O59 2.960570 1_565
Ba23 O2 2.968132 1_455
Ba23 O30 2.973462 1_555
Ba23 O71 2.988481 1_565
Ba23 O16 2.997559 1_455
Ba23 O42 3.007299 1_554
Ba23 O67 3.096766 1_565
Ba23 O58 3.216069 1_554
Ba23 O66 3.231375 1_554
Na0 O0 2.267150 1_455
Na0 O4 2.267150 1_555
Na0 O36 2.273464 1_455
Na0 O40 2.273464 1_555
Na0 O18 2.279813 1_555
Na0 O22 2.279813 1_455
Na1 O5 2.267150 1_555
Na1 O1 2.267150 1_555
Na1 O37 2.273464 1_555
Na1 O41 2.273464 1_555
Na1 O23 2.279813 1_555
Na1 O19 2.279813 1_555
Na2 O2 2.267150 1_455
Na2 O6 2.267150 1_554
Na2 O42 2.273464 1_554
Na2 O38 2.273464 1_455
Na2 O24 2.279813 1_454
Na2 O20 2.279813 1_555
Na3 O7 2.267150 1_555
Na3 O3 2.267150 1_554
Na3 O43 2.273464 1_555
Na3 O39 2.273464 1_554
Na3 O25 2.279813 1_555
Na3 O21 2.279813 1_554
Na4 O53 2.246680 1_545
Na4 O57 2.246680 1_555
Na4 O52 2.246680 1_555
Na4 O56 2.246680 1_545
Na4 O29 2.320966 1_555
Na4 O28 2.320966 1_545
Na5 O55 2.246680 1_544
Na5 O59 2.246680 1_555
Na5 O54 2.246680 1_555
Na5 O58 2.246680 1_544
Na5 O31 2.320966 1_554
Na5 O30 2.320966 1_545
Na6 O60 2.232684 1_455
Na6 O64 2.232684 1_545
Na6 O65 2.232684 1_555
Na6 O61 2.232684 1_445
Na6 O14 2.338194 1_445
Na6 O15 2.338194 1_555
Na7 O62 2.232684 1_455
Na7 O66 2.232684 1_544
Na7 O63 2.232684 1_444
Na7 O67 2.232684 1_555
Na7 O16 2.338194 1_445
Na7 O17 2.338194 1_554
O0 Ru0 1.893984 1_555
O1 Ru1 1.893984 1_555
O2 Ru2 1.893984 1_555
O3 Ru3 1.893984 1_555
O4 Ru1 1.893984 1_555
O5 Ru0 1.893984 1_555
O6 Ru3 1.893984 1_555
O7 Ru2 1.893984 1_555
O8 Ru2 2.073078 1_555
O8 Ru0 2.073078 1_555
O9 Ru1 2.073078 1_555
O9 Ru3 2.073078 1_555
O10 Ru2 2.073577 1_555
O10 Ru0 2.073577 1_555
O11 Ru3 2.073577 1_555
O11 Ru1 2.073577 1_555
O12 Ru1 2.073577 1_555
O12 Ru3 2.073577 1_555
O13 Ru2 2.073577 1_555
O13 Ru0 2.073577 1_555
O14 Ru0 1.894142 1_555
O15 Ru1 1.894142 1_555
O16 Ru2 1.894142 1_555
O17 Ru3 1.894142 1_555
O18 Ru4 1.895175 1_555
O19 Ru5 1.895175 1_555
O20 Ru6 1.895175 1_555
O21 Ru7 1.895175 1_555
O22 Ru5 1.895175 1_555
O23 Ru4 1.895175 1_555
O24 Ru7 1.895175 1_555
O25 Ru6 1.895175 1_555
O26 Ru4 2.061491 1_555
O26 Ru6 2.061491 1_555
O27 Ru7 2.061491 1_555
O27 Ru5 2.061491 1_555
O28 Ru4 1.899327 1_555
O29 Ru5 1.899327 1_555
O30 Ru6 1.899327 1_555
O31 Ru7 1.899327 1_555
O32 Ru6 2.075206 1_555
O32 Ru4 2.075206 1_555
O33 Ru7 2.075206 1_555
O33 Ru5 2.075206 1_555
O34 Ru7 2.075206 1_555
O34 Ru5 2.075206 1_555
O35 Ru6 2.075206 1_555
O35 Ru4 2.075206 1_555
O36 Ru8 1.875417 1_555
O37 Ru9 1.875417 1_555
O38 Ru10 1.875417 1_555
O39 Ru11 1.875417 1_555
O40 Ru12 1.875417 1_555
O41 Ru13 1.875417 1_555
O42 Ru14 1.875417 1_555
O43 Ru15 1.875417 1_555
O44 Ru10 2.070069 1_555
O44 Ru8 2.070069 1_555
O45 Ru11 2.070069 1_555
O45 Ru9 2.070069 1_555
O46 Ru14 2.070069 1_555
O46 Ru12 2.070069 1_555
O47 Ru13 2.070069 1_555
O47 Ru15 2.070069 1_555
O48 Ru8 2.063978 1_555
O48 Ru10 2.063978 1_555
O49 Ru11 2.063978 1_555
O49 Ru9 2.063978 1_555
O50 Ru12 2.063978 1_555
O50 Ru14 2.063978 1_555
O51 Ru15 2.063978 1_555
O51 Ru13 2.063978 1_555
O52 Ru8 1.858728 1_555
O53 Ru9 1.858728 1_555
O54 Ru10 1.858728 1_555
O55 Ru11 1.858728 1_555
O56 Ru12 1.858728 1_555
O57 Ru13 1.858728 1_555
O58 Ru14 1.858728 1_555
O59 Ru15 1.858728 1_555
O60 Ru8 1.854476 1_555
O61 Ru9 1.854476 1_555
O62 Ru10 1.854476 1_555
O63 Ru11 1.854476 1_555
O64 Ru12 1.854476 1_555
O65 Ru13 1.854476 1_555
O66 Ru14 1.854476 1_555
O67 Ru15 1.854476 1_555
O68 Ru8 2.073287 1_555
O68 Ru10 2.073287 1_555
O69 Ru11 2.073287 1_555
O69 Ru9 2.073287 1_555
O70 Ru12 2.073287 1_555
O70 Ru14 2.073287 1_555
O71 Ru15 2.073287 1_555
O71 Ru13 2.073287 1_555
