# generated using pymatgen
data_Cs3Re2Cl10O
_symmetry_space_group_name_H-M   'P 1'
_cell_length_a   10.38746756
_cell_length_b   10.38746756
_cell_length_c   10.38746756
_cell_angle_alpha   137.02309131
_cell_angle_beta   137.02309131
_cell_angle_gamma   62.40252362
_symmetry_Int_Tables_number   1
_chemical_formula_structural   Cs3Re2Cl10O
_chemical_formula_sum   'Cs3 Re2 Cl10 O1'
_cell_volume   514.56558605
_cell_formula_units_Z   1
loop_
 _symmetry_equiv_pos_site_id
 _symmetry_equiv_pos_as_xyz
  1  'x, y, z'
loop_
 _atom_site_type_symbol
 _atom_site_label
 _atom_site_symmetry_multiplicity
 _atom_site_fract_x
 _atom_site_fract_y
 _atom_site_fract_z
 _atom_site_occupancy
  Cs  Cs0  1  0.75000000  0.25000000  0.50000000  1
  Cs  Cs1  1  0.25000000  0.75000000  0.50000000  1
  Cs  Cs2  1  0.50000000  0.50000000  0.00000000  1
  Re  Re0  1  0.89676200  0.89676200  0.00000000  1
  Re  Re1  1  0.10323800  0.10323800  0.00000000  1
  Cl  Cl0  1  0.76210600  0.76210600  0.00000000  1
  Cl  Cl1  1  0.23789400  0.23789400  0.00000000  1
  Cl  Cl2  1  0.11028600  0.11028600  0.44077800  1
  Cl  Cl3  1  0.66950800  0.66950800  0.55922200  1
  Cl  Cl4  1  0.11028600  0.66950800  0.00000000  1
  Cl  Cl5  1  0.66950800  0.11028600  0.00000000  1
  Cl  Cl6  1  0.88971400  0.88971400  0.55922200  1
  Cl  Cl7  1  0.33049200  0.33049200  0.44077800  1
  Cl  Cl8  1  0.88971400  0.33049200  0.00000000  1
  Cl  Cl9  1  0.33049200  0.88971400  0.00000000  1
  O  O0  1  0.00000000  0.00000000  0.00000000  1
loop_
_geom_bond_atom_site_label_1
_geom_bond_atom_site_label_2
_geom_bond_distance
_geom_bond_site_symmetry_2
Cl0 Re0 2.392824 1_555
Cl0 Cs0 3.811148 1_554
Cl0 Cs1 3.811148 1_655
Cl0 Cs1 3.811148 1_554
Cl0 Cs0 3.811148 1_565
Cl1 Re1 2.392824 1_555
Cl1 Cs0 3.811148 1_555
Cl1 Cs1 3.811148 1_544
Cl1 Cs1 3.811148 1_555
Cl1 Cs0 3.811148 1_454
Cl2 Re0 2.375043 1_445
Cl2 Cs2 3.589389 1_556
Cl2 Cs0 3.677067 1_455
Cl2 Cs1 3.677067 1_545
Cl3 Re0 2.375043 1_556
Cl3 Cs2 3.589389 1_555
Cl3 Cs0 3.677067 1_555
Cl3 Cs1 3.677067 1_555
Cl4 Re0 2.375043 1_455
Cl4 Cs2 3.589389 1_555
Cl4 Cs0 3.677067 1_454
Cl4 Cs1 3.677067 1_555
Cl5 Re0 2.375043 1_545
Cl5 Cs2 3.589389 1_555
Cl5 Cs0 3.677067 1_555
Cl5 Cs1 3.677067 1_544
Cl6 Re1 2.375043 1_666
Cl6 Cs2 3.589389 1_555
Cl6 Cs0 3.677067 1_565
Cl6 Cs1 3.677067 1_655
Cl7 Re1 2.375043 1_555
Cl7 Cs2 3.589389 1_556
Cl7 Cs0 3.677067 1_555
Cl7 Cs1 3.677067 1_555
Cl8 Re1 2.375043 1_655
Cl8 Cs2 3.589389 1_555
Cl8 Cs1 3.677067 1_655
Cl8 Cs0 3.677067 1_554
Cl9 Re1 2.375043 1_565
Cl9 Cs2 3.589389 1_555
Cl9 Cs1 3.677067 1_554
Cl9 Cs0 3.677067 1_565
O0 Re1 1.834529 1_555
O0 Re0 1.834529 1_445
