# generated using pymatgen
data_Mg8Al4Cu2Si7
_symmetry_space_group_name_H-M   'P 1'
_cell_length_a   3.97973000
_cell_length_b   10.41370200
_cell_length_c   10.46858296
_cell_angle_alpha   60.53459829
_cell_angle_beta   90.00000000
_cell_angle_gamma   90.00000000
_symmetry_Int_Tables_number   1
_chemical_formula_structural   Mg8Al4Cu2Si7
_chemical_formula_sum   'Mg8 Al4 Cu2 Si7'
_cell_volume   377.73888943
_cell_formula_units_Z   1
loop_
 _symmetry_equiv_pos_site_id
 _symmetry_equiv_pos_as_xyz
  1  'x, y, z'
loop_
 _atom_site_type_symbol
 _atom_site_label
 _atom_site_symmetry_multiplicity
 _atom_site_fract_x
 _atom_site_fract_y
 _atom_site_fract_z
 _atom_site_occupancy
  Mg  Mg0  1  0.00000000  0.25340400  0.74917500  1
  Mg  Mg1  1  0.00000000  0.75019200  0.99896300  1
  Mg  Mg2  1  0.50000000  0.14095400  0.37802800  1
  Mg  Mg3  1  0.50000000  0.38022100  0.48108800  1
  Mg  Mg4  1  0.50000000  0.47630100  0.14093500  1
  Mg  Mg5  1  0.50000000  0.00066200  0.79728100  1
  Mg  Mg6  1  0.50000000  0.79583800  0.19994200  1
  Mg  Mg7  1  0.50000000  0.20206800  0.00428400  1
  Al  Al0  1  0.00000000  0.84922900  0.65675700  1
  Al  Al1  1  0.00000000  0.63059000  0.51159300  1
  Al  Al2  1  0.00000000  0.49538400  0.86372100  1
  Al  Al3  1  0.00000000  0.00183600  0.24608100  1
  Cu  Cu0  1  0.50000000  0.68619200  0.64564900  1
  Cu  Cu1  1  0.00000000  0.33195900  0.33588300  1
  Si  Si0  1  0.50000000  0.87488800  0.40632300  1
  Si  Si1  1  0.50000000  0.43706600  0.71168600  1
  Si  Si2  1  0.50000000  0.70407000  0.85904200  1
  Si  Si3  1  0.00000000  0.00442600  0.00298400  1
  Si  Si4  1  0.00000000  0.12478500  0.57875200  1
  Si  Si5  1  0.00000000  0.57695600  0.29463800  1
  Si  Si6  1  0.00000000  0.28297800  0.13719600  1
loop_
_geom_bond_atom_site_label_1
_geom_bond_atom_site_label_2
_geom_bond_distance
_geom_bond_site_symmetry_2
Mg0 Si3 2.646665 1_556
Mg0 Si1 2.652014 1_555
Mg0 Si1 2.652014 1_455
Mg0 Si4 2.706999 1_555
Mg1 Si2 2.651028 1_455
Mg1 Si2 2.651028 1_555
Mg1 Si3 2.668475 1_566
Mg1 Si5 2.709588 1_556
Mg2 Si0 2.637666 1_545
Mg2 Si4 2.838182 1_655
Mg2 Si4 2.838182 1_555
Mg2 Si6 2.972358 1_555
Mg2 Si6 2.972358 1_655
Mg3 Si1 2.753881 1_555
Mg3 Si5 2.834187 1_655
Mg3 Si5 2.834187 1_555
Mg3 Si4 3.066773 1_655
Mg3 Si4 3.066773 1_555
Mg4 Si2 2.729169 1_554
Mg4 Si6 2.844578 1_555
Mg4 Si6 2.844578 1_655
Mg4 Si5 3.050669 1_655
Mg4 Si5 3.050669 1_555
Mg5 Si4 2.820415 1_555
Mg5 Si4 2.820415 1_655
Mg5 Si2 2.827192 1_545
Mg5 Si3 2.946413 1_656
Mg5 Si3 2.946413 1_556
Mg6 Si0 2.663685 1_555
Mg6 Si5 2.813332 1_555
Mg6 Si5 2.813332 1_655
Mg6 Si3 2.919425 1_565
Mg6 Si3 2.919425 1_665
Mg7 Si6 2.785470 1_555
Mg7 Si6 2.785470 1_655
Mg7 Si1 2.827855 1_554
Mg7 Si3 2.867652 1_655
Mg7 Si3 2.867652 1_555
Al0 Si4 2.568246 1_565
Al0 Cu0 2.655166 1_555
Al0 Cu0 2.655166 1_455
Al0 Si2 2.753139 1_455
Al0 Si2 2.753139 1_555
Al1 Si5 2.591975 1_555
Al1 Cu0 2.657765 1_555
Al1 Cu0 2.657765 1_455
Al1 Si1 2.873274 1_455
Al1 Si1 2.873274 1_555
Al1 Si0 2.981278 1_555
Al1 Si0 2.981278 1_455
Al2 Si6 2.618950 1_556
Al2 Si1 2.795079 1_455
Al2 Si1 2.795079 1_555
Al2 Si2 2.929165 1_455
Al2 Si2 2.929165 1_555
Al2 Cu0 2.942242 1_555
Al2 Cu0 2.942242 1_455
Al3 Si0 2.517845 1_545
Al3 Si0 2.517845 1_445
Al3 Si3 2.531723 1_555
Al3 Si6 2.566661 1_555
Cu0 Si0 2.301079 1_555
Cu0 Si2 2.331144 1_555
Cu0 Si1 2.333238 1_555
Cu1 Si5 2.368954 1_555
Cu1 Si6 2.372805 1_555
Cu1 Si4 2.392163 1_555
Cu1 Mg2 2.692074 1_455
Cu1 Mg2 2.692074 1_555
Cu1 Mg3 2.697115 1_555
Cu1 Mg3 2.697115 1_455
Cu1 Mg4 2.714043 1_455
Cu1 Mg4 2.714043 1_555
