# generated using pymatgen
data_CeAsO5F
_symmetry_space_group_name_H-M   'P 1'
_cell_length_a   7.33940400
_cell_length_b   5.30978200
_cell_length_c   12.86736704
_cell_angle_alpha   70.94896114
_cell_angle_beta   90.00000000
_cell_angle_gamma   90.00000000
_symmetry_Int_Tables_number   1
_chemical_formula_structural   CeAsO5F
_chemical_formula_sum   'Ce4 As4 O20 F4'
_cell_volume   473.98417035
_cell_formula_units_Z   4
loop_
 _symmetry_equiv_pos_site_id
 _symmetry_equiv_pos_as_xyz
  1  'x, y, z'
loop_
 _atom_site_type_symbol
 _atom_site_label
 _atom_site_symmetry_multiplicity
 _atom_site_fract_x
 _atom_site_fract_y
 _atom_site_fract_z
 _atom_site_occupancy
  Ce  Ce0  1  0.79700900  0.95256300  0.80884500  1
  Ce  Ce1  1  0.20299100  0.04743700  0.19115500  1
  Ce  Ce2  1  0.29700900  0.04743700  0.69115500  1
  Ce  Ce3  1  0.70299100  0.95256300  0.30884500  1
  As  As0  1  0.13784700  0.39212300  0.88660900  1
  As  As1  1  0.86215300  0.60787700  0.11339100  1
  As  As2  1  0.63784700  0.60787700  0.61339100  1
  As  As3  1  0.36215300  0.39212300  0.38660900  1
  O  O0  1  0.29355600  0.29101400  0.80986400  1
  O  O1  1  0.70644400  0.70898600  0.19013600  1
  O  O2  1  0.79355600  0.70898600  0.69013600  1
  O  O3  1  0.20644400  0.29101400  0.30986400  1
  O  O4  1  0.10180700  0.73221000  0.82607100  1
  O  O5  1  0.89819300  0.26779000  0.17392900  1
  O  O6  1  0.60180700  0.26779000  0.67392900  1
  O  O7  1  0.39819300  0.73221000  0.32607100  1
  O  O8  1  0.28773600  0.33053800  0.51876000  1
  O  O9  1  0.71226400  0.66946200  0.48124000  1
  O  O10  1  0.78773600  0.66946200  0.98124000  1
  O  O11  1  0.21226400  0.33053800  0.01876000  1
  O  O12  1  0.43604600  0.77706900  0.61081800  1
  O  O13  1  0.56395400  0.22293100  0.38918200  1
  O  O14  1  0.93604600  0.22293100  0.88918200  1
  O  O15  1  0.06395400  0.77706900  0.11081800  1
  O  O16  1  0.11549600  0.82068800  0.58169500  1
  O  O17  1  0.88450400  0.17931200  0.41830500  1
  O  O18  1  0.61549600  0.17931200  0.91830500  1
  O  O19  1  0.38450400  0.82068800  0.08169500  1
  F  F0  1  0.50123800  0.80936100  0.81984200  1
  F  F1  1  0.49876200  0.19063900  0.18015800  1
  F  F2  1  0.00123800  0.19063900  0.68015800  1
  F  F3  1  0.99876200  0.80936100  0.31984200  1
loop_
_geom_bond_atom_site_label_1
_geom_bond_atom_site_label_2
_geom_bond_distance
_geom_bond_site_symmetry_2
Ce0 O10 2.237887 1_555
Ce0 O14 2.267075 1_565
Ce0 F2 2.284768 1_665
Ce0 F0 2.289158 1_555
Ce0 O2 2.301352 1_555
Ce0 O6 2.443548 1_565
Ce0 O4 2.500623 1_655
Ce0 O18 2.512993 1_565
Ce1 O11 2.237887 1_555
Ce1 O15 2.267075 1_545
Ce1 F3 2.284768 1_445
Ce1 F1 2.289158 1_555
Ce1 O3 2.301352 1_555
Ce1 O7 2.443548 1_545
Ce1 O5 2.500623 1_455
Ce1 O19 2.512993 1_545
Ce2 O8 2.237887 1_555
Ce2 O12 2.267075 1_545
Ce2 F0 2.284768 1_545
Ce2 F2 2.289158 1_555
Ce2 O0 2.301352 1_555
Ce2 O4 2.443548 1_545
Ce2 O6 2.500623 1_555
Ce2 O16 2.512993 1_545
Ce3 O9 2.237887 1_555
Ce3 O13 2.267075 1_565
Ce3 F1 2.284768 1_565
Ce3 F3 2.289158 1_555
Ce3 O1 2.301352 1_555
Ce3 O5 2.443548 1_565
Ce3 O7 2.500623 1_555
Ce3 O17 2.512993 1_565
As0 O0 1.707487 1_555
As0 O11 1.712811 1_556
As0 O14 1.726965 1_455
As0 O4 1.737624 1_555
As1 O1 1.707487 1_555
As1 O10 1.712811 1_554
As1 O15 1.726965 1_655
As1 O5 1.737624 1_555
As2 O2 1.707487 1_555
As2 O9 1.712811 1_555
As2 O12 1.726965 1_555
As2 O6 1.737624 1_555
As3 O3 1.707487 1_555
As3 O8 1.712811 1_555
As3 O13 1.726965 1_555
As3 O7 1.737624 1_555
