# generated using pymatgen
data_LiMg14Si
_symmetry_space_group_name_H-M   'P 1'
_cell_length_a   6.23470500
_cell_length_b   6.28312357
_cell_length_c   10.30661160
_cell_angle_alpha   90.00000000
_cell_angle_beta   90.00000000
_cell_angle_gamma   120.25723587
_symmetry_Int_Tables_number   1
_chemical_formula_structural   LiMg14Si
_chemical_formula_sum   'Li1 Mg14 Si1'
_cell_volume   348.74378842
_cell_formula_units_Z   1
loop_
 _symmetry_equiv_pos_site_id
 _symmetry_equiv_pos_as_xyz
  1  'x, y, z'
loop_
 _atom_site_type_symbol
 _atom_site_label
 _atom_site_symmetry_multiplicity
 _atom_site_fract_x
 _atom_site_fract_y
 _atom_site_fract_z
 _atom_site_occupancy
  Li  Li0  1  0.16609694  0.33304797  0.12500000  1
  Mg  Mg0  1  0.16925340  0.33462620  0.62500000  1
  Mg  Mg1  1  0.16737740  0.83368820  0.62500000  1
  Mg  Mg2  1  0.67073524  0.33285425  0.12500000  1
  Mg  Mg3  1  0.66582861  0.33460953  0.62500000  1
  Mg  Mg4  1  0.67073524  0.83787999  0.12500000  1
  Mg  Mg5  1  0.66582861  0.83121808  0.62500000  1
  Mg  Mg6  1  0.32836743  0.16186626  0.36681296  1
  Mg  Mg7  1  0.32836743  0.16186626  0.88318704  1
  Mg  Mg8  1  0.32836743  0.66650217  0.36681296  1
  Mg  Mg9  1  0.32836743  0.66650217  0.88318704  1
  Mg  Mg10  1  0.83385840  0.16692970  0.37693339  1
  Mg  Mg11  1  0.83385840  0.16692970  0.87306661  1
  Mg  Mg12  1  0.83725682  0.66862891  0.36888379  1
  Mg  Mg13  1  0.83725682  0.66862891  0.88111621  1
  Si  Si0  1  0.16844440  0.83422170  0.12500000  1
loop_
_geom_bond_atom_site_label_1
_geom_bond_atom_site_label_2
_geom_bond_distance
_geom_bond_site_symmetry_2
Li0 Mg7 3.080324 1_554
Li0 Mg6 3.080324 1_555
Li0 Mg9 3.080330 1_554
Li0 Mg8 3.080330 1_555
Li0 Mg4 3.087821 1_445
Li0 Mg2 3.087821 1_455
Li0 Si0 3.141587 1_555
Li0 Si0 3.141587 1_545
Li0 Mg4 3.146884 1_555
Li0 Mg2 3.146884 1_555
Li0 Mg10 3.153340 1_455
Li0 Mg11 3.153340 1_454
Mg0 Mg5 3.096052 1_555
Mg0 Mg3 3.096053 1_555
Mg0 Mg11 3.130382 1_455
Mg0 Mg10 3.130382 1_455
Mg0 Mg5 3.138652 1_445
Mg0 Mg3 3.138652 1_455
Mg0 Mg1 3.141578 1_545
Mg0 Mg1 3.141578 1_555
Mg0 Mg6 3.213822 1_555
Mg0 Mg7 3.213822 1_555
Mg0 Mg8 3.213828 1_555
Mg0 Mg9 3.213828 1_555
Mg1 Mg3 3.115545 1_565
Mg1 Mg5 3.115545 1_555
Mg1 Mg3 3.119217 1_455
Mg1 Mg5 3.119217 1_455
Mg1 Mg13 3.182547 1_455
Mg1 Mg12 3.182547 1_455
Mg1 Mg8 3.202275 1_555
Mg1 Mg9 3.202275 1_555
Mg1 Mg6 3.202281 1_565
Mg1 Mg7 3.202281 1_565
Mg2 Mg7 3.100150 1_554
Mg2 Mg6 3.100150 1_555
Mg2 Mg4 3.109984 1_545
Mg2 Si0 3.114715 1_655
Mg2 Si0 3.120116 1_545
Mg2 Mg4 3.173139 1_555
Mg3 Mg5 3.120253 1_555
Mg3 Mg5 3.162871 1_545
Mg3 Mg6 3.222499 1_555
Mg3 Mg7 3.222499 1_555
Mg4 Mg9 3.100150 1_554
Mg4 Mg8 3.100150 1_555
Mg4 Si0 3.114715 1_655
Mg4 Si0 3.120116 1_555
Mg5 Mg8 3.222499 1_555
Mg5 Mg9 3.222499 1_555
Mg6 Si0 3.061861 1_545
Mg6 Mg8 3.112434 1_545
Mg6 Mg8 3.170690 1_555
Mg7 Si0 3.061861 1_546
Mg7 Mg9 3.112434 1_545
Mg7 Mg9 3.170690 1_555
Mg8 Si0 3.061855 1_555
Mg9 Si0 3.061855 1_556
Mg10 Mg8 3.101025 1_655
Mg10 Mg6 3.101025 1_655
Mg10 Mg8 3.137411 1_545
Mg10 Mg6 3.137411 1_555
Mg10 Mg3 3.139524 1_555
Mg10 Mg5 3.139531 1_545
Mg10 Mg12 3.142710 1_555
Mg10 Mg12 3.142710 1_545
Mg10 Mg2 3.151496 1_555
Mg10 Mg4 3.151503 1_545
Mg11 Mg9 3.101025 1_655
Mg11 Mg7 3.101025 1_655
Mg11 Mg9 3.137411 1_545
Mg11 Mg7 3.137411 1_555
Mg11 Mg3 3.139524 1_555
Mg11 Mg5 3.139531 1_545
Mg11 Mg13 3.142710 1_555
Mg11 Mg13 3.142710 1_545
Mg11 Mg2 3.151496 1_556
Mg11 Mg4 3.151503 1_546
Mg12 Mg6 3.068759 1_665
Mg12 Mg8 3.068759 1_655
Mg12 Si0 3.082104 1_655
Mg12 Mg4 3.104780 1_555
Mg12 Mg2 3.104786 1_555
Mg12 Mg6 3.166135 1_555
Mg12 Mg8 3.166135 1_555
Mg12 Mg5 3.202225 1_555
Mg12 Mg3 3.202231 1_555
Mg13 Mg7 3.068759 1_665
Mg13 Mg9 3.068759 1_655
Mg13 Si0 3.082104 1_656
Mg13 Mg4 3.104780 1_556
Mg13 Mg2 3.104786 1_556
Mg13 Mg7 3.166135 1_555
Mg13 Mg9 3.166135 1_555
Mg13 Mg5 3.202225 1_555
Mg13 Mg3 3.202231 1_555
