# generated using pymatgen
data_P2H18WC6(ClO2)2
_symmetry_space_group_name_H-M   'P 1'
_cell_length_a   11.05545400
_cell_length_b   12.15369000
_cell_length_c   16.61427518
_cell_angle_alpha   90.00000000
_cell_angle_beta   129.08599718
_cell_angle_gamma   90.00000000
_symmetry_Int_Tables_number   1
_chemical_formula_structural   P2H18WC6(ClO2)2
_chemical_formula_sum   'P8 H72 W4 C24 Cl8 O16'
_cell_volume   1732.76658439
_cell_formula_units_Z   4
loop_
 _symmetry_equiv_pos_site_id
 _symmetry_equiv_pos_as_xyz
  1  'x, y, z'
loop_
 _atom_site_type_symbol
 _atom_site_label
 _atom_site_symmetry_multiplicity
 _atom_site_fract_x
 _atom_site_fract_y
 _atom_site_fract_z
 _atom_site_occupancy
  P  P0  1  0.09070400  0.76320500  0.87869500  1
  P  P1  1  0.09070400  0.73679500  0.37869500  1
  P  P2  1  0.90929600  0.23679500  0.12130500  1
  P  P3  1  0.90929600  0.26320500  0.62130500  1
  P  P4  1  0.55563300  0.71596700  0.93025300  1
  P  P5  1  0.55563300  0.78403300  0.43025300  1
  P  P6  1  0.44436700  0.28403300  0.06974700  1
  P  P7  1  0.44436700  0.21596700  0.56974700  1
  H  H0  1  0.86460300  0.86265600  0.82827100  1
  H  H1  1  0.86460300  0.63734400  0.32827100  1
  H  H2  1  0.13539700  0.13734400  0.17172900  1
  H  H3  1  0.13539700  0.36265600  0.67172900  1
  H  H4  1  0.93380400  0.76527300  0.93046100  1
  H  H5  1  0.93380400  0.73472700  0.43046100  1
  H  H6  1  0.06619600  0.23472700  0.06953900  1
  H  H7  1  0.06619600  0.26527300  0.56953900  1
  H  H8  1  0.82682900  0.71695400  0.80029700  1
  H  H9  1  0.82682900  0.78304600  0.30029700  1
  H  H10  1  0.17317100  0.28304600  0.19970300  1
  H  H11  1  0.17317100  0.21695400  0.69970300  1
  H  H12  1  0.06497400  0.56822400  0.85817000  1
  H  H13  1  0.06497400  0.93177600  0.35817000  1
  H  H14  1  0.93502600  0.43177600  0.14183000  1
  H  H15  1  0.93502600  0.06822400  0.64183000  1
  H  H16  1  0.16315900  0.60850500  0.99045400  1
  H  H17  1  0.16315900  0.89149500  0.49045400  1
  H  H18  1  0.83684100  0.39149500  0.00954600  1
  H  H19  1  0.83684100  0.10850500  0.50954600  1
  H  H20  1  0.26380100  0.61309500  0.93727300  1
  H  H21  1  0.26380100  0.88690500  0.43727300  1
  H  H22  1  0.73619900  0.38690500  0.06272700  1
  H  H23  1  0.73619900  0.11309500  0.56272700  1
  H  H24  1  0.33322400  0.85421600  0.99067500  1
  H  H25  1  0.33322400  0.64578400  0.49067500  1
  H  H26  1  0.66677600  0.14578400  0.00932500  1
  H  H27  1  0.66677600  0.35421600  0.50932500  1
  H  H28  1  0.24971000  0.82938000  0.05382900  1
  H  H29  1  0.24971000  0.67062000  0.55382900  1
  H  H30  1  0.75029000  0.17062000  0.94617100  1
  H  H31  1  0.75029000  0.32938000  0.44617100  1
  H  H32  1  0.17675800  0.93871600  0.95998900  1
  H  H33  1  0.17675800  0.56128400  0.45998900  1
  H  H34  1  0.82324200  0.06128400  0.04001100  1
  H  H35  1  0.82324200  0.43871600  0.54001100  1
  H  H36  1  0.52979500  0.53890400  0.85733700  1
  H  H37  1  0.52979500  0.96109600  0.35733700  1
  H  H38  1  0.47020500  0.46109600  0.14266300  1
  H  H39  1  0.47020500  0.03890400  0.64266300  1
  H  H40  1  0.71494200  0.60047500  0.91319100  1
  H  H41  1  0.71494200  0.89952500  0.41319100  1
  H  H42  1  0.28505800  0.39952500  0.08680900  1
  H  H43  1  0.28505800  0.10047500  0.58680900  1
  H  H44  1  0.54068500  0.64823300  0.79010000  1
  H  H45  1  0.54068500  0.85176700  0.29010000  1
  H  H46  1  0.45931500  0.35176700  0.20990000  1
  H  H47  1  0.45931500  0.14823300  0.70990000  1
  H  H48  1  0.61794900  0.72017900  0.09632100  1
  H  H49  1  0.61794900  0.77982100  0.59632100  1
  H  H50  1  0.38205100  0.27982100  0.90367900  1
  H  H51  1  0.38205100  0.22017900  0.40367900  1
  H  H52  1  0.76956200  0.65584300  0.10225100  1
  H  H53  1  0.76956200  0.84415700  0.60225100  1
  H  H54  1  0.23043800  0.34415700  0.89774900  1
  H  H55  1  0.23043800  0.15584300  0.39774900  1
  H  H56  1  0.59441800  0.58163500  0.05106400  1
  H  H57  1  0.59441800  0.91836500  0.55106400  1
  H  H58  1  0.40558200  0.41836500  0.94893600  1
  H  H59  1  0.40558200  0.08163500  0.44893600  1
  H  H60  1  0.61359800  0.87209500  0.87338600  1
  H  H61  1  0.61359800  0.62790500  0.37338600  1
  H  H62  1  0.38640200  0.12790500  0.12661400  1
  H  H63  1  0.38640200  0.37209500  0.62661400  1
  H  H64  1  0.78566400  0.82104900  0.99656800  1
  H  H65  1  0.78566400  0.67895100  0.49656800  1
  H  H66  1  0.21433600  0.17895100  0.00343200  1
  H  H67  1  0.21433600  0.32104900  0.50343200  1
  H  H68  1  0.64224000  0.89903800  0.99024400  1
  H  H69  1  0.64224000  0.60096200  0.49024400  1
  H  H70  1  0.35776000  0.10096200  0.00975600  1
  H  H71  1  0.35776000  0.39903800  0.50975600  1
  W  W0  1  0.18730500  0.80690600  0.71425000  1
  W  W1  1  0.18730500  0.69309400  0.21425000  1
  W  W2  1  0.81269500  0.19309400  0.28575000  1
  W  W3  1  0.81269500  0.30690600  0.78575000  1
  C  C0  1  0.91012400  0.77910000  0.85629300  1
  C  C1  1  0.91012400  0.72090000  0.35629300  1
  C  C2  1  0.08987600  0.22090000  0.14370700  1
  C  C3  1  0.08987600  0.27910000  0.64370700  1
  C  C4  1  0.15187900  0.62407100  0.92091800  1
  C  C5  1  0.15187900  0.87592900  0.42091800  1
  C  C6  1  0.84812100  0.37592900  0.07908200  1
  C  C7  1  0.84812100  0.12407100  0.57908200  1
  C  C8  1  0.22650600  0.85541100  0.98202400  1
  C  C9  1  0.22650600  0.64458900  0.48202500  1
  C  C10  1  0.77349400  0.14458900  0.01797600  1
  C  C11  1  0.77349400  0.35541100  0.51797600  1
  C  C12  1  0.58950800  0.61598900  0.86679900  1
  C  C13  1  0.58950800  0.88401100  0.36679900  1
  C  C14  1  0.41049200  0.38401100  0.13320100  1
  C  C15  1  0.41049200  0.11598900  0.63320100  1
  C  C16  1  0.64296700  0.66297700  0.05736200  1
  C  C17  1  0.64296700  0.83702300  0.55736200  1
  C  C18  1  0.35703300  0.33702300  0.94263800  1
  C  C19  1  0.35703300  0.16297700  0.44263800  1
  C  C20  1  0.66073300  0.83894600  0.94952800  1
  C  C21  1  0.66073300  0.66105400  0.44952800  1
  C  C22  1  0.33926700  0.16105400  0.05047200  1
  C  C23  1  0.33926700  0.33894600  0.55047200  1
  Cl  Cl0  1  0.26507100  0.98412700  0.79971200  1
  Cl  Cl1  1  0.26507100  0.51587300  0.29971200  1
  Cl  Cl2  1  0.73492900  0.01587300  0.20028800  1
  Cl  Cl3  1  0.73492900  0.48412700  0.70028800  1
  Cl  Cl4  1  0.12288700  0.61446100  0.66966400  1
  Cl  Cl5  1  0.12288700  0.88553900  0.16966400  1
  Cl  Cl6  1  0.87711300  0.38553900  0.33033600  1
  Cl  Cl7  1  0.87711300  0.11446100  0.83033600  1
  O  O0  1  0.32015400  0.81099700  0.68889800  1
  O  O1  1  0.32015400  0.68900300  0.18889800  1
  O  O2  1  0.67984600  0.18900300  0.31110200  1
  O  O3  1  0.67984600  0.31099700  0.81110200  1
  O  O4  1  0.01281800  0.85386300  0.59657000  1
  O  O5  1  0.01281800  0.64613700  0.09657000  1
  O  O6  1  0.98718200  0.14613700  0.40343000  1
  O  O7  1  0.98718200  0.35386300  0.90343000  1
  O  O8  1  0.07153000  0.78872100  0.78069900  1
  O  O9  1  0.07153000  0.71127900  0.28069900  1
  O  O10  1  0.92847000  0.21127900  0.21930100  1
  O  O11  1  0.92847000  0.28872100  0.71930100  1
  O  O12  1  0.38184800  0.73859400  0.87185600  1
  O  O13  1  0.38184800  0.76140600  0.37185600  1
  O  O14  1  0.61815200  0.26140600  0.12814400  1
  O  O15  1  0.61815200  0.23859400  0.62814400  1
loop_
_geom_bond_atom_site_label_1
_geom_bond_atom_site_label_2
_geom_bond_distance
_geom_bond_site_symmetry_2
C0 H8 1.097135 1_555
C0 H0 1.098108 1_555
C0 H4 1.099285 1_555
C0 P0 1.795683 1_655
C1 H9 1.097135 1_555
C1 H1 1.098108 1_555
C1 H5 1.099285 1_555
C1 P1 1.795683 1_655
C2 H10 1.097135 1_555
C2 H2 1.098108 1_555
C2 H6 1.099285 1_555
C2 P2 1.795683 1_455
C3 H11 1.097135 1_555
C3 H3 1.098108 1_555
C3 H7 1.099285 1_555
C3 P3 1.795683 1_455
C4 H20 1.094850 1_555
C4 H16 1.097437 1_555
C4 H12 1.098910 1_555
C4 P0 1.791846 1_555
C5 H21 1.094850 1_555
C5 H17 1.097437 1_555
C5 H13 1.098910 1_555
C5 P1 1.791846 1_555
C6 H22 1.094850 1_555
C6 H18 1.097437 1_555
C6 H14 1.098910 1_555
C6 P2 1.791846 1_555
C7 H23 1.094850 1_555
C7 H19 1.097437 1_555
C7 H15 1.098910 1_555
C7 P3 1.791846 1_555
C8 H24 1.094991 1_555
C8 H28 1.096911 1_556
C8 H32 1.098954 1_555
C8 P0 1.790816 1_555
C9 H25 1.095000 1_555
C9 H29 1.096896 1_555
C9 H33 1.098954 1_555
C9 P1 1.790823 1_555
C10 H26 1.094991 1_555
C10 H30 1.096911 1_554
C10 H34 1.098954 1_555
C10 P2 1.790816 1_555
C11 H27 1.094991 1_555
C11 H31 1.096911 1_555
C11 H35 1.098954 1_555
C11 P3 1.790816 1_555
C12 H44 1.096099 1_555
C12 H40 1.097665 1_555
C12 H36 1.098806 1_555
C12 P4 1.796108 1_555
C13 H45 1.096099 1_555
C13 H41 1.097665 1_555
C13 H37 1.098806 1_555
C13 P5 1.796108 1_555
C14 H46 1.096099 1_555
C14 H42 1.097665 1_555
C14 H38 1.098806 1_555
C14 P6 1.796108 1_555
C15 H47 1.096099 1_555
C15 H43 1.097665 1_555
C15 H39 1.098806 1_555
C15 P7 1.796108 1_555
C16 H48 1.097514 1_555
C16 H56 1.097976 1_555
C16 H52 1.098326 1_555
C16 P4 1.798796 1_554
C17 H49 1.097514 1_555
C17 H57 1.097976 1_555
C17 H53 1.098326 1_555
C17 P5 1.798796 1_555
C18 H50 1.097514 1_555
C18 H58 1.097976 1_555
C18 H54 1.098326 1_555
C18 P6 1.798796 1_556
C19 H51 1.097514 1_555
C19 H59 1.097976 1_555
C19 H55 1.098326 1_555
C19 P7 1.798796 1_555
C20 H60 1.096789 1_555
C20 H64 1.097544 1_555
C20 H68 1.098726 1_555
C20 P4 1.793712 1_555
C21 H61 1.096789 1_555
C21 H65 1.097544 1_555
C21 H69 1.098726 1_555
C21 P5 1.793712 1_555
C22 H62 1.096789 1_555
C22 H66 1.097544 1_555
C22 H70 1.098726 1_555
C22 P6 1.793712 1_555
C23 H63 1.096789 1_555
C23 H67 1.097544 1_555
C23 H71 1.098726 1_555
C23 P7 1.793712 1_555
Cl0 W0 2.419744 1_555
Cl1 W1 2.419744 1_555
Cl2 W2 2.419744 1_555
Cl3 W3 2.419744 1_555
Cl4 W0 2.420996 1_555
Cl5 W1 2.420996 1_555
Cl6 W2 2.420996 1_555
Cl7 W3 2.420996 1_555
O0 W0 1.765518 1_555
O1 W1 1.765518 1_555
O2 W2 1.765518 1_555
O3 W3 1.765518 1_555
O4 W0 1.764564 1_555
O5 W1 1.764564 1_555
O6 W2 1.764564 1_555
O7 W3 1.764564 1_555
O8 P0 1.535163 1_555
O8 W0 2.165123 1_555
O9 P1 1.535163 1_555
O9 W1 2.165123 1_555
O10 P2 1.535163 1_555
O10 W2 2.165123 1_555
O11 P3 1.535163 1_555
O11 W3 2.165123 1_555
O12 P4 1.535485 1_555
O12 W0 2.251697 1_555
O13 P5 1.535485 1_555
O13 W1 2.251697 1_555
O14 P6 1.535485 1_555
O14 W2 2.251697 1_555
O15 P7 1.535485 1_555
O15 W3 2.251697 1_555
