# generated using pymatgen
data_Mg(CuO2)2
_symmetry_space_group_name_H-M   'P 1'
_cell_length_a   2.87975145
_cell_length_b   7.89861980
_cell_length_c   7.32801318
_cell_angle_alpha   69.85200708
_cell_angle_beta   78.87402919
_cell_angle_gamma   79.85711174
_symmetry_Int_Tables_number   1
_chemical_formula_structural   Mg(CuO2)2
_chemical_formula_sum   'Mg2 Cu4 O8'
_cell_volume   152.45095768
_cell_formula_units_Z   2
loop_
 _symmetry_equiv_pos_site_id
 _symmetry_equiv_pos_as_xyz
  1  'x, y, z'
loop_
 _atom_site_type_symbol
 _atom_site_label
 _atom_site_symmetry_multiplicity
 _atom_site_fract_x
 _atom_site_fract_y
 _atom_site_fract_z
 _atom_site_occupancy
  Mg  Mg0  1  0.32319700  0.15904200  0.20769100  1
  Mg  Mg1  1  0.68117400  0.81998400  0.82304300  1
  Cu  Cu0  1  0.61395900  0.17979500  0.60596700  1
  Cu  Cu1  1  0.14352100  0.51245600  0.19612100  1
  Cu  Cu2  1  0.85611200  0.46569900  0.83913200  1
  Cu  Cu3  1  0.38878000  0.79835800  0.42609300  1
  O  O0  1  0.86480200  0.67983200  0.59155400  1
  O  O1  1  0.44652000  0.31489100  0.81170400  1
  O  O2  1  0.55327300  0.66044100  0.22698300  1
  O  O3  1  0.13769600  0.29817700  0.44109900  1
  O  O4  1  0.13649600  0.01210000  0.72659200  1
  O  O5  1  0.77303300  0.34713100  0.12379700  1
  O  O6  1  0.86793600  0.96775400  0.30260400  1
  O  O7  1  0.22981100  0.63114100  0.90906100  1
loop_
_geom_bond_atom_site_label_1
_geom_bond_atom_site_label_2
_geom_bond_distance
_geom_bond_site_symmetry_2
Mg0 O5 2.001118 1_555
Mg0 O5 2.003224 1_455
Mg0 O6 2.022329 1_545
Mg0 O6 2.026634 1_445
Mg0 O3 2.270276 1_555
Mg1 O7 2.006246 1_655
Mg1 O7 2.007650 1_555
Mg1 O4 2.028106 1_565
Mg1 O4 2.031198 1_665
Mg1 O0 2.263625 1_555
Cu0 O3 1.903672 1_655
Cu0 O3 1.903839 1_555
Cu0 O4 1.947351 1_555
Cu0 O4 1.950621 1_655
Cu0 O1 2.071381 1_555
Cu1 O2 1.892265 1_555
Cu1 O2 1.908038 1_455
Cu1 O7 1.971654 1_554
Cu1 O3 1.998216 1_555
Cu1 O5 2.076081 1_455
Cu1 O5 2.131827 1_555
Cu2 O1 1.897856 1_555
Cu2 O1 1.915673 1_655
Cu2 O5 1.956095 1_556
Cu2 O0 2.009058 1_555
Cu2 O7 2.073111 1_655
Cu2 O7 2.120773 1_555
Cu3 O0 1.906026 1_455
Cu3 O0 1.906109 1_555
Cu3 O6 1.960032 1_455
Cu3 O6 1.961470 1_555
Cu3 O2 2.046087 1_555
