# generated using pymatgen
data_RbDy(MoO4)2
_symmetry_space_group_name_H-M   'P 1'
_cell_length_a   7.53466529
_cell_length_b   7.53466529
_cell_length_c   7.76650817
_cell_angle_alpha   61.94072091
_cell_angle_beta   61.94072091
_cell_angle_gamma   88.39141492
_symmetry_Int_Tables_number   1
_chemical_formula_structural   RbDy(MoO4)2
_chemical_formula_sum   'Rb2 Dy2 Mo4 O16'
_cell_volume   332.62281379
_cell_formula_units_Z   2
loop_
 _symmetry_equiv_pos_site_id
 _symmetry_equiv_pos_as_xyz
  1  'x, y, z'
loop_
 _atom_site_type_symbol
 _atom_site_label
 _atom_site_symmetry_multiplicity
 _atom_site_fract_x
 _atom_site_fract_y
 _atom_site_fract_z
 _atom_site_occupancy
  Rb  Rb0  1  0.19902300  0.80097700  0.75000000  1
  Rb  Rb1  1  0.80097700  0.19902300  0.25000000  1
  Dy  Dy0  1  0.77082600  0.22917400  0.75000000  1
  Dy  Dy1  1  0.22917400  0.77082600  0.25000000  1
  Mo  Mo0  1  0.69550300  0.69622000  0.76289500  1
  Mo  Mo1  1  0.30449700  0.30378000  0.23710500  1
  Mo  Mo2  1  0.30378000  0.30449700  0.73710500  1
  Mo  Mo3  1  0.69622000  0.69550300  0.26289500  1
  O  O0  1  0.61494300  0.76532600  0.56128800  1
  O  O1  1  0.38505700  0.23467400  0.43871200  1
  O  O2  1  0.23467400  0.38505700  0.93871200  1
  O  O3  1  0.76532600  0.61494300  0.06128800  1
  O  O4  1  0.38311100  0.06754800  0.87554400  1
  O  O5  1  0.61688900  0.93245200  0.12445600  1
  O  O6  1  0.93245200  0.61688900  0.62445600  1
  O  O7  1  0.06754800  0.38311100  0.37554400  1
  O  O8  1  0.58513700  0.36725600  0.96983300  1
  O  O9  1  0.41486300  0.63274400  0.03016700  1
  O  O10  1  0.63274400  0.41486300  0.53016700  1
  O  O11  1  0.36725600  0.58513700  0.46983300  1
  O  O12  1  0.79277400  0.95288400  0.69197000  1
  O  O13  1  0.20722600  0.04711600  0.30803000  1
  O  O14  1  0.04711600  0.20722600  0.80803000  1
  O  O15  1  0.95288400  0.79277400  0.19197000  1
loop_
_geom_bond_atom_site_label_1
_geom_bond_atom_site_label_2
_geom_bond_distance
_geom_bond_site_symmetry_2
Dy0 O8 2.301531 1_555
Dy0 O10 2.301531 1_555
Dy0 O14 2.314600 1_655
Dy0 O12 2.314600 1_545
Dy0 O5 2.378405 1_546
Dy0 O7 2.378405 1_655
Dy0 O6 2.714909 1_555
Dy0 O4 2.714909 1_555
Dy1 O11 2.301531 1_555
Dy1 O9 2.301531 1_555
Dy1 O13 2.314600 1_565
Dy1 O15 2.314600 1_455
Dy1 O4 2.378405 1_564
Dy1 O6 2.378405 1_455
Dy1 O5 2.714909 1_555
Dy1 O7 2.714909 1_555
Mo0 O0 1.789026 1_555
Mo0 O12 1.810543 1_555
Mo0 O6 1.854602 1_555
Mo0 O9 2.000575 1_556
Mo0 O8 2.128121 1_555
Mo0 O3 2.411687 1_556
Mo1 O1 1.789026 1_555
Mo1 O13 1.810543 1_555
Mo1 O7 1.854602 1_555
Mo1 O8 2.000575 1_554
Mo1 O9 2.128121 1_555
Mo1 O2 2.411687 1_554
Mo2 O2 1.789026 1_555
Mo2 O14 1.810543 1_555
Mo2 O4 1.854602 1_555
Mo2 O11 2.000575 1_555
Mo2 O10 2.128121 1_555
Mo2 O1 2.411687 1_555
Mo3 O3 1.789026 1_555
Mo3 O15 1.810543 1_555
Mo3 O5 1.854602 1_555
Mo3 O10 2.000575 1_555
Mo3 O11 2.128121 1_555
Mo3 O0 2.411687 1_555
O0 Rb0 2.836051 1_555
O0 Rb1 2.850394 1_565
O1 Rb1 2.836051 1_555
O1 Rb0 2.850394 1_545
O2 Rb0 2.836051 1_555
O2 Rb1 2.850394 1_456
O3 Rb1 2.836051 1_555
O3 Rb0 2.850394 1_654
O4 Rb0 3.190590 1_545
O5 Rb1 3.190590 1_565
O6 Rb0 3.190590 1_655
O7 Rb1 3.190590 1_455
O8 Rb1 3.099148 1_556
O9 Rb0 3.099148 1_554
O10 Rb1 3.099148 1_555
O11 Rb0 3.099148 1_555
O12 Rb1 3.007277 1_565
O12 Rb0 3.390932 1_655
O13 Rb0 3.007277 1_545
O13 Rb1 3.390932 1_455
O14 Rb1 3.007277 1_456
O14 Rb0 3.390932 1_545
O15 Rb0 3.007277 1_654
O15 Rb1 3.390932 1_565
