# generated using pymatgen
data_Li4MnCo2O7
_symmetry_space_group_name_H-M   'P 1'
_cell_length_a   5.00530700
_cell_length_b   5.78735432
_cell_length_c   9.37193211
_cell_angle_alpha   89.34317610
_cell_angle_beta   100.01081470
_cell_angle_gamma   106.64026504
_symmetry_Int_Tables_number   1
_chemical_formula_structural   Li4MnCo2O7
_chemical_formula_sum   'Li8 Mn2 Co4 O14'
_cell_volume   255.94057959
_cell_formula_units_Z   2
loop_
 _symmetry_equiv_pos_site_id
 _symmetry_equiv_pos_as_xyz
  1  'x, y, z'
loop_
 _atom_site_type_symbol
 _atom_site_label
 _atom_site_symmetry_multiplicity
 _atom_site_fract_x
 _atom_site_fract_y
 _atom_site_fract_z
 _atom_site_occupancy
  Li  Li0  1  0.14882100  0.79026000  0.28119900  1
  Li  Li1  1  0.42510100  0.35441500  0.85942200  1
  Li  Li2  1  0.57489900  0.64558500  0.14057800  1
  Li  Li3  1  0.85117900  0.20974000  0.71880100  1
  Li  Li4  1  0.00000000  0.50000000  0.00000000  1
  Li  Li5  1  0.28134300  0.06823800  0.57179300  1
  Li  Li6  1  0.71865700  0.93176200  0.42820700  1
  Li  Li7  1  0.00000000  0.00000000  0.00000000  1
  Mn  Mn0  1  0.71201900  0.42568200  0.42477300  1
  Mn  Mn1  1  0.28798100  0.57431800  0.57522700  1
  Co  Co0  1  0.56799900  0.14234700  0.13220800  1
  Co  Co1  1  0.85740500  0.71504000  0.71822500  1
  Co  Co2  1  0.14259500  0.28496000  0.28177500  1
  Co  Co3  1  0.43200100  0.85765300  0.86779200  1
  O  O0  1  0.99943100  0.73212500  0.49570600  1
  O  O1  1  0.31373600  0.30600600  0.07762300  1
  O  O2  1  0.42236800  0.58271700  0.35373300  1
  O  O3  1  0.69081400  0.15913100  0.93096700  1
  O  O4  1  0.86207300  0.44313200  0.21052900  1
  O  O5  1  0.15321300  0.00345000  0.78410000  1
  O  O6  1  0.57854400  0.87606100  0.64480400  1
  O  O7  1  0.30918600  0.84086900  0.06903300  1
  O  O8  1  0.57763200  0.41728300  0.64626700  1
  O  O9  1  0.68626400  0.69399400  0.92237700  1
  O  O10  1  0.00056900  0.26787500  0.50429400  1
  O  O11  1  0.13792700  0.55686800  0.78947100  1
  O  O12  1  0.42145600  0.12393900  0.35519600  1
  O  O13  1  0.84678700  0.99655000  0.21590000  1
loop_
_geom_bond_atom_site_label_1
_geom_bond_atom_site_label_2
_geom_bond_distance
_geom_bond_site_symmetry_2
Li0 O12 2.065131 1_565
Li0 O2 2.092617 1_555
Li0 O4 2.140833 1_455
Li0 O13 2.186457 1_455
Li0 O0 2.253183 1_455
Li0 O7 2.256264 1_555
Li1 O3 2.007281 1_555
Li1 O9 2.050918 1_555
Li1 O11 2.118493 1_555
Li1 O5 2.142825 1_555
Li1 O1 2.205632 1_556
Li1 O8 2.249545 1_555
Li2 O7 2.007281 1_555
Li2 O1 2.050918 1_555
Li2 O4 2.118493 1_555
Li2 O13 2.142825 1_555
Li2 O9 2.205632 1_554
Li2 O2 2.249545 1_555
Li3 O6 2.065131 1_545
Li3 O8 2.092617 1_555
Li3 O11 2.140833 1_655
Li3 O5 2.186457 1_655
Li3 O10 2.253183 1_655
Li3 O3 2.256264 1_555
Li4 O7 2.153575 1_555
Li4 O3 2.153575 1_454
Li4 O4 2.192364 1_455
Li4 O11 2.192364 1_554
Li4 O1 2.202164 1_555
Li4 O9 2.202164 1_454
Li5 O10 2.077063 1_555
Li5 O0 2.096034 1_445
Li5 O6 2.119980 1_545
Li5 O8 2.173430 1_555
Li5 O5 2.190828 1_555
Li5 O12 2.250964 1_555
Li6 O0 2.077063 1_555
Li6 O10 2.096034 1_665
Li6 O12 2.119980 1_565
Li6 O2 2.173430 1_555
Li6 O13 2.190828 1_555
Li6 O6 2.250964 1_555
Li7 O7 2.028842 1_545
Li7 O3 2.028842 1_454
Li7 O1 2.042334 1_555
Li7 O9 2.042334 1_444
Li7 O5 2.283075 1_554
Li7 O13 2.283075 1_445
Mn0 O2 1.943263 1_555
Mn0 O12 1.957479 1_555
Mn0 O10 1.959867 1_655
Mn0 O0 1.972328 1_555
Mn0 O4 2.254350 1_555
Mn0 O8 2.286544 1_555
Mn1 O8 1.943263 1_555
Mn1 O6 1.957479 1_555
Mn1 O0 1.959867 1_455
Mn1 O10 1.972328 1_555
Mn1 O11 2.254350 1_555
Mn1 O2 2.286544 1_555
Co0 O1 1.797604 1_555
Co0 O7 1.880276 1_545
Co0 O13 1.884944 1_545
Co0 O4 1.980346 1_555
Co0 O3 2.075829 1_554
Co0 O12 2.323751 1_555
Co1 O5 1.910443 1_665
Co1 O11 1.910876 1_655
Co1 O6 1.920010 1_555
Co1 O8 1.923940 1_555
Co1 O9 2.216765 1_555
Co1 O0 2.309675 1_555
Co2 O13 1.910443 1_445
Co2 O4 1.910876 1_455
Co2 O12 1.920010 1_555
Co2 O2 1.923940 1_555
Co2 O1 2.216765 1_555
Co2 O10 2.309675 1_555
Co3 O9 1.797604 1_555
Co3 O3 1.880276 1_565
Co3 O5 1.884944 1_565
Co3 O11 1.980346 1_555
Co3 O7 2.075829 1_556
Co3 O6 2.323751 1_555
