# generated using pymatgen
data_Ba2SrUO6
_symmetry_space_group_name_H-M   'P 1'
_cell_length_a   6.20805874
_cell_length_b   6.20805874
_cell_length_c   6.20805825
_cell_angle_alpha   61.23716480
_cell_angle_beta   61.23716479
_cell_angle_gamma   61.23715962
_symmetry_Int_Tables_number   1
_chemical_formula_structural   Ba2SrUO6
_chemical_formula_sum   'Ba2 Sr1 U1 O6'
_cell_volume   173.88826603
_cell_formula_units_Z   1
loop_
 _symmetry_equiv_pos_site_id
 _symmetry_equiv_pos_as_xyz
  1  'x, y, z'
loop_
 _atom_site_type_symbol
 _atom_site_label
 _atom_site_symmetry_multiplicity
 _atom_site_fract_x
 _atom_site_fract_y
 _atom_site_fract_z
 _atom_site_occupancy
  Ba  Ba0  1  0.74670044  0.74670044  0.74670044  1
  Ba  Ba1  1  0.25329956  0.25329956  0.25329956  1
  Sr  Sr0  1  0.00000000  0.00000000  -0.00000000  1
  U  U0  1  0.50000000  0.50000000  0.50000000  1
  O  O0  1  0.35011568  0.71974619  0.19338502  1
  O  O1  1  0.71974619  0.19338502  0.35011568  1
  O  O2  1  0.19338502  0.35011568  0.71974619  1
  O  O3  1  0.64988432  0.28025381  0.80661498  1
  O  O4  1  0.28025381  0.80661498  0.64988432  1
  O  O5  1  0.80661498  0.64988432  0.28025381  1
loop_
_geom_bond_atom_site_label_1
_geom_bond_atom_site_label_2
_geom_bond_distance
_geom_bond_site_symmetry_2
Ba0 O2 2.675603 1_655
Ba0 O0 2.675603 1_556
Ba0 O1 2.675603 1_565
Ba0 O5 3.050918 1_555
Ba0 O4 3.050919 1_555
Ba0 O3 3.050919 1_555
Ba0 O5 3.244338 1_556
Ba0 O3 3.244338 1_565
Ba0 O4 3.244338 1_655
Ba1 O5 2.675603 1_455
Ba1 O3 2.675603 1_554
Ba1 O4 2.675603 1_545
Ba1 O2 3.050918 1_555
Ba1 O1 3.050919 1_555
Ba1 O0 3.050919 1_555
Ba1 O2 3.244338 1_554
Ba1 O0 3.244338 1_545
Ba1 O1 3.244338 1_455
O0 U0 2.081827 1_555
O0 Sr0 2.460568 1_565
O1 U0 2.081827 1_555
O1 Sr0 2.460568 1_655
O2 U0 2.081827 1_555
O2 Sr0 2.460568 1_556
O3 U0 2.081827 1_555
O3 Sr0 2.460568 1_656
O4 U0 2.081827 1_555
O4 Sr0 2.460568 1_566
O5 U0 2.081827 1_555
O5 Sr0 2.460568 1_665
