# generated using pymatgen
data_In3Ge6N11
_symmetry_space_group_name_H-M   'P 1'
_cell_length_a   10.24005600
_cell_length_b   10.24005600
_cell_length_c   5.15506200
_cell_angle_alpha   90.00000000
_cell_angle_beta   90.00000000
_cell_angle_gamma   90.00000000
_symmetry_Int_Tables_number   1
_chemical_formula_structural   In3Ge6N11
_chemical_formula_sum   'In6 Ge12 N22'
_cell_volume   540.55334142
_cell_formula_units_Z   2
loop_
 _symmetry_equiv_pos_site_id
 _symmetry_equiv_pos_as_xyz
  1  'x, y, z'
loop_
 _atom_site_type_symbol
 _atom_site_label
 _atom_site_symmetry_multiplicity
 _atom_site_fract_x
 _atom_site_fract_y
 _atom_site_fract_z
 _atom_site_occupancy
  In  In0  1  0.31430300  0.81430300  0.95226900  1
  In  In1  1  0.68569700  0.18569700  0.95226900  1
  In  In2  1  0.18569700  0.31430300  0.95226900  1
  In  In3  1  0.81430300  0.68569700  0.95226900  1
  In  In4  1  0.50000000  0.50000000  0.96554300  1
  In  In5  1  0.00000000  0.00000000  0.96554300  1
  Ge  Ge0  1  0.41961800  0.29139000  0.52778700  1
  Ge  Ge1  1  0.58038200  0.70861000  0.52778700  1
  Ge  Ge2  1  0.08038200  0.79139000  0.52778700  1
  Ge  Ge3  1  0.91961800  0.20861000  0.52778700  1
  Ge  Ge4  1  0.29139000  0.58038200  0.52778700  1
  Ge  Ge5  1  0.70861000  0.41961800  0.52778700  1
  Ge  Ge6  1  0.79139000  0.91961800  0.52778700  1
  Ge  Ge7  1  0.20861000  0.08038200  0.52778700  1
  Ge  Ge8  1  0.87894000  0.37894000  0.04071000  1
  Ge  Ge9  1  0.12106000  0.62106000  0.04071000  1
  Ge  Ge10  1  0.62106000  0.87894000  0.04071000  1
  Ge  Ge11  1  0.37894000  0.12106000  0.04071000  1
  N  N0  1  0.31848800  0.42109100  0.68346700  1
  N  N1  1  0.68151200  0.57890900  0.68346700  1
  N  N2  1  0.18151200  0.92109100  0.68346700  1
  N  N3  1  0.81848800  0.07890900  0.68346700  1
  N  N4  1  0.42109100  0.68151200  0.68346700  1
  N  N5  1  0.57890900  0.31848800  0.68346700  1
  N  N6  1  0.92109100  0.81848800  0.68346700  1
  N  N7  1  0.07890900  0.18151200  0.68346700  1
  N  N8  1  0.40140300  0.29503000  0.16904700  1
  N  N9  1  0.59859700  0.70497000  0.16904700  1
  N  N10  1  0.09859700  0.79503000  0.16904700  1
  N  N11  1  0.90140300  0.20497000  0.16904700  1
  N  N12  1  0.29503000  0.59859700  0.16904700  1
  N  N13  1  0.70497000  0.40140300  0.16904700  1
  N  N14  1  0.79503000  0.90140300  0.16904700  1
  N  N15  1  0.20497000  0.09859700  0.16904700  1
  N  N16  1  0.85950500  0.35950500  0.68217800  1
  N  N17  1  0.14049500  0.64049500  0.68217800  1
  N  N18  1  0.64049500  0.85950500  0.68217800  1
  N  N19  1  0.35950500  0.14049500  0.68217800  1
  N  N20  1  0.50000000  0.00000000  0.13148300  1
  N  N21  1  0.00000000  0.50000000  0.13148300  1
loop_
_geom_bond_atom_site_label_1
_geom_bond_atom_site_label_2
_geom_bond_distance
_geom_bond_site_symmetry_2
In0 N4 2.228214 1_555
In0 N2 2.228214 1_555
In0 N12 2.483293 1_556
In0 N10 2.483293 1_556
In1 N5 2.228214 1_555
In1 N3 2.228214 1_555
In1 N13 2.483293 1_556
In1 N11 2.483293 1_556
In2 N0 2.228214 1_555
In2 N7 2.228214 1_555
In2 N8 2.483293 1_556
In2 N15 2.483293 1_556
In3 N6 2.228214 1_555
In3 N1 2.228214 1_555
In3 N14 2.483293 1_556
In3 N9 2.483293 1_556
In4 N0 2.494418 1_555
In4 N4 2.494418 1_555
In4 N1 2.494418 1_555
In4 N5 2.494418 1_555
In4 N12 2.554472 1_556
In4 N9 2.554472 1_556
In4 N8 2.554472 1_556
In4 N13 2.554472 1_556
In5 N7 2.494418 1_555
In5 N2 2.494418 1_545
In5 N3 2.494418 1_455
In5 N6 2.494418 1_445
In5 N10 2.554472 1_546
In5 N15 2.554472 1_556
In5 N14 2.554472 1_446
In5 N11 2.554472 1_456
Ge0 N5 1.838944 1_555
Ge0 N19 1.843888 1_555
Ge0 N8 1.859083 1_555
Ge0 N0 1.865599 1_555
Ge1 N4 1.838944 1_555
Ge1 N18 1.843888 1_555
Ge1 N9 1.859083 1_555
Ge1 N1 1.865599 1_555
Ge2 N6 1.838944 1_455
Ge2 N17 1.843888 1_555
Ge2 N10 1.859083 1_555
Ge2 N2 1.865599 1_555
Ge3 N7 1.838944 1_655
Ge3 N16 1.843888 1_555
Ge3 N11 1.859083 1_555
Ge3 N3 1.865599 1_555
Ge4 N0 1.838944 1_555
Ge4 N17 1.843888 1_555
Ge4 N12 1.859083 1_555
Ge4 N4 1.865599 1_555
Ge5 N1 1.838944 1_555
Ge5 N16 1.843888 1_555
Ge5 N13 1.859083 1_555
Ge5 N5 1.865599 1_555
Ge6 N3 1.838944 1_565
Ge6 N18 1.843888 1_555
Ge6 N14 1.859083 1_555
Ge6 N6 1.865599 1_555
Ge7 N2 1.838944 1_545
Ge7 N19 1.843888 1_555
Ge7 N15 1.859083 1_555
Ge7 N7 1.865599 1_555
Ge8 N21 1.814521 1_655
Ge8 N16 1.869561 1_554
Ge8 N13 1.914214 1_555
Ge8 N11 1.914214 1_555
Ge9 N21 1.814521 1_555
Ge9 N17 1.869561 1_554
Ge9 N10 1.914214 1_555
Ge9 N12 1.914214 1_555
Ge10 N20 1.814521 1_565
Ge10 N18 1.869561 1_554
Ge10 N14 1.914214 1_555
Ge10 N9 1.914214 1_555
Ge11 N20 1.814521 1_555
Ge11 N19 1.869561 1_554
Ge11 N8 1.914214 1_555
Ge11 N15 1.914214 1_555
