# generated using pymatgen
data_Li3P5(WO6)4
_symmetry_space_group_name_H-M   'P 1'
_cell_length_a   8.57309300
_cell_length_b   9.58762803
_cell_length_c   14.23397300
_cell_angle_alpha   92.86851477
_cell_angle_beta   107.52662470
_cell_angle_gamma   63.44277648
_symmetry_Int_Tables_number   1
_chemical_formula_structural   Li3P5(WO6)4
_chemical_formula_sum   'Li6 P10 W8 O48'
_cell_volume   993.02169804
_cell_formula_units_Z   2
loop_
 _symmetry_equiv_pos_site_id
 _symmetry_equiv_pos_as_xyz
  1  'x, y, z'
loop_
 _atom_site_type_symbol
 _atom_site_label
 _atom_site_symmetry_multiplicity
 _atom_site_fract_x
 _atom_site_fract_y
 _atom_site_fract_z
 _atom_site_occupancy
  Li  Li0  1  0.94225900  0.86385800  0.28154000  1
  Li  Li1  1  0.47542300  0.36385800  0.78154000  1
  Li  Li2  1  0.52801100  0.63556500  0.22143100  1
  Li  Li3  1  0.97369500  0.55580300  0.03073700  1
  Li  Li4  1  0.05785500  0.13556500  0.72143100  1
  Li  Li5  1  0.50123900  0.05580300  0.53073700  1
  P  P0  1  0.29152700  0.87703700  0.60658800  1
  P  P1  1  0.80934100  0.94100800  0.04502900  1
  P  P2  1  0.85420800  0.75067200  0.74993200  1
  P  P3  1  0.56319200  0.62255400  0.89721800  1
  P  P4  1  0.70856100  0.55672900  0.45789500  1
  P  P5  1  0.29468000  0.44100800  0.54502900  1
  P  P6  1  0.43802400  0.37703700  0.10658800  1
  P  P7  1  0.14505300  0.25067200  0.24993200  1
  P  P8  1  0.19260300  0.05672900  0.95789500  1
  P  P9  1  0.71147100  0.12255400  0.39721800  1
  W  W0  1  0.52434500  0.99376100  0.18036000  1
  W  W1  1  0.18899800  0.71737400  0.98071100  1
  W  W2  1  0.92695000  0.77966800  0.52116600  1
  W  W3  1  0.66225300  0.49376100  0.68036000  1
  W  W4  1  0.34327100  0.50577300  0.32177100  1
  W  W5  1  0.07434000  0.21737400  0.48071100  1
  W  W6  1  0.81454800  0.27966800  0.02116600  1
  W  W7  1  0.47272800  0.00577300  0.82177100  1
  O  O0  1  0.10948400  0.94109800  0.92679400  1
  O  O1  1  0.29443600  0.98754600  0.52937500  1
  O  O2  1  0.30492100  0.94857500  0.70801300  1
  O  O3  1  0.68523100  0.89125900  0.76552700  1
  O  O4  1  0.37083800  0.97886900  0.04465900  1
  O  O5  1  0.10699700  0.87202500  0.57794300  1
  O  O6  1  0.55277900  0.78442500  0.89066900  1
  O  O7  1  0.76141800  0.90745400  0.13558900  1
  O  O8  1  0.88699900  0.80514700  0.66017700  1
  O  O9  1  0.59343900  0.80352400  0.23183100  1
  O  O10  1  0.94963100  0.77084100  0.40207400  1
  O  O11  1  0.02368100  0.70274200  0.84303900  1
  O  O12  1  0.45135100  0.71583500  0.61507600  1
  O  O13  1  0.95061100  0.78008000  0.02301800  1
  O  O14  1  0.72140300  0.71047400  0.48369600  1
  O  O15  1  0.39791700  0.62535000  0.92045300  1
  O  O16  1  0.32044300  0.73007800  0.09947600  1
  O  O17  1  0.16476800  0.69372500  0.26950200  1
  O  O18  1  0.82038100  0.60570100  0.72906500  1
  O  O19  1  0.55705800  0.54998300  0.79702600  1
  O  O20  1  0.74884800  0.51663200  0.97975200  1
  O  O21  1  0.53421300  0.59467600  0.36749900  1
  O  O22  1  0.12265000  0.55282800  0.57340900  1
  O  O23  1  0.30330500  0.51723400  0.45622500  1
  O  O24  1  0.69495300  0.47886900  0.54465900  1
  O  O25  1  0.87621200  0.44109800  0.42679400  1
  O  O26  1  0.46671600  0.40745400  0.63558900  1
  O  O27  1  0.24739300  0.48754600  0.02937500  1
  O  O28  1  0.45451700  0.44857500  0.20801300  1
  O  O29  1  0.18903700  0.39125900  0.26552700  1
  O  O30  1  0.83486800  0.30352400  0.73183100  1
  O  O31  1  0.68160000  0.27084100  0.90207400  1
  O  O32  1  0.59892000  0.37202500  0.07794300  1
  O  O33  1  0.29232700  0.28008000  0.52301800  1
  O  O34  1  0.05182000  0.21047400  0.98369600  1
  O  O35  1  0.55346500  0.28442500  0.39066900  1
  O  O36  1  0.96803100  0.30514700  0.16017700  1
  O  O37  1  0.04895500  0.23007800  0.59947600  1
  O  O38  1  0.41100900  0.19372500  0.76950200  1
  O  O39  1  0.11661600  0.20274200  0.34303900  1
  O  O40  1  0.23861100  0.09467600  0.86749900  1
  O  O41  1  0.44789100  0.21583500  0.11507600  1
  O  O42  1  0.89718600  0.12535000  0.42045300  1
  O  O43  1  0.63568600  0.01723400  0.95622500  1
  O  O44  1  0.30298400  0.10570100  0.22906500  1
  O  O45  1  0.68998500  0.04998300  0.29702600  1
  O  O46  1  0.71427000  0.01663200  0.47975200  1
  O  O47  1  0.89793100  0.05282800  0.07340900  1
loop_
_geom_bond_atom_site_label_1
_geom_bond_atom_site_label_2
_geom_bond_distance
_geom_bond_site_symmetry_2
Li0 O17 1.927571 1_655
Li0 O10 1.944301 1_555
Li0 O7 2.112287 1_555
Li0 O45 2.169630 1_565
Li1 O38 1.927571 1_555
Li1 O31 1.944294 1_555
Li1 O26 2.112284 1_555
Li1 O19 2.169630 1_555
Li2 O9 1.914032 1_555
Li2 O16 1.963707 1_555
Li2 O21 2.115572 1_555
Li2 O28 2.133277 1_555
Li3 O20 2.039846 1_554
Li3 O13 2.074848 1_555
Li3 O27 2.141839 1_655
Li4 O30 1.914032 1_455
Li4 O37 1.963706 1_555
Li4 O40 2.115575 1_555
Li4 O2 2.133277 1_545
Li5 O46 2.039830 1_555
Li5 O33 2.074849 1_555
Li5 O1 2.141839 1_545
O0 P8 1.549222 1_565
O0 W1 2.048614 1_555
O1 P0 1.577274 1_555
O1 W5 2.131517 1_565
O2 P0 1.561827 1_555
O2 W7 2.050810 1_565
O3 P2 1.543509 1_555
O3 W7 2.041388 1_565
O4 P8 1.533963 1_564
O4 W0 2.023027 1_555
O5 P0 1.532570 1_555
O5 W2 2.054019 1_455
O6 P3 1.520137 1_555
O6 W7 2.106444 1_565
O7 P1 1.553238 1_555
O7 W0 2.108356 1_555
O8 P2 1.548672 1_555
O8 W2 2.092162 1_555
O9 W0 1.766525 1_555
O10 W2 1.757261 1_555
O11 P2 1.543599 1_455
O11 W1 2.084696 1_555
O12 P0 1.518586 1_555
O12 W3 2.099937 1_555
O13 P1 1.566781 1_555
O13 W1 2.123018 1_654
O14 P4 1.544796 1_555
O14 W2 2.067286 1_555
O15 P3 1.537904 1_555
O15 W1 2.039257 1_555
O16 W1 1.759899 1_554
O17 W4 1.767839 1_555
O18 P2 1.539952 1_555
O18 W3 2.032409 1_555
O19 P3 1.552082 1_555
O19 W3 2.058952 1_555
O20 P3 1.578813 1_555
O20 W6 2.148532 1_556
O21 P4 1.557023 1_555
O21 W4 2.092898 1_555
O22 P5 1.545746 1_555
O22 W2 2.060464 1_455
O23 P5 1.527885 1_555
O23 W4 2.032828 1_555
O24 P4 1.533949 1_555
O24 W3 2.023033 1_555
O25 P4 1.549234 1_555
O25 W5 2.048616 1_655
O26 P5 1.553233 1_555
O26 W3 2.108356 1_555
O27 P6 1.577274 1_555
O27 W1 2.131519 1_554
O28 P6 1.561827 1_555
O28 W4 2.050805 1_555
O29 P7 1.543504 1_555
O29 W4 2.041394 1_555
O30 W3 1.766528 1_555
O31 W6 1.757268 1_556
O32 P6 1.532562 1_555
O32 W6 2.054026 1_555
O33 P5 1.566781 1_555
O33 W5 2.123010 1_555
O34 P8 1.544786 1_555
O34 W6 2.067294 1_456
O35 P9 1.520134 1_555
O35 W4 2.106442 1_555
O36 P7 1.548677 1_655
O36 W6 2.092162 1_555
O37 W5 1.759902 1_555
O38 W7 1.767837 1_555
O39 P7 1.543604 1_555
O39 W5 2.084693 1_555
O40 P8 1.557038 1_555
O40 W7 2.092898 1_555
O41 P6 1.518582 1_555
O41 W0 2.099942 1_545
O42 P9 1.537912 1_555
O42 W5 2.039264 1_655
O43 P1 1.527885 1_546
O43 W7 2.032825 1_555
O44 P7 1.539952 1_555
O44 W0 2.032396 1_545
O45 P9 1.552082 1_555
O45 W0 2.058957 1_545
O46 P9 1.578817 1_555
O46 W2 2.148537 1_545
O47 P1 1.545746 1_545
O47 W6 2.060464 1_555
