# generated using pymatgen
data_Sr8MgP4(IO4)4
_symmetry_space_group_name_H-M   'P 1'
_cell_length_a   8.67704809
_cell_length_b   9.05038983
_cell_length_c   9.80769456
_cell_angle_alpha   88.63625800
_cell_angle_beta   114.47687228
_cell_angle_gamma   90.23228637
_symmetry_Int_Tables_number   1
_chemical_formula_structural   Sr8MgP4(IO4)4
_chemical_formula_sum   'Sr8 Mg1 P4 I4 O16'
_cell_volume   700.77258696
_cell_formula_units_Z   1
loop_
 _symmetry_equiv_pos_site_id
 _symmetry_equiv_pos_as_xyz
  1  'x, y, z'
loop_
 _atom_site_type_symbol
 _atom_site_label
 _atom_site_symmetry_multiplicity
 _atom_site_fract_x
 _atom_site_fract_y
 _atom_site_fract_z
 _atom_site_occupancy
  Sr  Sr0  1  0.95677929  0.80032605  0.85875966  1
  Sr  Sr1  1  0.53406950  0.29741619  0.12760213  1
  Sr  Sr2  1  0.03827815  0.19170278  0.13489447  1
  Sr  Sr3  1  0.45939448  0.69494219  0.86239362  1
  Sr  Sr4  1  0.46132457  0.81764059  0.23046482  1
  Sr  Sr5  1  0.02744706  0.32929623  0.75232528  1
  Sr  Sr6  1  0.53157967  0.17275987  0.76103424  1
  Sr  Sr7  1  0.96560708  0.66118811  0.23904418  1
  Mg  Mg0  1  0.99393527  0.99994293  0.50123181  1
  P  P0  1  0.24001598  0.54582145  0.03875157  1
  P  P1  1  0.25113408  0.04911664  0.95174027  1
  P  P2  1  0.75369697  0.44527961  0.95275243  1
  P  P3  1  0.74367044  0.94238096  0.04107416  1
  I  I0  1  0.19482916  0.36228808  0.48595456  1
  I  I1  1  0.33633425  0.82125364  0.50706212  1
  I  I2  1  0.79786810  0.63594867  0.50505603  1
  I  I3  1  0.65014678  0.18729313  0.48334153  1
  O  O0  1  0.15537048  0.57521489  0.86520403  1
  O  O1  1  0.33743964  0.06959368  0.12539279  1
  O  O2  1  0.83554410  0.41599116  0.12641578  1
  O  O3  1  0.65920428  0.92155534  0.86731816  1
  O  O4  1  0.78066025  0.60935220  0.92135434  1
  O  O5  1  0.71506041  0.10476048  0.07205800  1
  O  O6  1  0.21427038  0.38187914  0.07126312  1
  O  O7  1  0.27906311  0.88671002  0.91993042  1
  O  O8  1  0.32331284  0.16640832  0.87515948  1
  O  O9  1  0.16841611  0.65889304  0.11522063  1
  O  O10  1  0.67028314  0.82517781  0.11668039  1
  O  O11  1  0.82722168  0.33241595  0.87786876  1
  O  O12  1  0.93802311  0.91149968  0.10002697  1
  O  O13  1  0.55878665  0.41673750  0.89244001  1
  O  O14  1  0.05711131  0.08015570  0.89484369  1
  O  O15  1  0.43474669  0.57477196  0.09676951  1
loop_
_geom_bond_atom_site_label_1
_geom_bond_atom_site_label_2
_geom_bond_distance
_geom_bond_site_symmetry_2
I0 Sr6 3.470864 1_555
I0 Sr5 3.482408 1_555
I0 Sr2 3.527601 1_555
I0 Sr7 3.588696 1_455
I1 Sr4 3.313460 1_555
I1 Sr3 3.365824 1_555
I1 Mg0 3.367391 1_455
I1 Sr7 3.534512 1_455
I2 Sr4 3.434485 1_555
I2 Sr7 3.477478 1_555
I2 Sr0 3.523330 1_555
I2 Sr5 3.643250 1_655
I3 Sr6 3.285891 1_555
I3 Sr1 3.333381 1_555
I3 Mg0 3.376040 1_545
I3 Sr5 3.507109 1_655
O0 P0 1.565714 1_556
O0 Sr5 2.547595 1_555
O0 Sr0 2.656354 1_455
O0 Sr3 2.858280 1_555
O1 P1 1.566149 1_554
O1 Sr4 2.531248 1_545
O1 Sr1 2.665671 1_555
O1 Sr2 2.863041 1_555
O2 P2 1.566311 1_554
O2 Sr7 2.545923 1_555
O2 Sr2 2.668642 1_655
O2 Sr1 2.827832 1_555
O3 P3 1.567160 1_556
O3 Sr6 2.536294 1_565
O3 Sr3 2.668537 1_555
O3 Sr0 2.843393 1_555
O4 P2 1.545858 1_555
O4 Sr0 2.530826 1_555
O4 Sr3 2.713994 1_555
O4 Sr7 2.902364 1_556
O5 P3 1.549328 1_545
O5 Sr1 2.565083 1_555
O5 Sr2 2.727185 1_655
O5 Sr6 2.848294 1_554
O6 P0 1.544956 1_555
O6 Sr2 2.530059 1_555
O6 Sr1 2.704871 1_555
O6 Sr5 2.915768 1_554
O7 P1 1.550441 1_565
O7 Sr3 2.565036 1_555
O7 Sr0 2.721353 1_455
O7 Sr4 2.844960 1_556
O8 P1 1.558745 1_555
O8 Sr6 2.488806 1_555
O8 Sr1 2.692644 1_556
O8 Sr5 2.756562 1_555
O9 P0 1.556755 1_555
O9 Sr7 2.518834 1_455
O9 Sr0 2.715821 1_454
O9 Sr4 2.732869 1_555
O10 P3 1.558484 1_555
O10 Sr4 2.491904 1_555
O10 Sr3 2.701554 1_554
O10 Sr7 2.758136 1_555
O11 P2 1.555331 1_555
O11 Sr5 2.511976 1_655
O11 Sr2 2.714933 1_656
O11 Sr6 2.755830 1_555
O12 P3 1.563499 1_555
O12 Sr7 2.575912 1_555
O12 Sr0 2.659303 1_554
O12 Sr2 2.661129 1_665
O13 P2 1.565784 1_555
O13 Sr6 2.543912 1_555
O13 Sr1 2.611729 1_556
O13 Sr3 2.634756 1_555
O14 P1 1.562855 1_555
O14 Sr5 2.580851 1_555
O14 Sr2 2.649926 1_556
O14 Sr0 2.658296 1_445
O15 P0 1.566609 1_555
O15 Sr4 2.546859 1_555
O15 Sr3 2.607498 1_554
O15 Sr1 2.626906 1_555
