# generated using pymatgen
data_Sr2TmBiO6
_symmetry_space_group_name_H-M   'P 1'
_cell_length_a   5.90998469
_cell_length_b   6.05261500
_cell_length_c   8.42822344
_cell_angle_alpha   90.00000000
_cell_angle_beta   90.06590904
_cell_angle_gamma   90.00000000
_symmetry_Int_Tables_number   1
_chemical_formula_structural   Sr2TmBiO6
_chemical_formula_sum   'Sr4 Tm2 Bi2 O12'
_cell_volume   301.48461806
_cell_formula_units_Z   2
loop_
 _symmetry_equiv_pos_site_id
 _symmetry_equiv_pos_as_xyz
  1  'x, y, z'
loop_
 _atom_site_type_symbol
 _atom_site_label
 _atom_site_symmetry_multiplicity
 _atom_site_fract_x
 _atom_site_fract_y
 _atom_site_fract_z
 _atom_site_occupancy
  Sr  Sr0  1  0.01171800  0.45519700  0.25168700  1
  Sr  Sr1  1  0.98828200  0.54480300  0.74831300  1
  Sr  Sr2  1  0.48828100  0.95519700  0.24831300  1
  Sr  Sr3  1  0.51171800  0.04480300  0.75168700  1
  Tm  Tm0  1  0.00000000  0.00000000  0.50000000  1
  Tm  Tm1  1  0.50000000  0.50000000  0.00000000  1
  Bi  Bi0  1  0.00000000  0.00000000  0.00000000  1
  Bi  Bi1  1  0.50000000  0.50000000  0.50000000  1
  O  O0  1  0.90943000  0.03273700  0.24524200  1
  O  O1  1  0.09057000  0.96726300  0.75475800  1
  O  O2  1  0.59057000  0.53273700  0.25475800  1
  O  O3  1  0.40943000  0.46726300  0.74524200  1
  O  O4  1  0.20071700  0.71290400  0.05040500  1
  O  O5  1  0.79928300  0.28709600  0.94959500  1
  O  O6  1  0.29928300  0.21290400  0.44959500  1
  O  O7  1  0.70071700  0.78709600  0.55040500  1
  O  O8  1  0.28993100  0.20259400  0.04581400  1
  O  O9  1  0.71006900  0.79740600  0.95418600  1
  O  O10  1  0.21006900  0.70259400  0.45418600  1
  O  O11  1  0.78993100  0.29740600  0.54581400  1
loop_
_geom_bond_atom_site_label_1
_geom_bond_atom_site_label_2
_geom_bond_distance
_geom_bond_site_symmetry_2
Bi0 O8 2.141784 1_555
Bi0 O9 2.141784 1_444
Bi0 O1 2.144905 1_544
Bi0 O0 2.144905 1_455
Bi0 O5 2.146161 1_454
Bi0 O4 2.146161 1_545
Bi1 O10 2.141784 1_555
Bi1 O11 2.141784 1_555
Bi1 O3 2.144905 1_555
Bi1 O2 2.144905 1_555
Bi1 O6 2.146161 1_555
Bi1 O7 2.146161 1_555
O0 Tm0 2.221129 1_655
O0 Sr2 2.533006 1_545
O0 Sr0 2.628023 1_655
O1 Tm0 2.221129 1_565
O1 Sr3 2.533001 1_565
O1 Sr1 2.628023 1_455
O2 Tm1 2.221129 1_555
O2 Sr0 2.533001 1_655
O2 Sr2 2.628025 1_555
O3 Tm1 2.221129 1_556
O3 Sr1 2.533001 1_455
O3 Sr3 2.628023 1_555
O4 Tm1 2.229634 1_555
O4 Sr0 2.561821 1_555
O4 Sr2 2.795475 1_555
O4 Sr1 3.014419 1_454
O5 Tm1 2.229634 1_556
O5 Sr1 2.561821 1_555
O5 Sr3 2.795479 1_555
O5 Sr0 3.014419 1_656
O6 Tm0 2.229634 1_555
O6 Sr2 2.561819 1_545
O6 Sr0 2.795479 1_555
O6 Sr3 3.014419 1_555
O7 Tm0 2.229634 1_665
O7 Sr3 2.561821 1_565
O7 Sr1 2.795479 1_555
O7 Sr2 3.014421 1_555
O8 Tm1 2.220774 1_555
O8 Sr2 2.554331 1_545
O8 Sr0 2.838724 1_555
O8 Sr3 2.963606 1_554
O9 Tm1 2.220774 1_556
O9 Sr3 2.554334 1_565
O9 Sr1 2.838724 1_555
O9 Sr2 2.963609 1_556
O10 Tm0 2.220774 1_565
O10 Sr0 2.554334 1_555
O10 Sr2 2.838721 1_555
O10 Sr1 2.963606 1_455
O11 Tm0 2.220774 1_655
O11 Sr1 2.554334 1_555
O11 Sr3 2.838724 1_555
O11 Sr0 2.963606 1_655
