# generated using pymatgen
data_Ti3Fe2Sn(PO4)6
_symmetry_space_group_name_H-M   'P 1'
_cell_length_a   8.63161391
_cell_length_b   8.63161391
_cell_length_c   8.63161352
_cell_angle_alpha   60.74485392
_cell_angle_beta   60.74485392
_cell_angle_gamma   60.74485714
_symmetry_Int_Tables_number   1
_chemical_formula_structural   Ti3Fe2Sn(PO4)6
_chemical_formula_sum   'Ti3 Fe2 Sn1 P6 O24'
_cell_volume   462.38029344
_cell_formula_units_Z   1
loop_
 _symmetry_equiv_pos_site_id
 _symmetry_equiv_pos_as_xyz
  1  'x, y, z'
loop_
 _atom_site_type_symbol
 _atom_site_label
 _atom_site_symmetry_multiplicity
 _atom_site_fract_x
 _atom_site_fract_y
 _atom_site_fract_z
 _atom_site_occupancy
  Ti  Ti0  1  0.85593800  0.85593800  0.85593800  1
  Ti  Ti1  1  0.64439400  0.64439400  0.64439400  1
  Ti  Ti2  1  0.35691900  0.35691900  0.35691900  1
  Fe  Fe0  1  0.99618400  0.99618400  0.99618400  1
  Fe  Fe1  1  0.50078300  0.50078300  0.50078300  1
  Sn  Sn0  1  0.14361400  0.14361400  0.14361400  1
  P  P0  1  0.04413700  0.74820000  0.45827100  1
  P  P1  1  0.74820000  0.45827100  0.04413700  1
  P  P2  1  0.45827100  0.04413700  0.74820000  1
  P  P3  1  0.54659600  0.95418400  0.25215700  1
  P  P4  1  0.25215700  0.54659600  0.95418400  1
  P  P5  1  0.95418400  0.25215700  0.54659600  1
  O  O0  1  0.49772500  0.88636800  0.68536200  1
  O  O1  1  0.88636800  0.68536200  0.49772500  1
  O  O2  1  0.73902500  0.94035500  0.08996100  1
  O  O3  1  0.68536200  0.49772500  0.88636800  1
  O  O4  1  0.39157800  0.98618200  0.18861300  1
  O  O5  1  0.56255700  0.76017000  0.41144600  1
  O  O6  1  0.08996100  0.73902500  0.94035500  1
  O  O7  1  0.41144600  0.56255700  0.76017000  1
  O  O8  1  0.00254800  0.81621300  0.61312300  1
  O  O9  1  0.76017000  0.41144600  0.56255700  1
  O  O10  1  0.05666500  0.90917800  0.26083600  1
  O  O11  1  0.81621300  0.61312300  0.00254800  1
  O  O12  1  0.18861300  0.39157800  0.98618200  1
  O  O13  1  0.94035500  0.08996100  0.73902500  1
  O  O14  1  0.23879300  0.59050600  0.44134500  1
  O  O15  1  0.98618200  0.18861300  0.39157800  1
  O  O16  1  0.59050600  0.44134500  0.23879300  1
  O  O17  1  0.90917800  0.26083600  0.05666500  1
  O  O18  1  0.44134500  0.23879300  0.59050600  1
  O  O19  1  0.61312300  0.00254800  0.81621300  1
  O  O20  1  0.31392700  0.50175600  0.11439100  1
  O  O21  1  0.26083600  0.05666500  0.90917800  1
  O  O22  1  0.11439100  0.31392700  0.50175600  1
  O  O23  1  0.50175600  0.11439100  0.31392700  1
loop_
_geom_bond_atom_site_label_1
_geom_bond_atom_site_label_2
_geom_bond_distance
_geom_bond_site_symmetry_2
Fe0 O13 2.173153 1_565
Fe0 O2 2.173153 1_556
Fe0 O6 2.173153 1_655
Fe0 O10 2.271675 1_656
Fe0 O21 2.271675 1_665
Fe0 O17 2.271675 1_566
Fe1 O7 2.229178 1_555
Fe1 O5 2.229178 1_555
Fe1 O9 2.229178 1_555
Fe1 O16 2.238475 1_555
Fe1 O18 2.238475 1_555
Fe1 O14 2.238475 1_555
O0 P2 1.533879 1_565
O0 Ti1 1.946804 1_555
O1 P0 1.533879 1_655
O1 Ti1 1.946803 1_555
O2 P3 1.558795 1_555
O2 Ti0 2.087393 1_554
O3 P1 1.533879 1_556
O3 Ti1 1.946803 1_555
O4 P3 1.541284 1_555
O4 Sn0 2.008079 1_565
O5 P3 1.556604 1_555
O5 Ti1 2.067595 1_555
O6 P4 1.558795 1_555
O6 Ti0 2.087393 1_455
O7 P4 1.556604 1_555
O7 Ti1 2.067595 1_555
O8 P0 1.533642 1_555
O8 Ti0 1.948768 1_455
O9 P5 1.556604 1_555
O9 Ti1 2.067595 1_555
O10 P0 1.580803 1_555
O10 Sn0 2.103046 1_565
O11 P1 1.533642 1_555
O11 Ti0 1.948768 1_554
O12 P4 1.541284 1_555
O12 Sn0 2.008079 1_556
O13 P5 1.558795 1_555
O13 Ti0 2.087393 1_545
O14 P0 1.554435 1_555
O14 Ti2 2.082401 1_555
O15 P5 1.541284 1_555
O15 Sn0 2.008079 1_655
O16 P1 1.554434 1_555
O16 Ti2 2.082401 1_555
O17 P1 1.580803 1_555
O17 Sn0 2.103046 1_655
O18 P2 1.554435 1_555
O18 Ti2 2.082401 1_555
O19 P2 1.533642 1_555
O19 Ti0 1.948768 1_545
O20 P4 1.530409 1_554
O20 Ti2 1.957261 1_555
O21 P2 1.580803 1_555
O21 Sn0 2.103046 1_556
O22 P5 1.530409 1_455
O22 Ti2 1.957261 1_555
O23 P3 1.530409 1_545
O23 Ti2 1.957261 1_555
