# generated using pymatgen
data_LiSc(BH4)4
_symmetry_space_group_name_H-M   'P 1'
_cell_length_a   6.11661751
_cell_length_b   6.11661751
_cell_length_c   11.64305700
_cell_angle_alpha   90.00000000
_cell_angle_beta   90.00000000
_cell_angle_gamma   92.20228184
_symmetry_Int_Tables_number   1
_chemical_formula_structural   LiSc(BH4)4
_chemical_formula_sum   'Li2 Sc2 B8 H32'
_cell_volume   435.28006374
_cell_formula_units_Z   2
loop_
 _symmetry_equiv_pos_site_id
 _symmetry_equiv_pos_as_xyz
  1  'x, y, z'
loop_
 _atom_site_type_symbol
 _atom_site_label
 _atom_site_symmetry_multiplicity
 _atom_site_fract_x
 _atom_site_fract_y
 _atom_site_fract_z
 _atom_site_occupancy
  Li  Li0  1  0.00000000  0.00000000  0.44212100  1
  Li  Li1  1  0.00000000  0.00000000  0.94212100  1
  Sc  Sc0  1  0.50000000  0.50000000  0.23453500  1
  Sc  Sc1  1  0.50000000  0.50000000  0.73453500  1
  B  B0  1  0.74804400  0.72113700  0.86189700  1
  B  B1  1  0.25195600  0.27886300  0.86189700  1
  B  B2  1  0.27307000  0.71830500  0.63381800  1
  B  B3  1  0.72693000  0.28169500  0.63381800  1
  B  B4  1  0.28169500  0.72693000  0.13381800  1
  B  B5  1  0.71830500  0.27307000  0.13381800  1
  B  B6  1  0.27886300  0.25195600  0.36189700  1
  B  B7  1  0.72113700  0.74804400  0.36189700  1
  H  H0  1  0.75967800  0.72498500  0.75549000  1
  H  H1  1  0.24032200  0.27501500  0.75549000  1
  H  H2  1  0.22166400  0.71052500  0.73693000  1
  H  H3  1  0.77833600  0.28947500  0.73693000  1
  H  H4  1  0.28947500  0.77833600  0.23693000  1
  H  H5  1  0.71052500  0.22166400  0.23693000  1
  H  H6  1  0.27501500  0.24032200  0.25549000  1
  H  H7  1  0.72498500  0.75967800  0.25549000  1
  H  H8  1  0.64454600  0.87330800  0.89646600  1
  H  H9  1  0.35545400  0.12669200  0.89646600  1
  H  H10  1  0.47012100  0.77825500  0.63155600  1
  H  H11  1  0.52987900  0.22174500  0.63155600  1
  H  H12  1  0.22174500  0.52987900  0.13155600  1
  H  H13  1  0.77825500  0.47012100  0.13155600  1
  H  H14  1  0.12669200  0.35545400  0.39646600  1
  H  H15  1  0.87330800  0.64454600  0.39646600  1
  H  H16  1  0.93472300  0.71087100  0.89733900  1
  H  H17  1  0.06527700  0.28912900  0.89733900  1
  H  H18  1  0.16284700  0.83765500  0.57853100  1
  H  H19  1  0.83715300  0.16234500  0.57853100  1
  H  H20  1  0.16234500  0.83715300  0.07853100  1
  H  H21  1  0.83765500  0.16284700  0.07853100  1
  H  H22  1  0.28912900  0.06527700  0.39733900  1
  H  H23  1  0.71087100  0.93472300  0.39733900  1
  H  H24  1  0.65715500  0.54826700  0.89443000  1
  H  H25  1  0.34284500  0.45173300  0.89443000  1
  H  H26  1  0.26406200  0.52656600  0.59841800  1
  H  H27  1  0.73593800  0.47343400  0.59841800  1
  H  H28  1  0.47343400  0.73593800  0.09841800  1
  H  H29  1  0.52656600  0.26406200  0.09841800  1
  H  H30  1  0.45173300  0.34284500  0.39443000  1
  H  H31  1  0.54826700  0.65715500  0.39443000  1
loop_
_geom_bond_atom_site_label_1
_geom_bond_atom_site_label_2
_geom_bond_distance
_geom_bond_site_symmetry_2
B0 H8 1.214241 1_555
B0 H16 1.218008 1_555
B0 H24 1.235076 1_555
B0 H0 1.241116 1_555
B1 H9 1.214241 1_555
B1 H17 1.218008 1_555
B1 H25 1.235076 1_555
B1 H1 1.241116 1_555
B2 H18 1.199854 1_555
B2 H2 1.241481 1_555
B2 H26 1.242334 1_555
B2 H10 1.246556 1_555
B3 H19 1.199854 1_555
B3 H3 1.241481 1_555
B3 H27 1.242334 1_555
B3 H11 1.246556 1_555
B4 H20 1.199854 1_555
B4 H4 1.241481 1_555
B4 H28 1.242334 1_555
B4 H12 1.246556 1_555
B5 H21 1.199854 1_555
B5 H5 1.241481 1_555
B5 H29 1.242334 1_555
B5 H13 1.246556 1_555
B6 H14 1.214241 1_555
B6 H22 1.218008 1_555
B6 H30 1.235076 1_555
B6 H6 1.241116 1_555
B7 H15 1.214241 1_555
B7 H23 1.218008 1_555
B7 H31 1.235076 1_555
B7 H7 1.241116 1_555
H0 Sc1 2.075615 1_555
H1 Sc1 2.075615 1_555
H2 Sc1 2.173904 1_555
H3 Sc1 2.173904 1_555
H4 Sc0 2.173904 1_555
H5 Sc0 2.173904 1_555
H6 Sc0 2.075615 1_555
H7 Sc0 2.075615 1_555
H10 Sc1 2.095619 1_555
H11 Sc1 2.095619 1_555
H12 Sc0 2.095619 1_555
H13 Sc0 2.095619 1_555
H16 Li1 1.872050 1_665
H17 Li1 1.872050 1_555
H18 Li0 2.139323 1_565
H19 Li0 2.139323 1_655
H20 Li1 2.139323 1_564
H21 Li1 2.139323 1_654
H22 Li0 1.872050 1_555
H23 Li0 1.872050 1_665
H24 Sc1 2.110727 1_555
H25 Sc1 2.110727 1_555
H26 Sc1 2.153772 1_555
H27 Sc1 2.153772 1_555
H28 Sc0 2.153772 1_555
H29 Sc0 2.153772 1_555
H30 Sc0 2.110727 1_555
H31 Sc0 2.110727 1_555
