# generated using pymatgen
data_V20Ga2Ge3S40
_symmetry_space_group_name_H-M   'P 1'
_cell_length_a   11.89608008
_cell_length_b   11.89608008
_cell_length_c   15.35803614
_cell_angle_alpha   49.78836588
_cell_angle_beta   49.78836588
_cell_angle_gamma   48.14404753
_symmetry_Int_Tables_number   1
_chemical_formula_structural   V20Ga2Ge3S40
_chemical_formula_sum   'V20 Ga2 Ge3 S40'
_cell_volume   1144.67479094
_cell_formula_units_Z   1
loop_
 _symmetry_equiv_pos_site_id
 _symmetry_equiv_pos_as_xyz
  1  'x, y, z'
loop_
 _atom_site_type_symbol
 _atom_site_label
 _atom_site_symmetry_multiplicity
 _atom_site_fract_x
 _atom_site_fract_y
 _atom_site_fract_z
 _atom_site_occupancy
  V  V0  1  0.11216300  0.92068500  0.24194300  1
  V  V1  1  0.51225300  0.32055900  0.04223100  1
  V  V2  1  0.91239400  0.72079100  0.84157100  1
  V  V3  1  0.31108700  0.12181600  0.64144700  1
  V  V4  1  0.71181600  0.52169300  0.44155800  1
  V  V5  1  0.36255600  0.75351200  0.32593800  1
  V  V6  1  0.76215500  0.15367900  0.12542600  1
  V  V7  1  0.16248100  0.55450300  0.92464000  1
  V  V8  1  0.56330100  0.95365000  0.72478900  1
  V  V9  1  0.96376400  0.35310400  0.52535500  1
  V  V10  1  0.44549700  0.83751900  0.07536000  1
  V  V11  1  0.84632100  0.23784500  0.87457400  1
  V  V12  1  0.24648800  0.63744400  0.67406200  1
  V  V13  1  0.64689600  0.03623600  0.47464500  1
  V  V14  1  0.04635000  0.43669900  0.27521100  1
  V  V15  1  0.27920900  0.08760600  0.15842900  1
  V  V16  1  0.67944100  0.48774700  0.95776900  1
  V  V17  1  0.07931500  0.88783700  0.75805700  1
  V  V18  1  0.47830700  0.28818400  0.55844200  1
  V  V19  1  0.87818400  0.68891300  0.35855300  1
  Ga  Ga0  1  0.00019700  0.59983400  0.59996400  1
  Ga  Ga1  1  0.40016600  0.99980300  0.40003600  1
  Ge  Ge0  1  0.79998200  0.39996300  0.20001300  1
  Ge  Ge1  1  0.19967900  0.80032100  0.00000000  1
  Ge  Ge2  1  0.60003700  0.20001800  0.79998700  1
  S  S0  1  0.53248100  0.87456700  0.14838200  1
  S  S1  1  0.93239600  0.27441700  0.94866400  1
  S  S2  1  0.33266000  0.67473100  0.74780500  1
  S  S3  1  0.73272600  0.07440400  0.54807100  1
  S  S4  1  0.13269700  0.47457000  0.34822800  1
  S  S5  1  0.22274700  0.08086900  0.04478700  1
  S  S6  1  0.62242000  0.48053700  0.84482900  1
  S  S7  1  0.02301100  0.88079100  0.64443600  1
  S  S8  1  0.42272400  0.28079500  0.44455500  1
  S  S9  1  0.82276400  0.68102000  0.24463400  1
  S  S10  1  0.11920900  0.97698900  0.35556400  1
  S  S11  1  0.51946300  0.37758000  0.15517100  1
  S  S12  1  0.91913100  0.77725300  0.95521300  1
  S  S13  1  0.31898000  0.17723600  0.75536600  1
  S  S14  1  0.71920500  0.57727600  0.55544500  1
  S  S15  1  0.32526900  0.66734000  0.25219500  1
  S  S16  1  0.72558300  0.06760400  0.05133600  1
  S  S17  1  0.12543300  0.46751900  0.85161800  1
  S  S18  1  0.52543000  0.86730300  0.65177200  1
  S  S19  1  0.92559600  0.26727400  0.45192900  1
  S  S20  1  0.84479000  0.17254000  0.74578600  1
  S  S21  1  0.24717000  0.57219600  0.54521000  1
  S  S22  1  0.64699600  0.97284300  0.34485400  1
  S  S23  1  0.04522400  0.37286900  0.14535100  1
  S  S24  1  0.44508500  0.77273600  0.94562700  1
  S  S25  1  0.11824100  0.99039000  0.83686100  1
  S  S26  1  0.51859400  0.39023000  0.63675900  1
  S  S27  1  0.91786800  0.79216200  0.43528000  1
  S  S28  1  0.31745000  0.19253200  0.23500400  1
  S  S29  1  0.71801700  0.59090100  0.03664500  1
  S  S30  1  0.20783800  0.08213200  0.56472000  1
  S  S31  1  0.60977000  0.48140600  0.36324100  1
  S  S32  1  0.00961000  0.88175900  0.16313900  1
  S  S33  1  0.40909900  0.28198300  0.96335500  1
  S  S34  1  0.80746800  0.68255000  0.76499600  1
  S  S35  1  0.02715700  0.35300400  0.65514600  1
  S  S36  1  0.42780400  0.75283000  0.45479000  1
  S  S37  1  0.82746000  0.15521000  0.25421400  1
  S  S38  1  0.22726400  0.55491500  0.05437300  1
  S  S39  1  0.62713100  0.95477600  0.85464900  1
loop_
_geom_bond_atom_site_label_1
_geom_bond_atom_site_label_2
_geom_bond_distance
_geom_bond_site_symmetry_2
Ga0 S35 2.307384 1_555
Ga0 S21 2.307577 1_555
Ga0 S27 2.308033 1_455
Ga0 S34 2.314103 1_455
Ga1 S22 2.307384 1_555
Ga1 S36 2.307577 1_555
Ga1 S30 2.308033 1_565
Ga1 S28 2.314103 1_565
Ge0 S37 2.286680 1_555
Ge0 S31 2.286742 1_555
Ge0 S29 2.291236 1_555
Ge0 S23 2.291734 1_655
Ge1 S25 2.285717 1_554
Ge1 S32 2.285717 1_555
Ge1 S38 2.292438 1_555
Ge1 S24 2.292438 1_554
Ge2 S20 2.286680 1_555
Ge2 S26 2.286742 1_555
Ge2 S33 2.291236 1_555
Ge2 S39 2.291734 1_545
S0 V15 2.288883 1_565
S0 V10 2.295196 1_555
S0 V5 2.300592 1_555
S1 V16 2.288816 1_555
S1 V11 2.295802 1_555
S1 V6 2.298328 1_556
S2 V17 2.289354 1_555
S2 V7 2.295445 1_555
S2 V12 2.298878 1_555
S3 V8 2.293085 1_545
S3 V18 2.298237 1_555
S3 V13 2.299325 1_555
S4 V9 2.295110 1_455
S4 V14 2.296275 1_555
S4 V19 2.300712 1_455
S5 V10 2.288427 1_545
S5 V15 2.295615 1_555
S5 V0 2.298238 1_545
S6 V11 2.290034 1_555
S6 V16 2.294575 1_555
S6 V1 2.297571 1_556
S7 V12 2.290322 1_555
S7 V17 2.296437 1_555
S7 V2 2.297425 1_455
S8 V3 2.294869 1_555
S8 V18 2.296441 1_555
S8 V13 2.300158 1_555
S9 V4 2.294291 1_555
S9 V14 2.297033 1_655
S9 V19 2.299691 1_555
S10 V5 2.290322 1_555
S10 V0 2.296437 1_555
S10 V15 2.297425 1_565
S11 V6 2.290034 1_555
S11 V1 2.294575 1_555
S11 V16 2.297571 1_554
S12 V7 2.288427 1_655
S12 V2 2.295615 1_555
S12 V17 2.298238 1_655
S13 V18 2.294291 1_555
S13 V8 2.297033 1_545
S13 V3 2.299691 1_555
S14 V19 2.294869 1_555
S14 V4 2.296441 1_555
S14 V9 2.300158 1_555
S15 V0 2.289354 1_555
S15 V10 2.295445 1_555
S15 V5 2.298878 1_555
S16 V1 2.288816 1_555
S16 V6 2.295802 1_555
S16 V11 2.298328 1_554
S17 V2 2.288883 1_455
S17 V7 2.295196 1_555
S17 V12 2.300592 1_555
S18 V13 2.295110 1_565
S18 V8 2.296275 1_555
S18 V3 2.300712 1_565
S19 V14 2.293085 1_655
S19 V4 2.298237 1_555
S19 V9 2.299325 1_555
S20 V17 2.556313 1_645
S20 V9 2.560985 1_555
S20 V11 2.562337 1_555
S21 V18 2.540507 1_555
S21 V12 2.544182 1_555
S21 V5 2.545700 1_555
S22 V19 2.539554 1_555
S22 V6 2.544050 1_565
S22 V13 2.545357 1_565
S23 V15 2.557395 1_555
S23 V14 2.560833 1_555
S23 V7 2.562083 1_554
S24 V16 2.557829 1_555
S24 V10 2.562052 1_556
S24 V8 2.562797 1_555
S25 V11 2.557236 1_465
S25 V17 2.559612 1_555
S25 V3 2.559717 1_565
S26 V12 2.555769 1_555
S26 V18 2.560502 1_555
S26 V4 2.561719 1_555
S27 V13 2.539030 1_565
S27 V19 2.545784 1_555
S27 V0 2.547339 1_655
S28 V14 2.542123 1_555
S28 V1 2.546375 1_555
S28 V15 2.547958 1_555
S29 V10 2.557608 1_555
S29 V2 2.560426 1_554
S29 V16 2.563713 1_554
S30 V9 2.539030 1_455
S30 V3 2.545784 1_555
S30 V17 2.547339 1_545
S31 V5 2.555769 1_555
S31 V4 2.560502 1_555
S31 V18 2.561719 1_555
S32 V6 2.557236 1_465
S32 V0 2.559612 1_555
S32 V19 2.559717 1_455
S33 V7 2.557608 1_555
S33 V15 2.560426 1_556
S33 V1 2.563713 1_556
S34 V8 2.542123 1_555
S34 V16 2.546375 1_555
S34 V2 2.547958 1_555
S35 V3 2.539554 1_555
S35 V11 2.544050 1_455
S35 V9 2.545357 1_455
S36 V4 2.540507 1_555
S36 V5 2.544182 1_555
S36 V12 2.545700 1_555
S37 V0 2.556313 1_645
S37 V13 2.560985 1_555
S37 V6 2.562337 1_555
S38 V1 2.557829 1_555
S38 V7 2.562052 1_554
S38 V14 2.562797 1_555
S39 V2 2.557395 1_555
S39 V8 2.560833 1_555
S39 V10 2.562083 1_556
