# generated using pymatgen
data_Tb2Cu(GeO4)2
_symmetry_space_group_name_H-M   'P 1'
_cell_length_a   8.97349912
_cell_length_b   8.97349912
_cell_length_c   5.15505081
_cell_angle_alpha   73.68080461
_cell_angle_beta   73.68080461
_cell_angle_gamma   114.88542848
_symmetry_Int_Tables_number   1
_chemical_formula_structural   Tb2Cu(GeO4)2
_chemical_formula_sum   'Tb4 Cu2 Ge4 O16'
_cell_volume   321.15331917
_cell_formula_units_Z   2
loop_
 _symmetry_equiv_pos_site_id
 _symmetry_equiv_pos_as_xyz
  1  'x, y, z'
loop_
 _atom_site_type_symbol
 _atom_site_label
 _atom_site_symmetry_multiplicity
 _atom_site_fract_x
 _atom_site_fract_y
 _atom_site_fract_z
 _atom_site_occupancy
  Tb  Tb0  1  0.46020400  0.70059400  0.18378700  1
  Tb  Tb1  1  0.70059400  0.46020400  0.18378700  1
  Tb  Tb2  1  0.19783600  0.95615500  0.67797000  1
  Tb  Tb3  1  0.95615500  0.19783600  0.67797000  1
  Cu  Cu0  1  0.65969900  0.07374300  0.37902500  1
  Cu  Cu1  1  0.07374300  0.65969900  0.37902500  1
  Ge  Ge0  1  0.83722200  0.83722200  0.37474100  1
  Ge  Ge1  1  0.53244500  0.11151000  0.91867600  1
  Ge  Ge2  1  0.11151000  0.53244500  0.91867600  1
  Ge  Ge3  1  0.33347000  0.33347000  0.97727400  1
  O  O0  1  0.37370400  0.90557600  0.92508400  1
  O  O1  1  0.90557600  0.37370400  0.92508400  1
  O  O2  1  0.74839700  0.93575500  0.58298400  1
  O  O3  1  0.93575500  0.74839700  0.58298400  1
  O  O4  1  0.50717100  0.50717100  0.01081200  1
  O  O5  1  0.73480200  0.25234300  0.55066900  1
  O  O6  1  0.25234300  0.73480200  0.55066900  1
  O  O7  1  0.42669100  0.24231600  0.75489700  1
  O  O8  1  0.24231600  0.42669100  0.75489700  1
  O  O9  1  0.66388100  0.66388100  0.33575100  1
  O  O10  1  0.16448000  0.16448000  0.35427500  1
  O  O11  1  0.50198600  0.16103100  0.24273900  1
  O  O12  1  0.16103100  0.50198600  0.24273900  1
  O  O13  1  0.00331800  0.00331800  0.98862100  1
  O  O14  1  0.65429800  0.99697200  0.07103300  1
  O  O15  1  0.99697200  0.65429800  0.07103300  1
loop_
_geom_bond_atom_site_label_1
_geom_bond_atom_site_label_2
_geom_bond_distance
_geom_bond_site_symmetry_2
Cu0 O14 1.904626 1_545
Cu0 O2 1.959673 1_545
Cu0 O5 2.007161 1_555
Cu0 O11 2.071828 1_555
Cu0 O1 2.479875 1_554
Cu0 O0 2.661026 1_545
Cu1 O15 1.904626 1_455
Cu1 O3 1.959673 1_455
Cu1 O6 2.007161 1_555
Cu1 O12 2.071828 1_555
Cu1 O0 2.479875 1_554
Cu1 O1 2.661026 1_455
Ge0 O9 1.787323 1_555
Ge0 O13 1.789092 1_664
Ge0 O3 1.793099 1_555
Ge0 O2 1.793099 1_555
Ge1 O0 1.780155 1_545
Ge1 O5 1.810746 1_555
Ge1 O11 1.823666 1_556
Ge1 O7 1.954989 1_555
Ge1 O14 1.960535 1_546
Ge2 O1 1.780155 1_455
Ge2 O6 1.810746 1_555
Ge2 O12 1.823666 1_556
Ge2 O8 1.954989 1_555
Ge2 O15 1.960535 1_456
Ge3 O10 1.768728 1_556
Ge3 O4 1.774024 1_556
Ge3 O7 1.801919 1_555
Ge3 O8 1.801919 1_555
O0 Tb2 2.393122 1_555
O0 Tb0 2.483799 1_556
O1 Tb3 2.393122 1_555
O1 Tb1 2.483799 1_556
O2 Tb3 2.591618 1_565
O2 Tb0 2.822484 1_556
O3 Tb2 2.591618 1_655
O3 Tb1 2.822484 1_556
O4 Tb0 2.293373 1_555
O4 Tb1 2.293373 1_555
O5 Tb1 2.444584 1_555
O5 Tb3 2.446454 1_555
O6 Tb0 2.444584 1_555
O6 Tb2 2.446454 1_555
O7 Tb1 2.680617 1_555
O7 Tb2 2.749609 1_545
O8 Tb0 2.680617 1_555
O8 Tb3 2.749609 1_455
O9 Tb0 2.286709 1_555
O9 Tb1 2.286709 1_555
O10 Tb2 2.316739 1_545
O10 Tb3 2.316739 1_455
O11 Tb1 2.384585 1_555
O11 Tb2 2.424991 1_545
O12 Tb0 2.384585 1_555
O12 Tb3 2.424991 1_455
O13 Tb2 2.285207 1_545
O13 Tb3 2.285207 1_455
O14 Tb0 2.260188 1_555
O14 Tb3 2.333616 1_564
O15 Tb1 2.260188 1_555
O15 Tb2 2.333616 1_654
