# generated using pymatgen
data_CsMnH4Cl3O2
_symmetry_space_group_name_H-M   'P 1'
_cell_length_a   7.28662763
_cell_length_b   9.01038164
_cell_length_c   11.42503940
_cell_angle_alpha   90.00000000
_cell_angle_beta   90.00000000
_cell_angle_gamma   90.00000000
_symmetry_Int_Tables_number   1
_chemical_formula_structural   CsMnH4Cl3O2
_chemical_formula_sum   'Cs4 Mn4 H16 Cl12 O8'
_cell_volume   750.11434150
_cell_formula_units_Z   4
loop_
 _symmetry_equiv_pos_site_id
 _symmetry_equiv_pos_as_xyz
  1  'x, y, z'
loop_
 _atom_site_type_symbol
 _atom_site_label
 _atom_site_symmetry_multiplicity
 _atom_site_fract_x
 _atom_site_fract_y
 _atom_site_fract_z
 _atom_site_occupancy
  Cs  Cs0  1  -0.00000000  0.75000000  0.64760515  1
  Cs  Cs1  1  -0.00000000  0.25000000  0.85239485  1
  Cs  Cs2  1  -0.00000000  0.25000000  0.35239485  1
  Cs  Cs3  1  -0.00000000  0.75000000  0.14760515  1
  Mn  Mn0  1  0.52797505  0.50000000  0.75000000  1
  Mn  Mn1  1  0.47202495  -0.00000000  0.75000000  1
  Mn  Mn2  1  0.47202495  0.50000000  0.25000000  1
  Mn  Mn3  1  0.52797505  0.00000000  0.25000000  1
  H  H0  1  0.30768345  0.52225628  0.94797473  1
  H  H1  1  0.69231655  0.97774372  0.94797473  1
  H  H2  1  0.69231655  0.02225628  0.55202527  1
  H  H3  1  0.30768345  0.47774372  0.55202527  1
  H  H4  1  0.69231655  0.47774372  0.05202527  1
  H  H5  1  0.30768345  0.02225628  0.05202527  1
  H  H6  1  0.30768345  0.97774372  0.44797473  1
  H  H7  1  0.69231655  0.52225628  0.44797473  1
  H  H8  1  0.30058266  0.67758408  0.88515544  1
  H  H9  1  0.69941734  0.82241592  0.88515544  1
  H  H10  1  0.69941734  0.17758408  0.61484456  1
  H  H11  1  0.30058266  0.32241592  0.61484456  1
  H  H12  1  0.69941734  0.32241592  0.11484456  1
  H  H13  1  0.30058266  0.17758408  0.11484456  1
  H  H14  1  0.30058266  0.82241592  0.38515544  1
  H  H15  1  0.69941734  0.67758408  0.38515544  1
  Cl  Cl0  1  0.50000000  0.75000000  0.64972627  1
  Cl  Cl1  1  0.50000000  0.25000000  0.85027373  1
  Cl  Cl2  1  0.50000000  0.25000000  0.35027373  1
  Cl  Cl3  1  0.50000000  0.75000000  0.14972627  1
  Cl  Cl4  1  0.77338787  0.59010930  0.89106149  1
  Cl  Cl5  1  0.22661213  0.90989070  0.89106149  1
  Cl  Cl6  1  0.22661213  0.09010930  0.60893851  1
  Cl  Cl7  1  0.77338787  0.40989070  0.60893851  1
  Cl  Cl8  1  0.22661213  0.40989070  0.10893851  1
  Cl  Cl9  1  0.77338787  0.09010930  0.10893851  1
  Cl  Cl10  1  0.77338787  0.90989070  0.39106149  1
  Cl  Cl11  1  0.22661213  0.59010930  0.39106149  1
  O  O0  1  0.31391480  0.57071909  0.87125700  1
  O  O1  1  0.68608520  0.92928091  0.87125700  1
  O  O2  1  0.68608520  0.07071909  0.62874300  1
  O  O3  1  0.31391480  0.42928091  0.62874300  1
  O  O4  1  0.68608520  0.42928091  0.12874300  1
  O  O5  1  0.31391480  0.07071909  0.12874300  1
  O  O6  1  0.31391480  0.92928091  0.37125700  1
  O  O7  1  0.68608520  0.57071909  0.37125700  1
loop_
_geom_bond_atom_site_label_1
_geom_bond_atom_site_label_2
_geom_bond_distance
_geom_bond_site_symmetry_2
Mn0 O0 2.181324 1_555
Mn0 O3 2.181324 1_555
Mn1 O1 2.181324 1_545
Mn1 O2 2.181324 1_555
Mn2 O7 2.181324 1_555
Mn2 O4 2.181324 1_555
Mn3 O6 2.181324 1_545
Mn3 O5 2.181324 1_555
H0 O0 0.980305 1_555
H1 O1 0.980305 1_555
H2 O2 0.980305 1_555
H3 O3 0.980305 1_555
H4 O4 0.980305 1_555
H5 O5 0.980305 1_555
H6 O6 0.980305 1_555
H7 O7 0.980305 1_555
H8 O0 0.980723 1_555
H9 O1 0.980723 1_555
H10 O2 0.980723 1_555
H11 O3 0.980723 1_555
H12 O4 0.980723 1_555
H13 O5 0.980723 1_555
H14 O6 0.980723 1_555
H15 O7 0.980723 1_555
Cl0 Mn1 2.535391 1_565
Cl0 Mn0 2.535391 1_555
Cl0 Cs0 3.643394 1_555
Cl0 Cs0 3.643394 1_655
Cl1 Mn1 2.535391 1_555
Cl1 Mn0 2.535391 1_555
Cl1 Cs1 3.643394 1_655
Cl1 Cs1 3.643394 1_555
Cl2 Mn3 2.535391 1_555
Cl2 Mn2 2.535391 1_555
Cl2 Cs2 3.643394 1_555
Cl2 Cs2 3.643394 1_655
Cl3 Mn3 2.535391 1_565
Cl3 Mn2 2.535391 1_555
Cl3 Cs3 3.643394 1_555
Cl3 Cs3 3.643394 1_655
Cl4 Mn0 2.540541 1_555
Cl4 Cs1 3.508988 1_655
Cl4 Cs0 3.541026 1_655
Cl4 Cs3 3.659648 1_656
Cl5 Mn1 2.540541 1_565
Cl5 Cs1 3.508988 1_565
Cl5 Cs0 3.541026 1_555
Cl5 Cs3 3.659648 1_556
Cl6 Mn1 2.540541 1_555
Cl6 Cs0 3.508988 1_545
Cl6 Cs1 3.541026 1_555
Cl6 Cs2 3.659648 1_555
Cl7 Mn0 2.540541 1_555
Cl7 Cs0 3.508988 1_655
Cl7 Cs1 3.541026 1_655
Cl7 Cs2 3.659648 1_655
Cl8 Mn2 2.540541 1_555
Cl8 Cs3 3.508988 1_555
Cl8 Cs2 3.541026 1_555
Cl8 Cs1 3.659648 1_554
Cl9 Mn3 2.540541 1_555
Cl9 Cs3 3.508988 1_645
Cl9 Cs2 3.541026 1_655
Cl9 Cs1 3.659648 1_654
Cl10 Mn3 2.540541 1_565
Cl10 Cs2 3.508988 1_665
Cl10 Cs3 3.541026 1_655
Cl10 Cs0 3.659648 1_655
Cl11 Mn2 2.540541 1_555
Cl11 Cs2 3.508988 1_555
Cl11 Cs3 3.541026 1_555
Cl11 Cs0 3.659648 1_555
