# generated using pymatgen
data_TmGa3Os
_symmetry_space_group_name_H-M   'P 1'
_cell_length_a   6.34071476
_cell_length_b   6.34071476
_cell_length_c   6.34071476
_cell_angle_alpha   90.00000000
_cell_angle_beta   90.00000000
_cell_angle_gamma   90.00000000
_symmetry_Int_Tables_number   1
_chemical_formula_structural   TmGa3Os
_chemical_formula_sum   'Tm3 Ga9 Os3'
_cell_volume   254.92630434
_cell_formula_units_Z   3
loop_
 _symmetry_equiv_pos_site_id
 _symmetry_equiv_pos_as_xyz
  1  'x, y, z'
loop_
 _atom_site_type_symbol
 _atom_site_label
 _atom_site_symmetry_multiplicity
 _atom_site_fract_x
 _atom_site_fract_y
 _atom_site_fract_z
 _atom_site_occupancy
  Tm  Tm0  1  0.50000000  0.00000000  -0.00000000  1
  Tm  Tm1  1  -0.00000000  0.50000000  -0.00000000  1
  Tm  Tm2  1  -0.00000000  0.00000000  0.50000000  1
  Ga  Ga0  1  0.28838917  0.28838917  0.28838917  1
  Ga  Ga1  1  0.71161083  0.71161083  0.71161083  1
  Ga  Ga2  1  0.71161083  0.71161083  0.28838917  1
  Ga  Ga3  1  0.71161083  0.28838917  0.71161083  1
  Ga  Ga4  1  0.28838917  0.28838917  0.71161083  1
  Ga  Ga5  1  0.28838917  0.71161083  0.28838917  1
  Ga  Ga6  1  0.28838917  0.71161083  0.71161083  1
  Ga  Ga7  1  0.71161083  0.28838917  0.28838917  1
  Ga  Ga8  1  -0.00000000  0.00000000  -0.00000000  1
  Os  Os0  1  -0.00000000  0.50000000  0.50000000  1
  Os  Os1  1  0.50000000  0.00000000  0.50000000  1
  Os  Os2  1  0.50000000  0.50000000  -0.00000000  1
loop_
_geom_bond_atom_site_label_1
_geom_bond_atom_site_label_2
_geom_bond_distance
_geom_bond_site_symmetry_2
Ga0 Os2 2.635226 1_555
Ga0 Os0 2.635226 1_555
Ga0 Os1 2.635226 1_555
Ga0 Tm0 2.913390 1_555
Ga0 Tm2 2.913390 1_555
Ga0 Tm1 2.913390 1_555
Ga1 Os0 2.635226 1_655
Ga1 Os1 2.635226 1_565
Ga1 Os2 2.635226 1_556
Ga1 Tm1 2.913390 1_656
Ga1 Tm2 2.913390 1_665
Ga1 Tm0 2.913390 1_566
Ga2 Os1 2.635226 1_565
Ga2 Os0 2.635226 1_655
Ga2 Os2 2.635226 1_555
Ga2 Tm2 2.913390 1_665
Ga2 Tm1 2.913390 1_655
Ga2 Tm0 2.913390 1_565
Ga3 Os2 2.635226 1_556
Ga3 Os0 2.635226 1_655
Ga3 Os1 2.635226 1_555
Ga3 Tm1 2.913390 1_656
Ga3 Tm0 2.913390 1_556
Ga3 Tm2 2.913390 1_655
Ga4 Os2 2.635226 1_556
Ga4 Os1 2.635226 1_555
Ga4 Os0 2.635226 1_555
Ga4 Tm0 2.913390 1_556
Ga4 Tm1 2.913390 1_556
Ga4 Tm2 2.913390 1_555
Ga5 Os1 2.635226 1_565
Ga5 Os2 2.635226 1_555
Ga5 Os0 2.635226 1_555
Ga5 Tm2 2.913390 1_565
Ga5 Tm0 2.913390 1_565
Ga5 Tm1 2.913390 1_555
Ga6 Os1 2.635226 1_565
Ga6 Os2 2.635226 1_556
Ga6 Os0 2.635226 1_555
Ga6 Tm0 2.913390 1_566
Ga6 Tm1 2.913390 1_556
Ga6 Tm2 2.913390 1_565
Ga7 Os0 2.635226 1_655
Ga7 Os1 2.635226 1_555
Ga7 Os2 2.635226 1_555
Ga7 Tm1 2.913390 1_655
Ga7 Tm2 2.913390 1_655
Ga7 Tm0 2.913390 1_555
Ga8 Tm1 3.170357 1_555
Ga8 Tm2 3.170357 1_554
Ga8 Tm1 3.170357 1_545
Ga8 Tm0 3.170357 1_555
Ga8 Tm0 3.170357 1_455
Ga8 Tm2 3.170357 1_555
Os0 Tm1 3.170357 1_555
Os0 Tm2 3.170357 1_565
Os0 Tm2 3.170357 1_555
Os0 Tm1 3.170357 1_556
Os1 Tm0 3.170357 1_555
Os1 Tm0 3.170357 1_556
Os1 Tm2 3.170357 1_655
Os1 Tm2 3.170357 1_555
Os2 Tm1 3.170357 1_555
Os2 Tm0 3.170357 1_555
Os2 Tm0 3.170357 1_565
Os2 Tm1 3.170357 1_655
