# generated using pymatgen
data_Ho3Er9(MnBi2)2
_symmetry_space_group_name_H-M   'P 1'
_cell_length_a   4.27386900
_cell_length_b   8.22867871
_cell_length_c   14.24126676
_cell_angle_alpha   90.00582442
_cell_angle_beta   90.00000000
_cell_angle_gamma   90.00000000
_symmetry_Int_Tables_number   1
_chemical_formula_structural   Ho3Er9(MnBi2)2
_chemical_formula_sum   'Ho3 Er9 Mn2 Bi4'
_cell_volume   500.84106620
_cell_formula_units_Z   1
loop_
 _symmetry_equiv_pos_site_id
 _symmetry_equiv_pos_as_xyz
  1  'x, y, z'
loop_
 _atom_site_type_symbol
 _atom_site_label
 _atom_site_symmetry_multiplicity
 _atom_site_fract_x
 _atom_site_fract_y
 _atom_site_fract_z
 _atom_site_occupancy
  Ho  Ho0  1  0.00000000  0.73325000  0.50005800  1
  Ho  Ho1  1  0.00000000  0.23309200  0.99999100  1
  Ho  Ho2  1  0.00000000  0.38336300  0.38377400  1
  Er  Er0  1  0.00000000  0.88349800  0.88385200  1
  Er  Er1  1  0.00000000  0.88349800  0.11614200  1
  Er  Er2  1  0.00000000  0.38346100  0.61619200  1
  Er  Er3  1  0.50000000  0.10802700  0.50009600  1
  Er  Er4  1  0.50000000  0.60837200  0.99998800  1
  Er  Er5  1  0.50000000  0.19564000  0.19618300  1
  Er  Er6  1  0.50000000  0.69568600  0.69629200  1
  Er  Er7  1  0.50000000  0.69603600  0.30358900  1
  Er  Er8  1  0.50000000  0.19568000  0.80375200  1
  Mn  Mn0  1  0.50000000  0.99959200  0.00001500  1
  Mn  Mn1  1  0.50000000  0.49980000  0.50025400  1
  Bi  Bi0  1  0.00000000  0.99991100  0.33302000  1
  Bi  Bi1  1  0.00000000  0.50024300  0.83310000  1
  Bi  Bi2  1  0.00000000  0.50038800  0.16674700  1
  Bi  Bi3  1  0.00000000  0.00026400  0.66695500  1
loop_
_geom_bond_atom_site_label_1
_geom_bond_atom_site_label_2
_geom_bond_distance
_geom_bond_site_symmetry_2
Ho0 Mn1 2.873444 1_555
Ho0 Mn1 2.873444 1_455
Ho0 Ho2 3.321255 1_555
Ho1 Mn0 2.873718 1_546
Ho1 Mn0 2.873718 1_446
Ho2 Mn1 2.869818 1_455
Ho2 Mn1 2.869818 1_555
Er0 Mn0 2.866270 1_456
Er0 Mn0 2.866270 1_556
Er0 Er1 3.308104 1_556
Er0 Ho1 3.318135 1_565
Er0 Er4 3.525346 1_455
Er0 Er4 3.525346 1_555
Er0 Er8 3.530907 1_465
Er0 Er8 3.530907 1_565
Er0 Er6 3.753503 1_455
Er0 Er6 3.753503 1_555
Er1 Mn0 2.866086 1_455
Er1 Mn0 2.866086 1_555
Er1 Ho1 3.318512 1_564
Er1 Er4 3.525250 1_554
Er1 Er4 3.525250 1_454
Er1 Er5 3.530228 1_465
Er1 Er5 3.530228 1_565
Er1 Er7 3.751396 1_455
Er1 Er7 3.751396 1_555
Er2 Mn1 2.865207 1_555
Er2 Mn1 2.865207 1_455
Er2 Ho2 3.309927 1_555
Er2 Ho0 3.319782 1_555
Er2 Er3 3.526491 1_555
Er2 Er3 3.526491 1_455
Er2 Er6 3.530996 1_555
Er2 Er6 3.530996 1_455
Er2 Er8 3.753621 1_555
Er2 Er8 3.753621 1_455
Er3 Mn1 3.223775 1_555
Er3 Ho2 3.527699 1_555
Er3 Ho2 3.527699 1_655
Er3 Ho0 3.751939 1_545
Er3 Ho0 3.751939 1_645
Er4 Mn0 3.219224 1_556
Er4 Ho1 3.755342 1_655
Er4 Ho1 3.755342 1_555
Er5 Mn0 3.225865 1_545
Er5 Ho1 3.531034 1_554
Er5 Ho1 3.531034 1_654
Er5 Ho2 3.753515 1_655
Er5 Ho2 3.753515 1_555
Er6 Mn1 3.223595 1_555
Er6 Ho0 3.531588 1_555
Er6 Ho0 3.531588 1_655
Er7 Mn1 3.233053 1_555
Er7 Ho0 3.533937 1_655
Er7 Ho0 3.533937 1_555
Er7 Ho2 3.534239 1_655
Er7 Ho2 3.534239 1_555
Er8 Mn0 3.227485 1_546
Er8 Ho1 3.531485 1_655
Er8 Ho1 3.531485 1_555
Bi0 Er1 3.233663 1_555
Bi0 Ho0 3.236467 1_555
Bi0 Ho2 3.236961 1_565
Bi0 Er5 3.310391 1_465
Bi0 Er5 3.310391 1_565
Bi0 Er7 3.315780 1_455
Bi0 Er7 3.315780 1_555
Bi0 Er3 3.319482 1_465
Bi0 Er3 3.319482 1_565
Bi1 Er2 3.234972 1_555
Bi1 Er0 3.235375 1_555
Bi1 Ho1 3.237665 1_555
Bi1 Er6 3.309003 1_455
Bi1 Er6 3.309003 1_555
Bi1 Er4 3.317592 1_455
Bi1 Er4 3.317592 1_555
Bi1 Er8 3.319903 1_555
Bi1 Er8 3.319903 1_455
Bi2 Er1 3.233887 1_555
Bi2 Ho1 3.236736 1_554
Bi2 Ho2 3.237371 1_555
Bi2 Er7 3.309916 1_455
Bi2 Er7 3.309916 1_555
Bi2 Er4 3.316086 1_554
Bi2 Er4 3.316086 1_454
Bi2 Er5 3.321274 1_555
Bi2 Er5 3.321274 1_455
Bi3 Er0 3.234969 1_545
Bi3 Er2 3.235088 1_555
Bi3 Ho0 3.236634 1_545
Bi3 Er8 3.308610 1_555
Bi3 Er8 3.308610 1_455
Bi3 Er3 3.316619 1_555
Bi3 Er3 3.316619 1_455
Bi3 Er6 3.320040 1_445
Bi3 Er6 3.320040 1_545
