# generated using pymatgen
data_PmEr3
_symmetry_space_group_name_H-M   'P 1'
_cell_length_a   5.01180227
_cell_length_b   5.01180227
_cell_length_c   5.01180227
_cell_angle_alpha   90.00000000
_cell_angle_beta   90.00000000
_cell_angle_gamma   90.00000000
_symmetry_Int_Tables_number   1
_chemical_formula_structural   PmEr3
_chemical_formula_sum   'Pm1 Er3'
_cell_volume   125.88726130
_cell_formula_units_Z   1
loop_
 _symmetry_equiv_pos_site_id
 _symmetry_equiv_pos_as_xyz
  1  'x, y, z'
loop_
 _atom_site_type_symbol
 _atom_site_label
 _atom_site_symmetry_multiplicity
 _atom_site_fract_x
 _atom_site_fract_y
 _atom_site_fract_z
 _atom_site_occupancy
  Pm  Pm0  1  -0.00000000  -0.00000000  -0.00000000  1
  Er  Er0  1  -0.00000000  0.50000000  0.50000000  1
  Er  Er1  1  0.50000000  -0.00000000  0.50000000  1
  Er  Er2  1  0.50000000  0.50000000  -0.00000000  1
loop_
_geom_bond_atom_site_label_1
_geom_bond_atom_site_label_2
_geom_bond_distance
_geom_bond_site_symmetry_2
Er0 Er2 3.543879 1_455
Er0 Er1 3.543879 1_565
Er0 Er1 3.543879 1_455
Er0 Er2 3.543879 1_456
Er0 Pm0 3.543879 1_556
Er0 Pm0 3.543879 1_565
Er0 Er1 3.543879 1_465
Er0 Er1 3.543879 1_555
Er0 Er2 3.543879 1_555
Er0 Pm0 3.543879 1_566
Er0 Er2 3.543879 1_556
Er0 Pm0 3.543879 1_555
Er1 Pm0 3.543879 1_655
Er1 Pm0 3.543879 1_556
Er1 Pm0 3.543879 1_656
Er1 Er2 3.543879 1_546
Er1 Er2 3.543879 1_555
Er1 Er2 3.543879 1_556
Er1 Er2 3.543879 1_545
Er1 Pm0 3.543879 1_555
Er2 Pm0 3.543879 1_665
Er2 Pm0 3.543879 1_565
Er2 Pm0 3.543879 1_655
Er2 Pm0 3.543879 1_555
