# generated using pymatgen
data_LuNi
_symmetry_space_group_name_H-M   'P 1'
_cell_length_a   4.01461822
_cell_length_b   5.29661673
_cell_length_c   6.88688598
_cell_angle_alpha   90.00031121
_cell_angle_beta   90.00000115
_cell_angle_gamma   89.99998745
_symmetry_Int_Tables_number   1
_chemical_formula_structural   LuNi
_chemical_formula_sum   'Lu4 Ni4'
_cell_volume   146.44201366
_cell_formula_units_Z   4
loop_
 _symmetry_equiv_pos_site_id
 _symmetry_equiv_pos_as_xyz
  1  'x, y, z'
loop_
 _atom_site_type_symbol
 _atom_site_label
 _atom_site_symmetry_multiplicity
 _atom_site_fract_x
 _atom_site_fract_y
 _atom_site_fract_z
 _atom_site_occupancy
  Lu  Lu0  1  0.24999977  0.36791320  0.67983006  1
  Lu  Lu1  1  0.24999983  0.13208520  0.17984066  1
  Lu  Lu2  1  0.74999999  0.63208867  0.32017053  1
  Lu  Lu3  1  0.75000003  0.86791439  0.82016010  1
  Ni  Ni0  1  0.25000140  0.87397597  0.53553900  1
  Ni  Ni1  1  0.24999989  0.62601584  0.03553565  1
  Ni  Ni2  1  0.74999897  0.12604667  0.46446248  1
  Ni  Ni3  1  0.75000013  0.37396007  0.96446152  1
loop_
_geom_bond_atom_site_label_1
_geom_bond_atom_site_label_2
_geom_bond_distance
_geom_bond_site_symmetry_2
Lu0 Ni0 2.798558 1_545
Lu0 Ni1 2.805333 1_556
Lu0 Ni2 2.805410 1_555
Lu0 Ni2 2.805415 1_455
Lu0 Ni3 2.805849 1_455
Lu0 Ni3 2.805851 1_555
Lu0 Ni0 2.858698 1_555
Lu1 Ni1 2.798569 1_555
Lu1 Ni0 2.805320 1_545
Lu1 Ni3 2.805481 1_454
Lu1 Ni3 2.805483 1_554
Lu1 Ni2 2.805801 1_555
Lu1 Ni2 2.805806 1_455
Lu1 Ni1 2.858754 1_545
Lu2 Ni2 2.798663 1_565
Lu2 Ni3 2.805421 1_554
Lu2 Ni0 2.805462 1_555
Lu2 Ni0 2.805470 1_655
Lu2 Ni1 2.805868 1_655
Lu2 Ni1 2.805868 1_555
Lu2 Ni2 2.858597 1_555
Lu3 Ni3 2.798678 1_555
Lu3 Ni2 2.805375 1_565
Lu3 Ni1 2.805526 1_656
Lu3 Ni1 2.805527 1_556
Lu3 Ni0 2.805797 1_555
Lu3 Ni0 2.805805 1_655
Lu3 Ni3 2.858628 1_565
Ni0 Ni2 2.459963 1_565
Ni0 Ni2 2.459978 1_465
Ni1 Ni3 2.459921 1_454
Ni1 Ni3 2.459922 1_554
