# generated using pymatgen
data_Zn7(Ga11Te20)2
_symmetry_space_group_name_H-M   'P 1'
_cell_length_a   4.59859187
_cell_length_b   4.59689351
_cell_length_c   180.06408917
_cell_angle_alpha   59.33324789
_cell_angle_beta   59.36061793
_cell_angle_gamma   60.02892837
_symmetry_Int_Tables_number   1
_chemical_formula_structural   Zn7(Ga11Te20)2
_chemical_formula_sum   'Zn7 Ga22 Te40'
_cell_volume   2665.23834567
_cell_formula_units_Z   1
loop_
 _symmetry_equiv_pos_site_id
 _symmetry_equiv_pos_as_xyz
  1  'x, y, z'
loop_
 _atom_site_type_symbol
 _atom_site_label
 _atom_site_symmetry_multiplicity
 _atom_site_fract_x
 _atom_site_fract_y
 _atom_site_fract_z
 _atom_site_occupancy
  Zn  Zn0  1  0.00062934  0.00064081  0.02494907  1
  Zn  Zn1  1  0.99603808  0.99583722  0.05029748  1
  Zn  Zn2  1  0.99951569  -0.00028711  0.30002834  1
  Zn  Zn3  1  0.00003214  0.00010336  0.34999413  1
  Zn  Zn4  1  0.00089685  0.00090735  0.37492367  1
  Zn  Zn5  1  0.00291574  0.00293244  0.39977677  1
  Zn  Zn6  1  0.00749251  0.00753559  0.42443634  1
  Ga  Ga0  1  0.00726721  0.00742293  0.44945160  1
  Ga  Ga1  1  0.99755418  0.99775493  0.47517522  1
  Ga  Ga2  1  0.99721359  0.99750011  0.50018396  1
  Ga  Ga3  1  0.99623313  0.99640380  0.52527052  1
  Ga  Ga4  1  0.99633584  0.99651194  0.55026465  1
  Ga  Ga5  1  0.99679847  0.99704928  0.57522150  1
  Ga  Ga6  1  0.99645438  0.99670958  0.60025098  1
  Ga  Ga7  1  0.99636115  0.99658331  0.62525056  1
  Ga  Ga8  1  0.99640808  0.99667323  0.65025183  1
  Ga  Ga9  1  0.99656646  0.99679957  0.67524631  1
  Ga  Ga10  1  0.99652683  0.99683952  0.70023887  1
  Ga  Ga11  1  0.99634526  0.99669854  0.72525703  1
  Ga  Ga12  1  0.99626366  0.99649814  0.75025801  1
  Ga  Ga13  1  0.99667510  0.99690417  0.77523625  1
  Ga  Ga14  1  0.99666286  0.99693468  0.80023859  1
  Ga  Ga15  1  0.99624739  0.99652500  0.82526085  1
  Ga  Ga16  1  0.99640067  0.99662928  0.85025774  1
  Ga  Ga17  1  0.99611248  0.99633884  0.87526923  1
  Ga  Ga18  1  0.99736353  0.99757611  0.90018507  1
  Ga  Ga19  1  0.99618505  0.99642496  0.92527822  1
  Ga  Ga20  1  0.99295941  0.99322254  0.95050741  1
  Ga  Ga21  1  0.99283330  0.99292754  0.97552793  1
  Te  Te0  1  0.23853984  0.23857846  0.00712176  1
  Te  Te1  1  0.24977205  0.24974627  0.03127368  1
  Te  Te2  1  0.25914237  0.25914585  0.05557360  1
  Te  Te3  1  0.24664980  0.24664483  0.08149326  1
  Te  Te4  1  0.24805899  0.24804806  0.10640913  1
  Te  Te5  1  0.24857304  0.24855064  0.13133390  1
  Te  Te6  1  0.24960004  0.24961573  0.15627968  1
  Te  Te7  1  0.24988513  0.24985425  0.18129264  1
  Te  Te8  1  0.25840906  0.25847692  0.20560576  1
  Te  Te9  1  0.24662366  0.24659197  0.23151650  1
  Te  Te10  1  0.25671773  0.25668767  0.25573466  1
  Te  Te11  1  0.23891531  0.23886832  0.28207391  1
  Te  Te12  1  0.26516147  0.26504272  0.30511989  1
  Te  Te13  1  0.23801664  0.23807106  0.33214635  1
  Te  Te14  1  0.24592818  0.24591109  0.35655829  1
  Te  Te15  1  0.24827207  0.24818702  0.38137301  1
  Te  Te16  1  0.25152390  0.25148776  0.40612994  1
  Te  Te17  1  0.25979915  0.25969501  0.43051850  1
  Te  Te18  1  0.26170966  0.26142920  0.45540093  1
  Te  Te19  1  0.25460040  0.25433936  0.48093534  1
  Te  Te20  1  0.25252719  0.25236949  0.50606238  1
  Te  Te21  1  0.25263952  0.25245829  0.53106644  1
  Te  Te22  1  0.25431332  0.25408954  0.55594314  1
  Te  Te23  1  0.25365016  0.25341209  0.58098834  1
  Te  Te24  1  0.25322852  0.25293817  0.60603212  1
  Te  Te25  1  0.25342770  0.25320506  0.63099603  1
  Te  Te26  1  0.25334248  0.25313167  0.65601220  1
  Te  Te27  1  0.25397823  0.25367711  0.68097309  1
  Te  Te28  1  0.25360040  0.25324345  0.70599854  1
  Te  Te29  1  0.25315709  0.25299433  0.73103223  1
  Te  Te30  1  0.25355407  0.25331468  0.75598715  1
  Te  Te31  1  0.25401396  0.25376140  0.78096818  1
  Te  Te32  1  0.25338378  0.25316503  0.80601957  1
  Te  Te33  1  0.25291293  0.25268102  0.83104254  1
  Te  Te34  1  0.25378106  0.25358297  0.85598674  1
  Te  Te35  1  0.25342879  0.25323422  0.88099546  1
  Te  Te36  1  0.25558720  0.25531018  0.90585156  1
  Te  Te37  1  0.24846689  0.24824275  0.93139511  1
  Te  Te38  1  0.24690930  0.24684488  0.95648233  1
  Te  Te39  1  0.24291056  0.24277382  0.98178797  1
loop_
_geom_bond_atom_site_label_1
_geom_bond_atom_site_label_2
_geom_bond_distance
_geom_bond_site_symmetry_2
Ga0 Te17 2.755571 1_555
Ga0 Te18 2.792430 1_545
Ga0 Te18 2.792545 1_455
Ga0 Te18 2.792611 1_555
Ga1 Te19 2.783796 1_565
Ga1 Te19 2.783805 1_655
Ga1 Te19 2.784739 1_665
Ga1 Te18 2.878004 1_665
Ga2 Te20 2.788844 1_665
Ga2 Te20 2.789559 1_655
Ga2 Te20 2.789634 1_565
Ga2 Te19 2.801500 1_665
Ga3 Te21 2.785491 1_665
Ga3 Te21 2.785577 1_655
Ga3 Te21 2.785991 1_565
Ga3 Te20 2.795602 1_665
Ga4 Te22 2.780237 1_665
Ga4 Te22 2.780611 1_655
Ga4 Te22 2.780827 1_565
Ga4 Te21 2.794158 1_665
Ga5 Te23 2.784133 1_665
Ga5 Te23 2.784490 1_565
Ga5 Te23 2.784600 1_655
Ga5 Te22 2.805824 1_665
Ga6 Te24 2.784690 1_565
Ga6 Te24 2.785014 1_655
Ga6 Te24 2.785403 1_665
Ga6 Te23 2.803535 1_665
Ga7 Te25 2.782835 1_665
Ga7 Te25 2.783763 1_655
Ga7 Te25 2.783817 1_565
Ga7 Te24 2.797105 1_665
Ga8 Te26 2.783872 1_665
Ga8 Te26 2.784218 1_565
Ga8 Te26 2.784281 1_655
Ga8 Te25 2.802539 1_665
Ga9 Te27 2.782412 1_665
Ga9 Te27 2.782633 1_565
Ga9 Te27 2.782922 1_655
Ga9 Te26 2.799382 1_665
Ga10 Te28 2.783694 1_565
Ga10 Te28 2.784093 1_665
Ga10 Te28 2.784493 1_655
Ga10 Te27 2.803994 1_665
Ga11 Te29 2.784586 1_565
Ga11 Te29 2.784799 1_655
Ga11 Te29 2.784940 1_665
Ga11 Te28 2.802932 1_665
Ga12 Te30 2.782060 1_665
Ga12 Te30 2.783078 1_565
Ga12 Te30 2.783137 1_655
Ga12 Te29 2.798173 1_665
Ga13 Te31 2.782803 1_665
Ga13 Te31 2.782875 1_565
Ga13 Te31 2.782963 1_655
Ga13 Te30 2.801563 1_665
Ga14 Te32 2.784893 1_565
Ga14 Te32 2.785009 1_655
Ga14 Te32 2.785184 1_665
Ga14 Te31 2.804666 1_665
Ga15 Te33 2.784795 1_665
Ga15 Te33 2.785099 1_565
Ga15 Te33 2.785286 1_655
Ga15 Te32 2.800429 1_665
Ga16 Te34 2.782617 1_655
Ga16 Te34 2.782737 1_565
Ga16 Te34 2.782903 1_665
Ga16 Te33 2.796630 1_665
Ga17 Te35 2.782037 1_665
Ga17 Te35 2.782858 1_655
Ga17 Te35 2.783000 1_565
Ga17 Te34 2.806427 1_665
Ga18 Te36 2.779979 1_565
Ga18 Te36 2.780035 1_665
Ga18 Te36 2.780107 1_655
Ga18 Te35 2.792905 1_665
Ga19 Te37 2.799916 1_655
Ga19 Te37 2.799948 1_565
Ga19 Te37 2.800695 1_665
Ga19 Te36 2.827407 1_665
Ga20 Te37 2.781659 1_665
Ga20 Te38 2.793030 1_665
Ga20 Te38 2.793748 1_655
Ga20 Te38 2.794278 1_565
Ga21 Te38 2.771945 1_665
Ga21 Te39 2.806017 1_665
Ga21 Te39 2.806845 1_655
Ga21 Te39 2.807777 1_565
Te0 Zn0 2.594634 1_555
Te1 Zn1 2.768773 1_445
Te1 Zn0 2.809248 1_555
Te1 Zn0 2.809457 1_565
Te1 Zn0 2.811126 1_655
Te2 Zn1 2.762371 1_455
Te2 Zn1 2.763939 1_445
Te2 Zn1 2.764844 1_545
Te11 Zn2 2.613133 1_455
Te12 Zn2 2.755245 1_455
Te12 Zn2 2.756711 1_465
Te12 Zn2 2.757168 1_555
Te13 Zn3 2.597611 1_555
Te14 Zn4 2.672945 1_555
Te14 Zn3 2.820246 1_555
Te14 Zn3 2.821461 1_565
Te14 Zn3 2.822965 1_655
Te15 Zn5 2.678529 1_555
Te15 Zn4 2.814229 1_555
Te15 Zn4 2.816068 1_565
Te15 Zn4 2.817532 1_655
Te16 Zn6 2.664359 1_555
Te16 Zn5 2.809395 1_555
Te16 Zn5 2.811458 1_565
Te16 Zn5 2.813072 1_655
Te17 Zn6 2.796983 1_555
Te17 Zn6 2.798770 1_565
Te17 Zn6 2.799996 1_655
