# generated using pymatgen
data_Dy
_symmetry_space_group_name_H-M   'P 1'
_cell_length_a   17.52500748
_cell_length_b   17.52500770
_cell_length_c   17.52501258
_cell_angle_alpha   23.61922620
_cell_angle_beta   23.61921817
_cell_angle_gamma   23.61922373
_symmetry_Int_Tables_number   1
_chemical_formula_structural   Dy
_chemical_formula_sum   Dy24
_cell_volume   758.84560155
_cell_formula_units_Z   24
loop_
 _symmetry_equiv_pos_site_id
 _symmetry_equiv_pos_as_xyz
  1  'x, y, z'
loop_
 _atom_site_type_symbol
 _atom_site_label
 _atom_site_symmetry_multiplicity
 _atom_site_fract_x
 _atom_site_fract_y
 _atom_site_fract_z
 _atom_site_occupancy
  Dy  Dy0_0  1  0.00000000  0.00000000  0.00000000  1
  Dy  Dy0_1  1  0.00000000  0.00000000  0.50000000  1
  Dy  Dy0_2  1  0.00000000  0.50000000  0.00000000  1
  Dy  Dy0_3  1  0.00000000  0.50000000  0.50000000  1
  Dy  Dy0_4  1  0.50000000  0.00000000  0.00000000  1
  Dy  Dy0_5  1  0.50000000  0.00000000  0.50000000  1
  Dy  Dy0_6  1  0.50000000  0.50000000  0.00000000  1
  Dy  Dy0_7  1  0.50000000  0.50000000  0.50000000  1
  Dy  Dy1_0  1  0.11101317  0.11101316  0.11101317  1
  Dy  Dy1_1  1  0.11101316  0.11101316  0.61101317  1
  Dy  Dy1_2  1  0.11101316  0.61101317  0.11101317  1
  Dy  Dy1_3  1  0.11101316  0.61101317  0.61101316  1
  Dy  Dy1_4  1  0.61101316  0.11101316  0.11101317  1
  Dy  Dy1_5  1  0.61101316  0.11101316  0.61101317  1
  Dy  Dy1_6  1  0.61101317  0.61101317  0.11101316  1
  Dy  Dy1_7  1  0.61101317  0.61101316  0.61101317  1
  Dy  Dy2_0  1  0.38898683  0.38898684  0.38898683  1
  Dy  Dy2_1  1  0.38898683  0.38898684  0.88898683  1
  Dy  Dy2_2  1  0.38898683  0.88898684  0.38898683  1
  Dy  Dy2_3  1  0.38898683  0.88898683  0.88898684  1
  Dy  Dy2_4  1  0.88898683  0.38898683  0.38898683  1
  Dy  Dy2_5  1  0.88898683  0.38898684  0.88898683  1
  Dy  Dy2_6  1  0.88898684  0.88898683  0.38898684  1
  Dy  Dy2_7  1  0.88898683  0.88898684  0.88898684  1
loop_
_geom_bond_atom_site_label_1
_geom_bond_atom_site_label_2
_geom_bond_distance
_geom_bond_site_symmetry_2
Dy0_0 Dy1_4 3.517288 1_455
Dy0_0 Dy2_3 3.517288 1_544
Dy0_0 Dy2_5 3.517289 1_454
Dy0_0 Dy1_2 3.517289 1_545
Dy0_0 Dy1_1 3.517291 1_554
Dy0_0 Dy2_6 3.517291 1_445
Dy0_0 Dy0_5 3.586672 1_455
Dy0_0 Dy0_5 3.586672 1_554
Dy0_0 Dy0_6 3.586673 1_545
Dy0_0 Dy0_6 3.586673 1_455
Dy0_0 Dy0_3 3.586674 1_545
Dy0_0 Dy0_3 3.586674 1_554
Dy0_1 Dy2_2 3.517288 1_545
Dy0_1 Dy1_5 3.517288 1_455
Dy0_1 Dy2_4 3.517289 1_455
Dy0_1 Dy1_3 3.517289 1_545
Dy0_1 Dy1_0 3.517291 1_555
Dy0_1 Dy2_7 3.517291 1_445
Dy0_1 Dy0_4 3.586672 1_555
Dy0_1 Dy0_4 3.586672 1_456
Dy0_1 Dy0_7 3.586673 1_545
Dy0_1 Dy0_7 3.586673 1_455
Dy0_1 Dy0_2 3.586674 1_555
Dy0_1 Dy0_2 3.586674 1_546
Dy0_2 Dy2_1 3.517288 1_554
Dy0_2 Dy1_6 3.517288 1_455
Dy0_2 Dy1_0 3.517289 1_555
Dy0_2 Dy2_7 3.517289 1_454
Dy0_2 Dy2_4 3.517291 1_455
Dy0_2 Dy1_3 3.517291 1_554
Dy0_2 Dy0_7 3.586672 1_554
Dy0_2 Dy0_7 3.586672 1_455
Dy0_2 Dy0_4 3.586673 1_465
Dy0_2 Dy0_4 3.586673 1_555
Dy0_3 Dy1_7 3.517288 1_455
Dy0_3 Dy2_0 3.517288 1_555
Dy0_3 Dy1_1 3.517289 1_555
Dy0_3 Dy2_6 3.517289 1_455
Dy0_3 Dy2_5 3.517291 1_455
Dy0_3 Dy1_2 3.517291 1_555
Dy0_3 Dy0_6 3.586672 1_555
Dy0_3 Dy0_6 3.586672 1_456
Dy0_3 Dy0_5 3.586673 1_465
Dy0_3 Dy0_5 3.586673 1_555
Dy0_4 Dy1_0 3.517288 1_555
Dy0_4 Dy2_7 3.517288 1_544
Dy0_4 Dy2_1 3.517289 1_554
Dy0_4 Dy1_6 3.517289 1_545
Dy0_4 Dy2_2 3.517291 1_545
Dy0_4 Dy1_5 3.517291 1_554
Dy0_4 Dy0_7 3.586674 1_554
Dy0_4 Dy0_7 3.586674 1_545
Dy0_5 Dy1_1 3.517288 1_555
Dy0_5 Dy2_6 3.517288 1_545
Dy0_5 Dy1_7 3.517289 1_545
Dy0_5 Dy2_0 3.517289 1_555
Dy0_5 Dy1_4 3.517291 1_555
Dy0_5 Dy2_3 3.517291 1_545
Dy0_5 Dy0_6 3.586674 1_555
Dy0_5 Dy0_6 3.586674 1_546
Dy0_6 Dy2_5 3.517288 1_554
Dy0_6 Dy1_2 3.517288 1_555
Dy0_6 Dy1_4 3.517289 1_555
Dy0_6 Dy2_3 3.517289 1_554
Dy0_6 Dy1_7 3.517291 1_554
Dy0_6 Dy2_0 3.517291 1_555
Dy0_7 Dy2_4 3.517288 1_555
Dy0_7 Dy1_3 3.517288 1_555
Dy0_7 Dy2_2 3.517289 1_555
Dy0_7 Dy1_5 3.517289 1_555
Dy0_7 Dy2_1 3.517291 1_555
Dy0_7 Dy1_6 3.517291 1_555
Dy1_0 Dy2_6 3.505166 1_445
Dy1_0 Dy2_3 3.505167 1_544
Dy1_0 Dy2_5 3.505168 1_454
Dy1_0 Dy1_5 3.586672 1_554
Dy1_0 Dy1_5 3.586672 1_455
Dy1_0 Dy1_6 3.586673 1_455
Dy1_0 Dy1_6 3.586673 1_545
Dy1_0 Dy1_3 3.586674 1_545
Dy1_0 Dy1_3 3.586674 1_554
Dy1_1 Dy2_7 3.505166 1_445
Dy1_1 Dy2_2 3.505167 1_545
Dy1_1 Dy2_4 3.505168 1_455
Dy1_1 Dy1_4 3.586672 1_555
Dy1_1 Dy1_4 3.586672 1_456
Dy1_1 Dy1_7 3.586673 1_455
Dy1_1 Dy1_7 3.586673 1_545
Dy1_1 Dy1_2 3.586674 1_555
Dy1_1 Dy1_2 3.586674 1_546
Dy1_2 Dy2_4 3.505166 1_455
Dy1_2 Dy2_1 3.505167 1_554
Dy1_2 Dy2_7 3.505168 1_454
Dy1_2 Dy1_7 3.586672 1_455
Dy1_2 Dy1_7 3.586672 1_554
Dy1_2 Dy1_4 3.586673 1_465
Dy1_2 Dy1_4 3.586673 1_555
Dy1_3 Dy2_5 3.505166 1_455
Dy1_3 Dy2_0 3.505167 1_555
Dy1_3 Dy2_6 3.505168 1_455
Dy1_3 Dy1_6 3.586672 1_555
Dy1_3 Dy1_6 3.586672 1_456
Dy1_3 Dy1_5 3.586673 1_465
Dy1_3 Dy1_5 3.586673 1_555
Dy1_4 Dy2_2 3.505166 1_545
Dy1_4 Dy2_7 3.505167 1_544
Dy1_4 Dy2_1 3.505168 1_554
Dy1_4 Dy1_7 3.586674 1_554
Dy1_4 Dy1_7 3.586674 1_545
Dy1_5 Dy2_3 3.505166 1_545
Dy1_5 Dy2_6 3.505167 1_545
Dy1_5 Dy2_0 3.505168 1_555
Dy1_5 Dy1_6 3.586674 1_546
Dy1_5 Dy1_6 3.586674 1_555
Dy1_6 Dy2_0 3.505166 1_555
Dy1_6 Dy2_5 3.505167 1_554
Dy1_6 Dy2_3 3.505168 1_554
Dy1_7 Dy2_1 3.505166 1_555
Dy1_7 Dy2_4 3.505167 1_555
Dy1_7 Dy2_2 3.505168 1_555
Dy2_0 Dy2_5 3.586672 1_554
Dy2_0 Dy2_5 3.586672 1_455
Dy2_0 Dy2_6 3.586673 1_455
Dy2_0 Dy2_6 3.586673 1_545
Dy2_0 Dy2_3 3.586674 1_554
Dy2_0 Dy2_3 3.586674 1_545
Dy2_1 Dy2_4 3.586672 1_456
Dy2_1 Dy2_4 3.586672 1_555
Dy2_1 Dy2_7 3.586673 1_545
Dy2_1 Dy2_7 3.586673 1_455
Dy2_1 Dy2_2 3.586674 1_546
Dy2_1 Dy2_2 3.586674 1_555
Dy2_2 Dy2_7 3.586672 1_554
Dy2_2 Dy2_7 3.586672 1_455
Dy2_2 Dy2_4 3.586673 1_465
Dy2_2 Dy2_4 3.586673 1_555
Dy2_3 Dy2_6 3.586672 1_456
Dy2_3 Dy2_6 3.586672 1_555
Dy2_3 Dy2_5 3.586673 1_555
Dy2_3 Dy2_5 3.586673 1_465
Dy2_4 Dy2_7 3.586674 1_554
Dy2_4 Dy2_7 3.586674 1_545
Dy2_5 Dy2_6 3.586674 1_555
Dy2_5 Dy2_6 3.586674 1_546
