# generated using pymatgen
data_SrV5NiO11
_symmetry_space_group_name_H-M   'P 1'
_cell_length_a   5.82066633
_cell_length_b   5.82066633
_cell_length_c   13.97196000
_cell_angle_alpha   90.00000000
_cell_angle_beta   90.00000000
_cell_angle_gamma   120.00000371
_symmetry_Int_Tables_number   1
_chemical_formula_structural   SrV5NiO11
_chemical_formula_sum   'Sr2 V10 Ni2 O22'
_cell_volume   409.95232769
_cell_formula_units_Z   2
loop_
 _symmetry_equiv_pos_site_id
 _symmetry_equiv_pos_as_xyz
  1  'x, y, z'
loop_
 _atom_site_type_symbol
 _atom_site_label
 _atom_site_symmetry_multiplicity
 _atom_site_fract_x
 _atom_site_fract_y
 _atom_site_fract_z
 _atom_site_occupancy
  Sr  Sr0  1  0.33333300  0.66666700  0.75000000  1
  Sr  Sr1  1  0.66666700  0.33333300  0.25000000  1
  V  V0  1  0.50000000  0.00000000  0.00000000  1
  V  V1  1  0.00000000  0.50000000  0.00000000  1
  V  V2  1  0.50000000  0.00000000  0.50000000  1
  V  V3  1  0.50000000  0.50000000  0.00000000  1
  V  V4  1  0.00000000  0.50000000  0.50000000  1
  V  V5  1  0.50000000  0.50000000  0.50000000  1
  V  V6  1  0.00000000  0.00000000  0.15030200  1
  V  V7  1  0.00000000  0.00000000  0.84969800  1
  V  V8  1  0.00000000  0.00000000  0.65030200  1
  V  V9  1  0.00000000  0.00000000  0.34969800  1
  Ni  Ni0  1  0.33333300  0.66666700  0.25000000  1
  Ni  Ni1  1  0.66666700  0.33333300  0.75000000  1
  O  O0  1  0.33333300  0.66666700  0.07399400  1
  O  O1  1  0.66666700  0.33333300  0.92600600  1
  O  O2  1  0.66666700  0.33333300  0.57399400  1
  O  O3  1  0.33333300  0.66666700  0.42600600  1
  O  O4  1  0.17385600  0.34771300  0.57666700  1
  O  O5  1  0.82614400  0.65228700  0.42333300  1
  O  O6  1  0.65228700  0.82614400  0.57666700  1
  O  O7  1  0.82614400  0.65228700  0.07666700  1
  O  O8  1  0.34771300  0.17385600  0.42333300  1
  O  O9  1  0.17385600  0.34771300  0.92333300  1
  O  O10  1  0.17385600  0.82614400  0.57666700  1
  O  O11  1  0.34771300  0.17385600  0.07666700  1
  O  O12  1  0.82614400  0.17385600  0.42333300  1
  O  O13  1  0.65228700  0.82614400  0.92333300  1
  O  O14  1  0.82614400  0.17385600  0.07666700  1
  O  O15  1  0.17385600  0.82614400  0.92333300  1
  O  O16  1  0.14816400  0.29632800  0.25000000  1
  O  O17  1  0.85183600  0.70367200  0.75000000  1
  O  O18  1  0.70367200  0.85183600  0.25000000  1
  O  O19  1  0.29632800  0.14816400  0.75000000  1
  O  O20  1  0.14816400  0.85183600  0.25000000  1
  O  O21  1  0.85183600  0.14816400  0.75000000  1
loop_
_geom_bond_atom_site_label_1
_geom_bond_atom_site_label_2
_geom_bond_distance
_geom_bond_site_symmetry_2
Ni0 O20 1.866816 1_555
Ni0 O18 1.866821 1_555
Ni0 O16 1.866821 1_555
Ni0 O3 2.459149 1_555
Ni0 O0 2.459149 1_555
Ni1 O21 1.866816 1_555
Ni1 O17 1.866821 1_555
Ni1 O19 1.866821 1_555
Ni1 O2 2.459149 1_555
Ni1 O1 2.459149 1_555
O0 V1 1.972858 1_555
O0 V0 1.972858 1_565
O0 V3 1.972862 1_555
O1 V1 1.972858 1_656
O1 V0 1.972858 1_556
O1 V3 1.972862 1_556
O2 V2 1.972858 1_555
O2 V4 1.972858 1_655
O2 V5 1.972862 1_555
O3 V2 1.972858 1_565
O3 V4 1.972858 1_555
O3 V5 1.972862 1_555
O4 V4 1.963222 1_555
O4 V5 1.963226 1_555
O4 V8 2.032406 1_555
O4 Sr0 2.906912 1_555
O5 V4 1.963222 1_655
O5 V5 1.963226 1_555
O5 V9 2.032406 1_665
O5 Sr1 2.906912 1_555
O6 V2 1.963222 1_565
O6 V5 1.963226 1_555
O6 V8 2.032406 1_665
O6 Sr0 2.906912 1_555
O7 V1 1.963222 1_655
O7 V3 1.963226 1_555
O7 V6 2.032406 1_665
O7 Sr1 2.906912 1_555
O8 V2 1.963222 1_555
O8 V5 1.963226 1_555
O8 V9 2.032406 1_555
O8 Sr1 2.906912 1_555
O9 V1 1.963222 1_556
O9 V3 1.963226 1_556
O9 V7 2.032406 1_555
O9 Sr0 2.906912 1_555
O10 V4 1.963226 1_555
O10 V2 1.963226 1_565
O10 V8 2.032402 1_565
O10 Sr0 2.906912 1_555
O11 V0 1.963222 1_555
O11 V3 1.963226 1_555
O11 V6 2.032406 1_555
O11 Sr1 2.906912 1_555
O12 V2 1.963226 1_555
O12 V4 1.963226 1_655
O12 V9 2.032402 1_655
O12 Sr1 2.906912 1_555
O13 V0 1.963222 1_566
O13 V3 1.963226 1_556
O13 V7 2.032406 1_665
O13 Sr0 2.906912 1_555
O14 V1 1.963226 1_655
O14 V0 1.963226 1_555
O14 V6 2.032402 1_655
O14 Sr1 2.906912 1_555
O15 V1 1.963226 1_556
O15 V0 1.963226 1_566
O15 V7 2.032402 1_565
O15 Sr0 2.906912 1_555
O16 V9 2.042462 1_555
O16 V6 2.042462 1_555
O16 Sr1 2.916302 1_455
O16 Sr1 2.916308 1_555
O17 V8 2.042462 1_665
O17 V7 2.042462 1_665
O17 Sr0 2.916302 1_655
O17 Sr0 2.916308 1_555
O18 V6 2.042462 1_665
O18 V9 2.042462 1_665
O18 Sr1 2.916302 1_565
O18 Sr1 2.916308 1_555
O19 V7 2.042462 1_555
O19 V8 2.042462 1_555
O19 Sr0 2.916302 1_545
O19 Sr0 2.916308 1_555
O20 V9 2.042463 1_565
O20 V6 2.042463 1_565
O20 Sr1 2.916305 1_455
O20 Sr1 2.916305 1_565
O21 V7 2.042463 1_655
O21 V8 2.042463 1_655
O21 Sr0 2.916305 1_545
O21 Sr0 2.916305 1_655
