# generated using pymatgen
data_RbAl3Cd(SiO4)3
_symmetry_space_group_name_H-M   'P 1'
_cell_length_a   12.37885909
_cell_length_b   12.39320130
_cell_length_c   12.26210559
_cell_angle_alpha   89.87646080
_cell_angle_beta   90.09346629
_cell_angle_gamma   89.30873166
_symmetry_Int_Tables_number   1
_chemical_formula_structural   RbAl3Cd(SiO4)3
_chemical_formula_sum   'Rb4 Al12 Cd4 Si12 O48'
_cell_volume   1881.03102813
_cell_formula_units_Z   4
loop_
 _symmetry_equiv_pos_site_id
 _symmetry_equiv_pos_as_xyz
  1  'x, y, z'
loop_
 _atom_site_type_symbol
 _atom_site_label
 _atom_site_symmetry_multiplicity
 _atom_site_fract_x
 _atom_site_fract_y
 _atom_site_fract_z
 _atom_site_occupancy
  Rb  Rb0  1  0.01207442  0.53380897  0.53184149  1
  Rb  Rb1  1  0.48375591  0.52381582  0.03053496  1
  Rb  Rb2  1  0.47185918  0.04127128  0.47190970  1
  Rb  Rb3  1  0.46976926  0.74782974  0.75284166  1
  Al  Al0  1  0.00163964  0.18908123  0.62360117  1
  Al  Al1  1  0.36809265  0.80849152  0.00105386  1
  Al  Al2  1  0.61781266  0.01631825  0.19293606  1
  Al  Al3  1  0.61613543  0.19306327  0.98366660  1
  Al  Al4  1  0.62573534  0.98960810  0.80709464  1
  Al  Al5  1  0.62199441  0.81077385  0.01362309  1
  Al  Al6  1  0.83359100  0.00122717  0.36155312  1
  Al  Al7  1  0.83815462  0.00041255  0.63586869  1
  Al  Al8  1  0.82580560  0.37038036  0.99330890  1
  Al  Al9  1  0.83552348  0.63750917  0.00863045  1
  Al  Al10  1  0.00634847  0.63236657  0.82275412  1
  Al  Al11  1  0.00162602  0.80832311  0.37355444  1
  Cd  Cd0  1  0.79637416  0.17956176  0.18936382  1
  Cd  Cd1  1  0.79752560  0.20009408  0.81542599  1
  Cd  Cd2  1  0.79438670  0.80343372  0.18580143  1
  Cd  Cd3  1  0.81407242  0.83001834  0.81374049  1
  Si  Si0  1  0.01149966  0.18519606  0.36371860  1
  Si  Si1  1  0.99876843  0.36538678  0.17923818  1
  Si  Si2  1  0.00760887  0.37806676  0.80417183  1
  Si  Si3  1  0.02118357  0.81458651  0.63346952  1
  Si  Si4  1  0.18505678  0.99978598  0.37064410  1
  Si  Si5  1  0.19048075  0.99865926  0.61833250  1
  Si  Si6  1  0.18200622  0.36957097  0.99180148  1
  Si  Si7  1  0.19172703  0.61112683  0.01769320  1
  Si  Si8  1  0.36832256  0.00294927  0.18260358  1
  Si  Si9  1  0.36098541  0.17649845  0.99395691  1
  Si  Si10  1  0.36501057  0.99123590  0.81289924  1
  Si  Si11  1  0.01593379  0.61846647  0.19768655  1
  O  O0  1  0.02288993  0.29328836  0.28685814  1
  O  O1  1  0.01879110  0.31051764  0.69281981  1
  O  O2  1  0.01867747  0.67947743  0.31387123  1
  O  O3  1  0.98648833  0.77646949  0.51207620  1
  O  O4  1  0.98075122  0.50240667  0.77270098  1
  O  O5  1  0.03649582  0.70695296  0.70656390  1
  O  O6  1  0.12396986  0.11676011  0.35460929  1
  O  O7  1  0.09536398  0.35213120  0.09080915  1
  O  O8  1  0.10843617  0.09717100  0.63706750  1
  O  O9  1  0.13367729  0.62083130  0.13813204  1
  O  O10  1  0.11998641  0.36897205  0.87544958  1
  O  O11  1  0.10627719  0.89957891  0.35642317  1
  O  O12  1  0.10574787  0.62782691  0.92161118  1
  O  O13  1  0.13519552  0.88050843  0.63312474  1
  O  O14  1  0.24343538  0.00131848  0.49340980  1
  O  O15  1  0.24397249  0.48497930  0.01075517  1
  O  O16  1  0.28577105  0.99775484  0.28640882  1
  O  O17  1  0.27219373  0.27479601  0.99209858  1
  O  O18  1  0.29536602  0.00295767  0.69922519  1
  O  O19  1  0.29396410  0.68923611  0.01149410  1
  O  O20  1  0.33775084  0.10768201  0.10500951  1
  O  O21  1  0.34497966  0.09987594  0.88629235  1
  O  O22  1  0.36416969  0.89341251  0.11344850  1
  O  O23  1  0.33573686  0.88139188  0.87873615  1
  O  O24  1  0.48515850  0.02497615  0.24079066  1
  O  O25  1  0.47980561  0.23072093  0.99121913  1
  O  O26  1  0.48977938  0.97984575  0.76786258  1
  O  O27  1  0.49887978  0.75233283  0.98260294  1
  O  O28  1  0.65361027  0.12603551  0.10558200  1
  O  O29  1  0.65056250  0.11572216  0.86635895  1
  O  O30  1  0.64263989  0.89194310  0.13047942  1
  O  O31  1  0.66322577  0.87912836  0.89325142  1
  O  O32  1  0.71157371  0.03680536  0.29783952  1
  O  O33  1  0.71797962  0.96504424  0.70191495  1
  O  O34  1  0.71019274  0.29629984  0.96739035  1
  O  O35  1  0.72145693  0.71309161  0.04658374  1
  O  O36  1  0.80651811  0.50454147  0.00211325  1
  O  O37  1  0.83545367  0.00158833  0.49857884  1
  O  O38  1  0.91413965  0.11266760  0.30758147  1
  O  O39  1  0.88401602  0.12845014  0.68331667  1
  O  O40  1  0.88525338  0.32078025  0.12199567  1
  O  O41  1  0.90971707  0.32640840  0.88132385  1
  O  O42  1  0.92162094  0.67344178  0.12086248  1
  O  O43  1  0.88740280  0.68911734  0.88354219  1
  O  O44  1  0.88328971  0.87244607  0.31467638  1
  O  O45  1  0.92622818  0.89349740  0.68870724  1
  O  O46  1  0.98392032  0.22390290  0.48537177  1
  O  O47  1  0.98502285  0.48999521  0.21973611  1
loop_
_geom_bond_atom_site_label_1
_geom_bond_atom_site_label_2
_geom_bond_distance
_geom_bond_site_symmetry_2
Al0 O8 1.742012 1_555
Al0 O1 1.744447 1_555
Al0 O46 1.760871 1_455
Al0 O39 1.802324 1_455
Al1 O22 1.736276 1_555
Al1 O19 1.753589 1_555
Al1 O27 1.769581 1_554
Al1 O23 1.791581 1_554
Al2 O30 1.746809 1_545
Al2 O24 1.746861 1_555
Al2 O32 1.752112 1_555
Al2 O28 1.789536 1_555
Al3 O25 1.748169 1_555
Al3 O34 1.751578 1_555
Al3 O28 1.767250 1_556
Al3 O29 1.779760 1_555
Al4 O33 1.748731 1_555
Al4 O26 1.755280 1_555
Al4 O29 1.755320 1_565
Al4 O31 1.784104 1_555
Al5 O27 1.737186 1_554
Al5 O35 1.762137 1_555
Al5 O30 1.772480 1_555
Al5 O31 1.778831 1_554
Al6 O37 1.680361 1_555
Al6 O32 1.750656 1_555
Al6 O44 1.799321 1_545
Al6 O38 1.836051 1_555
Al7 O37 1.683768 1_555
Al7 O33 1.754762 1_545
Al7 O39 1.789794 1_555
Al7 O45 1.822979 1_545
Al8 O36 1.680614 1_556
Al8 O34 1.738847 1_555
Al8 O41 1.804371 1_555
Al8 O40 1.841333 1_556
Al9 O36 1.692813 1_555
Al9 O35 1.749257 1_555
Al9 O43 1.784119 1_554
Al9 O42 1.799293 1_555
Al10 O12 1.726199 1_555
Al10 O5 1.740107 1_555
Al10 O4 1.757025 1_455
Al10 O43 1.788608 1_455
Al11 O11 1.742589 1_555
Al11 O3 1.753859 1_455
Al11 O2 1.768434 1_555
Al11 O44 1.806819 1_455
Cd0 O28 2.154987 1_555
Cd0 O38 2.207391 1_555
Cd0 O40 2.235868 1_555
Cd0 O32 2.457749 1_555
Cd1 O39 2.132553 1_555
Cd1 O29 2.199960 1_555
Cd1 O41 2.255341 1_555
Cd1 O34 2.459193 1_555
Cd2 O44 2.112533 1_555
Cd2 O35 2.238391 1_555
Cd2 O30 2.266031 1_555
Cd2 O42 2.378764 1_555
Cd3 O43 2.135095 1_555
Cd3 O31 2.188360 1_555
Cd3 O45 2.219272 1_555
Cd3 O33 2.456058 1_555
O0 Si1 1.617472 1_455
O0 Si0 1.643847 1_555
O1 Si2 1.608439 1_555
O1 Rb0 3.395821 1_555
O2 Si11 1.614825 1_555
O2 Rb0 3.223813 1_555
O3 Si3 1.621481 1_655
O3 Rb0 3.029320 1_655
O4 Si2 1.618238 1_655
O4 Rb0 3.004506 1_655
O5 Si3 1.614562 1_555
O5 Rb0 3.052770 1_555
O6 Si0 1.625611 1_555
O6 Si4 1.638260 1_545
O7 Si1 1.622594 1_455
O7 Si6 1.636963 1_554
O8 Si5 1.595884 1_545
O9 Si11 1.631855 1_555
O9 Si7 1.647427 1_555
O10 Si6 1.619138 1_555
O10 Si2 1.644265 1_555
O11 Si4 1.597908 1_555
O12 Si7 1.597887 1_556
O13 Si5 1.633639 1_555
O13 Si3 1.639262 1_555
O14 Si5 1.667581 1_545
O14 Si4 1.669021 1_545
O14 Rb2 2.888908 1_555
O15 Si6 1.647858 1_554
O15 Si7 1.687008 1_555
O15 Rb1 3.022183 1_555
O16 Si4 1.620311 1_555
O16 Si8 1.635264 1_565
O17 Si6 1.610694 1_555
O17 Si9 1.631006 1_555
O18 Si5 1.634064 1_545
O18 Si10 1.643000 1_545
O19 Si7 1.604399 1_555
O19 Rb1 3.107573 1_555
O20 Si9 1.632975 1_554
O20 Si8 1.647693 1_555
O21 Si10 1.637708 1_545
O21 Si9 1.641036 1_555
O22 Si8 1.603455 1_565
O23 Si10 1.626147 1_555
O23 Rb3 2.798026 1_555
O24 Si8 1.637794 1_555
O24 Rb2 2.846518 1_555
O25 Si9 1.624819 1_555
O26 Si10 1.645668 1_555
O26 Rb3 2.895281 1_555
O27 Rb3 2.840479 1_555
O27 Rb1 2.899486 1_556
O31 Rb3 3.382265 1_555
O38 Si0 1.661448 1_655
O40 Si1 1.670341 1_555
O41 Si2 1.671274 1_655
O42 Si11 1.639842 1_655
O45 Si3 1.665699 1_655
O46 Si0 1.603965 1_655
O47 Si1 1.630230 1_555
O47 Si11 1.663642 1_655
