# generated using pymatgen
data_HfCuGe
_symmetry_space_group_name_H-M   'P 1'
_cell_length_a   3.91374748
_cell_length_b   6.42656352
_cell_length_c   7.30545127
_cell_angle_alpha   90.00000000
_cell_angle_beta   90.00000000
_cell_angle_gamma   90.00000000
_symmetry_Int_Tables_number   1
_chemical_formula_structural   HfCuGe
_chemical_formula_sum   'Hf4 Cu4 Ge4'
_cell_volume   183.74632156
_cell_formula_units_Z   4
loop_
 _symmetry_equiv_pos_site_id
 _symmetry_equiv_pos_as_xyz
  1  'x, y, z'
loop_
 _atom_site_type_symbol
 _atom_site_label
 _atom_site_symmetry_multiplicity
 _atom_site_fract_x
 _atom_site_fract_y
 _atom_site_fract_z
 _atom_site_occupancy
  Hf  Hf0  1  0.75000000  0.48808046  0.69121994  1
  Hf  Hf1  1  0.75000000  0.98808046  0.80878006  1
  Hf  Hf2  1  0.25000000  0.51191954  0.30878006  1
  Hf  Hf3  1  0.25000000  0.01191954  0.19121994  1
  Cu  Cu0  1  0.75000000  0.33437360  0.07448714  1
  Cu  Cu1  1  0.75000000  0.83437360  0.42551186  1
  Cu  Cu2  1  0.25000000  0.66562640  0.92551186  1
  Cu  Cu3  1  0.25000000  0.16562640  0.57448814  1
  Ge  Ge0  1  0.75000000  0.72321803  0.10460526  1
  Ge  Ge1  1  0.75000000  0.22321803  0.39539474  1
  Ge  Ge2  1  0.25000000  0.27678197  0.89539474  1
  Ge  Ge3  1  0.25000000  0.77678197  0.60460526  1
loop_
_geom_bond_atom_site_label_1
_geom_bond_atom_site_label_2
_geom_bond_distance
_geom_bond_site_symmetry_2
Cu0 Ge2 2.382881 1_654
Cu0 Ge2 2.382881 1_554
Cu0 Ge1 2.450793 1_555
Cu0 Ge0 2.508601 1_555
Cu0 Hf2 2.839170 1_655
Cu0 Hf2 2.839170 1_555
Cu0 Hf1 2.953074 1_544
Cu0 Hf0 2.969078 1_554
Cu0 Hf3 2.975047 1_555
Cu0 Hf3 2.975047 1_655
Cu1 Ge3 2.382885 1_655
Cu1 Ge3 2.382885 1_555
Cu1 Ge0 2.450786 1_555
Cu1 Ge1 2.508601 1_565
Cu1 Hf3 2.839166 1_565
Cu1 Hf3 2.839166 1_665
Cu1 Hf0 2.953079 1_555
Cu1 Hf1 2.969085 1_555
Cu1 Hf2 2.975045 1_555
Cu1 Hf2 2.975045 1_655
Cu2 Ge0 2.382885 1_456
Cu2 Ge0 2.382885 1_556
Cu2 Ge3 2.450786 1_555
Cu2 Ge2 2.508601 1_555
Cu2 Hf0 2.839166 1_455
Cu2 Hf0 2.839166 1_555
Cu2 Hf3 2.953079 1_566
Cu2 Hf2 2.969085 1_556
Cu2 Hf1 2.975045 1_555
Cu2 Hf1 2.975045 1_455
Cu3 Ge1 2.382885 1_455
Cu3 Ge1 2.382885 1_555
Cu3 Ge2 2.450786 1_555
Cu3 Ge3 2.508601 1_545
Cu3 Hf1 2.839166 1_445
Cu3 Hf1 2.839166 1_545
Cu3 Hf2 2.953079 1_555
Cu3 Hf3 2.969085 1_555
Cu3 Hf0 2.975045 1_455
Cu3 Hf0 2.975045 1_555
Ge0 Hf1 2.750971 1_554
Ge0 Hf3 2.769855 1_665
Ge0 Hf3 2.769855 1_565
Ge0 Hf2 2.810364 1_655
Ge0 Hf2 2.810364 1_555
Ge1 Hf0 2.750971 1_555
Ge1 Hf2 2.769855 1_555
Ge1 Hf2 2.769855 1_655
Ge1 Hf3 2.810364 1_555
Ge1 Hf3 2.810364 1_655
Ge2 Hf3 2.750971 1_556
Ge2 Hf1 2.769855 1_545
Ge2 Hf1 2.769855 1_445
Ge2 Hf0 2.810364 1_455
Ge2 Hf0 2.810364 1_555
Ge3 Hf2 2.750971 1_555
Ge3 Hf0 2.769855 1_455
Ge3 Hf0 2.769855 1_555
Ge3 Hf1 2.810364 1_455
Ge3 Hf1 2.810364 1_555
