# generated using pymatgen
data_Tm5Ga3
_symmetry_space_group_name_H-M   'P 1'
_cell_length_a   8.45144827
_cell_length_b   8.45144827
_cell_length_c   6.36462627
_cell_angle_alpha   90.00000000
_cell_angle_beta   90.00000000
_cell_angle_gamma   120.00000194
_symmetry_Int_Tables_number   1
_chemical_formula_structural   Tm5Ga3
_chemical_formula_sum   'Tm10 Ga6'
_cell_volume   393.70035384
_cell_formula_units_Z   2
loop_
 _symmetry_equiv_pos_site_id
 _symmetry_equiv_pos_as_xyz
  1  'x, y, z'
loop_
 _atom_site_type_symbol
 _atom_site_label
 _atom_site_symmetry_multiplicity
 _atom_site_fract_x
 _atom_site_fract_y
 _atom_site_fract_z
 _atom_site_occupancy
  Tm  Tm0  1  0.66666700  0.33333300  -0.00000000  1
  Tm  Tm1  1  0.33333300  0.66666700  -0.00000000  1
  Tm  Tm2  1  0.33333300  0.66666700  0.50000000  1
  Tm  Tm3  1  0.66666700  0.33333300  0.50000000  1
  Tm  Tm4  1  0.75524576  0.75524576  0.75000000  1
  Tm  Tm5  1  0.24475424  0.00000000  0.75000000  1
  Tm  Tm6  1  0.00000000  0.24475424  0.75000000  1
  Tm  Tm7  1  0.24475424  0.24475424  0.25000000  1
  Tm  Tm8  1  0.75524576  1.00000000  0.25000000  1
  Tm  Tm9  1  1.00000000  0.75524576  0.25000000  1
  Ga  Ga0  1  0.39915397  0.39915397  0.75000000  1
  Ga  Ga1  1  0.60084603  0.00000000  0.75000000  1
  Ga  Ga2  1  0.00000000  0.60084603  0.75000000  1
  Ga  Ga3  1  0.60084603  0.60084603  0.25000000  1
  Ga  Ga4  1  0.39915397  1.00000000  0.25000000  1
  Ga  Ga5  1  1.00000000  0.39915397  0.25000000  1
loop_
_geom_bond_atom_site_label_1
_geom_bond_atom_site_label_2
_geom_bond_distance
_geom_bond_site_symmetry_2
Ga0 Tm5 2.946320 1_555
Ga0 Tm6 2.946320 1_555
Ga0 Tm4 3.009491 1_555
Ga0 Tm3 3.034874 1_555
Ga0 Tm1 3.034874 1_556
Ga0 Tm2 3.034874 1_555
Ga0 Tm0 3.034874 1_556
Ga0 Tm7 3.439460 1_555
Ga0 Tm7 3.439460 1_556
Ga1 Tm6 2.946320 1_655
Ga1 Tm4 2.946320 1_545
Ga1 Tm5 3.009491 1_555
Ga1 Tm0 3.034867 1_556
Ga1 Tm3 3.034867 1_555
Ga1 Tm2 3.034869 1_545
Ga1 Tm1 3.034869 1_546
Ga1 Tm8 3.439460 1_545
Ga1 Tm8 3.439460 1_546
Ga2 Tm5 2.946320 1_565
Ga2 Tm4 2.946320 1_455
Ga2 Tm6 3.009491 1_555
Ga2 Tm2 3.034867 1_555
Ga2 Tm1 3.034867 1_556
Ga2 Tm3 3.034869 1_455
Ga2 Tm0 3.034869 1_456
Ga2 Tm9 3.439460 1_455
Ga2 Tm9 3.439460 1_456
Ga3 Tm8 2.946320 1_555
Ga3 Tm9 2.946320 1_555
Ga3 Tm7 3.009491 1_555
Ga3 Tm3 3.034874 1_555
Ga3 Tm1 3.034874 1_555
Ga3 Tm0 3.034874 1_555
Ga3 Tm2 3.034874 1_555
Ga3 Tm4 3.439460 1_555
Ga3 Tm4 3.439460 1_554
Ga4 Tm9 2.946320 1_455
Ga4 Tm7 2.946320 1_565
Ga4 Tm8 3.009491 1_555
Ga4 Tm2 3.034867 1_555
Ga4 Tm1 3.034867 1_555
Ga4 Tm3 3.034869 1_565
Ga4 Tm0 3.034869 1_565
Ga4 Tm5 3.439460 1_565
Ga4 Tm5 3.439460 1_564
Ga5 Tm8 2.946320 1_545
Ga5 Tm7 2.946320 1_655
Ga5 Tm9 3.009491 1_555
Ga5 Tm3 3.034867 1_555
Ga5 Tm0 3.034867 1_555
Ga5 Tm2 3.034869 1_655
Ga5 Tm1 3.034869 1_655
Ga5 Tm6 3.439460 1_655
Ga5 Tm6 3.439460 1_654
