# generated using pymatgen
data_KLa(SnO3)4
_symmetry_space_group_name_H-M   'P 1'
_cell_length_a   5.76623369
_cell_length_b   5.76623369
_cell_length_c   8.24421101
_cell_angle_alpha   90.00000000
_cell_angle_beta   90.00000000
_cell_angle_gamma   89.75521705
_symmetry_Int_Tables_number   1
_chemical_formula_structural   KLa(SnO3)4
_chemical_formula_sum   'K1 La1 Sn4 O12'
_cell_volume   274.11298860
_cell_formula_units_Z   1
loop_
 _symmetry_equiv_pos_site_id
 _symmetry_equiv_pos_as_xyz
  1  'x, y, z'
loop_
 _atom_site_type_symbol
 _atom_site_label
 _atom_site_symmetry_multiplicity
 _atom_site_fract_x
 _atom_site_fract_y
 _atom_site_fract_z
 _atom_site_occupancy
  K  K0  1  0.99852827  0.00147173  0.50000000  1
  La  La0  1  0.50072754  0.49927246  0.00000000  1
  Sn  Sn0  1  0.49790732  0.00040689  0.25679200  1
  Sn  Sn1  1  0.49790732  0.00040689  0.74320800  1
  Sn  Sn2  1  0.99959311  0.50209268  0.74320800  1
  Sn  Sn3  1  0.99959311  0.50209268  0.25679200  1
  O  O0  1  0.27677093  0.28002813  0.22106566  1
  O  O1  1  0.71997187  0.72322907  0.22106566  1
  O  O2  1  0.71997187  0.72322907  0.77893434  1
  O  O3  1  0.27677093  0.28002813  0.77893434  1
  O  O4  1  0.25339933  0.74660067  0.20404468  1
  O  O5  1  0.76516165  0.23483835  0.25570656  1
  O  O6  1  0.76516165  0.23483835  0.74429344  1
  O  O7  1  0.25339933  0.74660067  0.79595532  1
  O  O8  1  0.51837019  0.04969180  0.00000000  1
  O  O9  1  0.47799263  0.98163526  0.50000000  1
  O  O10  1  0.95030820  0.48162981  0.00000000  1
  O  O11  1  0.01836474  0.52200737  0.50000000  1
loop_
_geom_bond_atom_site_label_1
_geom_bond_atom_site_label_2
_geom_bond_distance
_geom_bond_site_symmetry_2
K0 O9 2.766580 1_645
K0 O11 2.766580 1_645
K0 O6 2.768082 1_555
K0 O5 2.768082 1_555
K0 O11 3.004197 1_655
K0 O9 3.004197 1_545
K0 O4 3.202259 1_645
K0 O7 3.202259 1_645
K0 O2 3.234847 1_545
K0 O3 3.234847 1_655
K0 O1 3.234847 1_545
K0 O0 3.234847 1_655
La0 O1 2.569322 1_555
La0 O0 2.569322 1_555
La0 O3 2.569322 1_554
La0 O2 2.569322 1_554
La0 O8 2.593948 1_555
La0 O10 2.593948 1_555
La0 O4 2.623013 1_555
La0 O7 2.623013 1_554
O0 Sn3 2.064790 1_455
O0 Sn0 2.072398 1_555
O1 Sn0 2.064790 1_565
O1 Sn3 2.072398 1_555
O2 Sn1 2.064790 1_565
O2 Sn2 2.072398 1_555
O3 Sn2 2.064790 1_455
O3 Sn1 2.072398 1_555
O4 Sn3 2.082396 1_455
O4 Sn0 2.082396 1_565
O5 Sn3 2.054275 1_555
O5 Sn0 2.054275 1_555
O6 Sn2 2.054275 1_555
O6 Sn1 2.054275 1_555
O7 Sn2 2.082396 1_455
O7 Sn1 2.082396 1_565
O8 Sn0 2.139360 1_555
O8 Sn1 2.139360 1_554
O9 Sn1 2.011285 1_565
O9 Sn0 2.011285 1_565
O10 Sn3 2.139360 1_555
O10 Sn2 2.139360 1_554
O11 Sn3 2.011285 1_455
O11 Sn2 2.011285 1_455
