# generated using pymatgen
data_Tm6Al43Cr4
_symmetry_space_group_name_H-M   'P 1'
_cell_length_a   10.92868985
_cell_length_b   10.92868985
_cell_length_c   17.43908900
_cell_angle_alpha   90.00000000
_cell_angle_beta   90.00000000
_cell_angle_gamma   119.99999911
_symmetry_Int_Tables_number   1
_chemical_formula_structural   Tm6Al43Cr4
_chemical_formula_sum   'Tm12 Al86 Cr8'
_cell_volume   1803.80934323
_cell_formula_units_Z   2
loop_
 _symmetry_equiv_pos_site_id
 _symmetry_equiv_pos_as_xyz
  1  'x, y, z'
loop_
 _atom_site_type_symbol
 _atom_site_label
 _atom_site_symmetry_multiplicity
 _atom_site_fract_x
 _atom_site_fract_y
 _atom_site_fract_z
 _atom_site_occupancy
  Tm  Tm0  1  0.46970100  0.46970100  0.90477600  1
  Tm  Tm1  1  0.53029900  0.00000000  0.90477600  1
  Tm  Tm2  1  0.00000000  0.53029900  0.90477600  1
  Tm  Tm3  1  0.53029900  0.53029900  0.09522400  1
  Tm  Tm4  1  0.46970100  0.00000000  0.09522400  1
  Tm  Tm5  1  0.00000000  0.46970100  0.09522400  1
  Tm  Tm6  1  0.53029900  0.53029900  0.40477600  1
  Tm  Tm7  1  0.46970100  0.00000000  0.40477600  1
  Tm  Tm8  1  0.00000000  0.46970100  0.40477600  1
  Tm  Tm9  1  0.46970100  0.46970100  0.59522400  1
  Tm  Tm10  1  0.53029900  0.00000000  0.59522400  1
  Tm  Tm11  1  0.00000000  0.53029900  0.59522400  1
  Al  Al0  1  0.84109500  0.23197700  0.83497100  1
  Al  Al1  1  0.76802300  0.60911800  0.83497100  1
  Al  Al2  1  0.39088200  0.15890500  0.83497100  1
  Al  Al3  1  0.23197700  0.84109500  0.83497100  1
  Al  Al4  1  0.60911800  0.76802300  0.83497100  1
  Al  Al5  1  0.15890500  0.39088200  0.83497100  1
  Al  Al6  1  0.15890500  0.76802300  0.16502900  1
  Al  Al7  1  0.23197700  0.39088200  0.16502900  1
  Al  Al8  1  0.60911800  0.84109500  0.16502900  1
  Al  Al9  1  0.76802300  0.15890500  0.16502900  1
  Al  Al10  1  0.39088200  0.23197700  0.16502900  1
  Al  Al11  1  0.84109500  0.60911800  0.16502900  1
  Al  Al12  1  0.15890500  0.76802300  0.33497100  1
  Al  Al13  1  0.23197700  0.39088200  0.33497100  1
  Al  Al14  1  0.60911800  0.84109500  0.33497100  1
  Al  Al15  1  0.76802300  0.15890500  0.33497100  1
  Al  Al16  1  0.39088200  0.23197700  0.33497100  1
  Al  Al17  1  0.84109500  0.60911800  0.33497100  1
  Al  Al18  1  0.84109500  0.23197700  0.66502900  1
  Al  Al19  1  0.76802300  0.60911800  0.66502900  1
  Al  Al20  1  0.39088200  0.15890500  0.66502900  1
  Al  Al21  1  0.23197700  0.84109500  0.66502900  1
  Al  Al22  1  0.60911800  0.76802300  0.66502900  1
  Al  Al23  1  0.15890500  0.39088200  0.66502900  1
  Al  Al24  1  0.84496400  0.84496400  0.38401700  1
  Al  Al25  1  0.15503600  0.00000000  0.38401700  1
  Al  Al26  1  0.00000000  0.15503600  0.38401700  1
  Al  Al27  1  0.15503600  0.15503600  0.61598300  1
  Al  Al28  1  0.84496400  0.00000000  0.61598300  1
  Al  Al29  1  0.00000000  0.84496400  0.61598300  1
  Al  Al30  1  0.15503600  0.15503600  0.88401700  1
  Al  Al31  1  0.84496400  0.00000000  0.88401700  1
  Al  Al32  1  0.00000000  0.84496400  0.88401700  1
  Al  Al33  1  0.84496400  0.84496400  0.11598300  1
  Al  Al34  1  0.15503600  0.00000000  0.11598300  1
  Al  Al35  1  0.00000000  0.15503600  0.11598300  1
  Al  Al36  1  0.74799900  0.74799900  0.96939000  1
  Al  Al37  1  0.25200100  0.00000000  0.96939000  1
  Al  Al38  1  0.00000000  0.25200100  0.96939000  1
  Al  Al39  1  0.25200100  0.25200100  0.03061000  1
  Al  Al40  1  0.74799900  0.00000000  0.03061000  1
  Al  Al41  1  0.00000000  0.74799900  0.03061000  1
  Al  Al42  1  0.25200100  0.25200100  0.46939000  1
  Al  Al43  1  0.74799900  0.00000000  0.46939000  1
  Al  Al44  1  0.00000000  0.74799900  0.46939000  1
  Al  Al45  1  0.74799900  0.74799900  0.53061000  1
  Al  Al46  1  0.25200100  0.00000000  0.53061000  1
  Al  Al47  1  0.00000000  0.25200100  0.53061000  1
  Al  Al48  1  0.85541200  0.45172400  0.75000000  1
  Al  Al49  1  0.54827600  0.40368800  0.75000000  1
  Al  Al50  1  0.59631200  0.14458800  0.75000000  1
  Al  Al51  1  0.45172400  0.85541200  0.75000000  1
  Al  Al52  1  0.40368800  0.54827600  0.75000000  1
  Al  Al53  1  0.14458800  0.59631200  0.75000000  1
  Al  Al54  1  0.14458800  0.54827600  0.25000000  1
  Al  Al55  1  0.45172400  0.59631200  0.25000000  1
  Al  Al56  1  0.40368800  0.85541200  0.25000000  1
  Al  Al57  1  0.54827600  0.14458800  0.25000000  1
  Al  Al58  1  0.59631200  0.45172400  0.25000000  1
  Al  Al59  1  0.85541200  0.40368800  0.25000000  1
  Al  Al60  1  0.75325200  0.24674800  0.00000000  1
  Al  Al61  1  0.75325200  0.50650400  0.00000000  1
  Al  Al62  1  0.49349600  0.24674800  0.00000000  1
  Al  Al63  1  0.24674800  0.75325200  0.00000000  1
  Al  Al64  1  0.50650400  0.75325200  0.00000000  1
  Al  Al65  1  0.24674800  0.49349600  0.00000000  1
  Al  Al66  1  0.24674800  0.75325200  0.50000000  1
  Al  Al67  1  0.24674800  0.49349600  0.50000000  1
  Al  Al68  1  0.50650400  0.75325200  0.50000000  1
  Al  Al69  1  0.75325200  0.24674800  0.50000000  1
  Al  Al70  1  0.49349600  0.24674800  0.50000000  1
  Al  Al71  1  0.75325200  0.50650400  0.50000000  1
  Al  Al72  1  0.66666700  0.33333300  0.87272800  1
  Al  Al73  1  0.33333300  0.66666700  0.87272800  1
  Al  Al74  1  0.33333300  0.66666700  0.12727200  1
  Al  Al75  1  0.66666700  0.33333300  0.12727200  1
  Al  Al76  1  0.33333300  0.66666700  0.37272800  1
  Al  Al77  1  0.66666700  0.33333300  0.37272800  1
  Al  Al78  1  0.66666700  0.33333300  0.62727200  1
  Al  Al79  1  0.33333300  0.66666700  0.62727200  1
  Al  Al80  1  0.85470200  0.85470200  0.75000000  1
  Al  Al81  1  0.14529800  0.00000000  0.75000000  1
  Al  Al82  1  0.00000000  0.14529800  0.75000000  1
  Al  Al83  1  0.14529800  0.14529800  0.25000000  1
  Al  Al84  1  0.85470200  0.00000000  0.25000000  1
  Al  Al85  1  0.00000000  0.85470200  0.25000000  1
  Cr  Cr0  1  0.27026700  0.27026700  0.75000000  1
  Cr  Cr1  1  0.72973300  0.00000000  0.75000000  1
  Cr  Cr2  1  0.00000000  0.72973300  0.75000000  1
  Cr  Cr3  1  0.72973300  0.72973300  0.25000000  1
  Cr  Cr4  1  0.27026700  0.00000000  0.25000000  1
  Cr  Cr5  1  0.00000000  0.27026700  0.25000000  1
  Cr  Cr6  1  0.00000000  0.00000000  0.00000000  1
  Cr  Cr7  1  0.00000000  0.00000000  0.50000000  1
loop_
_geom_bond_atom_site_label_1
_geom_bond_atom_site_label_2
_geom_bond_distance
_geom_bond_site_symmetry_2
Tm0 Tm3 3.386623 1_556
Tm1 Tm4 3.386623 1_556
Tm2 Tm5 3.386623 1_556
Tm6 Tm9 3.386623 1_555
Tm10 Tm7 3.386623 1_555
Tm11 Tm8 3.386623 1_555
Al0 Cr1 2.649299 1_555
Al0 Al31 2.695889 1_555
Al0 Al72 2.721386 1_555
Al0 Al48 2.758973 1_555
Al0 Al50 2.776592 1_555
Al0 Al82 2.784615 1_655
Al0 Al38 2.859848 1_655
Al0 Al18 2.963634 1_555
Al0 Al5 3.007920 1_655
Al0 Al60 3.063540 1_556
Al0 Tm2 3.076566 1_655
Al0 Tm1 3.291649 1_555
Al1 Cr2 2.649299 1_655
Al1 Al32 2.695889 1_655
Al1 Al72 2.721396 1_555
Al1 Al49 2.758973 1_555
Al1 Al48 2.776592 1_555
Al1 Al80 2.784615 1_555
Al1 Al36 2.859848 1_555
Al1 Al19 2.963634 1_555
Al1 Al4 3.007920 1_555
Al1 Al61 3.063540 1_556
Al1 Tm0 3.076566 1_555
Al1 Tm2 3.291649 1_655
Al2 Cr0 2.649299 1_555
Al2 Al30 2.695889 1_555
Al2 Al72 2.721394 1_555
Al2 Al50 2.758973 1_555
Al2 Al49 2.776592 1_555
Al2 Al81 2.784615 1_555
Al2 Al37 2.859848 1_555
Al2 Al20 2.963634 1_555
Al2 Al3 3.007920 1_545
Al2 Al62 3.063540 1_556
Al2 Tm1 3.076566 1_555
Al2 Tm0 3.291649 1_555
Al3 Cr2 2.649299 1_555
Al3 Al32 2.695889 1_555
Al3 Al73 2.721386 1_555
Al3 Al51 2.758973 1_555
Al3 Al53 2.776592 1_555
Al3 Al81 2.784615 1_565
Al3 Al37 2.859848 1_565
Al3 Al63 3.063540 1_556
Al3 Tm1 3.076566 1_565
Al3 Tm2 3.291649 1_555
Al4 Cr1 2.649299 1_565
Al4 Al73 2.721396 1_555
Al4 Al52 2.758973 1_555
Al4 Al51 2.776592 1_555
Al4 Al80 2.784615 1_555
Al4 Al64 3.063540 1_556
Al4 Tm0 3.076566 1_555
Al4 Tm1 3.291649 1_565
Al5 Cr0 2.649299 1_555
Al5 Al73 2.721394 1_555
Al5 Al53 2.758973 1_555
Al5 Al52 2.776592 1_555
Al5 Al82 2.784615 1_555
Al5 Al65 3.063540 1_556
Al5 Tm2 3.076566 1_555
Al5 Tm0 3.291649 1_555
Al6 Cr4 2.649299 1_565
Al6 Al74 2.721386 1_555
Al6 Al85 2.784615 1_555
Al6 Al63 3.063540 1_555
Al6 Tm5 3.076566 1_555
Al6 Tm4 3.291649 1_565
Al7 Cr5 2.649299 1_555
Al7 Al74 2.721396 1_555
Al7 Al83 2.784615 1_555
Al7 Tm3 3.076566 1_555
Al7 Tm5 3.291649 1_555
Al8 Cr3 2.649299 1_555
Al8 Al84 2.784615 1_565
Al8 Al9 3.007920 1_565
Al8 Tm4 3.076566 1_565
Al8 Tm3 3.291649 1_555
Al9 Cr5 2.649299 1_655
Al9 Tm4 3.076566 1_555
Al9 Tm5 3.291649 1_655
Al10 Cr4 2.649299 1_555
Al10 Al34 2.695889 1_555
Al10 Al75 2.721396 1_555
Al10 Al58 2.758973 1_555
Al10 Al57 2.776592 1_555
Al10 Al83 2.784615 1_555
Al10 Al39 2.859848 1_555
Al10 Al16 2.963634 1_555
Al10 Al7 3.007920 1_555
Al10 Al62 3.063540 1_555
Al10 Tm3 3.076566 1_555
Al10 Tm4 3.291649 1_555
Al11 Cr3 2.649299 1_555
Al11 Al33 2.695889 1_555
Al11 Al75 2.721394 1_555
Al11 Al59 2.758973 1_555
Al11 Al58 2.776592 1_555
Al11 Al85 2.784615 1_655
Al11 Al41 2.859848 1_655
Al11 Al17 2.963634 1_555
Al11 Al6 3.007920 1_655
Al11 Al61 3.063540 1_555
Al11 Tm5 3.076566 1_655
Al11 Tm3 3.291649 1_555
Al12 Cr4 2.649299 1_565
Al12 Al25 2.695889 1_565
Al12 Al76 2.721386 1_555
Al12 Al54 2.758973 1_555
Al12 Al56 2.776592 1_555
Al12 Al85 2.784615 1_555
Al12 Al44 2.859848 1_555
Al12 Al6 2.963634 1_555
Al12 Al17 3.007920 1_455
Al12 Al66 3.063540 1_555
Al12 Tm8 3.076566 1_555
Al12 Tm7 3.291649 1_565
Al13 Cr5 2.649299 1_555
Al13 Al26 2.695889 1_555
Al13 Al76 2.721396 1_555
Al13 Al55 2.758973 1_555
Al13 Al54 2.776592 1_555
Al13 Al83 2.784615 1_555
Al13 Al42 2.859848 1_555
Al13 Al7 2.963634 1_555
Al13 Al16 3.007920 1_555
Al13 Al67 3.063540 1_555
Al13 Tm6 3.076566 1_555
Al13 Tm8 3.291649 1_555
Al14 Cr3 2.649299 1_555
Al14 Al24 2.695889 1_555
Al14 Al76 2.721394 1_555
Al14 Al56 2.758973 1_555
Al14 Al55 2.776592 1_555
Al14 Al84 2.784615 1_565
Al14 Al43 2.859848 1_565
Al14 Al8 2.963634 1_555
Al14 Al15 3.007920 1_565
Al14 Al68 3.063540 1_555
Al14 Tm7 3.076566 1_565
Al14 Tm6 3.291649 1_555
Al15 Cr5 2.649299 1_655
Al15 Al26 2.695889 1_655
Al15 Al77 2.721386 1_555
Al15 Al57 2.758973 1_555
Al15 Al59 2.776592 1_555
Al15 Al84 2.784615 1_555
Al15 Al43 2.859848 1_555
Al15 Al9 2.963634 1_555
Al15 Al69 3.063540 1_555
Al15 Tm7 3.076566 1_555
Al15 Tm8 3.291649 1_655
Al16 Cr4 2.649299 1_555
Al16 Al25 2.695889 1_555
Al16 Al77 2.721396 1_555
Al16 Al58 2.758973 1_555
Al16 Al57 2.776592 1_555
Al16 Al83 2.784615 1_555
Al16 Al42 2.859848 1_555
Al16 Al70 3.063540 1_555
Al16 Tm6 3.076566 1_555
Al16 Tm7 3.291649 1_555
Al17 Cr3 2.649299 1_555
Al17 Al24 2.695889 1_555
Al17 Al77 2.721394 1_555
Al17 Al59 2.758973 1_555
Al17 Al58 2.776592 1_555
Al17 Al85 2.784615 1_655
Al17 Al44 2.859848 1_655
Al17 Al71 3.063540 1_555
Al17 Tm8 3.076566 1_655
Al17 Tm6 3.291649 1_555
Al18 Cr1 2.649299 1_555
Al18 Al28 2.695889 1_555
Al18 Al78 2.721386 1_555
Al18 Al48 2.758973 1_555
Al18 Al50 2.776592 1_555
Al18 Al82 2.784615 1_655
Al18 Al47 2.859848 1_655
Al18 Al23 3.007920 1_655
Al18 Al69 3.063540 1_555
Al18 Tm11 3.076566 1_655
Al18 Tm10 3.291649 1_555
Al19 Cr2 2.649299 1_655
Al19 Al29 2.695889 1_655
Al19 Al78 2.721396 1_555
Al19 Al49 2.758973 1_555
Al19 Al48 2.776592 1_555
Al19 Al80 2.784615 1_555
Al19 Al45 2.859848 1_555
Al19 Al22 3.007920 1_555
Al19 Al71 3.063540 1_555
Al19 Tm9 3.076566 1_555
Al19 Tm11 3.291649 1_655
Al20 Cr0 2.649299 1_555
Al20 Al27 2.695889 1_555
Al20 Al78 2.721394 1_555
Al20 Al50 2.758973 1_555
Al20 Al49 2.776592 1_555
Al20 Al81 2.784615 1_555
Al20 Al46 2.859848 1_555
Al20 Al21 3.007920 1_545
Al20 Al70 3.063540 1_555
Al20 Tm10 3.076566 1_555
Al20 Tm9 3.291649 1_555
Al21 Cr2 2.649299 1_555
Al21 Al29 2.695889 1_555
Al21 Al79 2.721386 1_555
Al21 Al51 2.758973 1_555
Al21 Al53 2.776592 1_555
Al21 Al81 2.784615 1_565
Al21 Al46 2.859848 1_565
Al21 Al3 2.963634 1_555
Al21 Al66 3.063540 1_555
Al21 Tm10 3.076566 1_565
Al21 Tm11 3.291649 1_555
Al22 Cr1 2.649299 1_565
Al22 Al28 2.695889 1_565
Al22 Al79 2.721396 1_555
Al22 Al52 2.758973 1_555
Al22 Al51 2.776592 1_555
Al22 Al80 2.784615 1_555
Al22 Al45 2.859848 1_555
Al22 Al4 2.963634 1_555
Al22 Al68 3.063540 1_555
Al22 Tm9 3.076566 1_555
Al22 Tm10 3.291649 1_565
Al23 Cr0 2.649299 1_555
Al23 Al27 2.695889 1_555
Al23 Al79 2.721394 1_555
Al23 Al53 2.758973 1_555
Al23 Al52 2.776592 1_555
Al23 Al82 2.784615 1_555
Al23 Al47 2.859848 1_555
Al23 Al5 2.963634 1_555
Al23 Al67 3.063540 1_555
Al23 Tm11 3.076566 1_555
Al23 Tm9 3.291649 1_555
Al24 Cr7 2.638532 1_665
Al24 Cr3 2.654825 1_555
Al24 Al45 2.767380 1_555
Al24 Al43 2.829462 1_565
Al24 Al44 2.829462 1_655
Al24 Al85 2.857270 1_655
Al24 Al84 2.857270 1_565
Al24 Al25 2.934684 1_665
Al24 Al26 2.934684 1_665
Al24 Tm6 3.457879 1_555
Al25 Cr7 2.638532 1_555
Al25 Cr4 2.654825 1_555
Al25 Al46 2.767380 1_555
Al25 Al42 2.829462 1_555
Al25 Al44 2.829462 1_545
Al25 Al83 2.857270 1_555
Al25 Al85 2.857270 1_545
Al25 Al26 2.934684 1_555
Al25 Tm7 3.457879 1_555
Al26 Cr7 2.638532 1_555
Al26 Cr5 2.654825 1_555
Al26 Al47 2.767380 1_555
Al26 Al42 2.829462 1_555
Al26 Al43 2.829462 1_455
Al26 Al83 2.857270 1_555
Al26 Al84 2.857270 1_455
Al26 Tm8 3.457879 1_555
Al27 Cr7 2.638532 1_555
Al27 Cr0 2.654825 1_555
Al27 Al42 2.767380 1_555
Al27 Al46 2.829462 1_555
Al27 Al47 2.829462 1_555
Al27 Al82 2.857270 1_555
Al27 Al81 2.857270 1_555
Al27 Al29 2.934684 1_545
Al27 Al28 2.934684 1_455
Al27 Tm9 3.457879 1_555
Al28 Cr7 2.638532 1_655
Al28 Cr1 2.654825 1_555
Al28 Al43 2.767380 1_555
Al28 Al45 2.829462 1_545
Al28 Al47 2.829462 1_655
Al28 Al80 2.857270 1_545
Al28 Al82 2.857270 1_655
Al28 Al29 2.934684 1_645
Al28 Tm10 3.457879 1_555
Al29 Cr7 2.638532 1_565
Al29 Cr2 2.654825 1_555
Al29 Al44 2.767380 1_555
Al29 Al45 2.829462 1_455
Al29 Al46 2.829462 1_565
Al29 Al80 2.857270 1_455
Al29 Al81 2.857270 1_565
Al29 Tm11 3.457879 1_555
Al30 Cr6 2.638532 1_556
Al30 Cr0 2.654825 1_555
Al30 Al5 2.695889 1_555
Al30 Al39 2.767380 1_556
Al30 Al37 2.829462 1_555
Al30 Al38 2.829462 1_555
Al30 Al82 2.857270 1_555
Al30 Al81 2.857270 1_555
Al30 Al31 2.934684 1_455
Al30 Al32 2.934684 1_545
Al30 Tm0 3.457879 1_555
Al31 Cr6 2.638532 1_656
Al31 Cr1 2.654825 1_555
Al31 Al4 2.695889 1_545
Al31 Al40 2.767380 1_556
Al31 Al36 2.829462 1_545
Al31 Al38 2.829462 1_655
Al31 Al80 2.857270 1_545
Al31 Al82 2.857270 1_655
Al31 Al32 2.934684 1_645
Al31 Tm1 3.457879 1_555
Al32 Cr6 2.638532 1_566
Al32 Cr2 2.654825 1_555
Al32 Al41 2.767380 1_556
Al32 Al36 2.829462 1_455
Al32 Al37 2.829462 1_565
Al32 Al80 2.857270 1_455
Al32 Al81 2.857270 1_565
Al32 Tm2 3.457879 1_555
Al33 Cr6 2.638532 1_665
Al33 Cr3 2.654825 1_555
Al33 Al8 2.695889 1_555
Al33 Al36 2.767380 1_554
Al33 Al40 2.829462 1_565
Al33 Al41 2.829462 1_655
Al33 Al85 2.857270 1_655
Al33 Al84 2.857270 1_565
Al33 Al34 2.934684 1_665
Al33 Al35 2.934684 1_665
Al33 Tm3 3.457879 1_555
Al34 Cr6 2.638532 1_555
Al34 Cr4 2.654825 1_555
Al34 Al6 2.695889 1_545
Al34 Al37 2.767380 1_554
Al34 Al39 2.829462 1_555
Al34 Al41 2.829462 1_545
Al34 Al83 2.857270 1_555
Al34 Al85 2.857270 1_545
Al34 Al35 2.934684 1_555
Al34 Tm4 3.457879 1_555
Al35 Cr6 2.638532 1_555
Al35 Cr5 2.654825 1_555
Al35 Al9 2.695889 1_455
Al35 Al7 2.695889 1_555
Al35 Al38 2.767380 1_554
Al35 Al39 2.829462 1_555
Al35 Al40 2.829462 1_455
Al35 Al83 2.857270 1_555
Al35 Al84 2.857270 1_455
Al35 Tm5 3.457879 1_555
Al36 Al64 2.721262 1_556
Al36 Al61 2.721262 1_556
Al36 Cr6 2.805298 1_666
Al36 Al4 2.859848 1_555
Al36 Al40 2.953736 1_566
Al36 Al41 2.953736 1_656
Al36 Tm3 3.236665 1_556
Al36 Tm0 3.243457 1_555
Al37 Al63 2.721262 1_546
Al37 Al62 2.721262 1_556
Al37 Cr6 2.805298 1_556
Al37 Al39 2.953736 1_556
Al37 Al41 2.953736 1_546
Al37 Tm4 3.236665 1_556
Al37 Tm1 3.243457 1_555
Al38 Al60 2.721262 1_456
Al38 Al65 2.721262 1_556
Al38 Cr6 2.805298 1_556
Al38 Al5 2.859848 1_555
Al38 Al39 2.953736 1_556
Al38 Al40 2.953736 1_456
Al38 Tm5 3.236665 1_556
Al38 Tm2 3.243457 1_555
Al39 Al62 2.721262 1_555
Al39 Al65 2.721262 1_555
Al39 Cr6 2.805298 1_555
Al39 Al7 2.859848 1_555
Al39 Tm0 3.236665 1_554
Al39 Tm3 3.243457 1_555
Al40 Al60 2.721262 1_555
Al40 Al64 2.721262 1_545
Al40 Cr6 2.805298 1_655
Al40 Al9 2.859848 1_555
Al40 Al8 2.859848 1_545
Al40 Tm1 3.236665 1_554
Al40 Tm4 3.243457 1_555
Al41 Al63 2.721262 1_555
Al41 Al61 2.721262 1_455
Al41 Cr6 2.805298 1_565
Al41 Al6 2.859848 1_555
Al41 Tm2 3.236665 1_554
Al41 Tm5 3.243457 1_555
Al42 Al70 2.721262 1_555
Al42 Al67 2.721262 1_555
Al42 Cr7 2.805298 1_555
Al42 Al46 2.953736 1_555
Al42 Al47 2.953736 1_555
Al42 Tm9 3.236665 1_555
Al42 Tm6 3.243457 1_555
Al43 Al69 2.721262 1_555
Al43 Al68 2.721262 1_545
Al43 Cr7 2.805298 1_655
Al43 Al45 2.953736 1_545
Al43 Al47 2.953736 1_655
Al43 Tm10 3.236665 1_555
Al43 Tm7 3.243457 1_555
Al44 Al66 2.721262 1_555
Al44 Al71 2.721262 1_455
Al44 Cr7 2.805298 1_565
Al44 Al45 2.953736 1_455
Al44 Al46 2.953736 1_565
Al44 Tm11 3.236665 1_555
Al44 Tm8 3.243457 1_555
Al45 Al71 2.721262 1_555
Al45 Al68 2.721262 1_555
Al45 Cr7 2.805298 1_665
Al45 Tm6 3.236665 1_555
Al45 Tm9 3.243457 1_555
Al46 Al66 2.721262 1_545
Al46 Al70 2.721262 1_555
Al46 Cr7 2.805298 1_555
Al46 Tm7 3.236665 1_555
Al46 Tm10 3.243457 1_555
Al47 Al69 2.721262 1_455
Al47 Al67 2.721262 1_555
Al47 Cr7 2.805298 1_555
Al47 Tm8 3.236665 1_555
Al47 Tm11 3.243457 1_555
Al48 Cr2 2.631930 1_655
Al48 Al53 2.736913 1_655
Al48 Al78 2.800141 1_555
Al48 Al72 2.800141 1_555
Al48 Tm11 3.027013 1_655
Al48 Tm2 3.027013 1_655
Al49 Cr0 2.631930 1_555
Al49 Al52 2.736913 1_555
Al49 Al78 2.800147 1_555
Al49 Al72 2.800147 1_555
Al49 Tm9 3.027013 1_555
Al49 Tm0 3.027013 1_555
Al50 Cr1 2.631930 1_555
Al50 Al51 2.736913 1_545
Al50 Al78 2.800140 1_555
Al50 Al72 2.800140 1_555
Al50 Tm10 3.027013 1_555
Al50 Tm1 3.027013 1_555
Al51 Cr1 2.631930 1_565
Al51 Al73 2.800141 1_555
Al51 Al79 2.800141 1_555
Al51 Tm1 3.027013 1_565
Al51 Tm10 3.027013 1_565
Al52 Cr0 2.631930 1_555
Al52 Al79 2.800147 1_555
Al52 Al73 2.800147 1_555
Al52 Tm9 3.027013 1_555
Al52 Tm0 3.027013 1_555
Al53 Cr2 2.631930 1_555
Al53 Al79 2.800140 1_555
Al53 Al73 2.800140 1_555
Al53 Tm11 3.027013 1_555
Al53 Tm2 3.027013 1_555
Al54 Cr5 2.631930 1_555
Al54 Al59 2.736913 1_455
Al54 Al6 2.758973 1_555
Al54 Al7 2.776592 1_555
Al54 Al76 2.800141 1_555
Al54 Al74 2.800141 1_555
Al54 Tm5 3.027013 1_555
Al54 Tm8 3.027013 1_555
Al55 Cr3 2.631930 1_555
Al55 Al58 2.736913 1_555
Al55 Al7 2.758973 1_555
Al55 Al8 2.776592 1_555
Al55 Al74 2.800147 1_555
Al55 Al76 2.800147 1_555
Al55 Tm3 3.027013 1_555
Al55 Tm6 3.027013 1_555
Al56 Cr4 2.631930 1_565
Al56 Al57 2.736913 1_565
Al56 Al8 2.758973 1_555
Al56 Al6 2.776592 1_555
Al56 Al76 2.800140 1_555
Al56 Al74 2.800140 1_555
Al56 Tm4 3.027013 1_565
Al56 Tm7 3.027013 1_565
Al57 Cr4 2.631930 1_555
Al57 Al9 2.758973 1_555
Al57 Al75 2.800141 1_555
Al57 Al77 2.800141 1_555
Al57 Tm4 3.027013 1_555
Al57 Tm7 3.027013 1_555
Al58 Cr3 2.631930 1_555
Al58 Al75 2.800147 1_555
Al58 Al77 2.800147 1_555
Al58 Tm3 3.027013 1_555
Al58 Tm6 3.027013 1_555
Al59 Cr5 2.631930 1_655
Al59 Al9 2.776592 1_555
Al59 Al75 2.800140 1_555
Al59 Al77 2.800140 1_555
Al59 Tm5 3.027013 1_655
Al59 Tm8 3.027013 1_655
Al60 Al75 2.759065 1_555
Al60 Al72 2.759065 1_554
Al60 Al61 2.838793 1_555
Al60 Al62 2.838793 1_555
Al60 Al9 3.063540 1_555
Al60 Tm5 3.065266 1_655
Al60 Tm1 3.065266 1_554
Al60 Tm2 3.357955 1_654
Al60 Tm4 3.357955 1_555
Al61 Al75 2.759071 1_555
Al61 Al72 2.759071 1_554
Al61 Al62 2.838793 1_555
Al61 Tm3 3.065266 1_555
Al61 Tm2 3.065266 1_654
Al61 Tm5 3.357955 1_655
Al61 Tm0 3.357955 1_554
Al62 Al75 2.759071 1_555
Al62 Al72 2.759071 1_554
Al62 Tm0 3.065266 1_554
Al62 Tm4 3.065266 1_555
Al62 Tm1 3.357955 1_554
Al62 Tm3 3.357955 1_555
Al63 Al74 2.759065 1_555
Al63 Al73 2.759065 1_554
Al63 Al64 2.838793 1_555
Al63 Al65 2.838793 1_555
Al63 Tm4 3.065266 1_565
Al63 Tm2 3.065266 1_554
Al63 Tm1 3.357955 1_564
Al63 Tm5 3.357955 1_555
Al64 Al74 2.759071 1_555
Al64 Al73 2.759071 1_554
Al64 Al65 2.838793 1_555
Al64 Al8 3.063540 1_555
Al64 Tm3 3.065266 1_555
Al64 Tm1 3.065266 1_564
Al64 Tm4 3.357955 1_565
Al64 Tm0 3.357955 1_554
Al65 Al74 2.759071 1_555
Al65 Al73 2.759071 1_554
Al65 Al7 3.063540 1_555
Al65 Tm0 3.065266 1_554
Al65 Tm5 3.065266 1_555
Al65 Tm2 3.357955 1_554
Al65 Tm3 3.357955 1_555
Al66 Al76 2.759065 1_555
Al66 Al79 2.759065 1_555
Al66 Al68 2.838793 1_555
Al66 Al67 2.838793 1_555
Al66 Tm7 3.065266 1_565
Al66 Tm11 3.065266 1_555
Al66 Tm10 3.357955 1_565
Al66 Tm8 3.357955 1_555
Al67 Al76 2.759071 1_555
Al67 Al79 2.759071 1_555
Al67 Al68 2.838793 1_555
Al67 Tm9 3.065266 1_555
Al67 Tm8 3.065266 1_555
Al67 Tm11 3.357955 1_555
Al67 Tm6 3.357955 1_555
Al68 Al76 2.759071 1_555
Al68 Al79 2.759071 1_555
Al68 Tm6 3.065266 1_555
Al68 Tm10 3.065266 1_565
Al68 Tm7 3.357955 1_565
Al68 Tm9 3.357955 1_555
Al69 Al77 2.759065 1_555
Al69 Al78 2.759065 1_555
Al69 Al71 2.838793 1_555
Al69 Al70 2.838793 1_555
Al69 Tm10 3.065266 1_555
Al69 Tm8 3.065266 1_655
Al69 Tm11 3.357955 1_655
Al69 Tm7 3.357955 1_555
Al70 Al77 2.759071 1_555
Al70 Al78 2.759071 1_555
Al70 Al71 2.838793 1_555
Al70 Tm9 3.065266 1_555
Al70 Tm7 3.065266 1_555
Al70 Tm10 3.357955 1_555
Al70 Tm6 3.357955 1_555
Al71 Al77 2.759071 1_555
Al71 Al78 2.759071 1_555
Al71 Tm6 3.065266 1_555
Al71 Tm11 3.065266 1_655
Al71 Tm8 3.357955 1_655
Al71 Tm9 3.357955 1_555
Al72 Tm1 3.221025 1_555
Al72 Tm2 3.221026 1_655
Al72 Tm0 3.221035 1_555
Al73 Tm2 3.221025 1_555
Al73 Tm1 3.221026 1_565
Al73 Tm0 3.221035 1_555
Al74 Al8 2.721394 1_555
Al74 Tm4 3.221025 1_565
Al74 Tm5 3.221026 1_555
Al74 Tm3 3.221035 1_555
Al75 Al9 2.721386 1_555
Al75 Tm5 3.221025 1_655
Al75 Tm4 3.221026 1_555
Al75 Tm3 3.221035 1_555
Al76 Tm7 3.221025 1_565
Al76 Tm8 3.221026 1_555
Al76 Tm6 3.221035 1_555
Al77 Tm8 3.221025 1_655
Al77 Tm7 3.221026 1_555
Al77 Tm6 3.221035 1_555
Al78 Tm10 3.221025 1_555
Al78 Tm11 3.221026 1_655
Al78 Tm9 3.221035 1_555
Al79 Tm11 3.221025 1_555
Al79 Tm10 3.221026 1_565
Al79 Tm9 3.221035 1_555
Al80 Cr2 2.560359 1_655
Al80 Cr1 2.560359 1_565
Al80 Al81 2.750353 1_665
Al80 Al82 2.750353 1_665
Al81 Cr0 2.560359 1_555
Al81 Cr2 2.560359 1_545
Al81 Al82 2.750353 1_555
Al82 Cr0 2.560359 1_555
Al82 Cr1 2.560359 1_455
Al83 Cr4 2.560359 1_555
Al83 Cr5 2.560359 1_555
Al83 Al85 2.750353 1_545
Al83 Al84 2.750353 1_455
Al84 Cr3 2.560359 1_545
Al84 Cr5 2.560359 1_655
Al84 Al85 2.750353 1_645
Al84 Al9 2.784615 1_555
Al85 Cr3 2.560359 1_455
Al85 Cr4 2.560359 1_565
Cr0 Tm9 3.469275 1_555
Cr0 Tm0 3.469275 1_555
Cr1 Tm1 3.469275 1_555
Cr1 Tm10 3.469275 1_555
Cr2 Tm2 3.469275 1_555
Cr2 Tm11 3.469275 1_555
Cr3 Tm3 3.469275 1_555
Cr3 Tm6 3.469275 1_555
Cr4 Tm4 3.469275 1_555
Cr4 Tm7 3.469275 1_555
Cr5 Tm5 3.469275 1_555
Cr5 Tm8 3.469275 1_555
