# generated using pymatgen
data_Ca(MoO2)2
_symmetry_space_group_name_H-M   'P 1'
_cell_length_a   6.61490582
_cell_length_b   6.61490582
_cell_length_c   16.07708416
_cell_angle_alpha   88.70970312
_cell_angle_beta   88.70970312
_cell_angle_gamma   59.23415294
_symmetry_Int_Tables_number   1
_chemical_formula_structural   Ca(MoO2)2
_chemical_formula_sum   'Ca6 Mo12 O24'
_cell_volume   604.27688373
_cell_formula_units_Z   6
loop_
 _symmetry_equiv_pos_site_id
 _symmetry_equiv_pos_as_xyz
  1  'x, y, z'
loop_
 _atom_site_type_symbol
 _atom_site_label
 _atom_site_symmetry_multiplicity
 _atom_site_fract_x
 _atom_site_fract_y
 _atom_site_fract_z
 _atom_site_occupancy
  Ca  Ca0  1  0.66758800  0.66758800  0.95532400  1
  Ca  Ca1  1  0.00255300  0.00255300  0.62434100  1
  Ca  Ca2  1  0.00091700  0.00091700  0.99778100  1
  Ca  Ca3  1  0.33633300  0.33633300  0.29032200  1
  Ca  Ca4  1  0.66913500  0.66913500  0.71088700  1
  Ca  Ca5  1  0.00182300  0.00182300  0.37564200  1
  Mo  Mo0  1  0.16686100  0.66812000  0.83316200  1
  Mo  Mo1  1  0.66812000  0.16686100  0.83316200  1
  Mo  Mo2  1  0.49807600  0.00609000  0.50002100  1
  Mo  Mo3  1  0.16526600  0.16526600  0.83249200  1
  Mo  Mo4  1  0.33595700  0.33595700  0.66696000  1
  Mo  Mo5  1  0.00609000  0.49807600  0.50002100  1
  Mo  Mo6  1  0.83339700  0.34317100  0.16756000  1
  Mo  Mo7  1  0.50213500  0.50213500  0.49996600  1
  Mo  Mo8  1  0.83572200  0.83572200  0.16766600  1
  Mo  Mo9  1  0.66917400  0.66917400  0.33428000  1
  Mo  Mo10  1  0.34317100  0.83339700  0.16756000  1
  Mo  Mo11  1  0.33780500  0.33780500  0.04293500  1
  O  O0  1  0.30647700  0.83919300  0.90527500  1
  O  O1  1  0.00250900  0.00250900  0.76460000  1
  O  O2  1  0.84918300  0.84918300  0.90779000  1
  O  O3  1  0.83919300  0.30647700  0.90527500  1
  O  O4  1  0.48344500  0.04425300  0.75628400  1
  O  O5  1  0.62600900  0.18551400  0.57695500  1
  O  O6  1  0.47956500  0.47956500  0.75282200  1
  O  O7  1  0.32316500  0.32316500  0.90966600  1
  O  O8  1  0.19066700  0.19066700  0.57996300  1
  O  O9  1  0.33880200  0.33880200  0.43094500  1
  O  O10  1  0.04425300  0.48344500  0.75628400  1
  O  O11  1  0.18551400  0.62600900  0.57695500  1
  O  O12  1  0.81584900  0.37740300  0.42366800  1
  O  O13  1  0.95796600  0.52172000  0.24504600  1
  O  O14  1  0.81380900  0.81380900  0.41907700  1
  O  O15  1  0.66522100  0.66522100  0.56845100  1
  O  O16  1  0.67404700  0.67404700  0.09913500  1
  O  O17  1  0.52536400  0.52536400  0.24693000  1
  O  O18  1  0.37740300  0.81584900  0.42366800  1
  O  O19  1  0.52172000  0.95796600  0.24504600  1
  O  O20  1  0.17544700  0.67440000  0.09975800  1
  O  O21  1  0.00042600  0.00042600  0.23338300  1
  O  O22  1  0.16135900  0.16135900  0.08745700  1
  O  O23  1  0.67440000  0.17544700  0.09975800  1
loop_
_geom_bond_atom_site_label_1
_geom_bond_atom_site_label_2
_geom_bond_distance
_geom_bond_site_symmetry_2
Ca0 O2 2.205333 1_555
Ca0 O3 2.216601 1_555
Ca0 O0 2.216601 1_555
Ca0 O16 2.315177 1_556
Ca1 O1 2.254943 1_555
Ca1 O8 2.260542 1_555
Ca1 O5 2.282347 1_455
Ca1 O11 2.282347 1_545
Ca2 O3 2.272849 1_455
Ca2 O0 2.272849 1_545
Ca2 O2 2.295543 1_445
Ca2 O22 2.370972 1_556
Ca2 O23 2.461822 1_456
Ca2 O20 2.461822 1_546
Ca3 O9 2.261721 1_555
Ca3 O17 2.266015 1_555
Ca3 O13 2.280303 1_455
Ca3 O19 2.280303 1_545
Ca4 O10 2.263102 1_655
Ca4 O4 2.263102 1_565
Ca4 O6 2.265415 1_555
Ca4 O15 2.291563 1_555
Ca5 O14 2.255085 1_445
Ca5 O12 2.280070 1_455
Ca5 O18 2.280070 1_545
Ca5 O21 2.287582 1_555
Mo0 O0 2.157356 1_555
Mo0 O2 2.160140 1_455
Mo0 O1 2.184862 1_565
Mo0 O10 2.191919 1_555
Mo0 O6 2.194417 1_555
Mo0 O7 2.303439 1_555
Mo1 O3 2.157356 1_555
Mo1 O2 2.160140 1_545
Mo1 O1 2.184862 1_655
Mo1 O4 2.191919 1_555
Mo1 O6 2.194417 1_555
Mo1 O7 2.303439 1_555
Mo2 O8 2.165763 1_555
Mo2 O9 2.181163 1_555
Mo2 O5 2.189866 1_555
Mo2 O18 2.206594 1_545
Mo2 O14 2.215335 1_545
Mo2 O15 2.215746 1_545
Mo3 O3 2.183681 1_455
Mo3 O0 2.183681 1_545
Mo3 O4 2.185438 1_555
Mo3 O10 2.185438 1_555
Mo3 O1 2.191189 1_555
Mo3 O7 2.225795 1_555
Mo4 O4 2.179404 1_555
Mo4 O10 2.179404 1_555
Mo4 O6 2.179838 1_555
Mo4 O5 2.179883 1_555
Mo4 O11 2.179883 1_555
Mo4 O8 2.206727 1_555
Mo5 O8 2.165763 1_555
Mo5 O9 2.181163 1_555
Mo5 O11 2.189866 1_555
Mo5 O12 2.206594 1_455
Mo5 O14 2.215335 1_455
Mo5 O15 2.215746 1_455
Mo6 O17 2.161581 1_555
Mo6 O16 2.166845 1_555
Mo6 O13 2.175779 1_555
Mo6 O23 2.196646 1_555
Mo6 O21 2.205169 1_655
Mo6 O22 2.255217 1_655
Mo7 O18 2.161270 1_555
Mo7 O12 2.161270 1_555
Mo7 O11 2.182481 1_555
Mo7 O5 2.182481 1_555
Mo7 O15 2.199439 1_555
Mo7 O9 2.206411 1_555
Mo8 O19 2.174039 1_555
Mo8 O13 2.174039 1_555
Mo8 O16 2.185793 1_555
Mo8 O21 2.192799 1_665
Mo8 O20 2.206673 1_655
Mo8 O23 2.206673 1_565
Mo9 O19 2.166149 1_555
Mo9 O13 2.166149 1_555
Mo9 O14 2.177899 1_555
Mo9 O18 2.180312 1_555
Mo9 O12 2.180312 1_555
Mo9 O17 2.197318 1_555
Mo10 O17 2.161581 1_555
Mo10 O16 2.166845 1_555
Mo10 O19 2.175779 1_555
Mo10 O20 2.196646 1_555
Mo10 O21 2.205169 1_565
Mo10 O22 2.255217 1_565
Mo11 O20 2.132255 1_555
Mo11 O23 2.132255 1_555
Mo11 O22 2.134337 1_555
Mo11 O7 2.153527 1_554
