# generated using pymatgen
data_YTiFe11C
_symmetry_space_group_name_H-M   'P 1'
_cell_length_a   4.85352400
_cell_length_b   6.49680534
_cell_length_c   6.49680534
_cell_angle_alpha   97.67996456
_cell_angle_beta   111.93358490
_cell_angle_gamma   68.06641510
_symmetry_Int_Tables_number   1
_chemical_formula_structural   YTiFe11C
_chemical_formula_sum   'Y1 Ti1 Fe11 C1'
_cell_volume   176.27249809
_cell_formula_units_Z   1
loop_
 _symmetry_equiv_pos_site_id
 _symmetry_equiv_pos_as_xyz
  1  'x, y, z'
loop_
 _atom_site_type_symbol
 _atom_site_label
 _atom_site_symmetry_multiplicity
 _atom_site_fract_x
 _atom_site_fract_y
 _atom_site_fract_z
 _atom_site_occupancy
  Y  Y0  1  0.00726100  0.99273900  0.00726100  1
  Ti  Ti0  1  0.63403600  0.36596400  0.63403600  1
  Fe  Fe0  1  0.72437600  0.77562400  0.22437600  1
  Fe  Fe1  1  0.27758800  0.22241200  0.77758800  1
  Fe  Fe2  1  0.49799600  0.78167900  0.77767100  1
  Fe  Fe3  1  0.49799600  0.22232900  0.21832100  1
  Fe  Fe4  1  0.50012500  0.99777600  0.49918200  1
  Fe  Fe5  1  0.00128200  0.99777600  0.49918200  1
  Fe  Fe6  1  0.50012500  0.50081800  0.00222400  1
  Fe  Fe7  1  0.00128200  0.50081800  0.00222400  1
  Fe  Fe8  1  0.35655000  0.64345000  0.35655000  1
  Fe  Fe9  1  0.99993400  0.35872800  0.35859600  1
  Fe  Fe10  1  0.99993400  0.64140400  0.64127200  1
  C  C0  1  0.50151500  0.99848500  0.00151500  1
loop_
_geom_bond_atom_site_label_1
_geom_bond_atom_site_label_2
_geom_bond_distance
_geom_bond_site_symmetry_2
Ti0 Y0 3.170034 1_646
Fe0 Fe4 2.458583 1_555
Fe0 Fe6 2.458583 1_555
Fe0 Fe5 2.458585 1_655
Fe0 Fe7 2.458585 1_655
Fe0 Fe9 2.634173 1_555
Fe0 Fe10 2.634173 1_555
Fe1 Fe7 2.478787 1_556
Fe1 Fe5 2.478787 1_545
Fe1 Fe6 2.478789 1_556
Fe1 Fe4 2.478789 1_545
Fe1 Fe10 2.650003 1_455
Fe1 Fe9 2.650003 1_455
Fe1 Ti0 2.715844 1_555
Fe1 Ti0 2.715844 1_455
Fe2 Fe5 2.438934 1_555
Fe2 Fe4 2.438936 1_555
Fe2 Fe6 2.478731 1_556
Fe2 Fe7 2.478734 1_656
Fe2 Ti0 2.656245 1_555
Fe3 Fe7 2.438934 1_555
Fe3 Fe6 2.438936 1_555
Fe3 Fe4 2.478731 1_545
Fe3 Fe5 2.478734 1_645
Fe3 Ti0 2.656245 1_555
Fe3 Fe9 2.699824 1_455
Fe3 Fe9 2.699824 1_555
Fe4 Fe5 2.421146 1_555
Fe4 Fe5 2.432378 1_655
Fe4 Fe8 2.605621 1_555
Fe4 Fe9 2.624884 1_465
Fe4 Ti0 2.662293 1_565
Fe4 Y0 3.202565 1_555
Fe4 Y0 3.294599 1_656
Fe5 Fe8 2.605618 1_555
Fe5 Fe9 2.624882 1_465
Fe5 Ti0 2.662295 1_465
Fe5 Y0 3.202563 1_555
Fe5 Y0 3.294600 1_556
Fe6 Fe7 2.421146 1_555
Fe6 Fe7 2.432378 1_655
Fe6 Fe8 2.605621 1_555
Fe6 Fe9 2.607644 1_555
Fe6 Ti0 2.662293 1_554
Fe6 Y0 3.202565 1_555
Fe6 Y0 3.294599 1_645
Fe7 Fe8 2.605618 1_555
Fe7 Fe9 2.607646 1_455
Fe7 Ti0 2.662295 1_454
Fe7 Y0 3.202563 1_555
Fe7 Y0 3.294600 1_545
Fe8 Ti0 2.356863 1_555
Fe8 Fe9 2.972090 1_455
Fe8 Fe9 2.972090 1_555
Fe9 Ti0 2.940665 1_655
Fe9 Ti0 2.940665 1_555
Fe9 Y0 3.067884 1_645
Fe10 Fe9 2.417425 1_555
Fe10 Fe4 2.607644 1_555
Fe10 Fe5 2.607646 1_655
Fe10 Fe7 2.624882 1_656
Fe10 Fe6 2.624884 1_656
Fe10 Fe2 2.699824 1_555
Fe10 Fe2 2.699824 1_655
Fe10 Ti0 2.940665 1_655
Fe10 Ti0 2.940665 1_555
Fe10 Fe8 2.972090 1_555
Fe10 Fe8 2.972090 1_655
Fe10 Y0 3.067884 1_656
C0 Fe2 1.884441 1_554
C0 Fe3 1.884441 1_565
C0 Fe0 1.892898 1_555
C0 Fe1 1.901953 1_564
C0 Y0 2.427253 1_655
C0 Y0 2.427253 1_555
