# generated using pymatgen
data_CdNi(PO3)4
_symmetry_space_group_name_H-M   'P 1'
_cell_length_a   7.35695584
_cell_length_b   7.35695584
_cell_length_c   9.73094591
_cell_angle_alpha   67.67946654
_cell_angle_beta   67.67946654
_cell_angle_gamma   71.50892887
_symmetry_Int_Tables_number   1
_chemical_formula_structural   CdNi(PO3)4
_chemical_formula_sum   'Cd2 Ni2 P8 O24'
_cell_volume   441.41985551
_cell_formula_units_Z   2
loop_
 _symmetry_equiv_pos_site_id
 _symmetry_equiv_pos_as_xyz
  1  'x, y, z'
loop_
 _atom_site_type_symbol
 _atom_site_label
 _atom_site_symmetry_multiplicity
 _atom_site_fract_x
 _atom_site_fract_y
 _atom_site_fract_z
 _atom_site_occupancy
  Cd  Cd0  1  0.44915564  0.55084436  0.25000000  1
  Cd  Cd1  1  0.55084436  0.44915564  0.75000000  1
  Ni  Ni0  1  0.50000000  -0.00000000  0.00000000  1
  Ni  Ni1  1  0.00000000  0.50000000  0.50000000  1
  P  P0  1  0.76960577  0.21552113  0.47275241  1
  P  P1  1  0.23039423  0.78447887  0.52724759  1
  P  P2  1  0.78447887  0.23039423  0.02724759  1
  P  P3  1  0.21552113  0.76960577  0.97275241  1
  P  P4  1  0.80626522  0.80849171  0.20063680  1
  P  P5  1  0.19373478  0.19150829  0.79936320  1
  P  P6  1  0.19150829  0.19373478  0.29936320  1
  P  P7  1  0.80849171  0.80626522  0.70063680  1
  O  O0  1  0.58849354  0.31572187  0.42312981  1
  O  O1  1  0.41150646  0.68427813  0.57687019  1
  O  O2  1  0.68427813  0.41150646  0.07687019  1
  O  O3  1  0.31572187  0.58849354  0.92312981  1
  O  O4  1  0.31460747  0.15562811  0.15060059  1
  O  O5  1  0.68539253  0.84437189  0.84939941  1
  O  O6  1  0.84437189  0.68539253  0.34939941  1
  O  O7  1  0.15562811  0.31460747  0.65060059  1
  O  O8  1  0.61935970  0.80074763  0.17563295  1
  O  O9  1  0.38064030  0.19925237  0.82436705  1
  O  O10  1  0.19925237  0.38064030  0.32436705  1
  O  O11  1  0.80074763  0.61935970  0.67563295  1
  O  O12  1  0.29602139  0.81670596  0.07409848  1
  O  O13  1  0.70397861  0.18329404  0.92590152  1
  O  O14  1  0.18329404  0.70397861  0.42590152  1
  O  O15  1  0.81670596  0.29602139  0.57409848  1
  O  O16  1  0.79778800  0.03804644  0.17526631  1
  O  O17  1  0.20221200  0.96195356  0.82473369  1
  O  O18  1  0.96195356  0.20221200  0.32473369  1
  O  O19  1  0.03804644  0.79778800  0.67526631  1
  O  O20  1  0.75800507  0.98566768  0.55644597  1
  O  O21  1  0.24199493  0.01433232  0.44355403  1
  O  O22  1  0.01433232  0.24199493  0.94355403  1
  O  O23  1  0.98566768  0.75800507  0.05644597  1
loop_
_geom_bond_atom_site_label_1
_geom_bond_atom_site_label_2
_geom_bond_distance
_geom_bond_site_symmetry_2
Cd0 O0 2.203346 1_555
Cd0 O2 2.203346 1_555
Cd0 O8 2.287629 1_555
Cd0 O10 2.287629 1_555
Cd0 O14 2.355583 1_555
Cd0 O12 2.355583 1_555
Cd1 O1 2.203346 1_555
Cd1 O3 2.203346 1_555
Cd1 O11 2.287629 1_555
Cd1 O9 2.287629 1_555
Cd1 O13 2.355583 1_555
Cd1 O15 2.355583 1_555
Ni0 O5 2.021024 1_544
Ni0 O4 2.021024 1_555
Ni0 O8 2.064302 1_545
Ni0 O9 2.064302 1_554
Ni0 O12 2.076890 1_545
Ni0 O13 2.076890 1_554
Ni1 O6 2.021024 1_455
Ni1 O7 2.021024 1_555
Ni1 O11 2.064302 1_455
Ni1 O10 2.064302 1_555
Ni1 O15 2.076890 1_455
Ni1 O14 2.076890 1_555
O0 P0 1.465353 1_555
O1 P1 1.465353 1_555
O2 P2 1.465353 1_555
O3 P3 1.465353 1_555
O4 P6 1.464831 1_555
O5 P7 1.464831 1_555
O6 P4 1.464831 1_555
O7 P5 1.464831 1_555
O8 P4 1.505847 1_555
O9 P5 1.505847 1_555
O10 P6 1.505847 1_555
O11 P7 1.505847 1_555
O12 P3 1.508898 1_554
O13 P2 1.508898 1_556
O14 P1 1.508898 1_555
O15 P0 1.508898 1_555
O16 P4 1.595355 1_545
O16 P2 1.599298 1_555
O17 P5 1.595355 1_565
O17 P3 1.599298 1_555
O18 P6 1.595355 1_655
O18 P0 1.599298 1_555
O19 P7 1.595355 1_455
O19 P1 1.599298 1_555
O20 P0 1.588326 1_565
O20 P7 1.589635 1_555
O21 P1 1.588326 1_545
O21 P6 1.589635 1_555
O22 P2 1.588326 1_456
O22 P5 1.589635 1_555
O23 P3 1.588326 1_654
O23 P4 1.589635 1_555
