# generated using pymatgen
data_CaMo3O7
_symmetry_space_group_name_H-M   'P 1'
_cell_length_a   5.80396600
_cell_length_b   11.35183300
_cell_length_c   10.50662400
_cell_angle_alpha   90.00000000
_cell_angle_beta   90.00000000
_cell_angle_gamma   90.00000000
_symmetry_Int_Tables_number   1
_chemical_formula_structural   CaMo3O7
_chemical_formula_sum   'Ca4 Mo12 O28'
_cell_volume   692.23578065
_cell_formula_units_Z   4
loop_
 _symmetry_equiv_pos_site_id
 _symmetry_equiv_pos_as_xyz
  1  'x, y, z'
loop_
 _atom_site_type_symbol
 _atom_site_label
 _atom_site_symmetry_multiplicity
 _atom_site_fract_x
 _atom_site_fract_y
 _atom_site_fract_z
 _atom_site_occupancy
  Ca  Ca0  1  0.66827200  0.75000000  0.92041200  1
  Ca  Ca1  1  0.16827200  0.25000000  0.57958800  1
  Ca  Ca2  1  0.33172800  0.25000000  0.07958800  1
  Ca  Ca3  1  0.83172800  0.75000000  0.42041200  1
  Mo  Mo0  1  0.32593300  0.01759500  0.31691400  1
  Mo  Mo1  1  0.82593300  0.98240500  0.18308600  1
  Mo  Mo2  1  0.67406700  0.51759500  0.68308600  1
  Mo  Mo3  1  0.17406700  0.48240500  0.81691400  1
  Mo  Mo4  1  0.31738400  0.75000000  0.21336000  1
  Mo  Mo5  1  0.81738400  0.25000000  0.28664000  1
  Mo  Mo6  1  0.68261600  0.25000000  0.78664000  1
  Mo  Mo7  1  0.18261600  0.75000000  0.71336000  1
  Mo  Mo8  1  0.82593300  0.51759500  0.18308600  1
  Mo  Mo9  1  0.32593300  0.48240500  0.31691400  1
  Mo  Mo10  1  0.17406700  0.01759500  0.81691400  1
  Mo  Mo11  1  0.67406700  0.98240500  0.68308600  1
  O  O0  1  0.91685600  0.11338900  0.72561400  1
  O  O1  1  0.41685600  0.88661100  0.77438600  1
  O  O2  1  0.08314400  0.61338900  0.27438600  1
  O  O3  1  0.58314400  0.38661100  0.22561400  1
  O  O4  1  0.08314400  0.88661100  0.27438600  1
  O  O5  1  0.58314400  0.11338900  0.22561400  1
  O  O6  1  0.91685600  0.38661100  0.72561400  1
  O  O7  1  0.41685600  0.61338900  0.77438600  1
  O  O8  1  0.45042600  0.12231900  0.72912200  1
  O  O9  1  0.95042600  0.87768100  0.77087800  1
  O  O10  1  0.54957400  0.62231900  0.27087800  1
  O  O11  1  0.04957400  0.37768100  0.22912200  1
  O  O12  1  0.54957400  0.87768100  0.27087800  1
  O  O13  1  0.04957400  0.12231900  0.22912200  1
  O  O14  1  0.45042600  0.37768100  0.72912200  1
  O  O15  1  0.95042600  0.62231900  0.77087800  1
  O  O16  1  0.17323200  0.75000000  0.54009000  1
  O  O17  1  0.67323200  0.25000000  0.95991000  1
  O  O18  1  0.82676800  0.25000000  0.45991000  1
  O  O19  1  0.32676800  0.75000000  0.04009000  1
  O  O20  1  0.22591100  0.41200000  0.96790900  1
  O  O21  1  0.72591100  0.58800000  0.53209100  1
  O  O22  1  0.77408900  0.91200000  0.03209100  1
  O  O23  1  0.27408900  0.08799900  0.46790900  1
  O  O24  1  0.77408900  0.58800000  0.03209100  1
  O  O25  1  0.27408900  0.41200000  0.46790900  1
  O  O26  1  0.22591100  0.08799900  0.96790900  1
  O  O27  1  0.72591100  0.91200000  0.53209100  1
loop_
_geom_bond_atom_site_label_1
_geom_bond_atom_site_label_2
_geom_bond_distance
_geom_bond_site_symmetry_2
Ca0 O24 2.266251 1_556
Ca0 O22 2.266251 1_556
Ca0 O19 2.347278 1_556
Ca0 O1 2.624523 1_555
Ca0 O7 2.624523 1_555
Ca0 O9 2.692753 1_555
Ca0 O15 2.692753 1_555
Ca1 O25 2.266251 1_555
Ca1 O23 2.266261 1_555
Ca1 O18 2.347278 1_455
Ca1 O6 2.624523 1_455
Ca1 O0 2.624523 1_455
Ca1 O8 2.692753 1_555
Ca1 O14 2.692753 1_555
Ca2 O20 2.266251 1_554
Ca2 O26 2.266261 1_554
Ca2 O17 2.347278 1_554
Ca2 O3 2.624523 1_555
Ca2 O5 2.624523 1_555
Ca2 O11 2.692753 1_555
Ca2 O13 2.692753 1_555
Ca3 O21 2.266251 1_555
Ca3 O27 2.266251 1_555
Ca3 O16 2.347278 1_655
Ca3 O4 2.624523 1_655
Ca3 O2 2.624523 1_655
Ca3 O12 2.692753 1_555
Ca3 O10 2.692753 1_555
Mo0 O23 1.801694 1_555
Mo0 O5 2.081171 1_555
Mo0 O4 2.096717 1_545
Mo0 O12 2.107463 1_545
Mo0 O13 2.199280 1_555
Mo1 O22 1.801699 1_555
Mo1 O4 2.081171 1_655
Mo1 O5 2.096717 1_565
Mo1 O13 2.107463 1_665
Mo1 O12 2.199280 1_555
Mo2 O21 1.801699 1_555
Mo2 O7 2.081171 1_555
Mo2 O6 2.096717 1_555
Mo2 O14 2.107463 1_555
Mo2 O15 2.199280 1_555
Mo3 O20 1.801699 1_555
Mo3 O6 2.081171 1_455
Mo3 O7 2.096717 1_555
Mo3 O15 2.107463 1_455
Mo3 O14 2.199280 1_555
Mo4 O19 1.821297 1_555
Mo4 O12 2.069321 1_555
Mo4 O10 2.069321 1_555
Mo4 O4 2.159708 1_555
Mo4 O2 2.159708 1_555
Mo5 O18 1.821297 1_555
Mo5 O13 2.069321 1_655
Mo5 O11 2.069321 1_655
Mo5 O3 2.159708 1_555
Mo5 O5 2.159708 1_555
Mo6 O17 1.821297 1_555
Mo6 O14 2.069321 1_555
Mo6 O8 2.069321 1_555
Mo6 O6 2.159708 1_555
Mo6 O0 2.159708 1_555
Mo7 O16 1.821297 1_555
Mo7 O9 2.069321 1_455
Mo7 O15 2.069321 1_455
Mo7 O1 2.159708 1_555
Mo7 O7 2.159708 1_555
Mo8 O24 1.801699 1_555
Mo8 O2 2.081171 1_655
Mo8 O3 2.096717 1_555
Mo8 O11 2.107463 1_655
Mo8 O10 2.199280 1_555
Mo9 O25 1.801699 1_555
Mo9 O3 2.081171 1_555
Mo9 O2 2.096717 1_555
Mo9 O10 2.107463 1_555
Mo9 O11 2.199280 1_555
Mo10 O26 1.801694 1_555
Mo10 O0 2.081171 1_455
Mo10 O1 2.096717 1_545
Mo10 O9 2.107463 1_445
Mo10 O8 2.199280 1_555
Mo11 O27 1.801699 1_555
Mo11 O1 2.081171 1_555
Mo11 O0 2.096717 1_565
Mo11 O8 2.107463 1_565
Mo11 O9 2.199280 1_555
