# generated using pymatgen
data_LaAsRh
_symmetry_space_group_name_H-M   'P 1'
_cell_length_a   4.20321074
_cell_length_b   4.20321062
_cell_length_c   8.04974801
_cell_angle_alpha   105.13398891
_cell_angle_beta   105.13398931
_cell_angle_gamma   89.99999707
_symmetry_Int_Tables_number   1
_chemical_formula_structural   LaAsRh
_chemical_formula_sum   'La2 As2 Rh2'
_cell_volume   132.16619295
_cell_formula_units_Z   2
loop_
 _symmetry_equiv_pos_site_id
 _symmetry_equiv_pos_as_xyz
  1  'x, y, z'
loop_
 _atom_site_type_symbol
 _atom_site_label
 _atom_site_symmetry_multiplicity
 _atom_site_fract_x
 _atom_site_fract_y
 _atom_site_fract_z
 _atom_site_occupancy
  La  La0  1  0.33090217  0.83090217  0.66180435  1
  La  La1  1  0.58090217  0.58090217  0.16180435  1
  As  As0  1  0.74993996  0.24993996  0.49987792  1
  As  As1  1  0.99993996  0.99993996  0.99987792  1
  Rh  Rh0  1  0.16506887  0.16506887  0.33013774  1
  Rh  Rh1  1  0.91506887  0.41506887  0.83013774  1
loop_
_geom_bond_atom_site_label_1
_geom_bond_atom_site_label_2
_geom_bond_distance
_geom_bond_site_symmetry_2
La0 Rh1 3.227897 1_465
La0 Rh1 3.227897 1_555
La0 Rh1 3.227897 1_565
La0 Rh1 3.227897 1_455
La0 Rh0 3.251621 1_555
La0 Rh0 3.251622 1_565
La1 Rh0 3.227897 1_565
La1 Rh0 3.227897 1_655
La1 Rh0 3.227897 1_665
La1 Rh0 3.227897 1_555
La1 Rh1 3.251622 1_454
La1 Rh1 3.251622 1_554
As0 Rh0 2.455438 1_655
As0 Rh0 2.455445 1_555
As0 Rh1 2.470665 1_555
As0 La0 3.209496 1_655
As0 La0 3.209502 1_555
As0 La0 3.209502 1_645
As0 La0 3.209507 1_545
As0 La1 3.288339 1_555
As0 La1 3.288344 1_545
As1 Rh1 2.455438 1_565
As1 Rh1 2.455445 1_555
As1 Rh0 2.470665 1_666
As1 La1 3.209496 1_666
As1 La1 3.209502 1_566
As1 La1 3.209502 1_656
As1 La1 3.209507 1_556
As1 La0 3.288339 1_655
As1 La0 3.288344 1_555
