# generated using pymatgen
data_SmSnRh
_symmetry_space_group_name_H-M   'P 1'
_cell_length_a   7.50108222
_cell_length_b   7.50108222
_cell_length_c   4.01834532
_cell_angle_alpha   90.00000000
_cell_angle_beta   90.00000000
_cell_angle_gamma   119.99999488
_symmetry_Int_Tables_number   1
_chemical_formula_structural   SmSnRh
_chemical_formula_sum   'Sm3 Sn3 Rh3'
_cell_volume   195.80589431
_cell_formula_units_Z   3
loop_
 _symmetry_equiv_pos_site_id
 _symmetry_equiv_pos_as_xyz
  1  'x, y, z'
loop_
 _atom_site_type_symbol
 _atom_site_label
 _atom_site_symmetry_multiplicity
 _atom_site_fract_x
 _atom_site_fract_y
 _atom_site_fract_z
 _atom_site_occupancy
  Sm  Sm0  1  0.41021822  0.41021822  0.50000000  1
  Sm  Sm1  1  0.58978178  -0.00000000  0.50000000  1
  Sm  Sm2  1  -0.00000000  0.58978178  0.50000000  1
  Sn  Sn0  1  0.74555836  0.74555836  -0.00000000  1
  Sn  Sn1  1  0.25444164  -0.00000000  0.00000000  1
  Sn  Sn2  1  -0.00000000  0.25444164  -0.00000000  1
  Rh  Rh0  1  0.66666700  0.33333300  -0.00000000  1
  Rh  Rh1  1  0.33333300  0.66666700  0.00000000  1
  Rh  Rh2  1  0.00000000  -0.00000000  0.50000000  1
loop_
_geom_bond_atom_site_label_1
_geom_bond_atom_site_label_2
_geom_bond_distance
_geom_bond_site_symmetry_2
Sm0 Sn0 3.219330 1_556
Sm0 Sn0 3.219330 1_555
Sm0 Sn1 3.357831 1_555
Sm0 Sn1 3.357831 1_556
Sm0 Sn2 3.357831 1_555
Sm0 Sn2 3.357831 1_556
Sm1 Sn1 3.219329 1_555
Sm1 Sn1 3.219329 1_556
Sm1 Sn0 3.357831 1_546
Sm1 Sn0 3.357831 1_545
Sm1 Sn2 3.357831 1_655
Sm1 Sn2 3.357831 1_656
Sm2 Sn2 3.219329 1_556
Sm2 Sn2 3.219329 1_555
Sm2 Sn0 3.357831 1_455
Sm2 Sn0 3.357831 1_456
Sm2 Sn1 3.357831 1_565
Sm2 Sn1 3.357831 1_566
Sn0 Sn2 3.305771 1_665
Sn0 Sn1 3.305771 1_665
Sn1 Sn2 3.305771 1_555
Rh0 Sn2 2.842819 1_655
Rh0 Sn1 2.842824 1_555
Rh0 Sn0 2.842827 1_555
Rh0 Sm1 3.029713 1_554
Rh0 Sm1 3.029713 1_555
Rh0 Sm2 3.029715 1_655
Rh0 Sm2 3.029715 1_654
Rh0 Sm0 3.029719 1_554
Rh0 Sm0 3.029719 1_555
Rh1 Sn1 2.842819 1_565
Rh1 Sn2 2.842824 1_555
Rh1 Sn0 2.842827 1_555
Rh1 Sm2 3.029713 1_555
Rh1 Sm2 3.029713 1_554
Rh1 Sm1 3.029715 1_565
Rh1 Sm1 3.029715 1_564
Rh1 Sm0 3.029719 1_554
Rh1 Sm0 3.029719 1_555
Rh2 Sn2 2.771188 1_555
Rh2 Sn1 2.771188 1_555
Rh2 Sn2 2.771188 1_556
Rh2 Sn1 2.771188 1_556
Rh2 Sn0 2.771188 1_446
Rh2 Sn0 2.771188 1_445
Rh2 Sm1 3.077081 1_455
Rh2 Sm2 3.077081 1_545
Rh2 Sm0 3.077081 1_555
