# generated using pymatgen
data_Mg14TiVO16
_symmetry_space_group_name_H-M   'P 1'
_cell_length_a   8.57906900
_cell_length_b   8.57238100
_cell_length_c   4.26804900
_cell_angle_alpha   90.00000000
_cell_angle_beta   90.00000000
_cell_angle_gamma   90.00000000
_symmetry_Int_Tables_number   1
_chemical_formula_structural   Mg14TiVO16
_chemical_formula_sum   'Mg14 Ti1 V1 O16'
_cell_volume   313.88533287
_cell_formula_units_Z   1
loop_
 _symmetry_equiv_pos_site_id
 _symmetry_equiv_pos_as_xyz
  1  'x, y, z'
loop_
 _atom_site_type_symbol
 _atom_site_label
 _atom_site_symmetry_multiplicity
 _atom_site_fract_x
 _atom_site_fract_y
 _atom_site_fract_z
 _atom_site_occupancy
  Mg  Mg0  1  0.50000000  0.00000000  0.00000000  1
  Mg  Mg1  1  0.50000000  0.50000000  0.00000000  1
  Mg  Mg2  1  0.00000000  0.24793700  0.50000000  1
  Mg  Mg3  1  0.00000000  0.75206300  0.50000000  1
  Mg  Mg4  1  0.50000000  0.24960300  0.50000000  1
  Mg  Mg5  1  0.50000000  0.75039700  0.50000000  1
  Mg  Mg6  1  0.25132100  0.00000000  0.50000000  1
  Mg  Mg7  1  0.25274400  0.50000000  0.50000000  1
  Mg  Mg8  1  0.74867900  0.00000000  0.50000000  1
  Mg  Mg9  1  0.74725600  0.50000000  0.50000000  1
  Mg  Mg10  1  0.25104200  0.25027500  0.00000000  1
  Mg  Mg11  1  0.25104200  0.74972500  0.00000000  1
  Mg  Mg12  1  0.74895800  0.25027500  0.00000000  1
  Mg  Mg13  1  0.74895800  0.74972500  0.00000000  1
  Ti  Ti0  1  0.00000000  0.50000000  0.00000000  1
  V  V0  1  0.00000000  0.00000000  0.00000000  1
  O  O0  1  0.25554700  0.00000000  0.00000000  1
  O  O1  1  0.25835000  0.50000000  0.00000000  1
  O  O2  1  0.74445300  0.00000000  0.00000000  1
  O  O3  1  0.74165000  0.50000000  0.00000000  1
  O  O4  1  0.24894700  0.24995200  0.50000000  1
  O  O5  1  0.24894700  0.75004800  0.50000000  1
  O  O6  1  0.75105300  0.24995200  0.50000000  1
  O  O7  1  0.75105300  0.75004800  0.50000000  1
  O  O8  1  0.00000000  0.00000000  0.50000000  1
  O  O9  1  0.00000000  0.50000000  0.50000000  1
  O  O10  1  0.50000000  0.00000000  0.50000000  1
  O  O11  1  0.50000000  0.50000000  0.50000000  1
  O  O12  1  0.00000000  0.24935600  0.00000000  1
  O  O13  1  0.00000000  0.75064400  0.00000000  1
  O  O14  1  0.50000000  0.24932300  0.00000000  1
  O  O15  1  0.50000000  0.75067700  0.00000000  1
loop_
_geom_bond_atom_site_label_1
_geom_bond_atom_site_label_2
_geom_bond_distance
_geom_bond_site_symmetry_2
Mg0 O2 2.097179 1_555
Mg0 O0 2.097179 1_555
Mg0 O10 2.134024 1_555
Mg0 O10 2.134024 1_554
Mg0 O14 2.137292 1_555
Mg0 O15 2.137292 1_545
Mg1 O1 2.073132 1_555
Mg1 O3 2.073132 1_555
Mg1 O11 2.134024 1_555
Mg1 O11 2.134024 1_554
Mg1 O15 2.148899 1_555
Mg1 O14 2.148899 1_555
Mg2 O8 2.125410 1_555
Mg2 O12 2.134059 1_555
Mg2 O12 2.134059 1_556
Mg2 O4 2.135803 1_555
Mg2 O6 2.135803 1_455
Mg2 O9 2.160780 1_555
Mg3 O8 2.125410 1_565
Mg3 O13 2.134059 1_555
Mg3 O13 2.134059 1_556
Mg3 O5 2.135803 1_555
Mg3 O7 2.135803 1_455
Mg3 O9 2.160780 1_555
Mg4 O14 2.134026 1_555
Mg4 O14 2.134026 1_556
Mg4 O10 2.139692 1_555
Mg4 O11 2.146498 1_555
Mg4 O6 2.153803 1_555
Mg4 O4 2.153803 1_555
Mg5 O15 2.134026 1_555
Mg5 O15 2.134026 1_556
Mg5 O10 2.139692 1_565
Mg5 O11 2.146498 1_555
Mg5 O7 2.153803 1_555
Mg5 O5 2.153803 1_555
Mg6 O10 2.133434 1_555
Mg6 O0 2.134332 1_556
Mg6 O0 2.134332 1_555
Mg6 O4 2.142781 1_555
Mg6 O5 2.142781 1_545
Mg6 O8 2.156100 1_555
Mg7 O11 2.121226 1_555
Mg7 O1 2.134566 1_555
Mg7 O1 2.134566 1_556
Mg7 O5 2.143754 1_555
Mg7 O4 2.143754 1_555
Mg7 O9 2.168308 1_555
Mg8 O10 2.133434 1_555
Mg8 O2 2.134332 1_555
Mg8 O2 2.134332 1_556
Mg8 O6 2.142781 1_555
Mg8 O7 2.142781 1_545
Mg8 O8 2.156100 1_655
Mg9 O11 2.121226 1_555
Mg9 O3 2.134566 1_556
Mg9 O3 2.134566 1_555
Mg9 O7 2.143754 1_555
Mg9 O6 2.143754 1_555
Mg9 O9 2.168308 1_655
Mg10 O4 2.134102 1_554
Mg10 O4 2.134102 1_555
Mg10 O14 2.135843 1_555
Mg10 O1 2.141656 1_555
Mg10 O0 2.145801 1_555
Mg10 O12 2.153721 1_555
Mg11 O5 2.134102 1_554
Mg11 O5 2.134102 1_555
Mg11 O15 2.135843 1_555
Mg11 O1 2.141656 1_555
Mg11 O0 2.145801 1_565
Mg11 O13 2.153721 1_555
Mg12 O6 2.134102 1_555
Mg12 O6 2.134102 1_554
Mg12 O14 2.135843 1_555
Mg12 O3 2.141656 1_555
Mg12 O2 2.145801 1_555
Mg12 O12 2.153721 1_655
Mg13 O7 2.134102 1_555
Mg13 O7 2.134102 1_554
Mg13 O15 2.135843 1_555
Mg13 O3 2.141656 1_555
Mg13 O2 2.145801 1_565
Mg13 O13 2.153721 1_655
O0 V0 2.192355 1_555
O1 Ti0 2.216402 1_555
O2 V0 2.192355 1_655
O3 Ti0 2.216402 1_655
O8 V0 2.134024 1_555
O8 V0 2.134024 1_556
O9 Ti0 2.134024 1_555
O9 Ti0 2.134024 1_556
O12 V0 2.137575 1_555
O12 Ti0 2.148616 1_555
O13 V0 2.137575 1_565
O13 Ti0 2.148616 1_555
