# generated using pymatgen
data_K2LiLa4O7
_symmetry_space_group_name_H-M   'P 1'
_cell_length_a   6.83393578
_cell_length_b   6.82572469
_cell_length_c   7.71656015
_cell_angle_alpha   91.54147713
_cell_angle_beta   91.42017855
_cell_angle_gamma   126.35818063
_symmetry_Int_Tables_number   1
_chemical_formula_structural   K2LiLa4O7
_chemical_formula_sum   'K2 Li1 La4 O7'
_cell_volume   289.40212179
_cell_formula_units_Z   1
loop_
 _symmetry_equiv_pos_site_id
 _symmetry_equiv_pos_as_xyz
  1  'x, y, z'
loop_
 _atom_site_type_symbol
 _atom_site_label
 _atom_site_symmetry_multiplicity
 _atom_site_fract_x
 _atom_site_fract_y
 _atom_site_fract_z
 _atom_site_occupancy
  K  K0  1  0.26175463  0.74012263  0.00134490  1
  K  K1  1  0.66606706  0.33849423  0.99884222  1
  Li  Li0  1  0.13060164  0.87127089  0.49918970  1
  La  La0  1  0.91894703  0.97445250  0.25950189  1
  La  La1  1  0.02691174  0.08064133  0.74086535  1
  La  La2  1  0.34923340  0.65053210  0.50056808  1
  La  La3  1  0.67489217  0.32580071  0.49997607  1
  O  O0  1  0.03141002  0.61024563  0.33805226  1
  O  O1  1  0.98521801  0.38393647  0.69833921  1
  O  O2  1  0.03725129  0.95345077  0.99960070  1
  O  O3  1  0.24579978  0.22800703  0.46184610  1
  O  O4  1  0.77243894  0.75493653  0.53773658  1
  O  O5  1  0.38879924  0.96963202  0.66250125  1
  O  O6  1  0.61484405  0.01411016  0.30163468  1
loop_
_geom_bond_atom_site_label_1
_geom_bond_atom_site_label_2
_geom_bond_distance
_geom_bond_site_symmetry_2
K0 O2 2.668934 1_554
K0 O0 2.947320 1_555
K0 O5 2.960556 1_554
K0 O6 2.971303 1_565
K0 O1 2.996132 1_454
K1 O1 3.117300 1_555
K1 O6 3.143920 1_556
K1 O5 3.227033 1_545
K1 O0 3.232587 1_656
Li0 O0 1.893956 1_555
Li0 O5 1.895257 1_555
Li0 O3 2.099544 1_565
Li0 O4 2.110544 1_455
La0 O2 2.213305 1_654
La0 O6 2.278977 1_565
La0 O3 2.349640 1_665
La0 O4 2.521529 1_555
La1 O2 2.214476 1_545
La1 O1 2.281653 1_455
La1 O4 2.348848 1_445
La1 O3 2.525324 1_555
La2 O0 2.346079 1_555
La2 O5 2.348860 1_555
La2 O3 2.536273 1_555
La2 O4 2.541430 1_555
La2 O1 2.607513 1_455
La2 O6 2.610004 1_565
La3 O6 2.407429 1_555
La3 O1 2.409696 1_555
La3 O0 2.437153 1_655
La3 O5 2.440422 1_545
La3 O4 2.595871 1_555
La3 O3 2.599403 1_555
