# generated using pymatgen
data_Pr3CBr3
_symmetry_space_group_name_H-M   'P 1'
_cell_length_a   9.96518577
_cell_length_b   9.96494112
_cell_length_c   9.96523998
_cell_angle_alpha   109.47113946
_cell_angle_beta   109.47431446
_cell_angle_gamma   109.46904571
_symmetry_Int_Tables_number   1
_chemical_formula_structural   Pr3CBr3
_chemical_formula_sum   'Pr12 C4 Br12'
_cell_volume   761.76587949
_cell_formula_units_Z   4
loop_
 _symmetry_equiv_pos_site_id
 _symmetry_equiv_pos_as_xyz
  1  'x, y, z'
loop_
 _atom_site_type_symbol
 _atom_site_label
 _atom_site_symmetry_multiplicity
 _atom_site_fract_x
 _atom_site_fract_y
 _atom_site_fract_z
 _atom_site_occupancy
  Pr  Pr0  1  0.46039906  0.48021980  0.23018487  1
  Pr  Pr1  1  0.74994798  0.23016662  0.26979276  1
  Pr  Pr2  1  0.74995108  0.01977589  0.48015463  1
  Pr  Pr3  1  0.23021654  0.46042580  0.48020880  1
  Pr  Pr4  1  0.26983769  0.75001582  0.23017778  1
  Pr  Pr5  1  0.03962147  0.26982286  0.01978925  1
  Pr  Pr6  1  0.01979044  0.03957612  0.26978460  1
  Pr  Pr7  1  0.48018439  0.75001599  0.01983682  1
  Pr  Pr8  1  0.48021168  0.23016074  0.46036720  1
  Pr  Pr9  1  0.01982418  0.48022248  0.75003452  1
  Pr  Pr10  1  0.26983093  0.01978158  0.03962394  1
  Pr  Pr11  1  0.23020618  0.26981798  0.75003643  1
  C  C0  1  0.25002079  0.24999670  0.24998798  1
  C  C1  1  0.49999576  -0.00001196  0.24999158  1
  C  C2  1  -0.00001877  0.24999605  0.50000383  1
  C  C3  1  0.25001897  0.50003124  0.00001645  1
  Br  Br0  1  0.25001572  0.76049014  0.73958594  1
  Br  Br1  1  0.52092323  0.51044869  0.76047916  1
  Br  Br2  1  0.97908172  0.73954239  0.98953887  1
  Br  Br3  1  0.73954433  0.24997130  0.76043488  1
  Br  Br4  1  0.98953312  0.97907846  0.73954597  1
  Br  Br5  1  0.25003051  0.98955250  0.51046904  1
  Br  Br6  1  0.76044168  0.52090893  0.51047310  1
  Br  Br7  1  0.51043432  0.24997159  0.98953119  1
  Br  Br8  1  0.76042019  0.73952651  0.25000083  1
  Br  Br9  1  0.73952805  0.98955448  0.97908440  1
  Br  Br10  1  0.98952855  0.51044933  0.24996676  1
  Br  Br11  1  0.51047919  0.76049196  0.52089841  1
loop_
_geom_bond_atom_site_label_1
_geom_bond_atom_site_label_2
_geom_bond_distance
_geom_bond_site_symmetry_2
C0 Pr10 2.658591 1_555
C0 Pr8 2.658610 1_555
C0 Pr5 2.658705 1_555
C0 Pr0 2.658734 1_555
C0 Pr3 2.658942 1_555
C0 Pr6 2.658969 1_555
C1 Pr10 2.658123 1_555
C1 Pr2 2.658145 1_555
C1 Pr7 2.658145 1_545
C1 Pr4 2.658212 1_545
C1 Pr8 2.658225 1_555
C1 Pr1 2.658269 1_555
C2 Pr1 2.658664 1_455
C2 Pr2 2.658720 1_455
C2 Pr9 2.658730 1_555
C2 Pr11 2.658774 1_555
C2 Pr6 2.658915 1_555
C2 Pr3 2.659038 1_555
C3 Pr4 2.658219 1_555
C3 Pr7 2.658294 1_555
C3 Pr0 2.658324 1_555
C3 Pr9 2.658369 1_554
C3 Pr11 2.658503 1_554
C3 Pr5 2.658554 1_555
Br0 Pr7 3.025587 1_556
Br0 Pr9 3.025790 1_555
Br0 Pr10 3.125838 1_566
Br0 Pr3 3.126492 1_555
Br1 Pr11 3.025800 1_555
Br1 Pr3 3.025855 1_555
Br1 Pr7 3.126682 1_556
Br1 Pr8 3.126797 1_555
Br2 Pr4 3.025779 1_656
Br2 Pr10 3.025788 1_666
Br2 Pr6 3.126099 1_666
Br2 Pr9 3.126129 1_655
Br3 Pr2 3.025601 1_555
Br3 Pr9 3.025883 1_655
Br3 Pr5 3.126119 1_656
Br3 Pr8 3.126172 1_555
Br4 Pr5 3.025697 1_666
Br4 Pr11 3.025867 1_665
Br4 Pr2 3.126598 1_565
Br4 Pr10 3.126604 1_666
Br5 Pr8 3.025736 1_565
Br5 Pr6 3.025821 1_565
Br5 Pr4 3.126541 1_555
Br5 Pr11 3.126603 1_565
Br6 Pr8 3.025632 1_555
Br6 Pr1 3.025832 1_555
Br6 Pr9 3.126360 1_655
Br6 Pr0 3.126403 1_555
Br7 Pr10 3.025699 1_556
Br7 Pr0 3.025855 1_556
Br7 Pr11 3.126063 1_555
Br7 Pr1 3.126125 1_556
Br8 Pr2 3.025543 1_565
Br8 Pr7 3.025549 1_555
Br8 Pr0 3.125865 1_555
Br8 Pr6 3.126515 1_665
Br9 Pr1 3.025715 1_566
Br9 Pr6 3.025779 1_666
Br9 Pr7 3.126604 1_556
Br9 Pr5 3.126681 1_666
Br10 Pr5 3.025692 1_655
Br10 Pr3 3.025850 1_655
Br10 Pr4 3.126760 1_655
Br10 Pr1 3.126864 1_555
Br11 Pr4 3.025540 1_555
Br11 Pr0 3.025714 1_555
Br11 Pr2 3.125819 1_565
Br11 Pr3 3.126550 1_555
