# generated using pymatgen
data_TmSi3Rh5
_symmetry_space_group_name_H-M   'P 1'
_cell_length_a   15.61521263
_cell_length_b   15.61521263
_cell_length_c   3.86986000
_cell_angle_alpha   90.00000000
_cell_angle_beta   90.00000000
_cell_angle_gamma   120.00000265
_symmetry_Int_Tables_number   1
_chemical_formula_structural   TmSi3Rh5
_chemical_formula_sum   'Tm6 Si18 Rh30'
_cell_volume   817.18743123
_cell_formula_units_Z   6
loop_
 _symmetry_equiv_pos_site_id
 _symmetry_equiv_pos_as_xyz
  1  'x, y, z'
loop_
 _atom_site_type_symbol
 _atom_site_label
 _atom_site_symmetry_multiplicity
 _atom_site_fract_x
 _atom_site_fract_y
 _atom_site_fract_z
 _atom_site_occupancy
  Tm  Tm0  1  0.60572300  0.89991200  0.25000000  1
  Tm  Tm1  1  0.70581100  0.60572300  0.75000000  1
  Tm  Tm2  1  0.89991200  0.29418900  0.75000000  1
  Tm  Tm3  1  0.10008800  0.70581100  0.25000000  1
  Tm  Tm4  1  0.29418900  0.39427700  0.25000000  1
  Tm  Tm5  1  0.39427700  0.10008800  0.75000000  1
  Si  Si0  1  0.44206500  0.76077300  0.75000000  1
  Si  Si1  1  0.68129200  0.44206500  0.25000000  1
  Si  Si2  1  0.76077300  0.31870800  0.25000000  1
  Si  Si3  1  0.23922700  0.68129200  0.75000000  1
  Si  Si4  1  0.31870800  0.55793500  0.75000000  1
  Si  Si5  1  0.55793500  0.23922700  0.25000000  1
  Si  Si6  1  0.88095700  0.13148100  0.25000000  1
  Si  Si7  1  0.11904300  0.86851900  0.75000000  1
  Si  Si8  1  0.13148100  0.25052400  0.75000000  1
  Si  Si9  1  0.25052400  0.11904300  0.25000000  1
  Si  Si10  1  0.37060300  0.93868000  0.25000000  1
  Si  Si11  1  0.43192300  0.37060300  0.75000000  1
  Si  Si12  1  0.93868000  0.56807700  0.75000000  1
  Si  Si13  1  0.06132000  0.43192300  0.25000000  1
  Si  Si14  1  0.56807700  0.62939700  0.25000000  1
  Si  Si15  1  0.62939700  0.06132000  0.75000000  1
  Si  Si16  1  0.74947600  0.88095700  0.75000000  1
  Si  Si17  1  0.86851900  0.74947600  0.25000000  1
  Rh  Rh0  1  0.46381700  0.92485800  0.75000000  1
  Rh  Rh1  1  0.15408500  0.41410400  0.75000000  1
  Rh  Rh2  1  0.26001800  0.84591500  0.75000000  1
  Rh  Rh3  1  0.73998200  0.15408500  0.25000000  1
  Rh  Rh4  1  0.84591500  0.58589600  0.25000000  1
  Rh  Rh5  1  0.41410400  0.26001800  0.25000000  1
  Rh  Rh6  1  0.65247300  0.22338800  0.75000000  1
  Rh  Rh7  1  0.42908500  0.65247300  0.25000000  1
  Rh  Rh8  1  0.22338800  0.57091500  0.25000000  1
  Rh  Rh9  1  0.77661200  0.42908500  0.75000000  1
  Rh  Rh10  1  0.57091500  0.34752700  0.75000000  1
  Rh  Rh11  1  0.34752700  0.77661200  0.25000000  1
  Rh  Rh12  1  0.14071000  0.02828900  0.75000000  1
  Rh  Rh13  1  0.11242100  0.14071000  0.25000000  1
  Rh  Rh14  1  0.02828900  0.88757900  0.25000000  1
  Rh  Rh15  1  0.97171100  0.11242100  0.75000000  1
  Rh  Rh16  1  0.88757900  0.85929000  0.75000000  1
  Rh  Rh17  1  0.85929000  0.97171100  0.25000000  1
  Rh  Rh18  1  0.92485800  0.46104100  0.25000000  1
  Rh  Rh19  1  0.07514200  0.53895900  0.75000000  1
  Rh  Rh20  1  0.46104100  0.53618300  0.75000000  1
  Rh  Rh21  1  0.53618300  0.07514200  0.25000000  1
  Rh  Rh22  1  0.72896000  0.77285200  0.25000000  1
  Rh  Rh23  1  0.95610700  0.72896000  0.75000000  1
  Rh  Rh24  1  0.77285200  0.04389300  0.75000000  1
  Rh  Rh25  1  0.22714800  0.95610700  0.25000000  1
  Rh  Rh26  1  0.04389300  0.27104000  0.25000000  1
  Rh  Rh27  1  0.27104000  0.22714800  0.75000000  1
  Rh  Rh28  1  0.58589600  0.73998200  0.75000000  1
  Rh  Rh29  1  0.53895900  0.46381700  0.25000000  1
loop_
_geom_bond_atom_site_label_1
_geom_bond_atom_site_label_2
_geom_bond_distance
_geom_bond_site_symmetry_2
Si0 Tm0 3.072940 1_555
Si0 Tm0 3.072940 1_556
Si1 Tm1 3.072940 1_555
Si1 Tm1 3.072940 1_554
Si2 Tm2 3.072940 1_554
Si2 Tm2 3.072940 1_555
Si3 Tm3 3.072940 1_556
Si3 Tm3 3.072940 1_555
Si4 Tm4 3.072940 1_555
Si4 Tm4 3.072940 1_556
Si5 Tm5 3.072940 1_554
Si5 Tm5 3.072940 1_555
Si6 Tm2 3.087847 1_554
Si6 Tm2 3.087847 1_555
Si7 Tm3 3.087847 1_555
Si7 Tm3 3.087847 1_556
Si8 Tm4 3.087847 1_555
Si8 Tm4 3.087847 1_556
Si9 Tm5 3.087847 1_554
Si9 Tm5 3.087847 1_555
Si10 Tm5 3.049819 1_565
Si10 Tm5 3.049819 1_564
Si11 Tm4 3.049819 1_556
Si11 Tm4 3.049819 1_555
Si12 Tm3 3.049819 1_655
Si12 Tm3 3.049819 1_656
Si13 Tm2 3.049819 1_455
Si13 Tm2 3.049819 1_454
Si14 Tm1 3.049819 1_555
Si14 Tm1 3.049819 1_554
Si15 Tm0 3.049819 1_545
Si15 Tm0 3.049819 1_546
Si16 Tm0 3.087847 1_555
Si16 Tm0 3.087847 1_556
Si17 Tm1 3.087847 1_554
Si17 Tm1 3.087847 1_555
Rh0 Si15 2.390874 1_565
Rh0 Si0 2.410407 1_555
Rh0 Si10 2.494662 1_555
Rh0 Si10 2.494662 1_556
Rh0 Tm0 3.109509 1_555
Rh0 Tm0 3.109509 1_556
Rh1 Si8 2.397421 1_555
Rh1 Si4 2.424646 1_555
Rh1 Si13 2.514501 1_556
Rh1 Si13 2.514501 1_555
Rh1 Tm4 3.050149 1_555
Rh1 Tm4 3.050149 1_556
Rh2 Si7 2.397405 1_555
Rh2 Si3 2.424652 1_555
Rh2 Si10 2.514507 1_555
Rh2 Si10 2.514507 1_556
Rh2 Tm3 3.050142 1_556
Rh2 Tm3 3.050142 1_555
Rh3 Si6 2.397405 1_555
Rh3 Si2 2.424652 1_555
Rh3 Si15 2.514507 1_554
Rh3 Si15 2.514507 1_555
Rh3 Tm2 3.050142 1_555
Rh3 Tm2 3.050142 1_554
Rh4 Si17 2.397421 1_555
Rh4 Si1 2.424646 1_555
Rh4 Si12 2.514501 1_555
Rh4 Si12 2.514501 1_554
Rh4 Tm1 3.050149 1_554
Rh4 Tm1 3.050149 1_555
Rh5 Si9 2.397414 1_555
Rh5 Si5 2.424636 1_555
Rh5 Si11 2.514510 1_554
Rh5 Si11 2.514510 1_555
Rh5 Tm5 3.050137 1_554
Rh5 Tm5 3.050137 1_555
Rh6 Si15 2.371182 1_555
Rh6 Si2 2.510414 1_555
Rh6 Si2 2.510414 1_556
Rh6 Si5 2.519821 1_555
Rh6 Si5 2.519821 1_556
Rh7 Si14 2.371182 1_555
Rh7 Si0 2.510414 1_554
Rh7 Si0 2.510414 1_555
Rh7 Si4 2.519821 1_555
Rh7 Si4 2.519821 1_554
Rh8 Si13 2.371182 1_555
Rh8 Si4 2.510414 1_554
Rh8 Si4 2.510414 1_555
Rh8 Si3 2.519821 1_554
Rh8 Si3 2.519821 1_555
Rh9 Si12 2.371182 1_555
Rh9 Si1 2.510414 1_555
Rh9 Si1 2.510414 1_556
Rh9 Si2 2.519821 1_555
Rh9 Si2 2.519821 1_556
Rh10 Si11 2.371182 1_555
Rh10 Si5 2.510414 1_555
Rh10 Si5 2.510414 1_556
Rh10 Si1 2.519821 1_556
Rh10 Si1 2.519821 1_555
Rh11 Si10 2.371182 1_555
Rh11 Si3 2.510414 1_555
Rh11 Si3 2.510414 1_554
Rh11 Si0 2.519821 1_554
Rh11 Si0 2.519821 1_555
Rh12 Si7 2.344060 1_545
Rh12 Si9 2.502520 1_555
Rh12 Si9 2.502520 1_556
Rh13 Si9 2.344060 1_555
Rh13 Si8 2.502520 1_555
Rh13 Si8 2.502520 1_554
Rh14 Si17 2.344060 1_455
Rh14 Si7 2.502520 1_555
Rh14 Si7 2.502520 1_554
Rh15 Si8 2.344060 1_655
Rh15 Si6 2.502520 1_555
Rh15 Si6 2.502520 1_556
Rh16 Si16 2.344060 1_555
Rh16 Si17 2.502520 1_556
Rh16 Si17 2.502520 1_555
Rh17 Si6 2.344060 1_565
Rh17 Si16 2.502520 1_555
Rh17 Si16 2.502520 1_554
Rh18 Si13 2.390874 1_655
Rh18 Si2 2.410407 1_555
Rh18 Si12 2.494662 1_555
Rh18 Si12 2.494662 1_554
Rh18 Tm2 3.109509 1_555
Rh18 Tm2 3.109509 1_554
Rh19 Si12 2.390874 1_455
Rh19 Si3 2.410407 1_555
Rh19 Si13 2.494662 1_556
Rh19 Si13 2.494662 1_555
Rh19 Tm3 3.109509 1_555
Rh19 Tm3 3.109509 1_556
Rh20 Si11 2.390874 1_555
Rh20 Si4 2.410407 1_555
Rh20 Si14 2.494662 1_555
Rh20 Si14 2.494662 1_556
Rh20 Tm4 3.109509 1_555
Rh20 Tm4 3.109509 1_556
Rh21 Si10 2.390874 1_545
Rh21 Si5 2.410407 1_555
Rh21 Si15 2.494662 1_554
Rh21 Si15 2.494662 1_555
Rh21 Tm5 3.109509 1_554
Rh21 Tm5 3.109509 1_555
Rh22 Si17 2.382816 1_555
Rh22 Si14 2.387811 1_555
Rh22 Si16 2.481010 1_555
Rh22 Si16 2.481010 1_554
Rh22 Tm1 3.121230 1_555
Rh22 Tm1 3.121230 1_554
Rh23 Si7 2.382826 1_655
Rh23 Si12 2.387817 1_555
Rh23 Si17 2.481001 1_555
Rh23 Si17 2.481001 1_556
Rh23 Tm3 3.121242 1_655
Rh23 Tm3 3.121242 1_656
Rh24 Si16 2.382832 1_545
Rh24 Si15 2.387802 1_555
Rh24 Si6 2.481007 1_556
Rh24 Si6 2.481007 1_555
Rh24 Tm0 3.121234 1_545
Rh24 Tm0 3.121234 1_546
Rh25 Si9 2.382832 1_565
Rh25 Si10 2.387802 1_555
Rh25 Si7 2.481007 1_554
Rh25 Si7 2.481007 1_555
Rh25 Tm5 3.121234 1_565
Rh25 Tm5 3.121234 1_564
Rh26 Si6 2.382826 1_455
Rh26 Si13 2.387817 1_555
Rh26 Si8 2.481001 1_555
Rh26 Si8 2.481001 1_554
Rh26 Tm2 3.121242 1_454
Rh26 Tm2 3.121242 1_455
Rh27 Si8 2.382816 1_555
Rh27 Si11 2.387811 1_555
Rh27 Si9 2.481010 1_555
Rh27 Si9 2.481010 1_556
Rh27 Tm4 3.121230 1_556
Rh27 Tm4 3.121230 1_555
Rh28 Si16 2.397414 1_555
Rh28 Si0 2.424636 1_555
Rh28 Si14 2.514510 1_555
Rh28 Si14 2.514510 1_556
Rh28 Tm0 3.050137 1_555
Rh28 Tm0 3.050137 1_556
Rh29 Si14 2.390874 1_555
Rh29 Si1 2.410407 1_555
Rh29 Si11 2.494662 1_555
Rh29 Si11 2.494662 1_554
Rh29 Tm1 3.109509 1_554
Rh29 Tm1 3.109509 1_555
