# generated using pymatgen
data_KCeMg6
_symmetry_space_group_name_H-M   'P 1'
_cell_length_a   5.40526100
_cell_length_b   7.02466300
_cell_length_c   11.92915800
_cell_angle_alpha   90.00000000
_cell_angle_beta   90.00000000
_cell_angle_gamma   90.00000000
_symmetry_Int_Tables_number   1
_chemical_formula_structural   KCeMg6
_chemical_formula_sum   'K2 Ce2 Mg12'
_cell_volume   452.95176298
_cell_formula_units_Z   2
loop_
 _symmetry_equiv_pos_site_id
 _symmetry_equiv_pos_as_xyz
  1  'x, y, z'
loop_
 _atom_site_type_symbol
 _atom_site_label
 _atom_site_symmetry_multiplicity
 _atom_site_fract_x
 _atom_site_fract_y
 _atom_site_fract_z
 _atom_site_occupancy
  K  K0  1  0.00000000  0.50000000  0.34944200  1
  K  K1  1  0.00000000  0.00000000  0.84944200  1
  Ce  Ce0  1  0.50000000  0.50000000  0.15519100  1
  Ce  Ce1  1  0.50000000  0.00000000  0.65519100  1
  Mg  Mg0  1  0.00000000  0.25251800  0.08788700  1
  Mg  Mg1  1  0.00000000  0.74748200  0.08788700  1
  Mg  Mg2  1  0.00000000  0.50000000  0.83307500  1
  Mg  Mg3  1  0.50000000  0.26755300  0.91587300  1
  Mg  Mg4  1  0.50000000  0.73244700  0.91587300  1
  Mg  Mg5  1  0.50000000  0.50000000  0.65477100  1
  Mg  Mg6  1  0.00000000  0.75251800  0.58788700  1
  Mg  Mg7  1  0.00000000  0.24748200  0.58788700  1
  Mg  Mg8  1  0.00000000  0.00000000  0.33307500  1
  Mg  Mg9  1  0.50000000  0.76755300  0.41587300  1
  Mg  Mg10  1  0.50000000  0.23244700  0.41587300  1
  Mg  Mg11  1  0.50000000  0.00000000  0.15477100  1
loop_
_geom_bond_atom_site_label_1
_geom_bond_atom_site_label_2
_geom_bond_distance
_geom_bond_site_symmetry_2
K0 Mg6 3.352229 1_555
K0 Mg7 3.352229 1_555
K0 Mg9 3.385944 1_555
K0 Mg9 3.385944 1_455
K0 Mg10 3.385944 1_555
K0 Mg10 3.385944 1_455
K0 Mg8 3.517754 1_565
K0 Mg8 3.517754 1_555
K0 Mg1 3.571767 1_555
K0 Mg0 3.571767 1_555
K1 Mg0 3.352229 1_556
K1 Mg1 3.352229 1_546
K1 Mg4 3.385944 1_545
K1 Mg3 3.385944 1_455
K1 Mg3 3.385944 1_555
K1 Mg4 3.385944 1_445
K1 Mg2 3.517754 1_555
K1 Mg2 3.517754 1_545
K1 Mg7 3.571767 1_555
K1 Mg6 3.571767 1_545
Ce0 Mg4 3.288841 1_554
Ce0 Mg3 3.288841 1_554
Ce0 Mg1 3.312270 1_655
Ce0 Mg1 3.312270 1_555
Ce0 Mg0 3.312270 1_655
Ce0 Mg0 3.312270 1_555
Ce0 Mg11 3.512335 1_565
Ce0 Mg11 3.512335 1_555
Ce0 K0 3.560037 1_555
Ce0 K0 3.560037 1_655
Ce0 Mg9 3.633558 1_555
Ce0 Mg10 3.633558 1_555
Ce1 Mg10 3.288841 1_555
Ce1 Mg9 3.288841 1_545
Ce1 Mg7 3.312270 1_555
Ce1 Mg7 3.312270 1_655
Ce1 Mg6 3.312270 1_545
Ce1 Mg6 3.312270 1_645
Ce1 Mg5 3.512335 1_545
Ce1 Mg5 3.512335 1_555
Ce1 K1 3.560037 1_655
Ce1 K1 3.560037 1_555
Ce1 Mg3 3.633558 1_555
Ce1 Mg4 3.633558 1_545
Mg0 Mg11 3.329770 1_455
Mg0 Mg11 3.329770 1_555
Mg0 Mg3 3.394996 1_554
Mg0 Mg3 3.394996 1_454
Mg0 Mg8 3.420748 1_555
Mg0 Mg1 3.476955 1_555
Mg0 Mg2 3.501719 1_554
Mg0 Mg1 3.547708 1_545
Mg1 Mg11 3.329770 1_465
Mg1 Mg11 3.329770 1_565
Mg1 Mg4 3.394996 1_454
Mg1 Mg4 3.394996 1_554
Mg1 Mg8 3.420748 1_565
Mg1 Mg2 3.501719 1_554
Mg2 Mg4 3.308477 1_555
Mg2 Mg3 3.308477 1_455
Mg2 Mg3 3.308477 1_555
Mg2 Mg4 3.308477 1_455
Mg2 Mg6 3.420748 1_555
Mg2 Mg7 3.420748 1_555
Mg2 Mg5 3.439246 1_455
Mg2 Mg5 3.439246 1_555
Mg3 Mg4 3.265724 1_555
Mg3 Mg5 3.516783 1_555
Mg4 Mg5 3.516783 1_555
Mg5 Mg6 3.329770 1_555
Mg5 Mg6 3.329770 1_655
Mg5 Mg7 3.329770 1_555
Mg5 Mg7 3.329770 1_655
Mg5 Mg9 3.413805 1_555
Mg6 Mg9 3.394996 1_555
Mg6 Mg9 3.394996 1_455
Mg6 Mg7 3.476955 1_565
Mg6 Mg8 3.501719 1_565
Mg6 Mg7 3.547708 1_555
Mg7 Mg8 3.501719 1_555
Mg8 Mg9 3.308477 1_545
Mg8 Mg9 3.308477 1_445
Mg10 Mg9 3.265724 1_545
Mg10 Mg8 3.308477 1_555
Mg10 Mg8 3.308477 1_655
Mg10 Mg7 3.394996 1_555
Mg10 Mg7 3.394996 1_655
Mg10 Mg5 3.413805 1_555
Mg10 Mg11 3.516783 1_555
Mg11 Mg3 3.413805 1_554
Mg11 Mg4 3.413805 1_544
Mg11 Mg8 3.439246 1_555
Mg11 Mg8 3.439246 1_655
Mg11 Mg9 3.516783 1_545
