# generated using pymatgen
data_Li6V3P8O29
_symmetry_space_group_name_H-M   'P 1'
_cell_length_a   9.77641527
_cell_length_b   9.77641527
_cell_length_c   13.95949271
_cell_angle_alpha   89.93852662
_cell_angle_beta   89.93852662
_cell_angle_gamma   59.98490098
_symmetry_Int_Tables_number   1
_chemical_formula_structural   Li6V3P8O29
_chemical_formula_sum   'Li12 V6 P16 O58'
_cell_volume   1155.29560030
_cell_formula_units_Z   2
loop_
 _symmetry_equiv_pos_site_id
 _symmetry_equiv_pos_as_xyz
  1  'x, y, z'
loop_
 _atom_site_type_symbol
 _atom_site_label
 _atom_site_symmetry_multiplicity
 _atom_site_fract_x
 _atom_site_fract_y
 _atom_site_fract_z
 _atom_site_occupancy
  Li  Li0  1  0.76294200  0.33594000  0.30755700  1
  Li  Li1  1  0.89858700  0.76215300  0.30818600  1
  Li  Li2  1  0.76321400  0.90309200  0.81603200  1
  Li  Li3  1  0.33557600  0.76389900  0.81247500  1
  Li  Li4  1  0.32948800  0.90199900  0.30786400  1
  Li  Li5  1  0.66406000  0.23705800  0.69244300  1
  Li  Li6  1  0.23784700  0.10141300  0.69181400  1
  Li  Li7  1  0.09690800  0.23678600  0.18396800  1
  Li  Li8  1  0.23610100  0.66442400  0.18752500  1
  Li  Li9  1  0.09800100  0.67051200  0.69213600  1
  Li  Li10  1  0.99235300  0.05954600  0.76718300  1
  Li  Li11  1  0.94045400  0.00764700  0.23281700  1
  V  V0  1  0.56119800  0.00269200  0.00569000  1
  V  V1  1  0.43412700  0.00023700  0.49863900  1
  V  V2  1  0.56869800  0.43130200  0.50000000  1
  V  V3  1  0.44043800  0.55956200  0.00000000  1
  V  V4  1  0.99730800  0.43880200  0.99431000  1
  V  V5  1  0.99976300  0.56587300  0.50136100  1
  P  P0  1  0.91767300  0.30473300  0.59099300  1
  P  P1  1  0.77928600  0.30842600  0.09245600  1
  P  P2  1  0.91221500  0.77607600  0.09211800  1
  P  P3  1  0.66371000  0.67210400  0.88289500  1
  P  P4  1  0.66672800  0.66555800  0.38074500  1
  P  P5  1  0.76925100  0.91335700  0.59601200  1
  P  P6  1  0.69526700  0.08232700  0.40900700  1
  P  P7  1  0.31601600  0.77194000  0.59198200  1
  P  P8  1  0.69157400  0.22071400  0.90754400  1
  P  P9  1  0.31099700  0.91112200  0.09294100  1
  P  P10  1  0.22392400  0.08778500  0.90788200  1
  P  P11  1  0.32789600  0.33629000  0.11710500  1
  P  P12  1  0.33444200  0.33327200  0.61925500  1
  P  P13  1  0.08664300  0.23074900  0.40398800  1
  P  P14  1  0.22806000  0.68398400  0.40801800  1
  P  P15  1  0.08887800  0.68900300  0.90705900  1
  O  O0  1  0.00194500  0.23409400  0.31344800  1
  O  O1  1  0.92120000  0.33510600  0.08909000  1
  O  O2  1  0.78057400  0.21179500  0.81707600  1
  O  O3  1  0.74615700  0.33429000  0.59240700  1
  O  O4  1  0.92042300  0.46043300  0.58305300  1
  O  O5  1  0.80946700  0.51966000  0.92596000  1
  O  O6  1  0.92128000  0.61532500  0.08342300  1
  O  O7  1  0.99883400  0.77765100  0.81868200  1
  O  O8  1  0.91694700  0.74518200  0.59299400  1
  O  O9  1  0.68132100  0.50845300  0.42159400  1
  O  O10  1  0.62244100  0.46645100  0.08055600  1
  O  O11  1  0.80963300  0.67924100  0.42301600  1
  O  O12  1  0.65728600  0.68004700  0.77638200  1
  O  O13  1  0.66970100  0.66450700  0.27384700  1
  O  O14  1  0.67529800  0.81441200  0.92593600  1
  O  O15  1  0.47498100  0.61877800  0.57696900  1
  O  O16  1  0.51220800  0.67584500  0.92563800  1
  O  O17  1  0.74429600  0.91486400  0.09204100  1
  O  O18  1  0.79098700  0.00753800  0.50853600  1
  O  O19  1  0.80189700  0.98956600  0.32891500  1
  O  O20  1  0.76590600  0.99805500  0.68655200  1
  O  O21  1  0.61754400  0.90624000  0.57798400  1
  O  O22  1  0.50935900  0.80841400  0.42106000  1
  O  O23  1  0.66489400  0.07880000  0.91091000  1
  O  O24  1  0.47037100  0.90468600  0.08168600  1
  O  O25  1  0.33395600  0.74306100  0.09481700  1
  O  O26  1  0.79959700  0.20040300  0.00000000  1
  O  O27  1  0.78820500  0.21942600  0.18292400  1
  O  O28  1  0.22682400  0.77121200  0.31847000  1
  O  O29  1  0.66571000  0.25384300  0.40759300  1
  O  O30  1  0.53956700  0.07957700  0.41694700  1
  O  O31  1  0.33619800  0.91952700  0.59092700  1
  O  O32  1  0.48034000  0.19053300  0.07404000  1
  O  O33  1  0.38467500  0.07872000  0.91657700  1
  O  O34  1  0.21605300  0.00002700  0.81909400  1
  O  O35  1  0.22234900  0.00116600  0.18131800  1
  O  O36  1  0.20315700  0.99707900  0.00024600  1
  O  O37  1  0.25481800  0.08305300  0.40700600  1
  O  O38  1  0.49154700  0.31867900  0.57840600  1
  O  O39  1  0.53354900  0.37755900  0.91944400  1
  O  O40  1  0.32075900  0.19036700  0.57698400  1
  O  O41  1  0.33549300  0.33029900  0.72615300  1
  O  O42  1  0.31995300  0.34271400  0.22361800  1
  O  O43  1  0.18558800  0.32470200  0.07406400  1
  O  O44  1  0.38122200  0.52501900  0.42303100  1
  O  O45  1  0.32415500  0.48779200  0.07436200  1
  O  O46  1  0.08513600  0.25570400  0.90795900  1
  O  O47  1  0.99246200  0.20901300  0.49146400  1
  O  O48  1  0.01043400  0.19810300  0.67108500  1
  O  O49  1  0.09376000  0.38245600  0.42201600  1
  O  O50  1  0.19158600  0.49064100  0.57894000  1
  O  O51  1  0.09531400  0.52962900  0.91831400  1
  O  O52  1  0.25693900  0.66604400  0.90518300  1
  O  O53  1  0.22878800  0.77317600  0.68153000  1
  O  O54  1  0.20636700  0.79363300  0.50000000  1
  O  O55  1  0.08047300  0.66380200  0.40907300  1
  O  O56  1  0.99997300  0.78394700  0.18090600  1
  O  O57  1  0.00292100  0.79684300  0.99975400  1
loop_
_geom_bond_atom_site_label_1
_geom_bond_atom_site_label_2
_geom_bond_distance
_geom_bond_site_symmetry_2
Li0 O27 2.026658 1_555
Li0 O0 2.032358 1_655
Li0 O29 2.062987 1_555
Li0 O9 2.161476 1_555
Li1 O19 1.954095 1_555
Li1 O55 2.088494 1_655
Li1 O56 2.095577 1_555
Li1 O11 2.163865 1_555
Li2 O23 1.994779 1_565
Li2 O7 1.996342 1_555
Li2 O20 2.037234 1_555
Li2 O14 2.141026 1_555
Li3 O52 1.977907 1_555
Li3 O34 2.001141 1_565
Li3 O53 2.085304 1_555
Li3 O16 2.175813 1_555
Li4 O28 1.986806 1_555
Li4 O35 2.035185 1_565
Li4 O37 2.071652 1_565
Li4 O22 2.195342 1_555
Li5 O2 2.026658 1_555
Li5 O20 2.032358 1_545
Li5 O3 2.062987 1_555
Li5 O38 2.161476 1_555
Li6 O48 1.954095 1_555
Li6 O31 2.088494 1_545
Li6 O34 2.095577 1_555
Li6 O40 2.163865 1_555
Li7 O1 1.994779 1_455
Li7 O35 1.996342 1_555
Li7 O0 2.037234 1_555
Li7 O43 2.141026 1_555
Li8 O25 1.977907 1_555
Li8 O56 2.001141 1_455
Li8 O28 2.085304 1_555
Li8 O45 2.175813 1_555
Li9 O53 1.986806 1_555
Li9 O7 2.035185 1_455
Li9 O8 2.071652 1_455
Li9 O50 2.195342 1_555
Li10 O48 1.975064 1_655
Li10 O2 1.975669 1_555
Li10 O34 2.091878 1_655
Li11 O19 1.975064 1_545
Li11 O27 1.975669 1_555
Li11 O56 2.091878 1_545
O0 P13 1.503068 1_555
O1 P1 1.535263 1_555
O1 V4 2.020292 1_554
O2 P8 1.510476 1_555
O3 P0 1.552666 1_555
O3 V2 1.982273 1_555
O4 P0 1.539688 1_555
O4 V5 1.939131 1_555
O5 P3 1.577450 1_555
O5 V4 1.859425 1_555
O6 P2 1.534099 1_555
O6 V4 1.948717 1_554
O7 P15 1.511560 1_655
O8 P5 1.553976 1_555
O8 V5 1.986804 1_555
O9 P4 1.575960 1_555
O9 V2 1.950811 1_555
O10 P1 1.547770 1_555
O10 V3 1.908104 1_555
O11 P4 1.583316 1_555
O11 V5 1.954546 1_555
O12 P3 1.488564 1_555
O13 P4 1.492440 1_555
O14 P3 1.571327 1_555
O14 V0 1.954356 1_566
O15 P7 1.540498 1_555
O15 V2 1.917100 1_555
O16 P3 1.579590 1_555
O16 V3 1.912117 1_556
O17 P2 1.519066 1_555
O17 V0 1.964497 1_565
O18 P5 1.605259 1_545
O18 P6 1.629957 1_555
O19 P6 1.487624 1_565
O20 P5 1.503068 1_555
O21 P5 1.540127 1_555
O21 V1 1.907933 1_565
O22 P4 1.576199 1_555
O22 V1 1.963003 1_565
O23 P8 1.535263 1_555
O23 V0 2.020292 1_556
O24 P9 1.535498 1_555
O24 V0 1.918057 1_565
O25 P9 1.543240 1_555
O25 V3 2.046379 1_555
O26 P8 1.616494 1_554
O26 P1 1.616494 1_555
O27 P1 1.510476 1_555
O28 P14 1.509113 1_555
O29 P6 1.552666 1_555
O29 V2 1.982273 1_555
O30 P6 1.539688 1_555
O30 V1 1.939131 1_555
O31 P7 1.551062 1_555
O31 V1 1.987427 1_565
O32 P11 1.577450 1_555
O32 V0 1.859425 1_555
O33 P10 1.534099 1_555
O33 V0 1.948717 1_556
O34 P10 1.531911 1_555
O35 P9 1.511560 1_545
O36 P9 1.614405 1_555
O36 P10 1.633138 1_564
O37 P13 1.553976 1_555
O37 V1 1.986804 1_555
O38 P12 1.575960 1_555
O38 V2 1.950811 1_555
O39 P8 1.547770 1_555
O39 V3 1.908104 1_556
O40 P12 1.583316 1_555
O40 V1 1.954546 1_555
O41 P12 1.492440 1_555
O42 P11 1.488564 1_555
O43 P11 1.571327 1_555
O43 V4 1.954356 1_454
O44 P14 1.540498 1_555
O44 V2 1.917100 1_555
O45 P11 1.579590 1_555
O45 V3 1.912117 1_555
O46 P10 1.519066 1_555
O46 V4 1.964497 1_455
O47 P13 1.605259 1_655
O47 P0 1.629957 1_555
O48 P0 1.487624 1_455
O49 P13 1.540127 1_555
O49 V5 1.907933 1_455
O50 P12 1.576199 1_555
O50 V5 1.963003 1_455
O51 P15 1.535498 1_555
O51 V4 1.918057 1_455
O52 P15 1.543240 1_555
O52 V3 2.046379 1_556
O53 P7 1.509113 1_555
O54 P14 1.617943 1_555
O54 P7 1.617943 1_555
O55 P14 1.551062 1_555
O55 V5 1.987427 1_455
O56 P2 1.531911 1_555
O57 P15 1.614405 1_555
O57 P2 1.633138 1_456
