# generated using pymatgen
data_KCeAgTe4
_symmetry_space_group_name_H-M   'P 1'
_cell_length_a   4.46801100
_cell_length_b   4.47213700
_cell_length_c   21.37648900
_cell_angle_alpha   90.00000000
_cell_angle_beta   90.00000000
_cell_angle_gamma   90.00000000
_symmetry_Int_Tables_number   1
_chemical_formula_structural   KCeAgTe4
_chemical_formula_sum   'K2 Ce2 Ag2 Te8'
_cell_volume   427.13554003
_cell_formula_units_Z   2
loop_
 _symmetry_equiv_pos_site_id
 _symmetry_equiv_pos_as_xyz
  1  'x, y, z'
loop_
 _atom_site_type_symbol
 _atom_site_label
 _atom_site_symmetry_multiplicity
 _atom_site_fract_x
 _atom_site_fract_y
 _atom_site_fract_z
 _atom_site_occupancy
  K  K0  1  0.52318800  0.50000000  0.64911500  1
  K  K1  1  0.02318800  0.00000000  0.35088500  1
  Ce  Ce0  1  0.50599100  0.50000000  0.09756500  1
  Ce  Ce1  1  0.00599100  0.00000000  0.90243500  1
  Ag  Ag0  1  0.52548500  0.00000000  0.49975500  1
  Ag  Ag1  1  0.02548500  0.50000000  0.50024500  1
  Te  Te0  1  0.50519400  0.50000000  0.94514700  1
  Te  Te1  1  0.52479700  0.50000000  0.41628600  1
  Te  Te2  1  0.50760200  0.00000000  0.79199200  1
  Te  Te3  1  0.00519400  0.00000000  0.05485300  1
  Te  Te4  1  0.50838700  0.00000000  0.20846300  1
  Te  Te5  1  0.02479700  0.00000000  0.58371400  1
  Te  Te6  1  0.00760200  0.50000000  0.20800800  1
  Te  Te7  1  0.00838700  0.50000000  0.79153700  1
loop_
_geom_bond_atom_site_label_1
_geom_bond_atom_site_label_2
_geom_bond_distance
_geom_bond_site_symmetry_2
K0 Te5 3.451556 1_565
K0 Te5 3.451556 1_555
K0 Te5 3.460850 1_665
K0 Te5 3.460850 1_655
K0 Te7 3.737453 1_655
K0 Te2 3.785900 1_555
K0 Te2 3.785900 1_565
K0 Te7 3.815691 1_555
K1 Te1 3.451556 1_455
K1 Te1 3.451556 1_445
K1 Te1 3.460850 1_545
K1 Te1 3.460850 1_555
K1 Te4 3.737453 1_555
K1 Te6 3.785900 1_555
K1 Te6 3.785900 1_545
K1 Te4 3.815691 1_455
Ce0 Te6 3.245373 1_555
Ce0 Te6 3.255267 1_655
Ce0 Te0 3.258164 1_554
Ce0 Te4 3.258820 1_565
Ce0 Te4 3.258820 1_555
Ce0 Te3 3.287630 1_655
Ce0 Te3 3.287630 1_665
Ce0 Te3 3.292466 1_565
Ce0 Te3 3.292466 1_555
Ce1 Te2 3.245373 1_455
Ce1 Te2 3.255267 1_555
Ce1 Te3 3.258164 1_556
Ce1 Te7 3.258820 1_555
Ce1 Te7 3.258820 1_545
Ce1 Te0 3.287630 1_555
Ce1 Te0 3.287630 1_545
Ce1 Te0 3.292466 1_445
Ce1 Te0 3.292466 1_455
Ag0 Te1 2.860707 1_545
Ag0 Te1 2.860707 1_555
Ag0 Te5 2.863246 1_655
Ag0 Te5 2.868039 1_555
Ag1 Te5 2.860707 1_555
Ag1 Te5 2.860707 1_565
Ag1 Te1 2.863246 1_555
Ag1 Te1 2.868039 1_455
Te2 Te7 3.158357 1_545
Te2 Te7 3.158357 1_555
Te2 Te7 3.163315 1_655
Te2 Te7 3.163315 1_645
Te4 Te6 3.158357 1_655
Te4 Te6 3.158357 1_645
Te4 Te6 3.163315 1_545
Te4 Te6 3.163315 1_555
