# generated using pymatgen
data_Zr5Al3
_symmetry_space_group_name_H-M   'P 1'
_cell_length_a   5.36587132
_cell_length_b   8.30376123
_cell_length_c   8.30407954
_cell_angle_alpha   84.01953943
_cell_angle_beta   71.15795868
_cell_angle_gamma   71.15827251
_symmetry_Int_Tables_number   1
_chemical_formula_structural   Zr5Al3
_chemical_formula_sum   'Zr10 Al6'
_cell_volume   331.41212035
_cell_formula_units_Z   2
loop_
 _symmetry_equiv_pos_site_id
 _symmetry_equiv_pos_as_xyz
  1  'x, y, z'
loop_
 _atom_site_type_symbol
 _atom_site_label
 _atom_site_symmetry_multiplicity
 _atom_site_fract_x
 _atom_site_fract_y
 _atom_site_fract_z
 _atom_site_occupancy
  Zr  Zr0  1  0.25004091  0.50000807  0.49993486  1
  Zr  Zr1  1  0.75002924  0.49992564  0.50000526  1
  Zr  Zr2  1  0.07846530  0.14114926  0.70214130  1
  Zr  Zr3  1  0.78042392  0.29790980  0.14107773  1
  Zr  Zr4  1  0.21956534  0.70206772  0.85896041  1
  Zr  Zr5  1  0.92151415  0.85890168  0.29784357  1
  Zr  Zr6  1  0.28043741  0.14106102  0.29789748  1
  Zr  Zr7  1  0.71955186  0.85897975  0.70208310  1
  Zr  Zr8  1  0.42151033  0.29787153  0.85888587  1
  Zr  Zr9  1  0.57847707  0.70211022  0.14115739  1
  Al  Al0  1  0.24998958  0.00001732  0.00000312  1
  Al  Al1  1  0.74998983  0.00000425  0.00001622  1
  Al  Al2  1  0.16355569  0.49999279  0.17288526  1
  Al  Al3  1  0.33646066  0.82708345  0.49998642  1
  Al  Al4  1  0.66354159  0.17292640  0.49999887  1
  Al  Al5  1  0.83644811  0.49999110  0.82712314  1
loop_
_geom_bond_atom_site_label_1
_geom_bond_atom_site_label_2
_geom_bond_distance
_geom_bond_site_symmetry_2
Zr0 Zr1 2.682841 1_555
Zr0 Zr1 2.683031 1_455
Zr2 Zr6 3.176987 1_555
Zr2 Zr8 3.197493 1_555
Zr2 Zr8 3.200077 1_455
Zr3 Zr9 3.176530 1_555
Zr3 Zr6 3.199500 1_555
Zr3 Zr6 3.199529 1_655
Zr4 Zr8 3.176496 1_555
Zr4 Zr7 3.199878 1_555
Zr4 Zr7 3.199882 1_455
Zr5 Zr7 3.176953 1_555
Zr5 Zr9 3.197514 1_555
Zr5 Zr9 3.200121 1_655
Al0 Al1 2.682934 1_455
Al0 Al1 2.682937 1_555
Al0 Zr6 2.916528 1_555
Al0 Zr8 2.916722 1_554
Al0 Zr4 2.916818 1_544
Al0 Zr2 2.916896 1_554
Al0 Zr5 2.917397 1_445
Al0 Zr3 2.917416 1_455
Al0 Zr7 2.917525 1_544
Al0 Zr9 2.917904 1_545
Al1 Zr5 2.916585 1_545
Al1 Zr3 2.916590 1_555
Al1 Zr7 2.916715 1_544
Al1 Zr9 2.917044 1_545
Al1 Zr6 2.917338 1_555
Al1 Zr8 2.917582 1_554
Al1 Zr4 2.917631 1_644
Al1 Zr2 2.917696 1_654
Al2 Zr0 2.899201 1_555
Al2 Zr1 2.899965 1_455
Al2 Zr4 2.934250 1_554
Al2 Zr8 2.934605 1_554
Al2 Zr5 2.986551 1_455
Al2 Zr6 2.987093 1_555
Al2 Zr9 3.127492 1_455
Al2 Zr3 3.127610 1_555
Al2 Zr3 3.127848 1_455
Al2 Zr9 3.128204 1_555
Al3 Zr0 2.899190 1_555
Al3 Zr1 2.900165 1_555
Al3 Zr6 2.934614 1_565
Al3 Zr2 2.935143 1_565
Al3 Zr9 2.986082 1_555
Al3 Zr4 2.987500 1_555
Al3 Zr7 3.127679 1_455
Al3 Zr5 3.127683 1_555
Al3 Zr7 3.128057 1_555
Al3 Zr5 3.128387 1_455
Al4 Zr1 2.898678 1_555
Al4 Zr0 2.899617 1_555
Al4 Zr7 2.934390 1_545
Al4 Zr5 2.934873 1_545
Al4 Zr8 2.986440 1_555
Al4 Zr3 2.987025 1_555
Al4 Zr2 3.127667 1_555
Al4 Zr6 3.127679 1_655
Al4 Zr6 3.128056 1_555
Al4 Zr2 3.128348 1_655
Al5 Zr1 2.899659 1_555
Al5 Zr0 2.900459 1_655
Al5 Zr3 2.934474 1_556
Al5 Zr9 2.934826 1_556
Al5 Zr2 2.986114 1_655
Al5 Zr7 2.987587 1_555
Al5 Zr8 3.127522 1_655
Al5 Zr4 3.127616 1_555
Al5 Zr4 3.127828 1_655
Al5 Zr8 3.128235 1_555
