# generated using pymatgen
data_CrFeO3
_symmetry_space_group_name_H-M   'P 1'
_cell_length_a   9.65559012
_cell_length_b   10.19567215
_cell_length_c   10.50062916
_cell_angle_alpha   88.81757558
_cell_angle_beta   96.66938364
_cell_angle_gamma   87.76435528
_symmetry_Int_Tables_number   1
_chemical_formula_structural   CrFeO3
_chemical_formula_sum   'Cr16 Fe16 O48'
_cell_volume   1025.63001343
_cell_formula_units_Z   16
loop_
 _symmetry_equiv_pos_site_id
 _symmetry_equiv_pos_as_xyz
  1  'x, y, z'
loop_
 _atom_site_type_symbol
 _atom_site_label
 _atom_site_symmetry_multiplicity
 _atom_site_fract_x
 _atom_site_fract_y
 _atom_site_fract_z
 _atom_site_occupancy
  Cr  Cr0  1  0.83989145  0.87642873  0.49220314  1
  Cr  Cr1  1  0.66779882  0.33062339  0.93932273  1
  Cr  Cr2  1  0.76551263  0.21929025  0.18223611  1
  Cr  Cr3  1  0.58636933  0.46192213  0.27861835  1
  Cr  Cr4  1  0.91038147  0.13005944  0.70423650  1
  Cr  Cr5  1  0.21663547  0.56882096  0.18208691  1
  Cr  Cr6  1  0.98778654  0.80671307  0.74382025  1
  Cr  Cr7  1  0.14115060  0.32405753  0.61362472  1
  Cr  Cr8  1  0.04771345  0.08324128  0.37463425  1
  Cr  Cr9  1  0.79717108  0.65096473  0.27638689  1
  Cr  Cr10  1  0.37510068  0.47599451  0.72888395  1
  Cr  Cr11  1  0.78822675  0.37234569  0.50800217  1
  Cr  Cr12  1  0.75179730  0.56138704  0.76546053  1
  Cr  Cr13  1  0.19829778  0.15710251  0.12284279  1
  Cr  Cr14  1  0.56129885  0.94093648  0.40969460  1
  Cr  Cr15  1  0.30598515  0.01318898  0.54226284  1
  Fe  Fe0  1  0.59194571  0.60555927  0.97116224  1
  Fe  Fe1  1  0.46776971  0.76107871  0.15348486  1
  Fe  Fe2  1  0.14935519  0.87905014  0.01120540  1
  Fe  Fe3  1  0.87570456  0.94300954  0.16629796  1
  Fe  Fe4  1  0.46284446  0.29141399  0.51999769  1
  Fe  Fe5  1  0.71922713  0.93364998  0.87859159  1
  Fe  Fe6  1  0.38970697  0.34827348  0.04743800  1
  Fe  Fe7  1  0.37377860  0.82393724  0.82923814  1
  Fe  Fe8  1  0.48569491  0.66835736  0.56944118  1
  Fe  Fe9  1  0.90050978  0.68472653  0.98517804  1
  Fe  Fe10  1  0.96267844  0.40338839  0.05766526  1
  Fe  Fe11  1  0.48462447  0.05522119  0.06451573  1
  Fe  Fe12  1  0.02558398  0.39838339  0.31819364  1
  Fe  Fe13  1  0.26716196  0.87438196  0.30190570  1
  Fe  Fe14  1  0.14829166  0.57155178  0.84752896  1
  Fe  Fe15  1  0.33185862  0.14470350  0.82108509  1
  O  O0  1  0.24223825  0.75207749  0.15665682  1
  O  O1  1  0.97860893  0.39754494  0.49249031  1
  O  O2  1  0.05869361  0.22239271  0.74385244  1
  O  O3  1  0.70153540  0.94994470  0.55848268  1
  O  O4  1  0.71087388  0.80328234  0.37112331  1
  O  O5  1  0.79544759  0.49063366  0.94491829  1
  O  O6  1  0.69590665  0.06058193  0.14515478  1
  O  O7  1  0.42564460  0.70317422  0.97516492  1
  O  O8  1  0.62419294  0.62329236  0.16485058  1
  O  O9  1  0.44659510  0.09287201  0.47513434  1
  O  O10  1  0.08237862  0.56850501  0.02930912  1
  O  O11  1  0.88784306  0.75357351  0.15182684  1
  O  O12  1  0.34393164  0.28706612  0.68123862  1
  O  O13  1  0.39527943  0.67889588  0.71925315  1
  O  O14  1  0.96673608  0.97455143  0.65019585  1
  O  O15  1  0.83296572  0.19147981  0.55882264  1
  O  O16  1  0.56914072  0.47533075  0.82695156  1
  O  O17  1  0.50070548  0.21814550  0.93825444  1
  O  O18  1  0.38642529  0.18673905  0.16234502  1
  O  O19  1  0.71925702  0.53362111  0.39978832  1
  O  O20  1  0.94683385  0.75233080  0.56092948  1
  O  O21  1  0.78842892  0.10721208  0.80746091  1
  O  O22  1  0.14873570  0.55234758  0.32569445  1
  O  O23  1  0.67377111  0.67417841  0.64381089  1
  O  O24  1  0.84059838  0.24432130  0.03136311  1
  O  O25  1  0.26224175  0.04064213  0.98394767  1
  O  O26  1  0.16860044  0.16964763  0.50369545  1
  O  O27  1  0.17206002  0.76995086  0.83970929  1
  O  O28  1  0.42512050  0.83646213  0.48161588  1
  O  O29  1  0.62092932  0.31576347  0.40950348  1
  O  O30  1  0.88356406  0.49170751  0.21327214  1
  O  O31  1  0.30436972  0.45678678  0.90341170  1
  O  O32  1  0.77687796  0.41320078  0.67158086  1
  O  O33  1  0.43962937  0.48917953  0.55128281  1
  O  O34  1  0.90954614  0.22998761  0.30659159  1
  O  O35  1  0.12775507  0.32541615  0.17981481  1
  O  O36  1  0.63018510  0.34893433  0.12789928  1
  O  O37  1  0.31701721  0.97966203  0.71241998  1
  O  O38  1  0.16862591  0.49808734  0.68149549  1
  O  O39  1  0.89630039  0.96865329  0.36151906  1
  O  O40  1  0.08823626  0.02202711  0.19339428  1
  O  O41  1  0.93768543  0.86756793  0.91627963  1
  O  O42  1  0.45437837  0.93084394  0.23297270  1
  O  O43  1  0.94414727  0.62822060  0.80061451  1
  O  O44  1  0.70951061  0.72467561  0.89325747  1
  O  O45  1  0.16966415  0.93553157  0.44225886  1
  O  O46  1  0.52212671  0.94398519  0.92088369  1
  O  O47  1  0.38821876  0.48377862  0.19130225  1
loop_
_geom_bond_atom_site_label_1
_geom_bond_atom_site_label_2
_geom_bond_distance
_geom_bond_site_symmetry_2
Cr0 O20 1.695651 1_555
Cr0 O3 1.729227 1_555
Cr0 O39 1.795614 1_555
Cr0 O4 1.862328 1_555
Cr0 O14 2.223819 1_555
Cr1 O24 1.991972 1_556
Cr1 O16 2.008470 1_555
Cr1 O17 2.014680 1_555
Cr1 O36 2.065152 1_556
Cr1 O5 2.080405 1_555
Cr2 O34 1.801957 1_555
Cr2 O6 1.808798 1_555
Cr2 O24 1.834442 1_555
Cr2 O36 1.855008 1_555
Cr3 O19 1.879365 1_555
Cr3 O29 1.997765 1_555
Cr3 O47 2.025269 1_555
Cr3 O36 2.050262 1_555
Cr3 O8 2.081962 1_555
Cr4 O21 1.709725 1_555
Cr4 O15 1.715032 1_555
Cr4 O2 1.758691 1_655
Cr4 O14 1.781426 1_545
Cr5 O22 1.720404 1_555
Cr5 O47 1.831166 1_555
Cr5 O0 1.911597 1_555
Cr5 O10 1.942065 1_555
Cr6 O14 1.947597 1_555
Cr6 O27 1.958668 1_655
Cr6 O43 1.979513 1_555
Cr6 O20 2.009141 1_555
Cr6 O41 2.030986 1_555
Cr7 O38 1.942066 1_555
Cr7 O2 1.958843 1_555
Cr7 O26 1.998672 1_555
Cr7 O1 2.011886 1_455
Cr7 O12 2.021982 1_555
Cr8 O39 1.901163 1_445
Cr8 O26 1.933196 1_555
Cr8 O45 1.944759 1_545
Cr8 O34 2.026716 1_455
Cr8 O40 2.089850 1_555
Cr9 O8 1.958809 1_555
Cr9 O30 1.959272 1_555
Cr9 O11 1.962823 1_555
Cr9 O19 1.977140 1_555
Cr9 O4 2.061797 1_555
Cr10 O38 2.000710 1_555
Cr10 O12 2.025180 1_555
Cr10 O16 2.030103 1_555
Cr10 O31 2.037088 1_555
Cr10 O33 2.037230 1_555
Cr10 O13 2.086903 1_555
Cr11 O32 1.790427 1_555
Cr11 O1 1.891133 1_555
Cr11 O15 1.927588 1_555
Cr11 O29 1.929041 1_555
Cr11 O19 2.024878 1_555
Cr12 O23 1.780461 1_555
Cr12 O32 1.844318 1_555
Cr12 O5 1.996184 1_555
Cr12 O43 1.999961 1_555
Cr12 O16 2.158496 1_555
Cr12 O44 2.214873 1_555
Cr13 O18 1.853631 1_555
Cr13 O35 1.952577 1_555
Cr13 O40 1.956980 1_555
Cr13 O25 2.035124 1_554
Cr14 O28 1.934069 1_555
Cr14 O3 1.951192 1_555
Cr14 O42 2.022661 1_555
Cr14 O9 2.045809 1_565
Cr14 O4 2.054458 1_555
Cr15 O37 1.802342 1_545
Cr15 O45 1.804639 1_545
Cr15 O9 1.812426 1_555
Cr15 O26 2.037601 1_555
Cr15 O28 2.243047 1_545
Fe0 O7 1.861020 1_555
Fe0 O44 1.927429 1_555
Fe0 O16 2.032955 1_555
Fe0 O8 2.034368 1_556
Fe0 O5 2.295507 1_555
Fe1 O42 1.943333 1_555
Fe1 O7 1.976761 1_554
Fe1 O8 2.013611 1_555
Fe1 O0 2.187226 1_555
Fe2 O25 2.043891 1_564
Fe2 O0 2.079092 1_555
Fe2 O27 2.164175 1_554
Fe2 O41 2.175927 1_454
Fe2 O40 2.538396 1_565
Fe3 O11 1.940574 1_555
Fe3 O6 2.058460 1_565
Fe3 O39 2.059530 1_555
Fe3 O40 2.223516 1_665
Fe4 O29 2.041271 1_555
Fe4 O33 2.057432 1_555
Fe4 O9 2.095514 1_555
Fe4 O12 2.153924 1_555
Fe5 O46 2.003195 1_555
Fe5 O21 2.071087 1_565
Fe5 O44 2.139516 1_555
Fe5 O41 2.178097 1_555
Fe6 O31 1.939228 1_554
Fe6 O18 2.024911 1_555
Fe6 O47 2.068978 1_555
Fe6 O17 2.112017 1_554
Fe6 O36 2.377214 1_555
Fe7 O13 1.914675 1_555
Fe7 O7 1.952074 1_555
Fe7 O37 2.005368 1_555
Fe7 O27 2.059012 1_555
Fe7 O46 2.083540 1_555
Fe8 O13 1.888668 1_555
Fe8 O23 1.895281 1_555
Fe8 O33 1.905152 1_555
Fe8 O28 1.965054 1_555
Fe9 O11 1.914054 1_556
Fe9 O44 2.002588 1_555
Fe9 O41 2.045566 1_555
Fe9 O10 2.080517 1_656
Fe9 O43 2.117128 1_555
Fe9 O5 2.283727 1_555
Fe10 O24 2.046455 1_555
Fe10 O5 2.049545 1_554
Fe10 O35 2.049856 1_655
Fe10 O30 2.088356 1_555
Fe10 O10 2.114147 1_655
Fe11 O46 1.964058 1_544
Fe11 O18 1.984001 1_555
Fe11 O6 2.119239 1_555
Fe11 O17 2.125627 1_554
Fe11 O42 2.208783 1_545
Fe11 O25 2.226341 1_554
Fe12 O30 1.871797 1_455
Fe12 O1 1.935976 1_455
Fe12 O35 1.989575 1_555
Fe12 O22 2.003327 1_555
Fe12 O34 2.084455 1_455
Fe13 O45 1.939437 1_555
Fe13 O0 1.988910 1_555
Fe13 O42 2.119195 1_555
Fe13 O28 2.300444 1_555
Fe13 O40 2.412083 1_565
Fe14 O31 1.900865 1_555
Fe14 O38 1.939369 1_555
Fe14 O43 2.033649 1_455
Fe14 O27 2.045708 1_555
Fe14 O10 2.081063 1_556
Fe15 O37 2.052832 1_545
Fe15 O12 2.059565 1_555
Fe15 O17 2.097553 1_555
Fe15 O25 2.179434 1_555
