# generated using pymatgen
data_CuAsPtS2
_symmetry_space_group_name_H-M   'P 1'
_cell_length_a   8.15793921
_cell_length_b   8.15793921
_cell_length_c   5.90373000
_cell_angle_alpha   90.00000000
_cell_angle_beta   90.00000000
_cell_angle_gamma   152.95420597
_symmetry_Int_Tables_number   1
_chemical_formula_structural   CuAsPtS2
_chemical_formula_sum   'Cu2 As2 Pt2 S4'
_cell_volume   178.65482768
_cell_formula_units_Z   2
loop_
 _symmetry_equiv_pos_site_id
 _symmetry_equiv_pos_as_xyz
  1  'x, y, z'
loop_
 _atom_site_type_symbol
 _atom_site_label
 _atom_site_symmetry_multiplicity
 _atom_site_fract_x
 _atom_site_fract_y
 _atom_site_fract_z
 _atom_site_occupancy
  Cu  Cu0  1  0.94885500  0.05114500  0.23332300  1
  Cu  Cu1  1  0.05114500  0.94885500  0.73332300  1
  As  As0  1  0.73326000  0.26674000  0.63384000  1
  As  As1  1  0.26674000  0.73326000  0.13384000  1
  Pt  Pt0  1  0.67593100  0.32406900  0.24337700  1
  Pt  Pt1  1  0.32406900  0.67593100  0.74337700  1
  S  S0  1  0.91678300  0.08321700  0.85867800  1
  S  S1  1  0.08321700  0.91678300  0.35867800  1
  S  S2  1  0.61642000  0.38358000  0.86478200  1
  S  S3  1  0.38358000  0.61642000  0.36478200  1
loop_
_geom_bond_atom_site_label_1
_geom_bond_atom_site_label_2
_geom_bond_distance
_geom_bond_site_symmetry_2
Cu0 S1 2.256281 1_645
Cu0 S0 2.269565 1_554
Cu0 S3 2.305108 1_545
Cu0 S3 2.305108 1_655
Cu1 S0 2.256281 1_465
Cu1 S1 2.269565 1_555
Cu1 S2 2.305108 1_565
Cu1 S2 2.305108 1_455
As0 S2 2.300948 1_555
As0 Pt1 2.476355 1_545
As0 Pt1 2.476355 1_655
As0 Pt0 2.478099 1_555
As1 S3 2.300948 1_555
As1 Pt0 2.476355 1_565
As1 Pt0 2.476355 1_455
As1 Pt1 2.478099 1_554
Pt0 S2 2.426317 1_554
Pt0 S1 2.503095 1_655
Pt0 S1 2.503095 1_545
Pt1 S3 2.426317 1_555
Pt1 S0 2.503095 1_565
Pt1 S0 2.503095 1_455
