# generated using pymatgen
data_Y2Co7B3
_symmetry_space_group_name_H-M   'P 1'
_cell_length_a   5.04943030
_cell_length_b   5.05062267
_cell_length_c   12.71706300
_cell_angle_alpha   89.99990528
_cell_angle_beta   90.00020104
_cell_angle_gamma   119.99218579
_symmetry_Int_Tables_number   1
_chemical_formula_structural   Y2Co7B3
_chemical_formula_sum   'Y4 Co14 B6'
_cell_volume   280.89172912
_cell_formula_units_Z   2
loop_
 _symmetry_equiv_pos_site_id
 _symmetry_equiv_pos_as_xyz
  1  'x, y, z'
loop_
 _atom_site_type_symbol
 _atom_site_label
 _atom_site_symmetry_multiplicity
 _atom_site_fract_x
 _atom_site_fract_y
 _atom_site_fract_z
 _atom_site_occupancy
  Y  Y0  1  0.99997900  0.00000000  0.99999500  1
  Y  Y1  1  0.99999200  0.00000000  0.49983300  1
  Y  Y2  1  0.99998900  0.00000000  0.26096100  1
  Y  Y3  1  0.00000600  0.00000000  0.73915500  1
  Co  Co0  1  0.33332800  0.66669300  0.99995300  1
  Co  Co1  1  0.66663500  0.33330700  0.99995300  1
  Co  Co2  1  0.49999200  0.00000000  0.15424500  1
  Co  Co3  1  0.49998600  0.50000500  0.15445300  1
  Co  Co4  1  0.99998100  0.49999500  0.15445300  1
  Co  Co5  1  0.50000300  0.00000000  0.84566200  1
  Co  Co6  1  0.50000300  0.50000000  0.84573500  1
  Co  Co7  1  0.00000400  0.50000000  0.84573500  1
  Co  Co8  1  0.49998800  0.00000000  0.38443300  1
  Co  Co9  1  0.49998700  0.50000100  0.38444200  1
  Co  Co10  1  0.99998600  0.49999900  0.38444200  1
  Co  Co11  1  0.49999800  0.00000000  0.61547200  1
  Co  Co12  1  0.49999800  0.50000000  0.61550700  1
  Co  Co13  1  0.99999700  0.50000000  0.61550700  1
  B  B0  1  0.33336300  0.66674900  0.49989200  1
  B  B1  1  0.66661400  0.33325100  0.49989200  1
  B  B2  1  0.33309600  0.66623100  0.26824100  1
  B  B3  1  0.66686500  0.33376900  0.26824100  1
  B  B4  1  0.66663900  0.33326800  0.73189900  1
  B  B5  1  0.33337100  0.66673200  0.73189900  1
loop_
_geom_bond_atom_site_label_1
_geom_bond_atom_site_label_2
_geom_bond_distance
_geom_bond_site_symmetry_2
Y1 Y2 3.037750 1_555
Y1 Y3 3.043473 1_655
Co0 Co7 2.443611 1_555
Co0 Co6 2.443732 1_555
Co0 Co5 2.444520 1_565
Co0 Co2 2.444530 1_566
Co0 Co3 2.446547 1_556
Co0 Co4 2.446557 1_456
Co0 Y0 2.915451 1_565
Co0 Y0 2.915473 1_465
Co0 Y0 2.916323 1_455
Co1 Co6 2.443613 1_555
Co1 Co7 2.443735 1_655
Co1 Co5 2.444520 1_555
Co1 Co2 2.444531 1_556
Co1 Co4 2.446547 1_556
Co1 Co3 2.446557 1_556
Co1 Y0 2.915451 1_555
Co1 Y0 2.915473 1_455
Co1 Y0 2.916323 1_565
Co2 Y2 2.866329 1_555
Co2 Y2 2.866365 1_455
Co3 Y2 2.865614 1_565
Co3 Y2 2.865628 1_455
Co4 Y2 2.865615 1_555
Co4 Y2 2.865627 1_565
Co5 Y3 2.865072 1_555
Co5 Y3 2.865107 1_655
Co6 Y3 2.866045 1_555
Co6 Y3 2.866063 1_665
Co7 Y3 2.866047 1_565
Co7 Y3 2.866060 1_555
Co8 Y1 2.920242 1_455
Co8 Y1 2.920268 1_555
Co8 Y2 2.973157 1_455
Co8 Y2 2.973175 1_555
Co9 Y1 2.920706 1_455
Co9 Y1 2.920719 1_565
Co9 Y2 2.973729 1_455
Co9 Y2 2.973738 1_565
Co10 Y1 2.920706 1_565
Co10 Y1 2.920719 1_555
Co10 Y2 2.973729 1_565
Co10 Y2 2.973737 1_555
Co11 Y1 2.921761 1_555
Co11 Y1 2.921805 1_455
Co11 Y3 2.974555 1_555
Co11 Y3 2.974614 1_655
Co12 Y1 2.922512 1_565
Co12 Y1 2.922533 1_455
Co12 Y3 2.974841 1_555
Co12 Y3 2.974870 1_665
Co13 Y1 2.922514 1_555
Co13 Y1 2.922531 1_565
Co13 Y3 2.974838 1_665
Co13 Y3 2.974872 1_655
B0 Co8 2.069039 1_565
B0 Co9 2.069091 1_555
B0 Co10 2.069100 1_455
B0 Co11 2.070131 1_565
B0 Co13 2.070562 1_455
B0 Co12 2.070611 1_555
B0 Y1 2.915324 1_465
B0 Y1 2.915355 1_565
B0 Y1 2.916568 1_455
B1 Co8 2.069038 1_555
B1 Co10 2.069091 1_555
B1 Co9 2.069100 1_555
B1 Co11 2.070131 1_555
B1 Co12 2.070559 1_555
B1 Co13 2.070608 1_555
B1 Y1 2.915324 1_455
B1 Y1 2.915355 1_555
B1 Y1 2.916568 1_565
B2 Co4 2.053344 1_455
B2 Co3 2.053353 1_555
B2 Co2 2.057484 1_565
B2 Co10 2.075074 1_455
B2 Co9 2.075102 1_555
B2 Co8 2.077256 1_565
B2 Y2 2.915772 1_455
B2 Y2 2.917905 1_465
B2 Y2 2.917980 1_565
B3 Co3 2.053344 1_555
B3 Co4 2.053353 1_555
B3 Co2 2.057484 1_555
B3 Co9 2.075074 1_555
B3 Co10 2.075102 1_555
B3 Co8 2.077256 1_555
B3 Y2 2.915772 1_565
B3 Y2 2.917905 1_455
B3 Y2 2.917979 1_555
B4 Co5 2.053842 1_555
B4 Co7 2.054549 1_655
B4 Co6 2.054565 1_555
B4 Co13 2.077566 1_555
B4 Co12 2.077605 1_555
B4 Co11 2.077845 1_555
B4 Y3 2.916833 1_555
B4 Y3 2.916840 1_655
B4 Y3 2.917953 1_665
B5 Co5 2.053841 1_565
B5 Co6 2.054546 1_555
B5 Co7 2.054562 1_555
B5 Co12 2.077568 1_555
B5 Co13 2.077608 1_455
B5 Co11 2.077845 1_565
B5 Y3 2.916832 1_565
B5 Y3 2.916841 1_665
B5 Y3 2.917953 1_555
