# generated using pymatgen
data_Rb7Nd11Te12(Br4O9)4
_symmetry_space_group_name_H-M   'P 1'
_cell_length_a   16.31476685
_cell_length_b   16.31476685
_cell_length_c   17.72221833
_cell_angle_alpha   117.40590982
_cell_angle_beta   117.40590982
_cell_angle_gamma   90.00000000
_symmetry_Int_Tables_number   1
_chemical_formula_structural   Rb7Nd11Te12(Br4O9)4
_chemical_formula_sum   'Rb14 Nd22 Te24 Br32 O72'
_cell_volume   3580.88579749
_cell_formula_units_Z   2
loop_
 _symmetry_equiv_pos_site_id
 _symmetry_equiv_pos_as_xyz
  1  'x, y, z'
loop_
 _atom_site_type_symbol
 _atom_site_label
 _atom_site_symmetry_multiplicity
 _atom_site_fract_x
 _atom_site_fract_y
 _atom_site_fract_z
 _atom_site_occupancy
  Rb  Rb0  1  0.75000000  0.25000000  0.50000000  1
  Rb  Rb1  1  0.25000000  0.75000000  0.50000000  1
  Rb  Rb2  1  0.38239299  0.11760701  -0.00000000  1
  Rb  Rb3  1  0.61760701  0.88239299  -0.00000000  1
  Rb  Rb4  1  0.11760701  0.61760701  1.00000000  1
  Rb  Rb5  1  0.88239299  0.38239299  0.00000000  1
  Rb  Rb6  1  0.37708862  0.63066649  0.00000000  1
  Rb  Rb7  1  0.62291138  0.36933351  1.00000000  1
  Rb  Rb8  1  0.12291138  0.13066649  0.00000000  1
  Rb  Rb9  1  0.87708862  0.86933351  1.00000000  1
  Rb  Rb10  1  0.36933351  0.37708862  1.00000000  1
  Rb  Rb11  1  0.63066649  0.62291138  0.00000000  1
  Rb  Rb12  1  0.86933351  0.12291138  1.00000000  1
  Rb  Rb13  1  0.13066649  0.87708862  0.00000000  1
  Nd  Nd0  1  0.75000000  0.75000000  0.50000000  1
  Nd  Nd1  1  0.25000000  0.25000000  0.50000000  1
  Nd  Nd2  1  0.51681229  0.01681229  0.27837590  1
  Nd  Nd3  1  0.76156362  0.26156362  0.27837590  1
  Nd  Nd4  1  0.26156362  0.51681229  0.27837590  1
  Nd  Nd5  1  0.01681229  0.76156362  0.27837590  1
  Nd  Nd6  1  0.48318771  0.98318771  0.72162410  1
  Nd  Nd7  1  0.23843638  0.73843638  0.72162410  1
  Nd  Nd8  1  0.73843638  0.48318771  0.72162410  1
  Nd  Nd9  1  0.98318771  0.23843638  0.72162410  1
  Nd  Nd10  1  0.75000000  0.00449251  0.50000000  1
  Nd  Nd11  1  0.75000000  0.49550749  0.50000000  1
  Nd  Nd12  1  0.25000000  0.50449251  0.50000000  1
  Nd  Nd13  1  0.25000000  0.99550749  0.50000000  1
  Nd  Nd14  1  0.49550749  0.75000000  0.50000000  1
  Nd  Nd15  1  0.00449251  0.75000000  0.50000000  1
  Nd  Nd16  1  0.99550749  0.25000000  0.50000000  1
  Nd  Nd17  1  0.50449251  0.25000000  0.50000000  1
  Nd  Nd18  1  0.50000000  -0.00000000  0.50000000  1
  Nd  Nd19  1  0.00000000  0.50000000  0.50000000  1
  Nd  Nd20  1  0.50000000  0.50000000  0.50000000  1
  Nd  Nd21  1  0.00000000  -0.00000000  0.50000000  1
  Te  Te0  1  0.53647814  0.80134497  0.31731701  1
  Te  Te1  1  0.78083887  0.51597204  0.31731701  1
  Te  Te2  1  0.28083887  0.30134497  0.31731701  1
  Te  Te3  1  0.03647814  0.01597204  0.31731701  1
  Te  Te4  1  0.51597204  0.53647814  0.31731701  1
  Te  Te5  1  0.80134497  0.78083887  0.31731701  1
  Te  Te6  1  0.01597204  0.28083887  0.31731701  1
  Te  Te7  1  0.30134497  0.03647814  0.31731701  1
  Te  Te8  1  0.46352186  0.19865503  0.68268299  1
  Te  Te9  1  0.21916113  0.48402796  0.68268299  1
  Te  Te10  1  0.71916113  0.69865503  0.68268299  1
  Te  Te11  1  0.96352186  0.98402796  0.68268299  1
  Te  Te12  1  0.48402796  0.46352186  0.68268299  1
  Te  Te13  1  0.19865503  0.21916113  0.68268299  1
  Te  Te14  1  0.98402796  0.71916113  0.68268299  1
  Te  Te15  1  0.69865503  0.96352186  0.68268299  1
  Te  Te16  1  0.71119192  0.21119192  0.65905023  1
  Te  Te17  1  0.94785831  0.44785831  0.65905023  1
  Te  Te18  1  0.44785831  0.71119192  0.65905023  1
  Te  Te19  1  0.21119192  0.94785831  0.65905023  1
  Te  Te20  1  0.28880808  0.78880808  0.34094977  1
  Te  Te21  1  0.05214169  0.55214169  0.34094977  1
  Te  Te22  1  0.55214169  0.28880808  0.34094977  1
  Te  Te23  1  0.78880808  0.05214169  0.34094977  1
  Br  Br0  1  0.58175399  0.08175399  0.16350798  1
  Br  Br1  1  0.08175399  0.58175399  0.16350798  1
  Br  Br2  1  0.41824601  0.91824601  0.83649202  1
  Br  Br3  1  0.91824601  0.41824601  0.83649202  1
  Br  Br4  1  0.57249319  0.83531126  0.15663016  1
  Br  Br5  1  0.58413697  0.32131890  0.15663016  1
  Br  Br6  1  0.08413697  0.33531126  0.15663016  1
  Br  Br7  1  0.07249319  0.82131890  0.15663016  1
  Br  Br8  1  0.32131890  0.57249319  0.15663016  1
  Br  Br9  1  0.83531126  0.58413697  0.15663016  1
  Br  Br10  1  0.82131890  0.08413697  0.15663016  1
  Br  Br11  1  0.33531126  0.07249319  0.15663016  1
  Br  Br12  1  0.42750681  0.16468874  0.84336984  1
  Br  Br13  1  0.41586303  0.67868110  0.84336984  1
  Br  Br14  1  0.91586303  0.66468874  0.84336984  1
  Br  Br15  1  0.92750681  0.17868110  0.84336984  1
  Br  Br16  1  0.67868110  0.42750681  0.84336984  1
  Br  Br17  1  0.16468874  0.41586303  0.84336984  1
  Br  Br18  1  0.17868110  0.91586303  0.84336984  1
  Br  Br19  1  0.66468874  0.92750681  0.84336984  1
  Br  Br20  1  0.57902300  0.57902300  0.15804600  1
  Br  Br21  1  0.07902300  0.07902300  0.15804600  1
  Br  Br22  1  0.42097700  0.42097700  0.84195400  1
  Br  Br23  1  0.92097700  0.92097700  0.84195400  1
  Br  Br24  1  0.33458224  0.83458224  0.16090353  1
  Br  Br25  1  0.82632128  0.32632128  0.16090353  1
  Br  Br26  1  0.32632128  0.33458224  0.16090353  1
  Br  Br27  1  0.83458224  0.82632128  0.16090353  1
  Br  Br28  1  0.66541776  0.16541776  0.83909647  1
  Br  Br29  1  0.17367872  0.67367872  0.83909647  1
  Br  Br30  1  0.67367872  0.66541776  0.83909647  1
  Br  Br31  1  0.16541776  0.17367872  0.83909647  1
  O  O0  1  0.55938031  0.93746722  0.36987595  1
  O  O1  1  0.81049564  0.43240873  0.36987595  1
  O  O2  1  0.31049564  0.43746722  0.36987595  1
  O  O3  1  0.05938031  0.93240873  0.36987595  1
  O  O4  1  0.43240873  0.55938031  0.36987595  1
  O  O5  1  0.93746722  0.81049564  0.36987595  1
  O  O6  1  0.93240873  0.31049564  0.36987595  1
  O  O7  1  0.43746722  0.05938031  0.36987595  1
  O  O8  1  0.44061969  0.06253278  0.63012405  1
  O  O9  1  0.18950436  0.56759127  0.63012405  1
  O  O10  1  0.68950436  0.56253278  0.63012405  1
  O  O11  1  0.94061969  0.06759127  0.63012405  1
  O  O12  1  0.56759127  0.44061969  0.63012405  1
  O  O13  1  0.06253278  0.18950436  0.63012405  1
  O  O14  1  0.06759127  0.68950436  0.63012405  1
  O  O15  1  0.56253278  0.94061969  0.63012405  1
  O  O16  1  0.66986922  0.82489506  0.40298936  1
  O  O17  1  0.73312014  0.57809430  0.40298936  1
  O  O18  1  0.23312014  0.32489506  0.40298936  1
  O  O19  1  0.16986922  0.07809430  0.40298936  1
  O  O20  1  0.57809430  0.66986922  0.40298936  1
  O  O21  1  0.82489506  0.73312014  0.40298936  1
  O  O22  1  0.07809430  0.23312014  0.40298936  1
  O  O23  1  0.32489506  0.16986922  0.40298936  1
  O  O24  1  0.33013078  0.17510494  0.59701064  1
  O  O25  1  0.26687986  0.42190570  0.59701064  1
  O  O26  1  0.76687986  0.67510494  0.59701064  1
  O  O27  1  0.83013078  0.92190570  0.59701064  1
  O  O28  1  0.42190570  0.33013078  0.59701064  1
  O  O29  1  0.17510494  0.26687986  0.59701064  1
  O  O30  1  0.92190570  0.76687986  0.59701064  1
  O  O31  1  0.67510494  0.83013078  0.59701064  1
  O  O32  1  0.81256649  0.18204747  0.63211387  1
  O  O33  1  0.81954738  0.45006640  0.63211387  1
  O  O34  1  0.31954738  0.68204747  0.63211387  1
  O  O35  1  0.31256649  0.95006640  0.63211387  1
  O  O36  1  0.45006640  0.81256649  0.63211387  1
  O  O37  1  0.18204747  0.81954738  0.63211387  1
  O  O38  1  0.95006640  0.31954738  0.63211387  1
  O  O39  1  0.68204747  0.31256649  0.63211387  1
  O  O40  1  0.18743351  0.81795253  0.36788613  1
  O  O41  1  0.18045262  0.54993360  0.36788613  1
  O  O42  1  0.68045262  0.31795253  0.36788613  1
  O  O43  1  0.68743351  0.04993360  0.36788613  1
  O  O44  1  0.54993360  0.18743351  0.36788613  1
  O  O45  1  0.81795253  0.18045262  0.36788613  1
  O  O46  1  0.04993360  0.68045262  0.36788613  1
  O  O47  1  0.31795253  0.68743351  0.36788613  1
  O  O48  1  0.48686238  0.82116070  0.40202229  1
  O  O49  1  0.91515991  0.58086159  0.40202229  1
  O  O50  1  0.41515991  0.32116070  0.40202229  1
  O  O51  1  0.98686238  0.08086159  0.40202229  1
  O  O52  1  0.58086159  0.48686238  0.40202229  1
  O  O53  1  0.82116070  0.91515991  0.40202229  1
  O  O54  1  0.08086159  0.41515991  0.40202229  1
  O  O55  1  0.32116070  0.98686238  0.40202229  1
  O  O56  1  0.51313762  0.17883930  0.59797771  1
  O  O57  1  0.08484009  0.41913841  0.59797771  1
  O  O58  1  0.58484009  0.67883930  0.59797771  1
  O  O59  1  0.01313762  0.91913841  0.59797771  1
  O  O60  1  0.41913841  0.51313762  0.59797771  1
  O  O61  1  0.17883930  0.08484009  0.59797771  1
  O  O62  1  0.91913841  0.58484009  0.59797771  1
  O  O63  1  0.67883930  0.01313762  0.59797771  1
  O  O64  1  0.62145158  0.12145158  0.52258309  1
  O  O65  1  0.90113151  0.40113151  0.52258309  1
  O  O66  1  0.40113151  0.62145158  0.52258309  1
  O  O67  1  0.12145158  0.90113151  0.52258309  1
  O  O68  1  0.37854842  0.87854842  0.47741691  1
  O  O69  1  0.09886849  0.59886849  0.47741691  1
  O  O70  1  0.59886849  0.37854842  0.47741691  1
  O  O71  1  0.87854842  0.09886849  0.47741691  1
loop_
_geom_bond_atom_site_label_1
_geom_bond_atom_site_label_2
_geom_bond_distance
_geom_bond_site_symmetry_2
Nd0 O27 2.454120 1_555
Nd0 O20 2.454120 1_555
Nd0 O30 2.454120 1_555
Nd0 O17 2.454120 1_555
Nd0 O16 2.454120 1_555
Nd0 O31 2.454120 1_555
Nd0 O21 2.454120 1_555
Nd0 O26 2.454120 1_555
Nd1 O28 2.454120 1_555
Nd1 O19 2.454120 1_555
Nd1 O25 2.454120 1_555
Nd1 O22 2.454120 1_555
Nd1 O23 2.454120 1_555
Nd1 O24 2.454120 1_555
Nd1 O18 2.454120 1_555
Nd1 O29 2.454120 1_555
Nd2 O0 2.383959 1_545
Nd2 O7 2.383959 1_555
Nd2 O44 2.388076 1_555
Nd2 O43 2.388076 1_555
Nd3 O1 2.383959 1_555
Nd3 O6 2.383959 1_555
Nd3 O42 2.388076 1_555
Nd3 O45 2.388076 1_555
Nd4 O4 2.383959 1_555
Nd4 O2 2.383959 1_555
Nd4 O47 2.388076 1_555
Nd4 O41 2.388076 1_555
Nd5 O3 2.383959 1_555
Nd5 O5 2.383959 1_455
Nd5 O40 2.388076 1_555
Nd5 O46 2.388076 1_555
Nd6 O8 2.383959 1_565
Nd6 O15 2.383959 1_555
Nd6 O35 2.388076 1_555
Nd6 O36 2.388076 1_555
Nd7 O14 2.383959 1_555
Nd7 O9 2.383959 1_555
Nd7 O34 2.388076 1_555
Nd7 O37 2.388076 1_555
Nd8 O12 2.383959 1_555
Nd8 O10 2.383959 1_555
Nd8 O39 2.388076 1_555
Nd8 O33 2.388076 1_555
Nd9 O11 2.383959 1_555
Nd9 O13 2.383959 1_655
Nd9 O32 2.388076 1_555
Nd9 O38 2.388076 1_555
Nd10 O53 2.452163 1_545
Nd10 O63 2.452163 1_555
Nd10 O32 2.543869 1_555
Nd10 O43 2.543869 1_555
Nd10 O16 2.558072 1_545
Nd10 O27 2.558073 1_545
Nd10 O0 2.694762 1_545
Nd10 O11 2.694762 1_555
Nd10 O64 2.875643 1_555
Nd10 O71 2.875643 1_555
Nd11 O62 2.452163 1_555
Nd11 O52 2.452163 1_555
Nd11 O42 2.543869 1_555
Nd11 O33 2.543869 1_555
Nd11 O26 2.558072 1_555
Nd11 O17 2.558073 1_555
Nd11 O10 2.694762 1_555
Nd11 O1 2.694762 1_555
Nd11 O70 2.875643 1_555
Nd11 O65 2.875643 1_555
Nd12 O54 2.452163 1_555
Nd12 O60 2.452163 1_555
Nd12 O34 2.543869 1_555
Nd12 O41 2.543869 1_555
Nd12 O18 2.558072 1_555
Nd12 O25 2.558073 1_555
Nd12 O2 2.694762 1_555
Nd12 O9 2.694762 1_555
Nd12 O66 2.875643 1_555
Nd12 O69 2.875643 1_555
Nd13 O61 2.452163 1_565
Nd13 O55 2.452163 1_555
Nd13 O40 2.543869 1_555
Nd13 O35 2.543869 1_555
Nd13 O24 2.558072 1_565
Nd13 O19 2.558073 1_565
Nd13 O8 2.694762 1_565
Nd13 O3 2.694762 1_555
Nd13 O68 2.875643 1_555
Nd13 O67 2.875643 1_555
Nd14 O58 2.452163 1_555
Nd14 O48 2.452163 1_555
Nd14 O47 2.543869 1_555
Nd14 O36 2.543869 1_555
Nd14 O31 2.558072 1_555
Nd14 O20 2.558073 1_555
Nd14 O15 2.694762 1_555
Nd14 O4 2.694762 1_555
Nd14 O68 2.875643 1_555
Nd14 O66 2.875643 1_555
Nd15 O49 2.452163 1_455
Nd15 O59 2.452163 1_555
Nd15 O37 2.543869 1_555
Nd15 O46 2.543869 1_555
Nd15 O21 2.558072 1_455
Nd15 O30 2.558073 1_455
Nd15 O5 2.694762 1_455
Nd15 O14 2.694762 1_555
Nd15 O67 2.875643 1_555
Nd15 O69 2.875643 1_555
Nd16 O57 2.452163 1_655
Nd16 O51 2.452163 1_555
Nd16 O45 2.543869 1_555
Nd16 O38 2.543869 1_555
Nd16 O29 2.558072 1_655
Nd16 O22 2.558073 1_655
Nd16 O13 2.694762 1_655
Nd16 O6 2.694762 1_555
Nd16 O71 2.875643 1_555
Nd16 O65 2.875643 1_555
Nd17 O50 2.452163 1_555
Nd17 O56 2.452163 1_555
Nd17 O39 2.543869 1_555
Nd17 O44 2.543869 1_555
Nd17 O23 2.558072 1_555
Nd17 O28 2.558073 1_555
Nd17 O7 2.694762 1_555
Nd17 O12 2.694762 1_555
Nd17 O64 2.875643 1_555
Nd17 O70 2.875643 1_555
Nd18 O64 2.559768 1_555
Nd18 O68 2.559768 1_545
Nd18 O56 2.562717 1_555
Nd18 O63 2.562717 1_555
Nd18 O48 2.562717 1_545
Nd18 O55 2.562717 1_545
Nd18 O0 2.681082 1_545
Nd18 O7 2.681082 1_555
Nd18 O15 2.681082 1_545
Nd18 O8 2.681082 1_555
Nd19 O69 2.559768 1_555
Nd19 O65 2.559768 1_455
Nd19 O62 2.562717 1_455
Nd19 O57 2.562717 1_555
Nd19 O54 2.562717 1_555
Nd19 O49 2.562717 1_455
Nd19 O6 2.681082 1_455
Nd19 O9 2.681082 1_555
Nd19 O1 2.681082 1_455
Nd19 O14 2.681082 1_555
Nd20 O70 2.559768 1_555
Nd20 O66 2.559768 1_555
Nd20 O58 2.562717 1_555
Nd20 O50 2.562717 1_555
Nd20 O60 2.562717 1_555
Nd20 O52 2.562717 1_555
Nd20 O2 2.681082 1_555
Nd20 O10 2.681082 1_555
Nd20 O4 2.681082 1_555
Nd20 O12 2.681082 1_555
Nd21 O67 2.559768 1_545
Nd21 O71 2.559768 1_455
Nd21 O61 2.562717 1_555
Nd21 O53 2.562717 1_445
Nd21 O59 2.562717 1_545
Nd21 O51 2.562717 1_455
Nd21 O5 2.681082 1_445
Nd21 O13 2.681082 1_555
Nd21 O3 2.681082 1_545
Nd21 O11 2.681082 1_455
Br0 Nd2 3.218755 1_555
Br0 Nd3 3.218755 1_555
Br0 Rb3 3.493112 1_545
Br0 Rb2 3.493112 1_555
Br1 Nd5 3.218755 1_555
Br1 Nd4 3.218755 1_555
Br1 Rb5 3.493112 1_455
Br1 Rb4 3.493112 1_554
Br2 Nd6 3.218755 1_555
Br2 Nd7 3.218755 1_555
Br2 Rb2 3.493112 1_566
Br2 Rb3 3.493112 1_556
Br3 Nd9 3.218755 1_555
Br3 Nd8 3.218755 1_555
Br3 Rb4 3.493112 1_655
Br3 Rb5 3.493112 1_556
Br4 Nd2 3.189301 1_565
Br4 Rb6 3.512455 1_555
Br4 Rb3 3.560994 1_555
Br4 Rb11 3.766194 1_555
Br5 Nd3 3.189301 1_555
Br5 Rb7 3.512455 1_554
Br5 Rb2 3.560994 1_555
Br5 Rb10 3.766194 1_554
Br6 Nd4 3.189301 1_555
Br6 Rb8 3.512455 1_555
Br6 Rb5 3.560994 1_455
Br6 Rb12 3.766194 1_454
Br7 Nd5 3.189301 1_555
Br7 Rb9 3.512455 1_454
Br7 Rb4 3.560994 1_554
Br7 Rb13 3.766194 1_555
Br8 Nd4 3.189301 1_555
Br8 Rb10 3.512455 1_554
Br8 Rb4 3.560994 1_554
Br8 Rb6 3.766194 1_555
Br9 Nd5 3.189301 1_655
Br9 Rb11 3.512455 1_555
Br9 Rb5 3.560994 1_555
Br9 Rb7 3.766194 1_554
Br10 Nd3 3.189301 1_555
Br10 Rb12 3.512455 1_554
Br10 Rb3 3.560994 1_545
Br10 Rb9 3.766194 1_544
Br11 Nd2 3.189301 1_555
Br11 Rb13 3.512455 1_545
Br11 Rb2 3.560994 1_555
Br11 Rb8 3.766194 1_555
Br12 Nd6 3.189301 1_545
Br12 Rb7 3.512455 1_555
Br12 Rb2 3.560994 1_556
Br12 Rb10 3.766194 1_555
Br13 Nd7 3.189301 1_555
Br13 Rb6 3.512455 1_556
Br13 Rb3 3.560994 1_556
Br13 Rb11 3.766194 1_556
Br14 Nd8 3.189301 1_555
Br14 Rb9 3.512455 1_555
Br14 Rb4 3.560994 1_655
Br14 Rb13 3.766194 1_656
Br15 Nd9 3.189301 1_555
Br15 Rb8 3.512455 1_656
Br15 Rb5 3.560994 1_556
Br15 Rb12 3.766194 1_555
Br16 Nd8 3.189301 1_555
Br16 Rb11 3.512455 1_556
Br16 Rb5 3.560994 1_556
Br16 Rb7 3.766194 1_555
Br17 Nd9 3.189301 1_455
Br17 Rb10 3.512455 1_555
Br17 Rb4 3.560994 1_555
Br17 Rb6 3.766194 1_556
Br18 Nd7 3.189301 1_555
Br18 Rb13 3.512455 1_556
Br18 Rb2 3.560994 1_566
Br18 Rb8 3.766194 1_566
Br19 Nd6 3.189301 1_555
Br19 Rb12 3.512455 1_565
Br19 Rb3 3.560994 1_556
Br19 Rb9 3.766194 1_555
Br20 Rb10 3.617533 1_554
Br20 Rb7 3.617533 1_554
Br20 Rb6 3.617533 1_555
Br20 Rb11 3.617534 1_555
Br21 Rb9 3.617533 1_444
Br21 Rb12 3.617533 1_454
Br21 Rb13 3.617533 1_545
Br21 Rb8 3.617534 1_555
Br22 Rb11 3.617533 1_556
Br22 Rb6 3.617533 1_556
Br22 Rb7 3.617533 1_555
Br22 Rb10 3.617534 1_555
Br23 Rb8 3.617533 1_666
Br23 Rb13 3.617533 1_656
Br23 Rb12 3.617533 1_565
Br23 Rb9 3.617534 1_555
Br24 Nd2 3.258260 1_565
Br24 Rb13 3.573146 1_555
Br24 Rb6 3.573146 1_555
Br24 Rb4 3.822043 1_554
Br25 Nd3 3.258260 1_555
Br25 Rb12 3.573146 1_554
Br25 Rb7 3.573146 1_554
Br25 Rb5 3.822044 1_555
Br26 Nd4 3.258260 1_555
Br26 Rb8 3.573146 1_555
Br26 Rb10 3.573146 1_554
Br26 Rb2 3.822043 1_555
Br27 Nd5 3.258260 1_655
Br27 Rb11 3.573146 1_555
Br27 Rb9 3.573146 1_554
Br27 Rb3 3.822043 1_555
Br28 Nd6 3.258260 1_545
Br28 Rb7 3.573146 1_555
Br28 Rb12 3.573146 1_555
Br28 Rb5 3.822043 1_556
Br29 Nd7 3.258260 1_555
Br29 Rb13 3.573146 1_556
Br29 Rb6 3.573146 1_556
Br29 Rb4 3.822044 1_555
Br30 Nd8 3.258260 1_555
Br30 Rb9 3.573146 1_555
Br30 Rb11 3.573146 1_556
Br30 Rb3 3.822043 1_556
Br31 Nd9 3.258260 1_455
Br31 Rb10 3.573146 1_555
Br31 Rb8 3.573146 1_556
Br31 Rb2 3.822043 1_556
O0 Te0 1.927301 1_555
O1 Te1 1.927301 1_555
O2 Te2 1.927301 1_555
O3 Te3 1.927301 1_565
O4 Te4 1.927301 1_555
O5 Te5 1.927301 1_555
O6 Te6 1.927301 1_655
O7 Te7 1.927301 1_555
O8 Te8 1.927301 1_555
O9 Te9 1.927301 1_555
O10 Te10 1.927301 1_555
O11 Te11 1.927301 1_545
O12 Te12 1.927301 1_555
O13 Te13 1.927301 1_555
O14 Te14 1.927301 1_455
O15 Te15 1.927301 1_555
O16 Te0 1.900024 1_555
O17 Te1 1.900024 1_555
O18 Te2 1.900024 1_555
O19 Te3 1.900024 1_555
O20 Te4 1.900024 1_555
O21 Te5 1.900024 1_555
O22 Te6 1.900024 1_555
O23 Te7 1.900024 1_555
O24 Te8 1.900024 1_555
O25 Te9 1.900024 1_555
O26 Te10 1.900024 1_555
O27 Te11 1.900024 1_555
O28 Te12 1.900024 1_555
O29 Te13 1.900024 1_555
O30 Te14 1.900024 1_555
O31 Te15 1.900024 1_555
O32 Te16 1.925417 1_555
O32 Rb0 2.818214 1_555
O33 Te17 1.925417 1_555
O33 Rb0 2.818214 1_555
O34 Te18 1.925417 1_555
O34 Rb1 2.818214 1_555
O35 Te19 1.925417 1_555
O35 Rb1 2.818214 1_555
O36 Te18 1.925417 1_555
O36 Rb1 2.818214 1_555
O37 Te19 1.925417 1_555
O37 Rb1 2.818214 1_555
O38 Te17 1.925417 1_555
O38 Rb0 2.818214 1_555
O39 Te16 1.925417 1_555
O39 Rb0 2.818214 1_555
O40 Te20 1.925417 1_555
O40 Rb1 2.818214 1_555
O41 Te21 1.925417 1_555
O41 Rb1 2.818214 1_555
O42 Te22 1.925417 1_555
O42 Rb0 2.818214 1_555
O43 Te23 1.925417 1_555
O43 Rb0 2.818214 1_555
O44 Te22 1.925417 1_555
O44 Rb0 2.818214 1_555
O45 Te23 1.925417 1_555
O45 Rb0 2.818214 1_555
O46 Te21 1.925417 1_555
O46 Rb1 2.818214 1_555
O47 Te20 1.925417 1_555
O47 Rb1 2.818214 1_555
O48 Te0 1.919669 1_555
O49 Te1 1.919669 1_555
O50 Te2 1.919669 1_555
O51 Te3 1.919669 1_655
O52 Te4 1.919669 1_555
O53 Te5 1.919669 1_555
O54 Te6 1.919669 1_555
O55 Te7 1.919669 1_565
O56 Te8 1.919669 1_555
O57 Te9 1.919669 1_555
O58 Te10 1.919669 1_555
O59 Te11 1.919669 1_455
O60 Te12 1.919669 1_555
O61 Te13 1.919669 1_555
O62 Te14 1.919669 1_555
O63 Te15 1.919669 1_545
O64 Te16 1.901810 1_555
O65 Te17 1.901810 1_555
O66 Te18 1.901810 1_555
O67 Te19 1.901810 1_555
O68 Te20 1.901810 1_555
O69 Te21 1.901810 1_555
O70 Te22 1.901810 1_555
O71 Te23 1.901810 1_555
