# generated using pymatgen
data_BaNa2V2CuO8
_symmetry_space_group_name_H-M   'P 1'
_cell_length_a   5.57934271
_cell_length_b   5.57934271
_cell_length_c   14.19100809
_cell_angle_alpha   87.01604011
_cell_angle_beta   87.01604011
_cell_angle_gamma   63.27402189
_symmetry_Int_Tables_number   1
_chemical_formula_structural   BaNa2V2CuO8
_chemical_formula_sum   'Ba2 Na4 V4 Cu2 O16'
_cell_volume   393.82107702
_cell_formula_units_Z   2
loop_
 _symmetry_equiv_pos_site_id
 _symmetry_equiv_pos_as_xyz
  1  'x, y, z'
loop_
 _atom_site_type_symbol
 _atom_site_label
 _atom_site_symmetry_multiplicity
 _atom_site_fract_x
 _atom_site_fract_y
 _atom_site_fract_z
 _atom_site_occupancy
  Ba  Ba0  1  0.87168600  0.12831400  0.75000000  1
  Ba  Ba1  1  0.12831400  0.87168600  0.25000000  1
  Na  Na0  1  0.26051700  0.42148600  0.58869000  1
  Na  Na1  1  0.73948300  0.57851400  0.41131000  1
  Na  Na2  1  0.57851400  0.73948300  0.91131000  1
  Na  Na3  1  0.42148600  0.26051700  0.08869000  1
  V  V0  1  0.58929800  0.76976900  0.62834800  1
  V  V1  1  0.76976900  0.58929800  0.12834800  1
  V  V2  1  0.23023100  0.41070200  0.87165200  1
  V  V3  1  0.41070200  0.23023100  0.37165200  1
  Cu  Cu0  1  0.00000000  0.00000000  0.00000000  1
  Cu  Cu1  1  0.00000000  0.00000000  0.50000000  1
  O  O0  1  0.75782600  0.12828000  0.39311900  1
  O  O1  1  0.87172000  0.24217400  0.10688100  1
  O  O2  1  0.24217400  0.87172000  0.60688100  1
  O  O3  1  0.12828000  0.75782600  0.89311900  1
  O  O4  1  0.30080900  0.99403100  0.41606100  1
  O  O5  1  0.00596900  0.69919100  0.08393900  1
  O  O6  1  0.69919100  0.00596900  0.58393900  1
  O  O7  1  0.99403100  0.30080900  0.91606100  1
  O  O8  1  0.35570800  0.27831700  0.25256200  1
  O  O9  1  0.72168300  0.64429200  0.24743800  1
  O  O10  1  0.64429200  0.72168300  0.74743800  1
  O  O11  1  0.27831700  0.35570800  0.75256200  1
  O  O12  1  0.79083100  0.46905700  0.57705700  1
  O  O13  1  0.53094300  0.20916900  0.92294300  1
  O  O14  1  0.46905700  0.79083100  0.07705700  1
  O  O15  1  0.20916900  0.53094300  0.42294300  1
loop_
_geom_bond_atom_site_label_1
_geom_bond_atom_site_label_2
_geom_bond_distance
_geom_bond_site_symmetry_2
Ba0 O3 2.766090 1_645
Ba0 O2 2.766090 1_645
Ba0 O7 2.817819 1_555
Ba0 O6 2.817819 1_555
Ba0 O13 2.949432 1_555
Ba0 O12 2.949432 1_555
Ba0 O11 2.964032 1_555
Ba0 O10 2.964032 1_555
Ba0 O10 3.059481 1_545
Ba0 O11 3.059481 1_655
Ba1 O0 2.766090 1_465
Ba1 O1 2.766090 1_465
Ba1 O4 2.817819 1_555
Ba1 O5 2.817819 1_555
Ba1 O15 2.949432 1_555
Ba1 O14 2.949432 1_555
Ba1 O8 2.964032 1_555
Ba1 O9 2.964032 1_555
Ba1 O9 3.059481 1_455
Ba1 O8 3.059481 1_565
Na0 O11 2.335583 1_555
Na0 O15 2.398066 1_555
Na0 O2 2.494161 1_555
Na0 O6 2.502992 1_555
Na0 O12 2.525828 1_455
Na1 O9 2.335583 1_555
Na1 O12 2.398066 1_555
Na1 O0 2.494161 1_555
Na1 O4 2.502992 1_555
Na1 O15 2.525828 1_655
Na2 O10 2.335583 1_555
Na2 O14 2.398066 1_556
Na2 O3 2.494161 1_555
Na2 O7 2.502992 1_555
Na2 O13 2.525828 1_565
Na3 O8 2.335583 1_555
Na3 O13 2.398066 1_554
Na3 O1 2.494161 1_555
Na3 O5 2.502992 1_555
Na3 O14 2.525828 1_545
Cu0 O1 1.966971 1_455
Cu0 O3 1.966971 1_544
Cu0 O5 1.995615 1_545
Cu0 O7 1.995615 1_454
Cu1 O2 1.966971 1_545
Cu1 O0 1.966971 1_455
Cu1 O6 1.995615 1_455
Cu1 O4 1.995615 1_545
O0 V3 1.794372 1_555
O1 V1 1.794372 1_555
O2 V0 1.794372 1_555
O3 V2 1.794372 1_555
O4 V3 1.763480 1_565
O5 V1 1.763480 1_455
O6 V0 1.763480 1_545
O7 V2 1.763480 1_655
O8 V3 1.719008 1_555
O9 V1 1.719008 1_555
O10 V0 1.719008 1_555
O11 V2 1.719008 1_555
O12 V0 1.718764 1_555
O13 V2 1.718764 1_555
O14 V1 1.718764 1_555
O15 V3 1.718764 1_555
