# generated using pymatgen
data_Li4Cr3CoO8
_symmetry_space_group_name_H-M   'P 1'
_cell_length_a   5.13015956
_cell_length_b   9.83483242
_cell_length_c   5.93692317
_cell_angle_alpha   90.57777817
_cell_angle_beta   89.69948580
_cell_angle_gamma   100.65136883
_symmetry_Int_Tables_number   1
_chemical_formula_structural   Li4Cr3CoO8
_chemical_formula_sum   'Li8 Cr6 Co2 O16'
_cell_volume   294.36523496
_cell_formula_units_Z   2
loop_
 _symmetry_equiv_pos_site_id
 _symmetry_equiv_pos_as_xyz
  1  'x, y, z'
loop_
 _atom_site_type_symbol
 _atom_site_label
 _atom_site_symmetry_multiplicity
 _atom_site_fract_x
 _atom_site_fract_y
 _atom_site_fract_z
 _atom_site_occupancy
  Li  Li0  1  0.50617100  0.49790600  0.99575600  1
  Li  Li1  1  0.00690500  0.00044600  0.49588600  1
  Li  Li2  1  0.99382700  0.00209000  0.00424300  1
  Li  Li3  1  0.49309200  0.49955100  0.50411500  1
  Li  Li4  1  0.24991700  0.25071300  0.24986500  1
  Li  Li5  1  0.74616500  0.74798200  0.74965600  1
  Li  Li6  1  0.25007500  0.24928400  0.75013200  1
  Li  Li7  1  0.75383400  0.75201500  0.25034700  1
  Cr  Cr0  1  0.75000000  0.25000000  0.50000000  1
  Cr  Cr1  1  0.25000700  0.74999800  0.00000000  1
  Cr  Cr2  1  0.50037500  0.99877700  0.74701900  1
  Cr  Cr3  1  0.99962300  0.50122400  0.25298400  1
  Cr  Cr4  1  0.49617300  0.99902400  0.24820200  1
  Cr  Cr5  1  0.00382600  0.50097600  0.75179900  1
  Co  Co0  1  0.25000000  0.75000100  0.50000100  1
  Co  Co1  1  0.74999900  0.25000000  0.00000000  1
  O  O0  1  0.39425700  0.11934700  0.50093500  1
  O  O1  1  0.89555200  0.61971600  0.00390000  1
  O  O2  1  0.10574000  0.38065400  0.49906500  1
  O  O3  1  0.60445400  0.88028700  0.99610100  1
  O  O4  1  0.40115300  0.12307700  0.99961400  1
  O  O5  1  0.90712400  0.62493100  0.50362300  1
  O  O6  1  0.09884600  0.37692500  0.00038600  1
  O  O7  1  0.59287600  0.87507100  0.49637800  1
  O  O8  1  0.85786500  0.12689200  0.74391900  1
  O  O9  1  0.35329900  0.63438000  0.25837600  1
  O  O10  1  0.85545400  0.12807800  0.25091500  1
  O  O11  1  0.36125200  0.62411600  0.76225800  1
  O  O12  1  0.64213400  0.37310900  0.25607900  1
  O  O13  1  0.14670300  0.86562000  0.74162600  1
  O  O14  1  0.64454500  0.37192400  0.74908400  1
  O  O15  1  0.13875200  0.87588400  0.23774200  1
loop_
_geom_bond_atom_site_label_1
_geom_bond_atom_site_label_2
_geom_bond_distance
_geom_bond_site_symmetry_2
Li0 O11 2.098048 1_555
Li0 O14 2.112203 1_555
Li0 O1 2.131445 1_556
Li0 O12 2.178896 1_556
Li0 O6 2.205449 1_556
Li0 O9 2.276315 1_556
Li1 O0 2.111424 1_555
Li1 O15 2.136499 1_545
Li1 O8 2.145286 1_455
Li1 O10 2.168803 1_455
Li1 O13 2.191495 1_545
Li1 O7 2.250282 1_445
Li2 O15 2.098040 1_645
Li2 O10 2.112238 1_555
Li2 O3 2.131384 1_544
Li2 O8 2.178929 1_554
Li2 O4 2.205475 1_654
Li2 O13 2.276287 1_644
Li3 O2 2.111409 1_555
Li3 O11 2.136498 1_555
Li3 O12 2.145277 1_555
Li3 O14 2.168768 1_555
Li3 O9 2.191499 1_555
Li3 O5 2.250314 1_555
Li4 O12 2.145593 1_555
Li4 O10 2.155844 1_455
Li4 O2 2.160766 1_555
Li4 O4 2.166882 1_554
Li4 O6 2.177137 1_555
Li4 O0 2.200772 1_555
Li5 O11 2.121311 1_555
Li5 O5 2.145016 1_555
Li5 O3 2.159286 1_555
Li5 O13 2.164342 1_655
Li5 O7 2.203501 1_555
Li5 O1 2.205661 1_556
Li6 O8 2.145548 1_455
Li6 O14 2.155893 1_555
Li6 O0 2.160740 1_555
Li6 O6 2.166909 1_556
Li6 O4 2.177134 1_555
Li6 O2 2.200774 1_555
Li7 O15 2.121344 1_655
Li7 O7 2.145036 1_555
Li7 O1 2.159271 1_555
Li7 O9 2.164318 1_555
Li7 O5 2.203464 1_555
Li7 O3 2.205691 1_554
Cr0 O10 2.028045 1_555
Cr0 O14 2.028055 1_555
Cr0 O2 2.028532 1_655
Cr0 O0 2.028539 1_555
Cr0 O8 2.039763 1_555
Cr0 O12 2.039780 1_555
Cr1 O11 2.016958 1_554
Cr1 O15 2.017004 1_555
Cr1 O1 2.021818 1_455
Cr1 O3 2.021818 1_554
Cr1 O9 2.047738 1_555
Cr1 O13 2.047776 1_554
Cr2 O7 2.022161 1_555
Cr2 O8 2.024177 1_565
Cr2 O3 2.025569 1_555
Cr2 O0 2.029494 1_565
Cr2 O13 2.032104 1_555
Cr2 O4 2.046338 1_565
Cr3 O5 2.022155 1_555
Cr3 O12 2.024172 1_555
Cr3 O1 2.025574 1_555
Cr3 O2 2.029479 1_655
Cr3 O9 2.032115 1_655
Cr3 O6 2.046347 1_655
Cr4 O15 2.002873 1_555
Cr4 O3 2.026867 1_554
Cr4 O0 2.027251 1_565
Cr4 O10 2.035576 1_565
Cr4 O4 2.041559 1_564
Cr4 O7 2.042202 1_555
Cr5 O11 2.002893 1_555
Cr5 O1 2.026872 1_456
Cr5 O2 2.027246 1_555
Cr5 O14 2.035567 1_455
Cr5 O6 2.041542 1_556
Cr5 O5 2.042212 1_455
Co0 O5 1.951381 1_455
Co0 O7 1.951381 1_555
Co0 O13 1.952820 1_555
Co0 O9 1.952836 1_555
Co0 O15 2.142927 1_555
Co0 O11 2.142939 1_555
Co1 O4 1.983720 1_554
Co1 O6 1.983733 1_655
Co1 O10 2.057634 1_555
Co1 O14 2.057649 1_554
Co1 O12 2.070083 1_555
Co1 O8 2.070087 1_554
