# generated using pymatgen
data_Ca4UAl2(SiO5)3
_symmetry_space_group_name_H-M   'P 1'
_cell_length_a   10.94899354
_cell_length_b   10.94899354
_cell_length_c   10.94899359
_cell_angle_alpha   27.40892376
_cell_angle_beta   27.40892376
_cell_angle_gamma   27.40892685
_symmetry_Int_Tables_number   1
_chemical_formula_structural   Ca4UAl2(SiO5)3
_chemical_formula_sum   'Ca4 U1 Al2 Si3 O15'
_cell_volume   245.47258161
_cell_formula_units_Z   1
loop_
 _symmetry_equiv_pos_site_id
 _symmetry_equiv_pos_as_xyz
  1  'x, y, z'
loop_
 _atom_site_type_symbol
 _atom_site_label
 _atom_site_symmetry_multiplicity
 _atom_site_fract_x
 _atom_site_fract_y
 _atom_site_fract_z
 _atom_site_occupancy
  Ca  Ca0  1  0.40055700  0.40055700  0.40055700  1
  Ca  Ca1  1  0.80038200  0.80038200  0.80038200  1
  Ca  Ca2  1  0.19961800  0.19961800  0.19961800  1
  Ca  Ca3  1  0.59944300  0.59944300  0.59944300  1
  U  U0  1  0.00000000  0.00000000  0.00000000  1
  Al  Al0  1  0.70118100  0.70118100  0.70118100  1
  Al  Al1  1  0.29881900  0.29881900  0.29881900  1
  Si  Si0  1  0.10110100  0.10110100  0.10110100  1
  Si  Si1  1  0.50000000  0.50000000  0.50000000  1
  Si  Si2  1  0.89889900  0.89889900  0.89889900  1
  O  O0  1  0.09124900  0.09124900  0.61592500  1
  O  O1  1  0.69910200  0.69910200  0.20042400  1
  O  O2  1  0.30089800  0.30089800  0.79957600  1
  O  O3  1  0.90875100  0.90875100  0.38407500  1
  O  O4  1  0.50000000  0.50000000  0.00000000  1
  O  O5  1  0.00000000  0.50000000  0.50000000  1
  O  O6  1  0.61592500  0.09124900  0.09124900  1
  O  O7  1  0.20042400  0.69910200  0.69910200  1
  O  O8  1  0.79957600  0.30089800  0.30089800  1
  O  O9  1  0.38407500  0.90875100  0.90875100  1
  O  O10  1  0.50000000  0.00000000  0.50000000  1
  O  O11  1  0.09124900  0.61592500  0.09124900  1
  O  O12  1  0.69910200  0.20042400  0.69910200  1
  O  O13  1  0.30089800  0.79957600  0.30089800  1
  O  O14  1  0.90875100  0.38407500  0.90875100  1
loop_
_geom_bond_atom_site_label_1
_geom_bond_atom_site_label_2
_geom_bond_distance
_geom_bond_site_symmetry_2
Ca0 O2 2.579563 1_555
Ca0 O8 2.579563 1_555
Ca0 O13 2.579563 1_555
Ca0 O14 2.595021 1_455
Ca0 O9 2.595021 1_545
Ca0 O14 2.595021 1_554
Ca0 O9 2.595021 1_554
Ca0 O3 2.595021 1_455
Ca0 O3 2.595021 1_545
Ca0 O4 2.598786 1_555
Ca0 O5 2.598786 1_555
Ca0 O10 2.598786 1_555
Ca1 O1 2.565174 1_556
Ca1 O12 2.565174 1_565
Ca1 O7 2.565174 1_655
Ca1 O8 2.593972 1_556
Ca1 O13 2.593972 1_556
Ca1 O13 2.593972 1_655
Ca1 O8 2.593972 1_565
Ca1 O2 2.593972 1_655
Ca1 O2 2.593972 1_565
Ca1 O3 2.624308 1_555
Ca1 O14 2.624308 1_555
Ca1 O9 2.624308 1_555
Ca2 O2 2.565174 1_554
Ca2 O13 2.565174 1_545
Ca2 O8 2.565174 1_455
Ca2 O7 2.593972 1_554
Ca2 O12 2.593972 1_554
Ca2 O12 2.593972 1_455
Ca2 O7 2.593972 1_545
Ca2 O1 2.593972 1_455
Ca2 O1 2.593972 1_545
Ca2 O0 2.624308 1_555
Ca2 O11 2.624308 1_555
Ca2 O6 2.624308 1_555
Ca3 O1 2.579563 1_555
Ca3 O7 2.579563 1_555
Ca3 O12 2.579563 1_555
Ca3 O6 2.595021 1_565
Ca3 O11 2.595021 1_655
Ca3 O11 2.595021 1_556
Ca3 O6 2.595021 1_556
Ca3 O0 2.595021 1_655
Ca3 O0 2.595021 1_565
Ca3 O4 2.598786 1_556
Ca3 O10 2.598786 1_565
Ca3 O5 2.598786 1_655
Al0 O4 1.852555 1_556
Al0 O10 1.852555 1_565
Al0 O5 1.852555 1_655
Al0 O3 1.880330 1_555
Al0 O14 1.880331 1_555
Al0 O9 1.880331 1_555
Al1 O4 1.852555 1_555
Al1 O10 1.852555 1_555
Al1 O5 1.852555 1_555
Al1 O0 1.880330 1_555
Al1 O6 1.880331 1_555
Al1 O11 1.880331 1_555
O0 Si2 1.781762 1_445
O0 U0 2.556084 1_556
O1 Si1 1.819316 1_555
O1 Si2 1.822480 1_554
O2 Si1 1.819316 1_555
O2 Si0 1.822480 1_556
O3 Si0 1.781762 1_665
O3 U0 2.556084 1_665
O4 U0 2.593968 1_565
O4 U0 2.593968 1_655
O5 U0 2.593968 1_565
O5 U0 2.593968 1_556
O6 Si2 1.781762 1_544
O6 U0 2.556084 1_655
O7 Si1 1.819316 1_555
O7 Si2 1.822481 1_455
O8 Si1 1.819316 1_555
O8 Si0 1.822481 1_655
O9 Si0 1.781762 1_566
O9 U0 2.556084 1_566
O10 U0 2.593968 1_655
O10 U0 2.593968 1_556
O11 Si2 1.781762 1_454
O11 U0 2.556084 1_565
O12 Si1 1.819316 1_555
O12 Si2 1.822481 1_545
O13 Si1 1.819316 1_555
O13 Si0 1.822481 1_565
O14 Si0 1.781762 1_656
O14 U0 2.556084 1_656
