# generated using pymatgen
data_ScSiRu
_symmetry_space_group_name_H-M   'P 1'
_cell_length_a   3.35857149
_cell_length_b   6.90351969
_cell_length_c   6.90350494
_cell_angle_alpha   120.00007247
_cell_angle_beta   90.00000000
_cell_angle_gamma   90.00000000
_symmetry_Int_Tables_number   1
_chemical_formula_structural   ScSiRu
_chemical_formula_sum   'Sc3 Si3 Ru3'
_cell_volume   138.61975248
_cell_formula_units_Z   3
loop_
 _symmetry_equiv_pos_site_id
 _symmetry_equiv_pos_as_xyz
  1  'x, y, z'
loop_
 _atom_site_type_symbol
 _atom_site_label
 _atom_site_symmetry_multiplicity
 _atom_site_fract_x
 _atom_site_fract_y
 _atom_site_fract_z
 _atom_site_occupancy
  Sc  Sc0  1  0.50000000  0.59875200  -0.00000000  1
  Sc  Sc1  1  0.50000000  0.40122107  0.40123046  1
  Sc  Sc2  1  0.50000000  0.99999061  0.59876954  1
  Si  Si0  1  -0.00000000  0.33332193  0.66666683  1
  Si  Si1  1  -0.00000000  0.66665510  0.33333317  1
  Si  Si2  1  0.50000000  0.99998931  -0.00000000  1
  Ru  Ru0  1  -0.00000000  0.25161650  0.00000000  1
  Ru  Ru1  1  -0.00000000  0.74836357  0.74837266  1
  Ru  Ru2  1  -0.00000000  0.99998991  0.25162734  1
loop_
_geom_bond_atom_site_label_1
_geom_bond_atom_site_label_2
_geom_bond_distance
_geom_bond_site_symmetry_2
Sc0 Si0 2.693770 1_554
Sc0 Si0 2.693770 1_654
Sc0 Si1 2.693770 1_655
Sc0 Si1 2.693770 1_555
Sc0 Si2 2.769950 1_555
Sc1 Si1 2.693774 1_555
Sc1 Si1 2.693774 1_655
Sc1 Si0 2.693791 1_555
Sc1 Si0 2.693791 1_655
Sc1 Si2 2.769901 1_545
Sc2 Si0 2.693774 1_665
Sc2 Si0 2.693774 1_565
Sc2 Si1 2.693791 1_555
Sc2 Si1 2.693791 1_655
Sc2 Si2 2.769901 1_556
Ru0 Si2 2.416105 1_445
Ru0 Si2 2.416105 1_545
Ru0 Si1 2.628976 1_555
Ru0 Si0 2.628976 1_554
Ru0 Sc0 2.926261 1_455
Ru0 Sc0 2.926261 1_555
Ru0 Sc2 2.949279 1_544
Ru0 Sc2 2.949279 1_444
Ru0 Sc1 2.949279 1_455
Ru0 Sc1 2.949279 1_555
Ru1 Si2 2.416099 1_456
Ru1 Si2 2.416099 1_556
Ru1 Si1 2.628973 1_555
Ru1 Si0 2.629000 1_555
Ru1 Sc1 2.926296 1_455
Ru1 Sc1 2.926296 1_555
Ru1 Sc2 2.949284 1_455
Ru1 Sc2 2.949284 1_555
Ru1 Sc0 2.949322 1_456
Ru1 Sc0 2.949322 1_556
Ru2 Si2 2.416102 1_555
Ru2 Si2 2.416102 1_455
Ru2 Si0 2.628975 1_565
Ru2 Si1 2.628993 1_555
Ru2 Sc2 2.926293 1_455
Ru2 Sc2 2.926293 1_555
Ru2 Sc1 2.949289 1_565
Ru2 Sc1 2.949289 1_465
Ru2 Sc0 2.949317 1_455
Ru2 Sc0 2.949317 1_555
