# generated using pymatgen
data_Lu3Ga2
_symmetry_space_group_name_H-M   'P 1'
_cell_length_a   10.74511019
_cell_length_b   10.74511019
_cell_length_c   10.74511019
_cell_angle_alpha   95.90027667
_cell_angle_beta   116.65398209
_cell_angle_gamma   116.65398209
_symmetry_Int_Tables_number   1
_chemical_formula_structural   Lu3Ga2
_chemical_formula_sum   'Lu24 Ga16'
_cell_volume   916.34414340
_cell_formula_units_Z   8
loop_
 _symmetry_equiv_pos_site_id
 _symmetry_equiv_pos_as_xyz
  1  'x, y, z'
loop_
 _atom_site_type_symbol
 _atom_site_label
 _atom_site_symmetry_multiplicity
 _atom_site_fract_x
 _atom_site_fract_y
 _atom_site_fract_z
 _atom_site_occupancy
  Lu  Lu0  1  0.50000000  0.85466513  0.35466513  1
  Lu  Lu1  1  0.50000000  0.35466513  0.85466513  1
  Lu  Lu2  1  0.50000000  0.14533487  0.64533487  1
  Lu  Lu3  1  0.50000000  0.64533487  0.14533487  1
  Lu  Lu4  1  0.16132616  0.33066258  0.83066258  1
  Lu  Lu5  1  0.83867384  0.66933742  0.16933742  1
  Lu  Lu6  1  0.50000000  0.16933742  0.33066258  1
  Lu  Lu7  1  0.50000000  0.83066258  0.66933742  1
  Lu  Lu8  1  0.72977861  0.56923996  0.43292125  1
  Lu  Lu9  1  0.27022139  0.70314464  0.83946135  1
  Lu  Lu10  1  0.86368329  0.20314464  0.93292125  1
  Lu  Lu11  1  0.13631671  0.06923996  0.33946135  1
  Lu  Lu12  1  0.86368329  0.43292125  0.70314464  1
  Lu  Lu13  1  0.13631671  0.83946135  0.56923996  1
  Lu  Lu14  1  0.72977861  0.93292125  0.06923996  1
  Lu  Lu15  1  0.27022139  0.33946135  0.20314464  1
  Lu  Lu16  1  0.27022139  0.43076004  0.56707875  1
  Lu  Lu17  1  0.72977861  0.29685536  0.16053865  1
  Lu  Lu18  1  0.13631671  0.79685536  0.06707875  1
  Lu  Lu19  1  0.86368329  0.93076004  0.66053865  1
  Lu  Lu20  1  0.13631671  0.56707875  0.29685536  1
  Lu  Lu21  1  0.86368329  0.16053865  0.43076004  1
  Lu  Lu22  1  0.27022139  0.06707875  0.93076004  1
  Lu  Lu23  1  0.72977861  0.66053865  0.79685536  1
  Ga  Ga0  1  0.00000000  0.75000000  0.75000000  1
  Ga  Ga1  1  0.00000000  0.25000000  0.25000000  1
  Ga  Ga2  1  0.00000000  0.50000000  0.50000000  1
  Ga  Ga3  1  0.00000000  0.00000000  0.00000000  1
  Ga  Ga4  1  0.26236175  0.88118188  0.38118188  1
  Ga  Ga5  1  0.73763825  0.11881812  0.61881812  1
  Ga  Ga6  1  0.50000000  0.61881812  0.88118188  1
  Ga  Ga7  1  0.50000000  0.38118188  0.11881812  1
  Ga  Ga8  1  0.14615725  0.12264989  0.62264989  1
  Ga  Ga9  1  0.85384275  0.47649264  0.97649264  1
  Ga  Ga10  1  0.50000000  0.97649264  0.12264989  1
  Ga  Ga11  1  0.50000000  0.62264989  0.47649264  1
  Ga  Ga12  1  0.85384275  0.87735011  0.37735011  1
  Ga  Ga13  1  0.14615725  0.52350736  0.02350636  1
  Ga  Ga14  1  0.50000000  0.02350636  0.87735011  1
  Ga  Ga15  1  0.50000000  0.37735011  0.52350736  1
loop_
_geom_bond_atom_site_label_1
_geom_bond_atom_site_label_2
_geom_bond_distance
_geom_bond_site_symmetry_2
Lu0 Lu3 3.013028 1_555
Lu0 Lu6 3.417344 1_565
Lu0 Lu7 3.417344 1_555
Lu1 Lu2 3.013028 1_555
Lu1 Lu4 3.417333 1_555
Lu1 Lu5 3.417342 1_556
Lu2 Lu7 3.417344 1_545
Lu2 Lu6 3.417344 1_555
Lu3 Lu5 3.417333 1_555
Lu3 Lu4 3.417342 1_554
Lu4 Lu9 3.608072 1_555
Lu5 Lu8 3.608043 1_555
Lu6 Lu8 3.583862 1_555
Lu7 Lu9 3.583859 1_555
Lu10 Lu4 3.583852 1_655
Lu10 Lu7 3.608066 1_545
Lu11 Lu5 3.583860 1_445
Lu11 Lu6 3.608070 1_555
Lu12 Lu4 3.583852 1_655
Lu12 Lu6 3.608066 1_555
Lu13 Lu5 3.583860 1_455
Lu13 Lu7 3.608070 1_555
Lu14 Lu7 3.583862 1_554
Lu14 Lu5 3.608043 1_555
Lu15 Lu6 3.583859 1_555
Lu15 Lu4 3.608072 1_554
Lu16 Lu7 3.583862 1_555
Lu16 Lu4 3.608043 1_555
Lu17 Lu6 3.583859 1_555
Lu17 Lu5 3.608072 1_555
Lu18 Lu5 3.583852 1_455
Lu18 Lu6 3.608066 1_565
Lu19 Lu4 3.583860 1_665
Lu19 Lu7 3.608070 1_555
Lu20 Lu5 3.583852 1_455
Lu20 Lu7 3.608066 1_555
Lu21 Lu4 3.583860 1_655
Lu21 Lu6 3.608070 1_555
Lu22 Lu6 3.583862 1_556
Lu22 Lu4 3.608043 1_555
Lu23 Lu7 3.583859 1_555
Lu23 Lu5 3.608072 1_556
Ga0 Lu23 2.918057 1_455
Ga0 Lu13 2.918057 1_555
Ga0 Lu9 2.918057 1_555
Ga0 Lu19 2.918057 1_455
Ga0 Lu8 2.918071 1_455
Ga0 Lu22 2.918071 1_565
Ga0 Lu12 2.918076 1_455
Ga0 Lu18 2.918076 1_556
Ga1 Lu15 2.918057 1_555
Ga1 Lu17 2.918057 1_455
Ga1 Lu11 2.918057 1_555
Ga1 Lu21 2.918057 1_455
Ga1 Lu14 2.918071 1_445
Ga1 Lu16 2.918071 1_555
Ga1 Lu10 2.918076 1_454
Ga1 Lu20 2.918076 1_555
Ga2 Lu16 3.110374 1_555
Ga2 Lu8 3.110374 1_455
Ga2 Lu21 3.110378 1_455
Ga2 Lu9 3.110378 1_555
Ga2 Lu13 3.110378 1_555
Ga2 Lu17 3.110378 1_455
Ga2 Lu20 3.110380 1_555
Ga2 Lu12 3.110380 1_455
Ga3 Lu14 3.110374 1_445
Ga3 Lu22 3.110374 1_554
Ga3 Lu11 3.110378 1_555
Ga3 Lu15 3.110378 1_555
Ga3 Lu19 3.110378 1_444
Ga3 Lu23 3.110378 1_444
Ga3 Lu18 3.110380 1_545
Ga3 Lu10 3.110380 1_454
Ga4 Lu2 2.823325 1_565
Ga4 Lu0 2.823346 1_555
Ga4 Lu20 2.866264 1_555
Ga4 Lu18 2.866264 1_555
Ga4 Lu13 2.866265 1_555
Ga4 Lu11 2.866265 1_565
Ga4 Lu7 3.301116 1_555
Ga4 Lu6 3.301116 1_565
Ga4 Lu5 3.380569 1_455
Ga5 Lu0 2.823325 1_545
Ga5 Lu2 2.823346 1_555
Ga5 Lu12 2.866264 1_555
Ga5 Lu10 2.866264 1_555
Ga5 Lu19 2.866265 1_545
Ga5 Lu21 2.866265 1_555
Ga5 Lu7 3.301116 1_545
Ga5 Lu6 3.301116 1_555
Ga5 Lu4 3.380569 1_655
Ga6 Lu1 2.823325 1_555
Ga6 Lu3 2.823325 1_556
Ga6 Lu16 2.866265 1_555
Ga6 Lu14 2.866265 1_556
Ga6 Lu23 2.866280 1_555
Ga6 Lu9 2.866280 1_555
Ga6 Lu5 3.301101 1_556
Ga6 Lu4 3.301101 1_555
Ga6 Lu7 3.380577 1_555
Ga7 Lu3 2.823325 1_555
Ga7 Lu1 2.823325 1_554
Ga7 Lu8 2.866265 1_555
Ga7 Lu22 2.866265 1_554
Ga7 Lu17 2.866280 1_555
Ga7 Lu15 2.866280 1_555
Ga7 Lu4 3.301101 1_554
Ga7 Lu5 3.301101 1_555
Ga7 Lu6 3.380577 1_555
Ga8 Lu4 2.887433 1_555
Ga8 Lu1 2.932536 1_555
Ga8 Lu13 2.982881 1_545
Ga8 Lu11 2.982881 1_555
Ga8 Lu19 3.048926 1_445
Ga8 Lu21 3.048926 1_455
Ga8 Lu22 3.202364 1_555
Ga8 Lu16 3.202364 1_555
Ga8 Lu2 3.591577 1_555
Ga9 Lu5 2.887447 1_556
Ga9 Lu1 2.932536 1_555
Ga9 Lu10 2.982883 1_555
Ga9 Lu12 2.982883 1_555
Ga9 Lu20 3.048921 1_656
Ga9 Lu18 3.048921 1_656
Ga9 Lu17 3.202375 1_556
Ga9 Lu23 3.202375 1_555
Ga9 Lu2 3.591577 1_555
Ga10 Ga14 2.734272 1_564
Ga10 Lu6 2.887440 1_565
Ga10 Lu0 2.932536 1_555
Ga10 Lu9 2.982881 1_554
Ga10 Lu14 2.982892 1_555
Ga10 Lu17 3.048926 1_565
Ga10 Lu22 3.048942 1_564
Ga10 Lu21 3.202375 1_565
Ga10 Lu18 3.202384 1_555
Ga10 Lu3 3.591577 1_555
Ga11 Ga15 2.734275 1_555
Ga11 Lu7 2.887440 1_555
Ga11 Lu0 2.932536 1_555
Ga11 Lu15 2.982881 1_555
Ga11 Lu8 2.982892 1_555
Ga11 Lu23 3.048926 1_555
Ga11 Lu16 3.048942 1_555
Ga11 Lu19 3.202375 1_555
Ga11 Lu20 3.202384 1_555
Ga11 Lu3 3.591577 1_555
Ga12 Ga8 2.734275 1_665
Ga12 Lu5 2.887433 1_555
Ga12 Lu3 2.932536 1_555
Ga12 Lu21 2.982881 1_565
Ga12 Lu19 2.982881 1_555
Ga12 Lu11 3.048926 1_665
Ga12 Lu13 3.048926 1_655
Ga12 Lu14 3.202364 1_555
Ga12 Lu8 3.202364 1_555
Ga12 Lu0 3.591577 1_555
Ga13 Ga9 2.734279 1_454
Ga13 Lu4 2.887440 1_554
Ga13 Lu3 2.932534 1_555
Ga13 Lu18 2.982884 1_555
Ga13 Lu20 2.982893 1_555
Ga13 Lu12 3.048914 1_454
Ga13 Lu10 3.048923 1_454
Ga13 Lu9 3.202365 1_554
Ga13 Lu15 3.202380 1_555
Ga13 Lu0 3.591582 1_555
Ga14 Lu7 2.887433 1_545
Ga14 Lu2 2.932541 1_555
Ga14 Lu17 2.982887 1_556
Ga14 Lu22 2.982898 1_555
Ga14 Lu9 3.048918 1_545
Ga14 Lu14 3.048934 1_546
Ga14 Lu13 3.202375 1_545
Ga14 Lu10 3.202384 1_555
Ga14 Lu1 3.591588 1_555
Ga15 Lu6 2.887440 1_555
Ga15 Lu2 2.932536 1_555
Ga15 Lu23 2.982881 1_555
Ga15 Lu16 2.982892 1_555
Ga15 Lu15 3.048926 1_555
Ga15 Lu8 3.048942 1_555
Ga15 Lu11 3.202375 1_555
Ga15 Lu12 3.202384 1_555
Ga15 Lu1 3.591577 1_555
