# generated using pymatgen
data_La12Mn3(AlSe7)4
_symmetry_space_group_name_H-M   'P 1'
_cell_length_a   10.68703700
_cell_length_b   12.40271952
_cell_length_c   12.40890274
_cell_angle_alpha   60.94599119
_cell_angle_beta   64.54610532
_cell_angle_gamma   64.52761150
_symmetry_Int_Tables_number   1
_chemical_formula_structural   La12Mn3(AlSe7)4
_chemical_formula_sum   'La12 Mn3 Al4 Se28'
_cell_volume   1246.14004612
_cell_formula_units_Z   1
loop_
 _symmetry_equiv_pos_site_id
 _symmetry_equiv_pos_as_xyz
  1  'x, y, z'
loop_
 _atom_site_type_symbol
 _atom_site_label
 _atom_site_symmetry_multiplicity
 _atom_site_fract_x
 _atom_site_fract_y
 _atom_site_fract_z
 _atom_site_occupancy
  La  La0  1  0.37492800  0.79470800  0.06597100  1
  La  La1  1  0.36834600  0.30057500  0.56436200  1
  La  La2  1  0.76535800  0.55271200  0.81535700  1
  La  La3  1  0.76494900  0.05167200  0.32336300  1
  La  La4  1  0.86125400  0.74678500  0.01780000  1
  La  La5  1  0.86563700  0.25132600  0.51463900  1
  La  La6  1  0.62621500  0.19034400  0.94816200  1
  La  La7  1  0.63246400  0.68348700  0.45272600  1
  La  La8  1  0.23082200  0.43042800  0.20236900  1
  La  La9  1  0.23659300  0.93448000  0.69088000  1
  La  La10  1  0.13653200  0.24033900  0.99690100  1
  La  La11  1  0.13710000  0.72991300  0.50038200  1
  Mn  Mn0  1  0.99991800  0.74020500  0.25998800  1
  Mn  Mn1  1  0.00020100  0.26123200  0.73854000  1
  Mn  Mn2  1  0.00027600  0.00141200  0.99857100  1
  Al  Al0  1  0.33195400  0.99158500  0.34145800  1
  Al  Al1  1  0.33448600  0.49190200  0.84180800  1
  Al  Al2  1  0.66761600  0.90785800  0.75790000  1
  Al  Al3  1  0.66596300  0.40832000  0.25939100  1
  Se  Se0  1  0.33411100  0.67864100  0.65334400  1
  Se  Se1  1  0.33269800  0.18010600  0.15420500  1
  Se  Se2  1  0.66493300  0.09851200  0.57291800  1
  Se  Se3  1  0.66860400  0.59308600  0.06856200  1
  Se  Se4  1  0.09470600  0.99121800  0.48957300  1
  Se  Se5  1  0.09910300  0.49545100  0.99207700  1
  Se  Se6  1  0.41903200  0.79925200  0.29818900  1
  Se  Se7  1  0.41804200  0.30027600  0.79632700  1
  Se  Se8  1  0.48670000  0.95880700  0.45537800  1
  Se  Se9  1  0.48174800  0.46253100  0.96094900  1
  Se  Se10  1  0.90371100  0.75781000  0.75609900  1
  Se  Se11  1  0.90302400  0.25946000  0.25578300  1
  Se  Se12  1  0.58321800  0.95287000  0.94971400  1
  Se  Se13  1  0.58167300  0.45337000  0.45068800  1
  Se  Se14  1  0.51432700  0.79341700  0.78901200  1
  Se  Se15  1  0.51424400  0.29191300  0.29104900  1
  Se  Se16  1  0.15349000  0.24566400  0.51424700  1
  Se  Se17  1  0.14537700  0.76634600  0.00190000  1
  Se  Se18  1  0.08673200  0.95364000  0.19136700  1
  Se  Se19  1  0.08430000  0.44131400  0.71146100  1
  Se  Se20  1  0.76859000  0.92398500  0.16222200  1
  Se  Se21  1  0.76154700  0.40783200  0.67757600  1
  Se  Se22  1  0.85083900  0.75661600  0.48418400  1
  Se  Se23  1  0.85362300  0.24299700  0.98918100  1
  Se  Se24  1  0.91485200  0.05605700  0.79883300  1
  Se  Se25  1  0.90844900  0.56227000  0.28900200  1
  Se  Se26  1  0.23147300  0.08552500  0.82882400  1
  Se  Se27  1  0.24024200  0.59101200  0.31750500  1
loop_
_geom_bond_atom_site_label_1
_geom_bond_atom_site_label_2
_geom_bond_distance
_geom_bond_site_symmetry_2
La0 Se12 3.021807 1_554
La0 Se3 3.059824 1_555
La0 Se18 3.070901 1_555
La0 Se17 3.076456 1_555
La0 Se14 3.108525 1_554
La0 Se27 3.131120 1_555
La0 Se6 3.142744 1_555
La0 Se26 3.582213 1_564
La1 Se16 3.017752 1_555
La1 Se13 3.022302 1_555
La1 Se19 3.060674 1_555
La1 Se2 3.088163 1_555
La1 Se15 3.099900 1_555
La1 Se7 3.141568 1_555
La1 Se26 3.278924 1_555
La1 Se27 3.588743 1_555
La2 Se19 3.015165 1_655
La2 Se14 3.022188 1_555
La2 Se21 3.043085 1_555
La2 Se3 3.079321 1_556
La2 Se10 3.111521 1_555
La2 Se9 3.154062 1_555
La2 Se23 3.298882 1_555
La2 Se22 3.575504 1_555
La3 Se15 3.018908 1_555
La3 Se2 3.072068 1_555
La3 Se20 3.076304 1_545
La3 Se18 3.079497 1_645
La3 Se11 3.103320 1_555
La3 Se8 3.127137 1_545
La3 Se22 3.131942 1_545
La3 Se23 3.567074 1_554
La4 Se10 3.020901 1_554
La4 Se3 3.060142 1_555
La4 Se17 3.064295 1_655
La4 Se20 3.074156 1_555
La4 Se12 3.099000 1_554
La4 Se5 3.119882 1_654
La4 Se25 3.130961 1_555
La4 Se24 3.585180 1_564
La5 Se11 3.017329 1_555
La5 Se21 3.019029 1_555
La5 Se16 3.044700 1_655
La5 Se2 3.089999 1_555
La5 Se13 3.117090 1_555
La5 Se4 3.166090 1_645
La5 Se24 3.283566 1_555
La5 Se25 3.584781 1_555
La6 Se7 2.976103 1_555
La6 Se23 3.056680 1_555
La6 Se24 3.063989 1_555
La6 Se1 3.086468 1_556
La6 Se9 3.103517 1_555
La6 Se12 3.160362 1_545
La6 Se20 3.303314 1_546
La6 Se21 3.320622 1_555
La7 Se25 3.014778 1_555
La7 Se6 3.034826 1_555
La7 Se22 3.060922 1_555
La7 Se0 3.092593 1_555
La7 Se8 3.094779 1_555
La7 Se13 3.139345 1_555
La7 Se21 3.370948 1_555
La7 Se20 3.576250 1_555
La8 Se27 3.012973 1_555
La8 Se9 3.029659 1_554
La8 Se25 3.062201 1_455
La8 Se1 3.084960 1_555
La8 Se5 3.094905 1_554
La8 Se15 3.144804 1_555
La8 Se16 3.343316 1_555
La8 Se17 3.604702 1_555
La9 Se8 2.983042 1_555
La9 Se26 3.064054 1_565
La9 Se24 3.071500 1_465
La9 Se0 3.089567 1_555
La9 Se4 3.108899 1_555
La9 Se14 3.150320 1_555
La9 Se17 3.300255 1_556
La9 Se16 3.316223 1_565
La10 Se5 2.987135 1_555
La10 Se23 3.051513 1_455
La10 Se26 3.075894 1_555
La10 Se7 3.080370 1_555
La10 Se1 3.085023 1_556
La10 Se11 3.153347 1_456
La10 Se18 3.307593 1_546
La10 Se19 3.316327 1_555
La11 Se4 3.015573 1_555
La11 Se22 3.016901 1_455
La11 Se27 3.057158 1_555
La11 Se0 3.090513 1_555
La11 Se6 3.122172 1_555
La11 Se10 3.151318 1_455
La11 Se19 3.369269 1_555
La11 Se18 3.584421 1_555
Mn0 Se27 2.595168 1_655
Mn0 Se25 2.595548 1_555
Mn0 Se22 2.603951 1_555
Mn0 Se20 2.797200 1_555
Mn0 Se18 2.799557 1_655
Mn0 Se17 2.814940 1_655
Mn1 Se19 2.578253 1_555
Mn1 Se21 2.591714 1_455
Mn1 Se16 2.607306 1_555
Mn1 Se24 2.725456 1_455
Mn1 Se26 2.736595 1_555
Mn1 Se23 2.758970 1_455
Mn2 Se17 2.637349 1_546
Mn2 Se18 2.642095 1_546
Mn2 Se20 2.646865 1_446
Mn2 Se24 2.686466 1_455
Mn2 Se23 2.688192 1_455
Mn2 Se26 2.690597 1_555
Al0 Se1 2.364208 1_565
Al0 Se6 2.397860 1_555
Al0 Se8 2.402419 1_555
Al0 Se4 2.408913 1_555
Al1 Se0 2.360649 1_555
Al1 Se5 2.399883 1_555
Al1 Se9 2.403952 1_555
Al1 Se7 2.410109 1_555
Al2 Se2 2.363820 1_565
Al2 Se14 2.402413 1_555
Al2 Se10 2.404817 1_555
Al2 Se12 2.408877 1_555
Al3 Se3 2.363724 1_555
Al3 Se13 2.403282 1_555
Al3 Se15 2.404785 1_555
Al3 Se11 2.405966 1_555
