# generated using pymatgen
data_Nb2Co2Si3
_symmetry_space_group_name_H-M   'P 1'
_cell_length_a   8.99040048
_cell_length_b   8.99040048
_cell_length_c   8.99040048
_cell_angle_alpha   94.52984344
_cell_angle_beta   94.52984344
_cell_angle_gamma   147.35652115
_symmetry_Int_Tables_number   1
_chemical_formula_structural   Nb2Co2Si3
_chemical_formula_sum   'Nb8 Co8 Si12'
_cell_volume   376.17589822
_cell_formula_units_Z   4
loop_
 _symmetry_equiv_pos_site_id
 _symmetry_equiv_pos_as_xyz
  1  'x, y, z'
loop_
 _atom_site_type_symbol
 _atom_site_label
 _atom_site_symmetry_multiplicity
 _atom_site_fract_x
 _atom_site_fract_y
 _atom_site_fract_z
 _atom_site_occupancy
  Nb  Nb0  1  0.13526000  0.13526000  0.27052000  1
  Nb  Nb1  1  0.86474000  0.86474000  0.72948000  1
  Nb  Nb2  1  0.86474000  0.13526000  0.00000000  1
  Nb  Nb3  1  0.13526000  0.86474000  0.00000000  1
  Nb  Nb4  1  0.30543500  0.50000000  0.80543500  1
  Nb  Nb5  1  0.69456500  0.50000000  0.19456500  1
  Nb  Nb6  1  0.50000000  0.30543500  0.80543500  1
  Nb  Nb7  1  0.50000000  0.69456500  0.19456500  1
  Co  Co0  1  0.38762800  0.88762800  0.77525500  1
  Co  Co1  1  0.61237200  0.11237200  0.22474500  1
  Co  Co2  1  0.11237200  0.61237200  0.22474500  1
  Co  Co3  1  0.61237200  0.38762800  0.50000000  1
  Co  Co4  1  0.88762800  0.38762800  0.77525500  1
  Co  Co5  1  0.38762800  0.61237200  0.50000000  1
  Co  Co6  1  0.88762800  0.11237200  0.50000000  1
  Co  Co7  1  0.11237200  0.88762800  0.50000000  1
  Si  Si0  1  0.25582600  0.25582600  0.00000000  1
  Si  Si1  1  0.74417400  0.74417400  0.00000000  1
  Si  Si2  1  0.28642200  0.28642200  0.57284300  1
  Si  Si3  1  0.71357800  0.71357800  0.42715700  1
  Si  Si4  1  0.71357800  0.28642200  0.00000000  1
  Si  Si5  1  0.28642200  0.71357800  0.00000000  1
  Si  Si6  1  0.29181200  0.00000000  0.29181200  1
  Si  Si7  1  0.70818800  0.00000000  0.70818800  1
  Si  Si8  1  0.00000000  0.29181200  0.29181200  1
  Si  Si9  1  0.00000000  0.70818800  0.70818800  1
  Si  Si10  1  0.00000000  0.50000000  0.50000000  1
  Si  Si11  1  0.50000000  0.00000000  0.50000000  1
loop_
_geom_bond_atom_site_label_1
_geom_bond_atom_site_label_2
_geom_bond_distance
_geom_bond_site_symmetry_2
Nb0 Si8 2.524469 1_555
Nb0 Si6 2.524469 1_555
Nb0 Si2 2.608466 1_555
Nb0 Si0 2.668149 1_555
Nb0 Si1 2.668149 1_445
Nb0 Si3 2.865324 1_555
Nb0 Si3 2.865328 1_445
Nb1 Si9 2.524469 1_655
Nb1 Si7 2.524469 1_565
Nb1 Si3 2.608466 1_555
Nb1 Si0 2.668149 1_666
Nb1 Si1 2.668149 1_556
Nb1 Si2 2.865324 1_555
Nb1 Si2 2.865328 1_665
Nb2 Si7 2.524469 1_554
Nb2 Si8 2.524469 1_655
Nb2 Si4 2.608474 1_555
Nb2 Si0 2.668149 1_655
Nb2 Si1 2.668149 1_545
Nb2 Si5 2.865322 1_545
Nb2 Si5 2.865322 1_655
Nb3 Si9 2.524469 1_554
Nb3 Si6 2.524469 1_565
Nb3 Si5 2.608474 1_555
Nb3 Si0 2.668149 1_565
Nb3 Si1 2.668149 1_455
Nb3 Si4 2.865322 1_455
Nb3 Si4 2.865322 1_565
Nb4 Si5 2.616372 1_556
Nb4 Si2 2.616379 1_555
Nb4 Si0 2.675556 1_556
Nb4 Si1 2.675556 1_556
Nb4 Si7 2.791349 1_565
Nb4 Si7 2.791349 1_455
Nb5 Si4 2.616372 1_555
Nb5 Si3 2.616379 1_555
Nb5 Si1 2.675556 1_555
Nb5 Si0 2.675556 1_555
Nb5 Si6 2.791349 1_555
Nb5 Si6 2.791349 1_665
Nb6 Si4 2.616372 1_556
Nb6 Si2 2.616379 1_555
Nb6 Si0 2.675556 1_556
Nb6 Si1 2.675556 1_556
Nb6 Si9 2.791349 1_655
Nb6 Si9 2.791349 1_545
Nb7 Si5 2.616372 1_555
Nb7 Si3 2.616379 1_555
Nb7 Si1 2.675556 1_555
Nb7 Si0 2.675556 1_555
Nb7 Si8 2.791349 1_665
Nb7 Si8 2.791349 1_555
Co0 Si7 2.270969 1_565
Co0 Si9 2.270971 1_555
Co0 Si4 2.398142 1_566
Co0 Si5 2.398145 1_556
Co0 Si11 2.690008 1_565
Co0 Si10 2.690011 1_555
Co0 Nb6 2.934040 1_565
Co0 Nb4 2.934043 1_555
Co1 Si6 2.270969 1_555
Co1 Si8 2.270971 1_655
Co1 Si5 2.398142 1_545
Co1 Si4 2.398145 1_555
Co1 Si11 2.690008 1_555
Co1 Si10 2.690011 1_655
Co1 Nb7 2.934040 1_545
Co1 Nb5 2.934043 1_555
Co2 Si8 2.270969 1_555
Co2 Si6 2.270971 1_565
Co2 Si4 2.398142 1_455
Co2 Si5 2.398145 1_555
Co2 Si10 2.690008 1_555
Co2 Si11 2.690011 1_565
Co2 Nb5 2.934040 1_455
Co2 Nb7 2.934043 1_555
Co3 Si9 2.270972 1_655
Co3 Si6 2.270972 1_555
Co3 Si3 2.398133 1_555
Co3 Si2 2.398133 1_555
Co3 Si11 2.690017 1_555
Co3 Si10 2.690017 1_655
Co3 Nb5 2.934041 1_555
Co3 Nb6 2.934041 1_555
Co4 Si9 2.270969 1_655
Co4 Si7 2.270971 1_555
Co4 Si5 2.398142 1_656
Co4 Si4 2.398145 1_556
Co4 Si10 2.690008 1_655
Co4 Si11 2.690011 1_555
Co4 Nb4 2.934040 1_655
Co4 Nb6 2.934043 1_555
Co5 Si8 2.270972 1_555
Co5 Si7 2.270972 1_565
Co5 Si2 2.398133 1_555
Co5 Si3 2.398133 1_555
Co5 Si11 2.690017 1_565
Co5 Si10 2.690017 1_555
Co5 Nb4 2.934041 1_555
Co5 Nb7 2.934041 1_555
Co6 Si7 2.270972 1_555
Co6 Si8 2.270972 1_655
Co6 Si2 2.398136 1_655
Co6 Si3 2.398136 1_545
Co6 Si11 2.690017 1_555
Co6 Si10 2.690017 1_655
Co6 Nb7 2.934041 1_545
Co6 Nb4 2.934041 1_655
Co7 Si6 2.270972 1_565
Co7 Si9 2.270972 1_555
Co7 Si2 2.398136 1_565
Co7 Si3 2.398136 1_455
Co7 Si11 2.690017 1_565
Co7 Si10 2.690017 1_555
Co7 Nb5 2.934041 1_455
Co7 Nb6 2.934041 1_565
Si0 Si1 2.467701 1_555
Si0 Si1 2.585459 1_445
Si10 Si11 2.526580 1_455
Si10 Si11 2.526580 1_565
Si10 Si8 2.540298 1_555
Si10 Si9 2.540298 1_555
Si11 Si6 2.540298 1_555
Si11 Si7 2.540298 1_555
