# generated using pymatgen
data_ErLu(B2Ru)2
_symmetry_space_group_name_H-M   'P 1'
_cell_length_a   5.28100400
_cell_length_b   5.86722800
_cell_length_c   6.31030200
_cell_angle_alpha   90.00000000
_cell_angle_beta   90.00000000
_cell_angle_gamma   90.00000000
_symmetry_Int_Tables_number   1
_chemical_formula_structural   ErLu(B2Ru)2
_chemical_formula_sum   'Er2 Lu2 B8 Ru4'
_cell_volume   195.52378955
_cell_formula_units_Z   2
loop_
 _symmetry_equiv_pos_site_id
 _symmetry_equiv_pos_as_xyz
  1  'x, y, z'
loop_
 _atom_site_type_symbol
 _atom_site_label
 _atom_site_symmetry_multiplicity
 _atom_site_fract_x
 _atom_site_fract_y
 _atom_site_fract_z
 _atom_site_occupancy
  Er  Er0  1  0.50000000  0.48952000  0.58559100  1
  Er  Er1  1  0.50000000  0.98952000  0.41440900  1
  Lu  Lu0  1  0.00000000  0.51077100  0.91524700  1
  Lu  Lu1  1  0.00000000  0.01077100  0.08475300  1
  B  B0  1  0.66783300  0.13284600  0.78861800  1
  B  B1  1  0.33216700  0.63284600  0.21138200  1
  B  B2  1  0.16489600  0.86635200  0.71503300  1
  B  B3  1  0.83510400  0.36635200  0.28496700  1
  B  B4  1  0.83510400  0.86635200  0.71503300  1
  B  B5  1  0.16489600  0.36635200  0.28496700  1
  B  B6  1  0.33216700  0.13284600  0.78861800  1
  B  B7  1  0.66783300  0.63284600  0.21138200  1
  Ru  Ru0  1  0.50000000  0.32022300  0.06776000  1
  Ru  Ru1  1  0.50000000  0.82022300  0.93224000  1
  Ru  Ru2  1  0.00000000  0.68109000  0.43057100  1
  Ru  Ru3  1  0.00000000  0.18109000  0.56942900  1
loop_
_geom_bond_atom_site_label_1
_geom_bond_atom_site_label_2
_geom_bond_distance
_geom_bond_site_symmetry_2
Er0 Ru1 2.924001 1_555
Er1 Ru0 2.924001 1_565
Lu0 Ru3 2.916099 1_555
Lu1 Ru2 2.916099 1_545
B0 B6 1.772653 1_555
B0 B4 1.854919 1_545
B0 Ru1 2.229653 1_545
B0 Ru3 2.251745 1_655
B0 Ru0 2.257653 1_556
B0 Er0 2.608887 1_555
B0 Er1 2.658723 1_545
B0 Lu1 2.661236 1_656
B0 Lu0 2.938091 1_655
B1 B7 1.772653 1_555
B1 B5 1.854919 1_555
B1 Ru0 2.229653 1_555
B1 Ru2 2.251745 1_555
B1 Ru1 2.257653 1_554
B1 Er1 2.608887 1_555
B1 Er0 2.658723 1_555
B1 Lu0 2.661236 1_554
B1 Lu1 2.938091 1_565
B2 B4 1.741633 1_455
B2 B6 1.854919 1_565
B2 Ru3 2.238884 1_565
B2 Ru1 2.254706 1_555
B2 Ru2 2.272005 1_555
B2 Lu0 2.589801 1_555
B2 Lu1 2.630476 1_566
B2 Er1 2.693090 1_555
B2 Er0 2.947426 1_555
B3 B5 1.741633 1_655
B3 B7 1.854919 1_555
B3 Ru2 2.238884 1_655
B3 Ru0 2.254706 1_555
B3 Ru3 2.272005 1_655
B3 Lu1 2.589801 1_655
B3 Lu0 2.630476 1_654
B3 Er0 2.693090 1_555
B3 Er1 2.947426 1_545
B4 Ru3 2.238884 1_665
B4 Ru1 2.254706 1_555
B4 Ru2 2.272005 1_655
B4 Lu0 2.589801 1_655
B4 Lu1 2.630476 1_666
B4 Er1 2.693090 1_555
B4 Er0 2.947426 1_555
B5 Ru2 2.238884 1_555
B5 Ru0 2.254706 1_555
B5 Ru3 2.272005 1_555
B5 Lu1 2.589801 1_555
B5 Lu0 2.630476 1_554
B5 Er0 2.693090 1_555
B5 Er1 2.947426 1_545
B6 Ru1 2.229653 1_545
B6 Ru3 2.251745 1_555
B6 Ru0 2.257653 1_556
B6 Er0 2.608887 1_555
B6 Er1 2.658723 1_545
B6 Lu1 2.661236 1_556
B6 Lu0 2.938091 1_555
B7 Ru0 2.229653 1_555
B7 Ru2 2.251745 1_655
B7 Ru1 2.257653 1_554
B7 Er1 2.608887 1_555
B7 Er0 2.658723 1_555
B7 Lu0 2.661236 1_654
B7 Lu1 2.938091 1_665
