# generated using pymatgen
data_BaMg30FeO32
_symmetry_space_group_name_H-M   'P 1'
_cell_length_a   8.67230800
_cell_length_b   8.67230800
_cell_length_c   8.64616800
_cell_angle_alpha   90.00000000
_cell_angle_beta   90.00000000
_cell_angle_gamma   90.00000000
_symmetry_Int_Tables_number   1
_chemical_formula_structural   BaMg30FeO32
_chemical_formula_sum   'Ba1 Mg30 Fe1 O32'
_cell_volume   650.26900970
_cell_formula_units_Z   1
loop_
 _symmetry_equiv_pos_site_id
 _symmetry_equiv_pos_as_xyz
  1  'x, y, z'
loop_
 _atom_site_type_symbol
 _atom_site_label
 _atom_site_symmetry_multiplicity
 _atom_site_fract_x
 _atom_site_fract_y
 _atom_site_fract_z
 _atom_site_occupancy
  Ba  Ba0  1  0.00000000  0.00000000  0.50000000  1
  Mg  Mg0  1  0.50000000  0.00000000  0.00000000  1
  Mg  Mg1  1  0.50000000  0.00000000  0.50000000  1
  Mg  Mg2  1  0.00000000  0.50000000  0.00000000  1
  Mg  Mg3  1  0.00000000  0.50000000  0.50000000  1
  Mg  Mg4  1  0.50000000  0.50000000  0.00000000  1
  Mg  Mg5  1  0.50000000  0.50000000  0.50000000  1
  Mg  Mg6  1  0.25911200  0.00000000  0.24275300  1
  Mg  Mg7  1  0.25911200  0.00000000  0.75724700  1
  Mg  Mg8  1  0.74088800  0.00000000  0.24275300  1
  Mg  Mg9  1  0.74088800  0.00000000  0.75724700  1
  Mg  Mg10  1  0.25076400  0.50000000  0.24906600  1
  Mg  Mg11  1  0.25076400  0.50000000  0.75093400  1
  Mg  Mg12  1  0.74923600  0.50000000  0.24906600  1
  Mg  Mg13  1  0.74923600  0.50000000  0.75093400  1
  Mg  Mg14  1  0.00000000  0.25911200  0.24275300  1
  Mg  Mg15  1  0.00000000  0.25911200  0.75724700  1
  Mg  Mg16  1  0.50000000  0.25076400  0.24906600  1
  Mg  Mg17  1  0.50000000  0.25076400  0.75093400  1
  Mg  Mg18  1  0.00000000  0.74088800  0.24275300  1
  Mg  Mg19  1  0.00000000  0.74088800  0.75724700  1
  Mg  Mg20  1  0.50000000  0.74923600  0.24906600  1
  Mg  Mg21  1  0.50000000  0.74923600  0.75093400  1
  Mg  Mg22  1  0.25001600  0.25001600  0.00000000  1
  Mg  Mg23  1  0.25744900  0.25744900  0.50000000  1
  Mg  Mg24  1  0.74998400  0.25001600  0.00000000  1
  Mg  Mg25  1  0.74255100  0.25744900  0.50000000  1
  Mg  Mg26  1  0.25001600  0.74998400  0.00000000  1
  Mg  Mg27  1  0.25744900  0.74255100  0.50000000  1
  Mg  Mg28  1  0.74998400  0.74998400  0.00000000  1
  Mg  Mg29  1  0.74255100  0.74255100  0.50000000  1
  Fe  Fe0  1  0.00000000  0.00000000  0.00000000  1
  O  O0  1  0.00000000  0.26191800  0.00000000  1
  O  O1  1  0.00000000  0.27881400  0.50000000  1
  O  O2  1  0.50000000  0.25210800  0.00000000  1
  O  O3  1  0.50000000  0.25565800  0.50000000  1
  O  O4  1  0.00000000  0.73808200  0.00000000  1
  O  O5  1  0.00000000  0.72118600  0.50000000  1
  O  O6  1  0.50000000  0.74789200  0.00000000  1
  O  O7  1  0.50000000  0.74434200  0.50000000  1
  O  O8  1  0.24887500  0.24887500  0.25067200  1
  O  O9  1  0.24887500  0.24887500  0.74932800  1
  O  O10  1  0.75112500  0.24887500  0.25067200  1
  O  O11  1  0.75112500  0.24887500  0.74932800  1
  O  O12  1  0.24887500  0.75112500  0.25067200  1
  O  O13  1  0.24887500  0.75112500  0.74932800  1
  O  O14  1  0.75112500  0.75112500  0.25067200  1
  O  O15  1  0.75112500  0.75112500  0.74932800  1
  O  O16  1  0.00000000  0.00000000  0.22236800  1
  O  O17  1  0.00000000  0.00000000  0.77763200  1
  O  O18  1  0.50000000  0.00000000  0.24550600  1
  O  O19  1  0.50000000  0.00000000  0.75449400  1
  O  O20  1  0.00000000  0.50000000  0.24550600  1
  O  O21  1  0.00000000  0.50000000  0.75449400  1
  O  O22  1  0.50000000  0.50000000  0.24901600  1
  O  O23  1  0.50000000  0.50000000  0.75098400  1
  O  O24  1  0.26191800  0.00000000  0.00000000  1
  O  O25  1  0.27881400  0.00000000  0.50000000  1
  O  O26  1  0.73808200  0.00000000  0.00000000  1
  O  O27  1  0.72118600  0.00000000  0.50000000  1
  O  O28  1  0.25210800  0.50000000  0.00000000  1
  O  O29  1  0.25565800  0.50000000  0.50000000  1
  O  O30  1  0.74789200  0.50000000  0.00000000  1
  O  O31  1  0.74434200  0.50000000  0.50000000  1
loop_
_geom_bond_atom_site_label_1
_geom_bond_atom_site_label_2
_geom_bond_distance
_geom_bond_site_symmetry_2
Ba0 O16 2.400453 1_555
Ba0 O17 2.400453 1_555
Ba0 O25 2.417961 1_555
Ba0 O5 2.417961 1_545
Ba0 O1 2.417961 1_555
Ba0 O27 2.417961 1_455
Mg0 O26 2.064720 1_555
Mg0 O24 2.064720 1_555
Mg0 O19 2.122686 1_554
Mg0 O18 2.122686 1_555
Mg0 O2 2.186358 1_555
Mg0 O6 2.186358 1_545
Mg1 O27 1.918193 1_555
Mg1 O25 1.918193 1_555
Mg1 O18 2.200398 1_555
Mg1 O19 2.200398 1_555
Mg1 O3 2.217145 1_555
Mg1 O7 2.217145 1_545
Mg2 O4 2.064720 1_555
Mg2 O0 2.064720 1_555
Mg2 O21 2.122686 1_554
Mg2 O20 2.122686 1_555
Mg2 O28 2.186358 1_555
Mg2 O30 2.186358 1_455
Mg3 O5 1.918193 1_555
Mg3 O1 1.918193 1_555
Mg3 O20 2.200398 1_555
Mg3 O21 2.200398 1_555
Mg3 O29 2.217145 1_555
Mg3 O31 2.217145 1_455
Mg4 O2 2.149796 1_555
Mg4 O28 2.149796 1_555
Mg4 O6 2.149796 1_555
Mg4 O30 2.149796 1_555
Mg4 O22 2.153034 1_555
Mg4 O23 2.153034 1_554
Mg5 O7 2.119009 1_555
Mg5 O31 2.119009 1_555
Mg5 O3 2.119009 1_555
Mg5 O29 2.119009 1_555
Mg5 O23 2.170050 1_555
Mg5 O22 2.170050 1_555
Mg6 O18 2.089191 1_555
Mg6 O24 2.099024 1_555
Mg6 O12 2.161231 1_545
Mg6 O8 2.161231 1_555
Mg6 O25 2.230754 1_555
Mg6 O16 2.254001 1_555
Mg7 O19 2.089191 1_555
Mg7 O24 2.099024 1_556
Mg7 O13 2.161231 1_545
Mg7 O9 2.161231 1_555
Mg7 O25 2.230754 1_555
Mg7 O17 2.254001 1_555
Mg8 O18 2.089191 1_555
Mg8 O26 2.099024 1_555
Mg8 O14 2.161231 1_545
Mg8 O10 2.161231 1_555
Mg8 O27 2.230754 1_555
Mg8 O16 2.254001 1_655
Mg9 O19 2.089191 1_555
Mg9 O26 2.099024 1_556
Mg9 O15 2.161231 1_545
Mg9 O11 2.161231 1_555
Mg9 O27 2.230754 1_555
Mg9 O17 2.254001 1_655
Mg10 O28 2.153498 1_555
Mg10 O22 2.161451 1_555
Mg10 O29 2.170033 1_555
Mg10 O20 2.174920 1_555
Mg10 O8 2.177939 1_555
Mg10 O12 2.177939 1_555
Mg11 O28 2.153498 1_556
Mg11 O23 2.161451 1_555
Mg11 O29 2.170033 1_555
Mg11 O21 2.174920 1_555
Mg11 O9 2.177939 1_555
Mg11 O13 2.177939 1_555
Mg12 O30 2.153498 1_555
Mg12 O22 2.161451 1_555
Mg12 O31 2.170033 1_555
Mg12 O20 2.174920 1_655
Mg12 O10 2.177939 1_555
Mg12 O14 2.177939 1_555
Mg13 O30 2.153498 1_556
Mg13 O23 2.161451 1_555
Mg13 O31 2.170033 1_555
Mg13 O21 2.174920 1_655
Mg13 O11 2.177939 1_555
Mg13 O15 2.177939 1_555
Mg14 O20 2.089191 1_555
Mg14 O0 2.099024 1_555
Mg14 O10 2.161231 1_455
Mg14 O8 2.161231 1_555
Mg14 O1 2.230754 1_555
Mg14 O16 2.254001 1_555
Mg15 O21 2.089191 1_555
Mg15 O0 2.099024 1_556
Mg15 O11 2.161231 1_455
Mg15 O9 2.161231 1_555
Mg15 O1 2.230754 1_555
Mg15 O17 2.254001 1_555
Mg16 O2 2.153498 1_555
Mg16 O22 2.161451 1_555
Mg16 O3 2.170033 1_555
Mg16 O18 2.174920 1_555
Mg16 O8 2.177939 1_555
Mg16 O10 2.177939 1_555
Mg17 O2 2.153498 1_556
Mg17 O23 2.161451 1_555
Mg17 O3 2.170033 1_555
Mg17 O19 2.174920 1_555
Mg17 O9 2.177939 1_555
Mg17 O11 2.177939 1_555
Mg18 O20 2.089191 1_555
Mg18 O4 2.099024 1_555
Mg18 O14 2.161231 1_455
Mg18 O12 2.161231 1_555
Mg18 O5 2.230754 1_555
Mg18 O16 2.254001 1_565
Mg19 O21 2.089191 1_555
Mg19 O4 2.099024 1_556
Mg19 O15 2.161231 1_455
Mg19 O13 2.161231 1_555
Mg19 O5 2.230754 1_555
Mg19 O17 2.254001 1_565
Mg20 O6 2.153498 1_555
Mg20 O22 2.161451 1_555
Mg20 O7 2.170033 1_555
Mg20 O18 2.174920 1_565
Mg20 O12 2.177939 1_555
Mg20 O14 2.177939 1_555
Mg21 O6 2.153498 1_556
Mg21 O23 2.161451 1_555
Mg21 O7 2.170033 1_555
Mg21 O19 2.174920 1_565
Mg21 O13 2.177939 1_555
Mg21 O15 2.177939 1_555
Mg22 O9 2.167397 1_554
Mg22 O8 2.167397 1_555
Mg22 O2 2.168014 1_555
Mg22 O28 2.168014 1_555
Mg22 O0 2.170671 1_555
Mg22 O24 2.170671 1_555
Mg23 O29 2.103534 1_555
Mg23 O3 2.103534 1_555
Mg23 O8 2.158295 1_555
Mg23 O9 2.158295 1_555
Mg23 O25 2.240352 1_555
Mg23 O1 2.240352 1_555
Mg24 O10 2.167397 1_555
Mg24 O11 2.167397 1_554
Mg24 O2 2.168014 1_555
Mg24 O30 2.168014 1_555
Mg24 O26 2.170671 1_555
Mg24 O0 2.170671 1_655
Mg25 O3 2.103534 1_555
Mg25 O31 2.103534 1_555
Mg25 O10 2.158295 1_555
Mg25 O11 2.158295 1_555
Mg25 O27 2.240352 1_555
Mg25 O1 2.240352 1_655
Mg26 O13 2.167397 1_554
Mg26 O12 2.167397 1_555
Mg26 O28 2.168014 1_555
Mg26 O6 2.168014 1_555
Mg26 O24 2.170671 1_565
Mg26 O4 2.170671 1_555
Mg27 O29 2.103534 1_555
Mg27 O7 2.103534 1_555
Mg27 O12 2.158295 1_555
Mg27 O13 2.158295 1_555
Mg27 O5 2.240352 1_555
Mg27 O25 2.240352 1_565
Mg28 O14 2.167397 1_555
Mg28 O15 2.167397 1_554
Mg28 O6 2.168014 1_555
Mg28 O30 2.168014 1_555
Mg28 O4 2.170671 1_655
Mg28 O26 2.170671 1_565
Mg29 O7 2.103534 1_555
Mg29 O31 2.103534 1_555
Mg29 O14 2.158295 1_555
Mg29 O15 2.158295 1_555
Mg29 O27 2.240352 1_565
Mg29 O5 2.240352 1_655
Fe0 O16 1.922631 1_555
Fe0 O17 1.922631 1_554
Fe0 O4 2.271434 1_545
Fe0 O0 2.271434 1_555
Fe0 O24 2.271434 1_555
Fe0 O26 2.271434 1_455
