# generated using pymatgen
data_MgSb
_symmetry_space_group_name_H-M   'P 1'
_cell_length_a   12.50531030
_cell_length_b   12.50531030
_cell_length_c   15.26728083
_cell_angle_alpha   81.08779402
_cell_angle_beta   81.08779402
_cell_angle_gamma   30.78796009
_symmetry_Int_Tables_number   1
_chemical_formula_structural   MgSb
_chemical_formula_sum   'Mg24 Sb24'
_cell_volume   1206.21147597
_cell_formula_units_Z   24
loop_
 _symmetry_equiv_pos_site_id
 _symmetry_equiv_pos_as_xyz
  1  'x, y, z'
loop_
 _atom_site_type_symbol
 _atom_site_label
 _atom_site_symmetry_multiplicity
 _atom_site_fract_x
 _atom_site_fract_y
 _atom_site_fract_z
 _atom_site_occupancy
  Mg  Mg0_0  1  0.01485050  0.01485050  0.99073979  1
  Mg  Mg0_1  1  0.01485050  0.01485050  0.49073979  1
  Mg  Mg0_2  1  0.01485050  0.51485050  0.99073979  1
  Mg  Mg0_3  1  0.01485050  0.51485050  0.49073979  1
  Mg  Mg0_4  1  0.51485050  0.01485050  0.99073979  1
  Mg  Mg0_5  1  0.51485050  0.01485050  0.49073979  1
  Mg  Mg0_6  1  0.51485050  0.51485050  0.99073979  1
  Mg  Mg0_7  1  0.51485050  0.51485050  0.49073979  1
  Mg  Mg1_0  1  0.47566427  0.47566427  0.30876743  1
  Mg  Mg1_1  1  0.47566427  0.47566427  0.80876744  1
  Mg  Mg1_2  1  0.47566427  0.97566427  0.30876743  1
  Mg  Mg1_3  1  0.47566427  0.97566427  0.80876743  1
  Mg  Mg1_4  1  0.97566427  0.47566427  0.30876743  1
  Mg  Mg1_5  1  0.97566427  0.47566427  0.80876743  1
  Mg  Mg1_6  1  0.97566427  0.97566427  0.30876743  1
  Mg  Mg1_7  1  0.97566427  0.97566427  0.80876743  1
  Mg  Mg2_0  1  0.33910526  0.33910526  0.33370096  1
  Mg  Mg2_1  1  0.33910527  0.33910526  0.83370096  1
  Mg  Mg2_2  1  0.33910526  0.83910526  0.33370096  1
  Mg  Mg2_3  1  0.33910526  0.83910526  0.83370096  1
  Mg  Mg2_4  1  0.83910526  0.33910526  0.33370096  1
  Mg  Mg2_5  1  0.83910526  0.33910526  0.83370096  1
  Mg  Mg2_6  1  0.83910526  0.83910526  0.33370096  1
  Mg  Mg2_7  1  0.83910526  0.83910526  0.83370096  1
  Sb  Sb0_0  1  0.27711858  0.27711858  0.15283212  1
  Sb  Sb0_1  1  0.27711858  0.27711858  0.65283212  1
  Sb  Sb0_2  1  0.27711858  0.77711858  0.15283212  1
  Sb  Sb0_3  1  0.27711859  0.77711858  0.65283212  1
  Sb  Sb0_4  1  0.77711858  0.27711858  0.15283212  1
  Sb  Sb0_5  1  0.77711858  0.27711859  0.65283212  1
  Sb  Sb0_6  1  0.77711858  0.77711858  0.15283212  1
  Sb  Sb0_7  1  0.77711859  0.77711859  0.65283212  1
  Sb  Sb1_0  1  0.15104608  0.15104608  0.17817727  1
  Sb  Sb1_1  1  0.15104608  0.15104607  0.67817726  1
  Sb  Sb1_2  1  0.15104607  0.65104607  0.17817726  1
  Sb  Sb1_3  1  0.15104607  0.65104607  0.67817726  1
  Sb  Sb1_4  1  0.65104607  0.15104607  0.17817727  1
  Sb  Sb1_5  1  0.65104608  0.15104608  0.67817726  1
  Sb  Sb1_6  1  0.65104608  0.65104608  0.17817727  1
  Sb  Sb1_7  1  0.65104608  0.65104608  0.67817726  1
  Sb  Sb2_0  1  0.15888181  0.15888181  0.45244893  1
  Sb  Sb2_1  1  0.15888181  0.15888181  0.95244893  1
  Sb  Sb2_2  1  0.15888181  0.65888180  0.45244893  1
  Sb  Sb2_3  1  0.15888181  0.65888180  0.95244893  1
  Sb  Sb2_4  1  0.65888181  0.15888181  0.45244893  1
  Sb  Sb2_5  1  0.65888181  0.15888181  0.95244893  1
  Sb  Sb2_6  1  0.65888180  0.65888180  0.45244893  1
  Sb  Sb2_7  1  0.65888180  0.65888180  0.95244893  1
loop_
_geom_bond_atom_site_label_1
_geom_bond_atom_site_label_2
_geom_bond_distance
_geom_bond_site_symmetry_2
Mg0_0 Sb0_2 3.033462 1_546
Mg0_0 Sb0_4 3.033462 1_456
Mg0_0 Mg1_7 3.074904 1_445
Mg0_0 Sb2_5 3.179007 1_455
Mg0_0 Sb2_3 3.179007 1_545
Mg0_0 Mg2_3 3.213967 1_545
Mg0_0 Mg2_5 3.213967 1_455
Mg0_0 Mg0_6 3.319595 1_545
Mg0_0 Mg0_6 3.319595 1_455
Mg0_0 Sb2_1 3.428045 1_555
Mg0_1 Sb0_5 3.033462 1_455
Mg0_1 Sb0_3 3.033462 1_545
Mg0_1 Mg1_6 3.074904 1_445
Mg0_1 Sb2_4 3.179007 1_455
Mg0_1 Sb2_2 3.179007 1_545
Mg0_1 Mg2_2 3.213967 1_545
Mg0_1 Mg2_4 3.213967 1_455
Mg0_1 Mg0_7 3.319595 1_455
Mg0_1 Mg0_7 3.319595 1_545
Mg0_1 Sb2_0 3.428045 1_555
Mg0_2 Sb0_6 3.033462 1_456
Mg0_2 Sb0_0 3.033462 1_556
Mg0_2 Mg1_5 3.074904 1_455
Mg0_2 Sb2_1 3.179007 1_555
Mg0_2 Sb2_7 3.179007 1_455
Mg0_2 Mg2_7 3.213967 1_455
Mg0_2 Mg2_1 3.213967 1_555
Mg0_2 Mg0_4 3.319595 1_555
Mg0_2 Mg0_4 3.319595 1_465
Mg0_2 Sb2_3 3.428045 1_555
Mg0_3 Sb0_1 3.033462 1_555
Mg0_3 Sb0_7 3.033462 1_455
Mg0_3 Mg1_4 3.074904 1_455
Mg0_3 Sb2_0 3.179007 1_555
Mg0_3 Sb2_6 3.179007 1_455
Mg0_3 Mg2_6 3.213967 1_455
Mg0_3 Mg2_0 3.213967 1_555
Mg0_3 Mg0_5 3.319595 1_555
Mg0_3 Mg0_5 3.319595 1_465
Mg0_3 Sb2_2 3.428045 1_555
Mg0_4 Sb0_6 3.033462 1_546
Mg0_4 Sb0_0 3.033462 1_556
Mg0_4 Mg1_3 3.074904 1_545
Mg0_4 Sb2_1 3.179007 1_555
Mg0_4 Sb2_7 3.179007 1_545
Mg0_4 Mg2_7 3.213967 1_545
Mg0_4 Mg2_1 3.213967 1_555
Mg0_4 Sb2_5 3.428045 1_555
Mg0_5 Sb0_1 3.033462 1_555
Mg0_5 Sb0_7 3.033462 1_545
Mg0_5 Mg1_2 3.074904 1_545
Mg0_5 Sb2_0 3.179007 1_555
Mg0_5 Sb2_6 3.179007 1_545
Mg0_5 Mg2_6 3.213967 1_545
Mg0_5 Mg2_0 3.213967 1_555
Mg0_5 Sb2_4 3.428045 1_555
Mg0_6 Sb0_2 3.033462 1_556
Mg0_6 Sb0_4 3.033462 1_556
Mg0_6 Mg1_1 3.074904 1_555
Mg0_6 Sb2_5 3.179007 1_555
Mg0_6 Sb2_3 3.179007 1_555
Mg0_6 Mg2_3 3.213967 1_555
Mg0_6 Mg2_5 3.213967 1_555
Mg0_6 Sb2_7 3.428045 1_555
Mg0_7 Sb0_3 3.033462 1_555
Mg0_7 Sb0_5 3.033462 1_555
Mg0_7 Mg1_0 3.074904 1_555
Mg0_7 Sb2_4 3.179007 1_555
Mg0_7 Sb2_2 3.179007 1_555
Mg0_7 Mg2_4 3.213967 1_555
Mg0_7 Mg2_2 3.213967 1_555
Mg0_7 Sb2_6 3.428045 1_555
Mg1_0 Sb0_4 3.002140 1_555
Mg1_0 Sb0_2 3.002140 1_555
Mg1_0 Sb2_4 3.004146 1_555
Mg1_0 Sb2_2 3.004146 1_555
Mg1_0 Mg2_0 3.253491 1_555
Mg1_0 Mg2_2 3.273699 1_555
Mg1_0 Mg2_4 3.273699 1_555
Mg1_0 Mg1_6 3.319595 1_545
Mg1_0 Mg1_6 3.319595 1_455
Mg1_0 Sb1_4 3.334714 1_555
Mg1_0 Sb1_2 3.334714 1_555
Mg1_1 Sb0_3 3.002140 1_555
Mg1_1 Sb0_5 3.002140 1_555
Mg1_1 Sb2_5 3.004146 1_555
Mg1_1 Sb2_3 3.004146 1_555
Mg1_1 Mg2_1 3.253491 1_555
Mg1_1 Mg2_5 3.273699 1_555
Mg1_1 Mg2_3 3.273699 1_555
Mg1_1 Mg1_7 3.319595 1_455
Mg1_1 Mg1_7 3.319595 1_545
Mg1_1 Sb1_5 3.334714 1_555
Mg1_1 Sb1_3 3.334714 1_555
Mg1_2 Sb0_6 3.002140 1_555
Mg1_2 Sb0_0 3.002140 1_565
Mg1_2 Sb2_6 3.004146 1_555
Mg1_2 Sb2_0 3.004146 1_565
Mg1_2 Mg2_2 3.253491 1_555
Mg1_2 Mg2_6 3.273699 1_555
Mg1_2 Mg2_0 3.273699 1_565
Mg1_2 Mg1_4 3.319595 1_555
Mg1_2 Mg1_4 3.319595 1_465
Mg1_2 Sb1_6 3.334714 1_555
Mg1_2 Sb1_0 3.334714 1_565
Mg1_3 Sb0_1 3.002140 1_565
Mg1_3 Sb0_7 3.002140 1_555
Mg1_3 Sb2_1 3.004146 1_565
Mg1_3 Sb2_7 3.004146 1_555
Mg1_3 Mg2_3 3.253491 1_555
Mg1_3 Mg2_7 3.273699 1_555
Mg1_3 Mg2_1 3.273699 1_565
Mg1_3 Mg1_5 3.319595 1_555
Mg1_3 Mg1_5 3.319595 1_465
Mg1_3 Sb1_7 3.334714 1_555
Mg1_3 Sb1_1 3.334714 1_565
Mg1_4 Sb0_6 3.002140 1_555
Mg1_4 Sb0_0 3.002140 1_655
Mg1_4 Sb2_6 3.004146 1_555
Mg1_4 Sb2_0 3.004146 1_655
Mg1_4 Mg2_4 3.253491 1_555
Mg1_4 Mg2_6 3.273699 1_555
Mg1_4 Mg2_0 3.273699 1_655
Mg1_4 Sb1_6 3.334714 1_555
Mg1_4 Sb1_0 3.334714 1_655
Mg1_5 Sb0_7 3.002140 1_555
Mg1_5 Sb0_1 3.002140 1_655
Mg1_5 Sb2_1 3.004146 1_655
Mg1_5 Sb2_7 3.004146 1_555
Mg1_5 Mg2_5 3.253491 1_555
Mg1_5 Mg2_7 3.273699 1_555
Mg1_5 Mg2_1 3.273699 1_655
Mg1_5 Sb1_7 3.334714 1_555
Mg1_5 Sb1_1 3.334714 1_655
Mg1_6 Sb0_4 3.002140 1_565
Mg1_6 Sb0_2 3.002140 1_655
Mg1_6 Sb2_4 3.004146 1_565
Mg1_6 Sb2_2 3.004146 1_655
Mg1_6 Mg2_6 3.253491 1_555
Mg1_6 Mg2_4 3.273699 1_565
Mg1_6 Mg2_2 3.273699 1_655
Mg1_6 Sb1_4 3.334714 1_565
Mg1_6 Sb1_2 3.334714 1_655
Mg1_7 Sb0_5 3.002140 1_565
Mg1_7 Sb0_3 3.002140 1_655
Mg1_7 Sb2_5 3.004146 1_565
Mg1_7 Sb2_3 3.004146 1_655
Mg1_7 Mg2_7 3.253491 1_555
Mg1_7 Mg2_5 3.273699 1_565
Mg1_7 Mg2_3 3.273699 1_655
Mg1_7 Sb1_5 3.334714 1_565
Mg1_7 Sb1_3 3.334714 1_655
Mg2_0 Sb1_4 3.079599 1_555
Mg2_0 Sb1_2 3.079599 1_555
Mg2_0 Sb2_2 3.138950 1_555
Mg2_0 Sb2_4 3.138950 1_555
Mg2_0 Mg2_6 3.319595 1_545
Mg2_0 Mg2_6 3.319595 1_455
Mg2_0 Sb0_0 3.344515 1_555
Mg2_1 Sb1_3 3.079599 1_555
Mg2_1 Sb1_5 3.079599 1_555
Mg2_1 Sb2_3 3.138950 1_555
Mg2_1 Sb2_5 3.138950 1_555
Mg2_1 Mg2_7 3.319595 1_545
Mg2_1 Mg2_7 3.319595 1_455
Mg2_1 Sb0_1 3.344515 1_555
Mg2_2 Sb1_6 3.079599 1_555
Mg2_2 Sb1_0 3.079599 1_565
Mg2_2 Sb2_6 3.138950 1_555
Mg2_2 Sb2_0 3.138950 1_565
Mg2_2 Mg2_4 3.319595 1_555
Mg2_2 Mg2_4 3.319595 1_465
Mg2_2 Sb0_2 3.344515 1_555
Mg2_3 Sb1_1 3.079599 1_565
Mg2_3 Sb1_7 3.079599 1_555
Mg2_3 Sb2_7 3.138950 1_555
Mg2_3 Sb2_1 3.138950 1_565
Mg2_3 Mg2_5 3.319595 1_555
Mg2_3 Mg2_5 3.319595 1_465
Mg2_3 Sb0_3 3.344515 1_555
Mg2_4 Sb1_6 3.079599 1_555
Mg2_4 Sb1_0 3.079599 1_655
Mg2_4 Sb2_6 3.138950 1_555
Mg2_4 Sb2_0 3.138950 1_655
Mg2_4 Sb0_4 3.344515 1_555
Mg2_5 Sb1_1 3.079599 1_655
Mg2_5 Sb1_7 3.079599 1_555
Mg2_5 Sb2_7 3.138950 1_555
Mg2_5 Sb2_1 3.138950 1_655
Mg2_5 Sb0_5 3.344515 1_555
Mg2_6 Sb1_4 3.079599 1_565
Mg2_6 Sb1_2 3.079599 1_655
Mg2_6 Sb2_4 3.138950 1_565
Mg2_6 Sb2_2 3.138950 1_655
Mg2_6 Sb0_6 3.344515 1_555
Mg2_7 Sb1_3 3.079599 1_655
Mg2_7 Sb1_5 3.079599 1_565
Mg2_7 Sb2_3 3.138950 1_655
Mg2_7 Sb2_5 3.138950 1_565
Mg2_7 Sb0_7 3.344515 1_555
Sb1_0 Sb2_1 3.420984 1_554
Sb1_1 Sb2_0 3.420984 1_555
Sb1_2 Sb2_3 3.420984 1_554
Sb1_3 Sb2_2 3.420984 1_555
Sb1_4 Sb2_5 3.420984 1_554
Sb1_5 Sb2_4 3.420984 1_555
Sb1_6 Sb2_7 3.420984 1_554
Sb1_7 Sb2_6 3.420984 1_555
Sb2_0 Sb2_6 3.319595 1_455
Sb2_0 Sb2_6 3.319595 1_545
Sb2_1 Sb2_7 3.319595 1_455
Sb2_1 Sb2_7 3.319595 1_545
Sb2_2 Sb2_4 3.319595 1_555
Sb2_2 Sb2_4 3.319595 1_465
Sb2_3 Sb2_5 3.319595 1_555
Sb2_3 Sb2_5 3.319595 1_465
