# generated using pymatgen
data_InRu3
_symmetry_space_group_name_H-M   'P 1'
_cell_length_a   4.53300200
_cell_length_b   5.62820791
_cell_length_c   5.62820791
_cell_angle_alpha   119.99999892
_cell_angle_beta   90.00000000
_cell_angle_gamma   90.00000000
_symmetry_Int_Tables_number   1
_chemical_formula_structural   InRu3
_chemical_formula_sum   'In2 Ru6'
_cell_volume   124.35315583
_cell_formula_units_Z   2
loop_
 _symmetry_equiv_pos_site_id
 _symmetry_equiv_pos_as_xyz
  1  'x, y, z'
loop_
 _atom_site_type_symbol
 _atom_site_label
 _atom_site_symmetry_multiplicity
 _atom_site_fract_x
 _atom_site_fract_y
 _atom_site_fract_z
 _atom_site_occupancy
  In  In0  1  0.75000000  0.33333300  0.66666700  1
  In  In1  1  0.25000000  0.66666700  0.33333300  1
  Ru  Ru0  1  0.75000000  0.83475800  0.16524200  1
  Ru  Ru1  1  0.75000000  0.33048500  0.16524200  1
  Ru  Ru2  1  0.75000000  0.83475800  0.66951500  1
  Ru  Ru3  1  0.25000000  0.16524200  0.83475800  1
  Ru  Ru4  1  0.25000000  0.66951500  0.83475800  1
  Ru  Ru5  1  0.25000000  0.16524200  0.33048500  1
loop_
_geom_bond_atom_site_label_1
_geom_bond_atom_site_label_2
_geom_bond_distance
_geom_bond_site_symmetry_2
In0 Ru3 2.796795 1_655
In0 Ru3 2.796795 1_555
In0 Ru4 2.796795 1_555
In0 Ru4 2.796795 1_655
In0 Ru5 2.796795 1_555
In0 Ru5 2.796795 1_655
In0 Ru2 2.814133 1_545
In0 Ru1 2.814133 1_556
In0 Ru0 2.814138 1_545
In0 Ru0 2.814138 1_556
In0 Ru1 2.814144 1_555
In0 Ru2 2.814144 1_555
In1 Ru0 2.796795 1_555
In1 Ru0 2.796795 1_455
In1 Ru2 2.796795 1_455
In1 Ru2 2.796795 1_555
In1 Ru1 2.796795 1_555
In1 Ru1 2.796795 1_455
In1 Ru4 2.814133 1_554
In1 Ru5 2.814133 1_565
In1 Ru3 2.814138 1_554
In1 Ru3 2.814138 1_565
In1 Ru5 2.814144 1_555
In1 Ru4 2.814144 1_555
Ru0 Ru5 2.780615 1_665
Ru0 Ru4 2.780615 1_654
Ru0 Ru4 2.780615 1_554
Ru0 Ru5 2.780615 1_565
Ru0 Ru1 2.790055 1_565
Ru0 Ru2 2.790055 1_554
Ru0 Ru1 2.838153 1_555
Ru0 Ru2 2.838153 1_555
Ru1 Ru3 2.780615 1_654
Ru1 Ru3 2.780615 1_554
Ru1 Ru5 2.780620 1_655
Ru1 Ru5 2.780620 1_555
Ru1 Ru2 2.790055 1_544
Ru1 Ru2 2.838153 1_555
Ru2 Ru3 2.780615 1_665
Ru2 Ru3 2.780615 1_565
Ru2 Ru4 2.780620 1_555
Ru2 Ru4 2.780620 1_655
Ru3 Ru5 2.790055 1_556
Ru3 Ru4 2.790055 1_545
Ru3 Ru4 2.838153 1_555
Ru3 Ru5 2.838153 1_555
Ru4 Ru5 2.790055 1_566
Ru4 Ru5 2.838153 1_555
