# generated using pymatgen
data_Ca2LaSbO6
_symmetry_space_group_name_H-M   'P 1'
_cell_length_a   5.90699417
_cell_length_b   5.90699417
_cell_length_c   8.54932360
_cell_angle_alpha   90.00000000
_cell_angle_beta   90.00000000
_cell_angle_gamma   90.00000000
_symmetry_Int_Tables_number   1
_chemical_formula_structural   Ca2LaSbO6
_chemical_formula_sum   'Ca4 La2 Sb2 O12'
_cell_volume   298.30795872
_cell_formula_units_Z   2
loop_
 _symmetry_equiv_pos_site_id
 _symmetry_equiv_pos_as_xyz
  1  'x, y, z'
loop_
 _atom_site_type_symbol
 _atom_site_label
 _atom_site_symmetry_multiplicity
 _atom_site_fract_x
 _atom_site_fract_y
 _atom_site_fract_z
 _atom_site_occupancy
  Ca  Ca0  1  0.50000000  0.00000000  0.75000000  1
  Ca  Ca1  1  0.00000000  0.50000000  0.75000000  1
  Ca  Ca2  1  0.50000000  -0.00000000  0.25000000  1
  Ca  Ca3  1  0.00000000  0.50000000  0.25000000  1
  La  La0  1  0.50000000  0.50000000  0.50000000  1
  La  La1  1  0.00000000  0.00000000  -0.00000000  1
  Sb  Sb0  1  0.50000000  0.50000000  -0.00000000  1
  Sb  Sb1  1  0.00000000  0.00000000  0.50000000  1
  O  O0  1  0.50000000  0.50000000  0.76692241  1
  O  O1  1  0.00000000  -0.00000000  0.73307759  1
  O  O2  1  0.50000000  0.50000000  0.23307759  1
  O  O3  1  0.00000000  0.00000000  0.26692241  1
  O  O4  1  0.68836008  0.14115472  0.50000000  1
  O  O5  1  0.31163992  0.85884528  0.50000000  1
  O  O6  1  0.85884528  0.68836008  0.50000000  1
  O  O7  1  0.14115472  0.31163992  0.50000000  1
  O  O8  1  0.81163992  0.64115472  -0.00000000  1
  O  O9  1  0.18836008  0.35884528  -0.00000000  1
  O  O10  1  0.64115472  0.18836008  -0.00000000  1
  O  O11  1  0.35884528  0.81163992  -0.00000000  1
loop_
_geom_bond_atom_site_label_1
_geom_bond_atom_site_label_2
_geom_bond_distance
_geom_bond_site_symmetry_2
Ca0 O11 2.549780 1_546
Ca0 O5 2.549780 1_545
Ca0 O10 2.549780 1_556
Ca0 O4 2.549780 1_555
Ca0 O0 2.957038 1_545
Ca0 O0 2.957038 1_555
Ca0 O1 2.957038 1_555
Ca0 O1 2.957038 1_655
Ca1 O8 2.549780 1_456
Ca1 O9 2.549780 1_556
Ca1 O6 2.549780 1_455
Ca1 O7 2.549780 1_555
Ca1 O0 2.957038 1_455
Ca1 O0 2.957038 1_555
Ca1 O1 2.957038 1_555
Ca1 O1 2.957038 1_565
Ca2 O11 2.549780 1_545
Ca2 O5 2.549780 1_545
Ca2 O10 2.549780 1_555
Ca2 O4 2.549780 1_555
Ca2 O2 2.957038 1_545
Ca2 O3 2.957038 1_555
Ca2 O3 2.957038 1_655
Ca2 O2 2.957038 1_555
Ca3 O6 2.549780 1_455
Ca3 O9 2.549780 1_555
Ca3 O7 2.549780 1_555
Ca3 O8 2.549780 1_455
Ca3 O3 2.957038 1_555
Ca3 O3 2.957038 1_565
Ca3 O2 2.957038 1_455
Ca3 O2 2.957038 1_555
La0 O2 2.282006 1_555
La0 O0 2.282006 1_555
La0 O7 2.393969 1_555
La0 O4 2.393969 1_555
La0 O6 2.393969 1_555
La0 O5 2.393969 1_555
La1 O1 2.282006 1_554
La1 O3 2.282006 1_555
La1 O10 2.393969 1_455
La1 O8 2.393969 1_445
La1 O9 2.393969 1_555
La1 O11 2.393969 1_545
O0 Sb0 1.992656 1_556
O1 Sb1 1.992656 1_555
O2 Sb0 1.992656 1_555
O3 Sb1 1.992656 1_555
O4 Sb1 2.020884 1_655
O5 Sb1 2.020884 1_565
O6 Sb1 2.020884 1_665
O7 Sb1 2.020884 1_555
O8 Sb0 2.020884 1_555
O9 Sb0 2.020884 1_555
O10 Sb0 2.020884 1_555
O11 Sb0 2.020884 1_555
