# generated using pymatgen
data_Sr3AlN3
_symmetry_space_group_name_H-M   'P 1'
_cell_length_a   7.66149400
_cell_length_b   7.66133452
_cell_length_c   5.39585700
_cell_angle_alpha   90.00000000
_cell_angle_beta   90.00000000
_cell_angle_gamma   120.00109662
_symmetry_Int_Tables_number   1
_chemical_formula_structural   Sr3AlN3
_chemical_formula_sum   'Sr6 Al2 N6'
_cell_volume   274.28632473
_cell_formula_units_Z   2
loop_
 _symmetry_equiv_pos_site_id
 _symmetry_equiv_pos_as_xyz
  1  'x, y, z'
loop_
 _atom_site_type_symbol
 _atom_site_label
 _atom_site_symmetry_multiplicity
 _atom_site_fract_x
 _atom_site_fract_y
 _atom_site_fract_z
 _atom_site_occupancy
  Sr  Sr0  1  0.92782200  0.64065500  0.25000000  1
  Sr  Sr1  1  0.71283300  0.07217700  0.25000000  1
  Sr  Sr2  1  0.35934500  0.28716700  0.25000000  1
  Sr  Sr3  1  0.07217800  0.35934500  0.75000000  1
  Sr  Sr4  1  0.28716700  0.92782300  0.75000000  1
  Sr  Sr5  1  0.64065500  0.71283300  0.75000000  1
  Al  Al0  1  0.66666200  0.33333000  0.75000000  1
  Al  Al1  1  0.33333800  0.66667000  0.25000000  1
  N  N0  1  0.89393100  0.58951000  0.75000000  1
  N  N1  1  0.69558000  0.10607100  0.75000000  1
  N  N2  1  0.41049200  0.30442000  0.75000000  1
  N  N3  1  0.10606900  0.41049000  0.25000000  1
  N  N4  1  0.30442000  0.89392900  0.25000000  1
  N  N5  1  0.58950800  0.69558000  0.25000000  1
loop_
_geom_bond_atom_site_label_1
_geom_bond_atom_site_label_2
_geom_bond_distance
_geom_bond_site_symmetry_2
Al0 N1 1.861802 1_555
Al0 N2 1.861804 1_555
Al0 N0 1.861825 1_555
Al1 N4 1.861802 1_555
Al1 N5 1.861804 1_555
Al1 N3 1.861825 1_555
N0 Sr5 2.547856 1_555
N0 Sr3 2.717104 1_655
N0 Sr0 2.719932 1_555
N0 Sr0 2.719932 1_556
N0 Sr4 2.825907 1_655
N1 Sr3 2.547806 1_655
N1 Sr4 2.717104 1_545
N1 Sr1 2.719935 1_555
N1 Sr1 2.719935 1_556
N1 Sr5 2.825914 1_545
N2 Sr4 2.547767 1_545
N2 Sr5 2.717040 1_555
N2 Sr2 2.719935 1_555
N2 Sr2 2.719935 1_556
N2 Sr3 2.825992 1_555
N3 Sr2 2.547856 1_555
N3 Sr0 2.717104 1_455
N3 Sr3 2.719932 1_555
N3 Sr3 2.719932 1_554
N3 Sr1 2.825907 1_455
N4 Sr0 2.547806 1_455
N4 Sr1 2.717104 1_565
N4 Sr4 2.719935 1_555
N4 Sr4 2.719935 1_554
N4 Sr2 2.825914 1_565
N5 Sr1 2.547767 1_565
N5 Sr2 2.717040 1_555
N5 Sr5 2.719935 1_555
N5 Sr5 2.719935 1_554
N5 Sr0 2.825992 1_555
