# generated using pymatgen
data_K3YCl6
_symmetry_space_group_name_H-M   'P 1'
_cell_length_a   7.74155455
_cell_length_b   12.50496666
_cell_length_c   13.04721709
_cell_angle_alpha   70.95385481
_cell_angle_beta   90.00000000
_cell_angle_gamma   90.00000000
_symmetry_Int_Tables_number   1
_chemical_formula_structural   K3YCl6
_chemical_formula_sum   'K12 Y4 Cl24'
_cell_volume   1193.92783102
_cell_formula_units_Z   4
loop_
 _symmetry_equiv_pos_site_id
 _symmetry_equiv_pos_as_xyz
  1  'x, y, z'
loop_
 _atom_site_type_symbol
 _atom_site_label
 _atom_site_symmetry_multiplicity
 _atom_site_fract_x
 _atom_site_fract_y
 _atom_site_fract_z
 _atom_site_occupancy
  K  K0  1  0.43697625  0.73473435  0.31413685  1
  K  K1  1  0.56302375  0.26526565  0.68586315  1
  K  K2  1  0.93697625  0.76526565  0.68586315  1
  K  K3  1  0.06302375  0.23473435  0.31413685  1
  K  K4  1  0.96400846  0.64150413  0.09993858  1
  K  K5  1  0.03599154  0.35849587  0.90006142  1
  K  K6  1  0.46400846  0.85849587  0.90006142  1
  K  K7  1  0.53599154  0.14150413  0.09993858  1
  K  K8  1  0.92777130  0.88856185  0.32129022  1
  K  K9  1  0.07222870  0.11143815  0.67870978  1
  K  K10  1  0.42777130  0.61143815  0.67870978  1
  K  K11  1  0.57222870  0.38856185  0.32129022  1
  Y  Y0  1  0.00000000  0.50000000  0.50000000  1
  Y  Y1  1  0.50000000  -0.00000000  0.50000000  1
  Y  Y2  1  0.00000000  -0.00000000  0.00000000  1
  Y  Y3  1  0.50000000  0.50000000  0.00000000  1
  Cl  Cl0  1  0.49598860  0.63438664  0.11608013  1
  Cl  Cl1  1  0.50401140  0.36561336  0.88391987  1
  Cl  Cl2  1  0.99598860  0.86561336  0.88391987  1
  Cl  Cl3  1  0.00401140  0.13438664  0.11608013  1
  Cl  Cl4  1  0.28567396  0.99656350  0.34511957  1
  Cl  Cl5  1  0.71432604  0.00343650  0.65488043  1
  Cl  Cl6  1  0.78567396  0.50343650  0.65488043  1
  Cl  Cl7  1  0.21432604  0.49656350  0.34511957  1
  Cl  Cl8  1  0.78618069  0.60881191  0.34258928  1
  Cl  Cl9  1  0.21381931  0.39118809  0.65741072  1
  Cl  Cl10  1  0.28618069  0.89118809  0.65741072  1
  Cl  Cl11  1  0.71381931  0.10881191  0.34258928  1
  Cl  Cl12  1  0.63960461  0.80542591  0.50012927  1
  Cl  Cl13  1  0.36039539  0.19457409  0.49987073  1
  Cl  Cl14  1  0.13960461  0.69457409  0.49987073  1
  Cl  Cl15  1  0.86039539  0.30542591  0.50012927  1
  Cl  Cl16  1  0.16752045  0.84010586  0.14665677  1
  Cl  Cl17  1  0.83247955  0.15989414  0.85334323  1
  Cl  Cl18  1  0.66752045  0.65989414  0.85334323  1
  Cl  Cl19  1  0.33247955  0.34010586  0.14665677  1
  Cl  Cl20  1  0.70692945  0.91035495  0.10135896  1
  Cl  Cl21  1  0.29307055  0.08964505  0.89864104  1
  Cl  Cl22  1  0.20692945  0.58964505  0.89864104  1
  Cl  Cl23  1  0.79307055  0.41035495  0.10135896  1
loop_
_geom_bond_atom_site_label_1
_geom_bond_atom_site_label_2
_geom_bond_distance
_geom_bond_site_symmetry_2
Cl0 Y3 2.603833 1_555
Cl0 K0 3.252260 1_555
Cl0 K6 3.271649 1_554
Cl0 K11 3.405130 1_555
Cl0 K4 3.628723 1_555
Cl1 Y3 2.603833 1_556
Cl1 K1 3.252260 1_555
Cl1 K7 3.271649 1_556
Cl1 K10 3.405130 1_555
Cl1 K5 3.628723 1_555
Cl2 Y2 2.603833 1_666
Cl2 K2 3.252260 1_555
Cl2 K4 3.271649 1_556
Cl2 K9 3.405130 1_665
Cl2 K6 3.628723 1_655
Cl3 Y2 2.603833 1_555
Cl3 K3 3.252260 1_555
Cl3 K5 3.271649 1_554
Cl3 K8 3.405130 1_445
Cl3 K7 3.628723 1_455
Cl4 Y1 2.625831 1_565
Cl4 K8 3.141914 1_455
Cl4 K3 3.349481 1_565
Cl4 K0 3.622066 1_555
Cl4 K7 3.672787 1_565
Cl5 Y1 2.625831 1_555
Cl5 K9 3.141914 1_655
Cl5 K2 3.349481 1_545
Cl5 K1 3.622066 1_555
Cl5 K6 3.672787 1_545
Cl6 Y0 2.625831 1_655
Cl6 K10 3.141914 1_555
Cl6 K1 3.349481 1_555
Cl6 K2 3.622066 1_555
Cl6 K5 3.672787 1_655
Cl7 Y0 2.625831 1_555
Cl7 K11 3.141914 1_555
Cl7 K0 3.349481 1_555
Cl7 K3 3.622066 1_555
Cl7 K4 3.672787 1_455
Cl8 Y0 2.643022 1_655
Cl8 K0 3.089357 1_555
Cl8 K11 3.302405 1_555
Cl8 K4 3.352706 1_555
Cl8 K8 3.589164 1_555
Cl9 Y0 2.643022 1_555
Cl9 K1 3.089357 1_555
Cl9 K10 3.302405 1_555
Cl9 K5 3.352706 1_555
Cl9 K9 3.589164 1_555
Cl10 Y1 2.643022 1_565
Cl10 K2 3.089357 1_455
Cl10 K9 3.302405 1_565
Cl10 K6 3.352706 1_555
Cl10 K10 3.589164 1_555
Cl11 Y1 2.643022 1_555
Cl11 K3 3.089357 1_655
Cl11 K8 3.302405 1_545
Cl11 K7 3.352706 1_555
Cl11 K11 3.589164 1_555
Cl12 Y1 2.661868 1_565
Cl12 K8 3.149420 1_555
Cl12 K10 3.211511 1_555
Cl12 K0 3.245150 1_555
Cl12 K2 3.260385 1_555
Cl13 Y1 2.661868 1_555
Cl13 K9 3.149420 1_555
Cl13 K11 3.211511 1_555
Cl13 K1 3.245150 1_555
Cl13 K3 3.260385 1_555
Cl14 Y0 2.661868 1_555
Cl14 K10 3.149420 1_555
Cl14 K8 3.211511 1_455
Cl14 K2 3.245150 1_455
Cl14 K0 3.260385 1_555
Cl15 Y0 2.661868 1_655
Cl15 K11 3.149420 1_555
Cl15 K9 3.211511 1_655
Cl15 K3 3.245150 1_655
Cl15 K1 3.260385 1_555
Cl16 Y2 2.616118 1_565
Cl16 K0 2.997223 1_555
Cl16 K8 3.147152 1_455
Cl16 K4 3.163787 1_455
Cl17 Y2 2.616118 1_656
Cl17 K1 2.997223 1_555
Cl17 K9 3.147152 1_655
Cl17 K5 3.163787 1_655
Cl18 Y3 2.616118 1_556
Cl18 K2 2.997223 1_555
Cl18 K10 3.147152 1_555
Cl18 K6 3.163787 1_555
Cl19 Y3 2.616118 1_555
Cl19 K3 2.997223 1_555
Cl19 K11 3.147152 1_555
Cl19 K7 3.163787 1_555
Cl20 Y2 2.680585 1_665
Cl20 K7 3.173584 1_565
Cl20 K8 3.274264 1_555
Cl20 K6 3.459276 1_554
Cl20 K0 3.594220 1_555
Cl21 Y2 2.680585 1_556
Cl21 K6 3.173584 1_545
Cl21 K9 3.274264 1_555
Cl21 K7 3.459276 1_556
Cl21 K1 3.594220 1_555
Cl22 Y3 2.680585 1_556
Cl22 K5 3.173584 1_555
Cl22 K10 3.274264 1_555
Cl22 K4 3.459276 1_456
Cl22 K2 3.594220 1_455
Cl23 Y3 2.680585 1_555
Cl23 K4 3.173584 1_555
Cl23 K11 3.274264 1_555
Cl23 K5 3.459276 1_654
Cl23 K3 3.594220 1_655
