# generated using pymatgen
data_Sc2B4Os5
_symmetry_space_group_name_H-M   'P 1'
_cell_length_a   17.14603400
_cell_length_b   6.06517600
_cell_length_c   20.36497644
_cell_angle_alpha   90.00000000
_cell_angle_beta   90.01194027
_cell_angle_gamma   90.00000000
_symmetry_Int_Tables_number   1
_chemical_formula_structural   Sc2B4Os5
_chemical_formula_sum   'Sc32 B64 Os80'
_cell_volume   2117.82948797
_cell_formula_units_Z   16
loop_
 _symmetry_equiv_pos_site_id
 _symmetry_equiv_pos_as_xyz
  1  'x, y, z'
loop_
 _atom_site_type_symbol
 _atom_site_label
 _atom_site_symmetry_multiplicity
 _atom_site_fract_x
 _atom_site_fract_y
 _atom_site_fract_z
 _atom_site_occupancy
  Sc  Sc0_0  1  0.07806250  0.25000000  0.34059750  1
  Sc  Sc0_1  1  0.07806250  0.25000000  0.84059750  1
  Sc  Sc0_2  1  0.07806250  0.75000000  0.34059750  1
  Sc  Sc0_3  1  0.07806250  0.75000000  0.84059750  1
  Sc  Sc0_4  1  0.57806250  0.25000000  0.34059750  1
  Sc  Sc0_5  1  0.57806250  0.25000000  0.84059750  1
  Sc  Sc0_6  1  0.57806250  0.75000000  0.34059750  1
  Sc  Sc0_7  1  0.57806250  0.75000000  0.84059750  1
  Sc  Sc1_0  1  0.42193750  0.25000000  0.15940250  1
  Sc  Sc1_1  1  0.42193750  0.25000000  0.65940250  1
  Sc  Sc1_2  1  0.42193750  0.75000000  0.15940250  1
  Sc  Sc1_3  1  0.42193750  0.75000000  0.65940250  1
  Sc  Sc1_4  1  0.92193750  0.25000000  0.15940250  1
  Sc  Sc1_5  1  0.92193750  0.25000000  0.65940250  1
  Sc  Sc1_6  1  0.92193750  0.75000000  0.15940250  1
  Sc  Sc1_7  1  0.92193750  0.75000000  0.65940250  1
  Sc  Sc2_0  1  0.32814600  0.25000000  0.40954550  1
  Sc  Sc2_1  1  0.32814600  0.25000000  0.90954550  1
  Sc  Sc2_2  1  0.32814600  0.75000000  0.40954550  1
  Sc  Sc2_3  1  0.32814600  0.75000000  0.90954550  1
  Sc  Sc2_4  1  0.82814600  0.25000000  0.40954550  1
  Sc  Sc2_5  1  0.82814600  0.25000000  0.90954550  1
  Sc  Sc2_6  1  0.82814600  0.75000000  0.40954550  1
  Sc  Sc2_7  1  0.82814600  0.75000000  0.90954550  1
  Sc  Sc3_0  1  0.17185400  0.25000000  0.09045450  1
  Sc  Sc3_1  1  0.17185400  0.25000000  0.59045450  1
  Sc  Sc3_2  1  0.17185400  0.75000000  0.09045450  1
  Sc  Sc3_3  1  0.17185400  0.75000000  0.59045450  1
  Sc  Sc3_4  1  0.67185400  0.25000000  0.09045450  1
  Sc  Sc3_5  1  0.67185400  0.25000000  0.59045450  1
  Sc  Sc3_6  1  0.67185400  0.75000000  0.09045450  1
  Sc  Sc3_7  1  0.67185400  0.75000000  0.59045450  1
  B  B0_0  1  0.17636050  0.25000000  0.44900700  1
  B  B0_1  1  0.17636050  0.25000000  0.94900700  1
  B  B0_2  1  0.17636050  0.75000000  0.44900700  1
  B  B0_3  1  0.17636050  0.75000000  0.94900700  1
  B  B0_4  1  0.67636050  0.25000000  0.44900700  1
  B  B0_5  1  0.67636050  0.25000000  0.94900700  1
  B  B0_6  1  0.67636050  0.75000000  0.44900700  1
  B  B0_7  1  0.67636050  0.75000000  0.94900700  1
  B  B1_0  1  0.32363950  0.25000000  0.05099300  1
  B  B1_1  1  0.32363950  0.25000000  0.55099300  1
  B  B1_2  1  0.32363950  0.75000000  0.05099300  1
  B  B1_3  1  0.32363950  0.75000000  0.55099300  1
  B  B1_4  1  0.82363950  0.25000000  0.05099300  1
  B  B1_5  1  0.82363950  0.25000000  0.55099300  1
  B  B1_6  1  0.82363950  0.75000000  0.05099300  1
  B  B1_7  1  0.82363950  0.75000000  0.55099300  1
  B  B2_0  1  0.23153100  0.25000000  0.29501500  1
  B  B2_1  1  0.23153100  0.25000000  0.79501500  1
  B  B2_2  1  0.23153100  0.75000000  0.29501500  1
  B  B2_3  1  0.23153100  0.75000000  0.79501500  1
  B  B2_4  1  0.73153100  0.25000000  0.29501500  1
  B  B2_5  1  0.73153100  0.25000000  0.79501500  1
  B  B2_6  1  0.73153100  0.75000000  0.29501500  1
  B  B2_7  1  0.73153100  0.75000000  0.79501500  1
  B  B3_0  1  0.26846900  0.25000000  0.20498500  1
  B  B3_1  1  0.26846900  0.25000000  0.70498500  1
  B  B3_2  1  0.26846900  0.75000000  0.20498500  1
  B  B3_3  1  0.26846900  0.75000000  0.70498500  1
  B  B3_4  1  0.76846900  0.25000000  0.20498500  1
  B  B3_5  1  0.76846900  0.25000000  0.70498500  1
  B  B3_6  1  0.76846900  0.75000000  0.20498500  1
  B  B3_7  1  0.76846900  0.75000000  0.70498500  1
  B  B4_0  1  0.42623700  0.25000000  0.30095750  1
  B  B4_1  1  0.42623700  0.25000000  0.80095750  1
  B  B4_2  1  0.42623700  0.75000000  0.30095750  1
  B  B4_3  1  0.42623700  0.75000000  0.80095750  1
  B  B4_4  1  0.92623700  0.25000000  0.30095750  1
  B  B4_5  1  0.92623700  0.25000000  0.80095750  1
  B  B4_6  1  0.92623700  0.75000000  0.30095750  1
  B  B4_7  1  0.92623700  0.75000000  0.80095750  1
  B  B5_0  1  0.07376300  0.25000000  0.19904250  1
  B  B5_1  1  0.07376300  0.25000000  0.69904250  1
  B  B5_2  1  0.07376300  0.75000000  0.19904250  1
  B  B5_3  1  0.07376300  0.75000000  0.69904250  1
  B  B5_4  1  0.57376300  0.25000000  0.19904250  1
  B  B5_5  1  0.57376300  0.25000000  0.69904250  1
  B  B5_6  1  0.57376300  0.75000000  0.19904250  1
  B  B5_7  1  0.57376300  0.75000000  0.69904250  1
  B  B6_0  1  0.48115950  0.25000000  0.45517600  1
  B  B6_1  1  0.48115950  0.25000000  0.95517600  1
  B  B6_2  1  0.48115950  0.75000000  0.45517600  1
  B  B6_3  1  0.48115950  0.75000000  0.95517600  1
  B  B6_4  1  0.98115950  0.25000000  0.45517600  1
  B  B6_5  1  0.98115950  0.25000000  0.95517600  1
  B  B6_6  1  0.98115950  0.75000000  0.45517600  1
  B  B6_7  1  0.98115950  0.75000000  0.95517600  1
  B  B7_0  1  0.01884050  0.25000000  0.04482400  1
  B  B7_1  1  0.01884050  0.25000000  0.54482400  1
  B  B7_2  1  0.01884050  0.75000000  0.04482400  1
  B  B7_3  1  0.01884050  0.75000000  0.54482400  1
  B  B7_4  1  0.51884050  0.25000000  0.04482400  1
  B  B7_5  1  0.51884050  0.25000000  0.54482400  1
  B  B7_6  1  0.51884050  0.75000000  0.04482400  1
  B  B7_7  1  0.51884050  0.75000000  0.54482400  1
  Os  Os0_0  1  0.07937300  0.00000000  0.47597450  1
  Os  Os0_1  1  0.07937300  0.00000000  0.97597450  1
  Os  Os0_2  1  0.07937300  0.50000000  0.47597450  1
  Os  Os0_3  1  0.07937300  0.50000000  0.97597450  1
  Os  Os0_4  1  0.57937300  0.00000000  0.47597450  1
  Os  Os0_5  1  0.57937300  0.00000000  0.97597450  1
  Os  Os0_6  1  0.57937300  0.50000000  0.47597450  1
  Os  Os0_7  1  0.57937300  0.50000000  0.97597450  1
  Os  Os1_0  1  0.42062700  0.00000000  0.02402550  1
  Os  Os1_1  1  0.42062700  0.00000000  0.52402550  1
  Os  Os1_2  1  0.42062700  0.50000000  0.02402550  1
  Os  Os1_3  1  0.42062700  0.50000000  0.52402550  1
  Os  Os1_4  1  0.92062700  0.00000000  0.02402550  1
  Os  Os1_5  1  0.92062700  0.00000000  0.52402550  1
  Os  Os1_6  1  0.92062700  0.50000000  0.02402550  1
  Os  Os1_7  1  0.92062700  0.50000000  0.52402550  1
  Os  Os2_0  1  0.32925850  0.00000000  0.27388700  1
  Os  Os2_1  1  0.32925850  0.00000000  0.77388700  1
  Os  Os2_2  1  0.32925850  0.50000000  0.27388700  1
  Os  Os2_3  1  0.32925850  0.50000000  0.77388700  1
  Os  Os2_4  1  0.82925850  0.00000000  0.27388700  1
  Os  Os2_5  1  0.82925850  0.00000000  0.77388700  1
  Os  Os2_6  1  0.82925850  0.50000000  0.27388700  1
  Os  Os2_7  1  0.82925850  0.50000000  0.77388700  1
  Os  Os3_0  1  0.17074150  0.00000000  0.22611300  1
  Os  Os3_1  1  0.17074150  0.00000000  0.72611300  1
  Os  Os3_2  1  0.17074150  0.50000000  0.22611300  1
  Os  Os3_3  1  0.17074150  0.50000000  0.72611300  1
  Os  Os3_4  1  0.67074150  0.00000000  0.22611300  1
  Os  Os3_5  1  0.67074150  0.00000000  0.72611300  1
  Os  Os3_6  1  0.67074150  0.50000000  0.22611300  1
  Os  Os3_7  1  0.67074150  0.50000000  0.72611300  1
  Os  Os4_0  1  0.20219050  0.00000000  0.36910100  1
  Os  Os4_1  1  0.20219050  0.00000000  0.86910100  1
  Os  Os4_2  1  0.20219050  0.50000000  0.36910100  1
  Os  Os4_3  1  0.20219050  0.50000000  0.86910100  1
  Os  Os4_4  1  0.70219050  0.00000000  0.36910100  1
  Os  Os4_5  1  0.70219050  0.00000000  0.86910100  1
  Os  Os4_6  1  0.70219050  0.50000000  0.36910100  1
  Os  Os4_7  1  0.70219050  0.50000000  0.86910100  1
  Os  Os5_0  1  0.29780950  0.00000000  0.13089900  1
  Os  Os5_1  1  0.29780950  0.00000000  0.63089900  1
  Os  Os5_2  1  0.29780950  0.50000000  0.13089900  1
  Os  Os5_3  1  0.29780950  0.50000000  0.63089900  1
  Os  Os5_4  1  0.79780950  0.00000000  0.13089900  1
  Os  Os5_5  1  0.79780950  0.00000000  0.63089900  1
  Os  Os5_6  1  0.79780950  0.50000000  0.13089900  1
  Os  Os5_7  1  0.79780950  0.50000000  0.63089900  1
  Os  Os6_0  1  0.45216600  0.00000000  0.38091150  1
  Os  Os6_1  1  0.45216600  0.00000000  0.88091150  1
  Os  Os6_2  1  0.45216600  0.50000000  0.38091150  1
  Os  Os6_3  1  0.45216600  0.50000000  0.88091150  1
  Os  Os6_4  1  0.95216600  0.00000000  0.38091150  1
  Os  Os6_5  1  0.95216600  0.00000000  0.88091150  1
  Os  Os6_6  1  0.95216600  0.50000000  0.38091150  1
  Os  Os6_7  1  0.95216600  0.50000000  0.88091150  1
  Os  Os7_0  1  0.04783400  0.00000000  0.11908850  1
  Os  Os7_1  1  0.04783400  0.00000000  0.61908850  1
  Os  Os7_2  1  0.04783400  0.50000000  0.11908850  1
  Os  Os7_3  1  0.04783400  0.50000000  0.61908850  1
  Os  Os7_4  1  0.54783400  0.00000000  0.11908850  1
  Os  Os7_5  1  0.54783400  0.00000000  0.61908850  1
  Os  Os7_6  1  0.54783400  0.50000000  0.11908850  1
  Os  Os7_7  1  0.54783400  0.50000000  0.61908850  1
  Os  Os8_0  1  0.25000000  0.00000000  0.00000000  1
  Os  Os8_1  1  0.25000000  0.00000000  0.50000000  1
  Os  Os8_2  1  0.25000000  0.50000000  0.00000000  1
  Os  Os8_3  1  0.25000000  0.50000000  0.50000000  1
  Os  Os8_4  1  0.75000000  0.00000000  0.00000000  1
  Os  Os8_5  1  0.75000000  0.00000000  0.50000000  1
  Os  Os8_6  1  0.75000000  0.50000000  0.00000000  1
  Os  Os8_7  1  0.75000000  0.50000000  0.50000000  1
  Os  Os9_0  1  0.00000000  0.00000000  0.25000000  1
  Os  Os9_1  1  0.00000000  0.00000000  0.75000000  1
  Os  Os9_2  1  0.00000000  0.50000000  0.25000000  1
  Os  Os9_3  1  0.00000000  0.50000000  0.75000000  1
  Os  Os9_4  1  0.50000000  0.00000000  0.25000000  1
  Os  Os9_5  1  0.50000000  0.00000000  0.75000000  1
  Os  Os9_6  1  0.50000000  0.50000000  0.25000000  1
  Os  Os9_7  1  0.50000000  0.50000000  0.75000000  1
loop_
_geom_bond_atom_site_label_1
_geom_bond_atom_site_label_2
_geom_bond_distance
_geom_bond_site_symmetry_2
Sc0_0 Sc0_2 3.032588 1_555
Sc0_0 Sc0_2 3.032588 1_545
Sc0_1 Sc0_3 3.032588 1_545
Sc0_1 Sc0_3 3.032588 1_555
Sc0_4 Sc0_6 3.032588 1_555
Sc0_4 Sc0_6 3.032588 1_545
Sc0_5 Sc0_7 3.032588 1_545
Sc0_5 Sc0_7 3.032588 1_555
Sc1_0 Sc1_2 3.032588 1_555
Sc1_0 Sc1_2 3.032588 1_545
Sc1_1 Sc1_3 3.032588 1_555
Sc1_1 Sc1_3 3.032588 1_545
Sc1_4 Sc1_6 3.032588 1_555
Sc1_4 Sc1_6 3.032588 1_545
Sc1_5 Sc1_7 3.032588 1_555
Sc1_5 Sc1_7 3.032588 1_545
Sc2_0 Sc2_2 3.032588 1_545
Sc2_0 Sc2_2 3.032588 1_555
Sc2_1 Sc2_3 3.032588 1_545
Sc2_1 Sc2_3 3.032588 1_555
Sc2_4 Sc2_6 3.032588 1_555
Sc2_4 Sc2_6 3.032588 1_545
Sc2_5 Sc2_7 3.032588 1_545
Sc2_5 Sc2_7 3.032588 1_555
Sc3_0 Sc3_2 3.032588 1_545
Sc3_0 Sc3_2 3.032588 1_555
Sc3_1 Sc3_3 3.032588 1_555
Sc3_1 Sc3_3 3.032588 1_545
Sc3_4 Sc3_6 3.032588 1_555
Sc3_4 Sc3_6 3.032588 1_545
Sc3_5 Sc3_7 3.032588 1_545
Sc3_5 Sc3_7 3.032588 1_555
B0_0 Os8_1 2.229629 1_555
B0_0 Os8_3 2.229629 1_555
B0_0 Os4_2 2.267961 1_555
B0_0 Os4_0 2.267961 1_555
B0_0 Os0_0 2.316581 1_555
B0_0 Os0_2 2.316581 1_555
B0_0 Sc2_0 2.723932 1_555
B0_0 Sc0_0 2.777280 1_555
B0_0 Sc3_1 2.881627 1_555
B0_1 Os8_0 2.229629 1_556
B0_1 Os8_2 2.229629 1_556
B0_1 Os4_3 2.267961 1_555
B0_1 Os4_1 2.267961 1_555
B0_1 Os0_1 2.316581 1_555
B0_1 Os0_3 2.316581 1_555
B0_1 Sc2_1 2.723932 1_555
B0_1 Sc0_1 2.777280 1_555
B0_1 Sc3_0 2.881627 1_556
B0_2 Os8_1 2.229629 1_565
B0_2 Os8_3 2.229629 1_555
B0_2 Os4_2 2.267961 1_555
B0_2 Os4_0 2.267961 1_565
B0_2 Os0_0 2.316581 1_565
B0_2 Os0_2 2.316581 1_555
B0_2 Sc2_2 2.723932 1_555
B0_2 Sc0_2 2.777280 1_555
B0_2 Sc3_3 2.881627 1_555
B0_3 Os8_0 2.229629 1_566
B0_3 Os8_2 2.229629 1_556
B0_3 Os4_1 2.267961 1_565
B0_3 Os4_3 2.267961 1_555
B0_3 Os0_1 2.316581 1_565
B0_3 Os0_3 2.316581 1_555
B0_3 Sc2_3 2.723932 1_555
B0_3 Sc0_3 2.777280 1_555
B0_3 Sc3_2 2.881627 1_556
B0_4 Os8_5 2.229629 1_555
B0_4 Os8_7 2.229629 1_555
B0_4 Os4_6 2.267961 1_555
B0_4 Os4_4 2.267961 1_555
B0_4 Os0_6 2.316581 1_555
B0_4 Os0_4 2.316581 1_555
B0_4 Sc2_4 2.723932 1_555
B0_4 Sc0_4 2.777280 1_555
B0_4 Sc3_5 2.881627 1_555
B0_5 Os8_4 2.229629 1_556
B0_5 Os8_6 2.229629 1_556
B0_5 Os4_5 2.267961 1_555
B0_5 Os4_7 2.267961 1_555
B0_5 Os0_5 2.316581 1_555
B0_5 Os0_7 2.316581 1_555
B0_5 Sc2_5 2.723932 1_555
B0_5 Sc0_5 2.777280 1_555
B0_5 Sc3_4 2.881627 1_556
B0_6 Os8_7 2.229629 1_555
B0_6 Os8_5 2.229629 1_565
B0_6 Os4_6 2.267961 1_555
B0_6 Os4_4 2.267961 1_565
B0_6 Os0_4 2.316581 1_565
B0_6 Os0_6 2.316581 1_555
B0_6 Sc2_6 2.723932 1_555
B0_6 Sc0_6 2.777280 1_555
B0_6 Sc3_7 2.881627 1_555
B0_7 Os8_4 2.229629 1_566
B0_7 Os8_6 2.229629 1_556
B0_7 Os4_5 2.267961 1_565
B0_7 Os4_7 2.267961 1_555
B0_7 Os0_5 2.316581 1_565
B0_7 Os0_7 2.316581 1_555
B0_7 Sc2_7 2.723932 1_555
B0_7 Sc0_7 2.777280 1_555
B0_7 Sc3_6 2.881627 1_556
B1_0 Os8_0 2.229629 1_555
B1_0 Os8_2 2.229629 1_555
B1_0 Os5_2 2.267961 1_555
B1_0 Os5_0 2.267961 1_555
B1_0 Os1_2 2.316581 1_555
B1_0 Os1_0 2.316581 1_555
B1_0 Sc3_0 2.723932 1_555
B1_0 Sc1_0 2.777280 1_555
B1_0 Sc2_1 2.881627 1_554
B1_1 Os8_1 2.229629 1_555
B1_1 Os8_3 2.229629 1_555
B1_1 Os5_3 2.267961 1_555
B1_1 Os5_1 2.267961 1_555
B1_1 Os1_3 2.316581 1_555
B1_1 Os1_1 2.316581 1_555
B1_1 Sc3_1 2.723932 1_555
B1_1 Sc1_1 2.777280 1_555
B1_1 Sc2_0 2.881627 1_555
B1_2 Os8_0 2.229629 1_565
B1_2 Os8_2 2.229629 1_555
B1_2 Os5_2 2.267961 1_555
B1_2 Os5_0 2.267961 1_565
B1_2 Os1_2 2.316581 1_555
B1_2 Os1_0 2.316581 1_565
B1_2 Sc3_2 2.723932 1_555
B1_2 Sc1_2 2.777280 1_555
B1_2 Sc2_3 2.881627 1_554
B1_3 Os8_1 2.229629 1_565
B1_3 Os8_3 2.229629 1_555
B1_3 Os5_3 2.267961 1_555
B1_3 Os5_1 2.267961 1_565
B1_3 Os1_3 2.316581 1_555
B1_3 Os1_1 2.316581 1_565
B1_3 Sc3_3 2.723932 1_555
B1_3 Sc1_3 2.777280 1_555
B1_3 Sc2_2 2.881627 1_555
B1_4 Os8_6 2.229629 1_555
B1_4 Os8_4 2.229629 1_555
B1_4 Os5_4 2.267961 1_555
B1_4 Os5_6 2.267961 1_555
B1_4 Os1_4 2.316581 1_555
B1_4 Os1_6 2.316581 1_555
B1_4 Sc3_4 2.723932 1_555
B1_4 Sc1_4 2.777280 1_555
B1_4 Sc2_5 2.881627 1_554
B1_5 Os8_5 2.229629 1_555
B1_5 Os8_7 2.229629 1_555
B1_5 Os5_7 2.267961 1_555
B1_5 Os5_5 2.267961 1_555
B1_5 Os1_7 2.316581 1_555
B1_5 Os1_5 2.316581 1_555
B1_5 Sc3_5 2.723932 1_555
B1_5 Sc1_5 2.777280 1_555
B1_5 Sc2_4 2.881627 1_555
B1_6 Os8_6 2.229629 1_555
B1_6 Os8_4 2.229629 1_565
B1_6 Os5_6 2.267961 1_555
B1_6 Os5_4 2.267961 1_565
B1_6 Os1_4 2.316581 1_565
B1_6 Os1_6 2.316581 1_555
B1_6 Sc3_6 2.723932 1_555
B1_6 Sc1_6 2.777280 1_555
B1_6 Sc2_7 2.881627 1_554
B1_7 Os8_7 2.229629 1_555
B1_7 Os8_5 2.229629 1_565
B1_7 Os5_5 2.267961 1_565
B1_7 Os5_7 2.267961 1_555
B1_7 Os1_7 2.316581 1_555
B1_7 Os1_5 2.316581 1_565
B1_7 Sc3_7 2.723932 1_555
B1_7 Sc1_7 2.777280 1_555
B1_7 Sc2_6 2.881627 1_555
B2_0 B3_0 1.939890 1_555
B2_0 Os4_0 2.197476 1_555
B2_0 Os4_2 2.197476 1_555
B2_0 Os2_0 2.300510 1_555
B2_0 Os2_2 2.300510 1_555
B2_0 Os3_2 2.313841 1_555
B2_0 Os3_0 2.313841 1_555
B2_0 Sc0_0 2.790497 1_555
B2_0 Sc2_0 2.860548 1_555
B2_1 B3_1 1.939890 1_555
B2_1 Os4_3 2.197476 1_555
B2_1 Os4_1 2.197476 1_555
B2_1 Os2_1 2.300510 1_555
B2_1 Os2_3 2.300510 1_555
B2_1 Os3_3 2.313841 1_555
B2_1 Os3_1 2.313841 1_555
B2_1 Sc0_1 2.790497 1_555
B2_1 Sc2_1 2.860548 1_555
B2_2 B3_2 1.939890 1_555
B2_2 Os4_0 2.197476 1_565
B2_2 Os4_2 2.197476 1_555
B2_2 Os2_2 2.300510 1_555
B2_2 Os2_0 2.300510 1_565
B2_2 Os3_0 2.313841 1_565
B2_2 Os3_2 2.313841 1_555
B2_2 Sc0_2 2.790497 1_555
B2_2 Sc2_2 2.860548 1_555
B2_3 B3_3 1.939890 1_555
B2_3 Os4_1 2.197476 1_565
B2_3 Os4_3 2.197476 1_555
B2_3 Os2_1 2.300510 1_565
B2_3 Os2_3 2.300510 1_555
B2_3 Os3_1 2.313841 1_565
B2_3 Os3_3 2.313841 1_555
B2_3 Sc0_3 2.790497 1_555
B2_3 Sc2_3 2.860548 1_555
B2_4 B3_4 1.939890 1_555
B2_4 Os4_4 2.197476 1_555
B2_4 Os4_6 2.197476 1_555
B2_4 Os2_4 2.300510 1_555
B2_4 Os2_6 2.300510 1_555
B2_4 Os3_6 2.313841 1_555
B2_4 Os3_4 2.313841 1_555
B2_4 Sc0_4 2.790497 1_555
B2_4 Sc2_4 2.860548 1_555
B2_5 B3_5 1.939890 1_555
B2_5 Os4_7 2.197476 1_555
B2_5 Os4_5 2.197476 1_555
B2_5 Os2_5 2.300510 1_555
B2_5 Os2_7 2.300510 1_555
B2_5 Os3_7 2.313841 1_555
B2_5 Os3_5 2.313841 1_555
B2_5 Sc0_5 2.790497 1_555
B2_5 Sc2_5 2.860548 1_555
B2_6 B3_6 1.939890 1_555
B2_6 Os4_4 2.197476 1_565
B2_6 Os4_6 2.197476 1_555
B2_6 Os2_4 2.300510 1_565
B2_6 Os2_6 2.300510 1_555
B2_6 Os3_6 2.313841 1_555
B2_6 Os3_4 2.313841 1_565
B2_6 Sc0_6 2.790497 1_555
B2_6 Sc2_6 2.860548 1_555
B2_7 B3_7 1.939890 1_555
B2_7 Os4_5 2.197476 1_565
B2_7 Os4_7 2.197476 1_555
B2_7 Os2_5 2.300510 1_565
B2_7 Os2_7 2.300510 1_555
B2_7 Os3_7 2.313841 1_555
B2_7 Os3_5 2.313841 1_565
B2_7 Sc0_7 2.790497 1_555
B2_7 Sc2_7 2.860548 1_555
B3_0 Os5_2 2.197476 1_555
B3_0 Os5_0 2.197476 1_555
B3_0 Os3_2 2.300510 1_555
B3_0 Os3_0 2.300510 1_555
B3_0 Os2_0 2.313841 1_555
B3_0 Os2_2 2.313841 1_555
B3_0 Sc1_0 2.790497 1_555
B3_0 Sc3_0 2.860548 1_555
B3_1 Os5_3 2.197476 1_555
B3_1 Os5_1 2.197476 1_555
B3_1 Os3_3 2.300510 1_555
B3_1 Os3_1 2.300510 1_555
B3_1 Os2_1 2.313841 1_555
B3_1 Os2_3 2.313841 1_555
B3_1 Sc1_1 2.790497 1_555
B3_1 Sc3_1 2.860548 1_555
B3_2 Os5_0 2.197476 1_565
B3_2 Os5_2 2.197476 1_555
B3_2 Os3_0 2.300510 1_565
B3_2 Os3_2 2.300510 1_555
B3_2 Os2_2 2.313841 1_555
B3_2 Os2_0 2.313841 1_565
B3_2 Sc1_2 2.790497 1_555
B3_2 Sc3_2 2.860548 1_555
B3_3 Os5_1 2.197476 1_565
B3_3 Os5_3 2.197476 1_555
B3_3 Os3_3 2.300510 1_555
B3_3 Os3_1 2.300510 1_565
B3_3 Os2_3 2.313841 1_555
B3_3 Os2_1 2.313841 1_565
B3_3 Sc1_3 2.790497 1_555
B3_3 Sc3_3 2.860548 1_555
B3_4 Os5_6 2.197476 1_555
B3_4 Os5_4 2.197476 1_555
B3_4 Os3_6 2.300510 1_555
B3_4 Os3_4 2.300510 1_555
B3_4 Os2_4 2.313841 1_555
B3_4 Os2_6 2.313841 1_555
B3_4 Sc1_4 2.790497 1_555
B3_4 Sc3_4 2.860548 1_555
B3_5 Os5_5 2.197476 1_555
B3_5 Os5_7 2.197476 1_555
B3_5 Os3_7 2.300510 1_555
B3_5 Os3_5 2.300510 1_555
B3_5 Os2_7 2.313841 1_555
B3_5 Os2_5 2.313841 1_555
B3_5 Sc1_5 2.790497 1_555
B3_5 Sc3_5 2.860548 1_555
B3_6 Os5_6 2.197476 1_555
B3_6 Os5_4 2.197476 1_565
B3_6 Os3_4 2.300510 1_565
B3_6 Os3_6 2.300510 1_555
B3_6 Os2_4 2.313841 1_565
B3_6 Os2_6 2.313841 1_555
B3_6 Sc1_6 2.790497 1_555
B3_6 Sc3_6 2.860548 1_555
B3_7 Os5_5 2.197476 1_565
B3_7 Os5_7 2.197476 1_555
B3_7 Os3_7 2.300510 1_555
B3_7 Os3_5 2.300510 1_565
B3_7 Os2_5 2.313841 1_565
B3_7 Os2_7 2.313841 1_555
B3_7 Sc1_7 2.790497 1_555
B3_7 Sc3_7 2.860548 1_555
B4_0 Os9_6 2.230738 1_555
B4_0 Os9_4 2.230738 1_555
B4_0 Os6_0 2.268861 1_555
B4_0 Os6_2 2.268861 1_555
B4_0 Os2_0 2.316804 1_555
B4_0 Os2_2 2.316804 1_555
B4_0 Sc0_4 2.725341 1_555
B4_0 Sc2_0 2.778578 1_555
B4_0 Sc1_0 2.883691 1_555
B4_1 Os9_7 2.230738 1_555
B4_1 Os9_5 2.230738 1_555
B4_1 Os6_3 2.268861 1_555
B4_1 Os6_1 2.268861 1_555
B4_1 Os2_3 2.316804 1_555
B4_1 Os2_1 2.316804 1_555
B4_1 Sc0_5 2.725341 1_555
B4_1 Sc2_1 2.778578 1_555
B4_1 Sc1_1 2.883691 1_555
B4_2 Os9_4 2.230738 1_565
B4_2 Os9_6 2.230738 1_555
B4_2 Os6_0 2.268861 1_565
B4_2 Os6_2 2.268861 1_555
B4_2 Os2_0 2.316804 1_565
B4_2 Os2_2 2.316804 1_555
B4_2 Sc0_6 2.725341 1_555
B4_2 Sc2_2 2.778578 1_555
B4_2 Sc1_2 2.883691 1_555
B4_3 Os9_5 2.230738 1_565
B4_3 Os9_7 2.230738 1_555
B4_3 Os6_1 2.268861 1_565
B4_3 Os6_3 2.268861 1_555
B4_3 Os2_3 2.316804 1_555
B4_3 Os2_1 2.316804 1_565
B4_3 Sc0_7 2.725341 1_555
B4_3 Sc2_3 2.778578 1_555
B4_3 Sc1_3 2.883691 1_555
B4_4 Os9_2 2.230738 1_655
B4_4 Os9_0 2.230738 1_655
B4_4 Os6_6 2.268861 1_555
B4_4 Os6_4 2.268861 1_555
B4_4 Os2_6 2.316804 1_555
B4_4 Os2_4 2.316804 1_555
B4_4 Sc0_0 2.725341 1_655
B4_4 Sc2_4 2.778578 1_555
B4_4 Sc1_4 2.883691 1_555
B4_5 Os9_3 2.230738 1_655
B4_5 Os9_1 2.230738 1_655
B4_5 Os6_5 2.268861 1_555
B4_5 Os6_7 2.268861 1_555
B4_5 Os2_5 2.316804 1_555
B4_5 Os2_7 2.316804 1_555
B4_5 Sc0_1 2.725341 1_655
B4_5 Sc2_5 2.778578 1_555
B4_5 Sc1_5 2.883691 1_555
B4_6 Os9_2 2.230738 1_655
B4_6 Os9_0 2.230738 1_665
B4_6 Os6_4 2.268861 1_565
B4_6 Os6_6 2.268861 1_555
B4_6 Os2_6 2.316804 1_555
B4_6 Os2_4 2.316804 1_565
B4_6 Sc0_2 2.725341 1_655
B4_6 Sc2_6 2.778578 1_555
B4_6 Sc1_6 2.883691 1_555
B4_7 Os9_1 2.230738 1_665
B4_7 Os9_3 2.230738 1_655
B4_7 Os6_5 2.268861 1_565
B4_7 Os6_7 2.268861 1_555
B4_7 Os2_5 2.316804 1_565
B4_7 Os2_7 2.316804 1_555
B4_7 Sc0_3 2.725341 1_655
B4_7 Sc2_7 2.778578 1_555
B4_7 Sc1_7 2.883691 1_555
B5_0 Os9_0 2.230738 1_555
B5_0 Os9_2 2.230738 1_555
B5_0 Os7_2 2.268861 1_555
B5_0 Os7_0 2.268861 1_555
B5_0 Os3_2 2.316804 1_555
B5_0 Os3_0 2.316804 1_555
B5_0 Sc1_4 2.725341 1_455
B5_0 Sc3_0 2.778578 1_555
B5_0 Sc0_0 2.883691 1_555
B5_1 Os9_1 2.230738 1_555
B5_1 Os9_3 2.230738 1_555
B5_1 Os7_1 2.268861 1_555
B5_1 Os7_3 2.268861 1_555
B5_1 Os3_1 2.316804 1_555
B5_1 Os3_3 2.316804 1_555
B5_1 Sc1_5 2.725341 1_455
B5_1 Sc3_1 2.778578 1_555
B5_1 Sc0_1 2.883691 1_555
B5_2 Os9_0 2.230738 1_565
B5_2 Os9_2 2.230738 1_555
B5_2 Os7_2 2.268861 1_555
B5_2 Os7_0 2.268861 1_565
B5_2 Os3_2 2.316804 1_555
B5_2 Os3_0 2.316804 1_565
B5_2 Sc1_6 2.725341 1_455
B5_2 Sc3_2 2.778578 1_555
B5_2 Sc0_2 2.883691 1_555
B5_3 Os9_3 2.230738 1_555
B5_3 Os9_1 2.230738 1_565
B5_3 Os7_1 2.268861 1_565
B5_3 Os7_3 2.268861 1_555
B5_3 Os3_1 2.316804 1_565
B5_3 Os3_3 2.316804 1_555
B5_3 Sc1_7 2.725341 1_455
B5_3 Sc3_3 2.778578 1_555
B5_3 Sc0_3 2.883691 1_555
B5_4 Os9_4 2.230738 1_555
B5_4 Os9_6 2.230738 1_555
B5_4 Os7_6 2.268861 1_555
B5_4 Os7_4 2.268861 1_555
B5_4 Os3_6 2.316804 1_555
B5_4 Os3_4 2.316804 1_555
B5_4 Sc1_0 2.725341 1_555
B5_4 Sc3_4 2.778578 1_555
B5_4 Sc0_4 2.883691 1_555
B5_5 Os9_7 2.230738 1_555
B5_5 Os9_5 2.230738 1_555
B5_5 Os7_5 2.268861 1_555
B5_5 Os7_7 2.268861 1_555
B5_5 Os3_5 2.316804 1_555
B5_5 Os3_7 2.316804 1_555
B5_5 Sc1_1 2.725341 1_555
B5_5 Sc3_5 2.778578 1_555
B5_5 Sc0_5 2.883691 1_555
B5_6 Os9_4 2.230738 1_565
B5_6 Os9_6 2.230738 1_555
B5_6 Os7_6 2.268861 1_555
B5_6 Os7_4 2.268861 1_565
B5_6 Os3_6 2.316804 1_555
B5_6 Os3_4 2.316804 1_565
B5_6 Sc1_2 2.725341 1_555
B5_6 Sc3_6 2.778578 1_555
B5_6 Sc0_6 2.883691 1_555
B5_7 Os9_7 2.230738 1_555
B5_7 Os9_5 2.230738 1_565
B5_7 Os7_5 2.268861 1_565
B5_7 Os7_7 2.268861 1_555
B5_7 Os3_5 2.316804 1_565
B5_7 Os3_7 2.316804 1_555
B5_7 Sc1_3 2.725341 1_555
B5_7 Sc3_7 2.778578 1_555
B5_7 Sc0_7 2.883691 1_555
B6_0 B7_5 1.936500 1_555
B6_0 Os6_2 2.198478 1_555
B6_0 Os6_0 2.198478 1_555
B6_0 Os0_4 2.305215 1_555
B6_0 Os0_6 2.305215 1_555
B6_0 Os1_3 2.311474 1_555
B6_0 Os1_1 2.311474 1_555
B6_0 Sc2_0 2.783103 1_555
B6_0 Sc0_4 2.864770 1_555
B6_1 B7_4 1.936500 1_556
B6_1 Os6_3 2.198478 1_555
B6_1 Os6_1 2.198478 1_555
B6_1 Os0_7 2.305215 1_555
B6_1 Os0_5 2.305215 1_555
B6_1 Os1_0 2.311474 1_556
B6_1 Os1_2 2.311474 1_556
B6_1 Sc2_1 2.783103 1_555
B6_1 Sc0_5 2.864770 1_555
B6_2 B7_7 1.936500 1_555
B6_2 Os6_0 2.198478 1_565
B6_2 Os6_2 2.198478 1_555
B6_2 Os0_4 2.305215 1_565
B6_2 Os0_6 2.305215 1_555
B6_2 Os1_1 2.311474 1_565
B6_2 Os1_3 2.311474 1_555
B6_2 Sc2_2 2.783103 1_555
B6_2 Sc0_6 2.864770 1_555
B6_3 B7_6 1.936500 1_556
B6_3 Os6_1 2.198478 1_565
B6_3 Os6_3 2.198478 1_555
B6_3 Os0_7 2.305215 1_555
B6_3 Os0_5 2.305215 1_565
B6_3 Os1_0 2.311474 1_566
B6_3 Os1_2 2.311474 1_556
B6_3 Sc2_3 2.783103 1_555
B6_3 Sc0_7 2.864770 1_555
B6_4 B7_1 1.936500 1_655
B6_4 Os6_6 2.198478 1_555
B6_4 Os6_4 2.198478 1_555
B6_4 Os0_0 2.305215 1_655
B6_4 Os0_2 2.305215 1_655
B6_4 Os1_5 2.311474 1_555
B6_4 Os1_7 2.311474 1_555
B6_4 Sc2_4 2.783103 1_555
B6_4 Sc0_0 2.864770 1_655
B6_5 B7_0 1.936500 1_656
B6_5 Os6_7 2.198478 1_555
B6_5 Os6_5 2.198478 1_555
B6_5 Os0_3 2.305215 1_655
B6_5 Os0_1 2.305215 1_655
B6_5 Os1_4 2.311474 1_556
B6_5 Os1_6 2.311474 1_556
B6_5 Sc2_5 2.783103 1_555
B6_5 Sc0_1 2.864770 1_655
B6_6 B7_3 1.936500 1_655
B6_6 Os6_4 2.198478 1_565
B6_6 Os6_6 2.198478 1_555
B6_6 Os0_0 2.305215 1_665
B6_6 Os0_2 2.305215 1_655
B6_6 Os1_5 2.311474 1_565
B6_6 Os1_7 2.311474 1_555
B6_6 Sc2_6 2.783103 1_555
B6_6 Sc0_2 2.864770 1_655
B6_7 B7_2 1.936500 1_656
B6_7 Os6_7 2.198478 1_555
B6_7 Os6_5 2.198478 1_565
B6_7 Os0_3 2.305215 1_655
B6_7 Os0_1 2.305215 1_665
B6_7 Os1_6 2.311474 1_556
B6_7 Os1_4 2.311474 1_566
B6_7 Sc2_7 2.783103 1_555
B6_7 Sc0_3 2.864770 1_655
B7_0 Os7_0 2.198478 1_555
B7_0 Os7_2 2.198478 1_555
B7_0 Os1_6 2.305215 1_455
B7_0 Os1_4 2.305215 1_455
B7_0 Os0_3 2.311474 1_554
B7_0 Os0_1 2.311474 1_554
B7_0 Sc3_0 2.783103 1_555
B7_0 Sc1_4 2.864770 1_455
B7_1 Os7_1 2.198478 1_555
B7_1 Os7_3 2.198478 1_555
B7_1 Os1_5 2.305215 1_455
B7_1 Os1_7 2.305215 1_455
B7_1 Os0_0 2.311474 1_555
B7_1 Os0_2 2.311474 1_555
B7_1 Sc3_1 2.783103 1_555
B7_1 Sc1_5 2.864770 1_455
B7_2 Os7_0 2.198478 1_565
B7_2 Os7_2 2.198478 1_555
B7_2 Os1_4 2.305215 1_465
B7_2 Os1_6 2.305215 1_455
B7_2 Os0_3 2.311474 1_554
B7_2 Os0_1 2.311474 1_564
B7_2 Sc3_2 2.783103 1_555
B7_2 Sc1_6 2.864770 1_455
B7_3 Os7_1 2.198478 1_565
B7_3 Os7_3 2.198478 1_555
B7_3 Os1_5 2.305215 1_465
B7_3 Os1_7 2.305215 1_455
B7_3 Os0_0 2.311474 1_565
B7_3 Os0_2 2.311474 1_555
B7_3 Sc3_3 2.783103 1_555
B7_3 Sc1_7 2.864770 1_455
B7_4 Os7_6 2.198478 1_555
B7_4 Os7_4 2.198478 1_555
B7_4 Os1_0 2.305215 1_555
B7_4 Os1_2 2.305215 1_555
B7_4 Os0_7 2.311474 1_554
B7_4 Os0_5 2.311474 1_554
B7_4 Sc3_4 2.783103 1_555
B7_4 Sc1_0 2.864770 1_555
B7_5 Os7_7 2.198478 1_555
B7_5 Os7_5 2.198478 1_555
B7_5 Os1_3 2.305215 1_555
B7_5 Os1_1 2.305215 1_555
B7_5 Os0_6 2.311474 1_555
B7_5 Os0_4 2.311474 1_555
B7_5 Sc3_5 2.783103 1_555
B7_5 Sc1_1 2.864770 1_555
B7_6 Os7_6 2.198478 1_555
B7_6 Os7_4 2.198478 1_565
B7_6 Os1_0 2.305215 1_565
B7_6 Os1_2 2.305215 1_555
B7_6 Os0_7 2.311474 1_554
B7_6 Os0_5 2.311474 1_564
B7_6 Sc3_6 2.783103 1_555
B7_6 Sc1_2 2.864770 1_555
B7_7 Os7_7 2.198478 1_555
B7_7 Os7_5 2.198478 1_565
B7_7 Os1_1 2.305215 1_565
B7_7 Os1_3 2.305215 1_555
B7_7 Os0_6 2.311474 1_555
B7_7 Os0_4 2.311474 1_565
B7_7 Sc3_7 2.783103 1_555
B7_7 Sc1_3 2.864770 1_555
Os0_0 Sc0_2 3.146490 1_545
Os0_0 Sc0_0 3.146490 1_555
Os0_0 Sc3_1 3.201147 1_555
Os0_0 Sc3_3 3.201147 1_545
Os0_1 Sc0_3 3.146490 1_545
Os0_1 Sc0_1 3.146490 1_555
Os0_1 Sc3_2 3.201147 1_546
Os0_1 Sc3_0 3.201147 1_556
Os0_2 Sc0_0 3.146490 1_555
Os0_2 Sc0_2 3.146490 1_555
Os0_2 Sc3_3 3.201147 1_555
Os0_2 Sc3_1 3.201147 1_555
Os0_3 Sc0_1 3.146490 1_555
Os0_3 Sc0_3 3.146490 1_555
Os0_3 Sc3_2 3.201147 1_556
Os0_3 Sc3_0 3.201147 1_556
Os0_4 Sc0_6 3.146490 1_545
Os0_4 Sc0_4 3.146490 1_555
Os0_4 Sc3_5 3.201147 1_555
Os0_4 Sc3_7 3.201147 1_545
Os0_5 Sc0_5 3.146490 1_555
Os0_5 Sc0_7 3.146490 1_545
Os0_5 Sc3_4 3.201147 1_556
Os0_5 Sc3_6 3.201147 1_546
Os0_6 Sc0_6 3.146490 1_555
Os0_6 Sc0_4 3.146490 1_555
Os0_6 Sc3_5 3.201147 1_555
Os0_6 Sc3_7 3.201147 1_555
Os0_7 Sc0_5 3.146490 1_555
Os0_7 Sc0_7 3.146490 1_555
Os0_7 Sc3_6 3.201147 1_556
Os0_7 Sc3_4 3.201147 1_556
Os1_0 Sc1_2 3.146490 1_545
Os1_0 Sc1_0 3.146490 1_555
Os1_0 Sc2_1 3.201147 1_554
Os1_0 Sc2_3 3.201147 1_544
Os1_1 Sc1_1 3.146490 1_555
Os1_1 Sc1_3 3.146490 1_545
Os1_1 Sc2_2 3.201147 1_545
Os1_1 Sc2_0 3.201147 1_555
Os1_2 Sc1_2 3.146490 1_555
Os1_2 Sc1_0 3.146490 1_555
Os1_2 Sc2_3 3.201147 1_554
Os1_2 Sc2_1 3.201147 1_554
Os1_3 Sc1_3 3.146490 1_555
Os1_3 Sc1_1 3.146490 1_555
Os1_3 Sc2_2 3.201147 1_555
Os1_3 Sc2_0 3.201147 1_555
Os1_4 Sc1_4 3.146490 1_555
Os1_4 Sc1_6 3.146490 1_545
Os1_4 Sc2_7 3.201147 1_544
Os1_4 Sc2_5 3.201147 1_554
Os1_5 Sc1_5 3.146490 1_555
Os1_5 Sc1_7 3.146490 1_545
Os1_5 Sc2_4 3.201147 1_555
Os1_5 Sc2_6 3.201147 1_545
Os1_6 Sc1_6 3.146490 1_555
Os1_6 Sc1_4 3.146490 1_555
Os1_6 Sc2_7 3.201147 1_554
Os1_6 Sc2_5 3.201147 1_554
Os1_7 Sc1_5 3.146490 1_555
Os1_7 Sc1_7 3.146490 1_555
Os1_7 Sc2_6 3.201147 1_555
Os1_7 Sc2_4 3.201147 1_555
Os2_0 Sc2_0 3.151499 1_555
Os2_0 Sc2_2 3.151499 1_545
Os2_0 Sc1_2 3.203378 1_545
Os2_0 Sc1_0 3.203378 1_555
Os2_1 Sc2_1 3.151499 1_555
Os2_1 Sc2_3 3.151499 1_545
Os2_1 Sc1_1 3.203378 1_555
Os2_1 Sc1_3 3.203378 1_545
Os2_2 Sc2_0 3.151499 1_555
Os2_2 Sc2_2 3.151499 1_555
Os2_2 Sc1_2 3.203378 1_555
Os2_2 Sc1_0 3.203378 1_555
Os2_3 Sc2_3 3.151499 1_555
Os2_3 Sc2_1 3.151499 1_555
Os2_3 Sc1_1 3.203378 1_555
Os2_3 Sc1_3 3.203378 1_555
Os2_4 Sc2_6 3.151499 1_545
Os2_4 Sc2_4 3.151499 1_555
Os2_4 Sc1_4 3.203378 1_555
Os2_4 Sc1_6 3.203378 1_545
Os2_5 Sc2_5 3.151499 1_555
Os2_5 Sc2_7 3.151499 1_545
Os2_5 Sc1_5 3.203378 1_555
Os2_5 Sc1_7 3.203378 1_545
Os2_6 Sc2_4 3.151499 1_555
Os2_6 Sc2_6 3.151499 1_555
Os2_6 Sc1_6 3.203378 1_555
Os2_6 Sc1_4 3.203378 1_555
Os2_7 Sc2_7 3.151499 1_555
Os2_7 Sc2_5 3.151499 1_555
Os2_7 Sc1_7 3.203378 1_555
Os2_7 Sc1_5 3.203378 1_555
Os3_0 Sc3_2 3.151499 1_545
Os3_0 Sc3_0 3.151499 1_555
Os3_0 Sc0_0 3.203378 1_555
Os3_0 Sc0_2 3.203378 1_545
Os3_1 Sc3_1 3.151499 1_555
Os3_1 Sc3_3 3.151499 1_545
Os3_1 Sc0_1 3.203378 1_555
Os3_1 Sc0_3 3.203378 1_545
Os3_2 Sc3_2 3.151499 1_555
Os3_2 Sc3_0 3.151499 1_555
Os3_2 Sc0_0 3.203378 1_555
Os3_2 Sc0_2 3.203378 1_555
Os3_3 Sc3_1 3.151499 1_555
Os3_3 Sc3_3 3.151499 1_555
Os3_3 Sc0_1 3.203378 1_555
Os3_3 Sc0_3 3.203378 1_555
Os3_4 Sc3_6 3.151499 1_545
Os3_4 Sc3_4 3.151499 1_555
Os3_4 Sc0_4 3.203378 1_555
Os3_4 Sc0_6 3.203378 1_545
Os3_5 Sc3_5 3.151499 1_555
Os3_5 Sc3_7 3.151499 1_545
Os3_5 Sc0_5 3.203378 1_555
Os3_5 Sc0_7 3.203378 1_545
Os3_6 Sc3_6 3.151499 1_555
Os3_6 Sc3_4 3.151499 1_555
Os3_6 Sc0_6 3.203378 1_555
Os3_6 Sc0_4 3.203378 1_555
Os3_7 Sc3_7 3.151499 1_555
Os3_7 Sc3_5 3.151499 1_555
Os3_7 Sc0_5 3.203378 1_555
Os3_7 Sc0_7 3.203378 1_555
Os4_0 Sc0_0 2.676799 1_555
Os4_0 Sc0_2 2.676799 1_545
Os4_0 Sc2_2 2.764207 1_545
Os4_0 Sc2_0 2.764207 1_555
Os4_1 Sc0_1 2.676799 1_555
Os4_1 Sc0_3 2.676799 1_545
Os4_1 Sc2_1 2.764207 1_555
Os4_1 Sc2_3 2.764207 1_545
Os4_2 Sc0_0 2.676799 1_555
Os4_2 Sc0_2 2.676799 1_555
Os4_2 Sc2_2 2.764207 1_555
Os4_2 Sc2_0 2.764207 1_555
Os4_3 Sc0_1 2.676799 1_555
Os4_3 Sc0_3 2.676799 1_555
Os4_3 Sc2_1 2.764207 1_555
Os4_3 Sc2_3 2.764207 1_555
Os4_4 Sc0_4 2.676799 1_555
Os4_4 Sc0_6 2.676799 1_545
Os4_4 Sc2_4 2.764207 1_555
Os4_4 Sc2_6 2.764207 1_545
Os4_5 Sc0_5 2.676799 1_555
Os4_5 Sc0_7 2.676799 1_545
Os4_5 Sc2_7 2.764207 1_545
Os4_5 Sc2_5 2.764207 1_555
Os4_6 Sc0_6 2.676799 1_555
Os4_6 Sc0_4 2.676799 1_555
Os4_6 Sc2_4 2.764207 1_555
Os4_6 Sc2_6 2.764207 1_555
Os4_7 Sc0_5 2.676799 1_555
Os4_7 Sc0_7 2.676799 1_555
Os4_7 Sc2_5 2.764207 1_555
Os4_7 Sc2_7 2.764207 1_555
Os5_0 Sc1_0 2.676799 1_555
Os5_0 Sc1_2 2.676799 1_545
Os5_0 Sc3_2 2.764207 1_545
Os5_0 Sc3_0 2.764207 1_555
Os5_1 Sc1_1 2.676799 1_555
Os5_1 Sc1_3 2.676799 1_545
Os5_1 Sc3_1 2.764207 1_555
Os5_1 Sc3_3 2.764207 1_545
Os5_2 Sc1_2 2.676799 1_555
Os5_2 Sc1_0 2.676799 1_555
Os5_2 Sc3_0 2.764207 1_555
Os5_2 Sc3_2 2.764207 1_555
Os5_3 Sc1_3 2.676799 1_555
Os5_3 Sc1_1 2.676799 1_555
Os5_3 Sc3_3 2.764207 1_555
Os5_3 Sc3_1 2.764207 1_555
Os5_4 Sc1_4 2.676799 1_555
Os5_4 Sc1_6 2.676799 1_545
Os5_4 Sc3_6 2.764207 1_545
Os5_4 Sc3_4 2.764207 1_555
Os5_5 Sc1_5 2.676799 1_555
Os5_5 Sc1_7 2.676799 1_545
Os5_5 Sc3_5 2.764207 1_555
Os5_5 Sc3_7 2.764207 1_545
Os5_6 Sc1_4 2.676799 1_555
Os5_6 Sc1_6 2.676799 1_555
Os5_6 Sc3_4 2.764207 1_555
Os5_6 Sc3_6 2.764207 1_555
Os5_7 Sc1_7 2.676799 1_555
Os5_7 Sc1_5 2.676799 1_555
Os5_7 Sc3_5 2.764207 1_555
Os5_7 Sc3_7 2.764207 1_555
Os6_0 Sc2_2 2.676098 1_545
Os6_0 Sc2_0 2.676098 1_555
Os6_0 Sc0_4 2.762894 1_555
Os6_0 Sc0_6 2.762894 1_545
Os6_1 Sc2_1 2.676098 1_555
Os6_1 Sc2_3 2.676098 1_545
Os6_1 Sc0_5 2.762894 1_555
Os6_1 Sc0_7 2.762894 1_545
Os6_2 Sc2_0 2.676098 1_555
Os6_2 Sc2_2 2.676098 1_555
Os6_2 Sc0_6 2.762894 1_555
Os6_2 Sc0_4 2.762894 1_555
Os6_3 Sc2_1 2.676098 1_555
Os6_3 Sc2_3 2.676098 1_555
Os6_3 Sc0_7 2.762894 1_555
Os6_3 Sc0_5 2.762894 1_555
Os6_4 Sc2_6 2.676098 1_545
Os6_4 Sc2_4 2.676098 1_555
Os6_4 Sc0_0 2.762894 1_655
Os6_4 Sc0_2 2.762894 1_645
Os6_5 Sc2_7 2.676098 1_545
Os6_5 Sc2_5 2.676098 1_555
Os6_5 Sc0_1 2.762894 1_655
Os6_5 Sc0_3 2.762894 1_645
Os6_6 Sc2_4 2.676098 1_555
Os6_6 Sc2_6 2.676098 1_555
Os6_6 Sc0_2 2.762894 1_655
Os6_6 Sc0_0 2.762894 1_655
Os6_7 Sc2_5 2.676098 1_555
Os6_7 Sc2_7 2.676098 1_555
Os6_7 Sc0_1 2.762894 1_655
Os6_7 Sc0_3 2.762894 1_655
Os7_0 Sc3_0 2.676098 1_555
Os7_0 Sc3_2 2.676098 1_545
Os7_0 Sc1_4 2.762894 1_455
Os7_0 Sc1_6 2.762894 1_445
Os7_1 Sc3_1 2.676098 1_555
Os7_1 Sc3_3 2.676098 1_545
Os7_1 Sc1_5 2.762894 1_455
Os7_1 Sc1_7 2.762894 1_445
Os7_2 Sc3_0 2.676098 1_555
Os7_2 Sc3_2 2.676098 1_555
Os7_2 Sc1_4 2.762894 1_455
Os7_2 Sc1_6 2.762894 1_455
Os7_3 Sc3_3 2.676098 1_555
Os7_3 Sc3_1 2.676098 1_555
Os7_3 Sc1_5 2.762894 1_455
Os7_3 Sc1_7 2.762894 1_455
Os7_4 Sc3_6 2.676098 1_545
Os7_4 Sc3_4 2.676098 1_555
Os7_4 Sc1_0 2.762894 1_555
Os7_4 Sc1_2 2.762894 1_545
Os7_5 Sc3_5 2.676098 1_555
Os7_5 Sc3_7 2.676098 1_545
Os7_5 Sc1_1 2.762894 1_555
Os7_5 Sc1_3 2.762894 1_545
Os7_6 Sc3_4 2.676098 1_555
Os7_6 Sc3_6 2.676098 1_555
Os7_6 Sc1_0 2.762894 1_555
Os7_6 Sc1_2 2.762894 1_555
Os7_7 Sc3_7 2.676098 1_555
Os7_7 Sc3_5 2.676098 1_555
Os7_7 Sc1_1 2.762894 1_555
Os7_7 Sc1_3 2.762894 1_555
Os8_0 Sc2_3 2.736574 1_544
Os8_0 Sc2_1 2.736574 1_554
Os8_0 Sc3_2 2.736574 1_545
Os8_0 Sc3_0 2.736574 1_555
Os8_1 Sc2_2 2.736574 1_545
Os8_1 Sc2_0 2.736574 1_555
Os8_1 Sc3_1 2.736574 1_555
Os8_1 Sc3_3 2.736574 1_545
Os8_2 Sc2_3 2.736574 1_554
Os8_2 Sc2_1 2.736574 1_554
Os8_2 Sc3_2 2.736574 1_555
Os8_2 Sc3_0 2.736574 1_555
Os8_3 Sc2_0 2.736574 1_555
Os8_3 Sc2_2 2.736574 1_555
Os8_3 Sc3_3 2.736574 1_555
Os8_3 Sc3_1 2.736574 1_555
Os8_4 Sc2_7 2.736574 1_544
Os8_4 Sc2_5 2.736574 1_554
Os8_4 Sc3_6 2.736574 1_545
Os8_4 Sc3_4 2.736574 1_555
Os8_5 Sc2_4 2.736574 1_555
Os8_5 Sc2_6 2.736574 1_545
Os8_5 Sc3_7 2.736574 1_545
Os8_5 Sc3_5 2.736574 1_555
Os8_6 Sc2_7 2.736574 1_554
Os8_6 Sc2_5 2.736574 1_554
Os8_6 Sc3_4 2.736574 1_555
Os8_6 Sc3_6 2.736574 1_555
Os8_7 Sc2_4 2.736574 1_555
Os8_7 Sc2_6 2.736574 1_555
Os8_7 Sc3_7 2.736574 1_555
Os8_7 Sc3_5 2.736574 1_555
Os9_0 Sc0_0 2.737459 1_555
Os9_0 Sc0_2 2.737459 1_545
Os9_0 Sc1_4 2.737459 1_455
Os9_0 Sc1_6 2.737459 1_445
Os9_1 Sc0_1 2.737459 1_555
Os9_1 Sc0_3 2.737459 1_545
Os9_1 Sc1_7 2.737459 1_445
Os9_1 Sc1_5 2.737459 1_455
Os9_2 Sc0_0 2.737459 1_555
Os9_2 Sc0_2 2.737459 1_555
Os9_2 Sc1_4 2.737459 1_455
Os9_2 Sc1_6 2.737459 1_455
Os9_3 Sc0_1 2.737459 1_555
Os9_3 Sc0_3 2.737459 1_555
Os9_3 Sc1_5 2.737459 1_455
Os9_3 Sc1_7 2.737459 1_455
Os9_4 Sc0_4 2.737459 1_555
Os9_4 Sc0_6 2.737459 1_545
Os9_4 Sc1_0 2.737459 1_555
Os9_4 Sc1_2 2.737459 1_545
Os9_5 Sc0_5 2.737459 1_555
Os9_5 Sc0_7 2.737459 1_545
Os9_5 Sc1_1 2.737459 1_555
Os9_5 Sc1_3 2.737459 1_545
Os9_6 Sc0_6 2.737459 1_555
Os9_6 Sc0_4 2.737459 1_555
Os9_6 Sc1_0 2.737459 1_555
Os9_6 Sc1_2 2.737459 1_555
Os9_7 Sc0_5 2.737459 1_555
Os9_7 Sc0_7 2.737459 1_555
Os9_7 Sc1_1 2.737459 1_555
Os9_7 Sc1_3 2.737459 1_555
