# generated using pymatgen
data_KFeH24(C7N4)2
_symmetry_space_group_name_H-M   'P 1'
_cell_length_a   9.18248901
_cell_length_b   9.18248901
_cell_length_c   9.18248901
_cell_angle_alpha   91.72954055
_cell_angle_beta   119.00652384
_cell_angle_gamma   119.00652384
_symmetry_Int_Tables_number   1
_chemical_formula_structural   KFeH24(C7N4)2
_chemical_formula_sum   'K1 Fe1 H24 C14 N8'
_cell_volume   555.42477981
_cell_formula_units_Z   1
loop_
 _symmetry_equiv_pos_site_id
 _symmetry_equiv_pos_as_xyz
  1  'x, y, z'
loop_
 _atom_site_type_symbol
 _atom_site_label
 _atom_site_symmetry_multiplicity
 _atom_site_fract_x
 _atom_site_fract_y
 _atom_site_fract_z
 _atom_site_occupancy
  K  K0  1  0.00000000  0.00000000  0.00000000  1
  Fe  Fe0  1  0.00000000  0.50000000  0.50000000  1
  H  H0  1  0.39817700  0.68491800  0.98138600  1
  H  H1  1  0.60182300  0.58320900  0.28674100  1
  H  H2  1  0.29646700  0.98138600  0.58320900  1
  H  H3  1  0.70353300  0.28674100  0.68491800  1
  H  H4  1  0.60182300  0.31508200  0.01861400  1
  H  H5  1  0.39817700  0.41679100  0.71325900  1
  H  H6  1  0.70353300  0.01861400  0.41679100  1
  H  H7  1  0.29646700  0.71325900  0.31508200  1
  H  H8  1  0.55803400  0.91882900  0.10675500  1
  H  H9  1  0.44196600  0.54872100  0.36079500  1
  H  H10  1  0.18792700  0.10675500  0.54872100  1
  H  H11  1  0.81207300  0.36079500  0.91882900  1
  H  H12  1  0.44196600  0.08117100  0.89324500  1
  H  H13  1  0.55803400  0.45127900  0.63920500  1
  H  H14  1  0.81207300  0.89324500  0.45127900  1
  H  H15  1  0.18792700  0.63920500  0.08117100  1
  H  H16  1  0.66665500  0.79367100  0.14106800  1
  H  H17  1  0.33334500  0.47441300  0.12701600  1
  H  H18  1  0.34739700  0.14106800  0.47441300  1
  H  H19  1  0.65260300  0.12701600  0.79367100  1
  H  H20  1  0.33334500  0.20632900  0.85893200  1
  H  H21  1  0.66665500  0.52558700  0.87298500  1
  H  H22  1  0.65260300  0.85893200  0.52558700  1
  H  H23  1  0.34739700  0.87298500  0.20632900  1
  C  C0  1  0.96295300  0.62645100  0.33650200  1
  C  C1  1  0.03704700  0.37354900  0.66349800  1
  C  C2  1  0.71005100  0.33650200  0.37354900  1
  C  C3  1  0.28994900  0.66349800  0.62645100  1
  C  C4  1  0.00000000  0.34860200  0.34860200  1
  C  C5  1  0.00000000  0.65139800  0.65139800  1
  C  C6  1  0.53296600  0.78986600  0.10815900  1
  C  C7  1  0.46703400  0.57519300  0.25690100  1
  C  C8  1  0.31829300  0.10815900  0.57519300  1
  C  C9  1  0.68170700  0.25690100  0.78986600  1
  C  C10  1  0.46703400  0.21013400  0.89184100  1
  C  C11  1  0.53296600  0.42480700  0.74309900  1
  C  C12  1  0.68170700  0.89184100  0.42480700  1
  C  C13  1  0.31829300  0.74309900  0.21013400  1
  N  N0  1  0.00000000  0.25645700  0.25645700  1
  N  N1  1  0.00000000  0.74354300  0.74354300  1
  N  N2  1  0.94148700  0.70474200  0.23674500  1
  N  N3  1  0.05851300  0.29525800  0.76325500  1
  N  N4  1  0.53200300  0.23674500  0.29525800  1
  N  N5  1  0.46799700  0.76325500  0.70474200  1
  N  N6  1  0.50000000  0.75000000  0.25000000  1
  N  N7  1  0.50000000  0.25000000  0.75000000  1
loop_
_geom_bond_atom_site_label_1
_geom_bond_atom_site_label_2
_geom_bond_distance
_geom_bond_site_symmetry_2
K0 N0 3.279708 1_555
K0 N1 3.279708 1_544
C0 N2 1.181879 1_555
C0 Fe0 1.926373 1_655
C1 N3 1.181879 1_555
C1 Fe0 1.926373 1_555
C2 N4 1.181879 1_555
C2 Fe0 1.926373 1_655
C3 N5 1.181879 1_555
C3 Fe0 1.926373 1_555
C4 N0 1.178399 1_555
C4 Fe0 1.936158 1_555
C5 N1 1.178399 1_555
C5 Fe0 1.936158 1_555
C6 H0 1.092665 1_554
C6 H8 1.093126 1_555
C6 H16 1.094318 1_555
C6 N6 1.491879 1_555
C7 H1 1.092668 1_555
C7 H9 1.093117 1_555
C7 H17 1.094323 1_555
C7 N6 1.491881 1_555
C8 H2 1.092662 1_545
C8 H10 1.093117 1_555
C8 H18 1.094318 1_555
C8 N7 1.491879 1_555
C9 H3 1.092668 1_555
C9 H11 1.093122 1_555
C9 H19 1.094327 1_555
C9 N7 1.491874 1_555
C10 H4 1.092665 1_556
C10 H12 1.093126 1_555
C10 H20 1.094318 1_555
C10 N7 1.491879 1_555
C11 H5 1.092668 1_555
C11 H13 1.093117 1_555
C11 H21 1.094328 1_555
C11 N7 1.491881 1_555
C12 H6 1.092662 1_565
C12 H14 1.093117 1_555
C12 H22 1.094318 1_555
C12 N6 1.491879 1_555
C13 H7 1.092668 1_555
C13 H15 1.093122 1_555
C13 H23 1.094336 1_555
C13 N6 1.491874 1_555
