# generated using pymatgen
data_Pr3CBr5
_symmetry_space_group_name_H-M   'P 1'
_cell_length_a   7.68121388
_cell_length_b   9.14017450
_cell_length_c   9.22967269
_cell_angle_alpha   108.15911601
_cell_angle_beta   97.70273233
_cell_angle_gamma   105.91439624
_symmetry_Int_Tables_number   1
_chemical_formula_structural   Pr3CBr5
_chemical_formula_sum   'Pr6 C2 Br10'
_cell_volume   574.78548399
_cell_formula_units_Z   2
loop_
 _symmetry_equiv_pos_site_id
 _symmetry_equiv_pos_as_xyz
  1  'x, y, z'
loop_
 _atom_site_type_symbol
 _atom_site_label
 _atom_site_symmetry_multiplicity
 _atom_site_fract_x
 _atom_site_fract_y
 _atom_site_fract_z
 _atom_site_occupancy
  Pr  Pr0  1  0.88697903  0.95662514  0.23328973  1
  Pr  Pr1  1  0.11302097  0.04337486  0.76671027  1
  Pr  Pr2  1  0.02678152  0.71589020  0.91591871  1
  Pr  Pr3  1  0.97321848  0.28410980  0.08408129  1
  Pr  Pr4  1  0.60660355  0.84448084  0.79591689  1
  Pr  Pr5  1  0.39339645  0.15551916  0.20408311  1
  C  C0  1  0.90811523  0.96588141  0.95368187  1
  C  C1  1  0.09188477  0.03411859  0.04631813  1
  Br  Br0  1  0.74400844  0.91279616  0.53116096  1
  Br  Br1  1  0.25599156  0.08720384  0.46883904  1
  Br  Br2  1  0.45579045  0.81732388  0.08478521  1
  Br  Br3  1  0.54420955  0.18267612  0.91521479  1
  Br  Br4  1  0.82461451  0.27293573  0.36280886  1
  Br  Br5  1  0.17538549  0.72706427  0.63719114  1
  Br  Br6  1  0.90781874  0.62661381  0.17869697  1
  Br  Br7  1  0.09218126  0.37338619  0.82130303  1
  Br  Br8  1  0.64630502  0.52494440  0.71679083  1
  Br  Br9  1  0.35369498  0.47505560  0.28320917  1
loop_
_geom_bond_atom_site_label_1
_geom_bond_atom_site_label_2
_geom_bond_distance
_geom_bond_site_symmetry_2
C0 C1 1.404933 1_666
C0 Pr4 2.322681 1_555
C0 Pr1 2.614487 1_665
C0 Pr2 2.627605 1_655
C0 Pr0 2.633315 1_556
C0 Pr3 2.649125 1_566
C1 Pr5 2.322681 1_555
C1 Pr0 2.614487 1_445
C1 Pr3 2.627605 1_455
C1 Pr1 2.633315 1_554
C1 Pr2 2.649125 1_544
Br0 Pr4 2.959069 1_555
Br0 Pr1 3.010093 1_665
Br0 Pr0 3.190529 1_555
Br1 Pr5 2.959069 1_555
Br1 Pr0 3.010093 1_445
Br1 Pr1 3.190529 1_555
Br2 Pr4 3.097536 1_554
Br2 Pr5 3.135242 1_565
Br2 Pr0 3.138814 1_555
Br2 Pr2 3.192940 1_554
Br3 Pr5 3.097536 1_556
Br3 Pr4 3.135242 1_545
Br3 Pr1 3.138814 1_555
Br3 Pr3 3.192940 1_556
Br4 Pr0 2.962420 1_545
Br4 Pr3 2.969589 1_555
Br4 Pr5 3.168428 1_555
Br5 Pr1 2.962420 1_565
Br5 Pr2 2.969589 1_555
Br5 Pr4 3.168428 1_555
Br6 Pr0 2.952458 1_555
Br6 Pr2 2.966815 1_654
Br6 Pr3 3.176678 1_555
Br7 Pr1 2.952458 1_555
Br7 Pr3 2.966815 1_456
Br7 Pr2 3.176678 1_555
Br8 Pr4 2.893960 1_555
Br8 Pr2 2.954412 1_655
Br9 Pr5 2.893960 1_555
Br9 Pr3 2.954412 1_455
