# generated using pymatgen
data_Ca3(AlP2)2
_symmetry_space_group_name_H-M   'P 1'
_cell_length_a   8.00941748
_cell_length_b   8.00941748
_cell_length_c   6.45545190
_cell_angle_alpha   89.68958657
_cell_angle_beta   89.68958657
_cell_angle_gamma   75.66248374
_symmetry_Int_Tables_number   1
_chemical_formula_structural   Ca3(AlP2)2
_chemical_formula_sum   'Ca6 Al4 P8'
_cell_volume   401.21442422
_cell_formula_units_Z   2
loop_
 _symmetry_equiv_pos_site_id
 _symmetry_equiv_pos_as_xyz
  1  'x, y, z'
loop_
 _atom_site_type_symbol
 _atom_site_label
 _atom_site_symmetry_multiplicity
 _atom_site_fract_x
 _atom_site_fract_y
 _atom_site_fract_z
 _atom_site_occupancy
  Ca  Ca0  1  0.75051509  0.00832273  0.97059704  1
  Ca  Ca1  1  0.99167727  0.24948491  0.52940296  1
  Ca  Ca2  1  0.24948491  0.99167727  0.02940296  1
  Ca  Ca3  1  0.00832273  0.75051509  0.47059704  1
  Ca  Ca4  1  0.59889262  0.40110738  0.25000000  1
  Ca  Ca5  1  0.40110738  0.59889262  0.75000000  1
  Al  Al0  1  0.57965844  0.82771961  0.41087080  1
  Al  Al1  1  0.17228039  0.42034156  0.08912920  1
  Al  Al2  1  0.42034156  0.17228039  0.58912920  1
  Al  Al3  1  0.82771961  0.57965844  0.91087080  1
  P  P0  1  0.71393230  0.05802495  0.47632069  1
  P  P1  1  0.94197505  0.28606770  0.02367931  1
  P  P2  1  0.28606770  0.94197505  0.52367931  1
  P  P3  1  0.05802495  0.71393230  0.97632069  1
  P  P4  1  0.57054020  0.74188123  0.06409193  1
  P  P5  1  0.25811877  0.42945980  0.43590807  1
  P  P6  1  0.42945980  0.25811877  0.93590807  1
  P  P7  1  0.74188123  0.57054020  0.56409193  1
loop_
_geom_bond_atom_site_label_1
_geom_bond_atom_site_label_2
_geom_bond_distance
_geom_bond_site_symmetry_2
Ca0 P6 2.849352 1_555
Ca0 P4 2.914871 1_546
Ca0 P3 2.958225 1_645
Ca0 P1 3.020134 1_556
Ca0 P0 3.219314 1_555
Ca0 P0 3.293687 1_556
Ca1 P7 2.849352 1_555
Ca1 P5 2.914871 1_655
Ca1 P2 2.958225 1_645
Ca1 P0 3.020134 1_555
Ca1 P1 3.219314 1_556
Ca1 P1 3.293687 1_555
Ca2 P4 2.849352 1_555
Ca2 P6 2.914871 1_564
Ca2 P1 2.958225 1_465
Ca2 P3 3.020134 1_554
Ca2 P2 3.219314 1_555
Ca2 P2 3.293687 1_554
Ca3 P5 2.849352 1_555
Ca3 P7 2.914871 1_455
Ca3 P0 2.958225 1_465
Ca3 P2 3.020134 1_555
Ca3 P3 3.219314 1_554
Ca3 P3 3.293687 1_555
Ca4 P7 2.844136 1_555
Ca4 P6 2.844136 1_554
Ca4 P4 2.932912 1_555
Ca4 P5 2.932912 1_555
Ca4 P0 3.041632 1_555
Ca4 P1 3.041632 1_555
Ca5 P4 2.844136 1_556
Ca5 P5 2.844136 1_555
Ca5 P7 2.932912 1_555
Ca5 P6 2.932912 1_555
Ca5 P3 3.041632 1_555
Ca5 P2 3.041632 1_555
Al0 P4 2.352174 1_555
Al0 P7 2.361330 1_555
Al0 P0 2.394491 1_565
Al0 P2 2.412504 1_555
Al1 P5 2.352174 1_555
Al1 P6 2.361330 1_554
Al1 P1 2.394491 1_455
Al1 P3 2.412504 1_554
Al2 P6 2.352174 1_555
Al2 P5 2.361330 1_555
Al2 P2 2.394491 1_545
Al2 P0 2.412504 1_555
Al3 P7 2.352174 1_555
Al3 P4 2.361330 1_556
Al3 P3 2.394491 1_655
Al3 P1 2.412504 1_556
