# generated using pymatgen
data_Ga2O3
_symmetry_space_group_name_H-M   'P 1'
_cell_length_a   10.28086423
_cell_length_b   9.78721661
_cell_length_c   10.44392269
_cell_angle_alpha   90.83470497
_cell_angle_beta   87.69922745
_cell_angle_gamma   89.18860580
_symmetry_Int_Tables_number   1
_chemical_formula_structural   Ga2O3
_chemical_formula_sum   'Ga32 O48'
_cell_volume   1049.80546665
_cell_formula_units_Z   16
loop_
 _symmetry_equiv_pos_site_id
 _symmetry_equiv_pos_as_xyz
  1  'x, y, z'
loop_
 _atom_site_type_symbol
 _atom_site_label
 _atom_site_symmetry_multiplicity
 _atom_site_fract_x
 _atom_site_fract_y
 _atom_site_fract_z
 _atom_site_occupancy
  Ga  Ga0  1  0.24973500  0.77328100  0.07201900  1
  Ga  Ga1  1  0.80418500  0.29861800  0.78501500  1
  Ga  Ga2  1  0.45346300  0.86842400  0.26060400  1
  Ga  Ga3  1  0.19296800  0.16960700  0.92653600  1
  Ga  Ga4  1  0.29216900  0.61909100  0.74353900  1
  Ga  Ga5  1  0.08404500  0.37120800  0.60714900  1
  Ga  Ga6  1  0.75941600  0.57594000  0.89142300  1
  Ga  Ga7  1  0.96356900  0.77776400  0.25883500  1
  Ga  Ga8  1  0.97761300  0.02893800  0.73119800  1
  Ga  Ga9  1  0.69588800  0.01972100  0.22690100  1
  Ga  Ga10  1  0.63256500  0.06780300  0.69967700  1
  Ga  Ga11  1  0.24664300  0.08653300  0.18417800  1
  Ga  Ga12  1  0.89344200  0.44169000  0.34058700  1
  Ga  Ga13  1  0.66032300  0.46176500  0.57839000  1
  Ga  Ga14  1  0.62968100  0.27816500  0.36536700  1
  Ga  Ga15  1  0.12525100  0.92018200  0.44140900  1
  Ga  Ga16  1  0.28361300  0.10303500  0.66090600  1
  Ga  Ga17  1  0.59345100  0.35924000  0.06113400  1
  Ga  Ga18  1  0.27920600  0.47176100  0.99423300  1
  Ga  Ga19  1  0.02154700  0.73493200  0.92797100  1
  Ga  Ga20  1  0.48692600  0.01046900  0.97819700  1
  Ga  Ga21  1  0.47630200  0.31067300  0.82001800  1
  Ga  Ga22  1  0.16641900  0.57634500  0.44498600  1
  Ga  Ga23  1  0.43499200  0.86630400  0.56878600  1
  Ga  Ga24  1  0.96167800  0.40157500  0.02329600  1
  Ga  Ga25  1  0.56071400  0.71617800  0.03326400  1
  Ga  Ga26  1  0.94530300  0.12908400  0.18769400  1
  Ga  Ga27  1  0.34384100  0.30651800  0.43252500  1
  Ga  Ga28  1  0.78112900  0.94520800  0.92517900  1
  Ga  Ga29  1  0.67581100  0.70772700  0.36537000  1
  Ga  Ga30  1  0.42021600  0.51372600  0.22547000  1
  Ga  Ga31  1  0.84355500  0.00205300  0.45237600  1
  O  O0  1  0.19352100  0.67879100  0.89360700  1
  O  O1  1  0.17150800  0.54610500  0.62637800  1
  O  O2  1  0.60318700  0.40662300  0.23309400  1
  O  O3  1  0.75872400  0.48957600  0.73018000  1
  O  O4  1  0.41041100  0.72498400  0.67139800  1
  O  O5  1  0.56663300  0.93153400  0.12775700  1
  O  O6  1  0.50907400  0.34221600  0.49583300  1
  O  O7  1  0.61201500  0.96621800  0.85349800  1
  O  O8  1  0.93274500  0.57278400  0.94606300  1
  O  O9  1  0.93768900  0.86926200  0.84092000  1
  O  O10  1  0.71587400  0.97765700  0.57020500  1
  O  O11  1  0.09581900  0.11421300  0.08743400  1
  O  O12  1  0.82029200  0.09841200  0.80079200  1
  O  O13  1  0.78043800  0.86390200  0.31770900  1
  O  O14  1  0.72627000  0.75673300  0.96406700  1
  O  O15  1  0.76692200  0.36716200  0.45173400  1
  O  O16  1  0.09630200  0.73605500  0.38954200  1
  O  O17  1  0.14366500  0.05673800  0.78577300  1
  O  O18  1  0.22774300  0.25629800  0.56608600  1
  O  O19  1  0.32676100  0.21770300  0.80196800  1
  O  O20  1  0.31989700  0.49408600  0.37872500  1
  O  O21  1  0.28193200  0.89646000  0.22476200  1
  O  O22  1  0.01692700  0.96906400  0.30682900  1
  O  O23  1  0.98864400  0.98114000  0.55807400  1
  O  O24  1  0.05901600  0.78632400  0.09748700  1
  O  O25  1  0.60082800  0.53187700  0.97618000  1
  O  O26  1  0.81643500  0.03510800  0.08565700  1
  O  O27  1  0.94068700  0.33774600  0.19111400  1
  O  O28  1  0.41156600  0.80948400  0.98398900  1
  O  O29  1  0.55819100  0.21463300  0.95420200  1
  O  O30  1  0.32433700  0.07663100  0.01968800  1
  O  O31  1  0.96971300  0.27833000  0.70360600  1
  O  O32  1  0.40047200  0.38049200  0.09493500  1
  O  O33  1  0.27304800  0.59912800  0.13320700  1
  O  O34  1  0.03988800  0.43934800  0.44237200  1
  O  O35  1  0.52196300  0.84049800  0.41299300  1
  O  O36  1  0.45854400  0.03400400  0.65095700  1
  O  O37  1  0.26751900  0.95278100  0.53113800  1
  O  O38  1  0.80148800  0.34819900  0.96096200  1
  O  O39  1  0.37961000  0.48115600  0.83646200  1
  O  O40  1  0.13378400  0.35881900  0.96334300  1
  O  O41  1  0.85240700  0.61981400  0.28874100  1
  O  O42  1  0.62833000  0.26933500  0.71078000  1
  O  O43  1  0.64428400  0.63108300  0.51673700  1
  O  O44  1  0.56349100  0.11761600  0.30950600  1
  O  O45  1  0.27348800  0.19808900  0.31280700  1
  O  O46  1  0.52863600  0.67887300  0.21663300  1
  O  O47  1  0.81994700  0.13763200  0.32694200  1
loop_
_geom_bond_atom_site_label_1
_geom_bond_atom_site_label_2
_geom_bond_distance
_geom_bond_site_symmetry_2
Ga0 O33 1.844861 1_555
Ga0 O28 1.908477 1_554
Ga0 O24 1.970192 1_555
Ga0 O21 2.026187 1_555
Ga0 O0 2.170853 1_554
Ga1 O31 1.878212 1_555
Ga1 O38 1.892745 1_555
Ga1 O12 1.973946 1_555
Ga1 O3 2.016760 1_555
Ga1 O42 2.018077 1_555
Ga2 O35 1.789096 1_555
Ga2 O21 1.835100 1_555
Ga2 O5 1.891012 1_555
Ga2 O46 2.038611 1_555
Ga3 O17 1.914901 1_555
Ga3 O30 1.922266 1_556
Ga3 O19 1.923187 1_555
Ga3 O40 1.968742 1_555
Ga3 O11 2.005585 1_556
Ga4 O4 1.761941 1_555
Ga4 O39 1.909535 1_555
Ga4 O0 1.911887 1_555
Ga4 O1 1.915165 1_555
Ga5 O31 1.784560 1_455
Ga5 O18 1.875982 1_555
Ga5 O34 1.923538 1_555
Ga5 O1 1.956288 1_555
Ga6 O3 1.873518 1_555
Ga6 O25 1.882282 1_555
Ga6 O8 1.892783 1_555
Ga6 O14 1.935400 1_555
Ga6 O38 2.393291 1_555
Ga7 O24 1.919162 1_655
Ga7 O41 1.956748 1_555
Ga7 O16 2.010549 1_655
Ga7 O22 2.020268 1_655
Ga7 O13 2.116726 1_555
Ga8 O17 1.843924 1_655
Ga8 O23 1.859650 1_545
Ga8 O12 1.861898 1_555
Ga8 O9 1.989094 1_545
Ga8 O31 2.462552 1_555
Ga9 O44 1.832954 1_555
Ga9 O26 1.897268 1_555
Ga9 O5 1.923508 1_545
Ga9 O13 2.012847 1_545
Ga9 O47 2.040514 1_555
Ga10 O10 1.786413 1_545
Ga10 O7 1.907668 1_545
Ga10 O36 1.911573 1_555
Ga10 O42 1.973917 1_555
Ga10 O12 2.258461 1_555
Ga11 O45 1.751718 1_555
Ga11 O30 1.865863 1_555
Ga11 O11 1.902763 1_555
Ga11 O21 1.946316 1_545
Ga12 O15 1.871299 1_555
Ga12 O34 1.877661 1_655
Ga12 O41 1.880270 1_555
Ga12 O27 1.893860 1_555
Ga13 O43 1.794387 1_555
Ga13 O15 1.904546 1_555
Ga13 O3 1.932520 1_555
Ga13 O6 2.158740 1_555
Ga13 O42 2.371474 1_555
Ga14 O44 1.818778 1_555
Ga14 O6 1.898553 1_555
Ga14 O2 1.906404 1_555
Ga14 O15 1.917608 1_555
Ga14 O47 2.392459 1_555
Ga15 O37 1.798294 1_555
Ga15 O22 1.890731 1_555
Ga15 O16 1.905055 1_555
Ga15 O23 1.905434 1_455
Ga16 O18 1.903998 1_555
Ga16 O19 1.909223 1_555
Ga16 O36 1.910547 1_555
Ga16 O17 1.964977 1_555
Ga16 O37 1.998394 1_545
Ga17 O29 1.839208 1_554
Ga17 O2 1.855250 1_555
Ga17 O25 1.920871 1_554
Ga17 O32 2.008492 1_555
Ga17 O38 2.343322 1_554
Ga18 O32 1.886656 1_556
Ga18 O33 1.897965 1_556
Ga18 O40 1.906913 1_555
Ga18 O39 1.913005 1_555
Ga18 O0 2.464136 1_555
Ga19 O9 1.834113 1_455
Ga19 O8 1.850303 1_455
Ga19 O0 1.863459 1_555
Ga19 O24 1.889455 1_556
Ga20 O30 1.817744 1_556
Ga20 O7 1.835988 1_545
Ga20 O5 1.956571 1_546
Ga20 O28 2.125137 1_545
Ga20 O29 2.152604 1_555
Ga21 O19 1.812460 1_555
Ga21 O29 1.914928 1_555
Ga21 O39 1.932026 1_555
Ga21 O42 1.932267 1_555
Ga22 O16 1.823802 1_555
Ga22 O20 1.864646 1_555
Ga22 O34 1.882002 1_555
Ga22 O1 1.924346 1_555
Ga23 O4 1.776720 1_555
Ga23 O35 1.837257 1_555
Ga23 O36 1.864386 1_565
Ga23 O37 1.964231 1_555
Ga24 O38 1.873370 1_554
Ga24 O27 1.874584 1_555
Ga24 O40 1.892189 1_654
Ga24 O8 1.895118 1_554
Ga25 O28 1.867458 1_554
Ga25 O14 1.872313 1_554
Ga25 O25 1.925368 1_554
Ga25 O46 1.970461 1_555
Ga25 O5 2.316901 1_555
Ga26 O11 1.836098 1_655
Ga26 O47 1.904157 1_555
Ga26 O26 1.963725 1_555
Ga26 O27 2.041858 1_555
Ga26 O22 2.154263 1_645
Ga27 O45 1.807854 1_555
Ga27 O18 1.874806 1_555
Ga27 O6 1.882871 1_555
Ga27 O20 1.942863 1_555
Ga28 O7 1.929886 1_555
Ga28 O26 1.931293 1_566
Ga28 O9 1.936735 1_555
Ga28 O14 1.979562 1_555
Ga28 O12 2.032220 1_565
Ga29 O43 1.779659 1_555
Ga29 O13 1.940856 1_555
Ga29 O35 2.073043 1_555
Ga29 O41 2.120403 1_555
Ga29 O46 2.229408 1_555
Ga30 O20 1.882702 1_555
Ga30 O32 1.891585 1_555
Ga30 O46 1.977523 1_555
Ga30 O33 2.005258 1_555
Ga30 O2 2.145296 1_555
Ga31 O10 1.783879 1_545
Ga31 O47 1.898130 1_555
Ga31 O23 1.901481 1_545
Ga31 O13 2.066423 1_545
Ga31 O22 2.311656 1_645
