# generated using pymatgen
data_RbBe2B3O7
_symmetry_space_group_name_H-M   'P 1'
_cell_length_a   4.43480700
_cell_length_b   7.76057100
_cell_length_c   17.93222800
_cell_angle_alpha   90.00000000
_cell_angle_beta   90.00000000
_cell_angle_gamma   90.00000000
_symmetry_Int_Tables_number   1
_chemical_formula_structural   RbBe2B3O7
_chemical_formula_sum   'Rb4 Be8 B12 O28'
_cell_volume   617.16693855
_cell_formula_units_Z   4
loop_
 _symmetry_equiv_pos_site_id
 _symmetry_equiv_pos_as_xyz
  1  'x, y, z'
loop_
 _atom_site_type_symbol
 _atom_site_label
 _atom_site_symmetry_multiplicity
 _atom_site_fract_x
 _atom_site_fract_y
 _atom_site_fract_z
 _atom_site_occupancy
  Rb  Rb0  1  0.94791300  0.50000000  0.35765400  1
  Rb  Rb1  1  0.44791300  0.00000000  0.64234600  1
  Rb  Rb2  1  0.92527700  0.00000000  0.14967400  1
  Rb  Rb3  1  0.42527700  0.50000000  0.85032600  1
  Be  Be0  1  0.43108600  0.18704900  0.45953400  1
  Be  Be1  1  0.43108600  0.81295100  0.45953400  1
  Be  Be2  1  0.93108600  0.31295100  0.54046600  1
  Be  Be3  1  0.93108600  0.68704900  0.54046600  1
  Be  Be4  1  0.35797900  0.32447100  0.03691000  1
  Be  Be5  1  0.35797900  0.67552900  0.03691000  1
  Be  Be6  1  0.85797900  0.17552900  0.96309000  1
  Be  Be7  1  0.85797900  0.82447100  0.96309000  1
  B  B0  1  0.93271300  0.00000000  0.48112000  1
  B  B1  1  0.43271300  0.50000000  0.51888000  1
  B  B2  1  0.86153300  0.50000000  0.00864000  1
  B  B3  1  0.36153300  0.00000000  0.99136000  1
  B  B4  1  0.51794200  0.15806900  0.31769900  1
  B  B5  1  0.51794200  0.84193100  0.31769900  1
  B  B6  1  0.01794200  0.34193100  0.68230100  1
  B  B7  1  0.01794200  0.65806900  0.68230100  1
  B  B8  1  0.42636600  0.33558000  0.19365900  1
  B  B9  1  0.42636600  0.66442000  0.19365900  1
  B  B10  1  0.92636600  0.16442000  0.80634100  1
  B  B11  1  0.92636600  0.83558000  0.80634100  1
  O  O0  1  0.24417100  0.00000000  0.47378300  1
  O  O1  1  0.74417100  0.50000000  0.52621700  1
  O  O2  1  0.78166600  0.15622400  0.48791500  1
  O  O3  1  0.78166600  0.84377600  0.48791500  1
  O  O4  1  0.28166600  0.34377600  0.51208500  1
  O  O5  1  0.28166600  0.65622400  0.51208500  1
  O  O6  1  0.17260700  0.50000000  0.01025000  1
  O  O7  1  0.67260700  0.00000000  0.98975000  1
  O  O8  1  0.20773100  0.15480400  0.99378100  1
  O  O9  1  0.20773100  0.84519600  0.99378100  1
  O  O10  1  0.70773100  0.34519600  0.00621900  1
  O  O11  1  0.70773100  0.65480400  0.00621900  1
  O  O12  1  0.42121700  0.25609400  0.37428000  1
  O  O13  1  0.42121700  0.74390600  0.37428000  1
  O  O14  1  0.92121700  0.24390600  0.62572000  1
  O  O15  1  0.92121700  0.75609400  0.62572000  1
  O  O16  1  0.66019900  0.00000000  0.33210000  1
  O  O17  1  0.16019900  0.50000000  0.66790000  1
  O  O18  1  0.48953000  0.19797900  0.24207300  1
  O  O19  1  0.48953000  0.80202100  0.24207300  1
  O  O20  1  0.98953000  0.30202100  0.75792700  1
  O  O21  1  0.98953000  0.69797900  0.75792700  1
  O  O22  1  0.45777800  0.50000000  0.22519900  1
  O  O23  1  0.95777800  0.00000000  0.77480100  1
  O  O24  1  0.35024300  0.29575200  0.12406300  1
  O  O25  1  0.35024300  0.70424800  0.12406300  1
  O  O26  1  0.85024300  0.20424800  0.87593700  1
  O  O27  1  0.85024300  0.79575200  0.87593700  1
loop_
_geom_bond_atom_site_label_1
_geom_bond_atom_site_label_2
_geom_bond_distance
_geom_bond_site_symmetry_2
Be0 O12 1.620568 1_555
Be0 O2 1.653331 1_555
Be0 O4 1.675262 1_555
Be0 O0 1.691029 1_555
Be1 O13 1.620568 1_555
Be1 O3 1.653331 1_555
Be1 O5 1.675262 1_555
Be1 O0 1.691029 1_565
Be2 O14 1.620568 1_555
Be2 O4 1.653331 1_655
Be2 O2 1.675262 1_555
Be2 O1 1.691029 1_555
Be3 O15 1.620568 1_555
Be3 O5 1.653331 1_655
Be3 O3 1.675262 1_555
Be3 O1 1.691029 1_555
Be4 O24 1.579032 1_555
Be4 O10 1.653669 1_555
Be4 O6 1.661321 1_555
Be4 O8 1.666092 1_554
Be5 O25 1.579032 1_555
Be5 O11 1.653669 1_555
Be5 O6 1.661321 1_555
Be5 O9 1.666092 1_554
Be6 O26 1.579032 1_555
Be6 O8 1.653669 1_655
Be6 O7 1.661321 1_555
Be6 O10 1.666092 1_556
Be7 O27 1.579032 1_555
Be7 O9 1.653669 1_655
Be7 O7 1.661321 1_565
Be7 O11 1.666092 1_556
B0 O0 1.387508 1_655
B0 O2 1.390485 1_555
B0 O3 1.390485 1_545
B1 O1 1.387508 1_555
B1 O5 1.390485 1_555
B1 O4 1.390485 1_555
B2 O6 1.379855 1_655
B2 O11 1.382174 1_555
B2 O10 1.382174 1_555
B3 O7 1.379855 1_555
B3 O8 1.382174 1_555
B3 O9 1.382174 1_545
B4 O12 1.338721 1_555
B4 O18 1.396756 1_555
B4 O16 1.403392 1_555
B5 O13 1.338721 1_555
B5 O19 1.396756 1_555
B5 O16 1.403392 1_565
B6 O14 1.338721 1_455
B6 O20 1.396756 1_455
B6 O17 1.403392 1_555
B7 O15 1.338721 1_455
B7 O21 1.396756 1_455
B7 O17 1.403392 1_555
B8 O24 1.329299 1_555
B8 O22 1.402658 1_555
B8 O18 1.404464 1_555
B9 O25 1.329299 1_555
B9 O22 1.402658 1_555
B9 O19 1.404464 1_555
B10 O26 1.329299 1_555
B10 O23 1.402658 1_555
B10 O20 1.404464 1_555
B11 O27 1.329299 1_555
B11 O23 1.402658 1_565
B11 O21 1.404464 1_555
O0 Rb1 3.154868 1_555
O1 Rb0 3.154868 1_555
O6 Rb3 3.078938 1_554
O7 Rb2 3.078938 1_556
O12 Rb0 2.842115 1_455
O12 Rb0 3.021210 1_555
O13 Rb0 2.842115 1_455
O13 Rb0 3.021210 1_555
O14 Rb1 2.842115 1_555
O14 Rb1 3.021210 1_655
O15 Rb1 2.842115 1_565
O15 Rb1 3.021210 1_665
O18 Rb2 2.973277 1_555
O19 Rb2 2.973277 1_565
O20 Rb3 2.973277 1_655
O21 Rb3 2.973277 1_655
O22 Rb0 3.219691 1_555
O22 Rb0 3.279398 1_455
O23 Rb1 3.219691 1_655
O23 Rb1 3.279398 1_555
O24 Rb2 3.005123 1_455
O25 Rb2 3.005123 1_465
O26 Rb3 3.005123 1_555
O27 Rb3 3.005123 1_555
