# generated using pymatgen
data_Sr2InPb
_symmetry_space_group_name_H-M   'P 1'
_cell_length_a   13.84842804
_cell_length_b   13.84842804
_cell_length_c   13.84842804
_cell_angle_alpha   123.32413029
_cell_angle_beta   117.91199462
_cell_angle_gamma   88.99786930
_symmetry_Int_Tables_number   1
_chemical_formula_structural   Sr2InPb
_chemical_formula_sum   'Sr2 In1 Pb1'
_cell_volume   1854.80440259
_cell_formula_units_Z   1
loop_
 _symmetry_equiv_pos_site_id
 _symmetry_equiv_pos_as_xyz
  1  'x, y, z'
loop_
 _atom_site_type_symbol
 _atom_site_label
 _atom_site_symmetry_multiplicity
 _atom_site_fract_x
 _atom_site_fract_y
 _atom_site_fract_z
 _atom_site_occupancy
  Sr  Sr0  1  0.00000000  0.25236000  0.25236000  1
  Sr  Sr1  1  0.00000000  0.74764000  0.74764000  1
  In  In0  1  0.00000000  0.00000000  0.00000000  1
  Pb  Pb0  1  0.00000000  0.50000000  0.50000000  1
loop_
_geom_bond_atom_site_label_1
_geom_bond_atom_site_label_2
_geom_bond_distance
_geom_bond_site_symmetry_2
In0 Sr0 3.317751 1_555
In0 Sr1 3.317751 1_544
Pb0 Sr1 3.255697 1_555
Pb0 Sr0 3.255697 1_555
