# generated using pymatgen
data_CeTiFe11
_symmetry_space_group_name_H-M   'P 1'
_cell_length_a   4.67318600
_cell_length_b   6.50249524
_cell_length_c   6.50249524
_cell_angle_alpha   96.74927662
_cell_angle_beta   111.05954936
_cell_angle_gamma   68.94045064
_symmetry_Int_Tables_number   1
_chemical_formula_structural   CeTiFe11
_chemical_formula_sum   'Ce1 Ti1 Fe11'
_cell_volume   172.06440331
_cell_formula_units_Z   1
loop_
 _symmetry_equiv_pos_site_id
 _symmetry_equiv_pos_as_xyz
  1  'x, y, z'
loop_
 _atom_site_type_symbol
 _atom_site_label
 _atom_site_symmetry_multiplicity
 _atom_site_fract_x
 _atom_site_fract_y
 _atom_site_fract_z
 _atom_site_occupancy
  Ce  Ce0  1  0.00680500  0.99319500  0.00680500  1
  Ti  Ti0  1  0.62951000  0.37049000  0.62951000  1
  Fe  Fe0  1  0.73289500  0.76710500  0.23289500  1
  Fe  Fe1  1  0.27226200  0.22773800  0.77226200  1
  Fe  Fe2  1  0.49923200  0.77792800  0.77639200  1
  Fe  Fe3  1  0.49923200  0.22360800  0.22207200  1
  Fe  Fe4  1  0.50094400  0.99919100  0.50021600  1
  Fe  Fe5  1  0.00008100  0.99919100  0.50021600  1
  Fe  Fe6  1  0.50094400  0.49978400  0.00080900  1
  Fe  Fe7  1  0.00008100  0.49978400  0.00080900  1
  Fe  Fe8  1  0.35491000  0.64509000  0.35491000  1
  Fe  Fe9  1  0.00155200  0.35624700  0.35935200  1
  Fe  Fe10  1  0.00155200  0.64064800  0.64375300  1
loop_
_geom_bond_atom_site_label_1
_geom_bond_atom_site_label_2
_geom_bond_distance
_geom_bond_site_symmetry_2
Ce0 Fe8 2.967372 1_555
Ce0 Fe3 3.028136 1_465
Ce0 Fe2 3.028136 1_454
Ce0 Fe3 3.028136 1_565
Ce0 Fe2 3.028136 1_554
Ce0 Fe0 3.028868 1_555
Ce0 Fe0 3.028869 1_455
Ce0 Fe1 3.075220 1_464
Ce0 Fe1 3.075221 1_564
Ce0 Fe9 3.091232 1_565
Ce0 Fe10 3.091232 1_554
Ce0 Fe4 3.215357 1_555
Ce0 Fe6 3.215357 1_555
Ce0 Fe5 3.215358 1_555
Ce0 Fe7 3.215358 1_555
Ce0 Ti0 3.216198 1_464
Ce0 Fe6 3.287624 1_465
Ce0 Fe4 3.287624 1_454
Ce0 Fe7 3.287624 1_565
Ce0 Fe5 3.287624 1_554
Fe0 Fe5 2.456798 1_655
Fe0 Fe7 2.456798 1_655
Fe0 Fe6 2.456798 1_555
Fe0 Fe4 2.456798 1_555
Fe0 Fe8 2.557630 1_655
Fe0 Fe8 2.557631 1_555
Fe0 Fe9 2.598793 1_655
Fe0 Fe10 2.598793 1_655
Fe0 Fe2 2.770045 1_554
Fe0 Fe3 2.770045 1_565
Fe1 Fe7 2.465609 1_556
Fe1 Fe5 2.465609 1_545
Fe1 Fe4 2.465609 1_545
Fe1 Fe6 2.465609 1_556
Fe1 Fe10 2.614221 1_555
Fe1 Fe9 2.614221 1_555
Fe1 Ti0 2.634471 1_455
Fe1 Ti0 2.634471 1_555
Fe1 Fe2 2.729308 1_545
Fe1 Fe3 2.729308 1_556
Fe2 Fe5 2.433316 1_555
Fe2 Fe4 2.433317 1_555
Fe2 Fe7 2.449948 1_656
Fe2 Fe6 2.449949 1_556
Fe2 Ti0 2.639302 1_555
Fe2 Fe8 2.691867 1_555
Fe3 Fe7 2.433316 1_555
Fe3 Fe6 2.433317 1_555
Fe3 Fe5 2.449948 1_645
Fe3 Fe4 2.449949 1_545
Fe3 Fe9 2.611378 1_655
Fe3 Fe9 2.611383 1_555
Fe3 Ti0 2.639302 1_555
Fe3 Fe8 2.691867 1_555
Fe4 Fe5 2.332560 1_655
Fe4 Fe5 2.340626 1_555
Fe4 Fe9 2.597203 1_565
Fe4 Fe8 2.610496 1_555
Fe4 Ti0 2.664462 1_565
Fe5 Fe9 2.597201 1_565
Fe5 Fe8 2.610495 1_555
Fe5 Ti0 2.664462 1_465
Fe6 Fe7 2.332560 1_655
Fe6 Fe7 2.340626 1_555
Fe6 Fe9 2.608076 1_655
Fe6 Fe8 2.610496 1_555
Fe6 Ti0 2.664462 1_554
Fe7 Fe9 2.608078 1_555
Fe7 Fe8 2.610495 1_555
Fe7 Ti0 2.664462 1_454
Fe8 Ti0 2.340789 1_555
Fe8 Fe9 2.920832 1_655
Fe8 Fe9 2.920836 1_555
Fe9 Ti0 2.856296 1_455
Fe9 Ti0 2.856299 1_555
Fe10 Fe9 2.456843 1_555
Fe10 Fe7 2.597201 1_556
Fe10 Fe6 2.597203 1_556
Fe10 Fe4 2.608076 1_455
Fe10 Fe5 2.608078 1_555
Fe10 Fe2 2.611378 1_455
Fe10 Fe2 2.611383 1_555
Fe10 Ti0 2.856296 1_455
Fe10 Ti0 2.856299 1_555
Fe10 Fe8 2.920832 1_455
Fe10 Fe8 2.920836 1_555
