# generated using pymatgen
data_Ca2HoMn4BiO12
_symmetry_space_group_name_H-M   'P 1'
_cell_length_a   7.63653500
_cell_length_b   5.39354500
_cell_length_c   5.56305115
_cell_angle_alpha   89.66313740
_cell_angle_beta   90.00000000
_cell_angle_gamma   90.00000000
_symmetry_Int_Tables_number   1
_chemical_formula_structural   Ca2HoMn4BiO12
_chemical_formula_sum   'Ca2 Ho1 Mn4 Bi1 O12'
_cell_volume   229.12696365
_cell_formula_units_Z   1
loop_
 _symmetry_equiv_pos_site_id
 _symmetry_equiv_pos_as_xyz
  1  'x, y, z'
loop_
 _atom_site_type_symbol
 _atom_site_label
 _atom_site_symmetry_multiplicity
 _atom_site_fract_x
 _atom_site_fract_y
 _atom_site_fract_z
 _atom_site_occupancy
  Ca  Ca0  1  0.50000000  0.98794300  0.04622400  1
  Ca  Ca1  1  0.00000000  0.48970900  0.44894000  1
  Ho  Ho0  1  0.00000000  0.01609500  0.93780300  1
  Mn  Mn0  1  0.24668300  0.49974300  0.00286400  1
  Mn  Mn1  1  0.75292000  0.00099000  0.49561400  1
  Mn  Mn2  1  0.75331700  0.49974300  0.00286400  1
  Mn  Mn3  1  0.24708000  0.00099000  0.49561400  1
  Bi  Bi0  1  0.50000000  0.51292400  0.55491000  1
  O  O0  1  0.50000000  0.08943700  0.46984900  1
  O  O1  1  0.50000000  0.41710700  0.97787100  1
  O  O2  1  0.00000000  0.91489200  0.53469300  1
  O  O3  1  0.00000000  0.60240800  0.02451800  1
  O  O4  1  0.29171700  0.70117500  0.29660100  1
  O  O5  1  0.80363900  0.19803700  0.19932000  1
  O  O6  1  0.80069200  0.28774700  0.71346700  1
  O  O7  1  0.29036200  0.79705200  0.79472900  1
  O  O8  1  0.19930800  0.28774700  0.71346700  1
  O  O9  1  0.70963800  0.79705200  0.79472900  1
  O  O10  1  0.70828300  0.70117500  0.29660100  1
  O  O11  1  0.19636100  0.19803700  0.19932000  1
loop_
_geom_bond_atom_site_label_1
_geom_bond_atom_site_label_2
_geom_bond_distance
_geom_bond_site_symmetry_2
Ca0 O1 2.343533 1_564
Ca0 O7 2.365862 1_554
Ca0 O9 2.365862 1_554
Ca0 O0 2.422523 1_565
Ca0 O4 2.614743 1_555
Ca0 O10 2.614743 1_555
Ca0 O11 2.719805 1_565
Ca0 O5 2.719805 1_565
Ca1 O2 2.345081 1_555
Ca1 O8 2.376930 1_555
Ca1 O6 2.376930 1_455
Ca1 O3 2.434606 1_555
Ca1 O11 2.584062 1_555
Ca1 O5 2.584062 1_455
Ca1 O4 2.640147 1_555
Ca1 O10 2.640147 1_455
Ho0 O3 2.280018 1_546
Ho0 O2 2.311112 1_545
Ho0 O5 2.311894 1_456
Ho0 O11 2.311894 1_556
Ho0 O8 2.449337 1_555
Ho0 O6 2.449337 1_455
Ho0 O7 2.637611 1_545
Ho0 O9 2.637611 1_445
Mn0 O3 1.967391 1_555
Mn0 O1 1.990191 1_554
Mn0 O11 1.992278 1_555
Mn0 O4 1.997418 1_555
Mn0 O7 2.000363 1_554
Mn0 O8 2.012907 1_554
Mn1 O2 1.954959 1_645
Mn1 O5 1.993943 1_555
Mn1 O0 1.994428 1_555
Mn1 O10 1.994457 1_545
Mn1 O6 2.003992 1_555
Mn1 O9 2.016552 1_545
Mn2 O3 1.967391 1_655
Mn2 O1 1.990191 1_554
Mn2 O5 1.992278 1_555
Mn2 O10 1.997418 1_555
Mn2 O9 2.000363 1_554
Mn2 O6 2.012907 1_554
Mn3 O2 1.954959 1_545
Mn3 O11 1.993943 1_555
Mn3 O0 1.994428 1_555
Mn3 O4 1.994457 1_545
Mn3 O8 2.003992 1_555
Mn3 O7 2.016552 1_545
Bi0 O0 2.335320 1_555
Bi0 O10 2.368242 1_555
Bi0 O4 2.368242 1_555
Bi0 O1 2.406069 1_555
Bi0 O9 2.591382 1_555
Bi0 O7 2.591382 1_555
Bi0 O8 2.741020 1_555
Bi0 O6 2.741020 1_555
