# generated using pymatgen
data_Mg3Cr
_symmetry_space_group_name_H-M   'P 1'
_cell_length_a   6.19371710
_cell_length_b   9.94891364
_cell_length_c   10.70060182
_cell_angle_alpha   90.00000000
_cell_angle_beta   90.00000000
_cell_angle_gamma   90.00000000
_symmetry_Int_Tables_number   1
_chemical_formula_structural   Mg3Cr
_chemical_formula_sum   'Mg24 Cr8'
_cell_volume   659.37917957
_cell_formula_units_Z   8
loop_
 _symmetry_equiv_pos_site_id
 _symmetry_equiv_pos_as_xyz
  1  'x, y, z'
loop_
 _atom_site_type_symbol
 _atom_site_label
 _atom_site_symmetry_multiplicity
 _atom_site_fract_x
 _atom_site_fract_y
 _atom_site_fract_z
 _atom_site_occupancy
  Mg  Mg0_0  1  0.00000000  0.00000000  0.33134468  1
  Mg  Mg0_1  1  0.00000000  0.00000000  0.83134467  1
  Mg  Mg0_2  1  0.00000000  0.50000000  0.33134468  1
  Mg  Mg0_3  1  0.00000000  0.50000000  0.83134467  1
  Mg  Mg0_4  1  0.50000000  0.00000000  0.33134468  1
  Mg  Mg0_5  1  0.50000000  0.00000000  0.83134467  1
  Mg  Mg0_6  1  0.50000000  0.50000000  0.33134468  1
  Mg  Mg0_7  1  0.50000000  0.50000000  0.83134467  1
  Mg  Mg1_0  1  0.00000000  0.25000000  0.16471383  1
  Mg  Mg1_1  1  0.00000000  0.25000000  0.66471383  1
  Mg  Mg1_2  1  0.00000000  0.75000000  0.16471383  1
  Mg  Mg1_3  1  0.00000000  0.75000000  0.66471383  1
  Mg  Mg1_4  1  0.50000000  0.25000000  0.16471383  1
  Mg  Mg1_5  1  0.50000000  0.25000000  0.66471383  1
  Mg  Mg1_6  1  0.50000000  0.75000000  0.16471383  1
  Mg  Mg1_7  1  0.50000000  0.75000000  0.66471383  1
  Mg  Mg2_0  1  0.25000000  0.25000000  0.42039425  1
  Mg  Mg2_1  1  0.25000000  0.25000000  0.92039425  1
  Mg  Mg2_2  1  0.25000000  0.75000000  0.42039425  1
  Mg  Mg2_3  1  0.25000000  0.75000000  0.92039425  1
  Mg  Mg2_4  1  0.75000000  0.25000000  0.42039425  1
  Mg  Mg2_5  1  0.75000000  0.25000000  0.92039425  1
  Mg  Mg2_6  1  0.75000000  0.75000000  0.42039425  1
  Mg  Mg2_7  1  0.75000000  0.75000000  0.92039425  1
  Cr  Cr0_0  1  0.25000000  0.00000000  0.08354725  1
  Cr  Cr0_1  1  0.25000000  0.00000000  0.58354725  1
  Cr  Cr0_2  1  0.25000000  0.50000000  0.08354725  1
  Cr  Cr0_3  1  0.25000000  0.50000000  0.58354725  1
  Cr  Cr0_4  1  0.75000000  0.00000000  0.08354725  1
  Cr  Cr0_5  1  0.75000000  0.00000000  0.58354725  1
  Cr  Cr0_6  1  0.75000000  0.50000000  0.08354725  1
  Cr  Cr0_7  1  0.75000000  0.50000000  0.58354725  1
loop_
_geom_bond_atom_site_label_1
_geom_bond_atom_site_label_2
_geom_bond_distance
_geom_bond_site_symmetry_2
Mg0_0 Mg1_0 3.060322 1_555
Mg0_0 Mg1_2 3.060322 1_545
Mg0_0 Mg2_6 3.080897 1_445
Mg0_0 Mg2_0 3.080897 1_555
Mg0_0 Mg2_4 3.080897 1_455
Mg0_0 Mg2_2 3.080897 1_545
Mg0_0 Mg0_4 3.096859 1_455
Mg0_0 Mg0_4 3.096859 1_555
Mg0_1 Mg1_3 3.060322 1_545
Mg0_1 Mg1_1 3.060322 1_555
Mg0_1 Mg2_3 3.080897 1_545
Mg0_1 Mg2_1 3.080897 1_555
Mg0_1 Mg2_7 3.080897 1_445
Mg0_1 Mg2_5 3.080897 1_455
Mg0_1 Mg0_5 3.096859 1_455
Mg0_1 Mg0_5 3.096859 1_555
Mg0_2 Mg1_0 3.060322 1_555
Mg0_2 Mg1_2 3.060322 1_555
Mg0_2 Mg2_6 3.080897 1_455
Mg0_2 Mg2_0 3.080897 1_555
Mg0_2 Mg2_2 3.080897 1_555
Mg0_2 Mg2_4 3.080897 1_455
Mg0_2 Mg0_6 3.096859 1_455
Mg0_2 Mg0_6 3.096859 1_555
Mg0_3 Mg1_3 3.060322 1_555
Mg0_3 Mg1_1 3.060322 1_555
Mg0_3 Mg2_7 3.080897 1_455
Mg0_3 Mg2_3 3.080897 1_555
Mg0_3 Mg2_1 3.080897 1_555
Mg0_3 Mg2_5 3.080897 1_455
Mg0_3 Mg0_7 3.096859 1_555
Mg0_3 Mg0_7 3.096859 1_455
Mg0_4 Mg1_6 3.060322 1_545
Mg0_4 Mg1_4 3.060322 1_555
Mg0_4 Mg2_0 3.080897 1_555
Mg0_4 Mg2_4 3.080897 1_555
Mg0_4 Mg2_6 3.080897 1_545
Mg0_4 Mg2_2 3.080897 1_545
Mg0_5 Mg1_5 3.060322 1_555
Mg0_5 Mg1_7 3.060322 1_545
Mg0_5 Mg2_5 3.080897 1_555
Mg0_5 Mg2_7 3.080897 1_545
Mg0_5 Mg2_3 3.080897 1_545
Mg0_5 Mg2_1 3.080897 1_555
Mg0_6 Mg1_6 3.060322 1_555
Mg0_6 Mg1_4 3.060322 1_555
Mg0_6 Mg2_6 3.080897 1_555
Mg0_6 Mg2_0 3.080897 1_555
Mg0_6 Mg2_4 3.080897 1_555
Mg0_6 Mg2_2 3.080897 1_555
Mg0_7 Mg1_5 3.060322 1_555
Mg0_7 Mg1_7 3.060322 1_555
Mg0_7 Mg2_5 3.080897 1_555
Mg0_7 Mg2_3 3.080897 1_555
Mg0_7 Mg2_7 3.080897 1_555
Mg0_7 Mg2_1 3.080897 1_555
Mg1_0 Mg2_1 3.038510 1_554
Mg1_0 Mg2_5 3.038510 1_454
Mg1_0 Mg1_4 3.096859 1_555
Mg1_0 Mg1_4 3.096859 1_455
Mg1_0 Mg2_0 3.143719 1_555
Mg1_0 Mg2_4 3.143719 1_455
Mg1_1 Mg2_0 3.038510 1_555
Mg1_1 Mg2_4 3.038510 1_455
Mg1_1 Mg1_5 3.096859 1_455
Mg1_1 Mg1_5 3.096859 1_555
Mg1_1 Mg2_5 3.143719 1_455
Mg1_1 Mg2_1 3.143719 1_555
Mg1_2 Mg2_3 3.038510 1_554
Mg1_2 Mg2_7 3.038510 1_454
Mg1_2 Mg1_6 3.096859 1_555
Mg1_2 Mg1_6 3.096859 1_455
Mg1_2 Mg2_2 3.143719 1_555
Mg1_2 Mg2_6 3.143719 1_455
Mg1_3 Mg2_2 3.038510 1_555
Mg1_3 Mg2_6 3.038510 1_455
Mg1_3 Mg1_7 3.096859 1_455
Mg1_3 Mg1_7 3.096859 1_555
Mg1_3 Mg2_7 3.143719 1_455
Mg1_3 Mg2_3 3.143719 1_555
Mg1_4 Mg2_1 3.038510 1_554
Mg1_4 Mg2_5 3.038510 1_554
Mg1_4 Mg2_0 3.143719 1_555
Mg1_4 Mg2_4 3.143719 1_555
Mg1_5 Mg2_0 3.038510 1_555
Mg1_5 Mg2_4 3.038510 1_555
Mg1_5 Mg2_1 3.143719 1_555
Mg1_5 Mg2_5 3.143719 1_555
Mg1_6 Mg2_3 3.038510 1_554
Mg1_6 Mg2_7 3.038510 1_554
Mg1_6 Mg2_6 3.143719 1_555
Mg1_6 Mg2_2 3.143719 1_555
Mg1_7 Mg2_2 3.038510 1_555
Mg1_7 Mg2_6 3.038510 1_555
Mg1_7 Mg2_7 3.143719 1_555
Mg1_7 Mg2_3 3.143719 1_555
Mg2_0 Mg2_4 3.096859 1_555
Mg2_0 Mg2_4 3.096859 1_455
Mg2_1 Mg2_5 3.096859 1_555
Mg2_1 Mg2_5 3.096859 1_455
Mg2_2 Mg2_6 3.096859 1_555
Mg2_2 Mg2_6 3.096859 1_455
Mg2_3 Mg2_7 3.096859 1_555
Mg2_3 Mg2_7 3.096859 1_455
Cr0_0 Mg2_1 3.038790 1_554
Cr0_0 Mg2_3 3.038790 1_544
Cr0_0 Mg1_2 3.055861 1_545
Cr0_0 Mg1_0 3.055861 1_555
Cr0_0 Mg1_4 3.055861 1_555
Cr0_0 Mg1_6 3.055861 1_545
Cr0_0 Mg0_0 3.070589 1_555
Cr0_0 Mg0_4 3.070589 1_555
Cr0_0 Cr0_4 3.096859 1_455
Cr0_0 Cr0_4 3.096859 1_555
Cr0_0 Mg0_1 3.111385 1_554
Cr0_0 Mg0_5 3.111385 1_554
Cr0_1 Mg2_2 3.038790 1_545
Cr0_1 Mg2_0 3.038790 1_555
Cr0_1 Mg1_3 3.055861 1_545
Cr0_1 Mg1_1 3.055861 1_555
Cr0_1 Mg1_7 3.055861 1_545
Cr0_1 Mg1_5 3.055861 1_555
Cr0_1 Mg0_5 3.070589 1_555
Cr0_1 Mg0_1 3.070589 1_555
Cr0_1 Cr0_5 3.096859 1_455
Cr0_1 Cr0_5 3.096859 1_555
Cr0_1 Mg0_0 3.111385 1_555
Cr0_1 Mg0_4 3.111385 1_555
Cr0_2 Mg2_3 3.038790 1_554
Cr0_2 Mg2_1 3.038790 1_554
Cr0_2 Mg1_6 3.055861 1_555
Cr0_2 Mg1_2 3.055861 1_555
Cr0_2 Mg1_0 3.055861 1_555
Cr0_2 Mg1_4 3.055861 1_555
Cr0_2 Mg0_2 3.070589 1_555
Cr0_2 Mg0_6 3.070589 1_555
Cr0_2 Cr0_6 3.096859 1_555
Cr0_2 Cr0_6 3.096859 1_455
Cr0_2 Mg0_3 3.111385 1_554
Cr0_2 Mg0_7 3.111385 1_554
Cr0_3 Mg2_2 3.038790 1_555
Cr0_3 Mg2_0 3.038790 1_555
Cr0_3 Mg1_3 3.055861 1_555
Cr0_3 Mg1_7 3.055861 1_555
Cr0_3 Mg1_1 3.055861 1_555
Cr0_3 Mg1_5 3.055861 1_555
Cr0_3 Mg0_3 3.070589 1_555
Cr0_3 Mg0_7 3.070589 1_555
Cr0_3 Cr0_7 3.096859 1_455
Cr0_3 Cr0_7 3.096859 1_555
Cr0_3 Mg0_2 3.111385 1_555
Cr0_3 Mg0_6 3.111385 1_555
Cr0_4 Mg2_5 3.038790 1_554
Cr0_4 Mg2_7 3.038790 1_544
Cr0_4 Mg1_0 3.055861 1_655
Cr0_4 Mg1_2 3.055861 1_645
Cr0_4 Mg1_4 3.055861 1_555
Cr0_4 Mg1_6 3.055861 1_545
Cr0_4 Mg0_0 3.070589 1_655
Cr0_4 Mg0_4 3.070589 1_555
Cr0_4 Mg0_5 3.111385 1_554
Cr0_4 Mg0_1 3.111385 1_654
Cr0_5 Mg2_6 3.038790 1_545
Cr0_5 Mg2_4 3.038790 1_555
Cr0_5 Mg1_3 3.055861 1_645
Cr0_5 Mg1_7 3.055861 1_545
Cr0_5 Mg1_5 3.055861 1_555
Cr0_5 Mg1_1 3.055861 1_655
Cr0_5 Mg0_1 3.070589 1_655
Cr0_5 Mg0_5 3.070589 1_555
Cr0_5 Mg0_4 3.111385 1_555
Cr0_5 Mg0_0 3.111385 1_655
Cr0_6 Mg2_7 3.038790 1_554
Cr0_6 Mg2_5 3.038790 1_554
Cr0_6 Mg1_0 3.055861 1_655
Cr0_6 Mg1_2 3.055861 1_655
Cr0_6 Mg1_6 3.055861 1_555
Cr0_6 Mg1_4 3.055861 1_555
Cr0_6 Mg0_6 3.070589 1_555
Cr0_6 Mg0_2 3.070589 1_655
Cr0_6 Mg0_3 3.111385 1_654
Cr0_6 Mg0_7 3.111385 1_554
Cr0_7 Mg2_4 3.038790 1_555
Cr0_7 Mg2_6 3.038790 1_555
Cr0_7 Mg1_7 3.055861 1_555
Cr0_7 Mg1_3 3.055861 1_655
Cr0_7 Mg1_5 3.055861 1_555
Cr0_7 Mg1_1 3.055861 1_655
Cr0_7 Mg0_7 3.070589 1_555
Cr0_7 Mg0_3 3.070589 1_655
Cr0_7 Mg0_6 3.111385 1_555
Cr0_7 Mg0_2 3.111385 1_655
