# generated using pymatgen
data_SnS6N2O21
_symmetry_space_group_name_H-M   'P 1'
_cell_length_a   10.25981215
_cell_length_b   10.25981215
_cell_length_c   11.58675000
_cell_angle_alpha   90.00000000
_cell_angle_beta   90.00000000
_cell_angle_gamma   120.00000095
_symmetry_Int_Tables_number   1
_chemical_formula_structural   SnS6N2O21
_chemical_formula_sum   'Sn2 S12 N4 O42'
_cell_volume   1056.26060489
_cell_formula_units_Z   2
loop_
 _symmetry_equiv_pos_site_id
 _symmetry_equiv_pos_as_xyz
  1  'x, y, z'
loop_
 _atom_site_type_symbol
 _atom_site_label
 _atom_site_symmetry_multiplicity
 _atom_site_fract_x
 _atom_site_fract_y
 _atom_site_fract_z
 _atom_site_occupancy
  Sn  Sn0  1  0.00000000  0.00000000  0.24013600  1
  Sn  Sn1  1  0.00000000  0.00000000  0.75986400  1
  S  S0  1  0.73793300  0.07657600  0.33807500  1
  S  S1  1  0.92342400  0.66135700  0.33807500  1
  S  S2  1  0.33864300  0.26206700  0.33807500  1
  S  S3  1  0.26206700  0.92342400  0.66192500  1
  S  S4  1  0.07657600  0.33864300  0.66192500  1
  S  S5  1  0.66135700  0.73793300  0.66192500  1
  S  S6  1  0.65094900  0.85900400  0.14948100  1
  S  S7  1  0.14099600  0.79194500  0.14948100  1
  S  S8  1  0.20805500  0.34905100  0.14948100  1
  S  S9  1  0.34905100  0.14099600  0.85051900  1
  S  S10  1  0.85900400  0.20805500  0.85051900  1
  S  S11  1  0.79194500  0.65094900  0.85051900  1
  N  N0  1  0.33333300  0.66666700  0.87496000  1
  N  N1  1  0.66666700  0.33333300  0.12504000  1
  N  N2  1  0.33333300  0.66666700  0.43839400  1
  N  N3  1  0.66666700  0.33333300  0.56160600  1
  O  O0  1  0.67998000  0.02249400  0.20611300  1
  O  O1  1  0.97750600  0.65748600  0.20611300  1
  O  O2  1  0.34251400  0.32002000  0.20611300  1
  O  O3  1  0.32002000  0.97750600  0.79388700  1
  O  O4  1  0.02249400  0.34251400  0.79388700  1
  O  O5  1  0.65748600  0.67998000  0.79388700  1
  O  O6  1  0.87662300  0.05924100  0.34986000  1
  O  O7  1  0.94075900  0.81738300  0.34986000  1
  O  O8  1  0.18261700  0.12337700  0.34986000  1
  O  O9  1  0.12337700  0.94075900  0.65014000  1
  O  O10  1  0.05924100  0.18261700  0.65014000  1
  O  O11  1  0.81738300  0.87662300  0.65014000  1
  O  O12  1  0.77803100  0.23250400  0.33654900  1
  O  O13  1  0.76749600  0.54552700  0.33654900  1
  O  O14  1  0.45447300  0.22196900  0.33654900  1
  O  O15  1  0.22196900  0.76749600  0.66345100  1
  O  O16  1  0.23250400  0.45447300  0.66345100  1
  O  O17  1  0.54552700  0.77803100  0.66345100  1
  O  O18  1  0.56860900  0.74180000  0.23171400  1
  O  O19  1  0.25820000  0.82681000  0.23171400  1
  O  O20  1  0.17319000  0.43139100  0.23171400  1
  O  O21  1  0.43139100  0.25820000  0.76828600  1
  O  O22  1  0.74180000  0.17319000  0.76828600  1
  O  O23  1  0.82681000  0.56860900  0.76828600  1
  O  O24  1  0.59066900  0.85868200  0.03843400  1
  O  O25  1  0.14131800  0.73198700  0.03843400  1
  O  O26  1  0.26801300  0.40933100  0.03843400  1
  O  O27  1  0.40933100  0.14131800  0.96156600  1
  O  O28  1  0.85868200  0.26801300  0.96156600  1
  O  O29  1  0.73198700  0.59066900  0.96156600  1
  O  O30  1  0.81288100  0.89052800  0.13496300  1
  O  O31  1  0.10947200  0.92235300  0.13496300  1
  O  O32  1  0.07764700  0.18711900  0.13496300  1
  O  O33  1  0.18711900  0.10947200  0.86503700  1
  O  O34  1  0.89052800  0.07764700  0.86503700  1
  O  O35  1  0.92235300  0.81288100  0.86503700  1
  O  O36  1  0.62521200  0.97984100  0.42002100  1
  O  O37  1  0.02015900  0.64537200  0.42002100  1
  O  O38  1  0.35462800  0.37478800  0.42002100  1
  O  O39  1  0.37478800  0.02015900  0.57997900  1
  O  O40  1  0.97984100  0.35462800  0.57997900  1
  O  O41  1  0.64537200  0.62521200  0.57997900  1
loop_
_geom_bond_atom_site_label_1
_geom_bond_atom_site_label_2
_geom_bond_distance
_geom_bond_site_symmetry_2
O0 S0 1.633821 1_555
O0 S6 1.683232 1_545
O1 S1 1.633821 1_555
O1 S7 1.683232 1_655
O2 S2 1.633821 1_555
O2 S8 1.683232 1_555
O3 S3 1.633821 1_555
O3 S9 1.683232 1_565
O4 S4 1.633821 1_555
O4 S10 1.683232 1_455
O5 S5 1.633821 1_555
O5 S11 1.683232 1_555
O6 S0 1.525808 1_555
O6 Sn0 2.087444 1_655
O7 S1 1.525819 1_555
O7 Sn0 2.087436 1_665
O8 S2 1.525814 1_555
O8 Sn0 2.087438 1_555
O9 S3 1.525808 1_555
O9 Sn1 2.087444 1_565
O10 S4 1.525819 1_555
O10 Sn1 2.087436 1_555
O11 S5 1.525814 1_555
O11 Sn1 2.087438 1_665
O12 S0 1.439008 1_555
O13 S1 1.439008 1_555
O14 S2 1.439008 1_555
O15 S3 1.439008 1_555
O16 S4 1.439008 1_555
O17 S5 1.439008 1_555
O18 S6 1.432361 1_555
O19 S7 1.432359 1_555
O20 S8 1.432366 1_555
O21 S9 1.432361 1_555
O22 S10 1.432359 1_555
O23 S11 1.432366 1_555
O24 S6 1.426882 1_555
O25 S7 1.426882 1_555
O26 S8 1.426882 1_555
O27 S9 1.426882 1_555
O28 S10 1.426882 1_555
O29 S11 1.426882 1_555
O30 S6 1.534856 1_555
O30 Sn0 2.067828 1_665
O31 S7 1.534856 1_555
O31 Sn0 2.067828 1_565
O32 S8 1.534856 1_555
O32 Sn0 2.067828 1_555
O33 S9 1.534856 1_555
O33 Sn1 2.067828 1_555
O34 S10 1.534856 1_555
O34 Sn1 2.067828 1_655
O35 S11 1.534856 1_555
O35 Sn1 2.067828 1_665
O36 S0 1.440913 1_565
O37 S1 1.440908 1_455
O38 S2 1.440916 1_555
O39 S3 1.440913 1_545
O40 S4 1.440908 1_655
O41 S5 1.440916 1_555
