# generated using pymatgen
data_Cu9Se8
_symmetry_space_group_name_H-M   'P 1'
_cell_length_a   3.86976000
_cell_length_b   3.90685158
_cell_length_c   26.26943583
_cell_angle_alpha   94.14762286
_cell_angle_beta   89.78446284
_cell_angle_gamma   119.65777536
_symmetry_Int_Tables_number   1
_chemical_formula_structural   Cu9Se8
_chemical_formula_sum   'Cu9 Se8'
_cell_volume   343.98861546
_cell_formula_units_Z   1
loop_
 _symmetry_equiv_pos_site_id
 _symmetry_equiv_pos_as_xyz
  1  'x, y, z'
loop_
 _atom_site_type_symbol
 _atom_site_label
 _atom_site_symmetry_multiplicity
 _atom_site_fract_x
 _atom_site_fract_y
 _atom_site_fract_z
 _atom_site_occupancy
  Cu  Cu0  1  0.27229500  0.64064200  0.03199300  1
  Cu  Cu1  1  0.72528600  0.28164300  0.15319500  1
  Cu  Cu2  1  0.37012300  0.63029900  0.21854300  1
  Cu  Cu3  1  0.75122800  0.25254800  0.34333900  1
  Cu  Cu4  1  0.12513200  0.87839300  0.46545300  1
  Cu  Cu5  1  0.49991200  0.50389100  0.59011100  1
  Cu  Cu6  1  0.87423800  0.12893600  0.71475300  1
  Cu  Cu7  1  0.24828600  0.75221000  0.83828200  1
  Cu  Cu8  1  0.59679700  0.36191800  0.95788600  1
  Se  Se0  1  0.93839800  0.00212000  0.99569500  1
  Se  Se1  1  0.38286300  0.63317200  0.12195600  1
  Se  Se2  1  0.71251200  0.27852000  0.25045500  1
  Se  Se3  1  0.46646900  0.52874300  0.49819500  1
  Se  Se4  1  0.09161600  0.90329600  0.37362400  1
  Se  Se5  1  0.84122200  0.15440900  0.62271300  1
  Se  Se6  1  0.21534300  0.77957300  0.74647000  1
  Se  Se7  1  0.58790500  0.40206100  0.86821000  1
loop_
_geom_bond_atom_site_label_1
_geom_bond_atom_site_label_2
_geom_bond_distance
_geom_bond_site_symmetry_2
Cu0 Se0 2.297199 1_454
Cu0 Se1 2.408100 1_555
Cu0 Se0 2.474210 1_564
Cu0 Se0 2.565750 1_464
Cu1 Se1 2.287567 1_545
Cu1 Se1 2.392419 1_655
Cu1 Se1 2.507520 1_555
Cu1 Se2 2.556052 1_555
Cu2 Se2 2.291816 1_565
Cu2 Se2 2.399376 1_455
Cu2 Se2 2.514802 1_555
Cu2 Se1 2.538308 1_555
Cu3 Se4 2.287535 1_655
Cu3 Se4 2.388545 1_545
Cu3 Se2 2.457641 1_555
Cu3 Se4 2.484631 1_645
Cu4 Se3 2.304642 1_565
Cu4 Se3 2.410452 1_455
Cu4 Se4 2.427808 1_555
Cu4 Se3 2.512922 1_555
Cu5 Se5 2.304075 1_565
Cu5 Se5 2.409042 1_455
Cu5 Se3 2.430037 1_555
Cu5 Se5 2.510887 1_555
Cu6 Se6 2.297693 1_655
Cu6 Se6 2.400598 1_545
Cu6 Se5 2.433493 1_555
Cu6 Se6 2.501069 1_645
Cu7 Se7 2.282132 1_565
Cu7 Se7 2.387660 1_455
Cu7 Se6 2.428537 1_555
Cu7 Se7 2.481790 1_555
Cu8 Se0 2.316953 1_565
Cu8 Se7 2.373747 1_555
Cu8 Se0 2.468303 1_455
Cu8 Se0 2.600122 1_555
