# generated using pymatgen
data_Tm(CuTe)3
_symmetry_space_group_name_H-M   'P 1'
_cell_length_a   8.19923546
_cell_length_b   8.19923546
_cell_length_c   8.19923455
_cell_angle_alpha   53.96348403
_cell_angle_beta   53.96348403
_cell_angle_gamma   53.96348705
_symmetry_Int_Tables_number   1
_chemical_formula_structural   Tm(CuTe)3
_chemical_formula_sum   'Tm2 Cu6 Te6'
_cell_volume   334.80318946
_cell_formula_units_Z   2
loop_
 _symmetry_equiv_pos_site_id
 _symmetry_equiv_pos_as_xyz
  1  'x, y, z'
loop_
 _atom_site_type_symbol
 _atom_site_label
 _atom_site_symmetry_multiplicity
 _atom_site_fract_x
 _atom_site_fract_y
 _atom_site_fract_z
 _atom_site_occupancy
  Tm  Tm0  1  0.66603600  0.66603600  0.66603600  1
  Tm  Tm1  1  0.33396400  0.33396400  0.33396400  1
  Cu  Cu0  1  0.87151200  0.52884500  0.22439200  1
  Cu  Cu1  1  0.52884500  0.22439200  0.87151200  1
  Cu  Cu2  1  0.22439200  0.87151200  0.52884500  1
  Cu  Cu3  1  0.77560800  0.12848800  0.47115500  1
  Cu  Cu4  1  0.47115500  0.77560800  0.12848800  1
  Cu  Cu5  1  0.12848800  0.47115500  0.77560800  1
  Te  Te0  1  0.07943200  0.75925500  0.40546900  1
  Te  Te1  1  0.40546900  0.07943200  0.75925500  1
  Te  Te2  1  0.75925500  0.40546900  0.07943200  1
  Te  Te3  1  0.24074500  0.59453100  0.92056800  1
  Te  Te4  1  0.59453100  0.92056800  0.24074500  1
  Te  Te5  1  0.92056800  0.24074500  0.59453100  1
loop_
_geom_bond_atom_site_label_1
_geom_bond_atom_site_label_2
_geom_bond_distance
_geom_bond_site_symmetry_2
Cu0 Te5 2.614475 1_555
Cu0 Te4 2.656597 1_555
Cu0 Te2 2.660926 1_555
Cu0 Te3 2.669711 1_654
Cu1 Te3 2.614475 1_555
Cu1 Te5 2.656596 1_555
Cu1 Te1 2.660926 1_555
Cu1 Te4 2.669711 1_546
Cu2 Te4 2.614475 1_555
Cu2 Te3 2.656596 1_555
Cu2 Te0 2.660926 1_555
Cu2 Te5 2.669712 1_465
Cu3 Te1 2.614475 1_555
Cu3 Te2 2.656596 1_555
Cu3 Te5 2.660926 1_555
Cu3 Te0 2.669712 1_645
Cu4 Te2 2.614475 1_555
Cu4 Te0 2.656596 1_555
Cu4 Te4 2.660926 1_555
Cu4 Te1 2.669711 1_564
Cu5 Te0 2.614475 1_555
Cu5 Te1 2.656597 1_555
Cu5 Te3 2.660926 1_555
Cu5 Te2 2.669711 1_456
Te0 Tm0 3.040395 1_455
Te0 Tm1 3.043353 1_555
Te1 Tm0 3.040395 1_545
Te1 Tm1 3.043353 1_555
Te2 Tm0 3.040394 1_554
Te2 Tm1 3.043353 1_555
Te3 Tm1 3.040394 1_556
Te3 Tm0 3.043353 1_555
Te4 Tm1 3.040395 1_565
Te4 Tm0 3.043353 1_555
Te5 Tm1 3.040395 1_655
Te5 Tm0 3.043353 1_555
