# generated using pymatgen
data_CoGe7N10
_symmetry_space_group_name_H-M   'P 1'
_cell_length_a   6.84741276
_cell_length_b   7.44678300
_cell_length_c   10.28667839
_cell_angle_alpha   90.00000000
_cell_angle_beta   103.57647107
_cell_angle_gamma   90.00000000
_symmetry_Int_Tables_number   1
_chemical_formula_structural   CoGe7N10
_chemical_formula_sum   'Co2 Ge14 N20'
_cell_volume   509.87335301
_cell_formula_units_Z   2
loop_
 _symmetry_equiv_pos_site_id
 _symmetry_equiv_pos_as_xyz
  1  'x, y, z'
loop_
 _atom_site_type_symbol
 _atom_site_label
 _atom_site_symmetry_multiplicity
 _atom_site_fract_x
 _atom_site_fract_y
 _atom_site_fract_z
 _atom_site_occupancy
  Co  Co0  1  0.99975000  0.87520100  0.70671500  1
  Co  Co1  1  0.99975000  0.12479900  0.20671500  1
  Ge  Ge0  1  0.54251900  0.98105000  0.81468300  1
  Ge  Ge1  1  0.54251900  0.01895000  0.31468300  1
  Ge  Ge2  1  0.32941000  0.01667500  0.01717000  1
  Ge  Ge3  1  0.32941000  0.98332500  0.51717000  1
  Ge  Ge4  1  0.11598700  0.39600500  0.07365700  1
  Ge  Ge5  1  0.11598700  0.60399500  0.57365700  1
  Ge  Ge6  1  0.65510000  0.35005200  0.98873800  1
  Ge  Ge7  1  0.65510000  0.64994800  0.48873800  1
  Ge  Ge8  1  0.84140700  0.62004800  0.81829300  1
  Ge  Ge9  1  0.84140700  0.37995200  0.31829300  1
  Ge  Ge10  1  0.30326000  0.62599700  0.87928800  1
  Ge  Ge11  1  0.30326000  0.37400300  0.37928800  1
  Ge  Ge12  1  0.49322500  0.36252200  0.68246900  1
  Ge  Ge13  1  0.49322500  0.63747800  0.18246900  1
  N  N0  1  0.77546100  0.85824100  0.81597300  1
  N  N1  1  0.77546100  0.14175900  0.31597300  1
  N  N2  1  0.53273400  0.13429300  0.95823300  1
  N  N3  1  0.53273400  0.86570700  0.45823300  1
  N  N4  1  0.28981900  0.87587400  0.85305700  1
  N  N5  1  0.28981900  0.12412600  0.35305700  1
  N  N6  1  0.13035600  0.14974800  0.05776000  1
  N  N7  1  0.13035600  0.85025200  0.55776000  1
  N  N8  1  0.29788700  0.51211100  0.72038700  1
  N  N9  1  0.29788700  0.48788900  0.22038700  1
  N  N10  1  0.44595500  0.12200400  0.66444100  1
  N  N11  1  0.44595500  0.87799600  0.16444100  1
  N  N12  1  0.87948700  0.35688100  0.13583500  1
  N  N13  1  0.87948700  0.64311900  0.63583500  1
  N  N14  1  0.08024500  0.57173700  0.94283800  1
  N  N15  1  0.08024500  0.42826300  0.44283800  1
  N  N16  1  0.71321400  0.40178200  0.82347300  1
  N  N17  1  0.71321400  0.59821800  0.32347300  1
  N  N18  1  0.51648500  0.55441100  0.01628800  1
  N  N19  1  0.51648500  0.44558900  0.51628800  1
loop_
_geom_bond_atom_site_label_1
_geom_bond_atom_site_label_2
_geom_bond_distance
_geom_bond_site_symmetry_2
Co0 N7 1.955877 1_655
Co0 N13 1.978575 1_555
Co0 N0 2.109066 1_555
Co0 N4 2.192598 1_655
Co1 N6 1.955877 1_655
Co1 N12 1.978575 1_555
Co1 N1 2.109066 1_555
Co1 N5 2.192598 1_655
Ge0 N0 1.835972 1_555
Ge0 N10 1.856812 1_565
Ge0 N2 1.879815 1_565
Ge0 N4 2.020895 1_555
Ge1 N1 1.835972 1_555
Ge1 N11 1.856812 1_545
Ge1 N3 1.879815 1_545
Ge1 N5 2.020895 1_555
Ge2 N6 1.811441 1_555
Ge2 N11 1.852234 1_545
Ge2 N2 1.862616 1_554
Ge2 N4 1.951398 1_544
Ge3 N7 1.811441 1_555
Ge3 N10 1.852234 1_565
Ge3 N3 1.862616 1_555
Ge3 N5 1.951398 1_565
Ge4 N6 1.845774 1_555
Ge4 N9 1.848005 1_555
Ge4 N14 1.851674 1_554
Ge4 N12 1.898095 1_455
Ge5 N7 1.845774 1_555
Ge5 N8 1.848005 1_555
Ge5 N15 1.851674 1_555
Ge5 N13 1.898095 1_455
Ge6 N2 1.805161 1_555
Ge6 N18 1.850249 1_556
Ge6 N16 1.874685 1_555
Ge6 N12 1.887171 1_556
Ge7 N3 1.805161 1_555
Ge7 N19 1.850249 1_555
Ge7 N17 1.874685 1_555
Ge7 N13 1.887171 1_555
Ge8 N0 1.829120 1_555
Ge8 N16 1.853961 1_555
Ge8 N14 1.860567 1_655
Ge8 N13 1.962136 1_555
Ge9 N1 1.829120 1_555
Ge9 N17 1.853961 1_555
Ge9 N15 1.860567 1_655
Ge9 N12 1.962136 1_555
Ge10 N8 1.834166 1_555
Ge10 N14 1.841535 1_555
Ge10 N18 1.853629 1_556
Ge10 N4 1.879394 1_555
Ge11 N9 1.834166 1_555
Ge11 N15 1.841535 1_555
Ge11 N19 1.853629 1_555
Ge11 N5 1.879394 1_555
Ge12 N10 1.821802 1_555
Ge12 N8 1.851228 1_555
Ge12 N16 1.852738 1_555
Ge12 N19 1.859585 1_555
Ge13 N11 1.821802 1_555
Ge13 N9 1.851228 1_555
Ge13 N17 1.852738 1_555
Ge13 N18 1.859585 1_555
