# generated using pymatgen
data_YCo4B
_symmetry_space_group_name_H-M   'P 1'
_cell_length_a   5.01905017
_cell_length_b   5.01905017
_cell_length_c   6.82378100
_cell_angle_alpha   90.00000000
_cell_angle_beta   90.00000000
_cell_angle_gamma   120.00000225
_symmetry_Int_Tables_number   1
_chemical_formula_structural   YCo4B
_chemical_formula_sum   'Y2 Co8 B2'
_cell_volume   148.86711639
_cell_formula_units_Z   2
loop_
 _symmetry_equiv_pos_site_id
 _symmetry_equiv_pos_as_xyz
  1  'x, y, z'
loop_
 _atom_site_type_symbol
 _atom_site_label
 _atom_site_symmetry_multiplicity
 _atom_site_fract_x
 _atom_site_fract_y
 _atom_site_fract_z
 _atom_site_occupancy
  Y  Y0  1  0.00000000  0.00000000  0.50000000  1
  Y  Y1  1  0.00000000  0.00000000  0.00000000  1
  Co  Co0  1  0.33333300  0.66666700  0.00000000  1
  Co  Co1  1  0.66666700  0.33333300  0.00000000  1
  Co  Co2  1  0.50000000  0.00000000  0.28825600  1
  Co  Co3  1  0.50000000  0.50000000  0.28825600  1
  Co  Co4  1  0.00000000  0.50000000  0.28825600  1
  Co  Co5  1  0.50000000  0.00000000  0.71174400  1
  Co  Co6  1  0.50000000  0.50000000  0.71174400  1
  Co  Co7  1  0.00000000  0.50000000  0.71174400  1
  B  B0  1  0.66666700  0.33333300  0.50000000  1
  B  B1  1  0.33333300  0.66666700  0.50000000  1
loop_
_geom_bond_atom_site_label_1
_geom_bond_atom_site_label_2
_geom_bond_distance
_geom_bond_site_symmetry_2
Co0 Co4 2.443012 1_555
Co0 Co2 2.443012 1_565
Co0 Co5 2.443012 1_564
Co0 Co7 2.443012 1_554
Co0 Co6 2.443014 1_554
Co0 Co3 2.443014 1_555
Co0 Y1 2.897747 1_565
Co0 Y1 2.897751 1_555
Co0 Y1 2.897751 1_665
Co1 Co5 2.443012 1_554
Co1 Co4 2.443012 1_655
Co1 Co2 2.443012 1_555
Co1 Co7 2.443012 1_654
Co1 Co6 2.443014 1_554
Co1 Co3 2.443014 1_555
Co1 Y1 2.897747 1_655
Co1 Y1 2.897751 1_555
Co1 Y1 2.897751 1_665
Co2 Y0 2.895762 1_655
Co2 Y0 2.895762 1_555
Co2 Y1 3.188540 1_555
Co2 Y1 3.188540 1_655
Co3 Y0 2.895762 1_555
Co3 Y0 2.895762 1_665
Co3 Y1 3.188540 1_665
Co3 Y1 3.188540 1_555
Co4 Y0 2.895762 1_565
Co4 Y0 2.895762 1_555
Co4 Y1 3.188540 1_555
Co4 Y1 3.188540 1_565
Co5 Y0 2.895762 1_655
Co5 Y0 2.895762 1_555
Co5 Y1 3.188540 1_656
Co5 Y1 3.188540 1_556
Co6 Y0 2.895762 1_555
Co6 Y0 2.895762 1_665
Co6 Y1 3.188540 1_666
Co6 Y1 3.188540 1_556
Co7 Y0 2.895762 1_565
Co7 Y0 2.895762 1_555
Co7 Y1 3.188540 1_556
Co7 Y1 3.188540 1_566
B0 Co5 2.046205 1_555
B0 Co2 2.046205 1_555
B0 Co7 2.046205 1_655
B0 Co4 2.046205 1_655
B0 Co3 2.046208 1_555
B0 Co6 2.046208 1_555
B0 Y0 2.897747 1_655
B0 Y0 2.897751 1_665
B0 Y0 2.897751 1_555
B1 Co2 2.046205 1_565
B1 Co5 2.046205 1_565
B1 Co7 2.046205 1_555
B1 Co4 2.046205 1_555
B1 Co3 2.046208 1_555
B1 Co6 2.046208 1_555
B1 Y0 2.897747 1_565
B1 Y0 2.897751 1_665
B1 Y0 2.897751 1_555
