# generated using pymatgen
data_Th3Ta
_symmetry_space_group_name_H-M   'P 1'
_cell_length_a   6.75614458
_cell_length_b   6.75614458
_cell_length_c   5.77239300
_cell_angle_alpha   90.00000000
_cell_angle_beta   90.00000000
_cell_angle_gamma   120.00000563
_symmetry_Int_Tables_number   1
_chemical_formula_structural   Th3Ta
_chemical_formula_sum   'Th6 Ta2'
_cell_volume   228.18356837
_cell_formula_units_Z   2
loop_
 _symmetry_equiv_pos_site_id
 _symmetry_equiv_pos_as_xyz
  1  'x, y, z'
loop_
 _atom_site_type_symbol
 _atom_site_label
 _atom_site_symmetry_multiplicity
 _atom_site_fract_x
 _atom_site_fract_y
 _atom_site_fract_z
 _atom_site_occupancy
  Th  Th0  1  0.17636700  0.35273400  0.25000000  1
  Th  Th1  1  0.64726600  0.82363300  0.25000000  1
  Th  Th2  1  0.17636700  0.82363300  0.25000000  1
  Th  Th3  1  0.82363300  0.64726600  0.75000000  1
  Th  Th4  1  0.35273400  0.17636700  0.75000000  1
  Th  Th5  1  0.82363300  0.17636700  0.75000000  1
  Ta  Ta0  1  0.33333300  0.66666700  0.75000000  1
  Ta  Ta1  1  0.66666700  0.33333300  0.25000000  1
loop_
_geom_bond_atom_site_label_1
_geom_bond_atom_site_label_2
_geom_bond_distance
_geom_bond_site_symmetry_2
Th0 Th1 3.181461 1_555
Th0 Th2 3.181462 1_555
Th0 Th5 3.548180 1_455
Th0 Th5 3.548180 1_454
Th0 Th4 3.548180 1_554
Th0 Th4 3.548180 1_555
Th0 Th1 3.574683 1_445
Th0 Th2 3.574683 1_545
Th1 Th2 3.181462 1_555
Th1 Th5 3.548180 1_565
Th1 Th5 3.548180 1_564
Th1 Th3 3.548180 1_555
Th1 Th3 3.548180 1_554
Th1 Th2 3.574683 1_655
Th2 Th4 3.548180 1_564
Th2 Th4 3.548180 1_565
Th2 Th3 3.548180 1_454
Th2 Th3 3.548180 1_455
Th3 Th4 3.181461 1_555
Th3 Th5 3.181462 1_555
Th3 Th4 3.574683 1_665
Th3 Th5 3.574683 1_565
Th4 Th5 3.181462 1_555
Th4 Th5 3.574683 1_455
Ta0 Th4 3.379976 1_565
Ta0 Th3 3.379976 1_455
Ta0 Th5 3.379979 1_565
Ta0 Th5 3.379979 1_455
Ta0 Th3 3.379982 1_555
Ta0 Th4 3.379982 1_555
Ta0 Th2 3.421113 1_556
Ta0 Th2 3.421113 1_555
Ta0 Th0 3.421116 1_555
Ta0 Th0 3.421116 1_556
Ta0 Th1 3.421116 1_556
Ta0 Th1 3.421116 1_555
Ta1 Th0 3.379976 1_655
Ta1 Th1 3.379976 1_545
Ta1 Th2 3.379979 1_655
Ta1 Th2 3.379979 1_545
Ta1 Th0 3.379982 1_555
Ta1 Th1 3.379982 1_555
Ta1 Th5 3.421113 1_555
Ta1 Th5 3.421113 1_554
Ta1 Th4 3.421116 1_554
Ta1 Th4 3.421116 1_555
Ta1 Th3 3.421116 1_555
Ta1 Th3 3.421116 1_554
