# generated using pymatgen
data_Cd3B
_symmetry_space_group_name_H-M   'P 1'
_cell_length_a   5.29496184
_cell_length_b   5.29496184
_cell_length_c   5.29496184
_cell_angle_alpha   134.41711916
_cell_angle_beta   134.41711916
_cell_angle_gamma   66.43722632
_symmetry_Int_Tables_number   1
_chemical_formula_structural   Cd3B
_chemical_formula_sum   'Cd3 B1'
_cell_volume   74.54677946
_cell_formula_units_Z   1
loop_
 _symmetry_equiv_pos_site_id
 _symmetry_equiv_pos_as_xyz
  1  'x, y, z'
loop_
 _atom_site_type_symbol
 _atom_site_label
 _atom_site_symmetry_multiplicity
 _atom_site_fract_x
 _atom_site_fract_y
 _atom_site_fract_z
 _atom_site_occupancy
  Cd  Cd0  1  0.75000000  0.25000000  0.50000000  1
  Cd  Cd1  1  0.25000000  0.75000000  0.50000000  1
  Cd  Cd2  1  0.50000000  0.50000000  0.00000000  1
  B  B0  1  0.00000000  0.00000000  0.00000000  1
loop_
_geom_bond_atom_site_label_1
_geom_bond_atom_site_label_2
_geom_bond_distance
_geom_bond_site_symmetry_2
Cd0 Cd1 2.900766 1_555
Cd0 Cd1 2.900766 1_645
Cd0 Cd1 2.900766 1_544
Cd0 Cd1 2.900766 1_656
Cd0 Cd2 3.018736 1_545
Cd0 Cd2 3.018736 1_555
Cd0 Cd2 3.018736 1_656
Cd0 Cd2 3.018736 1_556
Cd1 Cd2 3.018736 1_566
Cd1 Cd2 3.018736 1_455
Cd1 Cd2 3.018736 1_555
Cd1 Cd2 3.018736 1_556
B0 Cd2 2.900766 1_455
B0 Cd2 2.900766 1_556
B0 Cd2 2.900766 1_444
B0 Cd2 2.900766 1_545
B0 Cd1 3.018736 1_545
B0 Cd0 3.018736 1_555
B0 Cd0 3.018736 1_454
B0 Cd1 3.018736 1_555
B0 Cd0 3.018736 1_444
B0 Cd1 3.018736 1_444
B0 Cd1 3.018736 1_544
B0 Cd0 3.018736 1_455
