# generated using pymatgen
data_CeSe2
_symmetry_space_group_name_H-M   'P 1'
_cell_length_a   14.28012736
_cell_length_b   20.98500011
_cell_length_c   20.98500052
_cell_angle_alpha   109.06456653
_cell_angle_beta   90.00000000
_cell_angle_gamma   90.00000000
_symmetry_Int_Tables_number   1
_chemical_formula_structural   CeSe2
_chemical_formula_sum   'Ce24 Se48'
_cell_volume   5943.62337349
_cell_formula_units_Z   24
loop_
 _symmetry_equiv_pos_site_id
 _symmetry_equiv_pos_as_xyz
  1  'x, y, z'
loop_
 _atom_site_type_symbol
 _atom_site_label
 _atom_site_symmetry_multiplicity
 _atom_site_fract_x
 _atom_site_fract_y
 _atom_site_fract_z
 _atom_site_occupancy
  Ce  Ce0  1  0.05967067  0.77444374  0.22555626  1
  Ce  Ce1  1  0.94032933  0.22555626  0.77444374  1
  Ce  Ce2  1  0.44032933  0.77444374  0.22555626  1
  Ce  Ce3  1  0.55967067  0.22555626  0.77444374  1
  Ce  Ce4  1  0.06195155  0.62540583  0.37459417  1
  Ce  Ce5  1  0.93804845  0.37459417  0.62540583  1
  Ce  Ce6  1  0.43804845  0.62540583  0.37459417  1
  Ce  Ce7  1  0.56195155  0.37459417  0.62540583  1
  Ce  Ce8  1  0.93361478  0.75737300  0.62058748  1
  Ce  Ce9  1  0.06638522  0.62058748  0.75737300  1
  Ce  Ce10  1  0.56638522  0.75737300  0.62058748  1
  Ce  Ce11  1  0.43361478  0.62058748  0.75737300  1
  Ce  Ce12  1  0.06638522  0.24262700  0.37941252  1
  Ce  Ce13  1  0.93361478  0.37941252  0.24262700  1
  Ce  Ce14  1  0.43361478  0.24262700  0.37941252  1
  Ce  Ce15  1  0.56638522  0.37941252  0.24262700  1
  Ce  Ce16  1  0.93635244  0.01105706  0.38294805  1
  Ce  Ce17  1  0.06364756  0.38294805  0.01105706  1
  Ce  Ce18  1  0.56364756  0.01105706  0.38294805  1
  Ce  Ce19  1  0.43635244  0.38294805  0.01105706  1
  Ce  Ce20  1  0.06364756  0.98894294  0.61705195  1
  Ce  Ce21  1  0.93635244  0.61705195  0.98894294  1
  Ce  Ce22  1  0.43635244  0.98894294  0.61705195  1
  Ce  Ce23  1  0.56364756  0.61705195  0.98894294  1
  Se  Se0  1  0.25000000  0.77744138  0.22255862  1
  Se  Se1  1  0.75000000  0.22255862  0.77744138  1
  Se  Se2  1  0.25000000  0.62932104  0.37067896  1
  Se  Se3  1  0.75000000  0.37067896  0.62932104  1
  Se  Se4  1  0.75000000  0.72435524  0.61089579  1
  Se  Se5  1  0.25000000  0.61089579  0.72435524  1
  Se  Se6  1  0.25000000  0.27564476  0.38910421  1
  Se  Se7  1  0.75000000  0.38910421  0.27564476  1
  Se  Se8  1  0.75000000  0.03863290  0.38671693  1
  Se  Se9  1  0.25000000  0.38671693  0.03863290  1
  Se  Se10  1  0.25000000  0.96136710  0.61328307  1
  Se  Se11  1  0.75000000  0.61328307  0.96136710  1
  Se  Se12  1  0.99545521  0.69980975  0.30019025  1
  Se  Se13  1  0.00454479  0.30019025  0.69980975  1
  Se  Se14  1  0.50454479  0.69980975  0.30019025  1
  Se  Se15  1  0.49545521  0.30019025  0.69980975  1
  Se  Se16  1  0.01504414  0.67682335  0.50632270  1
  Se  Se17  1  0.98495586  0.50632270  0.67682335  1
  Se  Se18  1  0.48495586  0.67682335  0.50632270  1
  Se  Se19  1  0.51504414  0.50632270  0.67682335  1
  Se  Se20  1  0.98495586  0.32317665  0.49367730  1
  Se  Se21  1  0.01504414  0.49367730  0.32317665  1
  Se  Se22  1  0.51504414  0.32317665  0.49367730  1
  Se  Se23  1  0.48495586  0.49367730  0.32317665  1
  Se  Se24  1  0.00000000  0.72959994  0.72959994  1
  Se  Se25  1  0.50000000  0.72959994  0.72959994  1
  Se  Se26  1  0.00000000  0.27040006  0.27040006  1
  Se  Se27  1  0.50000000  0.27040006  0.27040006  1
  Se  Se28  1  0.96034464  0.88991985  0.63824009  1
  Se  Se29  1  0.03965536  0.63824009  0.88991985  1
  Se  Se30  1  0.53965536  0.88991985  0.63824009  1
  Se  Se31  1  0.46034464  0.63824009  0.88991985  1
  Se  Se32  1  0.03965536  0.11008015  0.36175991  1
  Se  Se33  1  0.96034464  0.36175991  0.11008015  1
  Se  Se34  1  0.46034464  0.11008015  0.36175991  1
  Se  Se35  1  0.53965536  0.36175991  0.11008015  1
  Se  Se36  1  0.00000000  0.00000000  0.50000000  1
  Se  Se37  1  0.00000000  0.50000000  0.00000000  1
  Se  Se38  1  0.50000000  0.00000000  0.50000000  1
  Se  Se39  1  0.50000000  0.50000000  0.00000000  1
  Se  Se40  1  0.98393325  0.89914791  0.27990560  1
  Se  Se41  1  0.01606675  0.27990560  0.89914791  1
  Se  Se42  1  0.51606675  0.89914791  0.27990560  1
  Se  Se43  1  0.48393325  0.27990560  0.89914791  1
  Se  Se44  1  0.01606675  0.10085209  0.72009440  1
  Se  Se45  1  0.98393325  0.72009440  0.10085209  1
  Se  Se46  1  0.48393325  0.10085209  0.72009440  1
  Se  Se47  1  0.51606675  0.72009440  0.10085209  1
loop_
_geom_bond_atom_site_label_1
_geom_bond_atom_site_label_2
_geom_bond_distance
_geom_bond_site_symmetry_2
Ce0 Se12 2.710953 1_455
Ce0 Se40 2.714590 1_455
Ce0 Se45 2.714590 1_455
Ce0 Se0 2.719858 1_555
Ce1 Se13 2.710953 1_655
Ce1 Se44 2.714590 1_655
Ce1 Se41 2.714590 1_655
Ce1 Se1 2.719858 1_555
Ce2 Se14 2.710953 1_555
Ce2 Se42 2.714590 1_555
Ce2 Se47 2.714590 1_555
Ce2 Se0 2.719858 1_555
Ce3 Se15 2.710953 1_555
Ce3 Se46 2.714590 1_555
Ce3 Se43 2.714590 1_555
Ce3 Se1 2.719858 1_555
Ce4 Se2 2.688689 1_555
Ce4 Se21 2.702945 1_555
Ce4 Se16 2.702945 1_555
Ce4 Se12 2.714775 1_455
Ce5 Se3 2.688689 1_555
Ce5 Se17 2.702945 1_555
Ce5 Se20 2.702945 1_555
Ce5 Se13 2.714775 1_655
Ce6 Se2 2.688689 1_555
Ce6 Se23 2.702945 1_555
Ce6 Se18 2.702945 1_555
Ce6 Se14 2.714775 1_555
Ce7 Se3 2.688689 1_555
Ce7 Se19 2.702945 1_555
Ce7 Se22 2.702945 1_555
Ce7 Se15 2.714775 1_555
Ce8 Se4 2.702683 1_555
Ce8 Se16 2.703933 1_655
Ce8 Se24 2.709719 1_655
Ce8 Se28 2.710449 1_555
Ce9 Se5 2.702683 1_555
Ce9 Se17 2.703933 1_455
Ce9 Se24 2.709719 1_555
Ce9 Se29 2.710449 1_555
Ce10 Se4 2.702683 1_555
Ce10 Se18 2.703933 1_555
Ce10 Se25 2.709719 1_555
Ce10 Se30 2.710449 1_555
Ce11 Se5 2.702683 1_555
Ce11 Se19 2.703933 1_555
Ce11 Se25 2.709719 1_555
Ce11 Se31 2.710449 1_555
Ce12 Se6 2.702683 1_555
Ce12 Se20 2.703933 1_455
Ce12 Se26 2.709719 1_555
Ce12 Se32 2.710449 1_555
Ce13 Se7 2.702683 1_555
Ce13 Se21 2.703933 1_655
Ce13 Se26 2.709719 1_655
Ce13 Se33 2.710449 1_555
Ce14 Se6 2.702683 1_555
Ce14 Se22 2.703933 1_555
Ce14 Se27 2.709719 1_555
Ce14 Se34 2.710449 1_555
Ce15 Se7 2.702683 1_555
Ce15 Se23 2.703933 1_555
Ce15 Se27 2.709719 1_555
Ce15 Se35 2.710449 1_555
Ce16 Se36 2.699230 1_655
Ce16 Se32 2.701022 1_655
Ce16 Se40 2.708341 1_545
Ce16 Se8 2.718984 1_555
Ce17 Se37 2.699230 1_555
Ce17 Se33 2.701022 1_455
Ce17 Se41 2.708341 1_554
Ce17 Se9 2.718984 1_555
Ce18 Se38 2.699230 1_555
Ce18 Se34 2.701022 1_555
Ce18 Se42 2.708341 1_545
Ce18 Se8 2.718984 1_555
Ce19 Se39 2.699230 1_555
Ce19 Se35 2.701022 1_555
Ce19 Se43 2.708341 1_554
Ce19 Se9 2.718984 1_555
Ce20 Se36 2.699230 1_565
Ce20 Se28 2.701022 1_455
Ce20 Se44 2.708341 1_565
Ce20 Se10 2.718984 1_555
Ce21 Se37 2.699230 1_656
Ce21 Se29 2.701022 1_655
Ce21 Se45 2.708341 1_556
Ce21 Se11 2.718984 1_555
Ce22 Se38 2.699230 1_565
Ce22 Se30 2.701022 1_555
Ce22 Se46 2.708341 1_565
Ce22 Se10 2.718984 1_555
Ce23 Se39 2.699230 1_556
Ce23 Se31 2.701022 1_555
Ce23 Se47 2.708341 1_556
Ce23 Se11 2.718984 1_555
