# generated using pymatgen
data_Na3Au
_symmetry_space_group_name_H-M   'P 1'
_cell_length_a   5.14647699
_cell_length_b   5.14647699
_cell_length_c   5.14647699
_cell_angle_alpha   121.23748605
_cell_angle_beta   121.23748605
_cell_angle_gamma   87.86965031
_symmetry_Int_Tables_number   1
_chemical_formula_structural   Na3Au
_chemical_formula_sum   'Na3 Au1'
_cell_volume   94.51243607
_cell_formula_units_Z   1
loop_
 _symmetry_equiv_pos_site_id
 _symmetry_equiv_pos_as_xyz
  1  'x, y, z'
loop_
 _atom_site_type_symbol
 _atom_site_label
 _atom_site_symmetry_multiplicity
 _atom_site_fract_x
 _atom_site_fract_y
 _atom_site_fract_z
 _atom_site_occupancy
  Na  Na0  1  0.75000000  0.25000000  0.49999900  1
  Na  Na1  1  0.25000000  0.75000000  0.49999900  1
  Na  Na2  1  0.50000100  0.50000100  0.00000000  1
  Au  Au0  1  0.00000000  0.00000000  0.00000000  1
loop_
_geom_bond_atom_site_label_1
_geom_bond_atom_site_label_2
_geom_bond_distance
_geom_bond_site_symmetry_2
Na0 Na2 3.131970 1_545
Na0 Na2 3.131974 1_556
Na0 Na2 3.131974 1_555
Na0 Na2 3.131978 1_656
Na1 Na2 3.131970 1_455
Na1 Na2 3.131974 1_556
Na1 Na2 3.131974 1_555
Na1 Na2 3.131978 1_566
Au0 Na0 3.131970 1_455
Au0 Na1 3.131970 1_545
Au0 Na1 3.131974 1_444
Au0 Na0 3.131974 1_444
Au0 Na0 3.131974 1_555
Au0 Na1 3.131974 1_555
Au0 Na0 3.131978 1_454
Au0 Na1 3.131978 1_544
Au0 Na2 3.570830 1_545
Au0 Na2 3.570830 1_444
Au0 Na2 3.570830 1_556
Au0 Na2 3.570830 1_455
Au0 Na2 3.706123 1_445
Au0 Na2 3.706137 1_555
