# generated using pymatgen
data_Li7Mn2(CoO4)3
_symmetry_space_group_name_H-M   'P 1'
_cell_length_a   5.04982092
_cell_length_b   4.97452977
_cell_length_c   9.82237374
_cell_angle_alpha   92.48388600
_cell_angle_beta   94.98066369
_cell_angle_gamma   117.81498025
_symmetry_Int_Tables_number   1
_chemical_formula_structural   Li7Mn2(CoO4)3
_chemical_formula_sum   'Li7 Mn2 Co3 O12'
_cell_volume   216.42317090
_cell_formula_units_Z   1
loop_
 _symmetry_equiv_pos_site_id
 _symmetry_equiv_pos_as_xyz
  1  'x, y, z'
loop_
 _atom_site_type_symbol
 _atom_site_label
 _atom_site_symmetry_multiplicity
 _atom_site_fract_x
 _atom_site_fract_y
 _atom_site_fract_z
 _atom_site_occupancy
  Li  Li0  1  0.83047200  0.16488300  0.49957400  1
  Li  Li1  1  0.09129800  0.43075600  0.27608300  1
  Li  Li2  1  0.57125000  0.90918300  0.72483800  1
  Li  Li3  1  0.45320600  0.10437700  0.27513700  1
  Li  Li4  1  0.90178600  0.55802500  0.72843300  1
  Li  Li5  1  0.74776700  0.75648000  0.26680000  1
  Li  Li6  1  0.23419400  0.24156500  0.72982000  1
  Mn  Mn0  1  0.00030100  0.00026800  0.00033200  1
  Mn  Mn1  1  0.66178300  0.33581700  0.99959300  1
  Co  Co0  1  0.33363900  0.66584200  0.99982500  1
  Co  Co1  1  0.51784300  0.49950600  0.50255700  1
  Co  Co2  1  0.15664400  0.82909300  0.49750600  1
  O  O0  1  0.68606900  0.01918300  0.10456200  1
  O  O1  1  0.97378300  0.31699900  0.89549000  1
  O  O2  1  0.21605600  0.57521500  0.61323600  1
  O  O3  1  0.43941500  0.77007700  0.38701200  1
  O  O4  1  0.02262200  0.68031200  0.10236500  1
  O  O5  1  0.39628200  0.38738300  0.11218600  1
  O  O6  1  0.31315000  0.98304200  0.89657200  1
  O  O7  1  0.60447500  0.61276900  0.88764500  1
  O  O8  1  0.53414700  0.22482400  0.62195200  1
  O  O9  1  0.88424100  0.86420200  0.61544000  1
  O  O10  1  0.79295600  0.46902800  0.37984300  1
  O  O11  1  0.13662300  0.10117100  0.38320100  1
loop_
_geom_bond_atom_site_label_1
_geom_bond_atom_site_label_2
_geom_bond_distance
_geom_bond_site_symmetry_2
Li0 O9 2.019682 1_545
Li0 O10 2.022648 1_555
Li0 O8 2.114393 1_555
Li0 O11 2.128355 1_655
Li0 O3 2.189184 1_545
Li0 O2 2.218137 1_655
Li1 O10 1.965246 1_455
Li1 O3 1.966092 1_555
Li1 O11 2.074942 1_555
Li1 O4 2.248462 1_555
Li1 O5 2.391791 1_555
Li1 O0 2.531818 1_455
Li2 O2 1.974519 1_555
Li2 O8 1.975099 1_565
Li2 O9 2.075324 1_555
Li2 O7 2.268990 1_555
Li2 O6 2.335399 1_555
Li2 O1 2.514437 1_565
Li3 O10 1.979714 1_555
Li3 O11 1.988730 1_555
Li3 O3 2.010349 1_545
Li3 O0 2.261672 1_555
Li3 O5 2.262629 1_555
Li3 O4 2.612705 1_545
Li4 O9 1.953154 1_555
Li4 O8 1.982101 1_555
Li4 O2 1.999940 1_655
Li4 O1 2.176249 1_555
Li4 O7 2.350786 1_555
Li4 O6 2.552595 1_655
Li5 O10 1.930757 1_555
Li5 O3 2.057677 1_555
Li5 O11 2.097919 1_665
Li5 O0 2.195124 1_565
Li5 O5 2.253194 1_555
Li5 O4 2.346425 1_655
Li6 O8 1.952588 1_555
Li6 O9 2.070180 1_445
Li6 O2 2.088754 1_555
Li6 O6 2.245722 1_545
Li6 O1 2.301584 1_455
Li6 O7 2.309892 1_555
Mn0 O4 1.958694 1_545
Mn0 O1 1.968371 1_454
Mn0 O6 1.985010 1_544
Mn0 O0 1.997011 1_455
Mn0 O5 2.180711 1_555
Mn0 O7 2.184349 1_444
Mn1 O7 1.907634 1_555
Mn1 O5 1.907952 1_556
Mn1 O6 1.963810 1_545
Mn1 O0 1.964213 1_556
Mn1 O4 1.972964 1_656
Mn1 O1 1.986397 1_555
Co0 O5 1.928140 1_556
Co0 O7 1.930750 1_555
Co0 O6 1.949864 1_555
Co0 O4 1.964745 1_556
Co0 O0 1.980214 1_566
Co0 O1 1.985808 1_455
Co1 O8 1.864486 1_555
Co1 O3 1.951502 1_555
Co1 O10 1.969114 1_555
Co1 O9 2.069038 1_555
Co1 O2 2.105707 1_555
Co1 O11 2.203106 1_555
Co2 O11 1.828207 1_565
Co2 O2 1.842823 1_555
Co2 O9 1.935968 1_455
Co2 O3 1.983890 1_555
Co2 O10 2.073396 1_455
Co2 O8 2.210912 1_565
