# generated using pymatgen
data_TbPr3
_symmetry_space_group_name_H-M   'P 1'
_cell_length_a   7.49100547
_cell_length_b   7.49100547
_cell_length_c   5.95593947
_cell_angle_alpha   90.00000000
_cell_angle_beta   90.00000000
_cell_angle_gamma   120.00000536
_symmetry_Int_Tables_number   1
_chemical_formula_structural   TbPr3
_chemical_formula_sum   'Tb2 Pr6'
_cell_volume   289.44170760
_cell_formula_units_Z   2
loop_
 _symmetry_equiv_pos_site_id
 _symmetry_equiv_pos_as_xyz
  1  'x, y, z'
loop_
 _atom_site_type_symbol
 _atom_site_label
 _atom_site_symmetry_multiplicity
 _atom_site_fract_x
 _atom_site_fract_y
 _atom_site_fract_z
 _atom_site_occupancy
  Tb  Tb0  1  0.33333300  0.66666700  0.75000000  1
  Tb  Tb1  1  0.66666700  0.33333300  0.25000000  1
  Pr  Pr0  1  0.16811703  0.33623307  0.25000000  1
  Pr  Pr1  1  0.66376693  0.83188297  0.25000000  1
  Pr  Pr2  1  0.16811703  0.83188297  0.25000000  1
  Pr  Pr3  1  0.83188297  0.66376693  0.75000000  1
  Pr  Pr4  1  0.33623307  0.16811703  0.75000000  1
  Pr  Pr5  1  0.83188297  0.16811703  0.75000000  1
loop_
_geom_bond_atom_site_label_1
_geom_bond_atom_site_label_2
_geom_bond_distance
_geom_bond_site_symmetry_2
Pr0 Tb0 3.669274 1_555
Pr0 Tb0 3.669274 1_554
Pr0 Pr4 3.691375 1_554
Pr0 Pr4 3.691375 1_555
Pr0 Pr5 3.691383 1_455
Pr0 Pr5 3.691383 1_454
Pr0 Pr1 3.712916 1_555
Pr0 Pr2 3.712916 1_555
Pr0 Tb1 3.745550 1_455
Pr0 Tb1 3.745550 1_555
Pr0 Pr1 3.778089 1_445
Pr0 Pr2 3.778089 1_545
Pr1 Tb0 3.669274 1_555
Pr1 Tb0 3.669274 1_554
Pr1 Pr3 3.691375 1_554
Pr1 Pr3 3.691375 1_555
Pr1 Pr5 3.691383 1_565
Pr1 Pr5 3.691383 1_564
Pr1 Pr2 3.712916 1_555
Pr1 Tb1 3.745550 1_565
Pr1 Tb1 3.745550 1_555
Pr1 Pr2 3.778089 1_655
Pr2 Tb0 3.669266 1_555
Pr2 Tb0 3.669266 1_554
Pr2 Pr4 3.691383 1_564
Pr2 Pr4 3.691383 1_565
Pr2 Pr3 3.691383 1_455
Pr2 Pr3 3.691383 1_454
Pr2 Tb1 3.745550 1_455
Pr2 Tb1 3.745550 1_565
Pr3 Tb1 3.669274 1_555
Pr3 Tb1 3.669274 1_556
Pr3 Pr4 3.712916 1_555
Pr3 Pr5 3.712916 1_555
Pr3 Tb0 3.745550 1_655
Pr3 Tb0 3.745550 1_555
Pr3 Pr4 3.778089 1_665
Pr3 Pr5 3.778089 1_565
Pr4 Tb1 3.669274 1_555
Pr4 Tb1 3.669274 1_556
Pr4 Pr5 3.712916 1_555
Pr4 Tb0 3.745550 1_545
Pr4 Tb0 3.745550 1_555
Pr4 Pr5 3.778089 1_455
Pr5 Tb1 3.669266 1_555
Pr5 Tb1 3.669266 1_556
Pr5 Tb0 3.745550 1_545
Pr5 Tb0 3.745550 1_655
