# generated using pymatgen
data_SrY2Si3O10
_symmetry_space_group_name_H-M   'P 1'
_cell_length_a   6.83913400
_cell_length_b   6.98058327
_cell_length_c   9.39278870
_cell_angle_alpha   72.49251013
_cell_angle_beta   86.20443064
_cell_angle_gamma   87.80064313
_symmetry_Int_Tables_number   1
_chemical_formula_structural   SrY2Si3O10
_chemical_formula_sum   'Sr2 Y4 Si6 O20'
_cell_volume   426.63215546
_cell_formula_units_Z   2
loop_
 _symmetry_equiv_pos_site_id
 _symmetry_equiv_pos_as_xyz
  1  'x, y, z'
loop_
 _atom_site_type_symbol
 _atom_site_label
 _atom_site_symmetry_multiplicity
 _atom_site_fract_x
 _atom_site_fract_y
 _atom_site_fract_z
 _atom_site_occupancy
  Sr  Sr0  1  0.59924300  0.90675100  0.81809500  1
  Sr  Sr1  1  0.40075700  0.09324900  0.18190500  1
  Y  Y0  1  0.85891900  0.24653300  0.49117300  1
  Y  Y1  1  0.14108100  0.75346700  0.50882700  1
  Y  Y2  1  0.84072200  0.73654100  0.19037600  1
  Y  Y3  1  0.15927800  0.26345900  0.80962400  1
  Si  Si0  1  0.32665200  0.27316100  0.45811400  1
  Si  Si1  1  0.67334800  0.72683900  0.54188600  1
  Si  Si2  1  0.33425000  0.64145500  0.16921600  1
  Si  Si3  1  0.66575000  0.35854500  0.83078400  1
  Si  Si4  1  0.87741600  0.25478200  0.12557700  1
  Si  Si5  1  0.12258400  0.74521800  0.87442300  1
  O  O0  1  0.53362300  0.21055100  0.53307500  1
  O  O1  1  0.46637700  0.78944900  0.46692500  1
  O  O2  1  0.82237300  0.60308200  0.45359800  1
  O  O3  1  0.17762700  0.39691800  0.54640200  1
  O  O4  1  0.81835100  0.90010800  0.56433000  1
  O  O5  1  0.18164900  0.09989200  0.43567000  1
  O  O6  1  0.61918900  0.58638500  0.72012100  1
  O  O7  1  0.38081100  0.41361500  0.27987900  1
  O  O8  1  0.52994300  0.77636500  0.12047300  1
  O  O9  1  0.47005700  0.22363500  0.87952700  1
  O  O10  1  0.83112900  0.24211200  0.74923400  1
  O  O11  1  0.16887100  0.75788800  0.25076600  1
  O  O12  1  0.26066100  0.61471700  0.01308600  1
  O  O13  1  0.73933900  0.38528300  0.98691400  1
  O  O14  1  0.91168000  0.79144800  0.94916700  1
  O  O15  1  0.08832000  0.20855200  0.05083300  1
  O  O16  1  0.76820700  0.04463500  0.21275900  1
  O  O17  1  0.23179300  0.95536500  0.78724100  1
  O  O18  1  0.88163000  0.39290100  0.23998600  1
  O  O19  1  0.11837000  0.60709900  0.76001400  1
loop_
_geom_bond_atom_site_label_1
_geom_bond_atom_site_label_2
_geom_bond_distance
_geom_bond_site_symmetry_2
O0 Si0 1.609263 1_555
O0 Y0 2.243872 1_555
O0 Sr0 2.921638 1_545
O1 Si1 1.609263 1_555
O1 Y1 2.243872 1_555
O1 Sr1 2.921638 1_565
O2 Si1 1.650555 1_555
O2 Y2 2.361873 1_555
O2 Y0 2.411882 1_555
O2 Y1 2.602910 1_655
O3 Si0 1.650555 1_555
O3 Y3 2.361873 1_555
O3 Y1 2.411882 1_555
O3 Y0 2.602910 1_455
O4 Si1 1.662525 1_555
O4 Y0 2.328853 1_565
O4 Y1 2.487297 1_655
O4 Sr0 2.741775 1_555
O5 Si0 1.662525 1_555
O5 Y1 2.328853 1_545
O5 Y0 2.487297 1_455
O5 Sr1 2.741775 1_555
O6 Si3 1.649750 1_555
O6 Si1 1.690971 1_555
O6 Sr0 2.657982 1_555
O7 Si2 1.649750 1_555
O7 Si0 1.690971 1_555
O7 Sr1 2.657982 1_555
O8 Si2 1.626020 1_555
O8 Y2 2.248455 1_555
O8 Sr1 2.560685 1_565
O8 Sr0 2.723820 1_554
O9 Si3 1.626020 1_555
O9 Y3 2.248455 1_555
O9 Sr0 2.560685 1_545
O9 Sr1 2.723820 1_556
O10 Si3 1.648002 1_555
O10 Y3 2.371855 1_655
O10 Y0 2.409746 1_555
O10 Sr0 2.766210 1_545
O11 Si2 1.648002 1_555
O11 Y2 2.371855 1_455
O11 Y1 2.409746 1_555
O11 Sr1 2.766210 1_565
O12 Si2 1.645708 1_555
O12 Si5 1.673590 1_554
O13 Si3 1.645708 1_555
O13 Si4 1.673590 1_556
O14 Si5 1.626057 1_655
O14 Y2 2.204930 1_556
O14 Sr0 2.519824 1_555
O15 Si4 1.626057 1_455
O15 Y3 2.204930 1_554
O15 Sr1 2.519824 1_555
O16 Si4 1.631174 1_555
O16 Y2 2.256532 1_545
O16 Sr1 2.546824 1_555
O17 Si5 1.631174 1_555
O17 Y3 2.256532 1_565
O17 Sr0 2.546824 1_555
O18 Si4 1.647676 1_555
O18 Y0 2.268891 1_555
O18 Y2 2.311473 1_555
O19 Si5 1.647676 1_555
O19 Y1 2.268891 1_555
O19 Y3 2.311473 1_555
