# generated using pymatgen
data_NaGeSb5O
_symmetry_space_group_name_H-M   'P 1'
_cell_length_a   8.17812525
_cell_length_b   8.17812525
_cell_length_c   8.90227359
_cell_angle_alpha   103.83300543
_cell_angle_beta   103.83300543
_cell_angle_gamma   123.73562815
_symmetry_Int_Tables_number   1
_chemical_formula_structural   NaGeSb5O
_chemical_formula_sum   'Na2 Ge2 Sb10 O2'
_cell_volume   426.75970943
_cell_formula_units_Z   2
loop_
 _symmetry_equiv_pos_site_id
 _symmetry_equiv_pos_as_xyz
  1  'x, y, z'
loop_
 _atom_site_type_symbol
 _atom_site_label
 _atom_site_symmetry_multiplicity
 _atom_site_fract_x
 _atom_site_fract_y
 _atom_site_fract_z
 _atom_site_occupancy
  Na  Na0  1  0.59540900  0.40459100  0.75000000  1
  Na  Na1  1  0.40459100  0.59540900  0.25000000  1
  Ge  Ge0  1  0.00000000  0.00000000  0.00000000  1
  Ge  Ge1  1  0.00000000  0.00000000  0.50000000  1
  Sb  Sb0  1  0.85835200  0.14164800  0.75000000  1
  Sb  Sb1  1  0.14164800  0.85835200  0.25000000  1
  Sb  Sb2  1  0.25794100  0.83727600  0.59357200  1
  Sb  Sb3  1  0.74205900  0.16272400  0.40642800  1
  Sb  Sb4  1  0.16272400  0.74205900  0.90642800  1
  Sb  Sb5  1  0.83727600  0.25794100  0.09357200  1
  Sb  Sb6  1  0.57413500  0.78120000  0.00140600  1
  Sb  Sb7  1  0.42586500  0.21880000  0.99859400  1
  Sb  Sb8  1  0.21880000  0.42586500  0.49859400  1
  Sb  Sb9  1  0.78120000  0.57413500  0.50140600  1
  O  O0  1  0.43849600  0.56150400  0.75000000  1
  O  O1  1  0.56150400  0.43849600  0.25000000  1
loop_
_geom_bond_atom_site_label_1
_geom_bond_atom_site_label_2
_geom_bond_distance
_geom_bond_site_symmetry_2
Na0 O0 2.263307 1_555
Na0 Sb2 3.454280 1_545
Na0 Sb4 3.454280 1_655
Na0 Sb0 3.792679 1_555
Na1 O1 2.263307 1_555
Na1 Sb5 3.454280 1_455
Na1 Sb3 3.454280 1_565
Na1 Sb1 3.792679 1_555
Ge0 Sb7 2.905390 1_554
Ge0 Sb6 2.905390 1_445
Ge0 Sb1 3.021178 1_545
Ge0 Sb0 3.021178 1_454
Ge0 Sb5 3.118113 1_455
Ge0 Sb4 3.118113 1_544
Ge0 Na0 3.607306 1_444
Ge0 Na1 3.607306 1_555
Ge1 Sb8 2.905390 1_555
Ge1 Sb9 2.905390 1_445
Ge1 Sb1 3.021178 1_545
Ge1 Sb0 3.021178 1_455
Ge1 Sb3 3.118113 1_455
Ge1 Sb2 3.118113 1_545
Ge1 Na1 3.607306 1_445
Ge1 Na0 3.607306 1_555
Sb0 Sb5 3.054876 1_556
Sb0 Sb3 3.054876 1_555
Sb1 Sb2 3.054876 1_555
Sb1 Sb4 3.054876 1_554
Sb2 Sb9 2.968496 1_455
Sb2 Sb8 3.074359 1_555
Sb2 Sb4 3.220299 1_555
Sb3 Sb8 2.968496 1_655
Sb3 Sb9 3.074359 1_555
Sb3 Sb5 3.220299 1_555
Sb4 Sb7 2.968496 1_565
Sb4 Sb6 3.074359 1_556
Sb5 Sb6 2.968496 1_545
Sb5 Sb7 3.074359 1_554
O0 Sb6 2.035659 1_556
O0 Sb8 2.035659 1_555
O1 Sb7 2.035659 1_554
O1 Sb9 2.035659 1_555
