# generated using pymatgen
data_Pr(FeP3)4
_symmetry_space_group_name_H-M   'P 1'
_cell_length_a   6.74318001
_cell_length_b   6.74317938
_cell_length_c   6.74317953
_cell_angle_alpha   109.47126657
_cell_angle_beta   109.47127008
_cell_angle_gamma   109.47127012
_symmetry_Int_Tables_number   1
_chemical_formula_structural   Pr(FeP3)4
_chemical_formula_sum   'Pr1 Fe4 P12'
_cell_volume   236.03234531
_cell_formula_units_Z   1
loop_
 _symmetry_equiv_pos_site_id
 _symmetry_equiv_pos_as_xyz
  1  'x, y, z'
loop_
 _atom_site_type_symbol
 _atom_site_label
 _atom_site_symmetry_multiplicity
 _atom_site_fract_x
 _atom_site_fract_y
 _atom_site_fract_z
 _atom_site_occupancy
  Pr  Pr0  1  -0.00000000  0.00000000  0.00000000  1
  Fe  Fe0  1  0.50000000  0.00000000  0.00000000  1
  Fe  Fe1  1  -0.00000000  0.00000000  0.50000000  1
  Fe  Fe2  1  -0.00000000  0.50000000  0.00000000  1
  Fe  Fe3  1  0.50000000  0.50000000  0.50000000  1
  P  P0  1  0.49510113  0.84906940  0.64604085  1
  P  P1  1  0.20302549  0.84906352  0.35396284  1
  P  P2  1  0.79697451  0.15093748  0.64603716  1
  P  P3  1  0.15093160  0.35395915  0.50489887  1
  P  P4  1  0.35395815  0.50489887  0.15093160  1
  P  P5  1  0.50489887  0.15093160  0.35395915  1
  P  P6  1  0.15093748  0.64603616  0.79697451  1
  P  P7  1  0.35396384  0.20302549  0.84906352  1
  P  P8  1  0.84906940  0.64604085  0.49510113  1
  P  P9  1  0.64603616  0.79697451  0.15093748  1
  P  P10  1  0.84906352  0.35396384  0.20302549  1
  P  P11  1  0.64604185  0.49510113  0.84906940  1
loop_
_geom_bond_atom_site_label_1
_geom_bond_atom_site_label_2
_geom_bond_distance
_geom_bond_site_symmetry_2
Fe0 P0 2.244847 1_544
Fe0 P5 2.244848 1_555
Fe0 P7 2.244865 1_554
Fe0 P9 2.244868 1_545
Fe0 P6 2.244869 1_544
Fe0 P10 2.244872 1_555
Fe1 P8 2.244847 1_445
Fe1 P3 2.244847 1_555
Fe1 P1 2.244868 1_545
Fe1 P9 2.244869 1_445
Fe1 P2 2.244871 1_455
Fe1 P7 2.244872 1_555
Fe2 P11 2.244841 1_454
Fe2 P4 2.244842 1_555
Fe2 P10 2.244865 1_455
Fe2 P2 2.244866 1_454
Fe2 P6 2.244868 1_554
Fe2 P1 2.244869 1_555
Fe3 P5 2.244902 1_555
Fe3 P3 2.244903 1_555
Fe3 P4 2.244903 1_555
Fe3 P0 2.244909 1_555
Fe3 P8 2.244909 1_555
Fe3 P11 2.244909 1_555
P0 P1 2.274189 1_555
P0 P2 2.350485 1_565
P0 Pr0 2.996192 1_666
P1 P5 2.350485 1_565
P1 Pr0 2.996192 1_565
P2 P5 2.274189 1_555
P2 Pr0 2.996197 1_656
P3 P6 2.274185 1_555
P3 Pr0 2.996190 1_555
P4 P9 2.274189 1_555
P4 P7 2.350493 1_554
P4 Pr0 2.996188 1_555
P5 Pr0 2.996190 1_555
P6 P8 2.350489 1_455
P6 Pr0 2.996202 1_566
P7 Pr0 2.996197 1_556
P8 Pr0 2.996192 1_666
P9 Pr0 2.996202 1_665
P10 P8 2.274185 1_555
P10 P3 2.350489 1_655
P10 Pr0 2.996197 1_655
P11 P7 2.274189 1_555
P11 P9 2.350493 1_556
P11 Pr0 2.996190 1_666
