# generated using pymatgen
data_Cs2ZnSi5O12
_symmetry_space_group_name_H-M   'P 1'
_cell_length_a   13.88404037
_cell_length_b   13.87132447
_cell_length_c   13.99782556
_cell_angle_alpha   90.00000000
_cell_angle_beta   90.00000000
_cell_angle_gamma   90.00000000
_symmetry_Int_Tables_number   1
_chemical_formula_structural   Cs2ZnSi5O12
_chemical_formula_sum   'Cs16 Zn8 Si40 O96'
_cell_volume   2695.84162951
_cell_formula_units_Z   8
loop_
 _symmetry_equiv_pos_site_id
 _symmetry_equiv_pos_as_xyz
  1  'x, y, z'
loop_
 _atom_site_type_symbol
 _atom_site_label
 _atom_site_symmetry_multiplicity
 _atom_site_fract_x
 _atom_site_fract_y
 _atom_site_fract_z
 _atom_site_occupancy
  Cs  Cs0  1  0.64434904  0.87314421  0.64062907  1
  Cs  Cs1  1  0.35565096  0.12685579  0.35937093  1
  Cs  Cs2  1  0.35565096  0.62685579  0.14062907  1
  Cs  Cs3  1  0.14434904  0.12685579  0.85937093  1
  Cs  Cs4  1  0.64434904  0.37314421  0.85937093  1
  Cs  Cs5  1  0.85565096  0.87314421  0.14062907  1
  Cs  Cs6  1  0.85565096  0.37314421  0.35937093  1
  Cs  Cs7  1  0.14434904  0.62685579  0.64062907  1
  Cs  Cs8  1  0.89414242  0.62159472  0.89148254  1
  Cs  Cs9  1  0.10585758  0.37840528  0.10851746  1
  Cs  Cs10  1  0.10585758  0.87840528  0.39148254  1
  Cs  Cs11  1  0.39414242  0.37840528  0.60851746  1
  Cs  Cs12  1  0.89414242  0.12159472  0.60851746  1
  Cs  Cs13  1  0.60585758  0.62159472  0.39148254  1
  Cs  Cs14  1  0.60585758  0.12159472  0.10851746  1
  Cs  Cs15  1  0.39414242  0.87840528  0.89148254  1
  Zn  Zn0  1  0.66490682  0.87958392  0.92581713  1
  Zn  Zn1  1  0.33509318  0.12041608  0.07418287  1
  Zn  Zn2  1  0.33509318  0.62041608  0.42581713  1
  Zn  Zn3  1  0.16490682  0.12041608  0.57418287  1
  Zn  Zn4  1  0.66490682  0.37958392  0.57418287  1
  Zn  Zn5  1  0.83509318  0.87958392  0.42581713  1
  Zn  Zn6  1  0.83509318  0.37958392  0.07418287  1
  Zn  Zn7  1  0.16490682  0.62041608  0.92581713  1
  Si  Si0  1  0.92440566  0.83630446  0.64205526  1
  Si  Si1  1  0.07559434  0.16369554  0.35794474  1
  Si  Si2  1  0.07559434  0.66369554  0.14205526  1
  Si  Si3  1  0.42440566  0.16369554  0.85794474  1
  Si  Si4  1  0.92440566  0.33630446  0.85794474  1
  Si  Si5  1  0.57559434  0.83630446  0.14205526  1
  Si  Si6  1  0.57559434  0.33630446  0.35794474  1
  Si  Si7  1  0.42440566  0.66369554  0.64205526  1
  Si  Si8  1  0.88272973  0.91483413  0.85166807  1
  Si  Si9  1  0.11727027  0.08516587  0.14833193  1
  Si  Si10  1  0.11727027  0.58516587  0.35166807  1
  Si  Si11  1  0.38272973  0.08516587  0.64833193  1
  Si  Si12  1  0.88272973  0.41483413  0.64833193  1
  Si  Si13  1  0.61727027  0.91483413  0.35166807  1
  Si  Si14  1  0.61727027  0.41483413  0.14833193  1
  Si  Si15  1  0.38272973  0.58516587  0.85166807  1
  Si  Si16  1  0.63657665  0.59301947  0.68390292  1
  Si  Si17  1  0.36342335  0.40698053  0.31609708  1
  Si  Si18  1  0.36342335  0.90698053  0.18390292  1
  Si  Si19  1  0.13657665  0.40698053  0.81609708  1
  Si  Si20  1  0.63657665  0.09301947  0.81609708  1
  Si  Si21  1  0.86342335  0.59301947  0.18390292  1
  Si  Si22  1  0.86342335  0.09301947  0.31609708  1
  Si  Si23  1  0.13657665  0.90698053  0.68390292  1
  Si  Si24  1  0.83764478  0.62845057  0.59823547  1
  Si  Si25  1  0.16235522  0.37154943  0.40176453  1
  Si  Si26  1  0.16235522  0.87154943  0.09823547  1
  Si  Si27  1  0.33764478  0.37154943  0.90176453  1
  Si  Si28  1  0.83764478  0.12845057  0.90176453  1
  Si  Si29  1  0.66235522  0.62845057  0.09823547  1
  Si  Si30  1  0.66235522  0.12845057  0.40176453  1
  Si  Si31  1  0.33764478  0.87154943  0.59823547  1
  Si  Si32  1  0.59701704  0.65677008  0.88799629  1
  Si  Si33  1  0.40298296  0.34322992  0.11200371  1
  Si  Si34  1  0.40298296  0.84322992  0.38799629  1
  Si  Si35  1  0.09701704  0.34322992  0.61200371  1
  Si  Si36  1  0.59701704  0.15677008  0.61200371  1
  Si  Si37  1  0.90298296  0.65677008  0.38799629  1
  Si  Si38  1  0.90298296  0.15677008  0.11200371  1
  Si  Si39  1  0.09701704  0.84322992  0.88799629  1
  O  O0  1  0.88207133  0.90002260  0.55678227  1
  O  O1  1  0.11792867  0.09997740  0.44321773  1
  O  O2  1  0.11792867  0.59997740  0.05678227  1
  O  O3  1  0.38207133  0.09997740  0.94321773  1
  O  O4  1  0.88207133  0.40002260  0.94321773  1
  O  O5  1  0.61792867  0.90002260  0.05678227  1
  O  O6  1  0.61792867  0.40002260  0.44321773  1
  O  O7  1  0.38207133  0.59997740  0.55678227  1
  O  O8  1  0.62421308  0.98102567  0.83682968  1
  O  O9  1  0.37578692  0.01897433  0.16317032  1
  O  O10  1  0.37578692  0.51897433  0.33682968  1
  O  O11  1  0.12421308  0.01897433  0.66317032  1
  O  O12  1  0.62421308  0.48102567  0.66317032  1
  O  O13  1  0.87578692  0.98102567  0.33682968  1
  O  O14  1  0.87578692  0.48102567  0.16317032  1
  O  O15  1  0.12421308  0.51897433  0.83682968  1
  O  O16  1  0.99249586  0.89796349  0.89132521  1
  O  O17  1  0.00750414  0.10203651  0.10867479  1
  O  O18  1  0.00750414  0.60203651  0.39132521  1
  O  O19  1  0.49249586  0.10203651  0.60867479  1
  O  O20  1  0.99249586  0.39796349  0.60867479  1
  O  O21  1  0.50750414  0.89796349  0.39132521  1
  O  O22  1  0.50750414  0.39796349  0.10867479  1
  O  O23  1  0.49249586  0.60203651  0.89132521  1
  O  O24  1  0.72419212  0.64799042  0.62385599  1
  O  O25  1  0.27580788  0.35200958  0.37614401  1
  O  O26  1  0.27580788  0.85200958  0.12385599  1
  O  O27  1  0.22419212  0.35200958  0.87614401  1
  O  O28  1  0.72419212  0.14799042  0.87614401  1
  O  O29  1  0.77580788  0.64799042  0.12385599  1
  O  O30  1  0.77580788  0.14799042  0.37614401  1
  O  O31  1  0.22419212  0.85200958  0.62385599  1
  O  O32  1  0.87503903  0.53434611  0.65790219  1
  O  O33  1  0.12496097  0.46565389  0.34209781  1
  O  O34  1  0.12496097  0.96565389  0.15790219  1
  O  O35  1  0.37503903  0.46565389  0.84209781  1
  O  O36  1  0.87503903  0.03434611  0.84209781  1
  O  O37  1  0.62496097  0.53434611  0.15790219  1
  O  O38  1  0.62496097  0.03434611  0.34209781  1
  O  O39  1  0.37503903  0.96565389  0.65790219  1
  O  O40  1  0.66022020  0.61056872  0.79855561  1
  O  O41  1  0.33977980  0.38943128  0.20144439  1
  O  O42  1  0.33977980  0.88943128  0.29855561  1
  O  O43  1  0.16022020  0.38943128  0.70144439  1
  O  O44  1  0.66022020  0.11056872  0.70144439  1
  O  O45  1  0.83977980  0.61056872  0.29855561  1
  O  O46  1  0.83977980  0.11056872  0.20144439  1
  O  O47  1  0.16022020  0.88943128  0.79855561  1
  O  O48  1  0.87361740  0.87183902  0.74253888  1
  O  O49  1  0.12638260  0.12816098  0.25746112  1
  O  O50  1  0.12638260  0.62816098  0.24253888  1
  O  O51  1  0.37361740  0.12816098  0.75746112  1
  O  O52  1  0.87361740  0.37183902  0.75746112  1
  O  O53  1  0.62638260  0.87183902  0.24253888  1
  O  O54  1  0.62638260  0.37183902  0.25746112  1
  O  O55  1  0.37361740  0.62816098  0.74253888  1
  O  O56  1  0.58646269  0.77074529  0.88185793  1
  O  O57  1  0.41353731  0.22925471  0.11814207  1
  O  O58  1  0.41353731  0.72925471  0.38185793  1
  O  O59  1  0.08646269  0.22925471  0.61814207  1
  O  O60  1  0.58646269  0.27074529  0.61814207  1
  O  O61  1  0.91353731  0.77074529  0.38185793  1
  O  O62  1  0.91353731  0.27074529  0.11814207  1
  O  O63  1  0.08646269  0.72925471  0.88185793  1
  O  O64  1  0.54253703  0.65917016  0.65349161  1
  O  O65  1  0.45746297  0.34082984  0.34650839  1
  O  O66  1  0.45746297  0.84082984  0.15349161  1
  O  O67  1  0.04253703  0.34082984  0.84650839  1
  O  O68  1  0.54253703  0.15917016  0.84650839  1
  O  O69  1  0.95746297  0.65917016  0.15349161  1
  O  O70  1  0.95746297  0.15917016  0.34650839  1
  O  O71  1  0.04253703  0.84082984  0.65349161  1
  O  O72  1  0.90420311  0.71866166  0.63334312  1
  O  O73  1  0.09579689  0.28133834  0.36665688  1
  O  O74  1  0.09579689  0.78133834  0.13334312  1
  O  O75  1  0.40420311  0.28133834  0.86665688  1
  O  O76  1  0.90420311  0.21866166  0.86665688  1
  O  O77  1  0.59579689  0.71866166  0.13334312  1
  O  O78  1  0.59579689  0.21866166  0.36665688  1
  O  O79  1  0.40420311  0.78133834  0.63334312  1
  O  O80  1  0.80540009  0.86713338  0.92207776  1
  O  O81  1  0.19459991  0.13286662  0.07792224  1
  O  O82  1  0.19459991  0.63286662  0.42207776  1
  O  O83  1  0.30540009  0.13286662  0.57792224  1
  O  O84  1  0.80540009  0.36713338  0.57792224  1
  O  O85  1  0.69459991  0.86713338  0.42207776  1
  O  O86  1  0.69459991  0.36713338  0.07792224  1
  O  O87  1  0.30540009  0.63286662  0.92207776  1
  O  O88  1  0.65589756  0.61439935  0.98267395  1
  O  O89  1  0.34410244  0.38560065  0.01732605  1
  O  O90  1  0.34410244  0.88560065  0.48267395  1
  O  O91  1  0.15589756  0.38560065  0.51732605  1
  O  O92  1  0.65589756  0.11439935  0.51732605  1
  O  O93  1  0.84410244  0.61439935  0.48267395  1
  O  O94  1  0.84410244  0.11439935  0.01732605  1
  O  O95  1  0.15589756  0.88560065  0.98267395  1
loop_
_geom_bond_atom_site_label_1
_geom_bond_atom_site_label_2
_geom_bond_distance
_geom_bond_site_symmetry_2
Cs0 O85 3.138899 1_555
Cs0 O8 3.140089 1_555
Cs0 O64 3.292448 1_555
Cs0 O24 3.322387 1_555
Cs0 O44 3.408764 1_565
Cs0 O48 3.488245 1_555
Cs0 O0 3.522800 1_555
Cs0 O79 3.570572 1_555
Cs1 O83 3.138899 1_555
Cs1 O9 3.140089 1_555
Cs1 O65 3.292448 1_555
Cs1 O25 3.322387 1_555
Cs1 O42 3.408764 1_545
Cs1 O49 3.488245 1_555
Cs1 O1 3.522800 1_555
Cs1 O78 3.570572 1_555
Cs2 O87 3.138899 1_554
Cs2 O10 3.140089 1_555
Cs2 O66 3.292448 1_555
Cs2 O26 3.322387 1_555
Cs2 O41 3.408764 1_555
Cs2 O50 3.488245 1_555
Cs2 O2 3.522800 1_555
Cs2 O77 3.570572 1_555
Cs3 O81 3.138899 1_556
Cs3 O11 3.140089 1_555
Cs3 O67 3.292448 1_555
Cs3 O27 3.322387 1_555
Cs3 O47 3.408764 1_545
Cs3 O51 3.488245 1_555
Cs3 O3 3.522800 1_555
Cs3 O76 3.570572 1_455
Cs4 O86 3.138899 1_556
Cs4 O12 3.140089 1_555
Cs4 O68 3.292448 1_555
Cs4 O28 3.322387 1_555
Cs4 O40 3.408764 1_555
Cs4 O52 3.488245 1_555
Cs4 O4 3.522800 1_555
Cs4 O75 3.570572 1_555
Cs5 O80 3.138899 1_554
Cs5 O13 3.140089 1_555
Cs5 O69 3.292448 1_555
Cs5 O29 3.322387 1_555
Cs5 O46 3.408764 1_565
Cs5 O53 3.488245 1_555
Cs5 O5 3.522800 1_555
Cs5 O74 3.570572 1_655
Cs6 O84 3.138899 1_555
Cs6 O14 3.140089 1_555
Cs6 O70 3.292448 1_555
Cs6 O30 3.322387 1_555
Cs6 O45 3.408764 1_555
Cs6 O54 3.488245 1_555
Cs6 O6 3.522800 1_555
Cs6 O73 3.570572 1_655
Cs7 O82 3.138899 1_555
Cs7 O15 3.140089 1_555
Cs7 O71 3.292448 1_555
Cs7 O31 3.322387 1_555
Cs7 O43 3.408764 1_555
Cs7 O55 3.488245 1_555
Cs7 O7 3.522800 1_555
Cs7 O72 3.570572 1_455
Cs8 O63 3.062389 1_655
Cs8 O4 3.162107 1_555
Cs9 O62 3.062389 1_455
Cs9 O2 3.162107 1_555
Cs10 O61 3.062389 1_455
Cs10 O1 3.162107 1_565
Cs11 O60 3.062389 1_555
Cs11 O7 3.162107 1_555
Cs12 O59 3.062389 1_655
Cs12 O0 3.162107 1_545
Cs13 O58 3.062389 1_555
Cs13 O6 3.162107 1_555
Cs14 O57 3.062389 1_555
Cs14 O5 3.162107 1_545
Cs15 O56 3.062389 1_555
Cs15 O3 3.162107 1_565
O0 Si0 1.597324 1_555
O0 Zn5 1.966348 1_555
O1 Si1 1.597324 1_555
O1 Zn3 1.966348 1_555
O2 Si2 1.597324 1_555
O2 Zn7 1.966348 1_554
O3 Si3 1.597324 1_555
O3 Zn1 1.966348 1_556
O4 Si4 1.597324 1_555
O4 Zn6 1.966348 1_556
O5 Si5 1.597324 1_555
O5 Zn0 1.966348 1_554
O6 Si6 1.597324 1_555
O6 Zn4 1.966348 1_555
O7 Si7 1.597324 1_555
O7 Zn2 1.966348 1_555
O8 Si20 1.589672 1_565
O8 Zn0 1.962354 1_555
O9 Si18 1.589672 1_545
O9 Zn1 1.962354 1_555
O10 Si17 1.589672 1_555
O10 Zn2 1.962354 1_555
O11 Si23 1.589672 1_545
O11 Zn3 1.962354 1_555
O12 Si16 1.589672 1_555
O12 Zn4 1.962354 1_555
O13 Si22 1.589672 1_565
O13 Zn5 1.962354 1_555
O14 Si21 1.589672 1_555
O14 Zn6 1.962354 1_555
O15 Si19 1.589672 1_555
O15 Zn7 1.962354 1_555
O16 Si39 1.638447 1_655
O16 Si8 1.638745 1_555
O17 Si38 1.638447 1_455
O17 Si9 1.638745 1_555
O18 Si37 1.638447 1_455
O18 Si10 1.638745 1_555
O19 Si36 1.638447 1_555
O19 Si11 1.638745 1_555
O20 Si35 1.638447 1_655
O20 Si12 1.638745 1_555
O21 Si34 1.638447 1_555
O21 Si13 1.638745 1_555
O22 Si33 1.638447 1_555
O22 Si14 1.638745 1_555
O23 Si32 1.638447 1_555
O23 Si15 1.638745 1_555
O24 Si24 1.638071 1_555
O24 Si16 1.663637 1_555
O25 Si25 1.638071 1_555
O25 Si17 1.663637 1_555
O26 Si26 1.638071 1_555
O26 Si18 1.663637 1_555
O27 Si27 1.638071 1_555
O27 Si19 1.663637 1_555
O28 Si28 1.638071 1_555
O28 Si20 1.663637 1_555
O29 Si29 1.638071 1_555
O29 Si21 1.663637 1_555
O30 Si30 1.638071 1_555
O30 Si22 1.663637 1_555
O31 Si31 1.638071 1_555
O31 Si23 1.663637 1_555
O32 Si24 1.634339 1_555
O32 Si12 1.666617 1_555
O33 Si25 1.634339 1_555
O33 Si10 1.666617 1_555
O34 Si26 1.634339 1_555
O34 Si9 1.666617 1_565
O35 Si27 1.634339 1_555
O35 Si15 1.666617 1_555
O36 Si28 1.634339 1_555
O36 Si8 1.666617 1_545
O37 Si29 1.634339 1_555
O37 Si14 1.666617 1_555
O38 Si30 1.634339 1_555
O38 Si13 1.666617 1_545
O39 Si31 1.634339 1_555
O39 Si11 1.666617 1_565
O40 Si16 1.656105 1_555
O40 Si32 1.657768 1_555
O41 Si17 1.656105 1_555
O41 Si33 1.657768 1_555
O42 Si18 1.656105 1_555
O42 Si34 1.657768 1_555
O43 Si19 1.656105 1_555
O43 Si35 1.657768 1_555
O44 Si20 1.656105 1_555
O44 Si36 1.657768 1_555
O45 Si21 1.656105 1_555
O45 Si37 1.657768 1_555
O46 Si22 1.656105 1_555
O46 Si38 1.657768 1_555
O47 Si23 1.656105 1_555
O47 Si39 1.657768 1_555
O48 Si8 1.644741 1_555
O48 Si0 1.648812 1_555
O49 Si9 1.644741 1_555
O49 Si1 1.648812 1_555
O50 Si10 1.644741 1_555
O50 Si2 1.648812 1_555
O51 Si11 1.644741 1_555
O51 Si3 1.648812 1_555
O52 Si12 1.644741 1_555
O52 Si4 1.648812 1_555
O53 Si13 1.644741 1_555
O53 Si5 1.648812 1_555
O54 Si14 1.644741 1_555
O54 Si6 1.648812 1_555
O55 Si15 1.644741 1_555
O55 Si7 1.648812 1_555
O56 Si32 1.590087 1_555
O56 Zn0 1.960644 1_555
O57 Si33 1.590087 1_555
O57 Zn1 1.960644 1_555
O58 Si34 1.590087 1_555
O58 Zn2 1.960644 1_555
O59 Si35 1.590087 1_555
O59 Zn3 1.960644 1_555
O60 Si36 1.590087 1_555
O60 Zn4 1.960644 1_555
O61 Si37 1.590087 1_555
O61 Zn5 1.960644 1_555
O62 Si38 1.590087 1_555
O62 Zn6 1.960644 1_555
O63 Si39 1.590087 1_555
O63 Zn7 1.960644 1_555
O64 Si7 1.649130 1_555
O64 Si16 1.651642 1_555
O65 Si6 1.649130 1_555
O65 Si17 1.651642 1_555
O66 Si5 1.649130 1_555
O66 Si18 1.651642 1_555
O67 Si4 1.649130 1_455
O67 Si19 1.651642 1_555
O68 Si3 1.649130 1_555
O68 Si20 1.651642 1_555
O69 Si2 1.649130 1_655
O69 Si21 1.651642 1_555
O70 Si1 1.649130 1_655
O70 Si22 1.651642 1_555
O71 Si0 1.649130 1_455
O71 Si23 1.651642 1_555
O72 Si24 1.631359 1_555
O72 Si0 1.660277 1_555
O73 Si25 1.631359 1_555
O73 Si1 1.660277 1_555
O74 Si26 1.631359 1_555
O74 Si2 1.660277 1_555
O75 Si27 1.631359 1_555
O75 Si3 1.660277 1_555
O76 Si28 1.631359 1_555
O76 Si4 1.660277 1_555
O77 Si29 1.631359 1_555
O77 Si5 1.660277 1_555
O78 Si30 1.631359 1_555
O78 Si6 1.660277 1_555
O79 Si31 1.631359 1_555
O79 Si7 1.660277 1_555
O80 Si8 1.600595 1_555
O80 Zn0 1.958944 1_555
O81 Si9 1.600595 1_555
O81 Zn1 1.958944 1_555
O82 Si10 1.600595 1_555
O82 Zn2 1.958944 1_555
O83 Si11 1.600595 1_555
O83 Zn3 1.958944 1_555
O84 Si12 1.600595 1_555
O84 Zn4 1.958944 1_555
O85 Si13 1.600595 1_555
O85 Zn5 1.958944 1_555
O86 Si14 1.600595 1_555
O86 Zn6 1.958944 1_555
O87 Si15 1.600595 1_555
O87 Zn7 1.958944 1_555
O88 Si29 1.631775 1_556
O88 Si32 1.664365 1_555
O89 Si27 1.631775 1_554
O89 Si33 1.664365 1_555
O90 Si31 1.631775 1_555
O90 Si34 1.664365 1_555
O91 Si25 1.631775 1_555
O91 Si35 1.664365 1_555
O92 Si30 1.631775 1_555
O92 Si36 1.664365 1_555
O93 Si24 1.631775 1_555
O93 Si37 1.664365 1_555
O94 Si28 1.631775 1_554
O94 Si38 1.664365 1_555
O95 Si26 1.631775 1_556
O95 Si39 1.664365 1_555
