# generated using pymatgen
data_Tl5Re6S8Cl7
_symmetry_space_group_name_H-M   'P 1'
_cell_length_a   18.29983022
_cell_length_b   18.29983022
_cell_length_c   18.29983008
_cell_angle_alpha   30.38134180
_cell_angle_beta   30.38134180
_cell_angle_gamma   30.38134189
_symmetry_Int_Tables_number   1
_chemical_formula_structural   Tl5Re6S8Cl7
_chemical_formula_sum   'Tl10 Re12 S16 Cl14'
_cell_volume   1389.28607326
_cell_formula_units_Z   2
loop_
 _symmetry_equiv_pos_site_id
 _symmetry_equiv_pos_as_xyz
  1  'x, y, z'
loop_
 _atom_site_type_symbol
 _atom_site_label
 _atom_site_symmetry_multiplicity
 _atom_site_fract_x
 _atom_site_fract_y
 _atom_site_fract_z
 _atom_site_occupancy
  Tl  Tl0  1  0.74905300  0.44960000  0.05001400  1
  Tl  Tl1  1  0.44960000  0.05001400  0.74905300  1
  Tl  Tl2  1  0.05001400  0.74905300  0.44960000  1
  Tl  Tl3  1  0.55001400  0.94960000  0.24905300  1
  Tl  Tl4  1  0.94960000  0.24905300  0.55001400  1
  Tl  Tl5  1  0.24905300  0.55001400  0.94960000  1
  Tl  Tl6  1  0.84382800  0.84382800  0.84382800  1
  Tl  Tl7  1  0.34382800  0.34382800  0.34382800  1
  Tl  Tl8  1  0.15765800  0.15765800  0.15765800  1
  Tl  Tl9  1  0.65765800  0.65765800  0.65765800  1
  Re  Re0  1  0.34925700  0.66009200  0.55201100  1
  Re  Re1  1  0.66009200  0.55201100  0.34925700  1
  Re  Re2  1  0.55201100  0.34925700  0.66009200  1
  Re  Re3  1  0.05201100  0.16009200  0.84925700  1
  Re  Re4  1  0.16009200  0.84925700  0.05201100  1
  Re  Re5  1  0.84925700  0.05201100  0.16009200  1
  Re  Re6  1  0.65050100  0.33967600  0.44825300  1
  Re  Re7  1  0.33967600  0.44825300  0.65050100  1
  Re  Re8  1  0.44825300  0.65050100  0.33967600  1
  Re  Re9  1  0.94825300  0.83967600  0.15050100  1
  Re  Re10  1  0.83967600  0.15050100  0.94825300  1
  Re  Re11  1  0.15050100  0.94825300  0.83967600  1
  S  S0  1  0.55684600  0.55684600  0.55684600  1
  S  S1  1  0.05684600  0.05684600  0.05684600  1
  S  S2  1  0.44312800  0.44312800  0.44312800  1
  S  S3  1  0.94312800  0.94312800  0.94312800  1
  S  S4  1  0.26117200  0.45955000  0.83644600  1
  S  S5  1  0.45955000  0.83644600  0.26117200  1
  S  S6  1  0.83644600  0.26117200  0.45955000  1
  S  S7  1  0.33644600  0.95955000  0.76117200  1
  S  S8  1  0.95955000  0.76117200  0.33644600  1
  S  S9  1  0.76117200  0.33644600  0.95955000  1
  S  S10  1  0.73940700  0.53962200  0.16367200  1
  S  S11  1  0.53962200  0.16367200  0.73940700  1
  S  S12  1  0.16367200  0.73940700  0.53962200  1
  S  S13  1  0.66367200  0.03962200  0.23940700  1
  S  S14  1  0.03962200  0.23940700  0.66367200  1
  S  S15  1  0.23940700  0.66367200  0.03962200  1
  Cl  Cl0  1  0.14589100  0.86597300  0.63124500  1
  Cl  Cl1  1  0.86597300  0.63124500  0.14589100  1
  Cl  Cl2  1  0.63124500  0.14589100  0.86597300  1
  Cl  Cl3  1  0.13124500  0.36597300  0.64589100  1
  Cl  Cl4  1  0.36597300  0.64589100  0.13124500  1
  Cl  Cl5  1  0.64589100  0.13124500  0.36597300  1
  Cl  Cl6  1  0.85253700  0.12977300  0.37471300  1
  Cl  Cl7  1  0.12977300  0.37471300  0.85253700  1
  Cl  Cl8  1  0.37471300  0.85253700  0.12977300  1
  Cl  Cl9  1  0.87471300  0.62977300  0.35253700  1
  Cl  Cl10  1  0.62977300  0.35253700  0.87471300  1
  Cl  Cl11  1  0.35253700  0.87471300  0.62977300  1
  Cl  Cl12  1  0.23639600  0.23639600  0.23639600  1
  Cl  Cl13  1  0.73639600  0.73639600  0.73639600  1
loop_
_geom_bond_atom_site_label_1
_geom_bond_atom_site_label_2
_geom_bond_distance
_geom_bond_site_symmetry_2
Re0 S5 2.425821 1_555
Re0 S0 2.432407 1_555
Re0 S4 2.435533 1_555
Re0 S12 2.438828 1_555
Re1 S6 2.425821 1_555
Re1 S0 2.432407 1_555
Re1 S5 2.435533 1_555
Re1 S10 2.438828 1_555
Re2 S4 2.425821 1_555
Re2 S0 2.432407 1_555
Re2 S6 2.435533 1_555
Re2 S11 2.438828 1_555
Re3 S9 2.425821 1_455
Re3 S1 2.432407 1_556
Re3 S7 2.435533 1_545
Re3 S14 2.438828 1_555
Re4 S7 2.425821 1_554
Re4 S1 2.432407 1_565
Re4 S8 2.435533 1_455
Re4 S15 2.438828 1_555
Re5 S8 2.425821 1_545
Re5 S1 2.432407 1_655
Re5 S9 2.435533 1_554
Re5 S13 2.438828 1_555
Re6 S11 2.427657 1_555
Re6 S2 2.430278 1_555
Re6 S10 2.435475 1_555
Re6 S6 2.439749 1_555
Re7 S12 2.427657 1_555
Re7 S2 2.430278 1_555
Re7 S11 2.435475 1_555
Re7 S4 2.439749 1_555
Re8 S10 2.427657 1_555
Re8 S2 2.430278 1_555
Re8 S12 2.435475 1_555
Re8 S5 2.439749 1_555
Re9 S15 2.427657 1_655
Re9 S3 2.430278 1_554
Re9 S13 2.435475 1_565
Re9 S8 2.439749 1_555
Re10 S13 2.427657 1_556
Re10 S3 2.430278 1_545
Re10 S14 2.435475 1_655
Re10 S9 2.439749 1_555
Re11 S14 2.427657 1_565
Re11 S3 2.430278 1_455
Re11 S15 2.435475 1_556
Re11 S7 2.439749 1_555
Cl0 Re0 2.463844 1_555
Cl0 Tl6 3.145853 1_455
Cl1 Re1 2.463844 1_555
Cl1 Tl6 3.145853 1_554
Cl2 Re2 2.463844 1_555
Cl2 Tl6 3.145853 1_545
Cl3 Re3 2.463844 1_555
Cl3 Tl7 3.145853 1_555
Cl4 Re4 2.463844 1_555
Cl4 Tl7 3.145853 1_555
Cl5 Re5 2.463844 1_555
Cl5 Tl7 3.145853 1_555
Cl6 Re6 2.463028 1_555
Cl6 Tl8 3.219900 1_655
Cl7 Re7 2.463028 1_555
Cl7 Tl8 3.219900 1_556
Cl8 Re8 2.463028 1_555
Cl8 Tl8 3.219900 1_565
Cl9 Re9 2.463028 1_555
Cl9 Tl9 3.219900 1_555
Cl10 Re10 2.463028 1_555
Cl10 Tl9 3.219900 1_555
Cl11 Re11 2.463028 1_555
Cl11 Tl9 3.219900 1_555
Cl12 Tl4 2.960275 1_455
Cl12 Tl5 2.960275 1_554
Cl12 Tl3 2.960275 1_545
Cl13 Tl0 2.960275 1_556
Cl13 Tl2 2.960275 1_655
Cl13 Tl1 2.960275 1_565
