# generated using pymatgen
data_Te4Mo3WSe4
_symmetry_space_group_name_H-M   'P 1'
_cell_length_a   3.43757947
_cell_length_b   3.43757947
_cell_length_c   39.09432200
_cell_angle_alpha   90.00000000
_cell_angle_beta   90.00000000
_cell_angle_gamma   119.99998987
_symmetry_Int_Tables_number   1
_chemical_formula_structural   Te4Mo3WSe4
_chemical_formula_sum   'Te4 Mo3 W1 Se4'
_cell_volume   400.08277758
_cell_formula_units_Z   1
loop_
 _symmetry_equiv_pos_site_id
 _symmetry_equiv_pos_as_xyz
  1  'x, y, z'
loop_
 _atom_site_type_symbol
 _atom_site_label
 _atom_site_symmetry_multiplicity
 _atom_site_fract_x
 _atom_site_fract_y
 _atom_site_fract_z
 _atom_site_occupancy
  Te  Te0  1  0.00000000  0.00000000  0.32924800  1
  Te  Te1  1  0.00000000  0.00000000  0.70500300  1
  Te  Te2  1  0.00000000  0.00000000  0.23431900  1
  Te  Te3  1  0.00000000  0.00000000  0.61007400  1
  Mo  Mo0  1  0.00000000  0.00000000  0.09392800  1
  Mo  Mo1  1  0.33333300  0.66666700  0.28181600  1
  Mo  Mo2  1  0.33333300  0.66666700  0.65752800  1
  W  W0  1  0.00000000  0.00000000  0.46966500  1
  Se  Se0  1  0.33333300  0.66666700  0.05205200  1
  Se  Se1  1  0.33333300  0.66666700  0.42769000  1
  Se  Se2  1  0.33333300  0.66666700  0.13579700  1
  Se  Se3  1  0.33333300  0.66666700  0.51162600  1
loop_
_geom_bond_atom_site_label_1
_geom_bond_atom_site_label_2
_geom_bond_distance
_geom_bond_site_symmetry_2
Mo0 Se2 2.572590 1_545
Mo0 Se2 2.572593 1_445
Mo0 Se2 2.572593 1_555
Mo0 Se0 2.572765 1_545
Mo0 Se0 2.572767 1_445
Mo0 Se0 2.572767 1_555
Mo1 Te0 2.716153 1_565
Mo1 Te0 2.716155 1_555
Mo1 Te0 2.716155 1_665
Mo1 Te2 2.717888 1_565
Mo1 Te2 2.717891 1_665
Mo1 Te2 2.717891 1_555
Mo2 Te3 2.716740 1_565
Mo2 Te3 2.716742 1_665
Mo2 Te3 2.716742 1_555
Mo2 Te1 2.717301 1_565
Mo2 Te1 2.717303 1_555
Mo2 Te1 2.717303 1_665
Se1 W0 2.575229 1_565
Se1 W0 2.575232 1_665
Se1 W0 2.575232 1_555
Se3 W0 2.574880 1_565
Se3 W0 2.574883 1_665
Se3 W0 2.574883 1_555
