# generated using pymatgen
data_La4Si2Se3O7
_symmetry_space_group_name_H-M   'P 1'
_cell_length_a   11.45046435
_cell_length_b   11.45046435
_cell_length_c   11.45046435
_cell_angle_alpha   114.67610153
_cell_angle_beta   114.67610153
_cell_angle_gamma   99.49861794
_symmetry_Int_Tables_number   1
_chemical_formula_structural   La4Si2Se3O7
_chemical_formula_sum   'La16 Si8 Se12 O28'
_cell_volume   1130.12412786
_cell_formula_units_Z   4
loop_
 _symmetry_equiv_pos_site_id
 _symmetry_equiv_pos_as_xyz
  1  'x, y, z'
loop_
 _atom_site_type_symbol
 _atom_site_label
 _atom_site_symmetry_multiplicity
 _atom_site_fract_x
 _atom_site_fract_y
 _atom_site_fract_z
 _atom_site_occupancy
  La  La0  1  0.82784500  0.17215500  0.00000000  1
  La  La1  1  0.17215500  0.82784500  0.00000000  1
  La  La2  1  0.92215500  0.42215500  0.84430900  1
  La  La3  1  0.57784500  0.07784500  0.15569100  1
  La  La4  1  0.82784500  0.82784500  0.65569100  1
  La  La5  1  0.57784500  0.42215500  0.50000000  1
  La  La6  1  0.92215500  0.07784500  0.50000000  1
  La  La7  1  0.17215500  0.17215500  0.34430900  1
  La  La8  1  0.20930600  0.94927800  0.73997300  1
  La  La9  1  0.20930600  0.46933300  0.26002700  1
  La  La10  1  0.05072200  0.79069400  0.26002700  1
  La  La11  1  0.21933300  0.45930600  0.76002700  1
  La  La12  1  0.69927800  0.45930600  0.23997300  1
  La  La13  1  0.54069400  0.78066700  0.23997300  1
  La  La14  1  0.54069400  0.30072200  0.76002700  1
  La  La15  1  0.53066700  0.79069400  0.73997300  1
  Si  Si0  1  0.96926800  0.34592000  0.37665200  1
  Si  Si1  1  0.96926800  0.59261500  0.62334800  1
  Si  Si2  1  0.65408000  0.03073200  0.62334800  1
  Si  Si3  1  0.34261500  0.21926800  0.12334800  1
  Si  Si4  1  0.09592000  0.21926800  0.87665200  1
  Si  Si5  1  0.78073200  0.65738500  0.87665200  1
  Si  Si6  1  0.78073200  0.90408000  0.12334800  1
  Si  Si7  1  0.40738500  0.03073200  0.37665200  1
  Se  Se0  1  0.87500000  0.47840900  0.10340900  1
  Se  Se1  1  0.22840900  0.62500000  0.10340900  1
  Se  Se2  1  0.52159100  0.12500000  0.89659100  1
  Se  Se3  1  0.37500000  0.77159100  0.89659100  1
  Se  Se4  1  0.87500000  0.77159100  0.39659100  1
  Se  Se5  1  0.52159100  0.62500000  0.39659100  1
  Se  Se6  1  0.22840900  0.12500000  0.60340900  1
  Se  Se7  1  0.37500000  0.47840900  0.60340900  1
  Se  Se8  1  0.25000000  0.75000000  0.50000000  1
  Se  Se9  1  0.50000000  0.50000000  0.00000000  1
  Se  Se10  1  0.75000000  0.25000000  0.50000000  1
  Se  Se11  1  0.00000000  0.00000000  0.00000000  1
  O  O0  1  0.04505600  0.32177200  0.27671600  1
  O  O1  1  0.04505600  0.76833900  0.72328400  1
  O  O2  1  0.67822800  0.95494400  0.72328400  1
  O  O3  1  0.51833900  0.29505600  0.22328400  1
  O  O4  1  0.07177200  0.29505600  0.77671600  1
  O  O5  1  0.70494400  0.48166100  0.77671600  1
  O  O6  1  0.70494400  0.92822800  0.22328400  1
  O  O7  1  0.23166100  0.95494400  0.27671600  1
  O  O8  1  0.26383700  0.26383700  0.00000000  1
  O  O9  1  0.01383700  0.51383700  0.50000000  1
  O  O10  1  0.48616300  0.98616300  0.50000000  1
  O  O11  1  0.73616300  0.73616300  0.00000000  1
  O  O12  1  0.71657500  0.97313200  0.02367900  1
  O  O13  1  0.94945300  0.69289500  0.97632100  1
  O  O14  1  0.02686800  0.28342500  0.97632100  1
  O  O15  1  0.44289500  0.96657500  0.24344200  1
  O  O16  1  0.44289500  0.19945300  0.47632100  1
  O  O17  1  0.30710500  0.05054700  0.02367900  1
  O  O18  1  0.71657500  0.69289500  0.74344200  1
  O  O19  1  0.02686800  0.05054700  0.74344200  1
  O  O20  1  0.30710500  0.28342500  0.25655800  1
  O  O21  1  0.72313200  0.96657500  0.52367900  1
  O  O22  1  0.80054700  0.55710500  0.52367900  1
  O  O23  1  0.03342500  0.27686800  0.47632100  1
  O  O24  1  0.72313200  0.19945300  0.75655800  1
  O  O25  1  0.03342500  0.55710500  0.75655800  1
  O  O26  1  0.80054700  0.27686800  0.24344200  1
  O  O27  1  0.94945300  0.97313200  0.25655800  1
loop_
_geom_bond_atom_site_label_1
_geom_bond_atom_site_label_2
_geom_bond_distance
_geom_bond_site_symmetry_2
La0 O0 2.577130 1_655
La0 O2 2.577130 1_544
La0 O12 2.595439 1_545
La0 O14 2.595439 1_654
La0 O26 2.714060 1_555
La0 O24 2.714060 1_554
La0 Se11 3.009020 1_655
La0 Se2 3.060240 1_554
La0 Se0 3.060240 1_555
La1 O7 2.577126 1_555
La1 O1 2.577126 1_554
La1 O17 2.595443 1_565
La1 O13 2.595443 1_454
La1 O25 2.714060 1_554
La1 O15 2.714060 1_555
La1 Se11 3.009020 1_565
La1 Se1 3.060240 1_555
La1 Se3 3.060240 1_554
La2 O4 2.577126 1_655
La2 O5 2.577137 1_555
La2 O25 2.595427 1_655
La2 O24 2.595448 1_555
La2 O13 2.714060 1_555
La2 O14 2.714077 1_655
La2 Se10 3.009012 1_555
La2 Se1 3.060242 1_656
La2 Se0 3.060251 1_556
La3 O6 2.577126 1_545
La3 O3 2.577137 1_555
La3 O15 2.595427 1_545
La3 O26 2.595448 1_555
La3 O17 2.714060 1_555
La3 O12 2.714077 1_545
La3 Se10 3.009012 1_555
La3 Se3 3.060242 1_544
La3 Se2 3.060251 1_554
La4 O2 2.577126 1_555
La4 O1 2.577137 1_655
La4 O18 2.595427 1_555
La4 O19 2.595448 1_665
La4 O22 2.714060 1_555
La4 O21 2.714077 1_555
La4 Se11 3.009012 1_666
La4 Se5 3.060242 1_555
La4 Se4 3.060251 1_555
La5 O5 2.577126 1_555
La5 O3 2.577126 1_555
La5 O16 2.595443 1_555
La5 O22 2.595443 1_555
La5 O18 2.714060 1_555
La5 O20 2.714060 1_555
La5 Se10 3.009020 1_555
La5 Se7 3.060240 1_555
La5 Se5 3.060240 1_555
La6 O4 2.577130 1_655
La6 O6 2.577130 1_545
La6 O23 2.595439 1_655
La6 O21 2.595439 1_545
La6 O19 2.714060 1_655
La6 O27 2.714060 1_545
La6 Se10 3.009020 1_555
La6 Se6 3.060240 1_655
La6 Se4 3.060240 1_545
La7 O0 2.577126 1_555
La7 O7 2.577137 1_545
La7 O20 2.595427 1_555
La7 O27 2.595448 1_445
La7 O16 2.714060 1_555
La7 O23 2.714077 1_555
La7 Se11 3.009012 1_555
La7 Se7 3.060242 1_555
La7 Se6 3.060251 1_555
La8 O1 2.439152 1_555
La8 O17 2.557419 1_566
La8 O19 2.557428 1_565
La8 Se8 3.026380 1_555
La8 Se2 3.051072 1_565
La8 Se6 3.051079 1_565
La8 Se3 3.526332 1_555
La8 Se4 3.526343 1_455
La9 O0 2.439152 1_555
La9 O14 2.557423 1_554
La9 O20 2.557431 1_555
La9 Se8 3.026384 1_555
La9 Se1 3.051070 1_555
La9 Se5 3.051070 1_555
La9 Se0 3.526342 1_455
La9 Se7 3.526342 1_555
La10 O7 2.439152 1_555
La10 O13 2.557419 1_454
La10 O27 2.557428 1_455
La10 Se8 3.026380 1_555
La10 Se0 3.051072 1_455
La10 Se4 3.051079 1_455
La10 Se1 3.526332 1_555
La10 Se6 3.526343 1_565
La11 O4 2.439152 1_555
La11 O23 2.557423 1_555
La11 O25 2.557431 1_555
La11 Se9 3.026384 1_556
La11 Se3 3.051070 1_555
La11 Se7 3.051070 1_555
La11 Se6 3.526342 1_555
La11 Se1 3.526342 1_556
La12 O3 2.439152 1_555
La12 O22 2.557419 1_555
La12 O26 2.557428 1_555
La12 Se9 3.026380 1_555
La12 Se4 3.051072 1_555
La12 Se0 3.051079 1_555
La12 Se5 3.526332 1_555
La12 Se2 3.526343 1_554
La13 O6 2.439152 1_555
La13 O21 2.557423 1_555
La13 O15 2.557431 1_555
La13 Se9 3.026384 1_555
La13 Se5 3.051070 1_555
La13 Se1 3.051070 1_555
La13 Se4 3.526342 1_555
La13 Se3 3.526342 1_554
La14 O5 2.439152 1_555
La14 O16 2.557419 1_555
La14 O24 2.557428 1_555
La14 Se9 3.026380 1_556
La14 Se6 3.051072 1_555
La14 Se2 3.051079 1_555
La14 Se7 3.526332 1_555
La14 Se0 3.526343 1_556
La15 O2 2.439152 1_555
La15 O12 2.557423 1_556
La15 O18 2.557431 1_555
La15 Se8 3.026384 1_555
La15 Se3 3.051070 1_555
La15 Se7 3.051070 1_555
La15 Se2 3.526342 1_565
La15 Se5 3.526342 1_555
O0 Si0 1.668283 1_455
O1 Si1 1.668283 1_455
O2 Si2 1.668283 1_565
O3 Si3 1.668283 1_555
O4 Si4 1.668283 1_555
O5 Si5 1.668283 1_555
O6 Si6 1.668283 1_555
O7 Si7 1.668283 1_565
O8 Si3 1.661014 1_555
O8 Si4 1.661016 1_554
O9 Si1 1.661014 1_455
O9 Si0 1.661016 1_455
O10 Si7 1.661014 1_565
O10 Si2 1.661016 1_565
O11 Si5 1.661014 1_554
O11 Si6 1.661016 1_555
O12 Si6 1.646947 1_555
O13 Si5 1.646953 1_555
O14 Si4 1.646947 1_555
O15 Si7 1.646941 1_565
O16 Si7 1.646953 1_555
O17 Si3 1.646953 1_555
O18 Si5 1.646941 1_555
O19 Si4 1.646950 1_555
O20 Si3 1.646941 1_555
O21 Si2 1.646947 1_565
O22 Si1 1.646953 1_555
O23 Si0 1.646947 1_455
O24 Si2 1.646950 1_555
O25 Si1 1.646941 1_455
O26 Si0 1.646950 1_555
O27 Si6 1.646950 1_555
