# generated using pymatgen
data_Li7Mn4CoO12
_symmetry_space_group_name_H-M   'P 1'
_cell_length_a   3.00501000
_cell_length_b   6.03420971
_cell_length_c   12.56209192
_cell_angle_alpha   76.45526864
_cell_angle_beta   87.99564927
_cell_angle_gamma   85.49960604
_symmetry_Int_Tables_number   1
_chemical_formula_structural   Li7Mn4CoO12
_chemical_formula_sum   'Li7 Mn4 Co1 O12'
_cell_volume   220.73615683
_cell_formula_units_Z   1
loop_
 _symmetry_equiv_pos_site_id
 _symmetry_equiv_pos_as_xyz
  1  'x, y, z'
loop_
 _atom_site_type_symbol
 _atom_site_label
 _atom_site_symmetry_multiplicity
 _atom_site_fract_x
 _atom_site_fract_y
 _atom_site_fract_z
 _atom_site_occupancy
  Li  Li0  1  0.00152900  0.49697100  0.00412800  1
  Li  Li1  1  0.49874400  0.33272900  0.83357500  1
  Li  Li2  1  0.50198000  0.65395700  0.17562000  1
  Li  Li3  1  0.99377600  0.82376100  0.32730800  1
  Li  Li4  1  0.49638300  0.01085800  0.49212900  1
  Li  Li5  1  0.00327900  0.17018400  0.66724100  1
  Li  Li6  1  0.01031000  0.34776900  0.32832600  1
  Mn  Mn0  1  0.00233300  0.00235100  0.00473800  1
  Mn  Mn1  1  0.49631300  0.49504500  0.49213000  1
  Mn  Mn2  1  0.49906400  0.83482100  0.83454300  1
  Mn  Mn3  1  0.99151000  0.66162700  0.66623700  1
  Co  Co0  1  0.50785000  0.17414000  0.17552500  1
  O  O0  1  0.52792200  0.23665100  0.01480400  1
  O  O1  1  0.03373700  0.07672500  0.84115200  1
  O  O2  1  0.02858400  0.39487000  0.16693800  1
  O  O3  1  0.50412300  0.57944400  0.34418300  1
  O  O4  1  0.97085600  0.71747100  0.50351900  1
  O  O5  1  0.53051000  0.90554000  0.67041700  1
  O  O6  1  0.47099800  0.76188000  0.99403500  1
  O  O7  1  0.96639300  0.59228500  0.82694500  1
  O  O8  1  0.97542300  0.93162000  0.16246000  1
  O  O9  1  0.49859000  0.08809600  0.31789800  1
  O  O10  1  0.02530200  0.28250900  0.49847400  1
  O  O11  1  0.46448900  0.42869500  0.65767600  1
loop_
_geom_bond_atom_site_label_1
_geom_bond_atom_site_label_2
_geom_bond_distance
_geom_bond_site_symmetry_2
Li0 O2 1.995674 1_555
Li0 O0 2.124581 1_555
Li0 O6 2.152264 1_454
Li0 O7 2.168721 1_454
Li0 O0 2.179395 1_455
Li0 O6 2.192721 1_554
Li1 O1 2.128866 1_655
Li1 O7 2.138714 1_455
Li1 O1 2.146759 1_555
Li1 O11 2.153072 1_555
Li1 O7 2.170466 1_555
Li1 O0 2.216873 1_556
Li2 O3 2.059263 1_555
Li2 O2 2.154012 1_655
Li2 O8 2.193345 1_455
Li2 O2 2.217991 1_555
Li2 O6 2.223880 1_554
Li2 O8 2.255330 1_555
Li3 O8 2.021395 1_555
Li3 O3 2.022831 1_655
Li3 O9 2.079407 1_565
Li3 O3 2.134397 1_555
Li3 O4 2.155757 1_555
Li3 O9 2.266766 1_665
Li4 O10 2.094376 1_555
Li4 O9 2.128227 1_555
Li4 O4 2.164956 1_545
Li4 O5 2.183953 1_545
Li4 O10 2.387146 1_655
Li4 O4 2.439846 1_445
Li5 O10 2.069445 1_555
Li5 O1 2.127922 1_555
Li5 O11 2.144436 1_455
Li5 O11 2.146723 1_555
Li5 O5 2.153923 1_545
Li5 O5 2.211850 1_445
Li6 O2 1.979592 1_555
Li6 O3 2.020714 1_455
Li6 O10 2.082147 1_555
Li6 O9 2.085001 1_555
Li6 O3 2.161638 1_555
Li6 O9 2.307674 1_455
Mn0 O8 1.926766 1_445
Mn0 O0 1.949886 1_455
Mn0 O6 1.965833 1_544
Mn0 O1 1.998589 1_554
Mn0 O0 2.226546 1_555
Mn0 O6 2.267811 1_444
Mn1 O3 1.808176 1_555
Mn1 O10 1.954242 1_655
Mn1 O10 1.970675 1_555
Mn1 O4 2.014122 1_455
Mn1 O11 2.023929 1_555
Mn1 O4 2.063963 1_555
Mn2 O6 1.948333 1_555
Mn2 O1 1.954794 1_565
Mn2 O7 1.963833 1_555
Mn2 O5 2.005615 1_555
Mn2 O1 2.270075 1_665
Mn2 O7 2.270884 1_455
Mn3 O11 1.937494 1_655
Mn3 O5 1.949164 1_555
Mn3 O7 1.963432 1_555
Mn3 O4 1.994646 1_555
Mn3 O11 2.219759 1_555
Mn3 O5 2.282260 1_655
Co0 O9 1.741526 1_555
Co0 O2 1.871466 1_555
Co0 O0 1.964834 1_555
Co0 O8 1.978993 1_545
Co0 O2 2.117140 1_655
Co0 O8 2.286191 1_445
