# generated using pymatgen
data_Re2P3N2(Cl5O)3
_symmetry_space_group_name_H-M   'P 1'
_cell_length_a   12.14201700
_cell_length_b   12.78404225
_cell_length_c   19.71016997
_cell_angle_alpha   72.16706443
_cell_angle_beta   73.84256905
_cell_angle_gamma   84.66062115
_symmetry_Int_Tables_number   1
_chemical_formula_structural   Re2P3N2(Cl5O)3
_chemical_formula_sum   'Re8 P12 N8 Cl60 O12'
_cell_volume   2797.35051209
_cell_formula_units_Z   4
loop_
 _symmetry_equiv_pos_site_id
 _symmetry_equiv_pos_as_xyz
  1  'x, y, z'
loop_
 _atom_site_type_symbol
 _atom_site_label
 _atom_site_symmetry_multiplicity
 _atom_site_fract_x
 _atom_site_fract_y
 _atom_site_fract_z
 _atom_site_occupancy
  Re  Re0  1  0.82316800  0.95408600  0.11733800  1
  Re  Re1  1  0.17683200  0.04591400  0.88266200  1
  Re  Re2  1  0.09755000  0.10590600  0.06358800  1
  Re  Re3  1  0.90245000  0.89409400  0.93641200  1
  Re  Re4  1  0.37975900  0.55588700  0.40133300  1
  Re  Re5  1  0.62024100  0.44411300  0.59866700  1
  Re  Re6  1  0.65658200  0.40891300  0.41274900  1
  Re  Re7  1  0.34341800  0.59108700  0.58725100  1
  P  P0  1  0.74221600  0.99798900  0.30384700  1
  P  P1  1  0.25778400  0.00201100  0.69615300  1
  P  P2  1  0.39640200  0.22075200  0.02129600  1
  P  P3  1  0.60359800  0.77924800  0.97870400  1
  P  P4  1  0.09759100  0.69429700  0.39048300  1
  P  P5  1  0.90240900  0.30570300  0.60951700  1
  P  P6  1  0.68639200  0.41929400  0.21323700  1
  P  P7  1  0.31360800  0.58070600  0.78676300  1
  P  P8  1  0.79909400  0.50456500  0.85978800  1
  P  P9  1  0.20090600  0.49543500  0.14021200  1
  P  P10  1  0.79019800  0.90398500  0.62151400  1
  P  P11  1  0.20980200  0.09601500  0.37848600  1
  N  N0  1  0.84917000  0.92312200  0.03536700  1
  N  N1  1  0.15083000  0.07687800  0.96463300  1
  N  N2  1  0.97253600  0.03473000  0.09211500  1
  N  N3  1  0.02746400  0.96527000  0.90788500  1
  N  N4  1  0.49282000  0.51455600  0.59890000  1
  N  N5  1  0.50718000  0.48544400  0.40110000  1
  N  N6  1  0.64456100  0.42361700  0.49795800  1
  N  N7  1  0.35543900  0.57638300  0.50204200  1
  Cl  Cl0  1  0.73983000  0.12786500  0.08245800  1
  Cl  Cl1  1  0.26017000  0.87213500  0.91754200  1
  Cl  Cl2  1  0.64355700  0.87854500  0.17757900  1
  Cl  Cl3  1  0.35644300  0.12145500  0.82242100  1
  Cl  Cl4  1  0.90762600  0.79776500  0.18110000  1
  Cl  Cl5  1  0.09237400  0.20223500  0.81890000  1
  Cl  Cl6  1  0.71944800  0.84786100  0.37472900  1
  Cl  Cl7  1  0.28055200  0.15213900  0.62527100  1
  Cl  Cl8  1  0.82622700  0.08140400  0.34328800  1
  Cl  Cl9  1  0.17377300  0.91859600  0.65671200  1
  Cl  Cl10  1  0.58528700  0.06493400  0.31493800  1
  Cl  Cl11  1  0.41471300  0.93506600  0.68506200  1
  Cl  Cl12  1  0.21872300  0.96166000  0.10618800  1
  Cl  Cl13  1  0.78127700  0.03834000  0.89381200  1
  Cl  Cl14  1  0.08551600  0.16538100  0.16529800  1
  Cl  Cl15  1  0.91448400  0.83461900  0.83470200  1
  Cl  Cl16  1  0.03350400  0.27669300  0.00293800  1
  Cl  Cl17  1  0.96649600  0.72330700  0.99706200  1
  Cl  Cl18  1  0.45003200  0.37587900  0.98716400  1
  Cl  Cl19  1  0.54996800  0.62412100  0.01283600  1
  Cl  Cl20  1  0.51419900  0.14705200  0.95825000  1
  Cl  Cl21  1  0.48580100  0.85294800  0.04175000  1
  Cl  Cl22  1  0.41846500  0.15957700  0.12242400  1
  Cl  Cl23  1  0.58153500  0.84042300  0.87757600  1
  Cl  Cl24  1  0.25826000  0.40435200  0.45793100  1
  Cl  Cl25  1  0.74174000  0.59564800  0.54206900  1
  Cl  Cl26  1  0.54956800  0.26592200  0.64878900  1
  Cl  Cl27  1  0.45043200  0.73407800  0.35121100  1
  Cl  Cl28  1  0.35724500  0.56059500  0.28727700  1
  Cl  Cl29  1  0.64275500  0.43940500  0.71272300  1
  Cl  Cl30  1  0.00005500  0.57527400  0.39400800  1
  Cl  Cl31  1  0.99994500  0.42472600  0.60599200  1
  Cl  Cl32  1  0.99926900  0.22094400  0.54477400  1
  Cl  Cl33  1  0.00073100  0.77905600  0.45522600  1
  Cl  Cl34  1  0.87828400  0.20466000  0.71198100  1
  Cl  Cl35  1  0.12171600  0.79534000  0.28801900  1
  Cl  Cl36  1  0.74492700  0.57491500  0.33906800  1
  Cl  Cl37  1  0.25507300  0.42508500  0.66093200  1
  Cl  Cl38  1  0.56464400  0.24027700  0.45120000  1
  Cl  Cl39  1  0.43535600  0.75972300  0.54880000  1
  Cl  Cl40  1  0.83410100  0.32117700  0.39304800  1
  Cl  Cl41  1  0.16589900  0.67882300  0.60695200  1
  Cl  Cl42  1  0.82693300  0.34440700  0.16871500  1
  Cl  Cl43  1  0.17306700  0.65559300  0.83128500  1
  Cl  Cl44  1  0.71080500  0.57853800  0.16078300  1
  Cl  Cl45  1  0.28919500  0.42146200  0.83921700  1
  Cl  Cl46  1  0.56150500  0.37551300  0.18002200  1
  Cl  Cl47  1  0.43849500  0.62448700  0.81997800  1
  Cl  Cl48  1  0.79158600  0.34108100  0.88057000  1
  Cl  Cl49  1  0.20841400  0.65891900  0.11943000  1
  Cl  Cl50  1  0.85819600  0.52154800  0.94153400  1
  Cl  Cl51  1  0.14180400  0.47845200  0.05846600  1
  Cl  Cl52  1  0.93108900  0.55171600  0.76960400  1
  Cl  Cl53  1  0.06891100  0.44828400  0.23039600  1
  Cl  Cl54  1  0.72144100  0.97452400  0.53631400  1
  Cl  Cl55  1  0.27855900  0.02547600  0.46368600  1
  Cl  Cl56  1  0.72845700  0.99859800  0.68891000  1
  Cl  Cl57  1  0.27154300  0.00140200  0.31109000  1
  Cl  Cl58  1  0.70529200  0.76209600  0.67436800  1
  Cl  Cl59  1  0.29470800  0.23790400  0.32563200  1
  O  O0  1  0.80277300  0.00147800  0.22646900  1
  O  O1  1  0.19722700  0.99852200  0.77353100  1
  O  O2  1  0.27806900  0.21077900  0.01653500  1
  O  O3  1  0.72193100  0.78922100  0.98346500  1
  O  O4  1  0.20466200  0.65423600  0.41294300  1
  O  O5  1  0.79533800  0.34576400  0.58705700  1
  O  O6  1  0.65962700  0.39079700  0.29489000  1
  O  O7  1  0.34037300  0.60920300  0.70511000  1
  O  O8  1  0.69098800  0.56383500  0.85367400  1
  O  O9  1  0.30901200  0.43616500  0.14632600  1
  O  O10  1  0.91544100  0.89236200  0.60068500  1
  O  O11  1  0.08455900  0.10763800  0.39931500  1
loop_
_geom_bond_atom_site_label_1
_geom_bond_atom_site_label_2
_geom_bond_distance
_geom_bond_site_symmetry_2
N0 Re0 1.717934 1_555
N0 Re3 2.014137 1_554
N1 Re1 1.717934 1_555
N1 Re2 2.014137 1_556
N2 Re2 1.707884 1_655
N2 Re0 2.032615 1_545
N3 Re3 1.707884 1_455
N3 Re1 2.032615 1_565
N4 Re5 1.715793 1_555
N4 Re7 2.016084 1_555
N5 Re4 1.715793 1_555
N5 Re6 2.016084 1_555
N6 Re6 1.711470 1_555
N6 Re5 2.018410 1_555
N7 Re7 1.711470 1_555
N7 Re4 2.018410 1_555
Cl0 Re0 2.337819 1_545
Cl1 Re1 2.337819 1_565
Cl2 Re0 2.312355 1_555
Cl3 Re1 2.312355 1_555
Cl4 Re0 2.328593 1_555
Cl5 Re1 2.328593 1_555
Cl6 P0 1.988287 1_555
Cl7 P1 1.988287 1_555
Cl8 P0 1.983321 1_545
Cl9 P1 1.983321 1_565
Cl10 P0 1.997543 1_545
Cl11 P1 1.997543 1_565
Cl12 Re2 2.346161 1_565
Cl13 Re3 2.346161 1_545
Cl14 Re2 2.316946 1_555
Cl15 Re3 2.316946 1_555
Cl16 Re2 2.324558 1_555
Cl17 Re3 2.324558 1_555
Cl18 P2 1.997217 1_556
Cl19 P3 1.997217 1_554
Cl20 P2 1.988649 1_556
Cl21 P3 1.988649 1_554
Cl22 P2 1.989939 1_555
Cl23 P3 1.989939 1_555
Cl24 Re4 2.337944 1_555
Cl25 Re5 2.337944 1_555
Cl26 Re5 2.327065 1_555
Cl27 Re4 2.327065 1_555
Cl28 Re4 2.321256 1_555
Cl29 Re5 2.321256 1_555
Cl30 P4 1.986814 1_555
Cl31 P5 1.986814 1_555
Cl32 P5 1.990011 1_555
Cl33 P4 1.990011 1_555
Cl34 P5 1.994102 1_555
Cl35 P4 1.994102 1_555
Cl36 Re6 2.330742 1_555
Cl37 Re7 2.330742 1_555
Cl38 Re6 2.333352 1_555
Cl39 Re7 2.333352 1_555
Cl40 Re6 2.325023 1_555
Cl41 Re7 2.325023 1_555
Cl42 P6 1.993908 1_555
Cl43 P7 1.993908 1_555
Cl44 P6 1.988415 1_555
Cl45 P7 1.988415 1_555
Cl46 P6 1.994031 1_555
Cl47 P7 1.994031 1_555
Cl48 P8 2.008599 1_555
Cl49 P9 2.008599 1_555
Cl50 P8 2.011202 1_555
Cl51 P9 2.011202 1_555
Cl52 P8 2.007386 1_555
Cl53 P9 2.007386 1_555
Cl54 P10 2.010691 1_555
Cl55 P11 2.010691 1_555
Cl56 P10 2.012632 1_555
Cl57 P11 2.012632 1_555
Cl58 P10 2.007804 1_555
Cl59 P11 2.007804 1_555
O0 P0 1.486263 1_545
O0 Re0 2.351375 1_545
O1 P1 1.486263 1_565
O1 Re1 2.351375 1_565
O2 P2 1.485234 1_555
O2 Re2 2.473025 1_555
O3 P3 1.485234 1_555
O3 Re3 2.473025 1_555
O4 P4 1.485243 1_555
O4 Re4 2.358207 1_555
O5 P5 1.485243 1_555
O5 Re5 2.358207 1_555
O6 P6 1.483347 1_555
O6 Re6 2.394066 1_555
O7 P7 1.483347 1_555
O7 Re7 2.394066 1_555
O8 P8 1.469231 1_555
O9 P9 1.469231 1_555
O10 P10 1.466631 1_555
O11 P11 1.466631 1_555
