# generated using pymatgen
data_KMnP2H5O9
_symmetry_space_group_name_H-M   'P 1'
_cell_length_a   6.74500900
_cell_length_b   7.87922100
_cell_length_c   15.94011000
_cell_angle_alpha   90.00000000
_cell_angle_beta   90.00000000
_cell_angle_gamma   90.00000000
_symmetry_Int_Tables_number   1
_chemical_formula_structural   KMnP2H5O9
_chemical_formula_sum   'K4 Mn4 P8 H20 O36'
_cell_volume   847.14378593
_cell_formula_units_Z   4
loop_
 _symmetry_equiv_pos_site_id
 _symmetry_equiv_pos_as_xyz
  1  'x, y, z'
loop_
 _atom_site_type_symbol
 _atom_site_label
 _atom_site_symmetry_multiplicity
 _atom_site_fract_x
 _atom_site_fract_y
 _atom_site_fract_z
 _atom_site_occupancy
  K  K0  1  0.37578100  0.74465800  0.53768100  1
  K  K1  1  0.12421900  0.74465800  0.03768100  1
  K  K2  1  0.62421900  0.24465800  0.46231900  1
  K  K3  1  0.87578100  0.24465800  0.96231900  1
  Mn  Mn0  1  0.05830600  0.75031700  0.80435500  1
  Mn  Mn1  1  0.44169400  0.75031700  0.30435500  1
  Mn  Mn2  1  0.94169400  0.25031700  0.19564500  1
  Mn  Mn3  1  0.55830600  0.25031700  0.69564500  1
  P  P0  1  0.85685200  0.93747100  0.63556400  1
  P  P1  1  0.63345000  0.55641300  0.13272900  1
  P  P2  1  0.14314800  0.43747100  0.36443600  1
  P  P3  1  0.36655000  0.05641300  0.86727100  1
  P  P4  1  0.13345000  0.05641300  0.36727100  1
  P  P5  1  0.35685200  0.43747100  0.86443600  1
  P  P6  1  0.86655000  0.55641300  0.63272900  1
  P  P7  1  0.64314800  0.93747100  0.13556400  1
  H  H0  1  0.89751000  0.14813100  0.76605800  1
  H  H1  1  0.60265900  0.35604900  0.26461900  1
  H  H2  1  0.10249000  0.64813100  0.23394200  1
  H  H3  1  0.39734100  0.85604900  0.73538100  1
  H  H4  1  0.10265900  0.85604900  0.23538100  1
  H  H5  1  0.39751000  0.64813100  0.73394200  1
  H  H6  1  0.89734100  0.35604900  0.76461900  1
  H  H7  1  0.60249000  0.14813100  0.26605800  1
  H  H8  1  0.21782800  0.15284100  0.60334900  1
  H  H9  1  0.28477300  0.35275300  0.10058300  1
  H  H10  1  0.78217200  0.65284100  0.39665100  1
  H  H11  1  0.71522700  0.85275300  0.89941700  1
  H  H12  1  0.78477300  0.85275300  0.39941700  1
  H  H13  1  0.71782800  0.65284100  0.89665100  1
  H  H14  1  0.21522700  0.35275300  0.60058300  1
  H  H15  1  0.28217200  0.15284100  0.10334900  1
  H  H16  1  0.00531600  0.99568300  0.51155300  1
  H  H17  1  0.99468400  0.49568300  0.48844700  1
  H  H18  1  0.50531600  0.49568300  0.98844700  1
  H  H19  1  0.49468400  0.99568300  0.01155300  1
  O  O0  1  0.78072900  0.74850900  0.61214500  1
  O  O1  1  0.71927100  0.74850900  0.11214500  1
  O  O2  1  0.21927100  0.24850900  0.38785500  1
  O  O3  1  0.28072900  0.24850900  0.88785500  1
  O  O4  1  0.82563900  0.25229500  0.78397700  1
  O  O5  1  0.67436100  0.25229500  0.28397700  1
  O  O6  1  0.17436100  0.75229500  0.21602300  1
  O  O7  1  0.32563900  0.75229500  0.71602300  1
  O  O8  1  0.68464500  0.05239500  0.61246900  1
  O  O9  1  0.81133100  0.44404100  0.11290000  1
  O  O10  1  0.31535500  0.55239500  0.38753100  1
  O  O11  1  0.18866900  0.94404100  0.88710000  1
  O  O12  1  0.31133100  0.94404100  0.38710000  1
  O  O13  1  0.18464500  0.55239500  0.88753100  1
  O  O14  1  0.68866900  0.44404100  0.61290000  1
  O  O15  1  0.81535500  0.05239500  0.11246900  1
  O  O16  1  0.30537600  0.25331300  0.60406000  1
  O  O17  1  0.19462400  0.25331300  0.10406000  1
  O  O18  1  0.69462400  0.75331300  0.39594000  1
  O  O19  1  0.80537600  0.75331300  0.89594000  1
  O  O20  1  0.92622300  0.94388900  0.72581400  1
  O  O21  1  0.56692500  0.55437600  0.22413800  1
  O  O22  1  0.07377700  0.44388900  0.27418600  1
  O  O23  1  0.43307500  0.05437600  0.77586200  1
  O  O24  1  0.06692500  0.05437600  0.27586200  1
  O  O25  1  0.42622300  0.44388900  0.77418600  1
  O  O26  1  0.93307500  0.55437600  0.72413800  1
  O  O27  1  0.57377700  0.94388900  0.22581400  1
  O  O28  1  0.04256400  0.97280100  0.57687200  1
  O  O29  1  0.45783500  0.52606500  0.07198900  1
  O  O30  1  0.95743600  0.47280100  0.42312800  1
  O  O31  1  0.54216500  0.02606500  0.92801100  1
  O  O32  1  0.95783500  0.02606500  0.42801100  1
  O  O33  1  0.54256400  0.47280100  0.92312800  1
  O  O34  1  0.04216500  0.52606500  0.57198900  1
  O  O35  1  0.45743600  0.97280100  0.07687200  1
loop_
_geom_bond_atom_site_label_1
_geom_bond_atom_site_label_2
_geom_bond_distance
_geom_bond_site_symmetry_2
K0 O10 2.861710 1_555
K0 O7 2.863471 1_555
K0 O34 2.886023 1_555
K0 O12 2.901430 1_555
K0 O28 2.945009 1_555
K0 O0 2.978293 1_555
K0 O18 3.120011 1_555
K1 O13 2.861710 1_554
K1 O6 2.863471 1_555
K1 O29 2.886023 1_555
K1 O11 2.901430 1_554
K1 O35 2.945009 1_555
K1 O1 2.978293 1_455
K1 O19 3.120011 1_454
K2 O8 2.861710 1_555
K2 O5 2.863471 1_555
K2 O32 2.886023 1_555
K2 O14 2.901430 1_555
K2 O30 2.945009 1_555
K2 O2 2.978293 1_555
K2 O16 3.120011 1_555
K3 O15 2.861710 1_556
K3 O4 2.863471 1_555
K3 O31 2.886023 1_555
K3 O9 2.901430 1_556
K3 O33 2.945009 1_555
K3 O3 2.978293 1_655
K3 O17 3.120011 1_656
Mn0 O20 2.165020 1_455
Mn0 O26 2.175315 1_455
Mn0 O11 2.200617 1_555
Mn0 O13 2.217197 1_555
Mn0 O19 2.245502 1_455
Mn0 O7 2.287830 1_555
Mn1 O27 2.165020 1_555
Mn1 O21 2.175315 1_555
Mn1 O12 2.200617 1_555
Mn1 O10 2.217197 1_555
Mn1 O18 2.245502 1_555
Mn1 O6 2.287830 1_555
Mn2 O22 2.165020 1_655
Mn2 O24 2.175315 1_655
Mn2 O9 2.200617 1_555
Mn2 O15 2.217197 1_555
Mn2 O17 2.245502 1_655
Mn2 O5 2.287830 1_555
Mn3 O25 2.165020 1_555
Mn3 O23 2.175315 1_555
Mn3 O14 2.200617 1_555
Mn3 O8 2.217197 1_555
Mn3 O16 2.245502 1_555
Mn3 O4 2.287830 1_555
H0 O4 0.995081 1_555
H0 O20 1.743205 1_545
H1 O5 0.998709 1_555
H1 O21 1.707742 1_555
H2 O6 0.995081 1_555
H2 O22 1.743205 1_555
H3 O7 0.998709 1_555
H3 O23 1.707742 1_565
H4 O6 0.998709 1_555
H4 O24 1.707742 1_565
H5 O7 0.995081 1_555
H5 O25 1.743205 1_555
H6 O4 0.998709 1_555
H6 O26 1.707742 1_555
H7 O5 0.995081 1_555
H7 O27 1.743205 1_545
H8 O16 0.987688 1_555
H9 O17 0.993323 1_555
H10 O18 0.987688 1_555
H11 O19 0.993323 1_555
H12 O18 0.993323 1_555
H13 O19 0.987688 1_555
H14 O16 0.993323 1_555
H15 O17 0.987688 1_555
H16 O28 1.086143 1_555
H16 O32 1.390401 1_465
H17 O30 1.086143 1_555
H17 O34 1.390401 1_655
H18 O33 1.086143 1_555
H18 O29 1.390401 1_556
H19 O35 1.086143 1_555
H19 O31 1.390401 1_564
O0 P0 1.618558 1_555
O0 P6 1.653368 1_555
O1 P7 1.618558 1_555
O1 P1 1.653368 1_555
O2 P2 1.618558 1_555
O2 P4 1.653368 1_555
O3 P5 1.618558 1_555
O3 P3 1.653368 1_555
O8 P0 1.518106 1_545
O9 P1 1.524266 1_555
O10 P2 1.518106 1_555
O11 P3 1.524266 1_565
O12 P4 1.524266 1_565
O13 P5 1.518106 1_555
O14 P6 1.524266 1_555
O15 P7 1.518106 1_545
O20 P0 1.513622 1_555
O21 P1 1.524681 1_555
O22 P2 1.513622 1_555
O23 P3 1.524681 1_555
O24 P4 1.524681 1_555
O25 P5 1.513622 1_555
O26 P6 1.524681 1_555
O27 P7 1.513622 1_555
O28 P0 1.588030 1_455
O29 P1 1.548448 1_555
O30 P2 1.588030 1_655
O31 P3 1.548448 1_555
O32 P4 1.548448 1_655
O33 P5 1.588030 1_555
O34 P6 1.548448 1_455
O35 P7 1.588030 1_555
