# generated using pymatgen
data_MgSi
_symmetry_space_group_name_H-M   'P 1'
_cell_length_a   5.81678800
_cell_length_b   5.81678800
_cell_length_c   8.20685400
_cell_angle_alpha   90.00000000
_cell_angle_beta   90.00000000
_cell_angle_gamma   90.00000000
_symmetry_Int_Tables_number   1
_chemical_formula_structural   MgSi
_chemical_formula_sum   'Mg8 Si8'
_cell_volume   277.67909087
_cell_formula_units_Z   8
loop_
 _symmetry_equiv_pos_site_id
 _symmetry_equiv_pos_as_xyz
  1  'x, y, z'
loop_
 _atom_site_type_symbol
 _atom_site_label
 _atom_site_symmetry_multiplicity
 _atom_site_fract_x
 _atom_site_fract_y
 _atom_site_fract_z
 _atom_site_occupancy
  Mg  Mg0_0  1  0.00000000  0.00000000  0.00000000  1
  Mg  Mg0_1  1  0.00000000  0.00000000  0.50000000  1
  Mg  Mg0_2  1  0.00000000  0.50000000  0.00000000  1
  Mg  Mg0_3  1  0.00000000  0.50000000  0.50000000  1
  Mg  Mg0_4  1  0.50000000  0.00000000  0.00000000  1
  Mg  Mg0_5  1  0.50000000  0.00000000  0.50000000  1
  Mg  Mg0_6  1  0.50000000  0.50000000  0.00000000  1
  Mg  Mg0_7  1  0.50000000  0.50000000  0.50000000  1
  Si  Si0_0  1  0.25000000  0.25000000  0.25000000  1
  Si  Si0_1  1  0.25000000  0.25000000  0.75000000  1
  Si  Si0_2  1  0.25000000  0.75000000  0.25000000  1
  Si  Si0_3  1  0.25000000  0.75000000  0.75000000  1
  Si  Si0_4  1  0.75000000  0.25000000  0.25000000  1
  Si  Si0_5  1  0.75000000  0.25000000  0.75000000  1
  Si  Si0_6  1  0.75000000  0.75000000  0.25000000  1
  Si  Si0_7  1  0.75000000  0.75000000  0.75000000  1
loop_
_geom_bond_atom_site_label_1
_geom_bond_atom_site_label_2
_geom_bond_distance
_geom_bond_site_symmetry_2
Mg0_0 Si0_3 2.904980 1_544
Mg0_0 Si0_2 2.904980 1_545
Mg0_0 Si0_6 2.904980 1_445
Mg0_0 Si0_4 2.904980 1_455
Mg0_0 Si0_7 2.904980 1_444
Mg0_0 Si0_1 2.904980 1_554
Mg0_0 Si0_0 2.904980 1_555
Mg0_0 Si0_5 2.904980 1_454
Mg0_0 Mg0_4 2.908394 1_555
Mg0_0 Mg0_2 2.908394 1_555
Mg0_0 Mg0_4 2.908394 1_455
Mg0_0 Mg0_2 2.908394 1_545
Mg0_1 Si0_1 2.904980 1_555
Mg0_1 Si0_2 2.904980 1_545
Mg0_1 Si0_3 2.904980 1_545
Mg0_1 Si0_6 2.904980 1_445
Mg0_1 Si0_7 2.904980 1_445
Mg0_1 Si0_4 2.904980 1_455
Mg0_1 Si0_0 2.904980 1_555
Mg0_1 Si0_5 2.904980 1_455
Mg0_1 Mg0_5 2.908394 1_555
Mg0_1 Mg0_3 2.908394 1_555
Mg0_1 Mg0_3 2.908394 1_545
Mg0_1 Mg0_5 2.908394 1_455
Mg0_2 Si0_3 2.904980 1_554
Mg0_2 Si0_2 2.904980 1_555
Mg0_2 Si0_7 2.904980 1_454
Mg0_2 Si0_4 2.904980 1_455
Mg0_2 Si0_0 2.904980 1_555
Mg0_2 Si0_1 2.904980 1_554
Mg0_2 Si0_6 2.904980 1_455
Mg0_2 Si0_5 2.904980 1_454
Mg0_2 Mg0_6 2.908394 1_555
Mg0_2 Mg0_6 2.908394 1_455
Mg0_3 Si0_1 2.904980 1_555
Mg0_3 Si0_3 2.904980 1_555
Mg0_3 Si0_2 2.904980 1_555
Mg0_3 Si0_7 2.904980 1_455
Mg0_3 Si0_4 2.904980 1_455
Mg0_3 Si0_0 2.904980 1_555
Mg0_3 Si0_5 2.904980 1_455
Mg0_3 Si0_6 2.904980 1_455
Mg0_3 Mg0_7 2.908394 1_555
Mg0_3 Mg0_7 2.908394 1_455
Mg0_4 Si0_3 2.904980 1_544
Mg0_4 Si0_2 2.904980 1_545
Mg0_4 Si0_6 2.904980 1_545
Mg0_4 Si0_7 2.904980 1_544
Mg0_4 Si0_1 2.904980 1_554
Mg0_4 Si0_0 2.904980 1_555
Mg0_4 Si0_5 2.904980 1_554
Mg0_4 Si0_4 2.904980 1_555
Mg0_4 Mg0_6 2.908394 1_555
Mg0_4 Mg0_6 2.908394 1_545
Mg0_5 Si0_1 2.904980 1_555
Mg0_5 Si0_5 2.904980 1_555
Mg0_5 Si0_2 2.904980 1_545
Mg0_5 Si0_6 2.904980 1_545
Mg0_5 Si0_3 2.904980 1_545
Mg0_5 Si0_7 2.904980 1_545
Mg0_5 Si0_0 2.904980 1_555
Mg0_5 Si0_4 2.904980 1_555
Mg0_5 Mg0_7 2.908394 1_555
Mg0_5 Mg0_7 2.908394 1_545
Mg0_6 Si0_7 2.904980 1_554
Mg0_6 Si0_3 2.904980 1_554
Mg0_6 Si0_2 2.904980 1_555
Mg0_6 Si0_0 2.904980 1_555
Mg0_6 Si0_1 2.904980 1_554
Mg0_6 Si0_5 2.904980 1_554
Mg0_6 Si0_6 2.904980 1_555
Mg0_6 Si0_4 2.904980 1_555
Mg0_7 Si0_1 2.904980 1_555
Mg0_7 Si0_5 2.904980 1_555
Mg0_7 Si0_3 2.904980 1_555
Mg0_7 Si0_2 2.904980 1_555
Mg0_7 Si0_7 2.904980 1_555
Mg0_7 Si0_0 2.904980 1_555
Mg0_7 Si0_6 2.904980 1_555
Mg0_7 Si0_4 2.904980 1_555
