# generated using pymatgen
data_Li9Mn2Co5O16
_symmetry_space_group_name_H-M   'P 1'
_cell_length_a   5.06705900
_cell_length_b   5.13626686
_cell_length_c   11.17906717
_cell_angle_alpha   86.26395018
_cell_angle_beta   80.68177525
_cell_angle_gamma   82.31323539
_symmetry_Int_Tables_number   1
_chemical_formula_structural   Li9Mn2Co5O16
_chemical_formula_sum   'Li9 Mn2 Co5 O16'
_cell_volume   284.24304451
_cell_formula_units_Z   1
loop_
 _symmetry_equiv_pos_site_id
 _symmetry_equiv_pos_as_xyz
  1  'x, y, z'
loop_
 _atom_site_type_symbol
 _atom_site_label
 _atom_site_symmetry_multiplicity
 _atom_site_fract_x
 _atom_site_fract_y
 _atom_site_fract_z
 _atom_site_occupancy
  Li  Li0  1  0.43896400  0.23830500  0.06299500  1
  Li  Li1  1  0.55382900  0.76972100  0.93215700  1
  Li  Li2  1  0.31181000  0.75443300  0.18790200  1
  Li  Li3  1  0.18542700  0.24315600  0.31357900  1
  Li  Li4  1  0.06661600  0.75290700  0.44148200  1
  Li  Li5  1  0.93960700  0.25647900  0.56524800  1
  Li  Li6  1  0.81824100  0.74752900  0.69030200  1
  Li  Li7  1  0.67579100  0.23724400  0.80971400  1
  Li  Li8  1  0.24976700  0.00186200  0.74967100  1
  Mn  Mn0  1  0.00103000  0.00126400  0.99712300  1
  Mn  Mn1  1  0.62166000  0.49911000  0.37729400  1
  Co  Co0  1  0.13554500  0.50515500  0.86674200  1
  Co  Co1  1  0.37688200  0.49668000  0.62384200  1
  Co  Co2  1  0.49796000  0.99893200  0.50400000  1
  Co  Co3  1  0.74971700  0.99818400  0.25081600  1
  Co  Co4  1  0.87485500  0.49975300  0.12495000  1
  O  O0  1  0.67456500  0.88347000  0.09448100  1
  O  O1  1  0.81187500  0.35705300  0.97558800  1
  O  O2  1  0.55443400  0.37810600  0.21975200  1
  O  O3  1  0.41772700  0.89273700  0.34931400  1
  O  O4  1  0.29304500  0.39212000  0.47240200  1
  O  O5  1  0.20134000  0.85005700  0.59311300  1
  O  O6  1  0.05972000  0.39627700  0.71091600  1
  O  O7  1  0.90964000  0.87341500  0.85438000  1
  O  O8  1  0.18375600  0.64752400  0.03055600  1
  O  O9  1  0.31619200  0.12879400  0.91253600  1
  O  O10  1  0.07987000  0.11542600  0.15218800  1
  O  O11  1  0.94792700  0.61913600  0.27620100  1
  O  O12  1  0.82361400  0.10471700  0.40881000  1
  O  O13  1  0.69934700  0.60760500  0.53136300  1
  O  O14  1  0.56974300  0.15224400  0.64457200  1
  O  O15  1  0.45950300  0.60060500  0.77601000  1
loop_
_geom_bond_atom_site_label_1
_geom_bond_atom_site_label_2
_geom_bond_distance
_geom_bond_site_symmetry_2
Li0 O9 2.021935 1_554
Li0 O10 2.083501 1_555
Li0 O0 2.083531 1_545
Li0 O1 2.128369 1_554
Li0 O2 2.130080 1_555
Li0 O8 2.355202 1_555
Li1 O7 1.994753 1_555
Li1 O9 2.082827 1_565
Li1 O0 2.145177 1_556
Li1 O15 2.146819 1_555
Li1 O8 2.162671 1_556
Li1 O1 2.401674 1_555
Li2 O8 2.099368 1_555
Li2 O10 2.109752 1_565
Li2 O11 2.126247 1_455
Li2 O0 2.126643 1_555
Li2 O3 2.152042 1_555
Li2 O2 2.188768 1_555
Li3 O3 2.067939 1_545
Li3 O10 2.128909 1_555
Li3 O12 2.148975 1_455
Li3 O4 2.153445 1_555
Li3 O2 2.166461 1_555
Li3 O11 2.188172 1_455
Li4 O5 2.040694 1_555
Li4 O4 2.084707 1_555
Li4 O12 2.092641 1_465
Li4 O3 2.096282 1_555
Li4 O13 2.167505 1_455
Li4 O11 2.209876 1_455
Li5 O6 2.031756 1_655
Li5 O14 2.062446 1_555
Li5 O13 2.085923 1_555
Li5 O4 2.099418 1_655
Li5 O12 2.155116 1_555
Li5 O5 2.349882 1_645
Li6 O6 2.061972 1_655
Li6 O15 2.121423 1_555
Li6 O7 2.122910 1_555
Li6 O13 2.159932 1_555
Li6 O5 2.177585 1_655
Li6 O14 2.353226 1_565
Li7 O15 2.078729 1_555
Li7 O14 2.092034 1_555
Li7 O9 2.112211 1_555
Li7 O7 2.150150 1_545
Li7 O1 2.229110 1_555
Li7 O6 2.298553 1_655
Li8 O5 2.024688 1_545
Li8 O14 2.050760 1_555
Li8 O9 2.065198 1_555
Li8 O7 2.079887 1_445
Li8 O6 2.172057 1_555
Li8 O15 2.213597 1_545
Mn0 O9 1.893028 1_555
Mn0 O7 1.910294 1_445
Mn0 O1 1.965941 1_455
Mn0 O8 1.967645 1_546
Mn0 O0 1.971276 1_446
Mn0 O10 1.981858 1_556
Mn1 O4 1.949447 1_555
Mn1 O13 1.958391 1_555
Mn1 O11 1.991776 1_555
Mn1 O2 1.999399 1_555
Mn1 O3 2.171766 1_555
Mn1 O12 2.178071 1_555
Co0 O15 1.890773 1_555
Co0 O6 1.973841 1_555
Co0 O8 2.077302 1_556
Co0 O1 2.077473 1_455
Co0 O7 2.084475 1_455
Co0 O9 2.094327 1_555
Co1 O6 1.856304 1_555
Co1 O13 1.920532 1_555
Co1 O14 1.922469 1_555
Co1 O4 1.935821 1_555
Co1 O15 1.939757 1_555
Co1 O5 1.946627 1_555
Co2 O5 1.886640 1_555
Co2 O14 1.909152 1_565
Co2 O12 1.935541 1_565
Co2 O3 1.965447 1_555
Co2 O13 2.155709 1_555
Co2 O4 2.178575 1_565
Co3 O3 1.975297 1_555
Co3 O12 1.988490 1_565
Co3 O0 1.989041 1_555
Co3 O10 1.990616 1_665
Co3 O11 2.092089 1_555
Co3 O2 2.100960 1_565
Co4 O11 1.941812 1_555
Co4 O2 1.943573 1_555
Co4 O8 1.953986 1_655
Co4 O1 1.954905 1_554
Co4 O0 2.125963 1_555
Co4 O10 2.131689 1_655
