# generated using pymatgen
data_Ge12As11I4
_symmetry_space_group_name_H-M   'P 1'
_cell_length_a   11.15569308
_cell_length_b   11.15569308
_cell_length_c   11.15569308
_cell_angle_alpha   90.00000000
_cell_angle_beta   90.00000000
_cell_angle_gamma   90.00000000
_symmetry_Int_Tables_number   1
_chemical_formula_structural   Ge12As11I4
_chemical_formula_sum   'Ge24 As22 I8'
_cell_volume   1388.32029315
_cell_formula_units_Z   2
loop_
 _symmetry_equiv_pos_site_id
 _symmetry_equiv_pos_as_xyz
  1  'x, y, z'
loop_
 _atom_site_type_symbol
 _atom_site_label
 _atom_site_symmetry_multiplicity
 _atom_site_fract_x
 _atom_site_fract_y
 _atom_site_fract_z
 _atom_site_occupancy
  Ge  Ge0  1  -0.00000000  0.11840854  0.31039739  1
  Ge  Ge1  1  -0.00000000  0.88159146  0.68960261  1
  Ge  Ge2  1  -0.00000000  0.88159146  0.31039739  1
  Ge  Ge3  1  -0.00000000  0.11840854  0.68960261  1
  Ge  Ge4  1  0.31039739  0.00000000  0.11840854  1
  Ge  Ge5  1  0.61840854  0.50000000  0.18960261  1
  Ge  Ge6  1  0.68960261  -0.00000000  0.88159146  1
  Ge  Ge7  1  0.38159146  0.50000000  0.81039739  1
  Ge  Ge8  1  0.31039739  0.00000000  0.88159146  1
  Ge  Ge9  1  0.38159146  0.50000000  0.18960261  1
  Ge  Ge10  1  0.68960261  -0.00000000  0.11840854  1
  Ge  Ge11  1  0.61840854  0.50000000  0.81039739  1
  Ge  Ge12  1  0.11840854  0.31039739  0.00000000  1
  Ge  Ge13  1  0.50000000  0.81039739  0.38159146  1
  Ge  Ge14  1  0.88159146  0.68960261  0.00000000  1
  Ge  Ge15  1  0.50000000  0.18960261  0.61840854  1
  Ge  Ge16  1  0.11840854  0.68960261  0.00000000  1
  Ge  Ge17  1  0.50000000  0.18960261  0.38159146  1
  Ge  Ge18  1  0.88159146  0.31039739  0.00000000  1
  Ge  Ge19  1  0.50000000  0.81039739  0.61840854  1
  Ge  Ge20  1  0.18960261  0.61840854  0.50000000  1
  Ge  Ge21  1  0.81039739  0.38159146  0.50000000  1
  Ge  Ge22  1  0.18960261  0.38159146  0.50000000  1
  Ge  Ge23  1  0.81039739  0.61840854  0.50000000  1
  As  As0  1  0.18558222  0.18558222  0.18558222  1
  As  As1  1  0.81441778  0.81441778  0.81441778  1
  As  As2  1  0.81441778  0.81441778  0.18558222  1
  As  As3  1  0.81441778  0.18558222  0.81441778  1
  As  As4  1  0.68558222  0.68558222  0.31441778  1
  As  As5  1  0.18558222  0.18558222  0.81441778  1
  As  As6  1  0.18558222  0.81441778  0.18558222  1
  As  As7  1  0.31441778  0.31441778  0.68558222  1
  As  As8  1  0.18558222  0.81441778  0.81441778  1
  As  As9  1  0.31441778  0.31441778  0.31441778  1
  As  As10  1  0.81441778  0.18558222  0.18558222  1
  As  As11  1  0.68558222  0.68558222  0.68558222  1
  As  As12  1  0.68558222  0.31441778  0.68558222  1
  As  As13  1  0.31441778  0.68558222  0.31441778  1
  As  As14  1  0.31441778  0.68558222  0.68558222  1
  As  As15  1  0.68558222  0.31441778  0.31441778  1
  As  As16  1  0.25000000  0.50000000  0.00000000  1
  As  As17  1  0.75000000  0.50000000  0.00000000  1
  As  As18  1  -0.00000000  0.25000000  0.50000000  1
  As  As19  1  -0.00000000  0.75000000  0.50000000  1
  As  As20  1  0.50000000  -0.00000000  0.25000000  1
  As  As21  1  0.50000000  -0.00000000  0.75000000  1
  I  I0  1  0.25000000  -0.00000000  0.50000000  1
  I  I1  1  0.75000000  -0.00000000  0.50000000  1
  I  I2  1  0.50000000  0.25000000  0.00000000  1
  I  I3  1  0.50000000  0.75000000  0.00000000  1
  I  I4  1  -0.00000000  0.50000000  0.25000000  1
  I  I5  1  -0.00000000  0.50000000  0.75000000  1
  I  I6  1  -0.00000000  -0.00000000  0.00000000  1
  I  I7  1  0.50000000  0.50000000  0.50000000  1
loop_
_geom_bond_atom_site_label_1
_geom_bond_atom_site_label_2
_geom_bond_distance
_geom_bond_site_symmetry_2
Ge0 Ge2 2.641859 1_545
Ge1 Ge3 2.641859 1_565
Ge4 Ge8 2.641859 1_554
Ge5 Ge9 2.641859 1_555
Ge10 Ge6 2.641859 1_554
Ge11 Ge7 2.641859 1_555
Ge12 Ge18 2.641859 1_455
Ge13 Ge19 2.641859 1_555
Ge14 Ge16 2.641859 1_655
Ge15 Ge17 2.641859 1_555
Ge20 Ge22 2.641859 1_555
Ge21 Ge23 2.641859 1_555
As0 As9 2.489390 1_555
As0 Ge4 2.605085 1_555
As0 Ge0 2.605085 1_555
As0 Ge12 2.605085 1_555
As1 As11 2.489390 1_555
As1 Ge14 2.605085 1_556
As1 Ge6 2.605085 1_565
As1 Ge1 2.605085 1_655
As2 As4 2.489390 1_555
As2 Ge14 2.605085 1_555
As2 Ge10 2.605085 1_565
As2 Ge2 2.605085 1_655
As3 Ge6 2.605085 1_555
As3 Ge3 2.605085 1_655
As3 Ge18 2.605085 1_556
As4 Ge5 2.605085 1_555
As4 Ge13 2.605085 1_555
As4 Ge23 2.605085 1_555
As5 As7 2.489390 1_555
As5 Ge3 2.605085 1_555
As5 Ge12 2.605085 1_556
As5 Ge8 2.605085 1_555
As6 Ge16 2.605085 1_555
As6 Ge2 2.605085 1_555
As6 Ge4 2.605085 1_565
As7 Ge7 2.605085 1_555
As7 Ge22 2.605085 1_555
As7 Ge15 2.605085 1_555
As8 Ge16 2.605085 1_556
As8 Ge1 2.605085 1_555
As8 Ge8 2.605085 1_565
As9 Ge22 2.605085 1_555
As9 Ge17 2.605085 1_555
As9 Ge9 2.605085 1_555
As10 As15 2.489390 1_555
As10 Ge10 2.605085 1_555
As10 Ge0 2.605085 1_655
As10 Ge18 2.605085 1_555
As11 Ge19 2.605085 1_555
As11 Ge11 2.605085 1_555
As11 Ge23 2.605085 1_555
As12 As3 2.489390 1_555
As12 Ge15 2.605085 1_555
As12 Ge21 2.605085 1_555
As12 Ge11 2.605085 1_555
As13 As6 2.489390 1_555
As13 Ge13 2.605085 1_555
As13 Ge20 2.605085 1_555
As13 Ge9 2.605085 1_555
As14 As8 2.489390 1_555
As14 Ge7 2.605085 1_555
As14 Ge20 2.605085 1_555
As14 Ge19 2.605085 1_555
As15 Ge5 2.605085 1_555
As15 Ge21 2.605085 1_555
As15 Ge17 2.605085 1_555
As16 Ge12 2.574657 1_555
As16 Ge9 2.574657 1_555
As16 Ge7 2.574657 1_554
As16 Ge16 2.574657 1_555
As17 Ge11 2.574657 1_554
As17 Ge18 2.574657 1_555
As17 Ge5 2.574657 1_555
As17 Ge14 2.574657 1_555
As18 Ge0 2.574657 1_555
As18 Ge21 2.574657 1_455
As18 Ge22 2.574657 1_555
As18 Ge3 2.574657 1_555
As19 Ge20 2.574657 1_555
As19 Ge1 2.574657 1_555
As19 Ge23 2.574657 1_455
As19 Ge2 2.574657 1_555
As20 Ge10 2.574657 1_555
As20 Ge17 2.574657 1_555
As20 Ge4 2.574657 1_555
As20 Ge13 2.574657 1_545
As21 Ge8 2.574657 1_555
As21 Ge6 2.574657 1_555
As21 Ge15 2.574657 1_555
As21 Ge19 2.574657 1_545
