# generated using pymatgen
data_Li7Mn2(CoO4)3
_symmetry_space_group_name_H-M   'P 1'
_cell_length_a   2.98379500
_cell_length_b   5.98858951
_cell_length_c   12.49897148
_cell_angle_alpha   76.84537403
_cell_angle_beta   89.10851503
_cell_angle_gamma   87.75109078
_symmetry_Int_Tables_number   1
_chemical_formula_structural   Li7Mn2(CoO4)3
_chemical_formula_sum   'Li7 Mn2 Co3 O12'
_cell_volume   217.30753031
_cell_formula_units_Z   1
loop_
 _symmetry_equiv_pos_site_id
 _symmetry_equiv_pos_as_xyz
  1  'x, y, z'
loop_
 _atom_site_type_symbol
 _atom_site_label
 _atom_site_symmetry_multiplicity
 _atom_site_fract_x
 _atom_site_fract_y
 _atom_site_fract_z
 _atom_site_occupancy
  Li  Li0  1  0.00152000  0.50135600  0.00194500  1
  Li  Li1  1  0.50219300  0.34824200  0.82347600  1
  Li  Li2  1  0.49575700  0.66537600  0.16973600  1
  Li  Li3  1  0.00468900  0.83004200  0.33550900  1
  Li  Li4  1  0.50155300  0.98729300  0.50724900  1
  Li  Li5  1  0.99280000  0.15558000  0.65999600  1
  Li  Li6  1  0.01197300  0.68290700  0.66132500  1
  Mn  Mn0  1  0.99916100  0.99842300  0.00165900  1
  Mn  Mn1  1  0.48968000  0.82907100  0.82639400  1
  Co  Co0  1  0.50243100  0.50641500  0.50699900  1
  Co  Co1  1  0.00252400  0.33210000  0.33742700  1
  Co  Co2  1  0.50595100  0.16883400  0.17028300  1
  O  O0  1  0.53979400  0.24039100  0.00599000  1
  O  O1  1  0.97870600  0.05286300  0.83719300  1
  O  O2  1  0.99504000  0.40572300  0.17587700  1
  O  O3  1  0.49473200  0.56330900  0.34701600  1
  O  O4  1  0.03582900  0.72908200  0.49869800  1
  O  O5  1  0.50109900  0.91344900  0.67685300  1
  O  O6  1  0.45694900  0.76345000  0.99191900  1
  O  O7  1  0.00350500  0.61297800  0.83166400  1
  O  O8  1  0.01535000  0.93205400  0.16255000  1
  O  O9  1  0.50818600  0.09605300  0.32721600  1
  O  O10  1  0.95957700  0.26397300  0.49331400  1
  O  O11  1  0.50099900  0.42103600  0.64970900  1
loop_
_geom_bond_atom_site_label_1
_geom_bond_atom_site_label_2
_geom_bond_distance
_geom_bond_site_symmetry_2
Li0 O7 2.080637 1_554
Li0 O6 2.097251 1_554
Li0 O0 2.115143 1_455
Li0 O2 2.118344 1_455
Li0 O0 2.189535 1_555
Li0 O6 2.199131 1_454
Li1 O11 2.115753 1_555
Li1 O7 2.149887 1_555
Li1 O1 2.202757 1_555
Li1 O0 2.228325 1_556
Li1 O7 2.241904 1_655
Li1 O1 2.380895 1_455
Li2 O8 2.091017 1_555
Li2 O2 2.100140 1_555
Li2 O3 2.160310 1_555
Li2 O6 2.169453 1_554
Li2 O2 2.186403 1_455
Li2 O8 2.255408 1_655
Li3 O4 1.993669 1_555
Li3 O3 2.104493 1_555
Li3 O8 2.108533 1_555
Li3 O9 2.118402 1_465
Li3 O9 2.216600 1_565
Li3 O3 2.228652 1_455
Li4 O5 2.064631 1_555
Li4 O4 2.140577 1_555
Li4 O10 2.163889 1_565
Li4 O4 2.195532 1_655
Li4 O9 2.195602 1_565
Li4 O10 2.249002 1_465
Li5 O5 2.036052 1_645
Li5 O10 2.038968 1_555
Li5 O5 2.077915 1_545
Li5 O11 2.104000 1_555
Li5 O1 2.159731 1_555
Li5 O11 2.221067 1_655
Li6 O4 1.988589 1_555
Li6 O5 2.053045 1_455
Li6 O7 2.074188 1_555
Li6 O5 2.088707 1_555
Li6 O11 2.127682 1_555
Li6 O11 2.259016 1_455
Mn0 O6 1.944908 1_654
Mn0 O8 1.960110 1_655
Mn0 O0 1.964405 1_565
Mn0 O1 2.008242 1_564
Mn0 O6 2.207967 1_554
Mn0 O0 2.219629 1_665
Mn1 O5 1.821962 1_555
Mn1 O7 1.959130 1_655
Mn1 O7 1.972042 1_555
Mn1 O1 2.013567 1_465
Mn1 O6 2.017660 1_555
Mn1 O1 2.045830 1_565
Co0 O11 1.740101 1_555
Co0 O4 1.876979 1_555
Co0 O3 1.950851 1_555
Co0 O10 1.986997 1_555
Co0 O4 2.102466 1_655
Co0 O10 2.251020 1_455
Co1 O10 1.900988 1_455
Co1 O2 1.966599 1_455
Co1 O3 2.032839 1_455
Co1 O9 2.049320 1_555
Co1 O3 2.080638 1_555
Co1 O9 2.107550 1_455
Co2 O9 1.910118 1_555
Co2 O0 2.001770 1_555
Co2 O2 2.052673 1_455
Co2 O8 2.053994 1_645
Co2 O2 2.087554 1_555
Co2 O8 2.095843 1_545
