# generated using pymatgen
data_BaMg149
_symmetry_space_group_name_H-M   'P 1'
_cell_length_a   16.05660863
_cell_length_b   16.05661374
_cell_length_c   15.68443951
_cell_angle_alpha   90.00000000
_cell_angle_beta   90.00000000
_cell_angle_gamma   120.00001235
_symmetry_Int_Tables_number   1
_chemical_formula_structural   BaMg149
_chemical_formula_sum   'Ba1 Mg149'
_cell_volume   3501.92921277
_cell_formula_units_Z   1
loop_
 _symmetry_equiv_pos_site_id
 _symmetry_equiv_pos_as_xyz
  1  'x, y, z'
loop_
 _atom_site_type_symbol
 _atom_site_label
 _atom_site_symmetry_multiplicity
 _atom_site_fract_x
 _atom_site_fract_y
 _atom_site_fract_z
 _atom_site_occupancy
  Ba  Ba0  1  -0.00000000  -0.00000000  0.00000000  1
  Mg  Mg0  1  0.60039915  0.20079830  0.00000000  1
  Mg  Mg1  1  0.79883712  0.20116188  0.00000000  1
  Mg  Mg2  1  0.40232476  0.20116188  0.00000000  1
  Mg  Mg3  1  0.20916036  0.21279702  0.00000000  1
  Mg  Mg4  1  0.00363765  0.21279802  0.00000000  1
  Mg  Mg5  1  0.79920170  0.39960085  0.00000000  1
  Mg  Mg6  1  0.60039915  0.39960085  0.00000000  1
  Mg  Mg7  1  0.00050212  0.40277285  0.00000000  1
  Mg  Mg8  1  0.40226973  0.40277285  0.00000000  1
  Mg  Mg9  1  0.20243782  0.40487564  0.00000000  1
  Mg  Mg10  1  0.59722615  0.59772927  0.00000000  1
  Mg  Mg11  1  0.00050212  0.59772927  0.00000000  1
  Mg  Mg12  1  0.79883712  0.59767524  0.00000000  1
  Mg  Mg13  1  0.39936650  0.60063450  0.00000000  1
  Mg  Mg14  1  0.20126901  0.60063450  0.00000000  1
  Mg  Mg15  1  0.78720198  0.79083964  0.00000000  1
  Mg  Mg16  1  0.00363765  0.79083964  0.00000000  1
  Mg  Mg17  1  0.20243782  0.79756218  0.00000000  1
  Mg  Mg18  1  0.59512436  0.79756218  0.00000000  1
  Mg  Mg19  1  0.39936650  0.79873199  0.00000000  1
  Mg  Mg20  1  0.78720198  0.99636235  0.00000000  1
  Mg  Mg21  1  0.20916036  0.99636235  0.00000000  1
  Mg  Mg22  1  0.59722615  0.99949688  0.00000000  1
  Mg  Mg23  1  0.40226973  0.99949788  0.00000000  1
  Mg  Mg24  1  0.86888413  0.13111487  0.16435832  1
  Mg  Mg25  1  0.26223074  0.13111587  0.16435832  1
  Mg  Mg26  1  0.86888413  0.73776926  0.16435832  1
  Mg  Mg27  1  0.66666600  0.33333300  0.16603629  1
  Mg  Mg28  1  0.66753325  0.13289066  0.16646086  1
  Mg  Mg29  1  0.46535741  0.13289066  0.16646086  1
  Mg  Mg30  1  0.46535741  0.33246675  0.16646086  1
  Mg  Mg31  1  0.86710934  0.33246675  0.16646086  1
  Mg  Mg32  1  0.66753325  0.53464259  0.16646086  1
  Mg  Mg33  1  0.86710934  0.53464259  0.16646086  1
  Mg  Mg34  1  0.26721563  0.53443127  0.16743080  1
  Mg  Mg35  1  0.26721563  0.73278437  0.16743080  1
  Mg  Mg36  1  0.46556873  0.73278437  0.16743080  1
  Mg  Mg37  1  0.06687779  0.53343940  0.16779646  1
  Mg  Mg38  1  0.46656160  0.53343940  0.16779646  1
  Mg  Mg39  1  0.46656160  0.93312221  0.16779646  1
  Mg  Mg40  1  0.26871593  0.33692270  0.16828750  1
  Mg  Mg41  1  0.06820678  0.33692270  0.16828750  1
  Mg  Mg42  1  0.66307730  0.73128407  0.16828750  1
  Mg  Mg43  1  0.06820678  0.73128407  0.16828750  1
  Mg  Mg44  1  0.26871593  0.93179322  0.16828750  1
  Mg  Mg45  1  0.66307730  0.93179322  0.16828750  1
  Mg  Mg46  1  0.07059583  0.14119065  0.17592023  1
  Mg  Mg47  1  0.85880835  0.92940417  0.17592023  1
  Mg  Mg48  1  0.07059583  0.92940417  0.17592023  1
  Mg  Mg49  1  0.80009759  0.19990241  0.33256609  1
  Mg  Mg50  1  0.39980483  0.19990241  0.33256609  1
  Mg  Mg51  1  0.80009759  0.60019517  0.33256609  1
  Mg  Mg52  1  0.60006432  0.20012864  0.33285393  1
  Mg  Mg53  1  0.60006432  0.39993568  0.33285393  1
  Mg  Mg54  1  0.79987136  0.39993568  0.33285393  1
  Mg  Mg55  1  0.40005519  0.59994481  0.33378831  1
  Mg  Mg56  1  0.19989062  0.59994581  0.33378831  1
  Mg  Mg57  1  0.40005519  0.80011038  0.33378831  1
  Mg  Mg58  1  0.59944183  0.00020818  0.33395334  1
  Mg  Mg59  1  0.40076635  0.00020818  0.33395334  1
  Mg  Mg60  1  0.40076635  0.40055717  0.33395334  1
  Mg  Mg61  1  0.99979182  0.40055717  0.33395334  1
  Mg  Mg62  1  0.59944183  0.59923365  0.33395334  1
  Mg  Mg63  1  0.99979182  0.59923365  0.33395334  1
  Mg  Mg64  1  0.20014310  0.40028721  0.33404750  1
  Mg  Mg65  1  0.20014310  0.79985590  0.33404750  1
  Mg  Mg66  1  0.59971279  0.79985690  0.33404750  1
  Mg  Mg67  1  -0.00000000  -0.00000000  0.33437959  1
  Mg  Mg68  1  0.79871559  0.00053870  0.33525222  1
  Mg  Mg69  1  0.20182311  0.00053870  0.33525222  1
  Mg  Mg70  1  0.20182311  0.20128341  0.33525222  1
  Mg  Mg71  1  0.99946130  0.20128441  0.33525222  1
  Mg  Mg72  1  0.99946130  0.79817689  0.33525222  1
  Mg  Mg73  1  0.79871559  0.79817689  0.33525222  1
  Mg  Mg74  1  0.06675419  0.13350738  0.50000000  1
  Mg  Mg75  1  0.26747217  0.13373659  0.50000000  1
  Mg  Mg76  1  0.86626441  0.13373659  0.50000000  1
  Mg  Mg77  1  0.66721489  0.13426930  0.50000000  1
  Mg  Mg78  1  0.46705440  0.13426930  0.50000000  1
  Mg  Mg79  1  0.86573070  0.33278511  0.50000000  1
  Mg  Mg80  1  0.46705440  0.33278511  0.50000000  1
  Mg  Mg81  1  0.66666600  0.33333300  0.50000000  1
  Mg  Mg82  1  0.06718650  0.33404950  0.50000000  1
  Mg  Mg83  1  0.26686300  0.33404950  0.50000000  1
  Mg  Mg84  1  0.66721489  0.53294560  0.50000000  1
  Mg  Mg85  1  0.86573070  0.53294560  0.50000000  1
  Mg  Mg86  1  0.46676244  0.53323656  0.50000000  1
  Mg  Mg87  1  0.06647411  0.53323756  0.50000000  1
  Mg  Mg88  1  0.26687115  0.53374329  0.50000000  1
  Mg  Mg89  1  0.86626441  0.73252783  0.50000000  1
  Mg  Mg90  1  0.66595050  0.73313700  0.50000000  1
  Mg  Mg91  1  0.06718650  0.73313700  0.50000000  1
  Mg  Mg92  1  0.46625671  0.73312885  0.50000000  1
  Mg  Mg93  1  0.26687115  0.73312885  0.50000000  1
  Mg  Mg94  1  0.26686300  0.93281350  0.50000000  1
  Mg  Mg95  1  0.66595050  0.93281350  0.50000000  1
  Mg  Mg96  1  0.86649262  0.93324681  0.50000000  1
  Mg  Mg97  1  0.06675419  0.93324681  0.50000000  1
  Mg  Mg98  1  0.46676244  0.93352589  0.50000000  1
  Mg  Mg99  1  0.79871559  0.00053870  0.66474778  1
  Mg  Mg100  1  0.20182311  0.00053870  0.66474778  1
  Mg  Mg101  1  0.20182311  0.20128341  0.66474778  1
  Mg  Mg102  1  0.99946130  0.20128441  0.66474778  1
  Mg  Mg103  1  0.99946130  0.79817689  0.66474778  1
  Mg  Mg104  1  0.79871559  0.79817689  0.66474778  1
  Mg  Mg105  1  -0.00000000  -0.00000000  0.66562041  1
  Mg  Mg106  1  0.20014310  0.40028721  0.66595250  1
  Mg  Mg107  1  0.20014310  0.79985590  0.66595250  1
  Mg  Mg108  1  0.59971279  0.79985690  0.66595250  1
  Mg  Mg109  1  0.59944183  0.00020818  0.66604666  1
  Mg  Mg110  1  0.40076635  0.00020818  0.66604666  1
  Mg  Mg111  1  0.40076635  0.40055717  0.66604666  1
  Mg  Mg112  1  0.99979182  0.40055717  0.66604666  1
  Mg  Mg113  1  0.59944183  0.59923365  0.66604666  1
  Mg  Mg114  1  0.99979182  0.59923365  0.66604666  1
  Mg  Mg115  1  0.40005519  0.59994481  0.66621169  1
  Mg  Mg116  1  0.19989062  0.59994581  0.66621169  1
  Mg  Mg117  1  0.40005519  0.80011038  0.66621169  1
  Mg  Mg118  1  0.60006432  0.20012864  0.66714607  1
  Mg  Mg119  1  0.60006432  0.39993568  0.66714607  1
  Mg  Mg120  1  0.79987136  0.39993568  0.66714607  1
  Mg  Mg121  1  0.80009759  0.19990241  0.66743491  1
  Mg  Mg122  1  0.39980483  0.19990241  0.66743491  1
  Mg  Mg123  1  0.80009759  0.60019517  0.66743491  1
  Mg  Mg124  1  0.07059583  0.14119065  0.82407977  1
  Mg  Mg125  1  0.85880835  0.92940417  0.82407977  1
  Mg  Mg126  1  0.07059583  0.92940417  0.82407977  1
  Mg  Mg127  1  0.26871593  0.33692270  0.83171350  1
  Mg  Mg128  1  0.06820678  0.33692270  0.83171350  1
  Mg  Mg129  1  0.66307730  0.73128407  0.83171350  1
  Mg  Mg130  1  0.06820678  0.73128407  0.83171350  1
  Mg  Mg131  1  0.26871593  0.93179322  0.83171350  1
  Mg  Mg132  1  0.66307730  0.93179322  0.83171350  1
  Mg  Mg133  1  0.06687779  0.53343940  0.83220354  1
  Mg  Mg134  1  0.46656160  0.53343940  0.83220354  1
  Mg  Mg135  1  0.46656160  0.93312221  0.83220354  1
  Mg  Mg136  1  0.26721563  0.53443127  0.83256920  1
  Mg  Mg137  1  0.26721563  0.73278437  0.83256920  1
  Mg  Mg138  1  0.46556873  0.73278437  0.83256920  1
  Mg  Mg139  1  0.66753325  0.13289066  0.83354014  1
  Mg  Mg140  1  0.46535741  0.13289066  0.83354014  1
  Mg  Mg141  1  0.46535741  0.33246675  0.83354014  1
  Mg  Mg142  1  0.86710934  0.33246675  0.83354014  1
  Mg  Mg143  1  0.66753325  0.53464259  0.83354014  1
  Mg  Mg144  1  0.86710934  0.53464259  0.83354014  1
  Mg  Mg145  1  0.66666600  0.33333300  0.83396471  1
  Mg  Mg146  1  0.86888413  0.13111487  0.83564168  1
  Mg  Mg147  1  0.26223074  0.13111587  0.83564168  1
  Mg  Mg148  1  0.86888413  0.73776926  0.83564168  1
loop_
_geom_bond_atom_site_label_1
_geom_bond_atom_site_label_2
_geom_bond_distance
_geom_bond_site_symmetry_2
Ba0 Mg46 3.386422 1_555
Ba0 Mg124 3.386422 1_554
Ba0 Mg125 3.386430 1_444
Ba0 Mg47 3.386430 1_445
Ba0 Mg48 3.386430 1_545
Ba0 Mg126 3.386430 1_544
Ba0 Mg3 3.387980 1_555
Ba0 Mg15 3.387988 1_445
Ba0 Mg21 3.387988 1_545
Ba0 Mg20 3.387988 1_445
Ba0 Mg16 3.387989 1_545
Ba0 Mg4 3.387989 1_555
Mg0 Mg1 3.183326 1_555
Mg0 Mg2 3.183326 1_555
Mg0 Mg145 3.190326 1_554
Mg0 Mg27 3.190338 1_555
Mg0 Mg5 3.192095 1_555
Mg0 Mg6 3.192096 1_555
Mg0 Mg23 3.207047 1_545
Mg0 Mg22 3.207049 1_545
Mg0 Mg140 3.216000 1_554
Mg0 Mg139 3.216000 1_554
Mg0 Mg29 3.216012 1_555
Mg0 Mg28 3.216013 1_555
Mg1 Mg5 3.183335 1_555
Mg1 Mg139 3.186201 1_554
Mg1 Mg142 3.186210 1_554
Mg1 Mg28 3.186214 1_555
Mg1 Mg31 3.186223 1_555
Mg1 Mg20 3.199070 1_545
Mg1 Mg4 3.199078 1_655
Mg1 Mg146 3.231157 1_554
Mg1 Mg24 3.231157 1_555
Mg1 Mg7 3.237622 1_655
Mg1 Mg22 3.237622 1_545
Mg2 Mg6 3.183334 1_555
Mg2 Mg29 3.186215 1_555
Mg2 Mg30 3.186223 1_555
Mg2 Mg21 3.199069 1_545
Mg2 Mg3 3.199070 1_555
Mg2 Mg25 3.231156 1_555
Mg2 Mg23 3.237599 1_545
Mg2 Mg8 3.237631 1_555
Mg3 Mg8 3.075833 1_555
Mg3 Mg9 3.139495 1_555
Mg3 Mg40 3.153998 1_555
Mg3 Mg4 3.300006 1_555
Mg3 Mg46 3.365589 1_555
Mg4 Mg7 3.075835 1_555
Mg4 Mg9 3.139478 1_555
Mg4 Mg41 3.153991 1_555
Mg4 Mg46 3.365598 1_555
Mg5 Mg6 3.192095 1_555
Mg5 Mg7 3.207040 1_655
Mg6 Mg8 3.207056 1_555
Mg7 Mg9 3.225653 1_555
Mg8 Mg9 3.225637 1_555
Mg10 Mg15 3.075841 1_555
Mg10 Mg8 3.130339 1_555
Mg10 Mg38 3.198111 1_555
Mg10 Mg134 3.198111 1_554
Mg10 Mg13 3.200534 1_555
Mg10 Mg143 3.203192 1_554
Mg10 Mg32 3.203205 1_555
Mg10 Mg6 3.207049 1_555
Mg10 Mg18 3.225646 1_555
Mg10 Mg129 3.227388 1_554
Mg10 Mg42 3.227401 1_555
Mg10 Mg12 3.237622 1_555
Mg11 Mg16 3.075835 1_555
Mg11 Mg7 3.130340 1_555
Mg11 Mg37 3.198119 1_555
Mg11 Mg133 3.198119 1_554
Mg11 Mg14 3.200566 1_555
Mg11 Mg144 3.203184 1_454
Mg11 Mg33 3.203196 1_455
Mg11 Mg5 3.207040 1_455
Mg11 Mg17 3.225653 1_555
Mg11 Mg130 3.227388 1_554
Mg11 Mg43 3.227401 1_555
Mg11 Mg12 3.237622 1_455
Mg12 Mg6 3.183326 1_555
Mg12 Mg5 3.183335 1_555
Mg12 Mg143 3.186201 1_554
Mg12 Mg144 3.186210 1_554
Mg12 Mg32 3.186214 1_555
Mg12 Mg33 3.186223 1_555
Mg12 Mg15 3.199071 1_555
Mg12 Mg16 3.199078 1_655
Mg12 Mg148 3.231157 1_554
Mg12 Mg26 3.231157 1_555
Mg13 Mg18 3.152641 1_555
Mg13 Mg9 3.152657 1_555
Mg13 Mg14 3.180774 1_555
Mg13 Mg19 3.180775 1_555
Mg13 Mg8 3.200551 1_555
Mg13 Mg138 3.205147 1_554
Mg13 Mg36 3.205147 1_555
Mg13 Mg34 3.205154 1_555
Mg13 Mg136 3.205154 1_554
Mg13 Mg38 3.227782 1_555
Mg13 Mg134 3.227782 1_554
Mg14 Mg9 3.152650 1_555
Mg14 Mg17 3.152650 1_555
Mg14 Mg19 3.180774 1_555
Mg14 Mg7 3.200566 1_555
Mg14 Mg34 3.205146 1_555
Mg14 Mg35 3.205147 1_555
Mg14 Mg37 3.227790 1_555
Mg15 Mg18 3.139478 1_555
Mg15 Mg42 3.153990 1_555
Mg15 Mg26 3.195194 1_555
Mg15 Mg20 3.299999 1_555
Mg15 Mg47 3.365589 1_555
Mg15 Mg16 3.475223 1_655
Mg16 Mg17 3.139478 1_555
Mg16 Mg43 3.153991 1_555
Mg16 Mg26 3.195202 1_455
Mg16 Mg21 3.299998 1_555
Mg16 Mg48 3.365589 1_555
Mg17 Mg21 3.139479 1_555
Mg17 Mg19 3.152657 1_555
Mg17 Mg35 3.184601 1_555
Mg17 Mg23 3.225645 1_555
Mg17 Mg43 3.232814 1_555
Mg17 Mg44 3.232815 1_555
Mg18 Mg20 3.139478 1_555
Mg18 Mg19 3.152641 1_555
Mg18 Mg36 3.184600 1_555
Mg18 Mg22 3.225646 1_555
Mg18 Mg45 3.232815 1_555
Mg18 Mg42 3.232815 1_555
Mg19 Mg22 3.200534 1_555
Mg19 Mg23 3.200567 1_555
Mg19 Mg36 3.205146 1_555
Mg19 Mg35 3.205154 1_555
Mg19 Mg39 3.227782 1_555
Mg20 Mg22 3.075841 1_555
Mg20 Mg45 3.153990 1_555
Mg20 Mg24 3.195194 1_565
Mg20 Mg47 3.365589 1_555
Mg20 Mg4 3.475223 1_665
Mg21 Mg23 3.075818 1_555
Mg21 Mg44 3.153991 1_555
Mg21 Mg25 3.195203 1_565
Mg21 Mg48 3.365589 1_555
Mg21 Mg3 3.475208 1_565
Mg22 Mg23 3.130347 1_555
Mg22 Mg39 3.198111 1_555
Mg22 Mg28 3.203205 1_565
Mg22 Mg45 3.227401 1_555
Mg23 Mg39 3.198135 1_555
Mg23 Mg29 3.203196 1_565
Mg23 Mg44 3.227392 1_555
Mg24 Mg47 3.166203 1_545
Mg24 Mg46 3.166218 1_655
Mg24 Mg4 3.195202 1_655
Mg24 Mg68 3.238423 1_555
Mg24 Mg71 3.238431 1_555
Mg24 Mg28 3.247530 1_555
Mg24 Mg31 3.247539 1_555
Mg24 Mg45 3.254328 1_545
Mg24 Mg41 3.254344 1_655
Mg24 Mg49 3.258835 1_555
Mg25 Mg46 3.166194 1_555
Mg25 Mg48 3.166211 1_545
Mg25 Mg3 3.195186 1_555
Mg25 Mg70 3.238415 1_555
Mg25 Mg69 3.238431 1_555
Mg25 Mg30 3.247530 1_555
Mg25 Mg29 3.247538 1_555
Mg25 Mg40 3.254329 1_555
Mg25 Mg44 3.254345 1_545
Mg25 Mg50 3.258835 1_555
Mg26 Mg47 3.166203 1_555
Mg26 Mg48 3.166211 1_655
Mg26 Mg73 3.238423 1_555
Mg26 Mg72 3.238431 1_555
Mg26 Mg32 3.247530 1_555
Mg26 Mg33 3.247539 1_555
Mg26 Mg42 3.254328 1_555
Mg26 Mg43 3.254344 1_655
Mg26 Mg51 3.258835 1_555
Mg27 Mg6 3.190338 1_555
Mg27 Mg5 3.190346 1_555
Mg27 Mg52 3.205721 1_555
Mg27 Mg53 3.205721 1_555
Mg27 Mg54 3.205729 1_555
Mg27 Mg29 3.225408 1_555
Mg27 Mg30 3.225408 1_555
Mg27 Mg32 3.225417 1_555
Mg27 Mg28 3.225417 1_555
Mg27 Mg33 3.225424 1_555
Mg27 Mg31 3.225424 1_555
Mg28 Mg49 3.191480 1_555
Mg28 Mg45 3.193900 1_545
Mg28 Mg31 3.204515 1_555
Mg28 Mg58 3.210312 1_555
Mg28 Mg52 3.212427 1_555
Mg28 Mg39 3.217375 1_545
Mg28 Mg29 3.246258 1_555
Mg29 Mg50 3.191481 1_555
Mg29 Mg44 3.193899 1_545
Mg29 Mg30 3.204516 1_555
Mg29 Mg59 3.210312 1_555
Mg29 Mg52 3.212427 1_555
Mg29 Mg39 3.217384 1_545
Mg30 Mg50 3.191481 1_555
Mg30 Mg40 3.193899 1_555
Mg30 Mg8 3.203205 1_555
Mg30 Mg60 3.210304 1_555
Mg30 Mg53 3.212427 1_555
Mg30 Mg6 3.216012 1_555
Mg30 Mg38 3.217384 1_555
Mg30 Mg32 3.246258 1_555
Mg31 Mg49 3.191481 1_555
Mg31 Mg41 3.193899 1_655
Mg31 Mg7 3.203196 1_655
Mg31 Mg61 3.210312 1_555
Mg31 Mg54 3.212427 1_555
Mg31 Mg5 3.216013 1_555
Mg31 Mg37 3.217383 1_655
Mg31 Mg33 3.246259 1_555
Mg32 Mg51 3.191480 1_555
Mg32 Mg42 3.193900 1_555
Mg32 Mg33 3.204515 1_555
Mg32 Mg62 3.210312 1_555
Mg32 Mg53 3.212427 1_555
Mg32 Mg6 3.216013 1_555
Mg32 Mg38 3.217375 1_555
Mg33 Mg51 3.191481 1_555
Mg33 Mg43 3.193899 1_655
Mg33 Mg63 3.210312 1_555
Mg33 Mg54 3.212427 1_555
Mg33 Mg5 3.216013 1_555
Mg33 Mg37 3.217375 1_655
Mg34 Mg41 3.183459 1_555
Mg34 Mg40 3.183460 1_555
Mg34 Mg9 3.184601 1_555
Mg34 Mg36 3.184878 1_555
Mg34 Mg35 3.184879 1_555
Mg34 Mg55 3.196933 1_555
Mg34 Mg56 3.196933 1_555
Mg34 Mg37 3.208818 1_555
Mg34 Mg38 3.208818 1_555
Mg34 Mg64 3.210723 1_555
Mg35 Mg43 3.183459 1_555
Mg35 Mg44 3.183460 1_555
Mg35 Mg36 3.184878 1_555
Mg35 Mg56 3.196925 1_555
Mg35 Mg57 3.196933 1_555
Mg35 Mg37 3.208810 1_555
Mg35 Mg39 3.208818 1_555
Mg35 Mg65 3.210723 1_555
Mg36 Mg45 3.183459 1_555
Mg36 Mg42 3.183459 1_555
Mg36 Mg57 3.196933 1_555
Mg36 Mg55 3.196933 1_555
Mg36 Mg39 3.208811 1_555
Mg36 Mg38 3.208811 1_555
Mg36 Mg66 3.210723 1_555
Mg37 Mg43 3.166109 1_555
Mg37 Mg41 3.166126 1_555
Mg37 Mg56 3.193615 1_555
Mg37 Mg63 3.194676 1_455
Mg37 Mg61 3.194692 1_455
Mg37 Mg7 3.198127 1_555
Mg38 Mg42 3.166108 1_555
Mg38 Mg40 3.166124 1_555
Mg38 Mg55 3.193607 1_555
Mg38 Mg62 3.194676 1_555
Mg38 Mg60 3.194692 1_555
Mg38 Mg8 3.198127 1_555
Mg39 Mg45 3.166109 1_555
Mg39 Mg44 3.166124 1_555
Mg39 Mg57 3.193607 1_555
Mg39 Mg58 3.194676 1_565
Mg39 Mg59 3.194684 1_565
Mg40 Mg46 3.164405 1_555
Mg40 Mg60 3.181938 1_555
Mg40 Mg64 3.182280 1_555
Mg40 Mg41 3.219497 1_555
Mg40 Mg70 3.227309 1_555
Mg40 Mg8 3.227392 1_555
Mg40 Mg9 3.232815 1_555
Mg41 Mg46 3.164414 1_555
Mg41 Mg61 3.181930 1_455
Mg41 Mg64 3.182272 1_555
Mg41 Mg71 3.227301 1_455
Mg41 Mg7 3.227401 1_555
Mg41 Mg9 3.232814 1_555
Mg42 Mg47 3.164397 1_555
Mg42 Mg62 3.181938 1_555
Mg42 Mg66 3.182280 1_555
Mg42 Mg45 3.219498 1_555
Mg42 Mg73 3.227300 1_555
Mg43 Mg48 3.164398 1_555
Mg43 Mg63 3.181938 1_455
Mg43 Mg65 3.182272 1_555
Mg43 Mg44 3.219497 1_555
Mg43 Mg72 3.227301 1_455
Mg44 Mg48 3.164397 1_555
Mg44 Mg59 3.181937 1_565
Mg44 Mg65 3.182280 1_555
Mg44 Mg69 3.227301 1_565
Mg45 Mg47 3.164397 1_555
Mg45 Mg58 3.181938 1_565
Mg45 Mg66 3.182272 1_555
Mg45 Mg68 3.227300 1_565
Mg46 Mg70 3.095612 1_555
Mg46 Mg71 3.095621 1_455
Mg46 Mg67 3.167264 1_555
Mg46 Mg48 3.400574 1_545
Mg46 Mg47 3.400581 1_445
Mg47 Mg73 3.095613 1_555
Mg47 Mg68 3.095613 1_565
Mg47 Mg67 3.167272 1_665
Mg47 Mg48 3.400589 1_655
Mg48 Mg69 3.095612 1_565
Mg48 Mg72 3.095613 1_455
Mg48 Mg67 3.167273 1_565
Mg49 Mg71 3.190346 1_555
Mg49 Mg68 3.190347 1_555
Mg49 Mg76 3.206644 1_555
Mg49 Mg77 3.211065 1_555
Mg49 Mg79 3.211065 1_555
Mg49 Mg52 3.213677 1_555
Mg49 Mg54 3.213678 1_555
Mg49 Mg61 3.214225 1_555
Mg49 Mg58 3.214233 1_555
Mg50 Mg70 3.190338 1_555
Mg50 Mg69 3.190346 1_555
Mg50 Mg75 3.206643 1_555
Mg50 Mg78 3.211065 1_555
Mg50 Mg80 3.211065 1_555
Mg50 Mg53 3.213677 1_555
Mg50 Mg52 3.213677 1_555
Mg50 Mg60 3.214218 1_555
Mg50 Mg59 3.214234 1_555
Mg51 Mg72 3.190346 1_555
Mg51 Mg73 3.190347 1_555
Mg51 Mg89 3.206644 1_555
Mg51 Mg84 3.211065 1_555
Mg51 Mg85 3.211065 1_555
Mg51 Mg53 3.213677 1_555
Mg51 Mg54 3.213678 1_555
Mg51 Mg63 3.214233 1_555
Mg51 Mg62 3.214233 1_555
Mg52 Mg59 3.205105 1_555
Mg52 Mg58 3.205106 1_555
Mg52 Mg54 3.208223 1_555
Mg52 Mg53 3.208224 1_555
Mg52 Mg78 3.208384 1_555
Mg52 Mg77 3.208384 1_555
Mg52 Mg81 3.209927 1_555
Mg53 Mg60 3.205097 1_555
Mg53 Mg62 3.205106 1_555
Mg53 Mg54 3.208223 1_555
Mg53 Mg80 3.208384 1_555
Mg53 Mg84 3.208384 1_555
Mg53 Mg81 3.209927 1_555
Mg54 Mg63 3.205105 1_555
Mg54 Mg61 3.205113 1_555
Mg54 Mg79 3.208384 1_555
Mg54 Mg85 3.208384 1_555
Mg54 Mg81 3.209935 1_555
Mg55 Mg88 3.197811 1_555
Mg55 Mg92 3.197811 1_555
Mg55 Mg86 3.199670 1_555
Mg55 Mg62 3.207199 1_555
Mg55 Mg60 3.207216 1_555
Mg55 Mg64 3.207872 1_555
Mg55 Mg66 3.207872 1_555
Mg55 Mg56 3.213972 1_555
Mg55 Mg57 3.213981 1_555
Mg56 Mg93 3.197803 1_555
Mg56 Mg88 3.197803 1_555
Mg56 Mg87 3.199678 1_555
Mg56 Mg63 3.207207 1_455
Mg56 Mg61 3.207223 1_455
Mg56 Mg65 3.207857 1_555
Mg56 Mg64 3.207873 1_555
Mg56 Mg57 3.213964 1_555
Mg57 Mg92 3.197803 1_555
Mg57 Mg93 3.197811 1_555
Mg57 Mg98 3.199670 1_555
Mg57 Mg58 3.207199 1_565
Mg57 Mg59 3.207200 1_565
Mg57 Mg66 3.207863 1_555
Mg57 Mg65 3.207872 1_555
Mg58 Mg59 3.190054 1_555
Mg58 Mg98 3.191638 1_545
Mg58 Mg68 3.197075 1_555
Mg58 Mg95 3.201510 1_545
Mg58 Mg77 3.202801 1_555
Mg58 Mg66 3.219141 1_545
Mg59 Mg98 3.191630 1_545
Mg59 Mg69 3.197075 1_555
Mg59 Mg94 3.201510 1_545
Mg59 Mg78 3.202801 1_555
Mg59 Mg65 3.219156 1_545
Mg60 Mg62 3.190062 1_555
Mg60 Mg86 3.191639 1_555
Mg60 Mg70 3.197075 1_555
Mg60 Mg83 3.201510 1_555
Mg60 Mg80 3.202793 1_555
Mg60 Mg64 3.219164 1_555
Mg61 Mg63 3.190071 1_555
Mg61 Mg87 3.191647 1_655
Mg61 Mg71 3.197060 1_555
Mg61 Mg82 3.201502 1_655
Mg61 Mg79 3.202801 1_555
Mg61 Mg64 3.219132 1_655
Mg62 Mg86 3.191638 1_555
Mg62 Mg73 3.197075 1_555
Mg62 Mg90 3.201510 1_555
Mg62 Mg84 3.202801 1_555
Mg62 Mg66 3.219157 1_555
Mg63 Mg87 3.191630 1_655
Mg63 Mg72 3.197076 1_555
Mg63 Mg91 3.201510 1_655
Mg63 Mg85 3.202801 1_555
Mg63 Mg65 3.219140 1_655
Mg64 Mg82 3.192662 1_555
Mg64 Mg83 3.192670 1_555
Mg64 Mg88 3.196687 1_555
Mg64 Mg71 3.208930 1_455
Mg64 Mg70 3.208955 1_555
Mg65 Mg91 3.192662 1_555
Mg65 Mg94 3.192670 1_555
Mg65 Mg93 3.196679 1_555
Mg65 Mg72 3.208930 1_455
Mg65 Mg69 3.208939 1_565
Mg66 Mg95 3.192662 1_555
Mg66 Mg90 3.192670 1_555
Mg66 Mg92 3.196686 1_555
Mg66 Mg68 3.208930 1_565
Mg66 Mg73 3.208938 1_555
Mg67 Mg96 3.192861 1_445
Mg67 Mg74 3.192862 1_555
Mg67 Mg97 3.192862 1_545
Mg67 Mg70 3.236299 1_555
Mg67 Mg73 3.236307 1_445
Mg67 Mg69 3.236307 1_555
Mg67 Mg68 3.236307 1_455
Mg67 Mg72 3.236308 1_445
Mg67 Mg71 3.236308 1_455
Mg68 Mg95 3.175798 1_545
Mg68 Mg76 3.179264 1_555
Mg68 Mg96 3.194457 1_545
Mg68 Mg71 3.223295 1_555
Mg68 Mg73 3.249245 1_545
Mg69 Mg94 3.175798 1_545
Mg69 Mg75 3.179264 1_555
Mg69 Mg97 3.194457 1_545
Mg69 Mg70 3.223280 1_555
Mg69 Mg72 3.249244 1_445
Mg70 Mg83 3.175806 1_555
Mg70 Mg75 3.179247 1_555
Mg70 Mg74 3.194457 1_555
Mg70 Mg71 3.249252 1_455
Mg71 Mg82 3.175798 1_655
Mg71 Mg76 3.179255 1_555
Mg71 Mg74 3.194465 1_655
Mg72 Mg91 3.175798 1_655
Mg72 Mg89 3.179255 1_555
Mg72 Mg97 3.194465 1_655
Mg72 Mg73 3.223295 1_555
Mg73 Mg90 3.175798 1_555
Mg73 Mg89 3.179264 1_555
Mg73 Mg96 3.194465 1_555
Mg74 Mg97 3.215507 1_545
Mg74 Mg96 3.215514 1_445
Mg74 Mg83 3.216553 1_555
Mg74 Mg82 3.216562 1_555
Mg74 Mg75 3.221011 1_555
Mg74 Mg76 3.221028 1_455
Mg75 Mg80 3.200337 1_555
Mg75 Mg78 3.200346 1_555
Mg75 Mg97 3.221019 1_545
Mg75 Mg83 3.221249 1_555
Mg75 Mg94 3.221265 1_545
Mg76 Mg99 3.179264 1_555
Mg76 Mg79 3.200339 1_555
Mg76 Mg77 3.200346 1_555
Mg76 Mg96 3.221021 1_545
Mg76 Mg82 3.221248 1_655
Mg76 Mg95 3.221264 1_545
Mg77 Mg79 3.187491 1_555
Mg77 Mg81 3.200705 1_555
Mg77 Mg78 3.213899 1_555
Mg77 Mg98 3.220925 1_545
Mg77 Mg95 3.224595 1_545
Mg78 Mg80 3.187492 1_555
Mg78 Mg81 3.200696 1_555
Mg78 Mg98 3.220918 1_545
Mg78 Mg94 3.224594 1_545
Mg79 Mg81 3.200712 1_555
Mg79 Mg85 3.213900 1_555
Mg79 Mg87 3.220925 1_655
Mg79 Mg82 3.224594 1_655
Mg80 Mg81 3.200696 1_555
Mg80 Mg84 3.213899 1_555
Mg80 Mg86 3.220918 1_555
Mg80 Mg83 3.224594 1_555
Mg81 Mg84 3.200705 1_555
Mg81 Mg85 3.200712 1_555
Mg82 Mg87 3.204020 1_555
Mg82 Mg83 3.206127 1_555
Mg82 Mg88 3.206332 1_555
Mg83 Mg86 3.204003 1_555
Mg83 Mg88 3.206341 1_555
Mg84 Mg85 3.187491 1_555
Mg84 Mg89 3.200345 1_555
Mg84 Mg86 3.220925 1_555
Mg84 Mg90 3.224595 1_555
Mg85 Mg89 3.200339 1_555
Mg85 Mg87 3.220917 1_655
Mg85 Mg91 3.224594 1_655
Mg86 Mg90 3.204019 1_555
Mg86 Mg88 3.213652 1_555
Mg86 Mg92 3.213661 1_555
Mg87 Mg91 3.204004 1_555
Mg87 Mg93 3.213644 1_555
Mg87 Mg88 3.213644 1_555
Mg88 Mg92 3.201456 1_555
Mg88 Mg93 3.201457 1_555
Mg89 Mg97 3.221028 1_655
Mg89 Mg96 3.221037 1_555
Mg89 Mg91 3.221248 1_655
Mg89 Mg90 3.221264 1_555
Mg90 Mg95 3.206128 1_555
Mg90 Mg92 3.206340 1_555
Mg90 Mg96 3.216561 1_555
Mg91 Mg94 3.206127 1_555
Mg91 Mg93 3.206324 1_555
Mg91 Mg97 3.216562 1_555
Mg92 Mg93 3.201456 1_555
Mg92 Mg95 3.206332 1_555
Mg92 Mg98 3.213645 1_555
Mg93 Mg94 3.206325 1_555
Mg93 Mg98 3.213644 1_555
Mg94 Mg98 3.204003 1_555
Mg94 Mg97 3.216553 1_555
Mg95 Mg99 3.175798 1_565
Mg95 Mg98 3.204019 1_555
Mg95 Mg96 3.216553 1_555
Mg96 Mg99 3.194457 1_565
Mg96 Mg97 3.215522 1_655
Mg100 Mg126 3.095612 1_545
Mg100 Mg94 3.175798 1_545
Mg100 Mg75 3.179264 1_555
Mg100 Mg122 3.190346 1_555
Mg100 Mg97 3.194457 1_545
Mg100 Mg110 3.197075 1_555
Mg100 Mg107 3.208939 1_545
Mg100 Mg101 3.223280 1_555
Mg100 Mg131 3.227314 1_545
Mg100 Mg105 3.236307 1_555
Mg100 Mg147 3.238431 1_555
Mg100 Mg103 3.249244 1_445
Mg101 Mg124 3.095612 1_555
Mg101 Mg83 3.175806 1_555
Mg101 Mg75 3.179247 1_555
Mg101 Mg122 3.190338 1_555
Mg101 Mg74 3.194457 1_555
Mg101 Mg111 3.197075 1_555
Mg101 Mg106 3.208955 1_555
Mg101 Mg127 3.227322 1_555
Mg101 Mg105 3.236299 1_555
Mg101 Mg147 3.238415 1_555
Mg101 Mg102 3.249252 1_455
Mg102 Mg124 3.095621 1_655
Mg102 Mg82 3.175798 1_655
Mg102 Mg76 3.179255 1_555
Mg102 Mg121 3.190346 1_555
Mg102 Mg74 3.194465 1_655
Mg102 Mg112 3.197060 1_555
Mg102 Mg106 3.208930 1_655
Mg102 Mg99 3.223295 1_555
Mg102 Mg128 3.227314 1_655
Mg102 Mg105 3.236308 1_655
Mg102 Mg146 3.238431 1_555
Mg103 Mg126 3.095613 1_655
Mg103 Mg91 3.175798 1_655
Mg103 Mg89 3.179255 1_555
Mg103 Mg123 3.190346 1_555
Mg103 Mg97 3.194465 1_655
Mg103 Mg114 3.197076 1_555
Mg103 Mg107 3.208930 1_655
Mg103 Mg104 3.223295 1_555
Mg103 Mg130 3.227314 1_655
Mg103 Mg105 3.236308 1_665
Mg103 Mg148 3.238431 1_555
Mg104 Mg125 3.095613 1_555
Mg104 Mg90 3.175798 1_555
Mg104 Mg89 3.179264 1_555
Mg104 Mg123 3.190347 1_555
Mg104 Mg96 3.194465 1_555
Mg104 Mg113 3.197075 1_555
Mg104 Mg108 3.208938 1_555
Mg104 Mg129 3.227313 1_555
Mg104 Mg105 3.236307 1_665
Mg104 Mg148 3.238423 1_555
Mg104 Mg99 3.249245 1_565
Mg105 Mg124 3.167264 1_555
Mg105 Mg125 3.167272 1_445
Mg105 Mg126 3.167273 1_545
Mg105 Mg96 3.192861 1_445
Mg105 Mg74 3.192862 1_555
Mg105 Mg97 3.192862 1_545
Mg105 Mg99 3.236307 1_455
Mg106 Mg128 3.182285 1_555
Mg106 Mg127 3.182293 1_555
Mg106 Mg82 3.192662 1_555
Mg106 Mg83 3.192670 1_555
Mg106 Mg88 3.196687 1_555
Mg106 Mg115 3.207872 1_555
Mg106 Mg116 3.207873 1_555
Mg106 Mg136 3.210723 1_555
Mg106 Mg112 3.219132 1_455
Mg106 Mg111 3.219164 1_555
Mg107 Mg130 3.182285 1_555
Mg107 Mg131 3.182293 1_555
Mg107 Mg91 3.192662 1_555
Mg107 Mg94 3.192670 1_555
Mg107 Mg93 3.196679 1_555
Mg107 Mg116 3.207857 1_555
Mg107 Mg117 3.207872 1_555
Mg107 Mg137 3.210723 1_555
Mg107 Mg114 3.219140 1_455
Mg107 Mg110 3.219156 1_565
Mg108 Mg132 3.182285 1_555
Mg108 Mg129 3.182293 1_555
Mg108 Mg95 3.192662 1_555
Mg108 Mg90 3.192670 1_555
Mg108 Mg92 3.196686 1_555
Mg108 Mg117 3.207863 1_555
Mg108 Mg115 3.207872 1_555
Mg108 Mg99 3.208930 1_565
Mg108 Mg138 3.210723 1_555
Mg108 Mg109 3.219141 1_565
Mg108 Mg113 3.219157 1_555
Mg109 Mg132 3.181951 1_545
Mg109 Mg110 3.190054 1_555
Mg109 Mg98 3.191638 1_545
Mg109 Mg135 3.194676 1_545
Mg109 Mg99 3.197075 1_555
Mg109 Mg95 3.201510 1_545
Mg109 Mg77 3.202801 1_555
Mg109 Mg118 3.205106 1_555
Mg109 Mg117 3.207199 1_545
Mg109 Mg139 3.210325 1_555
Mg109 Mg121 3.214233 1_555
Mg110 Mg131 3.181950 1_545
Mg110 Mg98 3.191630 1_545
Mg110 Mg135 3.194684 1_545
Mg110 Mg94 3.201510 1_545
Mg110 Mg78 3.202801 1_555
Mg110 Mg118 3.205105 1_555
Mg110 Mg117 3.207200 1_545
Mg110 Mg140 3.210325 1_555
Mg110 Mg122 3.214234 1_555
Mg111 Mg127 3.181950 1_555
Mg111 Mg113 3.190062 1_555
Mg111 Mg86 3.191639 1_555
Mg111 Mg134 3.194692 1_555
Mg111 Mg83 3.201510 1_555
Mg111 Mg80 3.202793 1_555
Mg111 Mg119 3.205097 1_555
Mg111 Mg115 3.207216 1_555
Mg111 Mg141 3.210317 1_555
Mg111 Mg122 3.214218 1_555
Mg112 Mg128 3.181943 1_655
Mg112 Mg114 3.190071 1_555
Mg112 Mg87 3.191647 1_655
Mg112 Mg133 3.194692 1_655
Mg112 Mg82 3.201502 1_655
Mg112 Mg79 3.202801 1_555
Mg112 Mg120 3.205113 1_555
Mg112 Mg116 3.207223 1_655
Mg112 Mg142 3.210325 1_555
Mg112 Mg121 3.214225 1_555
Mg113 Mg129 3.181950 1_555
Mg113 Mg86 3.191638 1_555
Mg113 Mg134 3.194676 1_555
Mg113 Mg90 3.201510 1_555
Mg113 Mg84 3.202801 1_555
Mg113 Mg119 3.205106 1_555
Mg113 Mg115 3.207199 1_555
Mg113 Mg143 3.210325 1_555
Mg113 Mg123 3.214233 1_555
Mg114 Mg130 3.181950 1_655
Mg114 Mg87 3.191630 1_655
Mg114 Mg133 3.194676 1_655
Mg114 Mg91 3.201510 1_655
Mg114 Mg85 3.202801 1_555
Mg114 Mg120 3.205105 1_555
Mg114 Mg116 3.207207 1_655
Mg114 Mg144 3.210325 1_555
Mg114 Mg123 3.214233 1_555
Mg115 Mg134 3.193607 1_555
Mg115 Mg136 3.196933 1_555
Mg115 Mg138 3.196933 1_555
Mg115 Mg88 3.197811 1_555
Mg115 Mg92 3.197811 1_555
Mg115 Mg86 3.199670 1_555
Mg115 Mg116 3.213972 1_555
Mg115 Mg117 3.213981 1_555
Mg116 Mg133 3.193615 1_555
Mg116 Mg137 3.196925 1_555
Mg116 Mg136 3.196933 1_555
Mg116 Mg93 3.197803 1_555
Mg116 Mg88 3.197803 1_555
Mg116 Mg87 3.199678 1_555
Mg116 Mg117 3.213964 1_555
Mg117 Mg135 3.193607 1_555
Mg117 Mg137 3.196933 1_555
Mg117 Mg138 3.196933 1_555
Mg117 Mg92 3.197803 1_555
Mg117 Mg93 3.197811 1_555
Mg117 Mg98 3.199670 1_555
Mg118 Mg145 3.205734 1_555
Mg118 Mg120 3.208223 1_555
Mg118 Mg119 3.208224 1_555
Mg118 Mg78 3.208384 1_555
Mg118 Mg77 3.208384 1_555
Mg118 Mg81 3.209927 1_555
Mg118 Mg140 3.212439 1_555
Mg118 Mg139 3.212440 1_555
Mg118 Mg122 3.213677 1_555
Mg118 Mg121 3.213677 1_555
Mg119 Mg145 3.205734 1_555
Mg119 Mg120 3.208223 1_555
Mg119 Mg80 3.208384 1_555
Mg119 Mg84 3.208384 1_555
Mg119 Mg81 3.209927 1_555
Mg119 Mg141 3.212439 1_555
Mg119 Mg143 3.212440 1_555
Mg119 Mg122 3.213677 1_555
Mg119 Mg123 3.213677 1_555
Mg120 Mg145 3.205742 1_555
Mg120 Mg79 3.208384 1_555
Mg120 Mg85 3.208384 1_555
Mg120 Mg81 3.209935 1_555
Mg120 Mg144 3.212440 1_555
Mg120 Mg142 3.212440 1_555
Mg120 Mg123 3.213678 1_555
Mg120 Mg121 3.213678 1_555
Mg121 Mg99 3.190347 1_555
Mg121 Mg139 3.191480 1_555
Mg121 Mg142 3.191481 1_555
Mg121 Mg76 3.206657 1_555
Mg121 Mg77 3.211078 1_555
Mg121 Mg79 3.211078 1_555
Mg121 Mg146 3.258823 1_555
Mg122 Mg140 3.191481 1_555
Mg122 Mg141 3.191481 1_555
Mg122 Mg75 3.206656 1_555
Mg122 Mg78 3.211078 1_555
Mg122 Mg80 3.211078 1_555
Mg122 Mg147 3.258822 1_555
Mg123 Mg143 3.191480 1_555
Mg123 Mg144 3.191481 1_555
Mg123 Mg89 3.206657 1_555
Mg123 Mg84 3.211078 1_555
Mg123 Mg85 3.211078 1_555
Mg123 Mg148 3.258823 1_555
Mg124 Mg127 3.164405 1_555
Mg124 Mg128 3.164414 1_555
Mg124 Mg147 3.166194 1_555
Mg124 Mg146 3.166218 1_455
Mg124 Mg3 3.365589 1_556
Mg124 Mg4 3.365598 1_556
Mg124 Mg126 3.400574 1_545
Mg124 Mg125 3.400581 1_445
Mg125 Mg99 3.095613 1_565
Mg125 Mg129 3.164397 1_555
Mg125 Mg132 3.164397 1_555
Mg125 Mg148 3.166203 1_555
Mg125 Mg146 3.166203 1_565
Mg125 Mg15 3.365589 1_556
Mg125 Mg20 3.365589 1_556
Mg125 Mg126 3.400589 1_655
Mg126 Mg131 3.164397 1_555
Mg126 Mg130 3.164398 1_555
Mg126 Mg148 3.166211 1_455
Mg126 Mg147 3.166211 1_565
Mg126 Mg21 3.365589 1_556
Mg126 Mg16 3.365589 1_556
Mg127 Mg3 3.153985 1_556
Mg127 Mg134 3.166124 1_555
Mg127 Mg136 3.183460 1_555
Mg127 Mg141 3.193899 1_555
Mg127 Mg128 3.219497 1_555
Mg127 Mg8 3.227380 1_556
Mg127 Mg9 3.232802 1_556
Mg127 Mg147 3.254329 1_555
Mg128 Mg4 3.153977 1_556
Mg128 Mg133 3.166126 1_555
Mg128 Mg136 3.183459 1_555
Mg128 Mg142 3.193899 1_455
Mg128 Mg7 3.227388 1_556
Mg128 Mg9 3.232801 1_556
Mg128 Mg146 3.254344 1_455
Mg129 Mg15 3.153977 1_556
Mg129 Mg134 3.166108 1_555
Mg129 Mg138 3.183459 1_555
Mg129 Mg143 3.193900 1_555
Mg129 Mg132 3.219498 1_555
Mg129 Mg18 3.232802 1_556
Mg129 Mg148 3.254328 1_555
Mg130 Mg16 3.153978 1_556
Mg130 Mg133 3.166109 1_555
Mg130 Mg137 3.183459 1_555
Mg130 Mg144 3.193899 1_455
Mg130 Mg131 3.219497 1_555
Mg130 Mg17 3.232801 1_556
Mg130 Mg148 3.254344 1_455
Mg131 Mg21 3.153978 1_556
Mg131 Mg135 3.166124 1_555
Mg131 Mg137 3.183460 1_555
Mg131 Mg140 3.193899 1_565
Mg131 Mg23 3.227380 1_556
Mg131 Mg17 3.232802 1_556
Mg131 Mg147 3.254345 1_565
Mg132 Mg20 3.153977 1_556
Mg132 Mg135 3.166108 1_555
Mg132 Mg138 3.183459 1_555
Mg132 Mg139 3.193900 1_565
Mg132 Mg99 3.227313 1_565
Mg132 Mg22 3.227388 1_556
Mg132 Mg18 3.232802 1_556
Mg132 Mg146 3.254328 1_565
Mg133 Mg7 3.198127 1_556
Mg133 Mg137 3.208810 1_555
Mg133 Mg136 3.208818 1_555
Mg133 Mg144 3.217375 1_455
Mg133 Mg142 3.217383 1_455
Mg133 Mg14 3.227790 1_556
Mg134 Mg8 3.198127 1_556
Mg134 Mg138 3.208811 1_555
Mg134 Mg136 3.208818 1_555
Mg134 Mg143 3.217375 1_555
Mg134 Mg141 3.217384 1_555
Mg135 Mg22 3.198111 1_556
Mg135 Mg23 3.198135 1_556
Mg135 Mg138 3.208811 1_555
Mg135 Mg137 3.208818 1_555
Mg135 Mg139 3.217375 1_565
Mg135 Mg140 3.217384 1_565
Mg135 Mg19 3.227782 1_556
Mg136 Mg9 3.184601 1_556
Mg136 Mg138 3.184878 1_555
Mg136 Mg137 3.184879 1_555
Mg136 Mg14 3.205146 1_556
Mg137 Mg17 3.184601 1_556
Mg137 Mg138 3.184878 1_555
Mg137 Mg14 3.205147 1_556
Mg137 Mg19 3.205154 1_556
Mg138 Mg18 3.184600 1_556
Mg138 Mg19 3.205146 1_556
Mg139 Mg22 3.203192 1_546
Mg139 Mg142 3.204515 1_555
Mg139 Mg145 3.225417 1_555
Mg139 Mg140 3.246258 1_555
Mg139 Mg146 3.247530 1_555
Mg140 Mg2 3.186202 1_556
Mg140 Mg23 3.203184 1_546
Mg140 Mg141 3.204516 1_555
Mg140 Mg145 3.225408 1_555
Mg140 Mg147 3.247538 1_555
Mg141 Mg2 3.186210 1_556
Mg141 Mg8 3.203192 1_556
Mg141 Mg6 3.216000 1_556
Mg141 Mg145 3.225408 1_555
Mg141 Mg143 3.246258 1_555
Mg141 Mg147 3.247530 1_555
Mg142 Mg7 3.203184 1_656
Mg142 Mg5 3.216000 1_556
Mg142 Mg145 3.225424 1_555
Mg142 Mg144 3.246259 1_555
Mg142 Mg146 3.247539 1_555
Mg143 Mg144 3.204515 1_555
Mg143 Mg6 3.216000 1_556
Mg143 Mg145 3.225417 1_555
Mg143 Mg148 3.247530 1_555
Mg144 Mg5 3.216000 1_556
Mg144 Mg145 3.225424 1_555
Mg144 Mg148 3.247539 1_555
Mg145 Mg6 3.190326 1_556
Mg145 Mg5 3.190333 1_556
Mg146 Mg20 3.195194 1_546
Mg146 Mg4 3.195202 1_656
Mg146 Mg99 3.238423 1_555
Mg147 Mg3 3.195186 1_556
Mg147 Mg21 3.195203 1_546
Mg147 Mg2 3.231156 1_556
Mg148 Mg15 3.195194 1_556
Mg148 Mg16 3.195202 1_656
