# generated using pymatgen
data_Mn3(BO3)2
_symmetry_space_group_name_H-M   'P 1'
_cell_length_a   4.64391980
_cell_length_b   5.66921001
_cell_length_c   8.70301238
_cell_angle_alpha   89.99997752
_cell_angle_beta   90.00000135
_cell_angle_gamma   89.99986411
_symmetry_Int_Tables_number   1
_chemical_formula_structural   Mn3(BO3)2
_chemical_formula_sum   'Mn6 B4 O12'
_cell_volume   229.12731056
_cell_formula_units_Z   2
loop_
 _symmetry_equiv_pos_site_id
 _symmetry_equiv_pos_as_xyz
  1  'x, y, z'
loop_
 _atom_site_type_symbol
 _atom_site_label
 _atom_site_symmetry_multiplicity
 _atom_site_fract_x
 _atom_site_fract_y
 _atom_site_fract_z
 _atom_site_occupancy
  Mn  Mn0  1  -0.00000045  -0.00000013  -0.00095956  1
  Mn  Mn1  1  0.49999993  0.00000070  0.68904451  1
  Mn  Mn2  1  0.00000000  0.49999985  0.18892956  1
  Mn  Mn3  1  0.50000016  0.50000008  0.50096080  1
  Mn  Mn4  1  -0.00000000  0.50000016  0.81095483  1
  Mn  Mn5  1  0.49999947  -0.00000059  0.31106511  1
  B  B0  1  0.03871047  0.24208327  0.49991226  1
  B  B1  1  0.46128890  0.74208488  0.00008780  1
  B  B2  1  0.96128981  0.75791635  0.49991228  1
  B  B3  1  0.53871095  0.25791490  0.00008795  1
  O  O0  1  0.25202142  0.31865107  0.00002945  1
  O  O1  1  0.75202049  0.18134713  0.49997124  1
  O  O2  1  0.24797975  0.81865236  0.49997121  1
  O  O3  1  0.74797830  0.68134870  0.00002953  1
  O  O4  1  0.31037406  0.78728350  0.13518958  1
  O  O5  1  0.81037626  0.71271662  0.36481036  1
  O  O6  1  0.31071113  0.78693198  0.86467260  1
  O  O7  1  0.68928909  0.21306811  0.86467251  1
  O  O8  1  0.81071317  0.71306955  0.63532843  1
  O  O9  1  0.18928702  0.28693039  0.63532845  1
  O  O10  1  0.68962607  0.21271606  0.13518974  1
  O  O11  1  0.18962401  0.28728307  0.36481037  1
loop_
_geom_bond_atom_site_label_1
_geom_bond_atom_site_label_2
_geom_bond_distance
_geom_bond_site_symmetry_2
Mn0 O3 2.152507 1_445
Mn0 O0 2.152509 1_555
Mn0 O7 2.215535 1_454
Mn0 O6 2.215537 1_544
Mn0 O10 2.221658 1_455
Mn0 O4 2.221660 1_545
Mn1 O7 2.137310 1_555
Mn1 O6 2.137313 1_545
Mn1 O9 2.224097 1_555
Mn1 O8 2.224105 1_545
Mn1 O1 2.265926 1_555
Mn1 O2 2.265930 1_545
Mn2 O11 2.138399 1_555
Mn2 O5 2.138399 1_455
Mn2 O4 2.224594 1_555
Mn2 O10 2.224595 1_455
Mn2 O3 2.264837 1_455
Mn2 O0 2.264838 1_555
Mn3 O2 2.152505 1_555
Mn3 O1 2.152508 1_555
Mn3 O8 2.215549 1_555
Mn3 O9 2.215550 1_555
Mn3 O5 2.221676 1_555
Mn3 O11 2.221678 1_555
Mn4 O8 2.137299 1_455
Mn4 O9 2.137301 1_555
Mn4 O7 2.224109 1_455
Mn4 O6 2.224109 1_555
Mn4 O0 2.265941 1_556
Mn4 O3 2.265941 1_456
Mn5 O4 2.138369 1_545
Mn5 O10 2.138372 1_555
Mn5 O11 2.224604 1_555
Mn5 O5 2.224604 1_545
Mn5 O2 2.264869 1_545
Mn5 O1 2.264875 1_555
B0 O1 1.375171 1_455
B0 O11 1.392593 1_555
B0 O9 1.393752 1_555
B1 O3 1.375167 1_555
B1 O4 1.392594 1_555
B1 O6 1.393747 1_554
B2 O2 1.375171 1_655
B2 O5 1.392594 1_555
B2 O8 1.393752 1_555
B3 O0 1.375168 1_555
B3 O10 1.392595 1_555
B3 O7 1.393749 1_554
