# generated using pymatgen
data_Li8V3P8O29
_symmetry_space_group_name_H-M   'P 1'
_cell_length_a   9.87846300
_cell_length_b   9.89413048
_cell_length_c   13.82235481
_cell_angle_alpha   89.69043057
_cell_angle_beta   89.65672951
_cell_angle_gamma   60.11365796
_symmetry_Int_Tables_number   1
_chemical_formula_structural   Li8V3P8O29
_chemical_formula_sum   'Li16 V6 P16 O58'
_cell_volume   1171.29543992
_cell_formula_units_Z   2
loop_
 _symmetry_equiv_pos_site_id
 _symmetry_equiv_pos_as_xyz
  1  'x, y, z'
loop_
 _atom_site_type_symbol
 _atom_site_label
 _atom_site_symmetry_multiplicity
 _atom_site_fract_x
 _atom_site_fract_y
 _atom_site_fract_z
 _atom_site_occupancy
  Li  Li0  1  0.22343300  0.09059600  0.93879000  1
  Li  Li1  1  0.09636000  0.23235200  0.43368200  1
  Li  Li2  1  0.66979900  0.09604700  0.43430200  1
  Li  Li3  1  0.33104500  0.33067300  0.61754100  1
  Li  Li4  1  0.33004700  0.33213500  0.11967900  1
  Li  Li5  1  0.68381300  0.22428100  0.94037900  1
  Li  Li6  1  0.09132600  0.68232500  0.93898600  1
  Li  Li7  1  0.76519900  0.33766700  0.55929300  1
  Li  Li8  1  0.23369500  0.67031100  0.43506300  1
  Li  Li9  1  0.90701300  0.31806200  0.06403700  1
  Li  Li10  1  0.31336000  0.77754700  0.06156600  1
  Li  Li11  1  0.66836500  0.66934400  0.88266700  1
  Li  Li12  1  0.33758200  0.89811000  0.56090200  1
  Li  Li13  1  0.89991900  0.76579300  0.56120200  1
  Li  Li14  1  0.77658500  0.90805900  0.06365300  1
  Li  Li15  1  0.00225100  0.99847400  0.49581400  1
  V  V0  1  0.56728000  0.43447800  0.74994300  1
  V  V1  1  0.43673400  0.56593500  0.25038500  1
  V  V2  1  0.00024800  0.43386000  0.25112600  1
  V  V3  1  0.99964400  0.56688400  0.75005600  1
  V  V4  1  0.43356600  0.99917900  0.75058300  1
  V  V5  1  0.56736500  0.99957300  0.25085700  1
  P  P0  1  0.23045900  0.09027100  0.15694200  1
  P  P1  1  0.08905800  0.22700500  0.65534500  1
  P  P2  1  0.68340500  0.09138600  0.65637000  1
  P  P3  1  0.33362700  0.33464800  0.87523800  1
  P  P4  1  0.33593600  0.33528600  0.37605800  1
  P  P5  1  0.67924400  0.23168500  0.15727700  1
  P  P6  1  0.77096700  0.31422900  0.34303800  1
  P  P7  1  0.09265700  0.67894200  0.15744000  1
  P  P8  1  0.90830900  0.32175700  0.84348500  1
  P  P9  1  0.22931700  0.68349800  0.65650200  1
  P  P10  1  0.32068100  0.76667600  0.84360300  1
  P  P11  1  0.66478100  0.66700200  0.62438200  1
  P  P12  1  0.66748400  0.66378200  0.12438500  1
  P  P13  1  0.31372600  0.91247300  0.34315000  1
  P  P14  1  0.91388500  0.77167100  0.34372100  1
  P  P15  1  0.76845000  0.91062900  0.84434100  1
  O  O0  1  0.21669100  0.99929100  0.43219900  1
  O  O1  1  0.24921000  0.07733500  0.65598400  1
  O  O2  1  0.00084000  0.24074500  0.93232100  1
  O  O3  1  0.07923300  0.24887000  0.15563100  1
  O  O4  1  0.36961900  0.11723300  0.17405500  1
  O  O5  1  0.33070500  0.18800800  0.83734600  1
  O  O6  1  0.51907100  0.11100700  0.66508400  1
  O  O7  1  0.75146200  0.00537700  0.93302400  1
  O  O8  1  0.66817400  0.08266500  0.15431300  1
  O  O9  1  0.19189800  0.32557700  0.34034900  1
  O  O10  1  0.10996100  0.37061500  0.66565700  1
  O  O11  1  0.48981200  0.19220200  0.34053200  1
  O  O12  1  0.34336700  0.33361400  0.98374900  1
  O  O13  1  0.33382900  0.34861700  0.48517800  1
  O  O14  1  0.48480700  0.33438800  0.83091300  1
  O  O15  1  0.11842300  0.51308900  0.17182400  1
  O  O16  1  0.18906900  0.48533900  0.83675900  1
  O  O17  1  0.67095500  0.25325400  0.65729900  1
  O  O18  1  0.78806200  0.21044800  0.24901600  1
  O  O19  1  0.77023500  0.22447400  0.43299300  1
  O  O20  1  0.75345900  0.25255300  0.06730600  1
  O  O21  1  0.51352900  0.37377300  0.17542000  1
  O  O22  1  0.32803200  0.48930900  0.33264200  1
  O  O23  1  0.74769200  0.33036700  0.84306600  1
  O  O24  1  0.37676700  0.52054700  0.66902000  1
  O  O25  1  0.08281700  0.66750600  0.65457800  1
  O  O26  1  0.99806900  0.21775500  0.75007000  1
  O  O27  1  0.99608800  0.22980000  0.56716900  1
  O  O28  1  0.00307800  0.77592100  0.43296400  1
  O  O29  1  0.91677000  0.33077400  0.34371400  1
  O  O30  1  0.61935800  0.47054200  0.33103200  1
  O  O31  1  0.25382400  0.66884800  0.15670200  1
  O  O32  1  0.66898400  0.51337300  0.67043400  1
  O  O33  1  0.48650300  0.62518200  0.82539600  1
  O  O34  1  0.24644300  0.74533600  0.93304000  1
  O  O35  1  0.23491000  0.77099000  0.56741400  1
  O  O36  1  0.21392500  0.78462800  0.75083500  1
  O  O37  1  0.33130500  0.74855800  0.34130800  1
  O  O38  1  0.81254300  0.51285900  0.16100600  1
  O  O39  1  0.88230900  0.48782000  0.82922000  1
  O  O40  1  0.51605300  0.66429700  0.16961300  1
  O  O41  1  0.65304300  0.66266700  0.01577300  1
  O  O42  1  0.66503100  0.65343700  0.51689800  1
  O  O43  1  0.51255800  0.80975500  0.66398400  1
  O  O44  1  0.90540400  0.62343400  0.33296300  1
  O  O45  1  0.81006700  0.67303200  0.66300300  1
  O  O46  1  0.33033700  0.91644300  0.84591700  1
  O  O47  1  0.21092000  0.99980200  0.24878800  1
  O  O48  1  0.24911500  0.99533800  0.06755400  1
  O  O49  1  0.46891400  0.90808700  0.33446800  1
  O  O50  1  0.66881900  0.81169400  0.15943700  1
  O  O51  1  0.62912500  0.88325500  0.82870400  1
  O  O52  1  0.92085000  0.75284100  0.84413300  1
  O  O53  1  0.99936900  0.75884400  0.06804800  1
  O  O54  1  0.00413800  0.78629800  0.24945500  1
  O  O55  1  0.75288000  0.92018100  0.34194100  1
  O  O56  1  0.77639100  0.00019400  0.56819600  1
  O  O57  1  0.78185000  0.00286200  0.75094200  1
loop_
_geom_bond_atom_site_label_1
_geom_bond_atom_site_label_2
_geom_bond_distance
_geom_bond_site_symmetry_2
Li0 O2 1.948219 1_555
Li0 O48 1.967084 1_546
Li0 O46 1.981534 1_545
Li0 O5 2.236831 1_555
Li1 O29 1.983377 1_455
Li1 O0 1.999836 1_545
Li1 O9 2.060551 1_555
Li1 O27 2.094929 1_455
Li2 O19 1.963469 1_555
Li2 O55 1.979754 1_545
Li2 O11 2.018632 1_555
Li2 O56 2.107741 1_555
Li3 O13 1.838573 1_555
Li3 O10 2.119798 1_555
Li3 O6 2.140485 1_555
Li3 O24 2.259091 1_555
Li4 O12 1.883175 1_554
Li4 O15 2.088342 1_555
Li4 O4 2.096823 1_555
Li4 O21 2.193828 1_555
Li5 O7 1.925370 1_555
Li5 O20 1.959889 1_556
Li5 O23 1.985909 1_555
Li5 O14 2.285701 1_555
Li6 O34 1.921819 1_555
Li6 O52 1.971648 1_455
Li6 O53 1.972464 1_456
Li6 O16 2.205798 1_555
Li7 O27 1.982152 1_555
Li7 O17 2.036410 1_555
Li7 O19 2.066158 1_555
Li7 O32 2.156461 1_555
Li8 O28 1.977574 1_555
Li8 O37 1.981573 1_555
Li8 O35 2.090695 1_555
Li8 O22 2.104338 1_555
Li9 O20 1.923985 1_555
Li9 O3 1.954897 1_655
Li9 O2 2.011763 1_654
Li9 O38 2.145355 1_555
Li10 O48 1.921315 1_555
Li10 O31 1.958974 1_555
Li10 O34 1.981096 1_554
Li10 O40 2.297179 1_555
Li11 O41 1.848673 1_556
Li11 O51 2.086829 1_555
Li11 O39 2.109736 1_555
Li11 O33 2.201843 1_555
Li12 O35 1.971713 1_555
Li12 O1 2.025487 1_565
Li12 O43 2.071780 1_555
Li12 O0 2.099502 1_555
Li13 O56 2.014388 1_565
Li13 O25 2.034527 1_655
Li13 O28 2.066071 1_655
Li13 O45 2.095970 1_555
Li14 O53 1.946630 1_555
Li14 O8 1.966040 1_565
Li14 O7 1.999339 1_564
Li14 O50 2.185455 1_555
Li15 O0 2.292438 1_555
Li15 O28 2.367719 1_555
Li15 O19 2.429528 1_465
Li15 O56 2.432056 1_465
Li15 O27 2.469769 1_465
Li15 O35 2.485084 1_555
O0 P13 1.532467 1_555
O1 P1 1.536618 1_555
O1 V4 2.058766 1_545
O2 P8 1.502814 1_455
O3 P0 1.535667 1_555
O3 V2 2.071648 1_555
O4 P0 1.544965 1_555
O4 V5 2.010798 1_545
O5 P3 1.558949 1_555
O5 V4 2.019655 1_545
O6 P2 1.539922 1_555
O6 V4 2.059020 1_545
O7 P15 1.504245 1_545
O8 P5 1.532628 1_555
O8 V5 2.058273 1_545
O9 P4 1.556459 1_555
O9 V2 2.060430 1_555
O10 P1 1.541698 1_555
O10 V3 2.054225 1_455
O11 P4 1.552394 1_555
O11 V5 2.077214 1_545
O12 P3 1.503189 1_555
O13 P4 1.513877 1_555
O14 P3 1.609635 1_555
O14 V0 1.917858 1_555
O15 P7 1.542058 1_555
O15 V2 2.016475 1_555
O16 P3 1.556856 1_555
O16 V3 2.024989 1_455
O17 P2 1.544067 1_555
O17 V0 2.020596 1_555
O18 P5 1.611206 1_555
O18 P6 1.615810 1_555
O19 P6 1.526126 1_555
O20 P5 1.504603 1_555
O21 P5 1.557081 1_555
O21 V1 1.959218 1_555
O22 P4 1.600211 1_555
O22 V1 1.951397 1_555
O23 P8 1.546011 1_555
O23 V0 2.019351 1_555
O24 P9 1.552622 1_555
O24 V0 1.983924 1_555
O25 P9 1.532586 1_555
O25 V3 2.048385 1_455
O26 P1 1.611578 1_655
O26 P8 1.613592 1_555
O27 P1 1.522313 1_655
O28 P14 1.533048 1_455
O29 P6 1.528568 1_555
O29 V2 2.041960 1_655
O30 P6 1.534392 1_555
O30 V1 1.924549 1_555
O31 P7 1.544721 1_555
O31 V1 2.039287 1_555
O32 P11 1.626149 1_555
O32 V0 1.893560 1_555
O33 P10 1.555638 1_555
O33 V0 1.948205 1_555
O34 P10 1.500428 1_555
O35 P9 1.517928 1_555
O36 P9 1.607662 1_555
O36 P10 1.617094 1_555
O37 P13 1.542971 1_555
O37 V1 2.015565 1_555
O38 P12 1.551616 1_555
O38 V2 2.042951 1_655
O39 P8 1.543053 1_555
O39 V3 2.007968 1_555
O40 P12 1.615492 1_555
O40 V1 1.882890 1_555
O41 P12 1.509506 1_555
O42 P11 1.492331 1_555
O43 P11 1.561302 1_555
O43 V4 2.027289 1_555
O44 P14 1.518299 1_555
O44 V2 1.983543 1_655
O45 P11 1.563074 1_555
O45 V3 2.027631 1_555
O46 P10 1.532091 1_555
O46 V4 2.061689 1_555
O47 P0 1.614665 1_565
O47 P13 1.615046 1_555
O48 P0 1.510002 1_565
O49 P13 1.515911 1_555
O49 V5 1.988304 1_555
O50 P12 1.550356 1_555
O50 V5 2.051907 1_555
O51 P15 1.545962 1_555
O51 V4 2.004237 1_555
O52 P15 1.536718 1_555
O52 V3 2.066040 1_555
O53 P7 1.509308 1_655
O54 P7 1.608159 1_555
O54 P14 1.620557 1_455
O55 P14 1.536360 1_555
O55 V5 2.035414 1_555
O56 P2 1.521766 1_555
O57 P2 1.604894 1_555
O57 P15 1.619434 1_545
