# generated using pymatgen
data_RbTmI3
_symmetry_space_group_name_H-M   'P 1'
_cell_length_a   4.32160100
_cell_length_b   10.24571300
_cell_length_c   17.96622500
_cell_angle_alpha   90.00000000
_cell_angle_beta   90.00000000
_cell_angle_gamma   90.00000000
_symmetry_Int_Tables_number   1
_chemical_formula_structural   RbTmI3
_chemical_formula_sum   'Rb4 Tm4 I12'
_cell_volume   795.50641832
_cell_formula_units_Z   4
loop_
 _symmetry_equiv_pos_site_id
 _symmetry_equiv_pos_as_xyz
  1  'x, y, z'
loop_
 _atom_site_type_symbol
 _atom_site_label
 _atom_site_symmetry_multiplicity
 _atom_site_fract_x
 _atom_site_fract_y
 _atom_site_fract_z
 _atom_site_occupancy
  Rb  Rb0  1  0.25000000  0.92958700  0.17242300  1
  Rb  Rb1  1  0.75000000  0.07041300  0.82757700  1
  Rb  Rb2  1  0.75000000  0.57041300  0.67242300  1
  Rb  Rb3  1  0.25000000  0.42958700  0.32757700  1
  Tm  Tm0  1  0.25000000  0.62204200  0.95728800  1
  Tm  Tm1  1  0.75000000  0.37795800  0.04271200  1
  Tm  Tm2  1  0.75000000  0.87795800  0.45728800  1
  Tm  Tm3  1  0.25000000  0.12204200  0.54271200  1
  I  I0  1  0.25000000  0.54669000  0.12374400  1
  I  I1  1  0.75000000  0.45331000  0.87625600  1
  I  I2  1  0.75000000  0.95331000  0.62374400  1
  I  I3  1  0.25000000  0.04669000  0.37625600  1
  I  I4  1  0.25000000  0.67569000  0.50274700  1
  I  I5  1  0.75000000  0.32431000  0.49725300  1
  I  I6  1  0.75000000  0.82431000  0.00274700  1
  I  I7  1  0.25000000  0.17569000  0.99725300  1
  I  I8  1  0.25000000  0.77021500  0.80601400  1
  I  I9  1  0.75000000  0.22978500  0.19398600  1
  I  I10  1  0.75000000  0.72978500  0.30601400  1
  I  I11  1  0.25000000  0.27021500  0.69398600  1
loop_
_geom_bond_atom_site_label_1
_geom_bond_atom_site_label_2
_geom_bond_distance
_geom_bond_site_symmetry_2
I0 Tm0 3.088631 1_554
I0 Tm1 3.126852 1_555
I0 Tm1 3.126852 1_455
I0 Rb3 3.853644 1_555
I0 Rb0 4.019357 1_555
I1 Tm1 3.088631 1_556
I1 Tm0 3.126852 1_655
I1 Tm0 3.126852 1_555
I1 Rb2 3.853644 1_555
I1 Rb1 4.019357 1_555
I2 Tm2 3.088631 1_555
I2 Tm3 3.126852 1_565
I2 Tm3 3.126852 1_665
I2 Rb1 3.853644 1_565
I2 Rb2 4.019357 1_555
I3 Tm3 3.088631 1_555
I3 Tm2 3.126852 1_445
I3 Tm2 3.126852 1_545
I3 Rb0 3.853644 1_545
I3 Rb3 4.019357 1_555
I4 Tm2 3.103363 1_455
I4 Tm2 3.103363 1_555
I4 Rb2 3.889150 1_455
I4 Rb2 3.889150 1_555
I4 Rb3 4.032676 1_555
I5 Tm3 3.103363 1_655
I5 Tm3 3.103363 1_555
I5 Rb3 3.889150 1_555
I5 Rb3 3.889150 1_655
I5 Rb2 4.032676 1_555
I6 Tm0 3.103363 1_554
I6 Tm0 3.103363 1_654
I6 Rb0 3.889150 1_655
I6 Rb0 3.889150 1_555
I6 Rb1 4.032676 1_564
I7 Tm1 3.103363 1_556
I7 Tm1 3.103363 1_456
I7 Rb1 3.889150 1_455
I7 Rb1 3.889150 1_555
I7 Rb0 4.032676 1_546
I8 Tm0 3.113086 1_555
I8 Rb1 3.778801 1_565
I8 Rb1 3.778801 1_465
I8 Rb2 3.823655 1_555
I8 Rb2 3.823655 1_455
I9 Tm1 3.113086 1_555
I9 Rb0 3.778801 1_545
I9 Rb0 3.778801 1_645
I9 Rb3 3.823655 1_555
I9 Rb3 3.823655 1_655
I10 Tm2 3.113086 1_555
I10 Rb3 3.778801 1_555
I10 Rb3 3.778801 1_655
I10 Rb0 3.823655 1_655
I10 Rb0 3.823655 1_555
I11 Tm3 3.113086 1_555
I11 Rb2 3.778801 1_555
I11 Rb2 3.778801 1_455
I11 Rb1 3.823655 1_555
I11 Rb1 3.823655 1_455
