# generated using pymatgen
data_Ca3Ti2(GeO4)3
_symmetry_space_group_name_H-M   'P 1'
_cell_length_a   10.85736049
_cell_length_b   10.85736049
_cell_length_c   10.85736049
_cell_angle_alpha   109.47122063
_cell_angle_beta   109.47122063
_cell_angle_gamma   109.47122063
_symmetry_Int_Tables_number   1
_chemical_formula_structural   Ca3Ti2(GeO4)3
_chemical_formula_sum   'Ca12 Ti8 Ge12 O48'
_cell_volume   985.26006908
_cell_formula_units_Z   4
loop_
 _symmetry_equiv_pos_site_id
 _symmetry_equiv_pos_as_xyz
  1  'x, y, z'
loop_
 _atom_site_type_symbol
 _atom_site_label
 _atom_site_symmetry_multiplicity
 _atom_site_fract_x
 _atom_site_fract_y
 _atom_site_fract_z
 _atom_site_occupancy
  Ca  Ca0  1  0.25000000  0.87500000  0.62500000  1
  Ca  Ca1  1  0.75000000  0.62500000  0.87500000  1
  Ca  Ca2  1  0.62500000  0.87500000  0.75000000  1
  Ca  Ca3  1  0.87500000  0.62500000  0.25000000  1
  Ca  Ca4  1  0.62500000  0.25000000  0.87500000  1
  Ca  Ca5  1  0.87500000  0.75000000  0.62500000  1
  Ca  Ca6  1  0.75000000  0.12500000  0.37500000  1
  Ca  Ca7  1  0.25000000  0.37500000  0.12500000  1
  Ca  Ca8  1  0.37500000  0.12500000  0.25000000  1
  Ca  Ca9  1  0.12500000  0.37500000  0.75000000  1
  Ca  Ca10  1  0.37500000  0.75000000  0.12500000  1
  Ca  Ca11  1  0.12500000  0.25000000  0.37500000  1
  Ti  Ti0  1  0.50000000  0.50000000  0.50000000  1
  Ti  Ti1  1  0.50000000  0.00000000  0.50000000  1
  Ti  Ti2  1  0.00000000  0.50000000  0.50000000  1
  Ti  Ti3  1  0.50000000  0.50000000  0.00000000  1
  Ti  Ti4  1  0.00000000  0.00000000  0.50000000  1
  Ti  Ti5  1  0.00000000  0.50000000  0.00000000  1
  Ti  Ti6  1  0.50000000  0.00000000  0.00000000  1
  Ti  Ti7  1  0.00000000  0.00000000  0.00000000  1
  Ge  Ge0  1  0.12500000  0.75000000  0.87500000  1
  Ge  Ge1  1  0.87500000  0.25000000  0.12500000  1
  Ge  Ge2  1  0.62500000  0.37500000  0.25000000  1
  Ge  Ge3  1  0.75000000  0.87500000  0.12500000  1
  Ge  Ge4  1  0.87500000  0.12500000  0.75000000  1
  Ge  Ge5  1  0.25000000  0.62500000  0.37500000  1
  Ge  Ge6  1  0.75000000  0.37500000  0.62500000  1
  Ge  Ge7  1  0.25000000  0.12500000  0.87500000  1
  Ge  Ge8  1  0.12500000  0.87500000  0.25000000  1
  Ge  Ge9  1  0.37500000  0.62500000  0.75000000  1
  Ge  Ge10  1  0.62500000  0.75000000  0.37500000  1
  Ge  Ge11  1  0.37500000  0.25000000  0.62500000  1
  O  O0  1  0.41573200  0.81444400  0.79725800  1
  O  O1  1  0.88152600  0.39871100  0.08426800  1
  O  O2  1  0.10128900  0.98281500  0.68555600  1
  O  O3  1  0.51718500  0.61847400  0.70274100  1
  O  O4  1  0.68555600  0.08426800  0.70274200  1
  O  O5  1  0.61847400  0.70274100  0.51718500  1
  O  O6  1  0.61847400  0.41573200  0.10128900  1
  O  O7  1  0.70274200  0.51718500  0.61847400  1
  O  O8  1  0.81444400  0.51718500  0.39871100  1
  O  O9  1  0.98281500  0.79725800  0.88152600  1
  O  O10  1  0.79725900  0.88152600  0.98281500  1
  O  O11  1  0.70274200  0.68555600  0.08426800  1
  O  O12  1  0.41573200  0.10128900  0.61847400  1
  O  O13  1  0.39871100  0.81444400  0.51718500  1
  O  O14  1  0.08426800  0.70274200  0.68555600  1
  O  O15  1  0.10128900  0.61847400  0.41573200  1
  O  O16  1  0.51718500  0.39871100  0.81444400  1
  O  O17  1  0.08426800  0.88152600  0.39871100  1
  O  O18  1  0.98281500  0.68555600  0.10128900  1
  O  O19  1  0.18555600  0.48281500  0.60128900  1
  O  O20  1  0.68555600  0.10128900  0.98281500  1
  O  O21  1  0.79725900  0.41573200  0.81444400  1
  O  O22  1  0.39871100  0.08426800  0.88152600  1
  O  O23  1  0.88152600  0.98281500  0.79725900  1
  O  O24  1  0.58426800  0.18555600  0.20274100  1
  O  O25  1  0.11847400  0.60128900  0.91573200  1
  O  O26  1  0.89871100  0.01718500  0.31444400  1
  O  O27  1  0.48281500  0.38152600  0.29725900  1
  O  O28  1  0.31444400  0.91573200  0.29725900  1
  O  O29  1  0.38152600  0.29725900  0.48281500  1
  O  O30  1  0.38152600  0.58426800  0.89871100  1
  O  O31  1  0.29725900  0.48281500  0.38152600  1
  O  O32  1  0.11847400  0.01718500  0.20274100  1
  O  O33  1  0.60128900  0.91573200  0.11847400  1
  O  O34  1  0.20274100  0.58426800  0.18555600  1
  O  O35  1  0.18555600  0.20274100  0.58426800  1
  O  O36  1  0.31444400  0.89871100  0.01718500  1
  O  O37  1  0.01718500  0.31444400  0.89871100  1
  O  O38  1  0.91573200  0.11847400  0.60128900  1
  O  O39  1  0.48281500  0.60128900  0.18555600  1
  O  O40  1  0.89871100  0.38152600  0.58426800  1
  O  O41  1  0.91573200  0.29725900  0.31444400  1
  O  O42  1  0.60128900  0.18555600  0.48281500  1
  O  O43  1  0.58426800  0.89871100  0.38152600  1
  O  O44  1  0.29725900  0.31444400  0.91573200  1
  O  O45  1  0.20274200  0.11847400  0.01718500  1
  O  O46  1  0.01718500  0.20274200  0.11847400  1
  O  O47  1  0.81444400  0.79725900  0.41573200  1
loop_
_geom_bond_atom_site_label_1
_geom_bond_atom_site_label_2
_geom_bond_distance
_geom_bond_site_symmetry_2
Ca0 O13 2.421603 1_555
Ca0 O2 2.421603 1_555
Ca0 O22 2.421607 1_565
Ca0 O15 2.421607 1_555
Ca0 O14 2.555966 1_555
Ca0 O0 2.555966 1_555
Ca0 O12 2.555974 1_565
Ca0 O17 2.555974 1_555
Ca1 O10 2.421603 1_555
Ca1 O11 2.421606 1_556
Ca1 O7 2.421607 1_555
Ca1 O21 2.421613 1_555
Ca1 O9 2.555974 1_555
Ca1 O18 2.555978 1_556
Ca1 O3 2.555978 1_555
Ca1 O16 2.555978 1_555
Ca2 O23 2.421603 1_555
Ca2 O3 2.421603 1_555
Ca2 O0 2.421606 1_555
Ca2 O4 2.421606 1_565
Ca2 O20 2.555978 1_565
Ca2 O13 2.555978 1_555
Ca2 O5 2.555978 1_555
Ca2 O10 2.555978 1_555
Ca3 O8 2.421603 1_555
Ca3 O18 2.421603 1_555
Ca3 O17 2.421607 1_655
Ca3 O6 2.421607 1_555
Ca3 O11 2.555966 1_555
Ca3 O47 2.555972 1_555
Ca3 O15 2.555974 1_655
Ca3 O1 2.555974 1_555
Ca4 O16 2.421603 1_555
Ca4 O20 2.421603 1_555
Ca4 O1 2.421607 1_556
Ca4 O12 2.421607 1_555
Ca4 O4 2.555966 1_555
Ca4 O21 2.555972 1_555
Ca4 O6 2.555974 1_556
Ca4 O22 2.555974 1_555
Ca5 O5 2.421603 1_555
Ca5 O14 2.421606 1_655
Ca5 O9 2.421607 1_555
Ca5 O47 2.421613 1_555
Ca5 O7 2.555974 1_555
Ca5 O2 2.555978 1_655
Ca5 O8 2.555978 1_555
Ca5 O23 2.555978 1_555
Ca6 O26 2.421603 1_555
Ca6 O42 2.421603 1_555
Ca6 O33 2.421607 1_545
Ca6 O40 2.421607 1_555
Ca6 O41 2.555972 1_555
Ca6 O24 2.555972 1_555
Ca6 O38 2.555974 1_555
Ca6 O43 2.555974 1_545
Ca7 O31 2.421603 1_555
Ca7 O45 2.421607 1_555
Ca7 O34 2.421613 1_555
Ca7 O44 2.421613 1_554
Ca7 O46 2.555974 1_555
Ca7 O39 2.555978 1_555
Ca7 O27 2.555978 1_555
Ca7 O37 2.555978 1_554
Ca8 O27 2.421603 1_555
Ca8 O32 2.421603 1_555
Ca8 O24 2.421613 1_555
Ca8 O28 2.421613 1_545
Ca8 O45 2.555974 1_555
Ca8 O42 2.555978 1_555
Ca8 O29 2.555978 1_555
Ca8 O36 2.555978 1_545
Ca9 O37 2.421603 1_555
Ca9 O19 2.421603 1_555
Ca9 O30 2.421607 1_555
Ca9 O38 2.421607 1_455
Ca9 O44 2.555972 1_555
Ca9 O35 2.555972 1_555
Ca9 O25 2.555974 1_555
Ca9 O40 2.555974 1_455
Ca10 O36 2.421603 1_555
Ca10 O39 2.421603 1_555
Ca10 O43 2.421607 1_555
Ca10 O25 2.421607 1_554
Ca10 O28 2.555972 1_555
Ca10 O34 2.555972 1_555
Ca10 O33 2.555974 1_555
Ca10 O30 2.555974 1_554
Ca11 O29 2.421603 1_555
Ca11 O46 2.421607 1_555
Ca11 O41 2.421613 1_455
Ca11 O35 2.421613 1_555
Ca11 O19 2.555978 1_555
Ca11 O31 2.555978 1_555
Ca11 O32 2.555978 1_555
Ca11 O26 2.555978 1_455
Ge0 O9 1.796723 1_455
Ge0 O25 1.796723 1_555
Ge0 O36 1.796729 1_556
Ge0 O14 1.796734 1_555
Ge1 O1 1.796723 1_555
Ge1 O46 1.796723 1_655
Ge1 O20 1.796729 1_554
Ge1 O41 1.796732 1_555
Ge2 O6 1.796723 1_555
Ge2 O8 1.796729 1_555
Ge2 O27 1.796729 1_555
Ge2 O24 1.796732 1_555
Ge3 O33 1.796723 1_555
Ge3 O10 1.796729 1_554
Ge3 O26 1.796729 1_565
Ge3 O11 1.796734 1_555
Ge4 O38 1.796723 1_555
Ge4 O23 1.796729 1_545
Ge4 O37 1.796729 1_655
Ge4 O4 1.796734 1_555
Ge5 O15 1.796723 1_555
Ge5 O13 1.796729 1_555
Ge5 O31 1.796729 1_555
Ge5 O34 1.796732 1_555
Ge6 O40 1.796723 1_555
Ge6 O7 1.796723 1_555
Ge6 O42 1.796729 1_555
Ge6 O21 1.796732 1_555
Ge7 O22 1.796723 1_555
Ge7 O45 1.796723 1_556
Ge7 O2 1.796729 1_545
Ge7 O44 1.796732 1_555
Ge8 O17 1.796723 1_555
Ge8 O32 1.796729 1_565
Ge8 O18 1.796729 1_455
Ge8 O28 1.796732 1_555
Ge9 O30 1.796723 1_555
Ge9 O19 1.796729 1_555
Ge9 O3 1.796729 1_555
Ge9 O0 1.796734 1_555
Ge10 O43 1.796723 1_555
Ge10 O39 1.796729 1_555
Ge10 O5 1.796729 1_555
Ge10 O47 1.796732 1_555
Ge11 O12 1.796723 1_555
Ge11 O16 1.796729 1_555
Ge11 O29 1.796729 1_555
Ge11 O35 1.796732 1_555
O0 Ti6 2.052655 1_566
O1 Ti5 2.052660 1_655
O2 Ti4 2.052651 1_565
O3 Ti0 2.052651 1_555
O4 Ti1 2.052655 1_555
O5 Ti0 2.052651 1_555
O6 Ti3 2.052660 1_555
O7 Ti0 2.052660 1_555
O8 Ti2 2.052651 1_655
O9 Ti7 2.052660 1_666
O10 Ti7 2.052651 1_666
O11 Ti3 2.052655 1_555
O12 Ti1 2.052660 1_555
O13 Ti1 2.052651 1_565
O14 Ti2 2.052655 1_555
O15 Ti2 2.052660 1_555
O16 Ti3 2.052651 1_556
O17 Ti4 2.052660 1_565
O18 Ti5 2.052651 1_655
O19 Ti2 2.052651 1_555
O20 Ti6 2.052651 1_556
O21 Ti5 2.052649 1_656
O22 Ti6 2.052660 1_556
O23 Ti7 2.052651 1_666
O24 Ti6 2.052649 1_555
O25 Ti5 2.052660 1_556
O26 Ti4 2.052651 1_655
O27 Ti0 2.052651 1_555
O28 Ti1 2.052649 1_565
O29 Ti0 2.052651 1_555
O30 Ti3 2.052660 1_556
O31 Ti0 2.052651 1_555
O32 Ti7 2.052651 1_555
O33 Ti6 2.052660 1_565
O34 Ti5 2.052649 1_555
O35 Ti4 2.052649 1_555
O36 Ti6 2.052651 1_565
O37 Ti5 2.052651 1_556
O38 Ti4 2.052660 1_655
O39 Ti3 2.052651 1_555
O40 Ti2 2.052660 1_655
O41 Ti2 2.052649 1_655
O42 Ti1 2.052651 1_555
O43 Ti1 2.052660 1_565
O44 Ti3 2.052649 1_556
O45 Ti7 2.052660 1_555
O46 Ti7 2.052660 1_555
O47 Ti4 2.052649 1_665
