# generated using pymatgen
data_BaYCuS3
_symmetry_space_group_name_H-M   'P 1'
_cell_length_a   7.08947269
_cell_length_b   7.08947269
_cell_length_c   10.30500600
_cell_angle_alpha   90.00000000
_cell_angle_beta   90.00000000
_cell_angle_gamma   146.91211064
_symmetry_Int_Tables_number   1
_chemical_formula_structural   BaYCuS3
_chemical_formula_sum   'Ba2 Y2 Cu2 S6'
_cell_volume   282.75416058
_cell_formula_units_Z   2
loop_
 _symmetry_equiv_pos_site_id
 _symmetry_equiv_pos_as_xyz
  1  'x, y, z'
loop_
 _atom_site_type_symbol
 _atom_site_label
 _atom_site_symmetry_multiplicity
 _atom_site_fract_x
 _atom_site_fract_y
 _atom_site_fract_z
 _atom_site_occupancy
  Ba  Ba0  1  0.25578800  0.74421200  0.25000000  1
  Ba  Ba1  1  0.74421200  0.25578800  0.75000000  1
  Y  Y0  1  0.00000000  0.00000000  0.50000000  1
  Y  Y1  1  0.00000000  0.00000000  0.00000000  1
  Cu  Cu0  1  0.53259600  0.46740400  0.25000000  1
  Cu  Cu1  1  0.46740400  0.53259600  0.75000000  1
  S  S0  1  0.63151900  0.36848100  0.43581500  1
  S  S1  1  0.36848100  0.63151900  0.56418500  1
  S  S2  1  0.63151900  0.36848100  0.06418500  1
  S  S3  1  0.36848100  0.63151900  0.93581500  1
  S  S4  1  0.93420100  0.06579900  0.25000000  1
  S  S5  1  0.06579900  0.93420100  0.75000000  1
loop_
_geom_bond_atom_site_label_1
_geom_bond_atom_site_label_2
_geom_bond_distance
_geom_bond_site_symmetry_2
Ba0 S4 3.155284 1_455
Ba0 S4 3.155284 1_565
Ba0 S0 3.254958 1_565
Ba0 S0 3.254958 1_455
Ba0 S2 3.254958 1_565
Ba0 S2 3.254958 1_455
Ba0 S1 3.581721 1_555
Ba0 S3 3.581721 1_554
Ba1 S5 3.155284 1_545
Ba1 S5 3.155284 1_655
Ba1 S3 3.254958 1_655
Ba1 S3 3.254958 1_545
Ba1 S1 3.254958 1_655
Ba1 S1 3.254958 1_545
Ba1 S2 3.581721 1_556
Ba1 S0 3.581721 1_555
Cu0 S0 2.339741 1_555
Cu0 S2 2.339741 1_555
Cu0 S4 2.421542 1_455
Cu0 S4 2.421542 1_565
Cu1 S3 2.339741 1_555
Cu1 S1 2.339741 1_555
Cu1 S5 2.421542 1_545
Cu1 S5 2.421542 1_655
S0 Y0 2.776379 1_555
S0 Y0 2.776379 1_665
S1 Y0 2.776379 1_555
S1 Y0 2.776379 1_665
S2 Y1 2.776379 1_555
S2 Y1 2.776379 1_665
S3 Y1 2.776379 1_556
S3 Y1 2.776379 1_666
S4 Y0 2.727070 1_655
S4 Y1 2.727070 1_655
S5 Y0 2.727070 1_565
S5 Y1 2.727070 1_566
