# generated using pymatgen
data_V3Ge
_symmetry_space_group_name_H-M   'P 1'
_cell_length_a   4.74024223
_cell_length_b   4.74023094
_cell_length_c   4.74006361
_cell_angle_alpha   90.00000000
_cell_angle_beta   90.00000000
_cell_angle_gamma   90.00000000
_symmetry_Int_Tables_number   1
_chemical_formula_structural   V3Ge
_chemical_formula_sum   'V6 Ge2'
_cell_volume   106.50848457
_cell_formula_units_Z   2
loop_
 _symmetry_equiv_pos_site_id
 _symmetry_equiv_pos_as_xyz
  1  'x, y, z'
loop_
 _atom_site_type_symbol
 _atom_site_label
 _atom_site_symmetry_multiplicity
 _atom_site_fract_x
 _atom_site_fract_y
 _atom_site_fract_z
 _atom_site_occupancy
  V  V0  1  0.50000443  0.24996547  -0.00000000  1
  V  V1  1  0.50000443  0.75003453  0.00000000  1
  V  V2  1  0.25002918  0.00000000  0.50000000  1
  V  V3  1  0.74997082  0.00000000  0.50000000  1
  V  V4  1  -0.00000443  0.50000000  0.25000378  1
  V  V5  1  -0.00000443  0.50000000  0.74999622  1
  Ge  Ge0  1  0.49992242  0.50000000  0.50000000  1
  Ge  Ge1  1  0.00007758  0.00000000  0.00000000  1
loop_
_geom_bond_atom_site_label_1
_geom_bond_atom_site_label_2
_geom_bond_distance
_geom_bond_site_symmetry_2
V0 V1 2.369788 1_545
V0 V1 2.370443 1_555
V2 V3 2.369844 1_555
V2 V3 2.370398 1_455
V4 V5 2.369996 1_555
V4 V5 2.370068 1_554
Ge0 V4 2.649538 1_555
Ge0 V5 2.649538 1_555
Ge0 V2 2.649645 1_555
Ge0 V2 2.649645 1_565
Ge0 V0 2.649868 1_555
Ge0 V0 2.649868 1_556
Ge0 V1 2.649868 1_555
Ge0 V1 2.649868 1_556
Ge0 V3 2.649974 1_555
Ge0 V3 2.649974 1_565
Ge0 V5 2.650158 1_655
Ge0 V4 2.650158 1_655
Ge1 V0 2.649491 1_555
Ge1 V1 2.649491 1_545
Ge1 V2 2.649693 1_555
Ge1 V2 2.649693 1_554
Ge1 V5 2.649859 1_544
Ge1 V4 2.649859 1_545
Ge1 V5 2.649859 1_554
Ge1 V4 2.649859 1_555
Ge1 V3 2.650022 1_455
Ge1 V3 2.650022 1_454
Ge1 V0 2.650112 1_455
Ge1 V1 2.650112 1_445
