# generated using pymatgen
data_MgAsH7O4
_symmetry_space_group_name_H-M   'P 1'
_cell_length_a   6.52958419
_cell_length_b   12.19781765
_cell_length_c   11.75428547
_cell_angle_alpha   97.51376349
_cell_angle_beta   73.87384011
_cell_angle_gamma   118.08580153
_symmetry_Int_Tables_number   1
_chemical_formula_structural   MgAsH7O4
_chemical_formula_sum   'Mg4 As4 H28 O16'
_cell_volume   793.44838932
_cell_formula_units_Z   4
loop_
 _symmetry_equiv_pos_site_id
 _symmetry_equiv_pos_as_xyz
  1  'x, y, z'
loop_
 _atom_site_type_symbol
 _atom_site_label
 _atom_site_symmetry_multiplicity
 _atom_site_fract_x
 _atom_site_fract_y
 _atom_site_fract_z
 _atom_site_occupancy
  Mg  Mg0  1  0.51704400  0.75000000  0.96591100  1
  Mg  Mg1  1  0.48295600  0.25000000  0.03408900  1
  Mg  Mg2  1  0.38845400  0.75000000  0.22309200  1
  Mg  Mg3  1  0.61154600  0.25000000  0.77690800  1
  As  As0  1  0.91583400  0.85557900  0.29228500  1
  As  As1  1  0.08416600  0.14442100  0.70771500  1
  As  As2  1  0.79188100  0.64442100  0.29228500  1
  As  As3  1  0.20811900  0.35557900  0.70771500  1
  H  H0  1  0.97684500  0.50349000  0.30186700  1
  H  H1  1  0.02315500  0.49651000  0.69813300  1
  H  H2  1  0.72128800  0.99651000  0.30186700  1
  H  H3  1  0.27871200  0.00349000  0.69813300  1
  H  H4  1  0.58778800  0.62429800  0.60007800  1
  H  H5  1  0.41221200  0.37570200  0.39992200  1
  H  H6  1  0.81213400  0.87570200  0.60007800  1
  H  H7  1  0.18786600  0.12429800  0.39992200  1
  H  H8  1  0.99947600  0.86567600  0.80570200  1
  H  H9  1  0.00052400  0.13432400  0.19429800  1
  H  H10  1  0.19482200  0.63432400  0.80570200  1
  H  H11  1  0.80517800  0.36567600  0.19429800  1
  H  H12  1  0.10809400  0.65334200  0.94681200  1
  H  H13  1  0.89190600  0.34665800  0.05318800  1
  H  H14  1  0.94509500  0.84665800  0.94681200  1
  H  H15  1  0.05490500  0.15334200  0.05318800  1
  H  H16  1  0.49108700  0.42054800  0.89944400  1
  H  H17  1  0.50891300  0.57945200  0.10055600  1
  H  H18  1  0.60946900  0.07945200  0.89944400  1
  H  H19  1  0.39053100  0.92054800  0.10055600  1
  H  H20  1  0.20861800  0.62977500  0.63351900  1
  H  H21  1  0.79138200  0.37022500  0.36648100  1
  H  H22  1  0.15786300  0.87022500  0.63351900  1
  H  H23  1  0.84213700  0.12977500  0.36648100  1
  H  H24  1  0.84809200  0.86750400  0.53378400  1
  H  H25  1  0.15190800  0.13249600  0.46621600  1
  H  H26  1  0.61812400  0.63249600  0.53378400  1
  H  H27  1  0.38187600  0.36750400  0.46621600  1
  O  O0  1  0.40607500  0.84489400  0.09199100  1
  O  O1  1  0.59392500  0.15510600  0.90800900  1
  O  O2  1  0.50193400  0.65510600  0.09199100  1
  O  O3  1  0.49806600  0.34489400  0.90800900  1
  O  O4  1  0.20389000  0.90670400  0.70666100  1
  O  O5  1  0.79611000  0.09329600  0.29333900  1
  O  O6  1  0.08944900  0.59329600  0.70666100  1
  O  O7  1  0.91055100  0.40670400  0.29333900  1
  O  O8  1  0.05737700  0.64011400  0.30349800  1
  O  O9  1  0.94262300  0.35988600  0.69650200  1
  O  O10  1  0.63912500  0.85988600  0.30349800  1
  O  O11  1  0.36087500  0.14011400  0.69650200  1
  O  O12  1  0.25104000  0.66154400  0.88649700  1
  O  O13  1  0.74896000  0.33845600  0.11350300  1
  O  O14  1  0.86246300  0.83845600  0.88649700  1
  O  O15  1  0.13753700  0.16154400  0.11350300  1
loop_
_geom_bond_atom_site_label_1
_geom_bond_atom_site_label_2
_geom_bond_distance
_geom_bond_site_symmetry_2
Mg0 O0 1.950811 1_556
Mg0 O2 1.950814 1_556
Mg0 O12 1.981156 1_555
Mg0 O14 1.981161 1_555
Mg1 O1 1.950811 1_554
Mg1 O3 1.950814 1_554
Mg1 O13 1.981156 1_555
Mg1 O15 1.981161 1_555
Mg2 O10 1.957338 1_555
Mg2 O8 1.957338 1_555
Mg2 O0 1.992565 1_555
Mg2 O2 1.992566 1_555
Mg3 O11 1.957338 1_555
Mg3 O9 1.957338 1_555
Mg3 O1 1.992565 1_555
Mg3 O3 1.992566 1_555
As0 O10 1.799977 1_555
As1 O11 1.799977 1_555
As2 O8 1.799977 1_655
As3 O9 1.799977 1_455
H0 O7 1.050313 1_555
H0 O8 1.492065 1_655
H1 O6 1.050313 1_555
H1 O9 1.492065 1_455
H2 O5 1.050313 1_565
H2 O10 1.492065 1_555
H3 O4 1.050313 1_545
H3 O11 1.492065 1_555
H8 O14 1.069264 1_555
H8 O4 1.430902 1_655
H9 O15 1.069264 1_555
H9 O5 1.430902 1_455
H10 O12 1.069264 1_555
H10 O6 1.430902 1_555
H11 O13 1.069264 1_555
H11 O7 1.430902 1_555
H12 O12 0.973066 1_555
H13 O13 0.973066 1_555
H14 O14 0.973070 1_555
H15 O15 0.973070 1_555
H16 O3 0.964489 1_555
H17 O2 0.964489 1_555
H18 O1 0.964489 1_555
H19 O0 0.964489 1_555
H20 O6 0.972123 1_555
H21 O7 0.972123 1_555
H22 O4 0.972123 1_555
H23 O5 0.972123 1_555
H24 H6 0.756593 1_555
H25 H7 0.756593 1_555
H26 H4 0.756593 1_555
H27 H5 0.756593 1_555
