# generated using pymatgen
data_VIO7
_symmetry_space_group_name_H-M   'P 1'
_cell_length_a   9.63943100
_cell_length_b   11.49430700
_cell_length_c   6.78232241
_cell_angle_alpha   90.00000000
_cell_angle_beta   93.23569384
_cell_angle_gamma   90.00000000
_symmetry_Int_Tables_number   1
_chemical_formula_structural   VIO7
_chemical_formula_sum   'V4 I4 O28'
_cell_volume   750.27368717
_cell_formula_units_Z   4
loop_
 _symmetry_equiv_pos_site_id
 _symmetry_equiv_pos_as_xyz
  1  'x, y, z'
loop_
 _atom_site_type_symbol
 _atom_site_label
 _atom_site_symmetry_multiplicity
 _atom_site_fract_x
 _atom_site_fract_y
 _atom_site_fract_z
 _atom_site_occupancy
  V  V0  1  0.67997700  0.27718700  0.92416000  1
  V  V1  1  0.32002300  0.77718700  0.57584000  1
  V  V2  1  0.32002300  0.72281300  0.07584000  1
  V  V3  1  0.67997700  0.22281300  0.42416000  1
  I  I0  1  0.21645100  0.52381800  0.73662500  1
  I  I1  1  0.78354900  0.02381800  0.76337500  1
  I  I2  1  0.78354900  0.47618200  0.26337500  1
  I  I3  1  0.21645100  0.97618200  0.23662500  1
  O  O0  1  0.73407400  0.28289800  0.67709200  1
  O  O1  1  0.26592600  0.78289800  0.82290800  1
  O  O2  1  0.26592600  0.71710200  0.32290800  1
  O  O3  1  0.73407400  0.21710200  0.17709200  1
  O  O4  1  0.16183200  0.24673500  0.73661700  1
  O  O5  1  0.83816800  0.74673500  0.76338300  1
  O  O6  1  0.83816800  0.75326500  0.26338300  1
  O  O7  1  0.16183200  0.25326500  0.23661700  1
  O  O8  1  0.78538000  0.08002400  0.50304600  1
  O  O9  1  0.21462000  0.58002400  0.99695400  1
  O  O10  1  0.21462000  0.91997600  0.49695400  1
  O  O11  1  0.78538000  0.41997600  0.00304600  1
  O  O12  1  0.92916200  0.09542400  0.88188900  1
  O  O13  1  0.07083800  0.59542400  0.61811100  1
  O  O14  1  0.07083800  0.90457600  0.11811100  1
  O  O15  1  0.92916200  0.40457600  0.38188900  1
  O  O16  1  0.52317000  0.32628900  0.92427700  1
  O  O17  1  0.47683000  0.82628900  0.57572300  1
  O  O18  1  0.47683000  0.67371100  0.07572300  1
  O  O19  1  0.52317000  0.17371100  0.42427700  1
  O  O20  1  0.63678700  0.10327500  0.86458900  1
  O  O21  1  0.36321300  0.60327500  0.63541100  1
  O  O22  1  0.36321300  0.89672500  0.13541100  1
  O  O23  1  0.63678700  0.39672500  0.36458900  1
  O  O24  1  0.24769600  0.19882400  0.63615500  1
  O  O25  1  0.75230400  0.69882400  0.86384500  1
  O  O26  1  0.75230400  0.80117600  0.36384500  1
  O  O27  1  0.24769600  0.30117600  0.13615500  1
loop_
_geom_bond_atom_site_label_1
_geom_bond_atom_site_label_2
_geom_bond_distance
_geom_bond_site_symmetry_2
I0 O13 1.779418 1_555
I0 O21 1.848343 1_555
I0 O9 1.881137 1_555
I1 O12 1.779418 1_555
I1 O20 1.848343 1_555
I1 O8 1.881137 1_555
I2 O15 1.779418 1_555
I2 O23 1.848343 1_555
I2 O11 1.881137 1_555
I3 O14 1.779418 1_555
I3 O22 1.848343 1_555
I3 O10 1.881137 1_555
O0 V0 1.784049 1_555
O0 V3 1.894926 1_555
O1 V1 1.784049 1_555
O1 V2 1.894926 1_556
O2 V2 1.784049 1_555
O2 V1 1.894926 1_555
O3 V3 1.784049 1_555
O3 V0 1.894926 1_554
O8 V3 1.987696 1_555
O9 V2 1.987696 1_556
O10 V1 1.987696 1_555
O11 V0 1.987696 1_554
O16 V0 1.613505 1_555
O17 V1 1.613505 1_555
O18 V2 1.613505 1_555
O19 V3 1.613505 1_555
O20 V0 2.076914 1_555
O21 V1 2.076914 1_555
O22 V2 2.076914 1_555
O23 V3 2.076914 1_555
O24 O4 1.231361 1_555
O25 O5 1.231361 1_555
O26 O6 1.231361 1_555
O27 O7 1.231361 1_555
