# generated using pymatgen
data_Li2V3WO8
_symmetry_space_group_name_H-M   'P 1'
_cell_length_a   6.04694564
_cell_length_b   10.51920242
_cell_length_c   6.11783097
_cell_angle_alpha   106.84877225
_cell_angle_beta   60.38309458
_cell_angle_gamma   90.00017597
_symmetry_Int_Tables_number   1
_chemical_formula_structural   Li2V3WO8
_chemical_formula_sum   'Li4 V6 W2 O16'
_cell_volume   318.95006980
_cell_formula_units_Z   2
loop_
 _symmetry_equiv_pos_site_id
 _symmetry_equiv_pos_as_xyz
  1  'x, y, z'
loop_
 _atom_site_type_symbol
 _atom_site_label
 _atom_site_symmetry_multiplicity
 _atom_site_fract_x
 _atom_site_fract_y
 _atom_site_fract_z
 _atom_site_occupancy
  Li  Li0  1  0.30490400  0.56383600  0.38864800  1
  Li  Li1  1  0.80627900  0.06373000  0.38890300  1
  Li  Li2  1  0.19520300  0.93627400  0.61107300  1
  Li  Li3  1  0.69355400  0.43617000  0.61136900  1
  V  V0  1  0.25008300  0.74948800  0.99911800  1
  V  V1  1  0.24920800  0.25051500  0.00088100  1
  V  V2  1  0.00880700  0.49999500  0.00001400  1
  V  V3  1  0.74966700  0.25001600  0.99956300  1
  V  V4  1  0.74923900  0.74998100  0.00044100  1
  V  V5  1  0.49167500  0.00000100  0.99998700  1
  W  W0  1  0.75000600  0.74972000  0.50008700  1
  W  W1  1  0.25009700  0.25028000  0.49990300  1
  O  O0  1  0.10238700  0.63124500  0.79504500  1
  O  O1  1  0.60250100  0.13165300  0.79578800  1
  O  O2  1  0.39831400  0.86834900  0.20420100  1
  O  O3  1  0.89744500  0.36874600  0.20497000  1
  O  O4  1  0.87461200  0.85829000  0.24351900  1
  O  O5  1  0.38167700  0.35875500  0.24387900  1
  O  O6  1  0.10831700  0.63208700  0.24500900  1
  O  O7  1  0.59246200  0.13461300  0.25670900  1
  O  O8  1  0.65084600  0.63410900  0.25633500  1
  O  O9  1  0.14692700  0.13158300  0.24552400  1
  O  O10  1  0.84919200  0.86539800  0.74327100  1
  O  O11  1  0.35332800  0.36791000  0.75501200  1
  O  O12  1  0.39246100  0.86841400  0.75445300  1
  O  O13  1  0.90716500  0.36588300  0.74369100  1
  O  O14  1  0.62552300  0.64124700  0.75615500  1
  O  O15  1  0.11812200  0.14170900  0.75644800  1
loop_
_geom_bond_atom_site_label_1
_geom_bond_atom_site_label_2
_geom_bond_distance
_geom_bond_site_symmetry_2
Li0 O6 2.024607 1_555
Li0 O5 2.034662 1_555
Li0 O0 2.037803 1_555
Li0 O8 2.061767 1_555
Li1 O9 2.024603 1_655
Li1 O4 2.038269 1_545
Li1 O1 2.040226 1_555
Li1 O7 2.065143 1_555
Li2 O12 2.024581 1_555
Li2 O15 2.038222 1_565
Li2 O2 2.040161 1_555
Li2 O10 2.065115 1_455
Li3 O11 2.024661 1_555
Li3 O14 2.034623 1_555
Li3 O3 2.037812 1_555
Li3 O13 2.061784 1_555
O0 V2 2.025112 1_556
O0 V0 2.026163 1_555
O0 V4 2.034007 1_456
O1 V3 2.023131 1_555
O1 V5 2.025596 1_555
O1 V1 2.035385 1_556
O2 V4 2.023111 1_555
O2 V5 2.025660 1_564
O2 V0 2.035458 1_554
O3 V2 2.025047 1_655
O3 V1 2.026095 1_655
O3 V3 2.034120 1_554
O4 W0 2.050861 1_555
O4 V4 2.053402 1_555
O4 V0 2.086407 1_654
O5 W1 2.047614 1_555
O5 V3 2.053185 1_554
O5 V1 2.084199 1_555
O6 W0 2.049301 1_455
O6 V2 2.055103 1_555
O6 V0 2.079739 1_554
O7 W1 1.971343 1_555
O7 V3 2.116873 1_554
O7 V5 2.121348 1_554
O8 W0 1.973522 1_555
O8 V4 2.115662 1_555
O8 V2 2.120687 1_655
O9 W1 2.050197 1_555
O9 V5 2.053710 1_554
O9 V1 2.087648 1_555
O10 W0 1.971384 1_555
O10 V4 2.117094 1_556
O10 V5 2.121358 1_565
O11 W1 2.049398 1_555
O11 V2 2.055155 1_556
O11 V1 2.079589 1_556
O12 W0 2.050186 1_555
O12 V5 2.053712 1_565
O12 V0 2.087696 1_555
O13 W1 1.973605 1_655
O13 V3 2.115528 1_555
O13 V2 2.120671 1_656
O14 W0 2.047795 1_555
O14 V4 2.053191 1_556
O14 V0 2.084102 1_555
O15 W1 2.050767 1_555
O15 V3 2.053441 1_455
O15 V1 2.086615 1_556
