# generated using pymatgen
data_RbFeI4
_symmetry_space_group_name_H-M   'P 1'
_cell_length_a   18.21493937
_cell_length_b   7.35837453
_cell_length_c   8.34468573
_cell_angle_alpha   72.41740206
_cell_angle_beta   90.00000000
_cell_angle_gamma   90.00000000
_symmetry_Int_Tables_number   1
_chemical_formula_structural   RbFeI4
_chemical_formula_sum   'Rb4 Fe4 I16'
_cell_volume   1066.20620722
_cell_formula_units_Z   4
loop_
 _symmetry_equiv_pos_site_id
 _symmetry_equiv_pos_as_xyz
  1  'x, y, z'
loop_
 _atom_site_type_symbol
 _atom_site_label
 _atom_site_symmetry_multiplicity
 _atom_site_fract_x
 _atom_site_fract_y
 _atom_site_fract_z
 _atom_site_occupancy
  Rb  Rb0  1  0.12816001  0.18607998  0.70444455  1
  Rb  Rb1  1  0.87183999  0.81392002  0.29555545  1
  Rb  Rb2  1  0.62816001  0.81392002  0.79555545  1
  Rb  Rb3  1  0.37183999  0.18607998  0.20444455  1
  Fe  Fe0  1  0.37174096  0.81759766  0.79749678  1
  Fe  Fe1  1  0.62825904  0.18240234  0.20250322  1
  Fe  Fe2  1  0.87174096  0.18240234  0.70250322  1
  Fe  Fe3  1  0.12825904  0.81759766  0.29749678  1
  I  I0  1  0.25202934  0.63630697  0.85081477  1
  I  I1  1  0.74797066  0.36369303  0.14918523  1
  I  I2  1  0.75202934  0.36369303  0.64918523  1
  I  I3  1  0.24797066  0.63630697  0.35081477  1
  I  I4  1  0.05319528  0.72966125  0.57053214  1
  I  I5  1  0.94680472  0.27033875  0.42946786  1
  I  I6  1  0.55319528  0.27033875  0.92946786  1
  I  I7  1  0.44680472  0.72966125  0.07053214  1
  I  I8  1  0.44720442  0.73510300  0.57205761  1
  I  I9  1  0.55279558  0.26489700  0.42794239  1
  I  I10  1  0.94720442  0.26489700  0.92794239  1
  I  I11  1  0.05279558  0.73510300  0.07205761  1
  I  I12  1  0.84178534  0.82441553  0.79348644  1
  I  I13  1  0.15821466  0.17558447  0.20651356  1
  I  I14  1  0.34178534  0.17558447  0.70651356  1
  I  I15  1  0.65821466  0.82441553  0.29348644  1
loop_
_geom_bond_atom_site_label_1
_geom_bond_atom_site_label_2
_geom_bond_distance
_geom_bond_site_symmetry_2
Fe0 I0 2.524617 1_555
Fe0 I8 2.546922 1_555
Fe0 I7 2.566815 1_556
Fe0 I14 2.569994 1_565
Fe1 I1 2.524617 1_555
Fe1 I9 2.546922 1_555
Fe1 I6 2.566815 1_554
Fe1 I15 2.569994 1_545
Fe2 I2 2.524617 1_555
Fe2 I10 2.546922 1_555
Fe2 I5 2.566815 1_555
Fe2 I12 2.569994 1_545
Fe3 I3 2.524617 1_555
Fe3 I11 2.546922 1_555
Fe3 I4 2.566815 1_555
Fe3 I13 2.569994 1_565
I0 Rb3 4.305781 1_556
I1 Rb2 4.305781 1_554
I2 Rb1 4.305781 1_555
I3 Rb0 4.305781 1_555
I4 Rb1 3.962618 1_455
I4 Rb0 4.051151 1_555
I4 Rb0 4.081687 1_565
I5 Rb0 3.962618 1_655
I5 Rb1 4.051151 1_555
I5 Rb1 4.081687 1_545
I6 Rb3 3.962618 1_556
I6 Rb2 4.051151 1_555
I6 Rb2 4.081687 1_545
I7 Rb2 3.962618 1_554
I7 Rb3 4.051151 1_555
I7 Rb3 4.081687 1_565
I8 Rb2 3.915659 1_555
I8 Rb3 4.019538 1_565
I9 Rb3 3.915659 1_555
I9 Rb2 4.019538 1_545
I10 Rb0 3.915659 1_655
I10 Rb1 4.019538 1_546
I11 Rb1 3.915659 1_455
I11 Rb0 4.019538 1_564
I12 Rb2 3.891874 1_555
I12 Rb1 4.202736 1_556
I12 Rb1 4.214760 1_555
I13 Rb3 3.891874 1_555
I13 Rb0 4.202736 1_554
I13 Rb0 4.214760 1_555
I14 Rb0 3.891874 1_555
I14 Rb3 4.202736 1_555
I14 Rb3 4.214760 1_556
I15 Rb1 3.891874 1_555
I15 Rb2 4.202736 1_555
I15 Rb2 4.214760 1_554
