# generated using pymatgen
data_CsPr(CO3)2
_symmetry_space_group_name_H-M   'P 1'
_cell_length_a   8.71498600
_cell_length_b   9.03950531
_cell_length_c   9.04298748
_cell_angle_alpha   98.93797623
_cell_angle_beta   114.64703177
_cell_angle_gamma   96.31818791
_symmetry_Int_Tables_number   1
_chemical_formula_structural   CsPr(CO3)2
_chemical_formula_sum   'Cs4 Pr4 C8 O24'
_cell_volume   627.38797905
_cell_formula_units_Z   4
loop_
 _symmetry_equiv_pos_site_id
 _symmetry_equiv_pos_as_xyz
  1  'x, y, z'
loop_
 _atom_site_type_symbol
 _atom_site_label
 _atom_site_symmetry_multiplicity
 _atom_site_fract_x
 _atom_site_fract_y
 _atom_site_fract_z
 _atom_site_occupancy
  Cs  Cs0  1  0.75471400  0.97024000  0.96860600  1
  Cs  Cs1  1  0.24528600  0.02976000  0.03139400  1
  Cs  Cs2  1  0.75930700  0.47303800  0.80992800  1
  Cs  Cs3  1  0.24069300  0.52696200  0.19007200  1
  Pr  Pr0  1  0.73978500  0.95217400  0.47795500  1
  Pr  Pr1  1  0.26021500  0.04782600  0.52204500  1
  Pr  Pr2  1  0.75867200  0.45924700  0.28545100  1
  Pr  Pr3  1  0.24132800  0.54075300  0.71454900  1
  C  C0  1  0.02989200  0.28954400  0.29535800  1
  C  C1  1  0.97010800  0.71045600  0.70464200  1
  C  C2  1  0.45865200  0.25833600  0.85844700  1
  C  C3  1  0.00287300  0.21224100  0.72577600  1
  C  C4  1  0.99712700  0.78775900  0.27422400  1
  C  C5  1  0.54134800  0.74166400  0.14155300  1
  C  C6  1  0.41820000  0.76824200  0.60441700  1
  C  C7  1  0.58180000  0.23175800  0.39558300  1
  O  O0  1  0.06541100  0.40007500  0.42494600  1
  O  O1  1  0.50340900  0.12599100  0.43648200  1
  O  O2  1  0.27722300  0.79116700  0.61661500  1
  O  O3  1  0.72277700  0.20883300  0.38338500  1
  O  O4  1  0.52891900  0.35638200  0.36585400  1
  O  O5  1  0.47108100  0.64361800  0.63414600  1
  O  O6  1  0.93458900  0.59992500  0.57505400  1
  O  O7  1  0.49659100  0.87400900  0.56351800  1
  O  O8  1  0.95659000  0.88241700  0.37183100  1
  O  O9  1  0.04341000  0.11758300  0.62816900  1
  O  O10  1  0.86535900  0.16403200  0.74061400  1
  O  O11  1  0.13464100  0.83596800  0.25938600  1
  O  O12  1  0.90537300  0.65272900  0.19718100  1
  O  O13  1  0.09462700  0.34727100  0.80281900  1
  O  O14  1  0.09857300  0.70524300  0.84316500  1
  O  O15  1  0.88123900  0.81532400  0.69547300  1
  O  O16  1  0.39654400  0.32066100  0.72785600  1
  O  O17  1  0.60345600  0.67933900  0.27214400  1
  O  O18  1  0.43757700  0.11073700  0.82838200  1
  O  O19  1  0.56242300  0.88926300  0.17161800  1
  O  O20  1  0.46173900  0.65894600  0.99290600  1
  O  O21  1  0.53826100  0.34105400  0.00709400  1
  O  O22  1  0.11876100  0.18467600  0.30452700  1
  O  O23  1  0.90142700  0.29475700  0.15683500  1
loop_
_geom_bond_atom_site_label_1
_geom_bond_atom_site_label_2
_geom_bond_distance
_geom_bond_site_symmetry_2
Cs0 O23 2.990838 1_566
Cs0 O18 3.034739 1_565
Cs0 O19 3.070506 1_556
Cs0 O10 3.264646 1_565
Cs0 O15 3.288486 1_555
Cs1 O14 2.990838 1_544
Cs1 O19 3.034739 1_545
Cs1 O18 3.070506 1_554
Cs1 O11 3.264646 1_545
Cs1 O22 3.288486 1_555
Cs2 O16 3.034782 1_555
Cs2 O5 3.081860 1_555
Cs2 O10 3.091405 1_555
Cs2 O12 3.252944 1_556
Cs3 O17 3.034782 1_555
Cs3 O4 3.081860 1_555
Cs3 O11 3.091405 1_555
Cs3 O13 3.252944 1_554
C0 O22 1.279761 1_555
C0 O23 1.298099 1_455
C0 O0 1.316407 1_555
C1 O15 1.279761 1_555
C1 O14 1.298099 1_655
C1 O6 1.316407 1_555
C2 O21 1.281801 1_556
C2 O18 1.295955 1_555
C2 O16 1.321251 1_555
C3 O13 1.292655 1_555
C3 O10 1.296725 1_455
C3 O9 1.314527 1_555
C4 O12 1.292655 1_555
C4 O11 1.296725 1_655
C4 O8 1.314527 1_555
C5 O20 1.281801 1_554
C5 O19 1.295955 1_555
C5 O17 1.321251 1_555
C6 O5 1.287942 1_555
C6 O7 1.301716 1_555
C6 O2 1.313990 1_555
C7 O4 1.287942 1_555
C7 O1 1.301716 1_555
C7 O3 1.313990 1_555
O0 Pr3 2.452218 1_555
O0 Pr2 2.595250 1_455
O1 Pr1 2.607289 1_555
O1 Pr0 2.665365 1_545
O2 Pr3 2.589262 1_555
O2 Pr1 2.592787 1_565
O3 Pr2 2.589262 1_555
O3 Pr0 2.592787 1_545
O4 Pr2 2.533177 1_555
O5 Pr3 2.533177 1_555
O6 Pr2 2.452218 1_555
O6 Pr3 2.595250 1_655
O7 Pr0 2.607289 1_555
O7 Pr1 2.665365 1_565
O8 Pr0 2.544639 1_555
O8 Pr1 2.565696 1_665
O9 Pr1 2.544639 1_555
O9 Pr0 2.565696 1_445
O10 Pr0 2.542470 1_545
O11 Pr1 2.542470 1_565
O12 Pr2 2.474566 1_555
O13 Pr3 2.474566 1_555
O14 Pr3 2.487587 1_555
O15 Pr0 2.447130 1_555
O16 Pr3 2.516637 1_555
O16 Pr1 2.653778 1_555
O17 Pr2 2.516637 1_555
O17 Pr0 2.653778 1_555
O18 Pr1 2.476346 1_555
O19 Pr0 2.476346 1_555
O20 Pr3 2.418112 1_555
O21 Pr2 2.418112 1_555
O22 Pr1 2.447130 1_555
O23 Pr2 2.487587 1_555
