# generated using pymatgen
data_VNi3AsO8
_symmetry_space_group_name_H-M   'P 1'
_cell_length_a   6.47384287
_cell_length_b   6.47384287
_cell_length_c   8.30824878
_cell_angle_alpha   89.95848939
_cell_angle_beta   89.95848939
_cell_angle_gamma   55.41782626
_symmetry_Int_Tables_number   1
_chemical_formula_structural   VNi3AsO8
_chemical_formula_sum   'V2 Ni6 As2 O16'
_cell_volume   286.68081353
_cell_formula_units_Z   2
loop_
 _symmetry_equiv_pos_site_id
 _symmetry_equiv_pos_as_xyz
  1  'x, y, z'
loop_
 _atom_site_type_symbol
 _atom_site_label
 _atom_site_symmetry_multiplicity
 _atom_site_fract_x
 _atom_site_fract_y
 _atom_site_fract_z
 _atom_site_occupancy
  V  V0  1  0.62300700  0.62300700  0.88139000  1
  V  V1  1  0.37699300  0.37699300  0.11861000  1
  Ni  Ni0  1  0.88259700  0.38137300  0.25291600  1
  Ni  Ni1  1  0.61862700  0.11740300  0.74708400  1
  Ni  Ni2  1  0.11740300  0.61862700  0.74708400  1
  Ni  Ni3  1  0.38137300  0.88259700  0.25291600  1
  Ni  Ni4  1  0.50000000  0.50000000  0.50000000  1
  Ni  Ni5  1  0.00000000  0.00000000  0.00000000  1
  As  As0  1  0.87590400  0.87590400  0.38352300  1
  As  As1  1  0.12409600  0.12409600  0.61647700  1
  O  O0  1  0.50255700  0.50255700  0.25419300  1
  O  O1  1  0.49744300  0.49744300  0.74580700  1
  O  O2  1  0.00244200  0.00244200  0.75126200  1
  O  O3  1  0.99755800  0.99755800  0.24873800  1
  O  O4  1  0.75204000  0.75204000  0.26663600  1
  O  O5  1  0.24796000  0.24796000  0.73336400  1
  O  O6  1  0.75171400  0.75171400  0.76948900  1
  O  O7  1  0.24828600  0.24828600  0.23051100  1
  O  O8  1  0.88292500  0.35774800  0.50122600  1
  O  O9  1  0.64225200  0.11707500  0.49877400  1
  O  O10  1  0.14630200  0.61659200  0.99803400  1
  O  O11  1  0.38340800  0.85369800  0.00196600  1
  O  O12  1  0.11707500  0.64225200  0.49877400  1
  O  O13  1  0.35774800  0.88292500  0.50122600  1
  O  O14  1  0.85369800  0.38340800  0.00196600  1
  O  O15  1  0.61659200  0.14630200  0.99803400  1
loop_
_geom_bond_atom_site_label_1
_geom_bond_atom_site_label_2
_geom_bond_distance
_geom_bond_site_symmetry_2
Ni0 O7 2.016376 1_655
Ni0 O4 2.045371 1_555
Ni0 O8 2.068486 1_555
Ni0 O14 2.092831 1_555
Ni0 O0 2.116044 1_555
Ni0 O3 2.151739 1_545
Ni1 O6 2.016376 1_545
Ni1 O5 2.045371 1_555
Ni1 O9 2.068486 1_555
Ni1 O15 2.092831 1_555
Ni1 O1 2.116044 1_555
Ni1 O2 2.151739 1_655
Ni2 O6 2.016376 1_455
Ni2 O5 2.045371 1_555
Ni2 O12 2.068486 1_555
Ni2 O10 2.092831 1_555
Ni2 O1 2.116044 1_555
Ni2 O2 2.151739 1_565
Ni3 O7 2.016376 1_565
Ni3 O4 2.045371 1_555
Ni3 O13 2.068486 1_555
Ni3 O11 2.092831 1_555
Ni3 O0 2.116044 1_555
Ni3 O3 2.151739 1_455
Ni4 O1 2.042412 1_555
Ni4 O0 2.042412 1_555
Ni4 O13 2.098116 1_555
Ni4 O8 2.098116 1_555
Ni4 O12 2.098116 1_555
Ni4 O9 2.098116 1_555
Ni5 O2 2.066744 1_554
Ni5 O3 2.066744 1_445
Ni5 O14 2.095140 1_455
Ni5 O11 2.095140 1_545
Ni5 O10 2.095140 1_544
Ni5 O15 2.095140 1_454
As0 O4 1.720836 1_555
As0 O9 1.720970 1_565
As0 O12 1.720970 1_655
As0 O3 1.787763 1_555
As1 O5 1.720836 1_555
As1 O8 1.720970 1_455
As1 O13 1.720970 1_545
As1 O2 1.787763 1_555
O0 V1 1.828445 1_555
O1 V0 1.828445 1_555
O6 V0 1.743204 1_555
O7 V1 1.743204 1_555
O10 V1 1.734992 1_556
O11 V0 1.734992 1_554
O14 V0 1.734992 1_554
O15 V1 1.734992 1_556
