# generated using pymatgen
data_GaGePt6
_symmetry_space_group_name_H-M   'P 1'
_cell_length_a   5.57234529
_cell_length_b   5.57234529
_cell_length_c   5.57234529
_cell_angle_alpha   120.60759237
_cell_angle_beta   120.60759237
_cell_angle_gamma   88.95080181
_symmetry_Int_Tables_number   1
_chemical_formula_structural   GaGePt6
_chemical_formula_sum   'Ga1 Ge1 Pt6'
_cell_volume   121.20295720
_cell_formula_units_Z   1
loop_
 _symmetry_equiv_pos_site_id
 _symmetry_equiv_pos_as_xyz
  1  'x, y, z'
loop_
 _atom_site_type_symbol
 _atom_site_label
 _atom_site_symmetry_multiplicity
 _atom_site_fract_x
 _atom_site_fract_y
 _atom_site_fract_z
 _atom_site_occupancy
  Ga  Ga0  1  -0.00000000  -0.00000000  -0.00000000  1
  Ge  Ge0  1  0.50000000  0.50000000  -0.00000000  1
  Pt  Pt0  1  0.94342648  0.94342648  0.39588239  1
  Pt  Pt1  1  0.54754209  0.54754209  0.60411761  1
  Pt  Pt2  1  0.05657352  0.45245791  -0.00000000  1
  Pt  Pt3  1  0.45245791  0.05657352  0.00000000  1
  Pt  Pt4  1  0.50000000  -0.00000000  0.50000000  1
  Pt  Pt5  1  -0.00000000  0.50000000  0.50000000  1
loop_
_geom_bond_atom_site_label_1
_geom_bond_atom_site_label_2
_geom_bond_distance
_geom_bond_site_symmetry_2
Ga0 Pt0 2.546594 1_445
Ga0 Pt3 2.546605 1_555
Ga0 Pt2 2.546605 1_555
Ga0 Pt1 2.546607 1_444
Ga0 Pt4 2.760546 1_555
Ga0 Pt5 2.760546 1_555
Ga0 Pt4 2.760546 1_454
Ga0 Pt5 2.760546 1_544
Ga0 Pt3 3.061589 1_455
Ga0 Pt2 3.061589 1_545
Ga0 Pt1 3.061590 1_555
Ga0 Pt0 3.061600 1_444
Ge0 Pt1 2.489894 1_554
Ge0 Pt3 2.489905 1_555
Ge0 Pt2 2.489905 1_555
Ge0 Pt0 2.489907 1_555
Ge0 Pt4 2.760546 1_565
Ge0 Pt5 2.760546 1_655
Ge0 Pt5 2.760546 1_554
Ge0 Pt4 2.760546 1_554
Pt0 Pt4 2.790433 1_565
Pt0 Pt5 2.790433 1_655
Pt0 Pt4 2.841131 1_665
Pt0 Pt5 2.841131 1_665
Pt1 Pt4 2.790422 1_555
Pt1 Pt5 2.790422 1_555
Pt1 Pt4 2.841142 1_565
Pt1 Pt5 2.841142 1_655
Pt2 Pt4 2.790426 1_565
Pt2 Pt5 2.790426 1_554
Pt2 Pt5 2.841135 1_555
Pt2 Pt4 2.841135 1_454
Pt3 Pt5 2.790426 1_655
Pt3 Pt4 2.790426 1_554
Pt3 Pt4 2.841135 1_555
Pt3 Pt5 2.841135 1_544
