# generated using pymatgen
data_KHo2CuS4
_symmetry_space_group_name_H-M   'P 1'
_cell_length_a   6.97690233
_cell_length_b   6.97690233
_cell_length_c   13.62016803
_cell_angle_alpha   90.00000000
_cell_angle_beta   90.00000000
_cell_angle_gamma   147.32282468
_symmetry_Int_Tables_number   1
_chemical_formula_structural   KHo2CuS4
_chemical_formula_sum   'K2 Ho4 Cu2 S8'
_cell_volume   357.95228634
_cell_formula_units_Z   2
loop_
 _symmetry_equiv_pos_site_id
 _symmetry_equiv_pos_as_xyz
  1  'x, y, z'
loop_
 _atom_site_type_symbol
 _atom_site_label
 _atom_site_symmetry_multiplicity
 _atom_site_fract_x
 _atom_site_fract_y
 _atom_site_fract_z
 _atom_site_occupancy
  K  K0  1  0.10951101  0.89048899  0.25000000  1
  K  K1  1  0.89048899  0.10951101  0.75000000  1
  Ho  Ho0  1  0.63440638  0.36559362  0.93683797  1
  Ho  Ho1  1  0.36559362  0.63440638  0.43683797  1
  Ho  Ho2  1  0.63440638  0.36559362  0.56316203  1
  Ho  Ho3  1  0.36559362  0.63440638  0.06316203  1
  Cu  Cu0  1  0.16258626  0.83741374  0.75000000  1
  Cu  Cu1  1  0.83741374  0.16258626  0.25000000  1
  S  S0  1  -0.00000000  -0.00000000  0.50000000  1
  S  S1  1  -0.00000000  -0.00000000  0.00000000  1
  S  S2  1  0.73706521  0.26293479  0.11094669  1
  S  S3  1  0.26293479  0.73706521  0.88905331  1
  S  S4  1  0.56904994  0.43095006  0.75000000  1
  S  S5  1  0.73706521  0.26293479  0.38905331  1
  S  S6  1  0.43095006  0.56904994  0.25000000  1
  S  S7  1  0.26293479  0.73706521  0.61094669  1
loop_
_geom_bond_atom_site_label_1
_geom_bond_atom_site_label_2
_geom_bond_distance
_geom_bond_site_symmetry_2
K0 S6 3.093375 1_455
K0 S6 3.093375 1_565
K0 S5 3.218130 1_565
K0 S2 3.218130 1_565
K0 S2 3.218130 1_455
K0 S5 3.218130 1_455
K1 S4 3.093375 1_655
K1 S4 3.093375 1_545
K1 S7 3.218130 1_655
K1 S3 3.218130 1_655
K1 S3 3.218130 1_545
K1 S7 3.218130 1_545
Ho0 S3 2.690299 1_545
Ho0 S3 2.690299 1_655
Ho0 S4 2.691041 1_555
Ho0 S2 2.741004 1_556
Ho0 S1 2.798448 1_666
Ho0 S1 2.798448 1_556
Ho1 S5 2.690299 1_455
Ho1 S5 2.690299 1_565
Ho1 S6 2.691041 1_555
Ho1 S7 2.741004 1_555
Ho1 S0 2.798448 1_665
Ho1 S0 2.798448 1_555
Ho2 S7 2.690299 1_545
Ho2 S7 2.690299 1_655
Ho2 S4 2.691041 1_555
Ho2 S5 2.741004 1_555
Ho2 S0 2.798448 1_665
Ho2 S0 2.798448 1_555
Ho3 S2 2.690299 1_455
Ho3 S2 2.690299 1_565
Ho3 S6 2.691041 1_555
Ho3 S3 2.741004 1_554
Ho3 S1 2.798448 1_665
Ho3 S1 2.798448 1_555
Cu0 S7 2.322173 1_555
Cu0 S3 2.322173 1_555
Cu0 S4 2.328276 1_565
Cu0 S4 2.328276 1_455
Cu1 S5 2.322173 1_555
Cu1 S2 2.322173 1_555
Cu1 S6 2.328276 1_545
Cu1 S6 2.328276 1_655
