# generated using pymatgen
data_LuGa2Ni3
_symmetry_space_group_name_H-M   'P 1'
_cell_length_a   8.62244328
_cell_length_b   8.62079376
_cell_length_c   4.00883303
_cell_angle_alpha   90.00000000
_cell_angle_beta   90.00000000
_cell_angle_gamma   120.00543826
_symmetry_Int_Tables_number   1
_chemical_formula_structural   LuGa2Ni3
_chemical_formula_sum   'Lu3 Ga6 Ni9'
_cell_volume   258.04912990
_cell_formula_units_Z   3
loop_
 _symmetry_equiv_pos_site_id
 _symmetry_equiv_pos_as_xyz
  1  'x, y, z'
loop_
 _atom_site_type_symbol
 _atom_site_label
 _atom_site_symmetry_multiplicity
 _atom_site_fract_x
 _atom_site_fract_y
 _atom_site_fract_z
 _atom_site_occupancy
  Lu  Lu0  1  0.66663634  0.33329428  0.50000000  1
  Lu  Lu1  1  0.33331227  0.66669832  0.50000000  1
  Lu  Lu2  1  -0.00005100  -0.00004763  -0.00000000  1
  Ga  Ga0  1  0.48088763  0.48085324  -0.00000000  1
  Ga  Ga1  1  0.51896862  0.00003177  -0.00000000  1
  Ga  Ga2  1  0.00001151  0.51909351  0.00000000  1
  Ga  Ga3  1  0.73026476  0.73023609  0.50000000  1
  Ga  Ga4  1  0.26970743  0.00003244  0.50000000  1
  Ga  Ga5  1  0.00005849  0.26976542  0.50000000  1
  Ni  Ni0  1  0.82604787  0.19943736  -0.00000000  1
  Ni  Ni1  1  0.80058498  0.62658602  -0.00000000  1
  Ni  Ni2  1  0.37337910  0.17405523  -0.00000000  1
  Ni  Ni3  1  0.19939356  0.82601399  0.00000000  1
  Ni  Ni4  1  0.62660853  0.80054215  0.00000000  1
  Ni  Ni5  1  0.17399638  0.37336116  -0.00000000  1
  Ni  Ni6  1  0.29360975  0.29355239  0.50000000  1
  Ni  Ni7  1  0.70656249  0.00003607  0.50000000  1
  Ni  Ni8  1  0.00002030  0.70645817  0.50000000  1
loop_
_geom_bond_atom_site_label_1
_geom_bond_atom_site_label_2
_geom_bond_distance
_geom_bond_site_symmetry_2
Lu0 Ni1 2.970484 1_555
Lu0 Ni1 2.970484 1_556
Lu0 Ni2 2.970559 1_555
Lu0 Ni2 2.970559 1_556
Lu0 Ni0 2.970686 1_555
Lu0 Ni0 2.970686 1_556
Lu0 Ni6 3.059489 1_555
Lu0 Ni7 3.059668 1_555
Lu0 Ni8 3.059927 1_655
Lu1 Ni3 2.970438 1_556
Lu1 Ni3 2.970438 1_555
Lu1 Ni5 2.970720 1_555
Lu1 Ni5 2.970720 1_556
Lu1 Ni4 2.970869 1_556
Lu1 Ni4 2.970869 1_555
Lu1 Ni8 3.059632 1_555
Lu1 Ni6 3.060014 1_555
Lu1 Ni7 3.060327 1_565
Lu2 Ni1 2.789481 1_445
Lu2 Ni5 2.789786 1_555
Lu2 Ni4 2.789816 1_445
Lu2 Ni0 2.790135 1_455
Lu2 Ni3 2.790147 1_545
Lu2 Ni2 2.790486 1_555
Lu2 Ni7 3.227838 1_455
Lu2 Ni7 3.227838 1_454
Lu2 Ni8 3.228144 1_544
Lu2 Ni8 3.228144 1_545
Lu2 Ni6 3.228850 1_554
Lu2 Ni6 3.228850 1_555
Ga0 Ni2 2.324298 1_555
Ga0 Ni5 2.325581 1_555
Ga0 Ni4 2.389714 1_555
Ga0 Ni1 2.390256 1_555
Ga0 Ni6 2.573836 1_554
Ga0 Ni6 2.573836 1_555
Ga0 Lu0 3.199798 1_555
Ga0 Lu0 3.199798 1_554
Ga0 Lu1 3.200414 1_555
Ga0 Lu1 3.200414 1_554
Ga1 Ni0 2.326676 1_555
Ga1 Ni4 2.327097 1_545
Ga1 Ni3 2.389344 1_545
Ga1 Ni2 2.389587 1_555
Ga1 Ni7 2.575653 1_555
Ga1 Ni7 2.575653 1_554
Ga1 Lu0 3.199105 1_554
Ga1 Lu0 3.199105 1_555
Ga1 Lu1 3.199532 1_544
Ga1 Lu1 3.199532 1_545
Ga2 Ni3 2.325257 1_555
Ga2 Ni1 2.325782 1_455
Ga2 Ni0 2.389479 1_455
Ga2 Ni5 2.390378 1_555
Ga2 Ni8 2.574206 1_555
Ga2 Ni8 2.574206 1_554
Ga2 Lu1 3.199760 1_555
Ga2 Lu1 3.199760 1_554
Ga2 Lu0 3.200169 1_455
Ga2 Lu0 3.200169 1_454
Ga3 Ni1 2.392827 1_556
Ga3 Ni1 2.392827 1_555
Ga3 Ni4 2.392835 1_555
Ga3 Ni4 2.392835 1_556
Ga3 Ni7 2.434534 1_565
Ga3 Ni8 2.434940 1_655
Ga3 Lu2 3.069788 1_666
Ga3 Lu2 3.069788 1_665
Ga3 Lu0 3.183247 1_555
Ga3 Lu1 3.184309 1_555
Ga4 Ni3 2.392930 1_545
Ga4 Ni3 2.392930 1_546
Ga4 Ni2 2.392932 1_556
Ga4 Ni2 2.392932 1_555
Ga4 Ni6 2.433862 1_555
Ga4 Ni8 2.434416 1_545
Ga4 Lu2 3.070220 1_556
Ga4 Lu2 3.070220 1_555
Ga4 Lu0 3.183256 1_555
Ga4 Lu1 3.183490 1_545
Ga5 Ni5 2.392687 1_555
Ga5 Ni5 2.392687 1_556
Ga5 Ni0 2.393040 1_456
Ga5 Ni0 2.393040 1_455
Ga5 Ni7 2.434274 1_455
Ga5 Ni6 2.435065 1_555
Ga5 Lu2 3.070143 1_555
Ga5 Lu2 3.070143 1_556
Ga5 Lu1 3.183045 1_555
Ga5 Lu0 3.184310 1_455
Ni0 Ni7 2.502552 1_554
Ni0 Ni7 2.502552 1_555
Ni0 Ni5 2.598078 1_655
Ni1 Ni8 2.502925 1_654
Ni1 Ni8 2.502925 1_655
Ni1 Ni4 2.597924 1_555
Ni2 Ni6 2.502131 1_555
Ni2 Ni6 2.502131 1_554
Ni2 Ni3 2.598273 1_545
Ni3 Ni8 2.502622 1_555
Ni3 Ni8 2.502622 1_554
Ni4 Ni7 2.502965 1_565
Ni4 Ni7 2.502965 1_564
Ni5 Ni6 2.502890 1_554
Ni5 Ni6 2.502890 1_555
