# generated using pymatgen
data_EuNb3
_symmetry_space_group_name_H-M   'P 1'
_cell_length_a   6.48622061
_cell_length_b   6.48622061
_cell_length_c   5.07723300
_cell_angle_alpha   90.00000000
_cell_angle_beta   90.00000000
_cell_angle_gamma   120.00000623
_symmetry_Int_Tables_number   1
_chemical_formula_structural   EuNb3
_chemical_formula_sum   'Eu2 Nb6'
_cell_volume   184.98696637
_cell_formula_units_Z   2
loop_
 _symmetry_equiv_pos_site_id
 _symmetry_equiv_pos_as_xyz
  1  'x, y, z'
loop_
 _atom_site_type_symbol
 _atom_site_label
 _atom_site_symmetry_multiplicity
 _atom_site_fract_x
 _atom_site_fract_y
 _atom_site_fract_z
 _atom_site_occupancy
  Eu  Eu0  1  0.33333300  0.66666700  0.75000000  1
  Eu  Eu1  1  0.66666700  0.33333300  0.25000000  1
  Nb  Nb0  1  0.14178100  0.28356200  0.25000000  1
  Nb  Nb1  1  0.71643800  0.85821900  0.25000000  1
  Nb  Nb2  1  0.14178100  0.85821900  0.25000000  1
  Nb  Nb3  1  0.85821900  0.71643800  0.75000000  1
  Nb  Nb4  1  0.28356200  0.14178100  0.75000000  1
  Nb  Nb5  1  0.85821900  0.14178100  0.75000000  1
loop_
_geom_bond_atom_site_label_1
_geom_bond_atom_site_label_2
_geom_bond_distance
_geom_bond_site_symmetry_2
Eu0 Nb4 3.255135 1_565
Eu0 Nb3 3.255135 1_455
Eu0 Nb5 3.255139 1_565
Eu0 Nb5 3.255139 1_455
Eu0 Nb3 3.255142 1_555
Eu0 Nb4 3.255142 1_555
Eu0 Nb2 3.328004 1_556
Eu0 Nb2 3.328004 1_555
Eu0 Nb0 3.328007 1_555
Eu0 Nb0 3.328007 1_556
Eu0 Nb1 3.328007 1_555
Eu0 Nb1 3.328007 1_556
Eu1 Nb0 3.255135 1_655
Eu1 Nb1 3.255135 1_545
Eu1 Nb2 3.255139 1_655
Eu1 Nb2 3.255139 1_545
Eu1 Nb1 3.255142 1_555
Eu1 Nb0 3.255142 1_555
Eu1 Nb5 3.328004 1_555
Eu1 Nb5 3.328004 1_554
Eu1 Nb4 3.328007 1_555
Eu1 Nb4 3.328007 1_554
Eu1 Nb3 3.328007 1_554
Eu1 Nb3 3.328007 1_555
Nb0 Nb1 2.758868 1_445
Nb0 Nb2 2.758869 1_545
Nb0 Nb5 2.996947 1_455
Nb0 Nb5 2.996947 1_454
Nb0 Nb4 2.996947 1_554
Nb0 Nb4 2.996947 1_555
Nb1 Nb2 2.758869 1_655
Nb1 Nb5 2.996947 1_564
Nb1 Nb5 2.996947 1_565
Nb1 Nb3 2.996947 1_555
Nb1 Nb3 2.996947 1_554
Nb2 Nb4 2.996947 1_564
Nb2 Nb3 2.996947 1_455
Nb2 Nb3 2.996947 1_454
Nb2 Nb4 2.996947 1_565
Nb3 Nb4 2.758868 1_665
Nb3 Nb5 2.758869 1_565
Nb4 Nb5 2.758869 1_455
