# generated using pymatgen
data_LiFePO4
_symmetry_space_group_name_H-M   'P 1'
_cell_length_a   5.61588600
_cell_length_b   8.38131100
_cell_length_c   6.23913200
_cell_angle_alpha   90.00000000
_cell_angle_beta   90.00000000
_cell_angle_gamma   90.00000000
_symmetry_Int_Tables_number   1
_chemical_formula_structural   LiFePO4
_chemical_formula_sum   'Li4 Fe4 P4 O16'
_cell_volume   293.66650410
_cell_formula_units_Z   4
loop_
 _symmetry_equiv_pos_site_id
 _symmetry_equiv_pos_as_xyz
  1  'x, y, z'
loop_
 _atom_site_type_symbol
 _atom_site_label
 _atom_site_symmetry_multiplicity
 _atom_site_fract_x
 _atom_site_fract_y
 _atom_site_fract_z
 _atom_site_occupancy
  Li  Li0  1  0.76417900  0.08648500  0.75000100  1
  Li  Li1  1  0.26417900  0.58648500  0.75000100  1
  Li  Li2  1  0.26417900  0.91351500  0.25000000  1
  Li  Li3  1  0.76417900  0.41351500  0.25000000  1
  Fe  Fe0  1  0.76404700  0.75000000  0.00000000  1
  Fe  Fe1  1  0.76404700  0.75000000  0.50000000  1
  Fe  Fe2  1  0.26404700  0.25000000  0.00000000  1
  Fe  Fe3  1  0.26404700  0.25000000  0.50000000  1
  P  P0  1  0.26409300  0.90058600  0.75000000  1
  P  P1  1  0.76409300  0.40058600  0.75000000  1
  P  P2  1  0.76409300  0.09941400  0.25000000  1
  P  P3  1  0.26409300  0.59941400  0.25000000  1
  O  O0  1  0.26410200  0.00434700  0.95377200  1
  O  O1  1  0.76410200  0.50434700  0.95377200  1
  O  O2  1  0.26410200  0.00434700  0.54622800  1
  O  O3  1  0.76410200  0.50434700  0.54622800  1
  O  O4  1  0.76410200  0.99565300  0.45377200  1
  O  O5  1  0.26410200  0.49565300  0.45377200  1
  O  O6  1  0.76410200  0.99565300  0.04622800  1
  O  O7  1  0.26410200  0.49565300  0.04622800  1
  O  O8  1  0.54136400  0.28646000  0.75000000  1
  O  O9  1  0.04136400  0.78646000  0.75000000  1
  O  O10  1  0.48683300  0.78645800  0.75000000  1
  O  O11  1  0.98683300  0.28645800  0.75000000  1
  O  O12  1  0.48683300  0.71354200  0.25000000  1
  O  O13  1  0.98683300  0.21354200  0.25000000  1
  O  O14  1  0.54136400  0.21354000  0.25000000  1
  O  O15  1  0.04136400  0.71354000  0.25000000  1
loop_
_geom_bond_atom_site_label_1
_geom_bond_atom_site_label_2
_geom_bond_distance
_geom_bond_site_symmetry_2
Li0 O6 1.998851 1_546
Li0 O4 1.998863 1_545
Li0 O11 2.091075 1_555
Li0 O8 2.091629 1_555
Li1 O7 1.998851 1_556
Li1 O5 1.998863 1_555
Li1 O10 2.091075 1_555
Li1 O9 2.091629 1_555
Li2 O2 1.998857 1_565
Li2 O0 1.998857 1_564
Li2 O12 2.091075 1_555
Li2 O15 2.091629 1_555
Li3 O3 1.998857 1_555
Li3 O1 1.998857 1_554
Li3 O13 2.091075 1_555
Li3 O14 2.091629 1_555
Fe0 O1 2.078998 1_554
Fe0 O6 2.078998 1_555
Fe0 O12 2.224843 1_555
Fe0 O10 2.224843 1_554
Fe0 O15 2.225250 1_655
Fe0 O9 2.225250 1_654
Fe1 O3 2.078998 1_555
Fe1 O4 2.078998 1_555
Fe1 O12 2.224843 1_555
Fe1 O10 2.224843 1_555
Fe1 O9 2.225250 1_655
Fe1 O15 2.225250 1_655
Fe2 O7 2.078998 1_555
Fe2 O0 2.078998 1_554
Fe2 O11 2.224843 1_454
Fe2 O13 2.224843 1_455
Fe2 O14 2.225250 1_555
Fe2 O8 2.225250 1_554
Fe3 O5 2.078998 1_555
Fe3 O2 2.078998 1_555
Fe3 O11 2.224843 1_455
Fe3 O13 2.224843 1_455
Fe3 O8 2.225250 1_555
Fe3 O14 2.225250 1_555
O0 P0 1.540342 1_545
O1 P1 1.540342 1_555
O2 P0 1.540342 1_545
O3 P1 1.540342 1_555
O4 P2 1.540342 1_565
O5 P3 1.540342 1_555
O6 P2 1.540342 1_565
O7 P3 1.540342 1_555
O8 P1 1.574641 1_555
O9 P0 1.574641 1_555
O10 P0 1.574700 1_555
O11 P1 1.574700 1_555
O12 P3 1.574700 1_555
O13 P2 1.574700 1_555
O14 P2 1.574641 1_555
O15 P3 1.574641 1_555
