# generated using pymatgen
data_MoWSe3S
_symmetry_space_group_name_H-M   'P 1'
_cell_length_a   3.29214457
_cell_length_b   3.29214457
_cell_length_c   37.41113900
_cell_angle_alpha   90.00000000
_cell_angle_beta   90.00000000
_cell_angle_gamma   120.00001154
_symmetry_Int_Tables_number   1
_chemical_formula_structural   MoWSe3S
_chemical_formula_sum   'Mo2 W2 Se6 S2'
_cell_volume   351.14728091
_cell_formula_units_Z   2
loop_
 _symmetry_equiv_pos_site_id
 _symmetry_equiv_pos_as_xyz
  1  'x, y, z'
loop_
 _atom_site_type_symbol
 _atom_site_label
 _atom_site_symmetry_multiplicity
 _atom_site_fract_x
 _atom_site_fract_y
 _atom_site_fract_z
 _atom_site_occupancy
  Mo  Mo0  1  0.00000000  0.00000000  0.46964600  1
  Mo  Mo1  1  0.33333300  0.66666700  0.28180400  1
  W  W0  1  0.00000000  0.00000000  0.09391500  1
  W  W1  1  0.33333300  0.66666700  0.65755800  1
  Se  Se0  1  0.00000000  0.00000000  0.70289900  1
  Se  Se1  1  0.33333300  0.66666700  0.04858100  1
  Se  Se2  1  0.33333300  0.66666700  0.42455100  1
  Se  Se3  1  0.33333300  0.66666700  0.13925700  1
  Se  Se4  1  0.33333300  0.66666700  0.51472400  1
  Se  Se5  1  0.00000000  0.00000000  0.61221900  1
  S  S0  1  0.00000000  0.00000000  0.32278500  1
  S  S1  1  0.00000000  0.00000000  0.24080800  1
loop_
_geom_bond_atom_site_label_1
_geom_bond_atom_site_label_2
_geom_bond_distance
_geom_bond_site_symmetry_2
Mo0 Se4 2.541012 1_545
Mo0 Se4 2.541014 1_555
Mo0 Se4 2.541014 1_445
Mo0 Se2 2.541434 1_545
Mo0 Se2 2.541436 1_445
Mo0 Se2 2.541436 1_555
Mo1 S0 2.441980 1_565
Mo1 S0 2.441982 1_555
Mo1 S0 2.441982 1_665
Mo1 S1 2.442333 1_565
Mo1 S1 2.442335 1_555
Mo1 S1 2.442335 1_665
Se0 W1 2.547553 1_545
Se0 W1 2.547555 1_555
Se0 W1 2.547555 1_445
Se1 W0 2.547378 1_565
Se1 W0 2.547380 1_555
Se1 W0 2.547380 1_665
Se3 W0 2.547578 1_565
Se3 W0 2.547579 1_555
Se3 W0 2.547579 1_665
Se5 W1 2.547503 1_545
Se5 W1 2.547505 1_445
Se5 W1 2.547505 1_555
