# generated using pymatgen
data_Dy5(Sn3Rh)6
_symmetry_space_group_name_H-M   'P 1'
_cell_length_a   9.91785850
_cell_length_b   9.91785850
_cell_length_c   9.91785850
_cell_angle_alpha   60.00000000
_cell_angle_beta   60.00000000
_cell_angle_gamma   60.00000000
_symmetry_Int_Tables_number   1
_chemical_formula_structural   Dy5(Sn3Rh)6
_chemical_formula_sum   'Dy5 Sn18 Rh6'
_cell_volume   689.82467601
_cell_formula_units_Z   1
loop_
 _symmetry_equiv_pos_site_id
 _symmetry_equiv_pos_as_xyz
  1  'x, y, z'
loop_
 _atom_site_type_symbol
 _atom_site_label
 _atom_site_symmetry_multiplicity
 _atom_site_fract_x
 _atom_site_fract_y
 _atom_site_fract_z
 _atom_site_occupancy
  Dy  Dy0  1  0.00000000  0.00000000  0.00000000  1
  Dy  Dy1  1  0.36989100  0.36989100  0.89032600  1
  Dy  Dy2  1  0.36989100  0.89032600  0.36989100  1
  Dy  Dy3  1  0.89032600  0.36989100  0.36989100  1
  Dy  Dy4  1  0.36989100  0.36989100  0.36989100  1
  Sn  Sn0  1  0.58802900  0.58802900  0.23591300  1
  Sn  Sn1  1  0.58802900  0.23591300  0.58802900  1
  Sn  Sn2  1  0.23591300  0.58802900  0.58802900  1
  Sn  Sn3  1  0.58802900  0.58802900  0.58802900  1
  Sn  Sn4  1  0.75000000  0.75000000  0.75000000  1
  Sn  Sn5  1  0.99205600  0.35771800  0.65817000  1
  Sn  Sn6  1  0.99205600  0.99205600  0.65817000  1
  Sn  Sn7  1  0.35771800  0.99205600  0.65817000  1
  Sn  Sn8  1  0.99205600  0.65817000  0.35771800  1
  Sn  Sn9  1  0.35771800  0.65817000  0.99205600  1
  Sn  Sn10  1  0.99205600  0.65817000  0.99205600  1
  Sn  Sn11  1  0.65817000  0.99205600  0.99205600  1
  Sn  Sn12  1  0.65817000  0.35771800  0.99205600  1
  Sn  Sn13  1  0.65817000  0.99205600  0.35771800  1
  Sn  Sn14  1  0.35771800  0.99205600  0.99205600  1
  Sn  Sn15  1  0.99205600  0.99205600  0.35771800  1
  Sn  Sn16  1  0.99205600  0.35771800  0.99205600  1
  Sn  Sn17  1  0.25000000  0.25000000  0.25000000  1
  Rh  Rh0  1  0.25385300  0.25385300  0.74614700  1
  Rh  Rh1  1  0.74614700  0.25385300  0.74614700  1
  Rh  Rh2  1  0.25385300  0.74614700  0.74614700  1
  Rh  Rh3  1  0.74614700  0.74614700  0.25385300  1
  Rh  Rh4  1  0.25385300  0.74614700  0.25385300  1
  Rh  Rh5  1  0.74614700  0.25385300  0.25385300  1
loop_
_geom_bond_atom_site_label_1
_geom_bond_atom_site_label_2
_geom_bond_distance
_geom_bond_site_symmetry_2
Dy0 Sn11 3.470798 1_444
Dy0 Sn13 3.470798 1_445
Dy0 Sn9 3.470798 1_544
Dy0 Sn12 3.470798 1_454
Dy0 Sn6 3.470798 1_444
Dy0 Sn8 3.470798 1_445
Dy0 Sn10 3.470798 1_444
Dy0 Sn15 3.470798 1_445
Dy0 Sn7 3.470798 1_544
Dy0 Sn5 3.470798 1_454
Dy0 Sn14 3.470798 1_544
Dy0 Sn16 3.470798 1_454
Dy0 Rh0 3.560535 1_554
Dy0 Rh2 3.560535 1_544
Dy0 Rh3 3.560535 1_445
Dy0 Rh5 3.560535 1_455
Dy0 Rh1 3.560535 1_454
Dy0 Rh4 3.560535 1_545
Dy1 Sn17 2.912603 1_556
Dy1 Rh0 3.051132 1_555
Dy1 Rh2 3.051140 1_555
Dy1 Rh1 3.051140 1_555
Dy1 Sn1 3.171401 1_555
Dy1 Sn2 3.171401 1_555
Dy1 Sn3 3.171407 1_555
Dy1 Sn14 3.409499 1_545
Dy1 Sn16 3.409499 1_455
Dy1 Sn10 3.409503 1_455
Dy1 Sn11 3.409503 1_545
Dy1 Sn12 3.409508 1_555
Dy1 Sn9 3.409508 1_555
Dy2 Sn17 2.912603 1_565
Dy2 Rh4 3.051132 1_555
Dy2 Rh3 3.051140 1_555
Dy2 Rh2 3.051140 1_555
Dy2 Sn2 3.171401 1_555
Dy2 Sn0 3.171401 1_555
Dy2 Sn3 3.171407 1_555
Dy2 Sn15 3.409499 1_455
Dy2 Sn14 3.409499 1_554
Dy2 Sn6 3.409503 1_455
Dy2 Sn11 3.409503 1_554
Dy2 Sn7 3.409508 1_555
Dy2 Sn13 3.409508 1_555
Dy3 Sn17 2.912603 1_655
Dy3 Rh5 3.051132 1_555
Dy3 Rh1 3.051140 1_555
Dy3 Rh3 3.051140 1_555
Dy3 Sn1 3.171401 1_555
Dy3 Sn0 3.171401 1_555
Dy3 Sn3 3.171407 1_555
Dy3 Sn15 3.409499 1_545
Dy3 Sn16 3.409499 1_554
Dy3 Sn6 3.409503 1_545
Dy3 Sn10 3.409503 1_554
Dy3 Sn8 3.409508 1_555
Dy3 Sn5 3.409508 1_555
Dy4 Sn17 2.912595 1_555
Dy4 Rh0 3.051141 1_555
Dy4 Rh4 3.051141 1_555
Dy4 Rh5 3.051141 1_555
Dy4 Sn0 3.171409 1_555
Dy4 Sn1 3.171409 1_555
Dy4 Sn2 3.171409 1_555
Dy4 Sn8 3.409501 1_455
Dy4 Sn5 3.409501 1_455
Dy4 Sn13 3.409501 1_545
Dy4 Sn12 3.409501 1_554
Dy4 Sn9 3.409501 1_554
Dy4 Sn7 3.409501 1_545
Rh0 Sn7 2.693724 1_545
Rh0 Sn14 2.693724 1_545
Rh0 Sn5 2.693724 1_455
Rh0 Sn16 2.693724 1_455
Rh0 Sn1 2.822655 1_555
Rh0 Sn2 2.822655 1_555
Rh1 Sn11 2.693724 1_545
Rh1 Sn6 2.693724 1_545
Rh1 Sn5 2.693724 1_555
Rh1 Sn12 2.693724 1_555
Rh1 Sn1 2.822655 1_555
Rh1 Sn3 2.822655 1_555
Rh2 Sn6 2.693724 1_455
Rh2 Sn10 2.693724 1_455
Rh2 Sn9 2.693724 1_555
Rh2 Sn7 2.693724 1_555
Rh2 Sn2 2.822655 1_555
Rh2 Sn3 2.822655 1_555
Rh3 Sn10 2.693724 1_554
Rh3 Sn11 2.693724 1_554
Rh3 Sn13 2.693724 1_555
Rh3 Sn8 2.693724 1_555
Rh3 Sn0 2.822655 1_555
Rh3 Sn3 2.822655 1_555
Rh4 Sn14 2.693724 1_554
Rh4 Sn8 2.693724 1_455
Rh4 Sn15 2.693724 1_455
Rh4 Sn9 2.693724 1_554
Rh4 Sn0 2.822655 1_555
Rh4 Sn2 2.822655 1_555
Rh5 Sn16 2.693724 1_554
Rh5 Sn13 2.693724 1_545
Rh5 Sn12 2.693724 1_554
Rh5 Sn15 2.693724 1_545
Rh5 Sn0 2.822655 1_555
Rh5 Sn1 2.822655 1_555
