# generated using pymatgen
data_Ga4Ni3Pd
_symmetry_space_group_name_H-M   'P 1'
_cell_length_a   4.74539533
_cell_length_b   4.74539533
_cell_length_c   4.74539533
_cell_angle_alpha   90.40589307
_cell_angle_beta   89.59410693
_cell_angle_gamma   90.40589307
_symmetry_Int_Tables_number   1
_chemical_formula_structural   Ga4Ni3Pd
_chemical_formula_sum   'Ga4 Ni3 Pd1'
_cell_volume   106.85249189
_cell_formula_units_Z   1
loop_
 _symmetry_equiv_pos_site_id
 _symmetry_equiv_pos_as_xyz
  1  'x, y, z'
loop_
 _atom_site_type_symbol
 _atom_site_label
 _atom_site_symmetry_multiplicity
 _atom_site_fract_x
 _atom_site_fract_y
 _atom_site_fract_z
 _atom_site_occupancy
  Ga  Ga0  1  0.16508400  0.33491600  0.66508400  1
  Ga  Ga1  1  0.34518800  0.66045400  0.14883700  1
  Ga  Ga2  1  0.64883700  0.15481200  0.33954600  1
  Ga  Ga3  1  0.83954600  0.85116300  0.84518800  1
  Ni  Ni0  1  0.63762400  0.35822700  0.86149400  1
  Ni  Ni1  1  0.36149400  0.86237600  0.64177300  1
  Ni  Ni2  1  0.14177300  0.13850600  0.13762400  1
  Pd  Pd0  1  0.86045300  0.63954700  0.36045300  1
loop_
_geom_bond_atom_site_label_1
_geom_bond_atom_site_label_2
_geom_bond_distance
_geom_bond_site_symmetry_2
Ga0 Ni2 2.435957 1_556
Ga0 Ni0 2.435957 1_555
Ga0 Ni1 2.435957 1_545
Ga0 Pd0 2.521518 1_455
Ga0 Ni0 2.667469 1_455
Ga0 Ni1 2.667469 1_555
Ga0 Ni2 2.667469 1_555
Ga0 Ga3 2.888858 1_445
Ga0 Ga1 2.888858 1_556
Ga0 Ga2 2.888858 1_555
Ga0 Ga3 3.020534 1_455
Ga0 Ga2 3.020534 1_455
Ga0 Ga1 3.020534 1_555
Ga1 Ni0 2.411563 1_554
Ga1 Ni2 2.472725 1_565
Ga1 Pd0 2.504976 1_455
Ga1 Ni1 2.523021 1_555
Ga1 Ni1 2.596729 1_554
Ga1 Ni2 2.652240 1_555
Ga1 Pd0 2.652658 1_555
Ga1 Ga2 2.887761 1_565
Ga1 Ga3 2.887761 1_554
Ga1 Ga2 2.958207 1_555
Ga1 Ga3 2.958207 1_454
Ga2 Ni1 2.411563 1_545
Ga2 Ni0 2.472725 1_554
Ga2 Pd0 2.504976 1_555
Ga2 Ni2 2.523021 1_655
Ga2 Ni2 2.596729 1_555
Ga2 Ni0 2.652240 1_555
Ga2 Pd0 2.652658 1_545
Ga2 Ga3 2.887761 1_544
Ga2 Ga3 2.958207 1_545
Ga3 Ni2 2.411563 1_666
Ga3 Ni1 2.472725 1_555
Ga3 Pd0 2.504976 1_555
Ga3 Ni0 2.523021 1_555
Ga3 Ni0 2.596729 1_565
Ga3 Ni1 2.652240 1_655
Ga3 Pd0 2.652658 1_556
Ni0 Ni1 2.877797 1_545
Ni0 Ni2 2.877797 1_556
Ni0 Pd0 2.911570 1_556
Ni0 Pd0 2.922805 1_555
Ni0 Ni2 2.937138 1_656
Ni0 Ni1 2.937138 1_555
Ni1 Ni2 2.877797 1_566
Ni1 Pd0 2.911570 1_555
Ni1 Pd0 2.922805 1_455
Ni1 Ni2 2.937138 1_565
Ni2 Pd0 2.911570 1_445
Ni2 Pd0 2.922805 1_455
