# generated using pymatgen
data_Te2MoWSeS
_symmetry_space_group_name_H-M   'P 1'
_cell_length_a   3.39928151
_cell_length_b   3.39928151
_cell_length_c   39.43005300
_cell_angle_alpha   90.00000000
_cell_angle_beta   90.00000000
_cell_angle_gamma   119.99999045
_symmetry_Int_Tables_number   1
_chemical_formula_structural   Te2MoWSeS
_chemical_formula_sum   'Te4 Mo2 W2 Se2 S2'
_cell_volume   394.57748297
_cell_formula_units_Z   2
loop_
 _symmetry_equiv_pos_site_id
 _symmetry_equiv_pos_as_xyz
  1  'x, y, z'
loop_
 _atom_site_type_symbol
 _atom_site_label
 _atom_site_symmetry_multiplicity
 _atom_site_fract_x
 _atom_site_fract_y
 _atom_site_fract_z
 _atom_site_occupancy
  Te  Te0  1  0.00000000  0.00000000  0.32873800  1
  Te  Te1  1  0.33333300  0.66666700  0.42228000  1
  Te  Te2  1  0.33333300  0.66666700  0.51777600  1
  Te  Te3  1  0.00000000  0.00000000  0.23374000  1
  Mo  Mo0  1  0.00000000  0.00000000  0.09391800  1
  Mo  Mo1  1  0.33333300  0.66666700  0.28127400  1
  W  W0  1  0.00000000  0.00000000  0.47006100  1
  W  W1  1  0.33333300  0.66666700  0.65769900  1
  Se  Se0  1  0.00000000  0.00000000  0.69963300  1
  Se  Se1  1  0.00000000  0.00000000  0.61571500  1
  S  S0  1  0.33333300  0.66666700  0.05582600  1
  S  S1  1  0.33333300  0.66666700  0.13208800  1
loop_
_geom_bond_atom_site_label_1
_geom_bond_atom_site_label_2
_geom_bond_distance
_geom_bond_site_symmetry_2
Te1 W0 2.720511 1_565
Te1 W0 2.720513 1_665
Te1 W0 2.720513 1_555
Te2 W0 2.718710 1_565
Te2 W0 2.718712 1_555
Te2 W0 2.718712 1_665
Mo0 S0 2.471358 1_545
Mo0 S0 2.471360 1_555
Mo0 S0 2.471360 1_445
Mo0 S1 2.473228 1_545
Mo0 S1 2.473231 1_555
Mo0 S1 2.473231 1_445
Mo1 Te0 2.711870 1_565
Mo1 Te0 2.711872 1_665
Mo1 Te0 2.711872 1_555
Mo1 Te3 2.713776 1_565
Mo1 Te3 2.713778 1_555
Mo1 Te3 2.713778 1_665
Se0 W1 2.566248 1_545
Se0 W1 2.566250 1_555
Se0 W1 2.566250 1_445
Se1 W1 2.567518 1_545
Se1 W1 2.567521 1_445
Se1 W1 2.567521 1_555
