# generated using pymatgen
data_Tm3CrS6
_symmetry_space_group_name_H-M   'P 1'
_cell_length_a   3.72879200
_cell_length_b   13.13474200
_cell_length_c   15.83042200
_cell_angle_alpha   90.00000000
_cell_angle_beta   90.00000000
_cell_angle_gamma   90.00000000
_symmetry_Int_Tables_number   1
_chemical_formula_structural   Tm3CrS6
_chemical_formula_sum   'Tm12 Cr4 S24'
_cell_volume   775.32215989
_cell_formula_units_Z   4
loop_
 _symmetry_equiv_pos_site_id
 _symmetry_equiv_pos_as_xyz
  1  'x, y, z'
loop_
 _atom_site_type_symbol
 _atom_site_label
 _atom_site_symmetry_multiplicity
 _atom_site_fract_x
 _atom_site_fract_y
 _atom_site_fract_z
 _atom_site_occupancy
  Tm  Tm0  1  0.00000000  0.54974800  0.27926000  1
  Tm  Tm1  1  0.00000000  0.45025200  0.72074000  1
  Tm  Tm2  1  0.50000000  0.95025200  0.77926000  1
  Tm  Tm3  1  0.50000000  0.04974800  0.22074000  1
  Tm  Tm4  1  0.00000000  0.75544000  0.09830800  1
  Tm  Tm5  1  0.00000000  0.24456000  0.90169200  1
  Tm  Tm6  1  0.50000000  0.74456000  0.59830800  1
  Tm  Tm7  1  0.50000000  0.25544000  0.40169200  1
  Tm  Tm8  1  0.00000000  0.31915500  0.14798700  1
  Tm  Tm9  1  0.00000000  0.68084500  0.85201300  1
  Tm  Tm10  1  0.50000000  0.18084500  0.64798700  1
  Tm  Tm11  1  0.50000000  0.81915500  0.35201300  1
  Cr  Cr0  1  0.00000000  0.00000000  0.50000000  1
  Cr  Cr1  1  0.50000000  0.50000000  0.00000000  1
  Cr  Cr2  1  0.00000000  0.00000000  0.00000000  1
  Cr  Cr3  1  0.50000000  0.50000000  0.50000000  1
  S  S0  1  0.00000000  0.12003800  0.10951700  1
  S  S1  1  0.00000000  0.87996200  0.89048300  1
  S  S2  1  0.50000000  0.37996200  0.60951700  1
  S  S3  1  0.50000000  0.62003800  0.39048300  1
  S  S4  1  0.00000000  0.18856600  0.28985300  1
  S  S5  1  0.00000000  0.81143400  0.71014700  1
  S  S6  1  0.50000000  0.31143400  0.78985300  1
  S  S7  1  0.50000000  0.68856600  0.21014700  1
  S  S8  1  0.00000000  0.18159400  0.52097200  1
  S  S9  1  0.00000000  0.81840600  0.47902800  1
  S  S10  1  0.50000000  0.31840600  0.02097200  1
  S  S11  1  0.50000000  0.68159400  0.97902800  1
  S  S12  1  0.00000000  0.52315300  0.09782700  1
  S  S13  1  0.00000000  0.47684700  0.90217300  1
  S  S14  1  0.50000000  0.97684700  0.59782700  1
  S  S15  1  0.50000000  0.02315300  0.40217300  1
  S  S16  1  0.00000000  0.10425100  0.75395600  1
  S  S17  1  0.00000000  0.89574900  0.24604400  1
  S  S18  1  0.50000000  0.39574900  0.25395600  1
  S  S19  1  0.50000000  0.60425100  0.74604400  1
  S  S20  1  0.00000000  0.41704700  0.42385800  1
  S  S21  1  0.00000000  0.58295300  0.57614200  1
  S  S22  1  0.50000000  0.08295300  0.92385800  1
  S  S23  1  0.50000000  0.91704700  0.07614200  1
loop_
_geom_bond_atom_site_label_1
_geom_bond_atom_site_label_2
_geom_bond_distance
_geom_bond_site_symmetry_2
Cr0 S8 2.408185 1_555
Cr0 S9 2.408185 1_545
Cr0 S15 2.442693 1_555
Cr0 S15 2.442693 1_455
Cr0 S14 2.442693 1_545
Cr0 S14 2.442693 1_445
Cr1 S11 2.408185 1_554
Cr1 S10 2.408185 1_555
Cr1 S12 2.442693 1_555
Cr1 S12 2.442693 1_655
Cr1 S13 2.442693 1_554
Cr1 S13 2.442693 1_654
Cr2 S0 2.343416 1_555
Cr2 S1 2.343416 1_544
Cr2 S23 2.473059 1_545
Cr2 S22 2.473059 1_454
Cr2 S22 2.473059 1_554
Cr2 S23 2.473059 1_445
Cr3 S2 2.343416 1_555
Cr3 S3 2.343416 1_555
Cr3 S21 2.473059 1_555
Cr3 S21 2.473059 1_655
Cr3 S20 2.473059 1_655
Cr3 S20 2.473059 1_555
S0 Tm8 2.685318 1_555
S0 Tm3 2.725516 1_455
S0 Tm3 2.725516 1_555
S1 Tm9 2.685318 1_555
S1 Tm2 2.725516 1_455
S1 Tm2 2.725516 1_555
S2 Tm10 2.685318 1_555
S2 Tm1 2.725516 1_655
S2 Tm1 2.725516 1_555
S3 Tm11 2.685318 1_555
S3 Tm0 2.725516 1_555
S3 Tm0 2.725516 1_655
S4 Tm7 2.716990 1_455
S4 Tm7 2.716990 1_555
S4 Tm8 2.825899 1_555
S4 Tm3 2.827997 1_455
S4 Tm3 2.827997 1_555
S5 Tm6 2.716990 1_555
S5 Tm6 2.716990 1_455
S5 Tm9 2.825899 1_555
S5 Tm2 2.827997 1_555
S5 Tm2 2.827997 1_455
S6 Tm5 2.716990 1_555
S6 Tm5 2.716990 1_655
S6 Tm10 2.825899 1_555
S6 Tm1 2.827997 1_555
S6 Tm1 2.827997 1_655
S7 Tm4 2.716990 1_655
S7 Tm4 2.716990 1_555
S7 Tm11 2.825899 1_555
S7 Tm0 2.827997 1_555
S7 Tm0 2.827997 1_655
S8 Tm10 2.742077 1_555
S8 Tm10 2.742077 1_455
S8 Tm7 2.825291 1_455
S8 Tm7 2.825291 1_555
S9 Tm11 2.742077 1_555
S9 Tm11 2.742077 1_455
S9 Tm6 2.825291 1_555
S9 Tm6 2.825291 1_455
S10 Tm8 2.742077 1_655
S10 Tm8 2.742077 1_555
S10 Tm5 2.825291 1_654
S10 Tm5 2.825291 1_554
S11 Tm9 2.742077 1_655
S11 Tm9 2.742077 1_555
S11 Tm4 2.825291 1_556
S11 Tm4 2.825291 1_656
S12 Tm8 2.794644 1_555
S12 Tm0 2.893325 1_555
S12 Tm4 3.051039 1_555
S13 Tm9 2.794644 1_555
S13 Tm1 2.893325 1_555
S13 Tm5 3.051039 1_555
S14 Tm10 2.794644 1_565
S14 Tm2 2.893325 1_555
S14 Tm6 3.051039 1_555
S15 Tm11 2.794644 1_545
S15 Tm3 2.893325 1_555
S15 Tm7 3.051039 1_555
S16 Tm10 2.702261 1_555
S16 Tm10 2.702261 1_455
S16 Tm2 2.779909 1_445
S16 Tm2 2.779909 1_545
S16 Tm5 2.977581 1_555
S17 Tm11 2.702261 1_555
S17 Tm11 2.702261 1_455
S17 Tm3 2.779909 1_565
S17 Tm3 2.779909 1_465
S17 Tm4 2.977581 1_555
S18 Tm8 2.702261 1_655
S18 Tm8 2.702261 1_555
S18 Tm0 2.779909 1_555
S18 Tm0 2.779909 1_655
S18 Tm7 2.977581 1_555
S19 Tm9 2.702261 1_555
S19 Tm9 2.702261 1_655
S19 Tm1 2.779909 1_655
S19 Tm1 2.779909 1_555
S19 Tm6 2.977581 1_555
S20 Tm7 2.846895 1_555
S20 Tm7 2.846895 1_455
S20 Tm0 2.877110 1_555
S21 Tm6 2.846895 1_455
S21 Tm6 2.846895 1_555
S21 Tm1 2.877110 1_555
S22 Tm5 2.846895 1_555
S22 Tm5 2.846895 1_655
S22 Tm2 2.877110 1_545
S23 Tm4 2.846895 1_555
S23 Tm4 2.846895 1_655
S23 Tm3 2.877110 1_565
