# generated using pymatgen
data_Cs2LiCeF6
_symmetry_space_group_name_H-M   'P 1'
_cell_length_a   6.43885354
_cell_length_b   6.43885354
_cell_length_c   6.43885354
_cell_angle_alpha   60.00000000
_cell_angle_beta   60.00000000
_cell_angle_gamma   60.00000000
_symmetry_Int_Tables_number   1
_chemical_formula_structural   Cs2LiCeF6
_chemical_formula_sum   'Cs2 Li1 Ce1 F6'
_cell_volume   188.76029251
_cell_formula_units_Z   1
loop_
 _symmetry_equiv_pos_site_id
 _symmetry_equiv_pos_as_xyz
  1  'x, y, z'
loop_
 _atom_site_type_symbol
 _atom_site_label
 _atom_site_symmetry_multiplicity
 _atom_site_fract_x
 _atom_site_fract_y
 _atom_site_fract_z
 _atom_site_occupancy
  Cs  Cs0  1  0.75000000  0.75000000  0.75000000  1
  Cs  Cs1  1  0.25000000  0.25000000  0.25000000  1
  Li  Li0  1  0.50000000  0.50000000  0.50000000  1
  Ce  Ce0  1  0.00000000  0.00000000  0.00000000  1
  F  F0  1  0.74586700  0.25413300  0.25413300  1
  F  F1  1  0.25413300  0.25413300  0.74586700  1
  F  F2  1  0.25413300  0.74586700  0.74586700  1
  F  F3  1  0.25413300  0.74586700  0.25413300  1
  F  F4  1  0.74586700  0.25413300  0.74586700  1
  F  F5  1  0.74586700  0.74586700  0.25413300  1
loop_
_geom_bond_atom_site_label_1
_geom_bond_atom_site_label_2
_geom_bond_distance
_geom_bond_site_symmetry_2
Cs0 F2 3.219647 1_655
Cs0 F1 3.219647 1_655
Cs0 F5 3.219647 1_556
Cs0 F4 3.219647 1_565
Cs0 F1 3.219647 1_565
Cs0 F3 3.219647 1_556
Cs0 F0 3.219647 1_556
Cs0 F3 3.219647 1_655
Cs0 F0 3.219647 1_565
Cs0 F2 3.219647 1_555
Cs0 F4 3.219647 1_555
Cs0 F5 3.219647 1_555
Cs1 F4 3.219647 1_455
Cs1 F1 3.219647 1_555
Cs1 F3 3.219647 1_555
Cs1 F2 3.219647 1_545
Cs1 F5 3.219647 1_545
Cs1 F0 3.219647 1_455
Cs1 F2 3.219647 1_554
Cs1 F0 3.219647 1_555
Cs1 F5 3.219647 1_455
Cs1 F3 3.219647 1_545
Cs1 F4 3.219647 1_554
Cs1 F1 3.219647 1_554
Ce0 F1 2.314113 1_554
Ce0 F3 2.314113 1_545
Ce0 F0 2.314113 1_455
Ce0 F5 2.314113 1_445
Ce0 F4 2.314113 1_454
Ce0 F2 2.314113 1_544
F0 Li0 2.238844 1_555
F1 Li0 2.238844 1_555
F2 Li0 2.238844 1_555
F3 Li0 2.238844 1_555
F4 Li0 2.238844 1_555
F5 Li0 2.238844 1_555
