# generated using pymatgen
data_TbFeB4
_symmetry_space_group_name_H-M   'P 1'
_cell_length_a   3.42877021
_cell_length_b   5.90351878
_cell_length_c   11.43350165
_cell_angle_alpha   90.00000000
_cell_angle_beta   90.00000000
_cell_angle_gamma   90.00000000
_symmetry_Int_Tables_number   1
_chemical_formula_structural   TbFeB4
_chemical_formula_sum   'Tb4 Fe4 B16'
_cell_volume   231.43476034
_cell_formula_units_Z   4
loop_
 _symmetry_equiv_pos_site_id
 _symmetry_equiv_pos_as_xyz
  1  'x, y, z'
loop_
 _atom_site_type_symbol
 _atom_site_label
 _atom_site_symmetry_multiplicity
 _atom_site_fract_x
 _atom_site_fract_y
 _atom_site_fract_z
 _atom_site_occupancy
  Tb  Tb0  1  0.50000000  0.37322588  0.15032015  1
  Tb  Tb1  1  0.50000000  0.62677412  0.84967985  1
  Tb  Tb2  1  0.50000000  0.12677412  0.65032015  1
  Tb  Tb3  1  0.50000000  0.87322588  0.34967985  1
  Fe  Fe0  1  0.50000000  0.37179709  0.41640595  1
  Fe  Fe1  1  0.50000000  0.62820291  0.58359405  1
  Fe  Fe2  1  0.50000000  0.12820291  0.91640595  1
  Fe  Fe3  1  0.50000000  0.87179709  0.08359405  1
  B  B0  1  0.00000000  0.11216562  0.04638611  1
  B  B1  1  0.00000000  0.88783438  0.95361389  1
  B  B2  1  0.00000000  0.38783438  0.54638611  1
  B  B3  1  -0.00000000  0.61216562  0.45361389  1
  B  B4  1  0.00000000  0.13922037  0.46699971  1
  B  B5  1  -0.00000000  0.86077963  0.53300029  1
  B  B6  1  0.00000000  0.36077963  0.96699971  1
  B  B7  1  0.00000000  0.63922037  0.03300029  1
  B  B8  1  0.00000000  0.02272565  0.19013845  1
  B  B9  1  0.00000000  0.97727435  0.80986155  1
  B  B10  1  0.00000000  0.47727435  0.69013845  1
  B  B11  1  0.00000000  0.52272565  0.30986155  1
  B  B12  1  0.00000000  0.21978718  0.31677998  1
  B  B13  1  0.00000000  0.78021282  0.68322002  1
  B  B14  1  0.00000000  0.28021282  0.81677998  1
  B  B15  1  0.00000000  0.71978718  0.18322002  1
loop_
_geom_bond_atom_site_label_1
_geom_bond_atom_site_label_2
_geom_bond_distance
_geom_bond_site_symmetry_2
B0 B1 1.696760 1_544
B0 B6 1.725686 1_554
B0 B8 1.726323 1_555
B0 Fe3 2.265770 1_445
B0 Fe3 2.265770 1_545
B0 Fe2 2.270827 1_554
B0 Fe2 2.270827 1_454
B0 Tb0 2.593542 1_555
B0 Tb0 2.593542 1_455
B1 B7 1.725686 1_556
B1 B9 1.726323 1_555
B1 Fe2 2.265770 1_465
B1 Fe2 2.265770 1_565
B1 Fe3 2.270827 1_556
B1 Fe3 2.270827 1_456
B1 Tb1 2.593542 1_455
B1 Tb1 2.593542 1_555
B2 B3 1.696760 1_555
B2 B4 1.725686 1_555
B2 Fe1 2.265770 1_555
B2 Fe1 2.265770 1_455
B2 Fe0 2.270827 1_555
B2 Fe0 2.270827 1_455
B2 Tb2 2.593542 1_455
B2 Tb2 2.593542 1_555
B3 B5 1.725686 1_555
B3 Fe0 2.265770 1_555
B3 Fe0 2.265770 1_455
B3 Fe1 2.270827 1_555
B3 Fe1 2.270827 1_455
B3 Tb3 2.593542 1_455
B3 Tb3 2.593542 1_555
B4 B5 1.808718 1_545
B4 Fe0 2.271326 1_555
B4 Fe0 2.271326 1_455
B4 Tb3 2.684075 1_445
B4 Tb3 2.684075 1_545
B4 Tb2 2.708820 1_555
B4 Tb2 2.708820 1_455
B5 Fe1 2.271326 1_555
B5 Fe1 2.271326 1_455
B5 Tb2 2.684075 1_565
B5 Tb2 2.684075 1_465
B5 Tb3 2.708820 1_455
B5 Tb3 2.708820 1_555
B6 B7 1.808718 1_556
B6 Fe2 2.271326 1_555
B6 Fe2 2.271326 1_455
B6 Tb1 2.684075 1_455
B6 Tb1 2.684075 1_555
B6 Tb0 2.708820 1_456
B6 Tb0 2.708820 1_556
B7 Fe3 2.271326 1_555
B7 Fe3 2.271326 1_455
B7 Tb0 2.684075 1_555
B7 Tb0 2.684075 1_455
B7 Tb1 2.708820 1_554
B7 Tb1 2.708820 1_454
B8 Fe3 2.284068 1_545
B8 Fe3 2.284068 1_445
B8 Tb3 2.654328 1_545
B8 Tb3 2.654328 1_445
B8 Tb0 2.725418 1_455
B8 Tb0 2.725418 1_555
B9 Fe2 2.284068 1_465
B9 Fe2 2.284068 1_565
B9 Tb2 2.654328 1_465
B9 Tb2 2.654328 1_565
B9 Tb1 2.725418 1_455
B9 Tb1 2.725418 1_555
B10 B2 1.726323 1_555
B10 B13 1.790151 1_555
B10 B14 1.857411 1_555
B10 Fe1 2.284068 1_555
B10 Fe1 2.284068 1_455
B10 Tb1 2.654328 1_555
B10 Tb1 2.654328 1_455
B10 Tb2 2.725418 1_555
B10 Tb2 2.725418 1_455
B11 B3 1.726323 1_555
B11 B12 1.790151 1_555
B11 B15 1.857411 1_555
B11 Fe0 2.284068 1_555
B11 Fe0 2.284068 1_455
B11 Tb0 2.654328 1_455
B11 Tb0 2.654328 1_555
B11 Tb3 2.725418 1_555
B11 Tb3 2.725418 1_455
B12 B4 1.782178 1_555
B12 B8 1.857411 1_555
B12 Fe0 2.245422 1_455
B12 Fe0 2.245422 1_555
B12 Tb3 2.695635 1_545
B12 Tb3 2.695635 1_445
B12 Tb0 2.716962 1_455
B12 Tb0 2.716962 1_555
B13 B5 1.782178 1_555
B13 B9 1.857411 1_555
B13 Fe1 2.245422 1_455
B13 Fe1 2.245422 1_555
B13 Tb2 2.695635 1_565
B13 Tb2 2.695635 1_465
B13 Tb1 2.716962 1_555
B13 Tb1 2.716962 1_455
B14 B6 1.782178 1_555
B14 B9 1.790151 1_545
B14 Fe2 2.245422 1_455
B14 Fe2 2.245422 1_555
B14 Tb1 2.695635 1_555
B14 Tb1 2.695635 1_455
B14 Tb2 2.716962 1_455
B14 Tb2 2.716962 1_555
B15 B7 1.782178 1_555
B15 B8 1.790151 1_565
B15 Fe3 2.245422 1_455
B15 Fe3 2.245422 1_555
B15 Tb0 2.695635 1_555
B15 Tb0 2.695635 1_455
B15 Tb3 2.716962 1_455
B15 Tb3 2.716962 1_555
