# generated using pymatgen
data_Li4V3P8O29
_symmetry_space_group_name_H-M   'P 1'
_cell_length_a   9.74394200
_cell_length_b   9.75505157
_cell_length_c   14.24588632
_cell_angle_alpha   89.67154756
_cell_angle_beta   89.69602607
_cell_angle_gamma   60.25762114
_symmetry_Int_Tables_number   1
_chemical_formula_structural   Li4V3P8O29
_chemical_formula_sum   'Li8 V6 P16 O58'
_cell_volume   1175.70144779
_cell_formula_units_Z   2
loop_
 _symmetry_equiv_pos_site_id
 _symmetry_equiv_pos_as_xyz
  1  'x, y, z'
loop_
 _atom_site_type_symbol
 _atom_site_label
 _atom_site_symmetry_multiplicity
 _atom_site_fract_x
 _atom_site_fract_y
 _atom_site_fract_z
 _atom_site_occupancy
  Li  Li0  1  0.91465700  0.31030300  0.93977600  1
  Li  Li1  1  0.77297800  0.91312500  0.94107200  1
  Li  Li2  1  0.31928800  0.77316700  0.93905500  1
  Li  Li3  1  0.67298900  0.09236500  0.56091200  1
  Li  Li4  1  0.32877600  0.90668600  0.44091700  1
  Li  Li5  1  0.23519300  0.66903600  0.56181400  1
  Li  Li6  1  0.08649000  0.68569700  0.05988800  1
  Li  Li7  1  0.98494000  0.05432800  0.50883200  1
  V  V0  1  0.56488000  0.00098500  0.75076100  1
  V  V1  1  0.43422900  0.00155500  0.24530000  1
  V  V2  1  0.57179700  0.43096300  0.24939800  1
  V  V3  1  0.43478300  0.56371700  0.75181000  1
  V  V4  1  0.00364300  0.43041700  0.74146900  1
  V  V5  1  0.99515600  0.56352600  0.26102400  1
  P  P0  1  0.91379700  0.31884100  0.15628300  1
  P  P1  1  0.77481300  0.30737800  0.66002400  1
  P  P2  1  0.91824600  0.77883200  0.66262400  1
  P  P3  1  0.67287000  0.66325200  0.86669300  1
  P  P4  1  0.65829100  0.66986700  0.36906900  1
  P  P5  1  0.77765200  0.90705500  0.16129700  1
  P  P6  1  0.68658900  0.08681300  0.34119300  1
  P  P7  1  0.31782000  0.77022000  0.15941600  1
  P  P8  1  0.68429500  0.22955400  0.84373500  1
  P  P9  1  0.31509000  0.91166800  0.65399100  1
  P  P10  1  0.22402900  0.08639200  0.83409000  1
  P  P11  1  0.33482500  0.33603300  0.62800200  1
  P  P12  1  0.32964400  0.34059100  0.13419800  1
  P  P13  1  0.08414000  0.21559600  0.33819500  1
  P  P14  1  0.22958200  0.68295100  0.34048400  1
  P  P15  1  0.08701600  0.67776800  0.84462100  1
  O  O0  1  0.99872200  0.19764500  0.41880000  1
  O  O1  1  0.91648500  0.34015200  0.66443000  1
  O  O2  1  0.76409400  0.24148500  0.92893600  1
  O  O3  1  0.74513900  0.34156600  0.16812200  1
  O  O4  1  0.90397300  0.47822800  0.18357900  1
  O  O5  1  0.81763900  0.51640000  0.81859800  1
  O  O6  1  0.92004700  0.61835200  0.67046100  1
  O  O7  1  0.00109700  0.74888300  0.93510400  1
  O  O8  1  0.92289800  0.73810300  0.16850300  1
  O  O9  1  0.66663000  0.52018800  0.32275300  1
  O  O10  1  0.61902000  0.46236400  0.66777900  1
  O  O11  1  0.80953800  0.67273300  0.32818000  1
  O  O12  1  0.68588300  0.65345900  0.97114000  1
  O  O13  1  0.65030100  0.67360600  0.47275200  1
  O  O14  1  0.67479200  0.81469100  0.82875600  1
  O  O15  1  0.47728900  0.61907100  0.17643500  1
  O  O16  1  0.51711700  0.66975300  0.83129900  1
  O  O17  1  0.74559000  0.91709700  0.66246300  1
  O  O18  1  0.79628800  0.99661700  0.25115900  1
  O  O19  1  0.76500300  0.01581100  0.43171700  1
  O  O20  1  0.77263300  0.98364600  0.07053900  1
  O  O21  1  0.62248700  0.90011000  0.17989000  1
  O  O22  1  0.50817600  0.81746500  0.32637700  1
  O  O23  1  0.66138500  0.08318600  0.84215900  1
  O  O24  1  0.47061400  0.91161700  0.66774600  1
  O  O25  1  0.34070300  0.74133300  0.66652100  1
  O  O26  1  0.79493500  0.20531900  0.75331400  1
  O  O27  1  0.79361800  0.20352700  0.57818400  1
  O  O28  1  0.22835700  0.76977700  0.42729000  1
  O  O29  1  0.65586300  0.25809800  0.33026700  1
  O  O30  1  0.52969300  0.08565700  0.32440400  1
  O  O31  1  0.34155000  0.91564700  0.16526300  1
  O  O32  1  0.48821600  0.19020600  0.66602200  1
  O  O33  1  0.37705900  0.09724000  0.81921500  1
  O  O34  1  0.22926400  0.99234500  0.91733500  1
  O  O35  1  0.23107800  0.97828600  0.56278700  1
  O  O36  1  0.19906100  0.01176100  0.73886700  1
  O  O37  1  0.25999500  0.08084200  0.33524300  1
  O  O38  1  0.47719800  0.34108300  0.17775900  1
  O  O39  1  0.52201700  0.37957400  0.82270900  1
  O  O40  1  0.33970600  0.18384700  0.17629900  1
  O  O41  1  0.32359800  0.34841600  0.03064500  1
  O  O42  1  0.32374600  0.34214200  0.52366700  1
  O  O43  1  0.18802200  0.32805700  0.67499000  1
  O  O44  1  0.38517800  0.52738500  0.32625500  1
  O  O45  1  0.31972000  0.49118100  0.66933400  1
  O  O46  1  0.07905600  0.25649800  0.83480900  1
  O  O47  1  0.01400500  0.19832300  0.23951300  1
  O  O48  1  0.98911800  0.25694800  0.06452800  1
  O  O49  1  0.07973900  0.37844700  0.33151300  1
  O  O50  1  0.18078200  0.48158300  0.18112300  1
  O  O51  1  0.09615900  0.51946100  0.82108500  1
  O  O52  1  0.25259100  0.66237200  0.84309300  1
  O  O53  1  0.23935400  0.76317400  0.07102400  1
  O  O54  1  0.20520000  0.79114100  0.24851800  1
  O  O55  1  0.08755700  0.65306200  0.33738900  1
  O  O56  1  0.01098900  0.79067900  0.58256600  1
  O  O57  1  0.98913000  0.79827000  0.76095400  1
loop_
_geom_bond_atom_site_label_1
_geom_bond_atom_site_label_2
_geom_bond_distance
_geom_bond_site_symmetry_2
Li0 O48 1.893186 1_556
Li0 O2 1.899377 1_555
Li0 O46 2.055960 1_655
Li0 O5 2.451030 1_555
Li1 O20 1.971589 1_556
Li1 O7 1.995244 1_655
Li1 O23 2.029703 1_565
Li1 O14 2.311459 1_555
Li2 O34 1.889722 1_555
Li2 O52 2.045159 1_555
Li2 O53 2.051414 1_556
Li2 O16 2.268666 1_555
Li3 O27 1.972004 1_555
Li3 O19 2.020617 1_555
Li3 O17 2.073403 1_545
Li3 O32 2.162732 1_555
Li4 O35 1.935182 1_555
Li4 O28 2.020004 1_555
Li4 O37 2.110303 1_565
Li4 O22 2.225356 1_555
Li5 O56 1.921753 1_555
Li5 O25 2.127697 1_555
Li5 O28 2.134867 1_555
Li5 O45 2.144708 1_555
Li6 O7 1.930438 1_554
Li6 O53 1.983897 1_555
Li6 O8 2.090651 1_455
Li6 O50 2.440068 1_555
Li7 O0 1.944619 1_555
Li7 O27 1.968400 1_555
Li7 O35 2.267372 1_645
O0 P13 1.474495 1_655
O1 P1 1.565514 1_555
O1 V4 1.861189 1_655
O2 P8 1.480807 1_555
O3 P0 1.553817 1_555
O3 V2 1.866364 1_555
O4 P0 1.561001 1_555
O4 V5 1.858342 1_555
O5 P3 1.583496 1_555
O5 V4 1.917489 1_655
O6 P2 1.560222 1_555
O6 V4 1.885103 1_655
O7 P15 1.505405 1_555
O8 P5 1.554063 1_555
O8 V5 1.981820 1_555
O9 P4 1.570568 1_555
O9 V2 1.876747 1_555
O10 P1 1.524924 1_555
O10 V3 1.965449 1_555
O11 P4 1.594863 1_555
O11 V5 1.844709 1_555
O12 P3 1.492489 1_555
O13 P4 1.478400 1_555
O14 P3 1.578931 1_555
O14 V0 1.934559 1_565
O15 P7 1.540766 1_555
O15 V2 1.899290 1_555
O16 P3 1.572823 1_555
O16 V3 1.960185 1_555
O17 P2 1.548579 1_555
O17 V0 1.977637 1_565
O18 P5 1.614874 1_555
O18 P6 1.620817 1_565
O19 P6 1.483816 1_555
O20 P5 1.478387 1_555
O21 P5 1.567745 1_555
O21 V1 1.844947 1_565
O22 P4 1.578698 1_555
O22 V1 1.944055 1_565
O23 P8 1.551033 1_555
O23 V0 1.998920 1_555
O24 P9 1.528819 1_555
O24 V0 1.954522 1_565
O25 P9 1.562294 1_555
O25 V3 1.931434 1_555
O26 P1 1.609284 1_555
O26 P8 1.616562 1_555
O27 P1 1.498755 1_555
O28 P14 1.499536 1_555
O29 P6 1.551422 1_555
O29 V2 1.859847 1_555
O30 P6 1.554198 1_555
O30 V1 1.893988 1_555
O31 P7 1.549190 1_555
O31 V1 1.894901 1_565
O32 P11 1.562397 1_555
O32 V0 2.009580 1_555
O33 P10 1.559642 1_555
O33 V0 1.862397 1_555
O34 P10 1.480668 1_565
O35 P9 1.501447 1_555
O36 P9 1.611621 1_545
O36 P10 1.618632 1_555
O37 P13 1.559126 1_555
O37 V1 1.951330 1_555
O38 P12 1.571184 1_555
O38 V2 1.866033 1_555
O39 P8 1.560669 1_555
O39 V3 1.855467 1_555
O40 P12 1.596458 1_555
O40 V1 1.827917 1_555
O41 P12 1.476717 1_555
O42 P11 1.489540 1_555
O43 P11 1.612440 1_555
O43 V4 1.826062 1_555
O44 P14 1.536259 1_555
O44 V2 1.919310 1_555
O45 P11 1.564369 1_555
O45 V3 1.987171 1_555
O46 P10 1.556727 1_555
O46 V4 1.983442 1_555
O47 P0 1.612060 1_455
O47 P13 1.612106 1_555
O48 P0 1.473424 1_555
O49 P13 1.570137 1_555
O49 V5 1.859811 1_455
O50 P12 1.569499 1_555
O50 V5 1.939111 1_455
O51 P15 1.540880 1_555
O51 V4 1.911193 1_555
O52 P15 1.544405 1_555
O52 V3 2.015814 1_555
O53 P7 1.496088 1_555
O54 P7 1.619584 1_555
O54 P14 1.620320 1_555
O55 P14 1.550237 1_555
O55 V5 1.886412 1_455
O56 P2 1.490606 1_455
O57 P15 1.611129 1_655
O57 P2 1.618178 1_555
