# generated using pymatgen
data_Sr2LiV2(Si2O7)2
_symmetry_space_group_name_H-M   'P 1'
_cell_length_a   5.49488520
_cell_length_b   7.21740100
_cell_length_c   7.90303992
_cell_angle_alpha   90.00000000
_cell_angle_beta   111.73786624
_cell_angle_gamma   90.00000000
_symmetry_Int_Tables_number   1
_chemical_formula_structural   Sr2LiV2(Si2O7)2
_chemical_formula_sum   'Sr2 Li1 V2 Si4 O14'
_cell_volume   291.13672341
_cell_formula_units_Z   1
loop_
 _symmetry_equiv_pos_site_id
 _symmetry_equiv_pos_as_xyz
  1  'x, y, z'
loop_
 _atom_site_type_symbol
 _atom_site_label
 _atom_site_symmetry_multiplicity
 _atom_site_fract_x
 _atom_site_fract_y
 _atom_site_fract_z
 _atom_site_occupancy
  Sr  Sr0  1  0.18889100  0.75000000  0.37978100  1
  Sr  Sr1  1  0.79469900  0.25000000  0.60741300  1
  Li  Li0  1  0.66707900  0.75000000  0.98396200  1
  V  V0  1  0.90549800  0.75000000  0.77353900  1
  V  V1  1  0.10011000  0.25000000  0.21684800  1
  Si  Si0  1  0.38607400  0.47414200  0.77678200  1
  Si  Si1  1  0.60046500  0.52123900  0.21888200  1
  Si  Si2  1  0.60046500  0.97876100  0.21888200  1
  Si  Si3  1  0.38607400  0.02585800  0.77678200  1
  O  O0  1  0.63979300  0.75000000  0.27067900  1
  O  O1  1  0.36846600  0.25000000  0.73257100  1
  O  O2  1  0.49151100  0.51512000  0.99688200  1
  O  O3  1  0.49151100  0.98488000  0.99688200  1
  O  O4  1  0.59706000  0.55903400  0.70058200  1
  O  O5  1  0.89476400  0.43587500  0.30080300  1
  O  O6  1  0.39911800  0.06245700  0.30552600  1
  O  O7  1  0.09190800  0.94765200  0.68104300  1
  O  O8  1  0.98955000  0.25000000  0.99296200  1
  O  O9  1  0.01161400  0.75000000  0.02290800  1
  O  O10  1  0.89476400  0.06412500  0.30080300  1
  O  O11  1  0.59706000  0.94096600  0.70058200  1
  O  O12  1  0.09190800  0.55234800  0.68104300  1
  O  O13  1  0.39911800  0.43754300  0.30552600  1
loop_
_geom_bond_atom_site_label_1
_geom_bond_atom_site_label_2
_geom_bond_distance
_geom_bond_site_symmetry_2
Li0 O9 1.802011 1_656
Li0 O3 1.971768 1_555
Li0 O2 1.971768 1_555
Li0 O4 2.534773 1_555
Li0 O11 2.534773 1_555
O0 Si2 1.695507 1_555
O0 Si1 1.695507 1_555
O0 Sr0 2.814266 1_655
O0 Sr0 2.909407 1_555
O1 Si3 1.650281 1_555
O1 Si0 1.650281 1_555
O1 Sr1 2.860035 1_555
O1 Sr1 2.934020 1_455
O2 Si1 1.631110 1_556
O2 Si0 1.643888 1_555
O3 Si2 1.631110 1_556
O3 Si3 1.643888 1_565
O4 Si0 1.612231 1_555
O4 V0 2.093015 1_555
O4 Sr1 2.699753 1_555
O4 Sr0 3.024202 1_555
O5 Si1 1.624305 1_555
O5 V1 2.016848 1_655
O5 Sr0 2.719281 1_655
O5 Sr1 2.993428 1_555
O6 Si2 1.618339 1_545
O6 V1 2.042033 1_555
O6 Sr0 2.695653 1_545
O6 Sr1 2.899619 1_555
O7 Si3 1.611813 1_565
O7 V0 2.042836 1_455
O7 Sr1 2.657753 1_465
O7 Sr0 2.987881 1_555
O8 V1 1.644251 1_656
O8 Sr1 2.830921 1_555
O9 V0 1.836504 1_454
O9 Sr0 2.620765 1_555
O10 Si2 1.624305 1_545
O10 V1 2.016848 1_655
O10 Sr0 2.719281 1_645
O10 Sr1 2.993428 1_555
O11 Si3 1.612231 1_565
O11 V0 2.093015 1_555
O11 Sr1 2.699753 1_565
O11 Sr0 3.024202 1_555
O12 Si0 1.611813 1_555
O12 V0 2.042836 1_455
O12 Sr1 2.657753 1_455
O12 Sr0 2.987881 1_555
O13 Si1 1.618339 1_555
O13 V1 2.042033 1_555
O13 Sr0 2.695653 1_555
O13 Sr1 2.899619 1_555
