# generated using pymatgen
data_LiCo(CO3)2
_symmetry_space_group_name_H-M   'P 1'
_cell_length_a   4.68126109
_cell_length_b   4.66583893
_cell_length_c   20.63139343
_cell_angle_alpha   96.41694731
_cell_angle_beta   83.66489589
_cell_angle_gamma   120.17672135
_symmetry_Int_Tables_number   1
_chemical_formula_structural   LiCo(CO3)2
_chemical_formula_sum   'Li4 Co4 C8 O24'
_cell_volume   386.35031940
_cell_formula_units_Z   4
loop_
 _symmetry_equiv_pos_site_id
 _symmetry_equiv_pos_as_xyz
  1  'x, y, z'
loop_
 _atom_site_type_symbol
 _atom_site_label
 _atom_site_symmetry_multiplicity
 _atom_site_fract_x
 _atom_site_fract_y
 _atom_site_fract_z
 _atom_site_occupancy
  Li  Li0  1  0.99991400  0.99999400  0.00015400  1
  Li  Li1  1  0.24888900  0.75095800  0.25242500  1
  Li  Li2  1  0.50102200  0.49907900  0.49785900  1
  Li  Li3  1  0.75017000  0.25000000  0.74966400  1
  Co  Co0  1  0.12522100  0.87472200  0.62425400  1
  Co  Co1  1  0.37500000  0.62502200  0.87503500  1
  Co  Co2  1  0.62477500  0.37527700  0.12575100  1
  Co  Co3  1  0.87499500  0.12497500  0.37496400  1
  C  C0  1  0.93895400  0.06146900  0.18427100  1
  C  C1  1  0.18753700  0.81192000  0.43225300  1
  C  C2  1  0.43933000  0.56096100  0.68289200  1
  C  C3  1  0.68903500  0.31108500  0.93349000  1
  C  C4  1  0.31063500  0.68913500  0.06722100  1
  C  C5  1  0.56247100  0.43804700  0.31768200  1
  C  C6  1  0.81106100  0.18842900  0.56561900  1
  C  C7  1  0.06099000  0.93896300  0.81654800  1
  O  O0  1  0.31867300  0.97005000  0.06696000  1
  O  O1  1  0.58133700  0.72661200  0.31766200  1
  O  O2  1  0.81893500  0.46920800  0.56531000  1
  O  O3  1  0.06888500  0.21975800  0.81629800  1
  O  O4  1  0.21939900  0.33503600  0.18460100  1
  O  O5  1  0.47133700  0.08053100  0.43331100  1
  O  O6  1  0.71970700  0.83443700  0.68324600  1
  O  O7  1  0.96944300  0.58456100  0.93385100  1
  O  O8  1  0.66628900  0.06848100  0.18462200  1
  O  O9  1  0.91755700  0.82609900  0.43314100  1
  O  O10  1  0.16679400  0.56798800  0.68321200  1
  O  O11  1  0.41646800  0.31809800  0.93381200  1
  O  O12  1  0.58317700  0.68195400  0.06688900  1
  O  O13  1  0.83243700  0.42384600  0.31679700  1
  O  O14  1  0.08373500  0.18159000  0.56528800  1
  O  O15  1  0.33351200  0.93192200  0.81621800  1
  O  O16  1  0.03011900  0.41565200  0.06684000  1
  O  O17  1  0.27864100  0.16942700  0.31662700  1
  O  O18  1  0.53077100  0.91485800  0.56531700  1
  O  O19  1  0.78059300  0.66550600  0.81618000  1
  O  O20  1  0.93095100  0.78055300  0.18459700  1
  O  O21  1  0.16866700  0.52336100  0.43227200  1
  O  O22  1  0.43142900  0.28018100  0.68313500  1
  O  O23  1  0.68114700  0.03025700  0.93373300  1
loop_
_geom_bond_atom_site_label_1
_geom_bond_atom_site_label_2
_geom_bond_distance
_geom_bond_site_symmetry_2
Li0 O7 2.195712 1_554
Li0 O23 2.197939 1_564
Li0 O11 2.198686 1_664
Li0 O16 2.201125 1_665
Li0 O0 2.202816 1_655
Li0 O12 2.203882 1_555
Li1 O17 2.185274 1_565
Li1 O13 2.187291 1_455
Li1 O20 2.214043 1_455
Li1 O4 2.215726 1_555
Li1 O8 2.217981 1_565
Li1 O1 2.218240 1_555
Li2 O5 2.189338 1_555
Li2 O9 2.191535 1_555
Li2 O2 2.209020 1_555
Li2 O18 2.210762 1_555
Li2 O14 2.212998 1_555
Li2 O21 2.222742 1_555
Li3 O6 2.197459 1_545
Li3 O19 2.198386 1_555
Li3 O22 2.199235 1_555
Li3 O10 2.200044 1_655
Li3 O3 2.200806 1_655
Li3 O15 2.201510 1_545
Co0 O22 2.062460 1_565
Co0 O2 2.063430 1_455
Co0 O10 2.070532 1_555
Co0 O14 2.070940 1_565
Co0 O18 2.074098 1_555
Co0 O6 2.074314 1_455
Co1 O23 2.059725 1_565
Co1 O3 2.060201 1_555
Co1 O11 2.068477 1_555
Co1 O15 2.068991 1_555
Co1 O7 2.072428 1_455
Co1 O19 2.072929 1_555
Co2 O0 2.060722 1_545
Co2 O20 2.061580 1_555
Co2 O12 2.069040 1_555
Co2 O8 2.069413 1_555
Co2 O4 2.072405 1_555
Co2 O16 2.072717 1_655
Co3 O1 2.010196 1_545
Co3 O21 2.010339 1_655
Co3 O13 2.032378 1_555
Co3 O9 2.032546 1_545
Co3 O17 2.054749 1_655
Co3 O5 2.054908 1_555
C0 O4 1.291584 1_655
C0 O8 1.292382 1_555
C0 O20 1.293041 1_545
C1 O5 1.289415 1_565
C1 O9 1.296418 1_455
C1 O21 1.304246 1_555
C2 O6 1.291219 1_555
C2 O10 1.291883 1_555
C2 O22 1.292440 1_555
C3 O7 1.291296 1_555
C3 O11 1.291989 1_555
C3 O23 1.292693 1_555
C4 O16 1.291578 1_555
C4 O12 1.292259 1_555
C4 O0 1.292803 1_555
C5 O17 1.289509 1_555
C5 O13 1.296414 1_555
C5 O1 1.304285 1_555
C6 O18 1.291211 1_545
C6 O14 1.292047 1_655
C6 O2 1.292652 1_555
C7 O19 1.291228 1_455
C7 O15 1.291829 1_555
C7 O3 1.292540 1_565
