# generated using pymatgen
data_UFe5Co5Si2
_symmetry_space_group_name_H-M   'P 1'
_cell_length_a   4.82405600
_cell_length_b   6.21061645
_cell_length_c   6.20636500
_cell_angle_alpha   98.35077003
_cell_angle_beta   112.86976545
_cell_angle_gamma   67.14677699
_symmetry_Int_Tables_number   1
_chemical_formula_structural   UFe5Co5Si2
_chemical_formula_sum   'U1 Fe5 Co5 Si2'
_cell_volume   157.87559583
_cell_formula_units_Z   1
loop_
 _symmetry_equiv_pos_site_id
 _symmetry_equiv_pos_as_xyz
  1  'x, y, z'
loop_
 _atom_site_type_symbol
 _atom_site_label
 _atom_site_symmetry_multiplicity
 _atom_site_fract_x
 _atom_site_fract_y
 _atom_site_fract_z
 _atom_site_occupancy
  U  U0  1  0.00092000  0.99884400  0.00068300  1
  Fe  Fe0  1  0.49816100  0.00307400  0.49758000  1
  Fe  Fe1  1  0.99634500  0.00307400  0.49758000  1
  Fe  Fe2  1  0.72192000  0.77684200  0.22068300  1
  Fe  Fe3  1  0.27946500  0.21871100  0.77764200  1
  Fe  Fe4  1  0.50103900  0.77405300  0.77613000  1
  Co  Co0  1  0.65579400  0.34804100  0.65963000  1
  Co  Co1  1  0.34419700  0.65433500  0.34272900  1
  Co  Co2  1  0.99633500  0.34907500  0.34174500  1
  Co  Co3  1  0.00436800  0.64930400  0.65804100  1
  Co  Co4  1  0.49733000  0.22969100  0.22435000  1
  Si  Si0  1  0.50161700  0.49747800  0.00160400  1
  Si  Si1  1  0.00250900  0.49747800  0.00160400  1
loop_
_geom_bond_atom_site_label_1
_geom_bond_atom_site_label_2
_geom_bond_distance
_geom_bond_site_symmetry_2
Fe0 Fe3 2.362106 1_555
Fe0 Fe2 2.378043 1_545
Fe0 Fe4 2.385842 1_545
Fe0 Fe1 2.403268 1_555
Fe0 Fe1 2.420788 1_455
Fe0 U0 3.088798 1_545
Fe0 U0 3.117794 1_646
Fe1 Fe3 2.362104 1_655
Fe1 Fe2 2.378045 1_545
Fe1 Fe4 2.385845 1_645
Fe1 U0 3.088800 1_645
Fe1 U0 3.117792 1_646
Fe2 Si0 2.369035 1_555
Fe2 Si1 2.369037 1_655
Fe2 Fe4 2.542328 1_554
Fe2 U0 2.998898 1_555
Fe2 U0 2.998905 1_655
Fe3 Si1 2.379563 1_556
Fe3 Si0 2.379565 1_556
Fe3 Fe4 2.544895 1_545
Fe3 U0 3.001076 1_546
Fe3 U0 3.001084 1_646
Fe4 Si1 2.366471 1_656
Fe4 Si0 2.366473 1_556
Fe4 U0 3.023918 1_656
Fe4 U0 3.023918 1_556
Co0 Si0 2.457201 1_556
Co0 Si1 2.457203 1_656
Co0 Fe0 2.494998 1_555
Co0 Fe1 2.495001 1_555
Co0 Co1 2.512809 1_555
Co0 Fe4 2.531803 1_555
Co0 Co4 2.584038 1_555
Co0 Fe3 2.610448 1_655
Co0 Fe3 2.610448 1_555
Co0 U0 2.783038 1_646
Co1 Si0 2.466575 1_555
Co1 Si1 2.466575 1_555
Co1 Fe0 2.501284 1_565
Co1 Fe1 2.501284 1_465
Co1 Co4 2.527177 1_555
Co1 Fe4 2.575793 1_555
Co1 Fe2 2.605754 1_555
Co1 Fe2 2.605758 1_455
Co1 U0 2.767944 1_555
Co2 Si1 2.437664 1_655
Co2 Si0 2.437664 1_555
Co2 Fe0 2.481263 1_655
Co2 Fe1 2.481263 1_555
Co2 Co3 2.503122 1_655
Co2 Fe2 2.539676 1_555
Co2 Co4 2.596445 1_555
Co2 Co4 2.596450 1_655
Co2 Fe3 2.597127 1_655
Co2 U0 2.806076 1_645
Co3 Si1 2.457896 1_556
Co3 Si0 2.457898 1_556
Co3 Fe0 2.521942 1_465
Co3 Fe1 2.521945 1_465
Co3 Fe3 2.553044 1_555
Co3 Fe2 2.600650 1_455
Co3 Fe4 2.605777 1_455
Co3 Fe4 2.605786 1_555
Co3 U0 2.809571 1_556
Co4 Si0 2.322568 1_555
Co4 Si1 2.322570 1_555
Co4 Fe1 2.353735 1_555
Co4 Fe0 2.353737 1_555
Co4 Fe3 2.555688 1_554
Co4 Fe2 2.591926 1_545
Co4 U0 3.036771 1_545
Co4 U0 3.036771 1_645
Si0 Si1 2.407725 1_555
Si0 Si1 2.416331 1_655
Si0 U0 3.098982 1_645
Si0 U0 3.111652 1_555
Si1 U0 3.098980 1_545
Si1 U0 3.111654 1_555
