# generated using pymatgen
data_Al2O3
_symmetry_space_group_name_H-M   'P 1'
_cell_length_a   10.26461428
_cell_length_b   10.52874268
_cell_length_c   10.38550869
_cell_angle_alpha   90.20285299
_cell_angle_beta   83.20771264
_cell_angle_gamma   91.14245345
_symmetry_Int_Tables_number   1
_chemical_formula_structural   Al2O3
_chemical_formula_sum   'Al40 O60'
_cell_volume   1114.29812847
_cell_formula_units_Z   20
loop_
 _symmetry_equiv_pos_site_id
 _symmetry_equiv_pos_as_xyz
  1  'x, y, z'
loop_
 _atom_site_type_symbol
 _atom_site_label
 _atom_site_symmetry_multiplicity
 _atom_site_fract_x
 _atom_site_fract_y
 _atom_site_fract_z
 _atom_site_occupancy
  Al  Al0  1  0.07297400  0.41977400  0.45843900  1
  Al  Al1  1  0.82940900  0.09749900  0.66544600  1
  Al  Al2  1  0.15731100  0.80521200  0.62845900  1
  Al  Al3  1  0.16028700  0.54536700  0.82391400  1
  Al  Al4  1  0.65650400  0.84539000  0.53693900  1
  Al  Al5  1  0.06313100  0.18772600  0.72681900  1
  Al  Al6  1  0.38236200  0.19928700  0.52525600  1
  Al  Al7  1  0.37648300  0.00380000  0.76623700  1
  Al  Al8  1  0.05068200  0.32197100  0.17824700  1
  Al  Al9  1  0.88408100  0.56139500  0.84890200  1
  Al  Al10  1  0.56681600  0.69777000  0.02211400  1
  Al  Al11  1  0.52145500  0.16547900  0.94719100  1
  Al  Al12  1  0.69261000  0.12726500  0.42986400  1
  Al  Al13  1  0.62123400  0.87606100  0.80574500  1
  Al  Al14  1  0.24455800  0.75719100  0.03356300  1
  Al  Al15  1  0.86100600  0.21245900  0.95741600  1
  Al  Al16  1  0.35169600  0.27432900  0.76683400  1
  Al  Al17  1  0.07652500  0.91076500  0.17231300  1
  Al  Al18  1  0.41115200  0.94886900  0.07535000  1
  Al  Al19  1  0.38046800  0.75878100  0.64544000  1
  Al  Al20  1  0.57723000  0.39646700  0.49627300  1
  Al  Al21  1  0.11432700  0.60110000  0.24914800  1
  Al  Al22  1  0.64083400  0.59657800  0.32831500  1
  Al  Al23  1  0.83532800  0.05110700  0.20228500  1
  Al  Al24  1  0.29936700  0.94573100  0.37446200  1
  Al  Al25  1  0.00557700  0.99722200  0.45787900  1
  Al  Al26  1  0.84651400  0.91426400  0.96424800  1
  Al  Al27  1  0.61933200  0.40333100  0.95212500  1
  Al  Al28  1  0.79157400  0.35596600  0.66781400  1
  Al  Al29  1  0.60249100  0.57590700  0.74505600  1
  Al  Al30  1  0.35578600  0.46898200  0.33005500  1
  Al  Al31  1  0.86446400  0.81212800  0.67856600  1
  Al  Al32  1  0.58395700  0.86214800  0.30113400  1
  Al  Al33  1  0.90883900  0.60797900  0.53842800  1
  Al  Al34  1  0.15840900  0.11469200  0.00493000  1
  Al  Al35  1  0.62247100  0.31344400  0.25040500  1
  Al  Al36  1  0.33110800  0.20408800  0.22047000  1
  Al  Al37  1  0.84957400  0.48518700  0.13230800  1
  Al  Al38  1  0.80264100  0.74074900  0.14316100  1
  Al  Al39  1  0.33126900  0.49638400  0.61746100  1
  O  O0  1  0.20304000  0.23838000  0.11880900  1
  O  O1  1  0.45658700  0.61154300  0.66940100  1
  O  O2  1  0.93596200  0.65897200  0.70640900  1
  O  O3  1  0.68792300  0.72477600  0.75072400  1
  O  O4  1  0.01427800  0.46138800  0.84579500  1
  O  O5  1  0.92886300  0.43487300  0.57465400  1
  O  O6  1  0.06388800  0.30439600  0.34318800  1
  O  O7  1  0.22047500  0.22077700  0.65050100  1
  O  O8  1  0.74030900  0.89496800  0.21277500  1
  O  O9  1  0.60284400  0.69419100  0.18335300  1
  O  O10  1  0.48072200  0.31100700  0.87638800  1
  O  O11  1  0.43923700  0.12099300  0.65798700  1
  O  O12  1  0.99747100  0.10216300  0.59504800  1
  O  O13  1  0.27489100  0.43105700  0.77830400  1
  O  O14  1  0.73619600  0.95120500  0.66129600  1
  O  O15  1  0.43491500  0.33537600  0.24349600  1
  O  O16  1  0.26100000  0.87603600  0.74365400  1
  O  O17  1  0.43799800  0.11527700  0.10295600  1
  O  O18  1  0.75069100  0.45331100  0.81992400  1
  O  O19  1  0.24387200  0.43871000  0.47967000  1
  O  O20  1  0.32035400  0.12046200  0.38180800  1
  O  O21  1  0.01940900  0.86154400  0.56707300  1
  O  O22  1  0.13291500  0.95282000  0.33476700  1
  O  O23  1  0.87249900  0.22882200  0.77017600  1
  O  O24  1  0.50870900  0.99849600  0.88843700  1
  O  O25  1  0.59078400  0.74080200  0.42241000  1
  O  O26  1  0.80825800  0.74459200  0.52525400  1
  O  O27  1  0.04308300  0.58751600  0.41515800  1
  O  O28  1  0.30138200  0.83568800  0.50434000  1
  O  O29  1  0.41792700  0.78482900  0.01787500  1
  O  O30  1  0.60731300  0.97496500  0.43709300  1
  O  O31  1  0.27665600  0.55402400  0.22719800  1
  O  O32  1  0.67082600  0.42672400  0.11561200  1
  O  O33  1  0.90510100  0.91863100  0.80300200  1
  O  O34  1  0.81487100  0.61947400  0.25786100  1
  O  O35  1  0.69637400  0.42774000  0.35499600  1
  O  O36  1  0.94444100  0.83819500  0.07455400  1
  O  O37  1  0.48479900  0.52169600  0.41488000  1
  O  O38  1  0.04360300  0.16232800  0.89780500  1
  O  O39  1  0.67874400  0.83506300  0.96671300  1
  O  O40  1  0.18276600  0.66540400  0.92559600  1
  O  O41  1  0.90707000  0.31408700  0.08716400  1
  O  O42  1  0.54971100  0.23622800  0.42943900  1
  O  O43  1  0.72142800  0.17341900  0.25826100  1
  O  O44  1  0.74387800  0.20854600  0.57779600  1
  O  O45  1  0.14102500  0.75422900  0.18407300  1
  O  O46  1  0.42745200  0.90663100  0.24674000  1
  O  O47  1  0.86403900  0.03744500  0.38663500  1
  O  O48  1  0.02459600  0.49128700  0.16458200  1
  O  O49  1  0.01723200  0.06619600  0.14769300  1
  O  O50  1  0.21768900  0.64501400  0.65776600  1
  O  O51  1  0.22998100  0.94529400  0.05269000  1
  O  O52  1  0.67780900  0.23760900  0.96031200  1
  O  O53  1  0.50855900  0.86523100  0.67838600  1
  O  O54  1  0.29909000  0.12883300  0.87728900  1
  O  O55  1  0.83271800  0.61493600  0.00947500  1
  O  O56  1  0.55004000  0.56214200  0.92355700  1
  O  O57  1  0.66811900  0.46624500  0.61576800  1
  O  O58  1  0.43085200  0.35412400  0.60447700  1
  O  O59  1  0.81293900  0.06258200  0.02799800  1
loop_
_geom_bond_atom_site_label_1
_geom_bond_atom_site_label_2
_geom_bond_distance
_geom_bond_site_symmetry_2
Al0 O6 1.711333 1_555
Al0 O19 1.800785 1_555
Al0 O5 1.804404 1_455
Al0 O27 1.864186 1_555
Al1 O44 1.789948 1_555
Al1 O12 1.792046 1_555
Al1 O14 1.800092 1_545
Al1 O23 1.835536 1_555
Al2 O21 1.735367 1_555
Al2 O16 1.839387 1_555
Al2 O50 1.847046 1_555
Al2 O28 1.866715 1_555
Al3 O40 1.673996 1_555
Al3 O4 1.716868 1_555
Al3 O13 1.725496 1_555
Al3 O50 2.042801 1_555
Al4 O25 1.798150 1_555
Al4 O30 1.831056 1_555
Al4 O26 1.894135 1_555
Al4 O14 1.944665 1_555
Al4 O53 1.997633 1_555
Al5 O7 1.741988 1_555
Al5 O38 1.783843 1_555
Al5 O12 1.823145 1_455
Al5 O23 2.010688 1_455
Al6 O11 1.771483 1_555
Al6 O20 1.872917 1_555
Al6 O58 1.907182 1_555
Al6 O42 1.914164 1_555
Al6 O7 2.001503 1_555
Al7 O11 1.734402 1_555
Al7 O16 1.808215 1_545
Al7 O54 1.873100 1_555
Al7 O24 1.966430 1_545
Al7 O53 2.139112 1_545
Al8 O6 1.745034 1_555
Al8 O48 1.816485 1_555
Al8 O41 1.843675 1_455
Al8 O0 1.850432 1_555
Al9 O4 1.715062 1_655
Al9 O55 1.781563 1_556
Al9 O18 1.814718 1_555
Al9 O2 1.825267 1_555
Al10 O9 1.757777 1_555
Al10 O56 1.771450 1_554
Al10 O29 1.802737 1_555
Al10 O39 1.877192 1_554
Al11 O10 1.780305 1_555
Al11 O52 1.781420 1_555
Al11 O17 1.813942 1_556
Al11 O24 1.866160 1_545
Al12 O30 1.809096 1_545
Al12 O43 1.837260 1_555
Al12 O44 1.879800 1_555
Al12 O42 1.880524 1_555
Al12 O47 2.017115 1_555
Al13 O3 1.810184 1_555
Al13 O53 1.858945 1_555
Al13 O24 1.884215 1_555
Al13 O39 1.891614 1_555
Al13 O14 1.954843 1_555
Al14 O40 1.652163 1_554
Al14 O45 1.783200 1_555
Al14 O29 1.785828 1_555
Al14 O51 1.996542 1_555
Al15 O59 1.778341 1_556
Al15 O41 1.817850 1_556
Al15 O52 1.900927 1_555
Al15 O23 1.942240 1_555
Al15 O38 1.984309 1_655
Al16 O13 1.840376 1_555
Al16 O10 1.878997 1_555
Al16 O54 1.946051 1_555
Al16 O58 1.966694 1_555
Al16 O7 1.985360 1_555
Al16 O11 2.120464 1_555
Al17 O49 1.787007 1_565
Al17 O45 1.798232 1_555
Al17 O22 1.895552 1_555
Al17 O51 1.916824 1_555
Al17 O36 1.931724 1_455
Al18 O17 1.795481 1_565
Al18 O29 1.825322 1_555
Al18 O46 1.863621 1_555
Al18 O51 1.901517 1_555
Al18 O24 2.137874 1_554
Al19 O53 1.773945 1_555
Al19 O1 1.781192 1_555
Al19 O28 1.943721 1_555
Al19 O16 1.955477 1_555
Al19 O50 2.028210 1_555
Al20 O57 1.786148 1_555
Al20 O58 1.815646 1_555
Al20 O35 1.822020 1_555
Al20 O42 1.851219 1_555
Al20 O37 1.897536 1_555
Al21 O31 1.736748 1_555
Al21 O45 1.754284 1_555
Al21 O48 1.760157 1_555
Al21 O27 1.796413 1_555
Al22 O25 1.851103 1_555
Al22 O34 1.860025 1_555
Al22 O37 1.899777 1_555
Al22 O9 1.908052 1_555
Al22 O35 1.908692 1_555
Al23 O43 1.804777 1_555
Al23 O59 1.856011 1_555
Al23 O49 1.889823 1_655
Al23 O8 1.891535 1_545
Al23 O47 1.977428 1_555
Al24 O28 1.783488 1_555
Al24 O46 1.806299 1_555
Al24 O22 1.807383 1_555
Al24 O20 1.850353 1_565
Al25 O47 1.765944 1_465
Al25 O22 1.785104 1_555
Al25 O12 1.794882 1_465
Al25 O21 1.845130 1_555
Al26 O33 1.711535 1_555
Al26 O59 1.719269 1_566
Al26 O36 1.809750 1_556
Al26 O39 1.895809 1_555
Al27 O32 1.851223 1_556
Al27 O52 1.861959 1_555
Al27 O56 1.868319 1_555
Al27 O18 1.875885 1_555
Al27 O10 1.947313 1_555
Al28 O5 1.802413 1_555
Al28 O57 1.863142 1_555
Al28 O18 1.889714 1_555
Al28 O44 1.894873 1_555
Al28 O23 1.968622 1_555
Al29 O3 1.784927 1_555
Al29 O1 1.817667 1_555
Al29 O57 1.842794 1_555
Al29 O56 1.873562 1_555
Al29 O18 2.224854 1_555
Al30 O31 1.686284 1_555
Al30 O37 1.755272 1_555
Al30 O15 1.819492 1_555
Al30 O19 1.844531 1_555
Al31 O33 1.788887 1_555
Al31 O2 1.822965 1_555
Al31 O26 1.888533 1_555
Al31 O21 1.917459 1_655
Al31 O14 2.011082 1_555
Al31 O3 2.075681 1_555
Al32 O8 1.780153 1_555
Al32 O25 1.805392 1_555
Al32 O46 1.834595 1_555
Al32 O30 1.875897 1_555
Al32 O9 2.145520 1_555
Al33 O27 1.782350 1_655
Al33 O26 1.802091 1_555
Al33 O2 1.873920 1_555
Al33 O5 1.882473 1_555
Al34 O38 1.793230 1_554
Al34 O0 1.843374 1_555
Al34 O54 1.845182 1_554
Al34 O49 2.006643 1_555
Al34 O51 2.027685 1_545
Al35 O43 1.814417 1_555
Al35 O35 1.831053 1_555
Al35 O32 1.858076 1_555
Al35 O15 1.953292 1_555
Al35 O42 2.081819 1_555
Al36 O15 1.761393 1_555
Al36 O17 1.812109 1_555
Al36 O0 1.822935 1_555
Al36 O20 1.886214 1_555
Al37 O48 1.865928 1_655
Al37 O55 1.896705 1_555
Al37 O34 1.929592 1_555
Al37 O41 1.945346 1_555
Al37 O32 1.950599 1_555
Al38 O34 1.765701 1_555
Al38 O36 1.838256 1_555
Al38 O8 1.868759 1_555
Al38 O55 1.918218 1_555
Al38 O9 2.092687 1_555
Al39 O58 1.825792 1_555
Al39 O13 1.833559 1_555
Al39 O19 1.870067 1_555
Al39 O1 1.874317 1_555
Al39 O50 1.983931 1_555
