# generated using pymatgen
data_MgZn4(SnO2)4
_symmetry_space_group_name_H-M   'P 1'
_cell_length_a   3.28746525
_cell_length_b   9.01337578
_cell_length_c   9.52848866
_cell_angle_alpha   93.42452252
_cell_angle_beta   81.09446602
_cell_angle_gamma   81.03387360
_symmetry_Int_Tables_number   1
_chemical_formula_structural   MgZn4(SnO2)4
_chemical_formula_sum   'Mg1 Zn4 Sn4 O8'
_cell_volume   274.50889988
_cell_formula_units_Z   1
loop_
 _symmetry_equiv_pos_site_id
 _symmetry_equiv_pos_as_xyz
  1  'x, y, z'
loop_
 _atom_site_type_symbol
 _atom_site_label
 _atom_site_symmetry_multiplicity
 _atom_site_fract_x
 _atom_site_fract_y
 _atom_site_fract_z
 _atom_site_occupancy
  Mg  Mg0  1  0.98043300  0.84589700  0.83709600  1
  Zn  Zn0  1  0.63964200  0.00592600  0.28756500  1
  Zn  Zn1  1  0.46785600  0.99576100  0.64622200  1
  Zn  Zn2  1  0.38818000  0.78226400  0.07163900  1
  Zn  Zn3  1  0.63370800  0.15548500  0.93313300  1
  Sn  Sn0  1  0.86508600  0.27878100  0.55269700  1
  Sn  Sn1  1  0.98946200  0.34104300  0.19457700  1
  Sn  Sn2  1  0.09711400  0.48504400  0.82692300  1
  Sn  Sn3  1  0.22561900  0.69213300  0.43374700  1
  O  O0  1  0.07807300  0.83897100  0.62474000  1
  O  O1  1  0.08923400  0.31326000  0.96918800  1
  O  O2  1  0.96986600  0.68457000  0.98050100  1
  O  O3  1  0.47078000  0.12522300  0.47624900  1
  O  O4  1  0.84561700  0.13597800  0.72333000  1
  O  O5  1  0.58091400  0.17681700  0.16030100  1
  O  O6  1  0.20532300  0.87215400  0.27196200  1
  O  O7  1  0.40565400  0.94596900  0.91431500  1
loop_
_geom_bond_atom_site_label_1
_geom_bond_atom_site_label_2
_geom_bond_distance
_geom_bond_site_symmetry_2
Mg0 O7 1.970893 1_555
Mg0 O7 1.985260 1_655
Mg0 O0 1.994687 1_655
Mg0 O2 2.054550 1_555
O0 Zn1 2.071747 1_555
O0 Sn3 2.130195 1_555
O0 Zn1 2.240089 1_455
O1 Zn3 2.074141 1_555
O1 Sn1 2.115326 1_456
O1 Sn2 2.118495 1_555
O1 Zn3 2.268845 1_455
O2 Zn2 2.013933 1_556
O2 Zn2 2.019035 1_656
O2 Sn2 2.193685 1_655
O3 Zn0 1.992661 1_555
O3 Zn1 2.051642 1_545
O3 Sn0 2.204025 1_555
O3 Sn0 2.232171 1_455
O4 Zn3 2.000323 1_555
O4 Zn1 2.083297 1_545
O4 Sn0 2.132547 1_555
O4 Zn1 2.222481 1_645
O5 Zn0 2.020700 1_555
O5 Zn3 2.139161 1_554
O5 Sn1 2.190748 1_555
O5 Sn1 2.219656 1_455
O6 Zn2 1.992336 1_555
O6 Zn0 2.023725 1_565
O6 Zn0 2.031821 1_465
O6 Sn3 2.304480 1_555
O7 Zn3 2.145446 1_565
O7 Zn2 2.166032 1_556
