# generated using pymatgen
data_Mg2B2O5
_symmetry_space_group_name_H-M   'P 1'
_cell_length_a   3.10597618
_cell_length_b   9.18056613
_cell_length_c   12.32612256
_cell_angle_alpha   75.73640961
_cell_angle_beta   90.00000000
_cell_angle_gamma   90.00000000
_symmetry_Int_Tables_number   1
_chemical_formula_structural   Mg2B2O5
_chemical_formula_sum   'Mg8 B8 O20'
_cell_volume   340.63960969
_cell_formula_units_Z   4
loop_
 _symmetry_equiv_pos_site_id
 _symmetry_equiv_pos_as_xyz
  1  'x, y, z'
loop_
 _atom_site_type_symbol
 _atom_site_label
 _atom_site_symmetry_multiplicity
 _atom_site_fract_x
 _atom_site_fract_y
 _atom_site_fract_z
 _atom_site_occupancy
  Mg  Mg0  1  0.79262371  0.64606268  0.60403129  1
  Mg  Mg1  1  0.29262371  0.35393732  0.89596871  1
  Mg  Mg2  1  0.20737629  0.35393732  0.39596871  1
  Mg  Mg3  1  0.70737629  0.64606268  0.10403129  1
  Mg  Mg4  1  0.71766821  0.10340098  0.31310745  1
  Mg  Mg5  1  0.21766821  0.89659902  0.18689255  1
  Mg  Mg6  1  0.28233179  0.89659902  0.68689255  1
  Mg  Mg7  1  0.78233179  0.10340098  0.81310745  1
  B  B0  1  0.84596366  0.16853844  0.56047693  1
  B  B1  1  0.34596366  0.83146156  0.93952307  1
  B  B2  1  0.15403634  0.83146156  0.43952307  1
  B  B3  1  0.65403634  0.16853844  0.06047693  1
  B  B4  1  0.27439747  0.35732245  0.15923640  1
  B  B5  1  0.77439747  0.64267755  0.34076360  1
  B  B6  1  0.72560253  0.64267755  0.84076360  1
  B  B7  1  0.22560253  0.35732245  0.65923640  1
  O  O0  1  0.80217750  0.49457742  0.86301839  1
  O  O1  1  0.30217750  0.50542258  0.63698161  1
  O  O2  1  0.19782250  0.50542258  0.13698161  1
  O  O3  1  0.69782250  0.49457742  0.36301839  1
  O  O4  1  0.27519558  0.25898258  0.76165567  1
  O  O5  1  0.77519558  0.74101742  0.73834433  1
  O  O6  1  0.72480442  0.74101742  0.23834433  1
  O  O7  1  0.22480442  0.25898258  0.26165567  1
  O  O8  1  0.77826892  0.17950222  0.95345827  1
  O  O9  1  0.27826892  0.82049778  0.54654173  1
  O  O10  1  0.22173108  0.82049778  0.04654173  1
  O  O11  1  0.72173108  0.17950222  0.45345827  1
  O  O12  1  0.28442614  0.94666994  0.84767254  1
  O  O13  1  0.78442614  0.05333006  0.65232746  1
  O  O14  1  0.71557386  0.05333006  0.15232746  1
  O  O15  1  0.21557386  0.94666994  0.34767254  1
  O  O16  1  0.42525898  0.29990493  0.06945706  1
  O  O17  1  0.92525898  0.70009507  0.43054294  1
  O  O18  1  0.57474102  0.70009507  0.93054294  1
  O  O19  1  0.07474102  0.29990493  0.56945706  1
loop_
_geom_bond_atom_site_label_1
_geom_bond_atom_site_label_2
_geom_bond_distance
_geom_bond_site_symmetry_2
Mg0 O1 1.973352 1_555
Mg0 O1 2.019518 1_655
Mg0 O5 2.053022 1_555
Mg0 O17 2.113288 1_555
Mg0 O9 2.186952 1_655
Mg0 O9 2.249383 1_555
Mg1 O0 1.973352 1_455
Mg1 O0 2.019518 1_555
Mg1 O4 2.053022 1_555
Mg1 O16 2.113288 1_556
Mg1 O8 2.186952 1_555
Mg1 O8 2.249383 1_455
Mg2 O3 1.973352 1_555
Mg2 O3 2.019518 1_455
Mg2 O7 2.053022 1_555
Mg2 O19 2.113288 1_555
Mg2 O11 2.186952 1_455
Mg2 O11 2.249383 1_555
Mg3 O2 1.973352 1_655
Mg3 O2 2.019518 1_555
Mg3 O6 2.053022 1_555
Mg3 O18 2.113288 1_554
Mg3 O10 2.186952 1_555
Mg3 O10 2.249383 1_655
Mg4 O11 2.019083 1_555
Mg4 O7 2.083117 1_555
Mg4 O15 2.083608 1_645
Mg4 O15 2.093282 1_545
Mg4 O7 2.115908 1_655
Mg4 O14 2.141906 1_555
Mg5 O10 2.019083 1_555
Mg5 O6 2.083117 1_455
Mg5 O14 2.083608 1_565
Mg5 O14 2.093282 1_465
Mg5 O6 2.115908 1_555
Mg5 O15 2.141906 1_555
Mg6 O9 2.019083 1_555
Mg6 O5 2.083117 1_555
Mg6 O13 2.083608 1_465
Mg6 O13 2.093282 1_565
Mg6 O5 2.115908 1_455
Mg6 O12 2.141906 1_555
Mg7 O8 2.019083 1_555
Mg7 O4 2.083117 1_655
Mg7 O12 2.083608 1_545
Mg7 O12 2.093282 1_645
Mg7 O4 2.115908 1_555
Mg7 O13 2.141906 1_555
B0 O11 1.354137 1_555
B0 O13 1.359020 1_555
B0 O19 1.427387 1_655
B1 O10 1.354137 1_556
B1 O12 1.359020 1_555
B1 O18 1.427387 1_555
B2 O9 1.354137 1_555
B2 O15 1.359020 1_555
B2 O17 1.427387 1_455
B3 O8 1.354137 1_554
B3 O14 1.359020 1_555
B3 O16 1.427387 1_555
B4 O2 1.340395 1_555
B4 O7 1.367813 1_555
B4 O16 1.417569 1_555
B5 O3 1.340395 1_555
B5 O6 1.367813 1_555
B5 O17 1.417569 1_555
B6 O0 1.340395 1_555
B6 O5 1.367813 1_555
B6 O18 1.417569 1_555
B7 O1 1.340395 1_555
B7 O4 1.367813 1_555
B7 O19 1.417569 1_555
