# generated using pymatgen
data_Mg6TiC
_symmetry_space_group_name_H-M   'P 1'
_cell_length_a   4.47574400
_cell_length_b   5.66115000
_cell_length_c   12.14346900
_cell_angle_alpha   90.00000000
_cell_angle_beta   90.00000000
_cell_angle_gamma   90.00000000
_symmetry_Int_Tables_number   1
_chemical_formula_structural   Mg6TiC
_chemical_formula_sum   'Mg12 Ti2 C2'
_cell_volume   307.68949492
_cell_formula_units_Z   2
loop_
 _symmetry_equiv_pos_site_id
 _symmetry_equiv_pos_as_xyz
  1  'x, y, z'
loop_
 _atom_site_type_symbol
 _atom_site_label
 _atom_site_symmetry_multiplicity
 _atom_site_fract_x
 _atom_site_fract_y
 _atom_site_fract_z
 _atom_site_occupancy
  Mg  Mg0  1  0.50000000  0.24615600  0.44489400  1
  Mg  Mg1  1  0.50000000  0.75384400  0.44489400  1
  Mg  Mg2  1  0.00000000  0.74102200  0.09062600  1
  Mg  Mg3  1  0.00000000  0.25897800  0.09062600  1
  Mg  Mg4  1  0.00000000  0.00000000  0.33384500  1
  Mg  Mg5  1  0.00000000  0.50000000  0.30924700  1
  Mg  Mg6  1  0.50000000  0.74615600  0.94489400  1
  Mg  Mg7  1  0.50000000  0.25384400  0.94489400  1
  Mg  Mg8  1  0.00000000  0.24102200  0.59062600  1
  Mg  Mg9  1  0.00000000  0.75897800  0.59062600  1
  Mg  Mg10  1  0.00000000  0.50000000  0.83384500  1
  Mg  Mg11  1  0.00000000  0.00000000  0.80924700  1
  Ti  Ti0  1  0.50000000  0.00000000  0.18745100  1
  Ti  Ti1  1  0.50000000  0.50000000  0.68745100  1
  C  C0  1  0.50000000  0.50000000  0.09841300  1
  C  C1  1  0.50000000  0.00000000  0.59841300  1
loop_
_geom_bond_atom_site_label_1
_geom_bond_atom_site_label_2
_geom_bond_distance
_geom_bond_site_symmetry_2
Mg0 Mg5 3.128343 1_655
Mg0 Mg5 3.128343 1_555
Mg0 Ti1 3.277344 1_555
Mg0 Ti0 3.422771 1_555
Mg1 Mg5 3.128343 1_655
Mg1 Mg5 3.128343 1_555
Mg1 Ti1 3.277344 1_555
Mg1 Ti0 3.422771 1_565
Mg2 Ti0 2.922335 1_565
Mg2 Ti0 2.922335 1_465
Mg2 Mg5 2.984931 1_555
Mg3 Ti0 2.922335 1_455
Mg3 Ti0 2.922335 1_555
Mg3 Mg5 2.984931 1_555
Mg4 Mg5 2.846292 1_545
Mg4 Mg5 2.846292 1_555
Mg4 Ti0 2.858041 1_555
Mg4 Ti0 2.858041 1_455
Mg6 Ti0 3.277344 1_566
Mg6 Ti1 3.422771 1_555
Mg7 Ti0 3.277344 1_556
Mg7 Ti1 3.422771 1_555
Mg8 Ti1 2.922335 1_455
Mg8 Ti1 2.922335 1_555
Mg9 Ti1 2.922335 1_455
Mg9 Ti1 2.922335 1_555
Mg10 Mg11 2.846292 1_565
Mg10 Mg11 2.846292 1_555
Mg10 Ti1 2.858041 1_455
Mg10 Ti1 2.858041 1_555
Mg11 Mg8 2.984931 1_555
Mg11 Mg9 2.984931 1_545
Mg11 Mg7 3.128343 1_455
Mg11 Mg7 3.128343 1_555
Mg11 Mg6 3.128343 1_545
Mg11 Mg6 3.128343 1_445
C0 Mg6 2.327521 1_554
C0 Mg7 2.327521 1_554
C0 Mg2 2.622741 1_655
C0 Mg2 2.622741 1_555
C0 Mg3 2.622741 1_655
C0 Mg3 2.622741 1_555
C0 Ti0 3.030052 1_565
C0 Ti0 3.030052 1_555
C1 Mg0 2.327521 1_555
C1 Mg1 2.327521 1_545
C1 Mg8 2.622741 1_655
C1 Mg8 2.622741 1_555
C1 Mg9 2.622741 1_545
C1 Mg9 2.622741 1_645
C1 Ti1 3.030052 1_545
C1 Ti1 3.030052 1_555
