# generated using pymatgen
data_LiV8O16
_symmetry_space_group_name_H-M   'P 1'
_cell_length_a   5.23546373
_cell_length_b   5.87427605
_cell_length_c   10.55409208
_cell_angle_alpha   90.00207803
_cell_angle_beta   90.01320685
_cell_angle_gamma   87.19179307
_symmetry_Int_Tables_number   1
_chemical_formula_structural   LiV8O16
_chemical_formula_sum   'Li1 V8 O16'
_cell_volume   324.19665492
_cell_formula_units_Z   1
loop_
 _symmetry_equiv_pos_site_id
 _symmetry_equiv_pos_as_xyz
  1  'x, y, z'
loop_
 _atom_site_type_symbol
 _atom_site_label
 _atom_site_symmetry_multiplicity
 _atom_site_fract_x
 _atom_site_fract_y
 _atom_site_fract_z
 _atom_site_occupancy
  Li  Li0  1  0.18218300  0.23434100  0.25001200  1
  V  V0  1  0.49863800  0.75063900  0.48818500  1
  V  V1  1  0.49858900  0.75073300  0.01179200  1
  V  V2  1  0.50200500  0.25168600  0.50181200  1
  V  V3  1  0.50187300  0.25173400  0.99818300  1
  V  V4  1  0.99588700  0.49767100  0.50142400  1
  V  V5  1  0.00131800  0.99594800  0.99685600  1
  V  V6  1  0.00138100  0.99587600  0.50315500  1
  V  V7  1  0.99579900  0.49774200  0.99858400  1
  O  O0  1  0.84237100  0.74505700  0.40557900  1
  O  O1  1  0.84227600  0.74514300  0.09445200  1
  O  O2  1  0.16353200  0.25906800  0.59237600  1
  O  O3  1  0.16348600  0.25911100  0.90758900  1
  O  O4  1  0.16549900  0.75730800  0.58869300  1
  O  O5  1  0.16551600  0.75731700  0.91130100  1
  O  O6  1  0.84422600  0.24604100  0.40450700  1
  O  O7  1  0.84406900  0.24612200  0.09549300  1
  O  O8  1  0.66056200  0.50672800  0.58721600  1
  O  O9  1  0.66089600  0.00644900  0.91287900  1
  O  O10  1  0.32658900  0.00632700  0.40065900  1
  O  O11  1  0.32885500  0.48466400  0.09949800  1
  O  O12  1  0.32894700  0.48458400  0.40050500  1
  O  O13  1  0.32649800  0.00647300  0.09933500  1
  O  O14  1  0.66096300  0.00647300  0.58712900  1
  O  O15  1  0.66054400  0.50676600  0.91278900  1
loop_
_geom_bond_atom_site_label_1
_geom_bond_atom_site_label_2
_geom_bond_distance
_geom_bond_site_symmetry_2
Li0 O13 2.189254 1_555
Li0 O10 2.189501 1_555
Li0 O12 2.320342 1_555
Li0 O11 2.320940 1_555
Li0 O6 2.404886 1_455
Li0 O7 2.405108 1_455
O0 V4 1.914769 1_555
O0 V0 1.998667 1_555
O0 V6 2.010998 1_655
O1 V7 1.915117 1_554
O1 V1 1.998337 1_555
O1 V5 2.011371 1_654
O2 V4 1.880292 1_455
O2 V2 2.012195 1_555
O2 V6 2.031214 1_545
O3 V7 1.880892 1_455
O3 V3 2.011564 1_555
O3 V5 2.031580 1_545
O4 V6 1.843636 1_555
O4 V4 2.023676 1_455
O4 V0 2.040328 1_555
O5 V5 1.844321 1_555
O5 V7 2.023959 1_455
O5 V1 2.039534 1_556
O6 V6 1.949801 1_645
O6 V4 1.994030 1_555
O6 V2 2.064200 1_555
O7 V5 1.950113 1_644
O7 V7 1.994341 1_554
O7 V3 2.063708 1_554
O8 V0 1.935118 1_555
O8 V2 1.966605 1_555
O8 V4 1.973912 1_555
O9 V3 1.860786 1_555
O9 V5 1.988546 1_645
O9 V1 2.047907 1_546
O10 V0 1.946224 1_545
O10 V6 2.020878 1_545
O10 V2 2.046864 1_555
O11 V3 1.927441 1_554
O11 V7 2.041266 1_454
O11 V1 2.055710 1_555
O12 V2 1.927179 1_555
O12 V4 2.041728 1_455
O12 V0 2.055181 1_555
O13 V1 1.946777 1_545
O13 V5 2.020267 1_544
O13 V3 2.046613 1_554
O14 V2 1.860260 1_555
O14 V6 1.988870 1_645
O14 V0 2.048384 1_545
O15 V1 1.935415 1_556
O15 V3 1.967010 1_555
O15 V7 1.973234 1_555
