# generated using pymatgen
data_Cs
_symmetry_space_group_name_H-M   'P 1'
_cell_length_a   11.29835339
_cell_length_b   11.29835339
_cell_length_c   11.29835339
_cell_angle_alpha   121.73775195
_cell_angle_beta   121.73775195
_cell_angle_gamma   87.01558797
_symmetry_Int_Tables_number   1
_chemical_formula_structural   Cs
_chemical_formula_sum   Cs8
_cell_volume   991.58624917
_cell_formula_units_Z   8
loop_
 _symmetry_equiv_pos_site_id
 _symmetry_equiv_pos_as_xyz
  1  'x, y, z'
loop_
 _atom_site_type_symbol
 _atom_site_label
 _atom_site_symmetry_multiplicity
 _atom_site_fract_x
 _atom_site_fract_y
 _atom_site_fract_z
 _atom_site_occupancy
  Cs  Cs0_0  1  0.00000000  0.00000000  0.00000000  1
  Cs  Cs0_1  1  0.00000000  0.00000000  0.50000000  1
  Cs  Cs0_2  1  0.00000000  0.50000000  0.00000000  1
  Cs  Cs0_3  1  0.00000000  0.50000000  0.50000000  1
  Cs  Cs0_4  1  0.50000000  0.00000000  0.00000000  1
  Cs  Cs0_5  1  0.50000000  0.00000000  0.50000000  1
  Cs  Cs0_6  1  0.50000000  0.50000000  0.00000000  1
  Cs  Cs0_7  1  0.50000000  0.50000000  0.50000000  1
loop_
_geom_bond_atom_site_label_1
_geom_bond_atom_site_label_2
_geom_bond_distance
_geom_bond_site_symmetry_2
Cs0_0 Cs0_3 5.500151 1_555
Cs0_0 Cs0_5 5.500151 1_454
Cs0_0 Cs0_3 5.500151 1_544
Cs0_0 Cs0_5 5.500151 1_555
Cs0_1 Cs0_2 5.500151 1_556
Cs0_1 Cs0_4 5.500151 1_556
Cs0_1 Cs0_2 5.500151 1_545
Cs0_1 Cs0_4 5.500151 1_455
Cs0_2 Cs0_7 5.500151 1_555
Cs0_2 Cs0_7 5.500151 1_454
Cs0_3 Cs0_6 5.500151 1_455
Cs0_3 Cs0_6 5.500151 1_556
Cs0_4 Cs0_7 5.500151 1_544
Cs0_4 Cs0_7 5.500151 1_555
Cs0_5 Cs0_6 5.500151 1_545
Cs0_5 Cs0_6 5.500151 1_556
