# generated using pymatgen
data_B2OsW2
_symmetry_space_group_name_H-M   'P 1'
_cell_length_a   3.09333000
_cell_length_b   7.59871500
_cell_length_c   9.66562800
_cell_angle_alpha   90.00000000
_cell_angle_beta   90.00000000
_cell_angle_gamma   90.00000000
_symmetry_Int_Tables_number   1
_chemical_formula_structural   B2OsW2
_chemical_formula_sum   'B8 Os4 W8'
_cell_volume   227.19380548
_cell_formula_units_Z   4
loop_
 _symmetry_equiv_pos_site_id
 _symmetry_equiv_pos_as_xyz
  1  'x, y, z'
loop_
 _atom_site_type_symbol
 _atom_site_label
 _atom_site_symmetry_multiplicity
 _atom_site_fract_x
 _atom_site_fract_y
 _atom_site_fract_z
 _atom_site_occupancy
  B  B0  1  0.50000000  0.11660600  0.46138500  1
  B  B1  1  0.50000000  0.88339400  0.53861500  1
  B  B2  1  0.00000000  0.38339400  0.96138500  1
  B  B3  1  0.00000000  0.61660600  0.03861500  1
  B  B4  1  0.50000000  0.12574000  0.26848500  1
  B  B5  1  0.50000000  0.87426000  0.73151500  1
  B  B6  1  0.00000000  0.37426000  0.76848500  1
  B  B7  1  0.00000000  0.62574000  0.23151500  1
  Os  Os0  1  0.50000000  0.61913200  0.39235200  1
  Os  Os1  1  0.50000000  0.38086800  0.60764800  1
  Os  Os2  1  0.00000000  0.88086800  0.89235200  1
  Os  Os3  1  0.00000000  0.11913200  0.10764800  1
  W  W0  1  0.50000000  0.80880800  0.13023200  1
  W  W1  1  0.50000000  0.19119200  0.86976800  1
  W  W2  1  0.00000000  0.69119200  0.63023200  1
  W  W3  1  0.00000000  0.30880800  0.36976800  1
  W  W4  1  0.50000000  0.57249800  0.86011900  1
  W  W5  1  0.50000000  0.42750200  0.13988100  1
  W  W6  1  0.00000000  0.92750200  0.36011900  1
  W  W7  1  0.00000000  0.07249800  0.63988100  1
loop_
_geom_bond_atom_site_label_1
_geom_bond_atom_site_label_2
_geom_bond_distance
_geom_bond_site_symmetry_2
B0 B4 1.865791 1_555
B0 B1 1.922916 1_545
B0 W3 2.304207 1_555
B0 W3 2.304207 1_655
B0 W6 2.327024 1_645
B0 W6 2.327024 1_545
B0 W7 2.341172 1_655
B0 W7 2.341172 1_555
B0 Os1 2.455786 1_555
B1 B5 1.865791 1_555
B1 W2 2.304207 1_555
B1 W2 2.304207 1_655
B1 W7 2.327024 1_665
B1 W7 2.327024 1_565
B1 W6 2.341172 1_555
B1 W6 2.341172 1_655
B1 Os0 2.455786 1_555
B2 B6 1.865791 1_555
B2 B3 1.922916 1_556
B2 W1 2.304207 1_555
B2 W1 2.304207 1_455
B2 W4 2.327024 1_555
B2 W4 2.327024 1_455
B2 W5 2.341172 1_456
B2 W5 2.341172 1_556
B2 Os3 2.455786 1_556
B3 B7 1.865791 1_555
B3 W0 2.304207 1_455
B3 W0 2.304207 1_555
B3 W5 2.327024 1_455
B3 W5 2.327024 1_555
B3 W4 2.341172 1_554
B3 W4 2.341172 1_454
B3 Os2 2.455786 1_554
B4 Os3 2.193501 1_555
B4 Os3 2.193501 1_655
B4 W3 2.299054 1_655
B4 W3 2.299054 1_555
B4 W6 2.333611 1_645
B4 W6 2.333611 1_545
B4 W5 2.608258 1_555
B4 W0 2.754178 1_545
B5 Os2 2.193501 1_555
B5 Os2 2.193501 1_655
B5 W2 2.299054 1_655
B5 W2 2.299054 1_555
B5 W7 2.333611 1_565
B5 W7 2.333611 1_665
B5 W4 2.608258 1_555
B5 W1 2.754178 1_565
B6 Os1 2.193501 1_455
B6 Os1 2.193501 1_555
B6 W1 2.299054 1_455
B6 W1 2.299054 1_555
B6 W4 2.333611 1_555
B6 W4 2.333611 1_455
B6 W7 2.608258 1_555
B6 W2 2.754178 1_555
B7 Os0 2.193501 1_555
B7 Os0 2.193501 1_455
B7 W0 2.299054 1_555
B7 W0 2.299054 1_455
B7 W5 2.333611 1_555
B7 W5 2.333611 1_455
B7 W6 2.608258 1_555
B7 W3 2.754178 1_555
