# generated using pymatgen
data_LaZnFeWO6
_symmetry_space_group_name_H-M   'P 1'
_cell_length_a   5.56072210
_cell_length_b   7.82137773
_cell_length_c   5.96329964
_cell_angle_alpha   90.05271397
_cell_angle_beta   89.99219234
_cell_angle_gamma   89.70550410
_symmetry_Int_Tables_number   1
_chemical_formula_structural   LaZnFeWO6
_chemical_formula_sum   'La2 Zn2 Fe2 W2 O12'
_cell_volume   259.35531885
_cell_formula_units_Z   2
loop_
 _symmetry_equiv_pos_site_id
 _symmetry_equiv_pos_as_xyz
  1  'x, y, z'
loop_
 _atom_site_type_symbol
 _atom_site_label
 _atom_site_symmetry_multiplicity
 _atom_site_fract_x
 _atom_site_fract_y
 _atom_site_fract_z
 _atom_site_occupancy
  La  La0  1  0.97975700  0.24831300  0.06091400  1
  La  La1  1  0.47951400  0.74876300  0.43957500  1
  Zn  Zn0  1  0.47522800  0.25372600  0.38751300  1
  Zn  Zn1  1  0.97535700  0.75335900  0.11346500  1
  Fe  Fe0  1  0.99828300  0.00299200  0.52627300  1
  Fe  Fe1  1  0.49862300  0.50282600  0.97513200  1
  W  W0  1  0.50140300  0.99656300  0.97598000  1
  W  W1  1  0.00080200  0.49621500  0.52413900  1
  O  O0  1  0.63069500  0.75245200  0.03469700  1
  O  O1  1  0.13057800  0.25205500  0.46489500  1
  O  O2  1  0.20513500  0.93871200  0.18016500  1
  O  O3  1  0.70448400  0.43923000  0.31915300  1
  O  O4  1  0.17204500  0.54939600  0.21757700  1
  O  O5  1  0.67213100  0.04985800  0.28251600  1
  O  O6  1  0.90506600  0.74857500  0.49169800  1
  O  O7  1  0.40443900  0.24852600  0.00756500  1
  O  O8  1  0.30532100  0.55245000  0.68090600  1
  O  O9  1  0.80414800  0.05247000  0.81790800  1
  O  O10  1  0.32836100  0.95718300  0.71136800  1
  O  O11  1  0.82862600  0.45633400  0.78856100  1
loop_
_geom_bond_atom_site_label_1
_geom_bond_atom_site_label_2
_geom_bond_distance
_geom_bond_site_symmetry_2
La0 O9 2.326261 1_554
La0 O7 2.382837 1_655
La0 O11 2.445891 1_554
La0 O1 2.551171 1_655
La0 O3 2.629817 1_555
La0 O5 2.666887 1_555
La0 O4 2.753849 1_655
La0 O2 2.812878 1_645
La1 O8 2.320754 1_555
La1 O6 2.386738 1_555
La1 O10 2.443649 1_555
La1 O0 2.556709 1_555
La1 O2 2.628628 1_555
La1 O4 2.670490 1_555
La1 O5 2.756822 1_565
La1 O3 2.811977 1_555
Fe0 O6 2.068997 1_545
Fe0 O9 2.081728 1_555
Fe0 O1 2.117993 1_655
Fe0 O10 2.170293 1_645
Fe0 O5 2.351906 1_555
Fe0 O2 2.413960 1_645
Fe1 O7 2.068602 1_556
Fe1 O8 2.093323 1_555
Fe1 O0 2.119201 1_556
Fe1 O11 2.174701 1_555
Fe1 O4 2.347836 1_556
Fe1 O3 2.400657 1_556
O0 Zn1 1.973399 1_555
O0 W0 2.066895 1_554
O1 Zn0 1.971324 1_555
O1 W1 2.068077 1_555
O2 Zn1 1.977524 1_455
O2 W0 2.099902 1_554
O3 Zn0 1.978997 1_555
O3 W1 2.101201 1_655
O4 Zn1 2.027476 1_455
O4 W1 2.103993 1_555
O5 Zn0 2.028163 1_555
O5 W0 2.102299 1_544
O6 W1 2.051014 1_655
O6 Zn1 2.289454 1_555
O7 W0 2.048955 1_544
O7 Zn0 2.300095 1_555
O8 W1 1.985484 1_555
O9 W0 1.980343 1_545
O10 W0 1.874379 1_555
O11 W1 1.871872 1_655
