# generated using pymatgen
data_La3TiBeS7
_symmetry_space_group_name_H-M   'P 1'
_cell_length_a   10.32067994
_cell_length_b   10.32067994
_cell_length_c   5.81807100
_cell_angle_alpha   90.00000000
_cell_angle_beta   90.00000000
_cell_angle_gamma   119.99999964
_symmetry_Int_Tables_number   1
_chemical_formula_structural   La3TiBeS7
_chemical_formula_sum   'La6 Ti2 Be2 S14'
_cell_volume   536.69341989
_cell_formula_units_Z   2
loop_
 _symmetry_equiv_pos_site_id
 _symmetry_equiv_pos_as_xyz
  1  'x, y, z'
loop_
 _atom_site_type_symbol
 _atom_site_label
 _atom_site_symmetry_multiplicity
 _atom_site_fract_x
 _atom_site_fract_y
 _atom_site_fract_z
 _atom_site_occupancy
  La  La0  1  0.74514300  0.13659300  0.24906100  1
  La  La1  1  0.39145000  0.25485700  0.24906100  1
  La  La2  1  0.86340700  0.60855000  0.24906100  1
  La  La3  1  0.25485700  0.86340700  0.74906100  1
  La  La4  1  0.60855000  0.74514300  0.74906100  1
  La  La5  1  0.13659300  0.39145000  0.74906100  1
  Ti  Ti0  1  0.00000000  0.00000000  0.01525800  1
  Ti  Ti1  1  0.00000000  0.00000000  0.51525800  1
  Be  Be0  1  0.66666700  0.33333300  0.65873900  1
  Be  Be1  1  0.33333300  0.66666700  0.15873900  1
  S  S0  1  0.85292600  0.07652300  0.76618500  1
  S  S1  1  0.22359700  0.14707400  0.76618500  1
  S  S2  1  0.92347700  0.77640300  0.76618500  1
  S  S3  1  0.14707400  0.92347700  0.26618500  1
  S  S4  1  0.77640300  0.85292600  0.26618500  1
  S  S5  1  0.07652300  0.22359700  0.26618500  1
  S  S6  1  0.88520800  0.40288100  0.53192700  1
  S  S7  1  0.51767400  0.11479200  0.53192700  1
  S  S8  1  0.59711900  0.48232600  0.53192700  1
  S  S9  1  0.11479200  0.59711900  0.03192700  1
  S  S10  1  0.48232600  0.88520800  0.03192700  1
  S  S11  1  0.40288100  0.51767400  0.03192700  1
  S  S12  1  0.66666700  0.33333300  0.01658700  1
  S  S13  1  0.33333300  0.66666700  0.51658700  1
loop_
_geom_bond_atom_site_label_1
_geom_bond_atom_site_label_2
_geom_bond_distance
_geom_bond_site_symmetry_2
La0 S7 2.782487 1_555
La0 S12 2.872770 1_555
La0 S6 2.894529 1_555
La0 S10 2.940613 1_545
La0 S5 3.072794 1_655
La0 S4 3.103159 1_545
La0 S0 3.194399 1_554
La0 S0 3.370976 1_555
La1 S8 2.782491 1_555
La1 S12 2.872779 1_555
La1 S7 2.894536 1_555
La1 S11 2.940617 1_555
La1 S3 3.072794 1_545
La1 S5 3.103159 1_555
La1 S1 3.194399 1_554
La1 S1 3.370976 1_555
La2 S6 2.782496 1_555
La2 S12 2.872777 1_555
La2 S8 2.894529 1_555
La2 S9 2.940608 1_655
La2 S4 3.072794 1_555
La2 S3 3.103159 1_655
La2 S2 3.194399 1_554
La2 S2 3.370976 1_555
La3 S10 2.782487 1_556
La3 S13 2.872770 1_555
La3 S9 2.894529 1_556
La3 S7 2.940613 1_565
La3 S2 3.072794 1_455
La3 S1 3.103159 1_565
La3 S3 3.194399 1_555
La3 S3 3.370976 1_556
La4 S11 2.782491 1_556
La4 S13 2.872779 1_555
La4 S10 2.894536 1_556
La4 S8 2.940617 1_555
La4 S0 3.072794 1_565
La4 S2 3.103159 1_555
La4 S4 3.194399 1_555
La4 S4 3.370976 1_556
La5 S9 2.782496 1_556
La5 S13 2.872777 1_555
La5 S11 2.894529 1_556
La5 S6 2.940608 1_455
La5 S1 3.072794 1_555
La5 S0 3.103159 1_455
La5 S5 3.194399 1_555
La5 S5 3.370976 1_556
Be0 S12 2.081985 1_556
Be0 S8 2.127875 1_555
Be0 S6 2.127875 1_555
Be0 S7 2.127875 1_555
Be1 S13 2.081985 1_555
Be1 S11 2.127875 1_555
Be1 S9 2.127875 1_555
Be1 S10 2.127875 1_555
S0 Ti0 2.495300 1_656
S0 Ti1 2.501580 1_655
S1 Ti0 2.495300 1_556
S1 Ti1 2.501580 1_555
S2 Ti0 2.495300 1_666
S2 Ti1 2.501580 1_665
S3 Ti1 2.495300 1_565
S3 Ti0 2.501580 1_565
S4 Ti1 2.495300 1_665
S4 Ti0 2.501580 1_665
S5 Ti1 2.495300 1_555
S5 Ti0 2.501580 1_555
