# generated using pymatgen
data_BaFeCoPbO5
_symmetry_space_group_name_H-M   'P 1'
_cell_length_a   4.03059500
_cell_length_b   5.79661200
_cell_length_c   21.28521300
_cell_angle_alpha   90.00000000
_cell_angle_beta   90.00000000
_cell_angle_gamma   90.00000000
_symmetry_Int_Tables_number   1
_chemical_formula_structural   BaFeCoPbO5
_chemical_formula_sum   'Ba4 Fe4 Co4 Pb4 O20'
_cell_volume   497.30336039
_cell_formula_units_Z   4
loop_
 _symmetry_equiv_pos_site_id
 _symmetry_equiv_pos_as_xyz
  1  'x, y, z'
loop_
 _atom_site_type_symbol
 _atom_site_label
 _atom_site_symmetry_multiplicity
 _atom_site_fract_x
 _atom_site_fract_y
 _atom_site_fract_z
 _atom_site_occupancy
  Ba  Ba0  1  0.25000000  0.50950400  0.31183100  1
  Ba  Ba1  1  0.25000000  0.00950400  0.18816900  1
  Ba  Ba2  1  0.75000000  0.49049600  0.68816900  1
  Ba  Ba3  1  0.75000000  0.99049600  0.81183100  1
  Fe  Fe0  1  0.25000000  0.49937500  0.55453100  1
  Fe  Fe1  1  0.25000000  0.99937500  0.94546900  1
  Fe  Fe2  1  0.75000000  0.50062500  0.44546900  1
  Fe  Fe3  1  0.75000000  0.00062500  0.05453100  1
  Co  Co0  1  0.25000000  0.98959700  0.68556500  1
  Co  Co1  1  0.25000000  0.48959700  0.81443500  1
  Co  Co2  1  0.75000000  0.01040300  0.31443500  1
  Co  Co3  1  0.75000000  0.51040300  0.18556500  1
  Pb  Pb0  1  0.25000000  0.01143500  0.42790100  1
  Pb  Pb1  1  0.25000000  0.51143500  0.07209900  1
  Pb  Pb2  1  0.75000000  0.98856500  0.57209900  1
  Pb  Pb3  1  0.75000000  0.48856500  0.92790100  1
  O  O0  1  0.75000000  0.98939600  0.67795600  1
  O  O1  1  0.75000000  0.48939600  0.82204400  1
  O  O2  1  0.25000000  0.01060400  0.32204400  1
  O  O3  1  0.25000000  0.51060400  0.17795600  1
  O  O4  1  0.25000000  0.73089300  0.75283700  1
  O  O5  1  0.25000000  0.23089300  0.74716300  1
  O  O6  1  0.75000000  0.26910700  0.24716300  1
  O  O7  1  0.75000000  0.76910700  0.25283700  1
  O  O8  1  0.25000000  0.23378300  0.60657300  1
  O  O9  1  0.25000000  0.73378300  0.89342700  1
  O  O10  1  0.75000000  0.76621700  0.39342700  1
  O  O11  1  0.75000000  0.26621700  0.10657300  1
  O  O12  1  0.25000000  0.75689900  0.61336500  1
  O  O13  1  0.25000000  0.25689900  0.88663500  1
  O  O14  1  0.75000000  0.24310100  0.38663500  1
  O  O15  1  0.75000000  0.74310100  0.11336500  1
  O  O16  1  0.75000000  0.52161900  0.53992500  1
  O  O17  1  0.75000000  0.02161900  0.96007500  1
  O  O18  1  0.25000000  0.47838100  0.46007500  1
  O  O19  1  0.25000000  0.97838100  0.03992500  1
loop_
_geom_bond_atom_site_label_1
_geom_bond_atom_site_label_2
_geom_bond_distance
_geom_bond_site_symmetry_2
Ba0 O6 2.810322 1_555
Ba0 O6 2.810322 1_455
Ba0 O7 2.811171 1_555
Ba0 O7 2.811171 1_455
Ba0 O3 2.849565 1_555
Ba0 O2 2.900089 1_555
Ba0 O2 2.912805 1_565
Ba0 O14 2.996873 1_455
Ba0 O14 2.996873 1_555
Ba0 O10 3.048310 1_555
Ba0 O10 3.048310 1_455
Ba0 O18 3.160558 1_555
Ba1 O7 2.810322 1_545
Ba1 O7 2.810322 1_445
Ba1 O6 2.811171 1_455
Ba1 O6 2.811171 1_555
Ba1 O2 2.849565 1_555
Ba1 O3 2.900089 1_545
Ba1 O3 2.912805 1_555
Ba1 O15 2.996873 1_545
Ba1 O15 2.996873 1_445
Ba1 O11 3.048310 1_455
Ba1 O11 3.048310 1_555
Ba1 O19 3.160558 1_545
Ba2 O4 2.810322 1_555
Ba2 O4 2.810322 1_655
Ba2 O5 2.811171 1_555
Ba2 O5 2.811171 1_655
Ba2 O1 2.849565 1_555
Ba2 O0 2.900089 1_555
Ba2 O0 2.912805 1_545
Ba2 O12 2.996873 1_655
Ba2 O12 2.996873 1_555
Ba2 O8 3.048310 1_555
Ba2 O8 3.048310 1_655
Ba2 O16 3.160558 1_555
Ba3 O5 2.810322 1_565
Ba3 O5 2.810322 1_665
Ba3 O4 2.811171 1_555
Ba3 O4 2.811171 1_655
Ba3 O0 2.849565 1_555
Ba3 O1 2.900089 1_565
Ba3 O1 2.912805 1_555
Ba3 O13 2.996873 1_665
Ba3 O13 2.996873 1_565
Ba3 O9 3.048310 1_555
Ba3 O9 3.048310 1_655
Ba3 O17 3.160558 1_565
Fe0 O8 1.896634 1_555
Fe0 O12 1.948485 1_555
Fe0 O18 2.014196 1_555
Fe0 O16 2.043209 1_455
Fe0 O16 2.043209 1_555
Fe1 O9 1.896634 1_555
Fe1 O13 1.948485 1_565
Fe1 O19 2.014196 1_556
Fe1 O17 2.043209 1_565
Fe1 O17 2.043209 1_465
Fe2 O10 1.896634 1_555
Fe2 O14 1.948485 1_555
Fe2 O16 2.014196 1_555
Fe2 O18 2.043209 1_555
Fe2 O18 2.043209 1_655
Fe3 O11 1.896634 1_555
Fe3 O15 1.948485 1_545
Fe3 O17 2.014196 1_554
Fe3 O19 2.043209 1_545
Fe3 O19 2.043209 1_645
Co0 O5 1.917137 1_565
Co0 O0 2.021795 1_455
Co0 O0 2.021795 1_555
Co0 O12 2.044787 1_555
Co0 O4 2.073440 1_555
Co0 O8 2.197835 1_565
Co1 O4 1.917137 1_555
Co1 O1 2.021795 1_455
Co1 O1 2.021795 1_555
Co1 O13 2.044787 1_555
Co1 O5 2.073440 1_555
Co1 O9 2.197835 1_555
Co2 O7 1.917137 1_545
Co2 O2 2.021795 1_555
Co2 O2 2.021795 1_655
Co2 O14 2.044787 1_555
Co2 O6 2.073440 1_555
Co2 O10 2.197835 1_545
Co3 O6 1.917137 1_555
Co3 O3 2.021795 1_655
Co3 O3 2.021795 1_555
Co3 O15 2.044787 1_555
Co3 O7 2.073440 1_555
Co3 O11 2.197835 1_555
O0 Pb2 2.253194 1_555
O1 Pb3 2.253194 1_555
O2 Pb0 2.253194 1_555
O3 Pb1 2.253194 1_555
O8 Pb2 2.573002 1_445
O8 Pb2 2.573002 1_545
O9 Pb3 2.573002 1_555
O9 Pb3 2.573002 1_455
O10 Pb0 2.573002 1_565
O10 Pb0 2.573002 1_665
O11 Pb1 2.573002 1_655
O11 Pb1 2.573002 1_555
O12 Pb2 2.576093 1_555
O12 Pb2 2.576093 1_455
O13 Pb3 2.576093 1_555
O13 Pb3 2.576093 1_455
O14 Pb0 2.576093 1_655
O14 Pb0 2.576093 1_555
O15 Pb1 2.576093 1_655
O15 Pb1 2.576093 1_555
O16 Pb2 2.791996 1_555
O17 Pb3 2.791996 1_555
O18 Pb0 2.791996 1_555
O19 Pb1 2.791996 1_555
