# generated using pymatgen
data_CaB2H3
_symmetry_space_group_name_H-M   'P 1'
_cell_length_a   3.56405100
_cell_length_b   3.42648200
_cell_length_c   16.61979600
_cell_angle_alpha   90.00000000
_cell_angle_beta   90.00000000
_cell_angle_gamma   90.00000000
_symmetry_Int_Tables_number   1
_chemical_formula_structural   CaB2H3
_chemical_formula_sum   'Ca4 B8 H12'
_cell_volume   202.96355139
_cell_formula_units_Z   4
loop_
 _symmetry_equiv_pos_site_id
 _symmetry_equiv_pos_as_xyz
  1  'x, y, z'
loop_
 _atom_site_type_symbol
 _atom_site_label
 _atom_site_symmetry_multiplicity
 _atom_site_fract_x
 _atom_site_fract_y
 _atom_site_fract_z
 _atom_site_occupancy
  Ca  Ca0  1  0.48981700  0.75000000  0.38622600  1
  Ca  Ca1  1  0.01018300  0.75000000  0.88622600  1
  Ca  Ca2  1  0.51018300  0.25000000  0.61377400  1
  Ca  Ca3  1  0.98981700  0.25000000  0.11377400  1
  B  B0  1  0.05115000  0.75000000  0.52232400  1
  B  B1  1  0.44885000  0.75000000  0.02232400  1
  B  B2  1  0.94885000  0.25000000  0.47767600  1
  B  B3  1  0.55115000  0.25000000  0.97767600  1
  B  B4  1  0.48158700  0.75000000  0.74918200  1
  B  B5  1  0.01841300  0.75000000  0.24918200  1
  B  B6  1  0.51841300  0.25000000  0.25081800  1
  B  B7  1  0.98158700  0.25000000  0.75081800  1
  H  H0  1  0.95790700  0.75000000  0.59490200  1
  H  H1  1  0.54209300  0.75000000  0.09490200  1
  H  H2  1  0.04209300  0.25000000  0.40509800  1
  H  H3  1  0.45790700  0.25000000  0.90509800  1
  H  H4  1  0.39515300  0.75000000  0.52983800  1
  H  H5  1  0.10484700  0.75000000  0.02983800  1
  H  H6  1  0.60484700  0.25000000  0.47016200  1
  H  H7  1  0.89515300  0.25000000  0.97016200  1
  H  H8  1  0.05196600  0.75000000  0.17695000  1
  H  H9  1  0.44803400  0.75000000  0.67695000  1
  H  H10  1  0.94803400  0.25000000  0.82305000  1
  H  H11  1  0.55196600  0.25000000  0.32305000  1
loop_
_geom_bond_atom_site_label_1
_geom_bond_atom_site_label_2
_geom_bond_distance
_geom_bond_site_symmetry_2
Ca0 H11 2.021559 1_565
Ca0 H11 2.021559 1_555
Ca1 H10 2.021559 1_465
Ca1 H10 2.021559 1_455
Ca2 H9 2.021559 1_555
Ca2 H9 2.021559 1_545
Ca3 H8 2.021559 1_655
Ca3 H8 2.021559 1_645
B0 H4 1.232388 1_555
B0 H0 1.251173 1_455
B1 H5 1.232388 1_555
B1 H1 1.251173 1_555
B2 H6 1.232388 1_555
B2 H2 1.251173 1_655
B3 H7 1.232388 1_555
B3 H3 1.251173 1_555
B4 H9 1.206423 1_555
B5 H8 1.206423 1_555
B6 H11 1.206423 1_555
B7 H10 1.206423 1_555
