# generated using pymatgen
data_Tb2Fe17H3
_symmetry_space_group_name_H-M   'P 1'
_cell_length_a   8.21656000
_cell_length_b   8.54646319
_cell_length_c   8.54646319
_cell_angle_alpha   119.99999372
_cell_angle_beta   90.00000000
_cell_angle_gamma   90.00000000
_symmetry_Int_Tables_number   1
_chemical_formula_structural   Tb2Fe17H3
_chemical_formula_sum   'Tb4 Fe34 H6'
_cell_volume   519.74885697
_cell_formula_units_Z   2
loop_
 _symmetry_equiv_pos_site_id
 _symmetry_equiv_pos_as_xyz
  1  'x, y, z'
loop_
 _atom_site_type_symbol
 _atom_site_label
 _atom_site_symmetry_multiplicity
 _atom_site_fract_x
 _atom_site_fract_y
 _atom_site_fract_z
 _atom_site_occupancy
  Tb  Tb0  1  0.75000000  0.66666700  0.33333300  1
  Tb  Tb1  1  0.25000000  0.33333300  0.66666700  1
  Tb  Tb2  1  0.75000000  0.00000000  0.00000000  1
  Tb  Tb3  1  0.25000000  0.00000000  0.00000000  1
  Fe  Fe0  1  0.75000000  0.62279400  0.67112400  1
  Fe  Fe1  1  0.25000000  0.37720600  0.32887600  1
  Fe  Fe2  1  0.75000000  0.04832900  0.37720600  1
  Fe  Fe3  1  0.25000000  0.95167100  0.32887600  1
  Fe  Fe4  1  0.25000000  0.95167100  0.62279400  1
  Fe  Fe5  1  0.75000000  0.04832900  0.67112400  1
  Fe  Fe6  1  0.75000000  0.32887600  0.95167100  1
  Fe  Fe7  1  0.25000000  0.67112400  0.62279400  1
  Fe  Fe8  1  0.25000000  0.67112400  0.04832900  1
  Fe  Fe9  1  0.75000000  0.32887600  0.37720600  1
  Fe  Fe10  1  0.25000000  0.37720600  0.04832900  1
  Fe  Fe11  1  0.75000000  0.62279400  0.95167100  1
  Fe  Fe12  1  0.39478800  0.66666700  0.33333300  1
  Fe  Fe13  1  0.60521200  0.33333300  0.66666700  1
  Fe  Fe14  1  0.89478800  0.33333300  0.66666700  1
  Fe  Fe15  1  0.10521200  0.66666700  0.33333300  1
  Fe  Fe16  1  0.98453800  0.83337100  0.16662900  1
  Fe  Fe17  1  0.01546200  0.16662900  0.83337100  1
  Fe  Fe18  1  0.98453800  0.33325800  0.16662900  1
  Fe  Fe19  1  0.48453800  0.16662900  0.83337100  1
  Fe  Fe20  1  0.01546200  0.66674200  0.83337100  1
  Fe  Fe21  1  0.51546200  0.83337100  0.16662900  1
  Fe  Fe22  1  0.98453800  0.83337100  0.66674200  1
  Fe  Fe23  1  0.48453800  0.66674200  0.83337100  1
  Fe  Fe24  1  0.01546200  0.16662900  0.33325800  1
  Fe  Fe25  1  0.51546200  0.33325800  0.16662900  1
  Fe  Fe26  1  0.48453800  0.16662900  0.33325800  1
  Fe  Fe27  1  0.51546200  0.83337100  0.66674200  1
  Fe  Fe28  1  0.00000000  0.50000000  0.50000000  1
  Fe  Fe29  1  0.00000000  0.00000000  0.50000000  1
  Fe  Fe30  1  0.50000000  0.50000000  0.50000000  1
  Fe  Fe31  1  0.00000000  0.50000000  0.00000000  1
  Fe  Fe32  1  0.50000000  0.00000000  0.50000000  1
  Fe  Fe33  1  0.50000000  0.50000000  0.00000000  1
  H  H0  1  0.75000000  0.83512000  0.16488000  1
  H  H1  1  0.25000000  0.16488000  0.83512000  1
  H  H2  1  0.75000000  0.32976000  0.16488000  1
  H  H3  1  0.25000000  0.67024000  0.83512000  1
  H  H4  1  0.75000000  0.83512000  0.67024000  1
  H  H5  1  0.25000000  0.16488000  0.32976000  1
loop_
_geom_bond_atom_site_label_1
_geom_bond_atom_site_label_2
_geom_bond_distance
_geom_bond_site_symmetry_2
Fe0 H4 1.818426 1_555
Fe0 Fe30 2.434119 1_555
Fe0 Fe28 2.434119 1_655
Fe0 Fe14 2.728100 1_555
Fe0 Fe13 2.728100 1_555
Fe1 H5 1.818426 1_555
Fe1 Fe28 2.434119 1_555
Fe1 Fe30 2.434119 1_555
Fe1 Fe15 2.728100 1_555
Fe1 Fe12 2.728100 1_555
Fe2 H0 1.818422 1_545
Fe2 Fe29 2.434115 1_655
Fe2 Fe32 2.434115 1_555
Fe3 H5 1.818417 1_565
Fe3 Fe32 2.434120 1_565
Fe4 H1 1.818422 1_565
Fe5 H4 1.818417 1_545
Fe6 H2 1.818417 1_556
Fe7 H3 1.818426 1_555
Fe8 H3 1.818417 1_554
Fe9 H2 1.818426 1_555
Fe10 H1 1.818422 1_554
Fe10 Fe33 2.434115 1_555
Fe10 Fe31 2.434115 1_555
Fe10 Fe12 2.728100 1_555
Fe10 Fe15 2.728100 1_555
Fe11 H0 1.818422 1_556
Fe11 Fe33 2.434115 1_556
Fe11 Fe31 2.434115 1_656
Fe11 Fe14 2.728100 1_555
Fe11 Fe13 2.728100 1_555
Fe12 Fe15 2.379319 1_555
Fe12 Fe33 2.614221 1_555
Fe12 Fe32 2.614221 1_565
Fe12 Fe30 2.614228 1_555
Fe12 Fe21 2.659452 1_555
Fe12 Fe27 2.659459 1_555
Fe12 Fe25 2.659459 1_555
Fe12 Fe3 2.728100 1_555
Fe12 Fe8 2.728100 1_555
Fe12 Fe7 2.728100 1_555
Fe12 Fe4 2.728100 1_555
Fe12 Tb0 2.918621 1_555
Fe13 Fe14 2.379319 1_555
Fe13 Fe32 2.614221 1_555
Fe13 Fe33 2.614221 1_556
Fe13 Fe30 2.614228 1_555
Fe13 Fe19 2.659452 1_555
Fe13 Fe26 2.659459 1_555
Fe13 Fe23 2.659459 1_555
Fe13 Fe6 2.728100 1_555
Fe13 Fe5 2.728100 1_555
Fe13 Fe9 2.728100 1_555
Fe13 Fe2 2.728100 1_555
Fe13 Tb1 2.918621 1_555
Fe14 Fe29 2.614221 1_655
Fe14 Fe31 2.614221 1_656
Fe14 Fe28 2.614228 1_655
Fe14 Fe17 2.659452 1_655
Fe14 Fe20 2.659459 1_655
Fe14 Fe24 2.659459 1_655
Fe14 Fe6 2.728100 1_555
Fe14 Fe5 2.728100 1_555
Fe14 Fe9 2.728100 1_555
Fe14 Fe2 2.728100 1_555
Fe14 Tb1 2.918621 1_655
Fe15 Fe29 2.614221 1_565
Fe15 Fe31 2.614221 1_555
Fe15 Fe28 2.614228 1_555
Fe15 Fe16 2.659452 1_455
Fe15 Fe18 2.659459 1_455
Fe15 Fe22 2.659459 1_455
Fe15 Fe3 2.728100 1_555
Fe15 Fe8 2.728100 1_555
Fe15 Fe7 2.728100 1_555
Fe15 Fe4 2.728100 1_555
Fe15 Tb0 2.918621 1_455
Fe16 H0 1.927269 1_555
Fe16 Fe31 2.470699 1_655
Fe16 Fe29 2.470699 1_665
Fe17 H1 1.927269 1_555
Fe17 Fe31 2.470699 1_556
Fe17 Fe29 2.470699 1_555
Fe18 H2 1.927269 1_555
Fe18 Fe31 2.470699 1_655
Fe18 Fe28 2.470699 1_655
Fe19 H1 1.927269 1_555
Fe19 Fe32 2.470699 1_555
Fe19 Fe33 2.470699 1_556
Fe20 H3 1.927269 1_555
Fe20 Fe31 2.470699 1_556
Fe20 Fe28 2.470699 1_555
Fe21 H0 1.927269 1_555
Fe21 Fe32 2.470699 1_565
Fe21 Fe33 2.470699 1_555
Fe22 H4 1.927269 1_555
Fe22 Fe29 2.470699 1_665
Fe22 Fe28 2.470699 1_655
Fe23 H3 1.927269 1_555
Fe23 Fe33 2.470699 1_556
Fe23 Fe30 2.470699 1_555
Fe24 H5 1.927269 1_555
Fe24 Fe29 2.470699 1_555
Fe24 Fe28 2.470699 1_555
Fe25 H2 1.927269 1_555
Fe25 Fe33 2.470699 1_555
Fe25 Fe30 2.470699 1_555
Fe26 H5 1.927269 1_555
Fe26 Fe32 2.470699 1_555
Fe26 Fe30 2.470699 1_555
Fe27 H4 1.927269 1_555
Fe27 Fe32 2.470699 1_565
Fe27 Fe30 2.470699 1_555
Fe28 Fe7 2.434119 1_555
Fe28 Fe9 2.434119 1_455
Fe28 Tb0 3.210351 1_455
Fe28 Tb1 3.210351 1_555
Fe29 Fe4 2.434115 1_545
Fe29 Fe5 2.434120 1_455
Fe29 Fe3 2.434120 1_545
Fe29 Tb0 3.210345 1_445
Fe29 Tb1 3.210345 1_555
Fe30 Fe7 2.434119 1_555
Fe30 Fe9 2.434119 1_555
Fe30 Tb0 3.210351 1_555
Fe30 Tb1 3.210351 1_555
Fe31 Fe8 2.434120 1_555
Fe31 Fe6 2.434120 1_454
Fe31 Tb0 3.210345 1_455
Fe31 Tb1 3.210345 1_554
Fe32 Fe4 2.434115 1_545
Fe32 Fe5 2.434120 1_555
Fe32 Tb0 3.210345 1_545
Fe32 Tb1 3.210345 1_555
Fe33 Fe8 2.434120 1_555
Fe33 Fe6 2.434120 1_554
Fe33 Tb0 3.210345 1_555
Fe33 Tb1 3.210345 1_554
H0 Tb2 2.440703 1_565
H0 Tb0 2.493594 1_555
H1 Tb3 2.440703 1_556
H1 Tb1 2.493594 1_555
H2 Tb2 2.440704 1_555
H2 Tb0 2.493602 1_555
H3 Tb3 2.440704 1_566
H3 Tb1 2.493602 1_555
H4 Tb2 2.440704 1_566
H4 Tb0 2.493602 1_555
H5 Tb3 2.440704 1_555
H5 Tb1 2.493602 1_555
