# generated using pymatgen
data_KPbBr3O
_symmetry_space_group_name_H-M   'P 1'
_cell_length_a   10.11329587
_cell_length_b   10.11329587
_cell_length_c   8.82718500
_cell_angle_alpha   90.00000000
_cell_angle_beta   90.00000000
_cell_angle_gamma   153.19905786
_symmetry_Int_Tables_number   1
_chemical_formula_structural   KPbBr3O
_chemical_formula_sum   'K2 Pb2 Br6 O2'
_cell_volume   407.08058884
_cell_formula_units_Z   2
loop_
 _symmetry_equiv_pos_site_id
 _symmetry_equiv_pos_as_xyz
  1  'x, y, z'
loop_
 _atom_site_type_symbol
 _atom_site_label
 _atom_site_symmetry_multiplicity
 _atom_site_fract_x
 _atom_site_fract_y
 _atom_site_fract_z
 _atom_site_occupancy
  K  K0  1  0.57235900  0.42764100  0.98072500  1
  K  K1  1  0.42764100  0.57235900  0.48072500  1
  Pb  Pb0  1  0.17681800  0.82318200  0.49790100  1
  Pb  Pb1  1  0.82318200  0.17681800  0.99790100  1
  Br  Br0  1  0.60827800  0.39172200  0.34461900  1
  Br  Br1  1  0.39172200  0.60827800  0.84461900  1
  Br  Br2  1  0.04012500  0.95987500  0.66293600  1
  Br  Br3  1  0.95987500  0.04012500  0.16293600  1
  Br  Br4  1  0.72438900  0.27561100  0.71406800  1
  Br  Br5  1  0.27561100  0.72438900  0.21406800  1
  O  O0  1  0.93930900  0.06069100  0.36295100  1
  O  O1  1  0.06069100  0.93930900  0.86295100  1
loop_
_geom_bond_atom_site_label_1
_geom_bond_atom_site_label_2
_geom_bond_distance
_geom_bond_site_symmetry_2
K0 O1 2.574291 1_655
K0 O1 2.574291 1_545
K1 O0 2.574291 1_565
K1 O0 2.574291 1_455
Br0 Pb0 3.023723 1_545
Br0 Pb0 3.023723 1_655
Br0 K0 3.288989 1_554
Br0 K1 3.751766 1_555
Br1 Pb1 3.023723 1_455
Br1 Pb1 3.023723 1_565
Br1 K1 3.288989 1_555
Br1 K0 3.751766 1_555
Br2 O1 1.811348 1_555
Br2 Pb0 3.058753 1_555
Br3 O0 1.811348 1_555
Br3 Pb1 3.058753 1_554
Br4 Pb0 3.163952 1_545
Br4 Pb0 3.163952 1_655
Br4 Pb1 3.171085 1_555
Br4 K0 3.806384 1_555
Br5 Pb1 3.163952 1_454
Br5 Pb1 3.163952 1_564
Br5 Pb0 3.171085 1_555
Br5 K1 3.806384 1_555
