# generated using pymatgen
data_ZnNiSnP2O9
_symmetry_space_group_name_H-M   'P 1'
_cell_length_a   6.37696300
_cell_length_b   7.69165600
_cell_length_c   14.64049300
_cell_angle_alpha   90.00000000
_cell_angle_beta   90.00000000
_cell_angle_gamma   90.00000000
_symmetry_Int_Tables_number   1
_chemical_formula_structural   ZnNiSnP2O9
_chemical_formula_sum   'Zn4 Ni4 Sn4 P8 O36'
_cell_volume   718.10748111
_cell_formula_units_Z   4
loop_
 _symmetry_equiv_pos_site_id
 _symmetry_equiv_pos_as_xyz
  1  'x, y, z'
loop_
 _atom_site_type_symbol
 _atom_site_label
 _atom_site_symmetry_multiplicity
 _atom_site_fract_x
 _atom_site_fract_y
 _atom_site_fract_z
 _atom_site_occupancy
  Zn  Zn0  1  0.75000000  0.47160800  0.81970700  1
  Zn  Zn1  1  0.75000000  0.02839200  0.31970700  1
  Zn  Zn2  1  0.25000000  0.52839200  0.18029300  1
  Zn  Zn3  1  0.25000000  0.97160800  0.68029300  1
  Ni  Ni0  1  0.50000000  0.50000000  0.00000000  1
  Ni  Ni1  1  0.50000000  0.00000000  0.50000000  1
  Ni  Ni2  1  0.00000000  0.00000000  0.50000000  1
  Ni  Ni3  1  0.00000000  0.50000000  0.00000000  1
  Sn  Sn0  1  0.75000000  0.86081400  0.88304000  1
  Sn  Sn1  1  0.25000000  0.13918600  0.11696000  1
  Sn  Sn2  1  0.25000000  0.36081400  0.61696000  1
  Sn  Sn3  1  0.75000000  0.63918600  0.38304000  1
  P  P0  1  0.25000000  0.85309000  0.93010000  1
  P  P1  1  0.75000000  0.14691000  0.06990000  1
  P  P2  1  0.75000000  0.35309000  0.56990000  1
  P  P3  1  0.25000000  0.64691000  0.43010000  1
  P  P4  1  0.75000000  0.87718900  0.69257700  1
  P  P5  1  0.25000000  0.12281100  0.30742300  1
  P  P6  1  0.25000000  0.37718900  0.80742300  1
  P  P7  1  0.75000000  0.62281100  0.19257700  1
  O  O0  1  0.04606600  0.11026500  0.36583300  1
  O  O1  1  0.54606600  0.88973500  0.63416700  1
  O  O2  1  0.95393400  0.61026500  0.13416700  1
  O  O3  1  0.45393400  0.38973500  0.86583300  1
  O  O4  1  0.95393400  0.88973500  0.63416700  1
  O  O5  1  0.45393400  0.11026500  0.36583300  1
  O  O6  1  0.04606600  0.38973500  0.86583300  1
  O  O7  1  0.54606600  0.61026500  0.13416700  1
  O  O8  1  0.25000000  0.82584900  0.47656800  1
  O  O9  1  0.75000000  0.17415100  0.52343200  1
  O  O10  1  0.75000000  0.32584900  0.02343200  1
  O  O11  1  0.25000000  0.67415100  0.97656800  1
  O  O12  1  0.75000000  0.62033200  0.93723300  1
  O  O13  1  0.25000000  0.37966800  0.06276700  1
  O  O14  1  0.25000000  0.12033200  0.56276700  1
  O  O15  1  0.75000000  0.87966800  0.43723300  1
  O  O16  1  0.75000000  0.70557500  0.75144500  1
  O  O17  1  0.25000000  0.29442500  0.24855500  1
  O  O18  1  0.25000000  0.20557500  0.74855500  1
  O  O19  1  0.75000000  0.79442500  0.25144500  1
  O  O20  1  0.43626000  0.62503200  0.36377000  1
  O  O21  1  0.93626000  0.37496800  0.63623000  1
  O  O22  1  0.56374000  0.12503200  0.13623000  1
  O  O23  1  0.06374000  0.87496800  0.86377000  1
  O  O24  1  0.56374000  0.37496800  0.63623000  1
  O  O25  1  0.06374000  0.62503200  0.36377000  1
  O  O26  1  0.43626000  0.87496800  0.86377000  1
  O  O27  1  0.93626000  0.12503200  0.13623000  1
  O  O28  1  0.75000000  0.47731800  0.26781000  1
  O  O29  1  0.25000000  0.52268200  0.73219000  1
  O  O30  1  0.25000000  0.97731800  0.23219000  1
  O  O31  1  0.75000000  0.02268200  0.76781000  1
  O  O32  1  0.75000000  0.50232600  0.49993100  1
  O  O33  1  0.25000000  0.49767400  0.50006900  1
  O  O34  1  0.25000000  0.00232600  0.00006900  1
  O  O35  1  0.75000000  0.99767400  0.99993100  1
loop_
_geom_bond_atom_site_label_1
_geom_bond_atom_site_label_2
_geom_bond_distance
_geom_bond_site_symmetry_2
Ni0 O12 2.059782 1_554
Ni0 O13 2.059782 1_555
Ni0 O11 2.110350 1_554
Ni0 O10 2.110350 1_555
Ni0 O7 2.159621 1_555
Ni0 O3 2.159621 1_554
Ni1 O14 2.059782 1_555
Ni1 O15 2.059782 1_545
Ni1 O8 2.110350 1_545
Ni1 O9 2.110350 1_555
Ni1 O5 2.159621 1_555
Ni1 O1 2.159621 1_545
Ni2 O14 2.059782 1_555
Ni2 O15 2.059782 1_445
Ni2 O8 2.110350 1_545
Ni2 O9 2.110350 1_455
Ni2 O0 2.159621 1_555
Ni2 O4 2.159621 1_445
Ni3 O12 2.059782 1_454
Ni3 O13 2.059782 1_555
Ni3 O11 2.110350 1_554
Ni3 O10 2.110350 1_455
Ni3 O2 2.159621 1_455
Ni3 O6 2.159621 1_554
O0 P5 1.559437 1_555
O0 Zn1 2.101705 1_455
O1 P4 1.559437 1_555
O1 Zn3 2.101705 1_555
O2 P7 1.559437 1_555
O2 Zn2 2.101705 1_655
O3 P6 1.559437 1_555
O3 Zn0 2.101705 1_555
O4 P4 1.559437 1_555
O4 Zn3 2.101705 1_655
O5 P5 1.559437 1_555
O5 Zn1 2.101705 1_555
O6 P6 1.559437 1_555
O6 Zn0 2.101705 1_455
O7 P7 1.559437 1_555
O7 Zn2 2.101705 1_555
O8 P3 1.535295 1_555
O9 P2 1.535295 1_555
O10 P1 1.535295 1_555
O11 P0 1.535295 1_555
O12 Sn0 2.012687 1_555
O12 Zn0 2.066200 1_555
O13 Sn1 2.012687 1_555
O13 Zn2 2.066200 1_555
O14 Sn2 2.012687 1_555
O14 Zn3 2.066200 1_545
O15 Sn3 2.012687 1_555
O15 Zn1 2.066200 1_565
O16 P4 1.576447 1_555
O16 Zn0 2.058474 1_555
O16 Sn0 2.266626 1_555
O17 P5 1.576447 1_555
O17 Zn2 2.058474 1_555
O17 Sn1 2.266626 1_555
O18 P6 1.576447 1_555
O18 Zn3 2.058474 1_545
O18 Sn2 2.266626 1_555
O19 P7 1.576447 1_555
O19 Zn1 2.058474 1_565
O19 Sn3 2.266626 1_555
O20 P3 1.543426 1_555
O20 Sn3 2.023433 1_555
O21 P2 1.543426 1_555
O21 Sn2 2.023433 1_655
O22 P1 1.543426 1_555
O22 Sn1 2.023433 1_555
O23 P0 1.543426 1_555
O23 Sn0 2.023433 1_455
O24 P2 1.543426 1_555
O24 Sn2 2.023433 1_555
O25 P3 1.543426 1_555
O25 Sn3 2.023433 1_455
O26 P0 1.543426 1_555
O26 Sn0 2.023433 1_555
O27 P1 1.543426 1_555
O27 Sn1 2.023433 1_655
O28 P7 1.570202 1_555
O28 Sn3 2.096701 1_555
O29 P6 1.570202 1_555
O29 Sn2 2.096701 1_555
O30 P5 1.570202 1_565
O30 Sn1 2.096701 1_565
O31 P4 1.570202 1_545
O31 Sn0 2.096701 1_545
O32 P2 1.538495 1_555
O32 Sn3 2.009185 1_555
O33 P3 1.538495 1_555
O33 Sn2 2.009185 1_555
O34 P0 1.538495 1_544
O34 Sn1 2.009185 1_555
O35 P1 1.538495 1_566
O35 Sn0 2.009185 1_555
