# generated using pymatgen
data_Ta3W
_symmetry_space_group_name_H-M   'P 1'
_cell_length_a   4.62048065
_cell_length_b   4.62048065
_cell_length_c   4.62048065
_cell_angle_alpha   60.00000000
_cell_angle_beta   60.00000000
_cell_angle_gamma   60.00000000
_symmetry_Int_Tables_number   1
_chemical_formula_structural   Ta3W
_chemical_formula_sum   'Ta3 W1'
_cell_volume   69.75036260
_cell_formula_units_Z   1
loop_
 _symmetry_equiv_pos_site_id
 _symmetry_equiv_pos_as_xyz
  1  'x, y, z'
loop_
 _atom_site_type_symbol
 _atom_site_label
 _atom_site_symmetry_multiplicity
 _atom_site_fract_x
 _atom_site_fract_y
 _atom_site_fract_z
 _atom_site_occupancy
  Ta  Ta0  1  0.00000000  0.00000000  0.00000000  1
  Ta  Ta1  1  0.50000100  0.50000100  0.50000100  1
  Ta  Ta2  1  0.25000100  0.25000100  0.25000100  1
  W  W0  1  0.75000000  0.75000000  0.75000000  1
loop_
_geom_bond_atom_site_label_1
_geom_bond_atom_site_label_2
_geom_bond_distance
_geom_bond_site_symmetry_2
Ta0 Ta2 2.829451 1_455
Ta0 Ta2 2.829451 1_545
Ta0 Ta2 2.829451 1_554
Ta0 W0 2.829455 1_454
Ta0 W0 2.829455 1_544
Ta0 W0 2.829455 1_444
Ta0 W0 2.829455 1_445
Ta0 Ta2 2.829466 1_555
Ta1 W0 2.829444 1_555
Ta1 Ta2 2.829455 1_655
Ta1 Ta2 2.829455 1_565
Ta1 Ta2 2.829455 1_556
Ta1 Ta2 2.829455 1_555
Ta1 W0 2.829459 1_554
Ta1 W0 2.829459 1_455
Ta1 W0 2.829459 1_545
Ta2 W0 3.267167 1_545
Ta2 W0 3.267167 1_554
Ta2 W0 3.267167 1_455
Ta2 W0 3.267180 1_544
Ta2 W0 3.267180 1_454
Ta2 W0 3.267180 1_445
