# generated using pymatgen
data_Tl2Co3NiSe4
_symmetry_space_group_name_H-M   'P 1'
_cell_length_a   7.39066149
_cell_length_b   7.39066149
_cell_length_c   5.44867500
_cell_angle_alpha   90.00000000
_cell_angle_beta   90.00000000
_cell_angle_gamma   136.71402189
_symmetry_Int_Tables_number   1
_chemical_formula_structural   Tl2Co3NiSe4
_chemical_formula_sum   'Tl2 Co3 Ni1 Se4'
_cell_volume   204.05808889
_cell_formula_units_Z   1
loop_
 _symmetry_equiv_pos_site_id
 _symmetry_equiv_pos_as_xyz
  1  'x, y, z'
loop_
 _atom_site_type_symbol
 _atom_site_label
 _atom_site_symmetry_multiplicity
 _atom_site_fract_x
 _atom_site_fract_y
 _atom_site_fract_z
 _atom_site_occupancy
  Tl  Tl0  1  0.50000000  0.00000000  0.25087300  1
  Tl  Tl1  1  0.00000000  0.50000000  0.74912700  1
  Co  Co0  1  0.50000000  0.50000000  0.50000000  1
  Co  Co1  1  0.50000000  0.50000000  0.00000000  1
  Co  Co2  1  0.00000000  0.00000000  0.50000000  1
  Ni  Ni0  1  0.00000000  0.00000000  0.00000000  1
  Se  Se0  1  0.64738900  0.84447400  0.74580900  1
  Se  Se1  1  0.15552600  0.35261100  0.25419100  1
  Se  Se2  1  0.84447400  0.64738900  0.25419100  1
  Se  Se3  1  0.35261100  0.15552600  0.74580900  1
loop_
_geom_bond_atom_site_label_1
_geom_bond_atom_site_label_2
_geom_bond_distance
_geom_bond_site_symmetry_2
Co0 Se0 2.329042 1_555
Co0 Se3 2.329042 1_555
Co0 Se2 2.329042 1_555
Co0 Se1 2.329042 1_555
Co1 Se2 2.355602 1_555
Co1 Se1 2.355602 1_555
Co1 Se3 2.355602 1_554
Co1 Se0 2.355602 1_554
Co2 Se0 2.354858 1_445
Co2 Se3 2.354858 1_555
Co2 Se2 2.354858 1_445
Co2 Se1 2.354858 1_555
Ni0 Se2 2.381130 1_445
Ni0 Se1 2.381130 1_555
Ni0 Se3 2.381130 1_554
Ni0 Se0 2.381130 1_444
