# generated using pymatgen
data_Ti(FeO2)3
_symmetry_space_group_name_H-M   'P 1'
_cell_length_a   5.51363013
_cell_length_b   5.51363013
_cell_length_c   5.51363002
_cell_angle_alpha   55.90697758
_cell_angle_beta   55.90697758
_cell_angle_gamma   55.90698264
_symmetry_Int_Tables_number   1
_chemical_formula_structural   Ti(FeO2)3
_chemical_formula_sum   'Ti1 Fe3 O6'
_cell_volume   107.27838420
_cell_formula_units_Z   1
loop_
 _symmetry_equiv_pos_site_id
 _symmetry_equiv_pos_as_xyz
  1  'x, y, z'
loop_
 _atom_site_type_symbol
 _atom_site_label
 _atom_site_symmetry_multiplicity
 _atom_site_fract_x
 _atom_site_fract_y
 _atom_site_fract_z
 _atom_site_occupancy
  Ti  Ti0  1  0.14577000  0.14577000  0.14577000  1
  Fe  Fe0  1  0.64341600  0.64341600  0.64341600  1
  Fe  Fe1  1  0.35236500  0.35236500  0.35236500  1
  Fe  Fe2  1  0.85232700  0.85232700  0.85232700  1
  O  O0  1  0.76097100  0.06889000  0.42986300  1
  O  O1  1  0.42986300  0.76097100  0.06889000  1
  O  O2  1  0.06889000  0.42986300  0.76097100  1
  O  O3  1  0.23105800  0.96432400  0.55101600  1
  O  O4  1  0.55101600  0.23105800  0.96432400  1
  O  O5  1  0.96432400  0.55101600  0.23105800  1
loop_
_geom_bond_atom_site_label_1
_geom_bond_atom_site_label_2
_geom_bond_distance
_geom_bond_site_symmetry_2
Fe0 O4 2.082671 1_555
Fe0 O5 2.082671 1_555
Fe0 O3 2.082671 1_555
Fe0 O0 2.249929 1_565
Fe0 O1 2.249929 1_556
Fe0 O2 2.249929 1_655
Fe1 O1 2.020883 1_555
Fe1 O2 2.020883 1_555
Fe1 O0 2.020884 1_555
Fe1 O3 2.092940 1_545
Fe1 O4 2.092940 1_554
Fe1 O5 2.092941 1_455
Fe2 O3 1.976903 1_655
Fe2 O5 1.976903 1_556
Fe2 O4 1.976903 1_565
Fe2 O1 2.151317 1_556
Fe2 O0 2.151317 1_565
Fe2 O2 2.151317 1_655
O0 Ti0 1.916450 1_655
O1 Ti0 1.916450 1_565
O2 Ti0 1.916450 1_556
O3 Ti0 2.087814 1_565
O4 Ti0 2.087814 1_556
O5 Ti0 2.087814 1_655
