# generated using pymatgen
data_KNb3VCl11
_symmetry_space_group_name_H-M   'P 1'
_cell_length_a   6.88226700
_cell_length_b   13.18747200
_cell_length_c   17.24811900
_cell_angle_alpha   90.00000000
_cell_angle_beta   90.00000000
_cell_angle_gamma   90.00000000
_symmetry_Int_Tables_number   1
_chemical_formula_structural   KNb3VCl11
_chemical_formula_sum   'K4 Nb12 V4 Cl44'
_cell_volume   1565.43416394
_cell_formula_units_Z   4
loop_
 _symmetry_equiv_pos_site_id
 _symmetry_equiv_pos_as_xyz
  1  'x, y, z'
loop_
 _atom_site_type_symbol
 _atom_site_label
 _atom_site_symmetry_multiplicity
 _atom_site_fract_x
 _atom_site_fract_y
 _atom_site_fract_z
 _atom_site_occupancy
  K  K0  1  0.25000000  0.99351800  0.26181700  1
  K  K1  1  0.75000000  0.00648200  0.73818300  1
  K  K2  1  0.75000000  0.50648200  0.76181700  1
  K  K3  1  0.25000000  0.49351800  0.23818300  1
  Nb  Nb0  1  0.04358800  0.74825600  0.51220000  1
  Nb  Nb1  1  0.95641200  0.25174400  0.48780000  1
  Nb  Nb2  1  0.95641200  0.75174400  0.01220000  1
  Nb  Nb3  1  0.54358800  0.25174400  0.48780000  1
  Nb  Nb4  1  0.04358800  0.24825600  0.98780000  1
  Nb  Nb5  1  0.45641200  0.74825600  0.51220000  1
  Nb  Nb6  1  0.45641200  0.24825600  0.98780000  1
  Nb  Nb7  1  0.54358800  0.75174400  0.01220000  1
  Nb  Nb8  1  0.25000000  0.68949600  0.64788900  1
  Nb  Nb9  1  0.75000000  0.31050400  0.35211100  1
  Nb  Nb10  1  0.75000000  0.81050400  0.14788900  1
  Nb  Nb11  1  0.25000000  0.18949600  0.85211100  1
  V  V0  1  0.25000000  0.67934800  0.83533000  1
  V  V1  1  0.75000000  0.32065200  0.16467000  1
  V  V2  1  0.75000000  0.82065200  0.33533000  1
  V  V3  1  0.25000000  0.17934800  0.66467000  1
  Cl  Cl0  1  0.25000000  0.82467800  0.92790800  1
  Cl  Cl1  1  0.75000000  0.17532200  0.07209200  1
  Cl  Cl2  1  0.75000000  0.67532200  0.42790800  1
  Cl  Cl3  1  0.25000000  0.32467800  0.57209200  1
  Cl  Cl4  1  0.25000000  0.86105400  0.59014400  1
  Cl  Cl5  1  0.75000000  0.13894600  0.40985600  1
  Cl  Cl6  1  0.75000000  0.63894600  0.09014400  1
  Cl  Cl7  1  0.25000000  0.36105400  0.90985600  1
  Cl  Cl8  1  0.00858500  0.75539200  0.74674800  1
  Cl  Cl9  1  0.99141500  0.24460800  0.25325200  1
  Cl  Cl10  1  0.99141500  0.74460800  0.24674800  1
  Cl  Cl11  1  0.50858500  0.24460800  0.25325200  1
  Cl  Cl12  1  0.00858500  0.25539200  0.75325200  1
  Cl  Cl13  1  0.49141500  0.75539200  0.74674800  1
  Cl  Cl14  1  0.49141500  0.25539200  0.75325200  1
  Cl  Cl15  1  0.50858500  0.74460800  0.24674800  1
  Cl  Cl16  1  0.50314100  0.60474100  0.91837700  1
  Cl  Cl17  1  0.49685900  0.39525900  0.08162300  1
  Cl  Cl18  1  0.49685900  0.89525900  0.41837700  1
  Cl  Cl19  1  0.00314100  0.39525900  0.08162300  1
  Cl  Cl20  1  0.50314100  0.10474100  0.58162300  1
  Cl  Cl21  1  0.99685900  0.60474100  0.91837700  1
  Cl  Cl22  1  0.99685900  0.10474100  0.58162300  1
  Cl  Cl23  1  0.00314100  0.89525900  0.41837700  1
  Cl  Cl24  1  0.25000000  0.53506500  0.74567900  1
  Cl  Cl25  1  0.75000000  0.46493500  0.25432100  1
  Cl  Cl26  1  0.75000000  0.96493500  0.24567900  1
  Cl  Cl27  1  0.25000000  0.03506500  0.75432100  1
  Cl  Cl28  1  0.00344300  0.58633000  0.58213900  1
  Cl  Cl29  1  0.99655700  0.41367000  0.41786100  1
  Cl  Cl30  1  0.99655700  0.91367000  0.08213900  1
  Cl  Cl31  1  0.50344300  0.41367000  0.41786100  1
  Cl  Cl32  1  0.00344300  0.08633000  0.91786100  1
  Cl  Cl33  1  0.49655700  0.58633000  0.58213900  1
  Cl  Cl34  1  0.49655700  0.08633000  0.91786100  1
  Cl  Cl35  1  0.50344300  0.91367000  0.08213900  1
  Cl  Cl36  1  0.25000000  0.15708100  0.08115300  1
  Cl  Cl37  1  0.75000000  0.84291900  0.91884700  1
  Cl  Cl38  1  0.75000000  0.34291900  0.58115300  1
  Cl  Cl39  1  0.25000000  0.65708100  0.41884700  1
  Cl  Cl40  1  0.25000000  0.67375900  0.08363400  1
  Cl  Cl41  1  0.75000000  0.32624100  0.91636600  1
  Cl  Cl42  1  0.75000000  0.82624100  0.58363400  1
  Cl  Cl43  1  0.25000000  0.17375900  0.41636600  1
loop_
_geom_bond_atom_site_label_1
_geom_bond_atom_site_label_2
_geom_bond_distance
_geom_bond_site_symmetry_2
Cl0 V0 2.494567 1_555
Cl0 Nb7 2.668610 1_556
Cl0 Nb2 2.668610 1_456
Cl1 V1 2.494567 1_555
Cl1 Nb4 2.668610 1_654
Cl1 Nb6 2.668610 1_554
Cl2 V2 2.494567 1_555
Cl2 Nb0 2.668610 1_655
Cl2 Nb5 2.668610 1_555
Cl3 V3 2.494567 1_555
Cl3 Nb3 2.668610 1_555
Cl3 Nb1 2.668610 1_455
Cl4 Nb5 2.457265 1_555
Cl4 Nb0 2.457265 1_555
Cl4 Nb8 2.471948 1_555
Cl5 Nb1 2.457265 1_555
Cl5 Nb3 2.457265 1_555
Cl5 Nb9 2.471948 1_555
Cl6 Nb2 2.457265 1_555
Cl6 Nb7 2.457265 1_555
Cl6 Nb10 2.471948 1_555
Cl7 Nb6 2.457265 1_555
Cl7 Nb4 2.457265 1_555
Cl7 Nb11 2.471948 1_555
Cl8 V0 2.469936 1_555
Cl8 Nb8 2.534396 1_555
Cl8 K2 3.742924 1_455
Cl8 K1 3.762088 1_465
Cl9 V1 2.469936 1_555
Cl9 Nb9 2.534396 1_555
Cl9 K3 3.742924 1_655
Cl9 K0 3.762088 1_645
Cl10 V2 2.469936 1_555
Cl10 Nb10 2.534396 1_555
Cl10 K0 3.742924 1_655
Cl10 K3 3.762088 1_655
Cl11 V1 2.469936 1_555
Cl11 Nb9 2.534396 1_555
Cl11 K3 3.742924 1_555
Cl11 K0 3.762088 1_545
Cl12 V3 2.469936 1_555
Cl12 Nb11 2.534396 1_555
Cl12 K1 3.742924 1_455
Cl12 K2 3.762088 1_455
Cl13 V0 2.469936 1_555
Cl13 Nb8 2.534396 1_555
Cl13 K2 3.742924 1_555
Cl13 K1 3.762088 1_565
Cl14 V3 2.469936 1_555
Cl14 Nb11 2.534396 1_555
Cl14 K1 3.742924 1_555
Cl14 K2 3.762088 1_555
Cl15 V2 2.469936 1_555
Cl15 Nb10 2.534396 1_555
Cl15 K0 3.742924 1_555
Cl15 K3 3.762088 1_555
Cl16 V0 2.460692 1_555
Cl16 Nb7 2.540561 1_556
Cl16 K2 3.443468 1_555
Cl17 V1 2.460692 1_555
Cl17 Nb6 2.540561 1_554
Cl17 K3 3.443468 1_555
Cl18 V2 2.460692 1_555
Cl18 Nb5 2.540561 1_555
Cl18 K0 3.443468 1_555
Cl19 V1 2.460692 1_455
Cl19 Nb4 2.540561 1_554
Cl19 K3 3.443468 1_555
Cl20 V3 2.460692 1_555
Cl20 Nb3 2.540561 1_555
Cl20 K1 3.443468 1_555
Cl21 V0 2.460692 1_655
Cl21 Nb2 2.540561 1_556
Cl21 K2 3.443468 1_555
Cl22 V3 2.460692 1_655
Cl22 Nb1 2.540561 1_555
Cl22 K1 3.443468 1_555
Cl23 V2 2.460692 1_455
Cl23 Nb0 2.540561 1_555
Cl23 K0 3.443468 1_555
Cl24 V0 2.451826 1_555
Cl24 Nb8 2.644332 1_555
Cl24 K2 3.472889 1_555
Cl24 K2 3.472889 1_455
Cl25 V1 2.451826 1_555
Cl25 Nb9 2.644332 1_555
Cl25 K3 3.472889 1_555
Cl25 K3 3.472889 1_655
Cl26 V2 2.451826 1_555
Cl26 Nb10 2.644332 1_555
Cl26 K0 3.472889 1_655
Cl26 K0 3.472889 1_555
Cl27 V3 2.451826 1_555
Cl27 Nb11 2.644332 1_555
Cl27 K1 3.472889 1_555
Cl27 K1 3.472889 1_455
Cl28 Nb8 2.452841 1_555
Cl28 Nb0 2.468085 1_555
Cl28 K2 3.708870 1_455
Cl29 Nb9 2.452841 1_555
Cl29 Nb1 2.468085 1_555
Cl29 K3 3.708870 1_655
Cl30 Nb10 2.452841 1_555
Cl30 Nb2 2.468085 1_555
Cl30 K0 3.708870 1_655
Cl31 Nb9 2.452841 1_555
Cl31 Nb3 2.468085 1_555
Cl31 K3 3.708870 1_555
Cl32 Nb11 2.452841 1_555
Cl32 Nb4 2.468085 1_555
Cl32 K1 3.708870 1_455
Cl33 Nb8 2.452841 1_555
Cl33 Nb5 2.468085 1_555
Cl33 K2 3.708870 1_555
Cl34 Nb11 2.452841 1_555
Cl34 Nb6 2.468085 1_555
Cl34 K1 3.708870 1_555
Cl35 Nb10 2.452841 1_555
Cl35 Nb7 2.468085 1_555
Cl35 K0 3.708870 1_555
Cl36 Nb6 2.460969 1_554
Cl36 Nb4 2.460969 1_554
Cl36 K0 3.789821 1_545
Cl37 Nb2 2.460969 1_556
Cl37 Nb7 2.460969 1_556
Cl37 K1 3.789821 1_565
Cl38 Nb1 2.460969 1_555
Cl38 Nb3 2.460969 1_555
Cl38 K2 3.789821 1_555
Cl39 Nb5 2.460969 1_555
Cl39 Nb0 2.460969 1_555
Cl39 K3 3.789821 1_555
Cl40 Nb7 2.580380 1_555
Cl40 Nb2 2.580380 1_455
Cl40 K3 3.571500 1_555
Cl41 Nb4 2.580380 1_655
Cl41 Nb6 2.580380 1_555
Cl41 K2 3.571500 1_555
Cl42 Nb0 2.580380 1_655
Cl42 Nb5 2.580380 1_555
Cl42 K1 3.571500 1_565
Cl43 Nb3 2.580380 1_555
Cl43 Nb1 2.580380 1_455
Cl43 K0 3.571500 1_545
