# generated using pymatgen
data_Mn3Os
_symmetry_space_group_name_H-M   'P 1'
_cell_length_a   5.09774493
_cell_length_b   5.09774493
_cell_length_c   4.05417790
_cell_angle_alpha   90.00000000
_cell_angle_beta   90.00000000
_cell_angle_gamma   119.99998790
_symmetry_Int_Tables_number   1
_chemical_formula_structural   Mn3Os
_chemical_formula_sum   'Mn6 Os2'
_cell_volume   91.24092697
_cell_formula_units_Z   2
loop_
 _symmetry_equiv_pos_site_id
 _symmetry_equiv_pos_as_xyz
  1  'x, y, z'
loop_
 _atom_site_type_symbol
 _atom_site_label
 _atom_site_symmetry_multiplicity
 _atom_site_fract_x
 _atom_site_fract_y
 _atom_site_fract_z
 _atom_site_occupancy
  Mn  Mn0  1  0.83769067  0.16230933  0.75000000  1
  Mn  Mn1  1  0.32461966  0.16230933  0.75000000  1
  Mn  Mn2  1  0.83769067  0.67538034  0.75000000  1
  Mn  Mn3  1  0.16230933  0.83769067  0.25000000  1
  Mn  Mn4  1  0.67538034  0.83769067  0.25000000  1
  Mn  Mn5  1  0.16230933  0.32461966  0.25000000  1
  Os  Os0  1  0.66666700  0.33333300  0.25000000  1
  Os  Os1  1  0.33333300  0.66666700  0.75000000  1
loop_
_geom_bond_atom_site_label_1
_geom_bond_atom_site_label_2
_geom_bond_distance
_geom_bond_site_symmetry_2
Mn0 Mn1 2.482240 1_655
Mn0 Mn2 2.482240 1_545
Mn0 Mn5 2.482523 1_655
Mn0 Mn5 2.482523 1_656
Mn0 Mn4 2.482523 1_545
Mn0 Mn4 2.482523 1_546
Mn0 Os0 2.527722 1_556
Mn0 Os0 2.527722 1_555
Mn0 Os1 2.549163 1_545
Mn0 Os1 2.549163 1_655
Mn0 Mn1 2.615505 1_555
Mn0 Mn2 2.615505 1_555
Mn1 Mn2 2.482240 1_445
Mn1 Mn3 2.482523 1_545
Mn1 Mn3 2.482523 1_546
Mn1 Mn5 2.482528 1_555
Mn1 Mn5 2.482528 1_556
Mn1 Os0 2.527722 1_556
Mn1 Os0 2.527722 1_555
Mn1 Os1 2.549158 1_545
Mn1 Os1 2.549168 1_555
Mn1 Mn2 2.615506 1_555
Mn2 Mn3 2.482523 1_655
Mn2 Mn3 2.482523 1_656
Mn2 Mn4 2.482528 1_556
Mn2 Mn4 2.482528 1_555
Mn2 Os0 2.527722 1_556
Mn2 Os0 2.527722 1_555
Mn2 Os1 2.549158 1_655
Mn2 Os1 2.549168 1_555
Mn3 Mn4 2.482240 1_455
Mn3 Mn5 2.482240 1_565
Mn3 Os1 2.527722 1_554
Mn3 Os1 2.527722 1_555
Mn3 Os0 2.549163 1_455
Mn3 Os0 2.549163 1_565
Mn3 Mn4 2.615505 1_555
Mn3 Mn5 2.615505 1_555
Mn4 Mn5 2.482240 1_665
Mn4 Os1 2.527722 1_554
Mn4 Os1 2.527722 1_555
Mn4 Os0 2.549158 1_565
Mn4 Os0 2.549168 1_555
Mn4 Mn5 2.615506 1_555
Mn5 Os1 2.527722 1_554
Mn5 Os1 2.527722 1_555
Mn5 Os0 2.549158 1_455
Mn5 Os0 2.549168 1_555
