# generated using pymatgen
data_LiNbFeO4
_symmetry_space_group_name_H-M   'P 1'
_cell_length_a   6.29164380
_cell_length_b   8.85946789
_cell_length_c   6.11071439
_cell_angle_alpha   89.98169001
_cell_angle_beta   89.93157306
_cell_angle_gamma   89.99909103
_symmetry_Int_Tables_number   1
_chemical_formula_structural   LiNbFeO4
_chemical_formula_sum   'Li4 Nb4 Fe4 O16'
_cell_volume   340.61472523
_cell_formula_units_Z   4
loop_
 _symmetry_equiv_pos_site_id
 _symmetry_equiv_pos_as_xyz
  1  'x, y, z'
loop_
 _atom_site_type_symbol
 _atom_site_label
 _atom_site_symmetry_multiplicity
 _atom_site_fract_x
 _atom_site_fract_y
 _atom_site_fract_z
 _atom_site_occupancy
  Li  Li0  1  0.24000300  0.14521500  0.00050300  1
  Li  Li1  1  0.75993800  0.64512100  0.49705100  1
  Li  Li2  1  0.74002900  0.85494600  0.00295100  1
  Li  Li3  1  0.25992800  0.35482100  0.49987700  1
  Nb  Nb0  1  0.53659800  0.49831800  0.99533100  1
  Nb  Nb1  1  0.96339100  0.00156300  0.50420000  1
  Nb  Nb2  1  0.03658700  0.50168400  0.00254000  1
  Nb  Nb3  1  0.46336700  0.99825700  0.49808700  1
  Fe  Fe0  1  0.24986500  0.75000400  0.74973400  1
  Fe  Fe1  1  0.75032600  0.24998000  0.74986300  1
  Fe  Fe2  1  0.74961900  0.25006600  0.25026900  1
  Fe  Fe3  1  0.25025800  0.75006900  0.24950200  1
  O  O0  1  0.49725500  0.28123000  0.99982600  1
  O  O1  1  0.03587200  0.77858600  0.49994100  1
  O  O2  1  0.96415800  0.27868500  0.99997800  1
  O  O3  1  0.50282000  0.78118600  0.49964700  1
  O  O4  1  0.99712800  0.71882700  0.00018500  1
  O  O5  1  0.53570400  0.22134800  0.50044400  1
  O  O6  1  0.46428800  0.72140600  0.99951400  1
  O  O7  1  0.00284700  0.21869100  0.50013100  1
  O  O8  1  0.74870200  0.50443400  0.22397700  1
  O  O9  1  0.25075800  0.00420800  0.72663600  1
  O  O10  1  0.74900700  0.50408400  0.76965600  1
  O  O11  1  0.25151100  0.00422900  0.27233300  1
  O  O12  1  0.24918200  0.49569700  0.77375200  1
  O  O13  1  0.75119200  0.99565900  0.27591500  1
  O  O14  1  0.24860700  0.49589300  0.22798600  1
  O  O15  1  0.75106200  0.99579300  0.73017200  1
loop_
_geom_bond_atom_site_label_1
_geom_bond_atom_site_label_2
_geom_bond_distance
_geom_bond_site_symmetry_2
Li0 O0 2.017870 1_554
Li0 O11 2.079309 1_555
Li0 O9 2.089722 1_554
Li0 O2 2.100053 1_454
Li1 O3 2.017479 1_555
Li1 O10 2.083108 1_555
Li1 O8 2.084379 1_555
Li1 O1 2.100612 1_655
Li2 O4 2.017676 1_555
Li2 O15 2.082970 1_554
Li2 O13 2.083963 1_555
Li2 O6 2.100017 1_554
Li3 O7 2.017615 1_555
Li3 O14 2.080022 1_555
Li3 O12 2.089066 1_555
Li3 O5 2.099710 1_555
Nb0 O10 1.919863 1_555
Nb0 O8 1.934018 1_556
Nb0 O0 1.939333 1_555
Nb0 O6 2.028282 1_555
Nb0 O12 2.260478 1_555
Nb0 O14 2.301869 1_556
Nb1 O15 1.920817 1_545
Nb1 O13 1.932784 1_545
Nb1 O7 1.939742 1_655
Nb1 O1 2.027571 1_645
Nb1 O9 2.263379 1_655
Nb1 O11 2.299563 1_655
Nb2 O14 1.919450 1_555
Nb2 O12 1.934440 1_554
Nb2 O4 1.939771 1_455
Nb2 O2 2.027603 1_454
Nb2 O8 2.259744 1_455
Nb2 O10 2.303369 1_454
Nb3 O11 1.920129 1_565
Nb3 O9 1.933438 1_565
Nb3 O3 1.939105 1_555
Nb3 O5 2.028257 1_565
Nb3 O13 2.262115 1_555
Nb3 O15 2.300926 1_555
Fe0 O1 2.052174 1_555
Fe0 O6 2.053910 1_555
Fe0 O3 2.222287 1_555
Fe0 O4 2.222829 1_456
Fe0 O9 2.256492 1_565
Fe0 O12 2.257757 1_555
Fe1 O2 2.053235 1_555
Fe1 O5 2.053257 1_555
Fe1 O7 2.219078 1_655
Fe1 O0 2.222479 1_555
Fe1 O10 2.254526 1_555
Fe1 O15 2.255217 1_545
Fe2 O5 2.051350 1_555
Fe2 O2 2.054343 1_554
Fe2 O0 2.223711 1_554
Fe2 O7 2.225391 1_655
Fe2 O8 2.259241 1_555
Fe2 O13 2.259325 1_545
Fe3 O6 2.051029 1_554
Fe3 O1 2.054388 1_555
Fe3 O4 2.222644 1_455
Fe3 O3 2.223423 1_555
Fe3 O14 2.255766 1_555
Fe3 O11 2.256099 1_565
