# generated using pymatgen
data_TaNbTe4
_symmetry_space_group_name_H-M   'P 1'
_cell_length_a   7.35455200
_cell_length_b   7.79135799
_cell_length_c   9.91943399
_cell_angle_alpha   110.34231888
_cell_angle_beta   100.70486297
_cell_angle_gamma   103.47998686
_symmetry_Int_Tables_number   1
_chemical_formula_structural   TaNbTe4
_chemical_formula_sum   'Ta3 Nb3 Te12'
_cell_volume   495.59029426
_cell_formula_units_Z   3
loop_
 _symmetry_equiv_pos_site_id
 _symmetry_equiv_pos_as_xyz
  1  'x, y, z'
loop_
 _atom_site_type_symbol
 _atom_site_label
 _atom_site_symmetry_multiplicity
 _atom_site_fract_x
 _atom_site_fract_y
 _atom_site_fract_z
 _atom_site_occupancy
  Ta  Ta0  1  0.32614600  0.72512100  0.28876800  1
  Ta  Ta1  1  0.99963100  0.00036700  0.99948300  1
  Ta  Ta2  1  0.50000400  0.00019700  0.99967600  1
  Nb  Nb0  1  0.17403800  0.27425900  0.71208600  1
  Nb  Nb1  1  0.67417100  0.27434800  0.71201200  1
  Nb  Nb2  1  0.82575400  0.72625900  0.28741200  1
  Te  Te0  1  0.81603800  0.29082300  0.98811800  1
  Te  Te1  1  0.31603900  0.29137800  0.98766200  1
  Te  Te2  1  0.18440000  0.70751800  0.01367200  1
  Te  Te3  1  0.68391900  0.70906700  0.01160500  1
  Te  Te4  1  0.64853200  0.98789700  0.30683400  1
  Te  Te5  1  0.15009500  0.98807300  0.30657600  1
  Te  Te6  1  0.35057200  0.01102200  0.69391400  1
  Te  Te7  1  0.85088400  0.01097100  0.69378000  1
  Te  Te8  1  0.45525500  0.58785200  0.61672200  1
  Te  Te9  1  0.95525300  0.58722000  0.61685600  1
  Te  Te10  1  0.54429000  0.41370300  0.38238000  1
  Te  Te11  1  0.04497800  0.41392400  0.38244400  1
loop_
_geom_bond_atom_site_label_1
_geom_bond_atom_site_label_2
_geom_bond_distance
_geom_bond_site_symmetry_2
Ta0 Te5 2.641041 1_555
Ta0 Te2 2.677355 1_555
Ta0 Te4 2.677584 1_555
Ta0 Te11 3.310764 1_555
Ta0 Te10 3.485875 1_555
Ta1 Te3 2.897161 1_546
Ta1 Te1 2.897618 1_655
Ta1 Te0 2.915932 1_555
Ta1 Te2 2.944531 1_646
Ta1 Te7 3.063164 1_555
Ta1 Te5 3.084313 1_646
Ta2 Te0 2.892859 1_555
Ta2 Te2 2.911895 1_546
Ta2 Te3 2.923403 1_546
Ta2 Te1 2.924183 1_555
Ta2 Te6 3.065401 1_555
Ta2 Te4 3.082369 1_546
Nb0 Te6 2.644994 1_555
Nb0 Te7 2.682779 1_455
Nb0 Te1 2.683619 1_555
Nb0 Te8 3.334668 1_555
Nb0 Te9 3.506156 1_455
Nb1 Te7 2.646774 1_555
Nb1 Te6 2.685961 1_555
Nb1 Te0 2.690305 1_555
Nb1 Te9 3.328965 1_555
Nb1 Te8 3.510751 1_555
Nb2 Te4 2.636367 1_555
Nb2 Te5 2.679687 1_655
Nb2 Te3 2.685294 1_555
Nb2 Te10 3.327473 1_555
Nb2 Te11 3.502796 1_655
Te10 Te8 2.541680 1_555
Te10 Te9 3.109634 1_555
Te11 Te9 2.543197 1_455
Te11 Te8 3.104963 1_555
