# generated using pymatgen
data_PrBr5N2
_symmetry_space_group_name_H-M   'P 1'
_cell_length_a   9.08736600
_cell_length_b   9.36923800
_cell_length_c   14.63936100
_cell_angle_alpha   90.00000000
_cell_angle_beta   90.00000000
_cell_angle_gamma   90.00000000
_symmetry_Int_Tables_number   1
_chemical_formula_structural   PrBr5N2
_chemical_formula_sum   'Pr4 Br20 N8'
_cell_volume   1246.42000702
_cell_formula_units_Z   4
loop_
 _symmetry_equiv_pos_site_id
 _symmetry_equiv_pos_as_xyz
  1  'x, y, z'
loop_
 _atom_site_type_symbol
 _atom_site_label
 _atom_site_symmetry_multiplicity
 _atom_site_fract_x
 _atom_site_fract_y
 _atom_site_fract_z
 _atom_site_occupancy
  Pr  Pr0  1  0.25000000  0.02123800  0.53427100  1
  Pr  Pr1  1  0.25000000  0.47876200  0.03427100  1
  Pr  Pr2  1  0.75000000  0.97876200  0.46572900  1
  Pr  Pr3  1  0.75000000  0.52123800  0.96572900  1
  Br  Br0  1  0.25000000  0.03452300  0.20505600  1
  Br  Br1  1  0.25000000  0.46547700  0.70505600  1
  Br  Br2  1  0.75000000  0.96547700  0.79494400  1
  Br  Br3  1  0.75000000  0.53452300  0.29494400  1
  Br  Br4  1  0.25000000  0.86098500  0.69166400  1
  Br  Br5  1  0.25000000  0.63901500  0.19166400  1
  Br  Br6  1  0.75000000  0.13901500  0.30833600  1
  Br  Br7  1  0.75000000  0.36098500  0.80833600  1
  Br  Br8  1  0.54972500  0.11410900  0.60076900  1
  Br  Br9  1  0.95027500  0.38589100  0.10076900  1
  Br  Br10  1  0.04972500  0.88589100  0.39923100  1
  Br  Br11  1  0.45027500  0.61410900  0.89923100  1
  Br  Br12  1  0.45027500  0.88589100  0.39923100  1
  Br  Br13  1  0.04972500  0.61410900  0.89923100  1
  Br  Br14  1  0.95027500  0.11410900  0.60076900  1
  Br  Br15  1  0.54972500  0.38589100  0.10076900  1
  Br  Br16  1  0.25000000  0.33289700  0.48088400  1
  Br  Br17  1  0.25000000  0.16710300  0.98088400  1
  Br  Br18  1  0.75000000  0.66710300  0.51911600  1
  Br  Br19  1  0.75000000  0.83289700  0.01911600  1
  N  N0  1  0.09238300  0.42652900  0.62573800  1
  N  N1  1  0.40761700  0.07347100  0.12573800  1
  N  N2  1  0.59238300  0.57347100  0.37426200  1
  N  N3  1  0.90761700  0.92652900  0.87426200  1
  N  N4  1  0.90761700  0.57347100  0.37426200  1
  N  N5  1  0.59238300  0.92652900  0.87426200  1
  N  N6  1  0.40761700  0.42652900  0.62573800  1
  N  N7  1  0.09238300  0.07347100  0.12573800  1
loop_
_geom_bond_atom_site_label_1
_geom_bond_atom_site_label_2
_geom_bond_distance
_geom_bond_site_symmetry_2
Br0 N7 1.879632 1_555
Br0 N1 1.879632 1_555
Br1 N6 1.879632 1_555
Br1 N0 1.879632 1_555
Br2 N5 1.879632 1_555
Br2 N3 1.879632 1_555
Br3 N4 1.879632 1_555
Br3 N2 1.879632 1_555
Br4 Pr0 2.750159 1_565
Br5 Pr1 2.750159 1_555
Br6 Pr2 2.750159 1_545
Br7 Pr3 2.750159 1_555
Br8 Pr2 2.971280 1_545
Br8 Pr0 3.020498 1_555
Br9 Pr3 2.971280 1_554
Br9 Pr1 3.020498 1_655
Br10 Pr0 2.971280 1_565
Br10 Pr2 3.020498 1_455
Br11 Pr1 2.971280 1_556
Br11 Pr3 3.020498 1_555
Br12 Pr0 2.971280 1_565
Br12 Pr2 3.020498 1_555
Br13 Pr1 2.971280 1_556
Br13 Pr3 3.020498 1_455
Br14 Pr2 2.971280 1_545
Br14 Pr0 3.020498 1_655
Br15 Pr3 2.971280 1_554
Br15 Pr1 3.020498 1_555
Br16 Pr0 3.022791 1_555
Br17 Pr1 3.022791 1_556
Br18 Pr2 3.022791 1_555
Br19 Pr3 3.022791 1_554
