# generated using pymatgen
data_Li3Mn2CoO6
_symmetry_space_group_name_H-M   'P 1'
_cell_length_a   2.97899119
_cell_length_b   6.58142465
_cell_length_c   12.13197935
_cell_angle_alpha   76.13115964
_cell_angle_beta   93.26276370
_cell_angle_gamma   103.68730584
_symmetry_Int_Tables_number   1
_chemical_formula_structural   Li3Mn2CoO6
_chemical_formula_sum   'Li6 Mn4 Co2 O12'
_cell_volume   224.36741206
_cell_formula_units_Z   2
loop_
 _symmetry_equiv_pos_site_id
 _symmetry_equiv_pos_as_xyz
  1  'x, y, z'
loop_
 _atom_site_type_symbol
 _atom_site_label
 _atom_site_symmetry_multiplicity
 _atom_site_fract_x
 _atom_site_fract_y
 _atom_site_fract_z
 _atom_site_occupancy
  Li  Li0  1  0.65842200  0.32244200  0.08935100  1
  Li  Li1  1  0.67477600  0.34401100  0.57735900  1
  Li  Li2  1  0.98334100  0.00192200  0.26437600  1
  Li  Li3  1  0.00318100  0.01281000  0.74292200  1
  Li  Li4  1  0.35014000  0.66469600  0.40230900  1
  Li  Li5  1  0.33000800  0.65362400  0.92382700  1
  Mn  Mn0  1  0.00161400  0.00896600  0.49891300  1
  Mn  Mn1  1  0.02025000  0.99593300  0.99598100  1
  Mn  Mn2  1  0.31234200  0.67079100  0.67061000  1
  Mn  Mn3  1  0.33277800  0.65778200  0.16772900  1
  Co  Co0  1  0.66672800  0.33343200  0.83334900  1
  Co  Co1  1  0.66667400  0.33336500  0.33334500  1
  O  O0  1  0.49464900  0.99105300  0.88963400  1
  O  O1  1  0.52554600  0.99267200  0.38518300  1
  O  O2  1  0.80865500  0.67403200  0.28158900  1
  O  O3  1  0.83794800  0.67573200  0.77692600  1
  O  O4  1  0.88481600  0.68078400  0.04011100  1
  O  O5  1  0.79758100  0.68090800  0.56141800  1
  O  O6  1  0.44873800  0.98587000  0.62655000  1
  O  O7  1  0.53515000  0.98575000  0.10516200  1
  O  O8  1  0.16683900  0.34497200  0.20706400  1
  O  O9  1  0.16089400  0.36362200  0.71082400  1
  O  O10  1  0.16671000  0.32173700  0.45961400  1
  O  O11  1  0.17222100  0.30309400  0.95585500  1
loop_
_geom_bond_atom_site_label_1
_geom_bond_atom_site_label_2
_geom_bond_distance
_geom_bond_site_symmetry_2
Li0 O8 2.025927 1_655
Li0 O11 2.116983 1_554
Li0 O7 2.121572 1_545
Li0 O8 2.155991 1_555
Li0 O4 2.234165 1_555
Li0 O11 2.335648 1_654
Li1 O10 2.025360 1_555
Li1 O9 2.116692 1_655
Li1 O5 2.122757 1_555
Li1 O10 2.156383 1_655
Li1 O6 2.232857 1_545
Li1 O9 2.336194 1_555
Li2 O1 2.038894 1_545
Li2 O2 2.058199 1_545
Li2 O1 2.120143 1_645
Li2 O8 2.141577 1_655
Li2 O7 2.294062 1_545
Li3 O6 2.056968 1_545
Li3 O3 2.098000 1_445
Li3 O6 2.113931 1_445
Li3 O9 2.186225 1_555
Li3 O0 2.238860 1_545
Li3 O0 2.359157 1_445
Li4 O2 2.039441 1_555
Li4 O1 2.058912 1_555
Li4 O2 2.117927 1_455
Li4 O10 2.141016 1_555
Li4 O5 2.291878 1_555
Li5 O4 2.055993 1_456
Li5 O0 2.100116 1_555
Li5 O4 2.114117 1_556
Li5 O11 2.184486 1_555
Li5 O3 2.241729 1_455
Li5 O3 2.359129 1_555
Mn0 O1 1.924261 1_445
Mn0 O10 1.945152 1_555
Mn0 O6 1.985771 1_545
Mn0 O5 2.062195 1_445
Mn0 O1 2.178671 1_545
Mn0 O6 2.278721 1_445
Mn1 O11 1.910188 1_565
Mn1 O4 1.961540 1_456
Mn1 O0 1.970626 1_455
Mn1 O7 1.971451 1_556
Mn1 O0 1.977818 1_555
Mn1 O7 1.994203 1_456
Mn2 O9 1.910253 1_555
Mn2 O6 1.960998 1_555
Mn2 O3 1.970400 1_555
Mn2 O5 1.971200 1_455
Mn2 O3 1.977682 1_455
Mn2 O5 1.994738 1_555
Mn3 O2 1.924943 1_555
Mn3 O8 1.945438 1_555
Mn3 O4 1.987184 1_455
Mn3 O7 2.061438 1_555
Mn3 O2 2.180080 1_455
Mn3 O4 2.276863 1_555
Co0 O11 2.064378 1_655
Co0 O9 2.065158 1_555
Co0 O9 2.094105 1_655
Co0 O11 2.094435 1_555
Co0 O3 2.135556 1_555
Co0 O0 2.135921 1_545
Co1 O8 2.075612 1_555
Co1 O10 2.075925 1_655
Co1 O2 2.122875 1_555
Co1 O1 2.123177 1_545
Co1 O10 2.172648 1_555
Co1 O8 2.173226 1_655
