# generated using pymatgen
data_CsLi2Cl3
_symmetry_space_group_name_H-M   'P 1'
_cell_length_a   6.80016536
_cell_length_b   7.37505335
_cell_length_c   12.40802958
_cell_angle_alpha   90.00000000
_cell_angle_beta   90.00000000
_cell_angle_gamma   90.00000000
_symmetry_Int_Tables_number   1
_chemical_formula_structural   CsLi2Cl3
_chemical_formula_sum   'Cs4 Li8 Cl12'
_cell_volume   622.28231690
_cell_formula_units_Z   4
loop_
 _symmetry_equiv_pos_site_id
 _symmetry_equiv_pos_as_xyz
  1  'x, y, z'
loop_
 _atom_site_type_symbol
 _atom_site_label
 _atom_site_symmetry_multiplicity
 _atom_site_fract_x
 _atom_site_fract_y
 _atom_site_fract_z
 _atom_site_occupancy
  Cs  Cs0  1  0.75000000  0.80641115  0.00000000  1
  Cs  Cs1  1  0.25000000  0.69358885  0.50000000  1
  Cs  Cs2  1  0.25000000  0.19358885  0.00000000  1
  Cs  Cs3  1  0.75000000  0.30641115  0.50000000  1
  Li  Li0  1  0.73854704  0.35087983  0.18582456  1
  Li  Li1  1  0.23854704  0.14912017  0.31417544  1
  Li  Li2  1  0.26145296  0.14912017  0.68582456  1
  Li  Li3  1  0.76145296  0.35087983  0.81417544  1
  Li  Li4  1  0.26145296  0.64912017  0.81417544  1
  Li  Li5  1  0.76145296  0.85087983  0.68582456  1
  Li  Li6  1  0.73854704  0.85087983  0.31417544  1
  Li  Li7  1  0.23854704  0.64912017  0.18582456  1
  Cl  Cl0  1  0.55852033  0.10043319  0.24698311  1
  Cl  Cl1  1  0.05852033  0.39956681  0.25301689  1
  Cl  Cl2  1  0.44147967  0.39956681  0.74698311  1
  Cl  Cl3  1  0.94147967  0.10043319  0.75301689  1
  Cl  Cl4  1  0.44147967  0.89956681  0.75301689  1
  Cl  Cl5  1  0.94147967  0.60043319  0.74698311  1
  Cl  Cl6  1  0.55852033  0.60043319  0.25301689  1
  Cl  Cl7  1  0.05852033  0.89956681  0.24698311  1
  Cl  Cl8  1  0.75000000  0.31538496  0.00000000  1
  Cl  Cl9  1  0.25000000  0.18461504  0.50000000  1
  Cl  Cl10  1  0.25000000  0.68461504  0.00000000  1
  Cl  Cl11  1  0.75000000  0.81538496  0.50000000  1
loop_
_geom_bond_atom_site_label_1
_geom_bond_atom_site_label_2
_geom_bond_distance
_geom_bond_site_symmetry_2
Cl0 Li0 2.342259 1_555
Cl0 Li1 2.357635 1_555
Cl0 Li6 2.362439 1_545
Cl0 Cs3 3.722794 1_555
Cl0 Cs2 3.776927 1_555
Cl0 Cs0 3.973555 1_545
Cl1 Li1 2.342259 1_555
Cl1 Li0 2.357635 1_455
Cl1 Li7 2.362439 1_555
Cl1 Cs2 3.722794 1_555
Cl1 Cs3 3.776927 1_455
Cl1 Cs1 3.973555 1_555
Cl2 Li2 2.342259 1_555
Cl2 Li3 2.357635 1_555
Cl2 Li4 2.362439 1_555
Cl2 Cs2 3.722794 1_556
Cl2 Cs3 3.776927 1_555
Cl2 Cs1 3.973555 1_555
Cl3 Li3 2.342259 1_555
Cl3 Li2 2.357635 1_655
Cl3 Li5 2.362439 1_545
Cl3 Cs3 3.722794 1_555
Cl3 Cs2 3.776927 1_656
Cl3 Cs0 3.973555 1_546
Cl4 Li4 2.342259 1_555
Cl4 Li5 2.357635 1_555
Cl4 Li2 2.362439 1_565
Cl4 Cs1 3.722794 1_555
Cl4 Cs0 3.776927 1_556
Cl4 Cs2 3.973555 1_566
Cl5 Li5 2.342259 1_555
Cl5 Li4 2.357635 1_655
Cl5 Li3 2.362439 1_555
Cl5 Cs0 3.722794 1_556
Cl5 Cs1 3.776927 1_655
Cl5 Cs3 3.973555 1_555
Cl6 Li6 2.342259 1_555
Cl6 Li7 2.357635 1_555
Cl6 Li0 2.362439 1_555
Cl6 Cs0 3.722794 1_555
Cl6 Cs1 3.776927 1_555
Cl6 Cs3 3.973555 1_555
Cl7 Li7 2.342259 1_555
Cl7 Li6 2.357635 1_455
Cl7 Li1 2.362439 1_565
Cl7 Cs1 3.722794 1_555
Cl7 Cs0 3.776927 1_455
Cl7 Cs2 3.973555 1_565
Cl8 Li0 2.321836 1_555
Cl8 Li3 2.321836 1_554
Cl8 Cs2 3.516734 1_555
Cl8 Cs2 3.516734 1_655
Cl8 Cs0 3.621344 1_555
Cl8 Cs0 3.753709 1_545
Cl9 Li1 2.321836 1_555
Cl9 Li2 2.321836 1_555
Cl9 Cs3 3.516734 1_555
Cl9 Cs3 3.516734 1_455
Cl9 Cs1 3.621344 1_545
Cl9 Cs1 3.753709 1_555
Cl10 Li7 2.321836 1_555
Cl10 Li4 2.321836 1_554
Cl10 Cs0 3.516734 1_455
Cl10 Cs0 3.516734 1_555
Cl10 Cs2 3.621344 1_555
Cl10 Cs2 3.753709 1_565
Cl11 Li5 2.321836 1_555
Cl11 Li6 2.321836 1_555
Cl11 Cs1 3.516734 1_655
Cl11 Cs1 3.516734 1_555
Cl11 Cs3 3.621344 1_565
Cl11 Cs3 3.753709 1_555
