# generated using pymatgen
data_Er3Ga8Ni3
_symmetry_space_group_name_H-M   'P 1'
_cell_length_a   7.96507008
_cell_length_b   7.96507008
_cell_length_c   9.50361869
_cell_angle_alpha   54.23683748
_cell_angle_beta   54.23683748
_cell_angle_gamma   30.00960940
_symmetry_Int_Tables_number   1
_chemical_formula_structural   Er3Ga8Ni3
_chemical_formula_sum   'Er3 Ga8 Ni3'
_cell_volume   240.08935434
_cell_formula_units_Z   1
loop_
 _symmetry_equiv_pos_site_id
 _symmetry_equiv_pos_as_xyz
  1  'x, y, z'
loop_
 _atom_site_type_symbol
 _atom_site_label
 _atom_site_symmetry_multiplicity
 _atom_site_fract_x
 _atom_site_fract_y
 _atom_site_fract_z
 _atom_site_occupancy
  Er  Er0  1  0.69471700  0.69471700  0.29991000  1
  Er  Er1  1  0.31288800  0.31288800  0.68364700  1
  Er  Er2  1  0.99052600  0.99052600  0.01322300  1
  Ga  Ga0  1  0.49640000  0.49640000  0.71480900  1
  Ga  Ga1  1  0.49948500  0.49948500  0.28064300  1
  Ga  Ga2  1  0.84616800  0.84616800  0.41635300  1
  Ga  Ga3  1  0.15880100  0.15880100  0.56465800  1
  Ga  Ga4  1  0.84157700  0.84157700  0.89159700  1
  Ga  Ga5  1  0.16032400  0.16032400  0.10425900  1
  Ga  Ga6  1  0.99978300  0.99978300  0.49900100  1
  Ga  Ga7  1  0.65510100  0.65510100  0.73928500  1
  Ni  Ni0  1  0.34199200  0.34199200  0.28556400  1
  Ni  Ni1  1  0.65662500  0.65662500  0.98218700  1
  Ni  Ni2  1  0.34561200  0.34561200  0.02486300  1
loop_
_geom_bond_atom_site_label_1
_geom_bond_atom_site_label_2
_geom_bond_distance
_geom_bond_site_symmetry_2
Er0 Ni0 3.005410 1_565
Er0 Ni0 3.005410 1_655
Er0 Ni2 3.021856 1_655
Er0 Ni2 3.021856 1_565
Er0 Ga5 3.029960 1_655
Er0 Ga5 3.029960 1_565
Er0 Ga3 3.034109 1_565
Er0 Ga3 3.034109 1_655
Er0 Ga4 3.090777 1_554
Er0 Ga1 3.118234 1_555
Er0 Ga2 3.126666 1_555
Er0 Ga6 3.156169 1_545
Er0 Ga6 3.156169 1_455
Er0 Ga0 3.209156 1_555
Er1 Ga7 2.978774 1_455
Er1 Ga7 2.978774 1_545
Er1 Ga0 3.012131 1_555
Er1 Ga2 3.064879 1_455
Er1 Ga2 3.064879 1_545
Er1 Ga4 3.067369 1_455
Er1 Ga4 3.067369 1_545
Er1 Ga6 3.081393 1_455
Er1 Ga6 3.081393 1_545
Er1 Ga1 3.099222 1_555
Er1 Ni1 3.134988 1_455
Er1 Ni1 3.134988 1_545
Er1 Ga5 3.183374 1_556
Er1 Ga3 3.185060 1_555
Er2 Ni2 2.989682 1_565
Er2 Ni2 2.989682 1_655
Er2 Ni0 3.002747 1_565
Er2 Ni0 3.002747 1_655
Er2 Ga2 3.051839 1_555
Er2 Ga7 3.076499 1_564
Er2 Ga7 3.076499 1_654
Er2 Ga4 3.129632 1_554
Er2 Ni1 3.155816 1_654
Er2 Ni1 3.155816 1_564
Er2 Ga5 3.210922 1_665
Er2 Ga1 3.339830 1_565
Er2 Ga1 3.339830 1_655
Er2 Ga3 3.394101 1_664
Er2 Ga0 3.463154 1_564
Er2 Ga0 3.463154 1_654
Ga0 Ni2 2.406770 1_556
Ga0 Ga7 2.589307 1_555
Ga0 Ga4 2.811925 1_455
Ga0 Ga4 2.811925 1_545
Ga0 Ga3 2.866697 1_655
Ga0 Ga3 2.866697 1_565
Ga0 Ga6 2.886595 1_455
Ga0 Ga6 2.886595 1_545
Ga1 Ni1 2.364784 1_554
Ga1 Ni0 2.395335 1_555
Ga1 Ga2 2.792714 1_455
Ga1 Ga2 2.792714 1_545
Ga1 Ga5 2.857786 1_655
Ga1 Ga5 2.857786 1_565
Ga1 Ga6 2.927532 1_545
Ga1 Ga6 2.927532 1_455
Ga2 Ni0 2.428630 1_565
Ga2 Ni0 2.428630 1_655
Ga2 Ga7 2.672722 1_555
Ga2 Ga6 2.906986 1_555
Ga3 Ni0 2.435796 1_555
Ga3 Ga7 2.625953 1_455
Ga3 Ga7 2.625953 1_545
Ga3 Ga6 2.867717 1_445
Ga4 Ni1 2.423873 1_555
Ga4 Ni2 2.440399 1_566
Ga4 Ni2 2.440399 1_656
Ga4 Ga6 2.975849 1_555
Ga5 Ni1 2.383596 1_454
Ga5 Ni1 2.383596 1_544
Ga5 Ni2 2.468684 1_555
Ga5 Ga6 2.993545 1_445
Ga7 Ni1 2.322712 1_555
Ni0 Ni2 2.444302 1_555
