# generated using pymatgen
data_HoBiRh
_symmetry_space_group_name_H-M   'P 1'
_cell_length_a   7.59666270
_cell_length_b   7.59666270
_cell_length_c   3.96208364
_cell_angle_alpha   90.00000000
_cell_angle_beta   90.00000000
_cell_angle_gamma   120.00000417
_symmetry_Int_Tables_number   1
_chemical_formula_structural   HoBiRh
_chemical_formula_sum   'Ho3 Bi3 Rh3'
_cell_volume   198.01584347
_cell_formula_units_Z   3
loop_
 _symmetry_equiv_pos_site_id
 _symmetry_equiv_pos_as_xyz
  1  'x, y, z'
loop_
 _atom_site_type_symbol
 _atom_site_label
 _atom_site_symmetry_multiplicity
 _atom_site_fract_x
 _atom_site_fract_y
 _atom_site_fract_z
 _atom_site_occupancy
  Ho  Ho0  1  0.60130989  -0.00000000  -0.00000000  1
  Ho  Ho1  1  -0.00000000  0.60130989  -0.00000000  1
  Ho  Ho2  1  0.39869011  0.39869011  0.00000000  1
  Bi  Bi0  1  0.26657679  -0.00000000  0.50000000  1
  Bi  Bi1  1  -0.00000000  0.26657679  0.50000000  1
  Bi  Bi2  1  0.73342321  0.73342321  0.50000000  1
  Rh  Rh0  1  0.33333300  0.66666700  0.50000000  1
  Rh  Rh1  1  0.66666700  0.33333300  0.50000000  1
  Rh  Rh2  1  -0.00000000  0.00000000  0.00000000  1
loop_
_geom_bond_atom_site_label_1
_geom_bond_atom_site_label_2
_geom_bond_distance
_geom_bond_site_symmetry_2
Ho0 Rh2 3.028714 1_655
Ho0 Rh1 3.053838 1_555
Ho0 Rh1 3.053838 1_554
Ho0 Rh0 3.053840 1_544
Ho0 Rh0 3.053840 1_545
Ho1 Rh2 3.028714 1_565
Ho1 Rh0 3.053838 1_554
Ho1 Rh0 3.053838 1_555
Ho1 Rh1 3.053840 1_455
Ho1 Rh1 3.053840 1_454
Ho2 Rh2 3.028714 1_555
Ho2 Rh0 3.053844 1_554
Ho2 Rh1 3.053844 1_555
Ho2 Rh1 3.053844 1_554
Ho2 Rh0 3.053844 1_555
Bi0 Rh0 2.820187 1_545
Bi0 Rh1 2.820192 1_555
Bi0 Rh2 2.832937 1_555
Bi0 Rh2 2.832937 1_556
Bi0 Ho0 3.223451 1_555
Bi0 Ho0 3.223451 1_556
Bi0 Ho1 3.326441 1_546
Bi0 Ho1 3.326441 1_545
Bi0 Ho2 3.326441 1_556
Bi0 Ho2 3.326441 1_555
Bi1 Rh1 2.820187 1_455
Bi1 Rh0 2.820192 1_555
Bi1 Rh2 2.832937 1_555
Bi1 Rh2 2.832937 1_556
Bi1 Ho1 3.223451 1_555
Bi1 Ho1 3.223451 1_556
Bi1 Ho0 3.326441 1_456
Bi1 Ho0 3.326441 1_455
Bi1 Ho2 3.326441 1_556
Bi1 Ho2 3.326441 1_555
Bi2 Rh0 2.820194 1_555
Bi2 Rh1 2.820194 1_555
Bi2 Rh2 2.832937 1_665
Bi2 Rh2 2.832937 1_666
Bi2 Ho2 3.223451 1_555
Bi2 Ho2 3.223451 1_556
Bi2 Ho0 3.326441 1_565
Bi2 Ho0 3.326441 1_566
Bi2 Ho1 3.326441 1_655
Bi2 Ho1 3.326441 1_656
