# generated using pymatgen
data_C4NCl2
_symmetry_space_group_name_H-M   'P 1'
_cell_length_a   19.54504500
_cell_length_b   6.99140600
_cell_length_c   9.32245296
_cell_angle_alpha   85.96168655
_cell_angle_beta   90.00000000
_cell_angle_gamma   90.00000000
_symmetry_Int_Tables_number   1
_chemical_formula_structural   C4NCl2
_chemical_formula_sum   'C32 N8 Cl16'
_cell_volume   1270.72561080
_cell_formula_units_Z   8
loop_
 _symmetry_equiv_pos_site_id
 _symmetry_equiv_pos_as_xyz
  1  'x, y, z'
loop_
 _atom_site_type_symbol
 _atom_site_label
 _atom_site_symmetry_multiplicity
 _atom_site_fract_x
 _atom_site_fract_y
 _atom_site_fract_z
 _atom_site_occupancy
  C  C0  1  0.67839400  0.11449000  0.22648000  1
  C  C1  1  0.32160600  0.88551000  0.77352000  1
  C  C2  1  0.17839400  0.88551000  0.27352000  1
  C  C3  1  0.82160600  0.11449000  0.72648000  1
  C  C4  1  0.12349700  0.16339200  0.14913100  1
  C  C5  1  0.87650300  0.83660800  0.85086900  1
  C  C6  1  0.62349700  0.83660800  0.35086900  1
  C  C7  1  0.37650300  0.16339200  0.64913100  1
  C  C8  1  0.05927500  0.09261300  0.19616800  1
  C  C9  1  0.94072500  0.90738700  0.80383200  1
  C  C10  1  0.55927500  0.90738700  0.30383200  1
  C  C11  1  0.44072500  0.09261300  0.69616800  1
  C  C12  1  0.55413400  0.08174700  0.21925800  1
  C  C13  1  0.44586600  0.91825300  0.78074200  1
  C  C14  1  0.05413400  0.91825300  0.28074200  1
  C  C15  1  0.94586600  0.08174700  0.71925800  1
  C  C16  1  0.61395700  0.18351200  0.17819200  1
  C  C17  1  0.38604300  0.81648800  0.82180800  1
  C  C18  1  0.11395700  0.81648800  0.32180800  1
  C  C19  1  0.88604300  0.18351200  0.67819200  1
  C  C20  1  0.12801400  0.33934800  0.06302700  1
  C  C21  1  0.87198600  0.66065200  0.93697300  1
  C  C22  1  0.62801400  0.66065200  0.43697300  1
  C  C23  1  0.37198600  0.33934800  0.56302700  1
  C  C24  1  0.18375800  0.05873600  0.18773200  1
  C  C25  1  0.81624200  0.94126400  0.81226800  1
  C  C26  1  0.68375800  0.94126400  0.31226800  1
  C  C27  1  0.31624200  0.05873600  0.68773200  1
  C  C28  1  0.24899400  0.13072700  0.14102400  1
  C  C29  1  0.75100600  0.86927300  0.85897600  1
  C  C30  1  0.74899400  0.86927300  0.35897600  1
  C  C31  1  0.25100600  0.13072700  0.64102400  1
  N  N0  1  0.36741100  0.48400200  0.49256800  1
  N  N1  1  0.63258900  0.51599800  0.50743200  1
  N  N2  1  0.86741100  0.51599800  0.00743200  1
  N  N3  1  0.13258900  0.48400200  0.99256800  1
  N  N4  1  0.30167600  0.19343900  0.10163500  1
  N  N5  1  0.69832400  0.80656100  0.89836500  1
  N  N6  1  0.80167500  0.80656100  0.39836500  1
  N  N7  1  0.19832400  0.19343900  0.60163500  1
  Cl  Cl0  1  0.75065900  0.24020400  0.18031900  1
  Cl  Cl1  1  0.24934100  0.75979600  0.81968100  1
  Cl  Cl2  1  0.25065900  0.75979600  0.31968100  1
  Cl  Cl3  1  0.74934100  0.24020400  0.68031900  1
  Cl  Cl4  1  0.51259100  0.22119900  0.65056600  1
  Cl  Cl5  1  0.48740900  0.77880100  0.34943400  1
  Cl  Cl6  1  0.01259100  0.77880100  0.84943400  1
  Cl  Cl7  1  0.98740900  0.22119900  0.15056600  1
  Cl  Cl8  1  0.60863300  0.38875900  0.06932800  1
  Cl  Cl9  1  0.39136700  0.61124100  0.93067200  1
  Cl  Cl10  1  0.10863300  0.61124100  0.43067200  1
  Cl  Cl11  1  0.89136700  0.38875900  0.56932800  1
  Cl  Cl12  1  0.47564500  0.16824100  0.16867700  1
  Cl  Cl13  1  0.52435500  0.83175900  0.83132300  1
  Cl  Cl14  1  0.97564500  0.83175900  0.33132300  1
  Cl  Cl15  1  0.02435500  0.16824100  0.66867700  1
loop_
_geom_bond_atom_site_label_1
_geom_bond_atom_site_label_2
_geom_bond_distance
_geom_bond_site_symmetry_2
C0 C26 1.407453 1_545
C0 C16 1.411051 1_555
C0 Cl0 1.702747 1_555
C1 C27 1.407453 1_565
C1 C17 1.411051 1_555
C1 Cl1 1.702747 1_555
C2 C24 1.407453 1_565
C2 Cl2 1.702747 1_555
C3 Cl3 1.702747 1_555
C4 C8 1.407897 1_555
C5 C9 1.407897 1_555
C8 Cl7 1.705305 1_455
C9 Cl6 1.705305 1_655
C10 C6 1.407897 1_555
C10 C12 1.407967 1_565
C10 Cl5 1.705305 1_555
C11 C7 1.407897 1_555
C11 C13 1.407967 1_545
C11 Cl4 1.705305 1_555
C12 C16 1.407670 1_555
C12 Cl12 1.703303 1_555
C13 C17 1.407670 1_555
C13 Cl13 1.703303 1_555
C14 C18 1.407670 1_555
C14 C8 1.407967 1_565
C14 Cl14 1.703303 1_455
C15 C19 1.407670 1_555
C15 C9 1.407967 1_545
C15 Cl15 1.703303 1_655
C16 Cl8 1.701416 1_555
C17 Cl9 1.701416 1_555
C18 C2 1.411051 1_555
C18 Cl10 1.701416 1_555
C19 C3 1.411051 1_555
C19 Cl11 1.701416 1_555
C20 N3 1.169907 1_554
C20 C4 1.423511 1_555
C21 N2 1.169907 1_556
C21 C5 1.423511 1_555
C22 N1 1.169907 1_555
C22 C6 1.423511 1_555
C23 N0 1.169907 1_555
C23 C7 1.423511 1_555
C24 C4 1.419509 1_555
C24 C28 1.427512 1_555
C25 C3 1.407453 1_565
C25 C5 1.419509 1_555
C25 C29 1.427512 1_555
C26 C6 1.419509 1_555
C26 C30 1.427512 1_555
C27 C7 1.419509 1_555
C27 C31 1.427512 1_555
C28 N4 1.168169 1_555
C29 N5 1.168169 1_555
C30 N6 1.168152 1_555
C31 N7 1.168169 1_555
