# generated using pymatgen
data_Nd11Ti16O48
_symmetry_space_group_name_H-M   'P 1'
_cell_length_a   5.47412016
_cell_length_b   5.47412063
_cell_length_c   64.09862744
_cell_angle_alpha   90.00000000
_cell_angle_beta   90.00000000
_cell_angle_gamma   90.58749957
_symmetry_Int_Tables_number   1
_chemical_formula_structural   Nd11Ti16O48
_chemical_formula_sum   'Nd22 Ti32 O96'
_cell_volume   1920.67811638
_cell_formula_units_Z   2
loop_
 _symmetry_equiv_pos_site_id
 _symmetry_equiv_pos_as_xyz
  1  'x, y, z'
loop_
 _atom_site_type_symbol
 _atom_site_label
 _atom_site_symmetry_multiplicity
 _atom_site_fract_x
 _atom_site_fract_y
 _atom_site_fract_z
 _atom_site_occupancy
  Nd  Nd0  1  0.25119087  0.74880813  0.06827216  1
  Nd  Nd1  1  0.25119087  0.74880813  0.55672784  1
  Nd  Nd2  1  0.24987001  0.75012999  0.81250000  1
  Nd  Nd3  1  0.24986097  0.75013903  0.00242576  1
  Nd  Nd4  1  0.25934346  0.74065654  0.13161301  1
  Nd  Nd5  1  0.25196416  0.74803584  0.25203606  1
  Nd  Nd6  1  0.25196416  0.74803584  0.37296394  1
  Nd  Nd7  1  0.24986097  0.75013903  0.62257424  1
  Nd  Nd8  1  0.25934346  0.74065654  0.49338699  1
  Nd  Nd9  1  0.25186988  0.74813012  0.74656962  1
  Nd  Nd10  1  0.25186988  0.74813012  0.87843038  1
  Nd  Nd11  1  0.74890397  0.25109603  0.00180592  1
  Nd  Nd12  1  0.74593709  0.25406291  0.13199943  1
  Nd  Nd13  1  0.74757512  0.25242488  0.37299821  1
  Nd  Nd14  1  0.74593709  0.25406291  0.49300057  1
  Nd  Nd15  1  0.74757512  0.25242488  0.25200179  1
  Nd  Nd16  1  0.74890397  0.25109603  0.62319408  1
  Nd  Nd17  1  0.74601705  0.25398295  0.74731674  1
  Nd  Nd18  1  0.74601705  0.25398295  0.87768326  1
  Nd  Nd19  1  0.74447343  0.25552657  0.81250000  1
  Nd  Nd20  1  0.74842021  0.25157979  0.68379594  1
  Nd  Nd21  1  0.74842021  0.25157979  0.94120406  1
  Ti  Ti0  1  0.24532006  0.25163329  0.03411814  1
  Ti  Ti1  1  0.24932236  0.24495401  0.16314025  1
  Ti  Ti2  1  0.25038966  0.25036130  0.28441605  1
  Ti  Ti3  1  0.25397860  0.25354626  0.09567458  1
  Ti  Ti4  1  0.25158971  0.25570299  0.40452012  1
  Ti  Ti5  1  0.25158971  0.25570299  0.22047988  1
  Ti  Ti6  1  0.25397860  0.25354626  0.52932542  1
  Ti  Ti7  1  0.25038966  0.25036130  0.34058395  1
  Ti  Ti8  1  0.25433495  0.25429248  0.65563937  1
  Ti  Ti9  1  0.24932236  0.24495401  0.46185975  1
  Ti  Ti10  1  0.24877917  0.24757390  0.78088344  1
  Ti  Ti11  1  0.24532006  0.25163329  0.59088186  1
  Ti  Ti12  1  0.25116604  0.24580682  0.90923625  1
  Ti  Ti13  1  0.25116604  0.24580682  0.71576375  1
  Ti  Ti14  1  0.24877917  0.24757390  0.84411656  1
  Ti  Ti15  1  0.25433495  0.25429248  0.96936063  1
  Ti  Ti16  1  0.74836671  0.75467994  0.03411814  1
  Ti  Ti17  1  0.75504599  0.75067764  0.16314025  1
  Ti  Ti18  1  0.74963870  0.74961034  0.28441605  1
  Ti  Ti19  1  0.74429701  0.74841029  0.40452012  1
  Ti  Ti20  1  0.74645374  0.74602140  0.09567458  1
  Ti  Ti21  1  0.74645374  0.74602140  0.52932542  1
  Ti  Ti22  1  0.74570752  0.74566505  0.65563937  1
  Ti  Ti23  1  0.75242610  0.75122083  0.78088344  1
  Ti  Ti24  1  0.74429701  0.74841029  0.22047988  1
  Ti  Ti25  1  0.74963870  0.74961034  0.34058395  1
  Ti  Ti26  1  0.75504599  0.75067764  0.46185975  1
  Ti  Ti27  1  0.75419318  0.74883296  0.90923625  1
  Ti  Ti28  1  0.74836671  0.75467994  0.59088186  1
  Ti  Ti29  1  0.75419318  0.74883296  0.71576375  1
  Ti  Ti30  1  0.75242610  0.75122083  0.84411656  1
  Ti  Ti31  1  0.74570752  0.74566505  0.96936063  1
  O  O0  1  0.99262643  0.00737357  0.52582940  1
  O  O1  1  0.00842525  0.99157475  0.64901740  1
  O  O2  1  0.98684584  0.50219801  0.02637047  1
  O  O3  1  0.00232007  0.49708567  0.15340202  1
  O  O4  1  0.00036148  0.49983521  0.27758946  1
  O  O5  1  0.00092642  0.49958292  0.40156984  1
  O  O6  1  0.02868185  0.52531466  0.53209658  1
  O  O7  1  0.97069245  0.47324725  0.65616881  1
  O  O8  1  0.98767286  0.48610640  0.78274357  1
  O  O9  1  0.00934575  0.50304343  0.90248678  1
  O  O10  1  0.99983752  0.00016248  0.02348263  1
  O  O11  1  0.00298305  0.99701695  0.15093336  1
  O  O12  1  0.00005380  0.99994620  0.27471706  1
  O  O13  1  0.00005380  0.99994620  0.35028294  1
  O  O14  1  0.00043821  0.99956179  0.39780254  1
  O  O15  1  0.00298305  0.99701695  0.47406664  1
  O  O16  1  0.99983752  0.00016248  0.60151737  1
  O  O17  1  0.99323906  0.00676094  0.72532322  1
  O  O18  1  0.01386778  0.98613222  0.77325152  1
  O  O19  1  0.01386778  0.98613222  0.85174848  1
  O  O20  1  0.99323906  0.00676094  0.89967678  1
  O  O21  1  0.21107507  0.19810757  0.06074749  1
  O  O22  1  0.21363295  0.21072329  0.18903354  1
  O  O23  1  0.21552062  0.21521048  0.31250000  1
  O  O24  1  0.21363295  0.21072329  0.43596646  1
  O  O25  1  0.21107507  0.19810757  0.56425251  1
  O  O26  1  0.19313478  0.21378346  0.68799401  1
  O  O27  1  0.19134093  0.18850588  0.81250000  1
  O  O28  1  0.19313478  0.21378346  0.93700599  1
  O  O29  1  0.30051620  0.31171298  0.99798872  1
  O  O30  1  0.30357751  0.29418078  0.12305122  1
  O  O31  1  0.29924421  0.29806560  0.37478378  1
  O  O32  1  0.29924421  0.29806560  0.25021622  1
  O  O33  1  0.30051620  0.31171298  0.62701128  1
  O  O34  1  0.30357751  0.29418078  0.50194878  1
  O  O35  1  0.30770182  0.30786181  0.75104116  1
  O  O36  1  0.30770182  0.30786181  0.87395884  1
  O  O37  1  0.49780199  0.01315416  0.02637047  1
  O  O38  1  0.50041708  0.99907358  0.22343016  1
  O  O39  1  0.50041708  0.99907358  0.40156984  1
  O  O40  1  0.47468534  0.97131815  0.53209658  1
  O  O41  1  0.50291433  0.99767993  0.47159798  1
  O  O42  1  0.49780199  0.01315416  0.59862953  1
  O  O43  1  0.49695657  0.99065425  0.72251322  1
  O  O44  1  0.51389360  0.01232714  0.84225643  1
  O  O45  1  0.46496684  0.53503316  0.03454645  1
  O  O46  1  0.50178515  0.49821485  0.15715482  1
  O  O47  1  0.50090840  0.49909160  0.21642551  1
  O  O48  1  0.50027695  0.49972305  0.28334802  1
  O  O49  1  0.50027695  0.49972305  0.34165198  1
  O  O50  1  0.50090840  0.49909160  0.40857449  1
  O  O51  1  0.50765557  0.49234443  0.08681943  1
  O  O52  1  0.50765557  0.49234443  0.53818057  1
  O  O53  1  0.50178515  0.49821485  0.46784518  1
  O  O54  1  0.46496684  0.53503316  0.59045355  1
  O  O55  1  0.49407067  0.50592933  0.66282598  1
  O  O56  1  0.53177693  0.46822307  0.71393173  1
  O  O57  1  0.49136958  0.50863042  0.83567906  1
  O  O58  1  0.53177693  0.46822307  0.91106827  1
  O  O59  1  0.49136958  0.50863042  0.78932094  1
  O  O60  1  0.49407067  0.50592933  0.96217402  1
  O  O61  1  0.47468534  0.97131815  0.09290342  1
  O  O62  1  0.50291433  0.99767993  0.15340202  1
  O  O63  1  0.50016479  0.99963852  0.34741054  1
  O  O64  1  0.50016479  0.99963852  0.27758946  1
  O  O65  1  0.52675275  0.02930755  0.65616881  1
  O  O66  1  0.49695657  0.99065425  0.90248678  1
  O  O67  1  0.51389360  0.01232714  0.78274357  1
  O  O68  1  0.52675275  0.02930755  0.96883119  1
  O  O69  1  0.68828702  0.69948380  0.99798872  1
  O  O70  1  0.70581922  0.69642249  0.12305122  1
  O  O71  1  0.70193440  0.70075579  0.25021622  1
  O  O72  1  0.70193440  0.70075579  0.37478378  1
  O  O73  1  0.70581922  0.69642249  0.50194878  1
  O  O74  1  0.68828702  0.69948380  0.62701128  1
  O  O75  1  0.69213819  0.69229818  0.75104116  1
  O  O76  1  0.69213819  0.69229818  0.87395884  1
  O  O77  1  0.80189243  0.78892493  0.06074749  1
  O  O78  1  0.78927671  0.78636705  0.18903354  1
  O  O79  1  0.78478952  0.78447938  0.31250000  1
  O  O80  1  0.78927671  0.78636705  0.43596646  1
  O  O81  1  0.80189243  0.78892493  0.56425251  1
  O  O82  1  0.78621654  0.80686522  0.68799401  1
  O  O83  1  0.81149412  0.80865907  0.81250000  1
  O  O84  1  0.78621654  0.80686522  0.93700599  1
  O  O85  1  0.99262643  0.00737357  0.09917060  1
  O  O86  1  0.00043821  0.99956179  0.22719746  1
  O  O87  1  0.00842525  0.99157475  0.97598260  1
  O  O88  1  0.02868185  0.52531466  0.09290342  1
  O  O89  1  0.00092642  0.49958292  0.22343016  1
  O  O90  1  0.00036148  0.49983521  0.34741054  1
  O  O91  1  0.00232007  0.49708567  0.47159798  1
  O  O92  1  0.98684584  0.50219801  0.59862953  1
  O  O93  1  0.00934575  0.50304343  0.72251322  1
  O  O94  1  0.98767286  0.48610640  0.84225643  1
  O  O95  1  0.97069245  0.47324725  0.96883119  1
loop_
_geom_bond_atom_site_label_1
_geom_bond_atom_site_label_2
_geom_bond_distance
_geom_bond_site_symmetry_2
Nd0 O51 2.322876 1_555
Nd0 O88 2.332927 1_555
Nd0 O61 2.332933 1_555
Nd0 O77 2.518163 1_455
Nd0 O21 2.518168 1_565
Nd0 O45 2.727678 1_555
Nd1 O52 2.322876 1_555
Nd1 O6 2.332927 1_555
Nd1 O40 2.332933 1_555
Nd1 O81 2.518163 1_455
Nd1 O25 2.518168 1_565
Nd1 O54 2.727678 1_555
Nd2 O57 2.395545 1_555
Nd2 O59 2.395545 1_555
Nd2 O83 2.424270 1_455
Nd2 O27 2.424271 1_565
Nd3 O10 2.367826 1_465
Nd3 O69 2.435449 1_554
Nd3 O29 2.435449 1_554
Nd3 O2 2.496140 1_455
Nd3 O37 2.496140 1_565
Nd3 O87 2.530267 1_554
Nd3 O45 2.653405 1_555
Nd4 O11 2.347938 1_555
Nd4 O3 2.381075 1_555
Nd4 O62 2.381075 1_555
Nd4 O46 2.497841 1_555
Nd4 O70 2.519005 1_555
Nd4 O30 2.519006 1_555
Nd4 O85 2.937947 1_465
Nd4 O88 3.018262 1_555
Nd4 O61 3.018262 1_555
Nd4 O70 3.086425 1_455
Nd4 O30 3.086425 1_565
Nd5 O12 2.440452 1_555
Nd5 O71 2.482132 1_555
Nd5 O32 2.482132 1_555
Nd5 O86 2.522963 1_555
Nd5 O4 2.527339 1_555
Nd5 O64 2.527339 1_555
Nd5 O89 2.657438 1_555
Nd5 O38 2.657438 1_555
Nd5 O48 2.785950 1_555
Nd5 O47 2.993738 1_555
Nd5 O71 3.021640 1_455
Nd5 O32 3.021640 1_565
Nd6 O13 2.440452 1_555
Nd6 O72 2.482132 1_555
Nd6 O31 2.482132 1_555
Nd6 O14 2.522963 1_555
Nd6 O90 2.527339 1_555
Nd6 O63 2.527339 1_555
Nd6 O5 2.657438 1_555
Nd6 O39 2.657438 1_555
Nd6 O49 2.785950 1_555
Nd6 O50 2.993738 1_555
Nd6 O72 3.021640 1_455
Nd6 O31 3.021640 1_565
Nd7 O16 2.367826 1_465
Nd7 O74 2.435449 1_555
Nd7 O33 2.435449 1_555
Nd7 O92 2.496140 1_455
Nd7 O42 2.496140 1_565
Nd7 O1 2.530267 1_555
Nd7 O54 2.653405 1_555
Nd8 O15 2.347938 1_555
Nd8 O91 2.381075 1_555
Nd8 O41 2.381075 1_555
Nd8 O53 2.497841 1_555
Nd8 O73 2.519005 1_555
Nd8 O34 2.519006 1_555
Nd8 O0 2.937947 1_465
Nd8 O6 3.018262 1_555
Nd8 O40 3.018262 1_555
Nd8 O73 3.086425 1_455
Nd8 O34 3.086425 1_565
Nd9 O43 2.429754 1_555
Nd9 O93 2.429754 1_555
Nd9 O17 2.429944 1_465
Nd9 O75 2.449318 1_555
Nd9 O35 2.449318 1_555
Nd9 O18 2.520851 1_555
Nd10 O66 2.429754 1_555
Nd10 O9 2.429754 1_555
Nd10 O20 2.429944 1_465
Nd10 O76 2.449318 1_555
Nd10 O36 2.449318 1_555
Nd10 O19 2.520851 1_555
Nd11 O10 2.396463 1_555
Nd11 O37 2.455298 1_555
Nd11 O2 2.455298 1_555
Nd11 O29 2.492266 1_554
Nd11 O69 2.492266 1_554
Nd11 O87 2.611073 1_644
Nd11 O68 2.718467 1_554
Nd11 O95 2.718467 1_554
Nd12 O11 2.339527 1_645
Nd12 O3 2.362897 1_655
Nd12 O62 2.362897 1_545
Nd12 O46 2.491808 1_555
Nd12 O30 2.500384 1_555
Nd12 O70 2.500384 1_555
Nd12 O85 2.848263 1_555
Nd13 O13 2.445313 1_645
Nd13 O31 2.472100 1_555
Nd13 O72 2.472100 1_555
Nd13 O14 2.529661 1_645
Nd13 O90 2.529968 1_655
Nd13 O63 2.529968 1_545
Nd13 O5 2.658856 1_655
Nd13 O39 2.658856 1_545
Nd13 O49 2.782066 1_555
Nd13 O50 2.980621 1_555
Nd13 O31 3.029829 1_655
Nd13 O72 3.029829 1_545
Nd14 O15 2.339527 1_645
Nd14 O91 2.362897 1_655
Nd14 O41 2.362897 1_545
Nd14 O53 2.491808 1_555
Nd14 O34 2.500384 1_555
Nd14 O73 2.500384 1_555
Nd14 O0 2.848263 1_555
Nd15 O12 2.445313 1_645
Nd15 O32 2.472100 1_555
Nd15 O71 2.472100 1_555
Nd15 O86 2.529661 1_645
Nd15 O4 2.529968 1_655
Nd15 O64 2.529968 1_545
Nd15 O89 2.658856 1_655
Nd15 O38 2.658856 1_545
Nd15 O48 2.782066 1_555
Nd15 O47 2.980621 1_555
Nd15 O32 3.029829 1_655
Nd15 O71 3.029829 1_545
Nd16 O16 2.396463 1_555
Nd16 O42 2.455298 1_555
Nd16 O92 2.455298 1_555
Nd16 O33 2.492266 1_555
Nd16 O74 2.492266 1_555
Nd16 O1 2.611073 1_645
Nd16 O65 2.718467 1_555
Nd16 O7 2.718467 1_555
Nd17 O17 2.384939 1_555
Nd17 O35 2.432194 1_555
Nd17 O75 2.432194 1_555
Nd17 O93 2.534584 1_655
Nd17 O43 2.534584 1_545
Nd17 O18 2.665965 1_645
Nd17 O56 2.712624 1_555
Nd17 O8 2.913187 1_555
Nd17 O67 2.913187 1_555
Nd18 O20 2.384939 1_555
Nd18 O36 2.432194 1_555
Nd18 O76 2.432194 1_555
Nd18 O9 2.534584 1_655
Nd18 O66 2.534584 1_545
Nd18 O19 2.665965 1_645
Nd18 O58 2.712624 1_555
Nd18 O94 2.913187 1_555
Nd18 O44 2.913187 1_555
Nd19 O59 2.467011 1_555
Nd19 O57 2.467011 1_555
Nd19 O27 2.477283 1_655
Nd19 O83 2.477283 1_545
Nd19 O8 2.639902 1_555
Nd19 O94 2.639902 1_555
Nd19 O44 2.639902 1_555
Nd19 O67 2.639902 1_555
Nd20 O55 2.392426 1_555
Nd20 O26 2.460072 1_655
Nd20 O82 2.460072 1_545
Nd20 O7 2.461415 1_555
Nd20 O65 2.461415 1_555
Nd20 O56 2.563792 1_555
Nd21 O60 2.392426 1_555
Nd21 O28 2.460072 1_655
Nd21 O84 2.460072 1_545
Nd21 O95 2.461415 1_555
Nd21 O68 2.461415 1_555
Nd21 O58 2.563792 1_555
O0 Ti6 1.968114 1_655
O0 Ti21 1.968114 1_545
O1 Ti22 2.005200 1_455
O1 Ti8 2.005200 1_565
O2 Ti16 1.974363 1_555
O2 Ti0 2.042001 1_655
O3 Ti1 2.039873 1_555
O3 Ti17 2.046339 1_455
O4 Ti2 1.992009 1_555
O4 Ti18 1.995791 1_455
O5 Ti4 1.933508 1_555
O5 Ti19 1.975821 1_455
O6 Ti6 1.950241 1_555
O6 Ti21 1.978987 1_455
O7 Ti22 1.944084 1_555
O7 Ti8 1.971491 1_655
O8 Ti10 1.949478 1_655
O8 Ti23 1.953733 1_555
O9 Ti12 1.990123 1_555
O9 Ti27 1.996722 1_455
O10 Ti16 2.031646 1_545
O10 Ti0 2.031646 1_655
O11 Ti17 2.057962 1_455
O11 Ti1 2.057962 1_565
O12 Ti18 2.026077 1_455
O12 Ti2 2.026077 1_565
O13 Ti25 2.026077 1_455
O13 Ti7 2.026077 1_565
O14 Ti19 2.000515 1_455
O14 Ti4 2.000515 1_565
O15 Ti26 2.057962 1_455
O15 Ti9 2.057962 1_565
O16 Ti28 2.031646 1_545
O16 Ti11 2.031646 1_655
O17 Ti13 2.010832 1_655
O17 Ti29 2.010836 1_545
O18 Ti23 1.975708 1_455
O18 Ti10 1.975708 1_565
O19 Ti30 1.975708 1_455
O19 Ti14 1.975708 1_565
O20 Ti12 2.010832 1_655
O20 Ti27 2.010836 1_545
O21 Ti0 1.741664 1_555
O21 Ti3 2.271107 1_555
O22 Ti1 1.681433 1_555
O22 Ti5 2.040996 1_555
O23 Ti2 1.820225 1_555
O23 Ti7 1.820225 1_555
O24 Ti9 1.681433 1_555
O24 Ti4 2.040996 1_555
O25 Ti11 1.741664 1_555
O25 Ti6 2.271107 1_555
O26 Ti13 1.816290 1_555
O26 Ti8 2.112084 1_555
O27 Ti14 2.075656 1_555
O27 Ti10 2.075656 1_555
O28 Ti12 1.816290 1_555
O28 Ti15 2.112084 1_555
O29 Ti15 1.878399 1_555
O29 Ti0 2.358085 1_556
O30 Ti3 1.789217 1_555
O31 Ti4 1.937433 1_555
O31 Ti7 2.223479 1_555
O32 Ti5 1.937433 1_555
O32 Ti2 2.223479 1_555
O33 Ti8 1.878399 1_555
O33 Ti11 2.358085 1_555
O34 Ti6 1.789217 1_555
O35 Ti10 1.967171 1_555
O35 Ti13 2.306988 1_555
O36 Ti14 1.967171 1_555
O36 Ti12 2.306988 1_555
O37 Ti0 1.974363 1_555
O37 Ti16 2.042001 1_545
O38 Ti24 1.933508 1_555
O38 Ti5 1.975821 1_565
O39 Ti19 1.933508 1_555
O39 Ti4 1.975821 1_565
O40 Ti21 1.950241 1_555
O40 Ti6 1.978987 1_565
O41 Ti26 2.039873 1_555
O41 Ti9 2.046339 1_565
O42 Ti11 1.974363 1_555
O42 Ti28 2.042001 1_545
O43 Ti29 1.990127 1_555
O43 Ti13 1.996726 1_565
O44 Ti30 1.949478 1_545
O44 Ti14 1.953733 1_555
O45 Ti16 1.953186 1_555
O45 Ti0 1.953186 1_555
O46 Ti17 1.984920 1_555
O46 Ti1 1.984920 1_555
O47 Ti5 1.915216 1_555
O47 Ti24 1.915216 1_555
O48 Ti2 1.923774 1_555
O48 Ti18 1.923774 1_555
O49 Ti7 1.923774 1_555
O49 Ti25 1.923774 1_555
O50 Ti4 1.915216 1_555
O50 Ti19 1.915216 1_555
O51 Ti3 1.980433 1_555
O51 Ti20 1.980433 1_555
O52 Ti6 1.980433 1_555
O52 Ti21 1.980433 1_555
O53 Ti26 1.984920 1_555
O53 Ti9 1.984920 1_555
O54 Ti28 1.953186 1_555
O54 Ti11 1.953186 1_555
O55 Ti22 1.948038 1_555
O55 Ti8 1.948038 1_555
O56 Ti29 1.953818 1_555
O56 Ti13 1.953822 1_555
O57 Ti30 2.014766 1_555
O57 Ti14 2.014766 1_555
O58 Ti27 1.953818 1_555
O58 Ti12 1.953822 1_555
O59 Ti23 2.014766 1_555
O59 Ti10 2.014766 1_555
O60 Ti31 1.948038 1_555
O60 Ti15 1.948038 1_555
O61 Ti20 1.950241 1_555
O61 Ti3 1.978987 1_565
O62 Ti17 2.039873 1_555
O62 Ti1 2.046339 1_565
O63 Ti25 1.992009 1_555
O63 Ti7 1.995791 1_565
O64 Ti18 1.992009 1_555
O64 Ti2 1.995791 1_565
O65 Ti8 1.944084 1_555
O65 Ti22 1.971491 1_545
O66 Ti27 1.990127 1_555
O66 Ti12 1.996726 1_565
O67 Ti23 1.949478 1_545
O67 Ti10 1.953733 1_555
O68 Ti15 1.944084 1_555
O68 Ti31 1.971491 1_545
O69 Ti31 1.878399 1_555
O69 Ti16 2.358085 1_556
O70 Ti20 1.789217 1_555
O71 Ti24 1.937433 1_555
O71 Ti18 2.223479 1_555
O72 Ti19 1.937433 1_555
O72 Ti25 2.223479 1_555
O73 Ti21 1.789217 1_555
O74 Ti22 1.878399 1_555
O74 Ti28 2.358085 1_555
O75 Ti23 1.967171 1_555
O75 Ti29 2.306988 1_555
O76 Ti30 1.967171 1_555
O76 Ti27 2.306988 1_555
O77 Ti16 1.741664 1_555
O77 Ti20 2.271107 1_555
O78 Ti17 1.681433 1_555
O78 Ti24 2.040996 1_555
O79 Ti18 1.820225 1_555
O79 Ti25 1.820225 1_555
O80 Ti26 1.681433 1_555
O80 Ti19 2.040996 1_555
O81 Ti28 1.741664 1_555
O81 Ti21 2.271107 1_555
O82 Ti29 1.816291 1_555
O82 Ti22 2.112084 1_555
O83 Ti23 2.075656 1_555
O83 Ti30 2.075656 1_555
O84 Ti27 1.816291 1_555
O84 Ti31 2.112084 1_555
O85 Ti3 1.968114 1_655
O85 Ti20 1.968114 1_545
O86 Ti24 2.000515 1_455
O86 Ti5 2.000515 1_565
O87 Ti31 2.005200 1_455
O87 Ti15 2.005200 1_565
O88 Ti3 1.950241 1_555
O88 Ti20 1.978987 1_455
O89 Ti5 1.933508 1_555
O89 Ti24 1.975821 1_455
O90 Ti7 1.992009 1_555
O90 Ti25 1.995791 1_455
O91 Ti9 2.039873 1_555
O91 Ti26 2.046339 1_455
O92 Ti28 1.974363 1_555
O92 Ti11 2.042001 1_655
O93 Ti13 1.990123 1_555
O93 Ti29 1.996722 1_455
O94 Ti14 1.949478 1_655
O94 Ti30 1.953733 1_555
O95 Ti31 1.944084 1_555
O95 Ti15 1.971491 1_655
