# generated using pymatgen
data_AlBi2Te2BrCl4
_symmetry_space_group_name_H-M   'P 1'
_cell_length_a   11.65520767
_cell_length_b   11.65520767
_cell_length_c   13.77818666
_cell_angle_alpha   81.59185824
_cell_angle_beta   81.59185824
_cell_angle_gamma   43.82232697
_symmetry_Int_Tables_number   1
_chemical_formula_structural   AlBi2Te2BrCl4
_chemical_formula_sum   'Al4 Bi8 Te8 Br4 Cl16'
_cell_volume   1279.80049127
_cell_formula_units_Z   4
loop_
 _symmetry_equiv_pos_site_id
 _symmetry_equiv_pos_as_xyz
  1  'x, y, z'
loop_
 _atom_site_type_symbol
 _atom_site_label
 _atom_site_symmetry_multiplicity
 _atom_site_fract_x
 _atom_site_fract_y
 _atom_site_fract_z
 _atom_site_occupancy
  Al  Al0  1  0.61019300  0.85566200  0.82653800  1
  Al  Al1  1  0.14433800  0.38980700  0.67346200  1
  Al  Al2  1  0.38980700  0.14433800  0.17346200  1
  Al  Al3  1  0.85566200  0.61019300  0.32653800  1
  Bi  Bi0  1  0.68840400  0.44474000  0.88960800  1
  Bi  Bi1  1  0.55526000  0.31159600  0.61039200  1
  Bi  Bi2  1  0.31159600  0.55526000  0.11039200  1
  Bi  Bi3  1  0.44474000  0.68840400  0.38960800  1
  Bi  Bi4  1  0.81097500  0.06695200  0.11080900  1
  Bi  Bi5  1  0.93304800  0.18902500  0.38919100  1
  Bi  Bi6  1  0.18902500  0.93304800  0.88919100  1
  Bi  Bi7  1  0.06695200  0.81097500  0.61080900  1
  Te  Te0  1  0.55482400  0.30110300  0.95990200  1
  Te  Te1  1  0.69889700  0.44517600  0.54009800  1
  Te  Te2  1  0.44517600  0.69889700  0.04009800  1
  Te  Te3  1  0.30110300  0.55482400  0.45990200  1
  Te  Te4  1  0.95444200  0.20106500  0.03483700  1
  Te  Te5  1  0.79893500  0.04555800  0.46516300  1
  Te  Te6  1  0.04555800  0.79893500  0.96516300  1
  Te  Te7  1  0.20106500  0.95444200  0.53483700  1
  Br  Br0  1  0.12463300  0.87536700  0.25000000  1
  Br  Br1  1  0.87536700  0.12463300  0.75000000  1
  Br  Br2  1  0.62537600  0.37462400  0.25000000  1
  Br  Br3  1  0.37462400  0.62537600  0.75000000  1
  Cl  Cl0  1  0.79255100  0.63572500  0.91833800  1
  Cl  Cl1  1  0.36427500  0.20744900  0.58166200  1
  Cl  Cl2  1  0.20744900  0.36427500  0.08166200  1
  Cl  Cl3  1  0.63572500  0.79255100  0.41833800  1
  Cl  Cl4  1  0.37439700  0.04034800  0.90836900  1
  Cl  Cl5  1  0.95965200  0.62560300  0.59163100  1
  Cl  Cl6  1  0.62560300  0.95965200  0.09163100  1
  Cl  Cl7  1  0.04034800  0.37439700  0.40836900  1
  Cl  Cl8  1  0.55793400  0.78316200  0.71961800  1
  Cl  Cl9  1  0.21683800  0.44206600  0.78038200  1
  Cl  Cl10  1  0.44206600  0.21683800  0.28038200  1
  Cl  Cl11  1  0.78316200  0.55793400  0.21961800  1
  Cl  Cl12  1  0.70324100  0.96034900  0.76934000  1
  Cl  Cl13  1  0.03965100  0.29675900  0.73066000  1
  Cl  Cl14  1  0.29675900  0.03965100  0.23066000  1
  Cl  Cl15  1  0.96034900  0.70324100  0.26934000  1
loop_
_geom_bond_atom_site_label_1
_geom_bond_atom_site_label_2
_geom_bond_distance
_geom_bond_site_symmetry_2
Al0 Cl8 2.150433 1_555
Al0 Cl12 2.159682 1_555
Al0 Cl0 2.159736 1_555
Al0 Cl4 2.173671 1_565
Al1 Cl9 2.150433 1_555
Al1 Cl13 2.159682 1_555
Al1 Cl1 2.159736 1_555
Al1 Cl5 2.173671 1_455
Al2 Cl10 2.150433 1_555
Al2 Cl14 2.159682 1_555
Al2 Cl2 2.159736 1_555
Al2 Cl6 2.173671 1_545
Al3 Cl11 2.150433 1_555
Al3 Cl15 2.159682 1_555
Al3 Cl3 2.159736 1_555
Al3 Cl7 2.173671 1_655
Bi0 Te0 3.001756 1_555
Bi0 Te2 3.011712 1_556
Bi0 Te4 3.021543 1_556
Bi0 Cl0 3.298823 1_555
Bi0 Br3 3.357077 1_555
Bi0 Br1 3.392594 1_555
Bi1 Te1 3.001756 1_555
Bi1 Te3 3.011712 1_555
Bi1 Te5 3.021543 1_555
Bi1 Cl1 3.298823 1_555
Bi1 Br3 3.357077 1_555
Bi1 Br1 3.392594 1_555
Bi2 Te2 3.001756 1_555
Bi2 Te0 3.011712 1_554
Bi2 Te6 3.021543 1_554
Bi2 Cl2 3.298823 1_555
Bi2 Br2 3.357077 1_555
Bi2 Br0 3.392594 1_555
Bi3 Te3 3.001756 1_555
Bi3 Te1 3.011712 1_555
Bi3 Te7 3.021543 1_555
Bi3 Cl3 3.298823 1_555
Bi3 Br2 3.357077 1_555
Bi3 Br0 3.392594 1_555
Bi4 Te0 3.013840 1_554
Bi4 Te4 3.019317 1_555
Bi4 Te6 3.027363 1_644
Bi4 Cl6 3.234861 1_545
Bi4 Br2 3.289551 1_555
Bi4 Br0 3.323746 1_645
Bi5 Te1 3.013840 1_555
Bi5 Te5 3.019317 1_555
Bi5 Te7 3.027363 1_645
Bi5 Cl7 3.234861 1_655
Bi5 Br2 3.289551 1_555
Bi5 Br0 3.323746 1_645
Bi6 Te2 3.013840 1_556
Bi6 Te6 3.019317 1_555
Bi6 Te4 3.027363 1_466
Bi6 Cl4 3.234861 1_565
Bi6 Br3 3.289551 1_555
Bi6 Br1 3.323746 1_465
Bi7 Te3 3.013840 1_555
Bi7 Te7 3.019317 1_555
Bi7 Te5 3.027363 1_465
Bi7 Cl5 3.234861 1_455
Bi7 Br3 3.289551 1_555
Bi7 Br1 3.323746 1_465
