# generated using pymatgen
data_KAlF4
_symmetry_space_group_name_H-M   'P 1'
_cell_length_a   7.23656878
_cell_length_b   8.19352839
_cell_length_c   11.76531343
_cell_angle_alpha   90.00000000
_cell_angle_beta   90.00000000
_cell_angle_gamma   90.00000000
_symmetry_Int_Tables_number   1
_chemical_formula_structural   KAlF4
_chemical_formula_sum   'K8 Al8 F32'
_cell_volume   697.60110270
_cell_formula_units_Z   8
loop_
 _symmetry_equiv_pos_site_id
 _symmetry_equiv_pos_as_xyz
  1  'x, y, z'
loop_
 _atom_site_type_symbol
 _atom_site_label
 _atom_site_symmetry_multiplicity
 _atom_site_fract_x
 _atom_site_fract_y
 _atom_site_fract_z
 _atom_site_occupancy
  K  K0  1  0.75000000  0.92734705  0.89598851  1
  K  K1  1  0.75000000  0.42734705  0.60401149  1
  K  K2  1  0.25000000  0.07265295  0.10401149  1
  K  K3  1  0.25000000  0.57265295  0.39598851  1
  K  K4  1  0.75000000  0.87253282  0.25068328  1
  K  K5  1  0.75000000  0.37253282  0.24931672  1
  K  K6  1  0.25000000  0.12746718  0.74931672  1
  K  K7  1  0.25000000  0.62746718  0.75068328  1
  Al  Al0  1  0.50294369  0.36799182  0.91699862  1
  Al  Al1  1  0.99705631  0.86799182  0.58300138  1
  Al  Al2  1  0.00294369  0.63200818  0.08300138  1
  Al  Al3  1  0.49705631  0.13200818  0.41699862  1
  Al  Al4  1  0.49705631  0.63200818  0.08300138  1
  Al  Al5  1  0.00294369  0.13200818  0.41699862  1
  Al  Al6  1  0.99705631  0.36799182  0.91699862  1
  Al  Al7  1  0.50294369  0.86799182  0.58300138  1
  F  F0  1  0.49299541  0.40366459  0.07268993  1
  F  F1  1  0.00700459  0.90366459  0.42731007  1
  F  F2  1  0.99299541  0.59633541  0.92731007  1
  F  F3  1  0.50700459  0.09633541  0.57268993  1
  F  F4  1  0.50700459  0.59633541  0.92731007  1
  F  F5  1  0.99299541  0.09633541  0.57268993  1
  F  F6  1  0.00700459  0.40366459  0.07268993  1
  F  F7  1  0.49299541  0.90366459  0.42731007  1
  F  F8  1  0.49904581  0.37771696  0.76871465  1
  F  F9  1  0.00095419  0.87771696  0.73128535  1
  F  F10  1  -0.00095419  0.62228304  0.23128535  1
  F  F11  1  0.50095419  0.12228304  0.26871465  1
  F  F12  1  0.50095419  0.62228304  0.23128535  1
  F  F13  1  -0.00095419  0.12228304  0.26871465  1
  F  F14  1  0.00095419  0.37771696  0.76871465  1
  F  F15  1  0.49904581  0.87771696  0.73128535  1
  F  F16  1  0.48432756  0.15718207  0.93067054  1
  F  F17  1  0.01567244  0.65718207  0.56932946  1
  F  F18  1  0.98432756  0.84281793  0.06932946  1
  F  F19  1  0.51567244  0.34281793  0.43067054  1
  F  F20  1  0.51567244  0.84281793  0.06932946  1
  F  F21  1  0.98432756  0.34281793  0.43067054  1
  F  F22  1  0.01567244  0.15718207  0.93067054  1
  F  F23  1  0.48432756  0.65718207  0.56932946  1
  F  F24  1  0.25000000  0.38491081  0.91654383  1
  F  F25  1  0.25000000  0.88491081  0.58345617  1
  F  F26  1  0.75000000  0.61508919  0.08345617  1
  F  F27  1  0.75000000  0.11508919  0.41654383  1
  F  F28  1  0.75000000  0.36292301  0.92411665  1
  F  F29  1  0.75000000  0.86292301  0.57588335  1
  F  F30  1  0.25000000  0.63707699  0.07588335  1
  F  F31  1  0.25000000  0.13707699  0.42411665  1
loop_
_geom_bond_atom_site_label_1
_geom_bond_atom_site_label_2
_geom_bond_distance
_geom_bond_site_symmetry_2
Al0 F16 1.739972 1_555
Al0 F8 1.746654 1_555
Al0 F28 1.790282 1_555
Al0 F24 1.835694 1_555
Al0 F0 1.856326 1_556
Al0 F4 1.875099 1_555
Al1 F17 1.739972 1_655
Al1 F9 1.746654 1_655
Al1 F29 1.790282 1_555
Al1 F25 1.835694 1_655
Al1 F1 1.856326 1_655
Al1 F5 1.875099 1_565
Al2 F18 1.739972 1_455
Al2 F10 1.746654 1_555
Al2 F30 1.790282 1_555
Al2 F26 1.835694 1_455
Al2 F2 1.856326 1_454
Al2 F6 1.875099 1_555
Al3 F19 1.739972 1_555
Al3 F11 1.746654 1_555
Al3 F31 1.790282 1_555
Al3 F27 1.835694 1_555
Al3 F3 1.856326 1_555
Al3 F7 1.875099 1_545
Al4 F20 1.739972 1_555
Al4 F12 1.746654 1_555
Al4 F30 1.790282 1_555
Al4 F26 1.835694 1_555
Al4 F4 1.856326 1_554
Al4 F0 1.875099 1_555
Al5 F21 1.739972 1_455
Al5 F13 1.746654 1_555
Al5 F31 1.790282 1_555
Al5 F27 1.835694 1_455
Al5 F5 1.856326 1_455
Al5 F1 1.875099 1_545
Al6 F22 1.739972 1_655
Al6 F14 1.746654 1_655
Al6 F28 1.790282 1_555
Al6 F24 1.835694 1_655
Al6 F6 1.856326 1_656
Al6 F2 1.875099 1_555
Al7 F23 1.739972 1_555
Al7 F15 1.746654 1_555
Al7 F29 1.790282 1_555
Al7 F25 1.835694 1_555
Al7 F7 1.856326 1_555
Al7 F3 1.875099 1_565
F0 K5 2.800431 1_555
F1 K4 2.800431 1_455
F2 K7 2.800431 1_655
F3 K6 2.800431 1_555
F4 K7 2.800431 1_555
F5 K6 2.800431 1_655
F6 K5 2.800431 1_455
F7 K4 2.800431 1_555
F8 K1 2.686707 1_555
F8 K7 2.735060 1_555
F8 K6 2.739416 1_555
F9 K0 2.686707 1_455
F9 K6 2.735060 1_565
F9 K7 2.739416 1_555
F10 K3 2.686707 1_555
F10 K5 2.735060 1_455
F10 K4 2.739416 1_455
F11 K2 2.686707 1_555
F11 K4 2.735060 1_545
F11 K5 2.739416 1_555
F12 K3 2.686707 1_555
F12 K5 2.735060 1_555
F12 K4 2.739416 1_555
F13 K2 2.686707 1_555
F13 K4 2.735060 1_445
F13 K5 2.739416 1_455
F14 K1 2.686707 1_455
F14 K7 2.735060 1_555
F14 K6 2.739416 1_555
F15 K0 2.686707 1_555
F15 K6 2.735060 1_565
F15 K7 2.739416 1_555
F16 K0 2.721951 1_545
F16 K6 2.736308 1_555
F16 K2 2.741235 1_556
F17 K1 2.721951 1_455
F17 K7 2.736308 1_555
F17 K3 2.741235 1_555
F18 K2 2.721951 1_665
F18 K4 2.736308 1_555
F18 K0 2.741235 1_554
F19 K3 2.721951 1_555
F19 K5 2.736308 1_555
F19 K1 2.741235 1_555
F20 K2 2.721951 1_565
F20 K4 2.736308 1_555
F20 K0 2.741235 1_554
F21 K3 2.721951 1_655
F21 K5 2.736308 1_555
F21 K1 2.741235 1_555
F22 K0 2.721951 1_445
F22 K6 2.736308 1_555
F22 K2 2.741235 1_556
F23 K1 2.721951 1_555
F23 K7 2.736308 1_555
F23 K3 2.741235 1_555
F24 K7 2.785264 1_555
F24 K6 2.884515 1_555
F25 K6 2.785264 1_565
F25 K7 2.884515 1_555
F26 K5 2.785264 1_555
F26 K4 2.884515 1_555
F27 K4 2.785264 1_545
F27 K5 2.884515 1_555
