# generated using pymatgen
data_Li9Mn2Co5O16
_symmetry_space_group_name_H-M   'P 1'
_cell_length_a   5.04847100
_cell_length_b   5.09736275
_cell_length_c   11.20098692
_cell_angle_alpha   81.00880586
_cell_angle_beta   86.34578639
_cell_angle_gamma   81.26877670
_symmetry_Int_Tables_number   1
_chemical_formula_structural   Li9Mn2Co5O16
_chemical_formula_sum   'Li9 Mn2 Co5 O16'
_cell_volume   281.16732727
_cell_formula_units_Z   1
loop_
 _symmetry_equiv_pos_site_id
 _symmetry_equiv_pos_as_xyz
  1  'x, y, z'
loop_
 _atom_site_type_symbol
 _atom_site_label
 _atom_site_symmetry_multiplicity
 _atom_site_fract_x
 _atom_site_fract_y
 _atom_site_fract_z
 _atom_site_occupancy
  Li  Li0  1  0.73456300  0.56709300  0.93412100  1
  Li  Li1  1  0.25493300  0.43798600  0.06785900  1
  Li  Li2  1  0.26586800  0.68537500  0.80596900  1
  Li  Li3  1  0.74196000  0.81372100  0.68301300  1
  Li  Li4  1  0.25600800  0.93795800  0.55853900  1
  Li  Li5  1  0.75087900  0.05522200  0.43474300  1
  Li  Li6  1  0.24311900  0.18720000  0.31755400  1
  Li  Li7  1  0.75431100  0.31604400  0.19757200  1
  Li  Li8  1  0.00081500  0.74613100  0.25435700  1
  Mn  Mn0  1  0.99834100  0.99986600  0.99965000  1
  Mn  Mn1  1  0.49987100  0.87436900  0.12804600  1
  Co  Co0  1  0.50425000  0.62552100  0.37588800  1
  Co  Co1  1  0.99973000  0.50233700  0.50003500  1
  Co  Co2  1  0.49595100  0.37569400  0.62118500  1
  Co  Co3  1  0.00298700  0.25023300  0.74888300  1
  Co  Co4  1  0.49911900  0.12361200  0.87460700  1
  O  O0  1  0.13544200  0.31000200  0.90084500  1
  O  O1  1  0.63994700  0.19215000  0.02564300  1
  O  O2  1  0.61244900  0.43904800  0.78438400  1
  O  O3  1  0.11883100  0.57075900  0.65666600  1
  O  O4  1  0.61914400  0.71153700  0.53283600  1
  O  O5  1  0.13744700  0.80448200  0.41116800  1
  O  O6  1  0.60602000  0.96437400  0.27076900  1
  O  O7  1  0.14394200  0.08145300  0.14146100  1
  O  O8  1  0.35903900  0.80961700  0.97152200  1
  O  O9  1  0.85497200  0.69408000  0.08569000  1
  O  O10  1  0.85926900  0.93540300  0.84883400  1
  O  O11  1  0.38096300  0.04177900  0.72888200  1
  O  O12  1  0.88333300  0.18690800  0.59968400  1
  O  O13  1  0.38833200  0.28387400  0.47446500  1
  O  O14  1  0.86305500  0.41876900  0.35438000  1
  O  O15  1  0.39510900  0.55740200  0.21075000  1
loop_
_geom_bond_atom_site_label_1
_geom_bond_atom_site_label_2
_geom_bond_distance
_geom_bond_site_symmetry_2
Li0 O2 2.053095 1_555
Li0 O9 2.065255 1_556
Li0 O1 2.129362 1_556
Li0 O10 2.134297 1_555
Li0 O8 2.155693 1_555
Li0 O0 2.281114 1_655
Li1 O15 2.003164 1_555
Li1 O7 2.019523 1_555
Li1 O8 2.149463 1_554
Li1 O1 2.213720 1_555
Li1 O0 2.221238 1_554
Li1 O9 2.247431 1_455
Li2 O2 2.017539 1_555
Li2 O11 2.037123 1_565
Li2 O3 2.069876 1_555
Li2 O8 2.151664 1_555
Li2 O0 2.209476 1_555
Li2 O10 2.310801 1_455
Li3 O4 1.997540 1_555
Li3 O11 2.088282 1_565
Li3 O3 2.137322 1_655
Li3 O12 2.184378 1_565
Li3 O10 2.190220 1_555
Li3 O2 2.229557 1_555
Li4 O5 2.036323 1_555
Li4 O4 2.042075 1_555
Li4 O13 2.049534 1_565
Li4 O12 2.170244 1_465
Li4 O3 2.201041 1_555
Li4 O11 2.211088 1_565
Li5 O14 2.072998 1_555
Li5 O13 2.077752 1_555
Li5 O4 2.092265 1_545
Li5 O6 2.159285 1_545
Li5 O5 2.189630 1_645
Li5 O12 2.234360 1_555
Li6 O6 2.086427 1_545
Li6 O13 2.100932 1_555
Li6 O14 2.146795 1_455
Li6 O5 2.189796 1_545
Li6 O7 2.229756 1_555
Li6 O15 2.279886 1_555
Li7 O14 2.039163 1_555
Li7 O15 2.041861 1_555
Li7 O6 2.077464 1_545
Li7 O9 2.236812 1_555
Li7 O7 2.248864 1_655
Li7 O1 2.252411 1_555
Li8 O5 2.007327 1_555
Li8 O14 2.047451 1_455
Li8 O15 2.137293 1_555
Li8 O9 2.138930 1_455
Li8 O6 2.141943 1_455
Li8 O7 2.150733 1_565
Mn0 O9 1.914754 1_556
Mn0 O7 1.919500 1_666
Mn0 O1 1.950077 1_566
Mn0 O8 1.960075 1_655
Mn0 O10 1.961973 1_555
Mn0 O0 1.972499 1_665
Mn1 O6 1.861828 1_555
Mn1 O15 1.864807 1_555
Mn1 O7 1.950634 1_565
Mn1 O9 1.952219 1_555
Mn1 O8 2.024660 1_554
Mn1 O1 2.025652 1_565
Co0 O14 1.973348 1_555
Co0 O5 1.980910 1_555
Co0 O4 2.016747 1_555
Co0 O6 2.047042 1_555
Co0 O13 2.054378 1_555
Co0 O15 2.057750 1_555
Co1 O5 1.898405 1_655
Co1 O14 1.941452 1_555
Co1 O12 1.954133 1_555
Co1 O3 1.987602 1_655
Co1 O4 2.091471 1_555
Co1 O13 2.129728 1_655
Co2 O13 1.909575 1_555
Co2 O4 2.003004 1_555
Co2 O2 2.042294 1_555
Co2 O3 2.055165 1_555
Co2 O12 2.061501 1_555
Co2 O11 2.063547 1_555
Co3 O12 1.902213 1_455
Co3 O3 1.940099 1_555
Co3 O0 1.950956 1_555
Co3 O10 2.010871 1_445
Co3 O11 2.055433 1_555
Co3 O2 2.101264 1_455
Co4 O11 1.899099 1_555
Co4 O2 1.905688 1_555
Co4 O10 1.949278 1_545
Co4 O0 1.961861 1_555
Co4 O1 1.975606 1_556
Co4 O8 1.985695 1_545
