# generated using pymatgen
data_Mg14ZnBi
_symmetry_space_group_name_H-M   'P 1'
_cell_length_a   6.34533790
_cell_length_b   6.50214630
_cell_length_c   10.36601889
_cell_angle_alpha   90.00000000
_cell_angle_beta   90.00000000
_cell_angle_gamma   120.82090769
_symmetry_Int_Tables_number   1
_chemical_formula_structural   Mg14ZnBi
_chemical_formula_sum   'Mg14 Zn1 Bi1'
_cell_volume   367.28387646
_cell_formula_units_Z   1
loop_
 _symmetry_equiv_pos_site_id
 _symmetry_equiv_pos_as_xyz
  1  'x, y, z'
loop_
 _atom_site_type_symbol
 _atom_site_label
 _atom_site_symmetry_multiplicity
 _atom_site_fract_x
 _atom_site_fract_y
 _atom_site_fract_z
 _atom_site_occupancy
  Mg  Mg0  1  0.16793830  0.33396865  0.62500000  1
  Mg  Mg1  1  0.16794978  0.83397439  0.62500000  1
  Mg  Mg2  1  0.66843262  0.33388701  0.12500000  1
  Mg  Mg3  1  0.66654690  0.33342306  0.62500000  1
  Mg  Mg4  1  0.66843262  0.83454461  0.12500000  1
  Mg  Mg5  1  0.66654690  0.83312284  0.62500000  1
  Mg  Mg6  1  0.33313720  0.17198481  0.37535592  1
  Mg  Mg7  1  0.33313720  0.17198481  0.87464408  1
  Mg  Mg8  1  0.33313720  0.66115339  0.37535592  1
  Mg  Mg9  1  0.33313720  0.66115339  0.87464408  1
  Mg  Mg10  1  0.83578193  0.16789147  0.37368801  1
  Mg  Mg11  1  0.83578193  0.16789147  0.87631199  1
  Mg  Mg12  1  0.82960244  0.66480172  0.37903468  1
  Mg  Mg13  1  0.82960244  0.66480172  0.87096532  1
  Zn  Zn0  1  0.16357735  0.33178818  0.12500000  1
  Bi  Bi0  1  0.16725799  0.83362849  0.12500000  1
loop_
_geom_bond_atom_site_label_1
_geom_bond_atom_site_label_2
_geom_bond_distance
_geom_bond_site_symmetry_2
Mg0 Mg5 3.165659 1_555
Mg0 Mg3 3.165659 1_555
Mg0 Mg6 3.168006 1_555
Mg0 Mg7 3.168006 1_555
Mg0 Mg8 3.168012 1_555
Mg0 Mg9 3.168012 1_555
Mg0 Mg10 3.172165 1_455
Mg0 Mg11 3.172165 1_455
Mg0 Mg5 3.179681 1_445
Mg0 Mg3 3.179682 1_455
Mg0 Mg1 3.251073 1_555
Mg0 Mg1 3.251073 1_545
Mg1 Mg12 3.146457 1_455
Mg1 Mg13 3.146457 1_455
Mg1 Mg3 3.166607 1_565
Mg1 Mg5 3.166608 1_555
Mg1 Mg3 3.178737 1_455
Mg1 Mg5 3.178737 1_455
Mg1 Mg8 3.203921 1_555
Mg1 Mg9 3.203921 1_555
Mg1 Mg6 3.203928 1_565
Mg1 Mg7 3.203928 1_565
Mg2 Zn0 3.148875 1_655
Mg2 Mg7 3.174067 1_554
Mg2 Mg6 3.174067 1_555
Mg2 Zn0 3.196507 1_555
Mg2 Mg4 3.246797 1_545
Mg2 Mg4 3.255349 1_555
Mg3 Mg6 3.162086 1_555
Mg3 Mg7 3.162086 1_555
Mg3 Mg5 3.249121 1_555
Mg3 Mg5 3.253025 1_545
Mg4 Zn0 3.148874 1_665
Mg4 Mg9 3.174066 1_554
Mg4 Mg8 3.174066 1_555
Mg4 Zn0 3.196506 1_555
Mg5 Mg8 3.162086 1_555
Mg5 Mg9 3.162086 1_555
Mg6 Mg8 3.180646 1_555
Mg6 Zn0 3.180857 1_555
Mg6 Mg8 3.321501 1_545
Mg7 Mg9 3.180646 1_555
Mg7 Zn0 3.180857 1_556
Mg7 Mg9 3.321501 1_545
Mg8 Zn0 3.180864 1_555
Mg9 Zn0 3.180864 1_556
Mg10 Zn0 3.136270 1_655
Mg10 Mg8 3.142381 1_655
Mg10 Mg6 3.142381 1_655
Mg10 Mg2 3.180030 1_555
Mg10 Mg4 3.180037 1_545
Mg10 Mg8 3.203215 1_545
Mg10 Mg6 3.203215 1_555
Mg10 Mg3 3.206640 1_555
Mg10 Mg5 3.206646 1_545
Mg10 Mg12 3.251720 1_555
Mg10 Mg12 3.251720 1_545
Mg11 Zn0 3.136270 1_656
Mg11 Mg9 3.142381 1_655
Mg11 Mg7 3.142381 1_655
Mg11 Mg2 3.180030 1_556
Mg11 Mg4 3.180037 1_546
Mg11 Mg9 3.203215 1_545
Mg11 Mg7 3.203215 1_555
Mg11 Mg3 3.206640 1_555
Mg11 Mg5 3.206646 1_545
Mg11 Mg13 3.251720 1_555
Mg11 Mg13 3.251720 1_545
Mg12 Mg6 3.138383 1_555
Mg12 Mg8 3.138383 1_555
Mg12 Mg5 3.151115 1_555
Mg12 Mg3 3.151121 1_555
Mg12 Mg6 3.207543 1_665
Mg12 Mg8 3.207544 1_655
Mg12 Mg4 3.217925 1_555
Mg12 Mg2 3.217931 1_555
Mg13 Mg7 3.138383 1_555
Mg13 Mg9 3.138383 1_555
Mg13 Mg5 3.151115 1_555
Mg13 Mg3 3.151121 1_555
Mg13 Mg7 3.207543 1_665
Mg13 Mg9 3.207544 1_655
Mg13 Mg4 3.217925 1_556
Mg13 Mg2 3.217931 1_556
Bi0 Mg2 3.168271 1_455
Bi0 Mg4 3.168272 1_455
Bi0 Mg2 3.177074 1_565
Bi0 Mg4 3.177075 1_555
Bi0 Mg9 3.210943 1_554
Bi0 Mg8 3.210943 1_555
Bi0 Mg7 3.210950 1_564
Bi0 Mg6 3.210950 1_565
Bi0 Mg12 3.212452 1_455
Bi0 Mg13 3.212452 1_454
Bi0 Zn0 3.251135 1_555
Bi0 Zn0 3.251135 1_565
