# generated using pymatgen
data_U2(SiAu)3
_symmetry_space_group_name_H-M   'P 1'
_cell_length_a   5.36694800
_cell_length_b   5.36694800
_cell_length_c   43.73434800
_cell_angle_alpha   90.00000000
_cell_angle_beta   90.00000000
_cell_angle_gamma   90.00000000
_symmetry_Int_Tables_number   1
_chemical_formula_structural   U2(SiAu)3
_chemical_formula_sum   'U16 Si24 Au24'
_cell_volume   1259.72988176
_cell_formula_units_Z   8
loop_
 _symmetry_equiv_pos_site_id
 _symmetry_equiv_pos_as_xyz
  1  'x, y, z'
loop_
 _atom_site_type_symbol
 _atom_site_label
 _atom_site_symmetry_multiplicity
 _atom_site_fract_x
 _atom_site_fract_y
 _atom_site_fract_z
 _atom_site_occupancy
  U  U0_0  1  0.25000000  0.25000000  0.37150550  1
  U  U0_1  1  0.25000000  0.25000000  0.87150550  1
  U  U0_2  1  0.25000000  0.75000000  0.37150550  1
  U  U0_3  1  0.25000000  0.75000000  0.87150550  1
  U  U0_4  1  0.75000000  0.25000000  0.37150550  1
  U  U0_5  1  0.75000000  0.25000000  0.87150550  1
  U  U0_6  1  0.75000000  0.75000000  0.37150550  1
  U  U0_7  1  0.75000000  0.75000000  0.87150550  1
  U  U1_0  1  0.25000000  0.25000000  0.12849450  1
  U  U1_1  1  0.25000000  0.25000000  0.62849450  1
  U  U1_2  1  0.25000000  0.75000000  0.12849450  1
  U  U1_3  1  0.25000000  0.75000000  0.62849450  1
  U  U1_4  1  0.75000000  0.25000000  0.12849450  1
  U  U1_5  1  0.75000000  0.25000000  0.62849450  1
  U  U1_6  1  0.75000000  0.75000000  0.12849450  1
  U  U1_7  1  0.75000000  0.75000000  0.62849450  1
  Si  Si0_0  1  0.25000000  0.25000000  0.19303900  1
  Si  Si0_1  1  0.25000000  0.25000000  0.69303900  1
  Si  Si0_2  1  0.25000000  0.75000000  0.19303900  1
  Si  Si0_3  1  0.25000000  0.75000000  0.69303900  1
  Si  Si0_4  1  0.75000000  0.25000000  0.19303900  1
  Si  Si0_5  1  0.75000000  0.25000000  0.69303900  1
  Si  Si0_6  1  0.75000000  0.75000000  0.19303900  1
  Si  Si0_7  1  0.75000000  0.75000000  0.69303900  1
  Si  Si1_0  1  0.25000000  0.25000000  0.30696100  1
  Si  Si1_1  1  0.25000000  0.25000000  0.80696100  1
  Si  Si1_2  1  0.25000000  0.75000000  0.30696100  1
  Si  Si1_3  1  0.25000000  0.75000000  0.80696100  1
  Si  Si1_4  1  0.75000000  0.25000000  0.30696100  1
  Si  Si1_5  1  0.75000000  0.25000000  0.80696100  1
  Si  Si1_6  1  0.75000000  0.75000000  0.30696100  1
  Si  Si1_7  1  0.75000000  0.75000000  0.80696100  1
  Si  Si2_0  1  0.25000000  0.25000000  0.00000000  1
  Si  Si2_1  1  0.25000000  0.25000000  0.50000000  1
  Si  Si2_2  1  0.25000000  0.75000000  0.00000000  1
  Si  Si2_3  1  0.25000000  0.75000000  0.50000000  1
  Si  Si2_4  1  0.75000000  0.25000000  0.00000000  1
  Si  Si2_5  1  0.75000000  0.25000000  0.50000000  1
  Si  Si2_6  1  0.75000000  0.75000000  0.00000000  1
  Si  Si2_7  1  0.75000000  0.75000000  0.50000000  1
  Au  Au0_0  1  0.25000000  0.25000000  0.05881600  1
  Au  Au0_1  1  0.25000000  0.25000000  0.55881600  1
  Au  Au0_2  1  0.25000000  0.75000000  0.05881600  1
  Au  Au0_3  1  0.25000000  0.75000000  0.55881600  1
  Au  Au0_4  1  0.75000000  0.25000000  0.05881600  1
  Au  Au0_5  1  0.75000000  0.25000000  0.55881600  1
  Au  Au0_6  1  0.75000000  0.75000000  0.05881600  1
  Au  Au0_7  1  0.75000000  0.75000000  0.55881600  1
  Au  Au1_0  1  0.25000000  0.25000000  0.44118400  1
  Au  Au1_1  1  0.25000000  0.25000000  0.94118400  1
  Au  Au1_2  1  0.25000000  0.75000000  0.44118400  1
  Au  Au1_3  1  0.25000000  0.75000000  0.94118400  1
  Au  Au1_4  1  0.75000000  0.25000000  0.44118400  1
  Au  Au1_5  1  0.75000000  0.25000000  0.94118400  1
  Au  Au1_6  1  0.75000000  0.75000000  0.44118400  1
  Au  Au1_7  1  0.75000000  0.75000000  0.94118400  1
  Au  Au2_0  1  0.25000000  0.25000000  0.25000000  1
  Au  Au2_1  1  0.25000000  0.25000000  0.75000000  1
  Au  Au2_2  1  0.25000000  0.75000000  0.25000000  1
  Au  Au2_3  1  0.25000000  0.75000000  0.75000000  1
  Au  Au2_4  1  0.75000000  0.25000000  0.25000000  1
  Au  Au2_5  1  0.75000000  0.25000000  0.75000000  1
  Au  Au2_6  1  0.75000000  0.75000000  0.25000000  1
  Au  Au2_7  1  0.75000000  0.75000000  0.75000000  1
loop_
_geom_bond_atom_site_label_1
_geom_bond_atom_site_label_2
_geom_bond_distance
_geom_bond_site_symmetry_2
U0_0 U0_2 2.683474 1_545
U0_0 U0_4 2.683474 1_555
U0_0 U0_2 2.683474 1_555
U0_0 U0_4 2.683474 1_455
U0_1 U0_5 2.683474 1_455
U0_1 U0_3 2.683474 1_545
U0_1 U0_5 2.683474 1_555
U0_1 U0_3 2.683474 1_555
U0_2 U0_6 2.683474 1_555
U0_2 U0_6 2.683474 1_455
U0_3 U0_7 2.683474 1_455
U0_3 U0_7 2.683474 1_555
U0_4 U0_6 2.683474 1_555
U0_4 U0_6 2.683474 1_545
U0_5 U0_7 2.683474 1_545
U0_5 U0_7 2.683474 1_555
U1_0 U1_4 2.683474 1_455
U1_0 U1_4 2.683474 1_555
U1_0 U1_2 2.683474 1_555
U1_0 U1_2 2.683474 1_545
U1_1 U1_5 2.683474 1_555
U1_1 U1_3 2.683474 1_555
U1_1 U1_3 2.683474 1_545
U1_1 U1_5 2.683474 1_455
U1_2 U1_6 2.683474 1_455
U1_2 U1_6 2.683474 1_555
U1_3 U1_7 2.683474 1_455
U1_3 U1_7 2.683474 1_555
U1_4 U1_6 2.683474 1_545
U1_4 U1_6 2.683474 1_555
U1_5 U1_7 2.683474 1_555
U1_5 U1_7 2.683474 1_545
Si0_0 Si0_2 2.683474 1_545
Si0_0 Si0_2 2.683474 1_555
Si0_0 Si0_4 2.683474 1_455
Si0_0 Si0_4 2.683474 1_555
Si0_0 U1_0 2.822812 1_555
Si0_1 Si0_3 2.683474 1_555
Si0_1 Si0_5 2.683474 1_455
Si0_1 Si0_5 2.683474 1_555
Si0_1 Si0_3 2.683474 1_545
Si0_1 U1_1 2.822812 1_555
Si0_2 Si0_6 2.683474 1_455
Si0_2 Si0_6 2.683474 1_555
Si0_2 U1_2 2.822812 1_555
Si0_3 Si0_7 2.683474 1_555
Si0_3 Si0_7 2.683474 1_455
Si0_3 U1_3 2.822812 1_555
Si0_4 Si0_6 2.683474 1_545
Si0_4 Si0_6 2.683474 1_555
Si0_4 U1_4 2.822812 1_555
Si0_5 Si0_7 2.683474 1_555
Si0_5 Si0_7 2.683474 1_545
Si0_5 U1_5 2.822812 1_555
Si0_6 U1_6 2.822812 1_555
Si0_7 U1_7 2.822812 1_555
Si1_0 Si1_2 2.683474 1_555
Si1_0 Si1_2 2.683474 1_545
Si1_0 Si1_4 2.683474 1_455
Si1_0 Si1_4 2.683474 1_555
Si1_0 U0_0 2.822812 1_555
Si1_1 Si1_3 2.683474 1_555
Si1_1 Si1_3 2.683474 1_545
Si1_1 Si1_5 2.683474 1_455
Si1_1 Si1_5 2.683474 1_555
Si1_1 U0_1 2.822812 1_555
Si1_2 Si1_6 2.683474 1_555
Si1_2 Si1_6 2.683474 1_455
Si1_2 U0_2 2.822812 1_555
Si1_3 Si1_7 2.683474 1_455
Si1_3 Si1_7 2.683474 1_555
Si1_3 U0_3 2.822812 1_555
Si1_4 Si1_6 2.683474 1_545
Si1_4 Si1_6 2.683474 1_555
Si1_4 U0_4 2.822812 1_555
Si1_5 Si1_7 2.683474 1_555
Si1_5 Si1_7 2.683474 1_545
Si1_5 U0_5 2.822812 1_555
Si1_6 U0_6 2.822812 1_555
Si1_7 U0_7 2.822812 1_555
Au0_0 Si2_0 2.572279 1_555
Au0_0 Au0_4 2.683474 1_555
Au0_0 Au0_2 2.683474 1_545
Au0_0 Au0_2 2.683474 1_555
Au0_0 Au0_4 2.683474 1_455
Au0_0 U1_0 3.047344 1_555
Au0_1 Si2_1 2.572279 1_555
Au0_1 Au0_3 2.683474 1_555
Au0_1 Au0_3 2.683474 1_545
Au0_1 Au0_5 2.683474 1_455
Au0_1 Au0_5 2.683474 1_555
Au0_1 U1_1 3.047344 1_555
Au0_2 Si2_2 2.572279 1_555
Au0_2 Au0_6 2.683474 1_555
Au0_2 Au0_6 2.683474 1_455
Au0_2 U1_2 3.047344 1_555
Au0_3 Si2_3 2.572279 1_555
Au0_3 Au0_7 2.683474 1_555
Au0_3 Au0_7 2.683474 1_455
Au0_3 U1_3 3.047344 1_555
Au0_4 Si2_4 2.572279 1_555
Au0_4 Au0_6 2.683474 1_555
Au0_4 Au0_6 2.683474 1_545
Au0_4 U1_4 3.047344 1_555
Au0_5 Si2_5 2.572279 1_555
Au0_5 Au0_7 2.683474 1_555
Au0_5 Au0_7 2.683474 1_545
Au0_5 U1_5 3.047344 1_555
Au0_6 Si2_6 2.572279 1_555
Au0_6 U1_6 3.047344 1_555
Au0_7 Si2_7 2.572279 1_555
Au0_7 U1_7 3.047344 1_555
Au1_0 Si2_1 2.572279 1_555
Au1_0 Au1_4 2.683474 1_555
Au1_0 Au1_2 2.683474 1_545
Au1_0 Au1_2 2.683474 1_555
Au1_0 Au1_4 2.683474 1_455
Au1_0 U0_0 3.047344 1_555
Au1_1 Si2_0 2.572279 1_556
Au1_1 Au1_5 2.683474 1_455
Au1_1 Au1_5 2.683474 1_555
Au1_1 Au1_3 2.683474 1_555
Au1_1 Au1_3 2.683474 1_545
Au1_1 U0_1 3.047344 1_555
Au1_2 Si2_3 2.572279 1_555
Au1_2 Au1_6 2.683474 1_455
Au1_2 Au1_6 2.683474 1_555
Au1_2 U0_2 3.047344 1_555
Au1_3 Si2_2 2.572279 1_556
Au1_3 Au1_7 2.683474 1_455
Au1_3 Au1_7 2.683474 1_555
Au1_3 U0_3 3.047344 1_555
Au1_4 Si2_5 2.572279 1_555
Au1_4 Au1_6 2.683474 1_545
Au1_4 Au1_6 2.683474 1_555
Au1_4 U0_4 3.047344 1_555
Au1_5 Si2_4 2.572279 1_556
Au1_5 Au1_7 2.683474 1_545
Au1_5 Au1_7 2.683474 1_555
Au1_5 U0_5 3.047344 1_555
Au1_6 Si2_7 2.572279 1_555
Au1_6 U0_6 3.047344 1_555
Au1_7 Si2_6 2.572279 1_556
Au1_7 U0_7 3.047344 1_555
Au2_0 Si1_0 2.491152 1_555
Au2_0 Si0_0 2.491152 1_555
Au2_1 Si0_1 2.491152 1_555
Au2_1 Si1_1 2.491152 1_555
Au2_2 Si1_2 2.491152 1_555
Au2_2 Si0_2 2.491152 1_555
Au2_3 Si0_3 2.491152 1_555
Au2_3 Si1_3 2.491152 1_555
Au2_4 Si1_4 2.491152 1_555
Au2_4 Si0_4 2.491152 1_555
Au2_5 Si0_5 2.491152 1_555
Au2_5 Si1_5 2.491152 1_555
Au2_6 Si1_6 2.491152 1_555
Au2_6 Si0_6 2.491152 1_555
Au2_7 Si0_7 2.491152 1_555
Au2_7 Si1_7 2.491152 1_555
