# generated using pymatgen
data_BaAlCr4O7
_symmetry_space_group_name_H-M   'P 1'
_cell_length_a   6.10728169
_cell_length_b   6.10728169
_cell_length_c   10.47239700
_cell_angle_alpha   90.00000000
_cell_angle_beta   90.00000000
_cell_angle_gamma   119.99999662
_symmetry_Int_Tables_number   1
_chemical_formula_structural   BaAlCr4O7
_chemical_formula_sum   'Ba2 Al2 Cr8 O14'
_cell_volume   338.27713772
_cell_formula_units_Z   2
loop_
 _symmetry_equiv_pos_site_id
 _symmetry_equiv_pos_as_xyz
  1  'x, y, z'
loop_
 _atom_site_type_symbol
 _atom_site_label
 _atom_site_symmetry_multiplicity
 _atom_site_fract_x
 _atom_site_fract_y
 _atom_site_fract_z
 _atom_site_occupancy
  Ba  Ba0  1  0.66666700  0.33333300  0.48940400  1
  Ba  Ba1  1  0.33333300  0.66666700  0.98940400  1
  Al  Al0  1  0.66666700  0.33333300  0.87037600  1
  Al  Al1  1  0.33333300  0.66666700  0.37037600  1
  Cr  Cr0  1  0.83812100  0.16187900  0.18682700  1
  Cr  Cr1  1  0.67624300  0.83812100  0.68682700  1
  Cr  Cr2  1  0.16187900  0.32375700  0.68682700  1
  Cr  Cr3  1  0.83812100  0.67624300  0.18682700  1
  Cr  Cr4  1  0.32375700  0.16187900  0.18682700  1
  Cr  Cr5  1  0.16187900  0.83812100  0.68682700  1
  Cr  Cr6  1  0.00000000  0.00000000  0.46151800  1
  Cr  Cr7  1  0.00000000  0.00000000  0.96151800  1
  O  O0  1  0.81470100  0.18529900  0.99221200  1
  O  O1  1  0.62940100  0.81470100  0.49221200  1
  O  O2  1  0.18529900  0.37059900  0.49221200  1
  O  O3  1  0.81470100  0.62940100  0.99221200  1
  O  O4  1  0.37059900  0.18529900  0.99221200  1
  O  O5  1  0.18529900  0.81470100  0.49221200  1
  O  O6  1  0.00000000  0.00000000  0.77985400  1
  O  O7  1  0.00000000  0.00000000  0.27985400  1
  O  O8  1  0.48753100  0.51246900  0.26524300  1
  O  O9  1  0.97506200  0.48753100  0.76524300  1
  O  O10  1  0.51246900  0.02493800  0.76524300  1
  O  O11  1  0.48753100  0.97506200  0.26524300  1
  O  O12  1  0.51246900  0.48753100  0.76524300  1
  O  O13  1  0.02493800  0.51246900  0.26524300  1
loop_
_geom_bond_atom_site_label_1
_geom_bond_atom_site_label_2
_geom_bond_distance
_geom_bond_site_symmetry_2
Ba0 O13 3.016866 1_655
Ba0 O11 3.016866 1_545
Ba0 O8 3.016869 1_555
Ba0 O1 3.060131 1_545
Ba0 O2 3.060131 1_655
Ba0 O5 3.060136 1_545
Ba0 O5 3.060136 1_655
Ba0 O2 3.060143 1_555
Ba0 O1 3.060143 1_555
Ba0 O9 3.317396 1_555
Ba0 O10 3.317396 1_555
Ba0 O12 3.317398 1_555
Ba1 O10 3.016866 1_565
Ba1 O9 3.016866 1_455
Ba1 O12 3.016869 1_555
Ba1 O3 3.060131 1_455
Ba1 O4 3.060131 1_565
Ba1 O0 3.060136 1_455
Ba1 O0 3.060136 1_565
Ba1 O4 3.060143 1_555
Ba1 O3 3.060143 1_555
Ba1 O13 3.317396 1_556
Ba1 O11 3.317396 1_556
Ba1 O8 3.317398 1_556
Al0 O9 1.967928 1_555
Al0 O10 1.967928 1_555
Al0 O12 1.967933 1_555
Al0 O0 2.019918 1_555
Al0 O3 2.019918 1_555
Al0 O4 2.019918 1_555
Al1 O11 1.967928 1_555
Al1 O13 1.967928 1_555
Al1 O8 1.967933 1_555
Al1 O5 2.019918 1_555
Al1 O1 2.019918 1_555
Al1 O2 2.019918 1_555
Cr0 O7 1.970108 1_655
Cr0 O13 2.029218 1_655
Cr0 O11 2.029218 1_545
Cr0 O0 2.053087 1_554
Cr1 O6 1.970104 1_665
Cr1 O12 2.029218 1_555
Cr1 O10 2.029223 1_565
Cr1 O1 2.053089 1_555
Cr2 O6 1.970104 1_555
Cr2 O12 2.029218 1_555
Cr2 O9 2.029223 1_455
Cr2 O2 2.053089 1_555
Cr3 O7 1.970104 1_665
Cr3 O8 2.029218 1_555
Cr3 O13 2.029223 1_655
Cr3 O3 2.053089 1_554
Cr4 O7 1.970104 1_555
Cr4 O8 2.029218 1_555
Cr4 O11 2.029223 1_545
Cr4 O4 2.053089 1_554
Cr5 O6 1.970108 1_565
Cr5 O10 2.029218 1_565
Cr5 O9 2.029218 1_455
Cr5 O5 2.053087 1_555
Cr6 O7 1.902458 1_555
Cr6 O5 1.986297 1_545
Cr6 O2 1.986302 1_555
Cr6 O1 1.986302 1_445
Cr7 O6 1.902458 1_555
Cr7 O0 1.986297 1_455
Cr7 O4 1.986302 1_555
Cr7 O3 1.986302 1_445
