# generated using pymatgen
data_SbAsPd
_symmetry_space_group_name_H-M   'P 1'
_cell_length_a   6.27815868
_cell_length_b   6.27815868
_cell_length_c   6.27815868
_cell_angle_alpha   90.00000000
_cell_angle_beta   90.00000000
_cell_angle_gamma   90.00000000
_symmetry_Int_Tables_number   1
_chemical_formula_structural   SbAsPd
_chemical_formula_sum   'Sb4 As4 Pd4'
_cell_volume   247.45535973
_cell_formula_units_Z   4
loop_
 _symmetry_equiv_pos_site_id
 _symmetry_equiv_pos_as_xyz
  1  'x, y, z'
loop_
 _atom_site_type_symbol
 _atom_site_label
 _atom_site_symmetry_multiplicity
 _atom_site_fract_x
 _atom_site_fract_y
 _atom_site_fract_z
 _atom_site_occupancy
  Sb  Sb0  1  0.88039385  0.11960615  0.61960615  1
  Sb  Sb1  1  0.11960615  0.61960615  0.88039385  1
  Sb  Sb2  1  0.61960615  0.88039385  0.11960615  1
  Sb  Sb3  1  0.38039385  0.38039385  0.38039385  1
  As  As0  1  0.12312309  0.87687691  0.37687691  1
  As  As1  1  0.87687691  0.37687691  0.12312309  1
  As  As2  1  0.37687691  0.12312309  0.87687691  1
  As  As3  1  0.62312309  0.62312309  0.62312309  1
  Pd  Pd0  1  0.50889843  0.49110157  0.99110157  1
  Pd  Pd1  1  0.49110157  0.99110157  0.50889843  1
  Pd  Pd2  1  0.99110157  0.50889843  0.49110157  1
  Pd  Pd3  1  0.00889843  0.00889843  0.00889843  1
loop_
_geom_bond_atom_site_label_1
_geom_bond_atom_site_label_2
_geom_bond_distance
_geom_bond_site_symmetry_2
As0 Pd3 2.557031 1_565
As0 Pd1 2.557031 1_555
As0 Pd2 2.557031 1_455
As0 Sb0 2.639460 1_465
As1 Pd3 2.557031 1_655
As1 Pd0 2.557031 1_554
As1 Pd2 2.557031 1_555
As1 Sb1 2.639460 1_654
As2 Pd3 2.557031 1_556
As2 Pd1 2.557031 1_545
As2 Pd0 2.557031 1_555
As2 Sb2 2.639460 1_546
As3 Pd1 2.557031 1_555
As3 Pd2 2.557031 1_555
As3 Pd0 2.557031 1_555
As3 Sb3 2.639460 1_555
Pd0 Sb3 2.665950 1_556
Pd0 Sb1 2.665950 1_555
Pd0 Sb2 2.665950 1_556
Pd1 Sb3 2.665950 1_565
Pd1 Sb0 2.665950 1_565
Pd1 Sb2 2.665950 1_555
Pd2 Sb3 2.665950 1_655
Pd2 Sb1 2.665950 1_655
Pd2 Sb0 2.665950 1_555
Pd3 Sb1 2.665950 1_544
Pd3 Sb0 2.665950 1_454
Pd3 Sb2 2.665950 1_445
