# generated using pymatgen
data_DyCrO3
_symmetry_space_group_name_H-M   'P 1'
_cell_length_a   5.23463434
_cell_length_b   5.53590021
_cell_length_c   7.54140459
_cell_angle_alpha   90.00000000
_cell_angle_beta   90.00000000
_cell_angle_gamma   90.00000000
_symmetry_Int_Tables_number   1
_chemical_formula_structural   DyCrO3
_chemical_formula_sum   'Dy4 Cr4 O12'
_cell_volume   218.53793939
_cell_formula_units_Z   4
loop_
 _symmetry_equiv_pos_site_id
 _symmetry_equiv_pos_as_xyz
  1  'x, y, z'
loop_
 _atom_site_type_symbol
 _atom_site_label
 _atom_site_symmetry_multiplicity
 _atom_site_fract_x
 _atom_site_fract_y
 _atom_site_fract_z
 _atom_site_occupancy
  Dy  Dy0  1  0.01887500  0.93178253  0.75000000  1
  Dy  Dy1  1  0.51887500  0.56821747  0.25000000  1
  Dy  Dy2  1  0.48112500  0.43178253  0.75000000  1
  Dy  Dy3  1  0.98112500  0.06821747  0.25000000  1
  Cr  Cr0  1  0.50000000  -0.00000000  0.50000000  1
  Cr  Cr1  1  0.00000000  0.50000000  0.50000000  1
  Cr  Cr2  1  0.00000000  0.50000000  0.00000000  1
  Cr  Cr3  1  0.50000000  -0.00000000  0.00000000  1
  O  O0  1  0.69273930  0.30253425  0.44429867  1
  O  O1  1  0.19273930  0.19746575  0.55570133  1
  O  O2  1  0.80726070  0.80253425  0.05570133  1
  O  O3  1  0.30726070  0.69746575  0.94429867  1
  O  O4  1  0.30726070  0.69746575  0.55570133  1
  O  O5  1  0.80726070  0.80253425  0.44429867  1
  O  O6  1  0.19273930  0.19746575  0.94429867  1
  O  O7  1  0.69273930  0.30253425  0.05570133  1
  O  O8  1  0.10896329  0.46330271  0.25000000  1
  O  O9  1  0.60896329  0.03669729  0.75000000  1
  O  O10  1  0.39103671  0.96330271  0.25000000  1
  O  O11  1  0.89103671  0.53669729  0.75000000  1
loop_
_geom_bond_atom_site_label_1
_geom_bond_atom_site_label_2
_geom_bond_distance
_geom_bond_site_symmetry_2
Dy0 O9 2.222952 1_465
Dy0 O1 2.266851 1_565
Dy0 O6 2.266851 1_565
Dy0 O11 2.287236 1_455
Dy0 O3 2.471547 1_555
Dy0 O4 2.471547 1_555
Dy0 O2 2.655927 1_456
Dy0 O5 2.655927 1_455
Dy1 O8 2.222952 1_555
Dy1 O0 2.266851 1_555
Dy1 O7 2.266851 1_555
Dy1 O10 2.287236 1_555
Dy1 O5 2.471547 1_555
Dy1 O2 2.471547 1_555
Dy1 O4 2.655927 1_555
Dy1 O3 2.655927 1_554
Dy2 O11 2.222952 1_555
Dy2 O3 2.266851 1_555
Dy2 O4 2.266851 1_555
Dy2 O9 2.287236 1_555
Dy2 O6 2.471547 1_555
Dy2 O1 2.471547 1_555
Dy2 O7 2.655927 1_556
Dy2 O0 2.655927 1_555
Dy3 O10 2.222952 1_645
Dy3 O2 2.266851 1_545
Dy3 O5 2.266851 1_545
Dy3 O8 2.287236 1_655
Dy3 O0 2.471547 1_555
Dy3 O7 2.471547 1_555
Dy3 O1 2.655927 1_655
Dy3 O6 2.655927 1_654
Cr0 O10 1.980191 1_545
Cr0 O9 1.980191 1_555
Cr0 O1 1.989567 1_555
Cr0 O5 1.989567 1_545
Cr0 O4 1.999832 1_545
Cr0 O0 1.999832 1_555
Cr1 O8 1.980191 1_555
Cr1 O11 1.980191 1_455
Cr1 O4 1.989567 1_555
Cr1 O0 1.989567 1_455
Cr1 O1 1.999832 1_555
Cr1 O5 1.999832 1_455
Cr2 O8 1.980191 1_555
Cr2 O11 1.980191 1_454
Cr2 O3 1.989567 1_554
Cr2 O7 1.989567 1_455
Cr2 O2 1.999832 1_455
Cr2 O6 1.999832 1_554
Cr3 O10 1.980191 1_545
Cr3 O9 1.980191 1_554
Cr3 O6 1.989567 1_554
Cr3 O2 1.989567 1_545
Cr3 O7 1.999832 1_555
Cr3 O3 1.999832 1_544
