# generated using pymatgen
data_V3(H3O5)2
_symmetry_space_group_name_H-M   'P 1'
_cell_length_a   6.11250500
_cell_length_b   8.92729731
_cell_length_c   9.01332904
_cell_angle_alpha   88.53370840
_cell_angle_beta   85.10064333
_cell_angle_gamma   79.97093205
_symmetry_Int_Tables_number   1
_chemical_formula_structural   V3(H3O5)2
_chemical_formula_sum   'V6 H12 O20'
_cell_volume   482.52674612
_cell_formula_units_Z   2
loop_
 _symmetry_equiv_pos_site_id
 _symmetry_equiv_pos_as_xyz
  1  'x, y, z'
loop_
 _atom_site_type_symbol
 _atom_site_label
 _atom_site_symmetry_multiplicity
 _atom_site_fract_x
 _atom_site_fract_y
 _atom_site_fract_z
 _atom_site_occupancy
  V  V0  1  0.73526600  0.49729300  0.50026200  1
  V  V1  1  0.74799500  0.98188500  0.00095200  1
  V  V2  1  0.76863500  0.62271400  0.13424400  1
  V  V3  1  0.73482100  0.36039800  0.87433900  1
  V  V4  1  0.70627900  0.84894500  0.65222400  1
  V  V5  1  0.68541900  0.13526700  0.36794900  1
  H  H0  1  0.35808000  0.66001000  0.45689400  1
  H  H1  1  0.32610200  0.13678300  0.05749900  1
  H  H2  1  0.32265600  0.54839600  0.86448000  1
  H  H3  1  0.29894200  0.17503700  0.46570800  1
  H  H4  1  0.11366700  0.69749800  0.90740600  1
  H  H5  1  0.31337700  0.73029200  0.77858400  1
  H  H6  1  0.31943900  0.32146500  0.03269800  1
  H  H7  1  0.28557100  0.24282500  0.20602200  1
  H  H8  1  0.10472500  0.80981300  0.39544800  1
  H  H9  1  0.31617200  0.75993900  0.27796800  1
  H  H10  1  0.24307100  0.04218000  0.65655600  1
  H  H11  1  0.05582200  0.19238800  0.64803000  1
  O  O0  1  0.45289800  0.55541900  0.50491100  1
  O  O1  1  0.47227100  0.99901600  0.01090200  1
  O  O2  1  0.85509600  0.55974300  0.31005100  1
  O  O3  1  0.81242000  0.39197500  0.68721600  1
  O  O4  1  0.83966900  0.89494900  0.80211100  1
  O  O5  1  0.79359700  0.06925600  0.19708300  1
  O  O6  1  0.83093900  0.67228000  0.58241300  1
  O  O7  1  0.79471400  0.28971300  0.41658200  1
  O  O8  1  0.82421500  0.17202800  0.91634500  1
  O  O9  1  0.88819100  0.78235000  0.07349000  1
  O  O10  1  0.49406100  0.66707900  0.14437700  1
  O  O11  1  0.45077700  0.40660700  0.91112400  1
  O  O12  1  0.43478400  0.84885800  0.70280300  1
  O  O13  1  0.39083000  0.18838200  0.36284600  1
  O  O14  1  0.85583200  0.47842400  0.99170400  1
  O  O15  1  0.74034100  0.98860100  0.50335000  1
  O  O16  1  0.22364900  0.64998100  0.82766600  1
  O  O17  1  0.24658800  0.24417300  0.09853500  1
  O  O18  1  0.26732900  0.78807000  0.38399700  1
  O  O19  1  0.21058200  0.14709900  0.61763900  1
loop_
_geom_bond_atom_site_label_1
_geom_bond_atom_site_label_2
_geom_bond_distance
_geom_bond_site_symmetry_2
H0 O0 1.108478 1_555
H0 O18 1.359900 1_555
H1 O17 1.057019 1_555
H1 O1 1.437671 1_545
H2 O16 1.061378 1_555
H2 O11 1.440844 1_555
H3 O13 1.057325 1_555
H3 O19 1.460235 1_555
H4 O16 0.991057 1_555
H5 O16 1.043952 1_555
H5 O12 1.512490 1_555
H6 O17 1.033184 1_555
H6 O11 1.562888 1_554
H7 O17 1.016546 1_555
H7 O13 1.630783 1_555
H8 O18 0.975966 1_555
H9 O18 1.001473 1_555
H9 O10 1.683121 1_555
H10 O19 0.984925 1_555
H11 O19 0.980590 1_555
O0 V0 1.710799 1_555
O1 V1 1.660420 1_555
O2 V2 1.760763 1_555
O2 V0 1.914528 1_555
O3 V3 1.742028 1_555
O3 V0 1.961150 1_555
O4 V4 1.729677 1_555
O4 V1 1.968898 1_556
O5 V5 1.700915 1_555
O5 V1 2.010381 1_545
O6 V4 1.736159 1_555
O6 V0 1.944726 1_555
O7 V5 1.715017 1_555
O7 V0 1.981206 1_555
O8 V3 1.718293 1_555
O8 V1 1.956654 1_546
O9 V2 1.766158 1_555
O9 V1 1.959417 1_555
O10 V2 1.651109 1_555
O11 V3 1.718655 1_555
O12 V4 1.683159 1_555
O13 V5 1.784667 1_555
O14 V3 1.799585 1_555
O14 V2 1.822785 1_556
O15 V5 1.775266 1_565
O15 V4 1.831767 1_555
