# generated using pymatgen
data_Ce2Fe17C
_symmetry_space_group_name_H-M   'P 1'
_cell_length_a   6.47467060
_cell_length_b   6.48733711
_cell_length_c   6.47467060
_cell_angle_alpha   83.32950877
_cell_angle_beta   83.06728148
_cell_angle_gamma   83.32950877
_symmetry_Int_Tables_number   1
_chemical_formula_structural   Ce2Fe17C
_chemical_formula_sum   'Ce2 Fe17 C1'
_cell_volume   266.69942556
_cell_formula_units_Z   1
loop_
 _symmetry_equiv_pos_site_id
 _symmetry_equiv_pos_as_xyz
  1  'x, y, z'
loop_
 _atom_site_type_symbol
 _atom_site_label
 _atom_site_symmetry_multiplicity
 _atom_site_fract_x
 _atom_site_fract_y
 _atom_site_fract_z
 _atom_site_occupancy
  Ce  Ce0  1  0.66483900  0.64484100  0.66483900  1
  Ce  Ce1  1  0.33516100  0.35515900  0.33516100  1
  Fe  Fe0  1  0.71579900  0.00000000  0.28420100  1
  Fe  Fe1  1  0.00049900  0.28647300  0.71245200  1
  Fe  Fe2  1  0.28754800  0.71352700  0.99950100  1
  Fe  Fe3  1  0.99950100  0.71352700  0.28754800  1
  Fe  Fe4  1  0.71245200  0.28647300  0.00049900  1
  Fe  Fe5  1  0.28420100  0.00000000  0.71579900  1
  Fe  Fe6  1  0.00000000  0.50000000  0.00000000  1
  Fe  Fe7  1  0.50000000  0.00000000  0.00000000  1
  Fe  Fe8  1  0.00000000  0.00000000  0.50000000  1
  Fe  Fe9  1  0.34397900  0.85262900  0.34397900  1
  Fe  Fe10  1  0.84776700  0.34336800  0.34268800  1
  Fe  Fe11  1  0.34268800  0.34336800  0.84776700  1
  Fe  Fe12  1  0.65602100  0.14737100  0.65602100  1
  Fe  Fe13  1  0.15223300  0.65663200  0.65731200  1
  Fe  Fe14  1  0.65731200  0.65663200  0.15223300  1
  Fe  Fe15  1  0.90395200  0.90311800  0.90395200  1
  Fe  Fe16  1  0.09604800  0.09688200  0.09604800  1
  C  C0  1  0.50000000  0.00000000  0.50000000  1
loop_
_geom_bond_atom_site_label_1
_geom_bond_atom_site_label_2
_geom_bond_distance
_geom_bond_site_symmetry_2
Ce0 Fe1 3.007422 1_655
Ce0 Fe4 3.007422 1_556
Ce0 Fe15 3.063496 1_555
Ce0 Fe10 3.064575 1_555
Ce0 Fe11 3.064575 1_555
Ce0 Fe3 3.091074 1_555
Ce0 Fe2 3.091074 1_555
Ce0 Fe13 3.159882 1_655
Ce0 Fe14 3.159882 1_556
Ce0 Fe6 3.238921 1_656
Ce0 Fe13 3.317060 1_555
Ce0 Fe14 3.317060 1_555
Ce0 Fe7 3.344845 1_566
Ce0 Fe8 3.344845 1_665
Ce1 Fe2 3.007422 1_554
Ce1 Fe3 3.007422 1_455
Ce1 Fe16 3.063496 1_555
Ce1 Fe13 3.064575 1_555
Ce1 Fe14 3.064575 1_555
Ce1 Fe1 3.091074 1_555
Ce1 Fe4 3.091074 1_555
Ce1 Fe10 3.159882 1_455
Ce1 Fe11 3.159882 1_554
Ce1 Fe6 3.238921 1_555
Ce1 Fe10 3.317060 1_555
Ce1 Fe11 3.317060 1_555
Ce1 Fe7 3.344845 1_555
Ce1 Fe8 3.344845 1_555
Fe0 Fe7 2.441088 1_555
Fe0 Fe8 2.441088 1_655
Fe0 Fe4 2.456744 1_555
Fe0 Fe3 2.456744 1_545
Fe0 Fe10 2.559628 1_555
Fe0 Fe14 2.559628 1_545
Fe0 Fe16 2.719934 1_655
Fe0 Fe15 2.719934 1_544
Fe1 Fe8 2.437695 1_555
Fe1 Fe6 2.445756 1_556
Fe1 Fe5 2.456744 1_555
Fe1 Fe4 2.473225 1_456
Fe1 Fe11 2.558560 1_555
Fe1 Fe12 2.581345 1_455
Fe1 Fe13 2.668955 1_555
Fe1 Fe10 2.669700 1_455
Fe1 Fe16 2.747456 1_556
Fe1 Fe15 2.751497 1_445
Fe2 Fe7 2.437695 1_566
Fe2 Fe6 2.445756 1_556
Fe2 Fe5 2.456744 1_565
Fe2 Fe3 2.473225 1_456
Fe2 Fe9 2.581345 1_556
Fe3 Fe8 2.437695 1_665
Fe3 Fe6 2.445756 1_655
Fe3 Fe9 2.581345 1_655
Fe4 Fe7 2.437695 1_555
Fe4 Fe6 2.445756 1_655
Fe5 Fe8 2.441088 1_555
Fe5 Fe7 2.441088 1_556
Fe7 Fe9 2.466024 1_545
Fe8 Fe9 2.466024 1_545
Fe10 Fe6 2.471441 1_655
Fe10 Fe8 2.485174 1_655
Fe10 Fe14 2.524671 1_555
Fe10 Fe12 2.536372 1_555
Fe10 Fe4 2.558560 1_555
Fe10 Fe16 2.658489 1_655
Fe10 Fe3 2.668955 1_555
Fe11 Fe6 2.471441 1_556
Fe11 Fe7 2.485174 1_556
Fe11 Fe13 2.524671 1_555
Fe11 Fe12 2.536372 1_555
Fe11 Fe5 2.559628 1_555
Fe11 Fe16 2.658489 1_556
Fe11 Fe2 2.668955 1_555
Fe11 Fe4 2.669700 1_556
Fe12 Fe8 2.466024 1_655
Fe12 Fe7 2.466024 1_556
Fe12 Fe4 2.581345 1_556
Fe12 Fe15 2.665485 1_545
Fe13 Fe6 2.471441 1_556
Fe13 Fe8 2.485174 1_565
Fe13 Fe9 2.536372 1_555
Fe13 Fe2 2.558560 1_555
Fe13 Fe5 2.559628 1_565
Fe13 Fe15 2.658489 1_455
Fe13 Fe3 2.669700 1_455
Fe14 Fe6 2.471441 1_655
Fe14 Fe7 2.485174 1_565
Fe14 Fe9 2.536372 1_555
Fe14 Fe3 2.558560 1_555
Fe14 Fe15 2.658489 1_554
Fe14 Fe4 2.668955 1_555
Fe14 Fe2 2.669700 1_554
Fe15 Fe16 2.402876 1_666
Fe15 Fe7 2.634127 1_566
Fe15 Fe8 2.634127 1_665
Fe15 Fe6 2.636334 1_656
Fe15 Fe5 2.719934 1_665
Fe15 Fe2 2.747456 1_655
Fe15 Fe3 2.747456 1_556
Fe15 Fe4 2.751497 1_566
Fe16 Fe7 2.634127 1_555
Fe16 Fe8 2.634127 1_555
Fe16 Fe6 2.636334 1_555
Fe16 Fe9 2.665485 1_545
Fe16 Fe5 2.719934 1_554
Fe16 Fe4 2.747456 1_455
Fe16 Fe3 2.751497 1_445
Fe16 Fe2 2.751497 1_544
C0 Fe5 1.852890 1_555
C0 Fe0 1.852890 1_555
C0 Fe12 1.910512 1_555
C0 Fe9 1.910512 1_545
C0 Ce0 2.592136 1_545
C0 Ce1 2.592136 1_555
