# generated using pymatgen
data_Pr2(Ga3Ru)3
_symmetry_space_group_name_H-M   'P 1'
_cell_length_a   7.47458415
_cell_length_b   7.47458415
_cell_length_c   9.86596317
_cell_angle_alpha   90.00000000
_cell_angle_beta   90.00000000
_cell_angle_gamma   118.70956789
_symmetry_Int_Tables_number   1
_chemical_formula_structural   Pr2(Ga3Ru)3
_chemical_formula_sum   'Pr4 Ga18 Ru6'
_cell_volume   483.44360083
_cell_formula_units_Z   2
loop_
 _symmetry_equiv_pos_site_id
 _symmetry_equiv_pos_as_xyz
  1  'x, y, z'
loop_
 _atom_site_type_symbol
 _atom_site_label
 _atom_site_symmetry_multiplicity
 _atom_site_fract_x
 _atom_site_fract_y
 _atom_site_fract_z
 _atom_site_occupancy
  Pr  Pr0  1  0.99818838  0.67476059  0.25000000  1
  Pr  Pr1  1  0.00181162  0.32523941  0.75000000  1
  Pr  Pr2  1  0.67476059  0.99818838  0.25000000  1
  Pr  Pr3  1  0.32523941  0.00181162  0.75000000  1
  Ga  Ga0  1  0.13784622  0.13784622  0.25000000  1
  Ga  Ga1  1  0.86215378  0.86215378  0.75000000  1
  Ga  Ga2  1  0.01396034  0.33868752  0.07207088  1
  Ga  Ga3  1  0.98603966  0.66131248  0.92792912  1
  Ga  Ga4  1  0.98603966  0.66131248  0.57207088  1
  Ga  Ga5  1  0.33868752  0.01396034  0.42792912  1
  Ga  Ga6  1  0.01396034  0.33868752  0.42792912  1
  Ga  Ga7  1  0.66131248  0.98603966  0.57207088  1
  Ga  Ga8  1  0.66131248  0.98603966  0.92792912  1
  Ga  Ga9  1  0.33868752  0.01396034  0.07207088  1
  Ga  Ga10  1  0.34071345  0.34071345  0.55632066  1
  Ga  Ga11  1  0.65928655  0.65928655  0.44367934  1
  Ga  Ga12  1  0.65928655  0.65928655  0.05632066  1
  Ga  Ga13  1  0.34071345  0.34071345  0.94367934  1
  Ga  Ga14  1  0.33920123  0.54920453  0.25000000  1
  Ga  Ga15  1  0.66079877  0.45079547  0.75000000  1
  Ga  Ga16  1  0.54920453  0.33920123  0.25000000  1
  Ga  Ga17  1  0.45079547  0.66079877  0.75000000  1
  Ru  Ru0  1  0.67555536  0.32444464  0.00000000  1
  Ru  Ru1  1  0.32444464  0.67555536  0.00000000  1
  Ru  Ru2  1  0.32444464  0.67555536  0.50000000  1
  Ru  Ru3  1  0.67555536  0.32444464  0.50000000  1
  Ru  Ru4  1  0.00000000  -0.00000000  0.00000000  1
  Ru  Ru5  1  0.00000000  -0.00000000  0.50000000  1
loop_
_geom_bond_atom_site_label_1
_geom_bond_atom_site_label_2
_geom_bond_distance
_geom_bond_site_symmetry_2
Ga0 Ru5 2.680832 1_555
Ga0 Ru4 2.680832 1_555
Ga0 Ga14 2.696889 1_555
Ga0 Ga16 2.696889 1_555
Ga0 Ga2 2.743756 1_555
Ga0 Ga5 2.743756 1_555
Ga0 Ga6 2.743756 1_555
Ga0 Ga9 2.743756 1_555
Ga0 Pr0 3.098286 1_445
Ga0 Pr2 3.098286 1_445
Ga1 Ru4 2.680832 1_666
Ga1 Ru5 2.680832 1_665
Ga1 Ga15 2.696889 1_555
Ga1 Ga17 2.696889 1_555
Ga1 Ga4 2.743756 1_555
Ga1 Ga7 2.743756 1_555
Ga1 Ga3 2.743756 1_555
Ga1 Ga8 2.743756 1_555
Ga1 Pr1 3.098286 1_665
Ga1 Pr3 3.098286 1_665
Ga2 Ru1 2.572431 1_555
Ga2 Ru0 2.579973 1_455
Ga2 Ru4 2.582910 1_555
Ga2 Pr0 3.112903 1_455
Ga2 Pr2 3.128541 1_445
Ga2 Pr1 3.179047 1_554
Ga3 Ru0 2.572431 1_556
Ga3 Ru1 2.579973 1_656
Ga3 Ru4 2.582910 1_666
Ga3 Pr1 3.112903 1_655
Ga3 Pr3 3.128541 1_665
Ga3 Pr0 3.179047 1_556
Ga4 Ru3 2.572431 1_555
Ga4 Ru2 2.579973 1_655
Ga4 Ru5 2.582910 1_665
Ga4 Pr1 3.112903 1_655
Ga4 Pr3 3.128541 1_665
Ga4 Pr0 3.179047 1_555
Ga5 Ru3 2.572431 1_555
Ga5 Ru2 2.579973 1_545
Ga5 Ru5 2.582910 1_555
Ga5 Pr2 3.112903 1_545
Ga5 Pr0 3.128541 1_445
Ga5 Pr3 3.179047 1_555
Ga6 Ru2 2.572431 1_555
Ga6 Ru3 2.579973 1_455
Ga6 Ru5 2.582910 1_555
Ga6 Pr0 3.112903 1_455
Ga6 Pr2 3.128541 1_445
Ga6 Pr1 3.179047 1_555
Ga7 Ru2 2.572431 1_555
Ga7 Ru3 2.579973 1_565
Ga7 Ru5 2.582910 1_665
Ga7 Pr3 3.112903 1_565
Ga7 Pr1 3.128541 1_665
Ga7 Pr2 3.179047 1_555
Ga8 Ru1 2.572431 1_556
Ga8 Ru0 2.579973 1_566
Ga8 Ru4 2.582910 1_666
Ga8 Pr3 3.112903 1_565
Ga8 Pr1 3.128541 1_665
Ga8 Pr2 3.179047 1_556
Ga9 Ru0 2.572431 1_555
Ga9 Ru1 2.579973 1_545
Ga9 Ru4 2.582910 1_555
Ga9 Pr2 3.112903 1_545
Ga9 Pr0 3.128541 1_445
Ga9 Pr3 3.179047 1_554
Ga10 Ru2 2.622970 1_555
Ga10 Ru3 2.622970 1_555
Ga10 Ru5 2.654999 1_555
Ga10 Ga11 2.669785 1_555
Ga10 Ga5 2.744865 1_555
Ga10 Ga6 2.744865 1_555
Ga10 Ga17 2.856761 1_555
Ga10 Ga15 2.856761 1_555
Ga10 Pr1 3.130499 1_555
Ga10 Pr3 3.130499 1_555
Ga11 Ru3 2.622970 1_555
Ga11 Ru2 2.622970 1_555
Ga11 Ru5 2.654999 1_665
Ga11 Ga7 2.744865 1_555
Ga11 Ga4 2.744865 1_555
Ga11 Ga16 2.856761 1_555
Ga11 Ga14 2.856761 1_555
Ga11 Pr0 3.130499 1_555
Ga11 Pr2 3.130499 1_555
Ga12 Ru0 2.622970 1_555
Ga12 Ru1 2.622970 1_555
Ga12 Ru4 2.654999 1_665
Ga12 Ga13 2.669785 1_554
Ga12 Ga8 2.744865 1_554
Ga12 Ga3 2.744865 1_554
Ga12 Ga16 2.856761 1_555
Ga12 Ga14 2.856761 1_555
Ga12 Pr0 3.130499 1_555
Ga12 Pr2 3.130499 1_555
Ga13 Ru0 2.622970 1_556
Ga13 Ru1 2.622970 1_556
Ga13 Ru4 2.654999 1_556
Ga13 Ga2 2.744865 1_556
Ga13 Ga9 2.744865 1_556
Ga13 Ga17 2.856761 1_555
Ga13 Ga15 2.856761 1_555
Ga13 Pr1 3.130499 1_555
Ga13 Pr3 3.130499 1_555
Ga14 Ru1 2.662283 1_555
Ga14 Ru2 2.662283 1_555
Ga14 Ga16 2.700930 1_555
Ga14 Ga2 2.791486 1_555
Ga14 Ga6 2.791486 1_555
Ga14 Pr2 3.076777 1_555
Ga14 Pr0 3.110625 1_455
Ga15 Ru0 2.662283 1_556
Ga15 Ru3 2.662283 1_555
Ga15 Ga17 2.700930 1_555
Ga15 Ga4 2.791486 1_555
Ga15 Ga3 2.791486 1_555
Ga15 Pr3 3.076777 1_555
Ga15 Pr1 3.110625 1_655
Ga16 Ru3 2.662283 1_555
Ga16 Ru0 2.662283 1_555
Ga16 Ga5 2.791486 1_555
Ga16 Ga9 2.791486 1_555
Ga16 Pr0 3.076777 1_555
Ga16 Pr2 3.110625 1_545
Ga17 Ru2 2.662283 1_555
Ga17 Ru1 2.662283 1_556
Ga17 Ga7 2.791486 1_555
Ga17 Ga8 2.791486 1_555
Ga17 Pr1 3.076777 1_555
Ga17 Pr3 3.110625 1_565
