# generated using pymatgen
data_SrHg(IO2)4
_symmetry_space_group_name_H-M   'P 1'
_cell_length_a   11.57539200
_cell_length_b   6.93949000
_cell_length_c   14.98513400
_cell_angle_alpha   90.00000000
_cell_angle_beta   90.00000000
_cell_angle_gamma   90.00000000
_symmetry_Int_Tables_number   1
_chemical_formula_structural   SrHg(IO2)4
_chemical_formula_sum   'Sr4 Hg4 I16 O32'
_cell_volume   1203.71560956
_cell_formula_units_Z   4
loop_
 _symmetry_equiv_pos_site_id
 _symmetry_equiv_pos_as_xyz
  1  'x, y, z'
loop_
 _atom_site_type_symbol
 _atom_site_label
 _atom_site_symmetry_multiplicity
 _atom_site_fract_x
 _atom_site_fract_y
 _atom_site_fract_z
 _atom_site_occupancy
  Sr  Sr0  1  0.76168200  0.25000000  0.06607600  1
  Sr  Sr1  1  0.73831800  0.25000000  0.56607600  1
  Sr  Sr2  1  0.23831800  0.75000000  0.93392400  1
  Sr  Sr3  1  0.26168200  0.75000000  0.43392400  1
  Hg  Hg0  1  0.17792600  0.25000000  0.31832600  1
  Hg  Hg1  1  0.32207400  0.25000000  0.81832600  1
  Hg  Hg2  1  0.82207400  0.75000000  0.68167400  1
  Hg  Hg3  1  0.67792600  0.75000000  0.18167400  1
  I  I0  1  0.47664500  0.25000000  0.01400400  1
  I  I1  1  0.02335500  0.25000000  0.51400400  1
  I  I2  1  0.52335500  0.75000000  0.98599600  1
  I  I3  1  0.97664500  0.75000000  0.48599600  1
  I  I4  1  0.39284800  0.25000000  0.50224000  1
  I  I5  1  0.10715200  0.25000000  0.00224000  1
  I  I6  1  0.60715200  0.75000000  0.49776000  1
  I  I7  1  0.89284800  0.75000000  0.99776000  1
  I  I8  1  0.95207100  0.55072900  0.25630100  1
  I  I9  1  0.54792900  0.94927100  0.75630100  1
  I  I10  1  0.04792900  0.05072900  0.74369900  1
  I  I11  1  0.45207100  0.44927100  0.24369900  1
  I  I12  1  0.04792900  0.44927100  0.74369900  1
  I  I13  1  0.45207100  0.05072900  0.24369900  1
  I  I14  1  0.95207100  0.94927100  0.25630100  1
  I  I15  1  0.54792900  0.55072900  0.75630100  1
  O  O0  1  0.97889000  0.25000000  0.07310400  1
  O  O1  1  0.52111000  0.25000000  0.57310400  1
  O  O2  1  0.02111000  0.75000000  0.92689600  1
  O  O3  1  0.47889000  0.75000000  0.42689600  1
  O  O4  1  0.81262000  0.51177900  0.17770600  1
  O  O5  1  0.68738000  0.98822100  0.67770600  1
  O  O6  1  0.18738000  0.01177900  0.82229400  1
  O  O7  1  0.31262000  0.48822100  0.32229400  1
  O  O8  1  0.18738000  0.48822100  0.82229400  1
  O  O9  1  0.31262000  0.01177900  0.32229400  1
  O  O10  1  0.81262000  0.98822100  0.17770600  1
  O  O11  1  0.68738000  0.51177900  0.67770600  1
  O  O12  1  0.68680500  0.95699500  0.45458000  1
  O  O13  1  0.81319500  0.54300500  0.95458100  1
  O  O14  1  0.31319500  0.45699500  0.54541900  1
  O  O15  1  0.18680500  0.04300500  0.04542000  1
  O  O16  1  0.31319500  0.04300500  0.54541900  1
  O  O17  1  0.18680500  0.45699500  0.04542000  1
  O  O18  1  0.68680500  0.54300500  0.45458000  1
  O  O19  1  0.81319500  0.95699500  0.95458100  1
  O  O20  1  0.58619800  0.94625800  0.06601200  1
  O  O21  1  0.91380200  0.55374200  0.56601200  1
  O  O22  1  0.41380200  0.44625800  0.93398800  1
  O  O23  1  0.08619800  0.05374200  0.43398800  1
  O  O24  1  0.41380200  0.05374200  0.93398800  1
  O  O25  1  0.08619800  0.44625800  0.43398800  1
  O  O26  1  0.58619800  0.55374200  0.06601200  1
  O  O27  1  0.91380200  0.94625800  0.56601200  1
  O  O28  1  0.07385500  0.75000000  0.32278100  1
  O  O29  1  0.42614500  0.75000000  0.82278100  1
  O  O30  1  0.92614500  0.25000000  0.67721900  1
  O  O31  1  0.57385500  0.25000000  0.17721900  1
loop_
_geom_bond_atom_site_label_1
_geom_bond_atom_site_label_2
_geom_bond_distance
_geom_bond_site_symmetry_2
Hg0 O9 2.273167 1_555
Hg0 O7 2.273167 1_555
Hg0 O23 2.446685 1_555
Hg0 O25 2.446685 1_555
Hg1 O8 2.273167 1_555
Hg1 O6 2.273167 1_555
Hg1 O24 2.446685 1_555
Hg1 O22 2.446685 1_555
Hg2 O5 2.273167 1_555
Hg2 O11 2.273167 1_555
Hg2 O27 2.446685 1_555
Hg2 O21 2.446685 1_555
Hg3 O10 2.273167 1_555
Hg3 O4 2.273167 1_555
Hg3 O26 2.446685 1_555
Hg3 O20 2.446685 1_555
I0 O24 1.954926 1_554
I0 O22 1.954926 1_554
I0 O20 2.580386 1_545
I0 O26 2.580386 1_555
I0 O31 2.692230 1_555
I1 O23 1.954926 1_555
I1 O25 1.954926 1_555
I1 O27 2.580386 1_445
I1 O21 2.580386 1_455
I1 O30 2.692230 1_455
I2 O26 1.954926 1_556
I2 O20 1.954926 1_556
I2 O24 2.580386 1_565
I2 O22 2.580386 1_555
I2 O29 2.692230 1_555
I3 O27 1.954926 1_555
I3 O21 1.954926 1_555
I3 O23 2.580386 1_665
I3 O25 2.580386 1_655
I3 O28 2.692230 1_655
I4 O1 1.825357 1_555
I4 O16 1.825414 1_555
I4 O14 1.825414 1_555
I5 O0 1.825357 1_455
I5 O15 1.825419 1_555
I5 O17 1.825419 1_555
I6 O3 1.825357 1_555
I6 O18 1.825419 1_555
I6 O12 1.825419 1_555
I7 O2 1.825357 1_655
I7 O19 1.825414 1_555
I7 O13 1.825414 1_555
I8 O4 2.016386 1_555
I8 O28 2.211771 1_655
I9 O5 2.016386 1_555
I9 O29 2.211771 1_555
I10 O6 2.016386 1_555
I10 O30 2.211771 1_455
I11 O7 2.016386 1_555
I11 O31 2.211771 1_555
I12 O8 2.016386 1_555
I12 O30 2.211771 1_455
I13 O9 2.016386 1_555
I13 O31 2.211771 1_555
I14 O10 2.016386 1_555
I14 O28 2.211771 1_655
I15 O11 2.016386 1_555
I15 O29 2.211771 1_555
O0 Sr0 2.516472 1_555
O1 Sr1 2.516472 1_555
O2 Sr2 2.516472 1_555
O3 Sr3 2.516472 1_555
O4 Sr0 2.538892 1_555
O5 Sr1 2.538892 1_565
O6 Sr2 2.538892 1_545
O7 Sr3 2.538892 1_555
O8 Sr2 2.538892 1_555
O9 Sr3 2.538892 1_545
O10 Sr0 2.538892 1_565
O11 Sr1 2.538892 1_555
O12 Sr1 2.698407 1_565
O13 Sr0 2.698397 1_556
O14 Sr3 2.698397 1_555
O15 Sr2 2.698407 1_544
O16 Sr3 2.698397 1_545
O17 Sr2 2.698407 1_554
O18 Sr1 2.698407 1_555
O19 Sr0 2.698397 1_566
O20 Sr0 2.927293 1_565
O21 Sr1 2.927293 1_555
O22 Sr2 2.927293 1_555
O23 Sr3 2.927293 1_545
O24 Sr2 2.927293 1_545
O25 Sr3 2.927293 1_555
O26 Sr0 2.927293 1_555
O27 Sr1 2.927293 1_565
O28 Sr3 2.738775 1_555
O29 Sr2 2.738775 1_555
O30 Sr1 2.738775 1_555
O31 Sr0 2.738775 1_555
