# generated using pymatgen
data_ThGe2
_symmetry_space_group_name_H-M   'P 1'
_cell_length_a   4.01549755
_cell_length_b   4.14771287
_cell_length_c   8.69925867
_cell_angle_alpha   90.00000000
_cell_angle_beta   103.34391717
_cell_angle_gamma   90.00000000
_symmetry_Int_Tables_number   1
_chemical_formula_structural   ThGe2
_chemical_formula_sum   'Th2 Ge4'
_cell_volume   140.97566145
_cell_formula_units_Z   2
loop_
 _symmetry_equiv_pos_site_id
 _symmetry_equiv_pos_as_xyz
  1  'x, y, z'
loop_
 _atom_site_type_symbol
 _atom_site_label
 _atom_site_symmetry_multiplicity
 _atom_site_fract_x
 _atom_site_fract_y
 _atom_site_fract_z
 _atom_site_occupancy
  Th  Th0  1  0.13672170  0.00000000  0.27344340  1
  Th  Th1  1  0.86327830  0.00000000  0.72655660  1
  Ge  Ge0  1  0.29641829  0.50000000  0.59283857  1
  Ge  Ge1  1  0.70358171  0.50000000  0.40716143  1
  Ge  Ge2  1  0.50000000  0.00000000  -0.00000000  1
  Ge  Ge3  1  0.00000000  0.50000000  -0.00000000  1
loop_
_geom_bond_atom_site_label_1
_geom_bond_atom_site_label_2
_geom_bond_distance
_geom_bond_site_symmetry_2
Ge0 Ge1 2.549724 1_455
Ge0 Ge1 2.549737 1_555
Ge0 Th1 3.100482 1_465
Ge0 Th1 3.100482 1_455
Ge0 Th1 3.100487 1_565
Ge0 Th1 3.100487 1_555
Ge0 Th0 3.407305 1_565
Ge0 Th0 3.407305 1_555
Ge1 Th0 3.100482 1_665
Ge1 Th0 3.100482 1_655
Ge1 Th0 3.100487 1_565
Ge1 Th0 3.100487 1_555
Ge1 Th1 3.407305 1_555
Ge1 Th1 3.407305 1_565
Ge2 Ge3 2.886509 1_555
Ge2 Ge3 2.886509 1_655
Ge2 Ge3 2.886509 1_645
Ge2 Ge3 2.886509 1_545
Ge2 Th1 3.064004 1_454
Ge2 Th0 3.064004 1_655
Ge2 Th0 3.064005 1_555
Ge2 Th1 3.064005 1_554
Ge3 Th1 3.107724 1_464
Ge3 Th0 3.107724 1_565
Ge3 Th1 3.107724 1_454
Ge3 Th0 3.107724 1_555
