# generated using pymatgen
data_FeNiTe4
_symmetry_space_group_name_H-M   'P 1'
_cell_length_a   6.35102200
_cell_length_b   6.31330400
_cell_length_c   6.33559160
_cell_angle_alpha   89.63352867
_cell_angle_beta   90.00000000
_cell_angle_gamma   90.00000000
_symmetry_Int_Tables_number   1
_chemical_formula_structural   FeNiTe4
_chemical_formula_sum   'Fe2 Ni2 Te8'
_cell_volume   254.02625732
_cell_formula_units_Z   2
loop_
 _symmetry_equiv_pos_site_id
 _symmetry_equiv_pos_as_xyz
  1  'x, y, z'
loop_
 _atom_site_type_symbol
 _atom_site_label
 _atom_site_symmetry_multiplicity
 _atom_site_fract_x
 _atom_site_fract_y
 _atom_site_fract_z
 _atom_site_occupancy
  Fe  Fe0  1  0.00000000  0.50000000  0.50000000  1
  Fe  Fe1  1  0.50000000  0.50000000  0.00000000  1
  Ni  Ni0  1  0.00000000  0.00000000  0.00000000  1
  Ni  Ni1  1  0.50000000  0.00000000  0.50000000  1
  Te  Te0  1  0.63056600  0.85891700  0.87134200  1
  Te  Te1  1  0.13056600  0.14108300  0.62865800  1
  Te  Te2  1  0.36265600  0.62623000  0.36138900  1
  Te  Te3  1  0.86265600  0.37377000  0.13861100  1
  Te  Te4  1  0.36943400  0.14108300  0.12865800  1
  Te  Te5  1  0.86943400  0.85891700  0.37134200  1
  Te  Te6  1  0.63734400  0.37377000  0.63861100  1
  Te  Te7  1  0.13734400  0.62623000  0.86138900  1
loop_
_geom_bond_atom_site_label_1
_geom_bond_atom_site_label_2
_geom_bond_distance
_geom_bond_site_symmetry_2
Fe0 Te5 2.542235 1_455
Fe0 Te1 2.542235 1_555
Fe0 Te7 2.581013 1_555
Fe0 Te3 2.581013 1_455
Fe0 Te2 2.588869 1_555
Fe0 Te6 2.588869 1_455
Fe1 Te4 2.542235 1_555
Fe1 Te0 2.542235 1_554
Fe1 Te2 2.581013 1_555
Fe1 Te6 2.581013 1_554
Fe1 Te7 2.588869 1_554
Fe1 Te3 2.588869 1_555
Ni0 Te0 2.640475 1_444
Ni0 Te4 2.640475 1_555
Ni0 Te5 2.643713 1_445
Ni0 Te1 2.643713 1_554
Ni0 Te3 2.669620 1_455
Ni0 Te7 2.669620 1_544
Ni1 Te1 2.640475 1_555
Ni1 Te5 2.640475 1_545
Ni1 Te0 2.643713 1_545
Ni1 Te4 2.643713 1_555
Ni1 Te6 2.669620 1_555
Ni1 Te2 2.669620 1_545
