# generated using pymatgen
data_LiMnPO4
_symmetry_space_group_name_H-M   'P 1'
_cell_length_a   5.53385681
_cell_length_b   7.64220414
_cell_length_c   8.34623912
_cell_angle_alpha   68.20158545
_cell_angle_beta   94.99205151
_cell_angle_gamma   103.33845352
_symmetry_Int_Tables_number   1
_chemical_formula_structural   LiMnPO4
_chemical_formula_sum   'Li4 Mn4 P4 O16'
_cell_volume   318.88981240
_cell_formula_units_Z   4
loop_
 _symmetry_equiv_pos_site_id
 _symmetry_equiv_pos_as_xyz
  1  'x, y, z'
loop_
 _atom_site_type_symbol
 _atom_site_label
 _atom_site_symmetry_multiplicity
 _atom_site_fract_x
 _atom_site_fract_y
 _atom_site_fract_z
 _atom_site_occupancy
  Li  Li0  1  0.78191800  0.78072700  0.72040200  1
  Li  Li1  1  0.28188700  0.28080300  0.22043000  1
  Li  Li2  1  0.01706400  0.01634700  0.98479900  1
  Li  Li3  1  0.51706600  0.51633700  0.48486200  1
  Mn  Mn0  1  0.89444800  0.18539900  0.54203300  1
  Mn  Mn1  1  0.60701300  0.31288100  0.96285100  1
  Mn  Mn2  1  0.39459900  0.68551000  0.04198700  1
  Mn  Mn3  1  0.10698600  0.81290800  0.46277300  1
  P  P0  1  0.09995500  0.44831200  0.78217900  1
  P  P1  1  0.60001200  0.94833000  0.28216600  1
  P  P2  1  0.39559600  0.04444900  0.72823600  1
  P  P3  1  0.89562000  0.54444700  0.22824900  1
  O  O0  1  0.54394900  0.87874300  0.79434000  1
  O  O1  1  0.04382200  0.37865600  0.29442900  1
  O  O2  1  0.26094300  0.42439600  0.95151200  1
  O  O3  1  0.76099000  0.92441400  0.45150700  1
  O  O4  1  0.98114900  0.24980800  0.77065700  1
  O  O5  1  0.48109100  0.74981700  0.27070900  1
  O  O6  1  0.27144200  0.57968600  0.62674800  1
  O  O7  1  0.77154300  0.07961900  0.12672500  1
  O  O8  1  0.53119400  0.21985000  0.57691100  1
  O  O9  1  0.03130600  0.71978600  0.07692100  1
  O  O10  1  0.36704500  0.09580500  0.88674100  1
  O  O11  1  0.86705100  0.59589000  0.38670000  1
  O  O12  1  0.13345900  0.96727700  0.65990500  1
  O  O13  1  0.63344800  0.46734800  0.15989400  1
  O  O14  1  0.87663500  0.53901400  0.79119900  1
  O  O15  1  0.37677100  0.03913500  0.29114100  1
loop_
_geom_bond_atom_site_label_1
_geom_bond_atom_site_label_2
_geom_bond_distance
_geom_bond_site_symmetry_2
Li0 O0 1.901571 1_555
Li0 O14 1.902184 1_555
Li0 O12 2.104419 1_655
Li0 O3 2.106916 1_555
Li1 O1 1.901433 1_555
Li1 O15 1.902358 1_555
Li1 O13 2.104515 1_555
Li1 O2 2.106990 1_554
Li2 O4 2.037306 1_455
Li2 O10 2.038049 1_555
Li2 O7 2.119336 1_456
Li2 O9 2.124042 1_546
Li3 O5 2.037514 1_555
Li3 O11 2.038342 1_555
Li3 O6 2.119869 1_555
Li3 O8 2.123374 1_555
Mn0 O4 2.131381 1_555
Mn0 O8 2.144272 1_555
Mn0 O1 2.145335 1_655
Mn0 O12 2.251404 1_645
Mn0 O3 2.331683 1_545
Mn1 O10 2.130356 1_555
Mn1 O7 2.144491 1_556
Mn1 O14 2.146795 1_555
Mn1 O2 2.250436 1_555
Mn1 O13 2.332333 1_556
Mn2 O5 2.131661 1_555
Mn2 O9 2.144085 1_555
Mn2 O0 2.145515 1_554
Mn2 O13 2.251009 1_555
Mn2 O2 2.332412 1_554
Mn3 O11 2.129785 1_455
Mn3 O6 2.144296 1_555
Mn3 O15 2.147521 1_565
Mn3 O3 2.250120 1_455
Mn3 O12 2.332404 1_555
O0 P2 1.569717 1_565
O1 P3 1.569673 1_455
O2 P0 1.577543 1_555
O3 P1 1.577569 1_555
O4 P0 1.542712 1_655
O5 P1 1.542687 1_555
O6 P0 1.548805 1_555
O7 P1 1.548863 1_545
O8 P2 1.548714 1_555
O9 P3 1.548687 1_455
O10 P2 1.542632 1_555
O11 P3 1.542620 1_555
O12 P2 1.577488 1_565
O13 P3 1.577563 1_555
O14 P0 1.569584 1_655
O15 P1 1.569593 1_545
