# generated using pymatgen
data_CaB2H
_symmetry_space_group_name_H-M   'P 1'
_cell_length_a   3.38868600
_cell_length_b   3.16850400
_cell_length_c   17.29143500
_cell_angle_alpha   90.00000000
_cell_angle_beta   90.00000000
_cell_angle_gamma   90.00000000
_symmetry_Int_Tables_number   1
_chemical_formula_structural   CaB2H
_chemical_formula_sum   'Ca4 B8 H4'
_cell_volume   185.65926406
_cell_formula_units_Z   4
loop_
 _symmetry_equiv_pos_site_id
 _symmetry_equiv_pos_as_xyz
  1  'x, y, z'
loop_
 _atom_site_type_symbol
 _atom_site_label
 _atom_site_symmetry_multiplicity
 _atom_site_fract_x
 _atom_site_fract_y
 _atom_site_fract_z
 _atom_site_occupancy
  Ca  Ca0  1  0.49191800  0.75000000  0.38100600  1
  Ca  Ca1  1  0.00808200  0.75000000  0.88100600  1
  Ca  Ca2  1  0.50808200  0.25000000  0.61899400  1
  Ca  Ca3  1  0.99191800  0.25000000  0.11899400  1
  B  B0  1  0.04356400  0.75000000  0.51409100  1
  B  B1  1  0.45643600  0.75000000  0.01409100  1
  B  B2  1  0.95643600  0.25000000  0.48590900  1
  B  B3  1  0.54356400  0.25000000  0.98590900  1
  B  B4  1  0.50603000  0.75000000  0.75148600  1
  B  B5  1  0.99397000  0.75000000  0.25148600  1
  B  B6  1  0.49397000  0.25000000  0.24851400  1
  B  B7  1  0.00603000  0.25000000  0.74851400  1
  H  H0  1  0.33091200  0.75000000  0.55613300  1
  H  H1  1  0.16908800  0.75000000  0.05613300  1
  H  H2  1  0.66908800  0.25000000  0.44386700  1
  H  H3  1  0.83091200  0.25000000  0.94386700  1
loop_
_geom_bond_atom_site_label_1
_geom_bond_atom_site_label_2
_geom_bond_distance
_geom_bond_site_symmetry_2
Ca0 H2 2.012903 1_555
Ca0 H2 2.012903 1_565
Ca1 H3 2.012903 1_455
Ca1 H3 2.012903 1_465
Ca2 H0 2.012903 1_555
Ca2 H0 2.012903 1_545
Ca3 H1 2.012903 1_655
Ca3 H1 2.012903 1_645
B0 H0 1.215169 1_555
B1 H1 1.215169 1_555
B2 H2 1.215169 1_555
B3 H3 1.215169 1_555
B4 B7 2.320193 1_555
B4 B7 2.320193 1_655
B4 B7 2.320193 1_565
B4 B7 2.320193 1_665
B4 Ca2 2.785404 1_565
B4 Ca2 2.785404 1_555
B4 Ca1 2.804110 1_555
B4 Ca1 2.812500 1_655
B5 B6 2.320193 1_565
B5 B6 2.320193 1_555
B5 B6 2.320193 1_655
B5 B6 2.320193 1_665
B5 Ca3 2.785404 1_555
B5 Ca3 2.785404 1_565
B5 Ca0 2.804110 1_655
B5 Ca0 2.812500 1_555
B6 Ca0 2.785404 1_555
B6 Ca0 2.785404 1_545
B6 Ca3 2.804110 1_555
B6 Ca3 2.812500 1_455
B7 Ca1 2.785404 1_545
B7 Ca1 2.785404 1_555
B7 Ca2 2.804110 1_455
B7 Ca2 2.812500 1_555
