# generated using pymatgen
data_Na6ZnSe4
_symmetry_space_group_name_H-M   'P 1'
_cell_length_a   9.26984113
_cell_length_b   9.26999606
_cell_length_c   7.15508706
_cell_angle_alpha   90.00004139
_cell_angle_beta   90.00077836
_cell_angle_gamma   120.00686294
_symmetry_Int_Tables_number   1
_chemical_formula_structural   Na6ZnSe4
_chemical_formula_sum   'Na12 Zn2 Se8'
_cell_volume   532.43593222
_cell_formula_units_Z   2
loop_
 _symmetry_equiv_pos_site_id
 _symmetry_equiv_pos_as_xyz
  1  'x, y, z'
loop_
 _atom_site_type_symbol
 _atom_site_label
 _atom_site_symmetry_multiplicity
 _atom_site_fract_x
 _atom_site_fract_y
 _atom_site_fract_z
 _atom_site_occupancy
  Na  Na0  1  0.85090424  0.70177798  0.03851867  1
  Na  Na1  1  0.29822464  0.14909815  0.03851894  1
  Na  Na2  1  0.85086385  0.14913867  0.03852519  1
  Na  Na3  1  0.14909658  0.29822208  0.53851775  1
  Na  Na4  1  0.70177917  0.85090509  0.53851819  1
  Na  Na5  1  0.14913736  0.85086315  0.53852286  1
  Na  Na6  1  0.47077885  0.94159643  0.86581103  1
  Na  Na7  1  0.05840645  0.52922354  0.86581025  1
  Na  Na8  1  0.47081618  0.52918694  0.86586292  1
  Na  Na9  1  0.52922562  0.05840766  0.36581074  1
  Na  Na10  1  0.94159498  0.47077808  0.36581124  1
  Na  Na11  1  0.52918586  0.47081563  0.36586224  1
  Zn  Zn0  1  0.66667424  0.33332522  0.74839653  1
  Zn  Zn1  1  0.33332696  0.66667690  0.24839744  1
  Se  Se0  1  0.66665744  0.33334176  0.09602318  1
  Se  Se1  1  0.33334946  0.66665638  0.59602378  1
  Se  Se2  1  0.81307882  0.62620681  0.64069297  1
  Se  Se3  1  0.37381309  0.18692367  0.64065973  1
  Se  Se4  1  0.81306972  0.18692744  0.64068762  1
  Se  Se5  1  0.18692082  0.37379367  0.14069315  1
  Se  Se6  1  0.62616769  0.81306214  0.14063630  1
  Se  Se7  1  0.18692998  0.81307160  0.14067728  1
loop_
_geom_bond_atom_site_label_1
_geom_bond_atom_site_label_2
_geom_bond_distance
_geom_bond_site_symmetry_2
Na0 Se7 2.843759 1_655
Na0 Se6 2.843887 1_555
Na0 Se2 2.910400 1_554
Na0 Se0 2.986106 1_555
Na1 Se5 2.843791 1_555
Na1 Se7 2.843829 1_545
Na1 Se3 2.910676 1_554
Na1 Se0 2.986020 1_555
Na2 Se5 2.843745 1_655
Na2 Se6 2.843894 1_545
Na2 Se4 2.910515 1_554
Na2 Se0 2.986166 1_555
Na3 Se4 2.843809 1_455
Na3 Se3 2.843844 1_555
Na3 Se5 2.910403 1_555
Na3 Se1 2.986086 1_555
Na4 Se2 2.843781 1_555
Na4 Se4 2.843813 1_565
Na4 Se6 2.910854 1_555
Na4 Se1 2.986010 1_555
Na5 Se3 2.843782 1_565
Na5 Se2 2.843784 1_455
Na5 Se7 2.910582 1_555
Na5 Se1 2.986238 1_555
Na6 Se1 2.932130 1_555
Na6 Se7 3.012530 1_556
Na6 Se6 3.012945 1_556
Na6 Se4 3.258386 1_565
Na6 Se3 3.258781 1_565
Na7 Se1 2.932152 1_555
Na7 Se7 3.012524 1_556
Na7 Se5 3.013360 1_556
Na7 Se4 3.258411 1_455
Na7 Se2 3.258733 1_455
Na8 Se1 2.932511 1_555
Na8 Se6 3.012230 1_556
Na8 Se5 3.012641 1_556
Na8 Se2 3.258342 1_555
Na8 Se3 3.258516 1_555
Na9 Se0 2.932121 1_555
Na9 Se4 3.012504 1_555
Na9 Se3 3.013121 1_555
Na9 Se7 3.258415 1_545
Na9 Se6 3.258878 1_545
Na10 Se0 2.932080 1_555
Na10 Se4 3.012607 1_555
Na10 Se2 3.013377 1_555
Na10 Se7 3.258466 1_655
Na10 Se5 3.258758 1_655
Na11 Se0 2.932588 1_555
Na11 Se3 3.012477 1_555
Na11 Se2 3.012581 1_555
Na11 Se5 3.258310 1_555
Na11 Se6 3.258523 1_555
Se0 Zn0 2.487299 1_554
Se1 Zn1 2.487297 1_555
Se2 Zn0 2.474187 1_555
Se3 Zn0 2.474049 1_555
Se4 Zn0 2.473737 1_555
Se5 Zn1 2.474188 1_555
Se6 Zn1 2.473971 1_555
Se7 Zn1 2.473739 1_555
