# generated using pymatgen
data_Na2Ti12O25
_symmetry_space_group_name_H-M   'P 1'
_cell_length_a   3.73428875
_cell_length_b   9.31057391
_cell_length_c   14.47910503
_cell_angle_alpha   73.81657875
_cell_angle_beta   90.00000000
_cell_angle_gamma   90.00000000
_symmetry_Int_Tables_number   1
_chemical_formula_structural   Na2Ti12O25
_chemical_formula_sum   'Na2 Ti12 O25'
_cell_volume   483.46677010
_cell_formula_units_Z   1
loop_
 _symmetry_equiv_pos_site_id
 _symmetry_equiv_pos_as_xyz
  1  'x, y, z'
loop_
 _atom_site_type_symbol
 _atom_site_label
 _atom_site_symmetry_multiplicity
 _atom_site_fract_x
 _atom_site_fract_y
 _atom_site_fract_z
 _atom_site_occupancy
  Na  Na0  1  0.50000000  0.29046139  0.95905844  1
  Na  Na1  1  0.50000000  0.70953861  0.04094156  1
  Ti  Ti0  1  0.50000000  0.36416980  0.59375055  1
  Ti  Ti1  1  0.50000000  0.63583020  0.40624945  1
  Ti  Ti2  1  0.00000000  0.99030390  0.87579686  1
  Ti  Ti3  1  0.00000000  0.00969610  0.12420314  1
  Ti  Ti4  1  0.50000000  0.31906692  0.35306243  1
  Ti  Ti5  1  0.50000000  0.68093308  0.64693757  1
  Ti  Ti6  1  0.50000000  0.03258828  0.29483284  1
  Ti  Ti7  1  0.50000000  0.96741172  0.70516716  1
  Ti  Ti8  1  0.00000000  0.39635228  0.75921214  1
  Ti  Ti9  1  0.00000000  0.60364772  0.24078786  1
  Ti  Ti10  1  -0.00000000  0.68491006  0.82550447  1
  Ti  Ti11  1  0.00000000  0.31508994  0.17449553  1
  O  O0  1  -0.00000000  0.47855416  0.86726457  1
  O  O1  1  -0.00000000  0.52144584  0.13273543  1
  O  O2  1  -0.00000000  0.37684621  0.62252157  1
  O  O3  1  0.00000000  0.62315379  0.37747843  1
  O  O4  1  0.50000000  0.28347680  0.21545333  1
  O  O5  1  0.50000000  0.71652320  0.78454667  1
  O  O6  1  0.50000000  0.16028102  0.64000468  1
  O  O7  1  0.50000000  0.83971898  0.35999532  1
  O  O8  1  -0.00000000  0.76052890  0.92695526  1
  O  O9  1  0.00000000  0.23947110  0.07304474  1
  O  O10  1  0.50000000  0.01261376  0.15572962  1
  O  O11  1  0.50000000  0.98738624  0.84427038  1
  O  O12  1  0.50000000  0.43364984  0.72300994  1
  O  O13  1  0.50000000  0.56635016  0.27699006  1
  O  O14  1  0.50000000  0.39318503  0.46099487  1
  O  O15  1  0.50000000  0.60681497  0.53900513  1
  O  O16  1  -0.00000000  0.92627324  0.74359509  1
  O  O17  1  0.00000000  0.07372676  0.25640491  1
  O  O18  1  0.50000000  0.12109630  0.39580312  1
  O  O19  1  0.50000000  0.87890370  0.60419688  1
  O  O20  1  0.00000000  0.20635609  0.82791533  1
  O  O21  1  -0.00000000  0.79364391  0.17208467  1
  O  O22  1  0.00000000  0.64214890  0.68442683  1
  O  O23  1  0.00000000  0.35785110  0.31557317  1
  O  O24  1  0.00000000  0.00000000  0.00000000  1
loop_
_geom_bond_atom_site_label_1
_geom_bond_atom_site_label_2
_geom_bond_distance
_geom_bond_site_symmetry_2
Na0 O9 2.449232 1_656
Na0 O9 2.449232 1_556
Na0 O0 2.649933 1_655
Na0 O0 2.649933 1_555
Na0 O20 2.921275 1_655
Na0 O20 2.921275 1_555
Na1 O8 2.449232 1_654
Na1 O8 2.449232 1_554
Na1 O1 2.649933 1_555
Na1 O1 2.649933 1_655
Na1 O21 2.921275 1_555
Na1 O21 2.921275 1_655
O0 Ti10 1.846455 1_555
O0 Ti8 1.923767 1_555
O1 Ti11 1.846455 1_555
O1 Ti9 1.923767 1_555
O2 Ti0 1.923825 1_455
O2 Ti0 1.923825 1_555
O2 Ti8 2.037255 1_555
O3 Ti1 1.923825 1_455
O3 Ti1 1.923825 1_555
O3 Ti9 2.037255 1_555
O4 Ti11 1.956336 1_655
O4 Ti11 1.956336 1_555
O4 Ti4 2.108961 1_555
O4 Ti6 2.298028 1_555
O5 Ti10 1.956336 1_655
O5 Ti10 1.956336 1_555
O5 Ti5 2.108961 1_555
O5 Ti7 2.298028 1_555
O6 Ti7 1.780557 1_545
O6 Ti0 1.828515 1_555
O7 Ti6 1.780557 1_565
O7 Ti1 1.828515 1_555
O8 Ti10 1.797192 1_555
O8 Ti2 2.059637 1_555
O9 Ti11 1.797192 1_555
O9 Ti3 2.059637 1_555
O10 Ti3 1.924123 1_555
O10 Ti3 1.924123 1_655
O10 Ti6 2.073630 1_555
O11 Ti2 1.924123 1_655
O11 Ti2 1.924123 1_555
O11 Ti7 2.073630 1_555
O12 Ti8 1.944251 1_555
O12 Ti8 1.944251 1_655
O12 Ti0 2.143851 1_555
O12 Ti5 2.258411 1_555
O13 Ti9 1.944251 1_655
O13 Ti9 1.944251 1_555
O13 Ti1 2.143851 1_555
O13 Ti4 2.258411 1_555
O14 Ti0 1.865023 1_555
O14 Ti4 1.876059 1_555
O14 Ti1 2.175760 1_555
O15 Ti1 1.865023 1_555
O15 Ti5 1.876059 1_555
O15 Ti0 2.175760 1_555
O16 Ti7 1.955434 1_555
O16 Ti7 1.955434 1_455
O16 Ti2 2.157670 1_555
O16 Ti10 2.229562 1_555
O17 Ti6 1.955434 1_455
O17 Ti6 1.955434 1_555
O17 Ti3 2.157670 1_555
O17 Ti11 2.229562 1_555
O18 Ti4 1.773300 1_555
O18 Ti6 1.867607 1_555
O19 Ti5 1.773300 1_555
O19 Ti7 1.867607 1_555
O20 Ti8 1.771415 1_555
O20 Ti2 1.936408 1_545
O21 Ti9 1.771415 1_555
O21 Ti3 1.936408 1_565
O22 Ti5 1.949873 1_555
O22 Ti5 1.949873 1_455
O22 Ti10 2.187320 1_555
O22 Ti8 2.242419 1_555
O23 Ti4 1.949873 1_455
O23 Ti4 1.949873 1_555
O23 Ti11 2.187320 1_555
O23 Ti9 2.242419 1_555
O24 Ti3 1.825571 1_555
O24 Ti2 1.825571 1_544
