# generated using pymatgen
data_BaNaLaFeO6
_symmetry_space_group_name_H-M   'P 1'
_cell_length_a   8.34232967
_cell_length_b   8.41245659
_cell_length_c   8.42961384
_cell_angle_alpha   90.00000000
_cell_angle_beta   90.00000000
_cell_angle_gamma   90.00000000
_symmetry_Int_Tables_number   1
_chemical_formula_structural   BaNaLaFeO6
_chemical_formula_sum   'Ba4 Na4 La4 Fe4 O24'
_cell_volume   591.58596823
_cell_formula_units_Z   4
loop_
 _symmetry_equiv_pos_site_id
 _symmetry_equiv_pos_as_xyz
  1  'x, y, z'
loop_
 _atom_site_type_symbol
 _atom_site_label
 _atom_site_symmetry_multiplicity
 _atom_site_fract_x
 _atom_site_fract_y
 _atom_site_fract_z
 _atom_site_occupancy
  Ba  Ba0  1  0.00000000  -0.00000000  0.00000000  1
  Ba  Ba1  1  0.50000000  0.50000000  0.50000000  1
  Ba  Ba2  1  0.50000000  0.50000000  0.00000000  1
  Ba  Ba3  1  0.00000000  -0.00000000  0.50000000  1
  Na  Na0  1  0.00000000  0.50000000  0.50000000  1
  Na  Na1  1  0.50000000  -0.00000000  0.50000000  1
  Na  Na2  1  0.50000000  -0.00000000  -0.00000000  1
  Na  Na3  1  0.00000000  0.50000000  0.00000000  1
  La  La0  1  0.25000000  0.25000000  0.25000000  1
  La  La1  1  0.75000000  0.75000000  0.25000000  1
  La  La2  1  0.75000000  0.25000000  0.75000000  1
  La  La3  1  0.25000000  0.75000000  0.75000000  1
  Fe  Fe0  1  0.75000000  0.75000000  0.75000000  1
  Fe  Fe1  1  0.25000000  0.25000000  0.75000000  1
  Fe  Fe2  1  0.25000000  0.75000000  0.25000000  1
  Fe  Fe3  1  0.75000000  0.25000000  0.25000000  1
  O  O0  1  0.97279756  0.22365557  0.26978092  1
  O  O1  1  0.02720244  0.77634443  0.26978092  1
  O  O2  1  0.02720244  0.22365557  0.73021908  1
  O  O3  1  0.97279756  0.77634443  0.73021908  1
  O  O4  1  0.26845946  0.97144584  0.22407599  1
  O  O5  1  0.26845946  0.02855416  0.77592401  1
  O  O6  1  0.73154054  0.02855416  0.22407599  1
  O  O7  1  0.73154054  0.97144584  0.77592401  1
  O  O8  1  0.22506227  0.27422186  0.97177992  1
  O  O9  1  0.77493773  0.27422186  0.02822008  1
  O  O10  1  0.22506227  0.72577814  0.02822008  1
  O  O11  1  0.77493773  0.72577814  0.97177992  1
  O  O12  1  0.52720244  0.27634443  0.23021908  1
  O  O13  1  0.47279756  0.72365557  0.23021908  1
  O  O14  1  0.47279756  0.27634443  0.76978092  1
  O  O15  1  0.52720244  0.72365557  0.76978092  1
  O  O16  1  0.23154054  0.52855416  0.27592401  1
  O  O17  1  0.23154054  0.47144584  0.72407599  1
  O  O18  1  0.76845946  0.47144584  0.27592401  1
  O  O19  1  0.76845946  0.52855416  0.72407599  1
  O  O20  1  0.27493773  0.22577814  0.52822008  1
  O  O21  1  0.72506227  0.22577814  0.47177992  1
  O  O22  1  0.27493773  0.77422186  0.47177992  1
  O  O23  1  0.72506227  0.77422186  0.52822008  1
loop_
_geom_bond_atom_site_label_1
_geom_bond_atom_site_label_2
_geom_bond_distance
_geom_bond_site_symmetry_2
Ba0 O7 2.939601 1_444
Ba0 O6 2.939601 1_455
Ba0 O4 2.939601 1_545
Ba0 O5 2.939601 1_554
Ba0 O3 2.960282 1_444
Ba0 O2 2.960282 1_554
Ba0 O1 2.960282 1_545
Ba0 O0 2.960282 1_455
Ba0 O8 2.983865 1_554
Ba0 O9 2.983865 1_455
Ba0 O10 2.983865 1_545
Ba0 O11 2.983865 1_444
Ba1 O18 2.939601 1_555
Ba1 O19 2.939601 1_555
Ba1 O16 2.939601 1_555
Ba1 O17 2.939601 1_555
Ba1 O14 2.960282 1_555
Ba1 O13 2.960282 1_555
Ba1 O15 2.960282 1_555
Ba1 O12 2.960282 1_555
Ba1 O21 2.983865 1_555
Ba1 O20 2.983865 1_555
Ba1 O22 2.983865 1_555
Ba1 O23 2.983865 1_555
Ba2 O12 2.712502 1_555
Ba2 O13 2.712502 1_555
Ba2 O14 2.712502 1_554
Ba2 O15 2.712502 1_554
Ba2 O10 2.987443 1_555
Ba2 O11 2.987443 1_554
Ba2 O8 2.987443 1_554
Ba2 O9 2.987443 1_555
Ba2 O19 3.237803 1_554
Ba2 O16 3.237803 1_555
Ba2 O17 3.237803 1_554
Ba2 O18 3.237803 1_555
Ba3 O0 2.712502 1_455
Ba3 O2 2.712502 1_555
Ba3 O3 2.712502 1_445
Ba3 O1 2.712502 1_545
Ba3 O22 2.987443 1_545
Ba3 O23 2.987443 1_445
Ba3 O20 2.987443 1_555
Ba3 O21 2.987443 1_455
Ba3 O5 3.237803 1_555
Ba3 O4 3.237803 1_545
Ba3 O6 3.237803 1_455
Ba3 O7 3.237803 1_445
Na0 O16 2.712301 1_555
Na0 O19 2.712301 1_455
Na0 O17 2.712301 1_555
Na0 O18 2.712301 1_455
Na1 O23 2.681284 1_545
Na1 O22 2.681284 1_545
Na1 O20 2.681284 1_555
Na1 O21 2.681284 1_555
Na1 O7 3.032935 1_545
Na1 O5 3.032935 1_555
Na1 O6 3.032935 1_555
Na1 O4 3.032935 1_545
Na2 O4 2.712301 1_545
Na2 O7 2.712301 1_544
Na2 O5 2.712301 1_554
Na2 O6 2.712301 1_555
Na3 O10 2.681284 1_555
Na3 O11 2.681284 1_454
Na3 O8 2.681284 1_554
Na3 O9 2.681284 1_455
Na3 O16 3.032935 1_555
Na3 O17 3.032935 1_554
Na3 O18 3.032935 1_455
Na3 O19 3.032935 1_454
La0 O0 2.329086 1_455
La0 O12 2.329086 1_555
La0 O4 2.358525 1_545
La0 O16 2.358525 1_555
La0 O20 2.363298 1_555
La0 O8 2.363298 1_554
La1 O1 2.329086 1_655
La1 O13 2.329086 1_555
La1 O18 2.358525 1_555
La1 O6 2.358525 1_565
La1 O11 2.363298 1_554
La1 O23 2.363298 1_555
La2 O2 2.329086 1_655
La2 O14 2.329086 1_555
La2 O19 2.358525 1_555
La2 O7 2.358525 1_545
La2 O21 2.363298 1_555
La2 O9 2.363298 1_556
La3 O3 2.329086 1_455
La3 O15 2.329086 1_555
La3 O17 2.358525 1_555
La3 O5 2.358525 1_565
La3 O22 2.363298 1_555
La3 O10 2.363298 1_556
Fe0 O15 1.879229 1_555
Fe0 O3 1.879229 1_555
Fe0 O7 1.881988 1_555
Fe0 O19 1.881988 1_555
Fe0 O23 1.892063 1_555
Fe0 O11 1.892063 1_555
Fe1 O14 1.879229 1_555
Fe1 O2 1.879229 1_555
Fe1 O17 1.881988 1_555
Fe1 O5 1.881988 1_555
Fe1 O8 1.892063 1_555
Fe1 O20 1.892063 1_555
Fe2 O1 1.879229 1_555
Fe2 O13 1.879229 1_555
Fe2 O4 1.881988 1_555
Fe2 O16 1.881988 1_555
Fe2 O10 1.892063 1_555
Fe2 O22 1.892063 1_555
Fe3 O12 1.879229 1_555
Fe3 O0 1.879229 1_555
Fe3 O18 1.881988 1_555
Fe3 O6 1.881988 1_555
Fe3 O9 1.892063 1_555
Fe3 O21 1.892063 1_555
