# generated using pymatgen
data_Ce2Mn3Al
_symmetry_space_group_name_H-M   'P 1'
_cell_length_a   5.38511578
_cell_length_b   5.38511578
_cell_length_c   8.45171700
_cell_angle_alpha   90.00000000
_cell_angle_beta   90.00000000
_cell_angle_gamma   119.99999725
_symmetry_Int_Tables_number   1
_chemical_formula_structural   Ce2Mn3Al
_chemical_formula_sum   'Ce4 Mn6 Al2'
_cell_volume   212.25878788
_cell_formula_units_Z   2
loop_
 _symmetry_equiv_pos_site_id
 _symmetry_equiv_pos_as_xyz
  1  'x, y, z'
loop_
 _atom_site_type_symbol
 _atom_site_label
 _atom_site_symmetry_multiplicity
 _atom_site_fract_x
 _atom_site_fract_y
 _atom_site_fract_z
 _atom_site_occupancy
  Ce  Ce0  1  0.33333300  0.66666700  0.42903900  1
  Ce  Ce1  1  0.66666700  0.33333300  0.57096100  1
  Ce  Ce2  1  0.66666700  0.33333300  0.92903900  1
  Ce  Ce3  1  0.33333300  0.66666700  0.07096100  1
  Mn  Mn0  1  0.82910100  0.17089900  0.25000000  1
  Mn  Mn1  1  0.82910100  0.65820300  0.25000000  1
  Mn  Mn2  1  0.34179700  0.17089900  0.25000000  1
  Mn  Mn3  1  0.17089900  0.82910100  0.75000000  1
  Mn  Mn4  1  0.17089900  0.34179700  0.75000000  1
  Mn  Mn5  1  0.65820300  0.82910100  0.75000000  1
  Al  Al0  1  0.00000000  0.00000000  0.50000000  1
  Al  Al1  1  0.00000000  0.00000000  0.00000000  1
loop_
_geom_bond_atom_site_label_1
_geom_bond_atom_site_label_2
_geom_bond_distance
_geom_bond_site_symmetry_2
Ce0 Ce3 3.026374 1_555
Ce0 Mn2 3.088877 1_555
Ce0 Mn1 3.088877 1_555
Ce0 Mn1 3.088877 1_455
Ce0 Mn2 3.088877 1_565
Ce0 Mn0 3.088877 1_565
Ce0 Mn0 3.088877 1_455
Ce0 Mn3 3.107092 1_555
Ce0 Mn5 3.107097 1_555
Ce0 Mn4 3.107097 1_555
Ce0 Ce1 3.332452 1_455
Ce0 Ce1 3.332452 1_565
Ce0 Ce1 3.332460 1_555
Ce1 Ce2 3.026374 1_555
Ce1 Mn4 3.088877 1_555
Ce1 Mn5 3.088877 1_555
Ce1 Mn5 3.088877 1_545
Ce1 Mn4 3.088877 1_655
Ce1 Mn3 3.088877 1_545
Ce1 Mn3 3.088877 1_655
Ce1 Mn0 3.107092 1_555
Ce1 Mn1 3.107097 1_555
Ce1 Mn2 3.107097 1_555
Ce2 Mn4 3.088877 1_555
Ce2 Mn5 3.088877 1_555
Ce2 Mn5 3.088877 1_545
Ce2 Mn4 3.088877 1_655
Ce2 Mn3 3.088877 1_655
Ce2 Mn3 3.088877 1_545
Ce2 Mn0 3.107092 1_556
Ce2 Mn1 3.107097 1_556
Ce2 Mn2 3.107097 1_556
Ce2 Ce3 3.332452 1_546
Ce2 Ce3 3.332452 1_656
Ce2 Ce3 3.332460 1_556
Ce3 Mn2 3.088877 1_555
Ce3 Mn1 3.088877 1_555
Ce3 Mn1 3.088877 1_455
Ce3 Mn2 3.088877 1_565
Ce3 Mn0 3.088877 1_565
Ce3 Mn0 3.088877 1_455
Ce3 Mn3 3.107092 1_554
Ce3 Mn5 3.107097 1_554
Ce3 Mn4 3.107097 1_554
Mn0 Mn1 2.624188 1_555
Mn0 Mn2 2.624188 1_555
Mn0 Mn2 2.760927 1_655
Mn0 Mn1 2.760927 1_545
Mn1 Mn2 2.624189 1_555
Mn1 Mn2 2.760927 1_665
Mn3 Mn5 2.624188 1_555
Mn3 Mn4 2.624188 1_555
Mn3 Mn4 2.760927 1_565
Mn3 Mn5 2.760927 1_455
Mn4 Mn5 2.624189 1_555
Mn4 Mn5 2.760927 1_445
Al0 Mn4 2.646766 1_555
Al0 Mn2 2.646766 1_555
Al0 Mn1 2.646766 1_445
Al0 Mn5 2.646766 1_445
Al0 Mn3 2.646769 1_545
Al0 Mn0 2.646769 1_455
Al0 Ce1 3.166412 1_455
Al0 Ce0 3.166412 1_545
Al0 Ce1 3.166416 1_445
Al0 Ce1 3.166416 1_555
Al0 Ce0 3.166416 1_445
Al0 Ce0 3.166416 1_555
Al1 Mn4 2.646766 1_554
Al1 Mn2 2.646766 1_555
Al1 Mn1 2.646766 1_445
Al1 Mn5 2.646766 1_444
Al1 Mn3 2.646769 1_544
Al1 Mn0 2.646769 1_455
Al1 Ce2 3.166412 1_454
Al1 Ce3 3.166412 1_545
Al1 Ce3 3.166416 1_445
Al1 Ce3 3.166416 1_555
Al1 Ce2 3.166416 1_444
Al1 Ce2 3.166416 1_554
