# generated using pymatgen
data_Ti6PtAu
_symmetry_space_group_name_H-M   'P 1'
_cell_length_a   5.05612307
_cell_length_b   5.05614514
_cell_length_c   5.05616695
_cell_angle_alpha   90.00000000
_cell_angle_beta   90.00000000
_cell_angle_gamma   90.00000000
_symmetry_Int_Tables_number   1
_chemical_formula_structural   Ti6PtAu
_chemical_formula_sum   'Ti6 Pt1 Au1'
_cell_volume   129.25833999
_cell_formula_units_Z   1
loop_
 _symmetry_equiv_pos_site_id
 _symmetry_equiv_pos_as_xyz
  1  'x, y, z'
loop_
 _atom_site_type_symbol
 _atom_site_label
 _atom_site_symmetry_multiplicity
 _atom_site_fract_x
 _atom_site_fract_y
 _atom_site_fract_z
 _atom_site_occupancy
  Ti  Ti0  1  -0.00000000  0.50000000  0.75355055  1
  Ti  Ti1  1  0.50000000  0.24645392  0.00000000  1
  Ti  Ti2  1  0.75354688  -0.00000000  0.50000000  1
  Ti  Ti3  1  -0.00000000  0.50000000  0.24644945  1
  Ti  Ti4  1  0.50000000  0.75354608  0.00000000  1
  Ti  Ti5  1  0.24645312  -0.00000000  0.50000000  1
  Pt  Pt0  1  -0.00000000  -0.00000000  0.00000000  1
  Au  Au0  1  0.50000000  0.50000000  0.50000000  1
loop_
_geom_bond_atom_site_label_1
_geom_bond_atom_site_label_2
_geom_bond_distance
_geom_bond_site_symmetry_2
Ti0 Ti3 2.492179 1_556
Ti0 Ti3 2.563988 1_555
Ti0 Ti4 3.096332 1_456
Ti0 Ti4 3.096332 1_556
Ti0 Ti1 3.096332 1_456
Ti0 Ti1 3.096332 1_556
Ti0 Ti2 3.096356 1_455
Ti0 Ti5 3.096356 1_555
Ti0 Ti5 3.096356 1_565
Ti0 Ti2 3.096356 1_465
Ti1 Ti4 2.492214 1_545
Ti1 Ti4 2.563932 1_555
Ti1 Ti3 3.096332 1_555
Ti1 Ti3 3.096332 1_655
Ti1 Ti5 3.096356 1_554
Ti1 Ti2 3.096356 1_554
Ti1 Ti2 3.096356 1_555
Ti1 Ti5 3.096356 1_555
Ti2 Ti5 2.492195 1_655
Ti2 Ti5 2.563928 1_555
Ti2 Ti3 3.096356 1_655
Ti2 Ti3 3.096356 1_645
Ti2 Ti4 3.096356 1_546
Ti2 Ti4 3.096356 1_545
Ti3 Ti4 3.096332 1_455
Ti3 Ti4 3.096332 1_555
Ti3 Ti5 3.096356 1_555
Ti3 Ti5 3.096356 1_565
Ti4 Ti5 3.096356 1_565
Ti4 Ti5 3.096356 1_564
Pt0 Ti1 2.818488 1_455
Pt0 Ti1 2.818488 1_555
Pt0 Ti4 2.818488 1_545
Pt0 Ti4 2.818488 1_445
Pt0 Ti0 2.818491 1_554
Pt0 Ti3 2.818491 1_545
Pt0 Ti3 2.818491 1_555
Pt0 Ti0 2.818491 1_544
Pt0 Ti2 2.818504 1_455
Pt0 Ti2 2.818504 1_454
Pt0 Ti5 2.818504 1_554
Pt0 Ti5 2.818504 1_555
Au0 Ti2 2.834534 1_555
Au0 Ti5 2.834534 1_555
Au0 Ti2 2.834534 1_565
Au0 Ti5 2.834534 1_565
Au0 Ti0 2.834538 1_555
Au0 Ti3 2.834538 1_555
Au0 Ti3 2.834538 1_655
Au0 Ti0 2.834538 1_655
Au0 Ti4 2.834544 1_556
Au0 Ti4 2.834544 1_555
Au0 Ti1 2.834544 1_555
Au0 Ti1 2.834544 1_556
