# generated using pymatgen
data_Na2CoP2O7
_symmetry_space_group_name_H-M   'P 1'
_cell_length_a   7.87097400
_cell_length_b   7.87096700
_cell_length_c   10.29698600
_cell_angle_alpha   89.99998716
_cell_angle_beta   90.00004410
_cell_angle_gamma   90.00000000
_symmetry_Int_Tables_number   1
_chemical_formula_structural   Na2CoP2O7
_chemical_formula_sum   'Na8 Co4 P8 O28'
_cell_volume   637.92069524
_cell_formula_units_Z   4
loop_
 _symmetry_equiv_pos_site_id
 _symmetry_equiv_pos_as_xyz
  1  'x, y, z'
loop_
 _atom_site_type_symbol
 _atom_site_label
 _atom_site_symmetry_multiplicity
 _atom_site_fract_x
 _atom_site_fract_y
 _atom_site_fract_z
 _atom_site_occupancy
  Na  Na0  1  0.83287700  0.33287700  0.24532000  1
  Na  Na1  1  0.83287700  0.33287700  0.74532100  1
  Na  Na2  1  0.66712300  0.83287700  0.25467900  1
  Na  Na3  1  0.66712300  0.83287700  0.75468000  1
  Na  Na4  1  0.16712300  0.66712300  0.24532000  1
  Na  Na5  1  0.16712300  0.66712300  0.74532100  1
  Na  Na6  1  0.33287700  0.16712300  0.25467900  1
  Na  Na7  1  0.33287700  0.16712300  0.75468000  1
  Co  Co0  1  0.49999900  0.49999800  0.49999900  1
  Co  Co1  1  0.99999900  0.00000000  0.00000000  1
  Co  Co2  1  0.50000000  0.50000000  0.00000000  1
  Co  Co3  1  0.00000100  0.00000000  0.50000000  1
  P  P0  1  0.63847000  0.13847100  0.03583100  1
  P  P1  1  0.63847200  0.13847000  0.53583100  1
  P  P2  1  0.86152900  0.63847200  0.46416900  1
  P  P3  1  0.86152900  0.63847000  0.96416900  1
  P  P4  1  0.36152900  0.86152900  0.03583100  1
  P  P5  1  0.36152900  0.86152900  0.53583100  1
  P  P6  1  0.13847000  0.36152900  0.46417000  1
  P  P7  1  0.13847100  0.36152900  0.96416900  1
  O  O0  1  0.00000100  0.50000000  0.40853600  1
  O  O1  1  0.00000000  0.50000000  0.90853500  1
  O  O2  1  0.50000000  0.00000000  0.09146500  1
  O  O3  1  0.50000000  0.00000000  0.59146400  1
  O  O4  1  0.63971000  0.13971000  0.38941600  1
  O  O5  1  0.63971000  0.13971100  0.88941500  1
  O  O6  1  0.86028900  0.63971000  0.11058500  1
  O  O7  1  0.86029000  0.63971000  0.61058400  1
  O  O8  1  0.36029000  0.86029000  0.38941600  1
  O  O9  1  0.36029100  0.86029000  0.88941500  1
  O  O10  1  0.13971100  0.36029000  0.11058500  1
  O  O11  1  0.13971000  0.36028900  0.61058300  1
  O  O12  1  0.30428400  0.41992900  0.39657100  1
  O  O13  1  0.30428500  0.41992500  0.89656900  1
  O  O14  1  0.19571600  0.91992900  0.10343100  1
  O  O15  1  0.19571500  0.91992500  0.60342900  1
  O  O16  1  0.69571600  0.58007200  0.39657000  1
  O  O17  1  0.69571500  0.58007400  0.89656900  1
  O  O18  1  0.80428400  0.08007200  0.10343000  1
  O  O19  1  0.80428500  0.08007400  0.60343000  1
  O  O20  1  0.58007400  0.30428500  0.10343100  1
  O  O21  1  0.58007200  0.30428500  0.60342900  1
  O  O22  1  0.91992500  0.80428500  0.39657000  1
  O  O23  1  0.91992900  0.80428400  0.89656900  1
  O  O24  1  0.41992500  0.69571500  0.10343100  1
  O  O25  1  0.41992900  0.69571600  0.60343100  1
  O  O26  1  0.08007400  0.19571500  0.39657100  1
  O  O27  1  0.08007200  0.19571600  0.89656900  1
loop_
_geom_bond_atom_site_label_1
_geom_bond_atom_site_label_2
_geom_bond_distance
_geom_bond_site_symmetry_2
Na0 O20 2.478825 1_555
Na0 O18 2.478844 1_555
Na0 O0 2.507031 1_655
Na0 O4 2.612438 1_555
Na0 O16 2.716005 1_555
Na0 O26 2.716024 1_655
Na0 O6 2.793547 1_555
Na0 O10 2.793558 1_655
Na1 O19 2.478837 1_555
Na1 O21 2.478856 1_555
Na1 O1 2.507013 1_655
Na1 O5 2.612422 1_555
Na1 O27 2.715992 1_655
Na1 O17 2.716007 1_555
Na1 O7 2.793558 1_555
Na1 O11 2.793565 1_655
Na2 O22 2.478831 1_555
Na2 O16 2.478850 1_555
Na2 O2 2.507013 1_565
Na2 O6 2.612422 1_555
Na2 O18 2.715998 1_565
Na2 O24 2.716012 1_555
Na2 O4 2.793559 1_565
Na2 O8 2.793561 1_555
Na3 O17 2.478824 1_555
Na3 O23 2.478845 1_555
Na3 O3 2.507027 1_565
Na3 O7 2.612439 1_555
Na3 O25 2.715993 1_555
Na3 O19 2.716019 1_565
Na3 O9 2.793544 1_555
Na3 O5 2.793555 1_565
Na4 O24 2.478821 1_555
Na4 O14 2.478844 1_555
Na4 O0 2.507024 1_555
Na4 O8 2.612437 1_555
Na4 O12 2.716004 1_555
Na4 O22 2.716026 1_455
Na4 O10 2.793548 1_555
Na4 O6 2.793556 1_455
Na5 O15 2.478836 1_555
Na5 O25 2.478853 1_555
Na5 O1 2.507014 1_555
Na5 O9 2.612430 1_555
Na5 O23 2.715988 1_455
Na5 O13 2.716011 1_555
Na5 O7 2.793559 1_455
Na5 O11 2.793570 1_555
Na6 O26 2.478845 1_555
Na6 O12 2.478863 1_555
Na6 O2 2.507015 1_555
Na6 O10 2.612421 1_555
Na6 O14 2.715986 1_545
Na6 O20 2.716008 1_555
Na6 O8 2.793558 1_545
Na6 O4 2.793559 1_555
Na7 O13 2.478819 1_555
Na7 O27 2.478840 1_555
Na7 O3 2.507028 1_555
Na7 O11 2.612438 1_555
Na7 O21 2.716015 1_555
Na7 O15 2.716030 1_545
Na7 O9 2.793548 1_545
Na7 O5 2.793548 1_555
Co0 O12 1.975964 1_555
Co0 O21 1.975972 1_555
Co0 O16 1.975996 1_555
Co0 O25 1.976007 1_555
Co1 O18 1.975984 1_555
Co1 O23 1.975989 1_544
Co1 O27 1.975997 1_654
Co1 O14 1.975998 1_645
Co2 O20 1.975993 1_555
Co2 O17 1.975994 1_554
Co2 O13 1.975996 1_554
Co2 O24 1.975996 1_555
Co3 O15 1.975978 1_545
Co3 O26 1.975979 1_555
Co3 O22 1.975992 1_445
Co3 O19 1.975995 1_455
O0 P6 1.644355 1_555
O0 P2 1.644374 1_455
O1 P3 1.644361 1_455
O1 P7 1.644366 1_555
O2 P0 1.644361 1_555
O2 P4 1.644366 1_545
O3 P5 1.644363 1_545
O3 P1 1.644363 1_555
O4 P1 1.507696 1_555
O5 P0 1.507707 1_556
O6 P3 1.507707 1_554
O7 P2 1.507696 1_555
O8 P5 1.507696 1_555
O9 P4 1.507707 1_556
O10 P7 1.507707 1_554
O11 P6 1.507676 1_555
O12 P6 1.548913 1_555
O13 P7 1.548909 1_555
O14 P4 1.548911 1_555
O15 P5 1.548900 1_555
O16 P2 1.548906 1_555
O17 P3 1.548908 1_555
O18 P0 1.548910 1_555
O19 P1 1.548897 1_555
O20 P0 1.548908 1_555
O21 P1 1.548914 1_555
O22 P2 1.548896 1_555
O23 P3 1.548917 1_555
O24 P4 1.548907 1_555
O25 P5 1.548910 1_555
O26 P6 1.548903 1_555
O27 P7 1.548908 1_555
