# generated using pymatgen
data_MgTiO2
_symmetry_space_group_name_H-M   'P 1'
_cell_length_a   8.51795100
_cell_length_b   8.51795100
_cell_length_c   10.82407697
_cell_angle_alpha   52.03597496
_cell_angle_beta   52.03597496
_cell_angle_gamma   19.17553654
_symmetry_Int_Tables_number   1
_chemical_formula_structural   MgTiO2
_chemical_formula_sum   'Mg4 Ti4 O8'
_cell_volume   201.59872543
_cell_formula_units_Z   4
loop_
 _symmetry_equiv_pos_site_id
 _symmetry_equiv_pos_as_xyz
  1  'x, y, z'
loop_
 _atom_site_type_symbol
 _atom_site_label
 _atom_site_symmetry_multiplicity
 _atom_site_fract_x
 _atom_site_fract_y
 _atom_site_fract_z
 _atom_site_occupancy
  Mg  Mg0  1  0.61096000  0.61096000  0.33010400  1
  Mg  Mg1  1  0.38904000  0.38904000  0.66989600  1
  Mg  Mg2  1  0.93339200  0.93339200  0.38254000  1
  Mg  Mg3  1  0.06660800  0.06660800  0.61746000  1
  Ti  Ti0  1  0.33663000  0.33663000  0.97886000  1
  Ti  Ti1  1  0.79489100  0.79489100  0.30461300  1
  Ti  Ti2  1  0.20510900  0.20510900  0.69538700  1
  Ti  Ti3  1  0.66337000  0.66337000  0.02114000  1
  O  O0  1  0.14381900  0.14381900  0.90525000  1
  O  O1  1  0.63887200  0.63887200  0.64871900  1
  O  O2  1  0.36112800  0.36112800  0.35128100  1
  O  O3  1  0.85618100  0.85618100  0.09475000  1
  O  O4  1  0.90896500  0.90896500  0.79642200  1
  O  O5  1  0.18369900  0.18369900  0.37069100  1
  O  O6  1  0.09103500  0.09103500  0.20357800  1
  O  O7  1  0.81630100  0.81630100  0.62930900  1
loop_
_geom_bond_atom_site_label_1
_geom_bond_atom_site_label_2
_geom_bond_distance
_geom_bond_site_symmetry_2
Mg0 O5 2.090106 1_655
Mg0 O5 2.090106 1_565
Mg0 O6 2.138314 1_655
Mg0 O6 2.138314 1_565
Mg1 O7 2.090106 1_455
Mg1 O7 2.090106 1_545
Mg1 O4 2.138314 1_455
Mg1 O4 2.138314 1_545
Mg2 O2 2.028124 1_655
Mg2 O2 2.028124 1_565
Mg2 O6 2.089057 1_665
Mg2 O7 2.108988 1_555
Mg3 O1 2.028124 1_545
Mg3 O1 2.028124 1_455
Mg3 O4 2.089057 1_445
Mg3 O5 2.108988 1_555
O0 Ti2 1.817108 1_555
O0 Ti3 2.051397 1_546
O0 Ti3 2.051397 1_456
O1 Ti2 2.051157 1_655
O1 Ti2 2.051157 1_565
O2 Ti1 2.051157 1_455
O2 Ti1 2.051157 1_545
O3 Ti1 1.817108 1_555
O3 Ti0 2.051397 1_564
O3 Ti0 2.051397 1_654
O4 Ti0 2.096383 1_565
O4 Ti0 2.096383 1_655
O5 Ti1 2.084738 1_455
O5 Ti1 2.084738 1_545
O6 Ti3 2.096383 1_545
O6 Ti3 2.096383 1_455
O7 Ti2 2.084738 1_655
O7 Ti2 2.084738 1_565
