# generated using pymatgen
data_Li3Sn3Pt2
_symmetry_space_group_name_H-M   'P 1'
_cell_length_a   11.36880019
_cell_length_b   11.36880019
_cell_length_c   11.36880019
_cell_angle_alpha   109.47122063
_cell_angle_beta   109.47122063
_cell_angle_gamma   109.47122063
_symmetry_Int_Tables_number   1
_chemical_formula_structural   Li3Sn3Pt2
_chemical_formula_sum   'Li24 Sn24 Pt16'
_cell_volume   1131.15471555
_cell_formula_units_Z   8
loop_
 _symmetry_equiv_pos_site_id
 _symmetry_equiv_pos_as_xyz
  1  'x, y, z'
loop_
 _atom_site_type_symbol
 _atom_site_label
 _atom_site_symmetry_multiplicity
 _atom_site_fract_x
 _atom_site_fract_y
 _atom_site_fract_z
 _atom_site_occupancy
  Li  Li0  1  0.75621392  0.75621392  0.75621392  1
  Li  Li1  1  0.24378608  0.24378608  0.24378608  1
  Li  Li2  1  0.74378608  0.00000000  0.50000000  1
  Li  Li3  1  0.50000000  0.74378608  0.00000000  1
  Li  Li4  1  0.25621392  0.00000000  0.50000000  1
  Li  Li5  1  0.50000000  0.25621392  -0.00000000  1
  Li  Li6  1  -0.00000000  0.50000000  0.74378608  1
  Li  Li7  1  0.00000000  0.50000000  0.25621392  1
  Li  Li8  1  0.74146386  0.49146386  0.75000000  1
  Li  Li9  1  0.25853614  0.50853614  0.25000000  1
  Li  Li10  1  0.75853614  0.00853614  0.25000000  1
  Li  Li11  1  0.49146386  0.75000000  0.74146386  1
  Li  Li12  1  0.24146386  0.99146386  0.75000000  1
  Li  Li13  1  0.50853614  0.25000000  0.25853614  1
  Li  Li14  1  0.00853614  0.25000000  0.75853614  1
  Li  Li15  1  0.99146386  0.75000000  0.24146386  1
  Li  Li16  1  0.75000000  0.74146386  0.49146386  1
  Li  Li17  1  0.25000000  0.25853614  0.50853614  1
  Li  Li18  1  0.25000000  0.75853614  0.00853614  1
  Li  Li19  1  0.75000000  0.24146386  0.99146386  1
  Li  Li20  1  -0.00000000  0.00000000  -0.00000000  1
  Li  Li21  1  0.50000000  0.00000000  0.50000000  1
  Li  Li22  1  0.50000000  0.50000000  -0.00000000  1
  Li  Li23  1  -0.00000000  0.50000000  0.50000000  1
  Sn  Sn0  1  0.52705602  0.76521646  0.52038801  1
  Sn  Sn1  1  0.47294398  0.23478354  0.47961199  1
  Sn  Sn2  1  0.97294398  0.99333199  0.73816044  1
  Sn  Sn3  1  0.25517155  0.73478354  0.76183956  1
  Sn  Sn4  1  0.76521646  0.52038801  0.52705602  1
  Sn  Sn5  1  0.02705602  0.00666801  0.26183956  1
  Sn  Sn6  1  0.74482845  0.26521646  0.23816044  1
  Sn  Sn7  1  0.23478354  0.47961199  0.47294398  1
  Sn  Sn8  1  0.24482845  0.50666801  0.97961199  1
  Sn  Sn9  1  0.99333199  0.73816044  0.97294398  1
  Sn  Sn10  1  0.75517155  0.49333199  0.02038801  1
  Sn  Sn11  1  0.00666801  0.26183956  0.02705602  1
  Sn  Sn12  1  0.73478354  0.76183956  0.25517155  1
  Sn  Sn13  1  0.26521646  0.23816044  0.74482845  1
  Sn  Sn14  1  0.50666801  0.97961199  0.24482845  1
  Sn  Sn15  1  0.49333199  0.02038801  0.75517155  1
  Sn  Sn16  1  0.52038801  0.52705602  0.76521646  1
  Sn  Sn17  1  0.47961199  0.47294398  0.23478354  1
  Sn  Sn18  1  0.76183956  0.25517155  0.73478354  1
  Sn  Sn19  1  0.23816044  0.74482845  0.26521646  1
  Sn  Sn20  1  0.97961199  0.24482845  0.50666801  1
  Sn  Sn21  1  0.02038801  0.75517155  0.49333199  1
  Sn  Sn22  1  0.73816044  0.97294398  0.99333199  1
  Sn  Sn23  1  0.26183956  0.02705602  0.00666801  1
  Pt  Pt0  1  0.52511612  0.27511612  0.75000000  1
  Pt  Pt1  1  0.47488388  0.72488388  0.25000000  1
  Pt  Pt2  1  0.97488388  0.22488388  0.25000000  1
  Pt  Pt3  1  0.27511612  0.75000000  0.52511612  1
  Pt  Pt4  1  0.02511612  0.77511612  0.75000000  1
  Pt  Pt5  1  0.72488388  0.25000000  0.47488388  1
  Pt  Pt6  1  0.22488388  0.25000000  0.97488388  1
  Pt  Pt7  1  0.77511612  0.75000000  0.02511612  1
  Pt  Pt8  1  0.75000000  0.52511612  0.27511612  1
  Pt  Pt9  1  0.25000000  0.47488388  0.72488388  1
  Pt  Pt10  1  0.25000000  0.97488388  0.22488388  1
  Pt  Pt11  1  0.75000000  0.02511612  0.77511612  1
  Pt  Pt12  1  0.50000000  0.50000000  0.50000000  1
  Pt  Pt13  1  -0.00000000  0.00000000  0.50000000  1
  Pt  Pt14  1  0.50000000  0.00000000  -0.00000000  1
  Pt  Pt15  1  -0.00000000  0.50000000  -0.00000000  1
loop_
_geom_bond_atom_site_label_1
_geom_bond_atom_site_label_2
_geom_bond_distance
_geom_bond_site_symmetry_2
Li0 Li20 2.771555 1_666
Li0 Pt12 2.912845 1_555
Li0 Li8 2.933669 1_555
Li0 Li11 2.933669 1_555
Li0 Li16 2.933669 1_555
Li0 Pt7 3.018796 1_556
Li0 Pt4 3.018796 1_655
Li0 Pt11 3.018796 1_565
Li0 Sn22 3.107756 1_555
Li0 Sn2 3.107756 1_555
Li0 Sn9 3.107756 1_555
Li0 Sn4 3.112880 1_555
Li0 Sn16 3.112880 1_555
Li0 Sn0 3.112880 1_555
Li1 Li20 2.771555 1_555
Li1 Pt12 2.912845 1_555
Li1 Li17 2.933669 1_555
Li1 Li9 2.933669 1_555
Li1 Li13 2.933669 1_555
Li1 Pt10 3.018796 1_545
Li1 Pt2 3.018796 1_455
Li1 Pt6 3.018796 1_554
Li1 Sn23 3.107756 1_555
Li1 Sn11 3.107756 1_555
Li1 Sn5 3.107756 1_555
Li1 Sn7 3.112880 1_555
Li1 Sn1 3.112880 1_555
Li1 Sn17 3.112880 1_555
Li2 Li21 2.771555 1_555
Li2 Pt13 2.912845 1_655
Li2 Pt11 3.018796 1_555
Li2 Pt5 3.018796 1_555
Li2 Pt1 3.018796 1_545
Li2 Sn14 3.107756 1_545
Li2 Sn0 3.107756 1_545
Li2 Sn18 3.107756 1_555
Li2 Sn20 3.112880 1_555
Li2 Sn2 3.112880 1_545
Li2 Sn12 3.112880 1_545
Li3 Pt14 2.912845 1_565
Li3 Pt7 3.018796 1_555
Li3 Pt1 3.018796 1_555
Li3 Pt9 3.018796 1_554
Li3 Sn8 3.107756 1_554
Li3 Sn16 3.107756 1_554
Li3 Sn12 3.107756 1_555
Li3 Sn14 3.112880 1_555
Li3 Sn3 3.112880 1_554
Li3 Sn22 3.112880 1_554
Li4 Pt13 2.912845 1_555
Li4 Pt10 3.018796 1_545
Li4 Pt3 3.018796 1_545
Li4 Pt0 3.018796 1_555
Li4 Sn1 3.107756 1_555
Li4 Sn19 3.107756 1_545
Li4 Sn15 3.107756 1_555
Li4 Sn5 3.112880 1_555
Li4 Sn21 3.112880 1_545
Li4 Sn13 3.112880 1_555
Li5 Pt14 2.912845 1_555
Li5 Pt6 3.018796 1_554
Li5 Pt8 3.018796 1_555
Li5 Pt0 3.018796 1_554
Li5 Sn17 3.107756 1_555
Li5 Sn10 3.107756 1_555
Li5 Sn13 3.107756 1_554
Li5 Sn15 3.112880 1_554
Li5 Sn6 3.112880 1_555
Li5 Sn23 3.112880 1_555
Li6 Pt15 2.912845 1_556
Li6 Li8 2.933669 1_455
Li6 Pt5 3.018796 1_455
Li6 Pt9 3.018796 1_555
Li6 Pt4 3.018796 1_555
Li6 Sn20 3.107756 1_455
Li6 Sn3 3.107756 1_555
Li6 Sn4 3.107756 1_455
Li6 Sn18 3.112880 1_455
Li6 Sn8 3.112880 1_555
Li6 Sn9 3.112880 1_455
Li7 Pt15 2.912845 1_555
Li7 Li9 2.933669 1_555
Li7 Pt3 3.018796 1_555
Li7 Pt2 3.018796 1_455
Li7 Pt8 3.018796 1_455
Li7 Sn7 3.107756 1_555
Li7 Sn21 3.107756 1_555
Li7 Sn6 3.107756 1_455
Li7 Sn10 3.112880 1_455
Li7 Sn11 3.112880 1_555
Li7 Sn19 3.112880 1_555
Li8 Sn16 2.726147 1_555
Li8 Sn18 2.726147 1_555
Li8 Sn9 2.749184 1_555
Li8 Sn4 2.749184 1_555
Li8 Pt0 2.840118 1_555
Li8 Sn1 3.018118 1_555
Li8 Sn10 3.018118 1_556
Li9 Sn19 2.726147 1_555
Li9 Sn17 2.726147 1_555
Li9 Sn7 2.749184 1_555
Li9 Sn11 2.749184 1_555
Li9 Pt1 2.840118 1_555
Li9 Sn0 3.018118 1_555
Li9 Sn8 3.018118 1_554
Li10 Sn22 2.726147 1_544
Li10 Sn20 2.726147 1_555
Li10 Sn14 2.749184 1_545
Li10 Sn12 2.749184 1_545
Li10 Pt2 2.840118 1_555
Li10 Li2 2.933669 1_555
Li10 Li3 2.933669 1_545
Li10 Sn6 3.018118 1_555
Li10 Sn5 3.018118 1_655
Li11 Sn0 2.726147 1_555
Li11 Sn3 2.726147 1_555
Li11 Sn22 2.749184 1_555
Li11 Sn16 2.749184 1_555
Li11 Pt3 2.840118 1_555
Li11 Li3 2.933669 1_556
Li11 Sn7 3.018118 1_555
Li11 Sn15 3.018118 1_565
Li12 Sn21 2.726147 1_555
Li12 Sn23 2.726147 1_566
Li12 Sn15 2.749184 1_565
Li12 Sn13 2.749184 1_565
Li12 Pt4 2.840118 1_555
Li12 Li4 2.933669 1_565
Li12 Li5 2.933669 1_566
Li12 Sn3 3.018118 1_555
Li12 Sn2 3.018118 1_455
Li13 Sn6 2.726147 1_555
Li13 Sn1 2.726147 1_555
Li13 Sn17 2.749184 1_555
Li13 Sn23 2.749184 1_555
Li13 Pt5 2.840118 1_555
Li13 Li5 2.933669 1_555
Li13 Sn4 3.018118 1_555
Li13 Sn14 3.018118 1_545
Li14 Sn2 2.726147 1_445
Li14 Sn8 2.726147 1_555
Li14 Sn20 2.749184 1_455
Li14 Sn18 2.749184 1_455
Li14 Pt6 2.840118 1_555
Li14 Li6 2.933669 1_555
Li14 Li2 2.933669 1_455
Li14 Sn13 3.018118 1_555
Li14 Sn11 3.018118 1_556
Li15 Sn10 2.726147 1_555
Li15 Sn5 2.726147 1_665
Li15 Sn21 2.749184 1_655
Li15 Sn19 2.749184 1_655
Li15 Pt7 2.840118 1_555
Li15 Li7 2.933669 1_655
Li15 Li4 2.933669 1_665
Li15 Sn12 3.018118 1_555
Li15 Sn9 3.018118 1_554
Li16 Sn4 2.726147 1_555
Li16 Sn12 2.726147 1_555
Li16 Sn0 2.749184 1_555
Li16 Sn2 2.749184 1_555
Li16 Pt8 2.840118 1_555
Li16 Li2 2.933669 1_565
Li16 Sn21 3.018118 1_655
Li16 Sn17 3.018118 1_555
Li17 Sn13 2.726147 1_555
Li17 Sn7 2.726147 1_555
Li17 Sn5 2.749184 1_555
Li17 Sn1 2.749184 1_555
Li17 Pt9 2.840118 1_555
Li17 Li4 2.933669 1_555
Li17 Sn16 3.018118 1_555
Li17 Sn20 3.018118 1_455
Li18 Sn9 2.726147 1_454
Li18 Sn14 2.726147 1_555
Li18 Sn8 2.749184 1_554
Li18 Sn3 2.749184 1_554
Li18 Pt10 2.840118 1_555
Li18 Li3 2.933669 1_555
Li18 Li6 2.933669 1_554
Li18 Sn19 3.018118 1_555
Li18 Sn23 3.018118 1_565
Li19 Sn15 2.726147 1_555
Li19 Sn11 2.726147 1_656
Li19 Sn6 2.749184 1_556
Li19 Sn10 2.749184 1_556
Li19 Pt11 2.840118 1_555
Li19 Li5 2.933669 1_556
Li19 Li7 2.933669 1_656
Li19 Sn18 3.018118 1_555
Li19 Sn22 3.018118 1_545
Li20 Sn11 2.860995 1_555
Li20 Sn2 2.860995 1_444
Li20 Sn9 2.860995 1_444
Li20 Sn22 2.860995 1_444
Li20 Sn23 2.860995 1_555
Li20 Sn5 2.860995 1_555
Li21 Li4 2.771555 1_555
Li21 Sn18 2.860995 1_555
Li21 Sn0 2.860995 1_545
Li21 Sn19 2.860995 1_545
Li21 Sn15 2.860995 1_555
Li21 Sn1 2.860995 1_555
Li21 Sn14 2.860995 1_545
Li22 Li3 2.771555 1_555
Li22 Li5 2.771555 1_555
Li22 Sn16 2.860995 1_554
Li22 Sn12 2.860995 1_555
Li22 Sn13 2.860995 1_554
Li22 Sn10 2.860995 1_555
Li22 Sn8 2.860995 1_554
Li22 Sn17 2.860995 1_555
Li23 Li6 2.771555 1_555
Li23 Li7 2.771555 1_555
Li23 Sn3 2.860995 1_555
Li23 Sn4 2.860995 1_455
Li23 Sn7 2.860995 1_555
Li23 Sn6 2.860995 1_455
Li23 Sn21 2.860995 1_555
Li23 Sn20 2.860995 1_455
Pt0 Sn10 2.770367 1_556
Pt0 Sn1 2.770367 1_555
Pt0 Sn13 2.819684 1_555
Pt0 Sn15 2.819684 1_555
Pt0 Sn16 2.831127 1_555
Pt0 Sn18 2.831127 1_555
Pt1 Sn0 2.770367 1_555
Pt1 Sn8 2.770367 1_554
Pt1 Sn14 2.819684 1_555
Pt1 Sn12 2.819684 1_555
Pt1 Sn19 2.831127 1_555
Pt1 Sn17 2.831127 1_555
Pt2 Sn5 2.770367 1_655
Pt2 Sn6 2.770367 1_555
Pt2 Sn7 2.819684 1_655
Pt2 Sn11 2.819684 1_655
Pt2 Sn22 2.831127 1_544
Pt2 Sn20 2.831127 1_555
Pt3 Sn7 2.770367 1_555
Pt3 Sn15 2.770367 1_565
Pt3 Sn19 2.819684 1_555
Pt3 Sn21 2.819684 1_555
Pt3 Sn0 2.831127 1_555
Pt3 Sn3 2.831127 1_555
Pt4 Sn3 2.770367 1_555
Pt4 Sn2 2.770367 1_455
Pt4 Sn4 2.819684 1_455
Pt4 Sn9 2.819684 1_455
Pt4 Sn21 2.831127 1_555
Pt4 Sn23 2.831127 1_566
Pt5 Sn4 2.770367 1_555
Pt5 Sn14 2.770367 1_545
Pt5 Sn20 2.819684 1_555
Pt5 Sn18 2.819684 1_555
Pt5 Sn6 2.831127 1_555
Pt5 Sn1 2.831127 1_555
Pt6 Sn13 2.770367 1_555
Pt6 Sn11 2.770367 1_556
Pt6 Sn17 2.819684 1_556
Pt6 Sn23 2.819684 1_556
Pt6 Sn2 2.831127 1_445
Pt6 Sn8 2.831127 1_555
Pt7 Sn12 2.770367 1_555
Pt7 Sn9 2.770367 1_554
Pt7 Sn16 2.819684 1_554
Pt7 Sn22 2.819684 1_554
Pt7 Sn10 2.831127 1_555
Pt7 Sn5 2.831127 1_665
Pt8 Sn21 2.770367 1_655
Pt8 Sn17 2.770367 1_555
Pt8 Sn6 2.819684 1_555
Pt8 Sn10 2.819684 1_555
Pt8 Sn4 2.831127 1_555
Pt8 Sn12 2.831127 1_555
Pt9 Sn20 2.770367 1_455
Pt9 Sn16 2.770367 1_555
Pt9 Sn8 2.819684 1_555
Pt9 Sn3 2.819684 1_555
Pt9 Sn13 2.831127 1_555
Pt9 Sn7 2.831127 1_555
Pt10 Sn23 2.770367 1_565
Pt10 Sn19 2.770367 1_555
Pt10 Sn1 2.819684 1_565
Pt10 Sn5 2.819684 1_565
Pt10 Sn9 2.831127 1_454
Pt10 Sn14 2.831127 1_555
Pt11 Sn18 2.770367 1_555
Pt11 Sn22 2.770367 1_545
Pt11 Sn0 2.819684 1_545
Pt11 Sn2 2.819684 1_545
Pt11 Sn15 2.831127 1_555
Pt11 Sn11 2.831127 1_656
Pt12 Sn16 2.847450 1_555
Pt12 Sn0 2.847450 1_555
Pt12 Sn7 2.847450 1_555
Pt12 Sn4 2.847450 1_555
Pt12 Sn1 2.847450 1_555
Pt12 Sn17 2.847450 1_555
Pt13 Sn2 2.847450 1_445
Pt13 Sn5 2.847450 1_555
Pt13 Sn12 2.847450 1_445
Pt13 Sn21 2.847450 1_545
Pt13 Sn13 2.847450 1_555
Pt13 Sn20 2.847450 1_455
Pt14 Sn15 2.847450 1_554
Pt14 Sn14 2.847450 1_545
Pt14 Sn3 2.847450 1_544
Pt14 Sn6 2.847450 1_555
Pt14 Sn22 2.847450 1_544
Pt14 Sn23 2.847450 1_555
Pt15 Sn9 2.847450 1_454
Pt15 Sn11 2.847450 1_555
Pt15 Sn18 2.847450 1_454
Pt15 Sn19 2.847450 1_555
Pt15 Sn10 2.847450 1_455
Pt15 Sn8 2.847450 1_554
