# generated using pymatgen
data_MoIr4
_symmetry_space_group_name_H-M   'P 1'
_cell_length_a   22.83381811
_cell_length_b   22.83381811
_cell_length_c   22.83381821
_cell_angle_alpha   13.82656653
_cell_angle_beta   13.82656653
_cell_angle_gamma   13.82656638
_symmetry_Int_Tables_number   1
_chemical_formula_structural   MoIr4
_chemical_formula_sum   'Mo8 Ir32'
_cell_volume   591.70500693
_cell_formula_units_Z   8
loop_
 _symmetry_equiv_pos_site_id
 _symmetry_equiv_pos_as_xyz
  1  'x, y, z'
loop_
 _atom_site_type_symbol
 _atom_site_label
 _atom_site_symmetry_multiplicity
 _atom_site_fract_x
 _atom_site_fract_y
 _atom_site_fract_z
 _atom_site_occupancy
  Mo  Mo0_0  1  0.00000000  0.00000000  0.00000000  1
  Mo  Mo0_1  1  0.00000000  1.00000000  0.50000000  1
  Mo  Mo0_2  1  0.00000000  0.50000000  0.00000000  1
  Mo  Mo0_3  1  0.00000000  0.50000000  0.50000000  1
  Mo  Mo0_4  1  0.50000000  0.00000000  0.00000000  1
  Mo  Mo0_5  1  0.50000000  1.00000000  0.50000000  1
  Mo  Mo0_6  1  0.50000000  0.50000000  0.00000000  1
  Mo  Mo0_7  1  0.50000000  0.50000000  0.50000000  1
  Ir  Ir0_0  1  0.30014800  0.30014800  0.30014800  1
  Ir  Ir0_1  1  0.30014800  0.30014800  0.80014800  1
  Ir  Ir0_2  1  0.30014800  0.80014800  0.30014800  1
  Ir  Ir0_3  1  0.30014800  0.80014800  0.80014800  1
  Ir  Ir0_4  1  0.80014800  0.30014800  0.30014800  1
  Ir  Ir0_5  1  0.80014800  0.30014800  0.80014800  1
  Ir  Ir0_6  1  0.80014800  0.80014800  0.30014800  1
  Ir  Ir0_7  1  0.80014800  0.80014800  0.80014800  1
  Ir  Ir1_0  1  0.09965850  0.09965850  0.09965850  1
  Ir  Ir1_1  1  0.09965850  0.09965850  0.59965850  1
  Ir  Ir1_2  1  0.09965850  0.59965850  0.09965850  1
  Ir  Ir1_3  1  0.09965850  0.59965850  0.59965850  1
  Ir  Ir1_4  1  0.59965850  0.09965850  0.09965850  1
  Ir  Ir1_5  1  0.59965850  0.09965850  0.59965850  1
  Ir  Ir1_6  1  0.59965850  0.59965850  0.09965850  1
  Ir  Ir1_7  1  0.59965850  0.59965850  0.59965850  1
  Ir  Ir2_0  1  0.40034150  0.40034150  0.40034150  1
  Ir  Ir2_1  1  0.40034150  0.40034150  0.90034150  1
  Ir  Ir2_2  1  0.40034150  0.90034150  0.40034150  1
  Ir  Ir2_3  1  0.40034150  0.90034150  0.90034150  1
  Ir  Ir2_4  1  0.90034150  0.40034150  0.40034150  1
  Ir  Ir2_5  1  0.90034150  0.40034150  0.90034150  1
  Ir  Ir2_6  1  0.90034150  0.90034150  0.40034150  1
  Ir  Ir2_7  1  0.90034150  0.90034150  0.90034150  1
  Ir  Ir3_0  1  0.19985200  0.19985200  0.19985200  1
  Ir  Ir3_1  1  0.19985200  0.19985200  0.69985200  1
  Ir  Ir3_2  1  0.19985200  0.69985200  0.19985200  1
  Ir  Ir3_3  1  0.19985200  0.69985200  0.69985200  1
  Ir  Ir3_4  1  0.69985200  0.19985200  0.19985200  1
  Ir  Ir3_5  1  0.69985200  0.19985200  0.69985200  1
  Ir  Ir3_6  1  0.69985200  0.69985200  0.19985200  1
  Ir  Ir3_7  1  0.69985200  0.69985200  0.69985200  1
loop_
_geom_bond_atom_site_label_1
_geom_bond_atom_site_label_2
_geom_bond_distance
_geom_bond_site_symmetry_2
Mo0_0 Mo0_6 2.748438 1_455
Mo0_0 Mo0_6 2.748438 1_545
Mo0_0 Mo0_3 2.748438 1_554
Mo0_0 Mo0_5 2.748438 1_445
Mo0_0 Mo0_5 2.748438 1_544
Mo0_0 Mo0_3 2.748438 1_545
Mo0_1 Mo0_7 2.748438 1_555
Mo0_1 Mo0_7 2.748438 1_465
Mo0_1 Mo0_2 2.748438 1_556
Mo0_1 Mo0_4 2.748438 1_466
Mo0_1 Mo0_2 2.748438 1_565
Mo0_1 Mo0_4 2.748438 1_565
Mo0_2 Mo0_4 2.748438 1_555
Mo0_2 Mo0_4 2.748438 1_465
Mo0_2 Mo0_7 2.748438 1_554
Mo0_2 Mo0_7 2.748438 1_455
Mo0_3 Mo0_5 2.748438 1_545
Mo0_3 Mo0_5 2.748438 1_455
Mo0_3 Mo0_6 2.748438 1_555
Mo0_3 Mo0_6 2.748438 1_456
Mo0_4 Mo0_7 2.748438 1_554
Mo0_4 Mo0_7 2.748438 1_545
Mo0_5 Mo0_6 2.748438 1_556
Mo0_5 Mo0_6 2.748438 1_565
Ir0_0 Ir0_6 2.748438 1_455
Ir0_0 Ir0_6 2.748438 1_545
Ir0_0 Ir0_3 2.748438 1_554
Ir0_0 Ir0_5 2.748438 1_554
Ir0_0 Ir0_5 2.748438 1_455
Ir0_0 Ir0_3 2.748438 1_545
Ir0_0 Mo0_6 2.754230 1_555
Ir0_0 Mo0_5 2.754230 1_545
Ir0_0 Mo0_3 2.754230 1_555
Ir0_0 Ir1_1 2.789688 1_555
Ir0_0 Ir1_4 2.789688 1_555
Ir0_0 Ir1_2 2.789688 1_555
Ir0_1 Ir0_7 2.748438 1_455
Ir0_1 Ir0_7 2.748438 1_545
Ir0_1 Ir0_4 2.748438 1_456
Ir0_1 Ir0_2 2.748438 1_546
Ir0_1 Ir0_2 2.748438 1_555
Ir0_1 Ir0_4 2.748438 1_555
Ir0_1 Mo0_7 2.754230 1_555
Ir0_1 Mo0_2 2.754230 1_556
Ir0_1 Mo0_4 2.754230 1_556
Ir0_1 Ir1_0 2.789688 1_556
Ir0_1 Ir1_3 2.789688 1_555
Ir0_1 Ir1_5 2.789688 1_555
Ir0_2 Ir0_4 2.748438 1_555
Ir0_2 Ir0_4 2.748438 1_465
Ir0_2 Ir0_7 2.748438 1_455
Ir0_2 Ir0_7 2.748438 1_554
Ir0_2 Mo0_4 2.754230 1_565
Ir0_2 Mo0_1 2.754230 1_555
Ir0_2 Mo0_7 2.754230 1_555
Ir0_2 Ir1_3 2.789688 1_555
Ir0_2 Ir1_6 2.789688 1_555
Ir0_2 Ir1_0 2.789688 1_565
Ir0_3 Ir0_5 2.748438 1_555
Ir0_3 Ir0_5 2.748438 1_465
Ir0_3 Ir0_6 2.748438 1_555
Ir0_3 Ir0_6 2.748438 1_456
Ir0_3 Mo0_5 2.754230 1_555
Ir0_3 Mo0_6 2.754230 1_556
Ir0_3 Mo0_0 2.754230 1_566
Ir0_3 Ir1_2 2.789688 1_556
Ir0_3 Ir1_7 2.789688 1_555
Ir0_3 Ir1_1 2.789688 1_565
Ir0_4 Ir0_7 2.748438 1_554
Ir0_4 Ir0_7 2.748438 1_545
Ir0_4 Mo0_2 2.754230 1_655
Ir0_4 Mo0_1 2.754230 1_645
Ir0_4 Mo0_7 2.754230 1_555
Ir0_4 Ir1_5 2.789688 1_555
Ir0_4 Ir1_6 2.789688 1_555
Ir0_4 Ir1_0 2.789688 1_655
Ir0_5 Ir0_6 2.748438 1_555
Ir0_5 Ir0_6 2.748438 1_546
Ir0_5 Mo0_3 2.754230 1_655
Ir0_5 Mo0_6 2.754230 1_556
Ir0_5 Mo0_0 2.754230 1_656
Ir0_5 Ir1_4 2.789688 1_556
Ir0_5 Ir1_7 2.789688 1_555
Ir0_5 Ir1_1 2.789688 1_655
Ir0_6 Mo0_0 2.754230 1_665
Ir0_6 Mo0_5 2.754230 1_555
Ir0_6 Mo0_3 2.754230 1_655
Ir0_6 Ir1_7 2.789688 1_555
Ir0_6 Ir1_2 2.789688 1_655
Ir0_6 Ir1_4 2.789688 1_565
Ir0_7 Mo0_1 2.754230 1_655
Ir0_7 Mo0_2 2.754230 1_656
Ir0_7 Mo0_4 2.754230 1_566
Ir0_7 Ir1_6 2.789688 1_556
Ir0_7 Ir1_5 2.789688 1_565
Ir0_7 Ir1_3 2.789688 1_655
Ir1_0 Ir2_6 2.724646 1_445
Ir1_0 Ir2_5 2.724646 1_454
Ir1_0 Ir2_3 2.724646 1_544
Ir1_0 Ir1_6 2.748438 1_455
Ir1_0 Ir1_6 2.748438 1_545
Ir1_0 Ir1_3 2.748438 1_554
Ir1_0 Ir1_5 2.748438 1_554
Ir1_0 Ir1_5 2.748438 1_455
Ir1_0 Ir1_3 2.748438 1_545
Ir1_1 Ir2_7 2.724646 1_445
Ir1_1 Ir2_2 2.724646 1_545
Ir1_1 Ir2_4 2.724646 1_455
Ir1_1 Ir1_7 2.748438 1_545
Ir1_1 Ir1_7 2.748438 1_455
Ir1_1 Ir1_4 2.748438 1_555
Ir1_1 Ir1_2 2.748438 1_546
Ir1_1 Ir1_4 2.748438 1_456
Ir1_1 Ir1_2 2.748438 1_555
Ir1_2 Ir2_4 2.724646 1_455
Ir1_2 Ir2_7 2.724646 1_454
Ir1_2 Ir2_1 2.724646 1_554
Ir1_2 Ir1_4 2.748438 1_465
Ir1_2 Ir1_4 2.748438 1_555
Ir1_2 Ir1_7 2.748438 1_455
Ir1_2 Ir1_7 2.748438 1_554
Ir1_3 Ir2_5 2.724646 1_455
Ir1_3 Ir2_6 2.724646 1_455
Ir1_3 Ir2_0 2.724646 1_555
Ir1_3 Ir1_5 2.748438 1_465
Ir1_3 Ir1_5 2.748438 1_555
Ir1_3 Ir1_6 2.748438 1_456
Ir1_3 Ir1_6 2.748438 1_555
Ir1_4 Ir2_2 2.724646 1_545
Ir1_4 Ir2_1 2.724646 1_554
Ir1_4 Ir2_7 2.724646 1_544
Ir1_4 Ir1_7 2.748438 1_554
Ir1_4 Ir1_7 2.748438 1_545
Ir1_5 Ir2_3 2.724646 1_545
Ir1_5 Ir2_6 2.724646 1_545
Ir1_5 Ir2_0 2.724646 1_555
Ir1_5 Ir1_6 2.748438 1_546
Ir1_5 Ir1_6 2.748438 1_555
Ir1_6 Ir2_0 2.724646 1_555
Ir1_6 Ir2_3 2.724646 1_554
Ir1_6 Ir2_5 2.724646 1_554
Ir1_7 Ir2_1 2.724646 1_555
Ir1_7 Ir2_2 2.724646 1_555
Ir1_7 Ir2_4 2.724646 1_555
Ir2_0 Ir2_6 2.748438 1_545
Ir2_0 Ir2_6 2.748438 1_455
Ir2_0 Ir2_3 2.748438 1_554
Ir2_0 Ir2_5 2.748438 1_554
Ir2_0 Ir2_3 2.748438 1_545
Ir2_0 Ir2_5 2.748438 1_455
Ir2_0 Ir3_1 2.789688 1_555
Ir2_0 Ir3_4 2.789688 1_555
Ir2_0 Ir3_2 2.789688 1_555
Ir2_1 Ir2_7 2.748438 1_455
Ir2_1 Ir2_7 2.748438 1_545
Ir2_1 Ir2_4 2.748438 1_555
Ir2_1 Ir2_2 2.748438 1_555
Ir2_1 Ir2_2 2.748438 1_546
Ir2_1 Ir2_4 2.748438 1_456
Ir2_1 Ir3_0 2.789688 1_556
Ir2_1 Ir3_3 2.789688 1_555
Ir2_1 Ir3_5 2.789688 1_555
Ir2_2 Ir2_4 2.748438 1_555
Ir2_2 Ir2_4 2.748438 1_465
Ir2_2 Ir2_7 2.748438 1_455
Ir2_2 Ir2_7 2.748438 1_554
Ir2_2 Ir3_3 2.789688 1_555
Ir2_2 Ir3_6 2.789688 1_555
Ir2_2 Ir3_0 2.789688 1_565
Ir2_3 Ir2_5 2.748438 1_555
Ir2_3 Ir2_5 2.748438 1_465
Ir2_3 Ir2_6 2.748438 1_456
Ir2_3 Ir2_6 2.748438 1_555
Ir2_3 Ir3_2 2.789688 1_556
Ir2_3 Ir3_1 2.789688 1_565
Ir2_3 Ir3_7 2.789688 1_555
Ir2_4 Ir2_7 2.748438 1_545
Ir2_4 Ir2_7 2.748438 1_554
Ir2_4 Ir3_5 2.789688 1_555
Ir2_4 Ir3_6 2.789688 1_555
Ir2_4 Ir3_0 2.789688 1_655
Ir2_5 Ir2_6 2.748438 1_546
Ir2_5 Ir2_6 2.748438 1_555
Ir2_5 Ir3_4 2.789688 1_556
Ir2_5 Ir3_7 2.789688 1_555
Ir2_5 Ir3_1 2.789688 1_655
Ir2_6 Ir3_7 2.789688 1_555
Ir2_6 Ir3_4 2.789688 1_565
Ir2_6 Ir3_2 2.789688 1_655
Ir2_7 Ir3_6 2.789688 1_556
Ir2_7 Ir3_3 2.789688 1_655
Ir2_7 Ir3_5 2.789688 1_565
Ir3_0 Ir3_6 2.748438 1_545
Ir3_0 Ir3_6 2.748438 1_455
Ir3_0 Ir3_5 2.748438 1_554
Ir3_0 Ir3_3 2.748438 1_554
Ir3_0 Ir3_3 2.748438 1_545
Ir3_0 Ir3_5 2.748438 1_455
Ir3_0 Mo0_1 2.754230 1_545
Ir3_0 Mo0_2 2.754230 1_555
Ir3_0 Mo0_4 2.754230 1_555
Ir3_1 Ir3_7 2.748438 1_455
Ir3_1 Ir3_7 2.748438 1_545
Ir3_1 Ir3_2 2.748438 1_546
Ir3_1 Ir3_4 2.748438 1_456
Ir3_1 Ir3_4 2.748438 1_555
Ir3_1 Ir3_2 2.748438 1_555
Ir3_1 Mo0_0 2.754230 1_556
Ir3_1 Mo0_3 2.754230 1_555
Ir3_1 Mo0_5 2.754230 1_545
Ir3_2 Ir3_4 2.748438 1_555
Ir3_2 Ir3_4 2.748438 1_465
Ir3_2 Ir3_7 2.748438 1_554
Ir3_2 Ir3_7 2.748438 1_455
Ir3_2 Mo0_3 2.754230 1_555
Ir3_2 Mo0_0 2.754230 1_565
Ir3_2 Mo0_6 2.754230 1_555
Ir3_3 Ir3_5 2.748438 1_555
Ir3_3 Ir3_5 2.748438 1_465
Ir3_3 Ir3_6 2.748438 1_456
Ir3_3 Ir3_6 2.748438 1_555
Ir3_3 Mo0_2 2.754230 1_556
Ir3_3 Mo0_1 2.754230 1_555
Ir3_3 Mo0_7 2.754230 1_555
Ir3_4 Ir3_7 2.748438 1_554
Ir3_4 Ir3_7 2.748438 1_545
Ir3_4 Mo0_5 2.754230 1_545
Ir3_4 Mo0_0 2.754230 1_655
Ir3_4 Mo0_6 2.754230 1_555
Ir3_5 Ir3_6 2.748438 1_546
Ir3_5 Ir3_6 2.748438 1_555
Ir3_5 Mo0_4 2.754230 1_556
Ir3_5 Mo0_7 2.754230 1_555
Ir3_5 Mo0_1 2.754230 1_645
Ir3_6 Mo0_7 2.754230 1_555
Ir3_6 Mo0_4 2.754230 1_565
Ir3_6 Mo0_2 2.754230 1_655
Ir3_7 Mo0_6 2.754230 1_556
Ir3_7 Mo0_3 2.754230 1_655
Ir3_7 Mo0_5 2.754230 1_555
