# generated using pymatgen
data_Cs2ZnI4
_symmetry_space_group_name_H-M   'P 1'
_cell_length_a   8.36234603
_cell_length_b   10.95790753
_cell_length_c   14.61204543
_cell_angle_alpha   89.99429817
_cell_angle_beta   89.99881028
_cell_angle_gamma   89.91073181
_symmetry_Int_Tables_number   1
_chemical_formula_structural   Cs2ZnI4
_chemical_formula_sum   'Cs8 Zn4 I16'
_cell_volume   1338.95582818
_cell_formula_units_Z   4
loop_
 _symmetry_equiv_pos_site_id
 _symmetry_equiv_pos_as_xyz
  1  'x, y, z'
loop_
 _atom_site_type_symbol
 _atom_site_label
 _atom_site_symmetry_multiplicity
 _atom_site_fract_x
 _atom_site_fract_y
 _atom_site_fract_z
 _atom_site_occupancy
  Cs  Cs0  1  0.25010565  0.52383736  0.16701953  1
  Cs  Cs1  1  0.25005866  0.02375119  0.33301768  1
  Cs  Cs2  1  0.74988176  0.47611585  0.83299329  1
  Cs  Cs3  1  0.74987619  0.97619758  0.66699628  1
  Cs  Cs4  1  0.24997080  0.87091578  0.90363984  1
  Cs  Cs5  1  0.24992767  0.37107606  0.59635333  1
  Cs  Cs6  1  0.74971903  0.12882573  0.09621815  1
  Cs  Cs7  1  0.74980679  0.62892859  0.40366231  1
  Zn  Zn0  1  0.24982441  0.26520234  0.92204373  1
  Zn  Zn1  1  0.24996953  0.76550976  0.57815508  1
  Zn  Zn2  1  0.75038553  0.73476631  0.07796660  1
  Zn  Zn3  1  0.75017647  0.23466989  0.42183026  1
  I  I0  1  0.24993914  0.50261442  0.90049800  1
  I  I1  1  0.24934177  0.00287222  0.59940224  1
  I  I2  1  0.75052881  0.49726651  0.09945299  1
  I  I3  1  0.75041006  0.99731118  0.40043667  1
  I  I4  1  0.24944658  0.18999102  0.09214603  1
  I  I5  1  0.24968200  0.68999300  0.40813619  1
  I  I6  1  0.75056457  0.81003411  0.90792652  1
  I  I7  1  0.75048957  0.30996819  0.59190798  1
  I  I8  1  0.50532289  0.17317701  0.84583387  1
  I  I9  1  0.99465146  0.67333249  0.65434463  1
  I  I10  1  0.00539702  0.82662797  0.15433561  1
  I  I11  1  0.49464306  0.32680501  0.34581271  1
  I  I12  1  0.49472082  0.82682062  0.15419215  1
  I  I13  1  0.00519995  0.32667108  0.34566443  1
  I  I14  1  0.99463120  0.17332707  0.84559823  1
  I  I15  1  0.50532860  0.67339267  0.65441666  1
loop_
_geom_bond_atom_site_label_1
_geom_bond_atom_site_label_2
_geom_bond_distance
_geom_bond_site_symmetry_2
Cs0 I4 3.818467 1_555
Cs0 I10 3.899922 1_555
Cs0 I0 3.901386 1_554
Cs0 I12 3.906824 1_555
Cs0 I11 3.956497 1_555
Cs0 I13 3.960883 1_555
Cs0 I5 3.966015 1_555
Cs0 I2 4.303040 1_455
Cs0 I2 4.308991 1_555
Cs1 I5 3.818354 1_545
Cs1 I1 3.899124 1_555
Cs1 I13 3.901784 1_555
Cs1 I11 3.907359 1_555
Cs1 I12 3.956968 1_545
Cs1 I10 3.960267 1_545
Cs1 I4 3.962938 1_555
Cs1 I3 4.302977 1_445
Cs1 I3 4.307847 1_545
Cs2 I6 3.819473 1_555
Cs2 I14 3.900029 1_555
Cs2 I2 3.900441 1_556
Cs2 I8 3.906172 1_555
Cs2 I15 3.955937 1_555
Cs2 I9 3.960632 1_555
Cs2 I7 3.965568 1_555
Cs2 I0 4.304830 1_555
Cs2 I0 4.306680 1_655
Cs3 I7 3.818363 1_565
Cs3 I9 3.900912 1_555
Cs3 I3 3.901826 1_555
Cs3 I15 3.904728 1_555
Cs3 I8 3.956906 1_565
Cs3 I14 3.959937 1_565
Cs3 I6 3.963314 1_555
Cs3 I1 4.302255 1_665
Cs3 I1 4.310089 1_565
Cs4 I14 4.029545 1_465
Cs4 I8 4.032976 1_565
Cs4 I0 4.036078 1_555
Cs4 I12 4.221704 1_556
Cs4 I10 4.223707 1_556
Cs4 I6 4.230646 1_455
Cs4 I6 4.238402 1_555
Cs5 I9 4.027836 1_455
Cs5 I15 4.034637 1_555
Cs5 I1 4.034996 1_555
Cs5 I11 4.221645 1_555
Cs5 I13 4.224550 1_555
Cs5 I7 4.231344 1_455
Cs5 I7 4.238560 1_555
Cs6 I10 4.029353 1_645
Cs6 I12 4.029613 1_545
Cs6 I2 4.037638 1_555
Cs6 I8 4.218461 1_554
Cs6 I14 4.224389 1_554
Cs6 I4 4.233750 1_655
Cs6 I4 4.236189 1_555
Cs7 I13 4.028383 1_655
Cs7 I11 4.031190 1_555
Cs7 I3 4.036984 1_555
Cs7 I15 4.223636 1_555
Cs7 I9 4.224940 1_555
Cs7 I5 4.234883 1_555
Cs7 I5 4.234883 1_655
I0 Zn0 2.620490 1_555
I1 Zn1 2.619487 1_545
I2 Zn2 2.621338 1_555
I3 Zn3 2.619702 1_565
I4 Zn0 2.618543 1_554
I5 Zn1 2.618597 1_555
I6 Zn2 2.617873 1_556
I7 Zn3 2.618658 1_555
I8 Zn0 2.610608 1_555
I9 Zn1 2.612377 1_655
I10 Zn2 2.610184 1_455
I11 Zn3 2.610065 1_555
I12 Zn2 2.611965 1_555
I13 Zn3 2.609467 1_455
I14 Zn0 2.611962 1_655
I15 Zn1 2.610317 1_555
