# generated using pymatgen
data_Zn3Au5
_symmetry_space_group_name_H-M   'P 1'
_cell_length_a   5.44397599
_cell_length_b   10.93361827
_cell_length_c   17.98567954
_cell_angle_alpha   107.69521287
_cell_angle_beta   98.70470155
_cell_angle_gamma   90.00000000
_symmetry_Int_Tables_number   1
_chemical_formula_structural   Zn3Au5
_chemical_formula_sum   'Zn24 Au40'
_cell_volume   1006.94770096
_cell_formula_units_Z   8
loop_
 _symmetry_equiv_pos_site_id
 _symmetry_equiv_pos_as_xyz
  1  'x, y, z'
loop_
 _atom_site_type_symbol
 _atom_site_label
 _atom_site_symmetry_multiplicity
 _atom_site_fract_x
 _atom_site_fract_y
 _atom_site_fract_z
 _atom_site_occupancy
  Zn  Zn0  1  0.39557852  0.33464379  0.37568449  1
  Zn  Zn1  1  0.60442148  0.66535621  0.62431551  1
  Zn  Zn2  1  0.98010497  0.04104070  0.37568449  1
  Zn  Zn3  1  0.10442148  0.45895930  0.62431551  1
  Zn  Zn4  1  0.01989503  0.95895930  0.62431551  1
  Zn  Zn5  1  0.89557852  0.54104070  0.37568449  1
  Zn  Zn6  1  0.51989503  0.16535621  0.62431551  1
  Zn  Zn7  1  0.48010497  0.83464379  0.37568449  1
  Zn  Zn8  1  0.35555684  0.42042513  0.12735980  1
  Zn  Zn9  1  0.64444316  0.57957487  0.87264020  1
  Zn  Zn10  1  0.77180296  0.70693467  0.12735980  1
  Zn  Zn11  1  0.14444316  0.79306533  0.87264020  1
  Zn  Zn12  1  0.22819704  0.29306533  0.87264020  1
  Zn  Zn13  1  0.85555684  0.20693467  0.12735980  1
  Zn  Zn14  1  0.72819704  0.07957487  0.87264020  1
  Zn  Zn15  1  0.27180296  0.92042513  0.12735980  1
  Zn  Zn16  1  0.12397394  0.62397394  0.24794688  1
  Zn  Zn17  1  0.87602606  0.37602606  0.75205312  1
  Zn  Zn18  1  0.37602606  0.87602606  0.75205312  1
  Zn  Zn19  1  0.62397394  0.12397394  0.24794688  1
  Zn  Zn20  1  0.50000000  -0.00000000  -0.00000000  1
  Zn  Zn21  1  -0.00000000  0.50000000  -0.00000000  1
  Zn  Zn22  1  0.75000000  0.25000000  0.50000000  1
  Zn  Zn23  1  0.25000000  0.75000000  0.50000000  1
  Au  Au0  1  0.12577876  0.38271670  0.25007433  1
  Au  Au1  1  0.87422124  0.61728330  0.74992567  1
  Au  Au2  1  0.12429557  0.86735763  0.25007433  1
  Au  Au3  1  0.37422124  0.63264237  0.74992567  1
  Au  Au4  1  0.87570443  0.13264237  0.74992567  1
  Au  Au5  1  0.62577876  0.36735763  0.25007433  1
  Au  Au6  1  0.37570443  0.11728330  0.74992567  1
  Au  Au7  1  0.62429557  0.88271670  0.25007433  1
  Au  Au8  1  0.35320099  0.16308569  0.12210043  1
  Au  Au9  1  0.64679901  0.83691431  0.87789957  1
  Au  Au10  1  0.76889944  0.95901474  0.12210043  1
  Au  Au11  1  0.14679901  0.54098526  0.87789957  1
  Au  Au12  1  0.23110056  0.04098526  0.87789957  1
  Au  Au13  1  0.85320099  0.45901474  0.12210043  1
  Au  Au14  1  0.73110056  0.33691431  0.87789957  1
  Au  Au15  1  0.26889944  0.66308569  0.12210043  1
  Au  Au16  1  0.60573638  0.40988741  0.62610396  1
  Au  Au17  1  0.39426362  0.59011259  0.37389604  1
  Au  Au18  1  0.02036757  0.21621555  0.62610396  1
  Au  Au19  1  0.89426362  0.28378445  0.37389604  1
  Au  Au20  1  0.97963243  0.78378445  0.37389604  1
  Au  Au21  1  0.10573638  0.71621555  0.62610396  1
  Au  Au22  1  0.47963243  0.09011259  0.37389604  1
  Au  Au23  1  0.52036757  0.90988741  0.62610396  1
  Au  Au24  1  0.03672825  0.25871340  0.00000000  1
  Au  Au25  1  0.96327175  0.74128660  -0.00000000  1
  Au  Au26  1  0.46327175  0.75871340  -0.00000000  1
  Au  Au27  1  0.53672825  0.24128660  0.00000000  1
  Au  Au28  1  0.12432743  0.12432743  0.24865687  1
  Au  Au29  1  0.87567257  0.87567257  0.75134313  1
  Au  Au30  1  0.37567257  0.37567257  0.75134313  1
  Au  Au31  1  0.62432743  0.62432743  0.24865687  1
  Au  Au32  1  0.25000000  0.50817899  0.50000000  1
  Au  Au33  1  0.75000000  0.49182101  0.50000000  1
  Au  Au34  1  0.25000000  0.99182101  0.50000000  1
  Au  Au35  1  0.75000000  0.00817899  0.50000000  1
  Au  Au36  1  -0.00000000  -0.00000000  -0.00000000  1
  Au  Au37  1  0.50000000  0.50000000  -0.00000000  1
  Au  Au38  1  0.25000000  0.25000000  0.50000000  1
  Au  Au39  1  0.75000000  0.75000000  0.50000000  1
loop_
_geom_bond_atom_site_label_1
_geom_bond_atom_site_label_2
_geom_bond_distance
_geom_bond_site_symmetry_2
Au0 Zn16 2.649692 1_555
Au0 Zn13 2.677269 1_455
Au0 Zn0 2.693508 1_555
Au0 Zn8 2.827527 1_555
Au0 Zn5 2.854919 1_455
Au1 Zn17 2.649692 1_555
Au1 Zn11 2.677269 1_655
Au1 Zn1 2.693508 1_555
Au1 Zn9 2.827527 1_555
Au1 Zn3 2.854919 1_655
Au2 Zn16 2.649682 1_555
Au2 Zn15 2.677269 1_555
Au2 Zn2 2.693510 1_465
Au2 Zn10 2.827527 1_455
Au2 Zn7 2.854916 1_555
Au3 Zn18 2.649682 1_555
Au3 Zn9 2.677269 1_555
Au3 Zn3 2.693507 1_555
Au3 Zn11 2.827527 1_555
Au3 Zn1 2.854919 1_555
Au4 Zn17 2.649682 1_555
Au4 Zn14 2.677269 1_555
Au4 Zn4 2.693510 1_645
Au4 Zn12 2.827527 1_655
Au4 Zn6 2.854916 1_555
Au5 Zn19 2.649682 1_555
Au5 Zn8 2.677269 1_555
Au5 Zn5 2.693507 1_555
Au5 Zn13 2.827527 1_555
Au5 Zn0 2.854919 1_555
Au6 Zn18 2.649692 1_545
Au6 Zn12 2.677269 1_555
Au6 Zn6 2.693510 1_555
Au6 Zn14 2.827527 1_555
Au6 Zn4 2.854916 1_545
Au7 Zn19 2.649692 1_565
Au7 Zn10 2.677269 1_555
Au7 Zn7 2.693510 1_555
Au7 Zn15 2.827527 1_555
Au7 Zn2 2.854916 1_565
Au8 Zn20 2.606072 1_555
Au8 Zn19 2.656581 1_555
Au8 Zn15 2.722097 1_545
Au8 Zn13 2.759009 1_555
Au8 Zn13 2.761949 1_455
Au8 Zn8 2.786321 1_555
Au9 Zn20 2.606072 1_566
Au9 Zn18 2.656581 1_555
Au9 Zn14 2.722097 1_565
Au9 Zn11 2.759009 1_555
Au9 Zn11 2.761949 1_655
Au9 Zn9 2.786321 1_555
Au10 Zn20 2.606072 1_565
Au10 Zn19 2.656583 1_565
Au10 Zn13 2.722097 1_565
Au10 Zn15 2.759009 1_555
Au10 Zn15 2.761949 1_655
Au10 Zn10 2.786321 1_555
Au11 Zn21 2.606072 1_556
Au11 Zn17 2.656586 1_455
Au11 Zn12 2.722097 1_555
Au11 Zn9 2.759009 1_455
Au11 Zn9 2.761949 1_555
Au11 Zn11 2.786321 1_555
Au12 Zn20 2.606072 1_556
Au12 Zn18 2.656583 1_545
Au12 Zn11 2.722097 1_545
Au12 Zn14 2.759009 1_555
Au12 Zn14 2.761949 1_455
Au12 Zn12 2.786321 1_555
Au13 Zn21 2.606072 1_655
Au13 Zn16 2.656586 1_655
Au13 Zn10 2.722097 1_555
Au13 Zn8 2.759009 1_655
Au13 Zn8 2.761949 1_555
Au13 Zn13 2.786321 1_555
Au14 Zn21 2.606072 1_656
Au14 Zn17 2.656579 1_555
Au14 Zn9 2.722097 1_555
Au14 Zn12 2.759009 1_655
Au14 Zn12 2.761949 1_555
Au14 Zn14 2.786321 1_555
Au15 Zn21 2.606072 1_555
Au15 Zn16 2.656579 1_555
Au15 Zn8 2.722097 1_555
Au15 Zn10 2.759009 1_455
Au15 Zn10 2.761949 1_555
Au15 Zn15 2.786321 1_555
Au16 Zn17 2.633371 1_555
Au16 Zn22 2.635490 1_555
Au16 Zn6 2.703846 1_555
Au16 Zn3 2.774189 1_655
Au16 Zn3 2.778680 1_555
Au16 Zn1 2.803140 1_555
Au17 Zn16 2.633371 1_555
Au17 Zn23 2.635490 1_555
Au17 Zn7 2.703846 1_555
Au17 Zn5 2.774189 1_455
Au17 Zn5 2.778680 1_555
Au17 Zn0 2.803140 1_555
Au18 Zn17 2.633374 1_455
Au18 Zn22 2.635494 1_455
Au18 Zn3 2.703858 1_555
Au18 Zn6 2.774182 1_455
Au18 Zn6 2.778683 1_555
Au18 Zn4 2.803129 1_545
Au19 Zn19 2.633371 1_555
Au19 Zn22 2.635494 1_555
Au19 Zn2 2.703857 1_555
Au19 Zn0 2.774187 1_555
Au19 Zn0 2.778678 1_655
Au19 Zn5 2.803129 1_555
Au20 Zn16 2.633374 1_655
Au20 Zn23 2.635494 1_655
Au20 Zn5 2.703858 1_555
Au20 Zn7 2.774182 1_655
Au20 Zn7 2.778683 1_555
Au20 Zn2 2.803129 1_565
Au21 Zn18 2.633371 1_555
Au21 Zn23 2.635494 1_555
Au21 Zn4 2.703857 1_555
Au21 Zn1 2.774187 1_555
Au21 Zn1 2.778678 1_455
Au21 Zn3 2.803129 1_555
Au22 Zn19 2.633374 1_555
Au22 Zn22 2.635490 1_555
Au22 Zn0 2.703847 1_555
Au22 Zn2 2.774184 1_555
Au22 Zn2 2.778685 1_455
Au22 Zn7 2.803140 1_545
Au23 Zn18 2.633374 1_555
Au23 Zn23 2.635490 1_555
Au23 Zn1 2.703847 1_555
Au23 Zn4 2.774184 1_555
Au23 Zn4 2.778685 1_655
Au23 Zn6 2.803140 1_565
Au24 Zn21 2.645702 1_555
Au24 Zn12 2.778556 1_554
Au24 Zn8 2.778556 1_555
Au24 Zn13 2.830643 1_455
Au24 Zn14 2.830643 1_454
Au25 Zn21 2.645702 1_655
Au25 Zn10 2.778556 1_555
Au25 Zn9 2.778556 1_554
Au25 Zn11 2.830643 1_654
Au25 Zn15 2.830643 1_655
Au26 Zn20 2.645702 1_565
Au26 Zn15 2.778556 1_555
Au26 Zn11 2.778556 1_554
Au26 Zn9 2.830643 1_554
Au26 Zn10 2.830643 1_555
Au27 Zn20 2.645702 1_555
Au27 Zn14 2.778556 1_554
Au27 Zn13 2.778556 1_555
Au27 Zn8 2.830643 1_555
Au27 Zn12 2.830643 1_554
Au28 Zn19 2.722006 1_455
Au28 Zn19 2.722023 1_555
Au28 Zn15 2.819163 1_545
Au28 Zn13 2.819171 1_455
Au28 Zn2 2.910866 1_455
Au28 Zn0 2.910880 1_555
Au29 Zn18 2.722006 1_655
Au29 Zn18 2.722023 1_555
Au29 Zn14 2.819163 1_565
Au29 Zn11 2.819171 1_655
Au29 Zn4 2.910866 1_655
Au29 Zn1 2.910880 1_555
Au30 Zn17 2.722006 1_555
Au30 Zn17 2.722023 1_455
Au30 Zn9 2.819158 1_555
Au30 Zn12 2.819175 1_555
Au30 Zn3 2.910868 1_555
Au30 Zn6 2.910878 1_555
Au31 Zn16 2.722006 1_555
Au31 Zn16 2.722023 1_655
Au31 Zn8 2.819158 1_555
Au31 Zn10 2.819175 1_555
Au31 Zn5 2.910868 1_555
Au31 Zn7 2.910878 1_555
Au32 Zn23 2.643979 1_555
Au32 Zn0 2.680441 1_555
Au32 Zn3 2.680442 1_555
Au32 Zn1 2.834382 1_555
Au32 Zn5 2.834382 1_455
Au33 Zn22 2.643979 1_555
Au33 Zn1 2.680441 1_555
Au33 Zn5 2.680442 1_555
Au33 Zn0 2.834382 1_555
Au33 Zn3 2.834382 1_655
Au34 Zn23 2.643979 1_555
Au34 Zn6 2.680444 1_565
Au34 Zn2 2.680444 1_465
Au34 Zn7 2.834379 1_555
Au34 Zn4 2.834379 1_555
Au35 Zn22 2.643979 1_555
Au35 Zn7 2.680444 1_545
Au35 Zn4 2.680444 1_645
Au35 Zn6 2.834379 1_555
Au35 Zn2 2.834379 1_555
Au36 Zn20 2.721988 1_455
Au36 Zn20 2.721988 1_555
Au36 Zn13 2.894675 1_455
Au36 Zn11 2.894675 1_544
Au36 Zn15 2.894675 1_545
Au36 Zn14 2.894675 1_454
Au37 Zn21 2.721988 1_555
Au37 Zn21 2.721988 1_655
Au37 Zn10 2.894675 1_555
Au37 Zn12 2.894675 1_554
Au37 Zn8 2.894675 1_555
Au37 Zn9 2.894675 1_554
Au38 Zn22 2.721988 1_455
Au38 Zn22 2.721988 1_555
Au38 Zn3 2.877166 1_555
Au38 Zn0 2.877167 1_555
Au38 Zn2 2.877169 1_455
Au38 Zn6 2.877169 1_555
Au39 Zn23 2.721988 1_655
Au39 Zn23 2.721988 1_555
Au39 Zn5 2.877166 1_555
Au39 Zn1 2.877167 1_555
Au39 Zn4 2.877169 1_655
Au39 Zn7 2.877169 1_555
