# generated using pymatgen
data_CaMg6W
_symmetry_space_group_name_H-M   'P 1'
_cell_length_a   6.29793100
_cell_length_b   6.29793100
_cell_length_c   4.41670100
_cell_angle_alpha   90.00000000
_cell_angle_beta   90.00000000
_cell_angle_gamma   90.00000000
_symmetry_Int_Tables_number   1
_chemical_formula_structural   CaMg6W
_chemical_formula_sum   'Ca1 Mg6 W1'
_cell_volume   175.18374085
_cell_formula_units_Z   1
loop_
 _symmetry_equiv_pos_site_id
 _symmetry_equiv_pos_as_xyz
  1  'x, y, z'
loop_
 _atom_site_type_symbol
 _atom_site_label
 _atom_site_symmetry_multiplicity
 _atom_site_fract_x
 _atom_site_fract_y
 _atom_site_fract_z
 _atom_site_occupancy
  Ca  Ca0  1  0.50000000  0.50000000  0.50000000  1
  Mg  Mg0  1  0.00000000  0.50000000  0.50000000  1
  Mg  Mg1  1  0.50000000  0.00000000  0.50000000  1
  Mg  Mg2  1  0.77391000  0.77391000  0.00000000  1
  Mg  Mg3  1  0.22609000  0.22609000  0.00000000  1
  Mg  Mg4  1  0.22609000  0.77391000  0.00000000  1
  Mg  Mg5  1  0.77391000  0.22609000  0.00000000  1
  W  W0  1  0.00000000  0.00000000  0.50000000  1
loop_
_geom_bond_atom_site_label_1
_geom_bond_atom_site_label_2
_geom_bond_distance
_geom_bond_site_symmetry_2
Ca0 Mg1 3.148966 1_565
Ca0 Mg0 3.148966 1_555
Ca0 Mg1 3.148966 1_555
Ca0 Mg0 3.148966 1_655
Ca0 Mg4 3.290672 1_556
Ca0 Mg5 3.290672 1_555
Ca0 Mg2 3.290672 1_556
Ca0 Mg4 3.290672 1_555
Ca0 Mg3 3.290672 1_555
Ca0 Mg3 3.290672 1_556
Ca0 Mg2 3.290672 1_555
Ca0 Mg5 3.290672 1_556
Mg0 Mg4 3.143271 1_556
Mg0 Mg4 3.143271 1_555
Mg0 Mg3 3.143271 1_555
Mg0 Mg2 3.143271 1_456
Mg0 Mg3 3.143271 1_556
Mg0 Mg5 3.143271 1_456
Mg0 Mg5 3.143271 1_455
Mg0 Mg2 3.143271 1_455
Mg0 W0 3.148966 1_555
Mg0 W0 3.148966 1_565
Mg1 Mg2 3.143271 1_545
Mg1 Mg5 3.143271 1_555
Mg1 Mg3 3.143271 1_555
Mg1 Mg3 3.143271 1_556
Mg1 Mg2 3.143271 1_546
Mg1 Mg5 3.143271 1_556
Mg1 Mg4 3.143271 1_546
Mg1 Mg4 3.143271 1_545
Mg1 W0 3.148966 1_555
Mg1 W0 3.148966 1_655
Mg2 W0 2.988610 1_664
Mg2 W0 2.988610 1_665
Mg3 W0 2.988610 1_554
Mg3 W0 2.988610 1_555
Mg4 W0 2.988610 1_565
Mg4 W0 2.988610 1_564
Mg5 W0 2.988610 1_655
Mg5 W0 2.988610 1_654
