# generated using pymatgen
data_Mg6ZrV
_symmetry_space_group_name_H-M   'P 1'
_cell_length_a   5.05064900
_cell_length_b   6.21717100
_cell_length_c   11.01736300
_cell_angle_alpha   90.00000000
_cell_angle_beta   90.00000000
_cell_angle_gamma   90.00000000
_symmetry_Int_Tables_number   1
_chemical_formula_structural   Mg6ZrV
_chemical_formula_sum   'Mg12 Zr2 V2'
_cell_volume   345.95344463
_cell_formula_units_Z   2
loop_
 _symmetry_equiv_pos_site_id
 _symmetry_equiv_pos_as_xyz
  1  'x, y, z'
loop_
 _atom_site_type_symbol
 _atom_site_label
 _atom_site_symmetry_multiplicity
 _atom_site_fract_x
 _atom_site_fract_y
 _atom_site_fract_z
 _atom_site_occupancy
  Mg  Mg0  1  0.50000000  0.24664500  0.41774500  1
  Mg  Mg1  1  0.50000000  0.75335500  0.41774500  1
  Mg  Mg2  1  0.00000000  0.74414300  0.08820800  1
  Mg  Mg3  1  0.00000000  0.25585700  0.08820800  1
  Mg  Mg4  1  0.00000000  0.00000000  0.32987600  1
  Mg  Mg5  1  0.00000000  0.50000000  0.32558900  1
  Mg  Mg6  1  0.50000000  0.74664500  0.91774500  1
  Mg  Mg7  1  0.50000000  0.25335500  0.91774500  1
  Mg  Mg8  1  0.00000000  0.24414300  0.58820800  1
  Mg  Mg9  1  0.00000000  0.75585700  0.58820800  1
  Mg  Mg10  1  0.00000000  0.50000000  0.82987600  1
  Mg  Mg11  1  0.00000000  0.00000000  0.82558900  1
  Zr  Zr0  1  0.50000000  0.00000000  0.16674800  1
  Zr  Zr1  1  0.50000000  0.50000000  0.66674800  1
  V  V0  1  0.50000000  0.50000000  0.16587700  1
  V  V1  1  0.50000000  0.00000000  0.66587700  1
loop_
_geom_bond_atom_site_label_1
_geom_bond_atom_site_label_2
_geom_bond_distance
_geom_bond_site_symmetry_2
Mg0 Mg1 3.066868 1_545
Mg0 Mg4 3.108999 1_655
Mg0 Mg4 3.108999 1_555
Mg0 V1 3.134464 1_555
Mg0 Mg5 3.144715 1_655
Mg0 Mg5 3.144715 1_555
Mg0 Mg8 3.147156 1_655
Mg0 Mg8 3.147156 1_555
Mg0 Mg1 3.150303 1_555
Mg0 Zr0 3.162031 1_555
Mg0 Zr1 3.163401 1_555
Mg0 V0 3.190813 1_555
Mg1 Mg4 3.108999 1_565
Mg1 Mg4 3.108999 1_665
Mg1 V1 3.134464 1_565
Mg1 Mg5 3.144715 1_655
Mg1 Mg5 3.144715 1_555
Mg1 Mg9 3.147156 1_555
Mg1 Mg9 3.147156 1_655
Mg1 Zr0 3.162031 1_565
Mg1 Zr1 3.163401 1_555
Mg1 V0 3.190813 1_555
Mg2 Mg5 3.023874 1_555
Mg2 Mg3 3.035758 1_555
Mg2 V0 3.068135 1_555
Mg2 V0 3.068135 1_455
Mg2 Mg4 3.101530 1_565
Mg2 Zr0 3.107469 1_565
Mg2 Zr0 3.107469 1_465
Mg2 Mg6 3.147156 1_454
Mg2 Mg6 3.147156 1_554
Mg2 Mg3 3.181413 1_565
Mg3 Mg5 3.023874 1_555
Mg3 V0 3.068135 1_555
Mg3 V0 3.068135 1_455
Mg3 Mg4 3.101530 1_555
Mg3 Zr0 3.107469 1_455
Mg3 Zr0 3.107469 1_555
Mg3 Mg7 3.147156 1_554
Mg3 Mg7 3.147156 1_454
Mg4 Zr0 3.099570 1_455
Mg4 Zr0 3.099570 1_555
Mg4 Mg5 3.108944 1_545
Mg4 Mg5 3.108944 1_555
Mg4 Mg9 3.225594 1_545
Mg4 Mg8 3.225594 1_555
Mg5 V0 3.077901 1_555
Mg5 V0 3.077901 1_455
Mg5 Mg8 3.301807 1_555
Mg5 Mg9 3.301807 1_555
Mg6 Mg7 3.066868 1_555
Mg6 V0 3.134464 1_556
Mg6 Mg7 3.150303 1_565
Mg6 Zr1 3.162031 1_555
Mg6 Zr0 3.163401 1_566
Mg6 V1 3.190813 1_565
Mg7 V0 3.134464 1_556
Mg7 Zr1 3.162031 1_555
Mg7 Zr0 3.163401 1_556
Mg7 V1 3.190813 1_555
Mg8 Mg9 3.035758 1_545
Mg8 V1 3.068135 1_455
Mg8 V1 3.068135 1_555
Mg8 Zr1 3.107469 1_455
Mg8 Zr1 3.107469 1_555
Mg8 Mg9 3.181413 1_555
Mg9 V1 3.068135 1_565
Mg9 V1 3.068135 1_465
Mg9 Zr1 3.107469 1_455
Mg9 Zr1 3.107469 1_555
Mg10 Zr1 3.099570 1_455
Mg10 Zr1 3.099570 1_555
Mg10 Mg8 3.101530 1_555
Mg10 Mg9 3.101530 1_555
Mg10 Mg11 3.108944 1_565
Mg10 Mg11 3.108944 1_555
Mg10 Mg6 3.108999 1_455
Mg10 Mg6 3.108999 1_555
Mg10 Mg7 3.108999 1_455
Mg10 Mg7 3.108999 1_555
Mg10 Mg3 3.225594 1_556
Mg10 Mg2 3.225594 1_556
Mg11 Mg8 3.023874 1_555
Mg11 Mg9 3.023874 1_545
Mg11 V1 3.077901 1_555
Mg11 V1 3.077901 1_455
Mg11 Mg6 3.144715 1_445
Mg11 Mg7 3.144715 1_455
Mg11 Mg6 3.144715 1_545
Mg11 Mg7 3.144715 1_555
Mg11 Mg3 3.301807 1_556
Mg11 Mg2 3.301807 1_546
V0 Zr0 3.108600 1_555
V0 Zr0 3.108600 1_565
V1 Zr1 3.108600 1_555
V1 Zr1 3.108600 1_545
