# generated using pymatgen
data_Ba2MgMoO6
_symmetry_space_group_name_H-M   'P 1'
_cell_length_a   5.80695605
_cell_length_b   5.80695605
_cell_length_c   5.80695605
_cell_angle_alpha   60.00000000
_cell_angle_beta   60.00000000
_cell_angle_gamma   60.00000000
_symmetry_Int_Tables_number   1
_chemical_formula_structural   Ba2MgMoO6
_chemical_formula_sum   'Ba2 Mg1 Mo1 O6'
_cell_volume   138.46200595
_cell_formula_units_Z   1
loop_
 _symmetry_equiv_pos_site_id
 _symmetry_equiv_pos_as_xyz
  1  'x, y, z'
loop_
 _atom_site_type_symbol
 _atom_site_label
 _atom_site_symmetry_multiplicity
 _atom_site_fract_x
 _atom_site_fract_y
 _atom_site_fract_z
 _atom_site_occupancy
  Ba  Ba0  1  0.25000000  0.25000000  0.25000000  1
  Ba  Ba1  1  0.75000000  0.75000000  0.75000000  1
  Mg  Mg0  1  0.50000000  0.50000000  0.50000000  1
  Mo  Mo0  1  0.00000000  0.00000000  0.00000000  1
  O  O0  1  0.76127000  0.23873000  0.23873000  1
  O  O1  1  0.23873000  0.76127000  0.76127000  1
  O  O2  1  0.23873000  0.76127000  0.23873000  1
  O  O3  1  0.76127000  0.23873000  0.76127000  1
  O  O4  1  0.23873000  0.23873000  0.76127000  1
  O  O5  1  0.76127000  0.76127000  0.23873000  1
loop_
_geom_bond_atom_site_label_1
_geom_bond_atom_site_label_2
_geom_bond_distance
_geom_bond_site_symmetry_2
Ba0 O2 2.904953 1_545
Ba0 O4 2.904953 1_554
Ba0 O0 2.904953 1_455
Ba0 O1 2.904953 1_554
Ba0 O5 2.904953 1_455
Ba0 O3 2.904953 1_455
Ba0 O1 2.904953 1_545
Ba0 O3 2.904953 1_554
Ba0 O5 2.904953 1_545
Ba0 O2 2.904953 1_555
Ba0 O0 2.904953 1_555
Ba0 O4 2.904953 1_555
Ba1 O3 2.904953 1_555
Ba1 O1 2.904953 1_555
Ba1 O5 2.904953 1_555
Ba1 O0 2.904953 1_556
Ba1 O2 2.904953 1_655
Ba1 O4 2.904953 1_655
Ba1 O0 2.904953 1_565
Ba1 O4 2.904953 1_565
Ba1 O2 2.904953 1_556
Ba1 O3 2.904953 1_565
Ba1 O5 2.904953 1_556
Ba1 O1 2.904953 1_655
Mg0 O2 2.145621 1_555
Mg0 O0 2.145621 1_555
Mg0 O4 2.145621 1_555
Mg0 O1 2.145621 1_555
Mg0 O5 2.145621 1_555
Mg0 O3 2.145621 1_555
Mo0 O1 1.960517 1_544
Mo0 O3 1.960517 1_454
Mo0 O5 1.960517 1_445
Mo0 O0 1.960517 1_455
Mo0 O2 1.960517 1_545
Mo0 O4 1.960517 1_554
