# generated using pymatgen
data_Sm3TiSb5
_symmetry_space_group_name_H-M   'P 1'
_cell_length_a   9.35775787
_cell_length_b   9.35775787
_cell_length_c   6.25713800
_cell_angle_alpha   90.00000000
_cell_angle_beta   90.00000000
_cell_angle_gamma   119.99999908
_symmetry_Int_Tables_number   1
_chemical_formula_structural   Sm3TiSb5
_chemical_formula_sum   'Sm6 Ti2 Sb10'
_cell_volume   474.51503382
_cell_formula_units_Z   2
loop_
 _symmetry_equiv_pos_site_id
 _symmetry_equiv_pos_as_xyz
  1  'x, y, z'
loop_
 _atom_site_type_symbol
 _atom_site_label
 _atom_site_symmetry_multiplicity
 _atom_site_fract_x
 _atom_site_fract_y
 _atom_site_fract_z
 _atom_site_occupancy
  Sm  Sm0  1  0.61764300  0.00000000  0.75000000  1
  Sm  Sm1  1  0.38235700  0.00000000  0.25000000  1
  Sm  Sm2  1  0.00000000  0.61764300  0.75000000  1
  Sm  Sm3  1  0.00000000  0.38235700  0.25000000  1
  Sm  Sm4  1  0.38235700  0.38235700  0.75000000  1
  Sm  Sm5  1  0.61764300  0.61764300  0.25000000  1
  Ti  Ti0  1  0.00000000  0.00000000  0.50000000  1
  Ti  Ti1  1  0.00000000  0.00000000  0.00000000  1
  Sb  Sb0  1  0.25572900  0.00000000  0.75000000  1
  Sb  Sb1  1  0.74427100  0.00000000  0.25000000  1
  Sb  Sb2  1  0.00000000  0.25572900  0.75000000  1
  Sb  Sb3  1  0.00000000  0.74427100  0.25000000  1
  Sb  Sb4  1  0.74427100  0.74427100  0.75000000  1
  Sb  Sb5  1  0.25572900  0.25572900  0.25000000  1
  Sb  Sb6  1  0.33333300  0.66666700  0.50000000  1
  Sb  Sb7  1  0.66666700  0.33333300  0.50000000  1
  Sb  Sb8  1  0.66666700  0.33333300  0.00000000  1
  Sb  Sb9  1  0.33333300  0.66666700  0.00000000  1
loop_
_geom_bond_atom_site_label_1
_geom_bond_atom_site_label_2
_geom_bond_distance
_geom_bond_site_symmetry_2
Sb0 Ti1 2.858964 1_556
Sb0 Ti0 2.858964 1_555
Sb0 Sm4 3.156970 1_555
Sb0 Sm2 3.156970 1_545
Sb0 Sm1 3.345454 1_555
Sb0 Sm1 3.345454 1_556
Sb0 Sm0 3.386704 1_555
Sb1 Ti0 2.858964 1_655
Sb1 Ti1 2.858964 1_655
Sb1 Sm5 3.156970 1_545
Sb1 Sm3 3.156970 1_655
Sb1 Sm0 3.345454 1_554
Sb1 Sm0 3.345454 1_555
Sb1 Sm1 3.386704 1_555
Sb2 Ti1 2.858964 1_556
Sb2 Ti0 2.858964 1_555
Sb2 Sm4 3.156970 1_555
Sb2 Sm0 3.156970 1_455
Sb2 Sm3 3.345454 1_556
Sb2 Sm3 3.345454 1_555
Sb2 Sm2 3.386704 1_555
Sb3 Ti1 2.858964 1_565
Sb3 Ti0 2.858964 1_565
Sb3 Sm5 3.156970 1_455
Sb3 Sm1 3.156970 1_565
Sb3 Sm2 3.345454 1_555
Sb3 Sm2 3.345454 1_554
Sb3 Sm3 3.386704 1_555
Sb4 Ti0 2.858964 1_665
Sb4 Ti1 2.858964 1_666
Sb4 Sm2 3.156970 1_655
Sb4 Sm0 3.156970 1_565
Sb4 Sm5 3.345454 1_556
Sb4 Sm5 3.345454 1_555
Sb4 Sm4 3.386704 1_555
Sb5 Ti1 2.858964 1_555
Sb5 Ti0 2.858964 1_555
Sb5 Sm1 3.156970 1_555
Sb5 Sm3 3.156970 1_555
Sb5 Sm4 3.345454 1_555
Sb5 Sm4 3.345454 1_554
Sb5 Sm5 3.386704 1_555
Sb6 Sb9 3.128569 1_555
Sb6 Sb9 3.128569 1_556
Sb6 Sm1 3.310013 1_565
Sb6 Sm2 3.310013 1_555
Sb6 Sm3 3.310017 1_555
Sb6 Sm0 3.310017 1_565
Sb6 Sm5 3.310022 1_555
Sb6 Sm4 3.310022 1_555
Sb7 Sb8 3.128569 1_555
Sb7 Sb8 3.128569 1_556
Sb7 Sm3 3.310013 1_655
Sb7 Sm0 3.310013 1_555
Sb7 Sm1 3.310017 1_555
Sb7 Sm2 3.310017 1_655
Sb7 Sm5 3.310022 1_555
Sb7 Sm4 3.310022 1_555
Sb8 Sm3 3.310013 1_655
Sb8 Sm0 3.310013 1_554
Sb8 Sm2 3.310017 1_654
Sb8 Sm1 3.310017 1_555
Sb8 Sm5 3.310022 1_555
Sb8 Sm4 3.310022 1_554
Sb9 Sm2 3.310013 1_554
Sb9 Sm1 3.310013 1_565
Sb9 Sm3 3.310017 1_555
Sb9 Sm0 3.310017 1_564
Sb9 Sm5 3.310022 1_555
Sb9 Sm4 3.310022 1_554
