# generated using pymatgen
data_La6AlFe13
_symmetry_space_group_name_H-M   'P 1'
_cell_length_a   8.08594000
_cell_length_b   8.08594000
_cell_length_c   13.17643827
_cell_angle_alpha   107.86849351
_cell_angle_beta   107.86849351
_cell_angle_gamma   90.00000000
_symmetry_Int_Tables_number   1
_chemical_formula_structural   La6AlFe13
_chemical_formula_sum   'La12 Al2 Fe26'
_cell_volume   776.17314775
_cell_formula_units_Z   2
loop_
 _symmetry_equiv_pos_site_id
 _symmetry_equiv_pos_as_xyz
  1  'x, y, z'
loop_
 _atom_site_type_symbol
 _atom_site_label
 _atom_site_symmetry_multiplicity
 _atom_site_fract_x
 _atom_site_fract_y
 _atom_site_fract_z
 _atom_site_occupancy
  La  La0  1  0.34958300  0.84958300  0.37116900  1
  La  La1  1  0.65041700  0.15041700  0.62883100  1
  La  La2  1  0.02158600  0.52158600  0.37116900  1
  La  La3  1  0.52158600  0.34958300  0.37116900  1
  La  La4  1  0.15041700  0.97841400  0.62883100  1
  La  La5  1  0.97841400  0.47841400  0.62883100  1
  La  La6  1  0.47841400  0.65041700  0.62883100  1
  La  La7  1  0.84958300  0.02158600  0.37116900  1
  La  La8  1  0.10730600  0.10730600  0.21461200  1
  La  La9  1  0.89269400  0.89269400  0.78538800  1
  La  La10  1  0.39269400  0.39269400  0.78538800  1
  La  La11  1  0.60730600  0.60730600  0.21461200  1
  Al  Al0  1  0.25000000  0.25000000  0.50000000  1
  Al  Al1  1  0.75000000  0.75000000  0.50000000  1
  Fe  Fe0  1  0.23617400  0.73617400  0.11580200  1
  Fe  Fe1  1  0.76382600  0.26382600  0.88419800  1
  Fe  Fe2  1  0.87962900  0.37962900  0.11580200  1
  Fe  Fe3  1  0.37962900  0.23617400  0.11580200  1
  Fe  Fe4  1  0.26382600  0.12037100  0.88419800  1
  Fe  Fe5  1  0.12037100  0.62037100  0.88419800  1
  Fe  Fe6  1  0.62037100  0.76382600  0.88419800  1
  Fe  Fe7  1  0.73617400  0.87962900  0.11580200  1
  Fe  Fe8  1  0.70486800  0.20486800  0.18371900  1
  Fe  Fe9  1  0.29513200  0.79513200  0.81628100  1
  Fe  Fe10  1  0.47885100  0.97885100  0.18371900  1
  Fe  Fe11  1  0.97885100  0.70486800  0.18371900  1
  Fe  Fe12  1  0.79513200  0.52114900  0.81628100  1
  Fe  Fe13  1  0.52114900  0.02114900  0.81628100  1
  Fe  Fe14  1  0.02114900  0.29513200  0.81628100  1
  Fe  Fe15  1  0.20486800  0.47885100  0.18371900  1
  Fe  Fe16  1  0.00000000  0.50000000  0.00000000  1
  Fe  Fe17  1  0.50000000  0.00000000  0.00000000  1
  Fe  Fe18  1  0.06691500  0.20902400  0.00000000  1
  Fe  Fe19  1  0.93308500  0.79097600  0.00000000  1
  Fe  Fe20  1  0.79097600  0.06691500  0.00000000  1
  Fe  Fe21  1  0.43308500  0.70902400  0.00000000  1
  Fe  Fe22  1  0.20902400  0.93308500  0.00000000  1
  Fe  Fe23  1  0.56691500  0.29097600  0.00000000  1
  Fe  Fe24  1  0.70902400  0.56691500  0.00000000  1
  Fe  Fe25  1  0.29097600  0.43308500  0.00000000  1
loop_
_geom_bond_atom_site_label_1
_geom_bond_atom_site_label_2
_geom_bond_distance
_geom_bond_site_symmetry_2
Al0 La10 3.387921 1_555
Al0 La8 3.387921 1_555
Al0 La4 3.388068 1_545
Al0 La5 3.388068 1_455
Al0 La1 3.388068 1_555
Al0 La6 3.388068 1_555
Al0 La7 3.388068 1_455
Al0 La0 3.388068 1_545
Al0 La3 3.388068 1_555
Al0 La2 3.388068 1_555
Al1 La9 3.387921 1_555
Al1 La11 3.387921 1_555
Al1 La6 3.388068 1_555
Al1 La5 3.388068 1_555
Al1 La1 3.388068 1_565
Al1 La4 3.388068 1_655
Al1 La2 3.388068 1_655
Al1 La3 3.388068 1_555
Al1 La7 3.388068 1_565
Al1 La0 3.388068 1_555
Fe0 Fe16 2.458805 1_555
Fe0 Fe22 2.489358 1_555
Fe0 Fe21 2.489358 1_555
Fe0 Fe10 2.519250 1_555
Fe0 Fe15 2.544782 1_555
Fe0 Fe11 2.544782 1_455
Fe0 Fe25 2.578942 1_555
Fe0 Fe19 2.578942 1_455
Fe0 Fe5 2.749436 1_554
Fe0 La0 3.035925 1_555
Fe0 La8 3.197106 1_565
Fe0 La11 3.197106 1_555
Fe1 Fe16 2.458805 1_656
Fe1 Fe20 2.489358 1_556
Fe1 Fe23 2.489358 1_556
Fe1 Fe13 2.519250 1_555
Fe1 Fe14 2.544782 1_655
Fe1 Fe12 2.544782 1_555
Fe1 Fe24 2.578942 1_556
Fe1 Fe18 2.578942 1_656
Fe1 Fe2 2.749436 1_556
Fe1 La1 3.035925 1_555
Fe1 La10 3.197106 1_555
Fe1 La9 3.197106 1_545
Fe2 Fe20 2.489365 1_555
Fe2 Fe23 2.489365 1_555
Fe2 Fe8 2.519261 1_555
Fe2 Fe24 2.578938 1_555
Fe2 La2 3.035924 1_655
Fe2 La8 3.197109 1_655
Fe2 La11 3.197109 1_555
Fe3 Fe8 2.544775 1_555
Fe3 Fe4 2.749436 1_554
Fe3 La3 3.035925 1_555
Fe3 La11 3.197103 1_555
Fe3 La8 3.197113 1_555
Fe4 Fe9 2.544775 1_545
Fe4 La4 3.035925 1_545
Fe4 La9 3.197103 1_445
Fe4 La10 3.197113 1_555
Fe5 Fe9 2.519261 1_555
Fe5 La5 3.035924 1_455
Fe5 La9 3.197109 1_455
Fe5 La10 3.197109 1_555
Fe6 Fe9 2.544775 1_555
Fe6 Fe7 2.749436 1_556
Fe6 La6 3.035925 1_555
Fe6 La10 3.197103 1_555
Fe6 La9 3.197113 1_555
Fe7 Fe8 2.544775 1_565
Fe7 La7 3.035925 1_565
Fe7 La8 3.197103 1_665
Fe7 La11 3.197113 1_555
Fe8 La3 3.184150 1_555
Fe8 La7 3.184150 1_555
Fe8 La11 3.280445 1_555
Fe8 La8 3.280445 1_655
Fe8 La2 3.384410 1_655
Fe9 La6 3.184150 1_555
Fe9 La4 3.184150 1_555
Fe9 La10 3.280445 1_555
Fe9 La9 3.280445 1_455
Fe9 La5 3.384410 1_455
Fe10 Fe17 2.535086 1_565
Fe10 Fe7 2.544781 1_555
Fe10 Fe3 2.544781 1_565
Fe10 Fe8 2.584560 1_565
Fe10 Fe22 2.639395 1_555
Fe10 Fe21 2.639395 1_555
Fe10 La3 3.184150 1_565
Fe10 La7 3.184150 1_565
Fe10 La8 3.280445 1_565
Fe10 La11 3.280445 1_555
Fe10 La0 3.384410 1_555
Fe11 Fe7 2.519256 1_555
Fe11 Fe16 2.535086 1_655
Fe11 Fe2 2.544773 1_555
Fe11 Fe15 2.584560 1_655
Fe11 Fe24 2.639395 1_555
Fe11 Fe19 2.639395 1_555
Fe11 La2 3.184150 1_655
Fe11 La0 3.184150 1_655
Fe11 La11 3.280445 1_555
Fe11 La8 3.280445 1_665
Fe11 La7 3.384410 1_565
Fe12 Fe6 2.519256 1_555
Fe12 Fe16 2.535086 1_656
Fe12 Fe5 2.544773 1_655
Fe12 Fe14 2.584560 1_655
Fe12 Fe19 2.639395 1_556
Fe12 Fe24 2.639395 1_556
Fe12 La1 3.184150 1_555
Fe12 La5 3.184150 1_555
Fe12 La9 3.280445 1_555
Fe12 La10 3.280445 1_555
Fe12 La6 3.384410 1_555
Fe13 Fe17 2.535086 1_556
Fe13 Fe6 2.544781 1_545
Fe13 Fe4 2.544781 1_555
Fe13 Fe9 2.584560 1_545
Fe13 Fe20 2.639395 1_556
Fe13 Fe23 2.639395 1_556
Fe13 La6 3.184150 1_545
Fe13 La4 3.184150 1_545
Fe13 La9 3.280445 1_545
Fe13 La10 3.280445 1_555
Fe13 La1 3.384410 1_555
Fe14 Fe4 2.519256 1_555
Fe14 Fe16 2.535086 1_556
Fe14 Fe5 2.544773 1_555
Fe14 Fe18 2.639395 1_556
Fe14 Fe25 2.639395 1_556
Fe14 La1 3.184150 1_455
Fe14 La5 3.184150 1_455
Fe14 La9 3.280445 1_445
Fe14 La10 3.280445 1_555
Fe14 La4 3.384410 1_545
Fe15 Fe3 2.519256 1_555
Fe15 Fe16 2.535086 1_555
Fe15 Fe2 2.544773 1_455
Fe15 Fe18 2.639395 1_555
Fe15 Fe25 2.639395 1_555
Fe15 La2 3.184150 1_555
Fe15 La0 3.184150 1_555
Fe15 La8 3.280445 1_555
Fe15 La11 3.280445 1_555
Fe15 La3 3.384410 1_555
Fe16 Fe24 2.414227 1_455
Fe16 Fe18 2.414227 1_555
Fe16 Fe25 2.414227 1_555
Fe16 Fe19 2.414227 1_455
Fe16 Fe2 2.458795 1_455
Fe16 Fe5 2.458795 1_554
Fe17 Fe21 2.414227 1_545
Fe17 Fe23 2.414227 1_555
Fe17 Fe20 2.414227 1_555
Fe17 Fe22 2.414227 1_545
Fe17 Fe7 2.458800 1_545
Fe17 Fe3 2.458800 1_555
Fe17 Fe4 2.458800 1_554
Fe17 Fe6 2.458800 1_544
Fe17 Fe8 2.535086 1_555
Fe17 Fe9 2.535086 1_544
Fe18 Fe4 2.489359 1_554
Fe18 Fe3 2.489365 1_555
Fe18 Fe20 2.509734 1_455
Fe18 Fe22 2.509734 1_545
Fe18 Fe25 2.562193 1_555
Fe18 Fe2 2.578938 1_455
Fe18 La8 3.104876 1_555
Fe18 La9 3.104876 1_444
Fe19 Fe7 2.489359 1_555
Fe19 Fe6 2.489365 1_554
Fe19 Fe20 2.509734 1_565
Fe19 Fe22 2.509734 1_655
Fe19 Fe24 2.562193 1_555
Fe19 Fe5 2.578938 1_654
Fe19 La8 3.104876 1_665
Fe19 La9 3.104876 1_554
Fe20 Fe23 2.562193 1_555
Fe20 Fe7 2.578936 1_545
Fe20 Fe6 2.578945 1_544
Fe20 Fe8 2.639395 1_555
Fe20 La8 3.104876 1_655
Fe20 La9 3.104876 1_544
Fe21 Fe5 2.489365 1_554
Fe21 Fe25 2.509734 1_555
Fe21 Fe24 2.509734 1_555
Fe21 Fe22 2.562193 1_555
Fe21 Fe6 2.578936 1_554
Fe21 Fe7 2.578945 1_555
Fe21 Fe9 2.639395 1_554
Fe21 La11 3.104876 1_555
Fe21 La10 3.104876 1_554
Fe22 Fe5 2.489365 1_554
Fe22 Fe4 2.578936 1_564
Fe22 Fe3 2.578945 1_565
Fe22 Fe9 2.639395 1_554
Fe22 La8 3.104876 1_565
Fe22 La9 3.104876 1_454
Fe23 Fe24 2.509734 1_555
Fe23 Fe25 2.509734 1_555
Fe23 Fe3 2.578936 1_555
Fe23 Fe4 2.578945 1_554
Fe23 Fe8 2.639395 1_555
Fe23 La11 3.104876 1_555
Fe23 La10 3.104876 1_554
Fe24 Fe6 2.489359 1_554
Fe24 Fe7 2.489365 1_555
Fe24 La11 3.104876 1_555
Fe24 La10 3.104876 1_554
Fe25 Fe3 2.489359 1_555
Fe25 Fe4 2.489365 1_554
Fe25 Fe5 2.578938 1_554
Fe25 La11 3.104876 1_555
Fe25 La10 3.104876 1_554
