# generated using pymatgen
data_Cs2AuCl
_symmetry_space_group_name_H-M   'P 1'
_cell_length_a   12.73570204
_cell_length_b   12.73570204
_cell_length_c   12.73570204
_cell_angle_alpha   120.62502413
_cell_angle_beta   118.15864265
_cell_angle_gamma   91.06967139
_symmetry_Int_Tables_number   1
_chemical_formula_structural   Cs2AuCl
_chemical_formula_sum   'Cs2 Au1 Cl1'
_cell_volume   1472.99014070
_cell_formula_units_Z   1
loop_
 _symmetry_equiv_pos_site_id
 _symmetry_equiv_pos_as_xyz
  1  'x, y, z'
loop_
 _atom_site_type_symbol
 _atom_site_label
 _atom_site_symmetry_multiplicity
 _atom_site_fract_x
 _atom_site_fract_y
 _atom_site_fract_z
 _atom_site_occupancy
  Cs  Cs0  1  0.24055300  0.00000000  0.24055300  1
  Cs  Cs1  1  0.75944700  0.00000000  0.75944700  1
  Au  Au0  1  0.50000000  0.00000000  0.50000000  1
  Cl  Cl0  1  0.00000000  0.00000000  0.00000000  1
loop_
_geom_bond_atom_site_label_1
_geom_bond_atom_site_label_2
_geom_bond_distance
_geom_bond_site_symmetry_2
Au0 Cs1 3.395773 1_555
Au0 Cs0 3.395773 1_555
Cl0 Cs0 3.148479 1_555
Cl0 Cs1 3.148479 1_454
