# generated using pymatgen
data_CaCu2(NiO4)2
_symmetry_space_group_name_H-M   'P 1'
_cell_length_a   8.50354700
_cell_length_b   6.39584000
_cell_length_c   12.12046004
_cell_angle_alpha   85.96147577
_cell_angle_beta   90.00000000
_cell_angle_gamma   90.00000000
_symmetry_Int_Tables_number   1
_chemical_formula_structural   CaCu2(NiO4)2
_chemical_formula_sum   'Ca4 Cu8 Ni8 O32'
_cell_volume   657.56256886
_cell_formula_units_Z   4
loop_
 _symmetry_equiv_pos_site_id
 _symmetry_equiv_pos_as_xyz
  1  'x, y, z'
loop_
 _atom_site_type_symbol
 _atom_site_label
 _atom_site_symmetry_multiplicity
 _atom_site_fract_x
 _atom_site_fract_y
 _atom_site_fract_z
 _atom_site_occupancy
  Ca  Ca0  1  0.17875100  0.16982600  0.01591100  1
  Ca  Ca1  1  0.82124900  0.83017400  0.98408900  1
  Ca  Ca2  1  0.67875100  0.83017400  0.48408900  1
  Ca  Ca3  1  0.32124900  0.16982600  0.51591100  1
  Cu  Cu0  1  0.19396900  0.73123800  0.88217200  1
  Cu  Cu1  1  0.03922900  0.41490400  0.64149100  1
  Cu  Cu2  1  0.96077100  0.58509600  0.35850900  1
  Cu  Cu3  1  0.80603100  0.26876200  0.11782800  1
  Cu  Cu4  1  0.30603100  0.73123800  0.38217200  1
  Cu  Cu5  1  0.46077100  0.41490400  0.14149100  1
  Cu  Cu6  1  0.69396900  0.26876200  0.61782800  1
  Cu  Cu7  1  0.53922900  0.58509600  0.85850900  1
  Ni  Ni0  1  0.47560800  0.08068000  0.82605600  1
  Ni  Ni1  1  0.02439200  0.08068000  0.32605600  1
  Ni  Ni2  1  0.10205100  0.61488500  0.13579300  1
  Ni  Ni3  1  0.97560800  0.91932000  0.67394400  1
  Ni  Ni4  1  0.89794900  0.38511500  0.86420700  1
  Ni  Ni5  1  0.60205100  0.38511500  0.36420700  1
  Ni  Ni6  1  0.39794900  0.61488500  0.63579300  1
  Ni  Ni7  1  0.52439200  0.91932000  0.17394400  1
  O  O0  1  0.21268700  0.98925000  0.37965000  1
  O  O1  1  0.97691600  0.68603700  0.60133900  1
  O  O2  1  0.59870600  0.18517700  0.48015400  1
  O  O3  1  0.09870600  0.81482300  0.01984600  1
  O  O4  1  0.28731300  0.98925000  0.87965000  1
  O  O5  1  0.78731300  0.01075000  0.62035000  1
  O  O6  1  0.10494200  0.13976000  0.65054400  1
  O  O7  1  0.89976000  0.53134300  0.11879100  1
  O  O8  1  0.60024000  0.53134300  0.61879100  1
  O  O9  1  0.85207600  0.35674900  0.71553200  1
  O  O10  1  0.35207600  0.64325100  0.78446800  1
  O  O11  1  0.10024000  0.46865700  0.88120900  1
  O  O12  1  0.89505800  0.86024000  0.34945600  1
  O  O13  1  0.51192300  0.84470000  0.31386500  1
  O  O14  1  0.23076900  0.47265100  0.58069800  1
  O  O15  1  0.26923100  0.47265100  0.08069800  1
  O  O16  1  0.01192300  0.15530000  0.18613500  1
  O  O17  1  0.39976000  0.46865700  0.38120900  1
  O  O18  1  0.48807700  0.15530000  0.68613500  1
  O  O19  1  0.40129400  0.81482300  0.51984600  1
  O  O20  1  0.52308400  0.68603700  0.10133900  1
  O  O21  1  0.14792400  0.64325100  0.28446800  1
  O  O22  1  0.71268700  0.01075000  0.12035000  1
  O  O23  1  0.39505800  0.13976000  0.15054400  1
  O  O24  1  0.90129400  0.18517700  0.98015400  1
  O  O25  1  0.73076900  0.52734900  0.91930200  1
  O  O26  1  0.02308400  0.31396300  0.39866100  1
  O  O27  1  0.47691600  0.31396300  0.89866100  1
  O  O28  1  0.60494200  0.86024000  0.84945600  1
  O  O29  1  0.76923100  0.52734900  0.41930200  1
  O  O30  1  0.64792400  0.35674900  0.21553200  1
  O  O31  1  0.98807700  0.84470000  0.81386500  1
loop_
_geom_bond_atom_site_label_1
_geom_bond_atom_site_label_2
_geom_bond_distance
_geom_bond_site_symmetry_2
Ca0 O15 2.274662 1_555
Ca0 O4 2.276484 1_544
Ca0 O3 2.367634 1_545
Ca0 O24 2.399603 1_454
Ca0 O23 2.457418 1_555
Ca0 O16 2.500182 1_555
Ca0 O11 2.514898 1_554
Ca1 O25 2.274662 1_555
Ca1 O22 2.276484 1_566
Ca1 O24 2.367634 1_565
Ca1 O3 2.399603 1_656
Ca1 O28 2.457418 1_555
Ca1 O31 2.500182 1_555
Ca1 O7 2.514898 1_556
Ca2 O29 2.274662 1_555
Ca2 O5 2.276484 1_565
Ca2 O2 2.367634 1_565
Ca2 O19 2.399603 1_555
Ca2 O12 2.457418 1_555
Ca2 O13 2.500182 1_555
Ca2 O8 2.514898 1_555
Ca3 O14 2.274662 1_555
Ca3 O0 2.276484 1_545
Ca3 O19 2.367634 1_545
Ca3 O2 2.399603 1_555
Ca3 O6 2.457418 1_555
Ca3 O18 2.500182 1_555
Ca3 O17 2.514898 1_555
Cu0 O4 1.829494 1_555
Cu0 O11 1.859738 1_555
Cu0 O10 1.902768 1_555
Cu0 O3 1.962685 1_556
Cu0 O31 2.047627 1_455
Cu1 O14 1.814911 1_555
Cu1 O6 1.842256 1_555
Cu1 O1 1.845515 1_455
Cu1 O9 1.851874 1_455
Cu2 O29 1.814911 1_555
Cu2 O12 1.842256 1_555
Cu2 O26 1.845515 1_655
Cu2 O21 1.851874 1_655
Cu3 O22 1.829494 1_555
Cu3 O7 1.859738 1_555
Cu3 O30 1.902768 1_555
Cu3 O24 1.962685 1_554
Cu3 O16 2.047627 1_655
Cu4 O0 1.829494 1_555
Cu4 O17 1.859738 1_555
Cu4 O21 1.902768 1_555
Cu4 O19 1.962685 1_555
Cu4 O13 2.047627 1_555
Cu5 O15 1.814911 1_555
Cu5 O23 1.842256 1_555
Cu5 O20 1.845515 1_555
Cu5 O30 1.851874 1_555
Cu6 O5 1.829494 1_555
Cu6 O8 1.859738 1_555
Cu6 O9 1.902768 1_555
Cu6 O2 1.962685 1_555
Cu6 O18 2.047627 1_555
Cu7 O25 1.814911 1_555
Cu7 O28 1.842256 1_555
Cu7 O27 1.845515 1_555
Cu7 O10 1.851874 1_555
Ni0 O18 1.732372 1_555
Ni0 O27 1.784842 1_555
Ni0 O28 1.794850 1_545
Ni0 O4 1.809468 1_545
Ni1 O16 1.732372 1_555
Ni1 O26 1.784842 1_555
Ni1 O12 1.794850 1_445
Ni1 O0 1.809468 1_545
Ni2 O7 1.817287 1_455
Ni2 O3 1.832455 1_555
Ni2 O15 1.838496 1_555
Ni2 O21 1.865038 1_555
Ni3 O31 1.732372 1_555
Ni3 O1 1.784842 1_555
Ni3 O6 1.794850 1_665
Ni3 O5 1.809468 1_565
Ni4 O11 1.817287 1_655
Ni4 O24 1.832455 1_555
Ni4 O25 1.838496 1_555
Ni4 O9 1.865038 1_555
Ni5 O17 1.817287 1_555
Ni5 O2 1.832455 1_555
Ni5 O29 1.838496 1_555
Ni5 O30 1.865038 1_555
Ni6 O8 1.817287 1_555
Ni6 O19 1.832455 1_555
Ni6 O14 1.838496 1_555
Ni6 O10 1.865038 1_555
Ni7 O13 1.732372 1_555
Ni7 O20 1.784842 1_555
Ni7 O23 1.794850 1_565
Ni7 O22 1.809468 1_565
