# generated using pymatgen
data_Ho3Ga5O12
_symmetry_space_group_name_H-M   'P 1'
_cell_length_a   10.72227611
_cell_length_b   10.72227611
_cell_length_c   10.72227611
_cell_angle_alpha   109.47122063
_cell_angle_beta   109.47122063
_cell_angle_gamma   109.47122063
_symmetry_Int_Tables_number   1
_chemical_formula_structural   Ho3Ga5O12
_chemical_formula_sum   'Ho12 Ga20 O48'
_cell_volume   948.94068998
_cell_formula_units_Z   4
loop_
 _symmetry_equiv_pos_site_id
 _symmetry_equiv_pos_as_xyz
  1  'x, y, z'
loop_
 _atom_site_type_symbol
 _atom_site_label
 _atom_site_symmetry_multiplicity
 _atom_site_fract_x
 _atom_site_fract_y
 _atom_site_fract_z
 _atom_site_occupancy
  Ho  Ho0  1  0.75000000  0.62500000  0.87500000  1
  Ho  Ho1  1  0.25000000  0.87500000  0.62500000  1
  Ho  Ho2  1  0.62500000  0.25000000  0.87500000  1
  Ho  Ho3  1  0.87500000  0.75000000  0.62500000  1
  Ho  Ho4  1  0.87500000  0.62500000  0.25000000  1
  Ho  Ho5  1  0.62500000  0.87500000  0.75000000  1
  Ho  Ho6  1  0.25000000  0.37500000  0.12500000  1
  Ho  Ho7  1  0.75000000  0.12500000  0.37500000  1
  Ho  Ho8  1  0.37500000  0.75000000  0.12500000  1
  Ho  Ho9  1  0.12500000  0.25000000  0.37500000  1
  Ho  Ho10  1  0.12500000  0.37500000  0.75000000  1
  Ho  Ho11  1  0.37500000  0.12500000  0.25000000  1
  Ga  Ga0  1  0.37500000  0.62500000  0.75000000  1
  Ga  Ga1  1  0.62500000  0.37500000  0.25000000  1
  Ga  Ga2  1  0.62500000  0.75000000  0.37500000  1
  Ga  Ga3  1  0.25000000  0.12500000  0.87500000  1
  Ga  Ga4  1  0.87500000  0.25000000  0.12500000  1
  Ga  Ga5  1  0.75000000  0.37500000  0.62500000  1
  Ga  Ga6  1  0.25000000  0.62500000  0.37500000  1
  Ga  Ga7  1  0.75000000  0.87500000  0.12500000  1
  Ga  Ga8  1  0.12500000  0.75000000  0.87500000  1
  Ga  Ga9  1  0.37500000  0.25000000  0.62500000  1
  Ga  Ga10  1  0.87500000  0.12500000  0.75000000  1
  Ga  Ga11  1  0.12500000  0.87500000  0.25000000  1
  Ga  Ga12  1  0.50000000  0.00000000  0.50000000  1
  Ga  Ga13  1  0.00000000  0.50000000  0.00000000  1
  Ga  Ga14  1  0.50000000  0.50000000  0.50000000  1
  Ga  Ga15  1  0.00000000  0.00000000  0.50000000  1
  Ga  Ga16  1  0.00000000  0.00000000  0.00000000  1
  Ga  Ga17  1  0.00000000  0.50000000  0.50000000  1
  Ga  Ga18  1  0.50000000  0.50000000  0.00000000  1
  Ga  Ga19  1  0.50000000  0.00000000  0.00000000  1
  O  O0  1  0.52951700  0.40552800  0.82273800  1
  O  O1  1  0.82273800  0.52951700  0.40552800  1
  O  O2  1  0.79322100  0.87601100  0.97048300  1
  O  O3  1  0.41721000  0.09447200  0.62398900  1
  O  O4  1  0.87601100  0.40552800  0.08279000  1
  O  O5  1  0.67726200  0.08279000  0.70677900  1
  O  O6  1  0.82273800  0.79322100  0.41721000  1
  O  O7  1  0.40552800  0.82273800  0.52951700  1
  O  O8  1  0.62398900  0.70677900  0.52951700  1
  O  O9  1  0.41721000  0.82273800  0.79322100  1
  O  O10  1  0.40552800  0.08279000  0.87601100  1
  O  O11  1  0.09447200  0.97048300  0.67726200  1
  O  O12  1  0.97048300  0.67726200  0.09447200  1
  O  O13  1  0.79322100  0.41721000  0.82273800  1
  O  O14  1  0.52951700  0.62398900  0.70677900  1
  O  O15  1  0.70677900  0.52951700  0.62398900  1
  O  O16  1  0.08279000  0.87601100  0.40552800  1
  O  O17  1  0.97048300  0.79322100  0.87601100  1
  O  O18  1  0.08279000  0.70677900  0.67726200  1
  O  O19  1  0.37601100  0.29322100  0.47048300  1
  O  O20  1  0.62398900  0.41721000  0.09447200  1
  O  O21  1  0.09447200  0.62398900  0.41721000  1
  O  O22  1  0.70677900  0.67726200  0.08279000  1
  O  O23  1  0.67726200  0.09447200  0.97048300  1
  O  O24  1  0.47048300  0.59447200  0.17726200  1
  O  O25  1  0.17726200  0.47048300  0.59447200  1
  O  O26  1  0.20677900  0.12398900  0.02951700  1
  O  O27  1  0.58279000  0.90552800  0.37601100  1
  O  O28  1  0.12398900  0.59447200  0.91721000  1
  O  O29  1  0.32273800  0.91721000  0.29322100  1
  O  O30  1  0.17726200  0.20677900  0.58279000  1
  O  O31  1  0.59447200  0.17726200  0.47048300  1
  O  O32  1  0.32273800  0.90552800  0.02951700  1
  O  O33  1  0.29322100  0.32273800  0.91721000  1
  O  O34  1  0.90552800  0.37601100  0.58279000  1
  O  O35  1  0.12398900  0.02951700  0.20677900  1
  O  O36  1  0.37601100  0.58279000  0.90552800  1
  O  O37  1  0.91721000  0.29322100  0.32273800  1
  O  O38  1  0.02951700  0.20677900  0.12398900  1
  O  O39  1  0.91721000  0.12398900  0.59447200  1
  O  O40  1  0.29322100  0.47048300  0.37601100  1
  O  O41  1  0.47048300  0.37601100  0.29322100  1
  O  O42  1  0.20677900  0.58279000  0.17726200  1
  O  O43  1  0.02951700  0.32273800  0.90552800  1
  O  O44  1  0.90552800  0.02951700  0.32273800  1
  O  O45  1  0.59447200  0.91721000  0.12398900  1
  O  O46  1  0.58279000  0.17726200  0.20677900  1
  O  O47  1  0.87601100  0.97048300  0.79322100  1
loop_
_geom_bond_atom_site_label_1
_geom_bond_atom_site_label_2
_geom_bond_distance
_geom_bond_site_symmetry_2
Ho0 O22 2.349855 1_556
Ho0 O13 2.349855 1_555
Ho0 O15 2.349855 1_555
Ho0 O2 2.349855 1_555
Ho0 O17 2.443256 1_555
Ho0 O0 2.443256 1_555
Ho0 O14 2.443256 1_555
Ho0 O12 2.443256 1_556
Ho1 O10 2.349855 1_565
Ho1 O21 2.349855 1_555
Ho1 O7 2.349855 1_555
Ho1 O11 2.349855 1_555
Ho1 O16 2.443256 1_555
Ho1 O9 2.443256 1_555
Ho1 O18 2.443256 1_555
Ho1 O3 2.443256 1_565
Ho2 O4 2.349855 1_556
Ho2 O3 2.349855 1_555
Ho2 O0 2.349855 1_555
Ho2 O23 2.349855 1_555
Ho2 O10 2.443256 1_555
Ho2 O13 2.443256 1_555
Ho2 O5 2.443256 1_555
Ho2 O20 2.443256 1_556
Ho3 O18 2.349855 1_655
Ho3 O6 2.349855 1_555
Ho3 O17 2.349855 1_555
Ho3 O8 2.349855 1_555
Ho3 O1 2.443256 1_555
Ho3 O47 2.443256 1_555
Ho3 O15 2.443256 1_555
Ho3 O11 2.443256 1_655
Ho4 O16 2.349855 1_655
Ho4 O20 2.349855 1_555
Ho4 O1 2.349855 1_555
Ho4 O12 2.349855 1_555
Ho4 O22 2.443256 1_555
Ho4 O4 2.443256 1_555
Ho4 O6 2.443256 1_555
Ho4 O21 2.443256 1_655
Ho5 O5 2.349855 1_565
Ho5 O9 2.349855 1_555
Ho5 O14 2.349855 1_555
Ho5 O47 2.349855 1_555
Ho5 O7 2.443256 1_555
Ho5 O8 2.443256 1_555
Ho5 O2 2.443256 1_555
Ho5 O23 2.443256 1_565
Ho6 O40 2.349855 1_555
Ho6 O26 2.349855 1_555
Ho6 O33 2.349855 1_554
Ho6 O42 2.349855 1_555
Ho6 O43 2.443256 1_554
Ho6 O24 2.443256 1_555
Ho6 O38 2.443256 1_555
Ho6 O41 2.443256 1_555
Ho7 O44 2.349855 1_555
Ho7 O31 2.349855 1_555
Ho7 O45 2.349855 1_545
Ho7 O34 2.349855 1_555
Ho7 O37 2.443256 1_555
Ho7 O46 2.443256 1_555
Ho7 O39 2.443256 1_555
Ho7 O27 2.443256 1_545
Ho8 O24 2.349855 1_555
Ho8 O32 2.349855 1_555
Ho8 O27 2.349855 1_555
Ho8 O28 2.349855 1_554
Ho8 O29 2.443256 1_555
Ho8 O36 2.443256 1_554
Ho8 O42 2.443256 1_555
Ho8 O45 2.443256 1_555
Ho9 O38 2.349855 1_555
Ho9 O19 2.349855 1_555
Ho9 O37 2.349855 1_455
Ho9 O30 2.349855 1_555
Ho9 O44 2.443256 1_455
Ho9 O25 2.443256 1_555
Ho9 O40 2.443256 1_555
Ho9 O35 2.443256 1_555
Ho10 O39 2.349855 1_455
Ho10 O36 2.349855 1_555
Ho10 O43 2.349855 1_555
Ho10 O25 2.349855 1_555
Ho10 O34 2.443256 1_455
Ho10 O33 2.443256 1_555
Ho10 O28 2.443256 1_555
Ho10 O30 2.443256 1_555
Ho11 O35 2.349855 1_555
Ho11 O41 2.349855 1_555
Ho11 O46 2.349855 1_555
Ho11 O29 2.349855 1_545
Ho11 O31 2.443256 1_555
Ho11 O32 2.443256 1_545
Ho11 O26 2.443256 1_555
Ho11 O19 2.443256 1_555
Ga0 O9 1.865548 1_555
Ga0 O14 1.865548 1_555
Ga0 O25 1.865548 1_555
Ga0 O36 1.865548 1_555
Ga1 O46 1.865548 1_555
Ga1 O1 1.865548 1_555
Ga1 O41 1.865548 1_555
Ga1 O20 1.865548 1_555
Ga2 O6 1.865548 1_555
Ga2 O8 1.865548 1_555
Ga2 O27 1.865548 1_555
Ga2 O24 1.865548 1_555
Ga3 O10 1.865548 1_555
Ga3 O11 1.865548 1_545
Ga3 O26 1.865548 1_556
Ga3 O33 1.865548 1_555
Ga4 O23 1.865548 1_554
Ga4 O38 1.865548 1_655
Ga4 O4 1.865548 1_555
Ga4 O37 1.865548 1_555
Ga5 O13 1.865548 1_555
Ga5 O34 1.865548 1_555
Ga5 O15 1.865548 1_555
Ga5 O31 1.865548 1_555
Ga6 O7 1.865548 1_555
Ga6 O21 1.865548 1_555
Ga6 O42 1.865548 1_555
Ga6 O40 1.865548 1_555
Ga7 O22 1.865548 1_555
Ga7 O2 1.865548 1_554
Ga7 O45 1.865548 1_555
Ga7 O44 1.865548 1_565
Ga8 O17 1.865548 1_455
Ga8 O18 1.865548 1_555
Ga8 O28 1.865548 1_555
Ga8 O32 1.865548 1_556
Ga9 O30 1.865548 1_555
Ga9 O3 1.865548 1_555
Ga9 O0 1.865548 1_555
Ga9 O19 1.865548 1_555
Ga10 O47 1.865548 1_545
Ga10 O39 1.865548 1_555
Ga10 O5 1.865548 1_555
Ga10 O43 1.865548 1_655
Ga11 O12 1.865548 1_455
Ga11 O35 1.865548 1_565
Ga11 O16 1.865548 1_555
Ga11 O29 1.865548 1_555
Ga12 O29 2.017413 1_545
Ga12 O31 2.017413 1_555
Ga12 O3 2.017413 1_555
Ga12 O27 2.017413 1_545
Ga12 O5 2.017413 1_555
Ga12 O7 2.017413 1_545
Ga13 O42 2.017413 1_555
Ga13 O43 2.017413 1_554
Ga13 O4 2.017413 1_455
Ga13 O13 2.017413 1_454
Ga13 O12 2.017413 1_455
Ga13 O28 2.017413 1_554
Ga14 O40 2.017413 1_555
Ga14 O41 2.017413 1_555
Ga14 O19 2.017413 1_555
Ga14 O15 2.017413 1_555
Ga14 O8 2.017413 1_555
Ga14 O14 2.017413 1_555
Ga15 O30 2.017413 1_555
Ga15 O44 2.017413 1_455
Ga15 O16 2.017413 1_545
Ga15 O11 2.017413 1_545
Ga15 O39 2.017413 1_455
Ga15 O6 2.017413 1_445
Ga16 O26 2.017413 1_555
Ga16 O38 2.017413 1_555
Ga16 O35 2.017413 1_555
Ga16 O2 2.017413 1_444
Ga16 O47 2.017413 1_444
Ga16 O17 2.017413 1_444
Ga17 O21 2.017413 1_555
Ga17 O37 2.017413 1_455
Ga17 O25 2.017413 1_555
Ga17 O18 2.017413 1_555
Ga17 O1 2.017413 1_455
Ga17 O34 2.017413 1_455
Ga18 O20 2.017413 1_555
Ga18 O33 2.017413 1_554
Ga18 O24 2.017413 1_555
Ga18 O0 2.017413 1_554
Ga18 O22 2.017413 1_555
Ga18 O36 2.017413 1_554
Ga19 O46 2.017413 1_555
Ga19 O32 2.017413 1_545
Ga19 O23 2.017413 1_554
Ga19 O10 2.017413 1_554
Ga19 O9 2.017413 1_544
Ga19 O45 2.017413 1_545
