# generated using pymatgen
data_Mg14CoNiO16
_symmetry_space_group_name_H-M   'P 1'
_cell_length_a   8.52219500
_cell_length_b   8.51743400
_cell_length_c   4.23618800
_cell_angle_alpha   90.00000000
_cell_angle_beta   90.00000000
_cell_angle_gamma   90.00000000
_symmetry_Int_Tables_number   1
_chemical_formula_structural   Mg14CoNiO16
_chemical_formula_sum   'Mg14 Co1 Ni1 O16'
_cell_volume   307.49316728
_cell_formula_units_Z   1
loop_
 _symmetry_equiv_pos_site_id
 _symmetry_equiv_pos_as_xyz
  1  'x, y, z'
loop_
 _atom_site_type_symbol
 _atom_site_label
 _atom_site_symmetry_multiplicity
 _atom_site_fract_x
 _atom_site_fract_y
 _atom_site_fract_z
 _atom_site_occupancy
  Mg  Mg0  1  0.50000000  0.00000000  0.00000000  1
  Mg  Mg1  1  0.50000000  0.50000000  0.00000000  1
  Mg  Mg2  1  0.00000000  0.25128800  0.50000000  1
  Mg  Mg3  1  0.00000000  0.74871200  0.50000000  1
  Mg  Mg4  1  0.50000000  0.25022600  0.50000000  1
  Mg  Mg5  1  0.50000000  0.74977400  0.50000000  1
  Mg  Mg6  1  0.25035800  0.00000000  0.50000000  1
  Mg  Mg7  1  0.24903800  0.50000000  0.50000000  1
  Mg  Mg8  1  0.74964200  0.00000000  0.50000000  1
  Mg  Mg9  1  0.75096200  0.50000000  0.50000000  1
  Mg  Mg10  1  0.24867800  0.24976900  0.00000000  1
  Mg  Mg11  1  0.24867800  0.75023100  0.00000000  1
  Mg  Mg12  1  0.75132200  0.24976900  0.00000000  1
  Mg  Mg13  1  0.75132200  0.75023100  0.00000000  1
  Co  Co0  1  0.00000000  0.00000000  0.00000000  1
  Ni  Ni0  1  0.00000000  0.50000000  0.00000000  1
  O  O0  1  0.25289500  0.00000000  0.00000000  1
  O  O1  1  0.25071900  0.50000000  0.00000000  1
  O  O2  1  0.74710500  0.00000000  0.00000000  1
  O  O3  1  0.74928100  0.50000000  0.00000000  1
  O  O4  1  0.24878800  0.24960300  0.50000000  1
  O  O5  1  0.24878800  0.75039700  0.50000000  1
  O  O6  1  0.75121200  0.24960300  0.50000000  1
  O  O7  1  0.75121200  0.75039700  0.50000000  1
  O  O8  1  0.00000000  0.00000000  0.50000000  1
  O  O9  1  0.00000000  0.50000000  0.50000000  1
  O  O10  1  0.50000000  0.00000000  0.50000000  1
  O  O11  1  0.50000000  0.50000000  0.50000000  1
  O  O12  1  0.00000000  0.25265500  0.00000000  1
  O  O13  1  0.00000000  0.74734500  0.00000000  1
  O  O14  1  0.50000000  0.25032900  0.00000000  1
  O  O15  1  0.50000000  0.74967100  0.00000000  1
loop_
_geom_bond_atom_site_label_1
_geom_bond_atom_site_label_2
_geom_bond_distance
_geom_bond_site_symmetry_2
Mg0 O0 2.105877 1_555
Mg0 O2 2.105877 1_555
Mg0 O10 2.118094 1_555
Mg0 O10 2.118094 1_554
Mg0 O14 2.132161 1_555
Mg0 O15 2.132161 1_545
Mg1 O11 2.118094 1_554
Mg1 O11 2.118094 1_555
Mg1 O3 2.124421 1_555
Mg1 O1 2.124421 1_555
Mg1 O15 2.126556 1_555
Mg1 O14 2.126556 1_555
Mg2 O12 2.118126 1_556
Mg2 O12 2.118126 1_555
Mg2 O9 2.118388 1_555
Mg2 O4 2.120268 1_555
Mg2 O6 2.120268 1_455
Mg2 O8 2.140329 1_555
Mg3 O13 2.118126 1_555
Mg3 O13 2.118126 1_556
Mg3 O9 2.118388 1_555
Mg3 O5 2.120268 1_555
Mg3 O7 2.120268 1_455
Mg3 O8 2.140329 1_565
Mg4 O14 2.118094 1_556
Mg4 O14 2.118094 1_555
Mg4 O11 2.127434 1_555
Mg4 O10 2.131283 1_555
Mg4 O6 2.140884 1_555
Mg4 O4 2.140884 1_555
Mg5 O15 2.118094 1_556
Mg5 O15 2.118094 1_555
Mg5 O11 2.127434 1_555
Mg5 O10 2.131283 1_565
Mg5 O7 2.140884 1_555
Mg5 O5 2.140884 1_555
Mg6 O0 2.118204 1_555
Mg6 O0 2.118204 1_556
Mg6 O4 2.126019 1_555
Mg6 O5 2.126019 1_545
Mg6 O10 2.127498 1_555
Mg6 O8 2.133600 1_555
Mg7 O1 2.118142 1_556
Mg7 O1 2.118142 1_555
Mg7 O9 2.122350 1_555
Mg7 O4 2.132741 1_555
Mg7 O5 2.132741 1_555
Mg7 O11 2.138747 1_555
Mg8 O2 2.118204 1_556
Mg8 O2 2.118204 1_555
Mg8 O6 2.126019 1_555
Mg8 O7 2.126019 1_545
Mg8 O10 2.127498 1_555
Mg8 O8 2.133600 1_655
Mg9 O3 2.118142 1_556
Mg9 O3 2.118142 1_555
Mg9 O9 2.122350 1_655
Mg9 O6 2.132741 1_555
Mg9 O7 2.132741 1_555
Mg9 O11 2.138747 1_555
Mg10 O4 2.118095 1_554
Mg10 O4 2.118095 1_555
Mg10 O12 2.119425 1_555
Mg10 O0 2.127695 1_555
Mg10 O1 2.131397 1_555
Mg10 O14 2.141820 1_555
Mg11 O5 2.118095 1_554
Mg11 O5 2.118095 1_555
Mg11 O13 2.119425 1_555
Mg11 O0 2.127695 1_565
Mg11 O1 2.131397 1_555
Mg11 O15 2.141820 1_555
Mg12 O6 2.118095 1_554
Mg12 O6 2.118095 1_555
Mg12 O12 2.119425 1_655
Mg12 O2 2.127695 1_555
Mg12 O3 2.131397 1_555
Mg12 O14 2.141820 1_555
Mg13 O7 2.118095 1_555
Mg13 O7 2.118095 1_554
Mg13 O13 2.119425 1_655
Mg13 O2 2.127695 1_565
Mg13 O3 2.131397 1_555
Mg13 O15 2.141820 1_555
Co0 O8 2.118094 1_555
Co0 O8 2.118094 1_554
Co0 O12 2.151972 1_555
Co0 O13 2.151972 1_545
Co0 O0 2.155221 1_555
Co0 O2 2.155221 1_455
Ni0 O13 2.106745 1_555
Ni0 O12 2.106745 1_555
Ni0 O9 2.118094 1_555
Ni0 O9 2.118094 1_554
Ni0 O1 2.136676 1_555
Ni0 O3 2.136676 1_455
