# generated using pymatgen
data_BaNd(SnS3)2
_symmetry_space_group_name_H-M   'P 1'
_cell_length_a   4.04884500
_cell_length_b   12.08185600
_cell_length_c   20.24638900
_cell_angle_alpha   90.00000000
_cell_angle_beta   90.00000000
_cell_angle_gamma   90.00000000
_symmetry_Int_Tables_number   1
_chemical_formula_structural   BaNd(SnS3)2
_chemical_formula_sum   'Ba4 Nd4 Sn8 S24'
_cell_volume   990.40399437
_cell_formula_units_Z   4
loop_
 _symmetry_equiv_pos_site_id
 _symmetry_equiv_pos_as_xyz
  1  'x, y, z'
loop_
 _atom_site_type_symbol
 _atom_site_label
 _atom_site_symmetry_multiplicity
 _atom_site_fract_x
 _atom_site_fract_y
 _atom_site_fract_z
 _atom_site_occupancy
  Ba  Ba0  1  0.50000000  0.31821600  0.07849300  1
  Ba  Ba1  1  0.50000000  0.81821600  0.92150700  1
  Ba  Ba2  1  0.50000000  0.75311400  0.36187600  1
  Ba  Ba3  1  0.50000000  0.25311400  0.63812400  1
  Nd  Nd0  1  0.50000000  0.68374100  0.12022400  1
  Nd  Nd1  1  0.50000000  0.18374100  0.87977600  1
  Nd  Nd2  1  0.50000000  0.87432500  0.58106800  1
  Nd  Nd3  1  0.50000000  0.37432500  0.41893200  1
  Sn  Sn0  1  0.50000000  0.10209700  0.25484800  1
  Sn  Sn1  1  0.50000000  0.60209700  0.74515200  1
  Sn  Sn2  1  0.00000000  0.99397500  0.09296000  1
  Sn  Sn3  1  0.00000000  0.49397500  0.90704000  1
  Sn  Sn4  1  0.00000000  0.50071300  0.24808200  1
  Sn  Sn5  1  0.00000000  0.00071300  0.75191800  1
  Sn  Sn6  1  0.00000000  0.54809100  0.57550700  1
  Sn  Sn7  1  0.00000000  0.04809100  0.42449300  1
  S  S0  1  0.50000000  0.06016000  0.01639900  1
  S  S1  1  0.50000000  0.56016000  0.98360100  1
  S  S2  1  0.50000000  0.92094400  0.16710800  1
  S  S3  1  0.50000000  0.42094400  0.83289200  1
  S  S4  1  0.50000000  0.59614700  0.50704700  1
  S  S5  1  0.50000000  0.09614700  0.49295300  1
  S  S6  1  0.50000000  0.87862900  0.74160800  1
  S  S7  1  0.50000000  0.37862900  0.25839200  1
  S  S8  1  0.00000000  0.79657700  0.04332100  1
  S  S9  1  0.00000000  0.29657700  0.95667900  1
  S  S10  1  0.00000000  0.50605900  0.12099900  1
  S  S11  1  0.00000000  0.00605900  0.87900100  1
  S  S12  1  0.00000000  0.16900000  0.16176700  1
  S  S13  1  0.00000000  0.66900000  0.83823300  1
  S  S14  1  0.00000000  0.70353200  0.23042400  1
  S  S15  1  0.00000000  0.20353200  0.76957600  1
  S  S16  1  0.00000000  0.95220100  0.31763900  1
  S  S17  1  0.00000000  0.45220100  0.68236100  1
  S  S18  1  0.00000000  0.53544300  0.37212200  1
  S  S19  1  0.00000000  0.03544300  0.62787800  1
  S  S20  1  0.00000000  0.85245500  0.47709400  1
  S  S21  1  0.00000000  0.35245500  0.52290600  1
  S  S22  1  0.00000000  0.73071000  0.63713600  1
  S  S23  1  0.00000000  0.23071000  0.36286400  1
loop_
_geom_bond_atom_site_label_1
_geom_bond_atom_site_label_2
_geom_bond_distance
_geom_bond_site_symmetry_2
Ba0 S10 3.160617 1_655
Ba0 S10 3.160617 1_555
Ba0 S12 3.192332 1_555
Ba0 S12 3.192332 1_655
Ba0 S9 3.201444 1_654
Ba0 S9 3.201444 1_554
Ba0 S0 3.361718 1_555
Ba0 S1 3.497970 1_554
Ba0 S7 3.714720 1_555
Ba1 S11 3.160617 1_565
Ba1 S11 3.160617 1_665
Ba1 S13 3.192332 1_655
Ba1 S13 3.192332 1_555
Ba1 S8 3.201444 1_656
Ba1 S8 3.201444 1_556
Ba1 S1 3.361718 1_555
Ba1 S0 3.497970 1_566
Ba1 S6 3.714720 1_555
Ba2 S16 3.268963 1_555
Ba2 S16 3.268963 1_655
Ba2 S20 3.313690 1_555
Ba2 S20 3.313690 1_655
Ba2 S18 3.325287 1_555
Ba2 S18 3.325287 1_655
Ba2 S14 3.397107 1_655
Ba2 S14 3.397107 1_555
Ba2 S4 3.497908 1_555
Ba3 S17 3.268963 1_555
Ba3 S17 3.268963 1_655
Ba3 S21 3.313690 1_555
Ba3 S21 3.313690 1_655
Ba3 S19 3.325287 1_555
Ba3 S19 3.325287 1_655
Ba3 S15 3.397107 1_655
Ba3 S15 3.397107 1_555
Ba3 S5 3.497908 1_555
Nd0 S8 2.895006 1_655
Nd0 S8 2.895006 1_555
Nd0 S10 2.950758 1_555
Nd0 S10 2.950758 1_655
Nd0 S2 3.018965 1_555
Nd0 S14 3.022168 1_555
Nd0 S14 3.022168 1_655
Nd0 S1 3.143365 1_554
Nd1 S9 2.895006 1_555
Nd1 S9 2.895006 1_655
Nd1 S11 2.950758 1_555
Nd1 S11 2.950758 1_655
Nd1 S3 3.018965 1_555
Nd1 S15 3.022168 1_655
Nd1 S15 3.022168 1_555
Nd1 S0 3.143365 1_556
Nd2 S22 2.897862 1_655
Nd2 S22 2.897862 1_555
Nd2 S20 2.932498 1_555
Nd2 S20 2.932498 1_655
Nd2 S19 2.964077 1_565
Nd2 S19 2.964077 1_665
Nd2 S5 3.219504 1_565
Nd2 S6 3.250771 1_555
Nd2 S4 3.679901 1_555
Nd3 S23 2.897862 1_655
Nd3 S23 2.897862 1_555
Nd3 S21 2.932498 1_555
Nd3 S21 2.932498 1_655
Nd3 S18 2.964077 1_555
Nd3 S18 2.964077 1_655
Nd3 S4 3.219504 1_555
Nd3 S7 3.250771 1_555
Nd3 S5 3.679901 1_555
S0 Sn2 2.672165 1_645
S0 Sn2 2.672165 1_545
S1 Sn3 2.672165 1_655
S1 Sn3 2.672165 1_555
S2 Sn2 2.670303 1_655
S2 Sn2 2.670303 1_555
S2 Sn0 2.818850 1_565
S3 Sn3 2.670303 1_655
S3 Sn3 2.670303 1_555
S3 Sn1 2.818850 1_555
S4 Sn6 2.521225 1_555
S4 Sn6 2.521225 1_655
S5 Sn7 2.521225 1_555
S5 Sn7 2.521225 1_655
S6 Sn5 2.513461 1_665
S6 Sn5 2.513461 1_565
S7 Sn4 2.513461 1_655
S7 Sn4 2.513461 1_555
S8 Sn2 2.588041 1_555
S9 Sn3 2.588041 1_555
S10 Sn4 2.573782 1_555
S11 Sn5 2.573782 1_555
S12 Sn2 2.532263 1_545
S12 Sn0 2.881527 1_455
S12 Sn0 2.881527 1_555
S13 Sn3 2.532263 1_555
S13 Sn1 2.881527 1_455
S13 Sn1 2.881527 1_555
S14 Sn4 2.476373 1_555
S15 Sn5 2.476373 1_555
S16 Sn7 2.454083 1_565
S16 Sn0 2.999044 1_565
S16 Sn0 2.999044 1_465
S17 Sn6 2.454083 1_555
S17 Sn1 2.999044 1_555
S17 Sn1 2.999044 1_455
S18 Sn4 2.546175 1_555
S19 Sn5 2.546175 1_555
S20 Sn7 2.592490 1_565
S21 Sn6 2.592490 1_555
S22 Sn6 2.534761 1_555
S23 Sn7 2.534761 1_555
