# generated using pymatgen
data_HoNiAs
_symmetry_space_group_name_H-M   'P 1'
_cell_length_a   4.02352133
_cell_length_b   4.02352133
_cell_length_c   15.21169990
_cell_angle_alpha   90.00000000
_cell_angle_beta   90.00000000
_cell_angle_gamma   119.99999229
_symmetry_Int_Tables_number   1
_chemical_formula_structural   HoNiAs
_chemical_formula_sum   'Ho4 Ni4 As4'
_cell_volume   213.26570890
_cell_formula_units_Z   4
loop_
 _symmetry_equiv_pos_site_id
 _symmetry_equiv_pos_as_xyz
  1  'x, y, z'
loop_
 _atom_site_type_symbol
 _atom_site_label
 _atom_site_symmetry_multiplicity
 _atom_site_fract_x
 _atom_site_fract_y
 _atom_site_fract_z
 _atom_site_occupancy
  Ho  Ho0  1  0.00000000  0.00000000  0.25000000  1
  Ho  Ho1  1  0.00000000  0.00000000  0.75000000  1
  Ho  Ho2  1  0.00000000  0.00000000  0.00000000  1
  Ho  Ho3  1  0.00000000  0.00000000  0.50000000  1
  Ni  Ni0  1  0.33333300  0.66666700  0.13431881  1
  Ni  Ni1  1  0.66666700  0.33333300  0.86568119  1
  Ni  Ni2  1  0.66666700  0.33333300  0.63431881  1
  Ni  Ni3  1  0.33333300  0.66666700  0.36568119  1
  As  As0  1  0.33333300  0.66666700  0.62048972  1
  As  As1  1  0.66666700  0.33333300  0.37951028  1
  As  As2  1  0.66666700  0.33333300  0.12048972  1
  As  As3  1  0.33333300  0.66666700  0.87951028  1
loop_
_geom_bond_atom_site_label_1
_geom_bond_atom_site_label_2
_geom_bond_distance
_geom_bond_site_symmetry_2
Ho0 Ni3 2.914241 1_545
Ho0 Ni0 2.914241 1_545
Ho0 Ni0 2.914244 1_555
Ho0 Ni3 2.914244 1_555
Ho0 Ni3 2.914244 1_445
Ho0 Ni0 2.914244 1_445
Ho1 Ni1 2.914241 1_455
Ho1 Ni2 2.914241 1_455
Ho1 Ni1 2.914244 1_445
Ho1 Ni1 2.914244 1_555
Ho1 Ni2 2.914244 1_445
Ho1 Ni2 2.914244 1_555
Ho2 Ni0 3.093698 1_545
Ho2 Ni1 3.093698 1_454
Ho2 Ni1 3.093701 1_444
Ho2 Ni0 3.093701 1_445
Ho2 Ni1 3.093701 1_554
Ho2 Ni0 3.093701 1_555
Ho3 Ni3 3.093698 1_545
Ho3 Ni2 3.093698 1_455
Ho3 Ni3 3.093701 1_445
Ho3 Ni2 3.093701 1_445
Ho3 Ni2 3.093701 1_555
Ho3 Ni3 3.093701 1_555
As0 Ni2 2.332485 1_455
As0 Ni2 2.332485 1_565
As0 Ni2 2.332491 1_555
As0 Ho3 2.958983 1_565
As0 Ho3 2.958986 1_665
As0 Ho3 2.958986 1_555
As0 Ho1 3.045884 1_565
As0 Ho1 3.045887 1_665
As0 Ho1 3.045887 1_555
As1 Ni3 2.332485 1_545
As1 Ni3 2.332485 1_655
As1 Ni3 2.332491 1_555
As1 Ho3 2.958983 1_655
As1 Ho3 2.958986 1_665
As1 Ho3 2.958986 1_555
As1 Ho0 3.045884 1_655
As1 Ho0 3.045887 1_665
As1 Ho0 3.045887 1_555
As2 Ni0 2.332485 1_545
As2 Ni0 2.332485 1_655
As2 Ni0 2.332491 1_555
As2 Ho2 2.958983 1_655
As2 Ho2 2.958986 1_555
As2 Ho2 2.958986 1_665
As2 Ho0 3.045884 1_655
As2 Ho0 3.045887 1_665
As2 Ho0 3.045887 1_555
As3 Ni1 2.332485 1_455
As3 Ni1 2.332485 1_565
As3 Ni1 2.332491 1_555
As3 Ho2 2.958983 1_566
As3 Ho2 2.958986 1_556
As3 Ho2 2.958986 1_666
As3 Ho1 3.045884 1_565
As3 Ho1 3.045887 1_665
As3 Ho1 3.045887 1_555
