# generated using pymatgen
data_CdHC2(NO)4
_symmetry_space_group_name_H-M   'P 1'
_cell_length_a   9.06523600
_cell_length_b   10.12700500
_cell_length_c   15.98598900
_cell_angle_alpha   90.00000000
_cell_angle_beta   90.00000000
_cell_angle_gamma   90.00000000
_symmetry_Int_Tables_number   1
_chemical_formula_structural   CdHC2(NO)4
_chemical_formula_sum   'Cd4 H4 C8 N16 O16'
_cell_volume   1467.57278327
_cell_formula_units_Z   4
loop_
 _symmetry_equiv_pos_site_id
 _symmetry_equiv_pos_as_xyz
  1  'x, y, z'
loop_
 _atom_site_type_symbol
 _atom_site_label
 _atom_site_symmetry_multiplicity
 _atom_site_fract_x
 _atom_site_fract_y
 _atom_site_fract_z
 _atom_site_occupancy
  Cd  Cd0  1  0.00000000  0.75000000  0.72053700  1
  Cd  Cd1  1  0.00000000  0.25000000  0.27946300  1
  Cd  Cd2  1  0.50000000  0.25000000  0.77946300  1
  Cd  Cd3  1  0.50000000  0.75000000  0.22053700  1
  H  H0  1  0.00000000  0.75000000  0.37373800  1
  H  H1  1  0.00000000  0.25000000  0.62626200  1
  H  H2  1  0.50000000  0.25000000  0.12626200  1
  H  H3  1  0.50000000  0.75000000  0.87373800  1
  C  C0  1  0.14088500  0.49727000  0.16927900  1
  C  C1  1  0.85911500  0.50273000  0.83072100  1
  C  C2  1  0.35911500  0.99727000  0.33072100  1
  C  C3  1  0.85911500  0.00273000  0.16927900  1
  C  C4  1  0.64088500  0.00273000  0.66927900  1
  C  C5  1  0.14088500  0.99727000  0.83072100  1
  C  C6  1  0.64088500  0.50273000  0.33072100  1
  C  C7  1  0.35911500  0.49727000  0.66927900  1
  N  N0  1  0.30799200  0.81962300  0.04345600  1
  N  N1  1  0.69200800  0.18037700  0.95654400  1
  N  N2  1  0.19200800  0.31962300  0.45654400  1
  N  N3  1  0.69200800  0.68037700  0.04345600  1
  N  N4  1  0.80799200  0.68037700  0.54345600  1
  N  N5  1  0.30799200  0.31962300  0.95654400  1
  N  N6  1  0.80799200  0.18037700  0.45654400  1
  N  N7  1  0.19200800  0.81962300  0.54345600  1
  N  N8  1  0.21184800  0.75184000  0.03632200  1
  N  N9  1  0.78815200  0.24816000  0.96367800  1
  N  N10  1  0.28815200  0.25184000  0.46367800  1
  N  N11  1  0.78815200  0.74816000  0.03632200  1
  N  N12  1  0.71184800  0.74816000  0.53632200  1
  N  N13  1  0.21184800  0.25184000  0.96367800  1
  N  N14  1  0.71184800  0.24816000  0.46367800  1
  N  N15  1  0.28815200  0.75184000  0.53632200  1
  O  O0  1  0.20463500  0.53802200  0.22827700  1
  O  O1  1  0.79536500  0.46197800  0.77172300  1
  O  O2  1  0.29536500  0.03802200  0.27172300  1
  O  O3  1  0.79536500  0.96197800  0.22827700  1
  O  O4  1  0.70463500  0.96197800  0.72827700  1
  O  O5  1  0.20463500  0.03802200  0.77172300  1
  O  O6  1  0.70463500  0.46197800  0.27172300  1
  O  O7  1  0.29536500  0.53802200  0.72827700  1
  O  O8  1  0.57937100  0.53946700  0.39115000  1
  O  O9  1  0.42062900  0.46053300  0.60885000  1
  O  O10  1  0.92062900  0.03946700  0.10885000  1
  O  O11  1  0.42062900  0.96053300  0.39115000  1
  O  O12  1  0.07937100  0.96053300  0.89115000  1
  O  O13  1  0.57937100  0.03946700  0.60885000  1
  O  O14  1  0.07937100  0.46053300  0.10885000  1
  O  O15  1  0.92062900  0.53946700  0.89115000  1
loop_
_geom_bond_atom_site_label_1
_geom_bond_atom_site_label_2
_geom_bond_distance
_geom_bond_site_symmetry_2
C0 O14 1.175824 1_555
C0 O0 1.180598 1_555
C1 O15 1.175824 1_555
C1 O1 1.180598 1_555
C2 O11 1.175824 1_555
C2 O2 1.180598 1_565
C3 O10 1.175824 1_555
C3 O3 1.180598 1_545
C4 O13 1.175824 1_555
C4 O4 1.180598 1_545
C5 O12 1.175824 1_555
C5 O5 1.180598 1_565
C6 O8 1.175824 1_555
C6 O6 1.180598 1_555
C7 O9 1.175824 1_555
C7 O7 1.180598 1_555
N0 N8 1.115274 1_555
N1 N9 1.115274 1_555
N10 N2 1.115274 1_555
N11 N3 1.115274 1_555
N12 N4 1.115274 1_555
N13 N5 1.115274 1_555
N14 N6 1.115274 1_555
N15 N7 1.115274 1_555
