# generated using pymatgen
data_Tb11Cd45
_symmetry_space_group_name_H-M   'P 1'
_cell_length_a   15.42686662
_cell_length_b   15.42686662
_cell_length_c   15.42686662
_cell_angle_alpha   60.00000000
_cell_angle_beta   60.00000000
_cell_angle_gamma   60.00000000
_symmetry_Int_Tables_number   1
_chemical_formula_structural   Tb11Cd45
_chemical_formula_sum   'Tb22 Cd90'
_cell_volume   2596.08062621
_cell_formula_units_Z   2
loop_
 _symmetry_equiv_pos_site_id
 _symmetry_equiv_pos_as_xyz
  1  'x, y, z'
loop_
 _atom_site_type_symbol
 _atom_site_label
 _atom_site_symmetry_multiplicity
 _atom_site_fract_x
 _atom_site_fract_y
 _atom_site_fract_z
 _atom_site_occupancy
  Tb  Tb0  1  0.00000000  0.00000000  0.00000000  1
  Tb  Tb1  1  0.01363700  0.33346100  0.63926600  1
  Tb  Tb2  1  0.01363700  0.01363700  0.63926600  1
  Tb  Tb3  1  0.33346100  0.01363700  0.63926600  1
  Tb  Tb4  1  0.01363700  0.63926600  0.33346100  1
  Tb  Tb5  1  0.33346100  0.63926600  0.01363700  1
  Tb  Tb6  1  0.01363700  0.63926600  0.01363700  1
  Tb  Tb7  1  0.63926600  0.01363700  0.01363700  1
  Tb  Tb8  1  0.63926600  0.33346100  0.01363700  1
  Tb  Tb9  1  0.63926600  0.01363700  0.33346100  1
  Tb  Tb10  1  0.33346100  0.01363700  0.01363700  1
  Tb  Tb11  1  0.01363700  0.01363700  0.33346100  1
  Tb  Tb12  1  0.01363700  0.33346100  0.01363700  1
  Tb  Tb13  1  0.25000000  0.25000000  0.25000000  1
  Tb  Tb14  1  0.40638400  0.40638400  0.78084800  1
  Tb  Tb15  1  0.40638400  0.78084800  0.40638400  1
  Tb  Tb16  1  0.78084800  0.40638400  0.40638400  1
  Tb  Tb17  1  0.40638400  0.40638400  0.40638400  1
  Tb  Tb18  1  0.66219500  0.66219500  0.01341500  1
  Tb  Tb19  1  0.66219500  0.01341500  0.66219500  1
  Tb  Tb20  1  0.01341500  0.66219500  0.66219500  1
  Tb  Tb21  1  0.66219500  0.66219500  0.66219500  1
  Cd  Cd0  1  0.08334700  0.08334700  0.74996000  1
  Cd  Cd1  1  0.08334700  0.74996000  0.08334700  1
  Cd  Cd2  1  0.74996000  0.08334700  0.08334700  1
  Cd  Cd3  1  0.08334700  0.08334700  0.08334700  1
  Cd  Cd4  1  0.91331600  0.91331600  0.26005300  1
  Cd  Cd5  1  0.91331600  0.26005300  0.91331600  1
  Cd  Cd6  1  0.26005300  0.91331600  0.91331600  1
  Cd  Cd7  1  0.91331600  0.91331600  0.91331600  1
  Cd  Cd8  1  0.15633800  0.15633800  0.84366200  1
  Cd  Cd9  1  0.84366200  0.15633800  0.84366200  1
  Cd  Cd10  1  0.15633800  0.84366200  0.84366200  1
  Cd  Cd11  1  0.84366200  0.84366200  0.15633800  1
  Cd  Cd12  1  0.15633800  0.84366200  0.15633800  1
  Cd  Cd13  1  0.84366200  0.15633800  0.15633800  1
  Cd  Cd14  1  0.39074000  0.20077400  0.01774600  1
  Cd  Cd15  1  0.39074000  0.39074000  0.01774600  1
  Cd  Cd16  1  0.20077400  0.39074000  0.01774600  1
  Cd  Cd17  1  0.39074000  0.01774600  0.20077400  1
  Cd  Cd18  1  0.20077400  0.01774600  0.39074000  1
  Cd  Cd19  1  0.39074000  0.01774600  0.39074000  1
  Cd  Cd20  1  0.01774600  0.39074000  0.39074000  1
  Cd  Cd21  1  0.01774600  0.20077400  0.39074000  1
  Cd  Cd22  1  0.01774600  0.39074000  0.20077400  1
  Cd  Cd23  1  0.20077400  0.39074000  0.39074000  1
  Cd  Cd24  1  0.39074000  0.39074000  0.20077400  1
  Cd  Cd25  1  0.39074000  0.20077400  0.39074000  1
  Cd  Cd26  1  0.16334000  0.16334000  0.50998100  1
  Cd  Cd27  1  0.16334000  0.50998100  0.16334000  1
  Cd  Cd28  1  0.50998100  0.16334000  0.16334000  1
  Cd  Cd29  1  0.16334000  0.16334000  0.16334000  1
  Cd  Cd30  1  0.26322300  0.61160200  0.86195300  1
  Cd  Cd31  1  0.26322300  0.26322300  0.86195300  1
  Cd  Cd32  1  0.61160200  0.26322300  0.86195300  1
  Cd  Cd33  1  0.26322300  0.86195300  0.61160200  1
  Cd  Cd34  1  0.61160200  0.86195300  0.26322300  1
  Cd  Cd35  1  0.26322300  0.86195300  0.26322300  1
  Cd  Cd36  1  0.86195300  0.26322300  0.26322300  1
  Cd  Cd37  1  0.86195300  0.61160200  0.26322300  1
  Cd  Cd38  1  0.86195300  0.26322300  0.61160200  1
  Cd  Cd39  1  0.61160200  0.26322300  0.26322300  1
  Cd  Cd40  1  0.26322300  0.26322300  0.61160200  1
  Cd  Cd41  1  0.26322300  0.61160200  0.26322300  1
  Cd  Cd42  1  0.50000000  0.50000000  0.50000000  1
  Cd  Cd43  1  0.64059300  0.45007500  0.26873900  1
  Cd  Cd44  1  0.64059300  0.64059300  0.26873900  1
  Cd  Cd45  1  0.45007500  0.64059300  0.26873900  1
  Cd  Cd46  1  0.64059300  0.26873900  0.45007500  1
  Cd  Cd47  1  0.45007500  0.26873900  0.64059300  1
  Cd  Cd48  1  0.64059300  0.26873900  0.64059300  1
  Cd  Cd49  1  0.26873900  0.64059300  0.64059300  1
  Cd  Cd50  1  0.26873900  0.45007500  0.64059300  1
  Cd  Cd51  1  0.26873900  0.64059300  0.45007500  1
  Cd  Cd52  1  0.45007500  0.64059300  0.64059300  1
  Cd  Cd53  1  0.64059300  0.64059300  0.45007500  1
  Cd  Cd54  1  0.64059300  0.45007500  0.64059300  1
  Cd  Cd55  1  0.51249100  0.83361100  0.14140600  1
  Cd  Cd56  1  0.51249100  0.51249100  0.14140600  1
  Cd  Cd57  1  0.83361100  0.51249100  0.14140600  1
  Cd  Cd58  1  0.51249100  0.14140600  0.83361100  1
  Cd  Cd59  1  0.83361100  0.14140600  0.51249100  1
  Cd  Cd60  1  0.51249100  0.14140600  0.51249100  1
  Cd  Cd61  1  0.14140600  0.51249100  0.51249100  1
  Cd  Cd62  1  0.14140600  0.83361100  0.51249100  1
  Cd  Cd63  1  0.14140600  0.51249100  0.83361100  1
  Cd  Cd64  1  0.83361100  0.51249100  0.51249100  1
  Cd  Cd65  1  0.51249100  0.51249100  0.83361100  1
  Cd  Cd66  1  0.51249100  0.83361100  0.51249100  1
  Cd  Cd67  1  0.75000000  0.75000000  0.75000000  1
  Cd  Cd68  1  0.83005100  0.83005100  0.50984700  1
  Cd  Cd69  1  0.83005100  0.50984700  0.83005100  1
  Cd  Cd70  1  0.50984700  0.83005100  0.83005100  1
  Cd  Cd71  1  0.83005100  0.83005100  0.83005100  1
  Cd  Cd72  1  0.91159000  0.91159000  0.58841000  1
  Cd  Cd73  1  0.58841000  0.91159000  0.58841000  1
  Cd  Cd74  1  0.91159000  0.58841000  0.58841000  1
  Cd  Cd75  1  0.58841000  0.58841000  0.91159000  1
  Cd  Cd76  1  0.91159000  0.58841000  0.91159000  1
  Cd  Cd77  1  0.58841000  0.91159000  0.91159000  1
  Cd  Cd78  1  0.76396000  0.06763600  0.40444400  1
  Cd  Cd79  1  0.76396000  0.76396000  0.40444400  1
  Cd  Cd80  1  0.06763600  0.76396000  0.40444400  1
  Cd  Cd81  1  0.76396000  0.40444400  0.06763600  1
  Cd  Cd82  1  0.06763600  0.40444400  0.76396000  1
  Cd  Cd83  1  0.76396000  0.40444400  0.76396000  1
  Cd  Cd84  1  0.40444400  0.76396000  0.76396000  1
  Cd  Cd85  1  0.40444400  0.06763600  0.76396000  1
  Cd  Cd86  1  0.40444400  0.76396000  0.06763600  1
  Cd  Cd87  1  0.06763600  0.76396000  0.76396000  1
  Cd  Cd88  1  0.76396000  0.76396000  0.06763600  1
  Cd  Cd89  1  0.76396000  0.06763600  0.76396000  1
loop_
_geom_bond_atom_site_label_1
_geom_bond_atom_site_label_2
_geom_bond_distance
_geom_bond_site_symmetry_2
Cd0 Cd26 3.022772 1_555
Cd0 Cd8 3.024686 1_555
Cd0 Cd10 3.024698 1_545
Cd0 Cd9 3.024698 1_455
Cd0 Tb0 3.149500 1_556
Cd0 Tb2 3.171509 1_555
Cd0 Tb3 3.171509 1_555
Cd0 Tb1 3.171509 1_555
Cd1 Cd27 3.022772 1_555
Cd1 Cd12 3.024686 1_555
Cd1 Cd11 3.024698 1_455
Cd1 Cd10 3.024698 1_554
Cd1 Tb0 3.149500 1_565
Cd1 Tb6 3.171509 1_555
Cd1 Tb5 3.171509 1_555
Cd1 Tb4 3.171509 1_555
Cd2 Cd28 3.022772 1_555
Cd2 Cd9 3.024698 1_554
Cd2 Tb0 3.149500 1_655
Cd2 Tb8 3.171509 1_555
Cd2 Tb7 3.171509 1_555
Cd2 Tb9 3.171509 1_555
Cd3 Cd8 3.024699 1_554
Cd3 Tb0 3.149512 1_555
Cd3 Tb11 3.171509 1_555
Cd3 Tb12 3.171509 1_555
Cd3 Tb10 3.171509 1_555
Cd4 Cd68 3.146401 1_555
Cd4 Cd80 3.259372 1_655
Cd4 Cd78 3.259372 1_565
Cd4 Cd79 3.259383 1_555
Cd4 Tb0 3.275623 1_665
Cd4 Tb11 3.460242 1_665
Cd4 Tb9 3.460242 1_565
Cd4 Tb4 3.460242 1_655
Cd5 Cd8 3.076098 1_655
Cd5 Cd9 3.076110 1_555
Cd5 Cd69 3.146401 1_555
Cd5 Cd82 3.259372 1_655
Cd5 Cd81 3.259372 1_556
Cd5 Cd83 3.259383 1_555
Cd5 Tb0 3.275623 1_656
Cd5 Tb12 3.460242 1_656
Cd5 Tb8 3.460242 1_556
Cd5 Tb1 3.460242 1_655
Cd6 Cd8 3.076098 1_565
Cd6 Cd70 3.146401 1_555
Cd6 Cd86 3.259372 1_556
Cd6 Cd85 3.259372 1_565
Cd6 Cd84 3.259383 1_555
Cd6 Tb0 3.275623 1_566
Cd6 Tb10 3.460242 1_566
Cd6 Tb5 3.460242 1_556
Cd6 Tb3 3.460242 1_565
Cd7 Cd9 3.076096 1_565
Cd7 Cd71 3.146414 1_555
Cd7 Cd89 3.259382 1_565
Cd7 Cd88 3.259382 1_556
Cd7 Cd87 3.259382 1_655
Cd7 Tb0 3.275611 1_666
Cd7 Tb7 3.460242 1_566
Cd7 Tb6 3.460242 1_656
Cd7 Tb2 3.460242 1_665
Cd8 Cd85 3.126167 1_555
Cd8 Cd82 3.126167 1_555
Cd8 Tb0 3.410808 1_556
Cd8 Tb1 3.816474 1_555
Cd8 Tb3 3.816474 1_555
Cd8 Tb10 3.816486 1_556
Cd8 Tb12 3.816486 1_556
Cd9 Tb0 3.410808 1_656
Cd9 Tb2 3.816474 1_655
Cd9 Tb7 3.816474 1_556
Cd9 Tb8 3.816484 1_556
Cd9 Tb1 3.816484 1_655
Cd10 Cd33 3.027658 1_555
Cd10 Cd30 3.027658 1_555
Cd10 Cd7 3.076096 1_455
Cd10 Cd6 3.076110 1_555
Cd10 Cd84 3.126167 1_555
Cd10 Cd87 3.126167 1_555
Cd10 Tb0 3.410808 1_566
Cd10 Tb6 3.816474 1_556
Cd10 Tb2 3.816474 1_565
Cd10 Tb5 3.816484 1_556
Cd10 Tb3 3.816484 1_565
Cd11 Cd2 3.024698 1_565
Cd11 Cd37 3.027658 1_555
Cd11 Cd34 3.027658 1_555
Cd11 Cd7 3.076096 1_554
Cd11 Cd4 3.076110 1_555
Cd11 Cd79 3.126167 1_555
Cd11 Cd88 3.126167 1_555
Cd11 Tb0 3.410808 1_665
Cd11 Tb7 3.816474 1_565
Cd11 Tb6 3.816474 1_655
Cd11 Tb9 3.816484 1_565
Cd11 Tb4 3.816484 1_655
Cd12 Cd3 3.024699 1_565
Cd12 Cd41 3.027661 1_555
Cd12 Cd35 3.027671 1_555
Cd12 Cd6 3.076098 1_554
Cd12 Cd4 3.076098 1_455
Cd12 Cd80 3.126167 1_555
Cd12 Cd86 3.126167 1_555
Cd12 Tb0 3.410808 1_565
Cd12 Tb5 3.816474 1_555
Cd12 Tb4 3.816474 1_555
Cd12 Tb10 3.816486 1_565
Cd12 Tb11 3.816486 1_565
Cd13 Cd2 3.024686 1_555
Cd13 Cd3 3.024699 1_655
Cd13 Cd39 3.027661 1_555
Cd13 Cd36 3.027671 1_555
Cd13 Cd4 3.076098 1_545
Cd13 Cd5 3.076098 1_554
Cd13 Cd78 3.126167 1_555
Cd13 Cd81 3.126167 1_555
Cd13 Tb0 3.410808 1_655
Cd13 Tb8 3.816474 1_555
Cd13 Tb9 3.816474 1_555
Cd13 Tb11 3.816486 1_655
Cd13 Tb12 3.816486 1_655
Cd14 Cd17 2.823549 1_555
Cd14 Cd58 2.825205 1_554
Cd14 Cd15 2.930580 1_555
Cd14 Cd16 2.930580 1_555
Cd14 Cd29 3.245658 1_555
Cd14 Cd28 3.245670 1_555
Cd14 Cd31 3.330408 1_554
Cd14 Cd32 3.330421 1_554
Cd14 Tb13 3.379516 1_555
Cd14 Tb14 3.430278 1_554
Cd14 Tb10 3.450978 1_555
Cd14 Tb7 3.450989 1_555
Cd15 Cd24 2.823549 1_555
Cd15 Cd65 2.825197 1_554
Cd15 Cd16 2.930580 1_555
Cd15 Cd27 3.245663 1_555
Cd15 Cd28 3.245663 1_555
Cd15 Cd32 3.330414 1_554
Cd15 Cd30 3.330414 1_554
Cd15 Tb13 3.379516 1_555
Cd15 Tb14 3.430278 1_554
Cd15 Tb8 3.450993 1_555
Cd15 Tb5 3.450993 1_555
Cd16 Cd22 2.823549 1_555
Cd16 Cd63 2.825205 1_554
Cd16 Cd29 3.245658 1_555
Cd16 Cd27 3.245670 1_555
Cd16 Cd31 3.330408 1_554
Cd16 Cd30 3.330421 1_554
Cd16 Tb13 3.379516 1_555
Cd16 Tb14 3.430278 1_554
Cd16 Tb12 3.450978 1_555
Cd16 Tb6 3.450989 1_555
Cd17 Cd55 2.825205 1_545
Cd17 Cd18 2.930580 1_555
Cd17 Cd19 2.930580 1_555
Cd17 Cd29 3.245658 1_555
Cd17 Cd28 3.245670 1_555
Cd17 Cd35 3.330408 1_545
Cd17 Cd34 3.330421 1_545
Cd17 Tb13 3.379516 1_555
Cd17 Tb15 3.430278 1_545
Cd17 Tb10 3.450978 1_555
Cd17 Tb7 3.450989 1_555
Cd18 Cd21 2.823549 1_555
Cd18 Cd62 2.825205 1_545
Cd18 Cd19 2.930580 1_555
Cd18 Cd29 3.245658 1_555
Cd18 Cd26 3.245670 1_555
Cd18 Cd35 3.330408 1_545
Cd18 Cd33 3.330421 1_545
Cd18 Tb13 3.379516 1_555
Cd18 Tb15 3.430278 1_545
Cd18 Tb11 3.450978 1_555
Cd18 Tb2 3.450989 1_555
Cd19 Cd25 2.823549 1_555
Cd19 Cd66 2.825197 1_545
Cd19 Cd28 3.245663 1_555
Cd19 Cd26 3.245663 1_555
Cd19 Cd34 3.330414 1_545
Cd19 Cd33 3.330414 1_545
Cd19 Tb13 3.379516 1_555
Cd19 Tb15 3.430278 1_545
Cd19 Tb3 3.450993 1_555
Cd19 Tb9 3.450993 1_555
Cd20 Cd23 2.823549 1_555
Cd20 Cd64 2.825197 1_455
Cd20 Cd21 2.930580 1_555
Cd20 Cd22 2.930580 1_555
Cd20 Cd27 3.245663 1_555
Cd20 Cd26 3.245663 1_555
Cd20 Cd38 3.330414 1_455
Cd20 Cd37 3.330414 1_455
Cd20 Tb13 3.379516 1_555
Cd20 Tb16 3.430278 1_455
Cd20 Tb1 3.450993 1_555
Cd20 Tb4 3.450993 1_555
Cd21 Cd59 2.825205 1_455
Cd21 Cd22 2.930580 1_555
Cd21 Cd29 3.245658 1_555
Cd21 Cd26 3.245670 1_555
Cd21 Cd36 3.330408 1_455
Cd21 Cd38 3.330421 1_455
Cd21 Tb13 3.379516 1_555
Cd21 Tb16 3.430278 1_455
Cd21 Tb11 3.450978 1_555
Cd21 Tb2 3.450989 1_555
Cd22 Cd57 2.825205 1_455
Cd22 Cd29 3.245658 1_555
Cd22 Cd27 3.245670 1_555
Cd22 Cd36 3.330408 1_455
Cd22 Cd37 3.330421 1_455
Cd22 Tb13 3.379516 1_555
Cd22 Tb16 3.430278 1_455
Cd22 Tb12 3.450978 1_555
Cd22 Tb6 3.450989 1_555
Cd23 Cd61 2.825192 1_555
Cd23 Cd24 2.930580 1_555
Cd23 Cd25 2.930580 1_555
Cd23 Cd26 3.245657 1_555
Cd23 Cd27 3.245657 1_555
Cd23 Cd40 3.330422 1_555
Cd23 Cd41 3.330422 1_555
Cd23 Tb13 3.379516 1_555
Cd23 Tb17 3.430278 1_555
Cd23 Tb4 3.450987 1_555
Cd23 Tb1 3.450987 1_555
Cd24 Cd56 2.825192 1_555
Cd24 Cd25 2.930580 1_555
Cd24 Cd28 3.245657 1_555
Cd24 Cd27 3.245657 1_555
Cd24 Cd41 3.330422 1_555
Cd24 Cd39 3.330422 1_555
Cd24 Tb13 3.379516 1_555
Cd24 Tb17 3.430278 1_555
Cd24 Tb5 3.450987 1_555
Cd24 Tb8 3.450987 1_555
Cd25 Cd60 2.825192 1_555
Cd25 Cd28 3.245657 1_555
Cd25 Cd26 3.245657 1_555
Cd25 Cd39 3.330422 1_555
Cd25 Cd40 3.330422 1_555
Cd25 Tb13 3.379516 1_555
Cd25 Tb17 3.430278 1_555
Cd25 Tb9 3.450987 1_555
Cd25 Tb3 3.450987 1_555
Cd26 Tb13 3.274716 1_555
Cd26 Tb3 3.281207 1_555
Cd26 Tb1 3.281207 1_555
Cd26 Tb2 3.281207 1_555
Cd27 Tb13 3.274716 1_555
Cd27 Tb5 3.281207 1_555
Cd27 Tb4 3.281207 1_555
Cd27 Tb6 3.281207 1_555
Cd28 Tb13 3.274716 1_555
Cd28 Tb7 3.281207 1_555
Cd28 Tb8 3.281207 1_555
Cd28 Tb9 3.281207 1_555
Cd29 Cd3 3.022772 1_555
Cd29 Tb13 3.274704 1_555
Cd29 Tb10 3.281207 1_555
Cd29 Tb11 3.281207 1_555
Cd29 Tb12 3.281207 1_555
Cd30 Cd52 3.176302 1_555
Cd30 Cd49 3.176309 1_555
Cd30 Cd65 3.228598 1_555
Cd30 Cd63 3.228626 1_555
Cd30 Tb14 3.266762 1_555
Cd30 Tb6 3.290661 1_556
Cd30 Tb5 3.290661 1_556
Cd30 Cd84 3.290895 1_555
Cd30 Cd87 3.290907 1_555
Cd31 Cd8 3.027671 1_555
Cd31 Cd50 3.176303 1_555
Cd31 Cd47 3.176303 1_555
Cd31 Cd58 3.228600 1_555
Cd31 Cd63 3.228600 1_555
Cd31 Tb14 3.266749 1_555
Cd31 Tb10 3.290661 1_556
Cd31 Tb12 3.290661 1_556
Cd31 Cd85 3.290908 1_555
Cd31 Cd82 3.290908 1_555
Cd32 Cd9 3.027658 1_555
Cd32 Cd54 3.176302 1_555
Cd32 Cd48 3.176309 1_555
Cd32 Cd65 3.228598 1_555
Cd32 Cd58 3.228626 1_555
Cd32 Tb14 3.266762 1_555
Cd32 Tb7 3.290661 1_556
Cd32 Tb8 3.290661 1_556
Cd32 Cd83 3.290895 1_555
Cd32 Cd89 3.290907 1_555
Cd33 Cd52 3.176302 1_555
Cd33 Cd49 3.176309 1_555
Cd33 Cd66 3.228598 1_555
Cd33 Cd62 3.228626 1_555
Cd33 Tb15 3.266762 1_555
Cd33 Tb2 3.290661 1_565
Cd33 Tb3 3.290661 1_565
Cd33 Cd84 3.290895 1_555
Cd33 Cd87 3.290907 1_555
Cd34 Cd53 3.176302 1_555
Cd34 Cd44 3.176309 1_555
Cd34 Cd66 3.228598 1_555
Cd34 Cd55 3.228626 1_555
Cd34 Tb15 3.266762 1_555
Cd34 Tb7 3.290661 1_565
Cd34 Tb9 3.290661 1_565
Cd34 Cd79 3.290895 1_555
Cd34 Cd88 3.290907 1_555
Cd35 Cd45 3.176303 1_555
Cd35 Cd51 3.176303 1_555
Cd35 Cd55 3.228600 1_555
Cd35 Cd62 3.228600 1_555
Cd35 Tb15 3.266749 1_555
Cd35 Tb11 3.290661 1_565
Cd35 Tb10 3.290661 1_565
Cd35 Cd80 3.290908 1_555
Cd35 Cd86 3.290908 1_555
Cd36 Cd46 3.176303 1_555
Cd36 Cd43 3.176303 1_555
Cd36 Cd57 3.228600 1_555
Cd36 Cd59 3.228600 1_555
Cd36 Tb16 3.266749 1_555
Cd36 Tb11 3.290661 1_655
Cd36 Tb12 3.290661 1_655
Cd36 Cd81 3.290908 1_555
Cd36 Cd78 3.290908 1_555
Cd37 Cd53 3.176302 1_555
Cd37 Cd44 3.176309 1_555
Cd37 Cd64 3.228598 1_555
Cd37 Cd57 3.228626 1_555
Cd37 Tb16 3.266762 1_555
Cd37 Tb6 3.290661 1_655
Cd37 Tb4 3.290661 1_655
Cd37 Cd79 3.290895 1_555
Cd37 Cd88 3.290907 1_555
Cd38 Cd9 3.027658 1_555
Cd38 Cd54 3.176302 1_555
Cd38 Cd48 3.176309 1_555
Cd38 Cd64 3.228598 1_555
Cd38 Cd59 3.228626 1_555
Cd38 Tb16 3.266762 1_555
Cd38 Tb1 3.290661 1_655
Cd38 Tb2 3.290661 1_655
Cd38 Cd83 3.290895 1_555
Cd38 Cd89 3.290907 1_555
Cd39 Cd46 3.176294 1_555
Cd39 Cd43 3.176294 1_555
Cd39 Cd56 3.228605 1_555
Cd39 Cd60 3.228605 1_555
Cd39 Tb17 3.266754 1_555
Cd39 Tb9 3.290661 1_555
Cd39 Tb8 3.290661 1_555
Cd39 Cd78 3.290899 1_555
Cd39 Cd81 3.290899 1_555
Cd40 Cd8 3.027661 1_555
Cd40 Cd50 3.176294 1_555
Cd40 Cd47 3.176294 1_555
Cd40 Cd61 3.228605 1_555
Cd40 Cd60 3.228605 1_555
Cd40 Tb17 3.266754 1_555
Cd40 Tb3 3.290661 1_555
Cd40 Tb1 3.290661 1_555
Cd40 Cd85 3.290899 1_555
Cd40 Cd82 3.290899 1_555
Cd41 Cd45 3.176294 1_555
Cd41 Cd51 3.176294 1_555
Cd41 Cd61 3.228605 1_555
Cd41 Cd56 3.228605 1_555
Cd41 Tb17 3.266754 1_555
Cd41 Tb4 3.290661 1_555
Cd41 Tb5 3.290661 1_555
Cd41 Cd80 3.290899 1_555
Cd41 Cd86 3.290899 1_555
Cd42 Cd53 3.371166 1_555
Cd42 Cd54 3.371166 1_555
Cd42 Cd49 3.371166 1_555
Cd42 Cd52 3.371166 1_555
Cd42 Cd48 3.371166 1_555
Cd42 Cd44 3.371166 1_555
Cd42 Cd50 3.371166 1_555
Cd42 Cd47 3.371166 1_555
Cd42 Cd51 3.371166 1_555
Cd42 Cd43 3.371166 1_555
Cd42 Cd46 3.371166 1_555
Cd42 Cd45 3.371166 1_555
Cd42 Tb17 3.537557 1_555
Cd42 Tb16 3.537557 1_555
Cd42 Tb15 3.537557 1_555
Cd42 Tb14 3.537557 1_555
Cd43 Cd46 2.797446 1_555
Cd43 Cd44 2.939096 1_555
Cd43 Cd45 2.939096 1_555
Cd43 Cd81 2.946561 1_555
Cd43 Cd57 2.962908 1_555
Cd43 Cd56 2.962921 1_555
Cd43 Tb17 3.368932 1_555
Cd43 Tb16 3.368932 1_555
Cd43 Tb18 3.636269 1_555
Cd44 Cd53 2.797446 1_555
Cd44 Cd45 2.939096 1_555
Cd44 Cd88 2.946561 1_555
Cd44 Cd57 2.962915 1_555
Cd44 Cd55 2.962915 1_555
Cd44 Tb15 3.368932 1_555
Cd44 Tb16 3.368932 1_555
Cd44 Tb18 3.636269 1_555
Cd45 Cd51 2.797446 1_555
Cd45 Cd86 2.946561 1_555
Cd45 Cd55 2.962908 1_555
Cd45 Cd56 2.962921 1_555
Cd45 Tb17 3.368932 1_555
Cd45 Tb15 3.368932 1_555
Cd45 Tb18 3.636269 1_555
Cd46 Cd47 2.939096 1_555
Cd46 Cd48 2.939096 1_555
Cd46 Cd78 2.946561 1_555
Cd46 Cd59 2.962908 1_555
Cd46 Cd60 2.962921 1_555
Cd46 Tb17 3.368932 1_555
Cd46 Tb16 3.368932 1_555
Cd46 Tb19 3.636269 1_555
Cd47 Cd50 2.797446 1_555
Cd47 Cd48 2.939096 1_555
Cd47 Cd85 2.946561 1_555
Cd47 Cd58 2.962908 1_555
Cd47 Cd60 2.962921 1_555
Cd47 Tb17 3.368932 1_555
Cd47 Tb14 3.368932 1_555
Cd47 Tb19 3.636269 1_555
Cd48 Cd54 2.797446 1_555
Cd48 Cd89 2.946561 1_555
Cd48 Cd58 2.962915 1_555
Cd48 Cd59 2.962915 1_555
Cd48 Tb14 3.368932 1_555
Cd48 Tb16 3.368932 1_555
Cd48 Tb19 3.636269 1_555
Cd49 Cd52 2.797446 1_555
Cd49 Cd50 2.939096 1_555
Cd49 Cd51 2.939096 1_555
Cd49 Cd87 2.946561 1_555
Cd49 Cd63 2.962915 1_555
Cd49 Cd62 2.962915 1_555
Cd49 Tb15 3.368932 1_555
Cd49 Tb14 3.368932 1_555
Cd49 Tb20 3.636269 1_555
Cd50 Cd51 2.939096 1_555
Cd50 Cd82 2.946561 1_555
Cd50 Cd63 2.962908 1_555
Cd50 Cd61 2.962921 1_555
Cd50 Tb17 3.368932 1_555
Cd50 Tb14 3.368932 1_555
Cd50 Tb20 3.636269 1_555
Cd51 Cd80 2.946561 1_555
Cd51 Cd62 2.962908 1_555
Cd51 Cd61 2.962921 1_555
Cd51 Tb17 3.368932 1_555
Cd51 Tb15 3.368932 1_555
Cd51 Tb20 3.636269 1_555
Cd52 Cd53 2.939096 1_555
Cd52 Cd54 2.939096 1_555
Cd52 Cd84 2.946561 1_555
Cd52 Cd66 2.962908 1_555
Cd52 Cd65 2.962908 1_555
Cd52 Tb14 3.368932 1_555
Cd52 Tb15 3.368932 1_555
Cd52 Tb21 3.636269 1_555
Cd53 Cd54 2.939096 1_555
Cd53 Cd79 2.946561 1_555
Cd53 Cd66 2.962908 1_555
Cd53 Cd64 2.962908 1_555
Cd53 Tb16 3.368932 1_555
Cd53 Tb15 3.368932 1_555
Cd53 Tb21 3.636269 1_555
Cd54 Cd83 2.946561 1_555
Cd54 Cd64 2.962908 1_555
Cd54 Cd65 2.962908 1_555
Cd54 Tb16 3.368932 1_555
Cd54 Tb14 3.368932 1_555
Cd54 Tb21 3.636269 1_555
Cd55 Cd77 2.894817 1_554
Cd55 Cd86 3.184136 1_555
Cd55 Cd88 3.184150 1_555
Cd55 Tb18 3.283195 1_555
Cd55 Tb15 3.371307 1_555
Cd55 Tb10 3.394917 1_565
Cd55 Tb7 3.394938 1_565
Cd56 Cd75 2.894817 1_554
Cd56 Cd81 3.184148 1_555
Cd56 Cd86 3.184148 1_555
Cd56 Tb18 3.283207 1_555
Cd56 Tb17 3.371305 1_555
Cd56 Tb5 3.394913 1_555
Cd56 Tb8 3.394913 1_555
Cd57 Cd76 2.894817 1_554
Cd57 Cd81 3.184136 1_555
Cd57 Cd88 3.184150 1_555
Cd57 Tb18 3.283195 1_555
Cd57 Tb16 3.371307 1_555
Cd57 Tb12 3.394917 1_655
Cd57 Tb6 3.394938 1_655
Cd58 Cd77 2.894817 1_545
Cd58 Cd85 3.184136 1_555
Cd58 Cd89 3.184150 1_555
Cd58 Tb19 3.283195 1_555
Cd58 Tb14 3.371307 1_555
Cd58 Tb10 3.394917 1_556
Cd58 Tb7 3.394938 1_556
Cd59 Cd72 2.894817 1_545
Cd59 Cd78 3.184136 1_555
Cd59 Cd89 3.184150 1_555
Cd59 Tb19 3.283195 1_555
Cd59 Tb16 3.371307 1_555
Cd59 Tb11 3.394917 1_655
Cd59 Tb2 3.394938 1_655
Cd60 Cd73 2.894817 1_545
Cd60 Cd78 3.184148 1_555
Cd60 Cd85 3.184148 1_555
Cd60 Tb19 3.283207 1_555
Cd60 Tb17 3.371305 1_555
Cd60 Tb3 3.394913 1_555
Cd60 Tb9 3.394913 1_555
Cd61 Cd74 2.894817 1_455
Cd61 Cd80 3.184148 1_555
Cd61 Cd82 3.184148 1_555
Cd61 Tb20 3.283207 1_555
Cd61 Tb17 3.371305 1_555
Cd61 Tb4 3.394913 1_555
Cd61 Tb1 3.394913 1_555
Cd62 Cd72 2.894817 1_455
Cd62 Cd80 3.184136 1_555
Cd62 Cd87 3.184150 1_555
Cd62 Tb20 3.283195 1_555
Cd62 Tb15 3.371307 1_555
Cd62 Tb11 3.394917 1_565
Cd62 Tb2 3.394938 1_565
Cd63 Cd76 2.894817 1_455
Cd63 Cd82 3.184136 1_555
Cd63 Cd87 3.184150 1_555
Cd63 Tb20 3.283195 1_555
Cd63 Tb14 3.371307 1_555
Cd63 Tb12 3.394917 1_556
Cd63 Tb6 3.394938 1_556
Cd64 Cd74 2.894829 1_555
Cd64 Cd79 3.184149 1_555
Cd64 Cd83 3.184149 1_555
Cd64 Tb21 3.283205 1_555
Cd64 Tb16 3.371293 1_555
Cd64 Tb4 3.394935 1_655
Cd64 Tb1 3.394935 1_655
Cd65 Cd75 2.894829 1_555
Cd65 Cd84 3.184149 1_555
Cd65 Cd83 3.184149 1_555
Cd65 Tb21 3.283205 1_555
Cd65 Tb14 3.371293 1_555
Cd65 Tb8 3.394935 1_556
Cd65 Tb5 3.394935 1_556
Cd66 Cd73 2.894829 1_555
Cd66 Cd84 3.184149 1_555
Cd66 Cd79 3.184149 1_555
Cd66 Tb21 3.283205 1_555
Cd66 Tb15 3.371293 1_555
Cd66 Tb3 3.394935 1_565
Cd66 Tb9 3.394935 1_565
Cd67 Cd70 3.024963 1_555
Cd67 Cd71 3.024963 1_555
Cd67 Cd68 3.024963 1_555
Cd67 Cd69 3.024963 1_555
Cd67 Tb20 3.317971 1_655
Cd67 Tb19 3.317971 1_565
Cd67 Tb18 3.317971 1_556
Cd67 Tb21 3.317971 1_555
Cd68 Cd80 3.013031 1_655
Cd68 Cd79 3.013031 1_555
Cd68 Cd78 3.013031 1_565
Cd68 Cd72 3.043822 1_555
Cd68 Cd73 3.043822 1_555
Cd68 Cd74 3.043822 1_555
Cd68 Tb20 3.669901 1_655
Cd68 Tb19 3.669901 1_565
Cd68 Tb21 3.669901 1_555
Cd69 Cd81 3.013031 1_556
Cd69 Cd82 3.013031 1_655
Cd69 Cd83 3.013031 1_555
Cd69 Cd74 3.043822 1_555
Cd69 Cd76 3.043822 1_555
Cd69 Cd75 3.043822 1_555
Cd69 Tb18 3.669901 1_556
Cd69 Tb20 3.669901 1_655
Cd69 Tb21 3.669901 1_555
Cd70 Cd84 3.013031 1_555
Cd70 Cd86 3.013031 1_556
Cd70 Cd85 3.013031 1_565
Cd70 Cd77 3.043822 1_555
Cd70 Cd73 3.043822 1_555
Cd70 Cd75 3.043822 1_555
Cd70 Tb18 3.669901 1_556
Cd70 Tb19 3.669901 1_565
Cd70 Tb21 3.669901 1_555
Cd71 Cd87 3.013031 1_655
Cd71 Cd89 3.013031 1_565
Cd71 Cd88 3.013031 1_556
Cd71 Cd72 3.043822 1_555
Cd71 Cd76 3.043822 1_555
Cd71 Cd77 3.043822 1_555
Cd71 Tb18 3.669901 1_556
Cd71 Tb20 3.669901 1_655
Cd71 Tb19 3.669901 1_565
Cd72 Tb20 3.151287 1_655
Cd72 Tb19 3.151287 1_565
Cd72 Tb11 3.243541 1_665
Cd72 Tb2 3.243552 1_665
Cd73 Tb19 3.151287 1_565
Cd73 Tb21 3.151287 1_555
Cd73 Tb3 3.243539 1_565
Cd73 Tb9 3.243539 1_565
Cd74 Tb20 3.151287 1_655
Cd74 Tb21 3.151287 1_555
Cd74 Tb1 3.243539 1_655
Cd74 Tb4 3.243539 1_655
Cd75 Tb18 3.151287 1_556
Cd75 Tb21 3.151287 1_555
Cd75 Tb8 3.243539 1_556
Cd75 Tb5 3.243539 1_556
Cd76 Tb18 3.151287 1_556
Cd76 Tb20 3.151287 1_655
Cd76 Tb12 3.243541 1_656
Cd76 Tb6 3.243552 1_656
Cd77 Tb18 3.151287 1_556
Cd77 Tb19 3.151287 1_565
Cd77 Tb10 3.243541 1_566
Cd77 Tb7 3.243552 1_566
Cd78 Tb9 3.196028 1_555
Cd78 Tb11 3.196042 1_655
Cd78 Tb19 3.274127 1_555
Cd79 Tb4 3.196039 1_655
Cd79 Tb9 3.196039 1_565
Cd79 Tb21 3.274127 1_555
Cd80 Tb4 3.196028 1_555
Cd80 Tb11 3.196042 1_565
Cd80 Tb20 3.274127 1_555
Cd81 Tb8 3.196028 1_555
Cd81 Tb12 3.196042 1_655
Cd81 Tb18 3.274127 1_555
Cd82 Tb1 3.196028 1_555
Cd82 Tb12 3.196042 1_556
Cd82 Tb20 3.274127 1_555
Cd83 Cd9 3.126167 1_555
Cd83 Tb1 3.196039 1_655
Cd83 Tb8 3.196039 1_556
Cd83 Tb21 3.274127 1_555
Cd84 Tb5 3.196039 1_556
Cd84 Tb3 3.196039 1_565
Cd84 Tb21 3.274127 1_555
Cd85 Tb3 3.196028 1_555
Cd85 Tb10 3.196042 1_556
Cd85 Tb19 3.274127 1_555
Cd86 Tb5 3.196028 1_555
Cd86 Tb10 3.196042 1_565
Cd86 Tb18 3.274127 1_555
Cd87 Tb6 3.196040 1_556
Cd87 Tb2 3.196040 1_565
Cd87 Tb20 3.274127 1_555
Cd88 Tb6 3.196040 1_655
Cd88 Tb7 3.196040 1_565
Cd88 Tb18 3.274127 1_555
Cd89 Cd9 3.126167 1_555
Cd89 Tb2 3.196040 1_655
Cd89 Tb7 3.196040 1_556
Cd89 Tb19 3.274127 1_555
