# generated using pymatgen
data_NaNp(HO2)2
_symmetry_space_group_name_H-M   'P 1'
_cell_length_a   5.95498000
_cell_length_b   7.60266000
_cell_length_c   8.20412500
_cell_angle_alpha   90.00000000
_cell_angle_beta   90.00000000
_cell_angle_gamma   90.00000000
_symmetry_Int_Tables_number   1
_chemical_formula_structural   NaNp(HO2)2
_chemical_formula_sum   'Na4 Np4 H8 O16'
_cell_volume   371.43099759
_cell_formula_units_Z   4
loop_
 _symmetry_equiv_pos_site_id
 _symmetry_equiv_pos_as_xyz
  1  'x, y, z'
loop_
 _atom_site_type_symbol
 _atom_site_label
 _atom_site_symmetry_multiplicity
 _atom_site_fract_x
 _atom_site_fract_y
 _atom_site_fract_z
 _atom_site_occupancy
  Na  Na0  1  0.49433200  0.02561700  0.16696800  1
  Na  Na1  1  0.00566800  0.97438300  0.66696800  1
  Na  Na2  1  0.50566800  0.52561700  0.33303200  1
  Na  Na3  1  0.99433200  0.47438300  0.83303200  1
  Np  Np0  1  0.03770900  0.76472400  0.18430700  1
  Np  Np1  1  0.46229100  0.23527600  0.68430700  1
  Np  Np2  1  0.96229100  0.26472400  0.31569300  1
  Np  Np3  1  0.53770900  0.73527600  0.81569300  1
  H  H0  1  0.27095100  0.42916300  0.06507100  1
  H  H1  1  0.22904900  0.57083700  0.56507100  1
  H  H2  1  0.72904900  0.92916300  0.43492900  1
  H  H3  1  0.77095100  0.07083700  0.93492900  1
  H  H4  1  0.12681500  0.11848700  0.00148200  1
  H  H5  1  0.37318500  0.88151300  0.50148200  1
  H  H6  1  0.87318500  0.61848700  0.49851800  1
  H  H7  1  0.62681500  0.38151300  0.99851800  1
  O  O0  1  0.68683200  0.28857800  0.19942900  1
  O  O1  1  0.81316800  0.71142200  0.69942900  1
  O  O2  1  0.31316800  0.78857800  0.30057100  1
  O  O3  1  0.18683200  0.21142200  0.80057100  1
  O  O4  1  0.09598000  0.07232600  0.11204100  1
  O  O5  1  0.40402000  0.92767400  0.61204100  1
  O  O6  1  0.90402000  0.57232600  0.38795900  1
  O  O7  1  0.59598000  0.42767400  0.88795900  1
  O  O8  1  0.24094400  0.24094800  0.43269200  1
  O  O9  1  0.25905600  0.75905200  0.93269200  1
  O  O10  1  0.75905600  0.74094800  0.06730800  1
  O  O11  1  0.74094400  0.25905200  0.56730800  1
  O  O12  1  0.13289900  0.46191000  0.12227000  1
  O  O13  1  0.36710100  0.53809000  0.62227000  1
  O  O14  1  0.86710100  0.96191000  0.37773000  1
  O  O15  1  0.63289900  0.03809000  0.87773000  1
loop_
_geom_bond_atom_site_label_1
_geom_bond_atom_site_label_2
_geom_bond_distance
_geom_bond_site_symmetry_2
Na0 O0 2.319874 1_555
Na0 O2 2.369168 1_545
Na0 O4 2.440574 1_555
Na0 O15 2.514111 1_554
Na0 O10 2.799566 1_545
Na1 O1 2.319874 1_455
Na1 O3 2.369168 1_565
Na1 O5 2.440574 1_555
Na1 O14 2.514111 1_455
Na1 O11 2.799566 1_465
Na2 O2 2.319874 1_555
Na2 O0 2.369168 1_555
Na2 O6 2.440574 1_555
Na2 O13 2.514111 1_555
Na2 O8 2.799566 1_555
Na3 O3 2.319874 1_655
Na3 O1 2.369168 1_555
Na3 O7 2.440574 1_555
Na3 O12 2.514111 1_656
Na3 O9 2.799566 1_655
Np0 O2 1.906165 1_555
Np0 O10 1.925501 1_455
Np0 O6 2.359009 1_455
Np0 O14 2.407852 1_455
Np0 O12 2.424964 1_555
Np0 O4 2.437404 1_565
Np0 O9 2.449602 1_554
Np1 O3 1.906165 1_555
Np1 O11 1.925501 1_555
Np1 O7 2.359009 1_555
Np1 O15 2.407852 1_555
Np1 O13 2.424964 1_555
Np1 O5 2.437404 1_545
Np1 O8 2.449602 1_555
Np2 O0 1.906165 1_555
Np2 O8 1.925501 1_655
Np2 O4 2.359009 1_655
Np2 O12 2.407852 1_655
Np2 O14 2.424964 1_545
Np2 O6 2.437404 1_555
Np2 O11 2.449602 1_555
Np3 O1 1.906165 1_555
Np3 O9 1.925501 1_555
Np3 O5 2.359009 1_555
Np3 O13 2.407852 1_555
Np3 O15 2.424964 1_565
Np3 O7 2.437404 1_555
Np3 O10 2.449602 1_556
H0 O12 0.978795 1_555
H1 O13 0.978795 1_555
H2 O14 0.978795 1_555
H3 O15 0.978795 1_555
H4 O4 0.989748 1_555
H5 O5 0.989748 1_555
H6 O6 0.989748 1_555
H7 O7 0.989748 1_555
