# generated using pymatgen
data_NaVO2
_symmetry_space_group_name_H-M   'P 1'
_cell_length_a   5.61015950
_cell_length_b   5.61015911
_cell_length_c   5.61015934
_cell_angle_alpha   30.97892055
_cell_angle_beta   30.97892237
_cell_angle_gamma   30.97892856
_symmetry_Int_Tables_number   1
_chemical_formula_structural   NaVO2
_chemical_formula_sum   'Na1 V1 O2'
_cell_volume   41.49912668
_cell_formula_units_Z   1
loop_
 _symmetry_equiv_pos_site_id
 _symmetry_equiv_pos_as_xyz
  1  'x, y, z'
loop_
 _atom_site_type_symbol
 _atom_site_label
 _atom_site_symmetry_multiplicity
 _atom_site_fract_x
 _atom_site_fract_y
 _atom_site_fract_z
 _atom_site_occupancy
  Na  Na0  1  0.00000000  0.00000000  -0.00000000  1
  V  V0  1  0.50000000  0.50000000  0.50000000  1
  O  O0  1  0.76532410  0.76532410  0.76532410  1
  O  O1  1  0.23467590  0.23467590  0.23467590  1
loop_
_geom_bond_atom_site_label_1
_geom_bond_atom_site_label_2
_geom_bond_distance
_geom_bond_site_symmetry_2
Na0 O1 2.342635 1_545
Na0 O0 2.342635 1_454
Na0 O1 2.342635 1_554
Na0 O0 2.342635 1_445
Na0 O0 2.342635 1_544
Na0 O1 2.342635 1_455
O0 V0 2.044164 1_556
O0 V0 2.044164 1_565
O0 V0 2.044165 1_655
O1 V0 2.044164 1_554
O1 V0 2.044164 1_545
O1 V0 2.044165 1_455
