# generated using pymatgen
data_TbZrF7
_symmetry_space_group_name_H-M   'P 1'
_cell_length_a   5.71061626
_cell_length_b   6.04277501
_cell_length_c   8.21275233
_cell_angle_alpha   102.49581442
_cell_angle_beta   90.00000000
_cell_angle_gamma   90.00000000
_symmetry_Int_Tables_number   1
_chemical_formula_structural   TbZrF7
_chemical_formula_sum   'Tb2 Zr2 F14'
_cell_volume   276.69204509
_cell_formula_units_Z   2
loop_
 _symmetry_equiv_pos_site_id
 _symmetry_equiv_pos_as_xyz
  1  'x, y, z'
loop_
 _atom_site_type_symbol
 _atom_site_label
 _atom_site_symmetry_multiplicity
 _atom_site_fract_x
 _atom_site_fract_y
 _atom_site_fract_z
 _atom_site_occupancy
  Tb  Tb0  1  0.69879669  0.65527758  0.68650916  1
  Tb  Tb1  1  0.19879669  0.34472242  0.31349084  1
  Zr  Zr0  1  0.70811033  0.81158563  0.22543869  1
  Zr  Zr1  1  0.20811033  0.18841437  0.77456131  1
  F  F0  1  0.89167328  0.45651105  0.47541745  1
  F  F1  1  0.39167328  0.54348895  0.52458255  1
  F  F2  1  0.43014320  0.92829322  0.77046644  1
  F  F3  1  0.93014320  0.07170678  0.22953356  1
  F  F4  1  0.95076468  0.95420942  0.75981702  1
  F  F5  1  0.45076468  0.04579058  0.24018298  1
  F  F6  1  0.99367955  0.45685563  0.78850417  1
  F  F7  1  0.49367955  0.54314437  0.21149583  1
  F  F8  1  0.69787212  0.75609064  0.97583298  1
  F  F9  1  0.19787212  0.24390936  0.02416702  1
  F  F10  1  0.70383117  0.86579073  0.47633851  1
  F  F11  1  0.20383117  0.13420927  0.52366149  1
  F  F12  1  0.50148997  0.37952084  0.78370121  1
  F  F13  1  0.00148997  0.62047916  0.21629879  1
loop_
_geom_bond_atom_site_label_1
_geom_bond_atom_site_label_2
_geom_bond_distance
_geom_bond_site_symmetry_2
F0 Tb0 2.181803 1_555
F0 Tb1 2.216337 1_655
F1 Tb1 2.181803 1_555
F1 Tb0 2.216337 1_555
F2 Zr1 2.014116 1_565
F2 Tb0 2.249139 1_555
F3 Zr0 2.014116 1_545
F3 Tb1 2.249139 1_655
F4 Zr1 2.025626 1_665
F4 Tb0 2.285884 1_555
F5 Zr0 2.025626 1_545
F5 Tb1 2.285884 1_555
F6 Zr1 2.015817 1_655
F6 Tb0 2.325872 1_555
F7 Zr0 2.015817 1_555
F7 Tb1 2.325872 1_555
F8 Zr0 2.005166 1_556
F8 Tb0 2.321811 1_555
F9 Zr1 2.005166 1_554
F9 Tb1 2.321811 1_555
F10 Zr0 2.015390 1_555
F10 Tb0 2.355534 1_555
F11 Zr1 2.015390 1_555
F11 Tb1 2.355534 1_555
F12 Zr1 2.026971 1_555
F12 Tb0 2.293240 1_555
F13 Zr0 2.026971 1_455
F13 Tb1 2.293240 1_555
