# generated using pymatgen
data_VCo4
_symmetry_space_group_name_H-M   'P 1'
_cell_length_a   20.76331752
_cell_length_b   20.76331752
_cell_length_c   20.76331735
_cell_angle_alpha   13.93476955
_cell_angle_beta   13.93476955
_cell_angle_gamma   13.93476850
_symmetry_Int_Tables_number   1
_chemical_formula_structural   VCo4
_chemical_formula_sum   'V8 Co32'
_cell_volume   451.78384190
_cell_formula_units_Z   8
loop_
 _symmetry_equiv_pos_site_id
 _symmetry_equiv_pos_as_xyz
  1  'x, y, z'
loop_
 _atom_site_type_symbol
 _atom_site_label
 _atom_site_symmetry_multiplicity
 _atom_site_fract_x
 _atom_site_fract_y
 _atom_site_fract_z
 _atom_site_occupancy
  V  V0_0  1  0.00000000  0.00000000  0.00000000  1
  V  V0_1  1  0.00000000  0.00000000  0.50000000  1
  V  V0_2  1  0.00000000  0.50000000  0.00000000  1
  V  V0_3  1  1.00000000  0.50000000  0.50000000  1
  V  V0_4  1  0.50000000  0.00000000  0.00000000  1
  V  V0_5  1  0.50000000  0.00000000  0.50000000  1
  V  V0_6  1  0.50000000  0.50000000  0.00000000  1
  V  V0_7  1  0.50000000  0.50000000  0.50000000  1
  Co  Co0_0  1  0.29903550  0.29903550  0.29903550  1
  Co  Co0_1  1  0.29903550  0.29903550  0.79903550  1
  Co  Co0_2  1  0.29903550  0.79903550  0.29903550  1
  Co  Co0_3  1  0.29903550  0.79903550  0.79903550  1
  Co  Co0_4  1  0.79903550  0.29903550  0.29903550  1
  Co  Co0_5  1  0.79903550  0.29903550  0.79903550  1
  Co  Co0_6  1  0.79903550  0.79903550  0.29903550  1
  Co  Co0_7  1  0.79903550  0.79903550  0.79903550  1
  Co  Co1_0  1  0.09966550  0.09966550  0.09966550  1
  Co  Co1_1  1  0.09966550  0.09966550  0.59966550  1
  Co  Co1_2  1  0.09966550  0.59966550  0.09966550  1
  Co  Co1_3  1  0.09966550  0.59966550  0.59966550  1
  Co  Co1_4  1  0.59966550  0.09966550  0.09966550  1
  Co  Co1_5  1  0.59966550  0.09966550  0.59966550  1
  Co  Co1_6  1  0.59966550  0.59966550  0.09966550  1
  Co  Co1_7  1  0.59966550  0.59966550  0.59966550  1
  Co  Co2_0  1  0.40033450  0.40033450  0.40033450  1
  Co  Co2_1  1  0.40033450  0.40033450  0.90033450  1
  Co  Co2_2  1  0.40033450  0.90033450  0.40033450  1
  Co  Co2_3  1  0.40033450  0.90033450  0.90033450  1
  Co  Co2_4  1  0.90033450  0.40033450  0.40033450  1
  Co  Co2_5  1  0.90033450  0.40033450  0.90033450  1
  Co  Co2_6  1  0.90033450  0.90033450  0.40033450  1
  Co  Co2_7  1  0.90033450  0.90033450  0.90033450  1
  Co  Co3_0  1  0.20096450  0.20096450  0.20096450  1
  Co  Co3_1  1  0.20096450  0.20096450  0.70096450  1
  Co  Co3_2  1  0.20096450  0.70096450  0.20096450  1
  Co  Co3_3  1  0.20096450  0.70096450  0.70096450  1
  Co  Co3_4  1  0.70096450  0.20096450  0.20096450  1
  Co  Co3_5  1  0.70096450  0.20096450  0.70096450  1
  Co  Co3_6  1  0.70096450  0.70096450  0.20096450  1
  Co  Co3_7  1  0.70096450  0.70096450  0.70096450  1
loop_
_geom_bond_atom_site_label_1
_geom_bond_atom_site_label_2
_geom_bond_distance
_geom_bond_site_symmetry_2
V0_0 V0_6 2.518680 1_545
V0_0 V0_6 2.518680 1_455
V0_0 V0_3 2.518680 1_445
V0_0 V0_5 2.518680 1_455
V0_0 V0_5 2.518680 1_554
V0_0 V0_3 2.518680 1_454
V0_1 V0_7 2.518680 1_455
V0_1 V0_7 2.518680 1_545
V0_1 V0_2 2.518680 1_555
V0_1 V0_4 2.518680 1_555
V0_1 V0_2 2.518680 1_546
V0_1 V0_4 2.518680 1_456
V0_2 V0_4 2.518680 1_555
V0_2 V0_4 2.518680 1_465
V0_2 V0_7 2.518680 1_554
V0_2 V0_7 2.518680 1_455
V0_3 V0_5 2.518680 1_565
V0_3 V0_5 2.518680 1_655
V0_3 V0_6 2.518680 1_556
V0_3 V0_6 2.518680 1_655
V0_4 V0_7 2.518680 1_554
V0_4 V0_7 2.518680 1_545
V0_5 V0_6 2.518680 1_555
V0_5 V0_6 2.518680 1_546
Co0_0 Co1_2 2.486543 1_555
Co0_0 Co1_4 2.486543 1_555
Co0_0 Co1_1 2.486544 1_555
Co0_0 Co0_6 2.518680 1_545
Co0_0 Co0_6 2.518680 1_455
Co0_0 Co0_5 2.518680 1_554
Co0_0 Co0_3 2.518680 1_554
Co0_0 Co0_5 2.518680 1_455
Co0_0 Co0_3 2.518680 1_545
Co0_0 V0_3 2.566960 1_455
Co0_0 V0_5 2.566960 1_555
Co0_0 V0_6 2.566960 1_555
Co0_1 Co1_5 2.486543 1_555
Co0_1 Co1_3 2.486543 1_555
Co0_1 Co1_0 2.486544 1_556
Co0_1 Co0_7 2.518680 1_545
Co0_1 Co0_7 2.518680 1_455
Co0_1 Co0_2 2.518680 1_546
Co0_1 Co0_4 2.518680 1_456
Co0_1 Co0_4 2.518680 1_555
Co0_1 Co0_2 2.518680 1_555
Co0_1 V0_4 2.566960 1_556
Co0_1 V0_2 2.566960 1_556
Co0_1 V0_7 2.566960 1_555
Co0_2 Co1_6 2.486543 1_555
Co0_2 Co1_0 2.486543 1_565
Co0_2 Co1_3 2.486544 1_555
Co0_2 Co0_4 2.518680 1_465
Co0_2 Co0_4 2.518680 1_555
Co0_2 Co0_7 2.518680 1_455
Co0_2 Co0_7 2.518680 1_554
Co0_2 V0_7 2.566960 1_555
Co0_2 V0_1 2.566960 1_565
Co0_2 V0_4 2.566960 1_565
Co0_3 Co1_1 2.486543 1_565
Co0_3 Co1_7 2.486543 1_555
Co0_3 Co1_2 2.486544 1_556
Co0_3 Co0_5 2.518680 1_465
Co0_3 Co0_5 2.518680 1_555
Co0_3 Co0_6 2.518680 1_456
Co0_3 Co0_6 2.518680 1_555
Co0_3 V0_6 2.566960 1_556
Co0_3 V0_0 2.566960 1_566
Co0_3 V0_5 2.566960 1_565
Co0_4 Co1_6 2.486543 1_555
Co0_4 Co1_0 2.486543 1_655
Co0_4 Co1_5 2.486544 1_555
Co0_4 Co0_7 2.518680 1_554
Co0_4 Co0_7 2.518680 1_545
Co0_4 V0_7 2.566960 1_555
Co0_4 V0_1 2.566960 1_655
Co0_4 V0_2 2.566960 1_655
Co0_5 Co1_1 2.486543 1_655
Co0_5 Co1_7 2.486543 1_555
Co0_5 Co1_4 2.486544 1_556
Co0_5 Co0_6 2.518680 1_546
Co0_5 Co0_6 2.518680 1_555
Co0_5 V0_6 2.566960 1_556
Co0_5 V0_0 2.566960 1_656
Co0_5 V0_3 2.566960 1_555
Co0_6 Co1_2 2.486543 1_655
Co0_6 Co1_4 2.486543 1_565
Co0_6 Co1_7 2.486544 1_555
Co0_6 V0_3 2.566960 1_555
Co0_6 V0_5 2.566960 1_565
Co0_6 V0_0 2.566960 1_665
Co0_7 Co1_3 2.486543 1_655
Co0_7 Co1_5 2.486543 1_565
Co0_7 Co1_6 2.486544 1_556
Co0_7 V0_2 2.566960 1_656
Co0_7 V0_4 2.566960 1_566
Co0_7 V0_1 2.566960 1_665
Co1_0 Co2_5 2.484593 1_454
Co1_0 Co2_3 2.484593 1_544
Co1_0 Co2_6 2.484593 1_445
Co1_0 Co1_6 2.518680 1_455
Co1_0 Co1_6 2.518680 1_545
Co1_0 Co1_5 2.518680 1_455
Co1_0 Co1_3 2.518680 1_545
Co1_0 Co1_5 2.518680 1_554
Co1_0 Co1_3 2.518680 1_554
Co1_1 Co2_4 2.484593 1_455
Co1_1 Co2_2 2.484593 1_545
Co1_1 Co2_7 2.484593 1_445
Co1_1 Co1_7 2.518680 1_545
Co1_1 Co1_7 2.518680 1_455
Co1_1 Co1_2 2.518680 1_546
Co1_1 Co1_4 2.518680 1_555
Co1_1 Co1_2 2.518680 1_555
Co1_1 Co1_4 2.518680 1_456
Co1_2 Co2_7 2.484593 1_454
Co1_2 Co2_1 2.484593 1_554
Co1_2 Co2_4 2.484593 1_455
Co1_2 Co1_4 2.518680 1_465
Co1_2 Co1_4 2.518680 1_555
Co1_2 Co1_7 2.518680 1_455
Co1_2 Co1_7 2.518680 1_554
Co1_3 Co2_6 2.484593 1_455
Co1_3 Co2_0 2.484593 1_555
Co1_3 Co2_5 2.484593 1_455
Co1_3 Co1_5 2.518680 1_465
Co1_3 Co1_5 2.518680 1_555
Co1_3 Co1_6 2.518680 1_555
Co1_3 Co1_6 2.518680 1_456
Co1_4 Co2_7 2.484593 1_544
Co1_4 Co2_1 2.484593 1_554
Co1_4 Co2_2 2.484593 1_545
Co1_4 Co1_7 2.518680 1_545
Co1_4 Co1_7 2.518680 1_554
Co1_5 Co2_6 2.484593 1_545
Co1_5 Co2_0 2.484593 1_555
Co1_5 Co2_3 2.484593 1_545
Co1_5 Co1_6 2.518680 1_555
Co1_5 Co1_6 2.518680 1_546
Co1_6 Co2_5 2.484593 1_554
Co1_6 Co2_3 2.484593 1_554
Co1_6 Co2_0 2.484593 1_555
Co1_7 Co2_4 2.484593 1_555
Co1_7 Co2_2 2.484593 1_555
Co1_7 Co2_1 2.484593 1_555
Co2_0 Co3_2 2.486543 1_555
Co2_0 Co3_4 2.486543 1_555
Co2_0 Co3_1 2.486544 1_555
Co2_0 Co2_6 2.518680 1_545
Co2_0 Co2_6 2.518680 1_455
Co2_0 Co2_3 2.518680 1_554
Co2_0 Co2_5 2.518680 1_554
Co2_0 Co2_5 2.518680 1_455
Co2_0 Co2_3 2.518680 1_545
Co2_1 Co3_3 2.486543 1_555
Co2_1 Co3_5 2.486543 1_555
Co2_1 Co3_0 2.486544 1_556
Co2_1 Co2_7 2.518680 1_545
Co2_1 Co2_7 2.518680 1_455
Co2_1 Co2_2 2.518680 1_555
Co2_1 Co2_4 2.518680 1_555
Co2_1 Co2_4 2.518680 1_456
Co2_1 Co2_2 2.518680 1_546
Co2_2 Co3_6 2.486543 1_555
Co2_2 Co3_0 2.486543 1_565
Co2_2 Co3_3 2.486544 1_555
Co2_2 Co2_4 2.518680 1_555
Co2_2 Co2_4 2.518680 1_465
Co2_2 Co2_7 2.518680 1_455
Co2_2 Co2_7 2.518680 1_554
Co2_3 Co3_1 2.486543 1_565
Co2_3 Co3_7 2.486543 1_555
Co2_3 Co3_2 2.486544 1_556
Co2_3 Co2_5 2.518680 1_555
Co2_3 Co2_5 2.518680 1_465
Co2_3 Co2_6 2.518680 1_555
Co2_3 Co2_6 2.518680 1_456
Co2_4 Co3_6 2.486543 1_555
Co2_4 Co3_0 2.486543 1_655
Co2_4 Co3_5 2.486544 1_555
Co2_4 Co2_7 2.518680 1_545
Co2_4 Co2_7 2.518680 1_554
Co2_5 Co3_1 2.486543 1_655
Co2_5 Co3_7 2.486543 1_555
Co2_5 Co3_4 2.486544 1_556
Co2_5 Co2_6 2.518680 1_555
Co2_5 Co2_6 2.518680 1_546
Co2_6 Co3_2 2.486543 1_655
Co2_6 Co3_4 2.486543 1_565
Co2_6 Co3_7 2.486544 1_555
Co2_7 Co3_3 2.486543 1_655
Co2_7 Co3_5 2.486543 1_565
Co2_7 Co3_6 2.486544 1_556
Co3_0 Co3_6 2.518680 1_545
Co3_0 Co3_6 2.518680 1_455
Co3_0 Co3_3 2.518680 1_545
Co3_0 Co3_5 2.518680 1_554
Co3_0 Co3_5 2.518680 1_455
Co3_0 Co3_3 2.518680 1_554
Co3_0 V0_4 2.566960 1_555
Co3_0 V0_2 2.566960 1_555
Co3_0 V0_1 2.566960 1_555
Co3_1 Co3_7 2.518680 1_455
Co3_1 Co3_7 2.518680 1_545
Co3_1 Co3_2 2.518680 1_546
Co3_1 Co3_4 2.518680 1_555
Co3_1 Co3_4 2.518680 1_456
Co3_1 Co3_2 2.518680 1_555
Co3_1 V0_3 2.566960 1_455
Co3_1 V0_5 2.566960 1_555
Co3_1 V0_0 2.566960 1_556
Co3_2 Co3_4 2.518680 1_465
Co3_2 Co3_4 2.518680 1_555
Co3_2 Co3_7 2.518680 1_554
Co3_2 Co3_7 2.518680 1_455
Co3_2 V0_0 2.566960 1_565
Co3_2 V0_6 2.566960 1_555
Co3_2 V0_3 2.566960 1_455
Co3_3 Co3_5 2.518680 1_465
Co3_3 Co3_5 2.518680 1_555
Co3_3 Co3_6 2.518680 1_555
Co3_3 Co3_6 2.518680 1_456
Co3_3 V0_1 2.566960 1_565
Co3_3 V0_7 2.566960 1_555
Co3_3 V0_2 2.566960 1_556
Co3_4 Co3_7 2.518680 1_554
Co3_4 Co3_7 2.518680 1_545
Co3_4 V0_0 2.566960 1_655
Co3_4 V0_6 2.566960 1_555
Co3_4 V0_5 2.566960 1_555
Co3_5 Co3_6 2.518680 1_546
Co3_5 Co3_6 2.518680 1_555
Co3_5 V0_1 2.566960 1_655
Co3_5 V0_7 2.566960 1_555
Co3_5 V0_4 2.566960 1_556
Co3_6 V0_4 2.566960 1_565
Co3_6 V0_2 2.566960 1_655
Co3_6 V0_7 2.566960 1_555
Co3_7 V0_3 2.566960 1_555
Co3_7 V0_5 2.566960 1_565
Co3_7 V0_6 2.566960 1_556
