# generated using pymatgen
data_ThCd5
_symmetry_space_group_name_H-M   'P 1'
_cell_length_a   10.01245802
_cell_length_b   10.01245802
_cell_length_c   10.12490400
_cell_angle_alpha   90.00000000
_cell_angle_beta   90.00000000
_cell_angle_gamma   120.00000010
_symmetry_Int_Tables_number   1
_chemical_formula_structural   ThCd5
_chemical_formula_sum   'Th6 Cd30'
_cell_volume   879.02851070
_cell_formula_units_Z   6
loop_
 _symmetry_equiv_pos_site_id
 _symmetry_equiv_pos_as_xyz
  1  'x, y, z'
loop_
 _atom_site_type_symbol
 _atom_site_label
 _atom_site_symmetry_multiplicity
 _atom_site_fract_x
 _atom_site_fract_y
 _atom_site_fract_z
 _atom_site_occupancy
  Th  Th0  1  0.19220200  0.80779800  0.25000000  1
  Th  Th1  1  0.19220200  0.38440500  0.25000000  1
  Th  Th2  1  0.61559500  0.80779800  0.25000000  1
  Th  Th3  1  0.80779800  0.19220200  0.75000000  1
  Th  Th4  1  0.80779800  0.61559500  0.75000000  1
  Th  Th5  1  0.38440500  0.19220200  0.75000000  1
  Cd  Cd0  1  0.00000000  0.00000000  0.50000000  1
  Cd  Cd1  1  0.00000000  0.00000000  0.00000000  1
  Cd  Cd2  1  0.33333300  0.66666700  0.46863700  1
  Cd  Cd3  1  0.66666700  0.33333300  0.53136300  1
  Cd  Cd4  1  0.66666700  0.33333300  0.96863700  1
  Cd  Cd5  1  0.33333300  0.66666700  0.03136300  1
  Cd  Cd6  1  0.50000000  0.50000000  0.50000000  1
  Cd  Cd7  1  0.50000000  0.00000000  0.50000000  1
  Cd  Cd8  1  0.00000000  0.50000000  0.50000000  1
  Cd  Cd9  1  0.50000000  0.50000000  0.00000000  1
  Cd  Cd10  1  0.50000000  0.00000000  0.00000000  1
  Cd  Cd11  1  0.00000000  0.50000000  0.00000000  1
  Cd  Cd12  1  0.56627000  0.43373000  0.25000000  1
  Cd  Cd13  1  0.56627000  0.13254000  0.25000000  1
  Cd  Cd14  1  0.86746000  0.43373000  0.25000000  1
  Cd  Cd15  1  0.43373000  0.56627000  0.75000000  1
  Cd  Cd16  1  0.43373000  0.86746000  0.75000000  1
  Cd  Cd17  1  0.13254000  0.56627000  0.75000000  1
  Cd  Cd18  1  0.84369200  0.15630800  0.40391600  1
  Cd  Cd19  1  0.84369200  0.68738500  0.40391600  1
  Cd  Cd20  1  0.31261500  0.15630800  0.40391600  1
  Cd  Cd21  1  0.15630800  0.84369200  0.59608400  1
  Cd  Cd22  1  0.15630800  0.31261500  0.59608400  1
  Cd  Cd23  1  0.68738500  0.84369200  0.59608400  1
  Cd  Cd24  1  0.15630800  0.84369200  0.90391600  1
  Cd  Cd25  1  0.15630800  0.31261500  0.90391600  1
  Cd  Cd26  1  0.68738500  0.84369200  0.90391600  1
  Cd  Cd27  1  0.84369200  0.15630800  0.09608400  1
  Cd  Cd28  1  0.84369200  0.68738500  0.09608400  1
  Cd  Cd29  1  0.31261500  0.15630800  0.09608400  1
loop_
_geom_bond_atom_site_label_1
_geom_bond_atom_site_label_2
_geom_bond_distance
_geom_bond_site_symmetry_2
Cd0 Cd20 2.879983 1_555
Cd0 Cd23 2.879983 1_445
Cd0 Cd19 2.879983 1_445
Cd0 Cd22 2.879983 1_555
Cd0 Cd18 2.879992 1_455
Cd0 Cd21 2.879992 1_545
Cd1 Cd29 2.879983 1_555
Cd1 Cd28 2.879983 1_445
Cd1 Cd26 2.879983 1_444
Cd1 Cd25 2.879983 1_554
Cd1 Cd27 2.879992 1_455
Cd1 Cd24 2.879992 1_544
Cd2 Cd7 2.907736 1_565
Cd2 Cd8 2.907736 1_555
Cd2 Cd6 2.907745 1_555
Cd2 Th2 3.300100 1_555
Cd2 Th1 3.300100 1_555
Cd2 Th0 3.300100 1_555
Cd2 Cd21 3.330150 1_555
Cd2 Cd23 3.330166 1_555
Cd2 Cd22 3.330166 1_555
Cd3 Cd8 2.907736 1_655
Cd3 Cd7 2.907736 1_555
Cd3 Cd6 2.907745 1_555
Cd3 Th4 3.300100 1_555
Cd3 Th5 3.300100 1_555
Cd3 Th3 3.300100 1_555
Cd4 Cd9 2.907745 1_556
Cd4 Th5 3.300100 1_555
Cd4 Th4 3.300100 1_555
Cd4 Th3 3.300100 1_555
Cd5 Cd9 2.907745 1_555
Cd5 Th1 3.300100 1_555
Cd5 Th2 3.300100 1_555
Cd5 Th0 3.300100 1_555
Cd6 Th2 3.698294 1_555
Cd6 Th4 3.698294 1_555
Cd6 Th1 3.698294 1_555
Cd6 Th5 3.698294 1_555
Cd7 Th5 3.698287 1_555
Cd7 Th2 3.698287 1_545
Cd7 Th3 3.698293 1_555
Cd7 Th0 3.698293 1_545
Cd8 Th1 3.698287 1_555
Cd8 Th4 3.698287 1_455
Cd8 Th0 3.698293 1_555
Cd8 Th3 3.698293 1_455
Cd9 Th2 3.698294 1_555
Cd9 Th4 3.698294 1_554
Cd9 Th5 3.698294 1_554
Cd9 Th1 3.698294 1_555
Cd10 Cd16 2.779911 1_544
Cd10 Cd13 2.779911 1_555
Cd10 Cd5 2.907736 1_545
Cd10 Cd4 2.907736 1_554
Cd10 Cd27 3.138794 1_555
Cd10 Cd24 3.138794 1_544
Cd10 Cd29 3.138802 1_555
Cd10 Cd26 3.138802 1_544
Cd10 Th5 3.698287 1_554
Cd10 Th2 3.698287 1_545
Cd10 Th3 3.698293 1_554
Cd10 Th0 3.698293 1_545
Cd11 Cd14 2.779911 1_455
Cd11 Cd17 2.779911 1_554
Cd11 Cd5 2.907736 1_555
Cd11 Cd4 2.907736 1_454
Cd11 Cd27 3.138794 1_455
Cd11 Cd24 3.138794 1_554
Cd11 Cd28 3.138802 1_455
Cd11 Cd25 3.138802 1_554
Cd11 Th1 3.698287 1_555
Cd11 Th4 3.698287 1_454
Cd11 Th0 3.698293 1_555
Cd11 Th3 3.698293 1_454
Cd12 Cd9 2.779911 1_555
Cd12 Cd6 2.779911 1_555
Cd12 Cd13 3.015652 1_555
Cd12 Cd14 3.015652 1_555
Cd12 Cd19 3.088638 1_555
Cd12 Cd20 3.088638 1_555
Cd12 Cd28 3.088638 1_555
Cd12 Cd29 3.088638 1_555
Cd12 Cd4 3.338700 1_554
Cd12 Cd3 3.338700 1_555
Cd12 Th2 3.524455 1_555
Cd12 Th1 3.524455 1_555
Cd13 Cd7 2.779911 1_555
Cd13 Cd14 3.015652 1_555
Cd13 Cd18 3.088634 1_555
Cd13 Cd27 3.088634 1_555
Cd13 Cd20 3.088643 1_555
Cd13 Cd29 3.088643 1_555
Cd13 Cd3 3.338695 1_555
Cd13 Cd4 3.338695 1_554
Cd13 Th2 3.524445 1_545
Cd13 Th0 3.524451 1_545
Cd14 Cd8 2.779911 1_655
Cd14 Cd18 3.088634 1_555
Cd14 Cd27 3.088634 1_555
Cd14 Cd19 3.088643 1_555
Cd14 Cd28 3.088643 1_555
Cd14 Cd3 3.338695 1_555
Cd14 Cd4 3.338695 1_554
Cd14 Th1 3.524445 1_655
Cd14 Th0 3.524451 1_655
Cd15 Cd9 2.779911 1_556
Cd15 Cd6 2.779911 1_555
Cd15 Cd17 3.015652 1_555
Cd15 Cd16 3.015652 1_555
Cd15 Cd26 3.088638 1_555
Cd15 Cd25 3.088638 1_555
Cd15 Cd23 3.088638 1_555
Cd15 Cd22 3.088638 1_555
Cd15 Cd5 3.338700 1_556
Cd15 Cd2 3.338700 1_555
Cd15 Th4 3.524455 1_555
Cd15 Th5 3.524455 1_555
Cd16 Cd7 2.779911 1_565
Cd16 Cd17 3.015652 1_555
Cd16 Cd24 3.088634 1_555
Cd16 Cd21 3.088634 1_555
Cd16 Cd26 3.088643 1_555
Cd16 Cd23 3.088643 1_555
Cd16 Cd5 3.338695 1_556
Cd16 Cd2 3.338695 1_555
Cd16 Th5 3.524445 1_565
Cd16 Th3 3.524451 1_565
Cd17 Cd8 2.779911 1_555
Cd17 Cd24 3.088634 1_555
Cd17 Cd21 3.088634 1_555
Cd17 Cd25 3.088643 1_555
Cd17 Cd22 3.088643 1_555
Cd17 Cd5 3.338695 1_556
Cd17 Cd2 3.338695 1_555
Cd17 Th4 3.524445 1_455
Cd17 Th3 3.524451 1_455
Cd18 Cd27 3.116769 1_555
Cd18 Cd8 3.138794 1_655
Cd18 Cd7 3.138794 1_555
Cd18 Cd3 3.330150 1_555
Cd18 Cd23 3.336707 1_545
Cd18 Cd22 3.336707 1_655
Cd18 Th1 3.442577 1_655
Cd18 Th2 3.442577 1_545
Cd18 Th3 3.558927 1_555
Cd19 Cd28 3.116769 1_555
Cd19 Cd6 3.138794 1_555
Cd19 Cd8 3.138802 1_655
Cd19 Cd3 3.330166 1_555
Cd19 Cd23 3.336693 1_555
Cd19 Cd21 3.336707 1_655
Cd19 Th0 3.442577 1_655
Cd19 Th2 3.442577 1_555
Cd19 Th4 3.558931 1_555
Cd20 Cd29 3.116769 1_555
Cd20 Cd6 3.138794 1_555
Cd20 Cd7 3.138802 1_555
Cd20 Cd3 3.330166 1_555
Cd20 Cd22 3.336693 1_555
Cd20 Cd21 3.336707 1_545
Cd20 Th0 3.442577 1_545
Cd20 Th1 3.442577 1_555
Cd20 Th5 3.558931 1_555
Cd21 Cd24 3.116769 1_555
Cd21 Cd7 3.138794 1_565
Cd21 Cd8 3.138794 1_555
Cd21 Th5 3.442577 1_565
Cd21 Th4 3.442577 1_455
Cd21 Th0 3.558927 1_555
Cd22 Cd25 3.116769 1_555
Cd22 Cd6 3.138794 1_555
Cd22 Cd8 3.138802 1_555
Cd22 Th3 3.442577 1_455
Cd22 Th5 3.442577 1_555
Cd22 Th1 3.558931 1_555
Cd23 Cd26 3.116769 1_555
Cd23 Cd6 3.138794 1_555
Cd23 Cd7 3.138802 1_565
Cd23 Th3 3.442577 1_565
Cd23 Th4 3.442577 1_555
Cd23 Th2 3.558931 1_555
Cd24 Cd5 3.330150 1_556
Cd24 Cd28 3.336707 1_456
Cd24 Cd29 3.336707 1_566
Cd24 Th5 3.442577 1_565
Cd24 Th4 3.442577 1_455
Cd24 Th0 3.558927 1_556
Cd25 Cd9 3.138794 1_556
Cd25 Cd5 3.330166 1_556
Cd25 Cd29 3.336693 1_556
Cd25 Cd27 3.336707 1_456
Cd25 Th3 3.442577 1_455
Cd25 Th5 3.442577 1_555
Cd25 Th1 3.558931 1_556
Cd26 Cd9 3.138794 1_556
Cd26 Cd5 3.330166 1_556
Cd26 Cd28 3.336693 1_556
Cd26 Cd27 3.336707 1_566
Cd26 Th3 3.442577 1_565
Cd26 Th4 3.442577 1_555
Cd26 Th2 3.558931 1_556
Cd27 Cd4 3.330150 1_554
Cd27 Th1 3.442577 1_655
Cd27 Th2 3.442577 1_545
Cd27 Th3 3.558927 1_554
Cd28 Cd9 3.138794 1_555
Cd28 Cd4 3.330166 1_554
Cd28 Th0 3.442577 1_655
Cd28 Th2 3.442577 1_555
Cd28 Th4 3.558931 1_554
Cd29 Cd9 3.138794 1_555
Cd29 Cd4 3.330166 1_554
Cd29 Th0 3.442577 1_545
Cd29 Th1 3.442577 1_555
Cd29 Th5 3.558931 1_554
