# generated using pymatgen
data_MgFeBiO5
_symmetry_space_group_name_H-M   'P 1'
_cell_length_a   5.20688300
_cell_length_b   9.84667600
_cell_length_c   15.21207900
_cell_angle_alpha   90.00000000
_cell_angle_beta   90.00000000
_cell_angle_gamma   90.00000000
_symmetry_Int_Tables_number   1
_chemical_formula_structural   MgFeBiO5
_chemical_formula_sum   'Mg8 Fe8 Bi8 O40'
_cell_volume   779.93074228
_cell_formula_units_Z   8
loop_
 _symmetry_equiv_pos_site_id
 _symmetry_equiv_pos_as_xyz
  1  'x, y, z'
loop_
 _atom_site_type_symbol
 _atom_site_label
 _atom_site_symmetry_multiplicity
 _atom_site_fract_x
 _atom_site_fract_y
 _atom_site_fract_z
 _atom_site_occupancy
  Mg  Mg0  1  0.54507300  0.37615100  0.56500800  1
  Mg  Mg1  1  0.04507300  0.12384900  0.56500800  1
  Mg  Mg2  1  0.04507300  0.62384900  0.93499200  1
  Mg  Mg3  1  0.95492700  0.37615100  0.06500800  1
  Mg  Mg4  1  0.45492700  0.12384900  0.06500800  1
  Mg  Mg5  1  0.95492700  0.87615100  0.43499200  1
  Mg  Mg6  1  0.45492700  0.62384900  0.43499200  1
  Mg  Mg7  1  0.54507300  0.87615100  0.93499200  1
  Fe  Fe0  1  0.02719000  0.37643600  0.43688000  1
  Fe  Fe1  1  0.47281000  0.87643600  0.56312000  1
  Fe  Fe2  1  0.97281000  0.62356400  0.56312000  1
  Fe  Fe3  1  0.52719000  0.12356400  0.43688000  1
  Fe  Fe4  1  0.97281000  0.12356400  0.93688000  1
  Fe  Fe5  1  0.02719000  0.87643600  0.06312000  1
  Fe  Fe6  1  0.47281000  0.37643600  0.93688000  1
  Fe  Fe7  1  0.52719000  0.62356400  0.06312000  1
  Bi  Bi0  1  0.00864500  0.86131200  0.75164700  1
  Bi  Bi1  1  0.99135500  0.13868800  0.24835300  1
  Bi  Bi2  1  0.49135500  0.36131200  0.24835300  1
  Bi  Bi3  1  0.99135500  0.63868800  0.25164700  1
  Bi  Bi4  1  0.50864500  0.13868800  0.74835300  1
  Bi  Bi5  1  0.50864500  0.63868800  0.75164700  1
  Bi  Bi6  1  0.49135500  0.86131200  0.25164700  1
  Bi  Bi7  1  0.00864500  0.36131200  0.74835300  1
  O  O0  1  0.83465700  0.31356000  0.32540100  1
  O  O1  1  0.23609900  0.99802500  0.97615200  1
  O  O2  1  0.26390100  0.49802500  0.02384800  1
  O  O3  1  0.32925100  0.79979100  0.83130400  1
  O  O4  1  0.17074900  0.29979100  0.16869600  1
  O  O5  1  0.83465700  0.81356000  0.17459900  1
  O  O6  1  0.17074900  0.79979100  0.33130400  1
  O  O7  1  0.66534300  0.81356000  0.67459900  1
  O  O8  1  0.23609900  0.49802500  0.52384800  1
  O  O9  1  0.16534300  0.68644000  0.67459900  1
  O  O10  1  0.66534300  0.31356000  0.82540100  1
  O  O11  1  0.79420700  0.24354100  0.49114400  1
  O  O12  1  0.73609900  0.00197500  0.52384800  1
  O  O13  1  0.67074900  0.70020900  0.33130400  1
  O  O14  1  0.23659400  0.99431200  0.15666900  1
  O  O15  1  0.73609900  0.50197500  0.97615200  1
  O  O16  1  0.16534300  0.18644000  0.82540100  1
  O  O17  1  0.82925100  0.20020900  0.66869600  1
  O  O18  1  0.29420700  0.75645900  0.00885600  1
  O  O19  1  0.26390100  0.99802500  0.47615200  1
  O  O20  1  0.20579300  0.75645900  0.50885600  1
  O  O21  1  0.76340600  0.00568800  0.84333100  1
  O  O22  1  0.67074900  0.20020900  0.16869600  1
  O  O23  1  0.73659400  0.00568800  0.34333100  1
  O  O24  1  0.20579300  0.25645900  0.99114400  1
  O  O25  1  0.29420700  0.25645900  0.49114400  1
  O  O26  1  0.76390100  0.50197500  0.47615200  1
  O  O27  1  0.76390100  0.00197500  0.02384800  1
  O  O28  1  0.73659400  0.50568800  0.15666900  1
  O  O29  1  0.70579300  0.74354100  0.50885600  1
  O  O30  1  0.70579300  0.24354100  0.99114400  1
  O  O31  1  0.79420700  0.74354100  0.00885600  1
  O  O32  1  0.76340600  0.50568800  0.65666900  1
  O  O33  1  0.82925100  0.70020900  0.83130400  1
  O  O34  1  0.32925100  0.29979100  0.66869600  1
  O  O35  1  0.23659400  0.49431200  0.34333100  1
  O  O36  1  0.26340600  0.49431200  0.84333100  1
  O  O37  1  0.33465700  0.18644000  0.32540100  1
  O  O38  1  0.26340600  0.99431200  0.65666900  1
  O  O39  1  0.33465700  0.68644000  0.17459900  1
loop_
_geom_bond_atom_site_label_1
_geom_bond_atom_site_label_2
_geom_bond_distance
_geom_bond_site_symmetry_2
Mg0 O34 2.077519 1_555
Mg0 O25 2.087533 1_555
Mg0 O8 2.102469 1_555
Mg0 O11 2.156460 1_555
Mg0 O26 2.158773 1_555
Mg0 O32 2.205343 1_555
Mg1 O17 2.077519 1_455
Mg1 O11 2.087533 1_455
Mg1 O12 2.102469 1_455
Mg1 O25 2.156460 1_555
Mg1 O19 2.158773 1_545
Mg1 O38 2.205343 1_545
Mg2 O33 2.077519 1_455
Mg2 O31 2.087533 1_456
Mg2 O15 2.102469 1_455
Mg2 O18 2.156460 1_556
Mg2 O2 2.158773 1_556
Mg2 O36 2.205343 1_555
Mg3 O4 2.077519 1_655
Mg3 O24 2.087533 1_654
Mg3 O2 2.102469 1_655
Mg3 O30 2.156460 1_554
Mg3 O15 2.158773 1_554
Mg3 O28 2.205343 1_555
Mg4 O22 2.077519 1_555
Mg4 O30 2.087533 1_554
Mg4 O27 2.102469 1_555
Mg4 O24 2.156460 1_554
Mg4 O1 2.158773 1_544
Mg4 O14 2.205343 1_545
Mg5 O6 2.077519 1_655
Mg5 O20 2.087533 1_655
Mg5 O19 2.102469 1_655
Mg5 O29 2.156460 1_555
Mg5 O12 2.158773 1_565
Mg5 O23 2.205343 1_565
Mg6 O13 2.077519 1_555
Mg6 O29 2.087533 1_555
Mg6 O26 2.102469 1_555
Mg6 O20 2.156460 1_555
Mg6 O8 2.158773 1_555
Mg6 O35 2.205343 1_555
Mg7 O3 2.077519 1_555
Mg7 O18 2.087533 1_556
Mg7 O1 2.102469 1_555
Mg7 O31 2.156460 1_556
Mg7 O27 2.158773 1_566
Mg7 O21 2.205343 1_565
Fe0 O26 1.940194 1_455
Fe0 O11 1.966065 1_455
Fe0 O25 2.002511 1_555
Fe0 O0 2.064979 1_455
Fe0 O8 2.089705 1_555
Fe0 O35 2.135692 1_555
Fe1 O12 1.940194 1_565
Fe1 O29 1.966065 1_555
Fe1 O20 2.002511 1_555
Fe1 O7 2.064979 1_555
Fe1 O19 2.089705 1_555
Fe1 O38 2.135692 1_555
Fe2 O8 1.940194 1_655
Fe2 O20 1.966065 1_655
Fe2 O29 2.002511 1_555
Fe2 O9 2.064979 1_655
Fe2 O26 2.089705 1_555
Fe2 O32 2.135692 1_555
Fe3 O19 1.940194 1_545
Fe3 O25 1.966065 1_555
Fe3 O11 2.002511 1_555
Fe3 O37 2.064979 1_555
Fe3 O12 2.089705 1_555
Fe3 O23 2.135692 1_555
Fe4 O1 1.940194 1_645
Fe4 O24 1.966065 1_655
Fe4 O30 2.002511 1_555
Fe4 O16 2.064979 1_655
Fe4 O27 2.089705 1_556
Fe4 O21 2.135692 1_555
Fe5 O27 1.940194 1_465
Fe5 O31 1.966065 1_455
Fe5 O18 2.002511 1_555
Fe5 O5 2.064979 1_455
Fe5 O1 2.089705 1_554
Fe5 O14 2.135692 1_555
Fe6 O15 1.940194 1_555
Fe6 O30 1.966065 1_555
Fe6 O24 2.002511 1_555
Fe6 O10 2.064979 1_555
Fe6 O2 2.089705 1_556
Fe6 O36 2.135692 1_555
Fe7 O2 1.940194 1_555
Fe7 O18 1.966065 1_555
Fe7 O31 2.002511 1_555
Fe7 O39 2.064979 1_555
Fe7 O15 2.089705 1_554
Fe7 O28 2.135692 1_555
Bi0 O3 2.149897 1_555
Bi0 O7 2.188627 1_455
Bi0 O33 2.203925 1_455
Bi0 O9 2.237051 1_555
Bi0 O38 2.358429 1_555
Bi0 O21 2.365749 1_465
Bi1 O22 2.149897 1_555
Bi1 O37 2.188627 1_655
Bi1 O4 2.203925 1_655
Bi1 O0 2.237051 1_555
Bi1 O23 2.358429 1_555
Bi1 O14 2.365749 1_645
Bi2 O4 2.149897 1_555
Bi2 O0 2.188627 1_555
Bi2 O22 2.203925 1_555
Bi2 O37 2.237051 1_555
Bi2 O35 2.358429 1_555
Bi2 O28 2.365749 1_555
Bi3 O13 2.149897 1_555
Bi3 O39 2.188627 1_655
Bi3 O6 2.203925 1_655
Bi3 O5 2.237051 1_555
Bi3 O28 2.358429 1_555
Bi3 O35 2.365749 1_655
Bi4 O17 2.149897 1_555
Bi4 O16 2.188627 1_555
Bi4 O34 2.203925 1_555
Bi4 O10 2.237051 1_555
Bi4 O21 2.358429 1_555
Bi4 O38 2.365749 1_545
Bi5 O33 2.149897 1_555
Bi5 O9 2.188627 1_555
Bi5 O3 2.203925 1_555
Bi5 O7 2.237051 1_555
Bi5 O32 2.358429 1_555
Bi5 O36 2.365749 1_555
Bi6 O6 2.149897 1_555
Bi6 O5 2.188627 1_555
Bi6 O13 2.203925 1_555
Bi6 O39 2.237051 1_555
Bi6 O14 2.358429 1_555
Bi6 O23 2.365749 1_565
Bi7 O34 2.149897 1_555
Bi7 O10 2.188627 1_455
Bi7 O17 2.203925 1_455
Bi7 O16 2.237051 1_555
Bi7 O36 2.358429 1_555
Bi7 O32 2.365749 1_455
