# generated using pymatgen
data_SrYMg30O32
_symmetry_space_group_name_H-M   'P 1'
_cell_length_a   8.69008500
_cell_length_b   8.69008500
_cell_length_c   8.68617300
_cell_angle_alpha   90.00000000
_cell_angle_beta   90.00000000
_cell_angle_gamma   90.00000000
_symmetry_Int_Tables_number   1
_chemical_formula_structural   SrYMg30O32
_chemical_formula_sum   'Sr1 Y1 Mg30 O32'
_cell_volume   655.95874103
_cell_formula_units_Z   1
loop_
 _symmetry_equiv_pos_site_id
 _symmetry_equiv_pos_as_xyz
  1  'x, y, z'
loop_
 _atom_site_type_symbol
 _atom_site_label
 _atom_site_symmetry_multiplicity
 _atom_site_fract_x
 _atom_site_fract_y
 _atom_site_fract_z
 _atom_site_occupancy
  Sr  Sr0  1  0.50000000  0.50000000  0.00000000  1
  Y  Y0  1  0.00000000  0.00000000  0.00000000  1
  Mg  Mg0  1  0.50000000  0.00000000  0.00000000  1
  Mg  Mg1  1  0.00000000  0.50000000  0.00000000  1
  Mg  Mg2  1  0.00000000  0.00000000  0.50000000  1
  Mg  Mg3  1  0.50000000  0.00000000  0.50000000  1
  Mg  Mg4  1  0.00000000  0.50000000  0.50000000  1
  Mg  Mg5  1  0.50000000  0.50000000  0.50000000  1
  Mg  Mg6  1  0.25147100  0.25147100  0.00000000  1
  Mg  Mg7  1  0.74852900  0.25147100  0.00000000  1
  Mg  Mg8  1  0.25147100  0.74852900  0.00000000  1
  Mg  Mg9  1  0.74852900  0.74852900  0.00000000  1
  Mg  Mg10  1  0.25057000  0.25057000  0.50000000  1
  Mg  Mg11  1  0.74943000  0.25057000  0.50000000  1
  Mg  Mg12  1  0.25057000  0.74943000  0.50000000  1
  Mg  Mg13  1  0.74943000  0.74943000  0.50000000  1
  Mg  Mg14  1  0.25613000  0.00000000  0.25684000  1
  Mg  Mg15  1  0.74387000  0.00000000  0.25684000  1
  Mg  Mg16  1  0.24589300  0.50000000  0.25603800  1
  Mg  Mg17  1  0.75410700  0.50000000  0.25603800  1
  Mg  Mg18  1  0.25613000  0.00000000  0.74316000  1
  Mg  Mg19  1  0.74387000  0.00000000  0.74316000  1
  Mg  Mg20  1  0.24589300  0.50000000  0.74396200  1
  Mg  Mg21  1  0.75410700  0.50000000  0.74396200  1
  Mg  Mg22  1  0.00000000  0.25613000  0.25684000  1
  Mg  Mg23  1  0.50000000  0.24589300  0.25603800  1
  Mg  Mg24  1  0.00000000  0.74387000  0.25684000  1
  Mg  Mg25  1  0.50000000  0.75410700  0.25603800  1
  Mg  Mg26  1  0.00000000  0.25613000  0.74316000  1
  Mg  Mg27  1  0.50000000  0.24589300  0.74396200  1
  Mg  Mg28  1  0.00000000  0.74387000  0.74316000  1
  Mg  Mg29  1  0.50000000  0.75410700  0.74396200  1
  O  O0  1  0.00000000  0.00000000  0.25887400  1
  O  O1  1  0.50000000  0.00000000  0.25492600  1
  O  O2  1  0.00000000  0.50000000  0.25492600  1
  O  O3  1  0.50000000  0.50000000  0.27010700  1
  O  O4  1  0.00000000  0.00000000  0.74112600  1
  O  O5  1  0.50000000  0.00000000  0.74507400  1
  O  O6  1  0.00000000  0.50000000  0.74507400  1
  O  O7  1  0.50000000  0.50000000  0.72989300  1
  O  O8  1  0.24972600  0.24972600  0.24930500  1
  O  O9  1  0.75027400  0.24972600  0.24930500  1
  O  O10  1  0.24972600  0.75027400  0.24930500  1
  O  O11  1  0.75027400  0.75027400  0.24930500  1
  O  O12  1  0.24972600  0.24972600  0.75069500  1
  O  O13  1  0.75027400  0.24972600  0.75069500  1
  O  O14  1  0.24972600  0.75027400  0.75069500  1
  O  O15  1  0.75027400  0.75027400  0.75069500  1
  O  O16  1  0.25614500  0.00000000  0.00000000  1
  O  O17  1  0.74385500  0.00000000  0.00000000  1
  O  O18  1  0.23083100  0.50000000  0.00000000  1
  O  O19  1  0.76916900  0.50000000  0.00000000  1
  O  O20  1  0.25030700  0.00000000  0.50000000  1
  O  O21  1  0.74969300  0.00000000  0.50000000  1
  O  O22  1  0.24621300  0.50000000  0.50000000  1
  O  O23  1  0.75378700  0.50000000  0.50000000  1
  O  O24  1  0.00000000  0.25614500  0.00000000  1
  O  O25  1  0.50000000  0.23083100  0.00000000  1
  O  O26  1  0.00000000  0.74385500  0.00000000  1
  O  O27  1  0.50000000  0.76916900  0.00000000  1
  O  O28  1  0.00000000  0.25030700  0.50000000  1
  O  O29  1  0.50000000  0.24621300  0.50000000  1
  O  O30  1  0.00000000  0.74969300  0.50000000  1
  O  O31  1  0.50000000  0.75378700  0.50000000  1
loop_
_geom_bond_atom_site_label_1
_geom_bond_atom_site_label_2
_geom_bond_distance
_geom_bond_site_symmetry_2
Mg0 O27 2.005941 1_545
Mg0 O25 2.005941 1_555
Mg0 O16 2.119121 1_555
Mg0 O17 2.119121 1_555
Mg0 O1 2.214331 1_555
Mg0 O5 2.214331 1_554
Mg1 O18 2.005941 1_555
Mg1 O19 2.005941 1_455
Mg1 O24 2.119121 1_555
Mg1 O26 2.119121 1_555
Mg1 O2 2.214331 1_555
Mg1 O6 2.214331 1_554
Mg2 O4 2.094462 1_555
Mg2 O0 2.094462 1_555
Mg2 O21 2.175189 1_455
Mg2 O30 2.175189 1_545
Mg2 O28 2.175189 1_555
Mg2 O20 2.175189 1_555
Mg3 O1 2.128755 1_555
Mg3 O5 2.128755 1_555
Mg3 O29 2.139612 1_555
Mg3 O31 2.139612 1_545
Mg3 O20 2.169853 1_555
Mg3 O21 2.169853 1_555
Mg4 O2 2.128755 1_555
Mg4 O6 2.128755 1_555
Mg4 O22 2.139612 1_555
Mg4 O23 2.139612 1_455
Mg4 O28 2.169853 1_555
Mg4 O30 2.169853 1_555
Mg5 O3 1.996890 1_555
Mg5 O7 1.996890 1_555
Mg5 O29 2.205431 1_555
Mg5 O31 2.205431 1_555
Mg5 O22 2.205431 1_555
Mg5 O23 2.205431 1_555
Mg6 O12 2.165613 1_554
Mg6 O8 2.165613 1_555
Mg6 O25 2.167173 1_555
Mg6 O18 2.167173 1_555
Mg6 O16 2.185682 1_555
Mg6 O24 2.185682 1_555
Mg7 O9 2.165613 1_555
Mg7 O13 2.165613 1_554
Mg7 O25 2.167173 1_555
Mg7 O19 2.167173 1_555
Mg7 O24 2.185682 1_655
Mg7 O17 2.185682 1_555
Mg8 O10 2.165613 1_555
Mg8 O14 2.165613 1_554
Mg8 O27 2.167173 1_555
Mg8 O18 2.167173 1_555
Mg8 O26 2.185682 1_555
Mg8 O16 2.185682 1_565
Mg9 O15 2.165613 1_554
Mg9 O11 2.165613 1_555
Mg9 O27 2.167173 1_555
Mg9 O19 2.167173 1_555
Mg9 O17 2.185682 1_565
Mg9 O26 2.185682 1_655
Mg10 O22 2.167899 1_555
Mg10 O29 2.167899 1_555
Mg10 O20 2.177476 1_555
Mg10 O28 2.177476 1_555
Mg10 O8 2.177605 1_555
Mg10 O12 2.177605 1_555
Mg11 O23 2.167899 1_555
Mg11 O29 2.167899 1_555
Mg11 O28 2.177476 1_655
Mg11 O21 2.177476 1_555
Mg11 O9 2.177605 1_555
Mg11 O13 2.177605 1_555
Mg12 O31 2.167899 1_555
Mg12 O22 2.167899 1_555
Mg12 O20 2.177476 1_565
Mg12 O30 2.177476 1_555
Mg12 O14 2.177605 1_555
Mg12 O10 2.177605 1_555
Mg13 O31 2.167899 1_555
Mg13 O23 2.167899 1_555
Mg13 O21 2.177476 1_565
Mg13 O30 2.177476 1_655
Mg13 O11 2.177605 1_555
Mg13 O15 2.177605 1_555
Mg14 O20 2.112736 1_555
Mg14 O1 2.119316 1_555
Mg14 O8 2.171840 1_555
Mg14 O10 2.171840 1_545
Mg14 O0 2.225862 1_555
Mg14 O16 2.230957 1_555
Mg15 O21 2.112736 1_555
Mg15 O1 2.119316 1_555
Mg15 O11 2.171840 1_545
Mg15 O9 2.171840 1_555
Mg15 O0 2.225862 1_655
Mg15 O17 2.230957 1_555
Mg16 O22 2.119098 1_555
Mg16 O2 2.136853 1_555
Mg16 O10 2.175943 1_555
Mg16 O8 2.175943 1_555
Mg16 O3 2.211590 1_555
Mg16 O18 2.227839 1_555
Mg17 O23 2.119098 1_555
Mg17 O2 2.136853 1_655
Mg17 O11 2.175943 1_555
Mg17 O9 2.175943 1_555
Mg17 O3 2.211590 1_555
Mg17 O19 2.227839 1_555
Mg18 O20 2.112736 1_555
Mg18 O5 2.119316 1_555
Mg18 O14 2.171840 1_545
Mg18 O12 2.171840 1_555
Mg18 O4 2.225862 1_555
Mg18 O16 2.230957 1_556
Mg19 O21 2.112736 1_555
Mg19 O5 2.119316 1_555
Mg19 O15 2.171840 1_545
Mg19 O13 2.171840 1_555
Mg19 O4 2.225862 1_655
Mg19 O17 2.230957 1_556
Mg20 O22 2.119098 1_555
Mg20 O6 2.136853 1_555
Mg20 O14 2.175943 1_555
Mg20 O12 2.175943 1_555
Mg20 O7 2.211590 1_555
Mg20 O18 2.227839 1_556
Mg21 O23 2.119098 1_555
Mg21 O6 2.136853 1_655
Mg21 O15 2.175943 1_555
Mg21 O13 2.175943 1_555
Mg21 O7 2.211590 1_555
Mg21 O19 2.227839 1_556
Mg22 O28 2.112736 1_555
Mg22 O2 2.119316 1_555
Mg22 O8 2.171840 1_555
Mg22 O9 2.171840 1_455
Mg22 O0 2.225862 1_555
Mg22 O24 2.230957 1_555
Mg23 O29 2.119098 1_555
Mg23 O1 2.136853 1_555
Mg23 O9 2.175943 1_555
Mg23 O8 2.175943 1_555
Mg23 O3 2.211590 1_555
Mg23 O25 2.227839 1_555
Mg24 O30 2.112736 1_555
Mg24 O2 2.119316 1_555
Mg24 O11 2.171840 1_455
Mg24 O10 2.171840 1_555
Mg24 O0 2.225862 1_565
Mg24 O26 2.230957 1_555
Mg25 O31 2.119098 1_555
Mg25 O1 2.136853 1_565
Mg25 O11 2.175943 1_555
Mg25 O10 2.175943 1_555
Mg25 O3 2.211590 1_555
Mg25 O27 2.227839 1_555
Mg26 O28 2.112736 1_555
Mg26 O6 2.119316 1_555
Mg26 O13 2.171840 1_455
Mg26 O12 2.171840 1_555
Mg26 O4 2.225862 1_555
Mg26 O24 2.230957 1_556
Mg27 O29 2.119098 1_555
Mg27 O5 2.136853 1_555
Mg27 O13 2.175943 1_555
Mg27 O12 2.175943 1_555
Mg27 O7 2.211590 1_555
Mg27 O25 2.227839 1_556
Mg28 O30 2.112736 1_555
Mg28 O6 2.119316 1_555
Mg28 O14 2.171840 1_555
Mg28 O15 2.171840 1_455
Mg28 O4 2.225862 1_565
Mg28 O26 2.230957 1_556
Mg29 O31 2.119098 1_555
Mg29 O5 2.136853 1_565
Mg29 O14 2.175943 1_555
Mg29 O15 2.175943 1_555
Mg29 O7 2.211590 1_555
Mg29 O27 2.227839 1_556
O0 Y0 2.248624 1_555
O3 Sr0 2.346196 1_555
O4 Y0 2.248624 1_556
O7 Sr0 2.346196 1_556
O16 Y0 2.225922 1_555
O17 Y0 2.225922 1_655
O18 Sr0 2.339101 1_555
O19 Sr0 2.339101 1_555
O24 Y0 2.225922 1_555
O25 Sr0 2.339101 1_555
O26 Y0 2.225922 1_565
O27 Sr0 2.339101 1_555
