# generated using pymatgen
data_CdInAsSe
_symmetry_space_group_name_H-M   'P 1'
_cell_length_a   7.60080193
_cell_length_b   7.60080193
_cell_length_c   7.60080213
_cell_angle_alpha   33.52825243
_cell_angle_beta   33.52825243
_cell_angle_gamma   33.52825015
_symmetry_Int_Tables_number   1
_chemical_formula_structural   CdInAsSe
_chemical_formula_sum   'Cd1 In1 As1 Se1'
_cell_volume   119.32354964
_cell_formula_units_Z   1
loop_
 _symmetry_equiv_pos_site_id
 _symmetry_equiv_pos_as_xyz
  1  'x, y, z'
loop_
 _atom_site_type_symbol
 _atom_site_label
 _atom_site_symmetry_multiplicity
 _atom_site_fract_x
 _atom_site_fract_y
 _atom_site_fract_z
 _atom_site_occupancy
  Cd  Cd0  1  0.00188300  0.00188300  0.00188300  1
  In  In0  1  0.49853800  0.49853800  0.49853800  1
  As  As0  1  0.12577100  0.12577100  0.12577100  1
  Se  Se0  1  0.62380900  0.62380900  0.62380900  1
loop_
_geom_bond_atom_site_label_1
_geom_bond_atom_site_label_2
_geom_bond_distance
_geom_bond_site_symmetry_2
Cd0 Se0 2.708078 1_454
Cd0 Se0 2.708078 1_544
Cd0 Se0 2.708078 1_445
In0 Se0 2.693398 1_555
As0 Cd0 2.663663 1_555
As0 In0 2.669678 1_455
As0 In0 2.669678 1_545
As0 In0 2.669678 1_554
