# generated using pymatgen
data_YbTe2
_symmetry_space_group_name_H-M   'P 1'
_cell_length_a   4.38188600
_cell_length_b   4.38188600
_cell_length_c   9.48190300
_cell_angle_alpha   90.00000000
_cell_angle_beta   90.00000000
_cell_angle_gamma   90.00000000
_symmetry_Int_Tables_number   1
_chemical_formula_structural   YbTe2
_chemical_formula_sum   'Yb2 Te4'
_cell_volume   182.06130757
_cell_formula_units_Z   2
loop_
 _symmetry_equiv_pos_site_id
 _symmetry_equiv_pos_as_xyz
  1  'x, y, z'
loop_
 _atom_site_type_symbol
 _atom_site_label
 _atom_site_symmetry_multiplicity
 _atom_site_fract_x
 _atom_site_fract_y
 _atom_site_fract_z
 _atom_site_occupancy
  Yb  Yb0  1  0.00000000  0.50000000  0.71260300  1
  Yb  Yb1  1  0.50000000  0.00000000  0.28739700  1
  Te  Te0  1  0.00000000  0.00000000  0.00000000  1
  Te  Te1  1  0.50000000  0.50000000  0.00000000  1
  Te  Te2  1  0.00000000  0.50000000  0.36785400  1
  Te  Te3  1  0.50000000  0.00000000  0.63214600  1
loop_
_geom_bond_atom_site_label_1
_geom_bond_atom_site_label_2
_geom_bond_distance
_geom_bond_site_symmetry_2
Te0 Te1 3.098461 1_545
Te0 Te1 3.098461 1_555
Te0 Te1 3.098461 1_455
Te0 Te1 3.098461 1_445
Te0 Yb1 3.496604 1_455
Te0 Yb0 3.496604 1_554
Te0 Yb0 3.496604 1_544
Te0 Yb1 3.496604 1_555
Te1 Yb0 3.496604 1_554
Te1 Yb1 3.496604 1_565
Te1 Yb1 3.496604 1_555
Te1 Yb0 3.496604 1_654
Te2 Yb1 3.190996 1_455
Te2 Yb1 3.190996 1_465
Te2 Yb1 3.190996 1_555
Te2 Yb1 3.190996 1_565
Te2 Yb0 3.268877 1_555
Te3 Yb0 3.190996 1_545
Te3 Yb0 3.190996 1_555
Te3 Yb0 3.190996 1_655
Te3 Yb0 3.190996 1_645
Te3 Yb1 3.268877 1_555
