# generated using pymatgen
data_MgU2(SiO9)2
_symmetry_space_group_name_H-M   'P 1'
_cell_length_a   9.07140336
_cell_length_b   9.07140336
_cell_length_c   6.80297818
_cell_angle_alpha   79.86717379
_cell_angle_beta   79.86717379
_cell_angle_gamma   45.07714305
_symmetry_Int_Tables_number   1
_chemical_formula_structural   MgU2(SiO9)2
_chemical_formula_sum   'Mg1 U2 Si2 O18'
_cell_volume   389.12747378
_cell_formula_units_Z   1
loop_
 _symmetry_equiv_pos_site_id
 _symmetry_equiv_pos_as_xyz
  1  'x, y, z'
loop_
 _atom_site_type_symbol
 _atom_site_label
 _atom_site_symmetry_multiplicity
 _atom_site_fract_x
 _atom_site_fract_y
 _atom_site_fract_z
 _atom_site_occupancy
  Mg  Mg0  1  0.00000000  0.00000000  0.50000000  1
  U  U0  1  0.25286400  0.25286400  0.85709900  1
  U  U1  1  0.74713600  0.74713600  0.14290100  1
  Si  Si0  1  0.79311400  0.79311400  0.65286400  1
  Si  Si1  1  0.20688600  0.20688600  0.34713600  1
  O  O0  1  0.36243900  0.36243900  0.84352900  1
  O  O1  1  0.63756100  0.63756100  0.15647100  1
  O  O2  1  0.14215800  0.14215800  0.90989600  1
  O  O3  1  0.85784200  0.85784200  0.09010400  1
  O  O4  1  0.74679700  0.74679700  0.46131100  1
  O  O5  1  0.25320300  0.25320300  0.53868900  1
  O  O6  1  0.88916100  0.88916100  0.57692000  1
  O  O7  1  0.11083900  0.11083900  0.42308000  1
  O  O8  1  0.93868400  0.58382400  0.81130200  1
  O  O9  1  0.58382400  0.93868400  0.81130200  1
  O  O10  1  0.06131600  0.41617600  0.18869800  1
  O  O11  1  0.41617600  0.06131600  0.18869800  1
  O  O12  1  0.32779700  0.64419800  0.31265100  1
  O  O13  1  0.64419800  0.32779700  0.31265100  1
  O  O14  1  0.67220300  0.35580200  0.68734900  1
  O  O15  1  0.35580200  0.67220300  0.68734900  1
  O  O16  1  0.54660400  0.54660400  0.73101600  1
  O  O17  1  0.45339600  0.45339600  0.26898400  1
loop_
_geom_bond_atom_site_label_1
_geom_bond_atom_site_label_2
_geom_bond_distance
_geom_bond_site_symmetry_2
Mg0 O7 1.831195 1_555
Mg0 O6 1.831195 1_445
Mg0 O15 2.728246 1_545
Mg0 O14 2.728246 1_455
Mg0 O12 2.728246 1_545
Mg0 O13 2.728246 1_455
O0 U0 1.820830 1_555
O1 U1 1.820830 1_555
O2 U0 1.821155 1_555
O3 U1 1.821155 1_555
O4 Si0 1.638855 1_555
O4 U1 2.165061 1_555
O5 Si1 1.638855 1_555
O5 U0 2.165061 1_555
O6 Si0 1.593905 1_555
O7 Si1 1.593905 1_555
O8 Si0 1.658329 1_555
O8 U0 2.265439 1_655
O8 U1 2.542449 1_556
O9 Si0 1.658329 1_555
O9 U0 2.265439 1_565
O9 U1 2.542449 1_556
O10 Si1 1.658329 1_555
O10 U1 2.265439 1_455
O10 U0 2.542449 1_554
O11 Si1 1.658329 1_555
O11 U1 2.265439 1_545
O11 U0 2.542449 1_554
O12 O17 1.287976 1_555
O13 O17 1.287976 1_555
O14 O16 1.287976 1_555
O15 O16 1.287976 1_555
