# generated using pymatgen
data_Ca(MoO2)2
_symmetry_space_group_name_H-M   'P 1'
_cell_length_a   5.60515800
_cell_length_b   6.46603100
_cell_length_c   11.23574000
_cell_angle_alpha   90.00000000
_cell_angle_beta   90.00000000
_cell_angle_gamma   90.00000000
_symmetry_Int_Tables_number   1
_chemical_formula_structural   Ca(MoO2)2
_chemical_formula_sum   'Ca4 Mo8 O16'
_cell_volume   407.21833365
_cell_formula_units_Z   4
loop_
 _symmetry_equiv_pos_site_id
 _symmetry_equiv_pos_as_xyz
  1  'x, y, z'
loop_
 _atom_site_type_symbol
 _atom_site_label
 _atom_site_symmetry_multiplicity
 _atom_site_fract_x
 _atom_site_fract_y
 _atom_site_fract_z
 _atom_site_occupancy
  Ca  Ca0  1  0.35107600  0.00000000  0.50000000  1
  Ca  Ca1  1  0.64892400  0.50000000  0.00000000  1
  Ca  Ca2  1  0.03249600  0.00000000  0.00000000  1
  Ca  Ca3  1  0.96750400  0.50000000  0.50000000  1
  Mo  Mo0  1  0.01126800  0.50000000  0.23518700  1
  Mo  Mo1  1  0.01126800  0.50000000  0.76481300  1
  Mo  Mo2  1  0.98873200  0.00000000  0.26481300  1
  Mo  Mo3  1  0.98873200  0.00000000  0.73518700  1
  Mo  Mo4  1  0.50000000  0.25000000  0.25000000  1
  Mo  Mo5  1  0.50000000  0.75000000  0.75000000  1
  Mo  Mo6  1  0.50000000  0.75000000  0.25000000  1
  Mo  Mo7  1  0.50000000  0.25000000  0.75000000  1
  O  O0  1  0.35499900  0.50000000  0.14599000  1
  O  O1  1  0.35499900  0.50000000  0.85401000  1
  O  O2  1  0.64500100  0.00000000  0.35401000  1
  O  O3  1  0.64500100  0.00000000  0.64599000  1
  O  O4  1  0.69131000  0.50000000  0.34037600  1
  O  O5  1  0.69131000  0.50000000  0.65962400  1
  O  O6  1  0.30869000  0.00000000  0.15962400  1
  O  O7  1  0.30869000  0.00000000  0.84037600  1
  O  O8  1  0.16381300  0.25651900  0.35555700  1
  O  O9  1  0.16381300  0.74348100  0.64444300  1
  O  O10  1  0.83618700  0.75651900  0.14444300  1
  O  O11  1  0.83618700  0.24348100  0.85555700  1
  O  O12  1  0.83618700  0.24348100  0.14444300  1
  O  O13  1  0.83618700  0.75651900  0.85555700  1
  O  O14  1  0.16381300  0.74348100  0.35555700  1
  O  O15  1  0.16381300  0.25651900  0.64444300  1
loop_
_geom_bond_atom_site_label_1
_geom_bond_atom_site_label_2
_geom_bond_distance
_geom_bond_site_symmetry_2
Ca0 O2 2.324832 1_555
Ca0 O3 2.324832 1_555
Ca0 O15 2.546915 1_555
Ca0 O9 2.546915 1_545
Ca0 O8 2.546915 1_555
Ca0 O14 2.546915 1_545
Ca1 O1 2.324832 1_554
Ca1 O0 2.324832 1_555
Ca1 O13 2.546915 1_554
Ca1 O10 2.546915 1_555
Ca1 O11 2.546915 1_554
Ca1 O12 2.546915 1_555
Ca2 O6 2.369234 1_555
Ca2 O7 2.369234 1_554
Ca2 O11 2.514604 1_454
Ca2 O12 2.514604 1_455
Ca2 O13 2.514604 1_444
Ca2 O10 2.514604 1_445
Ca3 O5 2.369234 1_555
Ca3 O4 2.369234 1_555
Ca3 O9 2.514604 1_655
Ca3 O15 2.514604 1_655
Ca3 O14 2.514604 1_655
Ca3 O8 2.514604 1_655
Mo0 O4 2.147829 1_455
Mo0 O0 2.171736 1_555
Mo0 O10 2.180309 1_455
Mo0 O12 2.180309 1_455
Mo0 O14 2.244727 1_555
Mo0 O8 2.244727 1_555
Mo1 O5 2.147829 1_455
Mo1 O1 2.171736 1_555
Mo1 O13 2.180309 1_455
Mo1 O11 2.180309 1_455
Mo1 O15 2.244727 1_555
Mo1 O9 2.244727 1_555
Mo2 O6 2.147829 1_655
Mo2 O2 2.171736 1_555
Mo2 O8 2.180309 1_655
Mo2 O14 2.180309 1_645
Mo2 O12 2.244727 1_555
Mo2 O10 2.244727 1_545
Mo3 O7 2.147829 1_655
Mo3 O3 2.171736 1_555
Mo3 O15 2.180309 1_655
Mo3 O9 2.180309 1_645
Mo3 O11 2.244727 1_555
Mo3 O13 2.244727 1_545
Mo4 O2 2.153917 1_555
Mo4 O0 2.153917 1_555
Mo4 O6 2.189542 1_555
Mo4 O4 2.189542 1_555
Mo4 O8 2.226947 1_555
Mo4 O12 2.226947 1_555
Mo5 O3 2.153917 1_565
Mo5 O1 2.153917 1_555
Mo5 O7 2.189542 1_565
Mo5 O5 2.189542 1_555
Mo5 O9 2.226947 1_555
Mo5 O13 2.226947 1_555
Mo6 O2 2.153917 1_565
Mo6 O0 2.153917 1_555
Mo6 O6 2.189542 1_565
Mo6 O4 2.189542 1_555
Mo6 O14 2.226947 1_555
Mo6 O10 2.226947 1_555
Mo7 O3 2.153917 1_555
Mo7 O1 2.153917 1_555
Mo7 O7 2.189542 1_555
Mo7 O5 2.189542 1_555
Mo7 O15 2.226947 1_555
Mo7 O11 2.226947 1_555
