# generated using pymatgen
data_Lu6Nb4Al43
_symmetry_space_group_name_H-M   'P 1'
_cell_length_a   11.11032415
_cell_length_b   11.11032415
_cell_length_c   17.60373300
_cell_angle_alpha   90.00000000
_cell_angle_beta   90.00000000
_cell_angle_gamma   120.00000089
_symmetry_Int_Tables_number   1
_chemical_formula_structural   Lu6Nb4Al43
_chemical_formula_sum   'Lu12 Nb8 Al86'
_cell_volume   1881.86671318
_cell_formula_units_Z   2
loop_
 _symmetry_equiv_pos_site_id
 _symmetry_equiv_pos_as_xyz
  1  'x, y, z'
loop_
 _atom_site_type_symbol
 _atom_site_label
 _atom_site_symmetry_multiplicity
 _atom_site_fract_x
 _atom_site_fract_y
 _atom_site_fract_z
 _atom_site_occupancy
  Lu  Lu0  1  0.53062800  0.00000000  0.59613700  1
  Lu  Lu1  1  0.46937200  0.00000000  0.40386300  1
  Lu  Lu2  1  0.00000000  0.53062800  0.59613700  1
  Lu  Lu3  1  0.46937200  0.00000000  0.09613700  1
  Lu  Lu4  1  0.00000000  0.53062800  0.90386300  1
  Lu  Lu5  1  0.00000000  0.46937200  0.40386300  1
  Lu  Lu6  1  0.53062800  0.00000000  0.90386300  1
  Lu  Lu7  1  0.00000000  0.46937200  0.09613700  1
  Lu  Lu8  1  0.46937200  0.46937200  0.59613700  1
  Lu  Lu9  1  0.53062800  0.53062800  0.40386300  1
  Lu  Lu10  1  0.53062800  0.53062800  0.09613700  1
  Lu  Lu11  1  0.46937200  0.46937200  0.90386300  1
  Nb  Nb0  1  0.00000000  0.00000000  0.50000000  1
  Nb  Nb1  1  0.00000000  0.00000000  0.00000000  1
  Nb  Nb2  1  0.72507300  0.00000000  0.75000000  1
  Nb  Nb3  1  0.27492700  0.00000000  0.25000000  1
  Nb  Nb4  1  0.00000000  0.72507300  0.75000000  1
  Nb  Nb5  1  0.00000000  0.27492700  0.25000000  1
  Nb  Nb6  1  0.27492700  0.27492700  0.75000000  1
  Nb  Nb7  1  0.72507300  0.72507300  0.25000000  1
  Al  Al0  1  0.15008800  0.59547100  0.75000000  1
  Al  Al1  1  0.84991200  0.40452900  0.25000000  1
  Al  Al2  1  0.40452900  0.55461700  0.75000000  1
  Al  Al3  1  0.59547100  0.15008800  0.75000000  1
  Al  Al4  1  0.59547100  0.44538300  0.25000000  1
  Al  Al5  1  0.40452900  0.84991200  0.25000000  1
  Al  Al6  1  0.44538300  0.84991200  0.75000000  1
  Al  Al7  1  0.55461700  0.40452900  0.75000000  1
  Al  Al8  1  0.55461700  0.15008800  0.25000000  1
  Al  Al9  1  0.44538300  0.59547100  0.25000000  1
  Al  Al10  1  0.84991200  0.44538300  0.75000000  1
  Al  Al11  1  0.15008800  0.55461700  0.25000000  1
  Al  Al12  1  0.15931800  0.00000000  0.11514700  1
  Al  Al13  1  0.84068200  0.00000000  0.88485300  1
  Al  Al14  1  0.00000000  0.15931800  0.11514700  1
  Al  Al15  1  0.84068200  0.00000000  0.61514700  1
  Al  Al16  1  0.00000000  0.15931800  0.38485300  1
  Al  Al17  1  0.00000000  0.84068200  0.88485300  1
  Al  Al18  1  0.15931800  0.00000000  0.38485300  1
  Al  Al19  1  0.00000000  0.84068200  0.61514700  1
  Al  Al20  1  0.84068200  0.84068200  0.11514700  1
  Al  Al21  1  0.15931800  0.15931800  0.88485300  1
  Al  Al22  1  0.15931800  0.15931800  0.61514700  1
  Al  Al23  1  0.84068200  0.84068200  0.38485300  1
  Al  Al24  1  0.24713100  0.49426300  0.50000000  1
  Al  Al25  1  0.75286900  0.50573700  0.50000000  1
  Al  Al26  1  0.50573700  0.75286900  0.50000000  1
  Al  Al27  1  0.75286900  0.50573700  0.00000000  1
  Al  Al28  1  0.49426300  0.24713100  0.00000000  1
  Al  Al29  1  0.49426300  0.24713100  0.50000000  1
  Al  Al30  1  0.24713100  0.49426300  0.00000000  1
  Al  Al31  1  0.50573700  0.75286900  0.00000000  1
  Al  Al32  1  0.24713100  0.75286900  0.50000000  1
  Al  Al33  1  0.75286900  0.24713100  0.50000000  1
  Al  Al34  1  0.75286900  0.24713100  0.00000000  1
  Al  Al35  1  0.24713100  0.75286900  0.00000000  1
  Al  Al36  1  0.14735900  0.00000000  0.75000000  1
  Al  Al37  1  0.85264100  0.00000000  0.25000000  1
  Al  Al38  1  0.00000000  0.14735900  0.75000000  1
  Al  Al39  1  0.00000000  0.85264100  0.25000000  1
  Al  Al40  1  0.85264100  0.85264100  0.75000000  1
  Al  Al41  1  0.14735900  0.14735900  0.25000000  1
  Al  Al42  1  0.33333300  0.66666700  0.62616900  1
  Al  Al43  1  0.66666700  0.33333300  0.37383100  1
  Al  Al44  1  0.66666700  0.33333300  0.12616900  1
  Al  Al45  1  0.66666700  0.33333300  0.87383100  1
  Al  Al46  1  0.33333300  0.66666700  0.87383100  1
  Al  Al47  1  0.33333300  0.66666700  0.12616900  1
  Al  Al48  1  0.33333300  0.66666700  0.37383100  1
  Al  Al49  1  0.66666700  0.33333300  0.62616900  1
  Al  Al50  1  0.25741300  0.00000000  0.53041500  1
  Al  Al51  1  0.74258700  0.00000000  0.46958500  1
  Al  Al52  1  0.00000000  0.25741300  0.53041500  1
  Al  Al53  1  0.74258700  0.00000000  0.03041500  1
  Al  Al54  1  0.00000000  0.25741300  0.96958500  1
  Al  Al55  1  0.00000000  0.74258700  0.46958500  1
  Al  Al56  1  0.25741300  0.00000000  0.96958500  1
  Al  Al57  1  0.00000000  0.74258700  0.03041500  1
  Al  Al58  1  0.74258700  0.74258700  0.53041500  1
  Al  Al59  1  0.25741300  0.25741300  0.46958500  1
  Al  Al60  1  0.25741300  0.25741300  0.03041500  1
  Al  Al61  1  0.74258700  0.74258700  0.96958500  1
  Al  Al62  1  0.15659900  0.39494000  0.66305600  1
  Al  Al63  1  0.84340100  0.60506000  0.33694400  1
  Al  Al64  1  0.60506000  0.76165900  0.66305600  1
  Al  Al65  1  0.84340100  0.60506000  0.16305600  1
  Al  Al66  1  0.39494000  0.15659900  0.83694400  1
  Al  Al67  1  0.39494000  0.23834100  0.33694400  1
  Al  Al68  1  0.15659900  0.39494000  0.83694400  1
  Al  Al69  1  0.60506000  0.84340100  0.16305600  1
  Al  Al70  1  0.23834100  0.84340100  0.66305600  1
  Al  Al71  1  0.39494000  0.23834100  0.16305600  1
  Al  Al72  1  0.76165900  0.60506000  0.83694400  1
  Al  Al73  1  0.76165900  0.15659900  0.33694400  1
  Al  Al74  1  0.60506000  0.76165900  0.83694400  1
  Al  Al75  1  0.23834100  0.39494000  0.16305600  1
  Al  Al76  1  0.60506000  0.84340100  0.33694400  1
  Al  Al77  1  0.39494000  0.15659900  0.66305600  1
  Al  Al78  1  0.76165900  0.15659900  0.16305600  1
  Al  Al79  1  0.23834100  0.39494000  0.33694400  1
  Al  Al80  1  0.23834100  0.84340100  0.83694400  1
  Al  Al81  1  0.76165900  0.60506000  0.66305600  1
  Al  Al82  1  0.84340100  0.23834100  0.83694400  1
  Al  Al83  1  0.15659900  0.76165900  0.16305600  1
  Al  Al84  1  0.15659900  0.76165900  0.33694400  1
  Al  Al85  1  0.84340100  0.23834100  0.66305600  1
loop_
_geom_bond_atom_site_label_1
_geom_bond_atom_site_label_2
_geom_bond_distance
_geom_bond_site_symmetry_2
Lu0 Lu1 3.452484 1_555
Lu0 Nb2 3.464594 1_555
Lu1 Nb3 3.464594 1_555
Lu2 Lu5 3.452484 1_555
Lu2 Nb4 3.464594 1_555
Lu3 Lu6 3.452484 1_554
Lu3 Nb3 3.464594 1_555
Lu4 Lu7 3.452484 1_556
Lu4 Nb4 3.464594 1_555
Lu5 Nb5 3.464594 1_555
Lu6 Nb2 3.464594 1_555
Lu7 Nb5 3.464594 1_555
Lu8 Lu9 3.452484 1_555
Lu8 Nb6 3.464594 1_555
Lu9 Nb7 3.464594 1_555
Lu10 Lu11 3.452484 1_554
Lu10 Nb7 3.464594 1_555
Lu11 Nb6 3.464594 1_555
Al0 Nb4 2.693533 1_555
Al0 Al68 2.733638 1_555
Al0 Al62 2.733638 1_555
Al0 Al46 2.812848 1_555
Al0 Al42 2.812848 1_555
Al0 Al80 2.861952 1_555
Al0 Al70 2.861952 1_555
Al0 Al10 2.888240 1_455
Al0 Lu2 3.071586 1_555
Al0 Lu4 3.071586 1_555
Al0 Al6 3.079068 1_555
Al0 Al2 3.079068 1_555
Al1 Nb5 2.693533 1_655
Al1 Al63 2.733638 1_555
Al1 Al65 2.733638 1_555
Al1 Al43 2.812848 1_555
Al1 Al44 2.812848 1_555
Al1 Al73 2.861952 1_555
Al1 Al78 2.861952 1_555
Al1 Al11 2.888240 1_655
Al1 Lu5 3.071586 1_655
Al1 Lu7 3.071586 1_655
Al1 Al8 3.079068 1_555
Al1 Al4 3.079068 1_555
Al2 Nb6 2.693533 1_555
Al2 Al74 2.733638 1_555
Al2 Al64 2.733638 1_555
Al2 Al46 2.812855 1_555
Al2 Al42 2.812855 1_555
Al2 Al68 2.861952 1_555
Al2 Al62 2.861952 1_555
Al2 Al7 2.888240 1_555
Al2 Lu11 3.071586 1_555
Al2 Lu8 3.071586 1_555
Al2 Al6 3.079068 1_555
Al3 Nb2 2.693533 1_555
Al3 Al66 2.733638 1_555
Al3 Al77 2.733638 1_555
Al3 Al45 2.812848 1_555
Al3 Al49 2.812848 1_555
Al3 Al82 2.861952 1_555
Al3 Al85 2.861952 1_555
Al3 Al6 2.888240 1_545
Al3 Lu6 3.071586 1_555
Al3 Lu0 3.071586 1_555
Al3 Al7 3.079068 1_555
Al4 Nb7 2.693533 1_555
Al4 Al67 2.733638 1_555
Al4 Al71 2.733638 1_555
Al4 Al43 2.812855 1_555
Al4 Al44 2.812855 1_555
Al4 Al63 2.861952 1_555
Al4 Al65 2.861952 1_555
Al4 Al9 2.888240 1_555
Al4 Lu9 3.071586 1_555
Al4 Lu10 3.071586 1_555
Al4 Al8 3.079068 1_555
Al5 Nb3 2.693533 1_565
Al5 Al76 2.733638 1_555
Al5 Al69 2.733638 1_555
Al5 Al84 2.861952 1_555
Al5 Al83 2.861952 1_555
Al5 Al8 2.888240 1_565
Al5 Lu1 3.071586 1_565
Al5 Lu3 3.071586 1_565
Al5 Al9 3.079068 1_555
Al6 Nb2 2.693533 1_565
Al6 Al80 2.733638 1_555
Al6 Al70 2.733638 1_555
Al6 Al74 2.861952 1_555
Al6 Al64 2.861952 1_555
Al6 Lu6 3.071586 1_565
Al6 Lu0 3.071586 1_565
Al7 Nb6 2.693533 1_555
Al7 Al72 2.733638 1_555
Al7 Al81 2.733638 1_555
Al7 Al77 2.861952 1_555
Al7 Lu11 3.071586 1_555
Al7 Lu8 3.071586 1_555
Al8 Nb3 2.693533 1_555
Al8 Lu1 3.071586 1_555
Al8 Lu3 3.071586 1_555
Al9 Nb7 2.693533 1_555
Al9 Lu9 3.071586 1_555
Al9 Lu10 3.071586 1_555
Al10 Nb4 2.693533 1_655
Al10 Al82 2.733638 1_555
Al10 Al85 2.733638 1_555
Al10 Al45 2.812849 1_555
Al10 Al49 2.812849 1_555
Al10 Al72 2.861952 1_555
Al10 Al81 2.861952 1_555
Al10 Lu4 3.071586 1_655
Al10 Lu2 3.071586 1_655
Al10 Al3 3.079068 1_555
Al10 Al7 3.079068 1_555
Al11 Nb5 2.693533 1_555
Al11 Al84 2.733638 1_555
Al11 Al83 2.733638 1_555
Al11 Al48 2.812849 1_555
Al11 Al47 2.812849 1_555
Al11 Al79 2.861952 1_555
Al11 Al75 2.861952 1_555
Al11 Lu5 3.071586 1_555
Al11 Lu7 3.071586 1_555
Al11 Al5 3.079068 1_555
Al11 Al9 3.079068 1_555
Al12 Nb1 2.691089 1_555
Al12 Nb3 2.699129 1_555
Al12 Al71 2.764842 1_555
Al12 Al83 2.764842 1_545
Al12 Al56 2.784579 1_554
Al12 Al57 2.911184 1_545
Al12 Al60 2.911184 1_555
Al12 Al39 2.924228 1_545
Al12 Al41 2.924228 1_555
Al12 Al20 3.065859 1_445
Al12 Al14 3.065859 1_555
Al12 Lu3 3.461017 1_555
Al13 Nb1 2.691089 1_656
Al13 Nb2 2.699129 1_555
Al13 Al74 2.764842 1_545
Al13 Al82 2.764842 1_555
Al13 Al53 2.784579 1_556
Al13 Al54 2.911184 1_655
Al13 Al61 2.911184 1_545
Al13 Al38 2.924228 1_655
Al13 Al40 2.924228 1_545
Al13 Al21 3.065859 1_655
Al13 Al17 3.065859 1_645
Al13 Lu6 3.461017 1_555
Al14 Nb1 2.691089 1_555
Al14 Nb5 2.699129 1_555
Al14 Al75 2.764842 1_555
Al14 Al78 2.764842 1_455
Al14 Al54 2.784579 1_554
Al14 Al53 2.911184 1_455
Al14 Al60 2.911184 1_555
Al14 Al37 2.924228 1_455
Al14 Al41 2.924228 1_555
Al14 Al20 3.065859 1_445
Al14 Lu7 3.461017 1_555
Al15 Nb0 2.691089 1_655
Al15 Nb2 2.699129 1_555
Al15 Al64 2.764842 1_545
Al15 Al85 2.764842 1_555
Al15 Al51 2.784579 1_555
Al15 Al52 2.911184 1_655
Al15 Al58 2.911184 1_545
Al15 Al38 2.924228 1_655
Al15 Al40 2.924228 1_545
Al15 Al22 3.065859 1_655
Al15 Al19 3.065859 1_645
Al15 Lu0 3.461017 1_555
Al16 Nb0 2.691089 1_555
Al16 Nb5 2.699129 1_555
Al16 Al79 2.764842 1_555
Al16 Al73 2.764842 1_455
Al16 Al52 2.784579 1_555
Al16 Al51 2.911184 1_455
Al16 Al59 2.911184 1_555
Al16 Al37 2.924228 1_455
Al16 Al41 2.924228 1_555
Al16 Al23 3.065859 1_445
Al16 Al18 3.065859 1_555
Al16 Lu5 3.461017 1_555
Al17 Nb1 2.691089 1_566
Al17 Nb4 2.699129 1_555
Al17 Al72 2.764842 1_455
Al17 Al80 2.764842 1_555
Al17 Al57 2.784579 1_556
Al17 Al56 2.911184 1_565
Al17 Al61 2.911184 1_455
Al17 Al36 2.924228 1_565
Al17 Al40 2.924228 1_455
Al17 Al21 3.065859 1_565
Al17 Lu4 3.461017 1_555
Al18 Nb0 2.691089 1_555
Al18 Nb3 2.699129 1_555
Al18 Al67 2.764842 1_555
Al18 Al84 2.764842 1_545
Al18 Al50 2.784579 1_555
Al18 Al55 2.911184 1_545
Al18 Al59 2.911184 1_555
Al18 Al39 2.924228 1_545
Al18 Al41 2.924228 1_555
Al18 Al23 3.065859 1_445
Al18 Lu1 3.461017 1_555
Al19 Nb0 2.691089 1_565
Al19 Nb4 2.699129 1_555
Al19 Al81 2.764842 1_455
Al19 Al70 2.764842 1_555
Al19 Al55 2.784579 1_555
Al19 Al50 2.911184 1_565
Al19 Al58 2.911184 1_455
Al19 Al36 2.924228 1_565
Al19 Al40 2.924228 1_455
Al19 Al22 3.065859 1_565
Al19 Lu2 3.461017 1_555
Al20 Nb1 2.691089 1_665
Al20 Nb7 2.699129 1_555
Al20 Al69 2.764842 1_555
Al20 Al65 2.764842 1_555
Al20 Al61 2.784579 1_554
Al20 Al53 2.911184 1_565
Al20 Al57 2.911184 1_655
Al20 Al39 2.924228 1_655
Al20 Al37 2.924228 1_565
Al20 Lu10 3.461017 1_555
Al21 Nb1 2.691089 1_556
Al21 Nb6 2.699129 1_555
Al21 Al68 2.764842 1_555
Al21 Al66 2.764842 1_555
Al21 Al60 2.784579 1_556
Al21 Al56 2.911184 1_555
Al21 Al54 2.911184 1_555
Al21 Al36 2.924228 1_555
Al21 Al38 2.924228 1_555
Al21 Lu11 3.461017 1_555
Al22 Nb0 2.691089 1_555
Al22 Nb6 2.699129 1_555
Al22 Al62 2.764842 1_555
Al22 Al77 2.764842 1_555
Al22 Al59 2.784579 1_555
Al22 Al50 2.911184 1_555
Al22 Al52 2.911184 1_555
Al22 Al36 2.924228 1_555
Al22 Al38 2.924228 1_555
Al22 Lu8 3.461017 1_555
Al23 Nb0 2.691089 1_665
Al23 Nb7 2.699129 1_555
Al23 Al76 2.764842 1_555
Al23 Al63 2.764842 1_555
Al23 Al58 2.784579 1_555
Al23 Al55 2.911184 1_655
Al23 Al51 2.911184 1_565
Al23 Al39 2.924228 1_655
Al23 Al37 2.924228 1_565
Al23 Lu9 3.461017 1_555
Al24 Al52 2.743171 1_555
Al24 Al59 2.743177 1_555
Al24 Al42 2.772146 1_555
Al24 Al48 2.772146 1_555
Al24 Al26 2.873196 1_555
Al24 Al32 2.873196 1_555
Al24 Al62 3.059192 1_555
Al24 Al79 3.059194 1_555
Al24 Lu5 3.117720 1_555
Al24 Lu8 3.117729 1_555
Al24 Lu2 3.416957 1_555
Al24 Lu9 3.416966 1_555
Al25 Al55 2.743171 1_655
Al25 Al58 2.743177 1_555
Al25 Al49 2.772146 1_555
Al25 Al43 2.772146 1_555
Al25 Al29 2.873196 1_555
Al25 Al33 2.873196 1_555
Al25 Al63 3.059192 1_555
Al25 Al81 3.059194 1_555
Al25 Lu2 3.117720 1_655
Al25 Lu9 3.117729 1_555
Al25 Lu5 3.416957 1_655
Al25 Lu8 3.416966 1_555
Al26 Al51 2.743171 1_565
Al26 Al58 2.743177 1_555
Al26 Al42 2.772146 1_555
Al26 Al48 2.772146 1_555
Al26 Al32 2.873196 1_555
Al26 Al76 3.059192 1_555
Al26 Al64 3.059194 1_555
Al26 Lu0 3.117720 1_565
Al26 Lu9 3.117729 1_555
Al26 Lu1 3.416957 1_565
Al26 Lu8 3.416966 1_555
Al27 Al57 2.743171 1_655
Al27 Al61 2.743177 1_554
Al27 Al44 2.772146 1_555
Al27 Al45 2.772146 1_554
Al27 Al28 2.873196 1_555
Al27 Al34 2.873196 1_555
Al27 Al65 3.059192 1_555
Al27 Al72 3.059194 1_554
Al27 Lu4 3.117720 1_654
Al27 Lu10 3.117729 1_555
Al27 Lu7 3.416957 1_655
Al27 Lu11 3.416966 1_554
Al28 Al56 2.743171 1_554
Al28 Al60 2.743177 1_555
Al28 Al44 2.772146 1_555
Al28 Al45 2.772146 1_554
Al28 Al34 2.873196 1_555
Al28 Al66 3.059192 1_554
Al28 Al71 3.059194 1_555
Al28 Lu3 3.117720 1_555
Al28 Lu11 3.117729 1_554
Al28 Lu6 3.416957 1_554
Al28 Lu10 3.416966 1_555
Al29 Al50 2.743171 1_555
Al29 Al59 2.743177 1_555
Al29 Al49 2.772146 1_555
Al29 Al43 2.772146 1_555
Al29 Al33 2.873196 1_555
Al29 Al77 3.059192 1_555
Al29 Al67 3.059194 1_555
Al29 Lu1 3.117720 1_555
Al29 Lu8 3.117729 1_555
Al29 Lu0 3.416957 1_555
Al29 Lu9 3.416966 1_555
Al30 Al54 2.743171 1_554
Al30 Al60 2.743177 1_555
Al30 Al47 2.772146 1_555
Al30 Al46 2.772146 1_554
Al30 Al31 2.873196 1_555
Al30 Al35 2.873196 1_555
Al30 Al68 3.059192 1_554
Al30 Al75 3.059194 1_555
Al30 Lu7 3.117720 1_555
Al30 Lu11 3.117729 1_554
Al30 Lu4 3.416957 1_554
Al30 Lu10 3.416966 1_555
Al31 Al53 2.743171 1_565
Al31 Al61 2.743177 1_554
Al31 Al47 2.772146 1_555
Al31 Al46 2.772146 1_554
Al31 Al35 2.873196 1_555
Al31 Al69 3.059192 1_555
Al31 Al74 3.059194 1_554
Al31 Lu6 3.117720 1_564
Al31 Lu10 3.117729 1_555
Al31 Lu3 3.416957 1_565
Al31 Lu11 3.416966 1_554
Al32 Al50 2.743166 1_565
Al32 Al55 2.743166 1_555
Al32 Al42 2.772146 1_555
Al32 Al48 2.772146 1_555
Al32 Al70 3.059190 1_555
Al32 Al84 3.059190 1_555
Al32 Lu2 3.117724 1_555
Al32 Lu1 3.117724 1_565
Al32 Lu0 3.416962 1_565
Al32 Lu5 3.416962 1_555
Al33 Al52 2.743166 1_655
Al33 Al51 2.743166 1_555
Al33 Al49 2.772146 1_555
Al33 Al43 2.772146 1_555
Al33 Al85 3.059190 1_555
Al33 Al73 3.059190 1_555
Al33 Lu0 3.117724 1_555
Al33 Lu5 3.117724 1_655
Al33 Lu2 3.416962 1_655
Al33 Lu1 3.416962 1_555
Al34 Al53 2.743166 1_555
Al34 Al54 2.743166 1_654
Al34 Al44 2.772146 1_555
Al34 Al45 2.772146 1_554
Al34 Al78 3.059190 1_555
Al34 Al82 3.059190 1_554
Al34 Lu7 3.117724 1_655
Al34 Lu6 3.117724 1_554
Al34 Lu4 3.416962 1_654
Al34 Lu3 3.416962 1_555
Al35 Al57 2.743166 1_555
Al35 Al56 2.743166 1_564
Al35 Al47 2.772146 1_555
Al35 Al46 2.772146 1_554
Al35 Al83 3.059190 1_555
Al35 Al80 3.059190 1_554
Al35 Lu3 3.117724 1_565
Al35 Lu4 3.117724 1_554
Al35 Lu6 3.416962 1_564
Al35 Lu7 3.416962 1_555
Al36 Nb4 2.647583 1_545
Al36 Nb6 2.647583 1_555
Al36 Al40 2.835724 1_445
Al36 Al38 2.835724 1_555
Al36 Al66 2.854856 1_555
Al36 Al77 2.854856 1_555
Al36 Al80 2.854856 1_545
Al36 Al70 2.854856 1_545
Al37 Nb5 2.647583 1_655
Al37 Nb7 2.647583 1_545
Al37 Al41 2.835724 1_655
Al37 Al39 2.835724 1_645
Al37 Al76 2.854856 1_545
Al37 Al69 2.854856 1_545
Al37 Al73 2.854856 1_555
Al37 Al78 2.854856 1_555
Al38 Nb2 2.647583 1_455
Al38 Nb6 2.647583 1_555
Al38 Al40 2.835724 1_445
Al38 Al68 2.854856 1_555
Al38 Al62 2.854856 1_555
Al38 Al82 2.854856 1_455
Al38 Al85 2.854856 1_455
Al39 Nb3 2.647583 1_565
Al39 Nb7 2.647583 1_455
Al39 Al41 2.835724 1_565
Al39 Al63 2.854856 1_455
Al39 Al65 2.854856 1_455
Al39 Al84 2.854856 1_555
Al39 Al83 2.854856 1_555
Al40 Nb4 2.647583 1_655
Al40 Nb2 2.647583 1_565
Al40 Al72 2.854856 1_555
Al40 Al74 2.854856 1_555
Al40 Al64 2.854856 1_555
Al40 Al81 2.854856 1_555
Al41 Nb5 2.647583 1_555
Al41 Nb3 2.647583 1_555
Al41 Al67 2.854856 1_555
Al41 Al79 2.854856 1_555
Al41 Al71 2.854856 1_555
Al41 Al75 2.854856 1_555
Al42 Al70 2.731933 1_555
Al42 Al62 2.731941 1_555
Al42 Al64 2.731943 1_555
Al42 Al6 2.812849 1_555
Al42 Lu2 3.268314 1_555
Al42 Lu0 3.268315 1_565
Al42 Lu8 3.268324 1_555
Al43 Al73 2.731933 1_555
Al43 Al63 2.731941 1_555
Al43 Al67 2.731943 1_555
Al43 Al8 2.812849 1_555
Al43 Lu5 3.268314 1_655
Al43 Lu1 3.268315 1_555
Al43 Lu9 3.268324 1_555
Al44 Al78 2.731933 1_555
Al44 Al65 2.731941 1_555
Al44 Al71 2.731943 1_555
Al44 Al8 2.812849 1_555
Al44 Lu7 3.268314 1_655
Al44 Lu3 3.268315 1_555
Al44 Lu10 3.268324 1_555
Al45 Al82 2.731933 1_555
Al45 Al66 2.731941 1_555
Al45 Al72 2.731943 1_555
Al45 Al7 2.812855 1_555
Al45 Lu6 3.268314 1_555
Al45 Lu4 3.268315 1_655
Al45 Lu11 3.268324 1_555
Al46 Al80 2.731933 1_555
Al46 Al68 2.731941 1_555
Al46 Al74 2.731943 1_555
Al46 Al6 2.812849 1_555
Al46 Lu4 3.268314 1_555
Al46 Lu6 3.268315 1_565
Al46 Lu11 3.268324 1_555
Al47 Al83 2.731933 1_555
Al47 Al69 2.731941 1_555
Al47 Al75 2.731943 1_555
Al47 Al5 2.812848 1_555
Al47 Al9 2.812855 1_555
Al47 Lu3 3.268314 1_565
Al47 Lu7 3.268315 1_555
Al47 Lu10 3.268324 1_555
Al48 Al84 2.731933 1_555
Al48 Al76 2.731941 1_555
Al48 Al79 2.731943 1_555
Al48 Al5 2.812848 1_555
Al48 Al9 2.812855 1_555
Al48 Lu1 3.268314 1_565
Al48 Lu5 3.268315 1_555
Al48 Lu9 3.268324 1_555
Al49 Al85 2.731933 1_555
Al49 Al77 2.731941 1_555
Al49 Al81 2.731943 1_555
Al49 Al7 2.812855 1_555
Al49 Lu0 3.268314 1_555
Al49 Lu2 3.268315 1_655
Al49 Lu8 3.268324 1_555
Al50 Al77 2.855780 1_555
Al50 Al70 2.855780 1_545
Al50 Nb0 2.909629 1_555
Al50 Al55 3.053843 1_545
Al50 Al59 3.053843 1_555
Al50 Lu1 3.241720 1_555
Al50 Lu0 3.248514 1_555
Al51 Al76 2.855780 1_545
Al51 Al73 2.855780 1_555
Al51 Nb0 2.909629 1_655
Al51 Al52 3.053843 1_655
Al51 Al58 3.053843 1_545
Al51 Lu0 3.241720 1_555
Al51 Lu1 3.248514 1_555
Al52 Al62 2.855780 1_555
Al52 Al85 2.855780 1_455
Al52 Nb0 2.909629 1_555
Al52 Al59 3.053843 1_555
Al52 Lu5 3.241720 1_555
Al52 Lu2 3.248514 1_555
Al53 Al69 2.855780 1_545
Al53 Al78 2.855780 1_555
Al53 Nb1 2.909629 1_655
Al53 Al54 3.053843 1_654
Al53 Al61 3.053843 1_544
Al53 Lu6 3.241720 1_554
Al53 Lu3 3.248514 1_555
Al54 Al68 2.855780 1_555
Al54 Al82 2.855780 1_455
Al54 Nb1 2.909629 1_556
Al54 Al60 3.053843 1_556
Al54 Lu7 3.241720 1_556
Al54 Lu4 3.248514 1_555
Al55 Al63 2.855780 1_455
Al55 Al84 2.855780 1_555
Al55 Nb0 2.909629 1_565
Al55 Al58 3.053843 1_455
Al55 Lu2 3.241720 1_555
Al55 Lu5 3.248514 1_555
Al56 Al66 2.855780 1_555
Al56 Al80 2.855780 1_545
Al56 Nb1 2.909629 1_556
Al56 Al57 3.053843 1_546
Al56 Al60 3.053843 1_556
Al56 Lu3 3.241720 1_556
Al56 Lu6 3.248514 1_555
Al57 Al65 2.855780 1_455
Al57 Al83 2.855780 1_555
Al57 Nb1 2.909629 1_565
Al57 Al61 3.053843 1_454
Al57 Lu4 3.241720 1_554
Al57 Lu7 3.248514 1_555
Al58 Al81 2.855780 1_555
Al58 Al64 2.855780 1_555
Al58 Nb0 2.909629 1_665
Al58 Lu9 3.241720 1_555
Al58 Lu8 3.248514 1_555
Al59 Al67 2.855780 1_555
Al59 Al79 2.855780 1_555
Al59 Nb0 2.909629 1_555
Al59 Lu8 3.241720 1_555
Al59 Lu9 3.248514 1_555
Al60 Al71 2.855780 1_555
Al60 Al75 2.855780 1_555
Al60 Nb1 2.909629 1_555
Al60 Lu11 3.241720 1_554
Al60 Lu10 3.248514 1_555
Al61 Al72 2.855780 1_555
Al61 Al74 2.855780 1_555
Al61 Nb1 2.909629 1_666
Al61 Lu10 3.241720 1_556
Al61 Lu11 3.248514 1_555
Al62 Nb6 2.757127 1_555
Al62 Al85 3.013536 1_455
Al62 Lu2 3.051304 1_555
Al62 Al68 3.061078 1_555
Al62 Lu8 3.357617 1_555
Al63 Nb7 2.757127 1_555
Al63 Al84 3.013536 1_655
Al63 Lu5 3.051304 1_655
Al63 Al65 3.061078 1_555
Al63 Lu9 3.357617 1_555
Al64 Nb2 2.757127 1_565
Al64 Al81 3.013536 1_555
Al64 Lu8 3.051304 1_555
Al64 Al74 3.061078 1_555
Al64 Lu0 3.357617 1_565
Al65 Nb7 2.757127 1_555
Al65 Al83 3.013536 1_655
Al65 Lu7 3.051304 1_655
Al65 Lu10 3.357617 1_555
Al66 Nb6 2.757127 1_555
Al66 Al7 2.861952 1_555
Al66 Al80 3.013536 1_545
Al66 Lu6 3.051304 1_555
Al66 Al77 3.061078 1_555
Al66 Lu11 3.357617 1_555
Al67 Nb3 2.757127 1_555
Al67 Al8 2.861952 1_555
Al67 Al79 3.013536 1_555
Al67 Lu9 3.051304 1_555
Al67 Al71 3.061078 1_555
Al67 Lu1 3.357617 1_555
Al68 Nb6 2.757127 1_555
Al68 Al82 3.013536 1_455
Al68 Lu4 3.051304 1_555
Al68 Lu11 3.357617 1_555
Al69 Nb7 2.757127 1_555
Al69 Al9 2.861952 1_555
Al69 Al78 3.013536 1_565
Al69 Lu3 3.051304 1_565
Al69 Al76 3.061078 1_555
Al69 Lu10 3.357617 1_555
Al70 Nb4 2.757127 1_555
Al70 Al77 3.013536 1_565
Al70 Lu0 3.051304 1_565
Al70 Al80 3.061078 1_555
Al70 Lu2 3.357617 1_555
Al71 Nb3 2.757127 1_555
Al71 Al8 2.861952 1_555
Al71 Al75 3.013536 1_555
Al71 Lu10 3.051304 1_555
Al71 Lu3 3.357617 1_555
Al72 Nb4 2.757127 1_655
Al72 Al74 3.013536 1_555
Al72 Lu11 3.051304 1_555
Al72 Al81 3.061078 1_555
Al72 Lu4 3.357617 1_655
Al73 Al8 2.733638 1_555
Al73 Nb5 2.757127 1_655
Al73 Al76 3.013536 1_545
Al73 Lu1 3.051304 1_555
Al73 Al78 3.061078 1_555
Al73 Lu5 3.357617 1_655
Al74 Nb2 2.757127 1_565
Al74 Lu11 3.051304 1_555
Al74 Lu6 3.357617 1_565
Al75 Al9 2.733638 1_555
Al75 Nb5 2.757127 1_555
Al75 Lu10 3.051304 1_555
Al75 Al79 3.061078 1_555
Al75 Lu7 3.357617 1_555
Al76 Nb7 2.757127 1_555
Al76 Al9 2.861952 1_555
Al76 Lu1 3.051304 1_565
Al76 Lu9 3.357617 1_555
Al77 Nb6 2.757127 1_555
Al77 Lu0 3.051304 1_555
Al77 Lu8 3.357617 1_555
Al78 Al8 2.733638 1_555
Al78 Nb5 2.757127 1_655
Al78 Lu3 3.051304 1_555
Al78 Lu7 3.357617 1_655
Al79 Al9 2.733638 1_555
Al79 Nb5 2.757127 1_555
Al79 Lu9 3.051304 1_555
Al79 Lu5 3.357617 1_555
Al80 Nb4 2.757127 1_555
Al80 Lu6 3.051304 1_565
Al80 Lu4 3.357617 1_555
Al81 Nb4 2.757127 1_655
Al81 Lu8 3.051304 1_555
Al81 Lu2 3.357617 1_655
Al82 Nb2 2.757127 1_555
Al82 Lu4 3.051304 1_655
Al82 Al85 3.061078 1_555
Al82 Lu6 3.357617 1_555
Al83 Nb3 2.757127 1_565
Al83 Lu7 3.051304 1_555
Al83 Al84 3.061078 1_555
Al83 Lu3 3.357617 1_565
Al84 Nb3 2.757127 1_565
Al84 Lu5 3.051304 1_555
Al84 Lu1 3.357617 1_565
Al85 Nb2 2.757127 1_555
Al85 Lu2 3.051304 1_655
Al85 Lu0 3.357617 1_555
