# generated using pymatgen
data_SrSmGa3O7
_symmetry_space_group_name_H-M   'P 1'
_cell_length_a   8.05004996
_cell_length_b   8.05004996
_cell_length_c   5.32908100
_cell_angle_alpha   90.00000000
_cell_angle_beta   90.00000000
_cell_angle_gamma   90.94587384
_symmetry_Int_Tables_number   1
_chemical_formula_structural   SrSmGa3O7
_chemical_formula_sum   'Sr2 Sm2 Ga6 O14'
_cell_volume   345.29500026
_cell_formula_units_Z   2
loop_
 _symmetry_equiv_pos_site_id
 _symmetry_equiv_pos_as_xyz
  1  'x, y, z'
loop_
 _atom_site_type_symbol
 _atom_site_label
 _atom_site_symmetry_multiplicity
 _atom_site_fract_x
 _atom_site_fract_y
 _atom_site_fract_z
 _atom_site_occupancy
  Sr  Sr0  1  0.16176900  0.83823100  0.49060100  1
  Sr  Sr1  1  0.83823100  0.16176900  0.49060100  1
  Sm  Sm0  1  0.66095500  0.66095500  0.51459800  1
  Sm  Sm1  1  0.33904500  0.33904500  0.51459800  1
  Ga  Ga0  1  0.50000000  0.00000000  0.99519400  1
  Ga  Ga1  1  0.00000000  0.50000000  0.99519400  1
  Ga  Ga2  1  0.35898600  0.64101400  0.03440700  1
  Ga  Ga3  1  0.85245300  0.85245300  0.96712700  1
  Ga  Ga4  1  0.64101400  0.35898600  0.03440700  1
  Ga  Ga5  1  0.14754700  0.14754700  0.96712700  1
  O  O0  1  0.41829200  0.83541500  0.20472500  1
  O  O1  1  0.90136700  0.65666500  0.78679400  1
  O  O2  1  0.58170800  0.16458500  0.20472500  1
  O  O3  1  0.09863300  0.34333500  0.78679400  1
  O  O4  1  0.34333500  0.09863300  0.78679400  1
  O  O5  1  0.83541500  0.41829200  0.20472500  1
  O  O6  1  0.65666500  0.90136700  0.78679400  1
  O  O7  1  0.16458500  0.58170800  0.20472500  1
  O  O8  1  0.00000000  0.00000000  0.81873000  1
  O  O9  1  0.50000000  0.50000000  0.21336100  1
  O  O10  1  0.37330600  0.62669400  0.69336400  1
  O  O11  1  0.84581400  0.84581400  0.30562400  1
  O  O12  1  0.62669400  0.37330600  0.69336400  1
  O  O13  1  0.15418600  0.15418600  0.30562400  1
loop_
_geom_bond_atom_site_label_1
_geom_bond_atom_site_label_2
_geom_bond_distance
_geom_bond_site_symmetry_2
Ga0 O0 1.845559 1_546
Ga0 O2 1.845559 1_556
Ga0 O4 1.867462 1_555
Ga0 O6 1.867462 1_545
Ga1 O5 1.845559 1_456
Ga1 O7 1.845559 1_556
Ga1 O1 1.867462 1_455
Ga1 O3 1.867462 1_555
Ga2 O10 1.824863 1_554
Ga2 O0 1.864429 1_555
Ga2 O7 1.864429 1_555
Ga2 O9 1.878625 1_555
Ga3 O11 1.805435 1_556
Ga3 O8 1.844009 1_665
Ga3 O6 1.892928 1_555
Ga3 O1 1.892928 1_555
Ga4 O12 1.824863 1_554
Ga4 O5 1.864429 1_555
Ga4 O2 1.864429 1_555
Ga4 O9 1.878625 1_555
Ga5 O13 1.805435 1_556
Ga5 O8 1.844009 1_555
Ga5 O4 1.892928 1_555
Ga5 O3 1.892928 1_555
O0 Sr0 2.566573 1_555
O0 Sm0 2.933570 1_555
O1 Sm0 2.419298 1_555
O1 Sr0 2.986785 1_655
O2 Sr1 2.566573 1_555
O2 Sm1 2.933570 1_555
O3 Sm1 2.419298 1_555
O3 Sr1 2.986785 1_455
O4 Sm1 2.419298 1_555
O4 Sr0 2.986785 1_545
O5 Sr1 2.566573 1_555
O5 Sm0 2.933570 1_555
O6 Sm0 2.419298 1_555
O6 Sr1 2.986785 1_565
O7 Sr0 2.566573 1_555
O7 Sm1 2.933570 1_555
O8 Sr0 2.550566 1_545
O8 Sr1 2.550566 1_455
O9 Sm0 2.424720 1_555
O9 Sm1 2.424720 1_555
O10 Sm0 2.514854 1_555
O10 Sm1 2.514854 1_555
O10 Sr0 2.657618 1_555
O11 Sm0 2.365609 1_555
O11 Sr0 2.729419 1_655
O11 Sr1 2.729419 1_565
O12 Sm0 2.514854 1_555
O12 Sm1 2.514854 1_555
O12 Sr1 2.657618 1_555
O13 Sm1 2.365609 1_555
O13 Sr0 2.729419 1_545
O13 Sr1 2.729419 1_455
