# generated using pymatgen
data_KMg6BiO8
_symmetry_space_group_name_H-M   'P 1'
_cell_length_a   9.03070652
_cell_length_b   4.60148896
_cell_length_c   4.60148896
_cell_angle_alpha   90.00000000
_cell_angle_beta   90.00000000
_cell_angle_gamma   90.00000000
_symmetry_Int_Tables_number   1
_chemical_formula_structural   KMg6BiO8
_chemical_formula_sum   'K1 Mg6 Bi1 O8'
_cell_volume   191.21347650
_cell_formula_units_Z   1
loop_
 _symmetry_equiv_pos_site_id
 _symmetry_equiv_pos_as_xyz
  1  'x, y, z'
loop_
 _atom_site_type_symbol
 _atom_site_label
 _atom_site_symmetry_multiplicity
 _atom_site_fract_x
 _atom_site_fract_y
 _atom_site_fract_z
 _atom_site_occupancy
  K  K0  1  0.00000000  0.00000000  -0.00000000  1
  Mg  Mg0  1  0.50000000  0.00000000  -0.00000000  1
  Mg  Mg1  1  0.50000000  0.50000000  0.50000000  1
  Mg  Mg2  1  0.27098675  0.00000000  0.50000000  1
  Mg  Mg3  1  0.72901325  0.00000000  0.50000000  1
  Mg  Mg4  1  0.27098675  0.50000000  -0.00000000  1
  Mg  Mg5  1  0.72901325  0.50000000  0.00000000  1
  Bi  Bi0  1  0.00000000  0.50000000  0.50000000  1
  O  O0  1  0.27931664  0.00000000  -0.00000000  1
  O  O1  1  0.72068336  0.00000000  0.00000000  1
  O  O2  1  0.27000665  0.50000000  0.50000000  1
  O  O3  1  0.72999335  0.50000000  0.50000000  1
  O  O4  1  0.00000000  0.00000000  0.50000000  1
  O  O5  1  0.50000000  0.00000000  0.50000000  1
  O  O6  1  0.00000000  0.50000000  -0.00000000  1
  O  O7  1  0.50000000  0.50000000  -0.00000000  1
loop_
_geom_bond_atom_site_label_1
_geom_bond_atom_site_label_2
_geom_bond_distance
_geom_bond_site_symmetry_2
K0 O6 2.300744 1_545
K0 O6 2.300744 1_555
K0 O4 2.300744 1_555
K0 O4 2.300744 1_554
K0 O0 2.522427 1_555
K0 O1 2.522427 1_455
Mg0 O0 1.992927 1_555
Mg0 O1 1.992927 1_555
Mg0 O7 2.300744 1_555
Mg0 O5 2.300744 1_554
Mg0 O5 2.300744 1_555
Mg0 O7 2.300744 1_545
Mg1 O2 2.077002 1_555
Mg1 O3 2.077002 1_555
Mg1 O7 2.300744 1_555
Mg1 O7 2.300744 1_556
Mg1 O5 2.300744 1_555
Mg1 O5 2.300744 1_565
Mg2 O5 2.068151 1_555
Mg2 O2 2.300762 1_555
Mg2 O2 2.300762 1_545
Mg2 O0 2.301974 1_556
Mg2 O0 2.301974 1_555
Mg2 O4 2.447202 1_555
Mg3 O5 2.068151 1_555
Mg3 O3 2.300762 1_545
Mg3 O3 2.300762 1_555
Mg3 O1 2.301974 1_555
Mg3 O1 2.301974 1_556
Mg3 O4 2.447202 1_655
Mg4 O7 2.068151 1_555
Mg4 O2 2.300762 1_554
Mg4 O2 2.300762 1_555
Mg4 O0 2.301974 1_565
Mg4 O0 2.301974 1_555
Mg4 O6 2.447202 1_555
Mg5 O7 2.068151 1_555
Mg5 O3 2.300762 1_554
Mg5 O3 2.300762 1_555
Mg5 O1 2.301974 1_555
Mg5 O1 2.301974 1_565
Mg5 O6 2.447202 1_655
Bi0 O4 2.300744 1_565
Bi0 O6 2.300744 1_556
Bi0 O6 2.300744 1_555
Bi0 O4 2.300744 1_555
Bi0 O2 2.438351 1_555
Bi0 O3 2.438351 1_455
