# generated using pymatgen
data_Ru2C10S5Cl4O5
_symmetry_space_group_name_H-M   'P 1'
_cell_length_a   17.20955200
_cell_length_b   11.66939100
_cell_length_c   15.98127805
_cell_angle_alpha   66.03869882
_cell_angle_beta   90.00000000
_cell_angle_gamma   90.00000000
_symmetry_Int_Tables_number   1
_chemical_formula_structural   Ru2C10S5Cl4O5
_chemical_formula_sum   'Ru8 C40 S20 Cl16 O20'
_cell_volume   2932.85038089
_cell_formula_units_Z   4
loop_
 _symmetry_equiv_pos_site_id
 _symmetry_equiv_pos_as_xyz
  1  'x, y, z'
loop_
 _atom_site_type_symbol
 _atom_site_label
 _atom_site_symmetry_multiplicity
 _atom_site_fract_x
 _atom_site_fract_y
 _atom_site_fract_z
 _atom_site_occupancy
  Ru  Ru0  1  0.51031200  0.16627100  0.22421700  1
  Ru  Ru1  1  0.98968800  0.16627100  0.72421700  1
  Ru  Ru2  1  0.48968800  0.83372900  0.77578300  1
  Ru  Ru3  1  0.01031200  0.83372900  0.27578300  1
  Ru  Ru4  1  0.39672200  0.32263400  0.30373100  1
  Ru  Ru5  1  0.10327800  0.32263400  0.80373100  1
  Ru  Ru6  1  0.60327800  0.67736600  0.69626900  1
  Ru  Ru7  1  0.89672200  0.67736600  0.19626900  1
  C  C0  1  0.65697500  0.07044800  0.37588800  1
  C  C1  1  0.84302500  0.07044800  0.87588800  1
  C  C2  1  0.34302500  0.92955200  0.62411200  1
  C  C3  1  0.15697500  0.92955200  0.12411200  1
  C  C4  1  0.66150000  0.98036500  0.45556600  1
  C  C5  1  0.83850000  0.98036500  0.95556600  1
  C  C6  1  0.33850000  0.01963500  0.54443400  1
  C  C7  1  0.16150000  0.01963500  0.04443400  1
  C  C8  1  0.40039500  0.92660500  0.22452300  1
  C  C9  1  0.09960500  0.92660500  0.72452300  1
  C  C10  1  0.59960500  0.07339500  0.77547700  1
  C  C11  1  0.90039500  0.07339500  0.27547700  1
  C  C12  1  0.34074100  0.89708900  0.18866800  1
  C  C13  1  0.15925900  0.89708900  0.68866800  1
  C  C14  1  0.65925900  0.10291100  0.81133200  1
  C  C15  1  0.84074100  0.10291100  0.31133200  1
  C  C16  1  0.52532600  0.36699800  0.99054200  1
  C  C17  1  0.97467400  0.36699800  0.49054200  1
  C  C18  1  0.47467400  0.63300200  0.00945800  1
  C  C19  1  0.02532600  0.63300200  0.50945800  1
  C  C20  1  0.59635700  0.36472500  0.01608300  1
  C  C21  1  0.90364300  0.36472500  0.51608300  1
  C  C22  1  0.40364300  0.63527500  0.98391700  1
  C  C23  1  0.09635700  0.63527500  0.48391700  1
  C  C24  1  0.21822000  0.20884100  0.33488000  1
  C  C25  1  0.28178000  0.20884100  0.83488000  1
  C  C26  1  0.78178000  0.79115900  0.66512000  1
  C  C27  1  0.71822000  0.79115900  0.16512000  1
  C  C28  1  0.18052100  0.12669100  0.31741500  1
  C  C29  1  0.31947900  0.12669100  0.81741500  1
  C  C30  1  0.81947900  0.87330900  0.68258500  1
  C  C31  1  0.68052100  0.87330900  0.18258500  1
  C  C32  1  0.42643200  0.52986600  0.39807700  1
  C  C33  1  0.07356800  0.52986600  0.89807700  1
  C  C34  1  0.57356800  0.47013400  0.60192300  1
  C  C35  1  0.92643200  0.47013400  0.10192300  1
  C  C36  1  0.39219200  0.62468900  0.40334500  1
  C  C37  1  0.10780800  0.62468900  0.90334500  1
  C  C38  1  0.60780800  0.37531100  0.59665500  1
  C  C39  1  0.89219200  0.37531100  0.09665500  1
  S  S0  1  0.63409400  0.11695800  0.26993200  1
  S  S1  1  0.86590600  0.11695800  0.76993200  1
  S  S2  1  0.36590600  0.88304200  0.73006800  1
  S  S3  1  0.13409400  0.88304200  0.23006800  1
  S  S4  1  0.48395900  0.96672100  0.24587400  1
  S  S5  1  0.01604100  0.96672100  0.74587400  1
  S  S6  1  0.51604100  0.03327900  0.75412600  1
  S  S7  1  0.98395900  0.03327900  0.25412600  1
  S  S8  1  0.54779100  0.22077900  0.07723700  1
  S  S9  1  0.95220900  0.22077900  0.57723700  1
  S  S10  1  0.45220900  0.77922100  0.92276300  1
  S  S11  1  0.04779100  0.77922100  0.42276300  1
  S  S12  1  0.28406900  0.27264800  0.37255500  1
  S  S13  1  0.21593100  0.27264800  0.87255500  1
  S  S14  1  0.71593100  0.72735200  0.62744500  1
  S  S15  1  0.78406900  0.72735200  0.12744500  1
  S  S16  1  0.43390200  0.38834900  0.40764000  1
  S  S17  1  0.06609800  0.38834900  0.90764000  1
  S  S18  1  0.56609800  0.61165100  0.59236000  1
  S  S19  1  0.93390200  0.61165100  0.09236000  1
  Cl  Cl0  1  0.52222400  0.37594100  0.21897600  1
  Cl  Cl1  1  0.97777600  0.37594100  0.71897600  1
  Cl  Cl2  1  0.47777600  0.62405900  0.78102400  1
  Cl  Cl3  1  0.02222400  0.62405900  0.28102400  1
  Cl  Cl4  1  0.46390700  0.12243100  0.37766100  1
  Cl  Cl5  1  0.03609300  0.12243100  0.87766100  1
  Cl  Cl6  1  0.53609300  0.87756900  0.62233900  1
  Cl  Cl7  1  0.96390700  0.87756900  0.12233900  1
  Cl  Cl8  1  0.37691000  0.23539200  0.18821500  1
  Cl  Cl9  1  0.12309000  0.23539200  0.68821500  1
  Cl  Cl10  1  0.62309000  0.76460800  0.81178500  1
  Cl  Cl11  1  0.87691000  0.76460800  0.31178500  1
  Cl  Cl12  1  0.34995200  0.51864200  0.20354500  1
  Cl  Cl13  1  0.15004800  0.51864200  0.70354500  1
  Cl  Cl14  1  0.65004800  0.48135800  0.79645500  1
  Cl  Cl15  1  0.84995200  0.48135800  0.29645500  1
  O  O0  1  0.69517100  0.12077800  0.20584500  1
  O  O1  1  0.80482900  0.12077800  0.70584500  1
  O  O2  1  0.30482900  0.87922200  0.79415500  1
  O  O3  1  0.19517100  0.87922200  0.29415500  1
  O  O4  1  0.54310200  0.86922100  0.28263200  1
  O  O5  1  0.95689800  0.86922100  0.78263200  1
  O  O6  1  0.45689800  0.13077900  0.71736800  1
  O  O7  1  0.04310200  0.13077900  0.21736800  1
  O  O8  1  0.56329700  0.11798100  0.05035400  1
  O  O9  1  0.93670300  0.11798100  0.55035400  1
  O  O10  1  0.43670300  0.88201900  0.94964600  1
  O  O11  1  0.06329700  0.88201900  0.44964600  1
  O  O12  1  0.26036900  0.31190300  0.44477500  1
  O  O13  1  0.23963100  0.31190300  0.94477500  1
  O  O14  1  0.73963100  0.68809700  0.55522500  1
  O  O15  1  0.76036900  0.68809700  0.05522500  1
  O  O16  1  0.46604400  0.29857600  0.49398200  1
  O  O17  1  0.03395600  0.29857600  0.99398200  1
  O  O18  1  0.53395600  0.70142400  0.50601800  1
  O  O19  1  0.96604400  0.70142400  0.00601800  1
loop_
_geom_bond_atom_site_label_1
_geom_bond_atom_site_label_2
_geom_bond_distance
_geom_bond_site_symmetry_2
Ru0 S0 2.249736 1_555
Ru0 S4 2.256845 1_545
Ru0 S8 2.263739 1_555
Ru1 S1 2.249736 1_555
Ru1 S5 2.256845 1_645
Ru1 S9 2.263739 1_555
Ru2 S2 2.249736 1_555
Ru2 S6 2.256845 1_565
Ru2 S10 2.263739 1_555
Ru3 S3 2.249736 1_555
Ru3 S7 2.256845 1_465
Ru3 S11 2.263739 1_555
Ru4 S12 2.188034 1_555
Ru4 S16 2.188469 1_555
Ru5 S13 2.188034 1_555
Ru5 S17 2.188469 1_555
Ru6 S14 2.188034 1_555
Ru6 S18 2.188469 1_555
Ru7 S15 2.188034 1_555
Ru7 S19 2.188469 1_555
C0 C4 1.282697 1_545
C0 S0 1.603265 1_555
C1 C5 1.282697 1_545
C1 S1 1.603265 1_555
C2 C6 1.282697 1_565
C2 S2 1.603265 1_555
C3 C7 1.282697 1_565
C3 S3 1.603265 1_555
C8 S4 1.591680 1_555
C9 S5 1.591680 1_555
C10 C14 1.288885 1_555
C10 S6 1.591680 1_555
C11 C15 1.288885 1_555
C11 S7 1.591680 1_555
C12 C8 1.288885 1_555
C13 C9 1.288885 1_555
C16 C20 1.285616 1_556
C16 S8 1.749373 1_556
C17 C21 1.285616 1_555
C17 S9 1.749373 1_555
C18 C22 1.285616 1_554
C18 S10 1.749373 1_554
C19 C23 1.285616 1_555
C19 S11 1.749373 1_555
C20 S8 1.772538 1_555
C21 S9 1.772538 1_555
C22 S10 1.772538 1_555
C23 S11 1.772538 1_555
C24 C28 1.278728 1_555
C24 S12 1.601650 1_555
C25 C29 1.278728 1_555
C25 S13 1.601650 1_555
C26 C30 1.278728 1_555
C26 S14 1.601650 1_555
C27 C31 1.278728 1_555
C27 S15 1.601650 1_555
C32 C36 1.286226 1_555
C32 S16 1.600645 1_555
C33 C37 1.286226 1_555
C33 S17 1.600645 1_555
C34 C38 1.286226 1_555
C34 S18 1.600645 1_555
C35 C39 1.286226 1_555
C35 S19 1.600645 1_555
Cl0 Ru0 2.422608 1_555
Cl0 Ru4 2.490405 1_555
Cl1 Ru1 2.422608 1_555
Cl1 Ru5 2.490405 1_655
Cl2 Ru2 2.422608 1_555
Cl2 Ru6 2.490405 1_555
Cl3 Ru3 2.422608 1_555
Cl3 Ru7 2.490405 1_455
Cl4 Ru0 2.427748 1_555
Cl4 Ru4 2.439024 1_555
Cl5 Ru1 2.427748 1_455
Cl5 Ru5 2.439024 1_555
Cl6 Ru2 2.427748 1_555
Cl6 Ru6 2.439024 1_555
Cl7 Ru3 2.427748 1_655
Cl7 Ru7 2.439024 1_555
Cl8 Ru0 2.423910 1_555
Cl8 Ru4 2.467248 1_555
Cl9 Ru1 2.423910 1_455
Cl9 Ru5 2.467248 1_555
Cl10 Ru2 2.423910 1_555
Cl10 Ru6 2.467248 1_555
Cl11 Ru3 2.423910 1_655
Cl11 Ru7 2.467248 1_555
Cl12 Ru4 2.338485 1_555
Cl13 Ru5 2.338485 1_555
Cl14 Ru6 2.338485 1_555
Cl15 Ru7 2.338485 1_555
O0 S0 1.455576 1_555
O1 S1 1.455576 1_555
O2 S2 1.455576 1_555
O3 S3 1.455576 1_555
O4 S4 1.460372 1_555
O5 S5 1.460372 1_655
O6 S6 1.460372 1_555
O7 S7 1.460372 1_455
O8 S8 1.453757 1_555
O9 S9 1.453757 1_555
O10 S10 1.453757 1_555
O11 S11 1.453757 1_555
O12 S12 1.462098 1_555
O13 S13 1.462098 1_555
O14 S14 1.462098 1_555
O15 S15 1.462098 1_555
O16 S16 1.460588 1_555
O17 S17 1.460588 1_555
O18 S18 1.460588 1_555
O19 S19 1.460588 1_555
