# generated using pymatgen
data_AlAu
_symmetry_space_group_name_H-M   'P 1'
_cell_length_a   3.50319356
_cell_length_b   6.26940823
_cell_length_c   6.26984198
_cell_angle_alpha   91.51814354
_cell_angle_beta   90.00000000
_cell_angle_gamma   90.00000000
_symmetry_Int_Tables_number   1
_chemical_formula_structural   AlAu
_chemical_formula_sum   'Al4 Au4'
_cell_volume   137.65589294
_cell_formula_units_Z   4
loop_
 _symmetry_equiv_pos_site_id
 _symmetry_equiv_pos_as_xyz
  1  'x, y, z'
loop_
 _atom_site_type_symbol
 _atom_site_label
 _atom_site_symmetry_multiplicity
 _atom_site_fract_x
 _atom_site_fract_y
 _atom_site_fract_z
 _atom_site_occupancy
  Al  Al0  1  0.25000000  0.56215558  0.82352195  1
  Al  Al1  1  0.75000000  0.43784442  0.17647805  1
  Al  Al2  1  0.25000000  0.92165436  0.32204925  1
  Al  Al3  1  0.75000000  0.07834564  0.67795075  1
  Au  Au0  1  0.25000000  0.31108381  0.48524910  1
  Au  Au1  1  0.75000000  0.68891619  0.51475090  1
  Au  Au2  1  0.25000000  0.18680419  -0.00009595  1
  Au  Au3  1  0.75000000  0.81319581  0.00009595  1
loop_
_geom_bond_atom_site_label_1
_geom_bond_atom_site_label_2
_geom_bond_distance
_geom_bond_site_symmetry_2
Al0 Au3 2.584278 1_556
Al0 Au3 2.584278 1_456
Al0 Au0 2.607507 1_555
Al0 Au2 2.626515 1_556
Al0 Au1 2.743915 1_555
Al0 Au1 2.743915 1_455
Al1 Au2 2.584278 1_555
Al1 Au2 2.584278 1_655
Al1 Au1 2.607507 1_555
Al1 Au3 2.626515 1_555
Al1 Au0 2.743915 1_555
Al1 Au0 2.743915 1_655
Al2 Au1 2.598141 1_555
Al2 Au1 2.598141 1_455
Al2 Au0 2.622122 1_565
Al2 Au2 2.649688 1_565
Al2 Au3 2.744532 1_455
Al2 Au3 2.744532 1_555
Al3 Au0 2.598141 1_555
Al3 Au0 2.598141 1_655
Al3 Au1 2.622122 1_545
Al3 Au3 2.649688 1_546
Al3 Au2 2.744532 1_656
Al3 Au2 2.744532 1_556
