# generated using pymatgen
data_LiNi(PO3)5
_symmetry_space_group_name_H-M   'P 1'
_cell_length_a   13.65053200
_cell_length_b   9.02593900
_cell_length_c   10.21285400
_cell_angle_alpha   79.43181964
_cell_angle_beta   90.00000000
_cell_angle_gamma   90.00000000
_symmetry_Int_Tables_number   1
_chemical_formula_structural   LiNi(PO3)5
_chemical_formula_sum   'Li4 Ni4 P20 O60'
_cell_volume   1236.96985726
_cell_formula_units_Z   4
loop_
 _symmetry_equiv_pos_site_id
 _symmetry_equiv_pos_as_xyz
  1  'x, y, z'
loop_
 _atom_site_type_symbol
 _atom_site_label
 _atom_site_symmetry_multiplicity
 _atom_site_fract_x
 _atom_site_fract_y
 _atom_site_fract_z
 _atom_site_occupancy
  Li  Li0  1  0.89643800  0.10048500  0.71726900  1
  Li  Li1  1  0.39643800  0.89951500  0.78273100  1
  Li  Li2  1  0.10356200  0.89951500  0.28273100  1
  Li  Li3  1  0.60356200  0.10048500  0.21726900  1
  Ni  Ni0  1  0.50000000  0.50000000  0.00000000  1
  Ni  Ni1  1  0.50000000  0.50000000  0.50000000  1
  Ni  Ni2  1  0.00000000  0.50000000  0.00000000  1
  Ni  Ni3  1  0.00000000  0.50000000  0.50000000  1
  P  P0  1  0.57225900  0.80324900  0.58847300  1
  P  P1  1  0.25086000  0.00115900  0.52013300  1
  P  P2  1  0.85852700  0.52086800  0.75010700  1
  P  P3  1  0.92774100  0.80324900  0.08847300  1
  P  P4  1  0.08299400  0.18937900  0.42557300  1
  P  P5  1  0.14147300  0.47913200  0.24989300  1
  P  P6  1  0.36154000  0.48012000  0.24574900  1
  P  P7  1  0.35852700  0.47913200  0.74989300  1
  P  P8  1  0.07225900  0.19675100  0.91152700  1
  P  P9  1  0.41700600  0.18937900  0.92557300  1
  P  P10  1  0.58299400  0.81062100  0.07442700  1
  P  P11  1  0.75086000  0.99884100  0.97986700  1
  P  P12  1  0.24914000  0.00115900  0.02013300  1
  P  P13  1  0.64147300  0.52086800  0.25010700  1
  P  P14  1  0.42774100  0.19675100  0.41152700  1
  P  P15  1  0.91700600  0.81062100  0.57442700  1
  P  P16  1  0.86154000  0.51988000  0.25425100  1
  P  P17  1  0.63846000  0.51988000  0.75425100  1
  P  P18  1  0.74914000  0.99884100  0.47986700  1
  P  P19  1  0.13846000  0.48012000  0.74574900  1
  O  O0  1  0.62518400  0.50628500  0.39832300  1
  O  O1  1  0.14301600  0.30263200  0.80837500  1
  O  O2  1  0.64691000  0.69538900  0.18179900  1
  O  O3  1  0.07241700  0.56284100  0.82390600  1
  O  O4  1  0.14691000  0.30461100  0.31820100  1
  O  O5  1  0.42758300  0.56284100  0.32390600  1
  O  O6  1  0.98815200  0.72280600  0.50481300  1
  O  O7  1  0.73208000  0.07862000  0.09503900  1
  O  O8  1  0.15304700  0.10352300  0.00470000  1
  O  O9  1  0.01495700  0.28643500  0.99745600  1
  O  O10  1  0.16904800  0.12605900  0.53224500  1
  O  O11  1  0.92231400  0.43146900  0.67352900  1
  O  O12  1  0.42231400  0.56853100  0.82647100  1
  O  O13  1  0.35698400  0.30263200  0.30837500  1
  O  O14  1  0.98504300  0.71356500  0.00254400  1
  O  O15  1  0.07768600  0.56853100  0.32647100  1
  O  O16  1  0.84695300  0.89647700  0.99530000  1
  O  O17  1  0.37560900  0.49638500  0.09645700  1
  O  O18  1  0.85698400  0.69736800  0.19162500  1
  O  O19  1  0.25196800  0.53062300  0.26814300  1
  O  O20  1  0.76792000  0.07862000  0.59503900  1
  O  O21  1  0.57768600  0.43146900  0.17352900  1
  O  O22  1  0.75196800  0.46937700  0.23185700  1
  O  O23  1  0.66904800  0.87394100  0.96775500  1
  O  O24  1  0.48815200  0.27719400  0.99518700  1
  O  O25  1  0.12518400  0.49371500  0.10167700  1
  O  O26  1  0.57241700  0.43715900  0.67609400  1
  O  O27  1  0.48504300  0.28643500  0.49745600  1
  O  O28  1  0.34695300  0.10352300  0.50470000  1
  O  O29  1  0.73698800  0.10738100  0.34918100  1
  O  O30  1  0.99032800  0.90131100  0.15588600  1
  O  O31  1  0.01184800  0.27719400  0.49518700  1
  O  O32  1  0.62439100  0.50361500  0.90354300  1
  O  O33  1  0.37481600  0.49371500  0.60167700  1
  O  O34  1  0.50967200  0.90131100  0.65588600  1
  O  O35  1  0.24803200  0.53062300  0.76814300  1
  O  O36  1  0.26792000  0.92138000  0.90496100  1
  O  O37  1  0.54505300  0.93325100  0.13939200  1
  O  O38  1  0.33095200  0.12605900  0.03224500  1
  O  O39  1  0.64301600  0.69736800  0.69162500  1
  O  O40  1  0.04505300  0.06674900  0.36060800  1
  O  O41  1  0.65304700  0.89647700  0.49530000  1
  O  O42  1  0.49032800  0.09868900  0.34411400  1
  O  O43  1  0.23698800  0.89261900  0.15081900  1
  O  O44  1  0.51184800  0.72280600  0.00481300  1
  O  O45  1  0.23208000  0.92138000  0.40496100  1
  O  O46  1  0.26301200  0.89261900  0.65081900  1
  O  O47  1  0.00967200  0.09868900  0.84411400  1
  O  O48  1  0.51495700  0.71356500  0.50254400  1
  O  O49  1  0.87560900  0.50361500  0.40354300  1
  O  O50  1  0.87481600  0.50628500  0.89832300  1
  O  O51  1  0.95494700  0.93325100  0.63939200  1
  O  O52  1  0.74803200  0.46937700  0.73185700  1
  O  O53  1  0.92758300  0.43715900  0.17609400  1
  O  O54  1  0.76301200  0.10738100  0.84918100  1
  O  O55  1  0.45494700  0.06674900  0.86060800  1
  O  O56  1  0.83095200  0.87394100  0.46775500  1
  O  O57  1  0.12439100  0.49638500  0.59645700  1
  O  O58  1  0.35309000  0.30461100  0.81820100  1
  O  O59  1  0.85309000  0.69538900  0.68179900  1
loop_
_geom_bond_atom_site_label_1
_geom_bond_atom_site_label_2
_geom_bond_distance
_geom_bond_site_symmetry_2
Li0 O51 1.997311 1_545
Li0 O47 2.014932 1_655
Li0 O20 2.182960 1_555
Li0 O54 2.273068 1_555
Li1 O55 1.997311 1_565
Li1 O34 2.014932 1_555
Li1 O36 2.182960 1_555
Li1 O46 2.273068 1_555
Li2 O40 1.997311 1_565
Li2 O30 2.014932 1_455
Li2 O45 2.182960 1_555
Li2 O43 2.273068 1_555
Li3 O37 1.997311 1_545
Li3 O42 2.014932 1_555
Li3 O7 2.182960 1_555
Li3 O29 2.273068 1_555
Ni0 O17 1.960335 1_555
Ni0 O32 1.960335 1_554
Ni0 O44 2.027089 1_555
Ni0 O24 2.027089 1_554
Ni0 O12 2.060548 1_554
Ni0 O21 2.060548 1_555
Ni1 O48 1.943314 1_555
Ni1 O27 1.943314 1_555
Ni1 O0 1.994995 1_555
Ni1 O33 1.994995 1_555
Ni1 O26 2.039377 1_555
Ni1 O5 2.039377 1_555
Ni2 O14 1.943314 1_455
Ni2 O9 1.943314 1_554
Ni2 O50 1.994995 1_454
Ni2 O25 1.994995 1_555
Ni2 O3 2.039377 1_554
Ni2 O53 2.039377 1_455
Ni3 O57 1.960335 1_555
Ni3 O49 1.960335 1_455
Ni3 O6 2.027089 1_455
Ni3 O31 2.027089 1_555
Ni3 O15 2.060548 1_555
Ni3 O11 2.060548 1_455
O0 P13 1.511620 1_555
O1 P8 1.608333 1_555
O1 P19 1.613534 1_555
O2 P13 1.603246 1_555
O2 P10 1.620838 1_555
O3 P19 1.491960 1_555
O4 P5 1.603246 1_555
O4 P4 1.620838 1_555
O5 P6 1.491960 1_555
O6 P15 1.511156 1_555
O7 P11 1.509452 1_544
O8 P8 1.592482 1_554
O8 P12 1.595520 1_555
O9 P8 1.515859 1_555
O10 P1 1.607650 1_555
O10 P4 1.632476 1_555
O11 P2 1.500800 1_555
O12 P7 1.500800 1_555
O13 P14 1.608333 1_555
O13 P6 1.613534 1_555
O14 P3 1.515859 1_555
O15 P5 1.500800 1_555
O16 P3 1.592482 1_556
O16 P11 1.595520 1_555
O17 P6 1.516915 1_555
O18 P3 1.608333 1_555
O18 P16 1.613534 1_555
O19 P6 1.592326 1_555
O19 P5 1.599227 1_555
O20 P18 1.509452 1_545
O21 P13 1.500800 1_555
O22 P16 1.592326 1_555
O22 P13 1.599227 1_555
O23 P11 1.607650 1_555
O23 P10 1.632476 1_556
O24 P9 1.511156 1_555
O25 P5 1.511620 1_555
O26 P17 1.491960 1_555
O27 P14 1.515859 1_555
O28 P14 1.592482 1_555
O28 P1 1.595520 1_555
O29 P18 1.512951 1_545
O30 P3 1.486889 1_555
O31 P4 1.511156 1_555
O32 P17 1.516915 1_555
O33 P7 1.511620 1_555
O34 P0 1.486889 1_555
O35 P19 1.592326 1_555
O35 P7 1.599227 1_555
O36 P12 1.509452 1_566
O37 P10 1.484228 1_555
O38 P12 1.607650 1_555
O38 P9 1.632476 1_554
O39 P0 1.608333 1_555
O39 P17 1.613534 1_555
O40 P4 1.484228 1_555
O41 P0 1.592482 1_555
O41 P18 1.595520 1_555
O42 P14 1.486889 1_555
O43 P12 1.512951 1_565
O44 P10 1.511156 1_555
O45 P1 1.509452 1_565
O46 P1 1.512951 1_565
O47 P8 1.486889 1_555
O48 P0 1.515859 1_555
O49 P16 1.516915 1_555
O50 P2 1.511620 1_555
O51 P15 1.484228 1_555
O52 P17 1.592326 1_555
O52 P2 1.599227 1_555
O53 P16 1.491960 1_555
O54 P11 1.512951 1_545
O55 P9 1.484228 1_555
O56 P18 1.607650 1_555
O56 P15 1.632476 1_555
O57 P19 1.516915 1_555
O58 P7 1.603246 1_555
O58 P9 1.620838 1_555
O59 P2 1.603246 1_555
O59 P15 1.620838 1_555
