# generated using pymatgen
data_U2PtC2
_symmetry_space_group_name_H-M   'P 1'
_cell_length_a   6.77877216
_cell_length_b   6.77877216
_cell_length_c   6.77877216
_cell_angle_alpha   149.66981749
_cell_angle_beta   149.66981749
_cell_angle_gamma   43.42629159
_symmetry_Int_Tables_number   1
_chemical_formula_structural   U2PtC2
_chemical_formula_sum   'U2 Pt1 C2'
_cell_volume   79.21920706
_cell_formula_units_Z   1
loop_
 _symmetry_equiv_pos_site_id
 _symmetry_equiv_pos_as_xyz
  1  'x, y, z'
loop_
 _atom_site_type_symbol
 _atom_site_label
 _atom_site_symmetry_multiplicity
 _atom_site_fract_x
 _atom_site_fract_y
 _atom_site_fract_z
 _atom_site_occupancy
  U  U0  1  0.64918486  0.64918486  -0.00000000  1
  U  U1  1  0.35081514  0.35081514  0.00000000  1
  Pt  Pt0  1  -0.00000000  -0.00000000  0.00000000  1
  C  C0  1  0.83253167  0.83253167  -0.00000000  1
  C  C1  1  0.16746833  0.16746833  0.00000000  1
loop_
_geom_bond_atom_site_label_1
_geom_bond_atom_site_label_2
_geom_bond_distance
_geom_bond_site_symmetry_2
C0 Pt0 2.109365 1_665
C0 U0 2.309364 1_555
C0 U1 2.518425 1_655
C0 U1 2.518425 1_565
C0 U1 2.518425 1_666
C0 U1 2.518425 1_554
C1 Pt0 2.109365 1_555
C1 U1 2.309364 1_555
C1 U0 2.518425 1_455
C1 U0 2.518425 1_556
C1 U0 2.518425 1_545
C1 U0 2.518425 1_444
