# generated using pymatgen
data_InSiN2
_symmetry_space_group_name_H-M   'P 1'
_cell_length_a   5.55055600
_cell_length_b   10.32567700
_cell_length_c   13.91025300
_cell_angle_alpha   90.00000000
_cell_angle_beta   90.00000000
_cell_angle_gamma   90.00000000
_symmetry_Int_Tables_number   1
_chemical_formula_structural   InSiN2
_chemical_formula_sum   'In16 Si16 N32'
_cell_volume   797.24178586
_cell_formula_units_Z   16
loop_
 _symmetry_equiv_pos_site_id
 _symmetry_equiv_pos_as_xyz
  1  'x, y, z'
loop_
 _atom_site_type_symbol
 _atom_site_label
 _atom_site_symmetry_multiplicity
 _atom_site_fract_x
 _atom_site_fract_y
 _atom_site_fract_z
 _atom_site_occupancy
  In  In0  1  0.77631200  0.00030300  0.42339800  1
  In  In1  1  0.27631200  0.49969700  0.57660200  1
  In  In2  1  0.22368800  0.50030300  0.07660200  1
  In  In3  1  0.72368800  0.99969700  0.92339800  1
  In  In4  1  0.22368800  0.99969700  0.57660200  1
  In  In5  1  0.72368800  0.50030300  0.42339800  1
  In  In6  1  0.77631200  0.49969700  0.92339800  1
  In  In7  1  0.27631200  0.00030300  0.07660200  1
  In  In8  1  0.88891300  0.23028700  0.32013900  1
  In  In9  1  0.38891300  0.26971300  0.67986100  1
  In  In10  1  0.11108700  0.73028700  0.17986100  1
  In  In11  1  0.61108700  0.76971300  0.82013900  1
  In  In12  1  0.11108700  0.76971300  0.67986100  1
  In  In13  1  0.61108700  0.73028700  0.32013900  1
  In  In14  1  0.88891300  0.26971300  0.82013900  1
  In  In15  1  0.38891300  0.23028700  0.17986100  1
  Si  Si0  1  0.79930400  0.99506400  0.18668400  1
  Si  Si1  1  0.29930400  0.50493600  0.81331600  1
  Si  Si2  1  0.20069600  0.49506400  0.31331600  1
  Si  Si3  1  0.70069600  0.00493600  0.68668400  1
  Si  Si4  1  0.20069600  0.00493600  0.81331600  1
  Si  Si5  1  0.70069600  0.49506400  0.18668400  1
  Si  Si6  1  0.79930400  0.50493600  0.68668400  1
  Si  Si7  1  0.29930400  0.99506400  0.31331600  1
  Si  Si8  1  0.83893500  0.26454300  0.06000400  1
  Si  Si9  1  0.33893500  0.23545700  0.93999600  1
  Si  Si10  1  0.16106500  0.76454300  0.43999600  1
  Si  Si11  1  0.66106500  0.73545700  0.56000400  1
  Si  Si12  1  0.16106500  0.73545700  0.93999600  1
  Si  Si13  1  0.66106500  0.76454300  0.06000400  1
  Si  Si14  1  0.83893500  0.23545700  0.56000400  1
  Si  Si15  1  0.33893500  0.26454300  0.43999600  1
  N  N0  1  0.42453400  0.44017200  0.23324200  1
  N  N1  1  0.92453400  0.05982800  0.76675800  1
  N  N2  1  0.57546600  0.94017200  0.26675800  1
  N  N3  1  0.07546600  0.55982800  0.73324200  1
  N  N4  1  0.57546600  0.55982800  0.76675800  1
  N  N5  1  0.07546600  0.94017200  0.23324200  1
  N  N6  1  0.42453400  0.05982800  0.73324200  1
  N  N7  1  0.92453400  0.44017200  0.26675800  1
  N  N8  1  0.65028600  0.29856500  0.46759100  1
  N  N9  1  0.15028600  0.20143500  0.53240900  1
  N  N10  1  0.34971400  0.79856500  0.03240900  1
  N  N11  1  0.84971400  0.70143500  0.96759100  1
  N  N12  1  0.34971400  0.70143500  0.53240900  1
  N  N13  1  0.84971400  0.79856500  0.46759100  1
  N  N14  1  0.65028600  0.20143500  0.96759100  1
  N  N15  1  0.15028600  0.29856500  0.03240900  1
  N  N16  1  0.71203700  0.41673700  0.07705600  1
  N  N17  1  0.21203700  0.08326300  0.92294400  1
  N  N18  1  0.28796300  0.91673700  0.42294400  1
  N  N19  1  0.78796300  0.58326300  0.57705600  1
  N  N20  1  0.28796300  0.58326300  0.92294400  1
  N  N21  1  0.78796300  0.91673700  0.07705600  1
  N  N22  1  0.71203700  0.08326300  0.57705600  1
  N  N23  1  0.21203700  0.41673700  0.42294400  1
  N  N24  1  0.80435300  0.16629600  0.16591900  1
  N  N25  1  0.30435300  0.33370400  0.83408100  1
  N  N26  1  0.19564700  0.66629600  0.33408100  1
  N  N27  1  0.69564700  0.83370400  0.66591900  1
  N  N28  1  0.19564700  0.83370400  0.83408100  1
  N  N29  1  0.69564700  0.66629600  0.16591900  1
  N  N30  1  0.80435300  0.33370400  0.66591900  1
  N  N31  1  0.30435300  0.16629600  0.33408100  1
loop_
_geom_bond_atom_site_label_1
_geom_bond_atom_site_label_2
_geom_bond_distance
_geom_bond_site_symmetry_2
In0 N13 2.209778 1_545
In0 N22 2.330160 1_555
In0 N2 2.525058 1_545
In1 N12 2.209778 1_555
In1 N23 2.330160 1_555
In1 N3 2.525058 1_555
In2 N15 2.209778 1_555
In2 N20 2.330160 1_554
In2 N0 2.525058 1_555
In3 N14 2.209778 1_565
In3 N21 2.330160 1_556
In3 N1 2.525058 1_565
In4 N9 2.209778 1_565
In4 N18 2.330160 1_555
In4 N6 2.525058 1_565
In5 N8 2.209778 1_555
In5 N19 2.330160 1_555
In5 N7 2.525058 1_555
In6 N11 2.209778 1_555
In6 N16 2.330160 1_556
In6 N4 2.525058 1_555
In7 N10 2.209778 1_545
In7 N17 2.330160 1_554
In7 N5 2.525058 1_545
In8 N24 2.293237 1_555
In8 N7 2.299400 1_555
In8 N31 2.406550 1_655
In8 N8 2.541333 1_555
In9 N25 2.293237 1_555
In9 N6 2.299400 1_555
In9 N30 2.406550 1_555
In9 N9 2.541333 1_555
In10 N26 2.293237 1_555
In10 N5 2.299400 1_555
In10 N29 2.406550 1_455
In10 N10 2.541333 1_555
In11 N27 2.293237 1_555
In11 N4 2.299400 1_555
In11 N28 2.406550 1_555
In11 N11 2.541333 1_555
In12 N28 2.293237 1_555
In12 N3 2.299400 1_555
In12 N27 2.406550 1_455
In12 N12 2.541333 1_555
In13 N29 2.293237 1_555
In13 N2 2.299400 1_555
In13 N26 2.406550 1_555
In13 N13 2.541333 1_555
In14 N30 2.293237 1_555
In14 N1 2.299400 1_555
In14 N25 2.406550 1_655
In14 N14 2.541333 1_555
In15 N31 2.293237 1_555
In15 N0 2.299400 1_555
In15 N24 2.406550 1_555
In15 N15 2.541333 1_555
N0 Si5 1.757932 1_555
N0 Si2 1.762254 1_555
N1 Si4 1.757932 1_655
N1 Si3 1.762254 1_555
N2 Si7 1.757932 1_555
N2 Si0 1.762254 1_555
N3 Si6 1.757932 1_455
N3 Si1 1.762254 1_555
N4 Si1 1.757932 1_555
N4 Si6 1.762254 1_555
N5 Si0 1.757932 1_455
N5 Si7 1.762254 1_555
N6 Si3 1.757932 1_555
N6 Si4 1.762254 1_555
N7 Si2 1.757932 1_655
N7 Si5 1.762254 1_555
N8 Si14 1.781443 1_555
N8 Si15 1.804808 1_555
N9 Si15 1.781443 1_555
N9 Si14 1.804808 1_455
N10 Si12 1.781443 1_554
N10 Si13 1.804808 1_555
N11 Si13 1.781443 1_556
N11 Si12 1.804808 1_655
N12 Si10 1.781443 1_555
N12 Si11 1.804808 1_555
N13 Si11 1.781443 1_555
N13 Si10 1.804808 1_655
N14 Si8 1.781443 1_556
N14 Si9 1.804808 1_555
N15 Si9 1.781443 1_554
N15 Si8 1.804808 1_455
N16 Si5 1.727301 1_555
N16 Si8 1.738393 1_555
N17 Si4 1.727301 1_555
N17 Si9 1.738393 1_555
N18 Si7 1.727301 1_555
N18 Si10 1.738393 1_555
N19 Si6 1.727301 1_555
N19 Si11 1.738393 1_555
N20 Si1 1.727301 1_555
N20 Si12 1.738393 1_555
N21 Si0 1.727301 1_555
N21 Si13 1.738393 1_555
N22 Si3 1.727301 1_555
N22 Si14 1.738393 1_555
N23 Si2 1.727301 1_555
N23 Si15 1.738393 1_555
N24 Si0 1.791744 1_545
N24 Si8 1.799059 1_555
N25 Si1 1.791744 1_555
N25 Si9 1.799059 1_555
N26 Si2 1.791744 1_555
N26 Si10 1.799059 1_555
N27 Si3 1.791744 1_565
N27 Si11 1.799059 1_555
N28 Si4 1.791744 1_565
N28 Si12 1.799059 1_555
N29 Si5 1.791744 1_555
N29 Si13 1.799059 1_555
N30 Si6 1.791744 1_555
N30 Si14 1.799059 1_555
N31 Si7 1.791744 1_545
N31 Si15 1.799059 1_555
