# generated using pymatgen
data_VCoNiPd
_symmetry_space_group_name_H-M   'P 1'
_cell_length_a   17.10905861
_cell_length_b   17.10905861
_cell_length_c   17.10905784
_cell_angle_alpha   17.70768560
_cell_angle_beta   17.70768560
_cell_angle_gamma   17.70769113
_symmetry_Int_Tables_number   1
_chemical_formula_structural   VCoNiPd
_chemical_formula_sum   'V8 Co8 Ni8 Pd8'
_cell_volume   404.44386597
_cell_formula_units_Z   8
loop_
 _symmetry_equiv_pos_site_id
 _symmetry_equiv_pos_as_xyz
  1  'x, y, z'
loop_
 _atom_site_type_symbol
 _atom_site_label
 _atom_site_symmetry_multiplicity
 _atom_site_fract_x
 _atom_site_fract_y
 _atom_site_fract_z
 _atom_site_occupancy
  V  V0_0  1  0.12706600  0.12706600  0.12706600  1
  V  V0_1  1  0.12706600  0.12706600  0.62706600  1
  V  V0_2  1  0.12706600  0.62706600  0.12706600  1
  V  V0_3  1  0.12706600  0.62706600  0.62706600  1
  V  V0_4  1  0.62706600  0.12706600  0.12706600  1
  V  V0_5  1  0.62706600  0.12706600  0.62706600  1
  V  V0_6  1  0.62706600  0.62706600  0.12706600  1
  V  V0_7  1  0.62706600  0.62706600  0.62706600  1
  Co  Co0_0  1  0.00030700  0.00030700  0.00030700  1
  Co  Co0_1  1  0.00030700  0.00030700  0.50030700  1
  Co  Co0_2  1  0.00030700  0.50030700  0.00030700  1
  Co  Co0_3  1  0.00030700  0.50030700  0.50030700  1
  Co  Co0_4  1  0.50030700  0.00030700  0.00030700  1
  Co  Co0_5  1  0.50030700  0.00030700  0.50030700  1
  Co  Co0_6  1  0.50030700  0.50030700  0.00030700  1
  Co  Co0_7  1  0.50030700  0.50030700  0.50030700  1
  Ni  Ni0_0  1  0.37272300  0.37272300  0.37272300  1
  Ni  Ni0_1  1  0.37272300  0.37272300  0.87272300  1
  Ni  Ni0_2  1  0.37272300  0.87272300  0.37272300  1
  Ni  Ni0_3  1  0.37272300  0.87272300  0.87272300  1
  Ni  Ni0_4  1  0.87272300  0.37272300  0.37272300  1
  Ni  Ni0_5  1  0.87272300  0.37272300  0.87272300  1
  Ni  Ni0_6  1  0.87272300  0.87272300  0.37272300  1
  Ni  Ni0_7  1  0.87272300  0.87272300  0.87272300  1
  Pd  Pd0_0  1  0.24990400  0.24990400  0.24990400  1
  Pd  Pd0_1  1  0.24990400  0.24990400  0.74990400  1
  Pd  Pd0_2  1  0.24990400  0.74990400  0.24990400  1
  Pd  Pd0_3  1  0.24990400  0.74990400  0.74990400  1
  Pd  Pd0_4  1  0.74990400  0.24990400  0.24990400  1
  Pd  Pd0_5  1  0.74990400  0.24990400  0.74990400  1
  Pd  Pd0_6  1  0.74990400  0.74990400  0.24990400  1
  Pd  Pd0_7  1  0.74990400  0.74990400  0.74990400  1
loop_
_geom_bond_atom_site_label_1
_geom_bond_atom_site_label_2
_geom_bond_distance
_geom_bond_site_symmetry_2
V0_0 V0_5 2.633331 1_455
V0_0 V0_3 2.633331 1_545
V0_0 V0_3 2.633331 1_554
V0_0 V0_5 2.633331 1_554
V0_0 V0_6 2.633332 1_545
V0_0 V0_6 2.633332 1_455
V0_1 V0_4 2.633331 1_555
V0_1 V0_2 2.633331 1_555
V0_1 V0_2 2.633331 1_546
V0_1 V0_4 2.633331 1_456
V0_1 V0_7 2.633332 1_455
V0_1 V0_7 2.633332 1_545
V0_2 V0_7 2.633331 1_455
V0_2 V0_7 2.633331 1_554
V0_2 V0_4 2.633332 1_555
V0_2 V0_4 2.633332 1_465
V0_3 V0_6 2.633331 1_555
V0_3 V0_6 2.633331 1_456
V0_3 V0_5 2.633332 1_465
V0_3 V0_5 2.633332 1_555
V0_4 V0_7 2.633331 1_545
V0_4 V0_7 2.633331 1_554
V0_5 V0_6 2.633331 1_555
V0_5 V0_6 2.633331 1_546
Co0_0 Ni0_6 2.491670 1_445
Co0_0 Ni0_3 2.491671 1_544
Co0_0 Ni0_5 2.491671 1_454
Co0_0 V0_1 2.524812 1_554
Co0_0 V0_4 2.524813 1_455
Co0_0 V0_2 2.524813 1_545
Co0_0 Co0_3 2.633331 1_554
Co0_0 Co0_5 2.633331 1_554
Co0_0 Co0_3 2.633331 1_545
Co0_0 Co0_5 2.633331 1_455
Co0_0 Co0_6 2.633332 1_545
Co0_0 Co0_6 2.633332 1_455
Co0_1 Ni0_7 2.491670 1_445
Co0_1 Ni0_4 2.491671 1_455
Co0_1 Ni0_2 2.491671 1_545
Co0_1 V0_0 2.524812 1_555
Co0_1 V0_5 2.524813 1_455
Co0_1 V0_3 2.524813 1_545
Co0_1 Co0_4 2.633331 1_456
Co0_1 Co0_2 2.633331 1_546
Co0_1 Co0_4 2.633331 1_555
Co0_1 Co0_2 2.633331 1_555
Co0_1 Co0_7 2.633332 1_455
Co0_1 Co0_7 2.633332 1_545
Co0_2 Ni0_4 2.491670 1_455
Co0_2 Ni0_7 2.491671 1_454
Co0_2 Ni0_1 2.491671 1_554
Co0_2 V0_3 2.524812 1_554
Co0_2 V0_0 2.524813 1_555
Co0_2 V0_6 2.524813 1_455
Co0_2 Co0_7 2.633331 1_455
Co0_2 Co0_7 2.633331 1_554
Co0_2 Co0_4 2.633332 1_555
Co0_2 Co0_4 2.633332 1_465
Co0_3 Ni0_5 2.491670 1_455
Co0_3 Ni0_0 2.491671 1_555
Co0_3 Ni0_6 2.491671 1_455
Co0_3 V0_2 2.524812 1_555
Co0_3 V0_7 2.524813 1_455
Co0_3 V0_1 2.524813 1_555
Co0_3 Co0_6 2.633331 1_456
Co0_3 Co0_6 2.633331 1_555
Co0_3 Co0_5 2.633332 1_555
Co0_3 Co0_5 2.633332 1_465
Co0_4 Ni0_2 2.491670 1_545
Co0_4 Ni0_7 2.491671 1_544
Co0_4 Ni0_1 2.491671 1_554
Co0_4 V0_5 2.524812 1_554
Co0_4 V0_0 2.524813 1_555
Co0_4 V0_6 2.524813 1_545
Co0_4 Co0_7 2.633331 1_545
Co0_4 Co0_7 2.633331 1_554
Co0_5 Ni0_3 2.491670 1_545
Co0_5 Ni0_0 2.491671 1_555
Co0_5 Ni0_6 2.491671 1_545
Co0_5 V0_4 2.524812 1_555
Co0_5 V0_7 2.524813 1_545
Co0_5 V0_1 2.524813 1_555
Co0_5 Co0_6 2.633331 1_546
Co0_5 Co0_6 2.633331 1_555
Co0_6 Ni0_0 2.491670 1_555
Co0_6 Ni0_5 2.491671 1_554
Co0_6 Ni0_3 2.491671 1_554
Co0_6 V0_7 2.524812 1_554
Co0_6 V0_2 2.524813 1_555
Co0_6 V0_4 2.524813 1_555
Co0_7 Ni0_1 2.491670 1_555
Co0_7 Ni0_2 2.491671 1_555
Co0_7 Ni0_4 2.491671 1_555
Co0_7 V0_6 2.524812 1_555
Co0_7 V0_3 2.524813 1_555
Co0_7 V0_5 2.524813 1_555
Ni0_0 Ni0_5 2.633331 1_554
Ni0_0 Ni0_3 2.633331 1_554
Ni0_0 Ni0_3 2.633331 1_545
Ni0_0 Ni0_5 2.633331 1_455
Ni0_0 Ni0_6 2.633332 1_455
Ni0_0 Ni0_6 2.633332 1_545
Ni0_0 Pd0_1 2.686370 1_555
Ni0_0 Pd0_4 2.686371 1_555
Ni0_0 Pd0_2 2.686371 1_555
Ni0_1 Ni0_4 2.633331 1_555
Ni0_1 Ni0_2 2.633331 1_555
Ni0_1 Ni0_4 2.633331 1_456
Ni0_1 Ni0_2 2.633331 1_546
Ni0_1 Ni0_7 2.633332 1_545
Ni0_1 Ni0_7 2.633332 1_455
Ni0_1 Pd0_0 2.686370 1_556
Ni0_1 Pd0_5 2.686371 1_555
Ni0_1 Pd0_3 2.686371 1_555
Ni0_2 Ni0_7 2.633331 1_554
Ni0_2 Ni0_7 2.633331 1_455
Ni0_2 Ni0_4 2.633332 1_555
Ni0_2 Ni0_4 2.633332 1_465
Ni0_2 Pd0_3 2.686370 1_555
Ni0_2 Pd0_0 2.686371 1_565
Ni0_2 Pd0_6 2.686371 1_555
Ni0_3 Ni0_6 2.633331 1_456
Ni0_3 Ni0_6 2.633331 1_555
Ni0_3 Ni0_5 2.633332 1_555
Ni0_3 Ni0_5 2.633332 1_465
Ni0_3 Pd0_2 2.686370 1_556
Ni0_3 Pd0_1 2.686371 1_565
Ni0_3 Pd0_7 2.686371 1_555
Ni0_4 Ni0_7 2.633331 1_554
Ni0_4 Ni0_7 2.633331 1_545
Ni0_4 Pd0_5 2.686370 1_555
Ni0_4 Pd0_0 2.686371 1_655
Ni0_4 Pd0_6 2.686371 1_555
Ni0_5 Ni0_6 2.633331 1_546
Ni0_5 Ni0_6 2.633331 1_555
Ni0_5 Pd0_4 2.686370 1_556
Ni0_5 Pd0_1 2.686371 1_655
Ni0_5 Pd0_7 2.686371 1_555
Ni0_6 Pd0_7 2.686370 1_555
Ni0_6 Pd0_2 2.686371 1_655
Ni0_6 Pd0_4 2.686371 1_565
Ni0_7 Pd0_6 2.686370 1_556
Ni0_7 Pd0_3 2.686371 1_655
Ni0_7 Pd0_5 2.686371 1_565
Pd0_0 Pd0_3 2.633331 1_545
Pd0_0 Pd0_5 2.633331 1_455
Pd0_0 Pd0_3 2.633331 1_554
Pd0_0 Pd0_5 2.633331 1_554
Pd0_0 Pd0_6 2.633332 1_545
Pd0_0 Pd0_6 2.633332 1_455
Pd0_0 V0_1 2.685579 1_555
Pd0_0 V0_4 2.685580 1_555
Pd0_0 V0_2 2.685580 1_555
Pd0_1 Pd0_4 2.633331 1_555
Pd0_1 Pd0_2 2.633331 1_555
Pd0_1 Pd0_4 2.633331 1_456
Pd0_1 Pd0_2 2.633331 1_546
Pd0_1 Pd0_7 2.633332 1_455
Pd0_1 Pd0_7 2.633332 1_545
Pd0_1 V0_0 2.685579 1_556
Pd0_1 V0_3 2.685580 1_555
Pd0_1 V0_5 2.685580 1_555
Pd0_2 Pd0_7 2.633331 1_455
Pd0_2 Pd0_7 2.633331 1_554
Pd0_2 Pd0_4 2.633332 1_465
Pd0_2 Pd0_4 2.633332 1_555
Pd0_2 V0_3 2.685579 1_555
Pd0_2 V0_6 2.685580 1_555
Pd0_2 V0_0 2.685580 1_565
Pd0_3 Pd0_6 2.633331 1_456
Pd0_3 Pd0_6 2.633331 1_555
Pd0_3 Pd0_5 2.633332 1_465
Pd0_3 Pd0_5 2.633332 1_555
Pd0_3 V0_2 2.685579 1_556
Pd0_3 V0_1 2.685580 1_565
Pd0_3 V0_7 2.685580 1_555
Pd0_4 Pd0_7 2.633331 1_545
Pd0_4 Pd0_7 2.633331 1_554
Pd0_4 V0_5 2.685579 1_555
Pd0_4 V0_6 2.685580 1_555
Pd0_4 V0_0 2.685580 1_655
Pd0_5 Pd0_6 2.633331 1_546
Pd0_5 Pd0_6 2.633331 1_555
Pd0_5 V0_4 2.685579 1_556
Pd0_5 V0_7 2.685580 1_555
Pd0_5 V0_1 2.685580 1_655
Pd0_6 V0_7 2.685579 1_555
Pd0_6 V0_4 2.685580 1_565
Pd0_6 V0_2 2.685580 1_655
Pd0_7 V0_6 2.685579 1_556
Pd0_7 V0_3 2.685580 1_655
Pd0_7 V0_5 2.685580 1_565
