# generated using pymatgen
data_Cu6NiO6
_symmetry_space_group_name_H-M   'P 1'
_cell_length_a   5.81161588
_cell_length_b   5.81161588
_cell_length_c   5.81161588
_cell_angle_alpha   60.00000000
_cell_angle_beta   60.00000000
_cell_angle_gamma   60.00000000
_symmetry_Int_Tables_number   1
_chemical_formula_structural   Cu6NiO6
_chemical_formula_sum   'Cu6 Ni1 O6'
_cell_volume   138.79560300
_cell_formula_units_Z   1
loop_
 _symmetry_equiv_pos_site_id
 _symmetry_equiv_pos_as_xyz
  1  'x, y, z'
loop_
 _atom_site_type_symbol
 _atom_site_label
 _atom_site_symmetry_multiplicity
 _atom_site_fract_x
 _atom_site_fract_y
 _atom_site_fract_z
 _atom_site_occupancy
  Cu  Cu0  1  0.50000000  0.00000000  0.00000000  1
  Cu  Cu1  1  0.00000000  0.50000000  0.50000000  1
  Cu  Cu2  1  0.00000000  0.50000000  0.00000000  1
  Cu  Cu3  1  0.50000000  0.00000000  0.50000000  1
  Cu  Cu4  1  0.00000000  0.00000000  0.50000000  1
  Cu  Cu5  1  0.50000000  0.50000000  0.00000000  1
  Ni  Ni0  1  0.00000000  0.00000000  0.00000000  1
  O  O0  1  0.23124600  0.76875400  0.23124600  1
  O  O1  1  0.76875400  0.23124600  0.76875400  1
  O  O2  1  0.23124600  0.23124600  0.76875400  1
  O  O3  1  0.76875400  0.76875400  0.23124600  1
  O  O4  1  0.76875400  0.23124600  0.23124600  1
  O  O5  1  0.23124600  0.76875400  0.76875400  1
loop_
_geom_bond_atom_site_label_1
_geom_bond_atom_site_label_2
_geom_bond_distance
_geom_bond_site_symmetry_2
Cu0 O1 2.060490 1_554
Cu0 O3 2.060490 1_545
Cu0 O0 2.060490 1_545
Cu0 O2 2.060490 1_554
Cu1 O0 2.060490 1_555
Cu1 O2 2.060490 1_555
Cu1 O1 2.060490 1_455
Cu1 O3 2.060490 1_455
Cu2 O5 2.060490 1_554
Cu2 O3 2.060490 1_455
Cu2 O4 2.060490 1_455
Cu2 O2 2.060490 1_554
Cu3 O4 2.060490 1_555
Cu3 O2 2.060490 1_555
Cu3 O3 2.060490 1_545
Cu3 O5 2.060490 1_545
Cu4 O5 2.060490 1_545
Cu4 O1 2.060490 1_455
Cu4 O0 2.060490 1_545
Cu4 O4 2.060490 1_455
Cu5 O4 2.060490 1_555
Cu5 O0 2.060490 1_555
Cu5 O1 2.060490 1_554
Cu5 O5 2.060490 1_554
Ni0 O4 1.900580 1_455
Ni0 O0 1.900580 1_545
Ni0 O2 1.900580 1_554
Ni0 O5 1.900580 1_544
Ni0 O1 1.900580 1_454
Ni0 O3 1.900580 1_445
