# generated using pymatgen
data_Fe(NiO2)2
_symmetry_space_group_name_H-M   'P 1'
_cell_length_a   5.88511793
_cell_length_b   5.93228560
_cell_length_c   5.93230090
_cell_angle_alpha   120.52485556
_cell_angle_beta   90.00138861
_cell_angle_gamma   119.73664729
_symmetry_Int_Tables_number   1
_chemical_formula_structural   Fe(NiO2)2
_chemical_formula_sum   'Fe2 Ni4 O8'
_cell_volume   145.85919301
_cell_formula_units_Z   2
loop_
 _symmetry_equiv_pos_site_id
 _symmetry_equiv_pos_as_xyz
  1  'x, y, z'
loop_
 _atom_site_type_symbol
 _atom_site_label
 _atom_site_symmetry_multiplicity
 _atom_site_fract_x
 _atom_site_fract_y
 _atom_site_fract_z
 _atom_site_occupancy
  Fe  Fe0  1  0.37120900  0.24242100  0.12878300  1
  Fe  Fe1  1  0.62879300  0.75757800  0.87121600  1
  Ni  Ni0  1  0.00000400  0.50000800  0.00000400  1
  Ni  Ni1  1  0.00000000  0.00000100  0.49999900  1
  Ni  Ni2  1  0.49999700  0.99999500  0.50000000  1
  Ni  Ni3  1  0.00000000  0.49999500  0.49999600  1
  O  O0  1  0.76023300  0.02046500  0.26882300  1
  O  O1  1  0.23976600  0.50858900  0.26023800  1
  O  O2  1  0.23976600  0.97953600  0.73117800  1
  O  O3  1  0.76883100  0.50858400  0.26024000  1
  O  O4  1  0.24129300  0.98258700  0.25870400  1
  O  O5  1  0.76023400  0.49141100  0.73976300  1
  O  O6  1  0.75870600  0.01741300  0.74129500  1
  O  O7  1  0.23116900  0.49141800  0.73976100  1
loop_
_geom_bond_atom_site_label_1
_geom_bond_atom_site_label_2
_geom_bond_distance
_geom_bond_site_symmetry_2
Fe0 O4 1.895324 1_545
Fe0 O2 1.913244 1_544
Fe0 O1 1.913275 1_555
Fe0 O3 1.913323 1_555
Fe1 O6 1.895329 1_565
Fe1 O0 1.913253 1_566
Fe1 O5 1.913261 1_555
Fe1 O7 1.913333 1_555
Ni0 O4 2.017765 1_555
Ni0 O6 2.017832 1_454
Ni0 O5 2.055641 1_454
Ni0 O1 2.055645 1_555
Ni0 O7 2.055669 1_554
Ni0 O3 2.055672 1_455
Ni1 O4 2.017820 1_545
Ni1 O6 2.017827 1_455
Ni1 O0 2.055610 1_455
Ni1 O2 2.055623 1_545
Ni1 O7 2.055690 1_555
Ni1 O3 2.055691 1_445
Ni2 O6 2.017763 1_565
Ni2 O4 2.017786 1_555
Ni2 O1 2.055640 1_555
Ni2 O2 2.055667 1_555
Ni2 O5 2.055683 1_565
Ni2 O0 2.055686 1_565
Ni3 O7 2.004651 1_555
Ni3 O3 2.004664 1_455
Ni3 O1 2.004755 1_555
Ni3 O0 2.004765 1_455
Ni3 O5 2.004791 1_455
Ni3 O2 2.004810 1_555
