# generated using pymatgen
data_DyAgSe2
_symmetry_space_group_name_H-M   'P 1'
_cell_length_a   6.79662765
_cell_length_b   13.76182811
_cell_length_c   4.23461384
_cell_angle_alpha   90.00000000
_cell_angle_beta   90.00000000
_cell_angle_gamma   90.00000000
_symmetry_Int_Tables_number   1
_chemical_formula_structural   DyAgSe2
_chemical_formula_sum   'Dy4 Ag4 Se8'
_cell_volume   396.08046173
_cell_formula_units_Z   4
loop_
 _symmetry_equiv_pos_site_id
 _symmetry_equiv_pos_as_xyz
  1  'x, y, z'
loop_
 _atom_site_type_symbol
 _atom_site_label
 _atom_site_symmetry_multiplicity
 _atom_site_fract_x
 _atom_site_fract_y
 _atom_site_fract_z
 _atom_site_occupancy
  Dy  Dy0  1  0.70659873  0.62743292  0.27266165  1
  Dy  Dy1  1  0.79340127  0.37256708  0.77266165  1
  Dy  Dy2  1  0.20659873  0.87256708  0.72733835  1
  Dy  Dy3  1  0.29340127  0.12743292  0.22733835  1
  Ag  Ag0  1  0.70568402  0.87380254  0.50296526  1
  Ag  Ag1  1  0.79431598  0.12619746  0.00296526  1
  Ag  Ag2  1  0.20568402  0.62619746  0.49703474  1
  Ag  Ag3  1  0.29431598  0.37380254  0.99703474  1
  Se  Se0  1  0.91064208  0.72614267  0.77132427  1
  Se  Se1  1  0.58935792  0.27385733  0.27132427  1
  Se  Se2  1  0.41064208  0.77385733  0.22867573  1
  Se  Se3  1  0.08935792  0.22614267  0.72867573  1
  Se  Se4  1  0.50873753  0.52622895  0.76710268  1
  Se  Se5  1  -0.00873753  0.47377105  0.26710168  1
  Se  Se6  1  0.00873753  0.97377105  0.23289832  1
  Se  Se7  1  0.49126247  0.02622895  0.73289732  1
loop_
_geom_bond_atom_site_label_1
_geom_bond_atom_site_label_2
_geom_bond_distance
_geom_bond_site_symmetry_2
Dy0 Se4 2.851679 1_555
Dy0 Se2 2.853306 1_555
Dy0 Se5 2.866295 1_655
Dy0 Se0 2.868378 1_555
Dy0 Se0 2.876727 1_554
Dy0 Se4 2.886423 1_554
Dy1 Se5 2.851676 1_656
Dy1 Se3 2.853306 1_655
Dy1 Se4 2.866295 1_555
Dy1 Se1 2.868378 1_556
Dy1 Se1 2.876727 1_555
Dy1 Se5 2.886427 1_655
Dy2 Se6 2.851676 1_555
Dy2 Se0 2.853306 1_455
Dy2 Se7 2.866295 1_565
Dy2 Se2 2.868378 1_555
Dy2 Se2 2.876727 1_556
Dy2 Se6 2.886427 1_556
Dy3 Se7 2.851679 1_554
Dy3 Se1 2.853306 1_555
Dy3 Se6 2.866295 1_545
Dy3 Se3 2.868378 1_554
Dy3 Se3 2.876727 1_555
Dy3 Se7 2.886423 1_555
Ag0 Se2 2.694828 1_555
Ag0 Se0 2.713157 1_555
Ag0 Se6 2.728207 1_655
Ag0 Se7 2.733513 1_565
Ag1 Se3 2.694828 1_654
Ag1 Se1 2.713157 1_555
Ag1 Se7 2.728208 1_554
Ag1 Se6 2.733514 1_645
Ag2 Se0 2.694828 1_455
Ag2 Se2 2.713157 1_555
Ag2 Se4 2.728208 1_555
Ag2 Se5 2.733514 1_555
Ag3 Se1 2.694828 1_556
Ag3 Se3 2.713157 1_555
Ag3 Se5 2.728207 1_556
Ag3 Se4 2.733513 1_555
