# generated using pymatgen
data_Ta4Ga(TeSe)4
_symmetry_space_group_name_H-M   'P 1'
_cell_length_a   7.79220925
_cell_length_b   7.79220925
_cell_length_c   7.79220925
_cell_angle_alpha   60.00000000
_cell_angle_beta   60.00000000
_cell_angle_gamma   60.00000000
_symmetry_Int_Tables_number   1
_chemical_formula_structural   Ta4Ga(TeSe)4
_chemical_formula_sum   'Ta4 Ga1 Te4 Se4'
_cell_volume   334.55445799
_cell_formula_units_Z   1
loop_
 _symmetry_equiv_pos_site_id
 _symmetry_equiv_pos_as_xyz
  1  'x, y, z'
loop_
 _atom_site_type_symbol
 _atom_site_label
 _atom_site_symmetry_multiplicity
 _atom_site_fract_x
 _atom_site_fract_y
 _atom_site_fract_z
 _atom_site_occupancy
  Ta  Ta0  1  0.79234000  0.40255300  0.40255300  1
  Ta  Ta1  1  0.40255300  0.79234000  0.40255300  1
  Ta  Ta2  1  0.40255300  0.40255300  0.79234000  1
  Ta  Ta3  1  0.40255300  0.40255300  0.40255300  1
  Ga  Ga0  1  0.00000000  0.00000000  0.00000000  1
  Te  Te0  1  0.58898900  0.13700400  0.13700400  1
  Te  Te1  1  0.13700400  0.58898900  0.13700400  1
  Te  Te2  1  0.13700400  0.13700400  0.58898900  1
  Te  Te3  1  0.13700400  0.13700400  0.13700400  1
  Se  Se0  1  0.10852900  0.63049000  0.63049000  1
  Se  Se1  1  0.63049000  0.10852900  0.63049000  1
  Se  Se2  1  0.63049000  0.63049000  0.10852900  1
  Se  Se3  1  0.63049000  0.63049000  0.63049000  1
loop_
_geom_bond_atom_site_label_1
_geom_bond_atom_site_label_2
_geom_bond_distance
_geom_bond_site_symmetry_2
Ta0 Te3 2.990541 1_655
Ta0 Te1 2.990550 1_655
Ta0 Te2 2.990550 1_655
Ta1 Te3 2.990541 1_565
Ta1 Te0 2.990550 1_565
Ta1 Te2 2.990550 1_565
Ta2 Te3 2.990541 1_556
Ta2 Te1 2.990550 1_556
Ta2 Te0 2.990550 1_556
Ta3 Te0 2.990538 1_555
Ta3 Te1 2.990538 1_555
Ta3 Te2 2.990538 1_555
Ga0 Te2 2.614980 1_554
Ga0 Te1 2.614980 1_545
Ga0 Te0 2.614980 1_455
Ga0 Te3 2.614987 1_555
Se0 Ta1 2.564075 1_555
Se0 Ta2 2.564075 1_555
Se0 Ta3 2.564075 1_555
Se1 Ta0 2.564075 1_555
Se1 Ta2 2.564075 1_555
Se1 Ta3 2.564075 1_555
Se2 Ta1 2.564075 1_555
Se2 Ta0 2.564075 1_555
Se2 Ta3 2.564075 1_555
Se3 Ta2 2.564075 1_555
Se3 Ta1 2.564075 1_555
Se3 Ta0 2.564075 1_555
