# generated using pymatgen
data_La9In5Se21
_symmetry_space_group_name_H-M   'P 1'
_cell_length_a   12.60651707
_cell_length_b   12.60651707
_cell_length_c   12.60651670
_cell_angle_alpha   96.01231212
_cell_angle_beta   96.01231212
_cell_angle_gamma   96.01230940
_symmetry_Int_Tables_number   1
_chemical_formula_structural   La9In5Se21
_chemical_formula_sum   'La18 In10 Se42'
_cell_volume   1967.89312654
_cell_formula_units_Z   2
loop_
 _symmetry_equiv_pos_site_id
 _symmetry_equiv_pos_as_xyz
  1  'x, y, z'
loop_
 _atom_site_type_symbol
 _atom_site_label
 _atom_site_symmetry_multiplicity
 _atom_site_fract_x
 _atom_site_fract_y
 _atom_site_fract_z
 _atom_site_occupancy
  La  La0  1  0.11576800  0.88063300  0.24941100  1
  La  La1  1  0.77989600  0.54326200  0.91777500  1
  La  La2  1  0.45033800  0.21676500  0.58729300  1
  La  La3  1  0.21676500  0.58729300  0.45033800  1
  La  La4  1  0.88063300  0.24941100  0.11576800  1
  La  La5  1  0.54326200  0.91777500  0.77989600  1
  La  La6  1  0.91777500  0.77989600  0.54326200  1
  La  La7  1  0.58729300  0.45033800  0.21676500  1
  La  La8  1  0.24941100  0.11576800  0.88063300  1
  La  La9  1  0.54898100  0.78345500  0.41427900  1
  La  La10  1  0.21395000  0.45103400  0.07597900  1
  La  La11  1  0.88532000  0.11896800  0.74910500  1
  La  La12  1  0.45103400  0.07597900  0.21395000  1
  La  La13  1  0.11896800  0.74910500  0.88532000  1
  La  La14  1  0.78345500  0.41427900  0.54898100  1
  La  La15  1  0.74910500  0.88532000  0.11896800  1
  La  La16  1  0.41427900  0.54898100  0.78345500  1
  La  La17  1  0.07597900  0.21395000  0.45103400  1
  In  In0  1  0.60920500  0.27629000  0.94198000  1
  In  In1  1  0.27629000  0.94198000  0.60920500  1
  In  In2  1  0.94198000  0.60920500  0.27629000  1
  In  In3  1  0.77562800  0.10975100  0.44200300  1
  In  In4  1  0.44200300  0.77562800  0.10975100  1
  In  In5  1  0.10975100  0.44200300  0.77562800  1
  In  In6  1  0.14855200  0.14855200  0.14855200  1
  In  In7  1  0.83993500  0.83993500  0.83993500  1
  In  In8  1  0.34003400  0.34003400  0.34003400  1
  In  In9  1  0.64847300  0.64847300  0.64847300  1
  Se  Se0  1  0.60312400  0.44250300  0.69499500  1
  Se  Se1  1  0.25959100  0.11090800  0.34959800  1
  Se  Se2  1  0.92103600  0.76571700  0.01978900  1
  Se  Se3  1  0.76571700  0.01978900  0.92103600  1
  Se  Se4  1  0.44250300  0.69499500  0.60312400  1
  Se  Se5  1  0.11090800  0.34959800  0.25959100  1
  Se  Se6  1  0.34959800  0.25959100  0.11090800  1
  Se  Se7  1  0.01978900  0.92103600  0.76571700  1
  Se  Se8  1  0.69499500  0.60312400  0.44250300  1
  Se  Se9  1  0.71994300  0.86906900  0.63058600  1
  Se  Se10  1  0.38312100  0.53891000  0.28439700  1
  Se  Se11  1  0.05754100  0.21789600  0.96545100  1
  Se  Se12  1  0.53891000  0.28439700  0.38312100  1
  Se  Se13  1  0.21789600  0.96545100  0.05754100  1
  Se  Se14  1  0.86906900  0.63058600  0.71994300  1
  Se  Se15  1  0.96545100  0.05754100  0.21789600  1
  Se  Se16  1  0.63058600  0.71994300  0.86906900  1
  Se  Se17  1  0.28439700  0.38312100  0.53891000  1
  Se  Se18  1  0.47574300  0.14576500  0.81124200  1
  Se  Se19  1  0.14576500  0.81124200  0.47574300  1
  Se  Se20  1  0.81124200  0.47574300  0.14576500  1
  Se  Se21  1  0.97547800  0.31185100  0.64541900  1
  Se  Se22  1  0.64541900  0.97547800  0.31185100  1
  Se  Se23  1  0.31185100  0.64541900  0.97547800  1
  Se  Se24  1  0.55196400  0.46940700  0.98003000  1
  Se  Se25  1  0.21951300  0.13478200  0.64336600  1
  Se  Se26  1  0.88894100  0.80487200  0.30702500  1
  Se  Se27  1  0.80487200  0.30702500  0.88894100  1
  Se  Se28  1  0.46940700  0.98003000  0.55196400  1
  Se  Se29  1  0.13478200  0.64336600  0.21951300  1
  Se  Se30  1  0.64336600  0.21951300  0.13478200  1
  Se  Se31  1  0.30702500  0.88894100  0.80487200  1
  Se  Se32  1  0.98003000  0.55196400  0.46940700  1
  Se  Se33  1  0.94370800  0.03023100  0.52631300  1
  Se  Se34  1  0.61350500  0.69731800  0.18992300  1
  Se  Se35  1  0.28197800  0.36328300  0.85328600  1
  Se  Se36  1  0.69731800  0.18992300  0.61350500  1
  Se  Se37  1  0.36328300  0.85328600  0.28197800  1
  Se  Se38  1  0.03023100  0.52631300  0.94370800  1
  Se  Se39  1  0.85328600  0.28197800  0.36328300  1
  Se  Se40  1  0.52631300  0.94370800  0.03023100  1
  Se  Se41  1  0.18992300  0.61350500  0.69731800  1
loop_
_geom_bond_atom_site_label_1
_geom_bond_atom_site_label_2
_geom_bond_distance
_geom_bond_site_symmetry_2
La0 Se29 3.013173 1_555
La0 Se19 3.068462 1_555
La0 Se13 3.091496 1_555
La0 Se26 3.102374 1_455
La0 Se15 3.104150 1_465
La0 Se37 3.163911 1_555
La0 Se1 3.310496 1_565
La0 Se2 3.659582 1_455
La1 Se27 3.015648 1_555
La1 Se20 3.080013 1_556
La1 Se14 3.098180 1_555
La1 Se16 3.131075 1_555
La1 Se24 3.131205 1_555
La1 Se38 3.170441 1_655
La1 Se2 3.225549 1_556
La1 Se0 3.437406 1_555
La2 Se28 3.009500 1_545
La2 Se18 3.045367 1_555
La2 Se12 3.075871 1_555
La2 Se36 3.153814 1_555
La2 Se25 3.160585 1_555
La2 Se17 3.172706 1_555
La2 Se0 3.338602 1_555
La2 Se1 3.677350 1_555
La3 Se32 3.009500 1_455
La3 Se19 3.045367 1_555
La3 Se17 3.075871 1_555
La3 Se41 3.153814 1_555
La3 Se29 3.160585 1_555
La3 Se10 3.172706 1_555
La3 Se4 3.338602 1_555
La3 Se5 3.677350 1_555
La4 Se30 3.013173 1_555
La4 Se20 3.068462 1_555
La4 Se15 3.091496 1_555
La4 Se27 3.102373 1_554
La4 Se11 3.104150 1_654
La4 Se39 3.163911 1_555
La4 Se5 3.310496 1_655
La4 Se3 3.659582 1_554
La5 Se31 3.015648 1_555
La5 Se18 3.080013 1_565
La5 Se16 3.098180 1_555
La5 Se9 3.131075 1_555
La5 Se28 3.131204 1_555
La5 Se40 3.170441 1_556
La5 Se3 3.225549 1_565
La5 Se4 3.437406 1_555
La6 Se26 3.015648 1_555
La6 Se19 3.080013 1_655
La6 Se9 3.098180 1_555
La6 Se14 3.131075 1_555
La6 Se32 3.131205 1_555
La6 Se33 3.170441 1_565
La6 Se7 3.225549 1_655
La6 Se8 3.437406 1_555
La7 Se24 3.009500 1_554
La7 Se20 3.045367 1_555
La7 Se10 3.075871 1_555
La7 Se34 3.153814 1_555
La7 Se30 3.160585 1_555
La7 Se12 3.172706 1_555
La7 Se8 3.338602 1_555
La7 Se6 3.677350 1_555
La8 Se25 3.013173 1_555
La8 Se18 3.068462 1_555
La8 Se11 3.091496 1_555
La8 Se31 3.102373 1_545
La8 Se13 3.104150 1_546
La8 Se35 3.163911 1_555
La8 Se6 3.310495 1_556
La8 Se7 3.659582 1_545
La9 Se37 2.993056 1_555
La9 Se22 3.061460 1_555
La9 Se8 3.097069 1_555
La9 Se4 3.102427 1_555
La9 Se34 3.140694 1_555
La9 Se28 3.185063 1_555
La9 Se9 3.303150 1_555
La9 Se10 3.664964 1_555
La10 Se38 3.004683 1_554
La10 Se23 3.078614 1_554
La10 Se5 3.095554 1_555
La10 Se6 3.142012 1_555
La10 Se35 3.145336 1_554
La10 Se29 3.180449 1_555
La10 Se10 3.224956 1_555
La10 Se11 3.438026 1_554
La11 Se36 3.042230 1_555
La11 Se21 3.051402 1_555
La11 Se3 3.064616 1_555
La11 Se33 3.103064 1_555
La11 Se27 3.123986 1_555
La11 Se7 3.172521 1_645
La11 Se11 3.344758 1_655
La11 Se9 3.672760 1_545
La12 Se40 3.004683 1_545
La12 Se22 3.078614 1_545
La12 Se6 3.095554 1_555
La12 Se1 3.142012 1_555
La12 Se37 3.145336 1_545
La12 Se30 3.180449 1_555
La12 Se12 3.224956 1_555
La12 Se13 3.438026 1_545
La13 Se41 3.042230 1_555
La13 Se23 3.051402 1_555
La13 Se7 3.064616 1_555
La13 Se38 3.103064 1_555
La13 Se31 3.123986 1_555
La13 Se2 3.172521 1_456
La13 Se13 3.344758 1_556
La13 Se14 3.672759 1_455
La14 Se39 2.993056 1_555
La14 Se21 3.061459 1_555
La14 Se0 3.097069 1_555
La14 Se8 3.102427 1_555
La14 Se36 3.140694 1_555
La14 Se32 3.185063 1_555
La14 Se14 3.303151 1_555
La14 Se12 3.664964 1_555
La15 Se34 3.042231 1_555
La15 Se22 3.051402 1_555
La15 Se2 3.064616 1_555
La15 Se40 3.103064 1_555
La15 Se26 3.123986 1_555
La15 Se3 3.172521 1_564
La15 Se15 3.344758 1_565
La15 Se16 3.672759 1_554
La16 Se35 2.993056 1_555
La16 Se23 3.061459 1_555
La16 Se4 3.097069 1_555
La16 Se0 3.102427 1_555
La16 Se41 3.140694 1_555
La16 Se24 3.185063 1_555
La16 Se16 3.303151 1_555
La16 Se17 3.664964 1_555
La17 Se33 3.004683 1_455
La17 Se21 3.078614 1_455
La17 Se1 3.095554 1_555
La17 Se5 3.142012 1_555
La17 Se39 3.145336 1_455
La17 Se25 3.180449 1_555
La17 Se17 3.224956 1_555
La17 Se15 3.438026 1_455
In0 Se18 2.554558 1_555
In0 Se30 2.610583 1_556
In0 Se24 2.621766 1_555
In0 Se27 2.623218 1_555
In1 Se19 2.554558 1_555
In1 Se25 2.610583 1_565
In1 Se28 2.621766 1_555
In1 Se31 2.623218 1_555
In2 Se20 2.554558 1_555
In2 Se29 2.610583 1_655
In2 Se32 2.621766 1_555
In2 Se26 2.623218 1_555
In3 Se22 2.554168 1_545
In3 Se33 2.611658 1_555
In3 Se39 2.620479 1_555
In3 Se36 2.620859 1_555
In4 Se23 2.554168 1_554
In4 Se40 2.611658 1_555
In4 Se37 2.620479 1_555
In4 Se34 2.620860 1_555
In5 Se21 2.554168 1_455
In5 Se38 2.611658 1_555
In5 Se35 2.620479 1_555
In5 Se41 2.620860 1_555
In6 Se11 2.736182 1_554
In6 Se13 2.736182 1_545
In6 Se15 2.736182 1_455
In6 Se1 2.873367 1_555
In6 Se5 2.873367 1_555
In6 Se6 2.873367 1_555
In7 Se2 2.687133 1_556
In7 Se3 2.687133 1_565
In7 Se7 2.687133 1_655
In7 Se9 2.978490 1_555
In7 Se14 2.978490 1_555
In7 Se16 2.978491 1_555
In8 Se17 2.689909 1_555
In8 Se12 2.689909 1_555
In8 Se10 2.689909 1_555
In8 Se6 2.978458 1_555
In8 Se5 2.978458 1_555
In8 Se1 2.978458 1_555
In9 Se8 2.737009 1_555
In9 Se4 2.737009 1_555
In9 Se0 2.737009 1_555
In9 Se16 2.871469 1_555
In9 Se14 2.871469 1_555
In9 Se9 2.871469 1_555
