# generated using pymatgen
data_BaSrNdCrO6
_symmetry_space_group_name_H-M   'P 1'
_cell_length_a   5.94574329
_cell_length_b   5.94574329
_cell_length_c   5.94574329
_cell_angle_alpha   60.00000000
_cell_angle_beta   60.00000000
_cell_angle_gamma   60.00000000
_symmetry_Int_Tables_number   1
_chemical_formula_structural   BaSrNdCrO6
_chemical_formula_sum   'Ba1 Sr1 Nd1 Cr1 O6'
_cell_volume   148.62896912
_cell_formula_units_Z   1
loop_
 _symmetry_equiv_pos_site_id
 _symmetry_equiv_pos_as_xyz
  1  'x, y, z'
loop_
 _atom_site_type_symbol
 _atom_site_label
 _atom_site_symmetry_multiplicity
 _atom_site_fract_x
 _atom_site_fract_y
 _atom_site_fract_z
 _atom_site_occupancy
  Ba  Ba0  1  0.75000000  0.75000000  0.75000000  1
  Sr  Sr0  1  0.25000000  0.25000000  0.25000000  1
  Nd  Nd0  1  0.50000000  0.50000000  0.50000000  1
  Cr  Cr0  1  0.00000000  0.00000000  0.00000000  1
  O  O0  1  0.77423538  0.22576462  0.22576462  1
  O  O1  1  0.22576462  0.77423538  0.77423538  1
  O  O2  1  0.77423538  0.22576462  0.77423538  1
  O  O3  1  0.22576462  0.77423538  0.22576462  1
  O  O4  1  0.77423538  0.77423538  0.22576462  1
  O  O5  1  0.22576462  0.22576462  0.77423538  1
loop_
_geom_bond_atom_site_label_1
_geom_bond_atom_site_label_2
_geom_bond_distance
_geom_bond_site_symmetry_2
Ba0 O4 2.979848 1_555
Ba0 O1 2.979848 1_555
Ba0 O0 2.979848 1_565
Ba0 O3 2.979848 1_655
Ba0 O5 2.979848 1_565
Ba0 O5 2.979848 1_655
Ba0 O3 2.979848 1_556
Ba0 O0 2.979848 1_556
Ba0 O2 2.979848 1_555
Ba0 O2 2.979848 1_565
Ba0 O4 2.979848 1_556
Ba0 O1 2.979848 1_655
Nd0 O4 2.305922 1_555
Nd0 O5 2.305922 1_555
Nd0 O3 2.305922 1_555
Nd0 O0 2.305922 1_555
Nd0 O2 2.305922 1_555
Nd0 O1 2.305922 1_555
Cr0 O2 1.898353 1_454
Cr0 O1 1.898353 1_544
Cr0 O4 1.898353 1_445
Cr0 O3 1.898353 1_545
Cr0 O5 1.898353 1_554
Cr0 O0 1.898353 1_455
O0 Sr0 2.979848 1_655
O0 Sr0 2.979848 1_555
O1 Sr0 2.979848 1_565
O1 Sr0 2.979848 1_556
O2 Sr0 2.979848 1_655
O2 Sr0 2.979848 1_556
O3 Sr0 2.979848 1_565
O3 Sr0 2.979848 1_555
O4 Sr0 2.979848 1_565
O4 Sr0 2.979848 1_655
O5 Sr0 2.979848 1_555
O5 Sr0 2.979848 1_556
