# generated using pymatgen
data_LaCu13
_symmetry_space_group_name_H-M   'P 1'
_cell_length_a   8.10981688
_cell_length_b   8.10981688
_cell_length_c   8.10981688
_cell_angle_alpha   60.00000000
_cell_angle_beta   60.00000000
_cell_angle_gamma   60.00000000
_symmetry_Int_Tables_number   1
_chemical_formula_structural   LaCu13
_chemical_formula_sum   'La2 Cu26'
_cell_volume   377.15350315
_cell_formula_units_Z   2
loop_
 _symmetry_equiv_pos_site_id
 _symmetry_equiv_pos_as_xyz
  1  'x, y, z'
loop_
 _atom_site_type_symbol
 _atom_site_label
 _atom_site_symmetry_multiplicity
 _atom_site_fract_x
 _atom_site_fract_y
 _atom_site_fract_z
 _atom_site_occupancy
  La  La0  1  0.75000000  0.75000000  0.75000000  1
  La  La1  1  0.25000000  0.25000000  0.25000000  1
  Cu  Cu0  1  0.50000000  0.50000000  0.50000000  1
  Cu  Cu1  1  0.00000000  -0.00000000  0.00000000  1
  Cu  Cu2  1  0.79646754  0.43725592  0.20353246  1
  Cu  Cu3  1  0.20353246  0.56274408  0.79646754  1
  Cu  Cu4  1  0.56274408  0.20353246  0.43725592  1
  Cu  Cu5  1  0.43725592  0.79646754  0.56274408  1
  Cu  Cu6  1  0.29646754  0.06274408  0.70353246  1
  Cu  Cu7  1  0.70353246  0.93725592  0.29646754  1
  Cu  Cu8  1  0.93725592  0.70353246  0.06274408  1
  Cu  Cu9  1  0.06274408  0.29646754  0.93725592  1
  Cu  Cu10  1  0.43725592  0.20353246  0.79646754  1
  Cu  Cu11  1  0.56274408  0.79646754  0.20353246  1
  Cu  Cu12  1  0.20353246  0.43725592  0.56274408  1
  Cu  Cu13  1  0.79646754  0.56274408  0.43725592  1
  Cu  Cu14  1  0.06274408  0.70353246  0.29646754  1
  Cu  Cu15  1  0.93725592  0.29646754  0.70353246  1
  Cu  Cu16  1  0.70353246  0.06274408  0.93725592  1
  Cu  Cu17  1  0.29646754  0.93725592  0.06274408  1
  Cu  Cu18  1  0.20353246  0.79646754  0.43725592  1
  Cu  Cu19  1  0.79646754  0.20353246  0.56274408  1
  Cu  Cu20  1  0.43725592  0.56274408  0.20353246  1
  Cu  Cu21  1  0.56274408  0.43725592  0.79646754  1
  Cu  Cu22  1  0.70353246  0.29646754  0.06274408  1
  Cu  Cu23  1  0.29646754  0.70353246  0.93725592  1
  Cu  Cu24  1  0.06274408  0.93725592  0.70353246  1
  Cu  Cu25  1  0.93725592  0.06274408  0.29646754  1
loop_
_geom_bond_atom_site_label_1
_geom_bond_atom_site_label_2
_geom_bond_distance
_geom_bond_site_symmetry_2
Cu0 Cu13 2.457553 1_555
Cu0 Cu11 2.457553 1_555
Cu0 Cu20 2.457553 1_555
Cu0 Cu12 2.457553 1_555
Cu0 Cu2 2.457553 1_555
Cu0 Cu21 2.457553 1_555
Cu0 Cu10 2.457553 1_555
Cu0 Cu18 2.457553 1_555
Cu0 Cu3 2.457553 1_555
Cu0 Cu19 2.457553 1_555
Cu0 Cu5 2.457553 1_555
Cu0 Cu4 2.457553 1_555
Cu1 Cu16 2.457553 1_454
Cu1 Cu15 2.457553 1_454
Cu1 Cu22 2.457553 1_455
Cu1 Cu8 2.457553 1_445
Cu1 Cu14 2.457553 1_545
Cu1 Cu24 2.457553 1_544
Cu1 Cu6 2.457553 1_554
Cu1 Cu23 2.457553 1_544
Cu1 Cu7 2.457553 1_445
Cu1 Cu25 2.457553 1_455
Cu1 Cu17 2.457553 1_545
Cu1 Cu9 2.457553 1_554
Cu2 Cu8 2.442719 1_555
Cu2 Cu9 2.442719 1_654
Cu2 Cu22 2.489983 1_555
Cu2 Cu25 2.489983 1_555
Cu2 Cu20 2.560744 1_555
Cu2 Cu4 2.680577 1_555
Cu2 La1 3.347324 1_655
Cu2 La0 3.347324 1_554
Cu3 Cu9 2.442719 1_555
Cu3 Cu8 2.442719 1_456
Cu3 Cu5 2.680577 1_555
Cu3 La1 3.347324 1_556
Cu3 La0 3.347324 1_455
Cu4 Cu6 2.442719 1_555
Cu4 Cu7 2.442719 1_545
Cu4 La1 3.347324 1_555
Cu4 La0 3.347324 1_545
Cu5 Cu7 2.442719 1_555
Cu5 Cu6 2.442719 1_565
Cu5 La0 3.347324 1_555
Cu5 La1 3.347324 1_565
Cu6 Cu9 2.680577 1_555
Cu6 La0 3.347324 1_545
Cu6 La1 3.347324 1_555
Cu7 Cu8 2.680577 1_555
Cu7 La0 3.347324 1_555
Cu7 La1 3.347324 1_565
Cu8 La0 3.347324 1_554
Cu8 La1 3.347324 1_655
Cu9 La1 3.347324 1_556
Cu9 La0 3.347324 1_455
Cu10 Cu17 2.442719 1_546
Cu10 Cu16 2.442719 1_555
Cu10 Cu6 2.489983 1_555
Cu10 Cu9 2.489983 1_555
Cu10 Cu19 2.560744 1_555
Cu10 Cu3 2.560744 1_555
Cu10 Cu4 2.560744 1_555
Cu10 Cu21 2.560744 1_555
Cu10 Cu12 2.680577 1_555
Cu10 La0 3.347324 1_545
Cu10 La1 3.347324 1_556
Cu11 Cu17 2.442719 1_555
Cu11 Cu16 2.442719 1_564
Cu11 Cu7 2.489983 1_555
Cu11 Cu8 2.489983 1_555
Cu11 Cu18 2.560744 1_555
Cu11 Cu5 2.560744 1_555
Cu11 Cu20 2.560744 1_555
Cu11 Cu2 2.560744 1_555
Cu11 Cu13 2.680577 1_555
Cu11 La1 3.347324 1_565
Cu11 La0 3.347324 1_554
Cu12 Cu14 2.442719 1_555
Cu12 Cu15 2.442719 1_455
Cu12 Cu6 2.489983 1_555
Cu12 Cu9 2.489983 1_555
Cu12 Cu18 2.560744 1_555
Cu12 Cu3 2.560744 1_555
Cu12 Cu4 2.560744 1_555
Cu12 Cu20 2.560744 1_555
Cu12 La1 3.347324 1_555
Cu12 La0 3.347324 1_455
Cu13 Cu15 2.442719 1_555
Cu13 Cu14 2.442719 1_655
Cu13 Cu8 2.489983 1_555
Cu13 Cu7 2.489983 1_555
Cu13 Cu19 2.560744 1_555
Cu13 Cu2 2.560744 1_555
Cu13 Cu5 2.560744 1_555
Cu13 Cu21 2.560744 1_555
Cu13 La1 3.347324 1_655
Cu13 La0 3.347324 1_555
Cu14 Cu18 2.489983 1_555
Cu14 Cu20 2.489983 1_555
Cu14 Cu23 2.560744 1_554
Cu14 Cu7 2.560744 1_455
Cu14 Cu8 2.560744 1_455
Cu14 Cu25 2.560744 1_465
Cu14 Cu17 2.680577 1_555
Cu14 La0 3.347324 1_455
Cu14 La1 3.347324 1_555
Cu15 Cu21 2.489983 1_555
Cu15 Cu19 2.489983 1_555
Cu15 Cu24 2.560744 1_645
Cu15 Cu22 2.560744 1_556
Cu15 Cu6 2.560744 1_655
Cu15 Cu9 2.560744 1_655
Cu15 Cu16 2.680577 1_555
Cu15 La0 3.347324 1_555
Cu15 La1 3.347324 1_655
Cu16 Cu21 2.489983 1_555
Cu16 Cu19 2.489983 1_555
Cu16 Cu8 2.560744 1_546
Cu16 Cu7 2.560744 1_546
Cu16 Cu24 2.560744 1_645
Cu16 Cu22 2.560744 1_556
Cu16 La0 3.347324 1_545
Cu16 La1 3.347324 1_556
Cu17 Cu18 2.489983 1_555
Cu17 Cu20 2.489983 1_555
Cu17 Cu6 2.560744 1_564
Cu17 Cu23 2.560744 1_554
Cu17 Cu25 2.560744 1_465
Cu17 Cu9 2.560744 1_564
Cu17 La1 3.347324 1_565
Cu17 La0 3.347324 1_554
Cu18 Cu25 2.442719 1_465
Cu18 Cu24 2.442719 1_555
Cu18 Cu3 2.560744 1_555
Cu18 Cu5 2.560744 1_555
Cu18 Cu20 2.680577 1_555
Cu18 La1 3.347324 1_565
Cu18 La0 3.347324 1_455
Cu19 Cu25 2.442719 1_555
Cu19 Cu24 2.442719 1_645
Cu19 Cu4 2.560744 1_555
Cu19 Cu2 2.560744 1_555
Cu19 Cu21 2.680577 1_555
Cu19 La1 3.347324 1_655
Cu19 La0 3.347324 1_545
Cu20 Cu23 2.442719 1_554
Cu20 Cu22 2.442719 1_555
Cu20 Cu4 2.560744 1_555
Cu20 La1 3.347324 1_555
Cu20 La0 3.347324 1_554
Cu21 Cu23 2.442719 1_555
Cu21 Cu22 2.442719 1_556
Cu21 Cu3 2.560744 1_555
Cu21 Cu5 2.560744 1_555
Cu21 La1 3.347324 1_556
Cu21 La0 3.347324 1_555
Cu22 Cu4 2.489983 1_555
Cu22 Cu7 2.560744 1_545
Cu22 Cu9 2.560744 1_654
Cu22 Cu25 2.680577 1_555
Cu22 La0 3.347324 1_554
Cu22 La1 3.347324 1_555
Cu23 Cu5 2.489983 1_555
Cu23 Cu3 2.489983 1_555
Cu23 Cu8 2.560744 1_456
Cu23 Cu6 2.560744 1_565
Cu23 Cu24 2.680577 1_555
Cu23 La0 3.347324 1_555
Cu23 La1 3.347324 1_556
Cu24 Cu3 2.489983 1_555
Cu24 Cu5 2.489983 1_555
Cu24 Cu8 2.560744 1_456
Cu24 Cu6 2.560744 1_565
Cu24 La0 3.347324 1_455
Cu24 La1 3.347324 1_565
Cu25 Cu4 2.489983 1_555
Cu25 Cu7 2.560744 1_545
Cu25 Cu9 2.560744 1_654
Cu25 La1 3.347324 1_655
Cu25 La0 3.347324 1_545
