# generated using pymatgen
data_LaPrAl4
_symmetry_space_group_name_H-M   'P 1'
_cell_length_a   5.72710148
_cell_length_b   5.72709858
_cell_length_c   5.72710364
_cell_angle_alpha   60.00002920
_cell_angle_beta   59.99995401
_cell_angle_gamma   60.00005011
_symmetry_Int_Tables_number   1
_chemical_formula_structural   LaPrAl4
_chemical_formula_sum   'La1 Pr1 Al4'
_cell_volume   132.82801759
_cell_formula_units_Z   1
loop_
 _symmetry_equiv_pos_site_id
 _symmetry_equiv_pos_as_xyz
  1  'x, y, z'
loop_
 _atom_site_type_symbol
 _atom_site_label
 _atom_site_symmetry_multiplicity
 _atom_site_fract_x
 _atom_site_fract_y
 _atom_site_fract_z
 _atom_site_occupancy
  La  La0  1  0.24999900  0.25000100  0.25000100  1
  Pr  Pr0  1  -0.00000000  0.00000000  0.00000000  1
  Al  Al0  1  0.62484663  0.62484663  0.12546010  1
  Al  Al1  1  0.62484663  0.12546010  0.62484663  1
  Al  Al2  1  0.12546010  0.62484663  0.62484663  1
  Al  Al3  1  0.62484663  0.62484663  0.62484663  1
loop_
_geom_bond_atom_site_label_1
_geom_bond_atom_site_label_2
_geom_bond_distance
_geom_bond_site_symmetry_2
La0 Pr0 3.507115 1_556
La0 Pr0 3.507115 1_565
La0 Pr0 3.507123 1_555
La0 Pr0 3.507124 1_655
Al0 Al2 2.860036 1_555
Al0 Al3 2.860038 1_555
Al0 Al1 2.860038 1_555
Al0 Al2 2.867063 1_654
Al0 Al3 2.867065 1_554
Al0 Al1 2.867065 1_564
Al0 La0 3.357432 1_555
Al0 La0 3.357437 1_655
Al0 La0 3.357444 1_565
Al0 Pr0 3.358184 1_665
Al0 Pr0 3.358186 1_655
Al0 Pr0 3.358189 1_565
Al1 Al3 2.860036 1_555
Al1 Al2 2.860039 1_555
Al1 Al3 2.867063 1_545
Al1 Al2 2.867066 1_645
Al1 La0 3.357432 1_655
Al1 La0 3.357437 1_555
Al1 La0 3.357444 1_556
Al1 Pr0 3.358184 1_556
Al1 Pr0 3.358185 1_655
Al1 Pr0 3.358188 1_656
Al2 Al3 2.860037 1_555
Al2 Al3 2.867064 1_455
Al2 La0 3.357429 1_555
Al2 La0 3.357438 1_565
Al2 La0 3.357443 1_556
Al2 Pr0 3.358185 1_556
Al2 Pr0 3.358185 1_566
Al2 Pr0 3.358189 1_565
Al3 La0 3.357429 1_655
Al3 La0 3.357438 1_556
Al3 La0 3.357443 1_565
Al3 Pr0 3.358185 1_665
Al3 Pr0 3.358186 1_566
Al3 Pr0 3.358189 1_656
