# generated using pymatgen
data_Li7Mn2(CoO4)3
_symmetry_space_group_name_H-M   'P 1'
_cell_length_a   5.04921600
_cell_length_b   5.16432218
_cell_length_c   8.78020031
_cell_angle_alpha   73.06956821
_cell_angle_beta   84.66092144
_cell_angle_gamma   79.95069912
_symmetry_Int_Tables_number   1
_chemical_formula_structural   Li7Mn2(CoO4)3
_chemical_formula_sum   'Li7 Mn2 Co3 O12'
_cell_volume   215.45040792
_cell_formula_units_Z   1
loop_
 _symmetry_equiv_pos_site_id
 _symmetry_equiv_pos_as_xyz
  1  'x, y, z'
loop_
 _atom_site_type_symbol
 _atom_site_label
 _atom_site_symmetry_multiplicity
 _atom_site_fract_x
 _atom_site_fract_y
 _atom_site_fract_z
 _atom_site_occupancy
  Li  Li0  1  0.24384900  0.41731300  0.09184600  1
  Li  Li1  1  0.75175700  0.58772600  0.91144300  1
  Li  Li2  1  0.25547000  0.75607000  0.74371000  1
  Li  Li3  1  0.24192900  0.07499800  0.42167300  1
  Li  Li4  1  0.75295300  0.24232100  0.26169600  1
  Li  Li5  1  0.75566100  0.91316500  0.57706500  1
  Li  Li6  1  0.00308900  0.66804600  0.33487700  1
  Mn  Mn0  1  0.99784000  0.99521700  0.00243900  1
  Mn  Mn1  1  0.49898500  0.83100500  0.17061000  1
  Co  Co0  1  0.49601400  0.17149900  0.82342300  1
  Co  Co1  1  0.99464000  0.33892000  0.65716600  1
  Co  Co2  1  0.49481400  0.51500800  0.49543700  1
  O  O0  1  0.13891900  0.03367300  0.19244900  1
  O  O1  1  0.63441300  0.17582300  0.03773700  1
  O  O2  1  0.11968900  0.33949300  0.87576000  1
  O  O3  1  0.14352300  0.68518100  0.54792600  1
  O  O4  1  0.60719000  0.87030400  0.36301500  1
  O  O5  1  0.62738100  0.52607200  0.71107900  1
  O  O6  1  0.35866500  0.80662100  0.97007500  1
  O  O7  1  0.87761400  0.97057500  0.80436200  1
  O  O8  1  0.38240700  0.13549000  0.63095200  1
  O  O9  1  0.39690600  0.48913600  0.28387800  1
  O  O10  1  0.85783300  0.66140900  0.11849200  1
  O  O11  1  0.86846000  0.29493700  0.47289100  1
loop_
_geom_bond_atom_site_label_1
_geom_bond_atom_site_label_2
_geom_bond_distance
_geom_bond_site_symmetry_2
Li0 O0 2.060638 1_555
Li0 O9 2.069895 1_555
Li0 O6 2.135611 1_554
Li0 O10 2.161521 1_455
Li0 O2 2.215303 1_554
Li0 O1 2.232133 1_555
Li1 O5 2.047511 1_555
Li1 O10 2.095655 1_556
Li1 O7 2.107504 1_555
Li1 O2 2.118332 1_655
Li1 O6 2.201848 1_555
Li1 O1 2.247090 1_556
Li2 O3 2.007023 1_555
Li2 O5 2.083009 1_555
Li2 O8 2.102558 1_565
Li2 O7 2.137210 1_455
Li2 O6 2.198255 1_555
Li2 O2 2.314437 1_555
Li3 O4 2.060105 1_545
Li3 O11 2.107250 1_455
Li3 O3 2.115489 1_545
Li3 O8 2.152062 1_555
Li3 O0 2.202380 1_555
Li3 O9 2.356085 1_555
Li4 O9 2.043104 1_555
Li4 O4 2.097699 1_545
Li4 O11 2.098231 1_555
Li4 O0 2.181022 1_655
Li4 O1 2.242097 1_555
Li4 O10 2.288392 1_555
Li5 O11 2.071910 1_565
Li5 O8 2.118791 1_565
Li5 O3 2.136472 1_655
Li5 O4 2.169225 1_555
Li5 O5 2.177252 1_555
Li5 O7 2.255431 1_555
Li6 O3 2.091644 1_555
Li6 O9 2.107670 1_555
Li6 O10 2.110627 1_455
Li6 O4 2.116056 1_455
Li6 O0 2.125243 1_565
Li6 O11 2.141773 1_455
Mn0 O7 1.939511 1_554
Mn0 O10 1.943712 1_555
Mn0 O0 1.947739 1_665
Mn0 O6 1.947872 1_654
Mn0 O1 1.948977 1_565
Mn0 O2 1.969620 1_664
Mn1 O9 1.889796 1_555
Mn1 O4 1.898357 1_555
Mn1 O10 1.945455 1_555
Mn1 O0 1.955882 1_565
Mn1 O6 2.002615 1_554
Mn1 O1 2.016495 1_565
Co0 O8 1.902674 1_555
Co0 O5 2.004027 1_555
Co0 O2 2.017125 1_555
Co0 O7 2.039749 1_545
Co0 O1 2.074688 1_556
Co0 O6 2.136923 1_545
Co1 O11 1.879287 1_555
Co1 O3 2.004686 1_655
Co1 O5 2.018547 1_555
Co1 O2 2.076503 1_655
Co1 O8 2.080685 1_655
Co1 O7 2.110999 1_545
Co2 O3 1.915895 1_555
Co2 O4 2.009620 1_555
Co2 O9 2.012748 1_555
Co2 O11 2.050226 1_555
Co2 O5 2.085283 1_555
Co2 O8 2.117451 1_555
