# generated using pymatgen
data_Ba2La2TlCu2O9
_symmetry_space_group_name_H-M   'P 1'
_cell_length_a   16.49156128
_cell_length_b   16.49156128
_cell_length_c   16.49156128
_cell_angle_alpha   166.67734505
_cell_angle_beta   166.67734505
_cell_angle_gamma   18.88401916
_symmetry_Int_Tables_number   1
_chemical_formula_structural   Ba2La2TlCu2O9
_chemical_formula_sum   'Ba2 La2 Tl1 Cu2 O9'
_cell_volume   238.14418694
_cell_formula_units_Z   1
loop_
 _symmetry_equiv_pos_site_id
 _symmetry_equiv_pos_as_xyz
  1  'x, y, z'
loop_
 _atom_site_type_symbol
 _atom_site_label
 _atom_site_symmetry_multiplicity
 _atom_site_fract_x
 _atom_site_fract_y
 _atom_site_fract_z
 _atom_site_occupancy
  Ba  Ba0  1  0.41694600  0.41694600  0.00000000  1
  Ba  Ba1  1  0.58305400  0.58305400  0.00000000  1
  La  La0  1  0.29512700  0.29512700  0.00000000  1
  La  La1  1  0.70487300  0.70487300  0.00000000  1
  Tl  Tl0  1  0.00000000  0.00000000  0.00000000  1
  Cu  Cu0  1  0.15011300  0.15011300  0.00000000  1
  Cu  Cu1  1  0.84988700  0.84988700  0.00000000  1
  O  O0  1  0.06540000  0.06540000  0.00000000  1
  O  O1  1  0.93460000  0.93460000  0.00000000  1
  O  O2  1  0.22246400  0.22246400  0.00000000  1
  O  O3  1  0.77753600  0.77753600  0.00000000  1
  O  O4  1  0.50000000  0.50000000  0.00000000  1
  O  O5  1  0.65303500  0.15303500  0.50000000  1
  O  O6  1  0.34696500  0.84696500  0.50000000  1
  O  O7  1  0.15303500  0.65303500  0.50000000  1
  O  O8  1  0.84696500  0.34696500  0.50000000  1
loop_
_geom_bond_atom_site_label_1
_geom_bond_atom_site_label_2
_geom_bond_distance
_geom_bond_site_symmetry_2
Ba0 O4 2.702268 1_555
Ba0 O1 2.765732 1_444
Ba0 O1 2.765732 1_545
Ba0 O1 2.765732 1_455
Ba0 O1 2.765732 1_556
Ba0 O6 2.973893 1_555
Ba0 O8 2.973893 1_555
Ba0 O8 2.973893 1_454
Ba0 O6 2.973893 1_544
Ba1 O4 2.702268 1_555
Ba1 O0 2.765732 1_565
Ba1 O0 2.765732 1_655
Ba1 O0 2.765732 1_554
Ba1 O0 2.765732 1_666
Ba1 O5 2.973893 1_554
Ba1 O7 2.973893 1_554
Ba1 O7 2.973893 1_655
Ba1 O5 2.973893 1_565
La0 O2 2.364183 1_555
La0 O6 2.550361 1_544
La0 O8 2.550361 1_454
La0 O6 2.550361 1_555
La0 O8 2.550361 1_555
La0 O3 2.765307 1_545
La0 O3 2.765307 1_455
La0 O3 2.765307 1_556
La0 O3 2.765307 1_444
La1 O3 2.364183 1_555
La1 O5 2.550361 1_565
La1 O7 2.550361 1_554
La1 O5 2.550361 1_554
La1 O7 2.550361 1_655
La1 O2 2.765307 1_554
La1 O2 2.765307 1_655
La1 O2 2.765307 1_565
La1 O2 2.765307 1_666
Cu0 O7 1.915388 1_555
Cu0 O7 1.915388 1_544
Cu0 O5 1.915388 1_555
Cu0 O5 1.915388 1_454
Cu0 O2 2.354032 1_555
Cu1 O8 1.915388 1_554
Cu1 O6 1.915388 1_554
Cu1 O6 1.915388 1_655
Cu1 O8 1.915388 1_565
Cu1 O3 2.354032 1_555
O0 Tl0 2.127872 1_555
O1 Tl0 2.127872 1_665
O4 Tl0 2.705429 1_565
O4 Tl0 2.705429 1_666
O4 Tl0 2.705429 1_655
O4 Tl0 2.705429 1_554
