# generated using pymatgen
data_Hf9Re4S
_symmetry_space_group_name_H-M   'P 1'
_cell_length_a   8.55934600
_cell_length_b   8.56044642
_cell_length_c   8.56044642
_cell_angle_alpha   120.01156478
_cell_angle_beta   90.00000000
_cell_angle_gamma   90.00000000
_symmetry_Int_Tables_number   1
_chemical_formula_structural   Hf9Re4S
_chemical_formula_sum   'Hf18 Re8 S2'
_cell_volume   543.14204007
_cell_formula_units_Z   2
loop_
 _symmetry_equiv_pos_site_id
 _symmetry_equiv_pos_as_xyz
  1  'x, y, z'
loop_
 _atom_site_type_symbol
 _atom_site_label
 _atom_site_symmetry_multiplicity
 _atom_site_fract_x
 _atom_site_fract_y
 _atom_site_fract_z
 _atom_site_occupancy
  Hf  Hf0  1  0.55220000  0.80421300  0.60839700  1
  Hf  Hf1  1  0.55218400  0.80417000  0.19583000  1
  Hf  Hf2  1  0.55220000  0.39160300  0.19578700  1
  Hf  Hf3  1  0.44780000  0.19578700  0.39160300  1
  Hf  Hf4  1  0.44781600  0.19583000  0.80417000  1
  Hf  Hf5  1  0.44780000  0.60839700  0.80421300  1
  Hf  Hf6  1  0.05220000  0.19578700  0.39160300  1
  Hf  Hf7  1  0.05218400  0.19583000  0.80417000  1
  Hf  Hf8  1  0.05220000  0.60839700  0.80421300  1
  Hf  Hf9  1  0.94780000  0.80421300  0.60839700  1
  Hf  Hf10  1  0.94781600  0.80417000  0.19583000  1
  Hf  Hf11  1  0.94780000  0.39160300  0.19578700  1
  Hf  Hf12  1  0.75000000  0.45726300  0.91450300  1
  Hf  Hf13  1  0.75000000  0.45722900  0.54277100  1
  Hf  Hf14  1  0.75000000  0.08549700  0.54273700  1
  Hf  Hf15  1  0.25000000  0.54273700  0.08549700  1
  Hf  Hf16  1  0.25000000  0.54277100  0.45722900  1
  Hf  Hf17  1  0.25000000  0.91450300  0.45726300  1
  Re  Re0  1  0.75000000  0.10984700  0.21966000  1
  Re  Re1  1  0.75000000  0.10987500  0.89012500  1
  Re  Re2  1  0.75000000  0.78034000  0.89015300  1
  Re  Re3  1  0.25000000  0.89015300  0.78034000  1
  Re  Re4  1  0.25000000  0.89012500  0.10987500  1
  Re  Re5  1  0.25000000  0.21966000  0.10984700  1
  Re  Re6  1  0.50000000  0.00000000  0.00000000  1
  Re  Re7  1  0.00000000  0.00000000  0.00000000  1
  S  S0  1  0.75000000  0.66670100  0.33329900  1
  S  S1  1  0.25000000  0.33329900  0.66670100  1
loop_
_geom_bond_atom_site_label_1
_geom_bond_atom_site_label_2
_geom_bond_distance
_geom_bond_site_symmetry_2
Hf0 S0 2.650433 1_555
Hf0 Re3 2.883606 1_555
Hf0 Re6 2.937019 1_566
Hf0 Re1 3.035895 1_565
Hf0 Re2 3.036243 1_555
Hf1 S0 2.649882 1_555
Hf1 Re4 2.883474 1_555
Hf1 Re6 2.937918 1_565
Hf1 Re0 3.036734 1_565
Hf1 Re2 3.036734 1_554
Hf2 S0 2.650433 1_555
Hf2 Re5 2.883606 1_555
Hf2 Re6 2.937019 1_555
Hf2 Re1 3.035895 1_554
Hf2 Re0 3.036243 1_555
Hf3 S1 2.650433 1_555
Hf3 Re0 2.883606 1_555
Hf3 Re6 2.937019 1_555
Hf3 Re4 3.035895 1_545
Hf3 Re5 3.036243 1_555
Hf4 S1 2.649882 1_555
Hf4 Re1 2.883474 1_555
Hf4 Re6 2.937918 1_556
Hf4 Re5 3.036734 1_556
Hf4 Re3 3.036734 1_545
Hf5 S1 2.650433 1_555
Hf5 Re2 2.883606 1_555
Hf5 Re6 2.937019 1_566
Hf5 Re4 3.035895 1_556
Hf5 Re3 3.036243 1_555
Hf6 S1 2.650433 1_555
Hf6 Re0 2.883606 1_455
Hf6 Re7 2.937019 1_555
Hf6 Re4 3.035895 1_545
Hf6 Re5 3.036243 1_555
Hf7 S1 2.649882 1_555
Hf7 Re1 2.883474 1_455
Hf7 Re7 2.937918 1_556
Hf7 Re5 3.036734 1_556
Hf7 Re3 3.036734 1_545
Hf8 S1 2.650433 1_555
Hf8 Re2 2.883606 1_455
Hf8 Re7 2.937019 1_566
Hf8 Re4 3.035895 1_556
Hf8 Re3 3.036243 1_555
Hf9 S0 2.650433 1_555
Hf9 Re3 2.883606 1_655
Hf9 Re7 2.937019 1_666
Hf9 Re1 3.035895 1_565
Hf9 Re2 3.036243 1_555
Hf10 S0 2.649882 1_555
Hf10 Re4 2.883474 1_655
Hf10 Re7 2.937918 1_665
Hf10 Re0 3.036734 1_565
Hf10 Re2 3.036734 1_554
Hf11 S0 2.650433 1_555
Hf11 Re5 2.883606 1_655
Hf11 Re7 2.937019 1_655
Hf11 Re1 3.035895 1_554
Hf11 Re0 3.036243 1_555
Hf12 Re1 2.875101 1_555
Hf12 Re2 2.875614 1_555
Hf12 S0 3.104409 1_556
Hf13 Re0 2.874995 1_555
Hf13 Re2 2.874995 1_555
Hf13 S0 3.106049 1_555
Hf14 Re1 2.875101 1_555
Hf14 Re0 2.875614 1_555
Hf14 S0 3.104409 1_545
Hf15 Re4 2.875101 1_555
Hf15 Re5 2.875614 1_555
Hf15 S1 3.104409 1_554
Hf16 Re5 2.874995 1_555
Hf16 Re3 2.874995 1_555
Hf16 S1 3.106049 1_555
Hf17 Re4 2.875101 1_555
Hf17 Re3 2.875614 1_555
Hf17 S1 3.104409 1_565
Re0 Re6 2.688899 1_555
Re0 Re7 2.688899 1_655
Re0 Re2 2.820234 1_544
Re0 Re1 2.821087 1_554
Re1 Re6 2.689475 1_556
Re1 Re7 2.689475 1_656
Re1 Re2 2.821087 1_545
Re2 Re6 2.688899 1_566
Re2 Re7 2.688899 1_666
Re3 Re7 2.688899 1_566
Re3 Re6 2.688899 1_566
Re3 Re5 2.820234 1_566
Re3 Re4 2.821087 1_556
Re4 Re6 2.689475 1_565
Re4 Re7 2.689475 1_565
Re4 Re5 2.821087 1_565
Re5 Re6 2.688899 1_555
Re5 Re7 2.688899 1_555
