# generated using pymatgen
data_Ga3GePt8
_symmetry_space_group_name_H-M   'P 1'
_cell_length_a   4.12565500
_cell_length_b   5.58731000
_cell_length_c   8.00150394
_cell_angle_alpha   89.85983776
_cell_angle_beta   90.00000000
_cell_angle_gamma   90.00000000
_symmetry_Int_Tables_number   1
_chemical_formula_structural   Ga3GePt8
_chemical_formula_sum   'Ga3 Ge1 Pt8'
_cell_volume   184.44462345
_cell_formula_units_Z   1
loop_
 _symmetry_equiv_pos_site_id
 _symmetry_equiv_pos_as_xyz
  1  'x, y, z'
loop_
 _atom_site_type_symbol
 _atom_site_label
 _atom_site_symmetry_multiplicity
 _atom_site_fract_x
 _atom_site_fract_y
 _atom_site_fract_z
 _atom_site_occupancy
  Ga  Ga0  1  0.00000000  0.69597100  0.39823300  1
  Ga  Ga1  1  0.50000000  0.79981800  0.89215700  1
  Ga  Ga2  1  0.50000000  0.30490400  0.60432200  1
  Ge  Ge0  1  0.00000000  0.19715300  0.10389100  1
  Pt  Pt0  1  0.00000000  0.64745500  0.07313700  1
  Pt  Pt1  1  0.00000000  0.15476600  0.42616200  1
  Pt  Pt2  1  0.50000000  0.34474100  0.92894900  1
  Pt  Pt3  1  0.50000000  0.84679200  0.57185300  1
  Pt  Pt4  1  0.00000000  0.54685300  0.70535200  1
  Pt  Pt5  1  0.00000000  0.04810000  0.79720100  1
  Pt  Pt6  1  0.50000000  0.45841400  0.29899200  1
  Pt  Pt7  1  0.50000000  0.95503200  0.19974900  1
loop_
_geom_bond_atom_site_label_1
_geom_bond_atom_site_label_2
_geom_bond_distance
_geom_bond_site_symmetry_2
Ga0 Pt1 2.573697 1_565
Ga0 Pt6 2.579285 1_555
Ga0 Pt6 2.579285 1_455
Ga0 Pt4 2.592882 1_555
Ga0 Pt0 2.616002 1_555
Ga0 Pt3 2.626982 1_455
Ga0 Pt3 2.626982 1_555
Ga0 Pt7 2.976814 1_455
Ga0 Pt7 2.976814 1_555
Ga0 Pt1 3.031581 1_555
Ga1 Pt2 2.558927 1_555
Ga1 Pt3 2.575679 1_555
Ga1 Pt5 2.598420 1_565
Ga1 Pt5 2.598420 1_665
Ga1 Pt7 2.611518 1_556
Ga1 Pt0 2.659129 1_556
Ga1 Pt0 2.659129 1_656
Ga1 Pt4 2.915041 1_555
Ga1 Pt4 2.915041 1_655
Ga1 Pt2 3.059570 1_565
Ga2 Pt3 2.573397 1_545
Ga2 Pt6 2.587304 1_555
Ga2 Pt4 2.596456 1_555
Ga2 Pt4 2.596456 1_655
Ga2 Pt2 2.607566 1_555
Ga2 Pt1 2.645183 1_655
Ga2 Pt1 2.645183 1_555
Ga2 Pt5 2.947040 1_655
Ga2 Pt5 2.947040 1_555
Ga2 Pt3 3.038189 1_555
Ge0 Pt0 2.527383 1_555
Ge0 Pt7 2.582356 1_545
Ge0 Pt7 2.582356 1_445
Ge0 Pt1 2.588928 1_555
Ge0 Pt5 2.593374 1_554
Ge0 Pt2 2.624699 1_454
Ge0 Pt2 2.624699 1_554
Ge0 Pt6 2.972256 1_455
Ge0 Pt6 2.972256 1_555
Ge0 Pt0 3.081775 1_545
