# generated using pymatgen
data_Ba2Mg3Tl2(SnO3)4
_symmetry_space_group_name_H-M   'P 1'
_cell_length_a   23.44613961
_cell_length_b   23.44613961
_cell_length_c   23.44613961
_cell_angle_alpha   169.89466512
_cell_angle_beta   169.89466512
_cell_angle_gamma   14.30974802
_symmetry_Int_Tables_number   1
_chemical_formula_structural   Ba2Mg3Tl2(SnO3)4
_chemical_formula_sum   'Ba2 Mg3 Tl2 Sn4 O12'
_cell_volume   396.77935594
_cell_formula_units_Z   1
loop_
 _symmetry_equiv_pos_site_id
 _symmetry_equiv_pos_as_xyz
  1  'x, y, z'
loop_
 _atom_site_type_symbol
 _atom_site_label
 _atom_site_symmetry_multiplicity
 _atom_site_fract_x
 _atom_site_fract_y
 _atom_site_fract_z
 _atom_site_occupancy
  Ba  Ba0  1  0.17304400  0.17304400  0.00000000  1
  Ba  Ba1  1  0.82695600  0.82695600  0.00000000  1
  Mg  Mg0  1  0.08110300  0.08110300  0.00000000  1
  Mg  Mg1  1  0.91889700  0.91889700  0.00000000  1
  Mg  Mg2  1  0.00000000  0.00000000  0.00000000  1
  Tl  Tl0  1  0.72654900  0.72654900  0.00000000  1
  Tl  Tl1  1  0.27345100  0.27345100  0.00000000  1
  Sn  Sn0  1  0.53044700  0.53044700  0.00000000  1
  Sn  Sn1  1  0.38843100  0.38843100  0.00000000  1
  Sn  Sn2  1  0.61156900  0.61156900  0.00000000  1
  Sn  Sn3  1  0.46955300  0.46955300  0.00000000  1
  O  O0  1  0.90289700  0.40289700  0.50000000  1
  O  O1  1  0.03327100  0.53327100  0.50000000  1
  O  O2  1  0.22326400  0.22326400  0.00000000  1
  O  O3  1  0.46672900  0.96672900  0.50000000  1
  O  O4  1  0.77673600  0.77673600  0.00000000  1
  O  O5  1  0.59710300  0.09710300  0.50000000  1
  O  O6  1  0.09710300  0.59710300  0.50000000  1
  O  O7  1  0.34551000  0.34551000  0.00000000  1
  O  O8  1  0.40289700  0.90289700  0.50000000  1
  O  O9  1  0.53327100  0.03327100  0.50000000  1
  O  O10  1  0.96672900  0.46672900  0.50000000  1
  O  O11  1  0.65449000  0.65449000  0.00000000  1
loop_
_geom_bond_atom_site_label_1
_geom_bond_atom_site_label_2
_geom_bond_distance
_geom_bond_site_symmetry_2
Ba0 O2 2.336593 1_555
Ba0 O11 3.045183 1_545
Ba0 O11 3.045183 1_556
Ba0 O11 3.045183 1_455
Ba0 O11 3.045183 1_444
Ba1 O4 2.336593 1_555
Ba1 O7 3.045183 1_554
Ba1 O7 3.045183 1_655
Ba1 O7 3.045183 1_666
Ba1 O7 3.045183 1_565
Mg0 O5 2.195026 1_555
Mg0 O6 2.195026 1_555
Mg0 O5 2.195026 1_454
Mg0 O6 2.195026 1_544
Mg1 O0 2.195026 1_565
Mg1 O8 2.195026 1_655
Mg1 O8 2.195026 1_554
Mg1 O0 2.195026 1_554
Mg2 O3 2.580751 1_545
Mg2 O9 2.580751 1_454
Mg2 O1 2.580751 1_544
Mg2 O9 2.580751 1_555
Mg2 O10 2.580751 1_455
Mg2 O1 2.580751 1_555
Mg2 O10 2.580751 1_444
Mg2 O3 2.580751 1_444
O0 Sn1 2.171858 1_555
O0 Sn1 2.171858 1_656
O1 Sn0 2.069111 1_556
O1 Sn0 2.069111 1_455
O2 Tl1 2.335057 1_555
O3 Sn3 2.069111 1_566
O3 Sn3 2.069111 1_555
O4 Tl0 2.335057 1_555
O5 Sn2 2.171858 1_545
O5 Sn2 2.171858 1_556
O6 Sn2 2.171858 1_455
O6 Sn2 2.171858 1_556
O7 Sn1 1.996991 1_555
O8 Sn1 2.171858 1_555
O8 Sn1 2.171858 1_566
O9 Sn0 2.069111 1_556
O9 Sn0 2.069111 1_545
O10 Sn3 2.069111 1_555
O10 Sn3 2.069111 1_656
O11 Sn2 1.996991 1_555
