# generated using pymatgen
data_CoSiNi
_symmetry_space_group_name_H-M   'P 1'
_cell_length_a   4.99862400
_cell_length_b   3.69636500
_cell_length_c   7.06064400
_cell_angle_alpha   90.00000000
_cell_angle_beta   90.00000000
_cell_angle_gamma   90.00000000
_symmetry_Int_Tables_number   1
_chemical_formula_structural   CoSiNi
_chemical_formula_sum   'Co4 Si4 Ni4'
_cell_volume   130.45767496
_cell_formula_units_Z   4
loop_
 _symmetry_equiv_pos_site_id
 _symmetry_equiv_pos_as_xyz
  1  'x, y, z'
loop_
 _atom_site_type_symbol
 _atom_site_label
 _atom_site_symmetry_multiplicity
 _atom_site_fract_x
 _atom_site_fract_y
 _atom_site_fract_z
 _atom_site_occupancy
  Co  Co0  1  0.03750400  0.25000000  0.28976500  1
  Co  Co1  1  0.53750400  0.25000000  0.21023500  1
  Co  Co2  1  0.96249600  0.75000000  0.71023500  1
  Co  Co3  1  0.46249600  0.75000000  0.78976500  1
  Si  Si0  1  0.20750000  0.25000000  0.60941700  1
  Si  Si1  1  0.70750000  0.25000000  0.89058300  1
  Si  Si2  1  0.79250000  0.75000000  0.39058300  1
  Si  Si3  1  0.29250000  0.75000000  0.10941700  1
  Ni  Ni0  1  0.17070200  0.25000000  0.93525500  1
  Ni  Ni1  1  0.67070200  0.25000000  0.56474500  1
  Ni  Ni2  1  0.82929800  0.75000000  0.06474500  1
  Ni  Ni3  1  0.32929800  0.75000000  0.43525500  1
loop_
_geom_bond_atom_site_label_1
_geom_bond_atom_site_label_2
_geom_bond_distance
_geom_bond_site_symmetry_2
Co0 Si2 2.328592 1_445
Co0 Si2 2.328592 1_455
Co0 Si0 2.411615 1_555
Co0 Co1 2.561617 1_455
Co0 Co1 2.561617 1_555
Co0 Ni3 2.568745 1_555
Co0 Ni3 2.568745 1_545
Co0 Si3 2.581073 1_545
Co0 Si3 2.581073 1_555
Co0 Ni0 2.590107 1_554
Co0 Ni2 2.650126 1_445
Co0 Ni2 2.650126 1_455
Co0 Ni1 2.670450 1_455
Co1 Si3 2.328592 1_545
Co1 Si3 2.328592 1_555
Co1 Si1 2.411615 1_554
Co1 Ni2 2.568745 1_545
Co1 Ni2 2.568745 1_555
Co1 Si2 2.581073 1_555
Co1 Si2 2.581073 1_545
Co1 Ni1 2.590107 1_555
Co1 Ni3 2.650126 1_555
Co1 Ni3 2.650126 1_545
Co1 Ni0 2.670450 1_554
Co2 Si0 2.328592 1_665
Co2 Si0 2.328592 1_655
Co2 Si2 2.411615 1_555
Co2 Co3 2.561617 1_555
Co2 Co3 2.561617 1_655
Co2 Ni1 2.568745 1_565
Co2 Ni1 2.568745 1_555
Co2 Si1 2.581073 1_555
Co2 Si1 2.581073 1_565
Co2 Ni2 2.590107 1_556
Co2 Ni0 2.650126 1_655
Co2 Ni0 2.650126 1_665
Co2 Ni3 2.670450 1_655
Co3 Si1 2.328592 1_555
Co3 Si1 2.328592 1_565
Co3 Si3 2.411615 1_556
Co3 Ni0 2.568745 1_565
Co3 Ni0 2.568745 1_555
Co3 Si0 2.581073 1_555
Co3 Si0 2.581073 1_565
Co3 Ni3 2.590107 1_555
Co3 Ni1 2.650126 1_565
Co3 Ni1 2.650126 1_555
Co3 Ni2 2.670450 1_556
Ni0 Si3 2.301868 1_556
Ni0 Si3 2.301868 1_546
Ni0 Si0 2.307968 1_555
Ni0 Si1 2.336758 1_455
Ni0 Ni2 2.676566 1_456
Ni0 Ni2 2.676566 1_446
Ni0 Si1 2.701726 1_555
Ni1 Si2 2.301868 1_555
Ni1 Si2 2.301868 1_545
Ni1 Si1 2.307968 1_555
Ni1 Si0 2.336758 1_555
Ni1 Ni3 2.676566 1_555
Ni1 Ni3 2.676566 1_545
Ni1 Si0 2.701726 1_655
Ni2 Si1 2.301868 1_554
Ni2 Si1 2.301868 1_564
Ni2 Si2 2.307968 1_555
Ni2 Si3 2.336758 1_655
Ni2 Si3 2.701726 1_555
Ni3 Si0 2.301868 1_555
Ni3 Si0 2.301868 1_565
Ni3 Si3 2.307968 1_555
Ni3 Si2 2.336758 1_555
Ni3 Si2 2.701726 1_455
