# generated using pymatgen
data_Fe3Mo6RhN2
_symmetry_space_group_name_H-M   'P 1'
_cell_length_a   6.69142300
_cell_length_b   6.67524000
_cell_length_c   6.70040238
_cell_angle_alpha   89.76288600
_cell_angle_beta   90.00000000
_cell_angle_gamma   90.00000000
_symmetry_Int_Tables_number   1
_chemical_formula_structural   Fe3Mo6RhN2
_chemical_formula_sum   'Fe6 Mo12 Rh2 N4'
_cell_volume   299.28333499
_cell_formula_units_Z   2
loop_
 _symmetry_equiv_pos_site_id
 _symmetry_equiv_pos_as_xyz
  1  'x, y, z'
loop_
 _atom_site_type_symbol
 _atom_site_label
 _atom_site_symmetry_multiplicity
 _atom_site_fract_x
 _atom_site_fract_y
 _atom_site_fract_z
 _atom_site_occupancy
  Fe  Fe0  1  0.82023100  0.67889000  0.56927200  1
  Fe  Fe1  1  0.32023100  0.32111000  0.43072800  1
  Fe  Fe2  1  0.06913900  0.56351900  0.32879500  1
  Fe  Fe3  1  0.43012600  0.07626000  0.19423800  1
  Fe  Fe4  1  0.56913900  0.43648100  0.67120500  1
  Fe  Fe5  1  0.93012600  0.92374000  0.80576200  1
  Mo  Mo0  1  0.62376300  0.04693900  0.54520500  1
  Mo  Mo1  1  0.12376300  0.95306100  0.45479500  1
  Mo  Mo2  1  0.87573100  0.55197100  0.95330400  1
  Mo  Mo3  1  0.37573100  0.44802900  0.04669600  1
  Mo  Mo4  1  0.20381700  0.62041300  0.69772400  1
  Mo  Mo5  1  0.29512600  0.12766700  0.79519400  1
  Mo  Mo6  1  0.79512600  0.87233300  0.20480600  1
  Mo  Mo7  1  0.70381700  0.37958700  0.30227600  1
  Mo  Mo8  1  0.04997300  0.20827900  0.13001100  1
  Mo  Mo9  1  0.95107500  0.29874100  0.62340500  1
  Mo  Mo10  1  0.54997300  0.79172100  0.86998900  1
  Mo  Mo11  1  0.45107500  0.70125900  0.37659500  1
  Rh  Rh0  1  0.68413300  0.18404200  0.93330900  1
  Rh  Rh1  1  0.18413300  0.81595800  0.06669100  1
  N  N0  1  0.37371300  0.87448300  0.62663400  1
  N  N1  1  0.87371300  0.12551700  0.37336600  1
  N  N2  1  0.12317300  0.37595700  0.87652800  1
  N  N3  1  0.62317300  0.62404300  0.12347200  1
loop_
_geom_bond_atom_site_label_1
_geom_bond_atom_site_label_2
_geom_bond_distance
_geom_bond_site_symmetry_2
Fe0 Fe5 2.396756 1_555
Fe0 Fe4 2.428714 1_555
Fe0 Fe2 2.444113 1_655
Fe0 Mo9 2.707368 1_555
Fe0 Mo2 2.731089 1_555
Fe0 Mo4 2.734684 1_655
Fe0 Mo6 2.762828 1_555
Fe0 Mo0 2.790515 1_565
Fe0 Mo11 2.790914 1_555
Fe0 Mo7 2.797949 1_555
Fe0 Mo10 2.812491 1_555
Fe0 Mo1 2.837502 1_655
Fe1 Fe3 2.396756 1_555
Fe1 Fe2 2.428714 1_555
Fe1 Fe4 2.444113 1_555
Fe1 Mo11 2.707368 1_555
Fe1 Mo3 2.731089 1_555
Fe1 Mo7 2.734684 1_555
Fe1 Mo5 2.762828 1_555
Fe1 Mo1 2.790515 1_545
Fe1 Mo9 2.790914 1_455
Fe1 Mo4 2.797949 1_555
Fe1 Mo8 2.812491 1_555
Fe1 Mo0 2.837502 1_555
Fe2 Rh1 2.547817 1_555
Fe2 Mo4 2.659848 1_555
Fe2 Mo8 2.727592 1_555
Fe2 Mo11 2.735321 1_555
Fe2 Mo7 2.741632 1_455
Fe2 Mo9 2.759683 1_455
Fe2 Mo1 2.761525 1_555
Fe2 Mo2 2.830617 1_454
Fe2 Mo6 2.878762 1_455
Fe2 Mo3 2.896197 1_555
Fe3 Rh0 2.540227 1_554
Fe3 Rh1 2.543874 1_545
Fe3 Mo0 2.691370 1_555
Fe3 Mo3 2.692222 1_555
Fe3 Mo8 2.725695 1_555
Fe3 Mo11 2.784494 1_545
Fe3 Mo6 2.796859 1_545
Fe3 Mo1 2.813342 1_545
Fe3 Mo7 2.826634 1_555
Fe3 Mo5 2.841682 1_554
Fe3 Mo10 3.000842 1_544
Fe4 Rh0 2.547817 1_555
Fe4 Mo7 2.659848 1_555
Fe4 Mo10 2.727592 1_555
Fe4 Mo9 2.735321 1_555
Fe4 Mo4 2.741632 1_555
Fe4 Mo11 2.759683 1_555
Fe4 Mo0 2.761525 1_555
Fe4 Mo3 2.830617 1_556
Fe4 Mo5 2.878762 1_555
Fe4 Mo2 2.896197 1_555
Fe5 Rh1 2.540227 1_656
Fe5 Rh0 2.543874 1_565
Fe5 Mo1 2.691370 1_655
Fe5 Mo2 2.692222 1_555
Fe5 Mo10 2.725695 1_555
Fe5 Mo9 2.784494 1_565
Fe5 Mo5 2.796859 1_665
Fe5 Mo0 2.813342 1_565
Fe5 Mo4 2.826634 1_655
Fe5 Mo6 2.841682 1_556
Fe5 Mo8 3.000842 1_666
Mo0 N1 2.095986 1_555
Mo0 N0 2.101733 1_545
Mo0 Rh0 2.789771 1_555
Mo1 N0 2.095986 1_555
Mo1 N1 2.101733 1_465
Mo1 Rh1 2.789771 1_555
Mo2 N2 2.095611 1_655
Mo2 N3 2.095721 1_556
Mo2 Rh0 2.774232 1_555
Mo2 Rh1 2.819963 1_656
Mo3 N3 2.095611 1_555
Mo3 N2 2.095721 1_554
Mo3 Rh1 2.774232 1_555
Mo3 Rh0 2.819963 1_554
Mo4 N2 2.091204 1_555
Mo4 N0 2.094986 1_555
Mo4 Rh1 2.803533 1_556
Mo5 N2 2.091729 1_555
Mo5 N0 2.103386 1_545
Mo5 Rh0 2.788651 1_555
Mo5 Rh1 2.856395 1_546
Mo6 N3 2.091729 1_555
Mo6 N1 2.103386 1_565
Mo6 Rh1 2.788651 1_655
Mo6 Rh0 2.856395 1_564
Mo7 N3 2.091204 1_555
Mo7 N1 2.094986 1_555
Mo7 Rh0 2.803533 1_554
Mo8 N1 2.085087 1_455
Mo8 N2 2.088465 1_554
Mo8 Rh0 2.785260 1_454
Mo8 Rh1 2.802394 1_545
Mo9 N1 2.104258 1_555
Mo9 N2 2.115550 1_655
Mo9 Rh0 2.841727 1_555
Mo10 N0 2.085087 1_555
Mo10 N3 2.088465 1_556
Mo10 Rh1 2.785260 1_556
Mo10 Rh0 2.802394 1_565
Mo11 N0 2.104258 1_555
Mo11 N3 2.115550 1_555
Mo11 Rh1 2.841727 1_555
