# generated using pymatgen
data_Ho12Al7Si
_symmetry_space_group_name_H-M   'P 1'
_cell_length_a   11.18288979
_cell_length_b   11.18288979
_cell_length_c   11.18288979
_cell_angle_alpha   117.42364729
_cell_angle_beta   117.42364729
_cell_angle_gamma   94.52348207
_symmetry_Int_Tables_number   1
_chemical_formula_structural   Ho12Al7Si
_chemical_formula_sum   'Ho24 Al14 Si2'
_cell_volume   1023.94428877
_cell_formula_units_Z   2
loop_
 _symmetry_equiv_pos_site_id
 _symmetry_equiv_pos_as_xyz
  1  'x, y, z'
loop_
 _atom_site_type_symbol
 _atom_site_label
 _atom_site_symmetry_multiplicity
 _atom_site_fract_x
 _atom_site_fract_y
 _atom_site_fract_z
 _atom_site_occupancy
  Ho  Ho0  1  0.14746900  0.64746900  0.50000000  1
  Ho  Ho1  1  0.85253100  0.35253100  0.50000000  1
  Ho  Ho2  1  0.64746900  0.14746900  0.50000000  1
  Ho  Ho3  1  0.35253100  0.85253100  0.50000000  1
  Ho  Ho4  1  0.83687700  0.70068400  0.26513000  1
  Ho  Ho5  1  0.16312300  0.29931600  0.73487000  1
  Ho  Ho6  1  0.43555400  0.57174700  0.73487000  1
  Ho  Ho7  1  0.70068400  0.43555400  0.86380800  1
  Ho  Ho8  1  0.06444600  0.79931600  0.13619200  1
  Ho  Ho9  1  0.56444600  0.42825300  0.26513000  1
  Ho  Ho10  1  0.29931600  0.56444600  0.13619200  1
  Ho  Ho11  1  0.93555400  0.20068400  0.86380800  1
  Ho  Ho12  1  0.57174700  0.83687700  0.13619200  1
  Ho  Ho13  1  0.66312300  0.92825300  0.86380800  1
  Ho  Ho14  1  0.42825300  0.16312300  0.86380800  1
  Ho  Ho15  1  0.33687700  0.07174700  0.13619200  1
  Ho  Ho16  1  0.92825300  0.06444600  0.26513000  1
  Ho  Ho17  1  0.07174700  0.93555400  0.73487000  1
  Ho  Ho18  1  0.79931600  0.66312300  0.73487000  1
  Ho  Ho19  1  0.20068400  0.33687700  0.26513000  1
  Ho  Ho20  1  0.16995600  0.66995600  0.83991100  1
  Ho  Ho21  1  0.83004400  0.33004400  0.16008900  1
  Ho  Ho22  1  0.66995600  0.83004400  0.50000000  1
  Ho  Ho23  1  0.33004400  0.16995600  0.50000000  1
  Al  Al0  1  0.61791800  0.11791800  0.73583600  1
  Al  Al1  1  0.38208200  0.88208200  0.26416400  1
  Al  Al2  1  0.11791800  0.38208200  0.50000000  1
  Al  Al3  1  0.88208200  0.61791800  0.50000000  1
  Al  Al4  1  0.50000000  0.50000000  0.00000000  1
  Al  Al5  1  0.00000000  0.00000000  0.00000000  1
  Al  Al6  1  0.38165300  0.88165300  0.85646500  1
  Al  Al7  1  0.61834700  0.11834700  0.14353500  1
  Al  Al8  1  0.02518800  0.52518800  0.14353500  1
  Al  Al9  1  0.88165300  0.02518800  0.50000000  1
  Al  Al10  1  0.47481200  0.61834700  0.50000000  1
  Al  Al11  1  0.97481200  0.47481200  0.85646500  1
  Al  Al12  1  0.11834700  0.97481200  0.50000000  1
  Al  Al13  1  0.52518800  0.38165300  0.50000000  1
  Si  Si0  1  0.75000000  0.75000000  0.00000000  1
  Si  Si1  1  0.25000000  0.25000000  0.00000000  1
loop_
_geom_bond_atom_site_label_1
_geom_bond_atom_site_label_2
_geom_bond_distance
_geom_bond_site_symmetry_2
Ho4 Si0 2.996018 1_555
Ho5 Si1 2.996018 1_556
Ho6 Si0 2.996018 1_556
Ho7 Si0 2.996020 1_556
Ho8 Si0 2.996020 1_455
Ho9 Si1 2.996018 1_555
Ho10 Si1 2.996020 1_555
Ho11 Si1 2.996020 1_656
Ho12 Si0 2.996011 1_555
Ho13 Si0 2.996011 1_556
Ho14 Si1 2.996011 1_556
Ho15 Si1 2.996011 1_555
Ho16 Si0 2.996018 1_545
Ho17 Si1 2.996018 1_566
Ho18 Si0 2.996018 1_556
Ho19 Si1 2.996018 1_555
Al0 Ho3 2.960119 1_545
Al0 Ho2 2.960119 1_555
Al0 Ho11 3.016767 1_555
Al0 Ho7 3.016767 1_555
Al0 Ho14 3.016777 1_555
Al0 Ho13 3.016777 1_545
Al0 Ho23 3.397995 1_555
Al0 Ho22 3.397995 1_545
Al0 Ho21 3.484561 1_556
Al1 Ho3 2.960119 1_555
Al1 Ho2 2.960119 1_565
Al1 Ho8 3.016767 1_555
Al1 Ho10 3.016767 1_555
Al1 Ho12 3.016777 1_555
Al1 Ho15 3.016777 1_565
Al1 Ho23 3.397995 1_565
Al1 Ho22 3.397995 1_555
Al1 Ho20 3.484561 1_554
Al2 Ho1 2.960119 1_455
Al2 Ho0 2.960119 1_555
Al2 Ho5 3.016769 1_555
Al2 Ho16 3.016769 1_455
Al2 Ho19 3.016769 1_555
Al2 Ho6 3.016769 1_555
Al2 Ho21 3.397988 1_455
Al2 Ho20 3.397988 1_555
Al2 Ho23 3.484553 1_555
Al3 Ho1 2.960119 1_555
Al3 Ho0 2.960119 1_655
Al3 Ho17 3.016769 1_655
Al3 Ho4 3.016769 1_555
Al3 Ho9 3.016769 1_555
Al3 Ho18 3.016769 1_555
Al3 Ho20 3.397988 1_655
Al3 Ho21 3.397988 1_555
Al3 Ho22 3.484553 1_555
Al4 Ho10 3.204377 1_555
Al4 Ho7 3.204377 1_554
Al4 Ho5 3.204385 1_554
Al4 Ho6 3.204385 1_554
Al4 Ho4 3.204385 1_555
Al4 Ho9 3.204385 1_555
Al4 Ho14 3.204387 1_554
Al4 Ho12 3.204387 1_555
Al5 Ho8 3.204377 1_545
Al5 Ho11 3.204377 1_454
Al5 Ho17 3.204385 1_544
Al5 Ho18 3.204385 1_444
Al5 Ho16 3.204385 1_455
Al5 Ho19 3.204385 1_555
Al5 Ho13 3.204387 1_444
Al5 Ho15 3.204387 1_555
Al6 Al7 2.749322 1_566
Al6 Ho0 3.048476 1_555
Al6 Ho20 3.090611 1_555
Al6 Ho14 3.106406 1_565
Al6 Ho13 3.106406 1_555
Al6 Ho15 3.168667 1_566
Al6 Ho12 3.168667 1_556
Al6 Ho6 3.311597 1_555
Al6 Ho17 3.311597 1_555
Al6 Ho3 3.700594 1_555
Al7 Ho1 3.048476 1_555
Al7 Ho21 3.090611 1_555
Al7 Ho12 3.106406 1_545
Al7 Ho15 3.106406 1_555
Al7 Ho14 3.168667 1_554
Al7 Ho13 3.168667 1_544
Al7 Ho9 3.311597 1_555
Al7 Ho16 3.311597 1_555
Al7 Ho2 3.700594 1_555
Al8 Ho0 3.048476 1_555
Al8 Ho21 3.090626 1_455
Al8 Ho8 3.106418 1_555
Al8 Ho10 3.106418 1_555
Al8 Ho11 3.168671 1_454
Al8 Ho7 3.168671 1_454
Al8 Ho4 3.311597 1_455
Al8 Ho19 3.311597 1_555
Al8 Ho3 3.700594 1_555
Al9 Ho2 3.048476 1_555
Al9 Ho22 3.090618 1_545
Al9 Ho5 3.106412 1_655
Al9 Ho16 3.106412 1_555
Al9 Ho4 3.168675 1_545
Al9 Ho17 3.168675 1_645
Al9 Ho12 3.311602 1_545
Al9 Ho11 3.311606 1_555
Al9 Ho1 3.700594 1_555
Al10 Al13 2.749322 1_555
Al10 Ho3 3.048476 1_555
Al10 Ho22 3.090618 1_555
Al10 Ho19 3.106412 1_555
Al10 Ho6 3.106412 1_555
Al10 Ho9 3.168675 1_555
Al10 Ho18 3.168675 1_555
Al10 Ho13 3.311602 1_555
Al10 Ho10 3.311606 1_555
Al10 Ho0 3.700594 1_555
Al11 Al8 2.749322 1_656
Al11 Ho1 3.048476 1_555
Al11 Ho20 3.090626 1_655
Al11 Ho11 3.106418 1_555
Al11 Ho7 3.106418 1_555
Al11 Ho8 3.168671 1_656
Al11 Ho10 3.168671 1_656
Al11 Ho5 3.311597 1_655
Al11 Ho18 3.311597 1_555
Al11 Ho2 3.700594 1_555
Al12 Al9 2.749322 1_465
Al12 Ho3 3.048476 1_555
Al12 Ho23 3.090618 1_565
Al12 Ho4 3.106412 1_455
Al12 Ho17 3.106412 1_555
Al12 Ho16 3.168675 1_465
Al12 Ho5 3.168675 1_565
Al12 Ho14 3.311602 1_565
Al12 Ho8 3.311606 1_555
Al12 Ho0 3.700594 1_555
Al13 Ho2 3.048476 1_555
Al13 Ho23 3.090618 1_555
Al13 Ho9 3.106412 1_555
Al13 Ho18 3.106412 1_555
Al13 Ho19 3.168675 1_555
Al13 Ho6 3.168675 1_555
Al13 Ho15 3.311602 1_555
Al13 Ho7 3.311606 1_555
Al13 Ho1 3.700594 1_555
