# generated using pymatgen
data_MgMn2Fe2(PO4)4
_symmetry_space_group_name_H-M   'P 1'
_cell_length_a   10.23884728
_cell_length_b   6.04877898
_cell_length_c   4.89103849
_cell_angle_alpha   90.22138213
_cell_angle_beta   88.51171310
_cell_angle_gamma   89.51079335
_symmetry_Int_Tables_number   1
_chemical_formula_structural   MgMn2Fe2(PO4)4
_chemical_formula_sum   'Mg1 Mn2 Fe2 P4 O16'
_cell_volume   302.79860649
_cell_formula_units_Z   1
loop_
 _symmetry_equiv_pos_site_id
 _symmetry_equiv_pos_as_xyz
  1  'x, y, z'
loop_
 _atom_site_type_symbol
 _atom_site_label
 _atom_site_symmetry_multiplicity
 _atom_site_fract_x
 _atom_site_fract_y
 _atom_site_fract_z
 _atom_site_occupancy
  Mg  Mg0  1  0.99845000  0.49394900  0.00540300  1
  Mn  Mn0  1  0.23317400  0.76244300  0.48510600  1
  Mn  Mn1  1  0.29396200  0.25550700  0.94790900  1
  Fe  Fe0  1  0.71150200  0.75255400  0.03405500  1
  Fe  Fe1  1  0.76630200  0.24217600  0.52074200  1
  P  P0  1  0.09658600  0.25168100  0.41918100  1
  P  P1  1  0.40803500  0.75173800  0.91179700  1
  P  P2  1  0.59697000  0.25285900  0.07663000  1
  P  P3  1  0.89907200  0.74191600  0.59411100  1
  O  O0  1  0.04234100  0.73717200  0.68735200  1
  O  O1  1  0.10778400  0.27577700  0.73323800  1
  O  O2  1  0.17203800  0.04859700  0.30179500  1
  O  O3  1  0.15918500  0.45528300  0.25913200  1
  O  O4  1  0.33065600  0.55976800  0.76312000  1
  O  O5  1  0.33465900  0.95262400  0.77580300  1
  O  O6  1  0.38912500  0.74445100  0.21799500  1
  O  O7  1  0.45254100  0.25419700  0.17043000  1
  O  O8  1  0.55368800  0.74697900  0.82682200  1
  O  O9  1  0.61026100  0.25277000  0.76770000  1
  O  O10  1  0.67068200  0.04626200  0.20580800  1
  O  O11  1  0.67098900  0.45473200  0.21004400  1
  O  O12  1  0.83682400  0.53912300  0.75806600  1
  O  O13  1  0.81950500  0.93609300  0.72331700  1
  O  O14  1  0.88646600  0.72306700  0.27977100  1
  O  O15  1  0.95295000  0.25787000  0.32392800  1
loop_
_geom_bond_atom_site_label_1
_geom_bond_atom_site_label_2
_geom_bond_distance
_geom_bond_site_symmetry_2
Mg0 O12 2.091775 1_554
Mg0 O3 2.098810 1_655
Mg0 O1 2.156506 1_654
Mg0 O15 2.161977 1_555
Mg0 O0 2.186079 1_654
Mg0 O14 2.216917 1_555
Mn0 O6 2.038594 1_555
Mn0 O2 2.052872 1_565
Mn0 O4 2.100145 1_555
Mn0 O5 2.123464 1_555
Mn0 O0 2.173822 1_555
Mn0 O3 2.301974 1_555
Mn1 O7 1.978009 1_556
Mn1 O5 2.048300 1_545
Mn1 O4 2.086180 1_555
Mn1 O1 2.202773 1_555
Mn1 O3 2.351558 1_556
Mn1 O2 2.460057 1_556
Fe0 O8 1.930065 1_554
Fe0 O10 1.998533 1_565
Fe0 O11 2.040696 1_555
Fe0 O13 2.170704 1_554
Fe0 O14 2.189385 1_555
Fe0 O12 2.236869 1_554
Fe1 O9 1.978149 1_555
Fe1 O15 2.120390 1_555
Fe1 O13 2.175133 1_545
Fe1 O10 2.195352 1_555
Fe1 O11 2.232803 1_555
Fe1 O12 2.268156 1_555
O0 P3 1.547500 1_455
O1 P0 1.549706 1_555
O2 P0 1.546206 1_555
O3 P0 1.592218 1_555
O4 P1 1.594977 1_555
O5 P1 1.581131 1_555
O6 P1 1.505958 1_554
O7 P2 1.536841 1_555
O8 P1 1.537718 1_555
O9 P2 1.513578 1_556
O10 P2 1.595373 1_555
O11 P2 1.589512 1_555
O12 P3 1.596354 1_555
O13 P3 1.547181 1_555
O14 P3 1.550036 1_555
O15 P0 1.554380 1_655
