# generated using pymatgen
data_Sr2LiSiN3
_symmetry_space_group_name_H-M   'P 1'
_cell_length_a   7.58826636
_cell_length_b   7.58826636
_cell_length_c   9.45411728
_cell_angle_alpha   66.42179865
_cell_angle_beta   66.42179865
_cell_angle_gamma   89.64604090
_symmetry_Int_Tables_number   1
_chemical_formula_structural   Sr2LiSiN3
_chemical_formula_sum   'Sr8 Li4 Si4 N12'
_cell_volume   449.55062277
_cell_formula_units_Z   4
loop_
 _symmetry_equiv_pos_site_id
 _symmetry_equiv_pos_as_xyz
  1  'x, y, z'
loop_
 _atom_site_type_symbol
 _atom_site_label
 _atom_site_symmetry_multiplicity
 _atom_site_fract_x
 _atom_site_fract_y
 _atom_site_fract_z
 _atom_site_occupancy
  Sr  Sr0  1  0.34702200  0.58817300  0.78639800  1
  Sr  Sr1  1  0.84549000  0.57590600  0.82125700  1
  Sr  Sr2  1  0.42409400  0.15451000  0.17874300  1
  Sr  Sr3  1  0.41182700  0.65297800  0.21360200  1
  Sr  Sr4  1  0.31783100  0.08898200  0.85239800  1
  Sr  Sr5  1  0.83173100  0.09572700  0.84331900  1
  Sr  Sr6  1  0.90427300  0.16826900  0.15668100  1
  Sr  Sr7  1  0.91101800  0.68216900  0.14760200  1
  Li  Li0  1  0.71105100  0.48044700  0.58889100  1
  Li  Li1  1  0.72696800  0.95304300  0.54681300  1
  Li  Li2  1  0.51955300  0.28894900  0.41110900  1
  Li  Li3  1  0.04695700  0.27303200  0.45318700  1
  Si  Si0  1  0.19994000  0.42590200  0.59673800  1
  Si  Si1  1  0.20153700  0.97604300  0.60103600  1
  Si  Si2  1  0.57409800  0.80006000  0.40326200  1
  Si  Si3  1  0.02395700  0.79846300  0.39896400  1
  N  N0  1  0.43653800  0.56346200  0.50000000  1
  N  N1  1  0.04672100  0.95327900  0.50000000  1
  N  N2  1  0.05622500  0.55115000  0.49303900  1
  N  N3  1  0.44885000  0.94377500  0.50696100  1
  N  N4  1  0.22764800  0.22561800  0.55080200  1
  N  N5  1  0.77438200  0.77235200  0.44919800  1
  N  N6  1  0.08941900  0.34353400  0.82066200  1
  N  N7  1  0.09104500  0.83204500  0.82199300  1
  N  N8  1  0.65646600  0.91058100  0.17933800  1
  N  N9  1  0.16795500  0.90895500  0.17800700  1
  N  N10  1  0.57401600  0.31261500  0.84697400  1
  N  N11  1  0.68738500  0.42598400  0.15302600  1
loop_
_geom_bond_atom_site_label_1
_geom_bond_atom_site_label_2
_geom_bond_distance
_geom_bond_site_symmetry_2
Li0 N5 2.011642 1_555
Li0 N10 2.038936 1_555
Li0 N2 2.387295 1_655
Li0 N0 2.530421 1_555
Li1 N5 1.897814 1_555
Li1 N1 2.285495 1_655
Li1 N3 2.293463 1_555
Li2 N4 2.011642 1_555
Li2 N11 2.038936 1_555
Li2 N3 2.387295 1_545
Li2 N0 2.530421 1_555
Li3 N4 1.897814 1_555
Li3 N1 2.285495 1_545
Li3 N2 2.293463 1_555
N0 Si2 1.759324 1_555
N0 Si0 1.759324 1_555
N0 Sr3 2.600213 1_555
N0 Sr0 2.600213 1_555
N1 Si3 1.831561 1_555
N1 Si1 1.831561 1_555
N1 Sr2 3.023649 1_565
N1 Sr1 3.023649 1_455
N2 Si0 1.775059 1_555
N2 Si3 1.790573 1_555
N2 Sr3 2.747256 1_555
N2 Sr1 2.951965 1_455
N3 Si2 1.775059 1_555
N3 Si1 1.790573 1_555
N3 Sr0 2.747256 1_555
N3 Sr2 2.951965 1_565
N4 Si0 1.730218 1_555
N4 Si1 1.749646 1_545
N4 Sr4 2.976666 1_555
N5 Si2 1.730218 1_555
N5 Si3 1.749646 1_655
N5 Sr7 2.976666 1_555
N6 Si0 1.761614 1_555
N6 Sr0 2.535620 1_555
N6 Sr1 2.548477 1_455
N6 Sr4 2.595441 1_555
N6 Sr5 2.606455 1_455
N6 Sr6 2.628126 1_456
N7 Si1 1.744926 1_555
N7 Sr7 2.547551 1_456
N7 Sr0 2.691040 1_555
N7 Sr1 2.704772 1_455
N7 Sr4 2.780483 1_565
N7 Sr5 2.805873 1_465
N8 Si2 1.761614 1_555
N8 Sr3 2.535620 1_555
N8 Sr2 2.548477 1_565
N8 Sr7 2.595441 1_555
N8 Sr6 2.606455 1_565
N8 Sr5 2.628126 1_564
N9 Si3 1.744926 1_555
N9 Sr4 2.547551 1_564
N9 Sr3 2.691040 1_555
N9 Sr2 2.704772 1_565
N9 Sr7 2.780483 1_455
N9 Sr6 2.805873 1_465
N10 Sr5 2.546752 1_555
N10 Sr4 2.559868 1_555
N10 Sr2 2.592971 1_556
N10 Sr0 2.730188 1_555
N10 Sr1 2.748825 1_555
N11 Sr6 2.546752 1_555
N11 Sr7 2.559868 1_555
N11 Sr1 2.592971 1_554
N11 Sr3 2.730188 1_555
N11 Sr2 2.748825 1_555
