# generated using pymatgen
data_Ce5Mg
_symmetry_space_group_name_H-M   'P 1'
_cell_length_a   18.14986193
_cell_length_b   18.14986193
_cell_length_c   11.86593800
_cell_angle_alpha   90.00000000
_cell_angle_beta   90.00000000
_cell_angle_gamma   158.34051064
_symmetry_Int_Tables_number   1
_chemical_formula_structural   Ce5Mg
_chemical_formula_sum   'Ce40 Mg8'
_cell_volume   1442.71545403
_cell_formula_units_Z   8
loop_
 _symmetry_equiv_pos_site_id
 _symmetry_equiv_pos_as_xyz
  1  'x, y, z'
loop_
 _atom_site_type_symbol
 _atom_site_label
 _atom_site_symmetry_multiplicity
 _atom_site_fract_x
 _atom_site_fract_y
 _atom_site_fract_z
 _atom_site_occupancy
  Ce  Ce0_0  1  0.49587150  0.00412850  0.00000000  1
  Ce  Ce0_1  1  0.49587150  0.00412850  0.50000000  1
  Ce  Ce0_2  1  0.49587150  0.50412850  0.00000000  1
  Ce  Ce0_3  1  0.49587150  0.50412850  0.50000000  1
  Ce  Ce0_4  1  0.99587150  0.00412850  0.00000000  1
  Ce  Ce0_5  1  0.99587150  0.00412850  0.50000000  1
  Ce  Ce0_6  1  0.99587150  0.50412850  0.00000000  1
  Ce  Ce0_7  1  0.99587150  0.50412850  0.50000000  1
  Ce  Ce1_0  1  0.16484350  0.33515650  0.00000000  1
  Ce  Ce1_1  1  0.16484350  0.33515650  0.50000000  1
  Ce  Ce1_2  1  0.16484350  0.83515650  0.00000000  1
  Ce  Ce1_3  1  0.16484350  0.83515650  0.50000000  1
  Ce  Ce1_4  1  0.66484350  0.33515650  0.00000000  1
  Ce  Ce1_5  1  0.66484350  0.33515650  0.50000000  1
  Ce  Ce1_6  1  0.66484350  0.83515650  0.00000000  1
  Ce  Ce1_7  1  0.66484350  0.83515650  0.50000000  1
  Ce  Ce2_0  1  0.33434600  0.16565400  0.00000000  1
  Ce  Ce2_1  1  0.33434600  0.16565400  0.50000000  1
  Ce  Ce2_2  1  0.33434600  0.66565400  0.00000000  1
  Ce  Ce2_3  1  0.33434600  0.66565400  0.50000000  1
  Ce  Ce2_4  1  0.83434600  0.16565400  0.00000000  1
  Ce  Ce2_5  1  0.83434600  0.16565400  0.50000000  1
  Ce  Ce2_6  1  0.83434600  0.66565400  0.00000000  1
  Ce  Ce2_7  1  0.83434600  0.66565400  0.50000000  1
  Ce  Ce3_0  1  0.22810050  0.27189950  0.25000000  1
  Ce  Ce3_1  1  0.22810050  0.27189950  0.75000000  1
  Ce  Ce3_2  1  0.22810050  0.77189950  0.25000000  1
  Ce  Ce3_3  1  0.22810050  0.77189950  0.75000000  1
  Ce  Ce3_4  1  0.72810050  0.27189950  0.25000000  1
  Ce  Ce3_5  1  0.72810050  0.27189950  0.75000000  1
  Ce  Ce3_6  1  0.72810050  0.77189950  0.25000000  1
  Ce  Ce3_7  1  0.72810050  0.77189950  0.75000000  1
  Ce  Ce4_0  1  0.05409300  0.44590700  0.25000000  1
  Ce  Ce4_1  1  0.05409300  0.44590700  0.75000000  1
  Ce  Ce4_2  1  0.05409300  0.94590700  0.25000000  1
  Ce  Ce4_3  1  0.05409300  0.94590700  0.75000000  1
  Ce  Ce4_4  1  0.55409300  0.44590700  0.25000000  1
  Ce  Ce4_5  1  0.55409300  0.44590700  0.75000000  1
  Ce  Ce4_6  1  0.55409300  0.94590700  0.25000000  1
  Ce  Ce4_7  1  0.55409300  0.94590700  0.75000000  1
  Mg  Mg0_0  1  0.38941200  0.11058800  0.25000000  1
  Mg  Mg0_1  1  0.38941200  0.11058800  0.75000000  1
  Mg  Mg0_2  1  0.38941200  0.61058800  0.25000000  1
  Mg  Mg0_3  1  0.38941200  0.61058800  0.75000000  1
  Mg  Mg0_4  1  0.88941200  0.11058800  0.25000000  1
  Mg  Mg0_5  1  0.88941200  0.11058800  0.75000000  1
  Mg  Mg0_6  1  0.88941200  0.61058800  0.25000000  1
  Mg  Mg0_7  1  0.88941200  0.61058800  0.75000000  1
loop_
_geom_bond_atom_site_label_1
_geom_bond_atom_site_label_2
_geom_bond_distance
_geom_bond_site_symmetry_2
Ce0_0 Ce1_2 3.354573 1_545
Ce0_0 Ce1_4 3.354573 1_555
Ce0_0 Ce0_6 3.410200 1_445
Ce0_0 Ce0_6 3.410200 1_555
Ce0_0 Ce3_5 3.479775 1_554
Ce0_0 Ce3_4 3.479775 1_555
Ce0_0 Ce3_3 3.479775 1_544
Ce0_0 Ce3_2 3.479775 1_545
Ce0_0 Ce2_2 3.585751 1_545
Ce0_0 Ce2_4 3.585751 1_555
Ce0_0 Ce4_7 3.620623 1_544
Ce0_0 Ce4_6 3.620623 1_545
Ce0_1 Ce1_3 3.354573 1_545
Ce0_1 Ce1_5 3.354573 1_555
Ce0_1 Ce0_7 3.410200 1_445
Ce0_1 Ce0_7 3.410200 1_555
Ce0_1 Ce3_4 3.479775 1_555
Ce0_1 Ce3_5 3.479775 1_555
Ce0_1 Ce3_2 3.479775 1_545
Ce0_1 Ce3_3 3.479775 1_545
Ce0_1 Ce2_3 3.585751 1_545
Ce0_1 Ce2_5 3.585751 1_555
Ce0_1 Ce4_6 3.620623 1_545
Ce0_1 Ce4_7 3.620623 1_545
Ce0_2 Ce1_6 3.354573 1_555
Ce0_2 Ce1_0 3.354573 1_555
Ce0_2 Ce0_4 3.410200 1_565
Ce0_2 Ce0_4 3.410200 1_455
Ce0_2 Ce3_7 3.479775 1_554
Ce0_2 Ce3_6 3.479775 1_555
Ce0_2 Ce3_1 3.479775 1_554
Ce0_2 Ce3_0 3.479775 1_555
Ce0_2 Ce2_0 3.585751 1_555
Ce0_2 Ce2_6 3.585751 1_555
Ce0_2 Ce4_5 3.620623 1_554
Ce0_2 Ce4_4 3.620623 1_555
Ce0_3 Ce1_7 3.354573 1_555
Ce0_3 Ce1_1 3.354573 1_555
Ce0_3 Ce0_5 3.410200 1_565
Ce0_3 Ce0_5 3.410200 1_455
Ce0_3 Ce3_6 3.479775 1_555
Ce0_3 Ce3_7 3.479775 1_555
Ce0_3 Ce3_0 3.479775 1_555
Ce0_3 Ce3_1 3.479775 1_555
Ce0_3 Ce2_1 3.585751 1_555
Ce0_3 Ce2_7 3.585751 1_555
Ce0_3 Ce4_4 3.620623 1_555
Ce0_3 Ce4_5 3.620623 1_555
Ce0_4 Ce1_6 3.354573 1_545
Ce0_4 Ce1_0 3.354573 1_655
Ce0_4 Ce3_1 3.479775 1_654
Ce0_4 Ce3_0 3.479775 1_655
Ce0_4 Ce3_7 3.479775 1_544
Ce0_4 Ce3_6 3.479775 1_545
Ce0_4 Ce2_6 3.585751 1_545
Ce0_4 Ce2_0 3.585751 1_655
Ce0_4 Ce4_3 3.620623 1_644
Ce0_4 Ce4_2 3.620623 1_645
Ce0_5 Ce1_7 3.354573 1_545
Ce0_5 Ce1_1 3.354573 1_655
Ce0_5 Ce3_0 3.479775 1_655
Ce0_5 Ce3_6 3.479775 1_545
Ce0_5 Ce3_1 3.479775 1_655
Ce0_5 Ce3_7 3.479775 1_545
Ce0_5 Ce2_7 3.585751 1_545
Ce0_5 Ce2_1 3.585751 1_655
Ce0_5 Ce4_2 3.620623 1_645
Ce0_5 Ce4_3 3.620623 1_645
Ce0_6 Ce1_2 3.354573 1_655
Ce0_6 Ce1_4 3.354573 1_555
Ce0_6 Ce3_3 3.479775 1_654
Ce0_6 Ce3_2 3.479775 1_655
Ce0_6 Ce3_5 3.479775 1_554
Ce0_6 Ce3_4 3.479775 1_555
Ce0_6 Ce2_4 3.585751 1_555
Ce0_6 Ce2_2 3.585751 1_655
Ce0_6 Ce4_1 3.620623 1_654
Ce0_6 Ce4_0 3.620623 1_655
Ce0_7 Ce1_3 3.354573 1_655
Ce0_7 Ce1_5 3.354573 1_555
Ce0_7 Ce3_2 3.479775 1_655
Ce0_7 Ce3_3 3.479775 1_655
Ce0_7 Ce3_4 3.479775 1_555
Ce0_7 Ce3_5 3.479775 1_555
Ce0_7 Ce2_5 3.585751 1_555
Ce0_7 Ce2_3 3.585751 1_655
Ce0_7 Ce4_0 3.620623 1_655
Ce0_7 Ce4_1 3.620623 1_655
Ce1_0 Ce2_4 3.338299 1_455
Ce1_0 Ce2_2 3.338299 1_555
Ce1_0 Ce1_6 3.410200 1_445
Ce1_0 Ce1_6 3.410200 1_555
Ce1_0 Mg0_5 3.539707 1_454
Ce1_0 Mg0_3 3.539707 1_554
Ce1_0 Mg0_2 3.539707 1_555
Ce1_0 Mg0_4 3.539707 1_455
Ce1_0 Ce3_1 3.726457 1_554
Ce1_0 Ce3_0 3.726457 1_555
Ce1_1 Ce2_5 3.338299 1_455
Ce1_1 Ce2_3 3.338299 1_555
Ce1_1 Ce1_7 3.410200 1_555
Ce1_1 Ce1_7 3.410200 1_445
Ce1_1 Mg0_2 3.539707 1_555
Ce1_1 Mg0_4 3.539707 1_455
Ce1_1 Mg0_3 3.539707 1_555
Ce1_1 Mg0_5 3.539707 1_455
Ce1_1 Ce3_0 3.726457 1_555
Ce1_1 Ce3_1 3.726457 1_555
Ce1_2 Ce2_6 3.338299 1_455
Ce1_2 Ce2_0 3.338299 1_565
Ce1_2 Ce1_4 3.410200 1_565
Ce1_2 Ce1_4 3.410200 1_455
Ce1_2 Mg0_1 3.539707 1_564
Ce1_2 Mg0_7 3.539707 1_454
Ce1_2 Mg0_0 3.539707 1_565
Ce1_2 Mg0_6 3.539707 1_455
Ce1_2 Ce3_3 3.726457 1_554
Ce1_2 Ce3_2 3.726457 1_555
Ce1_3 Ce2_7 3.338299 1_455
Ce1_3 Ce2_1 3.338299 1_565
Ce1_3 Ce1_5 3.410200 1_455
Ce1_3 Ce1_5 3.410200 1_565
Ce1_3 Mg0_0 3.539707 1_565
Ce1_3 Mg0_6 3.539707 1_455
Ce1_3 Mg0_1 3.539707 1_565
Ce1_3 Mg0_7 3.539707 1_455
Ce1_3 Ce3_2 3.726457 1_555
Ce1_3 Ce3_3 3.726457 1_555
Ce1_4 Ce2_6 3.338299 1_555
Ce1_4 Ce2_0 3.338299 1_555
Ce1_4 Mg0_7 3.539707 1_554
Ce1_4 Mg0_1 3.539707 1_554
Ce1_4 Mg0_0 3.539707 1_555
Ce1_4 Mg0_6 3.539707 1_555
Ce1_4 Ce3_5 3.726457 1_554
Ce1_4 Ce3_4 3.726457 1_555
Ce1_5 Ce2_7 3.338299 1_555
Ce1_5 Ce2_1 3.338299 1_555
Ce1_5 Mg0_6 3.539707 1_555
Ce1_5 Mg0_0 3.539707 1_555
Ce1_5 Mg0_1 3.539707 1_555
Ce1_5 Mg0_7 3.539707 1_555
Ce1_5 Ce3_4 3.726457 1_555
Ce1_5 Ce3_5 3.726457 1_555
Ce1_6 Ce2_2 3.338299 1_555
Ce1_6 Ce2_4 3.338299 1_565
Ce1_6 Mg0_5 3.539707 1_564
Ce1_6 Mg0_3 3.539707 1_554
Ce1_6 Mg0_4 3.539707 1_565
Ce1_6 Mg0_2 3.539707 1_555
Ce1_6 Ce3_7 3.726457 1_554
Ce1_6 Ce3_6 3.726457 1_555
Ce1_7 Ce2_3 3.338299 1_555
Ce1_7 Ce2_5 3.338299 1_565
Ce1_7 Mg0_4 3.539707 1_565
Ce1_7 Mg0_2 3.539707 1_555
Ce1_7 Mg0_5 3.539707 1_565
Ce1_7 Mg0_3 3.539707 1_555
Ce1_7 Ce3_6 3.726457 1_555
Ce1_7 Ce3_7 3.726457 1_555
Ce2_0 Ce2_6 3.410200 1_445
Ce2_0 Ce2_6 3.410200 1_555
Ce2_0 Mg0_1 3.557316 1_554
Ce2_0 Mg0_0 3.557316 1_555
Ce2_0 Ce4_5 3.587591 1_554
Ce2_0 Ce4_4 3.587591 1_555
Ce2_0 Ce4_3 3.587591 1_544
Ce2_0 Ce4_2 3.587591 1_545
Ce2_1 Ce2_7 3.410200 1_445
Ce2_1 Ce2_7 3.410200 1_555
Ce2_1 Mg0_0 3.557316 1_555
Ce2_1 Mg0_1 3.557316 1_555
Ce2_1 Ce4_4 3.587591 1_555
Ce2_1 Ce4_5 3.587591 1_555
Ce2_1 Ce4_2 3.587591 1_545
Ce2_1 Ce4_3 3.587591 1_545
Ce2_2 Ce2_4 3.410200 1_565
Ce2_2 Ce2_4 3.410200 1_455
Ce2_2 Mg0_3 3.557316 1_554
Ce2_2 Mg0_2 3.557316 1_555
Ce2_2 Ce4_7 3.587591 1_554
Ce2_2 Ce4_1 3.587591 1_554
Ce2_2 Ce4_6 3.587591 1_555
Ce2_2 Ce4_0 3.587591 1_555
Ce2_3 Ce2_5 3.410200 1_565
Ce2_3 Ce2_5 3.410200 1_455
Ce2_3 Mg0_2 3.557316 1_555
Ce2_3 Mg0_3 3.557316 1_555
Ce2_3 Ce4_6 3.587591 1_555
Ce2_3 Ce4_0 3.587591 1_555
Ce2_3 Ce4_7 3.587591 1_555
Ce2_3 Ce4_1 3.587591 1_555
Ce2_4 Mg0_5 3.557316 1_554
Ce2_4 Mg0_4 3.557316 1_555
Ce2_4 Ce4_1 3.587591 1_654
Ce2_4 Ce4_0 3.587591 1_655
Ce2_4 Ce4_7 3.587591 1_544
Ce2_4 Ce4_6 3.587591 1_545
Ce2_5 Mg0_4 3.557316 1_555
Ce2_5 Mg0_5 3.557316 1_555
Ce2_5 Ce4_0 3.587591 1_655
Ce2_5 Ce4_6 3.587591 1_545
Ce2_5 Ce4_1 3.587591 1_655
Ce2_5 Ce4_7 3.587591 1_545
Ce2_6 Mg0_7 3.557316 1_554
Ce2_6 Mg0_6 3.557316 1_555
Ce2_6 Ce4_3 3.587591 1_654
Ce2_6 Ce4_2 3.587591 1_655
Ce2_6 Ce4_5 3.587591 1_554
Ce2_6 Ce4_4 3.587591 1_555
Ce2_7 Mg0_6 3.557316 1_555
Ce2_7 Mg0_7 3.557316 1_555
Ce2_7 Ce4_2 3.587591 1_655
Ce2_7 Ce4_3 3.587591 1_655
Ce2_7 Ce4_4 3.587591 1_555
Ce2_7 Ce4_5 3.587591 1_555
Ce3_0 Ce4_4 3.201264 1_555
Ce3_0 Ce4_2 3.201264 1_545
Ce3_0 Ce3_6 3.410200 1_445
Ce3_0 Ce3_6 3.410200 1_555
Ce3_0 Mg0_4 3.592465 1_455
Ce3_0 Mg0_2 3.592465 1_555
Ce3_1 Ce4_5 3.201264 1_555
Ce3_1 Ce4_3 3.201264 1_545
Ce3_1 Ce3_7 3.410200 1_445
Ce3_1 Ce3_7 3.410200 1_555
Ce3_1 Mg0_5 3.592465 1_455
Ce3_1 Mg0_3 3.592465 1_555
Ce3_2 Ce4_6 3.201264 1_555
Ce3_2 Ce4_0 3.201264 1_555
Ce3_2 Ce3_4 3.410200 1_455
Ce3_2 Ce3_4 3.410200 1_565
Ce3_2 Mg0_0 3.592465 1_565
Ce3_2 Mg0_6 3.592465 1_455
Ce3_3 Ce4_7 3.201264 1_555
Ce3_3 Ce4_1 3.201264 1_555
Ce3_3 Ce3_5 3.410200 1_455
Ce3_3 Ce3_5 3.410200 1_565
Ce3_3 Mg0_1 3.592465 1_565
Ce3_3 Mg0_7 3.592465 1_455
Ce3_4 Ce4_6 3.201264 1_545
Ce3_4 Ce4_0 3.201264 1_655
Ce3_4 Mg0_0 3.592465 1_555
Ce3_4 Mg0_6 3.592465 1_555
Ce3_5 Ce4_7 3.201264 1_545
Ce3_5 Ce4_1 3.201264 1_655
Ce3_5 Mg0_1 3.592465 1_555
Ce3_5 Mg0_7 3.592465 1_555
Ce3_6 Ce4_4 3.201264 1_555
Ce3_6 Ce4_2 3.201264 1_655
Ce3_6 Mg0_2 3.592465 1_555
Ce3_6 Mg0_4 3.592465 1_565
Ce3_7 Ce4_5 3.201264 1_555
Ce3_7 Ce4_3 3.201264 1_655
Ce3_7 Mg0_3 3.592465 1_555
Ce3_7 Mg0_5 3.592465 1_565
Ce4_0 Ce4_6 3.410200 1_555
Ce4_0 Ce4_6 3.410200 1_445
Ce4_0 Mg0_4 3.487191 1_455
Ce4_0 Mg0_2 3.487191 1_555
Ce4_1 Ce4_7 3.410200 1_445
Ce4_1 Ce4_7 3.410200 1_555
Ce4_1 Mg0_5 3.487191 1_455
Ce4_1 Mg0_3 3.487191 1_555
Ce4_2 Ce4_4 3.410200 1_565
Ce4_2 Ce4_4 3.410200 1_455
Ce4_2 Mg0_6 3.487191 1_455
Ce4_2 Mg0_0 3.487191 1_565
Ce4_3 Ce4_5 3.410200 1_565
Ce4_3 Ce4_5 3.410200 1_455
Ce4_3 Mg0_7 3.487191 1_455
Ce4_3 Mg0_1 3.487191 1_565
Ce4_4 Mg0_6 3.487191 1_555
Ce4_4 Mg0_0 3.487191 1_555
Ce4_5 Mg0_7 3.487191 1_555
Ce4_5 Mg0_1 3.487191 1_555
Ce4_6 Mg0_2 3.487191 1_555
Ce4_6 Mg0_4 3.487191 1_565
Ce4_7 Mg0_3 3.487191 1_555
Ce4_7 Mg0_5 3.487191 1_565
Mg0_0 Mg0_6 3.410200 1_555
Mg0_0 Mg0_6 3.410200 1_445
Mg0_1 Mg0_7 3.410200 1_445
Mg0_1 Mg0_7 3.410200 1_555
Mg0_2 Mg0_4 3.410200 1_565
Mg0_2 Mg0_4 3.410200 1_455
Mg0_3 Mg0_5 3.410200 1_565
Mg0_3 Mg0_5 3.410200 1_455
