# generated using pymatgen
data_KSm(CO3)2
_symmetry_space_group_name_H-M   'P 1'
_cell_length_a   6.46112567
_cell_length_b   6.46112567
_cell_length_c   6.96998235
_cell_angle_alpha   76.70437831
_cell_angle_beta   76.70437831
_cell_angle_gamma   98.00062580
_symmetry_Int_Tables_number   1
_chemical_formula_structural   KSm(CO3)2
_chemical_formula_sum   'K2 Sm2 C4 O12'
_cell_volume   269.85445681
_cell_formula_units_Z   2
loop_
 _symmetry_equiv_pos_site_id
 _symmetry_equiv_pos_as_xyz
  1  'x, y, z'
loop_
 _atom_site_type_symbol
 _atom_site_label
 _atom_site_symmetry_multiplicity
 _atom_site_fract_x
 _atom_site_fract_y
 _atom_site_fract_z
 _atom_site_occupancy
  K  K0  1  0.62746163  0.37253837  0.75000000  1
  K  K1  1  0.37253837  0.62746163  0.25000000  1
  Sm  Sm0  1  0.09748784  0.90251216  0.75000000  1
  Sm  Sm1  1  0.90251216  0.09748784  0.25000000  1
  C  C0  1  0.64439040  0.88770608  0.76383799  1
  C  C1  1  0.35560960  0.11229392  0.23616201  1
  C  C2  1  0.11229392  0.35560960  0.73616201  1
  C  C3  1  0.88770608  0.64439040  0.26383799  1
  O  O0  1  0.44563109  0.90031208  0.79048430  1
  O  O1  1  0.55436891  0.09968792  0.20951570  1
  O  O2  1  0.09968792  0.55436891  0.70951570  1
  O  O3  1  0.90031208  0.44563109  0.29048430  1
  O  O4  1  0.70911957  0.74572691  0.88619618  1
  O  O5  1  0.29088043  0.25427309  0.11380382  1
  O  O6  1  0.25427309  0.29088043  0.61380382  1
  O  O7  1  0.74572691  0.70911957  0.38619618  1
  O  O8  1  0.79486662  0.02683750  0.61225194  1
  O  O9  1  0.20513338  0.97316250  0.38774806  1
  O  O10  1  0.97316250  0.20513338  0.88774806  1
  O  O11  1  0.02683750  0.79486662  0.11225194  1
loop_
_geom_bond_atom_site_label_1
_geom_bond_atom_site_label_2
_geom_bond_distance
_geom_bond_site_symmetry_2
K0 O7 2.802297 1_555
K0 O5 2.802297 1_556
K0 O6 2.814695 1_555
K0 O4 2.814695 1_555
K0 O8 2.874367 1_555
K0 O10 2.874367 1_555
K0 O0 3.036915 1_545
K0 O2 3.036915 1_655
K0 O3 3.172454 1_555
K0 O1 3.172454 1_556
K1 O4 2.802297 1_554
K1 O6 2.802297 1_555
K1 O5 2.814695 1_555
K1 O7 2.814695 1_555
K1 O11 2.874367 1_555
K1 O9 2.874367 1_555
K1 O1 3.036915 1_565
K1 O3 3.036915 1_455
K1 O2 3.172454 1_555
K1 O0 3.172454 1_554
C0 O0 1.271492 1_555
C0 O4 1.286379 1_555
C0 O8 1.310361 1_565
C1 O1 1.271492 1_555
C1 O5 1.286379 1_555
C1 O9 1.310361 1_545
C2 O2 1.271492 1_555
C2 O6 1.286379 1_555
C2 O10 1.310361 1_455
C3 O3 1.271492 1_555
C3 O7 1.286379 1_555
C3 O11 1.310361 1_655
O0 Sm0 2.332083 1_555
O1 Sm1 2.332083 1_555
O2 Sm0 2.332083 1_555
O3 Sm1 2.332083 1_555
O4 Sm0 2.445072 1_655
O5 Sm1 2.445072 1_455
O6 Sm0 2.445072 1_545
O7 Sm1 2.445072 1_565
O8 Sm1 2.375071 1_555
O8 Sm0 2.517158 1_645
O9 Sm0 2.375071 1_555
O9 Sm1 2.517158 1_465
O10 Sm1 2.375071 1_556
O10 Sm0 2.517158 1_645
O11 Sm0 2.375071 1_554
O11 Sm1 2.517158 1_465
