# generated using pymatgen
data_FeMo6Pd3N2
_symmetry_space_group_name_H-M   'P 1'
_cell_length_a   6.82170900
_cell_length_b   6.81772400
_cell_length_c   6.82418813
_cell_angle_alpha   89.83548885
_cell_angle_beta   90.00000000
_cell_angle_gamma   90.00000000
_symmetry_Int_Tables_number   1
_chemical_formula_structural   FeMo6Pd3N2
_chemical_formula_sum   'Fe2 Mo12 Pd6 N4'
_cell_volume   317.38164442
_cell_formula_units_Z   2
loop_
 _symmetry_equiv_pos_site_id
 _symmetry_equiv_pos_as_xyz
  1  'x, y, z'
loop_
 _atom_site_type_symbol
 _atom_site_label
 _atom_site_symmetry_multiplicity
 _atom_site_fract_x
 _atom_site_fract_y
 _atom_site_fract_z
 _atom_site_occupancy
  Fe  Fe0  1  0.31230200  0.81360300  0.93923400  1
  Fe  Fe1  1  0.81230200  0.18639700  0.06076600  1
  Mo  Mo0  1  0.37525100  0.94903200  0.55075900  1
  Mo  Mo1  1  0.87525100  0.05096800  0.44924100  1
  Mo  Mo2  1  0.12880600  0.46383300  0.95013700  1
  Mo  Mo3  1  0.62880600  0.53616700  0.04986300  1
  Mo  Mo4  1  0.79671400  0.36707600  0.71757200  1
  Mo  Mo5  1  0.69588700  0.87634800  0.79905900  1
  Mo  Mo6  1  0.19588700  0.12365200  0.20094100  1
  Mo  Mo7  1  0.29671400  0.63292400  0.28242800  1
  Mo  Mo8  1  0.95863200  0.80696600  0.11772200  1
  Mo  Mo9  1  0.04922500  0.70709400  0.62857000  1
  Mo  Mo10  1  0.45863200  0.19303400  0.88227800  1
  Mo  Mo11  1  0.54922500  0.29290600  0.37143000  1
  Pd  Pd0  1  0.18803800  0.31251300  0.56113500  1
  Pd  Pd1  1  0.68803800  0.68748700  0.43886500  1
  Pd  Pd2  1  0.93748700  0.43395200  0.30081600  1
  Pd  Pd3  1  0.56130800  0.94143800  0.17874000  1
  Pd  Pd4  1  0.43748700  0.56604800  0.69918400  1
  Pd  Pd5  1  0.06130800  0.05856200  0.82126000  1
  N  N0  1  0.62333500  0.12461900  0.62417100  1
  N  N1  1  0.12333500  0.87538100  0.37582900  1
  N  N2  1  0.87301600  0.62703800  0.87518900  1
  N  N3  1  0.37301600  0.37296200  0.12481100  1
loop_
_geom_bond_atom_site_label_1
_geom_bond_atom_site_label_2
_geom_bond_distance
_geom_bond_site_symmetry_2
Fe0 Pd4 2.505437 1_555
Fe0 Pd3 2.514864 1_556
Fe0 Pd5 2.522141 1_565
Fe0 Mo7 2.645218 1_556
Fe0 Mo2 2.694048 1_555
Fe0 Mo8 2.702988 1_456
Fe0 Mo10 2.798851 1_565
Fe0 Mo5 2.818304 1_555
Fe0 Mo0 2.837393 1_555
Fe0 Mo9 2.872520 1_555
Fe0 Mo6 2.882741 1_566
Fe0 Mo3 2.966675 1_556
Fe1 Pd2 2.505437 1_555
Fe1 Pd5 2.514864 1_654
Fe1 Pd3 2.522141 1_545
Fe1 Mo4 2.645218 1_554
Fe1 Mo3 2.694048 1_555
Fe1 Mo10 2.702988 1_554
Fe1 Mo8 2.798851 1_545
Fe1 Mo6 2.818304 1_655
Fe1 Mo1 2.837393 1_555
Fe1 Mo11 2.872520 1_555
Fe1 Mo5 2.882741 1_544
Fe1 Mo2 2.966675 1_654
Mo0 N0 2.133436 1_565
Mo0 N1 2.152641 1_555
Mo0 Pd0 2.788921 1_565
Mo0 Pd1 2.885018 1_555
Mo1 N1 2.133436 1_645
Mo1 N0 2.152641 1_555
Mo1 Pd1 2.788921 1_545
Mo1 Pd0 2.885018 1_655
Mo2 N2 2.130999 1_455
Mo2 N3 2.139109 1_556
Mo2 Pd0 2.879294 1_555
Mo3 N3 2.130999 1_555
Mo3 N2 2.139109 1_554
Mo3 Pd1 2.879294 1_555
Mo4 N0 2.131575 1_555
Mo4 N2 2.140101 1_555
Mo4 Pd0 2.899406 1_655
Mo4 Pd1 2.985814 1_555
Mo5 N0 2.126679 1_565
Mo5 N2 2.148011 1_555
Mo5 Pd1 2.778647 1_555
Mo6 N1 2.126679 1_545
Mo6 N3 2.148011 1_555
Mo6 Pd0 2.778647 1_555
Mo7 N1 2.131575 1_555
Mo7 N3 2.140101 1_555
Mo7 Pd1 2.899406 1_555
Mo7 Pd0 2.985814 1_555
Mo8 N1 2.141748 1_655
Mo8 N2 2.144035 1_554
Mo8 Pd1 2.977167 1_555
Mo9 N1 2.129641 1_555
Mo9 N2 2.137742 1_455
Mo9 Pd1 2.786696 1_455
Mo9 Pd0 2.890062 1_555
Mo10 N0 2.141748 1_555
Mo10 N3 2.144035 1_556
Mo10 Pd0 2.977167 1_555
Mo11 N0 2.129641 1_555
Mo11 N3 2.137742 1_555
Mo11 Pd0 2.786696 1_555
Mo11 Pd1 2.890062 1_555
Pd0 Pd2 2.598881 1_455
Pd0 Pd4 2.603910 1_555
Pd0 Pd5 2.622690 1_555
Pd1 Pd4 2.598881 1_555
Pd1 Pd2 2.603910 1_555
Pd1 Pd3 2.622690 1_555
