# generated using pymatgen
data_Li4Mn3CoO8
_symmetry_space_group_name_H-M   'P 1'
_cell_length_a   2.87241817
_cell_length_b   19.65031240
_cell_length_c   3.06694922
_cell_angle_alpha   93.41588673
_cell_angle_beta   118.11292271
_cell_angle_gamma   85.93790796
_symmetry_Int_Tables_number   1
_chemical_formula_structural   Li4Mn3CoO8
_chemical_formula_sum   'Li4 Mn3 Co1 O8'
_cell_volume   152.23599782
_cell_formula_units_Z   1
loop_
 _symmetry_equiv_pos_site_id
 _symmetry_equiv_pos_as_xyz
  1  'x, y, z'
loop_
 _atom_site_type_symbol
 _atom_site_label
 _atom_site_symmetry_multiplicity
 _atom_site_fract_x
 _atom_site_fract_y
 _atom_site_fract_z
 _atom_site_occupancy
  Li  Li0  1  0.25301100  0.12284100  0.62901000  1
  Li  Li1  1  0.74735000  0.87715800  0.37120000  1
  Li  Li2  1  0.75090700  0.37413200  0.87581900  1
  Li  Li3  1  0.24935700  0.62587200  0.12429700  1
  Mn  Mn0  1  0.99920700  0.50002600  0.49933500  1
  Mn  Mn1  1  0.50318200  0.24901700  0.25539400  1
  Mn  Mn2  1  0.49704000  0.75097100  0.74470600  1
  Co  Co0  1  0.00017300  0.00000600  0.00010000  1
  O  O0  1  0.63550200  0.05680000  0.33599100  1
  O  O1  1  0.36486600  0.94319800  0.66422600  1
  O  O2  1  0.10980300  0.30733700  0.52586000  1
  O  O3  1  0.89048600  0.69264000  0.47431500  1
  O  O4  1  0.60748300  0.55795200  0.77287800  1
  O  O5  1  0.39132400  0.44205300  0.22666800  1
  O  O6  1  0.10529800  0.80856300  0.01741700  1
  O  O7  1  0.89501100  0.19143100  0.98278400  1
loop_
_geom_bond_atom_site_label_1
_geom_bond_atom_site_label_2
_geom_bond_distance
_geom_bond_site_symmetry_2
Li0 O0 2.070826 1_555
Li0 O0 2.079129 1_455
Li0 O7 2.164888 1_555
Li0 O7 2.175355 1_455
Li0 O7 2.236826 1_454
Li0 O0 2.341121 1_556
Li1 O1 2.070815 1_555
Li1 O1 2.079130 1_655
Li1 O6 2.165052 1_555
Li1 O6 2.175329 1_655
Li1 O6 2.236867 1_656
Li1 O1 2.341094 1_554
Li2 O2 2.139579 1_555
Li2 O2 2.149580 1_655
Li2 O5 2.152760 1_656
Li2 O5 2.164946 1_556
Li2 O2 2.223365 1_656
Li2 O5 2.235014 1_555
Li3 O3 2.139296 1_555
Li3 O3 2.149366 1_455
Li3 O4 2.155628 1_454
Li3 O4 2.163341 1_554
Li3 O3 2.222912 1_454
Li3 O4 2.233766 1_555
Mn0 O5 1.959106 1_555
Mn0 O4 1.959287 1_655
Mn0 O5 1.964188 1_655
Mn0 O4 1.964664 1_555
Mn0 O4 2.298671 1_554
Mn0 O5 2.301210 1_656
Mn1 O7 1.955018 1_454
Mn1 O7 1.959566 1_554
Mn1 O2 1.960885 1_655
Mn1 O2 1.965905 1_555
Mn1 O7 2.297416 1_555
Mn1 O2 2.309922 1_554
Mn2 O6 1.955265 1_656
Mn2 O6 1.959648 1_556
Mn2 O3 1.960886 1_455
Mn2 O3 1.966007 1_555
Mn2 O6 2.297239 1_555
Mn2 O3 2.310210 1_556
Co0 O0 2.004225 1_555
Co0 O1 2.004340 1_444
Co0 O0 2.029356 1_455
Co0 O1 2.029497 1_544
Co0 O0 2.141455 1_454
Co0 O1 2.141643 1_545
