# generated using pymatgen
data_RbC2
_symmetry_space_group_name_H-M   'P 1'
_cell_length_a   4.61518500
_cell_length_b   4.61518500
_cell_length_c   7.83063500
_cell_angle_alpha   90.00000000
_cell_angle_beta   90.00000000
_cell_angle_gamma   90.00000000
_symmetry_Int_Tables_number   1
_chemical_formula_structural   RbC2
_chemical_formula_sum   'Rb2 C4'
_cell_volume   166.79199759
_cell_formula_units_Z   2
loop_
 _symmetry_equiv_pos_site_id
 _symmetry_equiv_pos_as_xyz
  1  'x, y, z'
loop_
 _atom_site_type_symbol
 _atom_site_label
 _atom_site_symmetry_multiplicity
 _atom_site_fract_x
 _atom_site_fract_y
 _atom_site_fract_z
 _atom_site_occupancy
  Rb  Rb0  1  0.00000000  0.50000000  0.26151300  1
  Rb  Rb1  1  0.50000000  0.00000000  0.73848700  1
  C  C0  1  0.00000000  0.50000000  0.65199100  1
  C  C1  1  0.50000000  0.00000000  0.34800900  1
  C  C2  1  0.00000000  0.50000000  0.81330800  1
  C  C3  1  0.50000000  0.00000000  0.18669200  1
loop_
_geom_bond_atom_site_label_1
_geom_bond_atom_site_label_2
_geom_bond_distance
_geom_bond_site_symmetry_2
C0 C2 1.263215 1_555
C0 Rb0 3.057691 1_555
C0 Rb1 3.332976 1_465
C0 Rb1 3.332976 1_455
C0 Rb1 3.332976 1_555
C0 Rb1 3.332976 1_565
C1 C3 1.263215 1_555
C1 Rb1 3.057691 1_555
C1 Rb0 3.332976 1_655
C1 Rb0 3.332976 1_645
C1 Rb0 3.332976 1_555
C1 Rb0 3.332976 1_545
C2 Rb1 3.315606 1_455
C2 Rb1 3.315606 1_555
C2 Rb1 3.315606 1_565
C2 Rb1 3.315606 1_465
C2 Rb0 3.509730 1_556
C3 Rb0 3.315606 1_555
C3 Rb0 3.315606 1_545
C3 Rb0 3.315606 1_655
C3 Rb0 3.315606 1_645
C3 Rb1 3.509730 1_554
