# generated using pymatgen
data_Ba2VMoO6
_symmetry_space_group_name_H-M   'P 1'
_cell_length_a   5.76194870
_cell_length_b   8.14132300
_cell_length_c   5.76194587
_cell_angle_alpha   90.00003482
_cell_angle_beta   89.99977500
_cell_angle_gamma   89.99994529
_symmetry_Int_Tables_number   1
_chemical_formula_structural   Ba2VMoO6
_chemical_formula_sum   'Ba4 V2 Mo2 O12'
_cell_volume   270.29222114
_cell_formula_units_Z   2
loop_
 _symmetry_equiv_pos_site_id
 _symmetry_equiv_pos_as_xyz
  1  'x, y, z'
loop_
 _atom_site_type_symbol
 _atom_site_label
 _atom_site_symmetry_multiplicity
 _atom_site_fract_x
 _atom_site_fract_y
 _atom_site_fract_z
 _atom_site_occupancy
  Ba  Ba0  1  0.50000000  0.24999600  0.00000000  1
  Ba  Ba1  1  0.00000000  0.75000400  0.50000000  1
  Ba  Ba2  1  0.50000000  0.75000400  0.00000000  1
  Ba  Ba3  1  0.00000000  0.24999600  0.50000000  1
  V  V0  1  0.00000000  0.00000000  0.00000100  1
  V  V1  1  0.50000000  0.50000000  0.50000000  1
  Mo  Mo0  1  0.50000000  0.00000000  0.50000000  1
  Mo  Mo1  1  0.00000000  0.50000000  0.00000000  1
  O  O0  1  0.00000000  0.23784700  0.00000000  1
  O  O1  1  0.50000000  0.73781600  0.50000000  1
  O  O2  1  0.26270000  0.50000000  0.26270000  1
  O  O3  1  0.76274900  0.00000000  0.76274900  1
  O  O4  1  0.26270000  0.50000000  0.73730000  1
  O  O5  1  0.76274700  0.00000000  0.23725300  1
  O  O6  1  0.00000000  0.76215300  0.00000000  1
  O  O7  1  0.50000000  0.26218400  0.50000000  1
  O  O8  1  0.73730100  0.50000000  0.73730000  1
  O  O9  1  0.23725100  0.00000000  0.23725100  1
  O  O10  1  0.73730000  0.50000000  0.26270000  1
  O  O11  1  0.23725400  0.00000000  0.76274600  1
loop_
_geom_bond_atom_site_label_1
_geom_bond_atom_site_label_2
_geom_bond_distance
_geom_bond_site_symmetry_2
Ba0 O3 2.881529 1_554
Ba0 O9 2.881532 1_555
Ba0 O5 2.881535 1_555
Ba0 O11 2.881536 1_554
Ba0 O2 2.881561 1_555
Ba0 O8 2.881567 1_554
Ba0 O4 2.881568 1_554
Ba0 O10 2.881568 1_555
Ba0 O0 2.882672 1_655
Ba0 O0 2.882672 1_555
Ba0 O7 2.882681 1_555
Ba0 O7 2.882681 1_554
Ba1 O3 2.881529 1_465
Ba1 O9 2.881532 1_565
Ba1 O5 2.881535 1_465
Ba1 O11 2.881536 1_565
Ba1 O2 2.881561 1_555
Ba1 O8 2.881561 1_455
Ba1 O4 2.881568 1_555
Ba1 O10 2.881569 1_455
Ba1 O6 2.882670 1_556
Ba1 O6 2.882670 1_555
Ba1 O1 2.882683 1_555
Ba1 O1 2.882683 1_455
Ba2 O9 2.881529 1_565
Ba2 O3 2.881532 1_564
Ba2 O11 2.881535 1_564
Ba2 O5 2.881536 1_565
Ba2 O8 2.881564 1_554
Ba2 O2 2.881564 1_555
Ba2 O10 2.881568 1_555
Ba2 O4 2.881568 1_554
Ba2 O6 2.882672 1_555
Ba2 O6 2.882672 1_655
Ba2 O1 2.882681 1_554
Ba2 O1 2.882681 1_555
Ba3 O9 2.881529 1_555
Ba3 O3 2.881532 1_455
Ba3 O11 2.881535 1_555
Ba3 O5 2.881536 1_455
Ba3 O8 2.881558 1_455
Ba3 O2 2.881564 1_555
Ba3 O10 2.881568 1_455
Ba3 O4 2.881569 1_555
Ba3 O0 2.882670 1_555
Ba3 O0 2.882670 1_556
Ba3 O7 2.882683 1_455
Ba3 O7 2.882683 1_555
Mo0 O7 2.134525 1_555
Mo0 O1 2.134525 1_545
Mo0 O11 2.141014 1_555
Mo0 O5 2.141022 1_555
Mo0 O3 2.141047 1_555
Mo0 O9 2.141047 1_555
Mo1 O6 2.134272 1_555
Mo1 O0 2.134272 1_555
Mo1 O10 2.140639 1_455
Mo1 O4 2.140639 1_554
Mo1 O8 2.140644 1_454
Mo1 O2 2.140648 1_555
O0 V0 1.936389 1_555
O1 V1 1.936137 1_555
O2 V1 1.933672 1_555
O3 V0 1.933277 1_656
O4 V1 1.933665 1_555
O5 V0 1.933278 1_655
O6 V0 1.936389 1_565
O7 V1 1.936137 1_555
O8 V1 1.933676 1_555
O9 V0 1.933269 1_555
O10 V1 1.933665 1_555
O11 V0 1.933294 1_556
