# generated using pymatgen
data_W(BrO)2
_symmetry_space_group_name_H-M   'P 1'
_cell_length_a   3.85151200
_cell_length_b   7.70130200
_cell_length_c   9.00657900
_cell_angle_alpha   90.00000000
_cell_angle_beta   90.00000000
_cell_angle_gamma   90.00000000
_symmetry_Int_Tables_number   1
_chemical_formula_structural   W(BrO)2
_chemical_formula_sum   'W2 Br4 O4'
_cell_volume   267.15005766
_cell_formula_units_Z   2
loop_
 _symmetry_equiv_pos_site_id
 _symmetry_equiv_pos_as_xyz
  1  'x, y, z'
loop_
 _atom_site_type_symbol
 _atom_site_label
 _atom_site_symmetry_multiplicity
 _atom_site_fract_x
 _atom_site_fract_y
 _atom_site_fract_z
 _atom_site_occupancy
  W  W0  1  0.00660800  0.75000000  0.00000000  1
  W  W1  1  0.99339200  0.25000000  0.00000000  1
  Br  Br0  1  0.99719500  0.75000000  0.72237700  1
  Br  Br1  1  0.99719500  0.75000000  0.27762300  1
  Br  Br2  1  0.00280500  0.25000000  0.72237700  1
  Br  Br3  1  0.00280500  0.25000000  0.27762300  1
  O  O0  1  0.50109900  0.75000000  0.00000000  1
  O  O1  1  0.00000000  0.50000000  0.00000000  1
  O  O2  1  0.49890100  0.25000000  0.00000000  1
  O  O3  1  0.00000000  0.00000000  0.00000000  1
loop_
_geom_bond_atom_site_label_1
_geom_bond_atom_site_label_2
_geom_bond_distance
_geom_bond_site_symmetry_2
Br0 W0 2.500696 1_656
Br1 W0 2.500696 1_655
Br2 W1 2.500696 1_456
Br3 W1 2.500696 1_455
O0 W0 1.904538 1_555
O0 W0 1.946974 1_655
O1 W0 1.925494 1_555
O1 W1 1.925494 1_455
O2 W1 1.904538 1_555
O2 W1 1.946974 1_455
O3 W0 1.925494 1_545
O3 W1 1.925494 1_455
