# generated using pymatgen
data_Mg14SiC
_symmetry_space_group_name_H-M   'P 1'
_cell_length_a   6.37468633
_cell_length_b   7.79018563
_cell_length_c   8.47410854
_cell_angle_alpha   90.00000000
_cell_angle_beta   90.00000000
_cell_angle_gamma   127.66366127
_symmetry_Int_Tables_number   1
_chemical_formula_structural   Mg14SiC
_chemical_formula_sum   'Mg14 Si1 C1'
_cell_volume   333.12911550
_cell_formula_units_Z   1
loop_
 _symmetry_equiv_pos_site_id
 _symmetry_equiv_pos_as_xyz
  1  'x, y, z'
loop_
 _atom_site_type_symbol
 _atom_site_label
 _atom_site_symmetry_multiplicity
 _atom_site_fract_x
 _atom_site_fract_y
 _atom_site_fract_z
 _atom_site_occupancy
  Mg  Mg0  1  0.27751729  0.38875815  0.62500000  1
  Mg  Mg1  1  0.32106847  0.91053374  0.62500000  1
  Mg  Mg2  1  0.78567214  0.36709740  0.12500000  1
  Mg  Mg3  1  0.80234101  0.44322770  0.62500000  1
  Mg  Mg4  1  0.78567214  0.91857374  0.12500000  1
  Mg  Mg5  1  0.80234101  0.85911231  0.62500000  1
  Mg  Mg6  1  0.25213622  0.06500316  0.30925025  1
  Mg  Mg7  1  0.25213622  0.06500316  0.94074975  1
  Mg  Mg8  1  0.25213622  0.68713406  0.30925025  1
  Mg  Mg9  1  0.25213622  0.68713406  0.94074975  1
  Mg  Mg10  1  0.80671619  0.15335859  0.39917761  1
  Mg  Mg11  1  0.80671619  0.15335859  0.85082239  1
  Mg  Mg12  1  0.69045679  0.59522890  0.33043424  1
  Mg  Mg13  1  0.69045679  0.59522890  0.91956576  1
  Si  Si0  1  0.22140556  0.36070228  0.12500000  1
  C  C0  1  0.00109152  0.75054526  0.12500000  1
loop_
_geom_bond_atom_site_label_1
_geom_bond_atom_site_label_2
_geom_bond_distance
_geom_bond_site_symmetry_2
Mg0 Mg10 3.050642 1_455
Mg0 Mg11 3.050642 1_455
Mg0 Mg5 3.104537 1_555
Mg0 Mg3 3.104537 1_555
Mg0 Mg13 3.251641 1_555
Mg0 Mg12 3.251641 1_555
Mg0 Mg5 3.305486 1_445
Mg0 Mg3 3.305486 1_455
Mg1 Mg8 3.073538 1_555
Mg1 Mg9 3.073538 1_555
Mg1 Mg6 3.073545 1_565
Mg1 Mg7 3.073545 1_565
Mg1 Mg3 3.078335 1_455
Mg1 Mg5 3.078335 1_455
Mg1 Mg10 3.109343 1_565
Mg1 Mg11 3.109343 1_565
Mg1 Mg3 3.327870 1_565
Mg1 Mg5 3.327870 1_555
Mg2 Si0 2.808382 1_655
Mg3 Mg5 3.239818 1_555
Mg3 Mg8 3.511870 1_655
Mg3 Mg9 3.511870 1_655
Mg4 Si0 2.808381 1_665
Mg5 Mg7 3.511869 1_665
Mg5 Mg6 3.511869 1_665
Mg6 Si0 2.886871 1_555
Mg7 Si0 2.886871 1_556
Mg8 Si0 2.886884 1_555
Mg9 Si0 2.886884 1_556
Mg10 Mg2 2.908890 1_555
Mg10 Mg4 2.908899 1_545
Mg10 Mg3 2.973036 1_555
Mg10 Mg5 2.973048 1_545
Mg10 Si0 3.126877 1_655
Mg10 Mg8 3.252533 1_545
Mg10 Mg6 3.252534 1_555
Mg10 Mg8 3.391918 1_655
Mg10 Mg6 3.391918 1_655
Mg11 Mg2 2.908890 1_556
Mg11 Mg4 2.908899 1_546
Mg11 Mg3 2.973036 1_555
Mg11 Mg5 2.973048 1_545
Mg11 Si0 3.126877 1_656
Mg11 Mg9 3.252533 1_545
Mg11 Mg7 3.252534 1_555
Mg11 Mg9 3.391918 1_655
Mg11 Mg7 3.391918 1_655
Mg12 Si0 2.938220 1_555
Mg12 Mg5 3.028824 1_555
Mg12 Mg3 3.028833 1_555
Mg13 Si0 2.938220 1_556
Mg13 Mg5 3.028824 1_555
Mg13 Mg3 3.028833 1_555
C0 Mg13 2.342614 1_454
C0 Mg12 2.342614 1_455
C0 Mg2 2.407454 1_455
C0 Mg4 2.407454 1_455
C0 Mg9 2.491785 1_554
C0 Mg8 2.491785 1_555
C0 Mg7 2.491795 1_564
C0 Mg6 2.491795 1_565
