# generated using pymatgen
data_Na4H8PdPt
_symmetry_space_group_name_H-M   'P 1'
_cell_length_a   5.04755560
_cell_length_b   5.04755560
_cell_length_c   8.57559887
_cell_angle_alpha   78.79360218
_cell_angle_beta   101.20639782
_cell_angle_gamma   116.31708520
_symmetry_Int_Tables_number   1
_chemical_formula_structural   Na4H8PdPt
_chemical_formula_sum   'Na4 H8 Pd1 Pt1'
_cell_volume   190.64853855
_cell_formula_units_Z   1
loop_
 _symmetry_equiv_pos_site_id
 _symmetry_equiv_pos_as_xyz
  1  'x, y, z'
loop_
 _atom_site_type_symbol
 _atom_site_label
 _atom_site_symmetry_multiplicity
 _atom_site_fract_x
 _atom_site_fract_y
 _atom_site_fract_z
 _atom_site_occupancy
  Na  Na0  1  0.37424000  0.62576000  0.12468300  1
  Na  Na1  1  0.87579000  0.12421000  0.62530000  1
  Na  Na2  1  0.12421000  0.87579000  0.37470000  1
  Na  Na3  1  0.62576000  0.37424000  0.87531700  1
  H  H0  1  0.17082500  0.39043400  0.39037900  1
  H  H1  1  0.66989300  0.88985900  0.88984800  1
  H  H2  1  0.33010700  0.11014100  0.11015200  1
  H  H3  1  0.82917500  0.60956600  0.60962100  1
  H  H4  1  0.60956600  0.82917500  0.39037900  1
  H  H5  1  0.11014100  0.33010700  0.88984800  1
  H  H6  1  0.88985900  0.66989300  0.11015200  1
  H  H7  1  0.39043400  0.17082500  0.60962100  1
  Pd  Pd0  1  0.50000000  0.50000000  0.50000000  1
  Pt  Pt0  1  0.00000000  0.00000000  0.00000000  1
loop_
_geom_bond_atom_site_label_1
_geom_bond_atom_site_label_2
_geom_bond_distance
_geom_bond_site_symmetry_2
H0 Pd0 1.652411 1_555
H0 Na2 2.530409 1_545
H0 Na1 2.534074 1_455
H0 Na0 2.536271 1_555
H0 Na2 2.538905 1_555
H1 Pt0 1.657920 1_666
H1 Na3 2.529149 1_565
H1 Na1 2.531692 1_565
H1 Na0 2.533855 1_556
H1 Na3 2.537708 1_555
H2 Pt0 1.657920 1_555
H2 Na0 2.529149 1_545
H2 Na2 2.531692 1_545
H2 Na3 2.533855 1_554
H2 Na0 2.537708 1_555
H3 Pd0 1.652411 1_555
H3 Na1 2.530409 1_565
H3 Na2 2.534074 1_655
H3 Na3 2.536271 1_555
H3 Na1 2.538905 1_555
H4 Pd0 1.652411 1_555
H4 Na2 2.530409 1_655
H4 Na1 2.534074 1_565
H4 Na0 2.536271 1_555
H4 Na2 2.538905 1_555
H5 Pt0 1.657920 1_556
H5 Na3 2.529149 1_455
H5 Na1 2.531692 1_455
H5 Na0 2.533855 1_556
H5 Na3 2.537708 1_555
H6 Pt0 1.657920 1_665
H6 Na0 2.529149 1_655
H6 Na2 2.531692 1_655
H6 Na3 2.533855 1_554
H6 Na0 2.537708 1_555
H7 Pd0 1.652411 1_555
H7 Na1 2.530409 1_455
H7 Na2 2.534074 1_545
H7 Na3 2.536271 1_555
H7 Na1 2.538905 1_555
