# generated using pymatgen
data_P2W2O11
_symmetry_space_group_name_H-M   'P 1'
_cell_length_a   7.98274500
_cell_length_b   12.73926200
_cell_length_c   8.00027647
_cell_angle_alpha   90.00000000
_cell_angle_beta   92.26119973
_cell_angle_gamma   90.00000000
_symmetry_Int_Tables_number   1
_chemical_formula_structural   P2W2O11
_chemical_formula_sum   'P8 W8 O44'
_cell_volume   812.94885422
_cell_formula_units_Z   4
loop_
 _symmetry_equiv_pos_site_id
 _symmetry_equiv_pos_as_xyz
  1  'x, y, z'
loop_
 _atom_site_type_symbol
 _atom_site_label
 _atom_site_symmetry_multiplicity
 _atom_site_fract_x
 _atom_site_fract_y
 _atom_site_fract_z
 _atom_site_occupancy
  P  P0  1  0.25360400  0.49941700  0.10574300  1
  P  P1  1  0.25060500  0.24455000  0.61783200  1
  P  P2  1  0.25102100  0.75190100  0.61209500  1
  P  P3  1  0.07155800  0.99869900  0.34411000  1
  P  P4  1  0.74897900  0.25190100  0.38790500  1
  P  P5  1  0.74939500  0.74455000  0.38216800  1
  P  P6  1  0.74639600  0.99941700  0.89425700  1
  P  P7  1  0.92844200  0.49869900  0.65589000  1
  W  W0  1  0.85134400  0.25034500  0.80918500  1
  W  W1  1  0.15179900  0.24563600  0.19442500  1
  W  W2  1  0.36129300  0.99805300  0.69049700  1
  W  W3  1  0.36251800  0.49856800  0.69361300  1
  W  W4  1  0.63748200  0.99856800  0.30638700  1
  W  W5  1  0.84820100  0.74563600  0.80557500  1
  W  W6  1  0.14865600  0.75034500  0.19081500  1
  W  W7  1  0.63870700  0.49805300  0.30950300  1
  O  O0  1  0.25739000  0.74227300  0.41900600  1
  O  O1  1  0.89558800  0.99946500  0.40923700  1
  O  O2  1  0.55669400  0.99722300  0.51703600  1
  O  O3  1  0.99964800  0.74745400  0.99736900  1
  O  O4  1  0.82730600  0.90070700  0.81941900  1
  O  O5  1  0.25732400  0.25466200  0.42460900  1
  O  O6  1  0.37162900  0.15237600  0.66784100  1
  O  O7  1  0.66606500  0.15372100  0.30857600  1
  O  O8  1  0.00035200  0.24745400  0.00263100  1
  O  O9  1  0.07561000  0.77268600  0.66860700  1
  O  O10  1  0.32739400  0.34372200  0.69966500  1
  O  O11  1  0.20890100  0.99488100  0.83893700  1
  O  O12  1  0.79544300  0.50025200  0.50943700  1
  O  O13  1  0.62850600  0.34457200  0.33872000  1
  O  O14  1  0.33091500  0.77323300  0.08679900  1
  O  O15  1  0.77257300  0.00350400  0.08357600  1
  O  O16  1  0.66908500  0.27323300  0.91320100  1
  O  O17  1  0.44330600  0.49722300  0.48296400  1
  O  O18  1  0.10164800  0.90046700  0.23514200  1
  O  O19  1  0.10441200  0.49946500  0.59076300  1
  O  O20  1  0.44538300  0.49882300  0.15100100  1
  O  O21  1  0.22742700  0.50350400  0.91642400  1
  O  O22  1  0.92433200  0.72233600  0.32592500  1
  O  O23  1  0.74267600  0.75466200  0.57539100  1
  O  O24  1  0.37149400  0.84457200  0.66128000  1
  O  O25  1  0.55461700  0.99882300  0.84899900  1
  O  O26  1  0.79109900  0.49488100  0.16106300  1
  O  O27  1  0.33480100  0.22041200  0.09339200  1
  O  O28  1  0.83134900  0.09428700  0.81190000  1
  O  O29  1  0.20455700  0.00025200  0.49056300  1
  O  O30  1  0.89784800  0.59653800  0.76528000  1
  O  O31  1  0.62837100  0.65237600  0.33215900  1
  O  O32  1  0.44995100  0.99593900  0.18927000  1
  O  O33  1  0.89835200  0.40046700  0.76485800  1
  O  O34  1  0.67260600  0.84372200  0.30033500  1
  O  O35  1  0.17269400  0.40070700  0.18058100  1
  O  O36  1  0.16865100  0.59428700  0.18810000  1
  O  O37  1  0.74261000  0.24227300  0.58099400  1
  O  O38  1  0.33393500  0.65372100  0.69142400  1
  O  O39  1  0.07566800  0.22233600  0.67407500  1
  O  O40  1  0.10215200  0.09653800  0.23472000  1
  O  O41  1  0.92439000  0.27268600  0.33139300  1
  O  O42  1  0.66519900  0.72041200  0.90660800  1
  O  O43  1  0.55004900  0.49593900  0.81073000  1
loop_
_geom_bond_atom_site_label_1
_geom_bond_atom_site_label_2
_geom_bond_distance
_geom_bond_site_symmetry_2
O0 P2 1.552458 1_555
O0 W6 1.992921 1_555
O1 P3 1.517424 1_655
O1 W4 2.188292 1_555
O2 W4 1.828123 1_555
O2 W2 2.128338 1_555
O3 W6 1.914711 1_656
O3 W5 1.915762 1_555
O4 P6 1.545134 1_555
O4 W5 1.985978 1_555
O5 P1 1.554229 1_555
O5 W1 1.997916 1_555
O6 P1 1.562606 1_555
O6 W2 1.976321 1_545
O7 P4 1.540155 1_555
O7 W4 1.989659 1_545
O8 W0 1.914711 1_454
O8 W1 1.915762 1_555
O9 P2 1.511689 1_555
O9 W5 2.184478 1_455
O10 P1 1.539098 1_555
O10 W3 1.993308 1_555
O11 W2 1.733731 1_555
O12 P7 1.549913 1_555
O12 W7 1.991685 1_555
O13 P4 1.563194 1_555
O13 W7 1.971221 1_555
O14 W6 1.729119 1_555
O15 P6 1.521653 1_544
O15 W4 2.120393 1_545
O16 W0 1.729119 1_555
O17 W3 1.828123 1_555
O17 W7 2.128338 1_555
O18 P3 1.549264 1_555
O18 W6 1.983562 1_555
O19 P7 1.517424 1_455
O19 W3 2.188292 1_555
O20 P0 1.559212 1_555
O20 W7 1.958389 1_555
O21 P0 1.521653 1_556
O21 W3 2.120393 1_555
O22 P5 1.510722 1_555
O22 W6 2.157573 1_655
O23 P5 1.554229 1_555
O23 W5 1.997916 1_555
O24 P2 1.563194 1_555
O24 W2 1.971221 1_555
O25 P6 1.559212 1_555
O25 W2 1.958389 1_555
O26 W7 1.733731 1_555
O27 W1 1.727390 1_555
O28 P6 1.545940 1_545
O28 W0 1.994648 1_555
O29 P3 1.549913 1_545
O29 W2 1.991685 1_545
O30 P7 1.547871 1_555
O30 W5 1.969464 1_555
O31 P5 1.562606 1_555
O31 W7 1.976321 1_555
O32 W4 1.734760 1_555
O33 P7 1.549264 1_555
O33 W0 1.983562 1_555
O34 P5 1.539098 1_555
O34 W4 1.993308 1_555
O35 P0 1.545134 1_555
O35 W1 1.985978 1_555
O36 P0 1.545940 1_555
O36 W6 1.994648 1_555
O37 P4 1.552458 1_555
O37 W0 1.992921 1_555
O38 P2 1.540155 1_555
O38 W3 1.989659 1_555
O39 P1 1.510722 1_555
O39 W0 2.157573 1_455
O40 P3 1.547871 1_545
O40 W1 1.969464 1_555
O41 P4 1.511689 1_555
O41 W1 2.184478 1_655
O42 W5 1.727390 1_555
O43 W3 1.734760 1_555
