# generated using pymatgen
data_Li9Co7O16
_symmetry_space_group_name_H-M   'P 1'
_cell_length_a   5.86243295
_cell_length_b   5.86243295
_cell_length_c   10.10269575
_cell_angle_alpha   72.91348854
_cell_angle_beta   72.91348854
_cell_angle_gamma   59.31425464
_symmetry_Int_Tables_number   1
_chemical_formula_structural   Li9Co7O16
_chemical_formula_sum   'Li9 Co7 O16'
_cell_volume   281.00911883
_cell_formula_units_Z   1
loop_
 _symmetry_equiv_pos_site_id
 _symmetry_equiv_pos_as_xyz
  1  'x, y, z'
loop_
 _atom_site_type_symbol
 _atom_site_label
 _atom_site_symmetry_multiplicity
 _atom_site_fract_x
 _atom_site_fract_y
 _atom_site_fract_z
 _atom_site_occupancy
  Li  Li0  1  0.00000000  0.50000000  0.00000000  1
  Li  Li1  1  0.50000000  0.00000000  0.00000000  1
  Li  Li2  1  0.24641500  0.24641500  0.75517500  1
  Li  Li3  1  0.74762800  0.74762800  0.75385300  1
  Li  Li4  1  0.50000000  0.00000000  0.50000000  1
  Li  Li5  1  0.00000000  0.50000000  0.50000000  1
  Li  Li6  1  0.75358500  0.75358500  0.24482500  1
  Li  Li7  1  0.25237200  0.25237200  0.24614700  1
  Li  Li8  1  0.50000000  0.50000000  0.00000000  1
  Co  Co0  1  0.00000000  0.00000000  0.00000000  1
  Co  Co1  1  0.25540200  0.74856000  0.24363900  1
  Co  Co2  1  0.25144000  0.74459800  0.75636100  1
  Co  Co3  1  0.74459800  0.25144000  0.75636100  1
  Co  Co4  1  0.50000000  0.50000000  0.50000000  1
  Co  Co5  1  0.00000000  0.00000000  0.50000000  1
  Co  Co6  1  0.74856000  0.25540200  0.24363900  1
  O  O0  1  0.11776300  0.65754600  0.12081400  1
  O  O1  1  0.65754600  0.11776300  0.12081400  1
  O  O2  1  0.38429400  0.38429400  0.85915500  1
  O  O3  1  0.88483400  0.88483400  0.88233400  1
  O  O4  1  0.65150400  0.12338800  0.61547500  1
  O  O5  1  0.12338800  0.65150400  0.61547500  1
  O  O6  1  0.89505200  0.89505200  0.37379100  1
  O  O7  1  0.38884800  0.38884800  0.37934700  1
  O  O8  1  0.88223700  0.34245400  0.87918600  1
  O  O9  1  0.34245400  0.88223700  0.87918600  1
  O  O10  1  0.10494800  0.10494800  0.62620900  1
  O  O11  1  0.61115200  0.61115200  0.62065300  1
  O  O12  1  0.34849600  0.87661200  0.38452500  1
  O  O13  1  0.87661200  0.34849600  0.38452500  1
  O  O14  1  0.61570600  0.61570600  0.14084500  1
  O  O15  1  0.11516600  0.11516600  0.11766600  1
loop_
_geom_bond_atom_site_label_1
_geom_bond_atom_site_label_2
_geom_bond_distance
_geom_bond_site_symmetry_2
Li0 O3 2.073591 1_454
Li0 O15 2.073591 1_555
Li0 O0 2.151233 1_555
Li0 O8 2.151233 1_454
Li0 O2 2.164259 1_554
Li0 O14 2.164259 1_455
Li1 O3 2.073591 1_544
Li1 O15 2.073591 1_555
Li1 O1 2.151233 1_555
Li1 O9 2.151233 1_544
Li1 O2 2.164259 1_554
Li1 O14 2.164259 1_545
Li2 O9 2.015083 1_545
Li2 O8 2.015083 1_455
Li2 O2 2.018664 1_555
Li2 O5 2.243261 1_555
Li2 O4 2.243261 1_555
Li2 O10 2.246134 1_555
Li3 O4 2.123871 1_565
Li3 O5 2.123871 1_655
Li3 O8 2.185112 1_555
Li3 O9 2.185112 1_555
Li3 O3 2.205951 1_555
Li3 O11 2.238262 1_555
Li4 O7 2.103506 1_555
Li4 O11 2.103506 1_545
Li4 O4 2.105609 1_555
Li4 O12 2.105609 1_545
Li4 O10 2.153921 1_555
Li4 O6 2.153921 1_545
Li5 O7 2.103506 1_555
Li5 O11 2.103506 1_455
Li5 O5 2.105609 1_555
Li5 O13 2.105609 1_455
Li5 O10 2.153921 1_555
Li5 O6 2.153921 1_455
Li6 O0 2.015083 1_655
Li6 O1 2.015083 1_565
Li6 O14 2.018664 1_555
Li6 O13 2.243261 1_555
Li6 O12 2.243261 1_555
Li6 O6 2.246134 1_555
Li7 O12 2.123871 1_545
Li7 O13 2.123871 1_455
Li7 O0 2.185112 1_555
Li7 O1 2.185112 1_555
Li7 O15 2.205951 1_555
Li7 O7 2.238262 1_555
Li8 O8 2.075325 1_554
Li8 O1 2.075325 1_555
Li8 O9 2.075325 1_554
Li8 O0 2.075325 1_555
Li8 O14 2.132812 1_555
Li8 O2 2.132812 1_554
Co0 O0 1.907213 1_545
Co0 O1 1.907213 1_455
Co0 O8 1.907213 1_454
Co0 O9 1.907213 1_544
Co0 O15 1.932167 1_555
Co0 O3 1.932167 1_444
Co1 O14 1.911513 1_555
Co1 O0 1.972909 1_555
Co1 O6 2.027019 1_455
Co1 O15 2.029474 1_565
Co1 O7 2.046020 1_555
Co1 O12 2.095176 1_555
Co2 O2 1.911513 1_555
Co2 O9 1.972909 1_555
Co2 O10 2.027019 1_565
Co2 O3 2.029474 1_455
Co2 O11 2.046020 1_555
Co2 O5 2.095176 1_555
Co3 O2 1.911513 1_555
Co3 O8 1.972909 1_555
Co3 O10 2.027019 1_655
Co3 O3 2.029474 1_545
Co3 O11 2.046020 1_555
Co3 O4 2.095176 1_555
Co4 O11 1.924019 1_555
Co4 O7 1.924019 1_555
Co4 O13 2.029364 1_555
Co4 O12 2.029364 1_555
Co4 O4 2.029364 1_555
Co4 O5 2.029364 1_555
Co5 O13 1.909228 1_455
Co5 O5 1.909228 1_545
Co5 O4 1.909228 1_455
Co5 O12 1.909228 1_545
Co5 O10 1.921234 1_555
Co5 O6 1.921234 1_445
Co6 O14 1.911513 1_555
Co6 O1 1.972909 1_555
Co6 O6 2.027019 1_545
Co6 O15 2.029474 1_655
Co6 O7 2.046020 1_555
Co6 O13 2.095176 1_555
