# generated using pymatgen
data_TbNiSn2
_symmetry_space_group_name_H-M   'P 1'
_cell_length_a   4.46406900
_cell_length_b   14.71101300
_cell_length_c   16.17929000
_cell_angle_alpha   90.00000000
_cell_angle_beta   90.00000000
_cell_angle_gamma   90.00000000
_symmetry_Int_Tables_number   1
_chemical_formula_structural   TbNiSn2
_chemical_formula_sum   'Tb12 Ni12 Sn24'
_cell_volume   1062.50978295
_cell_formula_units_Z   12
loop_
 _symmetry_equiv_pos_site_id
 _symmetry_equiv_pos_as_xyz
  1  'x, y, z'
loop_
 _atom_site_type_symbol
 _atom_site_label
 _atom_site_symmetry_multiplicity
 _atom_site_fract_x
 _atom_site_fract_y
 _atom_site_fract_z
 _atom_site_occupancy
  Tb  Tb0  1  0.25000000  0.97268900  0.34949000  1
  Tb  Tb1  1  0.25000000  0.52731100  0.84949000  1
  Tb  Tb2  1  0.75000000  0.02731100  0.65051000  1
  Tb  Tb3  1  0.75000000  0.47268900  0.15051000  1
  Tb  Tb4  1  0.25000000  0.27344100  0.87352300  1
  Tb  Tb5  1  0.25000000  0.22655900  0.37352300  1
  Tb  Tb6  1  0.75000000  0.72655900  0.12647700  1
  Tb  Tb7  1  0.75000000  0.77344100  0.62647700  1
  Tb  Tb8  1  0.25000000  0.39729700  0.64558500  1
  Tb  Tb9  1  0.25000000  0.10270300  0.14558500  1
  Tb  Tb10  1  0.75000000  0.60270300  0.35441500  1
  Tb  Tb11  1  0.75000000  0.89729700  0.85441500  1
  Ni  Ni0  1  0.25000000  0.60626800  0.05194500  1
  Ni  Ni1  1  0.25000000  0.89373200  0.55194500  1
  Ni  Ni2  1  0.75000000  0.39373200  0.94805500  1
  Ni  Ni3  1  0.75000000  0.10626800  0.44805500  1
  Ni  Ni4  1  0.25000000  0.74570400  0.30687200  1
  Ni  Ni5  1  0.25000000  0.75429600  0.80687200  1
  Ni  Ni6  1  0.75000000  0.25429600  0.69312800  1
  Ni  Ni7  1  0.75000000  0.24570400  0.19312800  1
  Ni  Ni8  1  0.25000000  0.04739300  0.79951100  1
  Ni  Ni9  1  0.25000000  0.45260700  0.29951100  1
  Ni  Ni10  1  0.75000000  0.95260700  0.20048900  1
  Ni  Ni11  1  0.75000000  0.54739300  0.70048900  1
  Sn  Sn0  1  0.25000000  0.17706900  0.68329100  1
  Sn  Sn1  1  0.25000000  0.32293100  0.18329100  1
  Sn  Sn2  1  0.75000000  0.82293100  0.31670900  1
  Sn  Sn3  1  0.75000000  0.67706900  0.81670900  1
  Sn  Sn4  1  0.25000000  0.05220700  0.95597300  1
  Sn  Sn5  1  0.25000000  0.44779300  0.45597300  1
  Sn  Sn6  1  0.75000000  0.94779300  0.04402700  1
  Sn  Sn7  1  0.75000000  0.55220700  0.54402700  1
  Sn  Sn8  1  0.25000000  0.07770800  0.51945800  1
  Sn  Sn9  1  0.25000000  0.42229200  0.01945800  1
  Sn  Sn10  1  0.75000000  0.92229200  0.48054200  1
  Sn  Sn11  1  0.75000000  0.57770800  0.98054200  1
  Sn  Sn12  1  0.25000000  0.60443000  0.21497800  1
  Sn  Sn13  1  0.25000000  0.89557000  0.71497800  1
  Sn  Sn14  1  0.75000000  0.39557000  0.78502200  1
  Sn  Sn15  1  0.75000000  0.10443000  0.28502200  1
  Sn  Sn16  1  0.25000000  0.73599500  0.46824100  1
  Sn  Sn17  1  0.25000000  0.76400500  0.96824100  1
  Sn  Sn18  1  0.75000000  0.26400500  0.53175900  1
  Sn  Sn19  1  0.75000000  0.23599500  0.03175900  1
  Sn  Sn20  1  0.25000000  0.86902300  0.17556900  1
  Sn  Sn21  1  0.25000000  0.63097700  0.67556900  1
  Sn  Sn22  1  0.75000000  0.13097700  0.82443100  1
  Sn  Sn23  1  0.75000000  0.36902300  0.32443100  1
loop_
_geom_bond_atom_site_label_1
_geom_bond_atom_site_label_2
_geom_bond_distance
_geom_bond_site_symmetry_2
Tb0 Tb5 3.754872 1_565
Tb0 Tb9 3.813376 1_565
Tb1 Tb4 3.754872 1_555
Tb1 Tb8 3.813376 1_555
Tb2 Tb7 3.754872 1_545
Tb3 Tb6 3.754872 1_555
Tb10 Tb3 3.813376 1_555
Tb11 Tb2 3.813376 1_565
Ni0 Sn11 2.548157 1_454
Ni0 Sn11 2.548157 1_554
Ni0 Sn12 2.637897 1_555
Ni0 Sn17 2.686752 1_554
Ni0 Sn9 2.757040 1_555
Ni0 Tb6 3.093155 1_555
Ni0 Tb6 3.093155 1_455
Ni0 Tb3 3.374408 1_455
Ni0 Tb3 3.374408 1_555
Ni0 Tb1 3.475425 1_554
Ni1 Sn10 2.548157 1_555
Ni1 Sn10 2.548157 1_455
Ni1 Sn13 2.637897 1_555
Ni1 Sn16 2.686752 1_555
Ni1 Sn8 2.757040 1_565
Ni1 Tb7 3.093155 1_455
Ni1 Tb7 3.093155 1_555
Ni1 Tb2 3.374408 1_465
Ni1 Tb2 3.374408 1_565
Ni1 Tb0 3.475425 1_555
Ni2 Sn9 2.548157 1_556
Ni2 Sn9 2.548157 1_656
Ni2 Sn14 2.637897 1_555
Ni2 Sn19 2.686752 1_556
Ni2 Sn11 2.757040 1_555
Ni2 Tb4 3.093155 1_555
Ni2 Tb4 3.093155 1_655
Ni2 Tb1 3.374408 1_555
Ni2 Tb1 3.374408 1_655
Ni2 Tb3 3.475425 1_556
Ni3 Sn8 2.548157 1_655
Ni3 Sn8 2.548157 1_555
Ni3 Sn15 2.637897 1_555
Ni3 Sn18 2.686752 1_555
Ni3 Sn10 2.757040 1_545
Ni3 Tb5 3.093155 1_555
Ni3 Tb5 3.093155 1_655
Ni3 Tb0 3.374408 1_545
Ni3 Tb0 3.374408 1_645
Ni3 Tb2 3.475425 1_555
Ni4 Sn2 2.509582 1_555
Ni4 Sn2 2.509582 1_455
Ni4 Sn12 2.555343 1_555
Ni4 Sn16 2.614740 1_555
Ni4 Sn20 2.793593 1_555
Ni4 Tb10 3.162147 1_455
Ni4 Tb10 3.162147 1_555
Ni4 Tb0 3.409629 1_555
Ni5 Sn3 2.509582 1_555
Ni5 Sn3 2.509582 1_455
Ni5 Sn13 2.555343 1_555
Ni5 Sn17 2.614740 1_555
Ni5 Sn21 2.793593 1_555
Ni5 Tb11 3.162147 1_555
Ni5 Tb11 3.162147 1_455
Ni5 Tb1 3.409629 1_555
Ni6 Sn0 2.509582 1_655
Ni6 Sn0 2.509582 1_555
Ni6 Sn14 2.555343 1_555
Ni6 Sn18 2.614740 1_555
Ni6 Sn22 2.793593 1_555
Ni6 Tb8 3.162147 1_555
Ni6 Tb8 3.162147 1_655
Ni6 Tb2 3.409629 1_555
Ni7 Sn1 2.509582 1_555
Ni7 Sn1 2.509582 1_655
Ni7 Sn15 2.555343 1_555
Ni7 Sn19 2.614740 1_555
Ni7 Sn23 2.793593 1_555
Ni7 Tb9 3.162147 1_555
Ni7 Tb9 3.162147 1_655
Ni7 Tb3 3.409629 1_555
Ni8 Sn4 2.532434 1_555
Ni8 Sn22 2.580013 1_455
Ni8 Sn22 2.580013 1_555
Ni8 Sn13 2.618959 1_545
Ni8 Sn0 2.678606 1_555
Ni8 Tb11 3.262915 1_545
Ni8 Tb11 3.262915 1_445
Ni8 Tb2 3.298617 1_455
Ni8 Tb2 3.298617 1_555
Ni9 Sn5 2.532434 1_555
Ni9 Sn23 2.580013 1_555
Ni9 Sn23 2.580013 1_455
Ni9 Sn12 2.618959 1_555
Ni9 Sn1 2.678606 1_555
Ni9 Tb10 3.262915 1_555
Ni9 Tb10 3.262915 1_455
Ni9 Tb3 3.298617 1_455
Ni9 Tb3 3.298617 1_555
Ni10 Sn6 2.532434 1_555
Ni10 Sn20 2.580013 1_555
Ni10 Sn20 2.580013 1_655
Ni10 Sn15 2.618959 1_565
Ni10 Sn2 2.678606 1_555
Ni10 Tb9 3.262915 1_565
Ni10 Tb9 3.262915 1_665
Ni10 Tb0 3.298617 1_655
Ni10 Tb0 3.298617 1_555
Ni11 Sn7 2.532434 1_555
Ni11 Sn21 2.580013 1_655
Ni11 Sn21 2.580013 1_555
Ni11 Sn14 2.618959 1_555
Ni11 Sn3 2.678606 1_555
Ni11 Tb8 3.262915 1_655
Ni11 Tb8 3.262915 1_555
Ni11 Tb1 3.298617 1_555
Ni11 Tb1 3.298617 1_655
Sn0 Sn8 3.027010 1_555
Sn0 Tb2 3.180706 1_555
Sn0 Tb2 3.180706 1_455
Sn0 Sn22 3.264402 1_555
Sn0 Sn22 3.264402 1_455
Sn0 Tb8 3.296714 1_555
Sn0 Tb4 3.388647 1_555
Sn1 Sn9 3.027010 1_555
Sn1 Tb3 3.180706 1_555
Sn1 Tb3 3.180706 1_455
Sn1 Sn23 3.264402 1_555
Sn1 Sn23 3.264402 1_455
Sn1 Tb9 3.296714 1_555
Sn1 Tb5 3.388647 1_555
Sn2 Tb0 3.180706 1_655
Sn2 Tb0 3.180706 1_555
Sn2 Sn20 3.264402 1_655
Sn2 Sn20 3.264402 1_555
Sn2 Tb10 3.296714 1_555
Sn2 Tb6 3.388647 1_555
Sn3 Tb1 3.180706 1_555
Sn3 Tb1 3.180706 1_655
Sn3 Tb11 3.296714 1_555
Sn3 Tb7 3.388647 1_555
Sn4 Sn6 3.061211 1_446
Sn4 Sn6 3.061211 1_546
Sn4 Tb9 3.156445 1_556
Sn4 Tb4 3.517354 1_555
Sn4 Tb11 3.588201 1_445
Sn4 Tb11 3.588201 1_545
Sn5 Sn7 3.061211 1_555
Sn5 Sn7 3.061211 1_455
Sn5 Tb8 3.156445 1_555
Sn5 Tb5 3.517354 1_555
Sn5 Tb10 3.588201 1_555
Sn5 Tb10 3.588201 1_455
Sn6 Tb11 3.156445 1_554
Sn6 Tb6 3.517354 1_555
Sn6 Tb9 3.588201 1_565
Sn6 Tb9 3.588201 1_665
Sn7 Tb10 3.156445 1_555
Sn7 Tb7 3.517354 1_555
Sn7 Tb8 3.588201 1_555
Sn7 Tb8 3.588201 1_655
Sn8 Tb0 3.154222 1_545
Sn8 Tb2 3.166612 1_555
Sn8 Tb2 3.166612 1_455
Sn8 Tb5 3.220235 1_555
Sn9 Tb1 3.154222 1_554
Sn9 Tb3 3.166612 1_455
Sn9 Tb3 3.166612 1_555
Sn9 Tb4 3.220235 1_554
Sn10 Sn2 3.027010 1_555
Sn10 Tb2 3.154222 1_565
Sn10 Tb0 3.166612 1_655
Sn10 Tb0 3.166612 1_555
Sn10 Tb7 3.220235 1_555
Sn11 Sn3 3.027010 1_555
Sn11 Tb3 3.154222 1_556
Sn11 Tb1 3.166612 1_555
Sn11 Tb1 3.166612 1_655
Sn11 Tb6 3.220235 1_556
Sn12 Tb3 3.134635 1_555
Sn12 Tb3 3.134635 1_455
Sn12 Tb10 3.173661 1_555
Sn12 Tb10 3.173661 1_455
Sn12 Tb6 3.203153 1_455
Sn12 Tb6 3.203153 1_555
Sn13 Tb2 3.134635 1_565
Sn13 Tb2 3.134635 1_465
Sn13 Tb11 3.173661 1_555
Sn13 Tb11 3.173661 1_455
Sn13 Tb7 3.203153 1_455
Sn13 Tb7 3.203153 1_555
Sn14 Tb1 3.134635 1_555
Sn14 Tb1 3.134635 1_655
Sn14 Tb8 3.173661 1_555
Sn14 Tb8 3.173661 1_655
Sn14 Tb4 3.203153 1_655
Sn14 Tb4 3.203153 1_555
Sn15 Tb0 3.134635 1_645
Sn15 Tb0 3.134635 1_545
Sn15 Tb9 3.173661 1_555
Sn15 Tb9 3.173661 1_655
Sn15 Tb5 3.203153 1_555
Sn15 Tb5 3.203153 1_655
Sn16 Tb7 3.440898 1_555
Sn16 Tb7 3.440898 1_455
Sn16 Tb10 3.495501 1_455
Sn16 Tb10 3.495501 1_555
Sn17 Tb6 3.440898 1_556
Sn17 Tb6 3.440898 1_456
Sn17 Tb11 3.495501 1_455
Sn17 Tb11 3.495501 1_555
Sn18 Tb5 3.440898 1_555
Sn18 Tb5 3.440898 1_655
Sn18 Tb8 3.495501 1_555
Sn18 Tb8 3.495501 1_655
Sn19 Tb4 3.440898 1_554
Sn19 Tb4 3.440898 1_654
Sn19 Tb9 3.495501 1_655
Sn19 Tb9 3.495501 1_555
Sn20 Tb6 3.163097 1_455
Sn20 Tb6 3.163097 1_555
Sn20 Tb0 3.200603 1_555
Sn20 Sn6 3.294577 1_455
Sn20 Sn6 3.294577 1_555
Sn20 Tb9 3.471731 1_565
Sn21 Tb7 3.163097 1_455
Sn21 Tb7 3.163097 1_555
Sn21 Tb1 3.200603 1_555
Sn21 Sn3 3.264402 1_455
Sn21 Sn3 3.264402 1_555
Sn21 Sn7 3.294577 1_455
Sn21 Sn7 3.294577 1_555
Sn21 Tb8 3.471731 1_555
Sn22 Tb4 3.163097 1_555
Sn22 Tb4 3.163097 1_655
Sn22 Tb2 3.200603 1_555
Sn22 Sn4 3.294577 1_555
Sn22 Sn4 3.294577 1_655
Sn22 Tb11 3.471731 1_545
Sn23 Tb5 3.163097 1_555
Sn23 Tb5 3.163097 1_655
Sn23 Tb3 3.200603 1_555
Sn23 Sn5 3.294577 1_555
Sn23 Sn5 3.294577 1_655
Sn23 Tb10 3.471731 1_555
