# generated using pymatgen
data_Sr2La2MgRuO8
_symmetry_space_group_name_H-M   'P 1'
_cell_length_a   3.89907100
_cell_length_b   3.89907100
_cell_length_c   12.75195700
_cell_angle_alpha   90.00000000
_cell_angle_beta   90.00000000
_cell_angle_gamma   90.00000000
_symmetry_Int_Tables_number   1
_chemical_formula_structural   Sr2La2MgRuO8
_chemical_formula_sum   'Sr2 La2 Mg1 Ru1 O8'
_cell_volume   193.86487374
_cell_formula_units_Z   1
loop_
 _symmetry_equiv_pos_site_id
 _symmetry_equiv_pos_as_xyz
  1  'x, y, z'
loop_
 _atom_site_type_symbol
 _atom_site_label
 _atom_site_symmetry_multiplicity
 _atom_site_fract_x
 _atom_site_fract_y
 _atom_site_fract_z
 _atom_site_occupancy
  Sr  Sr0  1  0.00000000  0.00000000  0.64557000  1
  Sr  Sr1  1  0.00000000  0.00000000  0.35443000  1
  La  La0  1  0.50000000  0.50000000  0.13721700  1
  La  La1  1  0.50000000  0.50000000  0.86278300  1
  Mg  Mg0  1  0.00000000  0.00000000  0.00000000  1
  Ru  Ru0  1  0.50000000  0.50000000  0.50000000  1
  O  O0  1  0.50000000  0.50000000  0.33305300  1
  O  O1  1  0.00000000  0.00000000  0.82916600  1
  O  O2  1  0.00000000  0.00000000  0.17083400  1
  O  O3  1  0.50000000  0.50000000  0.66694700  1
  O  O4  1  0.00000000  0.50000000  0.50000000  1
  O  O5  1  0.50000000  0.00000000  0.00000000  1
  O  O6  1  0.50000000  0.00000000  0.50000000  1
  O  O7  1  0.00000000  0.50000000  0.00000000  1
loop_
_geom_bond_atom_site_label_1
_geom_bond_atom_site_label_2
_geom_bond_distance
_geom_bond_site_symmetry_2
La0 O0 2.497292 1_555
La0 O7 2.619625 1_655
La0 O7 2.619625 1_555
La0 O5 2.619625 1_555
La0 O5 2.619625 1_565
La0 O2 2.790187 1_655
La0 O2 2.790187 1_565
La0 O2 2.790187 1_665
La0 O2 2.790187 1_555
La1 O3 2.497292 1_555
La1 O7 2.619625 1_656
La1 O5 2.619625 1_556
La1 O5 2.619625 1_566
La1 O7 2.619625 1_556
La1 O1 2.790187 1_655
La1 O1 2.790187 1_555
La1 O1 2.790187 1_565
La1 O1 2.790187 1_665
Mg0 O5 1.949536 1_555
Mg0 O5 1.949536 1_455
Mg0 O7 1.949536 1_545
Mg0 O7 1.949536 1_555
Mg0 O2 2.178468 1_555
Mg0 O1 2.178468 1_554
O0 Ru0 2.128901 1_555
O0 Sr1 2.770503 1_655
O0 Sr1 2.770503 1_555
O0 Sr1 2.770503 1_565
O0 Sr1 2.770503 1_665
O1 Sr0 2.341208 1_555
O2 Sr1 2.341208 1_555
O3 Ru0 2.128901 1_555
O3 Sr0 2.770503 1_565
O3 Sr0 2.770503 1_665
O3 Sr0 2.770503 1_655
O3 Sr0 2.770503 1_555
O4 Ru0 1.949536 1_455
O4 Ru0 1.949536 1_555
O4 Sr1 2.691941 1_565
O4 Sr1 2.691941 1_555
O4 Sr0 2.691941 1_555
O4 Sr0 2.691941 1_565
O6 Ru0 1.949536 1_545
O6 Ru0 1.949536 1_555
O6 Sr1 2.691941 1_655
O6 Sr1 2.691941 1_555
O6 Sr0 2.691941 1_555
O6 Sr0 2.691941 1_655
