# generated using pymatgen
data_Sr2FeSnO6
_symmetry_space_group_name_H-M   'P 1'
_cell_length_a   8.05954401
_cell_length_b   8.14803055
_cell_length_c   9.03065490
_cell_angle_alpha   63.22536689
_cell_angle_beta   90.00147768
_cell_angle_gamma   90.00530295
_symmetry_Int_Tables_number   1
_chemical_formula_structural   Sr2FeSnO6
_chemical_formula_sum   'Sr8 Fe4 Sn4 O24'
_cell_volume   529.45544556
_cell_formula_units_Z   4
loop_
 _symmetry_equiv_pos_site_id
 _symmetry_equiv_pos_as_xyz
  1  'x, y, z'
loop_
 _atom_site_type_symbol
 _atom_site_label
 _atom_site_symmetry_multiplicity
 _atom_site_fract_x
 _atom_site_fract_y
 _atom_site_fract_z
 _atom_site_occupancy
  Sr  Sr0  1  0.49961100  0.75094500  0.49970100  1
  Sr  Sr1  1  0.00040900  0.49979900  0.00036500  1
  Sr  Sr2  1  0.49955500  0.24942200  0.49957900  1
  Sr  Sr3  1  0.00040300  0.99982000  0.00036100  1
  Sr  Sr4  1  0.00038700  0.75094200  0.49969400  1
  Sr  Sr5  1  0.49959400  0.49979800  0.00036400  1
  Sr  Sr6  1  0.00045500  0.24942700  0.49958200  1
  Sr  Sr7  1  0.49959700  0.99982600  0.00036300  1
  Fe  Fe0  1  0.24999900  0.12495000  0.25007500  1
  Fe  Fe1  1  0.74995300  0.87511400  0.74979100  1
  Fe  Fe2  1  0.75008000  0.37500300  0.74979500  1
  Fe  Fe3  1  0.25005700  0.62510800  0.25013000  1
  Sn  Sn0  1  0.75000400  0.62500300  0.24984300  1
  Sn  Sn1  1  0.25001500  0.37497400  0.75017400  1
  Sn  Sn2  1  0.74998700  0.12516700  0.24978100  1
  Sn  Sn3  1  0.25000300  0.87485600  0.75020000  1
  O  O0  1  0.74999300  0.87507900  0.25016300  1
  O  O1  1  0.24999700  0.62528200  0.74976000  1
  O  O2  1  0.74999800  0.37472700  0.25027900  1
  O  O3  1  0.24999900  0.12488100  0.74985200  1
  O  O4  1  0.74999200  0.63185000  0.74989200  1
  O  O5  1  0.24999300  0.36820700  0.25016100  1
  O  O6  1  0.75001200  0.11852300  0.74952000  1
  O  O7  1  0.25000300  0.88140200  0.25046400  1
  O  O8  1  0.99577700  0.37510400  0.74995500  1
  O  O9  1  0.49456500  0.12448400  0.25111600  1
  O  O10  1  0.99435900  0.87549100  0.74891300  1
  O  O11  1  0.49584000  0.62492200  0.25001100  1
  O  O12  1  0.00415500  0.62490800  0.25004500  1
  O  O13  1  0.50420800  0.37508100  0.74998500  1
  O  O14  1  0.00544100  0.12447400  0.25111000  1
  O  O15  1  0.50563800  0.87548800  0.74892400  1
  O  O16  1  0.74999100  0.49784400  0.50473400  1
  O  O17  1  0.24998200  0.24705900  0.00536500  1
  O  O18  1  0.74998400  0.99726100  0.50467100  1
  O  O19  1  0.24998100  0.74837800  0.00357000  1
  O  O20  1  0.24998400  0.50211800  0.49535300  1
  O  O21  1  0.74998600  0.25167500  0.99632200  1
  O  O22  1  0.25000400  0.00255500  0.49560000  1
  O  O23  1  0.75000900  0.75305500  0.99443600  1
loop_
_geom_bond_atom_site_label_1
_geom_bond_atom_site_label_2
_geom_bond_distance
_geom_bond_site_symmetry_2
Fe0 O14 1.971044 1_555
Fe0 O9 1.971108 1_555
Fe0 O17 1.972959 1_555
Fe0 O22 1.979530 1_555
Fe0 O5 1.982415 1_555
Fe0 O7 1.982857 1_545
Fe1 O15 1.969080 1_555
Fe1 O10 1.969814 1_555
Fe1 O23 1.972435 1_555
Fe1 O18 1.976265 1_555
Fe1 O4 1.981712 1_555
Fe1 O6 1.982203 1_565
Fe2 O16 1.975793 1_555
Fe2 O8 1.980207 1_555
Fe2 O13 1.981617 1_555
Fe2 O21 1.987609 1_555
Fe2 O6 2.090927 1_555
Fe2 O4 2.093192 1_555
Fe3 O20 1.977100 1_555
Fe3 O11 1.980900 1_555
Fe3 O12 1.981859 1_555
Fe3 O19 1.987875 1_555
Fe3 O7 2.089652 1_555
Fe3 O5 2.093111 1_555
O0 Sn2 2.036173 1_565
O0 Sn0 2.038930 1_555
O0 Sr0 2.849514 1_555
O0 Sr4 2.849593 1_655
O0 Sr7 2.851134 1_555
O0 Sr3 2.851174 1_655
O1 Sn3 2.035330 1_555
O1 Sn1 2.037836 1_555
O1 Sr0 2.848111 1_555
O1 Sr4 2.848179 1_555
O1 Sr1 2.851074 1_556
O1 Sr5 2.851171 1_556
O2 Sn2 2.035452 1_555
O2 Sn0 2.037486 1_555
O2 Sr2 2.848513 1_555
O2 Sr6 2.848662 1_655
O2 Sr1 2.851819 1_655
O2 Sr5 2.851836 1_555
O3 Sn3 2.035798 1_545
O3 Sn1 2.039077 1_555
O3 Sr6 2.848962 1_555
O3 Sr2 2.848997 1_555
O3 Sr3 2.850570 1_546
O3 Sr7 2.850644 1_546
O4 Sr0 2.853667 1_555
O4 Sr4 2.853743 1_655
O4 Sr5 2.855490 1_556
O4 Sr1 2.855662 1_656
O5 Sr6 2.844420 1_555
O5 Sr2 2.844584 1_555
O5 Sr1 2.847037 1_555
O5 Sr5 2.847081 1_555
O6 Sr6 2.852569 1_655
O6 Sr2 2.852722 1_555
O6 Sr3 2.857533 1_646
O6 Sr7 2.857638 1_546
O7 Sr4 2.843808 1_555
O7 Sr0 2.843858 1_555
O7 Sr7 2.848717 1_555
O7 Sr3 2.848807 1_555
O8 Sn1 2.049043 1_655
O8 Sr1 2.866618 1_656
O8 Sr3 2.869733 1_646
O8 Sr6 2.871995 1_655
O8 Sr4 2.872534 1_655
O9 Sn2 2.058613 1_555
O9 Sr2 2.851394 1_555
O9 Sr0 2.854618 1_545
O9 Sr7 2.869391 1_545
O9 Sr5 2.870909 1_555
O10 Sn3 2.060400 1_655
O10 Sr4 2.855747 1_655
O10 Sr6 2.859112 1_665
O10 Sr3 2.873567 1_656
O10 Sr1 2.875185 1_656
O11 Sn0 2.048446 1_555
O11 Sr5 2.862488 1_555
O11 Sr7 2.865340 1_555
O11 Sr0 2.868066 1_555
O11 Sr2 2.868579 1_555
O12 Sn0 2.048342 1_455
O12 Sr1 2.862679 1_555
O12 Sr3 2.865491 1_555
O12 Sr4 2.867782 1_555
O12 Sr6 2.868377 1_555
O13 Sn1 2.048680 1_555
O13 Sr5 2.866482 1_556
O13 Sr7 2.869480 1_546
O13 Sr2 2.872167 1_555
O13 Sr0 2.872752 1_555
O14 Sn2 2.058871 1_455
O14 Sr6 2.851562 1_555
O14 Sr4 2.854569 1_545
O14 Sr3 2.869330 1_545
O14 Sr1 2.870959 1_555
O15 Sn3 2.060327 1_555
O15 Sr0 2.855741 1_555
O15 Sr2 2.859145 1_565
O15 Sr7 2.873547 1_556
O15 Sr5 2.875132 1_556
O16 Sn0 2.055043 1_555
O16 Sr4 2.870932 1_655
O16 Sr0 2.871145 1_555
O16 Sr2 2.873574 1_555
O16 Sr6 2.873959 1_655
O17 Sn1 2.057465 1_554
O17 Sr3 2.861409 1_545
O17 Sr7 2.861836 1_545
O17 Sr5 2.864521 1_555
O17 Sr1 2.864574 1_555
O18 Sn2 2.055041 1_565
O18 Sr0 2.860475 1_555
O18 Sr4 2.860947 1_655
O18 Sr2 2.865818 1_565
O18 Sr6 2.865827 1_665
O19 Sn3 2.042780 1_554
O19 Sr7 2.862085 1_555
O19 Sr3 2.862094 1_555
O19 Sr1 2.863763 1_555
O19 Sr5 2.864268 1_555
O20 Sn1 2.054478 1_555
O20 Sr6 2.865928 1_555
O20 Sr2 2.866469 1_555
O20 Sr0 2.868923 1_555
O20 Sr4 2.868980 1_555
O21 Sn2 2.043497 1_556
O21 Sr7 2.866446 1_546
O21 Sr3 2.866911 1_646
O21 Sr1 2.868441 1_656
O21 Sr5 2.868521 1_556
O22 Sn3 2.052702 1_545
O22 Sr2 2.856030 1_555
O22 Sr6 2.856320 1_555
O22 Sr4 2.860554 1_545
O22 Sr0 2.860726 1_545
O23 Sn0 2.059207 1_556
O23 Sr3 2.866063 1_656
O23 Sr7 2.866470 1_556
O23 Sr5 2.869503 1_556
O23 Sr1 2.869676 1_656
