# generated using pymatgen
data_Na3LuCl6
_symmetry_space_group_name_H-M   'P 1'
_cell_length_a   6.74082934
_cell_length_b   7.19673995
_cell_length_c   10.00767323
_cell_angle_alpha   90.00000000
_cell_angle_beta   90.89029690
_cell_angle_gamma   90.00000000
_symmetry_Int_Tables_number   1
_chemical_formula_structural   Na3LuCl6
_chemical_formula_sum   'Na6 Lu2 Cl12'
_cell_volume   485.43359248
_cell_formula_units_Z   2
loop_
 _symmetry_equiv_pos_site_id
 _symmetry_equiv_pos_as_xyz
  1  'x, y, z'
loop_
 _atom_site_type_symbol
 _atom_site_label
 _atom_site_symmetry_multiplicity
 _atom_site_fract_x
 _atom_site_fract_y
 _atom_site_fract_z
 _atom_site_occupancy
  Na  Na0  1  -0.00000000  -0.00000000  0.50000000  1
  Na  Na1  1  0.50000000  0.50000000  0.00000000  1
  Na  Na2  1  0.97314510  0.57838552  0.26113403  1
  Na  Na3  1  0.02685490  0.42161448  0.73886597  1
  Na  Na4  1  0.52685490  0.07838552  0.23886597  1
  Na  Na5  1  0.47314510  0.92161448  0.76113403  1
  Lu  Lu0  1  -0.00000000  -0.00000000  0.00000000  1
  Lu  Lu1  1  0.50000000  0.50000000  0.50000000  1
  Cl  Cl0  1  0.83269494  0.30121736  0.07977318  1
  Cl  Cl1  1  0.16730506  0.69878264  0.92022682  1
  Cl  Cl2  1  0.66730506  0.80121736  0.42022682  1
  Cl  Cl3  1  0.33269494  0.19878264  0.57977318  1
  Cl  Cl4  1  0.13940629  0.93670178  0.23778746  1
  Cl  Cl5  1  0.86059371  0.06329822  0.76221254  1
  Cl  Cl6  1  0.36059371  0.43670178  0.26221254  1
  Cl  Cl7  1  0.63940629  0.56329822  0.73778746  1
  Cl  Cl8  1  0.68683461  0.82178713  0.06172240  1
  Cl  Cl9  1  0.31316539  0.17821287  0.93827760  1
  Cl  Cl10  1  0.81316539  0.32178713  0.43827760  1
  Cl  Cl11  1  0.18683461  0.67821287  0.56172240  1
loop_
_geom_bond_atom_site_label_1
_geom_bond_atom_site_label_2
_geom_bond_distance
_geom_bond_site_symmetry_2
Cl0 Lu0 2.576139 1_655
Cl0 Na1 2.767260 1_555
Cl0 Na2 2.848863 1_555
Cl0 Na4 3.075538 1_555
Cl1 Lu0 2.576139 1_566
Cl1 Na1 2.767260 1_556
Cl1 Na3 2.848863 1_555
Cl1 Na5 3.075538 1_555
Cl2 Lu1 2.576139 1_555
Cl2 Na0 2.767260 1_665
Cl2 Na4 2.848863 1_565
Cl2 Na2 3.075538 1_555
Cl3 Lu1 2.576139 1_555
Cl3 Na0 2.767260 1_555
Cl3 Na5 2.848863 1_545
Cl3 Na3 3.075538 1_555
Cl4 Lu0 2.585354 1_565
Cl4 Na4 2.803579 1_565
Cl4 Na2 2.822857 1_455
Cl4 Na0 2.837835 1_565
Cl5 Lu0 2.585354 1_656
Cl5 Na5 2.803579 1_545
Cl5 Na3 2.822857 1_655
Cl5 Na0 2.837835 1_655
Cl6 Lu1 2.585354 1_555
Cl6 Na2 2.803579 1_455
Cl6 Na4 2.822857 1_555
Cl6 Na1 2.837835 1_555
Cl7 Lu1 2.585354 1_555
Cl7 Na3 2.803579 1_655
Cl7 Na5 2.822857 1_555
Cl7 Na1 2.837835 1_556
Cl8 Lu0 2.554077 1_665
Cl8 Na1 2.703059 1_555
Cl8 Na4 2.788431 1_565
Cl8 Na2 3.264375 1_555
Cl8 Na5 3.391987 1_554
Cl9 Lu0 2.554077 1_556
Cl9 Na1 2.703059 1_556
Cl9 Na5 2.788431 1_545
Cl9 Na3 3.264375 1_555
Cl9 Na4 3.391987 1_556
Cl10 Lu1 2.554077 1_555
Cl10 Na0 2.703059 1_655
Cl10 Na2 2.788431 1_555
Cl10 Na4 3.264375 1_555
Cl10 Na3 3.391987 1_655
Cl11 Lu1 2.554077 1_555
Cl11 Na0 2.703059 1_565
Cl11 Na3 2.788431 1_555
Cl11 Na5 3.264375 1_555
Cl11 Na2 3.391987 1_455
