# generated using pymatgen
data_K2LiNd4Nb2O12
_symmetry_space_group_name_H-M   'P 1'
_cell_length_a   5.76677135
_cell_length_b   7.04397261
_cell_length_c   8.72537066
_cell_angle_alpha   101.29646270
_cell_angle_beta   90.01231148
_cell_angle_gamma   114.12389053
_symmetry_Int_Tables_number   1
_chemical_formula_structural   K2LiNd4Nb2O12
_chemical_formula_sum   'K2 Li1 Nd4 Nb2 O12'
_cell_volume   315.93285954
_cell_formula_units_Z   1
loop_
 _symmetry_equiv_pos_site_id
 _symmetry_equiv_pos_as_xyz
  1  'x, y, z'
loop_
 _atom_site_type_symbol
 _atom_site_label
 _atom_site_symmetry_multiplicity
 _atom_site_fract_x
 _atom_site_fract_y
 _atom_site_fract_z
 _atom_site_occupancy
  K  K0  1  0.11451200  0.22933100  0.45862000  1
  K  K1  1  0.90882400  0.81678100  0.57533500  1
  Li  Li0  1  0.76946800  0.54142500  0.32300000  1
  Nd  Nd0  1  0.14194700  0.28411600  0.93568800  1
  Nd  Nd1  1  0.55824100  0.11660000  0.19186300  1
  Nd  Nd2  1  0.41550400  0.83051800  0.79803200  1
  Nd  Nd3  1  0.87139100  0.74197700  0.05396200  1
  Nb  Nb0  1  0.66718300  0.33440100  0.69532900  1
  Nb  Nb1  1  0.32847900  0.65773300  0.29470400  1
  O  O0  1  0.00030300  0.54331300  0.82645100  1
  O  O1  1  0.18826200  0.87327600  0.29488700  1
  O  O2  1  0.24350900  0.00146000  0.99089800  1
  O  O3  1  0.79588200  0.12332100  0.70887000  1
  O  O4  1  0.68468300  0.87212300  0.29473800  1
  O  O5  1  0.75836700  0.00173300  0.99107200  1
  O  O6  1  0.32755000  0.12366500  0.70898200  1
  O  O7  1  0.97902800  0.44139200  0.18444800  1
  O  O8  1  0.68585900  0.37209100  0.48541900  1
  O  O9  1  0.32854700  0.65740200  0.51208000  1
  O  O10  1  0.45998500  0.44017800  0.18455800  1
  O  O11  1  0.54331300  0.54345900  0.82677800  1
loop_
_geom_bond_atom_site_label_1
_geom_bond_atom_site_label_2
_geom_bond_distance
_geom_bond_site_symmetry_2
K0 O9 2.690663 1_555
K0 O1 2.824991 1_545
K0 O4 2.830302 1_445
K0 O6 2.866821 1_555
K0 O3 2.867158 1_455
K0 O8 3.019349 1_455
K0 O8 3.020099 1_555
K1 O6 2.570584 1_665
K1 O3 2.570688 1_565
K1 O4 2.932810 1_555
K1 O1 2.932921 1_655
K1 O9 3.066364 1_655
K1 O9 3.073833 1_555
Li0 O10 1.942713 1_555
Li0 O7 1.944578 1_555
Li0 O8 1.963669 1_555
Li0 O4 2.623374 1_555
Li0 O1 2.639543 1_655
Nd0 O5 2.421468 1_455
Nd0 O2 2.422415 1_555
Nd0 O6 2.539630 1_555
Nd0 O3 2.540621 1_455
Nd0 O10 2.588932 1_556
Nd0 O7 2.594382 1_456
Nd0 O0 2.609525 1_555
Nd0 O11 2.611954 1_555
Nd1 O5 2.294517 1_554
Nd1 O2 2.294539 1_554
Nd1 O1 2.431694 1_545
Nd1 O4 2.436130 1_545
Nd1 O10 2.575422 1_555
Nd1 O7 2.578118 1_555
Nd1 O8 2.729788 1_555
Nd2 O2 2.334242 1_565
Nd2 O5 2.335472 1_565
Nd2 O11 2.472169 1_555
Nd2 O0 2.474774 1_555
Nd2 O9 2.504260 1_555
Nd2 O3 2.569433 1_565
Nd2 O6 2.570876 1_565
Nd3 O2 2.331724 1_664
Nd3 O5 2.332772 1_564
Nd3 O11 2.492809 1_554
Nd3 O0 2.492852 1_654
Nd3 O4 2.542952 1_555
Nd3 O1 2.543375 1_655
Nd3 O7 2.860593 1_555
Nd3 O10 2.876439 1_555
Nb0 O8 1.898379 1_555
Nb0 O3 1.935535 1_555
Nb0 O6 1.935610 1_555
Nb0 O11 2.047635 1_555
Nb0 O0 2.047798 1_655
Nb1 O9 1.897144 1_555
Nb1 O1 1.990374 1_555
Nb1 O4 1.991031 1_555
Nb1 O10 2.054376 1_555
Nb1 O7 2.055079 1_455
