# generated using pymatgen
data_ErTmIn2
_symmetry_space_group_name_H-M   'P 1'
_cell_length_a   5.23190163
_cell_length_b   5.23190163
_cell_length_c   5.23190163
_cell_angle_alpha   60.00000000
_cell_angle_beta   60.00000000
_cell_angle_gamma   60.00000000
_symmetry_Int_Tables_number   1
_chemical_formula_structural   ErTmIn2
_chemical_formula_sum   'Er1 Tm1 In2'
_cell_volume   101.26601294
_cell_formula_units_Z   1
loop_
 _symmetry_equiv_pos_site_id
 _symmetry_equiv_pos_as_xyz
  1  'x, y, z'
loop_
 _atom_site_type_symbol
 _atom_site_label
 _atom_site_symmetry_multiplicity
 _atom_site_fract_x
 _atom_site_fract_y
 _atom_site_fract_z
 _atom_site_occupancy
  Er  Er0  1  0.50000000  0.50000000  0.50000000  1
  Tm  Tm0  1  -0.00000000  0.00000000  0.00000000  1
  In  In0  1  0.75000000  0.75000000  0.75000000  1
  In  In1  1  0.25000000  0.25000000  0.25000000  1
loop_
_geom_bond_atom_site_label_1
_geom_bond_atom_site_label_2
_geom_bond_distance
_geom_bond_site_symmetry_2
Er0 In1 3.203872 1_556
Er0 In1 3.203872 1_565
Er0 In1 3.203872 1_655
Er0 In0 3.203872 1_455
Er0 In0 3.203872 1_545
Er0 In0 3.203872 1_554
Er0 In0 3.203872 1_555
Er0 In1 3.203872 1_555
In0 Tm0 3.203872 1_656
In0 Tm0 3.203872 1_665
In0 Tm0 3.203872 1_566
In0 Tm0 3.203872 1_666
In1 Tm0 3.203872 1_556
In1 Tm0 3.203872 1_565
In1 Tm0 3.203872 1_655
In1 Tm0 3.203872 1_555
