# generated using pymatgen
data_Ca2AlNiO5
_symmetry_space_group_name_H-M   'P 1'
_cell_length_a   8.19570598
_cell_length_b   8.19570598
_cell_length_c   8.19570598
_cell_angle_alpha   142.69150382
_cell_angle_beta   139.65569235
_cell_angle_gamma   56.11336088
_symmetry_Int_Tables_number   1
_chemical_formula_structural   Ca2AlNiO5
_chemical_formula_sum   'Ca4 Al2 Ni2 O10'
_cell_volume   214.33877073
_cell_formula_units_Z   2
loop_
 _symmetry_equiv_pos_site_id
 _symmetry_equiv_pos_as_xyz
  1  'x, y, z'
loop_
 _atom_site_type_symbol
 _atom_site_label
 _atom_site_symmetry_multiplicity
 _atom_site_fract_x
 _atom_site_fract_y
 _atom_site_fract_z
 _atom_site_occupancy
  Ca  Ca0  1  0.35677000  0.88323300  0.45897100  1
  Ca  Ca1  1  0.07573800  0.60220100  0.45897100  1
  Ca  Ca2  1  0.64323000  0.10220100  0.52646400  1
  Ca  Ca3  1  0.92426200  0.38323300  0.52646400  1
  Al  Al0  1  0.67189200  0.71008800  0.88198000  1
  Al  Al1  1  0.32810800  0.21008800  0.03819600  1
  Ni  Ni0  1  0.50000000  0.50557800  0.00557800  1
  Ni  Ni1  1  0.00000000  0.00557800  0.00557800  1
  O  O0  1  0.60706900  0.37336000  0.48042900  1
  O  O1  1  0.39293100  0.87336000  0.76629200  1
  O  O2  1  0.28062900  0.38427200  0.95918900  1
  O  O3  1  0.71937100  0.67855900  0.10364300  1
  O  O4  1  0.92508300  0.88427200  0.10364300  1
  O  O5  1  0.07491700  0.17855900  0.95918900  1
  O  O6  1  0.26149500  0.76721900  0.99368100  1
  O  O7  1  0.73850500  0.73218600  0.50572400  1
  O  O8  1  0.72646100  0.23218600  0.99368100  1
  O  O9  1  0.27353900  0.26721900  0.50572400  1
loop_
_geom_bond_atom_site_label_1
_geom_bond_atom_site_label_2
_geom_bond_distance
_geom_bond_site_symmetry_2
Ca0 O4 2.301830 1_455
Ca0 O1 2.365989 1_555
Ca0 O8 2.459559 1_565
Ca0 O7 2.464912 1_555
Ca0 O2 2.488670 1_554
Ca0 O6 2.564515 1_554
Ca0 O9 2.569504 1_565
Ca0 O2 2.884614 1_565
Ca1 O3 2.301826 1_455
Ca1 O1 2.365977 1_555
Ca1 O6 2.459564 1_555
Ca1 O9 2.464912 1_555
Ca1 O5 2.488671 1_554
Ca1 O8 2.564520 1_454
Ca1 O7 2.569501 1_455
Ca1 O5 2.884610 1_565
Ca2 O5 2.301830 1_655
Ca2 O0 2.365988 1_555
Ca2 O9 2.459553 1_555
Ca2 O6 2.464912 1_544
Ca2 O3 2.488675 1_545
Ca2 O7 2.564510 1_545
Ca2 O8 2.569499 1_555
Ca2 O3 2.884609 1_556
Ca3 O2 2.301826 1_655
Ca3 O0 2.365975 1_555
Ca3 O7 2.459568 1_555
Ca3 O8 2.464916 1_554
Ca3 O4 2.488671 1_545
Ca3 O9 2.564528 1_655
Ca3 O6 2.569504 1_655
Ca3 O4 2.884610 1_556
Al0 O4 1.753730 1_556
Al0 O3 1.753737 1_556
Al0 O1 1.794185 1_555
Al0 O0 1.803054 1_555
Al1 O2 1.753730 1_554
Al1 O5 1.753735 1_554
Al1 O0 1.794187 1_555
Al1 O1 1.803052 1_544
Ni0 O8 1.940552 1_554
Ni0 O9 1.940555 1_554
Ni0 O6 1.948496 1_554
Ni0 O7 1.948496 1_555
Ni0 O3 2.171482 1_555
Ni0 O2 2.171488 1_554
Ni1 O6 1.940555 1_544
Ni1 O7 1.940555 1_444
Ni1 O9 1.948497 1_555
Ni1 O8 1.948500 1_454
Ni1 O5 2.171480 1_554
Ni1 O4 2.171488 1_445
