# generated using pymatgen
data_NaC2N3
_symmetry_space_group_name_H-M   'P 1'
_cell_length_a   18.85269500
_cell_length_b   4.29211600
_cell_length_c   5.77528029
_cell_angle_alpha   49.17374611
_cell_angle_beta   90.00000000
_cell_angle_gamma   90.00000000
_symmetry_Int_Tables_number   1
_chemical_formula_structural   NaC2N3
_chemical_formula_sum   'Na4 C8 N12'
_cell_volume   353.62189675
_cell_formula_units_Z   4
loop_
 _symmetry_equiv_pos_site_id
 _symmetry_equiv_pos_as_xyz
  1  'x, y, z'
loop_
 _atom_site_type_symbol
 _atom_site_label
 _atom_site_symmetry_multiplicity
 _atom_site_fract_x
 _atom_site_fract_y
 _atom_site_fract_z
 _atom_site_occupancy
  Na  Na0  1  0.67296800  0.43337500  0.02410900  1
  Na  Na1  1  0.17296800  0.56662500  0.47589100  1
  Na  Na2  1  0.32703200  0.56662500  0.97589100  1
  Na  Na3  1  0.82703200  0.43337500  0.52410900  1
  C  C0  1  0.99386800  0.50135200  0.12205100  1
  C  C1  1  0.00613200  0.49864800  0.87794900  1
  C  C2  1  0.50613200  0.50135200  0.62205100  1
  C  C3  1  0.49386800  0.49864800  0.37794900  1
  C  C4  1  0.83339100  0.30625600  0.00583600  1
  C  C5  1  0.33339100  0.69374400  0.49416400  1
  C  C6  1  0.16660900  0.69374400  0.99416400  1
  C  C7  1  0.66660900  0.30625600  0.50583600  1
  N  N0  1  0.81213100  0.22433300  0.23242600  1
  N  N1  1  0.68786900  0.22433300  0.73242600  1
  N  N2  1  0.31213100  0.77566700  0.26757400  1
  N  N3  1  0.18786900  0.77566700  0.76757400  1
  N  N4  1  0.02117700  0.85276100  0.57123700  1
  N  N5  1  0.52117700  0.14723900  0.92876300  1
  N  N6  1  0.97882300  0.14723900  0.42876300  1
  N  N7  1  0.47882300  0.85276100  0.07123700  1
  N  N8  1  0.98785200  0.82115300  0.11334000  1
  N  N9  1  0.48785200  0.17884700  0.38666000  1
  N  N10  1  0.01214800  0.17884700  0.88666000  1
  N  N11  1  0.51214800  0.82115300  0.61334000  1
loop_
_geom_bond_atom_site_label_1
_geom_bond_atom_site_label_2
_geom_bond_distance
_geom_bond_site_symmetry_2
C0 N8 1.345064 1_555
C0 N6 1.417031 1_555
C0 C1 1.436106 1_654
C1 N10 1.345064 1_555
C1 N4 1.417031 1_555
C2 N11 1.345064 1_555
C2 N5 1.417031 1_555
C2 C3 1.436106 1_555
C3 N9 1.345064 1_555
C3 N7 1.417031 1_555
C4 N0 1.181154 1_555
C4 Na3 2.463214 1_554
C5 N2 1.181154 1_555
C5 Na2 2.463214 1_555
C6 N3 1.181154 1_555
C6 Na1 2.463214 1_556
C7 N1 1.181154 1_555
C7 Na0 2.463214 1_555
N0 Na3 2.387029 1_555
N0 Na3 2.638989 1_545
N0 Na0 2.779262 1_555
N1 Na0 2.387029 1_556
N1 Na0 2.638989 1_546
N1 Na3 2.779262 1_555
N2 Na2 2.387029 1_554
N2 Na2 2.638989 1_564
N2 Na1 2.779262 1_555
N3 Na1 2.387029 1_555
N3 Na1 2.638989 1_565
N3 Na2 2.779262 1_555
N4 N6 1.245921 1_465
N5 N7 1.245921 1_546
N10 N8 1.285576 1_446
N11 N9 1.285576 1_565
