# generated using pymatgen
data_CeGe3Ru
_symmetry_space_group_name_H-M   'P 1'
_cell_length_a   9.03402787
_cell_length_b   9.03402787
_cell_length_c   9.03402787
_cell_angle_alpha   90.00000000
_cell_angle_beta   90.00000000
_cell_angle_gamma   90.00000000
_symmetry_Int_Tables_number   1
_chemical_formula_structural   CeGe3Ru
_chemical_formula_sum   'Ce8 Ge24 Ru8'
_cell_volume   737.30007500
_cell_formula_units_Z   8
loop_
 _symmetry_equiv_pos_site_id
 _symmetry_equiv_pos_as_xyz
  1  'x, y, z'
loop_
 _atom_site_type_symbol
 _atom_site_label
 _atom_site_symmetry_multiplicity
 _atom_site_fract_x
 _atom_site_fract_y
 _atom_site_fract_z
 _atom_site_occupancy
  Ce  Ce0  1  0.50000000  0.00000000  0.75000000  1
  Ce  Ce1  1  0.00000000  0.25000000  0.50000000  1
  Ce  Ce2  1  0.75000000  0.50000000  -0.00000000  1
  Ce  Ce3  1  0.50000000  0.00000000  0.25000000  1
  Ce  Ce4  1  0.00000000  0.75000000  0.50000000  1
  Ce  Ce5  1  0.25000000  0.50000000  -0.00000000  1
  Ce  Ce6  1  0.50000000  0.50000000  0.50000000  1
  Ce  Ce7  1  0.00000000  0.00000000  -0.00000000  1
  Ge  Ge0  1  0.50000000  0.34515954  0.82694295  1
  Ge  Ge1  1  0.65484046  0.17305705  0.50000000  1
  Ge  Ge2  1  0.82694295  0.50000000  0.65484046  1
  Ge  Ge3  1  0.50000000  0.65484046  0.17305705  1
  Ge  Ge4  1  0.34515954  0.82694295  0.50000000  1
  Ge  Ge5  1  0.17305705  0.50000000  0.34515954  1
  Ge  Ge6  1  0.65484046  0.82694295  0.50000000  1
  Ge  Ge7  1  0.82694295  0.50000000  0.34515954  1
  Ge  Ge8  1  0.34515954  0.17305705  0.50000000  1
  Ge  Ge9  1  0.17305705  0.50000000  0.65484046  1
  Ge  Ge10  1  0.50000000  0.65484046  0.82694295  1
  Ge  Ge11  1  0.50000000  0.34515954  0.17305705  1
  Ge  Ge12  1  0.00000000  0.32694295  0.84515954  1
  Ge  Ge13  1  0.15484046  0.00000000  0.67305705  1
  Ge  Ge14  1  0.32694295  0.15484046  -0.00000000  1
  Ge  Ge15  1  0.00000000  0.67305705  0.15484046  1
  Ge  Ge16  1  0.84515954  0.00000000  0.32694295  1
  Ge  Ge17  1  0.67305705  0.84515954  -0.00000000  1
  Ge  Ge18  1  0.15484046  0.00000000  0.32694295  1
  Ge  Ge19  1  0.32694295  0.84515954  -0.00000000  1
  Ge  Ge20  1  0.84515954  0.00000000  0.67305705  1
  Ge  Ge21  1  0.67305705  0.15484046  -0.00000000  1
  Ge  Ge22  1  0.00000000  0.32694295  0.15484046  1
  Ge  Ge23  1  0.00000000  0.67305705  0.84515954  1
  Ru  Ru0  1  0.75000000  0.25000000  0.75000000  1
  Ru  Ru1  1  0.25000000  0.75000000  0.25000000  1
  Ru  Ru2  1  0.75000000  0.75000000  0.25000000  1
  Ru  Ru3  1  0.25000000  0.25000000  0.75000000  1
  Ru  Ru4  1  0.25000000  0.75000000  0.75000000  1
  Ru  Ru5  1  0.75000000  0.25000000  0.25000000  1
  Ru  Ru6  1  0.25000000  0.25000000  0.25000000  1
  Ru  Ru7  1  0.75000000  0.75000000  0.75000000  1
loop_
_geom_bond_atom_site_label_1
_geom_bond_atom_site_label_2
_geom_bond_distance
_geom_bond_site_symmetry_2
Ce0 Ge4 3.082501 1_545
Ce0 Ge19 3.082501 1_546
Ce0 Ge6 3.082501 1_545
Ce0 Ge8 3.082501 1_555
Ce0 Ge21 3.082501 1_556
Ce0 Ge17 3.082501 1_546
Ce0 Ge1 3.082501 1_555
Ce0 Ge14 3.082501 1_556
Ce0 Ru4 3.194011 1_545
Ce0 Ru3 3.194011 1_555
Ce0 Ru7 3.194011 1_545
Ce0 Ru0 3.194011 1_555
Ce0 Ge10 3.194718 1_545
Ce0 Ge0 3.194718 1_555
Ce0 Ge13 3.194718 1_555
Ce0 Ge20 3.194718 1_555
Ce1 Ge7 3.082501 1_455
Ce1 Ge16 3.082501 1_455
Ce1 Ge5 3.082501 1_555
Ce1 Ge20 3.082501 1_455
Ce1 Ge2 3.082501 1_455
Ce1 Ge18 3.082501 1_555
Ce1 Ge9 3.082501 1_555
Ce1 Ge13 3.082501 1_555
Ce1 Ru0 3.194011 1_455
Ce1 Ru3 3.194011 1_555
Ce1 Ru5 3.194011 1_455
Ce1 Ru6 3.194011 1_555
Ce1 Ge1 3.194718 1_455
Ce1 Ge8 3.194718 1_555
Ce1 Ge22 3.194718 1_555
Ce1 Ge12 3.194718 1_555
Ce2 Ge0 3.082501 1_554
Ce2 Ge10 3.082501 1_554
Ce2 Ge12 3.082501 1_654
Ce2 Ge22 3.082501 1_655
Ce2 Ge11 3.082501 1_555
Ce2 Ge23 3.082501 1_654
Ce2 Ge3 3.082501 1_555
Ce2 Ge15 3.082501 1_655
Ce2 Ru0 3.194011 1_554
Ce2 Ru5 3.194011 1_555
Ce2 Ru2 3.194011 1_555
Ce2 Ru7 3.194011 1_554
Ce2 Ge2 3.194718 1_554
Ce2 Ge21 3.194718 1_555
Ce2 Ge7 3.194718 1_555
Ce2 Ge17 3.194718 1_555
Ce3 Ge4 3.082501 1_545
Ce3 Ge6 3.082501 1_545
Ce3 Ge19 3.082501 1_545
Ce3 Ge14 3.082501 1_555
Ce3 Ge8 3.082501 1_555
Ce3 Ge17 3.082501 1_545
Ce3 Ge21 3.082501 1_555
Ce3 Ge1 3.082501 1_555
Ce3 Ru1 3.194011 1_545
Ce3 Ru5 3.194011 1_555
Ce3 Ru2 3.194011 1_545
Ce3 Ru6 3.194011 1_555
Ce3 Ge3 3.194718 1_545
Ce3 Ge18 3.194718 1_555
Ce3 Ge11 3.194718 1_555
Ce3 Ge16 3.194718 1_555
Ce4 Ge7 3.082501 1_455
Ce4 Ge5 3.082501 1_555
Ce4 Ge20 3.082501 1_465
Ce4 Ge2 3.082501 1_455
Ce4 Ge16 3.082501 1_465
Ce4 Ge9 3.082501 1_555
Ce4 Ge18 3.082501 1_565
Ce4 Ge13 3.082501 1_565
Ce4 Ru2 3.194011 1_455
Ce4 Ru4 3.194011 1_555
Ce4 Ru1 3.194011 1_555
Ce4 Ru7 3.194011 1_455
Ce4 Ge6 3.194718 1_455
Ce4 Ge4 3.194718 1_555
Ce4 Ge15 3.194718 1_555
Ce4 Ge23 3.194718 1_555
Ce5 Ge0 3.082501 1_554
Ce5 Ge22 3.082501 1_555
Ce5 Ge10 3.082501 1_554
Ce5 Ge12 3.082501 1_554
Ce5 Ge11 3.082501 1_555
Ce5 Ge3 3.082501 1_555
Ce5 Ge15 3.082501 1_555
Ce5 Ge23 3.082501 1_554
Ce5 Ru1 3.194011 1_555
Ce5 Ru3 3.194011 1_554
Ce5 Ru4 3.194011 1_554
Ce5 Ru6 3.194011 1_555
Ce5 Ge9 3.194718 1_554
Ce5 Ge5 3.194718 1_555
Ce5 Ge14 3.194718 1_555
Ce5 Ge19 3.194718 1_555
Ce6 Ge5 3.268112 1_555
Ce6 Ge11 3.268112 1_555
Ce6 Ge8 3.268112 1_555
Ce6 Ge9 3.268112 1_555
Ce6 Ge6 3.268112 1_555
Ce6 Ge10 3.268112 1_555
Ce6 Ge7 3.268112 1_555
Ce6 Ge4 3.268112 1_555
Ce6 Ge0 3.268112 1_555
Ce6 Ge2 3.268112 1_555
Ce6 Ge1 3.268112 1_555
Ce6 Ge3 3.268112 1_555
Ce7 Ge20 3.268112 1_454
Ce7 Ge13 3.268112 1_554
Ce7 Ge15 3.268112 1_545
Ce7 Ge22 3.268112 1_555
Ce7 Ge21 3.268112 1_455
Ce7 Ge19 3.268112 1_545
Ce7 Ge18 3.268112 1_555
Ce7 Ge14 3.268112 1_555
Ce7 Ge23 3.268112 1_544
Ce7 Ge17 3.268112 1_445
Ce7 Ge12 3.268112 1_554
Ce7 Ge16 3.268112 1_455
Ge0 Ru3 2.514570 1_555
Ge0 Ru0 2.514570 1_555
Ge0 Ge10 2.797666 1_555
Ge0 Ge14 2.800823 1_556
Ge0 Ge21 2.800823 1_556
Ge1 Ru5 2.514570 1_555
Ge1 Ru0 2.514570 1_555
Ge1 Ge8 2.797666 1_555
Ge1 Ge16 2.800823 1_555
Ge1 Ge20 2.800823 1_555
Ge2 Ru7 2.514570 1_555
Ge2 Ru0 2.514570 1_555
Ge2 Ge7 2.797666 1_555
Ge2 Ge23 2.800823 1_655
Ge3 Ru1 2.514570 1_555
Ge3 Ru2 2.514570 1_555
Ge4 Ru4 2.514570 1_555
Ge4 Ru1 2.514570 1_555
Ge4 Ge6 2.797666 1_555
Ge5 Ru1 2.514570 1_555
Ge5 Ru6 2.514570 1_555
Ge5 Ge9 2.797666 1_555
Ge6 Ru2 2.514570 1_555
Ge6 Ru7 2.514570 1_555
Ge7 Ru5 2.514570 1_555
Ge7 Ru2 2.514570 1_555
Ge8 Ru3 2.514570 1_555
Ge8 Ru6 2.514570 1_555
Ge9 Ru4 2.514570 1_555
Ge9 Ru3 2.514570 1_555
Ge10 Ru4 2.514570 1_555
Ge10 Ru7 2.514570 1_555
Ge10 Ge17 2.800823 1_556
Ge10 Ge19 2.800823 1_556
Ge11 Ru5 2.514570 1_555
Ge11 Ru6 2.514570 1_555
Ge11 Ge3 2.797666 1_555
Ge11 Ge14 2.800823 1_555
Ge11 Ge21 2.800823 1_555
Ge12 Ru3 2.514570 1_555
Ge12 Ru0 2.514570 1_455
Ge12 Ge22 2.797666 1_556
Ge12 Ge2 2.800823 1_455
Ge12 Ge9 2.800823 1_555
Ge13 Ru4 2.514570 1_545
Ge13 Ru3 2.514570 1_555
Ge13 Ge20 2.797666 1_455
Ge13 Ge4 2.800823 1_545
Ge13 Ge8 2.800823 1_555
Ge14 Ru3 2.514570 1_554
Ge14 Ru6 2.514570 1_555
Ge14 Ge19 2.797666 1_545
Ge15 Ru1 2.514570 1_555
Ge15 Ru2 2.514570 1_455
Ge15 Ge23 2.797666 1_554
Ge15 Ge7 2.800823 1_455
Ge15 Ge5 2.800823 1_555
Ge16 Ru5 2.514570 1_555
Ge16 Ru2 2.514570 1_545
Ge16 Ge18 2.797666 1_655
Ge16 Ge6 2.800823 1_545
Ge17 Ru2 2.514570 1_555
Ge17 Ru7 2.514570 1_554
Ge17 Ge21 2.797666 1_565
Ge17 Ge3 2.800823 1_555
Ge18 Ru6 2.514570 1_555
Ge18 Ru1 2.514570 1_545
Ge18 Ge4 2.800823 1_545
Ge18 Ge8 2.800823 1_555
Ge19 Ru1 2.514570 1_555
Ge19 Ru4 2.514570 1_554
Ge19 Ge3 2.800823 1_555
Ge20 Ru7 2.514570 1_545
Ge20 Ru0 2.514570 1_555
Ge20 Ge6 2.800823 1_545
Ge21 Ru5 2.514570 1_555
Ge21 Ru0 2.514570 1_554
Ge22 Ru5 2.514570 1_455
Ge22 Ru6 2.514570 1_555
Ge22 Ge7 2.800823 1_455
Ge22 Ge5 2.800823 1_555
Ge23 Ru4 2.514570 1_555
Ge23 Ru7 2.514570 1_455
Ge23 Ge9 2.800823 1_555
