# generated using pymatgen
data_MnTeH18(SN2)3
_symmetry_space_group_name_H-M   'P 1'
_cell_length_a   7.54338700
_cell_length_b   11.11234300
_cell_length_c   17.64269085
_cell_angle_alpha   90.00000000
_cell_angle_beta   93.12069546
_cell_angle_gamma   90.00000000
_symmetry_Int_Tables_number   1
_chemical_formula_structural   MnTeH18(SN2)3
_chemical_formula_sum   'Mn4 Te4 H72 S12 N24'
_cell_volume   1476.70024028
_cell_formula_units_Z   4
loop_
 _symmetry_equiv_pos_site_id
 _symmetry_equiv_pos_as_xyz
  1  'x, y, z'
loop_
 _atom_site_type_symbol
 _atom_site_label
 _atom_site_symmetry_multiplicity
 _atom_site_fract_x
 _atom_site_fract_y
 _atom_site_fract_z
 _atom_site_occupancy
  Mn  Mn0  1  0.68171600  0.26510300  0.60948500  1
  Mn  Mn1  1  0.31828400  0.76510300  0.89051500  1
  Mn  Mn2  1  0.31828400  0.73489700  0.39051500  1
  Mn  Mn3  1  0.68171600  0.23489700  0.10948500  1
  Te  Te0  1  0.83043100  0.76982000  0.65372000  1
  Te  Te1  1  0.16956900  0.26982000  0.84628000  1
  Te  Te2  1  0.16956900  0.23018000  0.34628000  1
  Te  Te3  1  0.83043100  0.73018000  0.15372000  1
  H  H0  1  0.96811000  0.42498200  0.60080800  1
  H  H1  1  0.03189000  0.92498200  0.89919200  1
  H  H2  1  0.03189000  0.57501800  0.39919200  1
  H  H3  1  0.96811000  0.07501800  0.10080800  1
  H  H4  1  0.91168800  0.43142300  0.68886300  1
  H  H5  1  0.08831200  0.93142300  0.81113700  1
  H  H6  1  0.08831200  0.56857700  0.31113700  1
  H  H7  1  0.91168800  0.06857700  0.18886300  1
  H  H8  1  0.03232000  0.31546800  0.66102000  1
  H  H9  1  0.96768000  0.81546800  0.83898000  1
  H  H10  1  0.96768000  0.68453200  0.33898000  1
  H  H11  1  0.03232000  0.18453200  0.16102000  1
  H  H12  1  0.56628900  0.33625200  0.46099700  1
  H  H13  1  0.43371100  0.83625200  0.03900300  1
  H  H14  1  0.43371100  0.66374800  0.53900300  1
  H  H15  1  0.56628900  0.16374800  0.96099700  1
  H  H16  1  0.66862000  0.45236300  0.50632000  1
  H  H17  1  0.33138000  0.95236300  0.99368000  1
  H  H18  1  0.33138000  0.54763700  0.49368000  1
  H  H19  1  0.66862000  0.04763700  0.00632000  1
  H  H20  1  0.78699400  0.34619600  0.46853100  1
  H  H21  1  0.21300600  0.84619600  0.03146900  1
  H  H22  1  0.21300600  0.65380400  0.53146900  1
  H  H23  1  0.78699400  0.15380400  0.96853100  1
  H  H24  1  0.45490300  0.38171400  0.70767500  1
  H  H25  1  0.54509700  0.88171400  0.79232500  1
  H  H26  1  0.54509700  0.61828600  0.29232500  1
  H  H27  1  0.45490300  0.11828600  0.20767500  1
  H  H28  1  0.58049100  0.48577600  0.67242700  1
  H  H29  1  0.41950900  0.98577600  0.82757300  1
  H  H30  1  0.41950900  0.51422400  0.32757300  1
  H  H31  1  0.58049100  0.01422400  0.17242700  1
  H  H32  1  0.40548700  0.43428000  0.62102300  1
  H  H33  1  0.59451300  0.93428000  0.87897700  1
  H  H34  1  0.59451300  0.56572000  0.37897700  1
  H  H35  1  0.40548700  0.06572000  0.12102300  1
  H  H36  1  0.65151800  0.07653200  0.71079800  1
  H  H37  1  0.34848200  0.57653200  0.78920200  1
  H  H38  1  0.34848200  0.92346800  0.28920200  1
  H  H39  1  0.65151800  0.42346800  0.21079800  1
  H  H40  1  0.82206700  0.15874400  0.74335300  1
  H  H41  1  0.17793300  0.65874400  0.75664700  1
  H  H42  1  0.17793300  0.84125600  0.25664700  1
  H  H43  1  0.82206700  0.34125600  0.24335300  1
  H  H44  1  0.61507300  0.20052000  0.76013700  1
  H  H45  1  0.38492700  0.70052000  0.73986300  1
  H  H46  1  0.38492700  0.79948000  0.23986300  1
  H  H47  1  0.61507300  0.29948000  0.26013700  1
  H  H48  1  0.34867300  0.16168400  0.61627100  1
  H  H49  1  0.65132700  0.66168400  0.88372900  1
  H  H50  1  0.65132700  0.83831600  0.38372900  1
  H  H51  1  0.34867300  0.33831600  0.11627100  1
  H  H52  1  0.37841000  0.17816900  0.52418800  1
  H  H53  1  0.62159000  0.67816900  0.97581200  1
  H  H54  1  0.62159000  0.82183100  0.47581200  1
  H  H55  1  0.37841000  0.32183100  0.02418800  1
  H  H56  1  0.47181500  0.06322700  0.57356800  1
  H  H57  1  0.52818500  0.56322700  0.92643200  1
  H  H58  1  0.52818500  0.93677300  0.42643200  1
  H  H59  1  0.47181500  0.43677300  0.07356800  1
  H  H60  1  0.80773700  0.05445300  0.53615800  1
  H  H61  1  0.19226300  0.55445300  0.96384200  1
  H  H62  1  0.19226300  0.94554700  0.46384200  1
  H  H63  1  0.80773700  0.44554700  0.03615800  1
  H  H64  1  0.95177300  0.16610400  0.52417000  1
  H  H65  1  0.04822700  0.66610400  0.97583000  1
  H  H66  1  0.04822700  0.83389600  0.47583000  1
  H  H67  1  0.95177300  0.33389600  0.02417000  1
  H  H68  1  0.95251400  0.09243900  0.60583200  1
  H  H69  1  0.04748600  0.59243900  0.89416800  1
  H  H70  1  0.04748600  0.90756100  0.39416800  1
  H  H71  1  0.95251400  0.40756100  0.10583200  1
  S  S0  1  0.81859000  0.62739200  0.75402000  1
  S  S1  1  0.18141000  0.12739200  0.74598000  1
  S  S2  1  0.18141000  0.37260800  0.24598000  1
  S  S3  1  0.81859000  0.87260800  0.25402000  1
  S  S4  1  0.85637100  0.65882500  0.54039600  1
  S  S5  1  0.14362900  0.15882500  0.95960400  1
  S  S6  1  0.14362900  0.34117500  0.45960400  1
  S  S7  1  0.85637100  0.84117500  0.04039600  1
  S  S8  1  0.54374400  0.85637700  0.64353400  1
  S  S9  1  0.45625600  0.35637700  0.85646600  1
  S  S10  1  0.45625600  0.14362300  0.35646600  1
  S  S11  1  0.54374400  0.64362300  0.14353400  1
  N  N0  1  0.93006100  0.37250500  0.64488100  1
  N  N1  1  0.06993900  0.87250500  0.85511900  1
  N  N2  1  0.06993900  0.62749500  0.35511900  1
  N  N3  1  0.93006100  0.12749500  0.14488100  1
  N  N4  1  0.67242200  0.36150900  0.49620800  1
  N  N5  1  0.32757800  0.86150900  0.00379200  1
  N  N6  1  0.32757800  0.63849100  0.50379200  1
  N  N7  1  0.67242200  0.13849100  0.99620800  1
  N  N8  1  0.50800500  0.40974800  0.65816400  1
  N  N9  1  0.49199500  0.90974800  0.84183600  1
  N  N10  1  0.49199500  0.59025200  0.34183600  1
  N  N11  1  0.50800500  0.09025200  0.15816400  1
  N  N12  1  0.69395600  0.16326500  0.72054900  1
  N  N13  1  0.30604400  0.66326500  0.77945100  1
  N  N14  1  0.30604400  0.83673500  0.27945100  1
  N  N15  1  0.69395600  0.33673500  0.22054900  1
  N  N16  1  0.43939000  0.15292100  0.57519600  1
  N  N17  1  0.56061000  0.65292100  0.92480400  1
  N  N18  1  0.56061000  0.84707900  0.42480400  1
  N  N19  1  0.43939000  0.34707900  0.07519600  1
  N  N20  1  0.87172200  0.12555700  0.56217000  1
  N  N21  1  0.12827800  0.62555700  0.93783000  1
  N  N22  1  0.12827800  0.87444300  0.43783000  1
  N  N23  1  0.87172200  0.37444300  0.06217000  1
loop_
_geom_bond_atom_site_label_1
_geom_bond_atom_site_label_2
_geom_bond_distance
_geom_bond_site_symmetry_2
Mn0 N12 2.260308 1_555
Mn0 N4 2.265256 1_555
Mn0 N16 2.267382 1_555
Mn0 N8 2.271727 1_555
Mn0 N0 2.279584 1_555
Mn0 N20 2.299138 1_555
Mn1 N13 2.260308 1_555
Mn1 N5 2.265256 1_556
Mn1 N17 2.267382 1_555
Mn1 N9 2.271727 1_555
Mn1 N1 2.279584 1_555
Mn1 N21 2.299138 1_555
Mn2 N14 2.260308 1_555
Mn2 N6 2.265256 1_555
Mn2 N18 2.267382 1_555
Mn2 N10 2.271727 1_555
Mn2 N2 2.279584 1_555
Mn2 N22 2.299138 1_555
Mn3 N15 2.260308 1_555
Mn3 N7 2.265256 1_554
Mn3 N19 2.267382 1_555
Mn3 N11 2.271727 1_555
Mn3 N3 2.279584 1_555
Mn3 N23 2.299138 1_555
H0 N0 1.025350 1_555
H1 N1 1.025350 1_555
H2 N2 1.025350 1_555
H3 N3 1.025350 1_555
H4 N0 1.030382 1_555
H5 N1 1.030382 1_555
H6 N2 1.030382 1_555
H7 N3 1.030382 1_555
H8 N0 1.026600 1_455
H9 N1 1.026600 1_655
H10 N2 1.026600 1_655
H11 N3 1.026600 1_455
H12 N4 1.025425 1_555
H13 N5 1.025425 1_555
H14 N6 1.025425 1_555
H15 N7 1.025425 1_555
H16 N4 1.025915 1_555
H17 N5 1.025915 1_556
H18 N6 1.025915 1_555
H19 N7 1.025915 1_554
H20 N4 1.029701 1_555
H21 N5 1.029701 1_555
H22 N6 1.029701 1_555
H23 N7 1.029701 1_555
H24 N8 1.028890 1_555
H25 N9 1.028890 1_555
H26 N10 1.028890 1_555
H27 N11 1.028890 1_555
H28 N8 1.030092 1_555
H29 N9 1.030092 1_555
H30 N10 1.030092 1_555
H31 N11 1.030092 1_555
H32 N8 1.023016 1_555
H33 N9 1.023016 1_555
H34 N10 1.023016 1_555
H35 N11 1.023016 1_555
H36 N12 1.027134 1_555
H37 N13 1.027134 1_555
H38 N14 1.027134 1_555
H39 N15 1.027134 1_555
H40 N12 1.027603 1_555
H41 N13 1.027603 1_555
H42 N14 1.027603 1_555
H43 N15 1.027603 1_555
H44 N12 1.028851 1_555
H45 N13 1.028851 1_555
H46 N14 1.028851 1_555
H47 N15 1.028851 1_555
H48 N16 1.028062 1_555
H49 N17 1.028062 1_555
H50 N18 1.028062 1_555
H51 N19 1.028062 1_555
H52 N16 1.027178 1_555
H53 N17 1.027178 1_555
H54 N18 1.027178 1_555
H55 N19 1.027178 1_555
H56 N16 1.027058 1_555
H57 N17 1.027058 1_555
H58 N18 1.027058 1_555
H59 N19 1.027058 1_555
H60 N20 1.021648 1_555
H61 N21 1.021648 1_555
H62 N22 1.021648 1_555
H63 N23 1.021648 1_555
H64 N20 1.030146 1_555
H65 N21 1.030146 1_555
H66 N22 1.030146 1_555
H67 N23 1.030146 1_555
H68 N20 1.024271 1_555
H69 N21 1.024271 1_555
H70 N22 1.024271 1_555
H71 N23 1.024271 1_555
S0 Te0 2.379392 1_555
S1 Te1 2.379392 1_555
S2 Te2 2.379392 1_555
S3 Te3 2.379392 1_555
S4 Te0 2.366338 1_555
S5 Te1 2.366338 1_555
S6 Te2 2.366338 1_555
S7 Te3 2.366338 1_555
S8 Te0 2.364728 1_555
S9 Te1 2.364728 1_555
S10 Te2 2.364728 1_555
S11 Te3 2.364728 1_555
