# generated using pymatgen
data_Ni(IO5)2
_symmetry_space_group_name_H-M   'P 1'
_cell_length_a   6.26976000
_cell_length_b   7.49124044
_cell_length_c   8.19259593
_cell_angle_alpha   96.42030101
_cell_angle_beta   90.00000000
_cell_angle_gamma   90.00000000
_symmetry_Int_Tables_number   1
_chemical_formula_structural   Ni(IO5)2
_chemical_formula_sum   'Ni2 I4 O20'
_cell_volume   382.37885925
_cell_formula_units_Z   2
loop_
 _symmetry_equiv_pos_site_id
 _symmetry_equiv_pos_as_xyz
  1  'x, y, z'
loop_
 _atom_site_type_symbol
 _atom_site_label
 _atom_site_symmetry_multiplicity
 _atom_site_fract_x
 _atom_site_fract_y
 _atom_site_fract_z
 _atom_site_occupancy
  Ni  Ni0  1  0.00000000  0.00000000  0.00000000  1
  Ni  Ni1  1  0.50000000  0.00000000  0.50000000  1
  I  I0  1  0.30265100  0.65777000  0.95801700  1
  I  I1  1  0.69734900  0.34223000  0.04198300  1
  I  I2  1  0.80265100  0.34223000  0.54198300  1
  I  I3  1  0.19734900  0.65777000  0.45801700  1
  O  O0  1  0.59157200  0.89590400  0.68026300  1
  O  O1  1  0.40842800  0.10409600  0.31973700  1
  O  O2  1  0.09157200  0.10409600  0.81973700  1
  O  O3  1  0.90842800  0.89590400  0.18026300  1
  O  O4  1  0.87577700  0.35238300  0.76126800  1
  O  O5  1  0.12422300  0.64761700  0.23873200  1
  O  O6  1  0.37577700  0.64761700  0.73873200  1
  O  O7  1  0.62422300  0.35238300  0.26126800  1
  O  O8  1  0.92521200  0.76572200  0.93499700  1
  O  O9  1  0.07478800  0.23427800  0.06500300  1
  O  O10  1  0.42521200  0.23427800  0.56500300  1
  O  O11  1  0.57478800  0.76572200  0.43499700  1
  O  O12  1  0.21917300  0.91254000  0.50595400  1
  O  O13  1  0.78082700  0.08746000  0.49404600  1
  O  O14  1  0.71917300  0.08746000  0.99404600  1
  O  O15  1  0.28082700  0.91254000  0.00595400  1
  O  O16  1  0.93112100  0.66939000  0.55227600  1
  O  O17  1  0.06887900  0.33061000  0.44772400  1
  O  O18  1  0.43112100  0.33061000  0.94772400  1
  O  O19  1  0.56887900  0.66939000  0.05227600  1
loop_
_geom_bond_atom_site_label_1
_geom_bond_atom_site_label_2
_geom_bond_distance
_geom_bond_site_symmetry_2
Ni0 O9 1.837006 1_555
Ni0 O8 1.837006 1_444
Ni0 O3 1.837468 1_445
Ni0 O2 1.837468 1_554
Ni0 O15 1.881202 1_545
Ni0 O14 1.881202 1_454
Ni1 O10 1.837006 1_555
Ni1 O11 1.837006 1_545
Ni1 O1 1.837468 1_555
Ni1 O0 1.837468 1_545
Ni1 O13 1.881202 1_555
Ni1 O12 1.881202 1_545
I0 O19 1.837133 1_556
I0 O6 1.847402 1_555
I0 O15 1.909939 1_556
I0 O8 2.514708 1_455
I0 O5 2.566204 1_556
I0 O18 2.572211 1_555
I1 O18 1.837133 1_554
I1 O7 1.847402 1_555
I1 O14 1.909939 1_554
I1 O9 2.514708 1_655
I1 O4 2.566204 1_554
I1 O19 2.572211 1_555
I2 O17 1.837133 1_655
I2 O4 1.847402 1_555
I2 O13 1.909939 1_555
I2 O10 2.514708 1_555
I2 O7 2.566204 1_555
I2 O16 2.572211 1_555
I3 O16 1.837133 1_455
I3 O5 1.847402 1_555
I3 O12 1.909939 1_555
I3 O11 2.514708 1_555
I3 O6 2.566204 1_555
I3 O17 2.572211 1_555
