# generated using pymatgen
data_CrFeO3
_symmetry_space_group_name_H-M   'P 1'
_cell_length_a   10.02126080
_cell_length_b   10.93656827
_cell_length_c   9.34707863
_cell_angle_alpha   91.27039424
_cell_angle_beta   93.00455529
_cell_angle_gamma   89.38567011
_symmetry_Int_Tables_number   1
_chemical_formula_structural   CrFeO3
_chemical_formula_sum   'Cr16 Fe16 O48'
_cell_volume   1022.71647181
_cell_formula_units_Z   16
loop_
 _symmetry_equiv_pos_site_id
 _symmetry_equiv_pos_as_xyz
  1  'x, y, z'
loop_
 _atom_site_type_symbol
 _atom_site_label
 _atom_site_symmetry_multiplicity
 _atom_site_fract_x
 _atom_site_fract_y
 _atom_site_fract_z
 _atom_site_occupancy
  Cr  Cr0  1  0.92235088  0.10747278  0.49214215  1
  Cr  Cr1  1  0.45226508  0.27074289  0.96477707  1
  Cr  Cr2  1  0.74972130  0.27931520  0.96344334  1
  Cr  Cr3  1  0.62928450  0.28829817  0.31355411  1
  Cr  Cr4  1  0.86974258  0.96871498  0.74089441  1
  Cr  Cr5  1  0.23736012  0.55398440  0.54419764  1
  Cr  Cr6  1  0.94256964  0.71983017  0.64720972  1
  Cr  Cr7  1  0.22613909  0.27168057  0.58946303  1
  Cr  Cr8  1  0.16919410  0.10028789  0.35358989  1
  Cr  Cr9  1  0.75717968  0.71232662  0.28449382  1
  Cr  Cr10  1  0.44164620  0.43504680  0.72265339  1
  Cr  Cr11  1  0.94276418  0.43438042  0.49343238  1
  Cr  Cr12  1  0.66486865  0.57295880  0.59823771  1
  Cr  Cr13  1  0.98393557  0.07066190  0.06284992  1
  Cr  Cr14  1  0.44343475  0.96821025  0.27528918  1
  Cr  Cr15  1  0.40824609  0.02617586  0.75070039  1
  Fe  Fe0  1  0.60025135  0.48878636  0.12270056  1
  Fe  Fe1  1  0.15165536  0.77128400  0.89064555  1
  Fe  Fe2  1  0.16375864  0.88553819  0.60376878  1
  Fe  Fe3  1  0.80570612  0.80206031  0.95373264  1
  Fe  Fe4  1  0.71510535  0.26219637  0.65838703  1
  Fe  Fe5  1  0.62041142  0.02490434  0.98653626  1
  Fe  Fe6  1  0.31854960  0.38873722  0.30514630  1
  Fe  Fe7  1  0.49656029  0.73832682  0.85866908  1
  Fe  Fe8  1  0.62320162  0.84654684  0.56776117  1
  Fe  Fe9  1  0.01412773  0.60911100  0.12373827  1
  Fe  Fe10  1  0.12896778  0.27983952  0.00483142  1
  Fe  Fe11  1  0.23087113  0.01479721  0.98968746  1
  Fe  Fe12  1  0.91026829  0.39157639  0.18610910  1
  Fe  Fe13  1  0.09783400  0.84711507  0.23637460  1
  Fe  Fe14  1  0.83306768  0.52645411  0.85300219  1
  Fe  Fe15  1  0.29112947  0.51123076  0.99866812  1
  O  O0  1  0.26099412  0.55564554  0.35789733  1
  O  O1  1  0.11147399  0.43588708  0.59618239  1
  O  O2  1  0.32490497  0.32679063  0.79752731  1
  O  O3  1  0.81953942  0.11684055  0.68104408  1
  O  O4  1  0.77730698  0.82266567  0.71837415  1
  O  O5  1  0.63826172  0.62375169  0.79085413  1
  O  O6  1  0.61143145  0.84071776  0.97031580  1
  O  O7  1  0.32386076  0.68403920  0.94093543  1
  O  O8  1  0.48420010  0.87499834  0.41015963  1
  O  O9  1  0.58191127  0.00453101  0.19855905  1
  O  O10  1  0.09362131  0.46459798  0.04606324  1
  O  O11  1  0.92758886  0.74800757  0.22472089  1
  O  O12  1  0.60793179  0.20733344  0.83707874  1
  O  O13  1  0.26186319  0.92838745  0.79046193  1
  O  O14  1  0.10558560  0.11711900  0.55883097  1
  O  O15  1  0.88872265  0.28382045  0.52951909  1
  O  O16  1  0.60133672  0.41105786  0.63561886  1
  O  O17  1  0.82517180  0.34859087  0.80121623  1
  O  O18  1  0.08294426  0.11816795  0.89762028  1
  O  O19  1  0.76860140  0.39768789  0.32354291  1
  O  O20  1  0.17706968  0.91672462  0.41020740  1
  O  O21  1  0.40731855  0.08904606  0.94121079  1
  O  O22  1  0.37698612  0.58689327  0.68372376  1
  O  O23  1  0.68796217  0.69721955  0.46117172  1
  O  O24  1  0.91675623  0.24410551  0.07659517  1
  O  O25  1  0.02459154  0.86923504  0.74135066  1
  O  O26  1  0.19105685  0.27791716  0.37823412  1
  O  O27  1  0.13916642  0.70129686  0.59693054  1
  O  O28  1  0.49211594  0.87780565  0.71215760  1
  O  O29  1  0.63812790  0.20005305  0.46229609  1
  O  O30  1  0.99495679  0.49811469  0.32497935  1
  O  O31  1  0.31377852  0.33816479  0.09677381  1
  O  O32  1  0.85919474  0.54993783  0.61157839  1
  O  O33  1  0.35365449  0.39685439  0.53846924  1
  O  O34  1  0.61127425  0.24729557  0.11400355  1
  O  O35  1  0.16590890  0.11743743  0.14508381  1
  O  O36  1  0.77419482  0.44743458  0.04538842  1
  O  O37  1  0.36852870  0.13364380  0.62644518  1
  O  O38  1  0.49278227  0.45114128  0.94810305  1
  O  O39  1  0.97252760  0.09394769  0.31036866  1
  O  O40  1  0.07905719  0.90163932  0.03889677  1
  O  O41  1  0.82480577  0.99939699  0.94398785  1
  O  O42  1  0.33179560  0.90672191  0.15363244  1
  O  O43  1  0.94654235  0.67102010  0.92727351  1
  O  O44  1  0.87934912  0.95093363  0.52494952  1
  O  O45  1  0.37459639  0.09674806  0.33760858  1
  O  O46  1  0.63829637  0.65198356  0.15239093  1
  O  O47  1  0.51034817  0.42189748  0.28768894  1
loop_
_geom_bond_atom_site_label_1
_geom_bond_atom_site_label_2
_geom_bond_distance
_geom_bond_site_symmetry_2
Cr0 O39 1.799533 1_555
Cr0 O44 1.806554 1_545
Cr0 O14 1.911210 1_655
Cr0 O15 1.980858 1_555
Cr0 O3 2.090470 1_555
Cr1 O31 2.027106 1_556
Cr1 O38 2.029554 1_555
Cr1 O21 2.046829 1_555
Cr1 O2 2.065222 1_555
Cr1 O34 2.079559 1_556
Cr1 O12 2.115286 1_555
Cr2 O17 1.904849 1_555
Cr2 O12 1.959753 1_555
Cr2 O24 1.971667 1_556
Cr2 O36 1.988715 1_556
Cr2 O34 2.065185 1_556
Cr3 O29 1.707910 1_555
Cr3 O19 1.845629 1_555
Cr3 O47 1.887335 1_555
Cr3 O34 1.908414 1_555
Cr4 O3 1.784271 1_565
Cr4 O4 1.857433 1_555
Cr4 O25 1.885479 1_655
Cr4 O41 1.994286 1_555
Cr4 O44 2.030715 1_555
Cr5 O0 1.770170 1_555
Cr5 O22 1.893912 1_555
Cr5 O1 1.903362 1_555
Cr5 O27 1.946410 1_555
Cr5 O33 2.067291 1_555
Cr6 O25 2.002255 1_655
Cr6 O27 2.056139 1_655
Cr6 O32 2.058642 1_555
Cr6 O4 2.119555 1_555
Cr6 O43 2.681397 1_555
Cr7 O33 1.965835 1_555
Cr7 O26 1.989747 1_555
Cr7 O37 2.088032 1_555
Cr7 O14 2.094018 1_555
Cr7 O1 2.123149 1_555
Cr7 O2 2.210009 1_555
Cr8 O35 1.960589 1_555
Cr8 O26 1.964425 1_555
Cr8 O39 1.992605 1_455
Cr8 O14 2.056819 1_555
Cr8 O45 2.071485 1_555
Cr8 O20 2.087077 1_545
Cr9 O46 1.790546 1_555
Cr9 O23 1.835832 1_555
Cr9 O11 1.872082 1_555
Cr10 O22 1.813598 1_555
Cr10 O16 1.846514 1_555
Cr10 O2 1.847284 1_555
Cr10 O33 1.932030 1_555
Cr10 O38 2.146291 1_555
Cr11 O15 1.783617 1_555
Cr11 O30 1.838866 1_555
Cr11 O32 1.878948 1_555
Cr11 O1 1.900199 1_655
Cr11 O19 2.329181 1_555
Cr12 O5 1.903659 1_555
Cr12 O23 1.912281 1_555
Cr12 O16 1.933269 1_555
Cr12 O32 1.958749 1_555
Cr13 O18 1.961343 1_654
Cr13 O35 2.008399 1_655
Cr13 O24 2.009666 1_555
Cr13 O41 2.046299 1_544
Cr13 O40 2.083766 1_645
Cr13 O39 2.330567 1_555
Cr14 O9 1.651270 1_565
Cr14 O45 1.666250 1_565
Cr14 O8 1.670148 1_555
Cr14 O42 1.686947 1_555
Cr15 O37 1.700224 1_555
Cr15 O28 1.856287 1_545
Cr15 O13 1.882081 1_545
Cr15 O21 1.895023 1_555
Fe0 O46 1.841055 1_555
Fe0 O38 1.946328 1_554
Fe0 O36 1.966191 1_555
Fe0 O47 1.983660 1_555
Fe0 O19 2.660442 1_555
Fe1 O7 2.002252 1_555
Fe1 O40 2.116080 1_556
Fe1 O25 2.137070 1_555
Fe1 O13 2.295475 1_555
Fe1 O43 2.383991 1_455
Fe2 O20 1.860400 1_555
Fe2 O25 1.958076 1_555
Fe2 O13 2.006259 1_555
Fe2 O27 2.031798 1_555
Fe2 O14 2.630720 1_565
Fe3 O6 2.001044 1_555
Fe3 O43 2.021004 1_555
Fe3 O41 2.173040 1_555
Fe3 O4 2.219544 1_555
Fe4 O3 1.903492 1_555
Fe4 O17 1.924512 1_555
Fe4 O16 1.986391 1_555
Fe4 O29 2.055287 1_555
Fe4 O12 2.132967 1_555
Fe4 O15 2.185205 1_555
Fe5 O6 2.019327 1_545
Fe5 O9 2.056110 1_556
Fe5 O41 2.121250 1_545
Fe5 O21 2.262295 1_555
Fe5 O12 2.459220 1_555
Fe5 O34 2.687318 1_556
Fe6 O26 1.931167 1_555
Fe6 O0 1.968557 1_555
Fe6 O47 1.975582 1_555
Fe6 O31 2.011136 1_555
Fe6 O33 2.190792 1_555
Fe7 O6 1.875647 1_555
Fe7 O5 2.002351 1_555
Fe7 O7 2.029971 1_555
Fe7 O28 2.071008 1_555
Fe7 O22 2.563160 1_555
Fe8 O28 1.954471 1_555
Fe8 O8 2.000793 1_555
Fe8 O23 2.013406 1_555
Fe8 O4 2.052995 1_555
Fe9 O10 1.908507 1_555
Fe9 O11 1.986082 1_455
Fe9 O43 2.050445 1_454
Fe9 O30 2.278785 1_455
Fe10 O18 2.057597 1_554
Fe10 O10 2.078786 1_555
Fe10 O31 2.099919 1_555
Fe10 O35 2.246890 1_555
Fe10 O24 2.303087 1_455
Fe11 O35 1.950590 1_556
Fe11 O18 2.022291 1_555
Fe11 O21 2.030374 1_555
Fe11 O40 2.048572 1_546
Fe11 O13 2.105597 1_545
Fe11 O42 2.158807 1_546
Fe12 O24 1.893353 1_555
Fe12 O30 1.897740 1_555
Fe12 O36 1.947435 1_555
Fe12 O19 1.963546 1_555
Fe12 O10 2.461180 1_655
Fe13 O20 1.916506 1_555
Fe13 O40 1.951437 1_555
Fe13 O11 2.027883 1_455
Fe13 O42 2.601045 1_555
Fe14 O17 1.995483 1_555
Fe14 O43 2.044979 1_555
Fe14 O36 2.125955 1_556
Fe14 O5 2.268222 1_555
Fe14 O32 2.305617 1_555
Fe15 O7 2.011891 1_555
Fe15 O10 2.120729 1_556
Fe15 O31 2.126225 1_556
Fe15 O38 2.190166 1_555
