# generated using pymatgen
data_Pb2OF2
_symmetry_space_group_name_H-M   'P 1'
_cell_length_a   8.33921200
_cell_length_b   8.33921200
_cell_length_c   5.88075100
_cell_angle_alpha   90.00000000
_cell_angle_beta   90.00000000
_cell_angle_gamma   90.00000000
_symmetry_Int_Tables_number   1
_chemical_formula_structural   Pb2OF2
_chemical_formula_sum   'Pb8 O4 F8'
_cell_volume   408.96187226
_cell_formula_units_Z   4
loop_
 _symmetry_equiv_pos_site_id
 _symmetry_equiv_pos_as_xyz
  1  'x, y, z'
loop_
 _atom_site_type_symbol
 _atom_site_label
 _atom_site_symmetry_multiplicity
 _atom_site_fract_x
 _atom_site_fract_y
 _atom_site_fract_z
 _atom_site_occupancy
  Pb  Pb0  1  0.00000000  0.25796000  0.79459600  1
  Pb  Pb1  1  0.25796000  0.00000000  0.20540400  1
  Pb  Pb2  1  0.00000000  0.74204000  0.79459600  1
  Pb  Pb3  1  0.74204000  0.00000000  0.20540400  1
  Pb  Pb4  1  0.50000000  0.23761900  0.68781900  1
  Pb  Pb5  1  0.23761900  0.50000000  0.31218100  1
  Pb  Pb6  1  0.50000000  0.76238100  0.68781900  1
  Pb  Pb7  1  0.76238100  0.50000000  0.31218100  1
  O  O0  1  0.00000000  0.00000000  0.00000000  1
  O  O1  1  0.50000000  0.50000000  0.50000000  1
  O  O2  1  0.50000000  0.00000000  0.47495700  1
  O  O3  1  0.00000000  0.50000000  0.52504300  1
  F  F0  1  0.72424100  0.27575900  0.00000000  1
  F  F1  1  0.27575900  0.27575900  0.00000000  1
  F  F2  1  0.27575900  0.72424100  0.00000000  1
  F  F3  1  0.72424100  0.72424100  0.00000000  1
  F  F4  1  0.79431700  0.20568300  0.50000000  1
  F  F5  1  0.20568300  0.20568300  0.50000000  1
  F  F6  1  0.20568300  0.79431700  0.50000000  1
  F  F7  1  0.79431700  0.79431700  0.50000000  1
loop_
_geom_bond_atom_site_label_1
_geom_bond_atom_site_label_2
_geom_bond_distance
_geom_bond_site_symmetry_2
O0 Pb3 2.467120 1_455
O0 Pb2 2.467120 1_544
O0 Pb1 2.467120 1_555
O0 Pb0 2.467120 1_554
O1 Pb7 2.451025 1_555
O1 Pb6 2.451025 1_555
O1 Pb5 2.451025 1_555
O1 Pb4 2.451025 1_555
O2 Pb6 2.343829 1_545
O2 Pb4 2.343829 1_555
O2 Pb1 2.566478 1_555
O2 Pb3 2.566478 1_555
O3 Pb5 2.343829 1_555
O3 Pb7 2.343829 1_455
O3 Pb0 2.566478 1_555
O3 Pb2 2.566478 1_555
F0 Pb3 2.601796 1_555
F0 Pb0 2.601796 1_654
F0 Pb7 2.639775 1_555
F0 Pb4 2.639775 1_554
F1 Pb1 2.601796 1_555
F1 Pb0 2.601796 1_554
F1 Pb5 2.639775 1_555
F1 Pb4 2.639775 1_554
F2 Pb1 2.601796 1_565
F2 Pb2 2.601796 1_554
F2 Pb5 2.639775 1_555
F2 Pb6 2.639775 1_554
F3 Pb3 2.601796 1_565
F3 Pb2 2.601796 1_654
F3 Pb7 2.639775 1_555
F3 Pb6 2.639775 1_554
F4 Pb0 2.476580 1_655
F4 Pb3 2.476580 1_555
F4 Pb7 2.704593 1_555
F4 Pb4 2.704593 1_555
F5 Pb0 2.476580 1_555
F5 Pb1 2.476580 1_555
F5 Pb4 2.704593 1_555
F5 Pb5 2.704593 1_555
F6 Pb1 2.476580 1_565
F6 Pb2 2.476580 1_555
F6 Pb6 2.704593 1_555
F6 Pb5 2.704593 1_555
F7 Pb3 2.476580 1_565
F7 Pb2 2.476580 1_655
F7 Pb7 2.704593 1_555
F7 Pb6 2.704593 1_555
