# generated using pymatgen
data_CrFe3As2
_symmetry_space_group_name_H-M   'P 1'
_cell_length_a   3.66675900
_cell_length_b   3.66675900
_cell_length_c   6.05501200
_cell_angle_alpha   90.00000000
_cell_angle_beta   90.00000000
_cell_angle_gamma   90.00000000
_symmetry_Int_Tables_number   1
_chemical_formula_structural   CrFe3As2
_chemical_formula_sum   'Cr1 Fe3 As2'
_cell_volume   81.41037241
_cell_formula_units_Z   1
loop_
 _symmetry_equiv_pos_site_id
 _symmetry_equiv_pos_as_xyz
  1  'x, y, z'
loop_
 _atom_site_type_symbol
 _atom_site_label
 _atom_site_symmetry_multiplicity
 _atom_site_fract_x
 _atom_site_fract_y
 _atom_site_fract_z
 _atom_site_occupancy
  Cr  Cr0  1  0.50000000  0.50000000  0.00000000  1
  Fe  Fe0  1  0.00000000  0.00000000  0.00000000  1
  Fe  Fe1  1  0.50000000  0.00000000  0.32411100  1
  Fe  Fe2  1  0.00000000  0.50000000  0.67588900  1
  As  As0  1  0.50000000  0.00000000  0.72698400  1
  As  As1  1  0.00000000  0.50000000  0.27301600  1
loop_
_geom_bond_atom_site_label_1
_geom_bond_atom_site_label_2
_geom_bond_distance
_geom_bond_site_symmetry_2
Cr0 Fe0 2.592790 1_655
Cr0 Fe0 2.592790 1_555
Cr0 Fe0 2.592790 1_565
Cr0 Fe0 2.592790 1_665
Cr0 Fe1 2.685642 1_555
Cr0 Fe1 2.685642 1_565
Cr0 Fe2 2.685642 1_554
Cr0 Fe2 2.685642 1_654
Fe0 Fe1 2.685642 1_455
Fe0 Fe1 2.685642 1_555
Fe0 Fe2 2.685642 1_554
Fe0 Fe2 2.685642 1_544
As0 Fe1 2.439401 1_555
As0 Cr0 2.468617 1_546
As0 Fe0 2.468617 1_556
As0 Fe0 2.468617 1_656
As0 Cr0 2.468617 1_556
As0 Fe2 2.611183 1_655
As0 Fe2 2.611183 1_645
As0 Fe2 2.611183 1_545
As0 Fe2 2.611183 1_555
As1 Fe2 2.439401 1_555
As1 Fe0 2.468617 1_555
As1 Cr0 2.468617 1_455
As1 Fe0 2.468617 1_565
As1 Cr0 2.468617 1_555
As1 Fe1 2.611183 1_465
As1 Fe1 2.611183 1_455
As1 Fe1 2.611183 1_555
As1 Fe1 2.611183 1_565
