# generated using pymatgen
data_Te4MoW3(SeS)2
_symmetry_space_group_name_H-M   'P 1'
_cell_length_a   3.39653560
_cell_length_b   3.39653560
_cell_length_c   40.59874200
_cell_angle_alpha   90.00000000
_cell_angle_beta   90.00000000
_cell_angle_gamma   119.99999223
_symmetry_Int_Tables_number   1
_chemical_formula_structural   Te4MoW3(SeS)2
_chemical_formula_sum   'Te4 Mo1 W3 Se2 S2'
_cell_volume   405.61647305
_cell_formula_units_Z   1
loop_
 _symmetry_equiv_pos_site_id
 _symmetry_equiv_pos_as_xyz
  1  'x, y, z'
loop_
 _atom_site_type_symbol
 _atom_site_label
 _atom_site_symmetry_multiplicity
 _atom_site_fract_x
 _atom_site_fract_y
 _atom_site_fract_z
 _atom_site_occupancy
  Te  Te0  1  0.33333300  0.66666700  0.32658800  1
  Te  Te1  1  0.66666700  0.33333300  0.42421700  1
  Te  Te2  1  0.66666700  0.33333300  0.51705800  1
  Te  Te3  1  0.33333300  0.66666700  0.23431100  1
  Mo  Mo0  1  0.66666700  0.33333300  0.28045500  1
  W  W0  1  0.33333300  0.66666700  0.09378400  1
  W  W1  1  0.33333300  0.66666700  0.47065300  1
  W  W2  1  0.66666700  0.33333300  0.65804700  1
  Se  Se0  1  0.33333300  0.66666700  0.69885500  1
  Se  Se1  1  0.33333300  0.66666700  0.61724900  1
  S  S0  1  0.66666700  0.33333300  0.05668300  1
  S  S1  1  0.66666700  0.33333300  0.13084900  1
loop_
_geom_bond_atom_site_label_1
_geom_bond_atom_site_label_2
_geom_bond_distance
_geom_bond_site_symmetry_2
Te1 W1 2.720224 1_545
Te1 W1 2.720224 1_655
Te1 W1 2.720228 1_555
Te2 W1 2.719352 1_545
Te2 W1 2.719352 1_655
Te2 W1 2.719356 1_555
Mo0 Te0 2.711713 1_545
Mo0 Te0 2.711713 1_655
Mo0 Te0 2.711717 1_555
Mo0 Te3 2.712022 1_655
Mo0 Te3 2.712022 1_545
Mo0 Te3 2.712026 1_555
Se0 W2 2.567160 1_455
Se0 W2 2.567160 1_565
Se0 W2 2.567164 1_555
Se1 W2 2.566898 1_455
Se1 W2 2.566898 1_565
Se1 W2 2.566902 1_555
S0 W0 2.472707 1_545
S0 W0 2.472707 1_655
S0 W0 2.472711 1_555
S1 W0 2.471817 1_545
S1 W0 2.471817 1_655
S1 W0 2.471821 1_555
