# generated using pymatgen
data_Er25Ni49P33
_symmetry_space_group_name_H-M   'P 1'
_cell_length_a   3.81141185
_cell_length_b   21.88118873
_cell_length_c   21.88118873
_cell_angle_alpha   119.99999935
_cell_angle_beta   90.00000000
_cell_angle_gamma   90.00000000
_symmetry_Int_Tables_number   1
_chemical_formula_structural   Er25Ni49P33
_chemical_formula_sum   'Er25 Ni49 P33'
_cell_volume   1580.36840401
_cell_formula_units_Z   1
loop_
 _symmetry_equiv_pos_site_id
 _symmetry_equiv_pos_as_xyz
  1  'x, y, z'
loop_
 _atom_site_type_symbol
 _atom_site_label
 _atom_site_symmetry_multiplicity
 _atom_site_fract_x
 _atom_site_fract_y
 _atom_site_fract_z
 _atom_site_occupancy
  Er  Er0  1  0.50000000  0.39236818  0.78473635  1
  Er  Er1  1  0.50000000  0.39236818  0.60763182  1
  Er  Er2  1  0.50000000  0.21526365  0.60763182  1
  Er  Er3  1  -0.00000000  0.00129341  0.17869492  1
  Er  Er4  1  0.00000000  0.17740152  0.99870659  1
  Er  Er5  1  -0.00000000  0.17740152  0.17869492  1
  Er  Er6  1  -0.00000000  0.82130508  0.82259848  1
  Er  Er7  1  -0.00000000  0.82130508  0.99870659  1
  Er  Er8  1  0.00000000  0.00129341  0.82259848  1
  Er  Er9  1  0.50000000  0.57371628  0.14743255  1
  Er  Er10  1  0.50000000  0.57371628  0.42628372  1
  Er  Er11  1  0.50000000  0.85256745  0.42628372  1
  Er  Er12  1  0.50000000  0.21471314  0.42942627  1
  Er  Er13  1  0.50000000  0.21471314  0.78528686  1
  Er  Er14  1  0.50000000  0.57057373  0.78528686  1
  Er  Er15  1  0.50000000  0.57054080  0.60819050  1
  Er  Er16  1  0.50000000  0.03764970  0.42945920  1
  Er  Er17  1  0.50000000  0.03764970  0.60819050  1
  Er  Er18  1  0.50000000  0.39180950  0.96235030  1
  Er  Er19  1  0.50000000  0.39180950  0.42945920  1
  Er  Er20  1  0.50000000  0.57054080  0.96235030  1
  Er  Er21  1  0.00000000  -0.00000000  -0.00000000  1
  Er  Er22  1  0.00000000  0.82388566  0.64777131  1
  Er  Er23  1  -0.00000000  0.82388566  0.17611434  1
  Er  Er24  1  0.00000000  0.35222869  0.17611434  1
  Ni  Ni0  1  0.00000000  0.15234891  0.30469781  1
  Ni  Ni1  1  -0.00000000  0.15234891  0.84765109  1
  Ni  Ni2  1  0.00000000  0.69530219  0.84765109  1
  Ni  Ni3  1  0.50000000  0.88179358  0.76358715  1
  Ni  Ni4  1  0.50000000  0.88179358  0.11820642  1
  Ni  Ni5  1  0.50000000  0.23641285  0.11820642  1
  Ni  Ni6  1  0.00000000  0.51071099  0.02142198  1
  Ni  Ni7  1  -0.00000000  0.51071099  0.48928901  1
  Ni  Ni8  1  0.00000000  0.97857802  0.48928901  1
  Ni  Ni9  1  0.50000000  0.70967310  0.41934620  1
  Ni  Ni10  1  0.50000000  0.70967310  0.29032690  1
  Ni  Ni11  1  0.50000000  0.58065380  0.29032690  1
  Ni  Ni12  1  0.00000000  0.63013844  0.26027688  1
  Ni  Ni13  1  -0.00000000  0.63013844  0.36986156  1
  Ni  Ni14  1  0.00000000  0.73972312  0.36986156  1
  Ni  Ni15  1  0.00000000  0.33333300  0.66666700  1
  Ni  Ni16  1  0.50000000  0.69594234  0.75973157  1
  Ni  Ni17  1  0.50000000  0.06378923  0.30405766  1
  Ni  Ni18  1  0.50000000  0.06378923  0.75973157  1
  Ni  Ni19  1  0.50000000  0.24026843  0.93621077  1
  Ni  Ni20  1  0.50000000  0.24026843  0.30405766  1
  Ni  Ni21  1  0.50000000  0.69594234  0.93621077  1
  Ni  Ni22  1  0.00000000  0.80635325  0.30532980  1
  Ni  Ni23  1  -0.00000000  0.49897655  0.19364675  1
  Ni  Ni24  1  0.00000000  0.49897655  0.30532980  1
  Ni  Ni25  1  0.00000000  0.69467020  0.50102345  1
  Ni  Ni26  1  0.00000000  0.69467020  0.19364675  1
  Ni  Ni27  1  -0.00000000  0.80635325  0.50102345  1
  Ni  Ni28  1  0.50000000  0.05967249  0.11934498  1
  Ni  Ni29  1  0.50000000  0.05967249  0.94032751  1
  Ni  Ni30  1  0.50000000  0.88065502  0.94032751  1
  Ni  Ni31  1  0.00000000  0.97532347  0.30437391  1
  Ni  Ni32  1  -0.00000000  0.32905043  0.02467653  1
  Ni  Ni33  1  -0.00000000  0.32905043  0.30437391  1
  Ni  Ni34  1  -0.00000000  0.69562609  0.67094957  1
  Ni  Ni35  1  0.00000000  0.69562609  0.02467653  1
  Ni  Ni36  1  -0.00000000  0.97532347  0.67094957  1
  Ni  Ni37  1  0.00000000  0.51080806  0.66738160  1
  Ni  Ni38  1  -0.00000000  0.15657355  0.48919194  1
  Ni  Ni39  1  0.00000000  0.15657355  0.66738160  1
  Ni  Ni40  1  0.00000000  0.33261840  0.84342645  1
  Ni  Ni41  1  0.00000000  0.33261840  0.48919194  1
  Ni  Ni42  1  -0.00000000  0.51080806  0.84342645  1
  Ni  Ni43  1  0.50000000  0.88788384  0.30219092  1
  Ni  Ni44  1  0.50000000  0.41430708  0.11211616  1
  Ni  Ni45  1  0.50000000  0.41430708  0.30219092  1
  Ni  Ni46  1  0.50000000  0.69780908  0.58569292  1
  Ni  Ni47  1  0.50000000  0.69780908  0.11211616  1
  Ni  Ni48  1  0.50000000  0.88788384  0.58569292  1
  P  P0  1  -0.00000000  0.27393423  0.54786847  1
  P  P1  1  0.00000000  0.27393423  0.72606577  1
  P  P2  1  -0.00000000  0.45213153  0.72606577  1
  P  P3  1  0.00000000  0.45147349  0.90294698  1
  P  P4  1  -0.00000000  0.45147349  0.54852651  1
  P  P5  1  0.00000000  0.09705302  0.54852651  1
  P  P6  1  0.50000000  0.94149831  0.88299663  1
  P  P7  1  0.50000000  0.94149831  0.05850169  1
  P  P8  1  0.50000000  0.11700337  0.05850169  1
  P  P9  1  0.50000000  0.11785437  0.23570874  1
  P  P10  1  0.50000000  0.11785437  0.88214563  1
  P  P11  1  0.50000000  0.76429126  0.88214563  1
  P  P12  1  0.00000000  0.62802088  0.72591441  1
  P  P13  1  -0.00000000  0.09789353  0.37197912  1
  P  P14  1  0.00000000  0.09789353  0.72591441  1
  P  P15  1  0.00000000  0.27408559  0.90210647  1
  P  P16  1  0.00000000  0.27408559  0.37197912  1
  P  P17  1  -0.00000000  0.62802088  0.90210647  1
  P  P18  1  0.50000000  0.76658689  0.53317378  1
  P  P19  1  0.50000000  0.76658689  0.23341311  1
  P  P20  1  0.50000000  0.46682622  0.23341311  1
  P  P21  1  0.50000000  0.94165202  0.23455325  1
  P  P22  1  0.50000000  0.29290123  0.05834798  1
  P  P23  1  0.50000000  0.29290123  0.23455325  1
  P  P24  1  0.50000000  0.76544675  0.70709877  1
  P  P25  1  0.50000000  0.76544675  0.05834798  1
  P  P26  1  0.50000000  0.94165202  0.70709877  1
  P  P27  1  0.00000000  0.92311404  0.37421981  1
  P  P28  1  -0.00000000  0.45110577  0.07688596  1
  P  P29  1  0.00000000  0.45110577  0.37421981  1
  P  P30  1  0.00000000  0.62578019  0.54889423  1
  P  P31  1  0.00000000  0.62578019  0.07688596  1
  P  P32  1  -0.00000000  0.92311404  0.54889423  1
loop_
_geom_bond_atom_site_label_1
_geom_bond_atom_site_label_2
_geom_bond_distance
_geom_bond_site_symmetry_2
Er0 Ni15 2.938973 1_655
Er0 Ni15 2.938973 1_555
Er0 P3 2.941011 1_655
Er0 P3 2.941011 1_555
Er0 P2 2.944260 1_555
Er0 P2 2.944260 1_655
Er0 P1 2.944260 1_655
Er0 P1 2.944260 1_555
Er0 Ni40 2.944344 1_655
Er0 Ni40 2.944344 1_555
Er0 Ni42 2.944344 1_655
Er0 Ni42 2.944344 1_555
Er1 Ni15 2.938987 1_655
Er1 Ni15 2.938987 1_555
Er1 P4 2.941011 1_555
Er1 P4 2.941011 1_655
Er1 P0 2.944260 1_555
Er1 P2 2.944260 1_655
Er1 P0 2.944260 1_655
Er1 P2 2.944260 1_555
Er1 Ni37 2.944344 1_555
Er1 Ni37 2.944344 1_655
Er1 Ni41 2.944344 1_655
Er1 Ni41 2.944344 1_555
Er2 Ni15 2.938973 1_655
Er2 Ni15 2.938973 1_555
Er2 P5 2.941011 1_655
Er2 P5 2.941011 1_555
Er2 P0 2.944260 1_555
Er2 P0 2.944260 1_655
Er2 P1 2.944260 1_655
Er2 P1 2.944260 1_555
Er2 Ni39 2.944344 1_555
Er2 Ni39 2.944344 1_655
Er2 Ni38 2.944344 1_555
Er2 Ni38 2.944344 1_655
Er3 P21 2.902370 1_545
Er3 P21 2.902370 1_445
Er3 P9 2.917403 1_555
Er3 P9 2.917403 1_455
Er3 Ni28 2.934085 1_455
Er3 Ni28 2.934085 1_555
Er3 Ni4 2.959705 1_545
Er3 Ni4 2.959705 1_445
Er3 P7 2.969734 1_445
Er3 P7 2.969734 1_545
Er3 Ni17 3.045508 1_555
Er3 Ni17 3.045508 1_455
Er3 Ni0 3.068135 1_555
Er3 Ni31 3.073783 1_545
Er4 P22 2.902370 1_456
Er4 P22 2.902370 1_556
Er4 P10 2.917403 1_555
Er4 P10 2.917403 1_455
Er4 Ni29 2.934085 1_555
Er4 Ni29 2.934085 1_455
Er4 Ni5 2.959705 1_556
Er4 Ni5 2.959705 1_456
Er4 P8 2.969734 1_556
Er4 P8 2.969734 1_456
Er4 Ni19 3.045508 1_555
Er4 Ni19 3.045508 1_455
Er4 Ni1 3.068135 1_555
Er4 Ni32 3.073783 1_556
Er5 P23 2.902370 1_455
Er5 P23 2.902370 1_555
Er5 P9 2.917403 1_455
Er5 P9 2.917403 1_555
Er5 Ni28 2.934085 1_455
Er5 Ni28 2.934085 1_555
Er5 Ni5 2.959705 1_555
Er5 Ni5 2.959705 1_455
Er5 P8 2.969734 1_455
Er5 P8 2.969734 1_555
Er5 Ni20 3.045508 1_455
Er5 Ni20 3.045508 1_555
Er5 Ni0 3.068135 1_555
Er5 Ni33 3.073783 1_555
Er6 P24 2.902370 1_555
Er6 P24 2.902370 1_455
Er6 P11 2.917403 1_555
Er6 P11 2.917403 1_455
Er6 Ni30 2.934085 1_555
Er6 Ni30 2.934085 1_455
Er6 Ni3 2.959705 1_455
Er6 Ni3 2.959705 1_555
Er6 P6 2.969734 1_555
Er6 P6 2.969734 1_455
Er6 Ni16 3.045508 1_455
Er6 Ni16 3.045508 1_555
Er6 Ni2 3.068135 1_555
Er6 Ni34 3.073783 1_555
Er7 P25 2.902370 1_456
Er7 P25 2.902370 1_556
Er7 P11 2.917403 1_455
Er7 P11 2.917403 1_555
Er7 Ni30 2.934085 1_555
Er7 Ni30 2.934085 1_455
Er7 Ni4 2.959705 1_456
Er7 Ni4 2.959705 1_556
Er7 P7 2.969734 1_556
Er7 P7 2.969734 1_456
Er7 Ni21 3.045508 1_555
Er7 Ni21 3.045508 1_455
Er7 Ni2 3.068135 1_555
Er7 Ni35 3.073783 1_556
Er8 P26 2.902370 1_445
Er8 P26 2.902370 1_545
Er8 P10 2.917403 1_455
Er8 P10 2.917403 1_555
Er8 Ni29 2.934085 1_555
Er8 Ni29 2.934085 1_455
Er8 Ni3 2.959705 1_545
Er8 Ni3 2.959705 1_445
Er8 P6 2.969734 1_445
Er8 P6 2.969734 1_545
Er8 Ni18 3.045508 1_455
Er8 Ni18 3.045508 1_555
Er8 Ni1 3.068135 1_555
Er8 Ni36 3.073783 1_545
Er9 Ni12 2.864316 1_555
Er9 Ni12 2.864316 1_655
Er9 Ni26 2.997089 1_555
Er9 Ni26 2.997089 1_655
Er9 Ni23 2.997089 1_655
Er9 Ni23 2.997089 1_555
Er9 P31 3.011797 1_655
Er9 P31 3.011797 1_555
Er9 P28 3.011797 1_655
Er9 P28 3.011797 1_555
Er9 Ni10 3.053629 1_555
Er9 Ni11 3.053629 1_555
Er9 Ni6 3.055091 1_555
Er9 Ni6 3.055091 1_655
Er9 Ni47 3.173058 1_555
Er9 Ni44 3.173058 1_555
Er10 Ni13 2.864316 1_655
Er10 Ni13 2.864316 1_555
Er10 Ni24 2.997089 1_555
Er10 Ni25 2.997089 1_555
Er10 Ni25 2.997089 1_655
Er10 Ni24 2.997089 1_655
Er10 P29 3.011797 1_555
Er10 P29 3.011797 1_655
Er10 P30 3.011797 1_655
Er10 P30 3.011797 1_555
Er10 Ni9 3.053629 1_555
Er10 Ni11 3.053629 1_555
Er10 Ni7 3.055091 1_655
Er10 Ni7 3.055091 1_555
Er10 Ni45 3.173058 1_555
Er10 Ni46 3.173058 1_555
Er11 Ni14 2.864316 1_655
Er11 Ni14 2.864316 1_555
Er11 Ni22 2.997089 1_655
Er11 Ni22 2.997089 1_555
Er11 Ni27 2.997089 1_655
Er11 Ni27 2.997089 1_555
Er11 P27 3.011797 1_555
Er11 P27 3.011797 1_655
Er11 P32 3.011797 1_555
Er11 P32 3.011797 1_655
Er11 Ni10 3.053629 1_555
Er11 Ni9 3.053629 1_555
Er11 Ni8 3.055091 1_655
Er11 Ni8 3.055091 1_555
Er11 Ni43 3.173058 1_555
Er11 Ni48 3.173058 1_555
Er12 P16 2.921060 1_655
Er12 P16 2.921060 1_555
Er12 P13 2.921060 1_555
Er12 P13 2.921060 1_655
Er12 Ni38 2.936660 1_655
Er12 Ni38 2.936660 1_555
Er12 Ni41 2.936660 1_555
Er12 Ni41 2.936660 1_655
Er12 P0 2.944355 1_555
Er12 P0 2.944355 1_655
Er12 Ni0 3.036140 1_555
Er12 Ni0 3.036140 1_655
Er12 Ni20 3.061349 1_555
Er12 Ni17 3.061349 1_555
Er13 P14 2.921060 1_555
Er13 P14 2.921060 1_655
Er13 P15 2.921060 1_555
Er13 P15 2.921060 1_655
Er13 Ni40 2.936660 1_655
Er13 Ni40 2.936660 1_555
Er13 Ni39 2.936660 1_555
Er13 Ni39 2.936660 1_655
Er13 P1 2.944355 1_555
Er13 P1 2.944355 1_655
Er13 Ni1 3.036139 1_555
Er13 Ni1 3.036139 1_655
Er13 Ni19 3.061349 1_555
Er13 Ni18 3.061349 1_555
Er14 P12 2.921060 1_555
Er14 P12 2.921060 1_655
Er14 P17 2.921060 1_555
Er14 P17 2.921060 1_655
Er14 Ni42 2.936660 1_655
Er14 Ni42 2.936660 1_555
Er14 Ni37 2.936660 1_555
Er14 Ni37 2.936660 1_655
Er14 P2 2.944355 1_655
Er14 P2 2.944355 1_555
Er14 Ni2 3.036140 1_555
Er14 Ni2 3.036140 1_655
Er14 Ni16 3.061349 1_555
Er14 Ni21 3.061349 1_555
Er15 P30 2.888663 1_655
Er15 P30 2.888663 1_555
Er15 P12 2.934148 1_555
Er15 P12 2.934148 1_655
Er15 Ni7 2.951006 1_555
Er15 Ni7 2.951006 1_655
Er15 Ni37 2.951324 1_655
Er15 Ni37 2.951324 1_555
Er15 P4 2.953396 1_655
Er15 P4 2.953396 1_555
Er15 Ni34 3.041410 1_655
Er15 Ni34 3.041410 1_555
Er15 Ni46 3.060754 1_555
Er15 Ni16 3.070139 1_555
Er16 P27 2.888663 1_545
Er16 P27 2.888663 1_645
Er16 P13 2.934148 1_555
Er16 P13 2.934148 1_655
Er16 Ni8 2.951006 1_545
Er16 Ni8 2.951006 1_645
Er16 Ni38 2.951324 1_555
Er16 Ni38 2.951324 1_655
Er16 P5 2.953396 1_655
Er16 P5 2.953396 1_555
Er16 Ni31 3.041410 1_545
Er16 Ni31 3.041410 1_645
Er16 Ni43 3.060754 1_545
Er16 Ni17 3.070139 1_555
Er17 P32 2.888663 1_545
Er17 P32 2.888663 1_645
Er17 P14 2.934148 1_655
Er17 P14 2.934148 1_555
Er17 Ni8 2.951006 1_645
Er17 Ni8 2.951006 1_545
Er17 Ni39 2.951324 1_555
Er17 Ni39 2.951324 1_655
Er17 P5 2.953396 1_555
Er17 P5 2.953396 1_655
Er17 Ni36 3.041410 1_545
Er17 Ni36 3.041410 1_645
Er17 Ni48 3.060754 1_545
Er17 Ni18 3.070139 1_555
Er18 P28 2.888663 1_656
Er18 P28 2.888663 1_556
Er18 P15 2.934148 1_555
Er18 P15 2.934148 1_655
Er18 Ni6 2.951006 1_656
Er18 Ni6 2.951006 1_556
Er18 Ni40 2.951324 1_555
Er18 Ni40 2.951324 1_655
Er18 P3 2.953396 1_555
Er18 P3 2.953396 1_655
Er18 Ni32 3.041410 1_656
Er18 Ni32 3.041410 1_556
Er18 Ni44 3.060754 1_556
Er18 Ni19 3.070139 1_555
Er19 P29 2.888663 1_555
Er19 P29 2.888663 1_655
Er19 P16 2.934148 1_555
Er19 P16 2.934148 1_655
Er19 Ni7 2.951006 1_655
Er19 Ni7 2.951006 1_555
Er19 Ni41 2.951324 1_555
Er19 Ni41 2.951324 1_655
Er19 P4 2.953396 1_655
Er19 P4 2.953396 1_555
Er19 Ni33 3.041410 1_655
Er19 Ni33 3.041410 1_555
Er19 Ni45 3.060754 1_555
Er19 Ni20 3.070139 1_555
Er20 P31 2.888663 1_556
Er20 P31 2.888663 1_656
Er20 P17 2.934148 1_655
Er20 P17 2.934148 1_555
Er20 Ni6 2.951006 1_656
Er20 Ni6 2.951006 1_556
Er20 Ni42 2.951324 1_655
Er20 Ni42 2.951324 1_555
Er20 P3 2.953396 1_555
Er20 P3 2.953396 1_655
Er20 Ni35 3.041410 1_556
Er20 Ni35 3.041410 1_656
Er20 Ni47 3.060754 1_556
Er20 Ni21 3.070139 1_555
Er21 P6 2.923624 1_444
Er21 P6 2.923624 1_544
Er21 P8 2.923624 1_455
Er21 P8 2.923624 1_555
Er21 P7 2.923624 1_445
Er21 P7 2.923624 1_545
Er21 Ni29 2.957416 1_454
Er21 Ni29 2.957416 1_554
Er21 Ni30 2.957416 1_444
Er21 Ni30 2.957416 1_544
Er21 Ni28 2.957416 1_555
Er21 Ni28 2.957416 1_455
Er22 P18 2.889203 1_555
Er22 P18 2.889203 1_455
Er22 Ni3 2.906596 1_555
Er22 Ni3 2.906596 1_455
Er22 P26 2.934620 1_555
Er22 P26 2.934620 1_455
Er22 P24 2.934620 1_555
Er22 P24 2.934620 1_455
Er22 Ni27 3.037427 1_555
Er22 Ni25 3.037427 1_555
Er22 Ni48 3.056141 1_555
Er22 Ni48 3.056141 1_455
Er22 Ni46 3.056141 1_455
Er22 Ni46 3.056141 1_555
Er22 Ni36 3.091416 1_555
Er22 Ni34 3.091416 1_555
Er23 P19 2.889203 1_455
Er23 P19 2.889203 1_555
Er23 Ni4 2.906596 1_455
Er23 Ni4 2.906596 1_555
Er23 P25 2.934620 1_555
Er23 P25 2.934620 1_455
Er23 P21 2.934620 1_555
Er23 P21 2.934620 1_455
Er23 Ni22 3.037427 1_555
Er23 Ni26 3.037427 1_555
Er23 Ni43 3.056141 1_555
Er23 Ni47 3.056141 1_455
Er23 Ni47 3.056141 1_555
Er23 Ni43 3.056141 1_455
Er23 Ni31 3.091416 1_555
Er23 Ni35 3.091416 1_555
Er24 P20 2.889203 1_555
Er24 P20 2.889203 1_455
Er24 Ni5 2.906596 1_455
Er24 Ni5 2.906596 1_555
Er24 P22 2.934620 1_455
Er24 P22 2.934620 1_555
Er24 P23 2.934620 1_455
Er24 P23 2.934620 1_555
Er24 Ni23 3.037427 1_555
Er24 Ni24 3.037427 1_555
Er24 Ni44 3.056141 1_555
Er24 Ni44 3.056141 1_455
Er24 Ni45 3.056141 1_555
Er24 Ni45 3.056141 1_455
Er24 Ni32 3.091416 1_555
Er24 Ni33 3.091416 1_555
Ni0 P9 2.311017 1_555
Ni0 P9 2.311017 1_455
Ni0 P16 2.311133 1_555
Ni0 P13 2.311133 1_555
Ni1 P10 2.311017 1_555
Ni1 P10 2.311017 1_455
Ni1 P15 2.311133 1_555
Ni1 P14 2.311133 1_555
Ni2 P11 2.311017 1_555
Ni2 P11 2.311017 1_455
Ni2 P12 2.311133 1_555
Ni2 P17 2.311133 1_555
Ni3 P26 2.205042 1_555
Ni3 P24 2.205042 1_555
Ni3 P6 2.262770 1_555
Ni4 P25 2.205042 1_555
Ni4 P21 2.205042 1_555
Ni4 P7 2.262769 1_555
Ni5 P22 2.205042 1_555
Ni5 P23 2.205042 1_555
Ni5 P8 2.262770 1_555
Ni6 P28 2.180993 1_555
Ni6 P31 2.180993 1_555
Ni6 P3 2.245062 1_554
Ni7 P30 2.180993 1_555
Ni7 P29 2.180993 1_555
Ni7 P4 2.245062 1_555
Ni8 P32 2.180993 1_555
Ni8 P27 2.180993 1_555
Ni8 P5 2.245062 1_565
Ni9 P18 2.156995 1_555
Ni10 P19 2.156995 1_555
Ni10 Ni12 2.438943 1_555
Ni10 Ni12 2.438943 1_655
Ni10 Ni14 2.438943 1_555
Ni10 Ni14 2.438943 1_655
Ni11 P20 2.156995 1_555
Ni11 Ni12 2.438943 1_555
Ni11 Ni12 2.438943 1_655
Ni11 Ni13 2.438943 1_655
Ni11 Ni13 2.438943 1_555
Ni12 Ni13 2.397843 1_555
Ni12 Ni14 2.397843 1_555
Ni12 Ni26 2.485580 1_555
Ni12 Ni23 2.485580 1_555
Ni13 Ni14 2.397843 1_555
Ni13 Ni9 2.438943 1_555
Ni13 Ni9 2.438943 1_455
Ni13 Ni24 2.485580 1_555
Ni13 Ni25 2.485580 1_555
Ni14 Ni9 2.438943 1_555
Ni14 Ni9 2.438943 1_455
Ni14 Ni22 2.485580 1_555
Ni14 Ni27 2.485580 1_555
Ni15 P1 2.251174 1_555
Ni15 P0 2.251192 1_555
Ni15 P2 2.251192 1_555
Ni16 P12 2.299635 1_555
Ni16 P12 2.299635 1_655
Ni16 P24 2.321808 1_555
Ni16 P11 2.324963 1_555
Ni17 P13 2.299635 1_555
Ni17 P13 2.299635 1_655
Ni17 P21 2.321808 1_545
Ni17 P9 2.324963 1_555
Ni18 P14 2.299635 1_555
Ni18 P14 2.299635 1_655
Ni18 P26 2.321808 1_545
Ni18 P10 2.324963 1_555
Ni19 P15 2.299635 1_555
Ni19 P15 2.299635 1_655
Ni19 P22 2.321808 1_556
Ni19 P10 2.324963 1_555
Ni20 P16 2.299635 1_555
Ni20 P16 2.299635 1_655
Ni20 P23 2.321808 1_555
Ni20 P9 2.324963 1_555
Ni21 P17 2.299635 1_555
Ni21 P17 2.299635 1_655
Ni21 P25 2.321808 1_556
Ni21 P11 2.324963 1_555
Ni22 P27 2.224496 1_555
Ni22 P19 2.344328 1_555
Ni22 P19 2.344328 1_455
Ni23 P28 2.224496 1_555
Ni23 P20 2.344328 1_555
Ni23 P20 2.344328 1_455
Ni24 P29 2.224496 1_555
Ni24 P20 2.344328 1_455
Ni24 P20 2.344328 1_555
Ni25 P30 2.224496 1_555
Ni25 P18 2.344328 1_555
Ni25 P18 2.344328 1_455
Ni26 P31 2.224496 1_555
Ni26 P19 2.344328 1_555
Ni26 P19 2.344328 1_455
Ni27 P32 2.224496 1_555
Ni27 P18 2.344328 1_455
Ni27 P18 2.344328 1_555
Ni28 P9 2.205054 1_555
Ni28 P8 2.239691 1_555
Ni28 P7 2.239691 1_545
Ni29 P10 2.205054 1_555
Ni29 P8 2.239691 1_556
Ni29 P6 2.239691 1_545
Ni30 P11 2.205054 1_555
Ni30 P6 2.239691 1_555
Ni30 P7 2.239691 1_556
Ni31 P21 2.320126 1_555
Ni31 P21 2.320126 1_455
Ni31 P27 2.320942 1_555
Ni31 P13 2.326775 1_565
Ni32 P22 2.320126 1_455
Ni32 P22 2.320126 1_555
Ni32 P28 2.320942 1_555
Ni32 P15 2.326775 1_554
Ni33 P23 2.320126 1_455
Ni33 P23 2.320126 1_555
Ni33 P29 2.320942 1_555
Ni33 P16 2.326775 1_555
Ni34 P24 2.320126 1_555
Ni34 P24 2.320126 1_455
Ni34 P30 2.320942 1_555
Ni34 P12 2.326775 1_555
Ni35 P25 2.320126 1_555
Ni35 P25 2.320126 1_455
Ni35 P31 2.320942 1_555
Ni35 P17 2.326775 1_554
Ni36 P26 2.320126 1_555
Ni36 P26 2.320126 1_455
Ni36 P32 2.320942 1_555
Ni36 P14 2.326775 1_565
Ni37 P12 2.221144 1_555
Ni37 P2 2.223946 1_555
Ni37 P4 2.252265 1_555
Ni38 P13 2.221144 1_555
Ni38 P0 2.223946 1_555
Ni38 P5 2.252265 1_555
Ni39 P14 2.221144 1_555
Ni39 P1 2.223946 1_555
Ni39 P5 2.252265 1_555
Ni40 P15 2.221144 1_555
Ni40 P1 2.223946 1_555
Ni40 P3 2.252265 1_555
Ni41 P16 2.221144 1_555
Ni41 P0 2.223946 1_555
Ni41 P4 2.252265 1_555
Ni42 P17 2.221144 1_555
Ni42 P2 2.223946 1_555
Ni42 P3 2.252265 1_555
Ni43 P19 2.305409 1_555
Ni43 P21 2.305599 1_555
Ni43 P27 2.344147 1_555
Ni43 P27 2.344147 1_655
Ni44 P20 2.305409 1_555
Ni44 P22 2.305599 1_555
Ni44 P28 2.344147 1_555
Ni44 P28 2.344147 1_655
Ni45 P20 2.305409 1_555
Ni45 P23 2.305599 1_555
Ni45 P29 2.344147 1_555
Ni45 P29 2.344147 1_655
Ni46 P18 2.305409 1_555
Ni46 P24 2.305599 1_555
Ni46 P30 2.344147 1_655
Ni46 P30 2.344147 1_555
Ni47 P19 2.305409 1_555
Ni47 P25 2.305599 1_555
Ni47 P31 2.344147 1_655
Ni47 P31 2.344147 1_555
Ni48 P18 2.305409 1_555
Ni48 P26 2.305599 1_555
Ni48 P32 2.344147 1_555
Ni48 P32 2.344147 1_655
