# generated using pymatgen
data_Ga2PbS4
_symmetry_space_group_name_H-M   'P 1'
_cell_length_a   14.80998835
_cell_length_b   12.25379237
_cell_length_c   12.04080265
_cell_angle_alpha   75.11546411
_cell_angle_beta   53.09549848
_cell_angle_gamma   51.78903741
_symmetry_Int_Tables_number   1
_chemical_formula_structural   Ga2PbS4
_chemical_formula_sum   'Ga16 Pb8 S32'
_cell_volume   1349.92571395
_cell_formula_units_Z   8
loop_
 _symmetry_equiv_pos_site_id
 _symmetry_equiv_pos_as_xyz
  1  'x, y, z'
loop_
 _atom_site_type_symbol
 _atom_site_label
 _atom_site_symmetry_multiplicity
 _atom_site_fract_x
 _atom_site_fract_y
 _atom_site_fract_z
 _atom_site_occupancy
  Ga  Ga0  1  0.48959300  0.75981300  0.73706900  1
  Ga  Ga1  1  0.75981300  0.48959300  0.01352500  1
  Ga  Ga2  1  0.73706900  0.01352500  0.48959300  1
  Ga  Ga3  1  0.01352500  0.73706900  0.75981300  1
  Ga  Ga4  1  0.76040700  0.49018700  0.51293100  1
  Ga  Ga5  1  0.49018700  0.76040700  0.23647500  1
  Ga  Ga6  1  0.51293100  0.23647500  0.76040700  1
  Ga  Ga7  1  0.23647500  0.51293100  0.49018700  1
  Ga  Ga8  1  0.98491600  0.26491600  0.65539800  1
  Ga  Ga9  1  0.26491600  0.98491600  0.09477000  1
  Ga  Ga10  1  0.65539800  0.09477000  0.98491600  1
  Ga  Ga11  1  0.09477000  0.65539800  0.26491600  1
  Ga  Ga12  1  0.26508400  0.98508400  0.59460200  1
  Ga  Ga13  1  0.98508400  0.26508400  0.15523000  1
  Ga  Ga14  1  0.59460200  0.15523000  0.26508400  1
  Ga  Ga15  1  0.15523000  0.59460200  0.98508400  1
  Pb  Pb0  1  0.49642700  0.49642700  0.00357300  1
  Pb  Pb1  1  0.00357400  0.00357400  0.49642600  1
  Pb  Pb2  1  0.75357400  0.75357400  0.24642600  1
  Pb  Pb3  1  0.24642700  0.24642700  0.75357400  1
  Pb  Pb4  1  0.25000000  0.25000000  0.25000000  1
  Pb  Pb5  1  0.00000000  0.00000000  0.00000000  1
  Pb  Pb6  1  0.75000000  0.75000000  0.75000000  1
  Pb  Pb7  1  0.50000000  0.50000000  0.50000000  1
  S  S0  1  0.47178000  0.27620400  0.96613000  1
  S  S1  1  0.27620400  0.47178000  0.28588500  1
  S  S2  1  0.96613000  0.28588500  0.47178000  1
  S  S3  1  0.28588500  0.96613000  0.27620400  1
  S  S4  1  0.77822000  0.97379600  0.28387000  1
  S  S5  1  0.97379600  0.77822000  0.96411500  1
  S  S6  1  0.28387000  0.96411500  0.77822000  1
  S  S7  1  0.96411500  0.28387000  0.97379600  1
  S  S8  1  0.46824300  0.77962900  0.93950200  1
  S  S9  1  0.77962800  0.46824300  0.81262600  1
  S  S10  1  0.93950200  0.81262600  0.46824300  1
  S  S11  1  0.81262600  0.93950200  0.77962800  1
  S  S12  1  0.78175700  0.47037200  0.31049800  1
  S  S13  1  0.47037200  0.78175700  0.43737400  1
  S  S14  1  0.31049800  0.43737400  0.78175700  1
  S  S15  1  0.43737400  0.31049800  0.47037100  1
  S  S16  1  0.04204900  0.54354900  0.70812500  1
  S  S17  1  0.54354900  0.04204900  0.70627800  1
  S  S18  1  0.70812500  0.70627800  0.04204900  1
  S  S19  1  0.70627800  0.70812500  0.54354900  1
  S  S20  1  0.20795100  0.70645100  0.54187500  1
  S  S21  1  0.70645100  0.20795100  0.54372200  1
  S  S22  1  0.54187500  0.54372200  0.20795100  1
  S  S23  1  0.54372200  0.54187500  0.70645100  1
  S  S24  1  0.20786300  0.70602800  0.04214000  1
  S  S25  1  0.70602800  0.20786300  0.04396900  1
  S  S26  1  0.04214000  0.04396900  0.20786300  1
  S  S27  1  0.04396900  0.04214000  0.70602800  1
  S  S28  1  0.04213700  0.54397200  0.20786000  1
  S  S29  1  0.54397200  0.04213700  0.20603100  1
  S  S30  1  0.20786000  0.20603100  0.04213700  1
  S  S31  1  0.20603100  0.20786000  0.54397200  1
loop_
_geom_bond_atom_site_label_1
_geom_bond_atom_site_label_2
_geom_bond_distance
_geom_bond_site_symmetry_2
Ga0 S6 2.276791 1_555
Ga0 S8 2.320263 1_555
Ga0 S19 2.322138 1_555
Ga0 S23 2.326555 1_555
Ga1 S7 2.276795 1_554
Ga1 S9 2.320272 1_554
Ga1 S18 2.322141 1_555
Ga1 S22 2.326552 1_555
Ga2 S4 2.276787 1_545
Ga2 S10 2.320263 1_545
Ga2 S17 2.322134 1_555
Ga2 S21 2.326543 1_555
Ga3 S5 2.276799 1_455
Ga3 S11 2.320268 1_455
Ga3 S16 2.322129 1_555
Ga3 S20 2.326549 1_555
Ga4 S2 2.276791 1_555
Ga4 S12 2.320260 1_555
Ga4 S23 2.322138 1_555
Ga4 S19 2.326555 1_555
Ga5 S3 2.276795 1_555
Ga5 S13 2.320272 1_555
Ga5 S22 2.322141 1_555
Ga5 S18 2.326552 1_555
Ga6 S0 2.276787 1_555
Ga6 S14 2.320263 1_555
Ga6 S21 2.322134 1_555
Ga6 S17 2.326543 1_555
Ga7 S1 2.276799 1_555
Ga7 S15 2.320263 1_555
Ga7 S20 2.322129 1_555
Ga7 S16 2.326549 1_555
Ga8 S9 2.274818 1_555
Ga8 S31 2.320688 1_655
Ga8 S2 2.321635 1_555
Ga8 S27 2.328173 1_655
Ga9 S8 2.274816 1_554
Ga9 S30 2.320688 1_565
Ga9 S3 2.321623 1_555
Ga9 S26 2.328173 1_565
Ga10 S11 2.274824 1_545
Ga10 S29 2.320688 1_556
Ga10 S0 2.321632 1_555
Ga10 S25 2.328173 1_556
Ga11 S10 2.274816 1_455
Ga11 S28 2.320688 1_555
Ga11 S1 2.321626 1_555
Ga11 S24 2.328173 1_555
Ga12 S13 2.274818 1_555
Ga12 S27 2.320688 1_565
Ga12 S6 2.321635 1_555
Ga12 S31 2.328173 1_565
Ga13 S12 2.274822 1_555
Ga13 S26 2.320688 1_655
Ga13 S7 2.321623 1_554
Ga13 S30 2.328173 1_655
Ga14 S15 2.274816 1_555
Ga14 S25 2.320688 1_555
Ga14 S4 2.321632 1_545
Ga14 S29 2.328173 1_555
Ga15 S14 2.274816 1_555
Ga15 S24 2.320688 1_556
Ga15 S5 2.321626 1_455
Ga15 S28 2.328173 1_556
Pb0 S1 3.108056 1_555
Pb0 S0 3.108062 1_554
Pb0 S25 3.118731 1_555
Pb0 S24 3.118731 1_555
Pb0 S9 3.167273 1_554
Pb0 S8 3.167285 1_554
Pb0 S22 3.170070 1_555
Pb0 S23 3.170081 1_554
Pb1 S2 3.108032 1_455
Pb1 S3 3.108033 1_545
Pb1 S27 3.118726 1_555
Pb1 S26 3.118726 1_555
Pb1 S11 3.167297 1_445
Pb1 S10 3.167303 1_445
Pb1 S20 3.170082 1_545
Pb1 S21 3.170088 1_455
Pb2 S5 3.108039 1_554
Pb2 S4 3.108044 1_555
Pb2 S29 3.118726 1_565
Pb2 S28 3.118726 1_655
Pb2 S13 3.167291 1_555
Pb2 S12 3.167291 1_555
Pb2 S18 3.170076 1_555
Pb2 S19 3.170088 1_555
Pb3 S7 3.108050 1_455
Pb3 S6 3.108051 1_545
Pb3 S30 3.118720 1_556
Pb3 S31 3.118743 1_555
Pb3 S14 3.167279 1_555
Pb3 S15 3.167291 1_555
Pb3 S17 3.170076 1_555
Pb3 S16 3.170081 1_555
Pb4 S1 3.135649 1_555
Pb4 S0 3.135655 1_554
Pb4 S2 3.135660 1_455
Pb4 S3 3.135661 1_545
Pb4 S31 3.150977 1_555
Pb4 S28 3.150977 1_555
Pb4 S30 3.150977 1_555
Pb4 S29 3.150977 1_555
Pb5 S5 3.135649 1_444
Pb5 S4 3.135655 1_445
Pb5 S6 3.135660 1_544
Pb5 S7 3.135661 1_454
Pb5 S24 3.150977 1_545
Pb5 S26 3.150977 1_555
Pb5 S27 3.150977 1_554
Pb5 S25 3.150977 1_455
Pb6 S19 3.140292 1_555
Pb6 S17 3.140298 1_565
Pb6 S18 3.140303 1_556
Pb6 S16 3.140304 1_655
Pb6 S11 3.141199 1_555
Pb6 S10 3.141205 1_555
Pb6 S8 3.141205 1_555
Pb6 S9 3.141210 1_555
Pb7 S23 3.140292 1_555
Pb7 S21 3.140298 1_555
Pb7 S22 3.140303 1_555
Pb7 S20 3.140304 1_555
Pb7 S15 3.141205 1_555
Pb7 S14 3.141205 1_555
Pb7 S13 3.141210 1_555
Pb7 S12 3.141211 1_555
