# generated using pymatgen
data_Li3Mn7O12
_symmetry_space_group_name_H-M   'P 1'
_cell_length_a   5.23821494
_cell_length_b   5.23972312
_cell_length_c   30.38903810
_cell_angle_alpha   84.27205084
_cell_angle_beta   95.76461083
_cell_angle_gamma   58.25519333
_symmetry_Int_Tables_number   1
_chemical_formula_structural   Li3Mn7O12
_chemical_formula_sum   'Li9 Mn21 O36'
_cell_volume   694.13530920
_cell_formula_units_Z   3
loop_
 _symmetry_equiv_pos_site_id
 _symmetry_equiv_pos_as_xyz
  1  'x, y, z'
loop_
 _atom_site_type_symbol
 _atom_site_label
 _atom_site_symmetry_multiplicity
 _atom_site_fract_x
 _atom_site_fract_y
 _atom_site_fract_z
 _atom_site_occupancy
  Li  Li0  1  0.32949400  0.84078900  0.99787700  1
  Li  Li1  1  0.32974700  0.84043000  0.66470900  1
  Li  Li2  1  0.66576500  0.16995800  0.33239900  1
  Li  Li3  1  0.84036100  0.32972800  0.83529200  1
  Li  Li4  1  0.84394600  0.32345900  0.50185800  1
  Li  Li5  1  0.84142500  0.32947000  0.16860300  1
  Li  Li6  1  0.91706000  0.91724500  0.91666000  1
  Li  Li7  1  0.91680900  0.91778000  0.58350000  1
  Li  Li8  1  0.92475100  0.91347300  0.25065600  1
  Mn  Mn0  1  0.08075300  0.08077300  0.75003700  1
  Mn  Mn1  1  0.08131800  0.07807200  0.41657600  1
  Mn  Mn2  1  0.25309000  0.25318800  0.91663200  1
  Mn  Mn3  1  0.08072000  0.08129800  0.08334500  1
  Mn  Mn4  1  0.25360500  0.25438800  0.58336500  1
  Mn  Mn5  1  0.25259400  0.24564900  0.25012300  1
  Mn  Mn6  1  0.42063600  0.42063500  0.75006500  1
  Mn  Mn7  1  0.57460300  0.57493600  0.91659100  1
  Mn  Mn8  1  0.42176000  0.42281000  0.41683900  1
  Mn  Mn9  1  0.57548900  0.57497600  0.58356200  1
  Mn  Mn10  1  0.42060000  0.42093800  0.08333100  1
  Mn  Mn11  1  0.50950500  0.00600700  0.83530000  1
  Mn  Mn12  1  0.57419400  0.57905800  0.24954700  1
  Mn  Mn13  1  0.75260000  0.75297600  0.74997100  1
  Mn  Mn14  1  0.50908000  0.00914000  0.50262800  1
  Mn  Mn15  1  0.00583900  0.50906400  0.99792600  1
  Mn  Mn16  1  0.75052800  0.74893500  0.41681600  1
  Mn  Mn17  1  0.50962800  0.00741900  0.16887300  1
  Mn  Mn18  1  0.00663900  0.50828600  0.66478100  1
  Mn  Mn19  1  0.75223800  0.75361600  0.08325400  1
  Mn  Mn20  1  0.00148400  0.50684200  0.33098000  1
  O  O0  1  0.11647800  0.37589100  0.78806400  1
  O  O1  1  0.10797400  0.35308300  0.45487500  1
  O  O2  1  0.07120700  0.76334100  0.71119400  1
  O  O3  1  0.28915700  0.53359000  0.95105800  1
  O  O4  1  0.37564900  0.11560200  0.71177900  1
  O  O5  1  0.11712800  0.37907400  0.12109500  1
  O  O6  1  0.03577800  0.78446100  0.38170500  1
  O  O7  1  0.53328900  0.28876400  0.88214800  1
  O  O8  1  0.28837200  0.53476800  0.61789300  1
  O  O9  1  0.39531300  0.14866800  0.37936600  1
  O  O10  1  0.23897600  0.97082100  0.88020600  1
  O  O11  1  0.06980800  0.76252500  0.04439200  1
  O  O12  1  0.53310400  0.29256300  0.54906500  1
  O  O13  1  0.30177100  0.50938800  0.28558100  1
  O  O14  1  0.76340700  0.07183900  0.78903800  1
  O  O15  1  0.37419700  0.11382400  0.04510400  1
  O  O16  1  0.44701300  0.73429100  0.78749600  1
  O  O17  1  0.24264800  0.97022100  0.54652100  1
  O  O18  1  0.52628100  0.28950600  0.21457100  1
  O  O19  1  0.75438900  0.07473500  0.45843600  1
  O  O20  1  0.60367900  0.84957400  0.95436900  1
  O  O21  1  0.46219600  0.71487100  0.45088400  1
  O  O22  1  0.73310400  0.44582800  0.71265500  1
  O  O23  1  0.23417400  0.96980200  0.21353800  1
  O  O24  1  0.97060700  0.23915400  0.95303300  1
  O  O25  1  0.76448800  0.07354800  0.12220600  1
  O  O26  1  0.60571600  0.84642800  0.62130000  1
  O  O27  1  0.44821200  0.73761900  0.12103600  1
  O  O28  1  0.84914800  0.60360100  0.87892100  1
  O  O29  1  0.75031500  0.42321200  0.37617400  1
  O  O30  1  0.97115300  0.23840800  0.61957400  1
  O  O31  1  0.61822900  0.86500400  0.28696400  1
  O  O32  1  0.84682100  0.60704300  0.54526300  1
  O  O33  1  0.73083600  0.44561000  0.04603300  1
  O  O34  1  0.95124900  0.24317300  0.28566500  1
  O  O35  1  0.85008900  0.60129800  0.21213600  1
loop_
_geom_bond_atom_site_label_1
_geom_bond_atom_site_label_2
_geom_bond_distance
_geom_bond_site_symmetry_2
Li0 O20 2.062017 1_555
Li0 O24 2.129928 1_465
Li0 O15 2.203662 1_566
Li0 O11 2.207763 1_556
Li0 O33 2.246166 1_556
Li0 O3 2.326914 1_555
Li1 O26 2.062398 1_555
Li1 O30 2.132575 1_465
Li1 O2 2.199734 1_555
Li1 O4 2.211366 1_565
Li1 O22 2.246208 1_555
Li1 O8 2.322551 1_555
Li2 O13 2.050468 1_555
Li2 O29 2.139887 1_555
Li2 O9 2.144127 1_555
Li2 O6 2.185079 1_645
Li2 O31 2.304692 1_545
Li2 O34 2.306946 1_555
Li3 O28 2.063076 1_555
Li3 O10 2.131324 1_645
Li3 O14 2.191494 1_555
Li3 O0 2.219492 1_655
Li3 O16 2.244287 1_555
Li3 O7 2.328793 1_555
Li4 O32 2.087767 1_555
Li4 O17 2.119247 1_645
Li4 O19 2.126498 1_555
Li4 O1 2.133949 1_655
Li4 O21 2.243330 1_555
Li4 O12 2.331456 1_555
Li5 O35 2.052537 1_555
Li5 O23 2.119182 1_645
Li5 O25 2.186438 1_555
Li5 O5 2.230808 1_655
Li5 O27 2.248382 1_555
Li5 O18 2.342852 1_555
Li6 O3 1.995267 1_655
Li6 O7 1.995417 1_565
Li6 O24 2.225571 1_565
Li6 O10 2.227291 1_655
Li6 O20 2.245636 1_555
Li6 O28 2.247676 1_555
Li7 O8 1.992628 1_655
Li7 O12 2.001291 1_565
Li7 O30 2.216616 1_565
Li7 O26 2.246375 1_555
Li7 O32 2.248500 1_555
Li7 O17 2.251382 1_655
Li8 O18 2.054920 1_565
Li8 O13 2.059121 1_655
Li8 O31 2.142193 1_555
Li8 O34 2.173714 1_565
Li8 O23 2.188773 1_655
Li8 O35 2.272041 1_555
Mn0 O22 1.936703 1_455
Mn0 O16 1.938092 1_545
Mn0 O0 2.092690 1_555
Mn0 O4 2.094337 1_555
Mn0 O2 2.151703 1_545
Mn0 O14 2.153327 1_455
Mn1 O29 1.901008 1_455
Mn1 O21 1.969756 1_545
Mn1 O1 1.991071 1_555
Mn1 O6 2.051213 1_545
Mn1 O19 2.239628 1_455
Mn1 O9 2.247465 1_555
Mn2 O7 1.960886 1_555
Mn2 O10 1.960963 1_545
Mn2 O24 1.961039 1_455
Mn2 O3 1.961632 1_555
Mn2 O20 2.041131 1_545
Mn2 O28 2.041185 1_455
Mn3 O33 1.938463 1_455
Mn3 O27 1.938561 1_545
Mn3 O15 2.082752 1_555
Mn3 O5 2.100781 1_555
Mn3 O25 2.143464 1_455
Mn3 O11 2.162382 1_545
Mn4 O12 1.960387 1_555
Mn4 O8 1.960429 1_555
Mn4 O30 1.961086 1_455
Mn4 O17 1.970711 1_545
Mn4 O32 2.056605 1_455
Mn4 O26 2.057292 1_545
Mn5 O13 1.937318 1_555
Mn5 O23 1.944326 1_545
Mn5 O18 1.970687 1_555
Mn5 O31 2.000877 1_545
Mn5 O34 2.004918 1_455
Mn5 O35 2.048876 1_455
Mn6 O2 1.911491 1_555
Mn6 O14 1.911650 1_555
Mn6 O22 2.135437 1_555
Mn6 O16 2.143480 1_555
Mn6 O0 2.153010 1_555
Mn6 O4 2.162445 1_555
Mn7 O28 1.981140 1_555
Mn7 O10 1.982543 1_555
Mn7 O24 1.983446 1_555
Mn7 O20 1.984252 1_555
Mn7 O3 1.997474 1_555
Mn7 O7 2.000006 1_555
Mn8 O19 1.927066 1_555
Mn8 O9 1.970668 1_555
Mn8 O6 1.987360 1_555
Mn8 O21 2.017480 1_555
Mn8 O29 2.218029 1_555
Mn8 O1 2.258425 1_555
Mn9 O26 1.972156 1_555
Mn9 O30 1.978952 1_555
Mn9 O17 1.984118 1_555
Mn9 O12 1.986607 1_555
Mn9 O32 1.986823 1_555
Mn9 O8 1.999884 1_555
Mn10 O25 1.909647 1_555
Mn10 O11 1.913082 1_555
Mn10 O33 2.122298 1_555
Mn10 O5 2.138989 1_555
Mn10 O27 2.164702 1_555
Mn10 O15 2.173960 1_555
Mn11 O28 2.095043 1_545
Mn11 O10 2.125459 1_545
Mn11 O14 2.150782 1_555
Mn11 O0 2.169699 1_555
Mn11 O7 2.194771 1_555
Mn11 O16 2.247719 1_545
Mn12 O34 1.929838 1_555
Mn12 O35 1.968631 1_555
Mn12 O23 1.971193 1_555
Mn12 O13 2.037402 1_555
Mn12 O18 2.040469 1_555
Mn12 O31 2.059613 1_555
Mn13 O4 2.001918 1_565
Mn13 O0 2.003575 1_655
Mn13 O16 2.093235 1_555
Mn13 O22 2.097720 1_555
Mn13 O2 2.157446 1_655
Mn13 O14 2.164727 1_565
Mn14 O19 2.071735 1_555
Mn14 O32 2.078446 1_545
Mn14 O17 2.094686 1_545
Mn14 O1 2.156216 1_555
Mn14 O12 2.189052 1_555
Mn14 O21 2.390645 1_545
Mn15 O20 2.094408 1_455
Mn15 O24 2.122396 1_455
Mn15 O11 2.148837 1_556
Mn15 O15 2.171217 1_556
Mn15 O3 2.199166 1_555
Mn15 O33 2.269998 1_456
Mn16 O21 1.986385 1_555
Mn16 O6 1.994757 1_655
Mn16 O9 2.035227 1_565
Mn16 O1 2.035953 1_655
Mn16 O29 2.204701 1_555
Mn16 O19 2.230803 1_565
Mn17 O35 2.101047 1_545
Mn17 O23 2.145319 1_545
Mn17 O18 2.154498 1_555
Mn17 O25 2.163910 1_555
Mn17 O5 2.179526 1_555
Mn17 O27 2.238330 1_545
Mn18 O26 2.086967 1_455
Mn18 O30 2.129456 1_455
Mn18 O2 2.155417 1_555
Mn18 O4 2.164127 1_555
Mn18 O8 2.196792 1_555
Mn18 O22 2.256952 1_455
Mn19 O5 1.996989 1_655
Mn19 O15 1.999221 1_565
Mn19 O27 2.085688 1_555
Mn19 O33 2.103767 1_555
Mn19 O11 2.151622 1_655
Mn19 O25 2.170135 1_565
Mn20 O31 2.082406 1_455
Mn20 O34 2.136304 1_455
Mn20 O29 2.158421 1_455
Mn20 O9 2.169290 1_555
Mn20 O13 2.198212 1_555
Mn20 O6 2.278459 1_555
