# generated using pymatgen
data_Al5(BiSe4)3
_symmetry_space_group_name_H-M   'P 1'
_cell_length_a   7.91134700
_cell_length_b   7.91134700
_cell_length_c   37.76785300
_cell_angle_alpha   90.00000000
_cell_angle_beta   90.00000000
_cell_angle_gamma   90.00000000
_symmetry_Int_Tables_number   1
_chemical_formula_structural   Al5(BiSe4)3
_chemical_formula_sum   'Al20 Bi12 Se48'
_cell_volume   2363.86768739
_cell_formula_units_Z   4
loop_
 _symmetry_equiv_pos_site_id
 _symmetry_equiv_pos_as_xyz
  1  'x, y, z'
loop_
 _atom_site_type_symbol
 _atom_site_label
 _atom_site_symmetry_multiplicity
 _atom_site_fract_x
 _atom_site_fract_y
 _atom_site_fract_z
 _atom_site_occupancy
  Al  Al0  1  0.00000000  0.00000000  0.83294300  1
  Al  Al1  1  0.00000000  0.00000000  0.16705700  1
  Al  Al2  1  0.00000000  0.00000000  0.50000000  1
  Al  Al3  1  0.00000000  0.00000000  0.91709600  1
  Al  Al4  1  0.00000000  0.00000000  0.58290400  1
  Al  Al5  1  0.00000000  0.00000000  0.00000000  1
  Al  Al6  1  0.00000000  0.00000000  0.33294300  1
  Al  Al7  1  0.00000000  0.00000000  0.66705700  1
  Al  Al8  1  0.50000000  0.50000000  0.08264600  1
  Al  Al9  1  0.50000000  0.50000000  0.41735400  1
  Al  Al10  1  0.50000000  0.50000000  0.75000000  1
  Al  Al11  1  0.50000000  0.50000000  0.33303200  1
  Al  Al12  1  0.50000000  0.50000000  0.66696800  1
  Al  Al13  1  0.50000000  0.50000000  0.83303200  1
  Al  Al14  1  0.50000000  0.50000000  0.16696800  1
  Al  Al15  1  0.00000000  0.00000000  0.08290400  1
  Al  Al16  1  0.00000000  0.00000000  0.41709600  1
  Al  Al17  1  0.50000000  0.50000000  0.91735400  1
  Al  Al18  1  0.50000000  0.50000000  0.25000000  1
  Al  Al19  1  0.50000000  0.50000000  0.58264600  1
  Bi  Bi0  1  0.00000000  0.50000000  0.87485300  1
  Bi  Bi1  1  0.00000000  0.50000000  0.20868100  1
  Bi  Bi2  1  0.00000000  0.50000000  0.54167700  1
  Bi  Bi3  1  0.50000000  0.00000000  0.12514700  1
  Bi  Bi4  1  0.50000000  0.00000000  0.45832300  1
  Bi  Bi5  1  0.50000000  0.00000000  0.79131900  1
  Bi  Bi6  1  0.50000000  0.00000000  0.04167700  1
  Bi  Bi7  1  0.50000000  0.00000000  0.37485300  1
  Bi  Bi8  1  0.50000000  0.00000000  0.70868100  1
  Bi  Bi9  1  0.00000000  0.50000000  0.95832300  1
  Bi  Bi10  1  0.00000000  0.50000000  0.29131900  1
  Bi  Bi11  1  0.00000000  0.50000000  0.62514700  1
  Se  Se0  1  0.33731300  0.66828300  0.87457500  1
  Se  Se1  1  0.33683000  0.66870500  0.20851800  1
  Se  Se2  1  0.33428500  0.66122400  0.54220300  1
  Se  Se3  1  0.33877600  0.66571500  0.04220300  1
  Se  Se4  1  0.33171700  0.66268700  0.37457500  1
  Se  Se5  1  0.33129500  0.66317000  0.70851800  1
  Se  Se6  1  0.83692600  0.83116900  0.04160500  1
  Se  Se7  1  0.83693200  0.83252900  0.37563400  1
  Se  Se8  1  0.83332100  0.84142900  0.70777200  1
  Se  Se9  1  0.66268700  0.33171700  0.87457500  1
  Se  Se10  1  0.66317000  0.33129500  0.20851800  1
  Se  Se11  1  0.66571500  0.33877600  0.54220300  1
  Se  Se12  1  0.33171700  0.33731300  0.12542500  1
  Se  Se13  1  0.33877600  0.33428500  0.45779700  1
  Se  Se14  1  0.33129500  0.33683000  0.79148200  1
  Se  Se15  1  0.16883100  0.83692600  0.95839500  1
  Se  Se16  1  0.15857100  0.83332100  0.29222800  1
  Se  Se17  1  0.16747100  0.83693200  0.62436600  1
  Se  Se18  1  0.33428500  0.33877600  0.95779700  1
  Se  Se19  1  0.33683000  0.33129500  0.29148200  1
  Se  Se20  1  0.33731300  0.33171700  0.62542500  1
  Se  Se21  1  0.83252900  0.83693200  0.87563400  1
  Se  Se22  1  0.84142900  0.83332100  0.20777200  1
  Se  Se23  1  0.83116900  0.83692600  0.54160500  1
  Se  Se24  1  0.83116900  0.16307400  0.95839500  1
  Se  Se25  1  0.84142900  0.16667900  0.29222800  1
  Se  Se26  1  0.83252900  0.16306800  0.62436600  1
  Se  Se27  1  0.66828300  0.66268700  0.12542500  1
  Se  Se28  1  0.66122400  0.66571500  0.45779700  1
  Se  Se29  1  0.66870500  0.66317000  0.79148200  1
  Se  Se30  1  0.16747100  0.16306800  0.87563400  1
  Se  Se31  1  0.15857100  0.16667900  0.20777200  1
  Se  Se32  1  0.16883100  0.16307400  0.54160500  1
  Se  Se33  1  0.66122400  0.33428500  0.04220300  1
  Se  Se34  1  0.66828300  0.33731300  0.37457500  1
  Se  Se35  1  0.66870500  0.33683000  0.70851800  1
  Se  Se36  1  0.16307400  0.16883100  0.04160500  1
  Se  Se37  1  0.16306800  0.16747100  0.37563400  1
  Se  Se38  1  0.16667900  0.15857100  0.70777200  1
  Se  Se39  1  0.83693200  0.16747100  0.12436600  1
  Se  Se40  1  0.83692600  0.16883100  0.45839500  1
  Se  Se41  1  0.83332100  0.15857100  0.79222800  1
  Se  Se42  1  0.16306800  0.83252900  0.12436600  1
  Se  Se43  1  0.16307400  0.83116900  0.45839500  1
  Se  Se44  1  0.16667900  0.84142900  0.79222800  1
  Se  Se45  1  0.66571500  0.66122400  0.95779700  1
  Se  Se46  1  0.66317000  0.66870500  0.29148200  1
  Se  Se47  1  0.66268700  0.66828300  0.62542500  1
loop_
_geom_bond_atom_site_label_1
_geom_bond_atom_site_label_2
_geom_bond_distance
_geom_bond_site_symmetry_2
Al0 Se44 2.382693 1_545
Al0 Se41 2.382693 1_455
Al0 Se30 2.453448 1_555
Al0 Se21 2.453448 1_445
Al1 Se31 2.382693 1_555
Al1 Se22 2.382693 1_445
Al1 Se39 2.453448 1_455
Al1 Se42 2.453448 1_545
Al2 Se32 2.432606 1_555
Al2 Se40 2.432606 1_455
Al2 Se43 2.432606 1_545
Al2 Se23 2.432606 1_445
Al3 Se30 2.423196 1_555
Al3 Se21 2.423196 1_445
Al3 Se15 2.425157 1_545
Al3 Se24 2.425157 1_455
Al4 Se17 2.423196 1_545
Al4 Se26 2.423196 1_455
Al4 Se32 2.425157 1_555
Al4 Se23 2.425157 1_445
Al5 Se36 2.432606 1_555
Al5 Se6 2.432606 1_445
Al5 Se15 2.432606 1_544
Al5 Se24 2.432606 1_454
Al6 Se25 2.382693 1_455
Al6 Se16 2.382693 1_545
Al6 Se37 2.453448 1_555
Al6 Se7 2.453448 1_445
Al7 Se38 2.382693 1_555
Al7 Se8 2.382693 1_445
Al7 Se17 2.453448 1_545
Al7 Se26 2.453448 1_455
Al8 Se33 2.383020 1_555
Al8 Se3 2.383020 1_555
Al8 Se27 2.457525 1_555
Al8 Se12 2.457525 1_555
Al9 Se28 2.383020 1_555
Al9 Se13 2.383020 1_555
Al9 Se4 2.457525 1_555
Al9 Se34 2.457525 1_555
Al10 Se29 2.429464 1_555
Al10 Se14 2.429464 1_555
Al10 Se35 2.429464 1_555
Al10 Se5 2.429464 1_555
Al11 Se4 2.427090 1_555
Al11 Se34 2.427090 1_555
Al11 Se19 2.431121 1_555
Al11 Se46 2.431121 1_555
Al12 Se47 2.427090 1_555
Al12 Se20 2.427090 1_555
Al12 Se35 2.431121 1_555
Al12 Se5 2.431121 1_555
Al13 Se9 2.427090 1_555
Al13 Se0 2.427090 1_555
Al13 Se14 2.431121 1_555
Al13 Se29 2.431121 1_555
Al14 Se27 2.427090 1_555
Al14 Se12 2.427090 1_555
Al14 Se1 2.431121 1_555
Al14 Se10 2.431121 1_555
Al15 Se39 2.423196 1_455
Al15 Se42 2.423196 1_545
Al15 Se36 2.425157 1_555
Al15 Se6 2.425157 1_445
Al16 Se37 2.423196 1_555
Al16 Se7 2.423196 1_445
Al16 Se40 2.425157 1_455
Al16 Se43 2.425157 1_545
Al17 Se45 2.383020 1_555
Al17 Se18 2.383020 1_555
Al17 Se9 2.457525 1_555
Al17 Se0 2.457525 1_555
Al18 Se46 2.429464 1_555
Al18 Se19 2.429464 1_555
Al18 Se10 2.429464 1_555
Al18 Se1 2.429464 1_555
Al19 Se2 2.383020 1_555
Al19 Se11 2.383020 1_555
Al19 Se47 2.457525 1_555
Al19 Se20 2.457525 1_555
Bi0 Se30 2.976850 1_555
Bi0 Se21 2.976850 1_455
Bi0 Se0 2.982284 1_555
Bi0 Se9 2.982284 1_455
Bi1 Se22 2.920418 1_455
Bi1 Se31 2.920418 1_555
Bi1 Se10 2.980347 1_455
Bi1 Se1 2.980347 1_555
Bi2 Se2 2.936228 1_555
Bi2 Se11 2.936228 1_455
Bi2 Se32 2.981467 1_555
Bi2 Se23 2.981467 1_455
Bi3 Se39 2.976850 1_555
Bi3 Se42 2.976850 1_545
Bi3 Se12 2.982284 1_555
Bi3 Se27 2.982284 1_545
Bi4 Se28 2.936228 1_545
Bi4 Se13 2.936228 1_555
Bi4 Se40 2.981467 1_555
Bi4 Se43 2.981467 1_545
Bi5 Se44 2.920418 1_545
Bi5 Se41 2.920418 1_555
Bi5 Se29 2.980347 1_545
Bi5 Se14 2.980347 1_555
Bi6 Se33 2.936228 1_555
Bi6 Se3 2.936228 1_545
Bi6 Se36 2.981467 1_555
Bi6 Se6 2.981467 1_545
Bi7 Se37 2.976850 1_555
Bi7 Se7 2.976850 1_545
Bi7 Se34 2.982284 1_555
Bi7 Se4 2.982284 1_545
Bi8 Se8 2.920418 1_545
Bi8 Se38 2.920418 1_555
Bi8 Se5 2.980347 1_545
Bi8 Se35 2.980347 1_555
Bi9 Se45 2.936228 1_455
Bi9 Se18 2.936228 1_555
Bi9 Se15 2.981467 1_555
Bi9 Se24 2.981467 1_455
Bi10 Se16 2.920418 1_555
Bi10 Se25 2.920418 1_455
Bi10 Se46 2.980347 1_455
Bi10 Se19 2.980347 1_555
Bi11 Se17 2.976850 1_555
Bi11 Se26 2.976850 1_455
Bi11 Se20 2.982284 1_555
Bi11 Se47 2.982284 1_455
