# generated using pymatgen
data_BaBi4O7
_symmetry_space_group_name_H-M   'P 1'
_cell_length_a   7.86975547
_cell_length_b   7.86975547
_cell_length_c   13.36174000
_cell_angle_alpha   90.00000000
_cell_angle_beta   90.00000000
_cell_angle_gamma   119.99999550
_symmetry_Int_Tables_number   1
_chemical_formula_structural   BaBi4O7
_chemical_formula_sum   'Ba2 Bi8 O14'
_cell_volume   716.66491523
_cell_formula_units_Z   2
loop_
 _symmetry_equiv_pos_site_id
 _symmetry_equiv_pos_as_xyz
  1  'x, y, z'
loop_
 _atom_site_type_symbol
 _atom_site_label
 _atom_site_symmetry_multiplicity
 _atom_site_fract_x
 _atom_site_fract_y
 _atom_site_fract_z
 _atom_site_occupancy
  Ba  Ba0  1  0.66666700  0.33333300  0.40091400  1
  Ba  Ba1  1  0.33333300  0.66666700  0.90091400  1
  Bi  Bi0  1  0.83446200  0.16553800  0.19304200  1
  Bi  Bi1  1  0.66892500  0.83446200  0.69304200  1
  Bi  Bi2  1  0.16553800  0.33107500  0.69304200  1
  Bi  Bi3  1  0.83446200  0.66892500  0.19304200  1
  Bi  Bi4  1  0.33107500  0.16553800  0.19304200  1
  Bi  Bi5  1  0.16553800  0.83446200  0.69304200  1
  Bi  Bi6  1  0.00000000  0.00000000  0.46096800  1
  Bi  Bi7  1  0.00000000  0.00000000  0.96096800  1
  O  O0  1  0.85860200  0.14139800  0.03098100  1
  O  O1  1  0.71720300  0.85860200  0.53098100  1
  O  O2  1  0.14139800  0.28279700  0.53098100  1
  O  O3  1  0.85860200  0.71720300  0.03098100  1
  O  O4  1  0.28279700  0.14139800  0.03098100  1
  O  O5  1  0.14139800  0.85860200  0.53098100  1
  O  O6  1  0.00000000  0.00000000  0.74952100  1
  O  O7  1  0.00000000  0.00000000  0.24952100  1
  O  O8  1  0.53588600  0.46411400  0.25686000  1
  O  O9  1  0.07177200  0.53588600  0.75686000  1
  O  O10  1  0.46411400  0.92822800  0.75686000  1
  O  O11  1  0.53588600  0.07177200  0.25686000  1
  O  O12  1  0.46411400  0.53588600  0.75686000  1
  O  O13  1  0.92822800  0.46411400  0.25686000  1
loop_
_geom_bond_atom_site_label_1
_geom_bond_atom_site_label_2
_geom_bond_distance
_geom_bond_site_symmetry_2
Ba0 O13 2.623495 1_555
Ba0 O11 2.623495 1_555
Ba0 O8 2.623499 1_555
Ba1 O10 2.623495 1_555
Ba1 O9 2.623495 1_555
Ba1 O12 2.623499 1_555
Bi0 O0 2.190275 1_555
Bi0 O13 2.249209 1_555
Bi0 O11 2.249209 1_555
Bi0 O7 2.379271 1_655
Bi1 O1 2.190273 1_555
Bi1 O12 2.249210 1_555
Bi1 O10 2.249216 1_555
Bi1 O6 2.379265 1_665
Bi2 O2 2.190273 1_555
Bi2 O12 2.249210 1_555
Bi2 O9 2.249216 1_555
Bi2 O6 2.379265 1_555
Bi3 O3 2.190273 1_555
Bi3 O8 2.249210 1_555
Bi3 O13 2.249216 1_555
Bi3 O7 2.379265 1_665
Bi4 O4 2.190273 1_555
Bi4 O8 2.249210 1_555
Bi4 O11 2.249216 1_555
Bi4 O7 2.379265 1_555
Bi5 O5 2.190275 1_555
Bi5 O10 2.249209 1_555
Bi5 O9 2.249209 1_555
Bi5 O6 2.379271 1_565
Bi6 O5 2.142407 1_545
Bi6 O1 2.142413 1_445
Bi6 O2 2.142413 1_555
Bi6 O7 2.825300 1_555
Bi7 O0 2.142407 1_456
Bi7 O3 2.142413 1_446
Bi7 O4 2.142413 1_556
Bi7 O6 2.825300 1_555
