# generated using pymatgen
data_Dy2CO5
_symmetry_space_group_name_H-M   'P 1'
_cell_length_a   3.88759819
_cell_length_b   3.88759819
_cell_length_c   15.06431564
_cell_angle_alpha   90.00000000
_cell_angle_beta   90.00000000
_cell_angle_gamma   122.23129316
_symmetry_Int_Tables_number   1
_chemical_formula_structural   Dy2CO5
_chemical_formula_sum   'Dy4 C2 O10'
_cell_volume   192.58932087
_cell_formula_units_Z   2
loop_
 _symmetry_equiv_pos_site_id
 _symmetry_equiv_pos_as_xyz
  1  'x, y, z'
loop_
 _atom_site_type_symbol
 _atom_site_label
 _atom_site_symmetry_multiplicity
 _atom_site_fract_x
 _atom_site_fract_y
 _atom_site_fract_z
 _atom_site_occupancy
  Dy  Dy0  1  0.33541157  0.66458843  0.90677944  1
  Dy  Dy1  1  0.66458843  0.33541157  0.09322056  1
  Dy  Dy2  1  0.66458843  0.33541157  0.40677944  1
  Dy  Dy3  1  0.33541157  0.66458843  0.59322056  1
  C  C0  1  0.07380959  0.92619041  0.75000000  1
  C  C1  1  0.92619041  0.07380959  0.25000000  1
  O  O0  1  0.98516980  0.01483020  0.82596307  1
  O  O1  1  0.01483020  0.98516980  0.17403693  1
  O  O2  1  0.01483020  0.98516980  0.32596307  1
  O  O3  1  0.98516980  0.01483020  0.67403693  1
  O  O4  1  0.33619227  0.66380773  0.44248495  1
  O  O5  1  0.66380773  0.33619227  0.55751505  1
  O  O6  1  0.66380773  0.33619227  0.94248495  1
  O  O7  1  0.33619227  0.66380773  0.05751505  1
  O  O8  1  0.26069857  0.73930143  0.75000000  1
  O  O9  1  0.73930143  0.26069857  0.25000000  1
loop_
_geom_bond_atom_site_label_1
_geom_bond_atom_site_label_2
_geom_bond_distance
_geom_bond_site_symmetry_2
Dy0 O7 2.270735 1_556
Dy0 O6 2.276091 1_565
Dy0 O6 2.276091 1_455
Dy0 O6 2.299493 1_555
Dy0 O8 2.415926 1_555
Dy0 O0 2.459281 1_455
Dy0 O0 2.459281 1_565
Dy0 O0 2.677245 1_465
Dy1 O6 2.270735 1_554
Dy1 O7 2.276091 1_655
Dy1 O7 2.276091 1_545
Dy1 O7 2.299493 1_555
Dy1 O9 2.415926 1_555
Dy1 O1 2.459281 1_655
Dy1 O1 2.459281 1_545
Dy1 O1 2.677245 1_645
Dy2 O5 2.270735 1_555
Dy2 O4 2.276091 1_545
Dy2 O4 2.276091 1_655
Dy2 O4 2.299493 1_555
Dy2 O9 2.415926 1_555
Dy2 O2 2.459281 1_655
Dy2 O2 2.459281 1_545
Dy2 O2 2.677245 1_645
Dy3 O4 2.270735 1_555
Dy3 O5 2.276091 1_455
Dy3 O5 2.276091 1_565
Dy3 O5 2.299493 1_555
Dy3 O8 2.415926 1_555
Dy3 O3 2.459281 1_455
Dy3 O3 2.459281 1_565
Dy3 O3 2.677245 1_465
C0 O8 1.272328 1_555
C0 O3 1.293697 1_465
C0 O0 1.293697 1_465
C1 O9 1.272328 1_555
C1 O1 1.293697 1_645
C1 O2 1.293697 1_645
