# generated using pymatgen
data_K2AgSbI6
_symmetry_space_group_name_H-M   'P 1'
_cell_length_a   8.51164656
_cell_length_b   8.51164656
_cell_length_c   8.51164656
_cell_angle_alpha   60.00000000
_cell_angle_beta   60.00000000
_cell_angle_gamma   60.00000000
_symmetry_Int_Tables_number   1
_chemical_formula_structural   K2AgSbI6
_chemical_formula_sum   'K2 Ag1 Sb1 I6'
_cell_volume   436.03941317
_cell_formula_units_Z   1
loop_
 _symmetry_equiv_pos_site_id
 _symmetry_equiv_pos_as_xyz
  1  'x, y, z'
loop_
 _atom_site_type_symbol
 _atom_site_label
 _atom_site_symmetry_multiplicity
 _atom_site_fract_x
 _atom_site_fract_y
 _atom_site_fract_z
 _atom_site_occupancy
  K  K0  1  0.75000000  0.75000000  0.75000000  1
  K  K1  1  0.25000000  0.25000000  0.25000000  1
  Ag  Ag0  1  0.50000000  0.50000000  0.50000000  1
  Sb  Sb0  1  0.00000000  0.00000000  0.00000000  1
  I  I0  1  0.74846300  0.25153700  0.25153700  1
  I  I1  1  0.25153700  0.25153700  0.74846300  1
  I  I2  1  0.25153700  0.74846300  0.74846300  1
  I  I3  1  0.25153700  0.74846300  0.25153700  1
  I  I4  1  0.74846300  0.25153700  0.74846300  1
  I  I5  1  0.74846300  0.74846300  0.25153700  1
loop_
_geom_bond_atom_site_label_1
_geom_bond_atom_site_label_2
_geom_bond_distance
_geom_bond_site_symmetry_2
Ag0 I1 2.990820 1_555
Ag0 I4 2.990820 1_555
Ag0 I5 2.990820 1_555
Ag0 I2 2.990820 1_555
Ag0 I0 2.990820 1_555
Ag0 I3 2.990820 1_555
I0 Sb0 3.027823 1_655
I1 Sb0 3.027823 1_556
I2 Sb0 3.027823 1_566
I3 Sb0 3.027823 1_565
I4 Sb0 3.027823 1_656
I5 Sb0 3.027823 1_665
