# generated using pymatgen
data_InFe(CuSe2)2
_symmetry_space_group_name_H-M   'P 1'
_cell_length_a   6.98337491
_cell_length_b   6.98337491
_cell_length_c   6.98337491
_cell_angle_alpha   131.61972061
_cell_angle_beta   131.61972061
_cell_angle_gamma   70.83030403
_symmetry_Int_Tables_number   1
_chemical_formula_structural   InFe(CuSe2)2
_chemical_formula_sum   'In1 Fe1 Cu2 Se4'
_cell_volume   186.41123652
_cell_formula_units_Z   1
loop_
 _symmetry_equiv_pos_site_id
 _symmetry_equiv_pos_as_xyz
  1  'x, y, z'
loop_
 _atom_site_type_symbol
 _atom_site_label
 _atom_site_symmetry_multiplicity
 _atom_site_fract_x
 _atom_site_fract_y
 _atom_site_fract_z
 _atom_site_occupancy
  In  In0  1  0.50000000  0.50000000  0.00000000  1
  Fe  Fe0  1  0.00000000  0.00000000  0.00000000  1
  Cu  Cu0  1  0.25000000  0.75000000  0.50000000  1
  Cu  Cu1  1  0.75000000  0.25000000  0.50000000  1
  Se  Se0  1  0.09938900  0.09938900  0.46417900  1
  Se  Se1  1  0.63521000  0.63521000  0.53582100  1
  Se  Se2  1  0.90061100  0.36479000  0.00000000  1
  Se  Se3  1  0.36479000  0.90061100  0.00000000  1
loop_
_geom_bond_atom_site_label_1
_geom_bond_atom_site_label_2
_geom_bond_distance
_geom_bond_site_symmetry_2
In0 Se1 2.642613 1_555
In0 Se3 2.642613 1_555
In0 Se0 2.642613 1_554
In0 Se2 2.642613 1_555
Fe0 Se2 2.410421 1_455
Fe0 Se0 2.410421 1_555
Fe0 Se3 2.410421 1_545
Fe0 Se1 2.410421 1_444
Cu0 Se0 2.428563 1_565
Cu0 Se3 2.428563 1_556
Cu0 Se2 2.428563 1_455
Cu0 Se1 2.428563 1_555
Cu1 Se0 2.428563 1_655
Cu1 Se3 2.428563 1_545
Cu1 Se2 2.428563 1_556
Cu1 Se1 2.428563 1_555
