# generated using pymatgen
data_CdCu2Sn3S8
_symmetry_space_group_name_H-M   'P 1'
_cell_length_a   7.51231106
_cell_length_b   7.51231106
_cell_length_c   7.51231099
_cell_angle_alpha   59.93835661
_cell_angle_beta   59.93835661
_cell_angle_gamma   59.93835256
_symmetry_Int_Tables_number   1
_chemical_formula_structural   CdCu2Sn3S8
_chemical_formula_sum   'Cd1 Cu2 Sn3 S8'
_cell_volume   299.36294207
_cell_formula_units_Z   1
loop_
 _symmetry_equiv_pos_site_id
 _symmetry_equiv_pos_as_xyz
  1  'x, y, z'
loop_
 _atom_site_type_symbol
 _atom_site_label
 _atom_site_symmetry_multiplicity
 _atom_site_fract_x
 _atom_site_fract_y
 _atom_site_fract_z
 _atom_site_occupancy
  Cd  Cd0  1  0.50000000  0.50000000  0.50000000  1
  Cu  Cu0  1  0.88277900  0.88277900  0.88277900  1
  Cu  Cu1  1  0.11722100  0.11722100  0.11722100  1
  Sn  Sn0  1  0.50000000  0.00000000  0.50000000  1
  Sn  Sn1  1  0.50000000  0.50000000  0.00000000  1
  Sn  Sn2  1  0.00000000  0.50000000  0.50000000  1
  S  S0  1  0.24911500  0.24911500  0.73902800  1
  S  S1  1  0.73902800  0.24911500  0.24911500  1
  S  S2  1  0.75088500  0.26097200  0.75088500  1
  S  S3  1  0.75052200  0.75052200  0.75052200  1
  S  S4  1  0.75088500  0.75088500  0.26097200  1
  S  S5  1  0.26097200  0.75088500  0.75088500  1
  S  S6  1  0.24911500  0.73902800  0.24911500  1
  S  S7  1  0.24947800  0.24947800  0.24947800  1
loop_
_geom_bond_atom_site_label_1
_geom_bond_atom_site_label_2
_geom_bond_distance
_geom_bond_site_symmetry_2
Cd0 S5 2.665770 1_555
Cd0 S2 2.665770 1_555
Cd0 S6 2.665770 1_555
Cd0 S1 2.665770 1_555
Cd0 S4 2.665770 1_555
Cd0 S0 2.665770 1_555
Cu0 S5 2.319125 1_655
Cu0 S2 2.319125 1_565
Cu0 S4 2.319125 1_556
Cu0 S3 2.434838 1_555
Cu1 S6 2.319125 1_545
Cu1 S1 2.319125 1_455
Cu1 S0 2.319125 1_554
Cu1 S7 2.434838 1_555
S0 Sn2 2.592525 1_555
S0 Sn0 2.592525 1_555
S1 Sn1 2.592525 1_555
S1 Sn0 2.592525 1_555
S2 Sn1 2.592525 1_556
S2 Sn2 2.592525 1_655
S3 Sn2 2.660331 1_655
S3 Sn0 2.660331 1_565
S3 Sn1 2.660331 1_556
S4 Sn0 2.592525 1_565
S4 Sn2 2.592525 1_655
S5 Sn1 2.592525 1_556
S5 Sn0 2.592525 1_565
S6 Sn1 2.592525 1_555
S6 Sn2 2.592525 1_555
S7 Sn0 2.660331 1_555
S7 Sn2 2.660331 1_555
S7 Sn1 2.660331 1_555
