# generated using pymatgen
data_AlCdSbTe
_symmetry_space_group_name_H-M   'P 1'
_cell_length_a   7.91386298
_cell_length_b   7.91386298
_cell_length_c   7.91386316
_cell_angle_alpha   33.16934482
_cell_angle_beta   33.16934482
_cell_angle_gamma   33.16935001
_symmetry_Int_Tables_number   1
_chemical_formula_structural   AlCdSbTe
_chemical_formula_sum   'Al1 Cd1 Sb1 Te1'
_cell_volume   132.06596264
_cell_formula_units_Z   1
loop_
 _symmetry_equiv_pos_site_id
 _symmetry_equiv_pos_as_xyz
  1  'x, y, z'
loop_
 _atom_site_type_symbol
 _atom_site_label
 _atom_site_symmetry_multiplicity
 _atom_site_fract_x
 _atom_site_fract_y
 _atom_site_fract_z
 _atom_site_occupancy
  Al  Al0  1  0.49866600  0.49866600  0.49866600  1
  Cd  Cd0  1  0.00387600  0.00387600  0.00387600  1
  Sb  Sb0  1  0.12930000  0.12930000  0.12930000  1
  Te  Te0  1  0.61815700  0.61815700  0.61815700  1
loop_
_geom_bond_atom_site_label_1
_geom_bond_atom_site_label_2
_geom_bond_distance
_geom_bond_site_symmetry_2
Al0 Te0 2.678393 1_555
Al0 Sb0 2.730505 1_556
Al0 Sb0 2.730505 1_565
Al0 Sb0 2.730505 1_655
Cd0 Sb0 2.811382 1_555
Cd0 Te0 2.860442 1_445
Cd0 Te0 2.860442 1_454
Cd0 Te0 2.860442 1_544
