# generated using pymatgen
data_LiV3O4
_symmetry_space_group_name_H-M   'P 1'
_cell_length_a   5.29613539
_cell_length_b   6.03629553
_cell_length_c   5.30003472
_cell_angle_alpha   89.99997619
_cell_angle_beta   110.55590712
_cell_angle_gamma   89.99976383
_symmetry_Int_Tables_number   1
_chemical_formula_structural   LiV3O4
_chemical_formula_sum   'Li2 V6 O8'
_cell_volume   158.64896283
_cell_formula_units_Z   2
loop_
 _symmetry_equiv_pos_site_id
 _symmetry_equiv_pos_as_xyz
  1  'x, y, z'
loop_
 _atom_site_type_symbol
 _atom_site_label
 _atom_site_symmetry_multiplicity
 _atom_site_fract_x
 _atom_site_fract_y
 _atom_site_fract_z
 _atom_site_occupancy
  Li  Li0  1  0.00000700  0.00549500  0.00000500  1
  Li  Li1  1  0.49999900  0.49477200  0.50000100  1
  V  V0  1  0.00000100  0.50538700  0.00000100  1
  V  V1  1  0.50000200  0.99817400  0.50000200  1
  V  V2  1  0.50000300  0.25012800  0.00000200  1
  V  V3  1  0.49999200  0.74922900  0.99999500  1
  V  V4  1  0.99999300  0.25012600  0.49999300  1
  V  V5  1  0.00000200  0.74791700  0.50000000  1
  O  O0  1  0.73964100  0.24122200  0.74311200  1
  O  O1  1  0.25400100  0.75880800  0.26195400  1
  O  O2  1  0.26036300  0.24122200  0.25689500  1
  O  O3  1  0.74600600  0.75880700  0.73805000  1
  O  O4  1  0.24786900  0.99211000  0.73697200  1
  O  O5  1  0.75850100  0.50725100  0.25613400  1
  O  O6  1  0.24149600  0.50724700  0.74385700  1
  O  O7  1  0.75212600  0.99210200  0.26302600  1
loop_
_geom_bond_atom_site_label_1
_geom_bond_atom_site_label_2
_geom_bond_distance
_geom_bond_site_symmetry_2
Li0 O2 2.112203 1_555
Li0 O0 2.112224 1_454
Li0 O1 2.154727 1_545
Li0 O3 2.154768 1_444
Li0 O4 2.226731 1_544
Li0 O7 2.226762 1_445
Li1 O2 2.113053 1_555
Li1 O0 2.113068 1_555
Li1 O1 2.162185 1_555
Li1 O3 2.162212 1_555
Li1 O6 2.189294 1_555
Li1 O5 2.189338 1_555
O0 V1 2.067614 1_545
O0 V2 2.163530 1_556
O0 V4 2.193664 1_555
O0 V0 2.231460 1_656
O1 V1 2.054899 1_555
O1 V5 2.144184 1_555
O1 V0 2.183046 1_555
O1 V3 2.213251 1_554
O2 V1 2.067599 1_545
O2 V2 2.163552 1_555
O2 V4 2.193653 1_455
O2 V0 2.231466 1_555
O3 V1 2.054901 1_555
O3 V5 2.144188 1_655
O3 V0 2.183018 1_656
O3 V3 2.213288 1_555
O4 V5 2.077415 1_555
O4 V1 2.130632 1_555
O4 V3 2.137418 1_555
O4 V4 2.137452 1_465
O4 V2 2.201143 1_566
O5 V5 2.063006 1_655
O5 V3 2.132052 1_554
O5 V4 2.134092 1_555
O5 V0 2.167521 1_655
O5 V2 2.195663 1_555
O6 V5 2.062980 1_555
O6 V3 2.132046 1_555
O6 V4 2.134116 1_455
O6 V0 2.167548 1_556
O6 V2 2.195684 1_556
O7 V5 2.077396 1_655
O7 V1 2.130619 1_555
O7 V3 2.137435 1_554
O7 V4 2.137453 1_565
O7 V2 2.201133 1_565
