# generated using pymatgen
data_UFeAs2
_symmetry_space_group_name_H-M   'P 1'
_cell_length_a   3.96521325
_cell_length_b   3.96521325
_cell_length_c   9.55632733
_cell_angle_alpha   90.00000000
_cell_angle_beta   90.00000000
_cell_angle_gamma   90.00000000
_symmetry_Int_Tables_number   1
_chemical_formula_structural   UFeAs2
_chemical_formula_sum   'U2 Fe2 As4'
_cell_volume   150.25333301
_cell_formula_units_Z   2
loop_
 _symmetry_equiv_pos_site_id
 _symmetry_equiv_pos_as_xyz
  1  'x, y, z'
loop_
 _atom_site_type_symbol
 _atom_site_label
 _atom_site_symmetry_multiplicity
 _atom_site_fract_x
 _atom_site_fract_y
 _atom_site_fract_z
 _atom_site_occupancy
  U  U0  1  -0.00000000  0.50000000  0.76287515  1
  U  U1  1  0.50000000  -0.00000000  0.23712485  1
  Fe  Fe0  1  0.50000000  0.50000000  0.50000000  1
  Fe  Fe1  1  0.00000000  -0.00000000  0.50000000  1
  As  As0  1  0.50000000  0.50000000  -0.00000000  1
  As  As1  1  -0.00000000  -0.00000000  -0.00000000  1
  As  As2  1  0.00000000  0.50000000  0.33709983  1
  As  As3  1  0.50000000  0.00000000  0.66290017  1
loop_
_geom_bond_atom_site_label_1
_geom_bond_atom_site_label_2
_geom_bond_distance
_geom_bond_site_symmetry_2
Fe0 U0 3.200231 1_555
Fe0 U0 3.200231 1_655
Fe0 U1 3.200231 1_565
Fe0 U1 3.200231 1_555
Fe1 U0 3.200231 1_545
Fe1 U0 3.200231 1_555
Fe1 U1 3.200231 1_455
Fe1 U1 3.200231 1_555
As0 As1 2.803829 1_555
As0 As1 2.803829 1_655
As0 As1 2.803829 1_565
As0 As1 2.803829 1_665
As0 U0 3.010927 1_654
As0 U0 3.010927 1_554
As0 U1 3.010927 1_565
As0 U1 3.010927 1_555
As1 U0 3.010927 1_554
As1 U1 3.010927 1_455
As1 U0 3.010927 1_544
As1 U1 3.010927 1_555
As2 Fe0 2.520740 1_455
As2 Fe0 2.520740 1_555
As2 Fe1 2.520740 1_555
As2 Fe1 2.520740 1_565
As2 U1 2.962134 1_465
As2 U1 2.962134 1_555
As2 U1 2.962134 1_455
As2 U1 2.962134 1_565
As3 Fe0 2.520740 1_555
As3 Fe1 2.520740 1_555
As3 Fe1 2.520740 1_655
As3 Fe0 2.520740 1_545
As3 U0 2.962134 1_555
As3 U0 2.962134 1_645
As3 U0 2.962134 1_545
As3 U0 2.962134 1_655
