# generated using pymatgen
data_Sr2Li7CuN4
_symmetry_space_group_name_H-M   'P 1'
_cell_length_a   13.90759848
_cell_length_b   13.90759848
_cell_length_c   13.90759848
_cell_angle_alpha   164.52846823
_cell_angle_beta   164.06357095
_cell_angle_gamma   22.28182425
_symmetry_Int_Tables_number   1
_chemical_formula_structural   Sr2Li7CuN4
_chemical_formula_sum   'Sr2 Li7 Cu1 N4'
_cell_volume   196.99354164
_cell_formula_units_Z   1
loop_
 _symmetry_equiv_pos_site_id
 _symmetry_equiv_pos_as_xyz
  1  'x, y, z'
loop_
 _atom_site_type_symbol
 _atom_site_label
 _atom_site_symmetry_multiplicity
 _atom_site_fract_x
 _atom_site_fract_y
 _atom_site_fract_z
 _atom_site_occupancy
  Sr  Sr0  1  0.12480100  0.12480100  0.00000000  1
  Sr  Sr1  1  0.37443500  0.87443500  0.50000000  1
  Li  Li0  1  0.47980200  0.97980200  0.50000000  1
  Li  Li1  1  0.22795900  0.22795900  0.00000000  1
  Li  Li2  1  0.02252500  0.02252500  0.00000000  1
  Li  Li3  1  0.27135800  0.77135800  0.50000000  1
  Li  Li4  1  0.69627900  0.69627900  0.00000000  1
  Li  Li5  1  0.55287800  0.55287800  0.00000000  1
  Li  Li6  1  0.80345000  0.30345000  0.50000000  1
  Cu  Cu0  1  0.94537000  0.44537000  0.50000000  1
  N  N0  1  0.19300400  0.69300400  0.50000000  1
  N  N1  1  0.94334800  0.94334800  0.00000000  1
  N  N2  1  0.30698300  0.30698300  0.00000000  1
  N  N3  1  0.55780800  0.05780800  0.50000000  1
loop_
_geom_bond_atom_site_label_1
_geom_bond_atom_site_label_2
_geom_bond_distance
_geom_bond_site_symmetry_2
Li0 N3 2.128863 1_565
Li0 N1 2.169481 1_455
Li0 N1 2.169481 1_556
Li1 N0 2.101078 1_555
Li1 N0 2.101078 1_544
Li1 N2 2.156645 1_555
Li2 N3 2.155013 1_454
Li2 N3 2.155013 1_555
Li2 N1 2.160821 1_445
Li3 N2 2.109443 1_566
Li3 N2 2.109443 1_555
Li3 N0 2.138360 1_555
Li4 N0 1.929994 1_554
Li4 N0 1.929994 1_655
Li5 N3 1.876858 1_554
Li5 N3 1.876858 1_565
Li6 N2 1.930333 1_555
Li6 N2 1.930333 1_656
Cu0 N1 1.872842 1_545
Cu0 N1 1.872842 1_556
N0 Sr0 2.639894 1_555
N0 Sr0 2.639894 1_566
N1 Sr1 2.693314 1_655
N1 Sr1 2.693314 1_554
N2 Sr1 2.625483 1_555
N2 Sr1 2.625483 1_544
N3 Sr0 2.656990 1_656
N3 Sr0 2.656990 1_555
