# generated using pymatgen
data_U4Co2S2O27
_symmetry_space_group_name_H-M   'P 1'
_cell_length_a   8.37907410
_cell_length_b   8.37907410
_cell_length_c   17.84177343
_cell_angle_alpha   97.57599876
_cell_angle_beta   97.57599876
_cell_angle_gamma   116.96051126
_symmetry_Int_Tables_number   1
_chemical_formula_structural   U4Co2S2O27
_chemical_formula_sum   'U8 Co4 S4 O54'
_cell_volume   1080.42471586
_cell_formula_units_Z   2
loop_
 _symmetry_equiv_pos_site_id
 _symmetry_equiv_pos_as_xyz
  1  'x, y, z'
loop_
 _atom_site_type_symbol
 _atom_site_label
 _atom_site_symmetry_multiplicity
 _atom_site_fract_x
 _atom_site_fract_y
 _atom_site_fract_z
 _atom_site_occupancy
  U  U0  1  0.43640800  0.90187400  0.83414500  1
  U  U1  1  0.56359200  0.09812600  0.16585500  1
  U  U2  1  0.09812600  0.56359200  0.16585500  1
  U  U3  1  0.90187400  0.43640800  0.83414500  1
  U  U4  1  0.06381500  0.61299400  0.66485700  1
  U  U5  1  0.93618500  0.38700600  0.33514300  1
  U  U6  1  0.38700600  0.93618500  0.33514300  1
  U  U7  1  0.61299400  0.06381500  0.66485700  1
  Co  Co0  1  0.19453700  0.19453700  0.88860300  1
  Co  Co1  1  0.80546300  0.80546300  0.11139700  1
  Co  Co2  1  0.69543200  0.69543200  0.36300300  1
  Co  Co3  1  0.30456800  0.30456800  0.63699700  1
  S  S0  1  0.24616200  0.75383800  0.00000000  1
  S  S1  1  0.75383800  0.24616200  0.00000000  1
  S  S2  1  0.74670500  0.25329500  0.50000000  1
  S  S3  1  0.25329500  0.74670500  0.50000000  1
  O  O0  1  0.16492800  0.46558500  0.63407700  1
  O  O1  1  0.83507200  0.53441500  0.36592300  1
  O  O2  1  0.53441500  0.83507200  0.36592300  1
  O  O3  1  0.46558500  0.16492800  0.63407700  1
  O  O4  1  0.95490900  0.75222000  0.68276600  1
  O  O5  1  0.04509100  0.24778000  0.31723400  1
  O  O6  1  0.24778000  0.04509100  0.31723400  1
  O  O7  1  0.75222000  0.95490900  0.68276600  1
  O  O8  1  0.48898400  0.48898400  0.32039800  1
  O  O9  1  0.51101600  0.51101600  0.67960200  1
  O  O10  1  0.10030700  0.10030700  0.59772600  1
  O  O11  1  0.89969300  0.89969300  0.40227400  1
  O  O12  1  0.71086500  0.71086500  0.46348000  1
  O  O13  1  0.28913500  0.28913500  0.53652000  1
  O  O14  1  0.18144900  0.18144900  0.98108600  1
  O  O15  1  0.81855100  0.81855100  0.01891400  1
  O  O16  1  0.33678200  0.05770900  0.86009800  1
  O  O17  1  0.66321800  0.94229100  0.13990200  1
  O  O18  1  0.94229100  0.66321800  0.13990200  1
  O  O19  1  0.05770900  0.33678200  0.86009800  1
  O  O20  1  0.53914800  0.75643500  0.81769700  1
  O  O21  1  0.46085200  0.24356500  0.18230300  1
  O  O22  1  0.24356500  0.46085200  0.18230300  1
  O  O23  1  0.75643500  0.53914800  0.81769700  1
  O  O24  1  0.12608000  0.74239100  0.55159300  1
  O  O25  1  0.87392000  0.25760900  0.44840700  1
  O  O26  1  0.25760900  0.87392000  0.44840700  1
  O  O27  1  0.74239100  0.12608000  0.55159300  1
  O  O28  1  0.80999100  0.43738000  0.54926500  1
  O  O29  1  0.19000900  0.56262000  0.45073500  1
  O  O30  1  0.56262000  0.19000900  0.45073500  1
  O  O31  1  0.43738000  0.80999100  0.54926500  1
  O  O32  1  0.35634400  0.85622000  0.70703600  1
  O  O33  1  0.64365600  0.14378000  0.29296400  1
  O  O34  1  0.14378000  0.64365600  0.29296400  1
  O  O35  1  0.85622000  0.35634400  0.70703600  1
  O  O36  1  0.99715400  0.99715400  0.84294000  1
  O  O37  1  0.00284600  0.00284600  0.15706000  1
  O  O38  1  0.14613200  0.65688700  0.79240200  1
  O  O39  1  0.85386800  0.34311300  0.20759800  1
  O  O40  1  0.34311300  0.85386800  0.20759800  1
  O  O41  1  0.65688700  0.14613200  0.79240200  1
  O  O42  1  0.31973700  0.31973700  0.73737800  1
  O  O43  1  0.68026300  0.68026300  0.26262200  1
  O  O44  1  0.69332800  0.06496300  0.94838300  1
  O  O45  1  0.30667200  0.93503700  0.05161700  1
  O  O46  1  0.93503700  0.30667200  0.05161700  1
  O  O47  1  0.06496300  0.69332800  0.94838300  1
  O  O48  1  0.37859000  0.76641600  0.95008400  1
  O  O49  1  0.62141000  0.23358400  0.04991600  1
  O  O50  1  0.23358400  0.62141000  0.04991600  1
  O  O51  1  0.76641600  0.37859000  0.95008400  1
  O  O52  1  0.39865500  0.39865500  0.92114400  1
  O  O53  1  0.60134400  0.60134400  0.07885600  1
loop_
_geom_bond_atom_site_label_1
_geom_bond_atom_site_label_2
_geom_bond_distance
_geom_bond_site_symmetry_2
Co0 O14 1.682640 1_555
Co0 O36 1.715682 1_445
Co0 O52 1.735331 1_555
Co0 O19 2.058841 1_555
Co0 O16 2.058841 1_555
Co1 O15 1.682640 1_555
Co1 O37 1.715682 1_665
Co1 O53 1.735340 1_555
Co1 O17 2.058841 1_555
Co1 O18 2.058841 1_555
Co2 O11 1.749559 1_555
Co2 O43 1.762159 1_555
Co2 O12 1.763450 1_555
Co2 O8 1.776446 1_555
Co2 O1 2.150785 1_555
Co2 O2 2.150785 1_555
Co3 O10 1.749559 1_555
Co3 O42 1.762159 1_555
Co3 O13 1.763450 1_555
Co3 O9 1.776446 1_555
Co3 O0 2.150785 1_555
Co3 O3 2.150785 1_555
O0 U4 1.854103 1_555
O1 U5 1.854103 1_555
O2 U6 1.854103 1_555
O3 U7 1.854103 1_555
O4 U4 1.799891 1_655
O5 U5 1.799891 1_455
O6 U6 1.799891 1_545
O7 U7 1.799891 1_565
O16 U0 1.883378 1_545
O17 U1 1.883378 1_565
O18 U2 1.883378 1_655
O19 U3 1.883378 1_455
O20 U0 1.798856 1_555
O21 U1 1.798856 1_555
O22 U2 1.798856 1_555
O23 U3 1.798856 1_555
O24 S3 1.489109 1_555
O24 U4 2.423700 1_555
O25 S2 1.489109 1_555
O25 U5 2.423700 1_555
O26 S3 1.489109 1_555
O26 U6 2.423700 1_555
O27 S2 1.489109 1_555
O27 U7 2.423700 1_555
O28 S2 1.486915 1_555
O28 U4 2.479397 1_655
O29 S3 1.486915 1_555
O29 U5 2.479397 1_455
O30 S2 1.486915 1_555
O30 U6 2.479397 1_545
O31 S3 1.486915 1_555
O31 U7 2.479397 1_565
O32 U0 2.208373 1_555
O32 U4 2.303783 1_555
O32 U7 2.365726 1_565
O33 U1 2.208373 1_555
O33 U5 2.303783 1_555
O33 U6 2.365726 1_545
O34 U2 2.208373 1_555
O34 U6 2.303783 1_555
O34 U5 2.365726 1_455
O35 U3 2.208373 1_555
O35 U7 2.303783 1_555
O35 U4 2.365726 1_655
O38 U4 2.219215 1_555
O38 U0 2.297020 1_555
O38 U3 2.343648 1_455
O39 U5 2.219215 1_555
O39 U1 2.297020 1_555
O39 U2 2.343648 1_655
O40 U6 2.219215 1_555
O40 U2 2.297020 1_555
O40 U1 2.343648 1_565
O41 U7 2.219215 1_555
O41 U3 2.297020 1_555
O41 U0 2.343648 1_545
O44 S1 1.490148 1_556
O44 U0 2.469241 1_545
O45 S0 1.490148 1_555
O45 U1 2.469241 1_565
O46 S1 1.490148 1_555
O46 U2 2.469241 1_655
O47 S0 1.490148 1_556
O47 U3 2.469241 1_455
O48 S0 1.488223 1_556
O48 U0 2.487292 1_555
O49 S1 1.488223 1_555
O49 U1 2.487292 1_555
O50 S0 1.488223 1_555
O50 U2 2.487292 1_555
O51 S1 1.488223 1_556
O51 U3 2.487292 1_555
