# generated using pymatgen
data_TiS2
_symmetry_space_group_name_H-M   'P 1'
_cell_length_a   6.10479000
_cell_length_b   6.54411352
_cell_length_c   8.90829554
_cell_angle_alpha   111.05479480
_cell_angle_beta   84.37851355
_cell_angle_gamma   114.26620263
_symmetry_Int_Tables_number   1
_chemical_formula_structural   TiS2
_chemical_formula_sum   'Ti4 S8'
_cell_volume   302.26813987
_cell_formula_units_Z   4
loop_
 _symmetry_equiv_pos_site_id
 _symmetry_equiv_pos_as_xyz
  1  'x, y, z'
loop_
 _atom_site_type_symbol
 _atom_site_label
 _atom_site_symmetry_multiplicity
 _atom_site_fract_x
 _atom_site_fract_y
 _atom_site_fract_z
 _atom_site_occupancy
  Ti  Ti0  1  0.49977700  0.16894100  0.62706300  1
  Ti  Ti1  1  0.00000000  0.00000000  0.00000000  1
  Ti  Ti2  1  0.50022300  0.83105900  0.37293700  1
  Ti  Ti3  1  0.00000000  0.50000000  0.50000000  1
  S  S0  1  0.86762200  0.29760100  0.78333300  1
  S  S1  1  0.62468800  0.51845200  0.38716100  1
  S  S2  1  0.25051300  0.98745800  0.85079200  1
  S  S3  1  0.21213000  0.90582900  0.49690300  1
  S  S4  1  0.78787000  0.09417100  0.50309700  1
  S  S5  1  0.74948700  0.01254200  0.14920800  1
  S  S6  1  0.37531200  0.48154800  0.61283900  1
  S  S7  1  0.13237800  0.70239900  0.21666700  1
loop_
_geom_bond_atom_site_label_1
_geom_bond_atom_site_label_2
_geom_bond_distance
_geom_bond_site_symmetry_2
S0 Ti0 2.430188 1_555
S1 S6 2.421728 1_555
S1 Ti2 2.502241 1_555
S1 Ti3 2.653384 1_655
S2 Ti1 1.933616 1_566
S2 Ti0 2.705445 1_565
S3 Ti0 1.967723 1_565
S3 Ti2 2.119133 1_555
S3 Ti3 2.439213 1_555
S4 Ti2 1.967723 1_545
S4 Ti0 2.119133 1_555
S4 Ti3 2.439213 1_655
S5 Ti1 1.933616 1_655
S5 Ti2 2.705445 1_545
S6 Ti0 2.502241 1_555
S6 Ti3 2.653384 1_555
S7 Ti2 2.430188 1_555
