# generated using pymatgen
data_Ba6Ca2Ir3RuO18
_symmetry_space_group_name_H-M   'P 1'
_cell_length_a   5.97797097
_cell_length_b   5.97797097
_cell_length_c   14.65349000
_cell_angle_alpha   90.00000000
_cell_angle_beta   90.00000000
_cell_angle_gamma   120.00001071
_symmetry_Int_Tables_number   1
_chemical_formula_structural   Ba6Ca2Ir3RuO18
_chemical_formula_sum   'Ba6 Ca2 Ir3 Ru1 O18'
_cell_volume   453.50205582
_cell_formula_units_Z   1
loop_
 _symmetry_equiv_pos_site_id
 _symmetry_equiv_pos_as_xyz
  1  'x, y, z'
loop_
 _atom_site_type_symbol
 _atom_site_label
 _atom_site_symmetry_multiplicity
 _atom_site_fract_x
 _atom_site_fract_y
 _atom_site_fract_z
 _atom_site_occupancy
  Ba  Ba0  1  0.00000000  0.00000000  0.58998100  1
  Ba  Ba1  1  0.66666700  0.33333300  0.40927800  1
  Ba  Ba2  1  0.66666700  0.33333300  0.09080800  1
  Ba  Ba3  1  0.00000000  0.00000000  0.91112300  1
  Ba  Ba4  1  0.33333300  0.66666700  0.75002100  1
  Ba  Ba5  1  0.33333300  0.66666700  0.24948100  1
  Ca  Ca0  1  0.33333300  0.66666700  0.50031400  1
  Ca  Ca1  1  0.33333300  0.66666700  0.00056300  1
  Ir  Ir0  1  0.66666700  0.33333300  0.66296000  1
  Ir  Ir1  1  0.66666700  0.33333300  0.83696300  1
  Ir  Ir2  1  0.00000000  0.00000000  0.16494400  1
  Ru  Ru0  1  0.00000000  0.00000000  0.33745800  1
  O  O0  1  0.15414100  0.30828300  0.41007300  1
  O  O1  1  0.15414100  0.84585900  0.41007300  1
  O  O2  1  0.69171700  0.84585900  0.41007300  1
  O  O3  1  0.51200100  0.02400300  0.58764500  1
  O  O4  1  0.51200100  0.48799900  0.58764500  1
  O  O5  1  0.97599700  0.48799900  0.58764500  1
  O  O6  1  0.51201700  0.02403300  0.91183900  1
  O  O7  1  0.51201700  0.48798300  0.91183900  1
  O  O8  1  0.97596700  0.48798300  0.91183900  1
  O  O9  1  0.15440900  0.30881800  0.08928200  1
  O  O10  1  0.15440900  0.84559100  0.08928200  1
  O  O11  1  0.69118200  0.84559100  0.08928200  1
  O  O12  1  0.82265100  0.64530200  0.74996600  1
  O  O13  1  0.82265100  0.17734900  0.74996600  1
  O  O14  1  0.35469800  0.17734900  0.74996600  1
  O  O15  1  0.84306000  0.68611900  0.24988400  1
  O  O16  1  0.84306000  0.15694000  0.24988400  1
  O  O17  1  0.31388100  0.15694000  0.24988400  1
loop_
_geom_bond_atom_site_label_1
_geom_bond_atom_site_label_2
_geom_bond_distance
_geom_bond_site_symmetry_2
Ba0 O12 2.977904 1_445
Ba0 O14 2.977904 1_555
Ba0 O13 2.977904 1_455
Ba0 O5 2.991760 1_445
Ba0 O3 2.991760 1_555
Ba0 O4 2.991763 1_445
Ba0 O4 2.991763 1_555
Ba0 O3 2.991766 1_455
Ba0 O5 2.991766 1_455
Ba0 O1 3.081750 1_545
Ba0 O0 3.081753 1_555
Ba0 O2 3.081753 1_445
Ba1 O17 2.964984 1_555
Ba1 O15 2.964984 1_555
Ba1 O16 2.964984 1_555
Ba1 O2 2.991814 1_545
Ba1 O0 2.991814 1_655
Ba1 O1 2.991820 1_545
Ba1 O1 2.991820 1_655
Ba1 O2 2.991826 1_555
Ba1 O0 2.991826 1_555
Ba1 O5 3.065287 1_555
Ba1 O3 3.065287 1_555
Ba1 O4 3.065292 1_555
Ba2 O17 2.961314 1_555
Ba2 O15 2.961314 1_555
Ba2 O16 2.961314 1_555
Ba2 O9 2.991759 1_655
Ba2 O11 2.991759 1_545
Ba2 O10 2.991762 1_655
Ba2 O10 2.991762 1_545
Ba2 O11 2.991765 1_555
Ba2 O9 2.991765 1_555
Ba2 O8 3.072731 1_554
Ba2 O6 3.072731 1_554
Ba2 O7 3.072731 1_554
Ba3 O12 2.991443 1_445
Ba3 O14 2.991443 1_555
Ba3 O13 2.991443 1_455
Ba3 O8 2.991589 1_455
Ba3 O6 2.991589 1_455
Ba3 O7 2.991592 1_445
Ba3 O7 2.991592 1_555
Ba3 O8 2.991595 1_445
Ba3 O6 2.991595 1_555
Ba3 O11 3.061303 1_446
Ba3 O9 3.061303 1_556
Ba3 O10 3.061303 1_546
Ba4 O12 2.991028 1_455
Ba4 O14 2.991028 1_565
Ba4 O13 2.991031 1_565
Ba4 O13 2.991031 1_455
Ba4 O12 2.991034 1_555
Ba4 O14 2.991034 1_555
Ba4 O8 3.007572 1_455
Ba4 O6 3.007572 1_565
Ba4 O7 3.007579 1_555
Ba4 O5 3.013928 1_455
Ba4 O3 3.013928 1_565
Ba4 O4 3.013928 1_555
Ba5 O10 2.990449 1_555
Ba5 O11 2.990452 1_555
Ba5 O9 2.990452 1_555
Ba5 O15 2.990681 1_455
Ba5 O17 2.990681 1_565
Ba5 O16 2.990687 1_455
Ba5 O16 2.990687 1_565
Ba5 O15 2.990693 1_555
Ba5 O17 2.990693 1_555
Ba5 O2 2.996689 1_555
Ba5 O0 2.996689 1_555
Ba5 O1 2.996689 1_555
Ca0 O5 2.249439 1_455
Ca0 O3 2.249439 1_565
Ca0 O4 2.249439 1_555
Ca0 O0 2.278384 1_555
Ca0 O2 2.278384 1_555
Ca0 O1 2.278385 1_555
Ca1 O8 2.261241 1_454
Ca1 O6 2.261241 1_564
Ca1 O7 2.261250 1_554
Ca1 O10 2.263241 1_555
Ca1 O9 2.263245 1_555
Ca1 O11 2.263245 1_555
Ir0 O5 1.944879 1_555
Ir0 O3 1.944879 1_555
Ir0 O4 1.944888 1_555
Ir0 O13 2.057660 1_555
Ir0 O12 2.057664 1_555
Ir0 O14 2.057664 1_555
Ir1 O6 1.941108 1_555
Ir1 O8 1.941108 1_555
Ir1 O7 1.941108 1_555
Ir1 O13 2.057578 1_555
Ir1 O14 2.057582 1_555
Ir1 O12 2.057582 1_555
Ir2 O9 1.945590 1_555
Ir2 O11 1.945590 1_445
Ir2 O10 1.945590 1_545
Ir2 O16 2.046890 1_455
Ir2 O15 2.046894 1_445
Ir2 O17 2.046894 1_555
O0 Ru0 1.918192 1_555
O1 Ru0 1.918188 1_565
O2 Ru0 1.918192 1_665
O15 Ru0 2.070591 1_665
O16 Ru0 2.070587 1_655
O17 Ru0 2.070591 1_555
