# generated using pymatgen
data_AlH10C3N
_symmetry_space_group_name_H-M   'P 1'
_cell_length_a   7.60730955
_cell_length_b   7.60730955
_cell_length_c   10.92047470
_cell_angle_alpha   75.41885576
_cell_angle_beta   75.41885576
_cell_angle_gamma   96.54332081
_symmetry_Int_Tables_number   1
_chemical_formula_structural   AlH10C3N
_chemical_formula_sum   'Al4 H40 C12 N4'
_cell_volume   581.22038377
_cell_formula_units_Z   4
loop_
 _symmetry_equiv_pos_site_id
 _symmetry_equiv_pos_as_xyz
  1  'x, y, z'
loop_
 _atom_site_type_symbol
 _atom_site_label
 _atom_site_symmetry_multiplicity
 _atom_site_fract_x
 _atom_site_fract_y
 _atom_site_fract_z
 _atom_site_occupancy
  Al  Al0  1  0.01853500  0.91373200  0.13530800  1
  Al  Al1  1  0.08626800  0.98146500  0.36469200  1
  Al  Al2  1  0.98146500  0.08626800  0.86469200  1
  Al  Al3  1  0.91373200  0.01853500  0.63530800  1
  H  H0  1  0.84765600  0.95561900  0.07207500  1
  H  H1  1  0.04438100  0.15234400  0.42792500  1
  H  H2  1  0.15234400  0.04438100  0.92792500  1
  H  H3  1  0.95561900  0.84765600  0.57207500  1
  H  H4  1  0.12225200  0.74637700  0.11578800  1
  H  H5  1  0.25362300  0.87774800  0.38421200  1
  H  H6  1  0.87774800  0.25362300  0.88421200  1
  H  H7  1  0.74637700  0.12225200  0.61578800  1
  H  H8  1  0.64350900  0.85919600  0.47339900  1
  H  H9  1  0.14080400  0.35649100  0.02660100  1
  H  H10  1  0.35649100  0.14080400  0.52660100  1
  H  H11  1  0.85919600  0.64350900  0.97339900  1
  H  H12  1  0.60722600  0.85760700  0.31857700  1
  H  H13  1  0.14239300  0.39277400  0.18142300  1
  H  H14  1  0.39277400  0.14239300  0.68142300  1
  H  H15  1  0.85760700  0.60722600  0.81857700  1
  H  H16  1  0.73508700  0.05639900  0.33267100  1
  H  H17  1  0.94360100  0.26491300  0.16732900  1
  H  H18  1  0.26491300  0.94360100  0.66732900  1
  H  H19  1  0.05639900  0.73508700  0.83267100  1
  H  H20  1  0.98482700  0.58659300  0.37661100  1
  H  H21  1  0.41340700  0.01517300  0.12338900  1
  H  H22  1  0.01517300  0.41340700  0.62338900  1
  H  H23  1  0.58659300  0.98482700  0.87661100  1
  H  H24  1  0.79458900  0.60098600  0.50339100  1
  H  H25  1  0.39901400  0.20541100  0.99660900  1
  H  H26  1  0.20541100  0.39901400  0.49660900  1
  H  H27  1  0.60098600  0.79458900  0.00339100  1
  H  H28  1  0.77426800  0.53411000  0.23992400  1
  H  H29  1  0.46589000  0.22573200  0.26007600  1
  H  H30  1  0.22573200  0.46589000  0.76007600  1
  H  H31  1  0.53411000  0.77426800  0.73992400  1
  H  H32  1  0.58115500  0.55136300  0.36552300  1
  H  H33  1  0.44863700  0.41884500  0.13447700  1
  H  H34  1  0.41884500  0.44863700  0.63447700  1
  H  H35  1  0.55136300  0.58115500  0.86552300  1
  H  H36  1  0.70314700  0.36901400  0.39935400  1
  H  H37  1  0.63098600  0.29685300  0.10064600  1
  H  H38  1  0.29685300  0.63098600  0.60064600  1
  H  H39  1  0.36901400  0.70314700  0.89935400  1
  C  C0  1  0.70834300  0.90467300  0.36551100  1
  C  C1  1  0.09532700  0.29165700  0.13448900  1
  C  C2  1  0.29165700  0.09532700  0.63448900  1
  C  C3  1  0.90467300  0.70834300  0.86551100  1
  C  C4  1  0.85024900  0.63028400  0.39502400  1
  C  C5  1  0.36971600  0.14975100  0.10497600  1
  C  C6  1  0.14975100  0.36971600  0.60497600  1
  C  C7  1  0.63028400  0.85024900  0.89502400  1
  C  C8  1  0.71935900  0.51616800  0.34652200  1
  C  C9  1  0.48383200  0.28064100  0.15347800  1
  C  C10  1  0.28064100  0.48383200  0.65347800  1
  C  C11  1  0.51616800  0.71935900  0.84652200  1
  N  N0  1  0.16600700  0.11694700  0.16774000  1
  N  N1  1  0.88305300  0.83399300  0.33226000  1
  N  N2  1  0.83399300  0.88305300  0.83226000  1
  N  N3  1  0.11694700  0.16600700  0.66774000  1
loop_
_geom_bond_atom_site_label_1
_geom_bond_atom_site_label_2
_geom_bond_distance
_geom_bond_site_symmetry_2
Al0 H4 1.603030 1_555
Al0 H0 1.644315 1_455
Al0 N0 1.963252 1_565
Al0 N1 2.034862 1_455
Al0 H2 2.151352 1_564
Al1 H5 1.603030 1_555
Al1 H1 1.644315 1_565
Al1 N1 1.963252 1_455
Al1 N0 2.034862 1_565
Al1 H3 2.151352 1_455
Al2 H6 1.603030 1_555
Al2 H2 1.644315 1_655
Al2 N2 1.963252 1_545
Al2 N3 2.034862 1_655
Al2 H0 2.151352 1_546
Al3 H7 1.603030 1_555
Al3 H3 1.644315 1_545
Al3 N3 1.963252 1_655
Al3 N2 2.034862 1_545
Al3 H1 2.151352 1_655
C0 H16 1.097074 1_565
C0 H12 1.100340 1_555
C0 H8 1.101985 1_555
C0 N1 1.485117 1_555
C1 H17 1.097074 1_455
C1 H13 1.100340 1_555
C1 H9 1.101985 1_555
C1 N0 1.485117 1_555
C2 H18 1.097074 1_545
C2 H14 1.100340 1_555
C2 H10 1.101985 1_555
C2 N3 1.485117 1_555
C3 H19 1.097074 1_655
C3 H15 1.100340 1_555
C3 H11 1.101985 1_555
C3 N2 1.485117 1_555
C4 H20 1.098441 1_555
C4 H24 1.105818 1_555
C4 N1 1.491477 1_555
C5 H21 1.098441 1_555
C5 H25 1.105818 1_554
C5 N0 1.491477 1_555
C6 H22 1.098441 1_555
C6 H26 1.105818 1_555
C6 N3 1.491477 1_555
C7 H23 1.098441 1_555
C7 H27 1.105818 1_556
C7 N2 1.491477 1_555
C8 H32 1.096533 1_555
C8 H36 1.099434 1_555
C8 H28 1.100189 1_555
C9 H33 1.096533 1_555
C9 H37 1.099434 1_555
C9 H29 1.100189 1_555
C10 H34 1.096533 1_555
C10 H38 1.099434 1_555
C10 H30 1.100189 1_555
C11 H35 1.096533 1_555
C11 H39 1.099434 1_555
C11 H31 1.100189 1_555
