# generated using pymatgen
data_K2SnO3
_symmetry_space_group_name_H-M   'P 1'
_cell_length_a   5.76837279
_cell_length_b   7.03317834
_cell_length_c   10.33660401
_cell_angle_alpha   90.00000000
_cell_angle_beta   90.00000000
_cell_angle_gamma   90.00000000
_symmetry_Int_Tables_number   1
_chemical_formula_structural   K2SnO3
_chemical_formula_sum   'K8 Sn4 O12'
_cell_volume   419.35596849
_cell_formula_units_Z   4
loop_
 _symmetry_equiv_pos_site_id
 _symmetry_equiv_pos_as_xyz
  1  'x, y, z'
loop_
 _atom_site_type_symbol
 _atom_site_label
 _atom_site_symmetry_multiplicity
 _atom_site_fract_x
 _atom_site_fract_y
 _atom_site_fract_z
 _atom_site_occupancy
  K  K0  1  0.23407716  0.88716164  0.91243390  1
  K  K1  1  0.76592284  0.11283836  0.08756610  1
  K  K2  1  0.23407716  0.88716164  0.58756610  1
  K  K3  1  0.73407716  0.61283836  0.91243390  1
  K  K4  1  0.26592284  0.38716164  0.08756610  1
  K  K5  1  0.76592284  0.11283836  0.41243390  1
  K  K6  1  0.73407716  0.61283836  0.58756610  1
  K  K7  1  0.26592284  0.38716164  0.41243390  1
  Sn  Sn0  1  0.73013839  0.65946271  0.25000000  1
  Sn  Sn1  1  0.23013839  0.84053729  0.25000000  1
  Sn  Sn2  1  0.76986161  0.15946271  0.75000000  1
  Sn  Sn3  1  0.26986161  0.34053729  0.75000000  1
  O  O0  1  0.99119053  0.72555040  0.12032691  1
  O  O1  1  0.49119053  0.77444960  0.37967309  1
  O  O2  1  0.50880947  0.22555040  0.87967309  1
  O  O3  1  0.00880947  0.27444960  0.62032691  1
  O  O4  1  0.00880947  0.27444960  0.87967309  1
  O  O5  1  0.50880947  0.22555040  0.62032691  1
  O  O6  1  0.49119053  0.77444960  0.12032691  1
  O  O7  1  0.99119053  0.72555040  0.37967309  1
  O  O8  1  0.34381141  0.60897880  0.75000000  1
  O  O9  1  0.65618859  0.39102120  0.25000000  1
  O  O10  1  0.15618859  0.10897880  0.25000000  1
  O  O11  1  0.84381141  0.89102120  0.75000000  1
loop_
_geom_bond_atom_site_label_1
_geom_bond_atom_site_label_2
_geom_bond_distance
_geom_bond_site_symmetry_2
K0 O8 2.654749 1_555
K0 O6 2.728714 1_556
K0 O0 2.805838 1_456
K0 O11 2.808509 1_455
K0 O2 2.879286 1_565
K0 O4 3.036878 1_565
K1 O9 2.654749 1_555
K1 O2 2.728714 1_554
K1 O4 2.805838 1_654
K1 O10 2.808509 1_655
K1 O6 2.879286 1_545
K1 O0 3.036878 1_545
K2 O8 2.654749 1_555
K2 O1 2.728714 1_555
K2 O7 2.805838 1_455
K2 O11 2.808509 1_455
K2 O5 2.879286 1_565
K2 O3 3.036878 1_565
K3 O11 2.654749 1_555
K3 O0 2.728714 1_556
K3 O6 2.805838 1_556
K3 O8 2.808509 1_555
K3 O4 2.879286 1_655
K3 O2 3.036878 1_555
K4 O10 2.654749 1_555
K4 O4 2.728714 1_554
K4 O2 2.805838 1_554
K4 O9 2.808509 1_555
K4 O0 2.879286 1_455
K4 O6 3.036878 1_555
K5 O9 2.654749 1_555
K5 O5 2.728714 1_555
K5 O3 2.805838 1_655
K5 O10 2.808509 1_655
K5 O1 2.879286 1_545
K5 O7 3.036878 1_545
K6 O11 2.654749 1_555
K6 O7 2.728714 1_555
K6 O1 2.805838 1_555
K6 O8 2.808509 1_555
K6 O3 2.879286 1_655
K6 O5 3.036878 1_555
K7 O10 2.654749 1_555
K7 O3 2.728714 1_555
K7 O5 2.805838 1_555
K7 O9 2.808509 1_555
K7 O7 2.879286 1_455
K7 O1 3.036878 1_555
O0 Sn0 2.068873 1_555
O0 Sn1 2.085779 1_655
O1 Sn1 2.068873 1_555
O1 Sn0 2.085779 1_555
O2 Sn2 2.068873 1_555
O2 Sn3 2.085779 1_555
O3 Sn3 2.068873 1_555
O3 Sn2 2.085779 1_455
O4 Sn3 2.068873 1_555
O4 Sn2 2.085779 1_455
O5 Sn2 2.068873 1_555
O5 Sn3 2.085779 1_555
O6 Sn1 2.068873 1_555
O6 Sn0 2.085779 1_555
O7 Sn0 2.068873 1_555
O7 Sn1 2.085779 1_655
O8 Sn3 1.935586 1_555
O9 Sn0 1.935586 1_555
O10 Sn1 1.935586 1_545
O11 Sn2 1.935586 1_565
