# generated using pymatgen
data_TiCrAgS4
_symmetry_space_group_name_H-M   'P 1'
_cell_length_a   6.14018800
_cell_length_b   7.03619399
_cell_length_c   12.07312437
_cell_angle_alpha   90.30547202
_cell_angle_beta   90.34342675
_cell_angle_gamma   91.15070873
_symmetry_Int_Tables_number   1
_chemical_formula_structural   TiCrAgS4
_chemical_formula_sum   'Ti4 Cr4 Ag4 S16'
_cell_volume   521.47956685
_cell_formula_units_Z   4
loop_
 _symmetry_equiv_pos_site_id
 _symmetry_equiv_pos_as_xyz
  1  'x, y, z'
loop_
 _atom_site_type_symbol
 _atom_site_label
 _atom_site_symmetry_multiplicity
 _atom_site_fract_x
 _atom_site_fract_y
 _atom_site_fract_z
 _atom_site_occupancy
  Ti  Ti0  1  0.50000000  0.00000000  0.00000000  1
  Ti  Ti1  1  0.00000000  0.50000000  0.50000000  1
  Ti  Ti2  1  0.53339000  0.22844800  0.74714200  1
  Ti  Ti3  1  0.46661000  0.77155200  0.25285800  1
  Cr  Cr0  1  0.00000000  0.00000000  0.50000000  1
  Cr  Cr1  1  0.50000000  0.50000000  0.00000000  1
  Cr  Cr2  1  0.02461300  0.73527600  0.75528100  1
  Cr  Cr3  1  0.97538700  0.26472400  0.24471900  1
  Ag  Ag0  1  0.91888300  0.24551700  0.90549500  1
  Ag  Ag1  1  0.08111700  0.75448300  0.09450500  1
  Ag  Ag2  1  0.42658800  0.73597800  0.58738900  1
  Ag  Ag3  1  0.57341200  0.26402200  0.41261100  1
  S  S0  1  0.71893600  0.96843000  0.82564800  1
  S  S1  1  0.28106400  0.03157000  0.17435200  1
  S  S2  1  0.21713900  0.00506700  0.67242000  1
  S  S3  1  0.78286100  0.99493300  0.32758000  1
  S  S4  1  0.78653100  0.52525400  0.32771000  1
  S  S5  1  0.21346900  0.47474600  0.67229000  1
  S  S6  1  0.28784300  0.48786600  0.17492800  1
  S  S7  1  0.71215700  0.51213400  0.82507200  1
  S  S8  1  0.26919900  0.74331500  0.91135700  1
  S  S9  1  0.73080100  0.25668500  0.08864300  1
  S  S10  1  0.77266000  0.23887500  0.59281800  1
  S  S11  1  0.22734000  0.76112500  0.40718200  1
  S  S12  1  0.30757500  0.24824100  0.91389700  1
  S  S13  1  0.69242500  0.75175900  0.08610300  1
  S  S14  1  0.81529800  0.74978500  0.58921800  1
  S  S15  1  0.18470200  0.25021500  0.41078200  1
loop_
_geom_bond_atom_site_label_1
_geom_bond_atom_site_label_2
_geom_bond_distance
_geom_bond_site_symmetry_2
Cr0 S15 2.345351 1_555
Cr0 S14 2.345351 1_445
Cr0 S2 2.464991 1_555
Cr0 S3 2.464991 1_445
Cr0 S10 2.474310 1_455
Cr0 S11 2.474310 1_545
Cr1 S13 2.344388 1_555
Cr1 S12 2.344388 1_554
Cr1 S9 2.486656 1_555
Cr1 S8 2.486656 1_554
Cr1 S6 2.488965 1_555
Cr1 S7 2.488965 1_554
Cr2 S14 2.378746 1_455
Cr2 S8 2.402254 1_555
Cr2 S5 2.405982 1_555
Cr2 S2 2.438462 1_565
Cr2 S7 2.601611 1_455
Cr2 S0 2.657774 1_455
Cr3 S15 2.378746 1_655
Cr3 S9 2.402254 1_555
Cr3 S4 2.405982 1_555
Cr3 S3 2.438462 1_545
Cr3 S6 2.601611 1_655
Cr3 S1 2.657774 1_655
Ag0 S12 2.387877 1_655
Ag0 S0 2.471295 1_545
Ag0 S7 2.484657 1_555
Ag0 S9 2.502308 1_556
Ag1 S13 2.387877 1_455
Ag1 S1 2.471295 1_565
Ag1 S6 2.484657 1_555
Ag1 S8 2.502308 1_554
Ag2 S14 2.386744 1_555
Ag2 S5 2.466003 1_555
Ag2 S11 2.498491 1_555
Ag2 S2 2.526964 1_565
Ag3 S15 2.386744 1_555
Ag3 S4 2.466003 1_555
Ag3 S10 2.498491 1_555
Ag3 S3 2.526964 1_545
S0 Ti2 2.373351 1_565
S0 Ti0 2.515621 1_566
S1 Ti3 2.373351 1_545
S1 Ti0 2.515621 1_555
S2 Ti2 2.626077 1_555
S3 Ti3 2.626077 1_555
S4 Ti1 2.461088 1_655
S4 Ti3 2.794795 1_555
S5 Ti1 2.461088 1_555
S5 Ti2 2.794795 1_555
S6 Ti3 2.440075 1_555
S7 Ti2 2.440075 1_555
S8 Ti0 2.504800 1_566
S9 Ti0 2.504800 1_555
S10 Ti2 2.380163 1_555
S10 Ti1 2.552994 1_655
S11 Ti3 2.380163 1_555
S11 Ti1 2.552994 1_555
S12 Ti0 2.369603 1_556
S12 Ti2 2.456283 1_555
S13 Ti0 2.369603 1_565
S13 Ti3 2.456283 1_555
S14 Ti1 2.368517 1_655
S15 Ti1 2.368517 1_555
