# generated using pymatgen
data_CsAgBr3
_symmetry_space_group_name_H-M   'P 1'
_cell_length_a   5.49782500
_cell_length_b   5.49448200
_cell_length_c   5.49483242
_cell_angle_alpha   89.94623729
_cell_angle_beta   90.00000000
_cell_angle_gamma   90.00000000
_symmetry_Int_Tables_number   1
_chemical_formula_structural   CsAgBr3
_chemical_formula_sum   'Cs1 Ag1 Br3'
_cell_volume   165.98617895
_cell_formula_units_Z   1
loop_
 _symmetry_equiv_pos_site_id
 _symmetry_equiv_pos_as_xyz
  1  'x, y, z'
loop_
 _atom_site_type_symbol
 _atom_site_label
 _atom_site_symmetry_multiplicity
 _atom_site_fract_x
 _atom_site_fract_y
 _atom_site_fract_z
 _atom_site_occupancy
  Cs  Cs0  1  0.00000000  0.99853600  0.00598900  1
  Ag  Ag0  1  0.50000000  0.50466100  0.51526400  1
  Br  Br0  1  0.00000000  0.50528500  0.51303600  1
  Br  Br1  1  0.50000000  0.49702500  0.01515000  1
  Br  Br2  1  0.50000000  0.00449400  0.51056400  1
loop_
_geom_bond_atom_site_label_1
_geom_bond_atom_site_label_2
_geom_bond_distance
_geom_bond_site_symmetry_2
Ag0 Br2 2.746421 1_565
Ag0 Br1 2.747071 1_556
Ag0 Br2 2.748304 1_555
Ag0 Br1 2.748402 1_555
Ag0 Br0 2.748942 1_555
Ag0 Br0 2.748942 1_655
Br0 Cs0 3.833505 1_556
Br0 Cs0 3.882696 1_546
Br0 Cs0 3.885017 1_555
Br0 Cs0 3.940759 1_545
Br1 Cs0 3.880863 1_545
Br1 Cs0 3.880863 1_645
Br1 Cs0 3.892533 1_555
Br1 Cs0 3.892533 1_655
Br2 Cs0 3.868878 1_646
Br2 Cs0 3.868878 1_546
Br2 Cs0 3.904462 1_545
Br2 Cs0 3.904462 1_645
