# generated using pymatgen
data_NaLiEr2F8
_symmetry_space_group_name_H-M   'P 1'
_cell_length_a   6.71742755
_cell_length_b   6.71742755
_cell_length_c   7.08341200
_cell_angle_alpha   90.00000000
_cell_angle_beta   90.00000000
_cell_angle_gamma   103.19047019
_symmetry_Int_Tables_number   1
_chemical_formula_structural   NaLiEr2F8
_chemical_formula_sum   'Na2 Li2 Er4 F16'
_cell_volume   311.19784080
_cell_formula_units_Z   2
loop_
 _symmetry_equiv_pos_site_id
 _symmetry_equiv_pos_as_xyz
  1  'x, y, z'
loop_
 _atom_site_type_symbol
 _atom_site_label
 _atom_site_symmetry_multiplicity
 _atom_site_fract_x
 _atom_site_fract_y
 _atom_site_fract_z
 _atom_site_occupancy
  Na  Na0  1  0.65539300  0.65539300  0.25000000  1
  Na  Na1  1  0.34460700  0.34460700  0.75000000  1
  Li  Li0  1  0.00000000  0.00000000  0.00000000  1
  Li  Li1  1  0.00000000  0.00000000  0.50000000  1
  Er  Er0  1  0.07559800  0.45013700  0.25000000  1
  Er  Er1  1  0.92440200  0.54986300  0.75000000  1
  Er  Er2  1  0.45013700  0.07559800  0.25000000  1
  Er  Er3  1  0.54986300  0.92440200  0.75000000  1
  F  F0  1  0.08883100  0.08883100  0.25000000  1
  F  F1  1  0.91116900  0.91116900  0.75000000  1
  F  F2  1  0.93486700  0.65709300  0.05023800  1
  F  F3  1  0.06513300  0.34290700  0.94976200  1
  F  F4  1  0.65709300  0.93486700  0.44976200  1
  F  F5  1  0.34290700  0.06513300  0.55023800  1
  F  F6  1  0.38820000  0.38820000  0.25000000  1
  F  F7  1  0.61180000  0.61180000  0.75000000  1
  F  F8  1  0.74556300  0.30607500  0.25000000  1
  F  F9  1  0.25443700  0.69392500  0.75000000  1
  F  F10  1  0.30607500  0.74556300  0.25000000  1
  F  F11  1  0.69392500  0.25443700  0.75000000  1
  F  F12  1  0.06513300  0.34290700  0.55023800  1
  F  F13  1  0.93486700  0.65709300  0.44976200  1
  F  F14  1  0.34290700  0.06513300  0.94976200  1
  F  F15  1  0.65709300  0.93486700  0.05023800  1
loop_
_geom_bond_atom_site_label_1
_geom_bond_atom_site_label_2
_geom_bond_distance
_geom_bond_site_symmetry_2
Er0 F8 2.207350 1_455
Er0 F10 2.221041 1_555
Er0 F6 2.231889 1_555
Er0 F3 2.241333 1_554
Er0 F12 2.241333 1_555
Er0 F13 2.329889 1_455
Er0 F2 2.329889 1_455
Er0 F0 2.448861 1_555
Er1 F9 2.207350 1_655
Er1 F11 2.221041 1_555
Er1 F7 2.231889 1_555
Er1 F2 2.241333 1_556
Er1 F13 2.241333 1_555
Er1 F12 2.329889 1_655
Er1 F3 2.329889 1_655
Er1 F1 2.448861 1_555
Er2 F10 2.207350 1_545
Er2 F8 2.221041 1_555
Er2 F6 2.231889 1_555
Er2 F14 2.241333 1_554
Er2 F5 2.241333 1_555
Er2 F4 2.329889 1_545
Er2 F15 2.329889 1_545
Er2 F0 2.448861 1_555
Er3 F11 2.207350 1_565
Er3 F9 2.221041 1_555
Er3 F7 2.231889 1_555
Er3 F4 2.241333 1_555
Er3 F15 2.241333 1_556
Er3 F14 2.329889 1_565
Er3 F5 2.329889 1_565
Er3 F1 2.448861 1_555
F0 Li1 1.919781 1_555
F0 Li0 1.919781 1_555
F1 Li1 1.919781 1_665
F1 Li0 1.919781 1_666
F2 Li0 2.272446 1_665
F2 Na0 2.348828 1_555
F3 Li0 2.272446 1_556
F3 Na1 2.348828 1_555
F4 Li1 2.272446 1_665
F4 Na0 2.348828 1_555
F5 Li1 2.272446 1_555
F5 Na1 2.348828 1_555
F6 Na0 2.229968 1_555
F7 Na1 2.229968 1_555
F8 Na0 2.553760 1_555
F9 Na1 2.553760 1_555
F10 Na0 2.553760 1_555
F11 Na1 2.553760 1_555
F12 Li1 2.272446 1_555
F12 Na1 2.348828 1_555
F13 Li1 2.272446 1_665
F13 Na0 2.348828 1_555
F14 Li0 2.272446 1_556
F14 Na1 2.348828 1_555
F15 Li0 2.272446 1_665
F15 Na0 2.348828 1_555
