# generated using pymatgen
data_Li2VNiO4
_symmetry_space_group_name_H-M   'P 1'
_cell_length_a   5.13726225
_cell_length_b   5.93416679
_cell_length_c   5.92830392
_cell_angle_alpha   59.48700217
_cell_angle_beta   106.73540795
_cell_angle_gamma   106.87761168
_symmetry_Int_Tables_number   1
_chemical_formula_structural   Li2VNiO4
_chemical_formula_sum   'Li4 V2 Ni2 O8'
_cell_volume   146.81104898
_cell_formula_units_Z   2
loop_
 _symmetry_equiv_pos_site_id
 _symmetry_equiv_pos_as_xyz
  1  'x, y, z'
loop_
 _atom_site_type_symbol
 _atom_site_label
 _atom_site_symmetry_multiplicity
 _atom_site_fract_x
 _atom_site_fract_y
 _atom_site_fract_z
 _atom_site_occupancy
  Li  Li0  1  0.00002000  0.49132700  0.50865500  1
  Li  Li1  1  0.99996400  0.00867200  0.99135300  1
  Li  Li2  1  0.99570000  0.00147500  0.50132000  1
  Li  Li3  1  0.00428700  0.49853100  0.99869300  1
  V  V0  1  0.49998400  0.74999900  0.75001300  1
  V  V1  1  0.49998800  0.25000200  0.25000300  1
  Ni  Ni0  1  0.50017800  0.25001400  0.74993600  1
  Ni  Ni1  1  0.49994900  0.74998700  0.25000000  1
  O  O0  1  0.72752200  0.63120700  0.62773300  1
  O  O1  1  0.72697600  0.12746700  0.13144500  1
  O  O2  1  0.27246300  0.86878900  0.87228000  1
  O  O3  1  0.27301600  0.37253600  0.36856200  1
  O  O4  1  0.73082500  0.11572200  0.61582500  1
  O  O5  1  0.72304600  0.60896900  0.10870100  1
  O  O6  1  0.26915000  0.38427400  0.88418000  1
  O  O7  1  0.27693100  0.89102900  0.39130300  1
loop_
_geom_bond_atom_site_label_1
_geom_bond_atom_site_label_2
_geom_bond_distance
_geom_bond_site_symmetry_2
Li0 O4 2.135959 1_455
Li0 O6 2.138333 1_555
Li0 O0 2.232924 1_455
Li0 O3 2.234478 1_555
Li0 O7 2.251368 1_555
Li0 O5 2.255398 1_455
Li1 O6 2.135925 1_655
Li1 O4 2.138367 1_555
Li1 O2 2.232921 1_645
Li1 O1 2.234456 1_556
Li1 O5 2.251388 1_546
Li1 O7 2.255366 1_646
Li2 O4 2.075327 1_555
Li2 O0 2.110044 1_545
Li2 O1 2.112842 1_555
Li2 O7 2.113962 1_645
Li2 O3 2.135880 1_655
Li2 O2 2.137469 1_645
Li3 O6 2.075347 1_555
Li3 O2 2.109999 1_555
Li3 O3 2.112830 1_556
Li3 O5 2.113939 1_456
Li3 O1 2.135878 1_456
Li3 O0 2.137471 1_455
Ni0 O0 2.072422 1_555
Ni0 O2 2.073192 1_545
Ni0 O1 2.075053 1_556
Ni0 O3 2.075113 1_555
Ni0 O4 2.098893 1_555
Ni0 O6 2.100867 1_555
Ni1 O3 2.055989 1_555
Ni1 O1 2.056289 1_565
Ni1 O2 2.060391 1_554
Ni1 O0 2.060613 1_555
Ni1 O7 2.129870 1_555
Ni1 O5 2.130056 1_555
O0 V0 1.968297 1_555
O1 V1 1.966175 1_555
O2 V0 1.968163 1_555
O3 V1 1.966109 1_555
O4 V0 2.011196 1_545
O4 V1 2.014263 1_555
O5 V1 1.968725 1_555
O5 V0 1.970180 1_554
O6 V0 2.011188 1_555
O6 V1 2.014269 1_556
O7 V1 1.968747 1_565
O7 V0 1.970252 1_555
