# generated using pymatgen
data_MgMn8O13F3
_symmetry_space_group_name_H-M   'P 1'
_cell_length_a   7.29078833
_cell_length_b   5.78548283
_cell_length_c   6.55768696
_cell_angle_alpha   87.39394439
_cell_angle_beta   92.47491141
_cell_angle_gamma   83.24064970
_symmetry_Int_Tables_number   1
_chemical_formula_structural   MgMn8O13F3
_chemical_formula_sum   'Mg1 Mn8 O13 F3'
_cell_volume   274.07271751
_cell_formula_units_Z   1
loop_
 _symmetry_equiv_pos_site_id
 _symmetry_equiv_pos_as_xyz
  1  'x, y, z'
loop_
 _atom_site_type_symbol
 _atom_site_label
 _atom_site_symmetry_multiplicity
 _atom_site_fract_x
 _atom_site_fract_y
 _atom_site_fract_z
 _atom_site_occupancy
  Mg  Mg0  1  0.60914400  0.38907400  0.38919100  1
  Mn  Mn0  1  0.31905900  0.31205600  0.08818100  1
  Mn  Mn1  1  0.13056500  0.81388300  0.35802200  1
  Mn  Mn2  1  0.84619600  0.13258000  0.10488700  1
  Mn  Mn3  1  0.37410600  0.13171800  0.64789900  1
  Mn  Mn4  1  0.13414300  0.84885000  0.86563900  1
  Mn  Mn5  1  0.61936300  0.87491500  0.37331800  1
  Mn  Mn6  1  0.60709100  0.63470100  0.88547800  1
  Mn  Mn7  1  0.92668200  0.41759600  0.65829200  1
  O  O0  1  0.12245000  0.05548800  0.10475300  1
  O  O1  1  0.16770200  0.60625700  0.07440800  1
  O  O2  1  0.57592700  0.64521100  0.17470000  1
  O  O3  1  0.10066100  0.67133500  0.62779600  1
  O  O4  1  0.36393500  0.90930800  0.43552500  1
  O  O5  1  0.11070600  0.14097200  0.68669700  1
  O  O6  1  0.58122800  0.14241800  0.17605400  1
  O  O7  1  0.39297800  0.88662100  0.84959900  1
  O  O8  1  0.62319400  0.10106200  0.58065500  1
  O  O9  1  0.86900100  0.88166500  0.30730800  1
  O  O10  1  0.41449100  0.36799700  0.83142300  1
  O  O11  1  0.68000000  0.61487500  0.59433800  1
  O  O12  1  0.82449500  0.40075500  0.92080100  1
  F  F0  1  0.33075900  0.37457300  0.40820400  1
  F  F1  1  0.89111900  0.35447300  0.36273200  1
  F  F2  1  0.86500800  0.87494800  0.88409900  1
loop_
_geom_bond_atom_site_label_1
_geom_bond_atom_site_label_2
_geom_bond_distance
_geom_bond_site_symmetry_2
Mg0 O2 1.982319 1_555
Mg0 O11 2.010456 1_555
Mg0 O8 2.030247 1_555
Mg0 O6 2.063135 1_555
Mn0 O10 1.878418 1_554
Mn0 O1 1.912666 1_555
Mn0 O6 2.088217 1_555
Mn0 O0 2.183930 1_555
Mn1 O4 1.905253 1_555
Mn1 O9 1.912692 1_455
Mn1 O3 1.949444 1_555
Mn1 O0 2.115829 1_565
Mn1 O1 2.268341 1_555
Mn2 O12 1.909170 1_554
Mn2 O9 1.909422 1_545
Mn2 O6 2.001845 1_555
Mn2 O0 2.011042 1_655
Mn3 O8 1.877336 1_555
Mn3 O7 1.883338 1_545
Mn3 O10 1.901971 1_555
Mn3 O5 1.942870 1_555
Mn3 O4 1.943525 1_545
Mn4 O1 1.902499 1_556
Mn4 O3 1.928420 1_555
Mn4 O7 1.931872 1_555
Mn4 O5 1.999213 1_565
Mn4 O0 2.013267 1_566
Mn5 O9 1.893344 1_555
Mn5 O4 1.913066 1_555
Mn5 O8 1.930895 1_565
Mn5 O2 1.945169 1_555
Mn5 O6 1.957410 1_565
Mn5 O11 2.036994 1_555
Mn6 O2 1.922750 1_556
Mn6 O12 1.957737 1_555
Mn6 O7 2.004496 1_555
Mn6 O11 2.008480 1_555
Mn6 O10 2.234977 1_555
Mn7 O12 1.908022 1_555
Mn7 O5 1.960088 1_655
Mn7 O11 2.030103 1_555
Mn7 O3 2.058523 1_655
F0 Mn3 2.048519 1_555
F0 Mg0 2.050130 1_555
F0 Mn0 2.145482 1_555
F1 Mn7 2.000108 1_555
F1 Mg0 2.057587 1_555
F1 Mn2 2.205194 1_555
F2 Mn4 1.959628 1_655
F2 Mn2 2.121803 1_566
F2 Mn6 2.466492 1_555
