# generated using pymatgen
data_Lu
_symmetry_space_group_name_H-M   'P 1'
_cell_length_a   7.03610392
_cell_length_b   7.03610476
_cell_length_c   10.89216868
_cell_angle_alpha   90.00000000
_cell_angle_beta   90.00000000
_cell_angle_gamma   120.00000580
_symmetry_Int_Tables_number   1
_chemical_formula_structural   Lu
_chemical_formula_sum   Lu16
_cell_volume   466.99207107
_cell_formula_units_Z   16
loop_
 _symmetry_equiv_pos_site_id
 _symmetry_equiv_pos_as_xyz
  1  'x, y, z'
loop_
 _atom_site_type_symbol
 _atom_site_label
 _atom_site_symmetry_multiplicity
 _atom_site_fract_x
 _atom_site_fract_y
 _atom_site_fract_z
 _atom_site_occupancy
  Lu  Lu0_0  1  0.16666650  0.33333350  0.12500000  1
  Lu  Lu0_1  1  0.16666650  0.33333350  0.62500000  1
  Lu  Lu0_2  1  0.16666650  0.83333350  0.12500000  1
  Lu  Lu0_3  1  0.16666650  0.83333350  0.62500000  1
  Lu  Lu0_4  1  0.66666650  0.33333350  0.12500000  1
  Lu  Lu0_5  1  0.66666650  0.33333350  0.62500000  1
  Lu  Lu0_6  1  0.66666650  0.83333350  0.12500000  1
  Lu  Lu0_7  1  0.66666650  0.83333350  0.62500000  1
  Lu  Lu1_0  1  0.33333350  0.16666650  0.37500000  1
  Lu  Lu1_1  1  0.33333350  0.16666650  0.87500000  1
  Lu  Lu1_2  1  0.33333350  0.66666650  0.37500000  1
  Lu  Lu1_3  1  0.33333350  0.66666650  0.87500000  1
  Lu  Lu1_4  1  0.83333350  0.16666650  0.37500000  1
  Lu  Lu1_5  1  0.83333350  0.16666650  0.87500000  1
  Lu  Lu1_6  1  0.83333350  0.66666650  0.37500000  1
  Lu  Lu1_7  1  0.83333350  0.66666650  0.87500000  1
loop_
_geom_bond_atom_site_label_1
_geom_bond_atom_site_label_2
_geom_bond_distance
_geom_bond_site_symmetry_2
Lu0_0 Lu1_4 3.397133 1_455
Lu0_0 Lu1_5 3.397133 1_454
Lu0_0 Lu1_2 3.397133 1_555
Lu0_0 Lu1_3 3.397133 1_554
Lu0_0 Lu1_1 3.397137 1_554
Lu0_0 Lu1_0 3.397137 1_555
Lu0_0 Lu0_6 3.518052 1_445
Lu0_0 Lu0_6 3.518052 1_555
Lu0_0 Lu0_4 3.518052 1_555
Lu0_0 Lu0_4 3.518052 1_455
Lu0_0 Lu0_2 3.518052 1_555
Lu0_0 Lu0_2 3.518052 1_545
Lu0_1 Lu1_4 3.397133 1_455
Lu0_1 Lu1_5 3.397133 1_455
Lu0_1 Lu1_3 3.397133 1_555
Lu0_1 Lu1_2 3.397133 1_555
Lu0_1 Lu1_1 3.397137 1_555
Lu0_1 Lu1_0 3.397137 1_555
Lu0_1 Lu0_7 3.518052 1_445
Lu0_1 Lu0_7 3.518052 1_555
Lu0_1 Lu0_5 3.518052 1_555
Lu0_1 Lu0_5 3.518052 1_455
Lu0_1 Lu0_3 3.518052 1_555
Lu0_1 Lu0_3 3.518052 1_545
Lu0_2 Lu1_7 3.397133 1_454
Lu0_2 Lu1_6 3.397133 1_455
Lu0_2 Lu1_0 3.397133 1_565
Lu0_2 Lu1_1 3.397133 1_564
Lu0_2 Lu1_3 3.397137 1_554
Lu0_2 Lu1_2 3.397137 1_555
Lu0_2 Lu0_4 3.518052 1_455
Lu0_2 Lu0_4 3.518052 1_565
Lu0_2 Lu0_6 3.518052 1_555
Lu0_2 Lu0_6 3.518052 1_455
Lu0_3 Lu1_6 3.397133 1_455
Lu0_3 Lu1_7 3.397133 1_455
Lu0_3 Lu1_0 3.397133 1_565
Lu0_3 Lu1_1 3.397133 1_565
Lu0_3 Lu1_2 3.397137 1_555
Lu0_3 Lu1_3 3.397137 1_555
Lu0_3 Lu0_5 3.518052 1_455
Lu0_3 Lu0_5 3.518052 1_565
Lu0_3 Lu0_7 3.518052 1_555
Lu0_3 Lu0_7 3.518052 1_455
Lu0_4 Lu1_0 3.397133 1_555
Lu0_4 Lu1_1 3.397133 1_554
Lu0_4 Lu1_6 3.397133 1_555
Lu0_4 Lu1_7 3.397133 1_554
Lu0_4 Lu1_5 3.397137 1_554
Lu0_4 Lu1_4 3.397137 1_555
Lu0_4 Lu0_6 3.518052 1_545
Lu0_4 Lu0_6 3.518052 1_555
Lu0_5 Lu1_0 3.397133 1_555
Lu0_5 Lu1_1 3.397133 1_555
Lu0_5 Lu1_6 3.397133 1_555
Lu0_5 Lu1_7 3.397133 1_555
Lu0_5 Lu1_5 3.397137 1_555
Lu0_5 Lu1_4 3.397137 1_555
Lu0_5 Lu0_7 3.518052 1_545
Lu0_5 Lu0_7 3.518052 1_555
Lu0_6 Lu1_2 3.397133 1_555
Lu0_6 Lu1_3 3.397133 1_554
Lu0_6 Lu1_4 3.397133 1_565
Lu0_6 Lu1_5 3.397133 1_564
Lu0_6 Lu1_6 3.397137 1_555
Lu0_6 Lu1_7 3.397137 1_554
Lu0_7 Lu1_2 3.397133 1_555
Lu0_7 Lu1_3 3.397133 1_555
Lu0_7 Lu1_4 3.397133 1_565
Lu0_7 Lu1_5 3.397133 1_565
Lu0_7 Lu1_6 3.397137 1_555
Lu0_7 Lu1_7 3.397137 1_555
Lu1_0 Lu1_6 3.518052 1_555
Lu1_0 Lu1_6 3.518052 1_445
Lu1_0 Lu1_4 3.518052 1_455
Lu1_0 Lu1_4 3.518052 1_555
Lu1_0 Lu1_2 3.518052 1_555
Lu1_0 Lu1_2 3.518052 1_545
Lu1_1 Lu1_7 3.518052 1_555
Lu1_1 Lu1_7 3.518052 1_445
Lu1_1 Lu1_5 3.518052 1_455
Lu1_1 Lu1_5 3.518052 1_555
Lu1_1 Lu1_3 3.518052 1_555
Lu1_1 Lu1_3 3.518052 1_545
Lu1_2 Lu1_4 3.518052 1_455
Lu1_2 Lu1_4 3.518052 1_565
Lu1_2 Lu1_6 3.518052 1_455
Lu1_2 Lu1_6 3.518052 1_555
Lu1_3 Lu1_5 3.518052 1_455
Lu1_3 Lu1_5 3.518052 1_565
Lu1_3 Lu1_7 3.518052 1_455
Lu1_3 Lu1_7 3.518052 1_555
Lu1_4 Lu1_6 3.518052 1_545
Lu1_4 Lu1_6 3.518052 1_555
Lu1_5 Lu1_7 3.518052 1_555
Lu1_5 Lu1_7 3.518052 1_545
