# generated using pymatgen
data_Li3Mn2(P2O7)2
_symmetry_space_group_name_H-M   'P 1'
_cell_length_a   9.84090500
_cell_length_b   9.87131930
_cell_length_c   11.37008600
_cell_angle_alpha   89.88473707
_cell_angle_beta   76.49288380
_cell_angle_gamma   89.93528821
_symmetry_Int_Tables_number   1
_chemical_formula_structural   Li3Mn2(P2O7)2
_chemical_formula_sum   'Li12 Mn8 P16 O56'
_cell_volume   1073.96857101
_cell_formula_units_Z   4
loop_
 _symmetry_equiv_pos_site_id
 _symmetry_equiv_pos_as_xyz
  1  'x, y, z'
loop_
 _atom_site_type_symbol
 _atom_site_label
 _atom_site_symmetry_multiplicity
 _atom_site_fract_x
 _atom_site_fract_y
 _atom_site_fract_z
 _atom_site_occupancy
  Li  Li0  1  0.17329700  0.57679700  0.45484000  1
  Li  Li1  1  0.08621300  0.89422700  0.97315400  1
  Li  Li2  1  0.15086800  0.59417300  0.95708800  1
  Li  Li3  1  0.41293500  0.39024200  0.02796000  1
  Li  Li4  1  0.32969600  0.07668300  0.54386400  1
  Li  Li5  1  0.61506000  0.22086500  0.54935400  1
  Li  Li6  1  0.66308700  0.92110400  0.45907800  1
  Li  Li7  1  0.58822600  0.60375600  0.97097800  1
  Li  Li8  1  0.64987100  0.90810700  0.96124700  1
  Li  Li9  1  0.91105300  0.10893000  0.02936300  1
  Li  Li10  1  0.84042500  0.42120900  0.53966200  1
  Li  Li11  1  0.88752200  0.72148800  0.44819000  1
  Mn  Mn0  1  0.20324700  0.07627100  0.32664400  1
  Mn  Mn1  1  0.25720700  0.78687600  0.17708100  1
  Mn  Mn2  1  0.23667000  0.28241500  0.82891500  1
  Mn  Mn3  1  0.29967600  0.57458500  0.66804400  1
  Mn  Mn4  1  0.70462100  0.42181300  0.31930800  1
  Mn  Mn5  1  0.75053800  0.71557400  0.17700300  1
  Mn  Mn6  1  0.74475300  0.21811700  0.82834800  1
  Mn  Mn7  1  0.79827700  0.92392600  0.67479400  1
  P  P0  1  0.02382600  0.54860800  0.24278400  1
  P  P1  1  0.11988400  0.28910400  0.11478600  1
  P  P2  1  0.06134600  0.06865700  0.75656600  1
  P  P3  1  0.12339900  0.85098900  0.57178500  1
  P  P4  1  0.37974600  0.35005900  0.42402400  1
  P  P5  1  0.43695500  0.56818600  0.24220300  1
  P  P6  1  0.51934300  0.95418100  0.24797600  1
  P  P7  1  0.38040300  0.79201000  0.88980200  1
  P  P8  1  0.61823400  0.20857100  0.11172300  1
  P  P9  1  0.47389800  0.04984700  0.75791700  1
  P  P10  1  0.56044900  0.43023200  0.75612100  1
  P  P11  1  0.62223500  0.64624300  0.57658700  1
  P  P12  1  0.88058200  0.14694500  0.42000000  1
  P  P13  1  0.93705400  0.93020000  0.24254900  1
  P  P14  1  0.88082800  0.70854000  0.89186000  1
  P  P15  1  0.97834100  0.45444800  0.75249500  1
  O  O0  1  0.02401200  0.58677100  0.37160600  1
  O  O1  1  0.03321000  0.15146900  0.42927500  1
  O  O2  1  0.08310500  0.91408200  0.26872900  1
  O  O3  1  0.10825700  0.64433400  0.14536000  1
  O  O4  1  0.09638300  0.40375400  0.22177300  1
  O  O5  1  0.18691300  0.17407300  0.17191400  1
  O  O6  1  0.22435500  0.35755500  0.00313900  1
  O  O7  1  0.02052500  0.72704700  0.92264200  1
  O  O8  1  0.11746200  0.92226600  0.70133400  1
  O  O9  1  0.05842400  0.06079100  0.88982200  1
  O  O10  1  0.13140800  0.46802200  0.77904000  1
  O  O11  1  0.18315700  0.70986700  0.58437700  1
  O  O12  1  0.17329400  0.17402000  0.69633400  1
  O  O13  1  0.21451400  0.94428700  0.47760900  1
  O  O14  1  0.28857000  0.44103800  0.51919700  1
  O  O15  1  0.32626200  0.67125200  0.30543600  1
  O  O16  1  0.32266800  0.20789800  0.41518000  1
  O  O17  1  0.36456200  0.96598200  0.22924600  1
  O  O18  1  0.38282500  0.42008100  0.29521700  1
  O  O19  1  0.43974400  0.56169700  0.10871600  1
  O  O20  1  0.48313200  0.23418500  0.07745700  1
  O  O21  1  0.27071300  0.84773500  0.99962800  1
  O  O22  1  0.31995800  0.66888300  0.83686300  1
  O  O23  1  0.39843100  0.90509900  0.78256000  1
  O  O24  1  0.41367700  0.41530900  0.72983700  1
  O  O25  1  0.38889900  0.15267100  0.84673200  1
  O  O26  1  0.52440300  0.92071300  0.37474500  1
  O  O27  1  0.47054900  0.65253700  0.56570700  1
  O  O28  1  0.53380100  0.34166600  0.43626000  1
  O  O29  1  0.48220600  0.07957900  0.62559300  1
  O  O30  1  0.59935300  0.85963200  0.14732300  1
  O  O31  1  0.58141100  0.58780400  0.27176700  1
  O  O32  1  0.59111700  0.10000400  0.22231200  1
  O  O33  1  0.68461200  0.32668400  0.16460900  1
  O  O34  1  0.72357400  0.13749500  0.00407400  1
  O  O35  1  0.52113700  0.77279200  0.91839700  1
  O  O36  1  0.56382900  0.43228000  0.88783900  1
  O  O37  1  0.62164300  0.57673800  0.70530000  1
  O  O38  1  0.62263200  0.03667100  0.78577400  1
  O  O39  1  0.68545300  0.78759900  0.58220900  1
  O  O40  1  0.66417700  0.32320000  0.68683900  1
  O  O41  1  0.72237100  0.56160300  0.48005600  1
  O  O42  1  0.78116700  0.06331900  0.51780600  1
  O  O43  1  0.83328500  0.82449300  0.31363300  1
  O  O44  1  0.81782400  0.28911900  0.41644400  1
  O  O45  1  0.87127300  0.53774400  0.22342300  1
  O  O46  1  0.93265900  0.93151900  0.11088200  1
  O  O47  1  0.87765400  0.07751400  0.29268800  1
  O  O48  1  0.98420400  0.26251800  0.08300700  1
  O  O49  1  0.76981200  0.65073300  0.99931800  1
  O  O50  1  0.82064600  0.83369700  0.84118500  1
  O  O51  1  0.90317400  0.59982000  0.78261900  1
  O  O52  1  0.89969800  0.35194000  0.84404200  1
  O  O53  1  0.91734200  0.08967600  0.72687800  1
  O  O54  1  0.97214900  0.83853600  0.55734500  1
  O  O55  1  0.98247200  0.43168600  0.62197300  1
loop_
_geom_bond_atom_site_label_1
_geom_bond_atom_site_label_2
_geom_bond_distance
_geom_bond_site_symmetry_2
Li0 O0 1.926744 1_555
Li0 O11 1.994745 1_555
Li0 O14 1.999649 1_555
Li0 O15 2.196205 1_555
Li1 O7 1.910712 1_555
Li1 O46 1.940854 1_456
Li1 O9 1.946714 1_565
Li1 O21 1.962312 1_555
Li2 O7 1.935951 1_555
Li2 O22 2.029173 1_555
Li2 O3 2.141951 1_556
Li2 O10 2.424345 1_555
Li2 O6 2.533957 1_556
Li3 O20 1.828320 1_555
Li3 O36 1.951685 1_554
Li3 O6 1.968278 1_555
Li3 O19 1.974243 1_555
Li4 O29 1.941279 1_555
Li4 O16 1.965386 1_555
Li4 O13 1.991619 1_545
Li4 O12 2.248213 1_555
Li5 O29 1.968680 1_555
Li5 O40 2.014488 1_555
Li5 O28 2.046206 1_555
Li5 O42 2.223045 1_555
Li5 O44 2.304248 1_555
Li6 O26 1.842120 1_555
Li6 O39 1.970056 1_555
Li6 O42 2.033929 1_565
Li6 O43 2.271224 1_555
Li7 O19 1.920911 1_556
Li7 O35 1.937897 1_555
Li7 O49 1.945145 1_555
Li7 O36 1.982377 1_555
Li8 O35 1.980218 1_555
Li8 O50 2.038866 1_555
Li8 O30 2.111266 1_556
Li8 O38 2.429388 1_565
Li8 O34 2.462448 1_566
Li9 O48 1.843947 1_555
Li9 O9 1.942413 1_654
Li9 O34 1.952534 1_555
Li9 O46 2.013947 1_545
Li10 O55 1.858078 1_555
Li10 O44 1.966213 1_555
Li10 O41 2.022380 1_555
Li10 O40 2.320790 1_555
Li11 O0 1.945535 1_655
Li11 O43 2.008330 1_555
Li11 O54 2.014860 1_555
Li11 O41 2.234287 1_555
Li11 O39 2.299514 1_555
Mn0 O1 1.949682 1_555
Mn0 O17 2.027679 1_545
Mn0 O5 2.043999 1_555
Mn0 O16 2.155018 1_555
Mn0 O13 2.176150 1_545
Mn0 O2 2.183331 1_545
Mn1 O21 2.078351 1_554
Mn1 O15 2.085476 1_555
Mn1 O3 2.124191 1_555
Mn1 O2 2.182772 1_555
Mn1 O17 2.212451 1_555
Mn2 O25 2.015428 1_555
Mn2 O12 2.062398 1_555
Mn2 O6 2.093453 1_556
Mn2 O10 2.239969 1_555
Mn2 O24 2.259820 1_555
Mn3 O27 1.964421 1_555
Mn3 O10 2.112740 1_555
Mn3 O11 2.122285 1_555
Mn3 O24 2.141033 1_555
Mn3 O14 2.170197 1_555
Mn3 O22 2.185707 1_555
Mn4 O28 2.043180 1_555
Mn4 O33 2.045314 1_555
Mn4 O45 2.086106 1_555
Mn4 O44 2.177663 1_555
Mn4 O31 2.178371 1_555
Mn4 O41 2.331320 1_555
Mn5 O49 2.086426 1_554
Mn5 O30 2.139499 1_555
Mn5 O31 2.164114 1_555
Mn5 O43 2.198197 1_555
Mn5 O45 2.248609 1_555
Mn6 O52 2.057795 1_555
Mn6 O34 2.113845 1_556
Mn6 O40 2.209287 1_555
Mn6 O53 2.215612 1_555
Mn6 O38 2.273056 1_555
Mn6 O36 2.744363 1_555
Mn7 O54 2.086965 1_555
Mn7 O50 2.146695 1_555
Mn7 O39 2.169554 1_555
Mn7 O53 2.175550 1_565
Mn7 O38 2.191136 1_565
Mn7 O42 2.288625 1_565
O0 P0 1.513536 1_555
O1 P12 1.530776 1_455
O2 P13 1.542344 1_455
O3 P0 1.542056 1_555
O4 P0 1.590882 1_555
O4 P1 1.639396 1_555
O5 P1 1.530323 1_555
O6 P1 1.585394 1_555
O7 P14 1.507110 1_455
O8 P2 1.620931 1_565
O8 P3 1.622350 1_555
O9 P2 1.510517 1_555
O10 P15 1.609669 1_455
O11 P3 1.530889 1_555
O12 P2 1.552971 1_555
O13 P3 1.532372 1_555
O14 P4 1.526809 1_555
O15 P5 1.540524 1_555
O16 P4 1.524352 1_555
O17 P6 1.590611 1_555
O18 P4 1.612089 1_555
O18 P5 1.622570 1_555
O19 P5 1.513068 1_555
O20 P8 1.491368 1_555
O21 P7 1.548832 1_555
O22 P7 1.537929 1_555
O23 P9 1.604762 1_565
O23 P7 1.630466 1_555
O24 P10 1.549036 1_555
O25 P9 1.535353 1_555
O26 P6 1.490222 1_555
O27 P11 1.527553 1_555
O28 P4 1.556533 1_555
O29 P9 1.515673 1_555
O30 P6 1.543529 1_555
O31 P5 1.547736 1_555
O32 P6 1.600133 1_545
O32 P8 1.624593 1_555
O33 P8 1.528301 1_555
O34 P8 1.572931 1_555
O35 P7 1.506414 1_555
O36 P10 1.505938 1_555
O37 P11 1.613855 1_555
O37 P10 1.619913 1_555
O38 P9 1.573390 1_555
O39 P11 1.535929 1_555
O40 P10 1.550517 1_555
O41 P11 1.539606 1_555
O42 P12 1.537912 1_555
O43 P13 1.548657 1_555
O44 P12 1.536943 1_555
O45 P0 1.571171 1_655
O46 P13 1.507783 1_555
O47 P12 1.609188 1_555
O47 P13 1.620831 1_545
O48 P1 1.486194 1_655
O49 P14 1.545008 1_555
O50 P14 1.537530 1_555
O51 P15 1.613994 1_555
O51 P14 1.618684 1_555
O52 P15 1.525634 1_555
O53 P2 1.545238 1_655
O54 P3 1.540183 1_655
O55 P15 1.492538 1_555
