# generated using pymatgen
data_AlF3
_symmetry_space_group_name_H-M   'P 1'
_cell_length_a   9.88195484
_cell_length_b   11.00033513
_cell_length_c   11.26892653
_cell_angle_alpha   91.94034599
_cell_angle_beta   86.83712342
_cell_angle_gamma   88.91121090
_symmetry_Int_Tables_number   1
_chemical_formula_structural   AlF3
_chemical_formula_sum   'Al25 F75'
_cell_volume   1222.15190297
_cell_formula_units_Z   25
loop_
 _symmetry_equiv_pos_site_id
 _symmetry_equiv_pos_as_xyz
  1  'x, y, z'
loop_
 _atom_site_type_symbol
 _atom_site_label
 _atom_site_symmetry_multiplicity
 _atom_site_fract_x
 _atom_site_fract_y
 _atom_site_fract_z
 _atom_site_occupancy
  Al  Al0  1  0.76352700  0.91809900  0.25442700  1
  Al  Al1  1  0.29359300  0.16942100  0.83883600  1
  Al  Al2  1  0.86805800  0.59690700  0.96294600  1
  Al  Al3  1  0.45110100  0.16913200  0.55057300  1
  Al  Al4  1  0.14656000  0.34223800  0.37594600  1
  Al  Al5  1  0.27754400  0.42108400  0.65179400  1
  Al  Al6  1  0.85886200  0.15235800  0.07756900  1
  Al  Al7  1  0.21119200  0.63674000  0.42519600  1
  Al  Al8  1  0.97677000  0.68803300  0.67063100  1
  Al  Al9  1  0.79857700  0.03967600  0.52919800  1
  Al  Al10  1  0.96678600  0.08795200  0.77773300  1
  Al  Al11  1  0.62155700  0.13090200  0.85010000  1
  Al  Al12  1  0.06741900  0.03331400  0.30103000  1
  Al  Al13  1  0.55838100  0.85441300  0.68976600  1
  Al  Al14  1  0.48552500  0.45351800  0.33318200  1
  Al  Al15  1  0.29327700  0.92550400  0.50052800  1
  Al  Al16  1  0.89608900  0.34212000  0.60013300  1
  Al  Al17  1  0.10268100  0.38085900  0.04695700  1
  Al  Al18  1  0.60343600  0.58142100  0.86683300  1
  Al  Al19  1  0.66544500  0.58077800  0.56290700  1
  Al  Al20  1  0.41243100  0.95286000  0.19806500  1
  Al  Al21  1  0.77848500  0.58956700  0.25579000  1
  Al  Al22  1  0.58569900  0.21092100  0.26433600  1
  Al  Al23  1  0.20998700  0.86747200  0.79414700  1
  Al  Al24  1  0.29638200  0.65423000  0.99945000  1
  F  F0  1  0.99278400  0.11781000  0.18000900  1
  F  F1  1  0.29191400  0.31523600  0.77203400  1
  F  F2  1  0.55921800  0.98562000  0.80735700  1
  F  F3  1  0.40772800  0.90026700  0.05790500  1
  F  F4  1  0.74306100  0.62075600  0.41761800  1
  F  F5  1  0.70146600  0.16315400  0.98358700  1
  F  F6  1  0.20984700  0.93602200  0.64656600  1
  F  F7  1  0.95248000  0.91412800  0.25623000  1
  F  F8  1  0.80808900  0.20847500  0.55402800  1
  F  F9  1  0.92911700  0.25572900  0.73114100  1
  F  F10  1  0.40290500  0.12844200  0.70065300  1
  F  F11  1  0.46954300  0.17834500  0.39026400  1
  F  F12  1  0.22657300  0.50692700  0.02289400  1
  F  F13  1  0.22471200  0.99670300  0.21013200  1
  F  F14  1  0.92626400  0.07848900  0.40743700  1
  F  F15  1  0.13509500  0.14760200  0.76648500  1
  F  F16  1  0.20905000  0.77339900  0.93249900  1
  F  F17  1  0.18394300  0.32696900  0.55347600  1
  F  F18  1  0.36678000  0.57958400  0.33597900  1
  F  F19  1  0.70679600  0.93384100  0.62771600  1
  F  F20  1  0.77157700  0.50083200  0.85983700  1
  F  F21  1  0.90779800  0.49541700  0.28327300  1
  F  F22  1  0.45850900  0.92672600  0.57158100  1
  F  F23  1  0.60520400  0.54527700  0.25203700  1
  F  F24  1  0.14885300  0.18297000  0.34287300  1
  F  F25  1  0.94678700  0.04580600  0.62330500  1
  F  F26  1  0.14132200  0.36080200  0.19702100  1
  F  F27  1  0.78041300  0.74982800  0.23370800  1
  F  F28  1  0.63198600  0.75467200  0.78692200  1
  F  F29  1  0.24686000  0.52538400  0.76511700  1
  F  F30  1  0.75052600  0.42889000  0.56771200  1
  F  F31  1  0.44959100  0.17373500  0.91514300  1
  F  F32  1  0.19911500  0.25877800  0.97071500  1
  F  F33  1  0.04225900  0.94139700  0.82108900  1
  F  F34  1  0.92839300  0.83137000  0.64697000  1
  F  F35  1  0.47962200  0.10321400  0.18158700  1
  F  F36  1  0.30228900  0.09230700  0.51303700  1
  F  F37  1  0.15249200  0.72513300  0.31824700  1
  F  F38  1  0.34731200  0.68478400  0.13380400  1
  F  F39  1  0.96572000  0.69330300  0.04266800  1
  F  F40  1  0.68895200  0.07989000  0.30571300  1
  F  F41  1  0.95649600  0.11543800  0.94195600  1
  F  F42  1  0.94774900  0.29774700  0.06638100  1
  F  F43  1  0.00386600  0.47147400  0.95554400  1
  F  F44  1  0.29633500  0.76392000  0.49641000  1
  F  F45  1  0.53317500  0.46295300  0.94132800  1
  F  F46  1  0.62508000  0.33939400  0.36371100  1
  F  F47  1  0.58000100  0.54263600  0.70979400  1
  F  F48  1  0.38901100  0.92558200  0.35349300  1
  F  F49  1  0.62897000  0.24470700  0.75415400  1
  F  F50  1  0.53250600  0.51302100  0.48016200  1
  F  F51  1  0.49098100  0.33860900  0.20256000  1
  F  F52  1  0.58834100  0.89170800  0.21844300  1
  F  F53  1  0.78912800  0.06507500  0.79867100  1
  F  F54  1  0.61333400  0.10539000  0.53906300  1
  F  F55  1  0.43478800  0.65643000  0.89916700  1
  F  F56  1  0.12899900  0.49941100  0.37905300  1
  F  F57  1  0.97849300  0.33210200  0.44988000  1
  F  F58  1  0.43050500  0.32737100  0.58513400  1
  F  F59  1  0.79545000  0.99838900  0.11229600  1
  F  F60  1  0.74023000  0.23849500  0.17645000  1
  F  F61  1  0.76164100  0.91541800  0.41697000  1
  F  F62  1  0.38591700  0.82381200  0.75461900  1
  F  F63  1  0.81175700  0.63492400  0.63100900  1
  F  F64  1  0.32926500  0.36178800  0.36782300  1
  F  F65  1  0.06117200  0.65615500  0.52973500  1
  F  F66  1  0.28368600  0.53852000  0.54663000  1
  F  F67  1  0.93608000  0.65827700  0.82222600  1
  F  F68  1  0.69790900  0.67609700  0.96926600  1
  F  F69  1  0.14281600  0.73454400  0.72480100  1
  F  F70  1  0.27400600  0.00874700  0.87155900  1
  F  F71  1  0.79543500  0.53443700  0.10127100  1
  F  F72  1  0.57683100  0.72743800  0.57702900  1
  F  F73  1  0.98929100  0.46407200  0.65306100  1
  F  F74  1  0.13947800  0.95348900  0.42300300  1
loop_
_geom_bond_atom_site_label_1
_geom_bond_atom_site_label_2
_geom_bond_distance
_geom_bond_site_symmetry_2
Al0 F52 1.826003 1_555
Al0 F61 1.831993 1_555
Al0 F27 1.861019 1_555
Al0 F7 1.868153 1_555
Al0 F59 1.869637 1_555
Al0 F40 1.969298 1_565
Al1 F1 1.794982 1_555
Al1 F31 1.806763 1_555
Al1 F15 1.821402 1_555
Al1 F70 1.829384 1_555
Al1 F10 1.882341 1_555
Al1 F32 1.938957 1_555
Al2 F39 1.712592 1_556
Al2 F71 1.839803 1_556
Al2 F67 1.842375 1_555
Al2 F20 1.858337 1_555
Al2 F68 1.875622 1_555
Al2 F43 1.902996 1_655
Al3 F54 1.734024 1_555
Al3 F36 1.774065 1_555
Al3 F58 1.776221 1_555
Al3 F10 1.804981 1_555
Al3 F11 1.812107 1_555
Al4 F56 1.733337 1_555
Al4 F24 1.778277 1_555
Al4 F64 1.819958 1_555
Al4 F57 1.823616 1_455
Al4 F26 2.036864 1_555
Al4 F17 2.066137 1_555
Al5 F29 1.698220 1_555
Al5 F66 1.782039 1_555
Al5 F17 1.796308 1_555
Al5 F1 1.825829 1_555
Al5 F58 1.916983 1_555
Al6 F41 1.792100 1_554
Al6 F60 1.804415 1_555
Al6 F42 1.843940 1_555
Al6 F0 1.845979 1_555
Al6 F59 1.863499 1_545
Al6 F5 1.933449 1_554
Al7 F37 1.693968 1_555
Al7 F56 1.803398 1_555
Al7 F44 1.830960 1_555
Al7 F65 1.846453 1_555
Al7 F18 1.876146 1_555
Al7 F66 1.931857 1_555
Al8 F34 1.673224 1_555
Al8 F65 1.773304 1_655
Al8 F67 1.776014 1_555
Al8 F63 1.816198 1_555
Al8 F69 1.856909 1_655
Al9 F19 1.851238 1_545
Al9 F25 1.855949 1_555
Al9 F8 1.873327 1_555
Al9 F14 1.877823 1_555
Al9 F61 1.885168 1_545
Al9 F54 1.951328 1_555
Al10 F53 1.782207 1_555
Al10 F15 1.799104 1_655
Al10 F25 1.808100 1_555
Al10 F33 1.855222 1_645
Al10 F41 1.861912 1_555
Al10 F9 1.970168 1_555
Al11 F49 1.681672 1_555
Al11 F5 1.765729 1_555
Al11 F2 1.784269 1_545
Al11 F53 1.849983 1_555
Al11 F31 1.858980 1_555
Al12 F74 1.825750 1_545
Al12 F7 1.827281 1_445
Al12 F14 1.838265 1_455
Al12 F13 1.843923 1_545
Al12 F0 1.854339 1_455
Al12 F24 1.902569 1_555
Al13 F28 1.752268 1_555
Al13 F19 1.838547 1_555
Al13 F72 1.855472 1_555
Al13 F62 1.858228 1_555
Al13 F22 1.888780 1_555
Al13 F2 1.926485 1_555
Al14 F18 1.797827 1_555
Al14 F23 1.800619 1_555
Al14 F50 1.846705 1_555
Al14 F64 1.890602 1_555
Al14 F46 1.900539 1_555
Al14 F51 1.905268 1_555
Al15 F44 1.776151 1_555
Al15 F6 1.798657 1_555
Al15 F74 1.820668 1_555
Al15 F36 1.839755 1_565
Al15 F22 1.857887 1_555
Al15 F48 1.862136 1_555
Al16 F73 1.748446 1_555
Al16 F30 1.772881 1_555
Al16 F8 1.798386 1_555
Al16 F9 1.823612 1_555
Al16 F57 1.836831 1_555
Al17 F26 1.774117 1_555
Al17 F43 1.775339 1_554
Al17 F32 1.797955 1_554
Al17 F42 1.804884 1_455
Al17 F12 1.883871 1_555
Al18 F45 1.711505 1_555
Al18 F68 1.833879 1_555
Al18 F47 1.834451 1_555
Al18 F55 1.857802 1_555
Al18 F20 1.864867 1_555
Al18 F28 2.152041 1_555
Al19 F63 1.777195 1_555
Al19 F50 1.810007 1_555
Al19 F72 1.818915 1_555
Al19 F4 1.839913 1_555
Al19 F30 1.859898 1_555
Al19 F47 1.880193 1_555
Al20 F3 1.666968 1_555
Al20 F48 1.790217 1_555
Al20 F35 1.805494 1_565
Al20 F52 1.880725 1_555
Al20 F13 1.904194 1_555
Al21 F21 1.678270 1_555
Al21 F27 1.789036 1_555
Al21 F23 1.791541 1_555
Al21 F71 1.822163 1_555
Al21 F4 1.857012 1_555
Al22 F60 1.809932 1_555
Al22 F11 1.824845 1_555
Al22 F46 1.834283 1_555
Al22 F40 1.837993 1_555
Al22 F51 1.849812 1_555
Al22 F35 1.858062 1_555
Al23 F69 1.790588 1_555
Al23 F62 1.822059 1_555
Al23 F33 1.837727 1_555
Al23 F6 1.849216 1_555
Al23 F70 1.892833 1_565
Al23 F16 1.899926 1_555
Al24 F38 1.647602 1_556
Al24 F55 1.726524 1_555
Al24 F16 1.768698 1_555
Al24 F12 1.795184 1_556
