# generated using pymatgen
data_Zr9Pd11
_symmetry_space_group_name_H-M   'P 1'
_cell_length_a   8.10402947
_cell_length_b   8.10402947
_cell_length_c   8.10402947
_cell_angle_alpha   100.18007797
_cell_angle_beta   100.18007797
_cell_angle_gamma   130.27935724
_symmetry_Int_Tables_number   1
_chemical_formula_structural   Zr9Pd11
_chemical_formula_sum   'Zr9 Pd11'
_cell_volume   368.41664044
_cell_formula_units_Z   1
loop_
 _symmetry_equiv_pos_site_id
 _symmetry_equiv_pos_as_xyz
  1  'x, y, z'
loop_
 _atom_site_type_symbol
 _atom_site_label
 _atom_site_symmetry_multiplicity
 _atom_site_fract_x
 _atom_site_fract_y
 _atom_site_fract_z
 _atom_site_occupancy
  Zr  Zr0  1  0.24424957  0.41598376  0.66023334  1
  Zr  Zr1  1  0.75575043  0.58401624  0.33976666  1
  Zr  Zr2  1  0.58401624  0.24424957  0.82826681  1
  Zr  Zr3  1  0.41598376  0.75575043  0.17173319  1
  Zr  Zr4  1  0.30790783  0.09394166  0.40184950  1
  Zr  Zr5  1  0.69209217  0.90605834  0.59815050  1
  Zr  Zr6  1  0.90605834  0.30790783  0.21396617  1
  Zr  Zr7  1  0.09394166  0.69209217  0.78603383  1
  Zr  Zr8  1  0.00000000  0.00000000  0.00000000  1
  Pd  Pd0  1  0.32528408  0.43641408  0.33986168  1
  Pd  Pd1  1  0.67471592  0.56358592  0.66013832  1
  Pd  Pd2  1  0.09655240  0.98542141  0.66013832  1
  Pd  Pd3  1  0.98542141  0.32528408  0.88887001  1
  Pd  Pd4  1  0.90344760  0.01457859  0.33986168  1
  Pd  Pd5  1  0.01457859  0.67471592  0.11112999  1
  Pd  Pd6  1  0.43641408  0.09655240  0.11112999  1
  Pd  Pd7  1  0.56358592  0.90344760  0.88887001  1
  Pd  Pd8  1  0.25000000  0.75000000  0.50000000  1
  Pd  Pd9  1  0.75000000  0.25000000  0.50000000  1
  Pd  Pd10  1  0.50000000  0.50000000  0.00000000  1
loop_
_geom_bond_atom_site_label_1
_geom_bond_atom_site_label_2
_geom_bond_distance
_geom_bond_site_symmetry_2
Pd0 Zr6 2.737182 1_455
Pd0 Zr0 2.795266 1_555
Pd0 Zr4 2.826228 1_555
Pd0 Zr5 2.838823 1_555
Pd0 Zr1 2.864644 1_555
Pd0 Zr3 2.869641 1_555
Pd0 Zr8 2.996397 1_555
Pd1 Zr7 2.737182 1_655
Pd1 Zr1 2.795266 1_555
Pd1 Zr5 2.826228 1_555
Pd1 Zr4 2.838823 1_555
Pd1 Zr0 2.864644 1_555
Pd1 Zr2 2.869641 1_555
Pd1 Zr8 2.996397 1_666
Pd2 Zr7 2.737175 1_555
Pd2 Zr1 2.795263 1_455
Pd2 Zr5 2.826232 1_455
Pd2 Zr4 2.838824 1_565
Pd2 Zr0 2.864652 1_565
Pd2 Zr2 2.869635 1_565
Pd2 Zr8 2.996398 1_566
Pd3 Zr5 2.737183 1_545
Pd3 Zr2 2.795258 1_555
Pd3 Zr6 2.826225 1_556
Pd3 Zr7 2.838821 1_655
Pd3 Zr3 2.864643 1_656
Pd3 Zr0 2.869641 1_655
Pd3 Zr8 2.996402 1_656
Pd4 Zr6 2.737175 1_555
Pd4 Zr0 2.795263 1_655
Pd4 Zr4 2.826232 1_655
Pd4 Zr5 2.838824 1_545
Pd4 Zr1 2.864652 1_545
Pd4 Zr3 2.869635 1_545
Pd4 Zr8 2.996398 1_655
Pd5 Zr4 2.737183 1_565
Pd5 Zr3 2.795258 1_555
Pd5 Zr7 2.826225 1_554
Pd5 Zr6 2.838821 1_455
Pd5 Zr2 2.864643 1_454
Pd5 Zr1 2.869641 1_455
Pd5 Zr8 2.996402 1_565
Pd6 Zr4 2.737182 1_555
Pd6 Zr3 2.795263 1_545
Pd6 Zr7 2.826228 1_544
Pd6 Zr6 2.838823 1_555
Pd6 Zr2 2.864636 1_554
Pd6 Zr1 2.869636 1_555
Pd6 Zr8 2.996397 1_555
Pd7 Zr5 2.737182 1_555
Pd7 Zr2 2.795263 1_565
Pd7 Zr6 2.826228 1_566
Pd7 Zr7 2.838823 1_555
Pd7 Zr3 2.864636 1_556
Pd7 Zr0 2.869636 1_555
Pd7 Zr8 2.996397 1_666
Pd8 Zr4 2.801131 1_565
Pd8 Zr6 2.801131 1_455
Pd8 Zr7 2.801131 1_555
Pd8 Zr5 2.801131 1_555
Pd8 Zr1 3.180617 1_455
Pd8 Zr0 3.180617 1_555
Pd8 Zr2 3.180621 1_565
Pd8 Zr3 3.180625 1_555
Pd9 Zr5 2.801131 1_545
Pd9 Zr6 2.801131 1_555
Pd9 Zr7 2.801131 1_655
Pd9 Zr4 2.801131 1_555
Pd9 Zr0 3.180617 1_655
Pd9 Zr1 3.180617 1_555
Pd9 Zr3 3.180621 1_545
Pd9 Zr2 3.180625 1_555
Pd10 Zr2 2.799326 1_554
Pd10 Zr3 2.799326 1_555
Pd10 Zr0 2.799329 1_554
Pd10 Zr1 2.799329 1_555
Pd10 Zr8 3.406995 1_665
Pd10 Zr8 3.406995 1_555
