# generated using pymatgen
data_Mg(CuO2)2
_symmetry_space_group_name_H-M   'P 1'
_cell_length_a   5.93068090
_cell_length_b   5.93068090
_cell_length_c   14.47394400
_cell_angle_alpha   90.00000000
_cell_angle_beta   90.00000000
_cell_angle_gamma   119.99998769
_symmetry_Int_Tables_number   1
_chemical_formula_structural   Mg(CuO2)2
_chemical_formula_sum   'Mg6 Cu12 O24'
_cell_volume   440.88638544
_cell_formula_units_Z   6
loop_
 _symmetry_equiv_pos_site_id
 _symmetry_equiv_pos_as_xyz
  1  'x, y, z'
loop_
 _atom_site_type_symbol
 _atom_site_label
 _atom_site_symmetry_multiplicity
 _atom_site_fract_x
 _atom_site_fract_y
 _atom_site_fract_z
 _atom_site_occupancy
  Mg  Mg0  1  0.33333300  0.66666700  0.95451000  1
  Mg  Mg1  1  0.00000000  0.00000000  0.62352100  1
  Mg  Mg2  1  0.00000000  0.00000000  0.99829200  1
  Mg  Mg3  1  0.66666700  0.33333300  0.28910100  1
  Mg  Mg4  1  0.33333300  0.66666700  0.71100500  1
  Mg  Mg5  1  0.00000000  0.00000000  0.37406700  1
  Cu  Cu0  1  0.83370200  0.66740300  0.83387800  1
  Cu  Cu1  1  0.33259700  0.16629800  0.83387800  1
  Cu  Cu2  1  0.50009600  0.00019100  0.50002100  1
  Cu  Cu3  1  0.83370200  0.16629800  0.83387800  1
  Cu  Cu4  1  0.66666700  0.33333300  0.66659300  1
  Cu  Cu5  1  0.99980900  0.49990400  0.50002100  1
  Cu  Cu6  1  0.16714700  0.33429300  0.16583500  1
  Cu  Cu7  1  0.50009600  0.49990400  0.50002100  1
  Cu  Cu8  1  0.16714700  0.83285300  0.16583500  1
  Cu  Cu9  1  0.33333300  0.66666700  0.33456300  1
  Cu  Cu10  1  0.66570700  0.83285300  0.16583500  1
  Cu  Cu11  1  0.66666700  0.33333300  0.04438600  1
  O  O0  1  0.69287200  0.84643600  0.90803800  1
  O  O1  1  0.00000000  0.00000000  0.75861900  1
  O  O2  1  0.15356400  0.84643600  0.90803800  1
  O  O3  1  0.15356400  0.30712800  0.90803800  1
  O  O4  1  0.51736500  0.03472900  0.75588200  1
  O  O5  1  0.36431300  0.18215600  0.57982100  1
  O  O6  1  0.51736500  0.48263500  0.75588200  1
  O  O7  1  0.66666700  0.33333300  0.91247700  1
  O  O8  1  0.81784400  0.18215600  0.57982100  1
  O  O9  1  0.66666700  0.33333300  0.42663300  1
  O  O10  1  0.96527100  0.48263500  0.75588200  1
  O  O11  1  0.81784400  0.63568700  0.57982100  1
  O  O12  1  0.18138400  0.36276900  0.42045400  1
  O  O13  1  0.03363400  0.51681700  0.24669700  1
  O  O14  1  0.18138400  0.81861600  0.42045400  1
  O  O15  1  0.33333300  0.66666700  0.57374200  1
  O  O16  1  0.33333300  0.66666700  0.09290900  1
  O  O17  1  0.48318300  0.51681700  0.24669700  1
  O  O18  1  0.63723100  0.81861600  0.42045400  1
  O  O19  1  0.48318300  0.96636600  0.24669700  1
  O  O20  1  0.84354100  0.68708300  0.09027600  1
  O  O21  1  0.00000000  0.00000000  0.23706000  1
  O  O22  1  0.84354100  0.15645900  0.09027600  1
  O  O23  1  0.31291700  0.15645900  0.09027600  1
loop_
_geom_bond_atom_site_label_1
_geom_bond_atom_site_label_2
_geom_bond_distance
_geom_bond_site_symmetry_2
Mg0 O2 1.965319 1_555
Mg0 O0 1.965324 1_555
Mg0 O3 1.965324 1_555
Mg0 O16 2.003179 1_556
Mg1 O1 1.955401 1_555
Mg1 O8 1.975164 1_455
Mg1 O5 1.975169 1_555
Mg1 O11 1.975169 1_445
Mg2 O2 2.048130 1_545
Mg2 O3 2.048131 1_555
Mg2 O0 2.048131 1_445
Mg2 O20 2.087002 1_446
Mg2 O23 2.087002 1_556
Mg2 O22 2.087005 1_456
Mg3 O13 1.982199 1_655
Mg3 O19 1.982199 1_545
Mg3 O17 1.982204 1_555
Mg3 O9 1.990630 1_555
Mg4 O15 1.986737 1_555
Mg4 O4 1.998891 1_565
Mg4 O10 1.998891 1_455
Mg4 O6 1.998900 1_555
Mg5 O14 1.980498 1_545
Mg5 O12 1.980503 1_555
Mg5 O18 1.980503 1_445
Mg5 O21 1.983032 1_555
Cu0 O2 1.965694 1_655
Cu0 O0 1.965697 1_555
Cu0 O10 1.984721 1_555
Cu0 O6 1.984722 1_555
Cu0 O1 2.026008 1_665
Cu0 O7 2.058706 1_555
Cu1 O2 1.965694 1_545
Cu1 O3 1.965697 1_555
Cu1 O4 1.984721 1_555
Cu1 O6 1.984722 1_555
Cu1 O1 2.026008 1_555
Cu1 O7 2.058706 1_555
Cu2 O5 2.004052 1_555
Cu2 O8 2.004052 1_555
Cu2 O18 2.005794 1_545
Cu2 O14 2.005802 1_545
Cu2 O9 2.013955 1_555
Cu2 O15 2.018167 1_545
Cu3 O0 1.965693 1_545
Cu3 O3 1.965693 1_655
Cu3 O4 1.984722 1_555
Cu3 O10 1.984722 1_555
Cu3 O1 2.026004 1_655
Cu3 O7 2.058706 1_555
Cu4 O8 1.997235 1_555
Cu4 O5 1.997235 1_555
Cu4 O11 1.997235 1_555
Cu4 O6 2.005576 1_555
Cu4 O10 2.005576 1_555
Cu4 O4 2.005576 1_555
Cu5 O11 2.004052 1_555
Cu5 O8 2.004052 1_555
Cu5 O12 2.005794 1_655
Cu5 O14 2.005802 1_655
Cu5 O9 2.013955 1_555
Cu5 O15 2.018167 1_655
Cu6 O23 1.991872 1_555
Cu6 O22 1.991881 1_455
Cu6 O21 2.002686 1_555
Cu6 O17 2.006419 1_555
Cu6 O13 2.006422 1_555
Cu6 O16 2.007080 1_555
Cu7 O11 2.004052 1_555
Cu7 O5 2.004052 1_555
Cu7 O12 2.005803 1_555
Cu7 O18 2.005803 1_555
Cu7 O9 2.013955 1_555
Cu7 O15 2.018175 1_555
Cu8 O23 1.991881 1_565
Cu8 O20 1.991881 1_455
Cu8 O21 2.002690 1_565
Cu8 O19 2.006418 1_555
Cu8 O13 2.006418 1_555
Cu8 O16 2.007071 1_555
Cu9 O14 1.995438 1_555
Cu9 O18 1.995438 1_555
Cu9 O12 1.995438 1_555
Cu9 O19 1.996699 1_555
Cu9 O13 1.996699 1_555
Cu9 O17 1.996703 1_555
Cu10 O20 1.991872 1_555
Cu10 O22 1.991881 1_565
Cu10 O21 2.002686 1_665
Cu10 O17 2.006419 1_555
Cu10 O19 2.006422 1_555
Cu10 O16 2.007080 1_555
Cu11 O7 1.909243 1_554
Cu11 O22 1.934495 1_555
Cu11 O20 1.934505 1_555
Cu11 O23 1.934505 1_555
