# generated using pymatgen
data_K4Cu4Sn7
_symmetry_space_group_name_H-M   'P 1'
_cell_length_a   17.79520506
_cell_length_b   17.79443280
_cell_length_c   17.79443280
_cell_angle_alpha   89.99992465
_cell_angle_beta   90.00009878
_cell_angle_gamma   90.00009878
_symmetry_Int_Tables_number   1
_chemical_formula_structural   K4Cu4Sn7
_chemical_formula_sum   'K48 Cu48 Sn84'
_cell_volume   5634.70644976
_cell_formula_units_Z   12
loop_
 _symmetry_equiv_pos_site_id
 _symmetry_equiv_pos_as_xyz
  1  'x, y, z'
loop_
 _atom_site_type_symbol
 _atom_site_label
 _atom_site_symmetry_multiplicity
 _atom_site_fract_x
 _atom_site_fract_y
 _atom_site_fract_z
 _atom_site_occupancy
  K  K0  1  0.60714674  0.18266947  0.89288452  1
  K  K1  1  0.60714859  0.31733158  0.60711297  1
  K  K2  1  0.89285057  0.18266898  0.60711590  1
  K  K3  1  0.89284998  0.31733239  0.89288528  1
  K  K4  1  0.60714859  0.60711297  0.31733158  1
  K  K5  1  0.60714674  0.89288452  0.18266947  1
  K  K6  1  0.89285057  0.60711590  0.18266898  1
  K  K7  1  0.89284998  0.89288528  0.31733239  1
  K  K8  1  0.31831726  0.60495663  0.60495663  1
  K  K9  1  0.18167798  0.60495559  0.89504694  1
  K  K10  1  0.18167798  0.89504694  0.60495559  1
  K  K11  1  0.31832527  0.89504144  0.89504144  1
  K  K12  1  0.39520511  0.81830027  0.10498796  1
  K  K13  1  0.39520415  0.68170041  0.39500920  1
  K  K14  1  0.10479545  0.81830165  0.39501254  1
  K  K15  1  0.10479242  0.68169819  0.10498823  1
  K  K16  1  0.39520415  0.39500920  0.68170041  1
  K  K17  1  0.39520511  0.10498796  0.81830027  1
  K  K18  1  0.10479545  0.39501254  0.81830165  1
  K  K19  1  0.10479242  0.10498823  0.68169819  1
  K  K20  1  0.68175967  0.39513034  0.39513034  1
  K  K21  1  0.81824332  0.39513231  0.10486645  1
  K  K22  1  0.81824332  0.10486645  0.39513231  1
  K  K23  1  0.68175564  0.10486818  0.10486818  1
  K  K24  1  0.02237232  0.75000121  0.75000121  1
  K  K25  1  0.47762294  0.74999720  0.74999720  1
  K  K26  1  0.75000098  0.02459877  0.74999669  1
  K  K27  1  0.75000078  0.47540228  0.74999923  1
  K  K28  1  0.75000098  0.74999669  0.02459877  1
  K  K29  1  0.75000078  0.74999923  0.47540228  1
  K  K30  1  0.97743735  0.24999864  0.24999864  1
  K  K31  1  0.52257190  0.24999845  0.24999845  1
  K  K32  1  0.24999910  0.97751521  0.25000223  1
  K  K33  1  0.25000099  0.52248073  0.25000084  1
  K  K34  1  0.24999910  0.25000223  0.97751521  1
  K  K35  1  0.25000099  0.25000084  0.52248073  1
  K  K36  1  0.75000008  0.25000337  0.25000337  1
  K  K37  1  0.25000225  0.74999981  0.25000307  1
  K  K38  1  0.25000225  0.25000307  0.74999981  1
  K  K39  1  0.24999526  0.75000156  0.75000156  1
  K  K40  1  0.84509142  0.84516248  0.65483803  1
  K  K41  1  0.84509142  0.65483803  0.84516248  1
  K  K42  1  0.65490956  0.84516389  0.84516389  1
  K  K43  1  0.65490784  0.65483663  0.65483663  1
  K  K44  1  0.15488079  0.15488083  0.34512366  1
  K  K45  1  0.15488079  0.34512366  0.15488083  1
  K  K46  1  0.34511634  0.15487802  0.15487802  1
  K  K47  1  0.34512160  0.34511876  0.34511876  1
  Cu  Cu0  1  0.10521551  0.50648129  0.39486524  1
  Cu  Cu1  1  0.10521571  0.99351877  0.10513599  1
  Cu  Cu2  1  0.39478125  0.50648101  0.10513491  1
  Cu  Cu3  1  0.39478528  0.99351873  0.39486203  1
  Cu  Cu4  1  0.10521571  0.10513599  0.99351877  1
  Cu  Cu5  1  0.10521551  0.39486524  0.50648129  1
  Cu  Cu6  1  0.39478125  0.10513491  0.50648101  1
  Cu  Cu7  1  0.39478528  0.39486203  0.99351873  1
  Cu  Cu8  1  0.99360184  0.10507623  0.10507623  1
  Cu  Cu9  1  0.50639539  0.10509240  0.39490843  1
  Cu  Cu10  1  0.50639539  0.39490843  0.10509240  1
  Cu  Cu11  1  0.99360364  0.39491898  0.39491898  1
  Cu  Cu12  1  0.89512989  0.49354564  0.60508356  1
  Cu  Cu13  1  0.89512851  0.00645433  0.89491824  1
  Cu  Cu14  1  0.60487191  0.49354666  0.89491794  1
  Cu  Cu15  1  0.60487093  0.00645423  0.60508414  1
  Cu  Cu16  1  0.89512851  0.89491824  0.00645433  1
  Cu  Cu17  1  0.89512989  0.60508356  0.49354564  1
  Cu  Cu18  1  0.60487191  0.89491794  0.49354666  1
  Cu  Cu19  1  0.60487093  0.60508414  0.00645423  1
  Cu  Cu20  1  0.00673974  0.89496295  0.89496295  1
  Cu  Cu21  1  0.49324920  0.89492134  0.60507931  1
  Cu  Cu22  1  0.49324920  0.60507931  0.89492134  1
  Cu  Cu23  1  0.00674297  0.60504517  0.60504517  1
  Cu  Cu24  1  0.04403174  0.63555616  0.45605821  1
  Cu  Cu25  1  0.04403215  0.86444211  0.04394194  1
  Cu  Cu26  1  0.45597237  0.63554898  0.04394112  1
  Cu  Cu27  1  0.45596879  0.86444747  0.45606052  1
  Cu  Cu28  1  0.04403215  0.04394194  0.86444211  1
  Cu  Cu29  1  0.04403174  0.45605821  0.63555616  1
  Cu  Cu30  1  0.45597237  0.04394112  0.63554898  1
  Cu  Cu31  1  0.45596879  0.45606052  0.86444747  1
  Cu  Cu32  1  0.86449674  0.04397730  0.04397730  1
  Cu  Cu33  1  0.63550485  0.04397728  0.45602124  1
  Cu  Cu34  1  0.63550485  0.45602124  0.04397728  1
  Cu  Cu35  1  0.86449505  0.45602313  0.45602313  1
  Cu  Cu36  1  0.95617855  0.36458832  0.54378995  1
  Cu  Cu37  1  0.95617985  0.13541308  0.95621001  1
  Cu  Cu38  1  0.54381980  0.36458668  0.95621023  1
  Cu  Cu39  1  0.54382415  0.13540928  0.54379318  1
  Cu  Cu40  1  0.95617985  0.95621001  0.13541308  1
  Cu  Cu41  1  0.95617855  0.54378995  0.36458832  1
  Cu  Cu42  1  0.54381980  0.95621023  0.36458668  1
  Cu  Cu43  1  0.54382415  0.54379318  0.13540928  1
  Cu  Cu44  1  0.13540730  0.95606457  0.95606457  1
  Cu  Cu45  1  0.36459181  0.95606267  0.54393423  1
  Cu  Cu46  1  0.36459181  0.54393423  0.95606267  1
  Cu  Cu47  1  0.13540905  0.54393615  0.54393615  1
  Sn  Sn0  1  0.64042388  0.64036591  0.85963388  1
  Sn  Sn1  1  0.64042388  0.85963388  0.64036591  1
  Sn  Sn2  1  0.85957653  0.64036622  0.64036622  1
  Sn  Sn3  1  0.85957667  0.85963397  0.85963397  1
  Sn  Sn4  1  0.35948578  0.35959598  0.14040436  1
  Sn  Sn5  1  0.35948578  0.14040436  0.35959598  1
  Sn  Sn6  1  0.14051464  0.35959605  0.35959605  1
  Sn  Sn7  1  0.14051458  0.14040450  0.14040450  1
  Sn  Sn8  1  0.49990555  0.49998085  0.00001950  1
  Sn  Sn9  1  0.49990555  0.00001950  0.49998085  1
  Sn  Sn10  1  0.00009490  0.49998084  0.49998084  1
  Sn  Sn11  1  0.00009502  0.00001938  0.00001938  1
  Sn  Sn12  1  0.53648841  0.74078836  0.96341767  1
  Sn  Sn13  1  0.53648839  0.75921175  0.53658249  1
  Sn  Sn14  1  0.96351182  0.74078874  0.53658298  1
  Sn  Sn15  1  0.96351176  0.75921149  0.96341778  1
  Sn  Sn16  1  0.53648839  0.53658249  0.75921175  1
  Sn  Sn17  1  0.53648841  0.96341767  0.74078836  1
  Sn  Sn18  1  0.96351182  0.53658298  0.74078874  1
  Sn  Sn19  1  0.96351176  0.96341778  0.75921149  1
  Sn  Sn20  1  0.75954624  0.53653548  0.53653548  1
  Sn  Sn21  1  0.74045270  0.53653396  0.96346369  1
  Sn  Sn22  1  0.74045270  0.96346369  0.53653396  1
  Sn  Sn23  1  0.75954900  0.96346561  0.96346561  1
  Sn  Sn24  1  0.46324117  0.25893217  0.03665198  1
  Sn  Sn25  1  0.46324164  0.24106674  0.46334592  1
  Sn  Sn26  1  0.03675869  0.25893308  0.46334552  1
  Sn  Sn27  1  0.03675875  0.24106674  0.03665436  1
  Sn  Sn28  1  0.46324164  0.46334592  0.24106674  1
  Sn  Sn29  1  0.46324117  0.03665198  0.25893217  1
  Sn  Sn30  1  0.03675869  0.46334552  0.25893308  1
  Sn  Sn31  1  0.03675875  0.03665436  0.24106674  1
  Sn  Sn32  1  0.24109695  0.46322913  0.46322913  1
  Sn  Sn33  1  0.25890342  0.46322912  0.03677160  1
  Sn  Sn34  1  0.25890342  0.03677160  0.46322912  1
  Sn  Sn35  1  0.24109385  0.03676775  0.03676775  1
  Sn  Sn36  1  0.57268849  0.12903697  0.69799256  1
  Sn  Sn37  1  0.57268893  0.37096307  0.80200747  1
  Sn  Sn38  1  0.92731187  0.12903661  0.80200780  1
  Sn  Sn39  1  0.92731165  0.37096340  0.69799276  1
  Sn  Sn40  1  0.57268893  0.80200747  0.37096307  1
  Sn  Sn41  1  0.57268849  0.69799256  0.12903697  1
  Sn  Sn42  1  0.92731187  0.80200780  0.12903661  1
  Sn  Sn43  1  0.92731165  0.69799276  0.37096340  1
  Sn  Sn44  1  0.69776250  0.57278601  0.12908103  1
  Sn  Sn45  1  0.80223771  0.57278628  0.37091890  1
  Sn  Sn46  1  0.80223770  0.92721397  0.12908116  1
  Sn  Sn47  1  0.69776262  0.92721394  0.37091893  1
  Sn  Sn48  1  0.37091824  0.57286706  0.80200899  1
  Sn  Sn49  1  0.12908241  0.57286751  0.69799127  1
  Sn  Sn50  1  0.12908268  0.92713283  0.80200853  1
  Sn  Sn51  1  0.37091796  0.92713304  0.69799112  1
  Sn  Sn52  1  0.12908241  0.69799127  0.57286751  1
  Sn  Sn53  1  0.37091824  0.80200899  0.57286706  1
  Sn  Sn54  1  0.12908268  0.80200853  0.92713283  1
  Sn  Sn55  1  0.37091796  0.69799112  0.92713304  1
  Sn  Sn56  1  0.80223771  0.37091890  0.57278628  1
  Sn  Sn57  1  0.69776250  0.12908103  0.57278601  1
  Sn  Sn58  1  0.80223770  0.12908116  0.92721397  1
  Sn  Sn59  1  0.69776262  0.37091893  0.92721394  1
  Sn  Sn60  1  0.42714186  0.87105071  0.30230001  1
  Sn  Sn61  1  0.42714157  0.62894978  0.19770041  1
  Sn  Sn62  1  0.07285890  0.87105053  0.19770034  1
  Sn  Sn63  1  0.07285889  0.62895015  0.30229991  1
  Sn  Sn64  1  0.42714157  0.19770041  0.62894978  1
  Sn  Sn65  1  0.42714186  0.30230001  0.87105071  1
  Sn  Sn66  1  0.07285890  0.19770034  0.87105053  1
  Sn  Sn67  1  0.07285889  0.30229991  0.62895015  1
  Sn  Sn68  1  0.30199047  0.42723335  0.87104679  1
  Sn  Sn69  1  0.19801045  0.42723342  0.62895335  1
  Sn  Sn70  1  0.19801051  0.07276688  0.87104658  1
  Sn  Sn71  1  0.30199020  0.07276689  0.62895333  1
  Sn  Sn72  1  0.62886971  0.42724865  0.19774174  1
  Sn  Sn73  1  0.87113044  0.42724816  0.30225807  1
  Sn  Sn74  1  0.87113025  0.07275192  0.19774181  1
  Sn  Sn75  1  0.62886989  0.07275159  0.30225853  1
  Sn  Sn76  1  0.87113044  0.30225807  0.42724816  1
  Sn  Sn77  1  0.62886971  0.19774174  0.42724865  1
  Sn  Sn78  1  0.87113025  0.19774181  0.07275192  1
  Sn  Sn79  1  0.62886989  0.30225853  0.07275159  1
  Sn  Sn80  1  0.19801045  0.62895335  0.42723342  1
  Sn  Sn81  1  0.30199047  0.87104679  0.42723335  1
  Sn  Sn82  1  0.19801051  0.87104658  0.07276688  1
  Sn  Sn83  1  0.30199020  0.62895333  0.07276689  1
loop_
_geom_bond_atom_site_label_1
_geom_bond_atom_site_label_2
_geom_bond_distance
_geom_bond_site_symmetry_2
K0 Sn36 3.648804 1_555
K0 Sn58 3.651720 1_555
K0 Sn59 3.767560 1_555
K0 Sn37 3.770595 1_555
K0 Sn79 3.862895 1_556
K0 Sn65 3.865646 1_555
K0 Sn24 3.865770 1_556
K0 K17 4.230448 1_555
K0 K23 4.231822 1_556
K0 K26 4.564978 1_555
K1 Sn37 3.648849 1_555
K1 Sn56 3.651675 1_555
K1 Sn57 3.767560 1_555
K1 Sn36 3.770636 1_555
K1 Sn77 3.862861 1_555
K1 Sn64 3.865684 1_555
K1 Sn25 3.865785 1_555
K1 K16 4.230496 1_555
K1 K20 4.231805 1_555
K1 K27 4.564931 1_555
K2 Sn38 3.648810 1_555
K2 Sn57 3.651668 1_555
K2 Sn56 3.767548 1_555
K2 Sn39 3.770618 1_555
K2 Sn76 3.862896 1_555
K2 Sn67 3.865695 1_655
K2 Sn26 3.865837 1_655
K2 K22 4.231820 1_555
K2 K26 4.564847 1_555
K3 Sn39 3.648817 1_555
K3 Sn59 3.651651 1_555
K3 Sn58 3.767557 1_555
K3 Sn38 3.770649 1_555
K3 Sn78 3.862894 1_556
K3 Sn66 3.865723 1_655
K3 Sn27 3.865837 1_656
K4 Sn40 3.648849 1_555
K4 Sn45 3.651675 1_555
K4 Sn44 3.767560 1_555
K4 Sn41 3.770636 1_555
K4 Sn72 3.862861 1_555
K4 Sn61 3.865684 1_555
K4 Sn28 3.865785 1_555
K5 Sn41 3.648804 1_555
K5 Sn46 3.651720 1_555
K5 Sn47 3.767560 1_555
K5 Sn40 3.770595 1_555
K5 Sn75 3.862895 1_565
K5 Sn60 3.865646 1_555
K5 Sn29 3.865770 1_565
K6 Sn42 3.648810 1_555
K6 Sn44 3.651668 1_555
K6 Sn45 3.767548 1_555
K6 Sn43 3.770618 1_555
K6 Sn73 3.862896 1_555
K6 Sn63 3.865695 1_655
K6 Sn30 3.865837 1_655
K7 Sn43 3.648817 1_555
K7 Sn47 3.651651 1_555
K7 Sn46 3.767557 1_555
K7 Sn42 3.770649 1_555
K7 Sn74 3.862894 1_565
K7 Sn62 3.865723 1_655
K7 Sn31 3.865837 1_665
K8 Sn53 3.673869 1_555
K8 Sn48 3.673869 1_555
K8 Sn52 3.795604 1_555
K8 Sn49 3.795604 1_555
K8 Sn32 3.822153 1_555
K8 Sn69 3.842786 1_555
K8 Sn80 3.842786 1_555
K9 Sn54 3.673847 1_555
K9 Sn49 3.673897 1_555
K9 Sn55 3.795679 1_555
K9 Sn48 3.795716 1_555
K9 Sn33 3.822139 1_556
K9 Sn83 3.842794 1_556
K9 Sn68 3.842841 1_555
K10 Sn50 3.673847 1_555
K10 Sn52 3.673897 1_555
K10 Sn51 3.795679 1_555
K10 Sn53 3.795716 1_555
K10 Sn34 3.822139 1_565
K10 Sn71 3.842794 1_565
K10 Sn81 3.842841 1_555
K10 K39 3.847225 1_555
K10 K19 4.206297 1_565
K10 K14 4.206317 1_555
K10 K24 4.621654 1_555
K11 Sn51 3.673805 1_555
K11 Sn55 3.673805 1_555
K11 Sn50 3.795716 1_555
K11 Sn54 3.795716 1_555
K11 Sn35 3.822202 1_566
K11 Sn70 3.842899 1_565
K11 Sn82 3.842899 1_556
K11 K39 3.847160 1_555
K11 K17 4.206330 1_565
K11 K12 4.206330 1_556
K11 K25 4.621548 1_555
K12 Sn82 3.677445 1_555
K12 Sn60 3.678531 1_555
K12 Sn61 3.794397 1_555
K12 Sn83 3.799025 1_555
K12 Sn12 3.817023 1_554
K12 Sn41 3.839453 1_555
K12 Sn55 3.845270 1_554
K12 K37 3.848704 1_555
K12 K5 4.230448 1_555
K12 K32 4.621943 1_555
K13 Sn80 3.677441 1_555
K13 Sn61 3.678481 1_555
K13 Sn60 3.794371 1_555
K13 Sn81 3.799021 1_555
K13 Sn13 3.817057 1_555
K13 Sn40 3.839456 1_555
K13 Sn53 3.845307 1_555
K13 K37 3.848576 1_555
K13 K8 4.206403 1_555
K13 K4 4.230496 1_555
K13 K33 4.621897 1_555
K14 Sn81 3.677444 1_555
K14 Sn62 3.678524 1_555
K14 Sn63 3.794417 1_555
K14 Sn80 3.799051 1_555
K14 Sn14 3.817030 1_455
K14 Sn43 3.839466 1_455
K14 Sn52 3.845279 1_555
K14 K37 3.848696 1_555
K14 K7 4.230500 1_455
K14 K32 4.621855 1_555
K15 Sn83 3.677496 1_555
K15 Sn63 3.678505 1_555
K15 Sn62 3.794421 1_555
K15 Sn82 3.799073 1_555
K15 Sn15 3.816995 1_454
K15 Sn42 3.839431 1_455
K15 Sn54 3.845292 1_554
K15 K37 3.848786 1_555
K15 K9 4.206297 1_554
K15 K6 4.230439 1_455
K15 K33 4.621970 1_555
K16 Sn69 3.677441 1_555
K16 Sn64 3.678481 1_555
K16 Sn65 3.794371 1_555
K16 Sn68 3.799021 1_555
K16 Sn16 3.817057 1_555
K16 Sn37 3.839456 1_555
K16 Sn48 3.845307 1_555
K16 K38 3.848576 1_555
K16 K8 4.206403 1_555
K16 K35 4.621897 1_555
K17 Sn70 3.677445 1_555
K17 Sn65 3.678531 1_555
K17 Sn64 3.794397 1_555
K17 Sn71 3.799025 1_555
K17 Sn17 3.817023 1_545
K17 Sn36 3.839453 1_555
K17 Sn51 3.845270 1_545
K17 K38 3.848704 1_555
K17 K34 4.621943 1_555
K18 Sn68 3.677444 1_555
K18 Sn66 3.678524 1_555
K18 Sn67 3.794417 1_555
K18 Sn69 3.799051 1_555
K18 Sn18 3.817030 1_455
K18 Sn39 3.839466 1_455
K18 Sn49 3.845279 1_555
K18 K38 3.848696 1_555
K18 K9 4.206317 1_555
K18 K3 4.230500 1_455
K18 K34 4.621855 1_555
K19 Sn71 3.677496 1_555
K19 Sn67 3.678505 1_555
K19 Sn66 3.794421 1_555
K19 Sn70 3.799073 1_555
K19 Sn19 3.816995 1_445
K19 Sn38 3.839431 1_455
K19 Sn50 3.845292 1_545
K19 K38 3.848786 1_555
K19 K2 4.230439 1_455
K19 K35 4.621970 1_555
K20 Sn77 3.680971 1_555
K20 Sn72 3.680971 1_555
K20 Sn73 3.796568 1_555
K20 Sn76 3.796568 1_555
K20 Sn20 3.818226 1_555
K20 Sn56 3.843926 1_555
K20 Sn45 3.843926 1_555
K20 K36 3.848741 1_555
K20 K4 4.231805 1_555
K20 K31 4.622080 1_555
K21 Sn78 3.680983 1_555
K21 Sn73 3.681003 1_555
K21 Sn79 3.796610 1_555
K21 Sn72 3.796635 1_555
K21 Sn21 3.818182 1_554
K21 Sn59 3.843906 1_554
K21 Sn44 3.843934 1_555
K21 K36 3.848892 1_555
K21 K3 4.231769 1_554
K21 K6 4.231820 1_555
K21 K30 4.622171 1_555
K22 Sn74 3.680983 1_555
K22 Sn76 3.681003 1_555
K22 Sn75 3.796610 1_555
K22 Sn77 3.796635 1_555
K22 Sn22 3.818182 1_545
K22 Sn47 3.843906 1_545
K22 Sn57 3.843934 1_555
K22 K36 3.848892 1_555
K22 K7 4.231769 1_545
K22 K30 4.622171 1_555
K23 Sn75 3.680979 1_555
K23 Sn79 3.680979 1_555
K23 Sn74 3.796632 1_555
K23 Sn78 3.796632 1_555
K23 Sn23 3.818216 1_544
K23 Sn58 3.843949 1_554
K23 Sn46 3.843949 1_545
K23 K36 3.848954 1_555
K23 K5 4.231822 1_545
K23 K31 4.622015 1_555
K24 Sn50 3.794364 1_555
K24 Sn54 3.794364 1_555
K24 Sn49 3.794411 1_555
K24 Sn52 3.794411 1_555
K24 Sn19 3.942837 1_455
K24 Sn15 3.942837 1_455
K24 Sn18 3.942864 1_455
K24 Sn14 3.942864 1_455
K24 K41 3.960727 1_455
K24 K40 3.960727 1_455
K24 Sn3 4.000526 1_455
K24 Sn2 4.000557 1_455
K24 K39 4.050597 1_555
K24 K9 4.621654 1_555
K25 Sn48 3.794311 1_555
K25 Sn53 3.794311 1_555
K25 Sn55 3.794377 1_555
K25 Sn51 3.794377 1_555
K25 Sn13 3.942831 1_555
K25 Sn16 3.942831 1_555
K25 Sn12 3.942923 1_555
K25 Sn17 3.942923 1_555
K25 K43 3.960765 1_555
K25 K42 3.960874 1_555
K25 Sn1 4.000608 1_555
K25 Sn0 4.000608 1_555
K25 K39 4.050681 1_555
K25 K8 4.621551 1_555
K26 Sn57 3.776832 1_555
K26 Sn58 3.776926 1_555
K26 Sn38 3.777043 1_555
K26 Sn36 3.777043 1_555
K26 Sn22 3.954812 1_545
K26 Sn23 3.954905 1_545
K26 Sn19 3.955766 1_545
K26 Sn17 3.955789 1_545
K26 K40 3.990703 1_545
K26 K42 3.990747 1_545
K26 Sn1 4.028011 1_545
K26 Sn3 4.028055 1_545
K27 Sn56 3.776876 1_555
K27 Sn59 3.776901 1_555
K27 Sn39 3.777039 1_555
K27 Sn37 3.777058 1_555
K27 Sn20 3.954816 1_555
K27 Sn21 3.954825 1_555
K27 Sn18 3.955763 1_555
K27 Sn16 3.955788 1_555
K27 K43 3.990718 1_555
K27 K41 3.990724 1_555
K27 Sn2 4.028005 1_555
K27 Sn0 4.028034 1_555
K27 K3 4.564892 1_555
K28 Sn44 3.776832 1_555
K28 Sn46 3.776926 1_555
K28 Sn42 3.777043 1_555
K28 Sn41 3.777043 1_555
K28 Sn21 3.954812 1_554
K28 Sn23 3.954905 1_554
K28 Sn15 3.955766 1_554
K28 Sn12 3.955789 1_554
K28 K41 3.990703 1_554
K28 K42 3.990747 1_554
K28 Sn0 4.028011 1_554
K28 Sn3 4.028055 1_554
K28 K6 4.564847 1_555
K28 K5 4.564978 1_555
K29 Sn45 3.776876 1_555
K29 Sn47 3.776901 1_555
K29 Sn43 3.777039 1_555
K29 Sn40 3.777058 1_555
K29 Sn20 3.954816 1_555
K29 Sn22 3.954825 1_555
K29 Sn14 3.955763 1_555
K29 Sn13 3.955788 1_555
K29 K43 3.990718 1_555
K29 K40 3.990724 1_555
K29 Sn2 4.028005 1_555
K29 Sn1 4.028034 1_555
K29 K7 4.564892 1_555
K29 K4 4.564931 1_555
K30 Sn78 3.793567 1_555
K30 Sn74 3.793567 1_555
K30 Sn73 3.793625 1_555
K30 Sn76 3.793625 1_555
K30 Sn31 3.943583 1_655
K30 Sn27 3.943583 1_655
K30 Sn26 3.943625 1_655
K30 Sn30 3.943625 1_655
K30 K44 3.962411 1_655
K30 K45 3.962411 1_655
K30 Sn7 4.003486 1_655
K30 Sn6 4.003534 1_655
K30 K36 4.047293 1_555
K31 Sn79 3.793506 1_555
K31 Sn75 3.793506 1_555
K31 Sn72 3.793535 1_555
K31 Sn77 3.793535 1_555
K31 Sn29 3.943662 1_555
K31 Sn24 3.943662 1_555
K31 Sn28 3.943679 1_555
K31 Sn25 3.943679 1_555
K31 K47 3.962498 1_555
K31 K46 3.962565 1_555
K31 Sn4 4.003623 1_555
K31 Sn5 4.003623 1_555
K31 K36 4.047131 1_555
K32 Sn81 3.793582 1_555
K32 Sn82 3.793637 1_555
K32 Sn62 3.793659 1_555
K32 Sn60 3.793682 1_555
K32 Sn31 3.941084 1_565
K32 Sn29 3.941094 1_565
K32 Sn34 3.941230 1_565
K32 Sn35 3.941340 1_565
K32 K46 3.961178 1_565
K32 K44 3.961213 1_565
K32 Sn5 4.000067 1_565
K32 Sn7 4.000086 1_565
K32 K37 4.048507 1_555
K33 Sn80 3.793644 1_555
K33 Sn83 3.793653 1_555
K33 Sn61 3.793699 1_555
K33 Sn63 3.793725 1_555
K33 Sn28 3.941068 1_555
K33 Sn30 3.941093 1_555
K33 Sn32 3.941229 1_555
K33 Sn33 3.941246 1_555
K33 K45 3.961088 1_555
K33 K47 3.961146 1_555
K33 Sn6 4.000019 1_555
K33 Sn4 4.000026 1_555
K33 K37 4.048573 1_555
K34 Sn68 3.793582 1_555
K34 Sn70 3.793637 1_555
K34 Sn66 3.793659 1_555
K34 Sn65 3.793682 1_555
K34 Sn27 3.941084 1_556
K34 Sn24 3.941094 1_556
K34 Sn33 3.941230 1_556
K34 Sn35 3.941340 1_556
K34 K46 3.961178 1_556
K34 K45 3.961213 1_556
K34 Sn4 4.000067 1_556
K34 Sn7 4.000086 1_556
K34 K38 4.048507 1_555
K35 Sn69 3.793644 1_555
K35 Sn71 3.793653 1_555
K35 Sn64 3.793699 1_555
K35 Sn67 3.793725 1_555
K35 Sn25 3.941068 1_555
K35 Sn26 3.941093 1_555
K35 Sn32 3.941229 1_555
K35 Sn34 3.941246 1_555
K35 K44 3.961088 1_555
K35 K47 3.961146 1_555
K35 Sn6 4.000019 1_555
K35 Sn5 4.000026 1_555
K35 K38 4.048573 1_555
K36 Sn73 3.931726 1_555
K36 Sn76 3.931726 1_555
K36 Sn77 3.931766 1_555
K36 Sn72 3.931766 1_555
K36 Sn75 3.931825 1_555
K36 Sn79 3.931825 1_555
K36 Sn78 3.931855 1_555
K36 Sn74 3.931855 1_555
K37 Sn81 3.929547 1_555
K37 Sn80 3.929556 1_555
K37 Sn83 3.929630 1_555
K37 Sn82 3.929642 1_555
K37 Sn60 3.929685 1_555
K37 Sn61 3.929705 1_555
K37 Sn63 3.929727 1_555
K37 Sn62 3.929765 1_555
K38 Sn68 3.929547 1_555
K38 Sn69 3.929556 1_555
K38 Sn71 3.929630 1_555
K38 Sn70 3.929642 1_555
K38 Sn65 3.929685 1_555
K38 Sn64 3.929705 1_555
K38 Sn67 3.929727 1_555
K38 Sn66 3.929765 1_555
K39 K9 3.847225 1_555
K39 K8 3.847241 1_555
K39 Sn50 3.926948 1_555
K39 Sn54 3.926948 1_555
K39 Sn52 3.926996 1_555
K39 Sn49 3.926996 1_555
K39 Sn51 3.927056 1_555
K39 Sn55 3.927056 1_555
K39 Sn53 3.927093 1_555
K39 Sn48 3.927093 1_555
K40 Sn19 3.509731 1_555
K40 Sn14 3.509740 1_555
K40 Sn22 3.511469 1_555
K40 Sn1 3.660263 1_555
K40 Sn3 3.662397 1_555
K40 Sn2 3.662404 1_555
K41 Sn15 3.509731 1_555
K41 Sn18 3.509740 1_555
K41 Sn21 3.511469 1_555
K41 Sn0 3.660263 1_555
K41 Sn3 3.662397 1_555
K41 Sn2 3.662404 1_555
K42 Sn17 3.509745 1_555
K42 Sn12 3.509745 1_555
K42 Sn23 3.511456 1_555
K42 Sn3 3.660251 1_555
K42 Sn0 3.662431 1_555
K42 Sn1 3.662431 1_555
K43 Sn16 3.509726 1_555
K43 Sn13 3.509726 1_555
K43 Sn20 3.511441 1_555
K43 Sn2 3.660281 1_555
K43 Sn0 3.662418 1_555
K43 Sn1 3.662418 1_555
K44 Sn34 3.501495 1_555
K44 Sn26 3.503174 1_555
K44 Sn31 3.503258 1_555
K44 Sn5 3.659162 1_555
K44 Sn6 3.660821 1_555
K44 Sn7 3.660895 1_555
K45 Sn33 3.501495 1_555
K45 Sn30 3.503174 1_555
K45 Sn27 3.503258 1_555
K45 Sn4 3.659162 1_555
K45 Sn6 3.660821 1_555
K45 Sn7 3.660895 1_555
K46 Sn35 3.501556 1_555
K46 Sn24 3.503259 1_555
K46 Sn29 3.503259 1_555
K46 Sn7 3.659102 1_555
K46 Sn5 3.660874 1_555
K46 Sn4 3.660874 1_555
K47 Sn32 3.501586 1_555
K47 Sn28 3.503199 1_555
K47 Sn25 3.503199 1_555
K47 Sn6 3.659205 1_555
K47 Sn4 3.660809 1_555
K47 Sn5 3.660809 1_555
Cu0 Sn10 2.647898 1_555
Cu0 Sn6 2.760453 1_555
Cu0 Cu24 2.765231 1_555
Cu0 Cu41 2.786552 1_455
Cu0 Cu47 2.787356 1_555
Cu0 Sn63 2.791740 1_555
Cu0 Sn80 2.794276 1_555
Cu0 Cu11 2.808162 1_455
Cu0 Cu5 2.808830 1_555
Cu0 Sn32 2.814094 1_555
Cu0 Sn30 2.814951 1_555
Cu0 K33 3.655723 1_555
Cu1 Sn11 2.647907 1_565
Cu1 Sn7 2.760455 1_565
Cu1 Cu25 2.765259 1_555
Cu1 Cu40 2.786534 1_455
Cu1 Cu44 2.787358 1_554
Cu1 Sn62 2.791722 1_555
Cu1 Sn82 2.794286 1_555
Cu1 Cu8 2.808131 1_465
Cu1 Cu4 2.808860 1_564
Cu1 Sn35 2.814063 1_565
Cu1 Sn31 2.814935 1_565
Cu1 K32 3.655720 1_555
Cu2 Sn8 2.647942 1_555
Cu2 Sn4 2.760432 1_555
Cu2 Cu26 2.765181 1_555
Cu2 Cu43 2.786657 1_555
Cu2 Cu46 2.787356 1_554
Cu2 Sn61 2.791756 1_555
Cu2 Sn83 2.794242 1_555
Cu2 Cu7 2.808873 1_554
Cu2 Sn33 2.814031 1_555
Cu2 Sn28 2.814970 1_555
Cu2 K33 3.655678 1_555
Cu3 Sn9 2.647930 1_565
Cu3 Sn5 2.760446 1_565
Cu3 Cu42 2.786507 1_555
Cu3 Cu45 2.787383 1_555
Cu3 Sn60 2.791698 1_555
Cu3 Sn81 2.794285 1_555
Cu3 Cu9 2.808283 1_565
Cu3 Cu6 2.808873 1_565
Cu3 Sn34 2.814133 1_565
Cu3 Sn29 2.814899 1_565
Cu3 K32 3.655674 1_555
Cu4 Sn11 2.647907 1_556
Cu4 Sn7 2.760455 1_556
Cu4 Cu44 2.787358 1_545
Cu4 Sn66 2.791722 1_555
Cu4 Sn70 2.794286 1_555
Cu4 Cu8 2.808131 1_456
Cu4 Sn35 2.814063 1_556
Cu4 Sn27 2.814935 1_556
Cu4 K34 3.655720 1_555
Cu5 Sn10 2.647898 1_555
Cu5 Sn6 2.760453 1_555
Cu5 Sn67 2.791740 1_555
Cu5 Sn69 2.794276 1_555
Cu5 Sn32 2.814094 1_555
Cu5 Sn26 2.814951 1_555
Cu5 K35 3.655723 1_555
Cu6 Sn9 2.647942 1_555
Cu6 Sn5 2.760432 1_555
Cu6 Sn64 2.791756 1_555
Cu6 Sn71 2.794242 1_555
Cu6 Cu9 2.808325 1_555
Cu6 Sn34 2.814031 1_555
Cu6 Sn25 2.814970 1_555
Cu6 K35 3.655678 1_555
Cu7 Sn8 2.647930 1_556
Cu7 Sn4 2.760446 1_556
Cu7 Sn65 2.791698 1_555
Cu7 Sn68 2.794285 1_555
Cu7 Sn33 2.814133 1_556
Cu7 Sn24 2.814899 1_556
Cu7 K34 3.655674 1_555
Cu8 Sn11 2.646295 1_655
Cu8 Sn7 2.761371 1_655
Cu8 Sn74 2.792784 1_555
Cu8 Sn78 2.792784 1_555
Cu8 Sn27 2.815663 1_655
Cu8 Sn31 2.815663 1_655
Cu8 K30 3.658321 1_555
Cu9 Sn9 2.646686 1_555
Cu9 Sn5 2.761190 1_555
Cu9 Sn77 2.792706 1_555
Cu9 Sn75 2.792723 1_555
Cu9 Sn25 2.815525 1_555
Cu9 Sn29 2.815576 1_555
Cu9 K31 3.657971 1_555
Cu10 Sn8 2.646686 1_555
Cu10 Sn4 2.761190 1_555
Cu10 Cu34 2.764760 1_555
Cu10 Cu38 2.784476 1_554
Cu10 Cu43 2.784519 1_555
Cu10 Sn72 2.792706 1_555
Cu10 Sn79 2.792723 1_555
Cu10 Cu7 2.808283 1_554
Cu10 Cu2 2.808325 1_555
Cu10 Sn28 2.815525 1_555
Cu10 Sn24 2.815576 1_555
Cu10 K31 3.657971 1_555
Cu11 Sn10 2.646419 1_655
Cu11 Sn6 2.761302 1_655
Cu11 Cu35 2.764614 1_555
Cu11 Cu41 2.784319 1_555
Cu11 Cu36 2.784319 1_555
Cu11 Sn76 2.792772 1_555
Cu11 Sn73 2.792772 1_555
Cu11 Cu5 2.808162 1_655
Cu11 Sn26 2.815620 1_655
Cu11 Sn30 2.815620 1_655
Cu11 K30 3.658270 1_555
Cu12 Sn10 2.645730 1_655
Cu12 Sn2 2.760451 1_555
Cu12 Cu36 2.763254 1_555
Cu12 Cu29 2.785700 1_655
Cu12 Cu35 2.788991 1_555
Cu12 Sn39 2.796289 1_555
Cu12 Sn56 2.797186 1_555
Cu12 Cu17 2.806864 1_555
Cu12 Cu23 2.807388 1_655
Cu12 Sn20 2.809688 1_555
Cu12 Sn18 2.810426 1_555
Cu12 K27 3.663842 1_555
Cu13 Sn11 2.645724 1_656
Cu13 Sn3 2.760445 1_545
Cu13 Cu37 2.763276 1_555
Cu13 Cu28 2.785743 1_655
Cu13 Cu32 2.788961 1_556
Cu13 Sn38 2.796308 1_555
Cu13 Sn58 2.797173 1_555
Cu13 Cu16 2.806818 1_546
Cu13 Cu20 2.807267 1_645
Cu13 Sn23 2.809615 1_545
Cu13 Sn19 2.810461 1_545
Cu13 K26 3.663892 1_555
Cu14 Sn8 2.645732 1_556
Cu14 Sn0 2.760425 1_555
Cu14 Cu38 2.763302 1_555
Cu14 Cu31 2.785706 1_555
Cu14 Cu34 2.788977 1_556
Cu14 Sn37 2.796328 1_555
Cu14 Sn59 2.797183 1_555
Cu14 Cu19 2.806842 1_556
Cu14 Cu22 2.807930 1_555
Cu14 Sn21 2.809612 1_555
Cu14 Sn16 2.810446 1_555
Cu14 K27 3.663880 1_555
Cu15 Sn9 2.645737 1_555
Cu15 Sn1 2.760440 1_545
Cu15 Cu39 2.763185 1_555
Cu15 Cu30 2.785617 1_555
Cu15 Cu33 2.789032 1_555
Cu15 Sn36 2.796295 1_555
Cu15 Sn57 2.797184 1_555
Cu15 Cu18 2.806842 1_545
Cu15 Cu21 2.807916 1_545
Cu15 Sn22 2.809683 1_545
Cu15 Sn17 2.810414 1_545
Cu15 K26 3.663811 1_555
Cu16 Sn11 2.645724 1_665
Cu16 Sn3 2.760445 1_554
Cu16 Cu40 2.763276 1_555
Cu16 Cu25 2.785743 1_655
Cu16 Cu32 2.788961 1_565
Cu16 Sn42 2.796308 1_555
Cu16 Sn46 2.797173 1_555
Cu16 Cu20 2.807267 1_654
Cu16 Sn23 2.809615 1_554
Cu16 Sn15 2.810461 1_554
Cu16 K28 3.663892 1_555
Cu17 Sn10 2.645730 1_655
Cu17 Sn2 2.760451 1_555
Cu17 Cu41 2.763254 1_555
Cu17 Cu24 2.785700 1_655
Cu17 Cu35 2.788991 1_555
Cu17 Sn43 2.796289 1_555
Cu17 Sn45 2.797186 1_555
Cu17 Cu23 2.807388 1_655
Cu17 Sn20 2.809688 1_555
Cu17 Sn14 2.810426 1_555
Cu17 K29 3.663842 1_555
Cu18 Sn9 2.645732 1_565
Cu18 Sn1 2.760425 1_555
Cu18 Cu42 2.763302 1_555
Cu18 Cu27 2.785706 1_555
Cu18 Cu33 2.788977 1_565
Cu18 Sn40 2.796328 1_555
Cu18 Sn47 2.797183 1_555
Cu18 Cu21 2.807930 1_555
Cu18 Sn22 2.809612 1_555
Cu18 Sn13 2.810446 1_555
Cu18 K29 3.663880 1_555
Cu19 Sn8 2.645737 1_555
Cu19 Sn0 2.760440 1_554
Cu19 Cu43 2.763185 1_555
Cu19 Cu26 2.785617 1_555
Cu19 Cu34 2.789032 1_555
Cu19 Sn41 2.796295 1_555
Cu19 Sn44 2.797184 1_555
Cu19 Cu22 2.807916 1_554
Cu19 Sn21 2.809683 1_554
Cu19 Sn12 2.810414 1_554
Cu19 K28 3.663811 1_555
Cu20 Sn11 2.646404 1_566
Cu20 Cu44 2.758054 1_555
Cu20 Sn3 2.765594 1_455
Cu20 Cu28 2.786240 1_565
Cu20 Cu25 2.786240 1_556
Cu20 Sn50 2.793473 1_555
Cu20 Sn54 2.793473 1_555
Cu20 Sn19 2.812607 1_455
Cu20 Sn15 2.812607 1_455
Cu20 K24 3.658575 1_555
Cu21 Sn9 2.647462 1_565
Cu21 Cu45 2.758489 1_555
Cu21 Sn1 2.765453 1_555
Cu21 Cu30 2.786691 1_565
Cu21 Cu27 2.786701 1_555
Cu21 Sn53 2.793015 1_555
Cu21 Sn51 2.793017 1_555
Cu21 Sn17 2.812336 1_555
Cu21 Sn13 2.812351 1_555
Cu21 K25 3.657539 1_555
Cu22 Sn8 2.647462 1_556
Cu22 Cu46 2.758489 1_555
Cu22 Sn0 2.765453 1_555
Cu22 Cu26 2.786691 1_556
Cu22 Cu31 2.786701 1_555
Cu22 Sn48 2.793015 1_555
Cu22 Sn55 2.793017 1_555
Cu22 Sn12 2.812336 1_555
Cu22 Sn16 2.812351 1_555
Cu22 K25 3.657539 1_555
Cu23 Sn10 2.646604 1_555
Cu23 Cu47 2.758142 1_555
Cu23 Sn2 2.765591 1_455
Cu23 Cu29 2.786327 1_555
Cu23 Cu24 2.786327 1_555
Cu23 Sn52 2.793362 1_555
Cu23 Sn49 2.793362 1_555
Cu23 Sn14 2.812560 1_455
Cu23 Sn18 2.812560 1_455
Cu23 K24 3.658427 1_555
Cu24 Sn10 2.653725 1_555
Cu24 Sn14 2.759126 1_455
Cu24 Cu47 2.783409 1_555
Cu24 Cu41 2.785644 1_455
Cu24 Sn63 2.786198 1_555
Cu24 Sn80 2.790153 1_555
Cu24 Sn43 2.800246 1_455
Cu24 Sn52 2.800957 1_555
Cu24 K14 3.594959 1_555
Cu25 Sn11 2.653759 1_565
Cu25 Sn15 2.759095 1_454
Cu25 Cu44 2.783406 1_554
Cu25 Cu40 2.785672 1_455
Cu25 Sn62 2.786199 1_555
Cu25 Sn82 2.790146 1_555
Cu25 Sn42 2.800232 1_455
Cu25 Sn54 2.800948 1_554
Cu25 K15 3.594921 1_555
Cu26 Sn8 2.653589 1_555
Cu26 Sn12 2.759154 1_554
Cu26 Cu46 2.783392 1_554
Cu26 Cu43 2.785504 1_555
Cu26 Sn61 2.786222 1_555
Cu26 Sn83 2.790211 1_555
Cu26 Sn41 2.800252 1_555
Cu26 Sn55 2.801027 1_554
Cu26 K12 3.595084 1_555
Cu27 Sn9 2.653660 1_565
Cu27 Sn13 2.759130 1_555
Cu27 Cu3 2.765211 1_555
Cu27 Cu45 2.783318 1_555
Cu27 Cu42 2.785628 1_555
Cu27 Sn60 2.786232 1_555
Cu27 Sn81 2.790149 1_555
Cu27 Sn40 2.800302 1_555
Cu27 Sn53 2.800945 1_555
Cu27 K13 3.595021 1_555
Cu28 Sn11 2.653759 1_556
Cu28 Sn19 2.759095 1_445
Cu28 Cu4 2.765259 1_555
Cu28 Cu44 2.783406 1_545
Cu28 Cu37 2.785672 1_455
Cu28 Sn66 2.786199 1_555
Cu28 Sn70 2.790146 1_555
Cu28 Sn38 2.800232 1_455
Cu28 Sn50 2.800948 1_545
Cu28 K19 3.594921 1_555
Cu29 Sn10 2.653725 1_555
Cu29 Sn18 2.759126 1_455
Cu29 Cu5 2.765231 1_555
Cu29 Cu47 2.783409 1_555
Cu29 Cu36 2.785644 1_455
Cu29 Sn67 2.786198 1_555
Cu29 Sn69 2.790153 1_555
Cu29 Sn39 2.800246 1_455
Cu29 Sn49 2.800957 1_555
Cu29 K18 3.594959 1_555
Cu30 Sn9 2.653589 1_555
Cu30 Sn17 2.759154 1_545
Cu30 Cu6 2.765181 1_555
Cu30 Cu45 2.783392 1_545
Cu30 Cu39 2.785504 1_555
Cu30 Sn64 2.786222 1_555
Cu30 Sn71 2.790211 1_555
Cu30 Sn36 2.800252 1_555
Cu30 Sn51 2.801027 1_545
Cu30 K17 3.595084 1_555
Cu31 Sn8 2.653660 1_556
Cu31 Sn16 2.759130 1_555
Cu31 Cu7 2.765211 1_555
Cu31 Cu46 2.783318 1_555
Cu31 Cu38 2.785628 1_555
Cu31 Sn65 2.786232 1_555
Cu31 Sn68 2.790149 1_555
Cu31 Sn37 2.800302 1_555
Cu31 Sn48 2.800945 1_555
Cu31 K16 3.595021 1_555
Cu32 Sn11 2.654482 1_655
Cu32 Sn23 2.755507 1_544
Cu32 Cu8 2.764483 1_555
Cu32 Cu40 2.783569 1_545
Cu32 Cu37 2.783569 1_554
Cu32 Sn78 2.786151 1_555
Cu32 Sn74 2.786151 1_555
Cu32 Sn46 2.799604 1_545
Cu32 Sn58 2.799604 1_554
Cu32 K23 3.594858 1_555
Cu33 Sn9 2.654503 1_555
Cu33 Sn22 2.755537 1_545
Cu33 Cu9 2.764760 1_555
Cu33 Cu39 2.783557 1_555
Cu33 Cu42 2.783574 1_545
Cu33 Sn75 2.786119 1_555
Cu33 Sn77 2.786144 1_555
Cu33 Sn47 2.799586 1_545
Cu33 Sn57 2.799613 1_555
Cu33 K22 3.594792 1_555
Cu34 Sn8 2.654503 1_555
Cu34 Sn21 2.755537 1_554
Cu34 Cu43 2.783557 1_555
Cu34 Cu38 2.783574 1_554
Cu34 Sn79 2.786119 1_555
Cu34 Sn72 2.786144 1_555
Cu34 Sn59 2.799586 1_554
Cu34 Sn44 2.799613 1_555
Cu34 K21 3.594792 1_555
Cu35 Sn10 2.654500 1_655
Cu35 Sn20 2.755539 1_555
Cu35 Cu41 2.783559 1_555
Cu35 Cu36 2.783559 1_555
Cu35 Sn76 2.786164 1_555
Cu35 Sn73 2.786164 1_555
Cu35 Sn56 2.799594 1_555
Cu35 Sn45 2.799594 1_555
Cu35 K20 3.594780 1_555
Cu36 Sn10 2.650066 1_655
Cu36 Sn26 2.764051 1_655
Cu36 Cu5 2.786552 1_655
Cu36 Sn56 2.789854 1_555
Cu36 Sn39 2.793926 1_555
Cu36 Sn76 2.796661 1_555
Cu36 Sn67 2.799306 1_655
Cu36 K2 3.608172 1_555
Cu37 Sn11 2.650082 1_656
Cu37 Sn27 2.764013 1_656
Cu37 Cu8 2.784245 1_556
Cu37 Cu4 2.786534 1_655
Cu37 Sn58 2.789875 1_555
Cu37 Sn38 2.793919 1_555
Cu37 Sn78 2.796672 1_556
Cu37 Sn66 2.799275 1_655
Cu37 K3 3.608177 1_555
Cu38 Sn8 2.650087 1_556
Cu38 Sn24 2.763997 1_556
Cu38 Cu7 2.786507 1_555
Cu38 Sn59 2.789889 1_555
Cu38 Sn37 2.793933 1_555
Cu38 Sn79 2.796660 1_556
Cu38 Sn65 2.799254 1_555
Cu38 K0 3.608137 1_555
Cu39 Sn9 2.650051 1_555
Cu39 Sn25 2.764120 1_555
Cu39 Cu9 2.784519 1_555
Cu39 Cu6 2.786657 1_555
Cu39 Sn57 2.789795 1_555
Cu39 Sn36 2.793854 1_555
Cu39 Sn77 2.796690 1_555
Cu39 Sn64 2.799326 1_555
Cu39 K1 3.608166 1_555
Cu40 Sn11 2.650082 1_665
Cu40 Sn31 2.764013 1_665
Cu40 Cu8 2.784245 1_565
Cu40 Sn46 2.789875 1_555
Cu40 Sn42 2.793919 1_555
Cu40 Sn74 2.796672 1_565
Cu40 Sn62 2.799275 1_655
Cu40 K7 3.608177 1_555
Cu41 Sn10 2.650066 1_655
Cu41 Sn30 2.764051 1_655
Cu41 Sn45 2.789854 1_555
Cu41 Sn43 2.793926 1_555
Cu41 Sn73 2.796661 1_555
Cu41 Sn63 2.799306 1_655
Cu41 K6 3.608172 1_555
Cu42 Sn9 2.650087 1_565
Cu42 Sn29 2.763997 1_565
Cu42 Cu9 2.784476 1_565
Cu42 Sn47 2.789889 1_555
Cu42 Sn40 2.793933 1_555
Cu42 Sn75 2.796660 1_565
Cu42 Sn60 2.799254 1_555
Cu42 K5 3.608137 1_555
Cu43 Sn8 2.650051 1_555
Cu43 Sn28 2.764120 1_555
Cu43 Sn44 2.789795 1_555
Cu43 Sn41 2.793854 1_555
Cu43 Sn72 2.796690 1_555
Cu43 Sn61 2.799326 1_555
Cu43 K4 3.608166 1_555
Cu44 Sn11 2.649823 1_566
Cu44 Sn35 2.767969 1_566
Cu44 Sn50 2.791533 1_555
Cu44 Sn54 2.791533 1_555
Cu44 Sn70 2.800403 1_565
Cu44 Sn82 2.800403 1_556
Cu44 K11 3.599124 1_555
Cu45 Sn9 2.649847 1_565
Cu45 Sn34 2.768063 1_565
Cu45 Cu6 2.787356 1_565
Cu45 Sn53 2.791496 1_555
Cu45 Sn51 2.791541 1_555
Cu45 Sn81 2.800351 1_555
Cu45 Sn71 2.800433 1_565
Cu45 K10 3.599004 1_555
Cu46 Sn8 2.649847 1_556
Cu46 Sn33 2.768063 1_556
Cu46 Cu7 2.787383 1_555
Cu46 Sn48 2.791496 1_555
Cu46 Sn55 2.791541 1_555
Cu46 Sn68 2.800351 1_555
Cu46 Sn83 2.800433 1_556
Cu46 K9 3.599004 1_555
Cu47 Sn10 2.649854 1_555
Cu47 Sn32 2.768063 1_555
Cu47 Cu5 2.787356 1_555
Cu47 Sn52 2.791518 1_555
Cu47 Sn49 2.791518 1_555
Cu47 Sn69 2.800389 1_555
Cu47 Sn80 2.800389 1_555
Cu47 K8 3.598932 1_555
Sn0 Sn21 3.161621 1_555
Sn0 Sn16 3.166163 1_555
Sn0 Sn12 3.166177 1_555
Sn1 Sn22 3.161621 1_555
Sn1 Sn13 3.166163 1_555
Sn1 Sn17 3.166177 1_555
Sn2 Sn20 3.161632 1_555
Sn12 Sn55 3.110927 1_555
Sn12 Sn41 3.111318 1_556
Sn13 Sn53 3.110927 1_555
Sn13 Sn40 3.111323 1_555
Sn14 Sn52 3.110933 1_655
Sn14 Sn43 3.111325 1_555
Sn14 Sn2 3.166164 1_555
Sn15 Sn54 3.110937 1_655
Sn15 Sn42 3.111315 1_556
Sn15 Sn3 3.166167 1_555
Sn16 Sn48 3.110927 1_555
Sn16 Sn37 3.111323 1_555
Sn17 Sn51 3.110927 1_555
Sn17 Sn36 3.111318 1_565
Sn18 Sn49 3.110933 1_655
Sn18 Sn39 3.111325 1_555
Sn18 Sn2 3.166164 1_555
Sn19 Sn50 3.110937 1_655
Sn19 Sn38 3.111315 1_565
Sn19 Sn3 3.166167 1_555
Sn20 Sn56 3.111009 1_555
Sn20 Sn45 3.111009 1_555
Sn21 Sn59 3.110972 1_555
Sn21 Sn44 3.111023 1_556
Sn22 Sn47 3.110972 1_555
Sn22 Sn57 3.111023 1_565
Sn23 Sn46 3.110981 1_556
Sn23 Sn58 3.110981 1_565
Sn23 Sn3 3.161632 1_555
Sn24 Sn65 3.113151 1_554
Sn24 Sn79 3.113546 1_555
Sn24 Sn4 3.166408 1_555
Sn25 Sn64 3.113192 1_555
Sn25 Sn77 3.113525 1_555
Sn25 Sn5 3.166366 1_555
Sn26 Sn67 3.113207 1_555
Sn26 Sn76 3.113526 1_455
Sn26 Sn6 3.166369 1_555
Sn27 Sn66 3.113194 1_554
Sn27 Sn78 3.113530 1_455
Sn27 Sn7 3.166367 1_555
Sn28 Sn61 3.113192 1_555
Sn28 Sn72 3.113525 1_555
Sn28 Sn4 3.166366 1_555
Sn29 Sn60 3.113151 1_545
Sn29 Sn75 3.113546 1_555
Sn29 Sn5 3.166408 1_555
Sn30 Sn63 3.113207 1_555
Sn30 Sn73 3.113526 1_455
Sn30 Sn6 3.166369 1_555
Sn31 Sn62 3.113194 1_545
Sn31 Sn74 3.113530 1_455
Sn31 Sn7 3.166367 1_555
Sn32 Sn69 3.113610 1_555
Sn32 Sn80 3.113610 1_555
Sn32 Sn6 3.163071 1_555
Sn33 Sn83 3.113608 1_555
Sn33 Sn68 3.113625 1_554
Sn33 Sn4 3.163069 1_555
Sn34 Sn71 3.113608 1_555
Sn34 Sn81 3.113625 1_545
Sn34 Sn5 3.163069 1_555
Sn35 Sn82 3.113555 1_545
Sn35 Sn70 3.113555 1_554
Sn35 Sn7 3.163123 1_555
Sn36 Sn64 3.116176 1_555
Sn36 Sn57 3.149243 1_555
Sn37 Sn65 3.116179 1_555
Sn37 Sn59 3.149232 1_555
Sn38 Sn66 3.116177 1_655
Sn38 Sn58 3.149240 1_555
Sn39 Sn67 3.116185 1_655
Sn39 Sn56 3.149236 1_555
Sn40 Sn60 3.116179 1_555
Sn40 Sn47 3.149232 1_555
Sn41 Sn61 3.116176 1_555
Sn41 Sn44 3.149243 1_555
Sn42 Sn62 3.116177 1_655
Sn42 Sn46 3.149240 1_555
Sn43 Sn63 3.116185 1_655
Sn43 Sn45 3.149236 1_555
Sn44 Sn72 3.114890 1_555
Sn45 Sn73 3.114908 1_555
Sn46 Sn74 3.114898 1_565
Sn47 Sn75 3.114893 1_565
Sn48 Sn68 3.119197 1_555
Sn48 Sn55 3.148765 1_555
Sn49 Sn69 3.119212 1_555
Sn49 Sn52 3.148753 1_555
Sn50 Sn70 3.119205 1_565
Sn50 Sn54 3.148767 1_555
Sn51 Sn71 3.119201 1_565
Sn51 Sn53 3.148765 1_555
Sn52 Sn80 3.119212 1_555
Sn53 Sn81 3.119197 1_555
Sn54 Sn82 3.119205 1_556
Sn55 Sn83 3.119201 1_556
Sn56 Sn76 3.114908 1_555
Sn57 Sn77 3.114890 1_555
Sn58 Sn78 3.114898 1_556
Sn59 Sn79 3.114893 1_556
Sn60 Sn81 3.146779 1_555
Sn61 Sn83 3.146776 1_555
Sn62 Sn82 3.146784 1_555
Sn63 Sn80 3.146778 1_555
Sn64 Sn71 3.146776 1_555
Sn65 Sn68 3.146779 1_555
Sn66 Sn70 3.146784 1_555
Sn67 Sn69 3.146778 1_555
Sn72 Sn79 3.145395 1_555
Sn73 Sn76 3.145390 1_555
Sn74 Sn78 3.145385 1_555
Sn75 Sn77 3.145395 1_555
