# generated using pymatgen
data_ZrPbO5
_symmetry_space_group_name_H-M   'P 1'
_cell_length_a   6.64517280
_cell_length_b   7.95882601
_cell_length_c   7.86663199
_cell_angle_alpha   87.78354971
_cell_angle_beta   76.81593933
_cell_angle_gamma   93.85231077
_symmetry_Int_Tables_number   1
_chemical_formula_structural   ZrPbO5
_chemical_formula_sum   'Zr4 Pb4 O20'
_cell_volume   403.54246898
_cell_formula_units_Z   4
loop_
 _symmetry_equiv_pos_site_id
 _symmetry_equiv_pos_as_xyz
  1  'x, y, z'
loop_
 _atom_site_type_symbol
 _atom_site_label
 _atom_site_symmetry_multiplicity
 _atom_site_fract_x
 _atom_site_fract_y
 _atom_site_fract_z
 _atom_site_occupancy
  Zr  Zr0  1  0.76041100  0.24877300  0.37968300  1
  Zr  Zr1  1  0.75712900  0.77249800  0.35508200  1
  Zr  Zr2  1  0.70727700  0.24753100  0.89451300  1
  Zr  Zr3  1  0.81526300  0.76960200  0.84712900  1
  Pb  Pb0  1  0.23730400  0.99385700  0.51080700  1
  Pb  Pb1  1  0.13419100  0.03873400  0.03988100  1
  Pb  Pb2  1  0.30633200  0.48033600  0.85453700  1
  Pb  Pb3  1  0.09954500  0.52084900  0.51015200  1
  O  O0  1  0.98373900  0.26856900  0.00004500  1
  O  O1  1  0.06491900  0.22502500  0.45584900  1
  O  O2  1  0.86197700  0.76695900  0.08797700  1
  O  O3  1  0.95619100  0.78858700  0.54267500  1
  O  O4  1  0.38602100  0.47292900  0.56136200  1
  O  O5  1  0.12505000  0.92703100  0.79632800  1
  O  O6  1  0.30860100  0.01750600  0.22765000  1
  O  O7  1  0.27479300  0.53755800  0.17585900  1
  O  O8  1  0.49369100  0.16011000  0.52883700  1
  O  O9  1  0.38898100  0.23160200  0.90731600  1
  O  O10  1  0.46610200  0.80006700  0.47699000  1
  O  O11  1  0.42505000  0.75774900  0.99288100  1
  O  O12  1  0.66058700  0.30592100  0.15622000  1
  O  O13  1  0.40980600  0.67814200  0.15120100  1
  O  O14  1  0.63702400  0.53147200  0.83299900  1
  O  O15  1  0.71946500  0.00673000  0.84184100  1
  O  O16  1  0.85267900  0.01962500  0.28923000  1
  O  O17  1  0.86825700  0.52246100  0.35953200  1
  O  O18  1  0.84375100  0.32148200  0.63175600  1
  O  O19  1  0.04186000  0.57529600  0.79566600  1
loop_
_geom_bond_atom_site_label_1
_geom_bond_atom_site_label_2
_geom_bond_distance
_geom_bond_site_symmetry_2
O0 Zr2 2.181157 1_554
O0 Pb1 2.188176 1_655
O0 Pb2 2.644284 1_654
O1 Zr0 2.254995 1_455
O1 Pb0 2.309045 1_545
O1 Pb3 2.414233 1_555
O2 Zr3 1.988123 1_554
O2 Zr1 2.060576 1_555
O2 Pb1 2.681915 1_665
O3 Zr1 2.196881 1_555
O3 Zr3 2.359209 1_555
O3 Pb0 2.359250 1_655
O3 Pb3 2.391093 1_655
O4 Pb3 2.089798 1_555
O4 Pb2 2.249560 1_555
O5 Pb1 2.154639 1_566
O5 Pb0 2.230299 1_555
O5 Zr3 2.281839 1_455
O6 Pb1 2.083644 1_555
O6 Pb0 2.166979 1_545
O7 Pb2 2.549690 1_554
O7 Pb3 2.616230 1_555
O8 Zr0 1.958401 1_555
O8 Pb0 2.120252 1_545
O9 Zr2 2.089451 1_555
O9 Pb2 2.139976 1_555
O9 Pb1 2.243202 1_556
O10 Zr1 1.983729 1_555
O10 Pb0 2.218905 1_555
O11 O13 1.354846 1_556
O11 Zr3 2.578741 1_555
O11 Pb2 2.650465 1_555
O12 Zr0 2.061005 1_555
O12 Zr2 2.086310 1_554
O13 O7 1.365067 1_555
O14 Pb2 2.174402 1_555
O14 Zr3 2.186748 1_555
O14 Zr2 2.391484 1_555
O15 Zr2 1.979435 1_555
O15 Zr3 2.033759 1_545
O16 Zr1 2.035515 1_545
O16 Zr0 2.063960 1_555
O16 Pb1 2.373838 1_655
O17 Pb3 2.144406 1_655
O17 Zr1 2.170375 1_555
O17 Zr0 2.234982 1_555
O18 Zr2 2.102494 1_555
O18 Pb3 2.258442 1_655
O18 Zr0 2.262823 1_555
O19 Pb2 2.096906 1_555
O19 Zr3 2.214950 1_455
O19 Pb3 2.254828 1_555
