# generated using pymatgen
data_TlPC4S4(N2O)4
_symmetry_space_group_name_H-M   'P 1'
_cell_length_a   10.40133283
_cell_length_b   10.40133283
_cell_length_c   8.01336100
_cell_angle_alpha   90.00000000
_cell_angle_beta   90.00000000
_cell_angle_gamma   92.03258548
_symmetry_Int_Tables_number   1
_chemical_formula_structural   TlPC4S4(N2O)4
_chemical_formula_sum   'Tl2 P2 C8 S8 N16 O8'
_cell_volume   866.40182506
_cell_formula_units_Z   2
loop_
 _symmetry_equiv_pos_site_id
 _symmetry_equiv_pos_as_xyz
  1  'x, y, z'
loop_
 _atom_site_type_symbol
 _atom_site_label
 _atom_site_symmetry_multiplicity
 _atom_site_fract_x
 _atom_site_fract_y
 _atom_site_fract_z
 _atom_site_occupancy
  Tl  Tl0  1  0.50000000  0.50000000  0.25000000  1
  Tl  Tl1  1  0.50000000  0.50000000  0.75000000  1
  P  P0  1  0.00000000  0.00000000  0.00000000  1
  P  P1  1  0.00000000  0.00000000  0.50000000  1
  C  C0  1  0.61435800  0.82405400  0.00000000  1
  C  C1  1  0.38564200  0.17594600  0.00000000  1
  C  C2  1  0.17594600  0.38564200  0.50000000  1
  C  C3  1  0.82405400  0.61435800  0.50000000  1
  C  C4  1  0.82245800  0.40061000  0.00000000  1
  C  C5  1  0.17754200  0.59939000  0.00000000  1
  C  C6  1  0.59939000  0.17754200  0.50000000  1
  C  C7  1  0.40061000  0.82245800  0.50000000  1
  S  S0  1  0.28342400  0.46157700  0.00000000  1
  S  S1  1  0.71657600  0.53842300  0.00000000  1
  S  S2  1  0.53842300  0.71657600  0.50000000  1
  S  S3  1  0.46157700  0.28342400  0.50000000  1
  S  S4  1  0.47012300  0.71813200  0.00000000  1
  S  S5  1  0.52987700  0.28186800  0.00000000  1
  S  S6  1  0.28186800  0.52987700  0.50000000  1
  S  S7  1  0.71813200  0.47012300  0.50000000  1
  N  N0  1  0.85383700  0.36267100  0.14952500  1
  N  N1  1  0.14616300  0.63732900  0.85047500  1
  N  N2  1  0.14616300  0.63732900  0.14952500  1
  N  N3  1  0.63732900  0.14616300  0.35047500  1
  N  N4  1  0.85383700  0.36267100  0.85047500  1
  N  N5  1  0.36267100  0.85383700  0.64952500  1
  N  N6  1  0.36267100  0.85383700  0.35047500  1
  N  N7  1  0.63732900  0.14616300  0.64952500  1
  N  N8  1  0.14435700  0.34429700  0.35094100  1
  N  N9  1  0.85564300  0.65570300  0.64905900  1
  N  N10  1  0.85564300  0.65570300  0.35094100  1
  N  N11  1  0.65570300  0.85564300  0.14905900  1
  N  N12  1  0.14435700  0.34429700  0.64905900  1
  N  N13  1  0.34429700  0.14435700  0.85094100  1
  N  N14  1  0.34429700  0.14435700  0.14905900  1
  N  N15  1  0.65570300  0.85564300  0.85094100  1
  O  O0  1  0.99328400  0.11458300  0.12556900  1
  O  O1  1  0.00671600  0.88541700  0.87443100  1
  O  O2  1  0.00671600  0.88541700  0.12556900  1
  O  O3  1  0.88541700  0.00671600  0.37443100  1
  O  O4  1  0.99328400  0.11458300  0.87443100  1
  O  O5  1  0.11458300  0.99328400  0.62556900  1
  O  O6  1  0.11458300  0.99328400  0.37443100  1
  O  O7  1  0.88541700  0.00671600  0.62556900  1
loop_
_geom_bond_atom_site_label_1
_geom_bond_atom_site_label_2
_geom_bond_distance
_geom_bond_site_symmetry_2
C0 N11 1.307522 1_555
C0 N15 1.307522 1_554
C0 S4 1.829555 1_555
C1 N14 1.307522 1_555
C1 N13 1.307522 1_554
C1 S5 1.829555 1_555
C2 N8 1.307522 1_555
C2 N12 1.307522 1_555
C2 S6 1.829555 1_555
C3 N10 1.307522 1_555
C3 N9 1.307522 1_555
C3 S7 1.829555 1_555
C4 N0 1.306546 1_555
C4 N4 1.306546 1_554
C4 S1 1.838375 1_555
C5 N2 1.306546 1_555
C5 N1 1.306546 1_554
C5 S0 1.838375 1_555
C6 N3 1.306546 1_555
C6 N7 1.306546 1_555
C6 S3 1.838375 1_555
C7 N6 1.306546 1_555
C7 N5 1.306546 1_555
C7 S2 1.838375 1_555
S0 Tl1 3.030477 1_554
S0 Tl0 3.030477 1_555
S1 Tl1 3.030477 1_554
S1 Tl0 3.030477 1_555
S2 Tl0 3.030477 1_555
S2 Tl1 3.030477 1_555
S3 Tl0 3.030477 1_555
S3 Tl1 3.030477 1_555
S4 Tl0 3.050852 1_555
S4 Tl1 3.050852 1_554
S5 Tl0 3.050852 1_555
S5 Tl1 3.050852 1_554
S6 Tl0 3.050852 1_555
S6 Tl1 3.050852 1_555
S7 Tl0 3.050852 1_555
S7 Tl1 3.050852 1_555
O0 P0 1.563237 1_655
O1 P0 1.563237 1_566
O2 P0 1.563237 1_565
O3 P1 1.563237 1_655
O4 P0 1.563237 1_656
O5 P1 1.563237 1_565
O6 P1 1.563237 1_565
O7 P1 1.563237 1_655
