# generated using pymatgen
data_TcC4NO4
_symmetry_space_group_name_H-M   'P 1'
_cell_length_a   5.52050300
_cell_length_b   10.07029500
_cell_length_c   11.90294500
_cell_angle_alpha   90.00000000
_cell_angle_beta   90.00000000
_cell_angle_gamma   90.00000000
_symmetry_Int_Tables_number   1
_chemical_formula_structural   TcC4NO4
_chemical_formula_sum   'Tc4 C16 N4 O16'
_cell_volume   661.72153739
_cell_formula_units_Z   4
loop_
 _symmetry_equiv_pos_site_id
 _symmetry_equiv_pos_as_xyz
  1  'x, y, z'
loop_
 _atom_site_type_symbol
 _atom_site_label
 _atom_site_symmetry_multiplicity
 _atom_site_fract_x
 _atom_site_fract_y
 _atom_site_fract_z
 _atom_site_occupancy
  Tc  Tc0  1  0.59173600  0.26930700  0.75659500  1
  Tc  Tc1  1  0.59173600  0.73069300  0.24340500  1
  Tc  Tc2  1  0.40826400  0.23069300  0.25659500  1
  Tc  Tc3  1  0.40826400  0.76930700  0.74340500  1
  C  C0  1  0.86288200  0.53795900  0.08332900  1
  C  C1  1  0.86288200  0.46204100  0.91667100  1
  C  C2  1  0.13711800  0.96204100  0.58332900  1
  C  C3  1  0.13711800  0.03795900  0.41667100  1
  C  C4  1  0.11646900  0.49905700  0.94679800  1
  C  C5  1  0.11646900  0.50094300  0.05320200  1
  C  C6  1  0.88353100  0.00094300  0.44679800  1
  C  C7  1  0.88353100  0.99905700  0.55320200  1
  C  C8  1  0.09443300  0.42786600  0.53915900  1
  C  C9  1  0.09443300  0.57213400  0.46084100  1
  C  C10  1  0.90556700  0.07213400  0.03915900  1
  C  C11  1  0.90556700  0.92786600  0.96084100  1
  C  C12  1  0.17829700  0.44136700  0.41893100  1
  C  C13  1  0.17829700  0.55863300  0.58106900  1
  C  C14  1  0.82170300  0.05863300  0.91893100  1
  C  C15  1  0.82170300  0.94136700  0.08106900  1
  N  N0  1  0.70740100  0.50000000  0.00000000  1
  N  N1  1  0.29259900  0.00000000  0.50000000  1
  N  N2  1  0.87257900  0.50000000  0.50000000  1
  N  N3  1  0.12742100  0.00000000  0.00000000  1
  O  O0  1  0.29716400  0.28612400  0.79736100  1
  O  O1  1  0.29716400  0.71387600  0.20263900  1
  O  O2  1  0.70283600  0.21387600  0.29736100  1
  O  O3  1  0.70283600  0.78612400  0.70263900  1
  O  O4  1  0.80456100  0.40314600  0.82636800  1
  O  O5  1  0.80456100  0.59685400  0.17363200  1
  O  O6  1  0.19543900  0.09685400  0.32636800  1
  O  O7  1  0.19543900  0.90314600  0.67363200  1
  O  O8  1  0.66164300  0.25539300  0.61785800  1
  O  O9  1  0.66164300  0.74460700  0.38214200  1
  O  O10  1  0.33835700  0.24460700  0.11785800  1
  O  O11  1  0.33835700  0.75539300  0.88214200  1
  O  O12  1  0.79125500  0.11775200  0.82847300  1
  O  O13  1  0.79125500  0.88224800  0.17152700  1
  O  O14  1  0.20874500  0.38224800  0.32847300  1
  O  O15  1  0.20874500  0.61775200  0.67152700  1
loop_
_geom_bond_atom_site_label_1
_geom_bond_atom_site_label_2
_geom_bond_distance
_geom_bond_site_symmetry_2
C0 O5 1.269159 1_555
C0 N0 1.366252 1_555
C0 C5 1.492429 1_655
C1 O4 1.269159 1_555
C1 N0 1.366252 1_556
C1 C4 1.492429 1_655
C2 O7 1.269159 1_555
C2 N1 1.366252 1_565
C2 C7 1.492429 1_455
C3 O6 1.269159 1_555
C3 N1 1.366252 1_555
C3 C6 1.492429 1_455
C4 C5 1.266663 1_556
C6 C7 1.266663 1_545
C8 N2 1.498309 1_455
C9 N2 1.498309 1_455
C10 N3 1.498309 1_655
C11 N3 1.498309 1_666
C12 O14 1.241777 1_555
C13 O15 1.241777 1_555
C14 O12 1.241777 1_555
C15 O13 1.241777 1_555
O0 Tc0 1.705466 1_555
O1 Tc1 1.705466 1_555
O2 Tc2 1.705466 1_555
O3 Tc3 1.705466 1_555
O4 Tc0 1.971469 1_555
O5 Tc1 1.971469 1_555
O6 Tc2 1.971469 1_555
O7 Tc3 1.971469 1_555
O8 Tc0 1.701652 1_555
O9 Tc1 1.701652 1_555
O10 Tc2 1.701652 1_555
O11 Tc3 1.701652 1_555
O12 Tc0 2.067477 1_555
O13 Tc1 2.067477 1_555
O14 Tc2 2.067477 1_555
O15 Tc3 2.067477 1_555
