# generated using pymatgen
data_PW4Cl11
_symmetry_space_group_name_H-M   'P 1'
_cell_length_a   8.58502394
_cell_length_b   8.58502394
_cell_length_c   11.43059718
_cell_angle_alpha   89.31033669
_cell_angle_beta   89.31033669
_cell_angle_gamma   70.80547396
_symmetry_Int_Tables_number   1
_chemical_formula_structural   PW4Cl11
_chemical_formula_sum   'P2 W8 Cl22'
_cell_volume   795.54388574
_cell_formula_units_Z   2
loop_
 _symmetry_equiv_pos_site_id
 _symmetry_equiv_pos_as_xyz
  1  'x, y, z'
loop_
 _atom_site_type_symbol
 _atom_site_label
 _atom_site_symmetry_multiplicity
 _atom_site_fract_x
 _atom_site_fract_y
 _atom_site_fract_z
 _atom_site_occupancy
  P  P0  1  0.32474806  0.32474806  0.74868386  1
  P  P1  1  0.67525194  0.67525194  0.25131614  1
  W  W0  1  0.09397780  0.35348262  0.87261845  1
  W  W1  1  0.35348262  0.09397780  0.87261845  1
  W  W2  1  0.90602220  0.64651738  0.12738155  1
  W  W3  1  0.64651738  0.90602220  0.12738155  1
  W  W4  1  0.09391722  0.35343888  0.62839568  1
  W  W5  1  0.35343888  0.09391722  0.62839568  1
  W  W6  1  0.90608278  0.64656112  0.37160432  1
  W  W7  1  0.64656112  0.90608278  0.37160432  1
  Cl  Cl0  1  0.92557882  0.24352086  0.75310133  1
  Cl  Cl1  1  0.24352086  0.92557882  0.75310133  1
  Cl  Cl2  1  0.07442118  0.75647914  0.24689867  1
  Cl  Cl3  1  0.75647914  0.07442118  0.24689867  1
  Cl  Cl4  1  0.46906109  0.46906109  0.74588131  1
  Cl  Cl5  1  0.53093891  0.53093891  0.25411869  1
  Cl  Cl6  1  0.98482046  0.60701905  0.74912746  1
  Cl  Cl7  1  0.60701905  0.98482046  0.74912746  1
  Cl  Cl8  1  0.01517954  0.39298095  0.25087254  1
  Cl  Cl9  1  0.39298095  0.01517954  0.25087254  1
  Cl  Cl10  1  0.12726542  0.12726542  0.00731370  1
  Cl  Cl11  1  0.87273458  0.87273458  0.99268630  1
  Cl  Cl12  1  0.17998127  0.51935242  0.01168738  1
  Cl  Cl13  1  0.51935242  0.17998127  0.01168738  1
  Cl  Cl14  1  0.82001873  0.48064758  0.98831262  1
  Cl  Cl15  1  0.48064758  0.82001873  0.98831262  1
  Cl  Cl16  1  0.12700080  0.12700080  0.49748481  1
  Cl  Cl17  1  0.87299920  0.87299920  0.50251519  1
  Cl  Cl18  1  0.17988160  0.51934642  0.48484874  1
  Cl  Cl19  1  0.51934642  0.17988160  0.48484874  1
  Cl  Cl20  1  0.82011840  0.48065358  0.51515126  1
  Cl  Cl21  1  0.48065358  0.82011840  0.51515126  1
loop_
_geom_bond_atom_site_label_1
_geom_bond_atom_site_label_2
_geom_bond_distance
_geom_bond_site_symmetry_2
P0 W1 2.369019 1_555
P0 W0 2.369019 1_555
P0 W4 2.369550 1_555
P0 W5 2.369550 1_555
P1 W3 2.369019 1_555
P1 W2 2.369019 1_555
P1 W6 2.369550 1_555
P1 W7 2.369550 1_555
Cl0 W0 2.413222 1_655
Cl0 W4 2.413658 1_655
Cl1 W1 2.413222 1_565
Cl1 W5 2.413658 1_565
Cl2 W2 2.413222 1_455
Cl2 W6 2.413658 1_455
Cl3 W3 2.413222 1_545
Cl3 W7 2.413658 1_545
Cl4 P0 2.019486 1_555
Cl5 P1 2.019486 1_555
Cl6 W4 2.494291 1_655
Cl6 W0 2.495002 1_655
Cl7 W5 2.494291 1_565
Cl7 W1 2.495002 1_565
Cl8 W6 2.494291 1_455
Cl8 W2 2.495002 1_455
Cl9 W7 2.494291 1_545
Cl9 W3 2.495002 1_545
Cl10 W0 2.407805 1_554
Cl10 W1 2.407805 1_554
Cl11 W3 2.407805 1_556
Cl11 W2 2.407805 1_556
Cl12 W0 2.423627 1_554
Cl12 W2 2.596899 1_455
Cl13 W1 2.423627 1_554
Cl13 W3 2.596899 1_545
Cl14 W2 2.423627 1_556
Cl14 W0 2.596899 1_655
Cl15 W3 2.423627 1_556
Cl15 W1 2.596899 1_565
Cl16 W5 2.407412 1_555
Cl16 W4 2.407412 1_555
Cl17 W7 2.407412 1_555
Cl17 W6 2.407412 1_555
Cl18 W4 2.423104 1_555
Cl18 W6 2.597062 1_455
Cl19 W5 2.423104 1_555
Cl19 W7 2.597062 1_545
Cl20 W6 2.423104 1_555
Cl20 W4 2.597062 1_655
Cl21 W7 2.423104 1_555
Cl21 W5 2.597062 1_565
