# generated using pymatgen
data_AlCo(OF)6
_symmetry_space_group_name_H-M   'P 1'
_cell_length_a   5.53282700
_cell_length_b   7.96744260
_cell_length_c   7.96744260
_cell_angle_alpha   100.32094553
_cell_angle_beta   91.78038112
_cell_angle_gamma   91.78038112
_symmetry_Int_Tables_number   1
_chemical_formula_structural   AlCo(OF)6
_chemical_formula_sum   'Al2 Co2 O12 F12'
_cell_volume   345.13511479
_cell_formula_units_Z   2
loop_
 _symmetry_equiv_pos_site_id
 _symmetry_equiv_pos_as_xyz
  1  'x, y, z'
loop_
 _atom_site_type_symbol
 _atom_site_label
 _atom_site_symmetry_multiplicity
 _atom_site_fract_x
 _atom_site_fract_y
 _atom_site_fract_z
 _atom_site_occupancy
  Al  Al0  1  0.50000000  0.50000000  0.00000000  1
  Al  Al1  1  0.50000000  0.00000000  0.50000000  1
  Co  Co0  1  0.00000000  0.00000000  0.00000000  1
  Co  Co1  1  0.00000000  0.50000000  0.50000000  1
  O  O0  1  0.68599300  0.45649400  0.45649400  1
  O  O1  1  0.31400700  0.54350600  0.54350600  1
  O  O2  1  0.00000000  0.85112900  0.14887100  1
  O  O3  1  0.00000000  0.14887100  0.85112900  1
  O  O4  1  0.17598500  0.85314600  0.85314600  1
  O  O5  1  0.82401500  0.14685400  0.14685400  1
  O  O6  1  0.74894600  0.88681900  0.88681900  1
  O  O7  1  0.25105400  0.11318100  0.11318100  1
  O  O8  1  0.95849000  0.53078700  0.72864300  1
  O  O9  1  0.04151000  0.46921300  0.27135700  1
  O  O10  1  0.04151000  0.27135700  0.46921300  1
  O  O11  1  0.95849000  0.72864300  0.53078700  1
  F  F0  1  0.58275900  0.51989800  0.78379100  1
  F  F1  1  0.41724100  0.48010200  0.21620900  1
  F  F2  1  0.41724100  0.21620900  0.48010200  1
  F  F3  1  0.58275900  0.78379100  0.51989800  1
  F  F4  1  0.79113600  0.59442700  0.08638500  1
  F  F5  1  0.20886400  0.40557300  0.91361500  1
  F  F6  1  0.20886400  0.91361500  0.40557300  1
  F  F7  1  0.79113600  0.08638500  0.59442700  1
  F  F8  1  0.37323200  0.71321200  0.02964800  1
  F  F9  1  0.62676800  0.28678800  0.97035200  1
  F  F10  1  0.62676800  0.97035200  0.28678800  1
  F  F11  1  0.37323200  0.02964800  0.71321200  1
loop_
_geom_bond_atom_site_label_1
_geom_bond_atom_site_label_2
_geom_bond_distance
_geom_bond_site_symmetry_2
Al0 F4 1.817880 1_555
Al0 F5 1.817880 1_554
Al0 F0 1.828831 1_554
Al0 F1 1.828831 1_555
Al0 F8 1.836859 1_555
Al0 F9 1.836859 1_554
Al1 F7 1.817880 1_555
Al1 F6 1.817880 1_545
Al1 F3 1.828831 1_545
Al1 F2 1.828831 1_555
Al1 F11 1.836859 1_555
Al1 F10 1.836859 1_545
Co0 O6 1.763161 1_444
Co0 O7 1.763161 1_555
Co0 O3 1.821507 1_554
Co0 O2 1.821507 1_545
Co0 O5 1.826786 1_455
Co0 O4 1.826786 1_544
Co1 O1 1.772226 1_555
Co1 O0 1.772226 1_455
Co1 O9 1.816834 1_555
Co1 O10 1.816834 1_555
Co1 O8 1.816834 1_455
Co1 O11 1.816834 1_455
