# generated using pymatgen
data_Na3YbSi2O7
_symmetry_space_group_name_H-M   'P 1'
_cell_length_a   13.98224113
_cell_length_b   16.50621849
_cell_length_c   16.50521905
_cell_angle_alpha   120.00200635
_cell_angle_beta   89.99238718
_cell_angle_gamma   90.01522472
_symmetry_Int_Tables_number   1
_chemical_formula_structural   Na3YbSi2O7
_chemical_formula_sum   'Na54 Yb18 Si36 O126'
_cell_volume   3298.88749909
_cell_formula_units_Z   18
loop_
 _symmetry_equiv_pos_site_id
 _symmetry_equiv_pos_as_xyz
  1  'x, y, z'
loop_
 _atom_site_type_symbol
 _atom_site_label
 _atom_site_symmetry_multiplicity
 _atom_site_fract_x
 _atom_site_fract_y
 _atom_site_fract_z
 _atom_site_occupancy
  Na  Na0  1  0.26379341  0.34201544  0.33942957  1
  Na  Na1  1  0.26382650  0.99737534  0.65793693  1
  Na  Na2  1  0.26375635  0.66064011  0.00255980  1
  Na  Na3  1  0.76379341  0.00258587  0.66057043  1
  Na  Na4  1  0.76382650  0.33943841  0.34206307  1
  Na  Na5  1  0.76375635  0.65808031  0.99744020  1
  Na  Na6  1  0.09578338  0.23214050  0.45269273  1
  Na  Na7  1  0.09572786  0.22063027  0.76789681  1
  Na  Na8  1  0.09578776  0.54748021  0.77951835  1
  Na  Na9  1  0.59578338  0.77944778  0.54730727  1
  Na  Na10  1  0.59572786  0.45273346  0.23210319  1
  Na  Na11  1  0.59578776  0.76796186  0.22048165  1
  Na  Na12  1  0.08017199  0.54383877  0.10773028  1
  Na  Na13  1  0.08019632  0.56397006  0.45618132  1
  Na  Na14  1  0.08015982  0.89220573  0.43606313  1
  Na  Na15  1  0.58017199  0.43610850  0.89226972  1
  Na  Na16  1  0.58019632  0.10778874  0.54381868  1
  Na  Na17  1  0.58015982  0.45614260  0.56393687  1
  Na  Na18  1  0.24616646  0.00434807  0.32549788  1
  Na  Na19  1  0.24609964  0.32117302  0.99561487  1
  Na  Na20  1  0.24600952  0.67450679  0.67894569  1
  Na  Na21  1  0.74616646  0.67885019  0.67450212  1
  Na  Na22  1  0.74609964  0.32555815  0.00438513  1
  Na  Na23  1  0.74600952  0.99556110  0.32105431  1
  Na  Na24  1  0.42145231  0.23302618  0.10944448  1
  Na  Na25  1  0.42144564  0.87644532  0.76702757  1
  Na  Na26  1  0.42151001  0.89046839  0.12355495  1
  Na  Na27  1  0.92145231  0.12358171  0.89055552  1
  Na  Na28  1  0.92144564  0.10941775  0.23297243  1
  Na  Na29  1  0.92151001  0.76691345  0.87644505  1
  Na  Na30  1  0.09856543  0.21667933  0.10409875  1
  Na  Na31  1  0.09866828  0.88729934  0.78342042  1
  Na  Na32  1  0.09861975  0.89580654  0.11242633  1
  Na  Na33  1  0.59856543  0.11258057  0.89590125  1
  Na  Na34  1  0.59866828  0.10387892  0.21657958  1
  Na  Na35  1  0.59861975  0.78338021  0.88757367  1
  Na  Na36  1  0.41723582  0.55424669  0.11064731  1
  Na  Na37  1  0.41717308  0.55641209  0.44578022  1
  Na  Na38  1  0.41716476  0.88934538  0.44353581  1
  Na  Na39  1  0.91723582  0.44359938  0.88935269  1
  Na  Na40  1  0.91717308  0.11063187  0.55421978  1
  Na  Na41  1  0.91716476  0.44580958  0.55646419  1
  Na  Na42  1  0.41496673  0.24154675  0.43961792  1
  Na  Na43  1  0.41498769  0.19804722  0.75847623  1
  Na  Na44  1  0.41501059  0.56046710  0.80200197  1
  Na  Na45  1  0.91496673  0.80192883  0.56038208  1
  Na  Na46  1  0.91498769  0.43957099  0.24152377  1
  Na  Na47  1  0.91501059  0.75846513  0.19799803  1
  Na  Na48  1  0.00257104  0.33338303  0.66673216  1
  Na  Na49  1  0.50257104  0.66665087  0.33326784  1
  Na  Na50  1  0.50825009  0.33333754  0.66669989  1
  Na  Na51  1  0.00825009  0.66663765  0.33330011  1
  Na  Na52  1  0.49775328  0.99990983  0.00000654  1
  Na  Na53  1  0.99775328  0.99990330  0.99999346  1
  Yb  Yb0  1  0.49958584  0.00755814  0.32832470  1
  Yb  Yb1  1  0.49955058  0.32077777  0.99242300  1
  Yb  Yb2  1  0.49955955  0.67162196  0.67921185  1
  Yb  Yb3  1  0.99958584  0.67923345  0.67167530  1
  Yb  Yb4  1  0.99955058  0.32835477  0.00757700  1
  Yb  Yb5  1  0.99955955  0.99241011  0.32078815  1
  Yb  Yb6  1  0.01606970  0.33988713  0.34572565  1
  Yb  Yb7  1  0.01608052  0.00583922  0.66006520  1
  Yb  Yb8  1  0.01615832  0.65434329  0.99412983  1
  Yb  Yb9  1  0.51606970  0.99416148  0.65427435  1
  Yb  Yb10  1  0.51608052  0.34577401  0.33993480  1
  Yb  Yb11  1  0.51615832  0.66021346  0.00587017  1
  Yb  Yb12  1  0.24687164  0.33331820  0.66664340  1
  Yb  Yb13  1  0.74687164  0.66667479  0.33335660  1
  Yb  Yb14  1  0.25489304  0.66667193  0.33331966  1
  Yb  Yb15  1  0.75489304  0.33335227  0.66668034  1
  Yb  Yb16  1  0.24722474  0.99991054  0.99995368  1
  Yb  Yb17  1  0.74722474  0.99995686  0.00004632  1
  Si  Si0  1  0.14922233  0.11986451  0.23071695  1
  Si  Si1  1  0.14931462  0.11084597  0.88008505  1
  Si  Si2  1  0.14927552  0.76922163  0.88917164  1
  Si  Si3  1  0.64922233  0.88914756  0.76928305  1
  Si  Si4  1  0.64931462  0.23076092  0.11991495  1
  Si  Si5  1  0.64927552  0.88004998  0.11082836  1
  Si  Si6  1  0.36665438  0.12735578  0.21926114  1
  Si  Si7  1  0.36660772  0.09189003  0.87259670  1
  Si  Si8  1  0.36672270  0.78073367  0.90817614  1
  Si  Si9  1  0.86665438  0.90809464  0.78073886  1
  Si  Si10  1  0.86660772  0.21929332  0.12740330  1
  Si  Si11  1  0.86672270  0.87255754  0.09182386  1
  Si  Si12  1  0.14706570  0.10522960  0.54521419  1
  Si  Si13  1  0.14724278  0.44003749  0.89472062  1
  Si  Si14  1  0.14720940  0.45472856  0.55997819  1
  Si  Si15  1  0.64706570  0.56001541  0.45478581  1
  Si  Si16  1  0.64724278  0.54531686  0.10527938  1
  Si  Si17  1  0.64720940  0.89475036  0.44002181  1
  Si  Si18  1  0.36118429  0.10971522  0.54336766  1
  Si  Si19  1  0.36116315  0.43374038  0.89026714  1
  Si  Si20  1  0.36112413  0.45667229  0.56636044  1
  Si  Si21  1  0.86118429  0.56634756  0.45663234  1
  Si  Si22  1  0.86116315  0.54347323  0.10973286  1
  Si  Si23  1  0.86112413  0.89031185  0.43363956  1
  Si  Si24  1  0.14706185  0.44340843  0.22249156  1
  Si  Si25  1  0.14703293  0.77907505  0.55659062  1
  Si  Si26  1  0.14699870  0.77750439  0.22090916  1
  Si  Si27  1  0.64706185  0.22091687  0.77750844  1
  Si  Si28  1  0.64703293  0.22248443  0.44340938  1
  Si  Si29  1  0.64699870  0.55659523  0.77909084  1
  Si  Si30  1  0.36246469  0.44299763  0.21460449  1
  Si  Si31  1  0.36250423  0.77156484  0.55699835  1
  Si  Si32  1  0.36253551  0.78538186  0.22840042  1
  Si  Si33  1  0.86246469  0.22839314  0.78539551  1
  Si  Si34  1  0.86250423  0.21456648  0.44300165  1
  Si  Si35  1  0.86253551  0.55698144  0.77159958  1
  O  O0  1  0.26233955  0.11604929  0.26406376  1
  O  O1  1  0.26236460  0.14800085  0.88393465  1
  O  O2  1  0.26239111  0.73591687  0.85202052  1
  O  O3  1  0.76233955  0.85198553  0.73593624  1
  O  O4  1  0.76236460  0.26406619  0.11606535  1
  O  O5  1  0.76239111  0.88389634  0.14797948  1
  O  O6  1  0.13545984  0.04059276  0.12073036  1
  O  O7  1  0.13543777  0.08002680  0.95935419  1
  O  O8  1  0.13550771  0.87929150  0.91986839  1
  O  O9  1  0.63545984  0.91986240  0.87926964  1
  O  O10  1  0.63543777  0.12067262  0.04064581  1
  O  O11  1  0.63550771  0.95942311  0.08013161  1
  O  O12  1  0.12355058  0.22350902  0.24710795  1
  O  O13  1  0.12349778  0.02353293  0.77642387  1
  O  O14  1  0.12362196  0.75289774  0.97641155  1
  O  O15  1  0.62355058  0.97640107  0.75289205  1
  O  O16  1  0.62349778  0.24710905  0.22357613  1
  O  O17  1  0.62362196  0.77648619  0.02358845  1
  O  O18  1  0.08495269  0.09738325  0.29956466  1
  O  O19  1  0.08500235  0.20225303  0.90266013  1
  O  O20  1  0.08509509  0.70043851  0.79778548  1
  O  O21  1  0.58495269  0.79781860  0.70043534  1
  O  O22  1  0.58500235  0.29959290  0.09733987  1
  O  O23  1  0.58509509  0.90265302  0.20221452  1
  O  O24  1  0.35553067  0.10340362  0.11133650  1
  O  O25  1  0.35548243  0.00791894  0.89656433  1
  O  O26  1  0.35557005  0.88860747  0.99212480  1
  O  O27  1  0.85553067  0.99206712  0.88866350  1
  O  O28  1  0.85548243  0.11135461  0.10343567  1
  O  O29  1  0.85557005  0.89648266  0.00787520  1
  O  O30  1  0.39832491  0.23689721  0.28377169  1
  O  O31  1  0.39833601  0.04686967  0.76311282  1
  O  O32  1  0.39835326  0.71621792  0.95312223  1
  O  O33  1  0.89832491  0.95312552  0.71622831  1
  O  O34  1  0.89833601  0.28375686  0.23688718  1
  O  O35  1  0.89835326  0.76309569  0.04687777  1
  O  O36  1  0.44207965  0.05790230  0.22969547  1
  O  O37  1  0.44214737  0.17184796  0.94210164  1
  O  O38  1  0.44211639  0.77028866  0.82823679  1
  O  O39  1  0.94207965  0.82820682  0.77030453  1
  O  O40  1  0.94214737  0.22974632  0.05789836  1
  O  O41  1  0.94211639  0.94205186  0.17176321  1
  O  O42  1  0.25393299  0.06954802  0.49133487  1
  O  O43  1  0.25391287  0.42182590  0.93047031  1
  O  O44  1  0.25391534  0.50863873  0.57821615  1
  O  O45  1  0.75393299  0.57821316  0.50866513  1
  O  O46  1  0.75391287  0.49135559  0.06952969  1
  O  O47  1  0.75391534  0.93042258  0.42178385  1
  O  O48  1  0.06612674  0.04914445  0.46529838  1
  O  O49  1  0.06601883  0.41614014  0.95091768  1
  O  O50  1  0.06601366  0.53473473  0.58389723  1
  O  O51  1  0.56612674  0.58384607  0.53470162  1
  O  O52  1  0.56601883  0.46522247  0.04908232  1
  O  O53  1  0.56601366  0.95083750  0.41610277  1
  O  O54  1  0.13385832  0.21688652  0.58556115  1
  O  O55  1  0.13379273  0.36865907  0.78309368  1
  O  O56  1  0.13377485  0.41442737  0.63140009  1
  O  O57  1  0.63385832  0.63132537  0.41443885  1
  O  O58  1  0.63379273  0.58556539  0.21690632  1
  O  O59  1  0.63377485  0.78302728  0.36859991  1
  O  O60  1  0.14033247  0.07646321  0.62613717  1
  O  O61  1  0.14035797  0.54969769  0.92348492  1
  O  O62  1  0.14031819  0.37384855  0.45032820  1
  O  O63  1  0.64033247  0.45032604  0.37386283  1
  O  O64  1  0.64035797  0.62621277  0.07651508  1
  O  O65  1  0.64031819  0.92352035  0.54967180  1
  O  O66  1  0.42774218  0.11496505  0.46513231  1
  O  O67  1  0.42772738  0.35012255  0.88499779  1
  O  O68  1  0.42770348  0.53481551  0.64988128  1
  O  O69  1  0.92774218  0.64983273  0.53486769  1
  O  O70  1  0.92772738  0.46512476  0.11500221  1
  O  O71  1  0.92770348  0.88493423  0.35011872  1
  O  O72  1  0.35169166  0.21244676  0.63695828  1
  O  O73  1  0.35171137  0.42457383  0.78759234  1
  O  O74  1  0.35162404  0.36295354  0.57544834  1
  O  O75  1  0.85169166  0.57548848  0.36304172  1
  O  O76  1  0.85171137  0.63698149  0.21240766  1
  O  O77  1  0.85162404  0.78750520  0.42455166  1
  O  O78  1  0.40279805  0.03628319  0.57418131  1
  O  O79  1  0.40284911  0.53789665  0.96369338  1
  O  O80  1  0.40281067  0.42580812  0.46208525  1
  O  O81  1  0.90279805  0.46210188  0.42581869  1
  O  O82  1  0.90284911  0.57420327  0.03630662  1
  O  O83  1  0.90281067  0.96372287  0.53791475  1
  O  O84  1  0.25686909  0.42213103  0.25057147  1
  O  O85  1  0.25689294  0.82848922  0.57789224  1
  O  O86  1  0.25687741  0.74938756  0.17151482  1
  O  O87  1  0.75686909  0.17155957  0.74942853  1
  O  O88  1  0.75689294  0.25059697  0.42210776  1
  O  O89  1  0.75687741  0.57787275  0.82848518  1
  O  O90  1  0.12523006  0.36502462  0.11349686  1
  O  O91  1  0.12526162  0.74851097  0.63496248  1
  O  O92  1  0.12525727  0.88643722  0.25146795  1
  O  O93  1  0.62523006  0.25152776  0.88650314  1
  O  O94  1  0.62526162  0.11354849  0.36503752  1
  O  O95  1  0.62525727  0.63496927  0.74853205  1
  O  O96  1  0.14474984  0.54976164  0.23880739  1
  O  O97  1  0.14476759  0.68912558  0.45026308  1
  O  O98  1  0.14471792  0.76114594  0.31087799  1
  O  O99  1  0.64474984  0.31095425  0.76119261  1
  O  O100  1  0.64476759  0.23886250  0.54973692  1
  O  O101  1  0.64471792  0.45026795  0.68912201  1
  O  O102  1  0.07191813  0.43776215  0.29515691  1
  O  O103  1  0.07193159  0.85739913  0.56223631  1
  O  O104  1  0.07195781  0.70486095  0.14257433  1
  O  O105  1  0.57191813  0.14260524  0.70484309  1
  O  O106  1  0.57193159  0.29516282  0.43776369  1
  O  O107  1  0.57195781  0.56228662  0.85742567  1
  O  O108  1  0.37427853  0.37377563  0.10186210  1
  O  O109  1  0.37422286  0.72811671  0.62621160  1
  O  O110  1  0.37427254  0.89808192  0.27186805  1
  O  O111  1  0.87427853  0.27191353  0.89813790  1
  O  O112  1  0.87422286  0.10190511  0.37378840  1
  O  O113  1  0.87427254  0.62621386  0.72813195  1
  O  O114  1  0.36784602  0.55258773  0.24188990  1
  O  O115  1  0.36779850  0.68935882  0.44745977  1
  O  O116  1  0.36781651  0.75809583  0.31062761  1
  O  O117  1  0.86784602  0.31069782  0.75811010  1
  O  O118  1  0.86779850  0.24189905  0.55254023  1
  O  O119  1  0.86781651  0.44746821  0.68937239  1
  O  O120  1  0.44366742  0.42436238  0.27463375  1
  O  O121  1  0.44367012  0.85026504  0.57562702  1
  O  O122  1  0.44364956  0.72539643  0.14973696  1
  O  O123  1  0.94366742  0.14972863  0.72536625  1
  O  O124  1  0.94367012  0.27463802  0.42437298  1
  O  O125  1  0.94364956  0.57565948  0.85026304  1
loop_
_geom_bond_atom_site_label_1
_geom_bond_atom_site_label_2
_geom_bond_distance
_geom_bond_site_symmetry_2
Na0 O62 2.375911 1_555
Na0 O30 2.408337 1_555
Na0 O84 2.418430 1_555
Na0 O80 2.643685 1_555
Na0 O12 2.647886 1_555
Na1 O60 2.376529 1_565
Na1 O31 2.408301 1_565
Na1 O85 2.417164 1_555
Na1 O78 2.643056 1_565
Na1 O13 2.648750 1_565
Na2 O61 2.375404 1_554
Na2 O32 2.407589 1_554
Na2 O86 2.417927 1_555
Na2 O79 2.645877 1_554
Na2 O14 2.646423 1_554
Na3 O65 2.375911 1_545
Na3 O33 2.408337 1_545
Na3 O87 2.418430 1_555
Na3 O83 2.643685 1_545
Na3 O15 2.647886 1_545
Na4 O63 2.376529 1_555
Na4 O34 2.408301 1_555
Na4 O88 2.417164 1_555
Na4 O81 2.643056 1_555
Na4 O16 2.648750 1_555
Na5 O64 2.375404 1_556
Na5 O35 2.407589 1_556
Na5 O89 2.417927 1_555
Na5 O82 2.645877 1_556
Na5 O17 2.646423 1_556
Na6 O124 2.358633 1_455
Na6 O54 2.389299 1_555
Na6 O18 2.395032 1_555
Na6 O62 2.439468 1_555
Na7 O123 2.358050 1_455
Na7 O55 2.388054 1_555
Na7 O19 2.395131 1_555
Na7 O60 2.440998 1_555
Na8 O125 2.358306 1_455
Na8 O56 2.390174 1_555
Na8 O20 2.393032 1_555
Na8 O61 2.439146 1_555
Na9 O121 2.358633 1_555
Na9 O57 2.389299 1_555
Na9 O21 2.395032 1_555
Na9 O65 2.439468 1_555
Na10 O120 2.358050 1_555
Na10 O58 2.388055 1_555
Na10 O22 2.395130 1_555
Na10 O63 2.440998 1_555
Na11 O122 2.358306 1_555
Na11 O59 2.390174 1_555
Na11 O23 2.393032 1_555
Na11 O64 2.439146 1_555
Na12 O96 2.300947 1_555
Na12 O49 2.392708 1_554
Na12 O104 2.424807 1_555
Na12 O70 2.529880 1_455
Na12 O82 2.894914 1_455
Na13 O97 2.300693 1_555
Na13 O50 2.394349 1_555
Na13 O102 2.424819 1_555
Na13 O69 2.529703 1_455
Na13 O81 2.895923 1_455
Na14 O98 2.300943 1_555
Na14 O48 2.394165 1_565
Na14 O103 2.424174 1_555
Na14 O71 2.530040 1_455
Na14 O83 2.895603 1_455
Na15 O99 2.300947 1_555
Na15 O52 2.392708 1_556
Na15 O107 2.424807 1_555
Na15 O67 2.529880 1_555
Na15 O79 2.894914 1_555
Na16 O100 2.300693 1_555
Na16 O53 2.394349 1_545
Na16 O105 2.424819 1_555
Na16 O66 2.529703 1_555
Na16 O78 2.895923 1_555
Na17 O101 2.300943 1_555
Na17 O51 2.394166 1_555
Na17 O106 2.424174 1_555
Na17 O68 2.530040 1_555
Na17 O80 2.895603 1_555
Na18 O110 2.348868 1_545
Na18 O42 2.390861 1_555
Na18 O92 2.399906 1_545
Na18 O0 2.519553 1_555
Na18 O18 2.877848 1_555
Na19 O108 2.349148 1_556
Na19 O43 2.390533 1_555
Na19 O90 2.399397 1_556
Na19 O1 2.520124 1_555
Na19 O19 2.875326 1_555
Na20 O109 2.350195 1_555
Na20 O44 2.391686 1_555
Na20 O91 2.399549 1_555
Na20 O2 2.518844 1_555
Na20 O20 2.872727 1_555
Na21 O113 2.348868 1_555
Na21 O45 2.390861 1_555
Na21 O95 2.399906 1_555
Na21 O3 2.519553 1_555
Na21 O21 2.877849 1_555
Na22 O111 2.349148 1_554
Na22 O46 2.390533 1_555
Na22 O93 2.399397 1_554
Na22 O4 2.520124 1_555
Na22 O22 2.875326 1_555
Na23 O112 2.350195 1_565
Na23 O47 2.391686 1_555
Na23 O94 2.399549 1_565
Na23 O5 2.518844 1_555
Na23 O23 2.872727 1_555
Na24 O24 2.343955 1_555
Na24 O37 2.437806 1_554
Na24 O108 2.477858 1_555
Na24 O22 2.587415 1_555
Na24 O30 2.864169 1_555
Na24 O120 2.982107 1_555
Na25 O25 2.343451 1_565
Na25 O38 2.438287 1_555
Na25 O109 2.478109 1_555
Na25 O21 2.587173 1_555
Na25 O31 2.864291 1_565
Na25 O121 2.982923 1_555
Na26 O26 2.343219 1_554
Na26 O36 2.438767 1_565
Na26 O110 2.477177 1_555
Na26 O23 2.587877 1_555
Na26 O32 2.863384 1_554
Na26 O122 2.980713 1_555
Na27 O27 2.343955 1_545
Na27 O40 2.437806 1_556
Na27 O111 2.477858 1_555
Na27 O19 2.587414 1_655
Na27 O33 2.864169 1_545
Na27 O123 2.982107 1_555
Na28 O28 2.343451 1_555
Na28 O41 2.438287 1_545
Na28 O112 2.478109 1_555
Na28 O18 2.587173 1_655
Na28 O34 2.864291 1_555
Na28 O124 2.982923 1_555
Na29 O29 2.343219 1_556
Na29 O39 2.438767 1_555
Na29 O113 2.477177 1_555
Na29 O20 2.587877 1_655
Na29 O35 2.863384 1_556
Na29 O125 2.980713 1_555
Na30 O12 2.332450 1_555
Na30 O40 2.361455 1_455
Na30 O7 2.381664 1_554
Na30 O90 2.403848 1_555
Na31 O13 2.334479 1_565
Na31 O39 2.362164 1_455
Na31 O8 2.377564 1_555
Na31 O91 2.403529 1_555
Na32 O14 2.330383 1_554
Na32 O41 2.362847 1_455
Na32 O6 2.380631 1_565
Na32 O92 2.405089 1_555
Na33 O15 2.332449 1_545
Na33 O37 2.361455 1_555
Na33 O10 2.381664 1_556
Na33 O93 2.403848 1_555
Na34 O16 2.334479 1_555
Na34 O36 2.362164 1_555
Na34 O11 2.377564 1_545
Na34 O94 2.403529 1_555
Na35 O17 2.330383 1_556
Na35 O38 2.362847 1_555
Na35 O9 2.380631 1_555
Na35 O95 2.405089 1_555
Na36 O114 2.286686 1_555
Na36 O79 2.311245 1_554
Na36 O52 2.455070 1_555
Na36 O122 2.590409 1_555
Na37 O115 2.287562 1_555
Na37 O80 2.310861 1_555
Na37 O51 2.456101 1_555
Na37 O120 2.590430 1_555
Na38 O116 2.286618 1_555
Na38 O78 2.311387 1_565
Na38 O53 2.454597 1_555
Na38 O121 2.591044 1_555
Na39 O117 2.286686 1_555
Na39 O82 2.311245 1_556
Na39 O49 2.455070 1_655
Na39 O125 2.590409 1_555
Na40 O118 2.287562 1_555
Na40 O83 2.310861 1_545
Na40 O48 2.456101 1_655
Na40 O123 2.590430 1_555
Na41 O119 2.286618 1_555
Na41 O81 2.311387 1_555
Na41 O50 2.454597 1_655
Na41 O124 2.591044 1_555
Na42 O74 2.309522 1_555
Na42 O66 2.335581 1_555
Na42 O106 2.372129 1_555
Na42 O30 2.545460 1_555
Na42 O80 2.879098 1_555
Na43 O72 2.310808 1_555
Na43 O67 2.334788 1_555
Na43 O105 2.371958 1_555
Na43 O31 2.545113 1_555
Na43 O78 2.879001 1_555
Na44 O73 2.310155 1_555
Na44 O68 2.334862 1_555
Na44 O107 2.372017 1_555
Na44 O32 2.544073 1_555
Na44 O79 2.878212 1_555
Na45 O77 2.309522 1_555
Na45 O69 2.335581 1_555
Na45 O103 2.372129 1_655
Na45 O33 2.545459 1_555
Na45 O83 2.879098 1_555
Na46 O75 2.310808 1_555
Na46 O70 2.334788 1_555
Na46 O102 2.371958 1_655
Na46 O34 2.545113 1_555
Na46 O81 2.879001 1_555
Na47 O76 2.310155 1_555
Na47 O71 2.334862 1_555
Na47 O104 2.372017 1_655
Na47 O35 2.544073 1_555
Na47 O82 2.878212 1_555
Na48 O56 2.504729 1_555
Na48 O55 2.505202 1_555
Na48 O54 2.507416 1_555
Na48 O117 2.554821 1_455
Na48 O119 2.556135 1_455
Na48 O118 2.556718 1_455
Na49 O59 2.504729 1_555
Na49 O58 2.505202 1_555
Na49 O57 2.507416 1_555
Na49 O114 2.554821 1_555
Na49 O116 2.556135 1_555
Na49 O115 2.556718 1_555
Na50 O101 2.605189 1_555
Na50 O99 2.605571 1_555
Na50 O100 2.606182 1_555
Na50 O72 2.834261 1_555
Na50 O73 2.834701 1_555
Na50 O74 2.835696 1_555
Na51 O98 2.605189 1_555
Na51 O96 2.605571 1_555
Na51 O97 2.606182 1_555
Na51 O75 2.834261 1_455
Na51 O76 2.834701 1_455
Na51 O77 2.835696 1_455
Na52 O10 2.605885 1_565
Na52 O11 2.605895 1_555
Na52 O9 2.606045 1_554
Na52 O26 2.665253 1_554
Na52 O24 2.666621 1_565
Na52 O25 2.667661 1_564
Na53 O7 2.605885 1_665
Na53 O8 2.605895 1_655
Na53 O6 2.606046 1_666
Na53 O29 2.665254 1_556
Na53 O27 2.666621 1_555
Na53 O28 2.667661 1_566
O0 Si0 1.686241 1_555
O0 Si6 1.687194 1_555
O1 Si1 1.685018 1_555
O1 Si7 1.686593 1_555
O2 Si2 1.686057 1_555
O2 Si8 1.687741 1_555
O3 Si3 1.686241 1_555
O3 Si9 1.687194 1_555
O4 Si4 1.685018 1_555
O4 Si10 1.686593 1_555
O5 Si5 1.686057 1_555
O5 Si11 1.687741 1_555
O6 Si0 1.633743 1_555
O6 Yb16 2.351146 1_544
O7 Si1 1.635149 1_555
O7 Yb16 2.351272 1_545
O8 Si2 1.635313 1_555
O8 Yb16 2.349086 1_555
O9 Si3 1.633743 1_555
O9 Yb17 2.351146 1_556
O10 Si4 1.635149 1_555
O10 Yb17 2.351272 1_545
O11 Si5 1.635313 1_555
O11 Yb17 2.349086 1_555
O12 Si0 1.632863 1_555
O12 Yb6 2.339217 1_555
O13 Si1 1.633597 1_555
O13 Yb7 2.338615 1_555
O14 Si2 1.631695 1_555
O14 Yb8 2.337516 1_555
O15 Si3 1.632863 1_555
O15 Yb9 2.339217 1_555
O16 Si4 1.633597 1_555
O16 Yb10 2.338615 1_555
O17 Si5 1.631695 1_555
O17 Yb11 2.337516 1_555
O18 Si0 1.630270 1_555
O18 Yb5 2.270768 1_445
O19 Si1 1.631654 1_555
O19 Yb4 2.270438 1_456
O20 Si2 1.629923 1_555
O20 Yb3 2.270768 1_455
O21 Si3 1.630270 1_555
O21 Yb2 2.270768 1_555
O22 Si4 1.631654 1_555
O22 Yb1 2.270438 1_554
O23 Si5 1.629923 1_555
O23 Yb0 2.270768 1_565
O24 Si6 1.627678 1_555
O24 Yb16 2.334499 1_544
O25 Si7 1.627888 1_555
O25 Yb16 2.333566 1_545
O26 Si8 1.627098 1_555
O26 Yb16 2.334725 1_555
O27 Si9 1.627678 1_555
O27 Yb17 2.334499 1_556
O28 Si10 1.627888 1_555
O28 Yb17 2.333566 1_545
O29 Si11 1.627098 1_555
O29 Yb17 2.334726 1_555
O30 Si6 1.635072 1_555
O30 Yb10 2.265559 1_555
O31 Si7 1.634475 1_555
O31 Yb9 2.265145 1_545
O32 Si8 1.634122 1_555
O32 Yb11 2.265344 1_556
O33 Si9 1.635073 1_555
O33 Yb7 2.265559 1_665
O34 Si10 1.634475 1_555
O34 Yb6 2.265145 1_655
O35 Si11 1.634122 1_555
O35 Yb8 2.265344 1_654
O36 Si6 1.629195 1_555
O36 Yb0 2.310989 1_555
O37 Si7 1.630626 1_555
O37 Yb1 2.309628 1_555
O38 Si8 1.629141 1_555
O38 Yb2 2.311191 1_555
O39 Si9 1.629195 1_555
O39 Yb3 2.310989 1_555
O40 Si10 1.630626 1_555
O40 Yb4 2.309628 1_555
O41 Si11 1.629141 1_555
O41 Yb5 2.311191 1_555
O42 Si12 1.687248 1_555
O42 Si18 1.690077 1_555
O43 Si13 1.685503 1_555
O43 Si19 1.690525 1_555
O44 Si14 1.685234 1_555
O44 Si20 1.689338 1_555
O45 Si15 1.687248 1_555
O45 Si21 1.690077 1_555
O46 Si16 1.685503 1_555
O46 Si22 1.690525 1_555
O47 Si17 1.685234 1_555
O47 Si23 1.689338 1_555
O48 Si12 1.629812 1_555
O48 Yb5 2.280063 1_445
O49 Si13 1.634353 1_555
O49 Yb4 2.278620 1_456
O50 Si14 1.633411 1_555
O50 Yb3 2.279381 1_455
O51 Si15 1.629812 1_555
O51 Yb2 2.280063 1_555
O52 Si16 1.634353 1_555
O52 Yb1 2.278620 1_554
O53 Si17 1.633411 1_555
O53 Yb0 2.279381 1_565
O54 Si12 1.626984 1_555
O54 Yb12 2.325571 1_555
O55 Si13 1.627006 1_555
O55 Yb12 2.326540 1_555
O56 Si14 1.628361 1_555
O56 Yb12 2.326291 1_555
O57 Si15 1.626984 1_555
O57 Yb13 2.325571 1_555
O58 Si16 1.627006 1_555
O58 Yb13 2.326540 1_555
O59 Si17 1.628361 1_555
O59 Yb13 2.326291 1_555
O60 Si12 1.628640 1_555
O60 Yb7 2.311345 1_555
O61 Si13 1.628408 1_555
O61 Yb8 2.312094 1_555
O62 Si14 1.628081 1_555
O62 Yb6 2.312037 1_555
O63 Si15 1.628640 1_555
O63 Yb10 2.311345 1_555
O64 Si16 1.628408 1_555
O64 Yb11 2.312094 1_555
O65 Si17 1.628081 1_555
O65 Yb9 2.312037 1_555
O66 Si18 1.628666 1_555
O66 Yb0 2.290809 1_555
O67 Si19 1.630768 1_555
O67 Yb1 2.290534 1_555
O68 Si20 1.628552 1_555
O68 Yb2 2.291013 1_555
O69 Si21 1.628666 1_555
O69 Yb3 2.290809 1_555
O70 Si22 1.630768 1_555
O70 Yb4 2.290534 1_555
O71 Si23 1.628552 1_555
O71 Yb5 2.291013 1_555
O72 Si18 1.630870 1_555
O72 Yb12 2.322157 1_555
O73 Si19 1.629689 1_555
O73 Yb12 2.322790 1_555
O74 Si20 1.632517 1_555
O74 Yb12 2.320675 1_555
O75 Si21 1.630870 1_555
O75 Yb13 2.322157 1_555
O76 Si22 1.629689 1_555
O76 Yb13 2.322790 1_555
O77 Si23 1.632517 1_555
O77 Yb13 2.320675 1_555
O78 Si18 1.638079 1_555
O78 Yb9 2.379006 1_545
O79 Si19 1.637125 1_555
O79 Yb11 2.379915 1_556
O80 Si20 1.638427 1_555
O80 Yb10 2.378012 1_555
O81 Si21 1.638079 1_555
O81 Yb6 2.379006 1_655
O82 Si22 1.637126 1_555
O82 Yb8 2.379915 1_654
O83 Si23 1.638427 1_555
O83 Yb7 2.378012 1_665
O84 Si30 1.689664 1_555
O84 Si24 1.690772 1_555
O85 Si31 1.690837 1_555
O85 Si25 1.691492 1_555
O86 Si32 1.690887 1_555
O86 Si26 1.691768 1_555
O87 Si33 1.689664 1_555
O87 Si27 1.690772 1_555
O88 Si34 1.690837 1_555
O88 Si28 1.691492 1_555
O89 Si35 1.690887 1_555
O89 Si29 1.691768 1_555
O90 Si24 1.635764 1_555
O90 Yb4 2.335108 1_455
O91 Si25 1.634896 1_555
O91 Yb3 2.335434 1_455
O92 Si26 1.634977 1_555
O92 Yb5 2.336101 1_455
O93 Si27 1.635764 1_555
O93 Yb1 2.335108 1_555
O94 Si28 1.634896 1_555
O94 Yb0 2.335434 1_555
O95 Si29 1.634977 1_555
O95 Yb2 2.336101 1_555
O96 Si24 1.637852 1_555
O96 Yb14 2.348974 1_555
O97 Si25 1.636916 1_555
O97 Yb14 2.349049 1_555
O98 Si26 1.637067 1_555
O98 Yb14 2.349714 1_555
O99 Si27 1.637852 1_555
O99 Yb15 2.348974 1_555
O100 Si28 1.636916 1_555
O100 Yb15 2.349049 1_555
O101 Si29 1.637066 1_555
O101 Yb15 2.349714 1_555
O102 Si24 1.631707 1_555
O102 Yb6 2.294354 1_555
O103 Si25 1.631870 1_555
O103 Yb7 2.294476 1_565
O104 Si26 1.630837 1_555
O104 Yb8 2.294355 1_554
O105 Si27 1.631707 1_555
O105 Yb9 2.294354 1_545
O106 Si28 1.631870 1_555
O106 Yb10 2.294476 1_555
O107 Si29 1.630837 1_555
O107 Yb11 2.294355 1_556
O108 Si30 1.633778 1_555
O108 Yb1 2.348577 1_554
O109 Si31 1.632679 1_555
O109 Yb2 2.350130 1_555
O110 Si32 1.633204 1_555
O110 Yb0 2.349161 1_565
O111 Si33 1.633778 1_555
O111 Yb4 2.348577 1_556
O112 Si34 1.632679 1_555
O112 Yb5 2.350130 1_545
O113 Si35 1.633204 1_555
O113 Yb3 2.349162 1_555
O114 Si30 1.632759 1_555
O114 Yb14 2.340235 1_555
O115 Si31 1.631573 1_555
O115 Yb14 2.340192 1_555
O116 Si32 1.631433 1_555
O116 Yb14 2.339735 1_555
O117 Si33 1.632759 1_555
O117 Yb15 2.340235 1_555
O118 Si34 1.631573 1_555
O118 Yb15 2.340192 1_555
O119 Si35 1.631433 1_555
O119 Yb15 2.339735 1_555
O120 Si30 1.634224 1_555
O120 Yb10 2.295374 1_555
O121 Si31 1.633975 1_555
O121 Yb9 2.294993 1_555
O122 Si32 1.633091 1_555
O122 Yb11 2.295413 1_555
O123 Si33 1.634224 1_555
O123 Yb7 2.295374 1_655
O124 Si34 1.633975 1_555
O124 Yb6 2.294993 1_655
O125 Si35 1.633091 1_555
O125 Yb8 2.295413 1_655
