# generated using pymatgen
data_LaAlGe
_symmetry_space_group_name_H-M   'P 1'
_cell_length_a   4.37630995
_cell_length_b   4.37630985
_cell_length_c   7.99426841
_cell_angle_alpha   105.88061708
_cell_angle_beta   105.88061891
_cell_angle_gamma   89.98566984
_symmetry_Int_Tables_number   1
_chemical_formula_structural   LaAlGe
_chemical_formula_sum   'La2 Al2 Ge2'
_cell_volume   141.18139873
_cell_formula_units_Z   2
loop_
 _symmetry_equiv_pos_site_id
 _symmetry_equiv_pos_as_xyz
  1  'x, y, z'
loop_
 _atom_site_type_symbol
 _atom_site_label
 _atom_site_symmetry_multiplicity
 _atom_site_fract_x
 _atom_site_fract_y
 _atom_site_fract_z
 _atom_site_occupancy
  La  La0  1  0.99980186  0.99949387  0.99948107  1
  La  La1  1  0.74949387  0.24980186  0.49948107  1
  Al  Al0  1  0.58279476  0.58270864  0.16553030  1
  Al  Al1  1  0.33270864  0.83279476  0.66553030  1
  Ge  Ge0  1  0.41579561  0.41600526  0.83158863  1
  Ge  Ge1  1  0.16600526  0.66579561  0.33158863  1
loop_
_geom_bond_atom_site_label_1
_geom_bond_atom_site_label_2
_geom_bond_distance
_geom_bond_site_symmetry_2
Al0 Ge0 2.461682 1_554
Al0 Ge1 2.506419 1_555
Al0 Ge1 2.508152 1_655
Al0 La1 3.293057 1_555
Al0 La1 3.294274 1_565
Al0 La0 3.326814 1_454
Al0 La0 3.327455 1_554
Al0 La0 3.328091 1_544
Al0 La0 3.328890 1_444
Al1 Ge1 2.461682 1_555
Al1 Ge0 2.506419 1_555
Al1 Ge0 2.508152 1_565
Al1 La0 3.293057 1_455
Al1 La0 3.294274 1_555
Al1 La1 3.326814 1_555
Al1 La1 3.327455 1_565
Al1 La1 3.328091 1_465
Al1 La1 3.328890 1_455
Ge0 La1 3.282534 1_555
Ge0 La1 3.284511 1_455
Ge0 La0 3.330988 1_455
Ge0 La0 3.332316 1_555
Ge0 La0 3.333962 1_545
Ge0 La0 3.334072 1_445
Ge1 La0 3.282534 1_454
Ge1 La0 3.284511 1_444
Ge1 La1 3.330988 1_555
Ge1 La1 3.332316 1_565
Ge1 La1 3.333962 1_465
Ge1 La1 3.334072 1_455
