# generated using pymatgen
data_BaNa
_symmetry_space_group_name_H-M   'P 1'
_cell_length_a   12.61247902
_cell_length_b   12.61247902
_cell_length_c   12.61247902
_cell_angle_alpha   60.00000000
_cell_angle_beta   60.00000000
_cell_angle_gamma   60.00000000
_symmetry_Int_Tables_number   1
_chemical_formula_structural   BaNa
_chemical_formula_sum   'Ba12 Na12'
_cell_volume   1418.68629155
_cell_formula_units_Z   12
loop_
 _symmetry_equiv_pos_site_id
 _symmetry_equiv_pos_as_xyz
  1  'x, y, z'
loop_
 _atom_site_type_symbol
 _atom_site_label
 _atom_site_symmetry_multiplicity
 _atom_site_fract_x
 _atom_site_fract_y
 _atom_site_fract_z
 _atom_site_occupancy
  Ba  Ba0  1  0.59237682  0.22286953  0.59237682  1
  Ba  Ba1  1  0.52713047  0.15762318  0.15762318  1
  Ba  Ba2  1  0.59237682  0.59237682  0.59237682  1
  Ba  Ba3  1  0.15762318  0.15762318  0.52713047  1
  Ba  Ba4  1  0.22286953  0.59237682  0.59237682  1
  Ba  Ba5  1  0.15762318  0.52713047  0.15762318  1
  Ba  Ba6  1  0.59237682  0.59237682  0.22286953  1
  Ba  Ba7  1  0.15762318  0.15762318  0.15762318  1
  Ba  Ba8  1  0.37500000  0.37500000  0.37500000  1
  Ba  Ba9  1  0.37500000  0.37500000  0.87500000  1
  Ba  Ba10  1  0.37500000  0.87500000  0.37500000  1
  Ba  Ba11  1  0.87500000  0.37500000  0.37500000  1
  Na  Na0  1  0.21171305  0.78828695  0.78828695  1
  Na  Na1  1  0.96171305  0.96171305  0.53828695  1
  Na  Na2  1  0.78828695  0.21171305  0.21171305  1
  Na  Na3  1  0.53828695  0.53828695  0.96171305  1
  Na  Na4  1  0.78828695  0.21171305  0.78828695  1
  Na  Na5  1  0.53828695  0.96171305  0.96171305  1
  Na  Na6  1  0.21171305  0.78828695  0.21171305  1
  Na  Na7  1  0.96171305  0.53828695  0.53828695  1
  Na  Na8  1  0.78828695  0.78828695  0.21171305  1
  Na  Na9  1  0.96171305  0.53828695  0.96171305  1
  Na  Na10  1  0.21171305  0.21171305  0.78828695  1
  Na  Na11  1  0.53828695  0.96171305  0.53828695  1
loop_
_geom_bond_atom_site_label_1
_geom_bond_atom_site_label_2
_geom_bond_distance
_geom_bond_site_symmetry_2
Ba0 Ba8 3.963660 1_555
Ba0 Ba11 3.963660 1_555
Ba0 Ba9 3.963660 1_555
Ba0 Na11 4.091417 1_545
Ba0 Na1 4.091417 1_545
Ba0 Na5 4.091417 1_545
Ba0 Na10 4.200078 1_555
Ba0 Na2 4.200078 1_555
Ba0 Na4 4.200078 1_555
Ba1 Ba8 3.963660 1_555
Ba1 Ba10 3.963660 1_545
Ba1 Ba9 3.963660 1_554
Ba1 Na2 4.091417 1_555
Ba1 Na8 4.091417 1_545
Ba1 Na4 4.091417 1_554
Ba1 Na3 4.200078 1_554
Ba1 Na11 4.200078 1_545
Ba1 Na5 4.200078 1_544
Ba2 Ba9 3.963660 1_555
Ba2 Na11 4.091417 1_555
Ba2 Na3 4.091417 1_555
Ba2 Na7 4.091417 1_555
Ba2 Na4 4.200078 1_555
Ba2 Na8 4.200078 1_555
Ba2 Na0 4.200078 1_555
Ba3 Ba8 3.963660 1_555
Ba3 Na10 4.091417 1_555
Ba3 Na0 4.091417 1_545
Ba3 Na4 4.091417 1_455
Ba3 Na7 4.200078 1_455
Ba3 Na11 4.200078 1_545
Ba3 Na1 4.200078 1_445
Ba4 Ba8 3.963660 1_555
Ba4 Ba9 3.963660 1_555
Ba4 Na7 4.091417 1_455
Ba4 Na9 4.091417 1_455
Ba4 Na1 4.091417 1_455
Ba4 Na6 4.200078 1_555
Ba4 Na10 4.200078 1_555
Ba4 Na0 4.200078 1_555
Ba5 Ba8 3.963660 1_555
Ba5 Ba9 3.963660 1_554
Ba5 Na6 4.091417 1_555
Ba5 Na0 4.091417 1_554
Ba5 Na8 4.091417 1_455
Ba5 Na3 4.200078 1_554
Ba5 Na7 4.200078 1_455
Ba5 Na9 4.200078 1_454
Ba6 Ba8 3.963660 1_555
Ba6 Na3 4.091417 1_554
Ba6 Na9 4.091417 1_554
Ba6 Na5 4.091417 1_554
Ba6 Na6 4.200078 1_555
Ba6 Na2 4.200078 1_555
Ba6 Na8 4.200078 1_555
Ba7 Ba9 3.963660 1_554
Ba7 Na10 4.091417 1_554
Ba7 Na6 4.091417 1_545
Ba7 Na2 4.091417 1_455
Ba7 Na1 4.200078 1_445
Ba7 Na9 4.200078 1_454
Ba7 Na5 4.200078 1_544
Ba8 Na3 4.292419 1_554
Ba8 Na7 4.292419 1_455
Ba8 Na6 4.292419 1_555
Ba8 Na10 4.292419 1_555
Ba8 Na2 4.292419 1_555
Ba8 Na11 4.292419 1_545
Ba9 Na10 4.292419 1_555
Ba9 Na5 4.292419 1_545
Ba9 Na9 4.292419 1_455
Ba9 Na0 4.292419 1_555
Ba9 Na4 4.292419 1_555
Ba9 Na3 4.292419 1_555
Ba10 Ba2 3.963660 1_555
Ba10 Ba7 3.963660 1_565
Ba10 Ba4 3.963660 1_555
Ba10 Ba6 3.963660 1_555
Ba10 Ba3 3.963660 1_565
Ba10 Na6 4.292419 1_555
Ba10 Na5 4.292419 1_554
Ba10 Na1 4.292419 1_455
Ba10 Na8 4.292419 1_555
Ba10 Na0 4.292419 1_555
Ba10 Na11 4.292419 1_555
Ba11 Ba2 3.963660 1_555
Ba11 Ba7 3.963660 1_655
Ba11 Ba6 3.963660 1_555
Ba11 Ba3 3.963660 1_655
Ba11 Ba5 3.963660 1_655
Ba11 Na1 4.292419 1_545
Ba11 Na9 4.292419 1_554
Ba11 Na2 4.292419 1_555
Ba11 Na4 4.292419 1_555
Ba11 Na8 4.292419 1_555
Ba11 Na7 4.292419 1_555
