# generated using pymatgen
data_Sc4Co7Ge6
_symmetry_space_group_name_H-M   'P 1'
_cell_length_a   6.80209434
_cell_length_b   6.80209434
_cell_length_c   6.80209434
_cell_angle_alpha   109.47122063
_cell_angle_beta   109.47122063
_cell_angle_gamma   109.47122063
_symmetry_Int_Tables_number   1
_chemical_formula_structural   Sc4Co7Ge6
_chemical_formula_sum   'Sc4 Co7 Ge6'
_cell_volume   242.27358334
_cell_formula_units_Z   1
loop_
 _symmetry_equiv_pos_site_id
 _symmetry_equiv_pos_as_xyz
  1  'x, y, z'
loop_
 _atom_site_type_symbol
 _atom_site_label
 _atom_site_symmetry_multiplicity
 _atom_site_fract_x
 _atom_site_fract_y
 _atom_site_fract_z
 _atom_site_occupancy
  Sc  Sc0  1  0.50000000  0.00000000  0.00000000  1
  Sc  Sc1  1  0.00000000  0.50000000  0.00000000  1
  Sc  Sc2  1  0.00000000  0.00000000  0.50000000  1
  Sc  Sc3  1  0.50000000  0.50000000  0.50000000  1
  Co  Co0  1  0.50000000  0.75000000  0.25000000  1
  Co  Co1  1  0.75000000  0.50000000  0.25000000  1
  Co  Co2  1  0.25000000  0.75000000  0.50000000  1
  Co  Co3  1  0.25000000  0.50000000  0.75000000  1
  Co  Co4  1  0.50000000  0.25000000  0.75000000  1
  Co  Co5  1  0.75000000  0.25000000  0.50000000  1
  Co  Co6  1  0.00000000  0.00000000  0.00000000  1
  Ge  Ge0  1  0.00000000  0.31736600  0.31736600  1
  Ge  Ge1  1  0.68263400  0.00000000  0.68263400  1
  Ge  Ge2  1  0.68263400  0.68263400  0.00000000  1
  Ge  Ge3  1  0.00000000  0.68263400  0.68263400  1
  Ge  Ge4  1  0.31736600  0.00000000  0.31736600  1
  Ge  Ge5  1  0.31736600  0.31736600  0.00000000  1
loop_
_geom_bond_atom_site_label_1
_geom_bond_atom_site_label_2
_geom_bond_distance
_geom_bond_site_symmetry_2
Co0 Ge2 2.431755 1_555
Co0 Ge1 2.431755 1_565
Co0 Ge4 2.431755 1_565
Co0 Ge5 2.431755 1_555
Co0 Sc2 2.776943 1_665
Co0 Sc1 2.776943 1_555
Co0 Sc3 2.776943 1_555
Co0 Sc0 2.776943 1_565
Co1 Ge3 2.431755 1_655
Co1 Ge5 2.431755 1_555
Co1 Ge2 2.431755 1_555
Co1 Ge0 2.431755 1_655
Co1 Sc2 2.776943 1_665
Co1 Sc1 2.776943 1_655
Co1 Sc3 2.776943 1_555
Co1 Sc0 2.776943 1_555
Co2 Ge3 2.431755 1_555
Co2 Ge1 2.431755 1_565
Co2 Ge4 2.431755 1_565
Co2 Ge0 2.431755 1_555
Co2 Sc1 2.776943 1_555
Co2 Sc3 2.776943 1_555
Co2 Sc0 2.776943 1_566
Co2 Sc2 2.776943 1_565
Co3 Ge3 2.431755 1_555
Co3 Ge2 2.431755 1_556
Co3 Ge5 2.431755 1_556
Co3 Ge0 2.431755 1_555
Co3 Sc1 2.776943 1_556
Co3 Sc3 2.776943 1_555
Co3 Sc0 2.776943 1_566
Co3 Sc2 2.776943 1_555
Co4 Ge1 2.431755 1_555
Co4 Ge2 2.431755 1_556
Co4 Ge5 2.431755 1_556
Co4 Ge4 2.431755 1_555
Co4 Sc3 2.776943 1_555
Co4 Sc2 2.776943 1_555
Co4 Sc1 2.776943 1_656
Co4 Sc0 2.776943 1_556
Co5 Ge3 2.431755 1_655
Co5 Ge1 2.431755 1_555
Co5 Ge4 2.431755 1_555
Co5 Ge0 2.431755 1_655
Co5 Sc2 2.776943 1_655
Co5 Sc3 2.776943 1_555
Co5 Sc1 2.776943 1_656
Co5 Sc0 2.776943 1_555
Co6 Ge4 2.492714 1_555
Co6 Ge5 2.492714 1_555
Co6 Ge0 2.492714 1_555
Co6 Ge3 2.492714 1_544
Co6 Ge1 2.492714 1_454
Co6 Ge2 2.492714 1_445
Ge0 Sc2 2.826903 1_555
Ge0 Sc3 2.826903 1_555
Ge0 Sc1 2.826903 1_555
Ge0 Sc0 2.826903 1_455
Ge1 Sc0 2.826903 1_556
Ge1 Sc2 2.826903 1_655
Ge1 Sc3 2.826903 1_545
Ge1 Sc1 2.826903 1_656
Ge2 Sc3 2.826903 1_554
Ge2 Sc1 2.826903 1_655
Ge2 Sc2 2.826903 1_665
Ge2 Sc0 2.826903 1_565
Ge3 Sc1 2.826903 1_556
Ge3 Sc0 2.826903 1_566
Ge3 Sc3 2.826903 1_455
Ge3 Sc2 2.826903 1_565
Ge4 Sc2 2.826903 1_555
Ge4 Sc3 2.826903 1_555
Ge4 Sc1 2.826903 1_545
Ge4 Sc0 2.826903 1_555
Ge5 Sc3 2.826903 1_555
Ge5 Sc1 2.826903 1_555
Ge5 Sc2 2.826903 1_554
Ge5 Sc0 2.826903 1_555
