# generated using pymatgen
data_La3SnC
_symmetry_space_group_name_H-M   'P 1'
_cell_length_a   5.22029957
_cell_length_b   5.22029957
_cell_length_c   5.22029957
_cell_angle_alpha   90.00000000
_cell_angle_beta   90.00000000
_cell_angle_gamma   90.00000000
_symmetry_Int_Tables_number   1
_chemical_formula_structural   La3SnC
_chemical_formula_sum   'La3 Sn1 C1'
_cell_volume   142.26113781
_cell_formula_units_Z   1
loop_
 _symmetry_equiv_pos_site_id
 _symmetry_equiv_pos_as_xyz
  1  'x, y, z'
loop_
 _atom_site_type_symbol
 _atom_site_label
 _atom_site_symmetry_multiplicity
 _atom_site_fract_x
 _atom_site_fract_y
 _atom_site_fract_z
 _atom_site_occupancy
  La  La0  1  0.50000000  0.00000000  0.00000000  1
  La  La1  1  0.00000000  0.50000000  0.00000000  1
  La  La2  1  -0.00000000  -0.00000000  0.50000000  1
  Sn  Sn0  1  0.50000000  0.50000000  0.50000000  1
  C  C0  1  -0.00000000  -0.00000000  -0.00000000  1
loop_
_geom_bond_atom_site_label_1
_geom_bond_atom_site_label_2
_geom_bond_distance
_geom_bond_site_symmetry_2
La0 Sn0 3.691309 1_544
La0 Sn0 3.691309 1_545
La0 Sn0 3.691309 1_555
La0 Sn0 3.691309 1_554
La1 Sn0 3.691309 1_555
La1 Sn0 3.691309 1_455
La1 Sn0 3.691309 1_554
La1 Sn0 3.691309 1_454
La2 Sn0 3.691309 1_545
La2 Sn0 3.691309 1_555
La2 Sn0 3.691309 1_445
La2 Sn0 3.691309 1_455
C0 La0 2.610150 1_555
C0 La2 2.610150 1_554
C0 La1 2.610150 1_555
C0 La1 2.610150 1_545
C0 La2 2.610150 1_555
C0 La0 2.610150 1_455
