# generated using pymatgen
data_Mg5Si6
_symmetry_space_group_name_H-M   'P 1'
_cell_length_a   4.00000400
_cell_length_b   6.92483000
_cell_length_c   14.66282060
_cell_angle_alpha   82.99515491
_cell_angle_beta   90.00000000
_cell_angle_gamma   90.00000000
_symmetry_Int_Tables_number   1
_chemical_formula_structural   Mg5Si6
_chemical_formula_sum   'Mg10 Si12'
_cell_volume   403.11899432
_cell_formula_units_Z   2
loop_
 _symmetry_equiv_pos_site_id
 _symmetry_equiv_pos_as_xyz
  1  'x, y, z'
loop_
 _atom_site_type_symbol
 _atom_site_label
 _atom_site_symmetry_multiplicity
 _atom_site_fract_x
 _atom_site_fract_y
 _atom_site_fract_z
 _atom_site_occupancy
  Mg  Mg0  1  0.25000000  0.38630500  0.75763900  1
  Mg  Mg1  1  0.75000000  0.61369500  0.24236100  1
  Mg  Mg2  1  0.25000000  0.73423600  0.37944000  1
  Mg  Mg3  1  0.25000000  0.47134400  0.09027500  1
  Mg  Mg4  1  0.75000000  0.52865600  0.90972500  1
  Mg  Mg5  1  0.75000000  0.26576400  0.62056000  1
  Mg  Mg6  1  0.25000000  0.28442900  0.32775600  1
  Mg  Mg7  1  0.25000000  0.95303600  0.17092600  1
  Mg  Mg8  1  0.75000000  0.04696400  0.82907400  1
  Mg  Mg9  1  0.75000000  0.71557100  0.67224400  1
  Si  Si0  1  0.25000000  0.02449200  0.69215200  1
  Si  Si1  1  0.25000000  0.74595200  0.80661100  1
  Si  Si2  1  0.75000000  0.25404800  0.19338900  1
  Si  Si3  1  0.75000000  0.97550800  0.30784800  1
  Si  Si4  1  0.25000000  0.55182300  0.55454800  1
  Si  Si5  1  0.25000000  0.21180900  0.94174200  1
  Si  Si6  1  0.75000000  0.78819100  0.05825800  1
  Si  Si7  1  0.75000000  0.07696800  0.45988200  1
  Si  Si8  1  0.25000000  0.92303200  0.54011800  1
  Si  Si9  1  0.25000000  0.84389800  0.95737900  1
  Si  Si10  1  0.75000000  0.15610200  0.04262100  1
  Si  Si11  1  0.75000000  0.44817700  0.44545200  1
loop_
_geom_bond_atom_site_label_1
_geom_bond_atom_site_label_2
_geom_bond_distance
_geom_bond_site_symmetry_2
Mg0 Si1 2.674766 1_555
Mg0 Si0 2.790399 1_555
Mg0 Si5 2.819868 1_555
Mg0 Si4 3.057621 1_555
Mg1 Si2 2.674766 1_555
Mg1 Si3 2.790399 1_555
Mg1 Si6 2.819868 1_555
Mg1 Si11 3.057621 1_555
Mg2 Si4 2.719744 1_555
Mg2 Si3 2.732334 1_555
Mg2 Si3 2.732334 1_455
Mg2 Si8 2.830410 1_555
Mg2 Si11 2.897107 1_455
Mg2 Si11 2.897107 1_555
Mg3 Si2 2.827597 1_555
Mg3 Si2 2.827597 1_455
Mg3 Si6 2.963662 1_555
Mg3 Si6 2.963662 1_455
Mg3 Si5 2.987987 1_554
Mg3 Si9 3.037554 1_554
Mg3 Si10 3.102542 1_555
Mg3 Si10 3.102542 1_455
Mg4 Si1 2.827597 1_555
Mg4 Si1 2.827597 1_655
Mg4 Si5 2.963662 1_655
Mg4 Si5 2.963662 1_555
Mg4 Si6 2.987987 1_556
Mg4 Si10 3.037554 1_556
Mg4 Si9 3.102542 1_655
Mg4 Si9 3.102542 1_555
Mg5 Si11 2.719744 1_555
Mg5 Si0 2.732334 1_655
Mg5 Si0 2.732334 1_555
Mg5 Si7 2.830410 1_555
Mg5 Si4 2.897107 1_555
Mg5 Si4 2.897107 1_655
Mg6 Si2 2.833205 1_555
Mg6 Si2 2.833205 1_455
Mg6 Si11 2.956573 1_455
Mg6 Si11 2.956573 1_555
Mg6 Si3 2.968807 1_545
Mg6 Si3 2.968807 1_445
Mg6 Si7 3.022971 1_555
Mg6 Si7 3.022971 1_455
Mg7 Si3 2.851515 1_455
Mg7 Si3 2.851515 1_555
Mg7 Si6 2.914148 1_455
Mg7 Si6 2.914148 1_555
Mg7 Si2 2.936139 1_565
Mg7 Si2 2.936139 1_465
Mg7 Si10 2.978504 1_465
Mg7 Si10 2.978504 1_565
Mg8 Si0 2.851515 1_655
Mg8 Si0 2.851515 1_555
Mg8 Si5 2.914148 1_655
Mg8 Si5 2.914148 1_555
Mg8 Si1 2.936139 1_645
Mg8 Si1 2.936139 1_545
Mg8 Si9 2.978504 1_545
Mg8 Si9 2.978504 1_645
Mg9 Si1 2.833205 1_555
Mg9 Si1 2.833205 1_655
Mg9 Si4 2.956573 1_555
Mg9 Si4 2.956573 1_655
Mg9 Si0 2.968807 1_665
Mg9 Si0 2.968807 1_565
Mg9 Si8 3.022971 1_555
Mg9 Si8 3.022971 1_655
Si0 Si1 2.397401 1_545
Si0 Si8 2.417685 1_545
Si1 Si9 2.390163 1_555
Si2 Si3 2.397401 1_545
Si3 Si7 2.417685 1_565
Si4 Si8 2.553406 1_555
Si5 Si9 2.530015 1_545
Si6 Si9 2.489496 1_654
Si6 Si9 2.489496 1_554
Si7 Si8 2.492901 1_545
Si7 Si8 2.492901 1_645
Si10 Si2 2.390163 1_555
Si10 Si5 2.489496 1_554
Si10 Si5 2.489496 1_654
Si10 Si6 2.530015 1_545
Si11 Si7 2.553406 1_555
Si11 Si4 2.711840 1_555
Si11 Si4 2.711840 1_655
