# generated using pymatgen
data_Ho8Fe68C3
_symmetry_space_group_name_H-M   'P 1'
_cell_length_a   8.27499500
_cell_length_b   8.54454227
_cell_length_c   14.68028721
_cell_angle_alpha   89.72896528
_cell_angle_beta   90.00000000
_cell_angle_gamma   90.00000000
_symmetry_Int_Tables_number   1
_chemical_formula_structural   Ho8Fe68C3
_chemical_formula_sum   'Ho8 Fe68 C3'
_cell_volume   1037.97342841
_cell_formula_units_Z   1
loop_
 _symmetry_equiv_pos_site_id
 _symmetry_equiv_pos_as_xyz
  1  'x, y, z'
loop_
 _atom_site_type_symbol
 _atom_site_label
 _atom_site_symmetry_multiplicity
 _atom_site_fract_x
 _atom_site_fract_y
 _atom_site_fract_z
 _atom_site_occupancy
  Ho  Ho0  1  0.25000000  0.50001600  0.16668000  1
  Ho  Ho1  1  0.25000000  0.99994800  0.66672100  1
  Ho  Ho2  1  0.75000000  0.00145300  0.33387600  1
  Ho  Ho3  1  0.75000000  0.49989700  0.83494800  1
  Ho  Ho4  1  0.75000000  0.00014600  0.99435600  1
  Ho  Ho5  1  0.75000000  0.49051200  0.49672700  1
  Ho  Ho6  1  0.25000000  0.00000800  0.99999100  1
  Ho  Ho7  1  0.25000000  0.50054700  0.50009800  1
  Fe  Fe0  1  0.48208400  0.49850600  0.33270100  1
  Fe  Fe1  1  0.48395100  0.99999500  0.83407100  1
  Fe  Fe2  1  0.48250600  0.74834500  0.08287500  1
  Fe  Fe3  1  0.48285800  0.24816200  0.58299900  1
  Fe  Fe4  1  0.48280200  0.25104300  0.08288300  1
  Fe  Fe5  1  0.48149400  0.75179400  0.58386600  1
  Fe  Fe6  1  0.51816700  0.99984200  0.16590300  1
  Fe  Fe7  1  0.51790600  0.50041400  0.66612100  1
  Fe  Fe8  1  0.51851300  0.74955100  0.41681000  1
  Fe  Fe9  1  0.51550200  0.24939200  0.91684600  1
  Fe  Fe10  1  0.51557600  0.25002100  0.41671900  1
  Fe  Fe11  1  0.51523000  0.75047200  0.91676400  1
  Fe  Fe12  1  0.98183300  0.99984200  0.16590300  1
  Fe  Fe13  1  0.98209400  0.50041400  0.66612100  1
  Fe  Fe14  1  0.98148700  0.74955100  0.41681000  1
  Fe  Fe15  1  0.98449800  0.24939200  0.91684600  1
  Fe  Fe16  1  0.98442400  0.25002100  0.41671900  1
  Fe  Fe17  1  0.98477000  0.75047200  0.91676400  1
  Fe  Fe18  1  0.01791600  0.49850600  0.33270100  1
  Fe  Fe19  1  0.01604900  0.99999500  0.83407100  1
  Fe  Fe20  1  0.01749400  0.74834500  0.08287500  1
  Fe  Fe21  1  0.01714200  0.24816200  0.58299900  1
  Fe  Fe22  1  0.01719800  0.25104300  0.08288300  1
  Fe  Fe23  1  0.01850600  0.75179400  0.58386600  1
  Fe  Fe24  1  0.75000000  0.65146200  0.02034300  1
  Fe  Fe25  1  0.75000000  0.14850400  0.52120000  1
  Fe  Fe26  1  0.75000000  0.21454000  0.16365600  1
  Fe  Fe27  1  0.75000000  0.71491700  0.66364300  1
  Fe  Fe28  1  0.75000000  0.63754900  0.30996300  1
  Fe  Fe29  1  0.75000000  0.14421800  0.81439600  1
  Fe  Fe30  1  0.75000000  0.34923800  0.02034000  1
  Fe  Fe31  1  0.75000000  0.85364600  0.52618200  1
  Fe  Fe32  1  0.75000000  0.78523600  0.16341300  1
  Fe  Fe33  1  0.75000000  0.28530100  0.66358700  1
  Fe  Fe34  1  0.75000000  0.35575700  0.31396300  1
  Fe  Fe35  1  0.75000000  0.85490900  0.81442300  1
  Fe  Fe36  1  0.25000000  0.84940900  0.47867900  1
  Fe  Fe37  1  0.25000000  0.34928800  0.97966800  1
  Fe  Fe38  1  0.25000000  0.29435000  0.33577400  1
  Fe  Fe39  1  0.25000000  0.79485900  0.83565500  1
  Fe  Fe40  1  0.25000000  0.85628500  0.18403300  1
  Fe  Fe41  1  0.25000000  0.35634900  0.68429500  1
  Fe  Fe42  1  0.25000000  0.15089000  0.47998800  1
  Fe  Fe43  1  0.25000000  0.65087600  0.97944100  1
  Fe  Fe44  1  0.25000000  0.70684500  0.33617600  1
  Fe  Fe45  1  0.25000000  0.20492800  0.83557900  1
  Fe  Fe46  1  0.25000000  0.14325900  0.18457200  1
  Fe  Fe47  1  0.25000000  0.64301600  0.68490100  1
  Fe  Fe48  1  0.60534200  0.49916800  0.16563000  1
  Fe  Fe49  1  0.60518700  0.00039100  0.66761600  1
  Fe  Fe50  1  0.39368200  0.99981000  0.33308800  1
  Fe  Fe51  1  0.39380800  0.50005500  0.83286600  1
  Fe  Fe52  1  0.10631800  0.99981000  0.33308800  1
  Fe  Fe53  1  0.10619200  0.50005500  0.83286600  1
  Fe  Fe54  1  0.89465800  0.49916800  0.16563000  1
  Fe  Fe55  1  0.89481300  0.00039100  0.66761600  1
  Fe  Fe56  1  0.49799100  0.00020100  0.50090000  1
  Fe  Fe57  1  0.49994300  0.50003900  0.99989200  1
  Fe  Fe58  1  0.49834400  0.25091400  0.24947500  1
  Fe  Fe59  1  0.49815500  0.75174500  0.75005500  1
  Fe  Fe60  1  0.49651700  0.74754200  0.24925600  1
  Fe  Fe61  1  0.49787700  0.24903200  0.74958900  1
  Fe  Fe62  1  0.00200900  0.00020100  0.50090000  1
  Fe  Fe63  1  0.00005700  0.50003900  0.99989200  1
  Fe  Fe64  1  0.00165600  0.25091400  0.24947500  1
  Fe  Fe65  1  0.00184500  0.75174500  0.75005500  1
  Fe  Fe66  1  0.00348300  0.74754200  0.24925600  1
  Fe  Fe67  1  0.00212300  0.24903200  0.74958900  1
  C  C0  1  0.75000000  0.99979100  0.16328500  1
  C  C1  1  0.75000000  0.50003400  0.66403700  1
  C  C2  1  0.75000000  0.74564700  0.41806300  1
loop_
_geom_bond_atom_site_label_1
_geom_bond_atom_site_label_2
_geom_bond_distance
_geom_bond_site_symmetry_2
Fe0 Fe58 2.451714 1_555
Fe0 Fe60 2.453196 1_555
Fe0 Fe10 2.466023 1_555
Fe0 Fe8 2.498365 1_555
Fe0 Fe28 2.536584 1_555
Fe0 Fe34 2.545914 1_555
Fe0 Fe38 2.594723 1_555
Fe0 Fe44 2.619300 1_555
Fe0 Fe48 2.656259 1_555
Fe0 Ho0 3.102948 1_555
Fe0 Ho7 3.118974 1_555
Fe0 Ho5 3.273596 1_555
Fe1 Fe61 2.460578 1_565
Fe1 Fe59 2.461546 1_555
Fe1 Fe11 2.462088 1_555
Fe1 Fe9 2.471916 1_565
Fe1 Fe29 2.538801 1_565
Fe1 Fe35 2.543671 1_555
Fe1 Fe45 2.610544 1_565
Fe1 Fe39 2.611573 1_555
Fe1 Fe49 2.641517 1_565
Fe1 Ho6 3.111394 1_565
Fe1 Ho1 3.127857 1_555
Fe1 Ho4 3.222363 1_565
Fe2 Fe60 2.445248 1_555
Fe2 Fe57 2.455762 1_554
Fe2 Fe6 2.493071 1_555
Fe2 Fe32 2.529902 1_555
Fe2 Fe24 2.536693 1_555
Fe2 Fe43 2.590936 1_554
Fe2 Fe40 2.602042 1_555
Fe2 Fe48 2.649098 1_555
Fe2 Ho0 3.113342 1_555
Fe2 Ho6 3.127532 1_564
Fe2 Ho4 3.345280 1_564
Fe3 Fe56 2.445686 1_555
Fe3 Fe61 2.448791 1_555
Fe3 Fe7 2.498734 1_555
Fe3 Fe33 2.527967 1_555
Fe3 Fe42 2.588914 1_555
Fe3 Fe41 2.606109 1_555
Fe3 Fe49 2.650462 1_555
Fe3 Ho1 3.113998 1_545
Fe3 Ho7 3.133652 1_555
Fe3 Ho5 3.279335 1_555
Fe4 Fe58 2.448993 1_555
Fe4 Fe57 2.450801 1_554
Fe4 Fe9 2.452551 1_554
Fe4 Fe6 2.480581 1_545
Fe4 Fe46 2.602853 1_555
Fe4 Fe48 2.650113 1_555
Fe4 Ho0 3.126480 1_555
Fe4 Ho6 3.133301 1_554
Fe4 Ho4 3.346640 1_554
Fe5 Fe59 2.443593 1_555
Fe5 Fe56 2.445961 1_565
Fe5 Fe8 2.471652 1_555
Fe5 Fe7 2.477491 1_555
Fe5 Ho1 3.109562 1_555
Fe5 Ho7 3.132972 1_555
Fe5 Ho5 3.403590 1_555
Fe6 Fe60 2.480296 1_555
Fe6 Ho6 3.294937 1_564
Fe7 Ho7 3.294689 1_555
Fe8 Ho7 3.306688 1_555
Fe9 Ho4 3.094000 1_555
Fe9 Ho3 3.125395 1_555
Fe9 Ho6 3.291320 1_555
Fe10 Fe3 2.455983 1_555
Fe10 Fe58 2.459303 1_555
Fe10 Fe56 2.465751 1_555
Fe10 Fe38 2.526040 1_555
Fe10 Fe42 2.530281 1_555
Fe10 Fe34 2.615710 1_555
Fe10 Fe25 2.618291 1_555
Fe10 Fe50 2.668398 1_545
Fe10 Ho5 3.063981 1_555
Fe10 Ho2 3.126896 1_555
Fe10 Ho7 3.306804 1_555
Fe11 Fe59 2.451384 1_555
Fe11 Fe2 2.453528 1_556
Fe11 Fe57 2.461591 1_555
Fe11 Fe39 2.524756 1_555
Fe11 Fe43 2.525957 1_555
Fe11 Fe24 2.605731 1_556
Fe11 Fe35 2.610553 1_555
Fe11 Fe51 2.670160 1_555
Fe11 Ho4 3.105773 1_565
Fe11 Ho3 3.134514 1_555
Fe11 Ho6 3.298580 1_565
Fe12 Fe66 2.480296 1_655
Fe12 Fe22 2.480581 1_665
Fe12 Fe64 2.481791 1_665
Fe12 Fe20 2.493071 1_655
Fe12 Fe40 2.548860 1_655
Fe12 Fe46 2.550352 1_665
Fe12 Fe52 2.661735 1_655
Fe12 Ho6 3.294937 1_664
Fe13 Fe67 2.473394 1_655
Fe13 Fe23 2.477491 1_655
Fe13 Fe65 2.486322 1_655
Fe13 Fe21 2.498734 1_655
Fe13 Fe47 2.545308 1_655
Fe13 Fe41 2.549137 1_655
Fe13 Fe53 2.654529 1_655
Fe13 Ho7 3.294689 1_655
Fe14 Fe66 2.466607 1_655
Fe14 Fe23 2.471652 1_655
Fe14 Fe62 2.482859 1_665
Fe14 Fe18 2.498365 1_655
Fe14 Fe44 2.544699 1_655
Fe14 Fe36 2.548983 1_655
Fe14 Fe52 2.669327 1_655
Fe14 Ho7 3.306688 1_655
Fe15 Fe22 2.452551 1_656
Fe15 Fe67 2.459725 1_655
Fe15 Fe19 2.471916 1_645
Fe15 Fe63 2.472712 1_655
Fe15 Fe45 2.529598 1_655
Fe15 Fe37 2.532487 1_655
Fe15 Fe30 2.610339 1_556
Fe15 Fe29 2.616832 1_555
Fe15 Fe53 2.663894 1_655
Fe15 Ho4 3.094000 1_555
Fe15 Ho3 3.125395 1_555
Fe15 Ho6 3.291320 1_655
Fe16 Fe21 2.455983 1_655
Fe16 Fe64 2.459303 1_655
Fe16 Fe62 2.465751 1_655
Fe16 Fe18 2.466023 1_655
Fe16 Fe38 2.526040 1_655
Fe16 Fe42 2.530281 1_655
Fe16 Fe34 2.615710 1_555
Fe16 Fe25 2.618291 1_555
Fe16 Fe52 2.668398 1_645
Fe16 Ho5 3.063981 1_555
Fe16 Ho2 3.126896 1_555
Fe16 Ho7 3.306804 1_655
Fe17 Fe65 2.451384 1_655
Fe17 Fe20 2.453528 1_656
Fe17 Fe63 2.461591 1_655
Fe17 Fe19 2.462088 1_655
Fe17 Fe39 2.524756 1_655
Fe17 Fe43 2.525957 1_655
Fe17 Fe24 2.605731 1_556
Fe17 Fe35 2.610553 1_555
Fe17 Fe53 2.670160 1_655
Fe17 Ho4 3.105773 1_565
Fe17 Ho3 3.134514 1_555
Fe17 Ho6 3.298580 1_665
Fe18 Fe64 2.451714 1_555
Fe18 Fe66 2.453196 1_555
Fe18 Fe28 2.536584 1_455
Fe18 Fe34 2.545914 1_455
Fe18 Fe38 2.594723 1_555
Fe18 Fe44 2.619300 1_555
Fe18 Fe54 2.656259 1_455
Fe18 Ho0 3.102948 1_555
Fe18 Ho7 3.118974 1_555
Fe18 Ho5 3.273596 1_455
Fe19 Fe67 2.460578 1_565
Fe19 Fe65 2.461546 1_555
Fe19 Fe29 2.538801 1_465
Fe19 Fe35 2.543671 1_455
Fe19 Fe45 2.610544 1_565
Fe19 Fe39 2.611573 1_555
Fe19 Fe55 2.641517 1_465
Fe19 Ho6 3.111394 1_565
Fe19 Ho1 3.127857 1_555
Fe19 Ho4 3.222363 1_465
Fe20 Fe66 2.445248 1_555
Fe20 Fe63 2.455762 1_554
Fe20 Fe32 2.529902 1_455
Fe20 Fe24 2.536693 1_455
Fe20 Fe43 2.590936 1_554
Fe20 Fe40 2.602042 1_555
Fe20 Fe54 2.649098 1_455
Fe20 Ho0 3.113342 1_555
Fe20 Ho6 3.127532 1_564
Fe20 Ho4 3.345280 1_464
Fe21 Fe62 2.445686 1_555
Fe21 Fe67 2.448791 1_555
Fe21 Fe33 2.527967 1_455
Fe21 Fe25 2.538154 1_455
Fe21 Fe42 2.588914 1_555
Fe21 Fe41 2.606109 1_555
Fe21 Fe55 2.650462 1_455
Fe21 Ho1 3.113998 1_545
Fe21 Ho7 3.133652 1_555
Fe21 Ho5 3.279335 1_455
Fe22 Fe64 2.448993 1_555
Fe22 Fe63 2.450801 1_554
Fe22 Fe26 2.527574 1_455
Fe22 Fe30 2.535445 1_455
Fe22 Fe37 2.588382 1_554
Fe22 Fe46 2.602853 1_555
Fe22 Fe54 2.650113 1_455
Fe22 Ho0 3.126480 1_555
Fe22 Ho6 3.133301 1_554
Fe22 Ho4 3.346640 1_454
Fe23 Fe65 2.443593 1_555
Fe23 Fe62 2.445961 1_565
Fe23 Fe27 2.530645 1_455
Fe23 Fe31 2.530670 1_455
Fe23 Fe47 2.592367 1_555
Fe23 Fe36 2.595678 1_555
Fe23 Fe55 2.663830 1_465
Fe23 Ho1 3.109562 1_555
Fe23 Ho7 3.132972 1_555
Fe23 Ho5 3.403590 1_455
Fe24 Fe32 2.395943 1_555
Fe24 Fe57 2.459574 1_554
Fe24 Fe63 2.459574 1_654
Fe24 Fe30 2.582366 1_555
Fe24 Fe48 2.765694 1_555
Fe24 Fe54 2.765694 1_555
Fe24 Ho4 3.001880 1_564
Fe24 Ho3 3.019586 1_554
Fe25 Fe33 2.399718 1_555
Fe25 Fe62 2.459047 1_655
Fe25 Fe56 2.459047 1_555
Fe25 Fe31 2.520142 1_545
Fe25 Fe3 2.538154 1_555
Fe25 Fe55 2.762595 1_555
Fe25 Fe49 2.762595 1_555
Fe25 Ho5 2.942616 1_555
Fe25 Ho2 3.028824 1_555
Fe26 Fe30 2.393369 1_555
Fe26 Fe58 2.454409 1_555
Fe26 Fe64 2.454409 1_655
Fe26 Fe34 2.519924 1_555
Fe26 Fe4 2.527574 1_555
Fe26 Fe54 2.710927 1_555
Fe26 Fe48 2.710927 1_555
Fe27 Fe59 2.460721 1_555
Fe27 Fe65 2.460721 1_655
Fe27 Fe35 2.520996 1_555
Fe27 Fe5 2.530645 1_555
Fe27 Fe49 2.718575 1_565
Fe27 Fe55 2.718575 1_565
Fe28 Fe34 2.408222 1_555
Fe28 Fe66 2.463617 1_655
Fe28 Fe60 2.463617 1_555
Fe28 Fe48 2.710022 1_555
Fe28 Fe54 2.710022 1_555
Fe29 Fe61 2.460054 1_555
Fe29 Fe67 2.460054 1_655
Fe29 Fe35 2.472011 1_545
Fe29 Fe33 2.515829 1_555
Fe29 Fe9 2.616832 1_555
Fe29 Fe55 2.759415 1_555
Fe29 Fe49 2.759415 1_555
Fe29 Ho4 2.909315 1_555
Fe29 Ho3 3.055474 1_555
Fe30 Fe63 2.455284 1_654
Fe30 Fe57 2.455284 1_554
Fe30 Fe4 2.535445 1_555
Fe30 Fe9 2.610339 1_554
Fe30 Fe48 2.765718 1_555
Fe30 Fe54 2.765718 1_555
Fe30 Ho3 3.005191 1_554
Fe30 Ho4 3.008912 1_554
Fe31 Fe62 2.459726 1_665
Fe31 Fe56 2.459726 1_565
Fe31 Fe5 2.530670 1_555
Fe31 Fe49 2.709943 1_565
Fe31 Fe55 2.709943 1_565
Fe32 Fe66 2.467347 1_655
Fe32 Fe60 2.467347 1_555
Fe32 Fe54 2.721750 1_555
Fe32 Fe48 2.721750 1_555
Fe33 Fe61 2.457447 1_555
Fe33 Fe67 2.457447 1_655
Fe33 Fe55 2.713771 1_555
Fe33 Fe49 2.713771 1_555
Fe34 Fe58 2.458332 1_555
Fe34 Fe64 2.458332 1_655
Fe34 Fe48 2.766052 1_555
Fe34 Fe54 2.766052 1_555
Fe34 Ho5 2.924660 1_555
Fe34 Ho2 3.040070 1_555
Fe35 Fe59 2.453760 1_555
Fe35 Fe65 2.453760 1_655
Fe35 Fe55 2.756925 1_565
Fe35 Fe49 2.756925 1_565
Fe35 Ho4 2.923766 1_565
Fe35 Ho3 3.046925 1_555
Fe36 Fe44 2.425775 1_555
Fe36 Fe62 2.445752 1_565
Fe36 Fe56 2.445752 1_565
Fe36 Fe8 2.548983 1_555
Fe36 Fe42 2.576180 1_565
Fe36 Fe5 2.595678 1_555
Fe36 Fe50 2.758131 1_555
Fe36 Fe52 2.758131 1_555
Fe36 Ho7 2.995925 1_555
Fe36 Ho1 3.050991 1_555
Fe37 Fe45 2.453679 1_555
Fe37 Fe57 2.455348 1_555
Fe37 Fe63 2.455348 1_555
Fe37 Fe9 2.532487 1_555
Fe37 Fe43 2.576918 1_555
Fe37 Fe4 2.588382 1_556
Fe37 Fe51 2.773778 1_555
Fe37 Fe53 2.773778 1_555
Fe37 Ho6 2.997909 1_555
Fe37 Ho0 3.037978 1_556
Fe38 Fe42 2.441344 1_555
Fe38 Fe58 2.443446 1_555
Fe38 Fe64 2.443446 1_555
Fe38 Fe46 2.573095 1_555
Fe38 Fe50 2.783876 1_545
Fe38 Fe52 2.783876 1_545
Fe38 Ho7 2.993938 1_555
Fe38 Ho0 3.034627 1_555
Fe39 Fe65 2.436391 1_555
Fe39 Fe59 2.436391 1_555
Fe39 Fe43 2.438145 1_555
Fe39 Fe47 2.570672 1_555
Fe39 Fe53 2.786389 1_555
Fe39 Fe51 2.786389 1_555
Fe39 Ho6 2.988785 1_565
Fe39 Ho1 3.029878 1_555
Fe40 Fe66 2.435778 1_555
Fe40 Fe60 2.435778 1_555
Fe40 Fe46 2.452112 1_565
Fe40 Fe6 2.548860 1_555
Fe40 Fe44 2.567493 1_555
Fe40 Fe52 2.780480 1_555
Fe40 Fe50 2.780480 1_555
Fe40 Ho6 2.962495 1_564
Fe40 Ho0 3.055997 1_555
Fe41 Fe61 2.441036 1_555
Fe41 Fe67 2.441036 1_555
Fe41 Fe47 2.449497 1_555
Fe41 Fe7 2.549137 1_555
Fe41 Fe45 2.564987 1_555
Fe41 Fe53 2.776013 1_555
Fe41 Fe51 2.776013 1_555
Fe41 Ho7 2.966232 1_555
Fe41 Ho1 3.057408 1_545
Fe42 Fe56 2.441219 1_555
Fe42 Fe62 2.441219 1_555
Fe42 Fe50 2.785152 1_545
Fe42 Fe52 2.785152 1_545
Fe42 Ho7 3.003599 1_555
Fe42 Ho1 3.024012 1_545
Fe43 Fe63 2.454656 1_555
Fe43 Fe57 2.454656 1_555
Fe43 Fe53 2.780860 1_555
Fe43 Fe51 2.780860 1_555
Fe43 Ho6 2.999808 1_565
Fe43 Ho0 3.030437 1_556
Fe44 Fe60 2.430273 1_555
Fe44 Fe66 2.430273 1_555
Fe44 Fe8 2.544699 1_555
Fe44 Fe50 2.771443 1_555
Fe44 Fe52 2.771443 1_555
Fe44 Ho7 2.976227 1_555
Fe44 Ho0 3.058790 1_555
Fe45 Fe61 2.436884 1_555
Fe45 Fe67 2.436884 1_555
Fe45 Fe9 2.529598 1_555
Fe45 Fe53 2.788523 1_555
Fe45 Fe51 2.788523 1_555
Fe45 Ho6 2.975126 1_555
Fe45 Ho1 3.041966 1_545
Fe46 Fe64 2.446522 1_555
Fe46 Fe58 2.446522 1_555
Fe46 Fe6 2.550352 1_545
Fe46 Fe50 2.764822 1_545
Fe46 Fe52 2.764822 1_545
Fe46 Ho6 2.978603 1_554
Fe46 Ho0 3.058382 1_555
Fe47 Fe65 2.450135 1_555
Fe47 Fe59 2.450135 1_555
Fe47 Fe7 2.545308 1_555
Fe47 Fe5 2.592367 1_555
Fe47 Fe51 2.757080 1_555
Fe47 Fe53 2.757080 1_555
Fe47 Ho7 2.978809 1_555
Fe47 Ho1 3.060218 1_555
Fe48 Fe54 2.394088 1_555
Fe48 Fe57 2.584659 1_554
Fe48 Fe58 2.602661 1_555
Fe48 Fe60 2.616609 1_555
Fe48 Ho0 2.940503 1_555
Fe49 Fe55 2.396654 1_555
Fe49 Fe59 2.595872 1_545
Fe49 Fe61 2.602778 1_555
Fe49 Fe56 2.603238 1_555
Fe49 Fe5 2.663830 1_545
Fe49 Ho1 2.939203 1_545
Fe50 Fe52 2.377936 1_555
Fe50 Fe56 2.610383 1_565
Fe50 Fe58 2.614442 1_565
Fe50 Fe60 2.628695 1_555
Fe50 Fe6 2.661735 1_555
Fe50 Fe8 2.669327 1_555
Fe50 Ho2 2.948586 1_565
Fe51 Fe53 2.380021 1_555
Fe51 Fe57 2.604535 1_555
Fe51 Fe59 2.612226 1_555
Fe51 Fe61 2.619446 1_555
Fe51 Fe7 2.654529 1_555
Fe51 Fe9 2.663894 1_555
Fe51 Ho3 2.947646 1_555
Fe52 Fe62 2.610383 1_565
Fe52 Fe64 2.614442 1_565
Fe52 Fe66 2.628695 1_555
Fe52 Ho2 2.948586 1_465
Fe53 Fe63 2.604535 1_555
Fe53 Fe65 2.612226 1_555
Fe53 Fe67 2.619446 1_555
Fe53 Ho3 2.947646 1_455
Fe54 Fe63 2.584659 1_654
Fe54 Fe64 2.602661 1_655
Fe54 Fe66 2.616609 1_655
Fe54 Ho0 2.940503 1_655
Fe55 Fe65 2.595872 1_645
Fe55 Fe67 2.602778 1_655
Fe55 Fe62 2.603238 1_655
Fe55 Ho1 2.939203 1_645
Fe56 Fe8 2.482859 1_545
Fe56 Ho1 3.183863 1_545
Fe56 Ho2 3.218813 1_555
Fe57 Fe9 2.472712 1_555
Fe57 Ho3 3.185122 1_555
Fe57 Ho0 3.205136 1_556
Fe58 Fe6 2.481791 1_545
Fe58 Ho0 3.194748 1_555
Fe58 Ho2 3.223389 1_555
Fe59 Fe7 2.486322 1_555
Fe59 Ho1 3.191642 1_555
Fe59 Ho3 3.240630 1_555
Fe60 Fe8 2.466607 1_555
Fe60 Ho0 3.182498 1_555
Fe60 Ho2 3.267329 1_565
Fe61 Fe9 2.459725 1_555
Fe61 Fe7 2.473394 1_555
Fe61 Ho1 3.200230 1_545
Fe61 Ho3 3.247011 1_555
Fe62 Ho1 3.183863 1_545
Fe62 Ho2 3.218813 1_455
Fe63 Ho3 3.185122 1_455
Fe63 Ho0 3.205136 1_556
Fe64 Ho0 3.194748 1_555
Fe64 Ho2 3.223389 1_455
Fe65 Ho1 3.191642 1_555
Fe65 Ho3 3.240630 1_455
Fe66 Ho0 3.182498 1_555
Fe66 Ho2 3.267329 1_465
Fe67 Ho1 3.200230 1_545
Fe67 Ho3 3.247011 1_455
C0 Fe32 1.833266 1_555
C0 Fe26 1.834966 1_565
C0 Fe6 1.918802 1_555
C0 Fe12 1.918802 1_555
C0 Ho4 2.479914 1_564
C0 Ho2 2.504432 1_565
C1 Fe33 1.834838 1_555
C1 Fe27 1.836059 1_555
C1 Fe7 1.920823 1_555
C1 Fe13 1.920823 1_555
C1 Ho5 2.457891 1_555
C1 Ho3 2.509017 1_555
C2 Fe31 1.839750 1_555
C2 Fe28 1.839937 1_555
C2 Fe14 1.915931 1_555
C2 Fe8 1.915931 1_555
C2 Ho5 2.462158 1_555
C2 Ho2 2.505863 1_565
