# generated using pymatgen
data_Ba3Mo3N5
_symmetry_space_group_name_H-M   'P 1'
_cell_length_a   6.22112474
_cell_length_b   7.56947297
_cell_length_c   9.27630302
_cell_angle_alpha   106.97330630
_cell_angle_beta   101.83391268
_cell_angle_gamma   94.62373844
_symmetry_Int_Tables_number   1
_chemical_formula_structural   Ba3Mo3N5
_chemical_formula_sum   'Ba6 Mo6 N10'
_cell_volume   404.28875479
_cell_formula_units_Z   2
loop_
 _symmetry_equiv_pos_site_id
 _symmetry_equiv_pos_as_xyz
  1  'x, y, z'
loop_
 _atom_site_type_symbol
 _atom_site_label
 _atom_site_symmetry_multiplicity
 _atom_site_fract_x
 _atom_site_fract_y
 _atom_site_fract_z
 _atom_site_occupancy
  Ba  Ba0  1  0.81658800  0.42599000  0.61342600  1
  Ba  Ba1  1  0.18341200  0.57401000  0.38657400  1
  Ba  Ba2  1  0.65104600  0.86590100  0.88287800  1
  Ba  Ba3  1  0.34895400  0.13409900  0.11712200  1
  Ba  Ba4  1  0.64552800  0.65718600  0.21320000  1
  Ba  Ba5  1  0.35447200  0.34281400  0.78680000  1
  Mo  Mo0  1  0.91700900  0.31721200  0.97201800  1
  Mo  Mo1  1  0.08299100  0.68278800  0.02798200  1
  Mo  Mo2  1  0.69487600  0.95769100  0.57110500  1
  Mo  Mo3  1  0.30512400  0.04230900  0.42889500  1
  Mo  Mo4  1  0.10986500  0.90061500  0.70157700  1
  Mo  Mo5  1  0.89013500  0.09938500  0.29842300  1
  N  N0  1  0.91813800  0.11750700  0.77670800  1
  N  N1  1  0.08186200  0.88249300  0.22329200  1
  N  N2  1  0.86243200  0.74238600  0.52563500  1
  N  N3  1  0.13756800  0.25761400  0.47436500  1
  N  N4  1  0.77588400  0.53643300  0.93399000  1
  N  N5  1  0.22411600  0.46356700  0.06601000  1
  N  N6  1  0.38035900  0.94301000  0.61807300  1
  N  N7  1  0.61964100  0.05699000  0.38192700  1
  N  N8  1  0.15371100  0.78958900  0.86961700  1
  N  N9  1  0.84628900  0.21041100  0.13038300  1
loop_
_geom_bond_atom_site_label_1
_geom_bond_atom_site_label_2
_geom_bond_distance
_geom_bond_site_symmetry_2
Ba0 N2 2.757575 1_555
Ba0 N3 2.789762 1_655
Ba0 N4 2.914986 1_555
Ba0 N7 2.963348 1_555
Ba0 N0 3.171135 1_555
Ba0 N8 3.290523 1_655
Ba1 N3 2.757575 1_555
Ba1 N2 2.789762 1_455
Ba1 N5 2.914986 1_555
Ba1 N6 2.963348 1_555
Ba1 N1 3.171135 1_555
Ba1 N9 3.290523 1_455
Ba2 N4 2.810533 1_555
Ba2 N9 2.897743 1_566
Ba2 N6 2.917082 1_555
Ba2 N0 2.935005 1_565
Ba2 N8 3.071775 1_555
Ba2 N8 3.245818 1_655
Ba3 N5 2.810533 1_555
Ba3 N8 2.897743 1_544
Ba3 N7 2.917082 1_555
Ba3 N1 2.935005 1_545
Ba3 N9 3.071775 1_555
Ba3 N9 3.245818 1_455
Ba4 N5 2.762126 1_555
Ba4 N4 2.792884 1_554
Ba4 N2 2.793015 1_555
Ba4 N7 3.008429 1_565
Ba4 N1 3.056463 1_655
Ba5 N4 2.762126 1_555
Ba5 N5 2.792884 1_556
Ba5 N3 2.793015 1_555
Ba5 N6 3.008429 1_545
Ba5 N0 3.056463 1_455
Mo0 N9 1.976445 1_556
Mo0 N0 1.993872 1_555
Mo0 N5 2.012281 1_656
Mo0 N4 2.024459 1_555
Mo1 N8 1.976445 1_554
Mo1 N1 1.993872 1_555
Mo1 N4 2.012281 1_454
Mo1 N5 2.024459 1_555
Mo2 N2 1.993345 1_555
Mo2 N0 2.079821 1_565
Mo2 N7 2.086520 1_565
Mo2 N6 2.091295 1_555
Mo3 N3 1.993345 1_555
Mo3 N1 2.079821 1_545
Mo3 N6 2.086520 1_545
Mo3 N7 2.091295 1_555
Mo4 N8 1.959066 1_555
Mo4 N2 1.999688 1_455
Mo4 N6 2.031609 1_555
Mo4 N0 2.142983 1_465
Mo5 N9 1.959066 1_555
Mo5 N3 1.999688 1_655
Mo5 N7 2.031609 1_555
Mo5 N1 2.142983 1_645
