# generated using pymatgen
data_NaCd2Rh
_symmetry_space_group_name_H-M   'P 1'
_cell_length_a   11.11354274
_cell_length_b   11.11354274
_cell_length_c   11.11354274
_cell_angle_alpha   118.67287748
_cell_angle_beta   117.95433981
_cell_angle_gamma   92.94767846
_symmetry_Int_Tables_number   1
_chemical_formula_structural   NaCd2Rh
_chemical_formula_sum   'Na1 Cd2 Rh1'
_cell_volume   993.87686751
_cell_formula_units_Z   1
loop_
 _symmetry_equiv_pos_site_id
 _symmetry_equiv_pos_as_xyz
  1  'x, y, z'
loop_
 _atom_site_type_symbol
 _atom_site_label
 _atom_site_symmetry_multiplicity
 _atom_site_fract_x
 _atom_site_fract_y
 _atom_site_fract_z
 _atom_site_occupancy
  Na  Na0  1  0.00000000  0.00000000  0.00000000  1
  Cd  Cd0  1  0.00000000  0.26809400  0.26809400  1
  Cd  Cd1  1  0.00000000  0.73190600  0.73190600  1
  Rh  Rh0  1  0.00000000  0.50000000  0.50000000  1
loop_
_geom_bond_atom_site_label_1
_geom_bond_atom_site_label_2
_geom_bond_distance
_geom_bond_site_symmetry_2
Cd0 Rh0 2.628822 1_555
Cd0 Na0 3.039040 1_555
Cd1 Rh0 2.628822 1_555
Cd1 Na0 3.039040 1_566
