# generated using pymatgen
data_Y2In3Cu
_symmetry_space_group_name_H-M   'P 1'
_cell_length_a   7.20370800
_cell_length_b   9.54654156
_cell_length_c   16.60597381
_cell_angle_alpha   90.00416261
_cell_angle_beta   90.00000000
_cell_angle_gamma   90.00000000
_symmetry_Int_Tables_number   1
_chemical_formula_structural   Y2In3Cu
_chemical_formula_sum   'Y16 In24 Cu8'
_cell_volume   1142.00108235
_cell_formula_units_Z   8
loop_
 _symmetry_equiv_pos_site_id
 _symmetry_equiv_pos_as_xyz
  1  'x, y, z'
loop_
 _atom_site_type_symbol
 _atom_site_label
 _atom_site_symmetry_multiplicity
 _atom_site_fract_x
 _atom_site_fract_y
 _atom_site_fract_z
 _atom_site_occupancy
  Y  Y0_0  1  0.00000000  0.49998050  0.00430350  1
  Y  Y0_1  1  0.00000000  0.49998050  0.50430350  1
  Y  Y0_2  1  0.00000000  0.99998050  0.00430350  1
  Y  Y0_3  1  0.00000000  0.99998050  0.50430350  1
  Y  Y0_4  1  0.50000000  0.49998050  0.00430350  1
  Y  Y0_5  1  0.50000000  0.49998050  0.50430350  1
  Y  Y0_6  1  0.50000000  0.99998050  0.00430350  1
  Y  Y0_7  1  0.50000000  0.99998050  0.50430350  1
  Y  Y1_0  1  0.00000000  0.24997950  0.24824200  1
  Y  Y1_1  1  0.00000000  0.24997950  0.74824200  1
  Y  Y1_2  1  0.00000000  0.74997950  0.24824200  1
  Y  Y1_3  1  0.00000000  0.74997950  0.74824200  1
  Y  Y1_4  1  0.50000000  0.24997950  0.24824200  1
  Y  Y1_5  1  0.50000000  0.24997950  0.74824200  1
  Y  Y1_6  1  0.50000000  0.74997950  0.24824200  1
  Y  Y1_7  1  0.50000000  0.74997950  0.74824200  1
  In  In0_0  1  0.25000000  0.24998300  0.41896500  1
  In  In0_1  1  0.25000000  0.24998300  0.91896500  1
  In  In0_2  1  0.25000000  0.74998300  0.41896500  1
  In  In0_3  1  0.25000000  0.74998300  0.91896500  1
  In  In0_4  1  0.75000000  0.24998300  0.41896500  1
  In  In0_5  1  0.75000000  0.24998300  0.91896500  1
  In  In0_6  1  0.75000000  0.74998300  0.41896500  1
  In  In0_7  1  0.75000000  0.74998300  0.91896500  1
  In  In1_0  1  0.25000000  0.24996350  0.09200850  1
  In  In1_1  1  0.25000000  0.24996350  0.59200850  1
  In  In1_2  1  0.25000000  0.74996350  0.09200850  1
  In  In1_3  1  0.25000000  0.74996350  0.59200850  1
  In  In1_4  1  0.75000000  0.24996350  0.09200850  1
  In  In1_5  1  0.75000000  0.24996350  0.59200850  1
  In  In1_6  1  0.75000000  0.74996350  0.09200850  1
  In  In1_7  1  0.75000000  0.74996350  0.59200850  1
  In  In2_0  1  0.25000000  0.00000850  0.32252000  1
  In  In2_1  1  0.25000000  0.00000850  0.82252000  1
  In  In2_2  1  0.25000000  0.50000850  0.32252000  1
  In  In2_3  1  0.25000000  0.50000850  0.82252000  1
  In  In2_4  1  0.75000000  0.00000850  0.32252000  1
  In  In2_5  1  0.75000000  0.00000850  0.82252000  1
  In  In2_6  1  0.75000000  0.50000850  0.32252000  1
  In  In2_7  1  0.75000000  0.50000850  0.82252000  1
  Cu  Cu0_0  1  0.25000000  0.49998550  0.16396050  1
  Cu  Cu0_1  1  0.25000000  0.49998550  0.66396050  1
  Cu  Cu0_2  1  0.25000000  0.99998550  0.16396050  1
  Cu  Cu0_3  1  0.25000000  0.99998550  0.66396050  1
  Cu  Cu0_4  1  0.75000000  0.49998550  0.16396050  1
  Cu  Cu0_5  1  0.75000000  0.49998550  0.66396050  1
  Cu  Cu0_6  1  0.75000000  0.99998550  0.16396050  1
  Cu  Cu0_7  1  0.75000000  0.99998550  0.66396050  1
loop_
_geom_bond_atom_site_label_1
_geom_bond_atom_site_label_2
_geom_bond_distance
_geom_bond_site_symmetry_2
Y0_0 Y0_4 3.601854 1_455
Y0_0 Y0_4 3.601854 1_555
Y0_1 Y0_5 3.601854 1_555
Y0_1 Y0_5 3.601854 1_455
Y0_2 Y0_6 3.601854 1_455
Y0_2 Y0_6 3.601854 1_555
Y0_3 Y0_7 3.601854 1_455
Y0_3 Y0_7 3.601854 1_555
Y1_0 Y1_4 3.601854 1_555
Y1_0 Y1_4 3.601854 1_455
Y1_1 Y1_5 3.601854 1_455
Y1_1 Y1_5 3.601854 1_555
Y1_2 Y1_6 3.601854 1_555
Y1_2 Y1_6 3.601854 1_455
Y1_3 Y1_7 3.601854 1_455
Y1_3 Y1_7 3.601854 1_555
In0_0 In1_1 2.873556 1_555
In0_0 In2_0 2.873903 1_555
In0_0 In2_2 2.874500 1_555
In0_0 Y0_1 3.308627 1_555
In0_0 Y0_5 3.308627 1_555
In0_0 Y0_3 3.308810 1_545
In0_0 Y0_7 3.308810 1_545
In0_0 Y1_0 3.358673 1_555
In0_0 Y1_4 3.358673 1_555
In0_1 In1_0 2.873556 1_556
In0_1 In2_1 2.873903 1_555
In0_1 In2_3 2.874500 1_555
In0_1 Y0_4 3.308627 1_556
In0_1 Y0_0 3.308627 1_556
In0_1 Y0_6 3.308810 1_546
In0_1 Y0_2 3.308810 1_546
In0_1 Y1_1 3.358673 1_555
In0_1 Y1_5 3.358673 1_555
In0_2 In1_3 2.873556 1_555
In0_2 In2_2 2.873903 1_555
In0_2 In2_0 2.874500 1_565
In0_2 Y0_3 3.308627 1_555
In0_2 Y0_7 3.308627 1_555
In0_2 Y0_1 3.308810 1_555
In0_2 Y0_5 3.308810 1_555
In0_2 Y1_2 3.358673 1_555
In0_2 Y1_6 3.358673 1_555
In0_3 In1_2 2.873556 1_556
In0_3 In2_3 2.873903 1_555
In0_3 In2_1 2.874500 1_565
In0_3 Y0_2 3.308627 1_556
In0_3 Y0_6 3.308627 1_556
In0_3 Y0_0 3.308810 1_556
In0_3 Y0_4 3.308810 1_556
In0_3 Y1_7 3.358673 1_555
In0_3 Y1_3 3.358673 1_555
In0_4 In1_5 2.873556 1_555
In0_4 In2_4 2.873903 1_555
In0_4 In2_6 2.874500 1_555
In0_4 Y0_1 3.308627 1_655
In0_4 Y0_5 3.308627 1_555
In0_4 Y0_3 3.308810 1_645
In0_4 Y0_7 3.308810 1_545
In0_4 Y1_4 3.358673 1_555
In0_4 Y1_0 3.358673 1_655
In0_5 In1_4 2.873556 1_556
In0_5 In2_5 2.873903 1_555
In0_5 In2_7 2.874500 1_555
In0_5 Y0_0 3.308627 1_656
In0_5 Y0_4 3.308627 1_556
In0_5 Y0_6 3.308810 1_546
In0_5 Y0_2 3.308810 1_646
In0_5 Y1_1 3.358673 1_655
In0_5 Y1_5 3.358673 1_555
In0_6 In1_7 2.873556 1_555
In0_6 In2_6 2.873903 1_555
In0_6 In2_4 2.874500 1_565
In0_6 Y0_3 3.308627 1_655
In0_6 Y0_7 3.308627 1_555
In0_6 Y0_1 3.308810 1_655
In0_6 Y0_5 3.308810 1_555
In0_6 Y1_6 3.358673 1_555
In0_6 Y1_2 3.358673 1_655
In0_7 In1_6 2.873556 1_556
In0_7 In2_7 2.873903 1_555
In0_7 In2_5 2.874500 1_565
In0_7 Y0_2 3.308627 1_656
In0_7 Y0_6 3.308627 1_556
In0_7 Y0_4 3.308810 1_556
In0_7 Y0_0 3.308810 1_656
In0_7 Y1_7 3.358673 1_555
In0_7 Y1_3 3.358673 1_655
In1_0 Y1_0 3.158211 1_555
In1_0 Y1_4 3.158211 1_555
In1_0 Y0_6 3.325548 1_545
In1_0 Y0_2 3.325548 1_545
In1_0 Y0_0 3.325932 1_555
In1_0 Y0_4 3.325932 1_555
In1_1 Y1_1 3.158211 1_555
In1_1 Y1_5 3.158211 1_555
In1_1 Y0_7 3.325548 1_545
In1_1 Y0_3 3.325548 1_545
In1_1 Y0_5 3.325932 1_555
In1_1 Y0_1 3.325932 1_555
In1_2 Y1_2 3.158211 1_555
In1_2 Y1_6 3.158211 1_555
In1_2 Y0_0 3.325548 1_555
In1_2 Y0_4 3.325548 1_555
In1_2 Y0_6 3.325932 1_555
In1_2 Y0_2 3.325932 1_555
In1_3 Y1_7 3.158211 1_555
In1_3 Y1_3 3.158211 1_555
In1_3 Y0_1 3.325548 1_555
In1_3 Y0_5 3.325548 1_555
In1_3 Y0_3 3.325932 1_555
In1_3 Y0_7 3.325932 1_555
In1_4 Y1_4 3.158211 1_555
In1_4 Y1_0 3.158211 1_655
In1_4 Y0_6 3.325548 1_545
In1_4 Y0_2 3.325548 1_645
In1_4 Y0_4 3.325932 1_555
In1_4 Y0_0 3.325932 1_655
In1_5 Y1_5 3.158211 1_555
In1_5 Y1_1 3.158211 1_655
In1_5 Y0_7 3.325548 1_545
In1_5 Y0_3 3.325548 1_645
In1_5 Y0_1 3.325932 1_655
In1_5 Y0_5 3.325932 1_555
In1_6 Y1_2 3.158211 1_655
In1_6 Y1_6 3.158211 1_555
In1_6 Y0_0 3.325548 1_655
In1_6 Y0_4 3.325548 1_555
In1_6 Y0_6 3.325932 1_555
In1_6 Y0_2 3.325932 1_655
In1_7 Y1_3 3.158211 1_655
In1_7 Y1_7 3.158211 1_555
In1_7 Y0_1 3.325548 1_655
In1_7 Y0_5 3.325548 1_555
In1_7 Y0_3 3.325932 1_655
In1_7 Y0_7 3.325932 1_555
In2_0 Y1_0 3.234176 1_555
In2_0 Y1_4 3.234176 1_555
In2_0 Y1_2 3.234452 1_545
In2_0 Y1_6 3.234452 1_545
In2_0 Y0_3 3.515087 1_545
In2_0 Y0_7 3.515087 1_545
In2_1 Y1_1 3.234176 1_555
In2_1 Y1_5 3.234176 1_555
In2_1 Y1_3 3.234452 1_545
In2_1 Y1_7 3.234452 1_545
In2_1 Y0_2 3.515087 1_546
In2_1 Y0_6 3.515087 1_546
In2_2 Y1_2 3.234176 1_555
In2_2 Y1_6 3.234176 1_555
In2_2 Y1_0 3.234452 1_555
In2_2 Y1_4 3.234452 1_555
In2_2 Y0_1 3.515087 1_555
In2_2 Y0_5 3.515087 1_555
In2_3 Y1_7 3.234176 1_555
In2_3 Y1_3 3.234176 1_555
In2_3 Y1_1 3.234452 1_555
In2_3 Y1_5 3.234452 1_555
In2_3 Y0_4 3.515087 1_556
In2_3 Y0_0 3.515087 1_556
In2_4 Y1_0 3.234176 1_655
In2_4 Y1_4 3.234176 1_555
In2_4 Y1_6 3.234452 1_545
In2_4 Y1_2 3.234452 1_645
In2_4 Y0_3 3.515087 1_645
In2_4 Y0_7 3.515087 1_545
In2_5 Y1_1 3.234176 1_655
In2_5 Y1_5 3.234176 1_555
In2_5 Y1_3 3.234452 1_645
In2_5 Y1_7 3.234452 1_545
In2_5 Y0_2 3.515087 1_646
In2_5 Y0_6 3.515087 1_546
In2_6 Y1_2 3.234176 1_655
In2_6 Y1_6 3.234176 1_555
In2_6 Y1_0 3.234452 1_655
In2_6 Y1_4 3.234452 1_555
In2_6 Y0_1 3.515087 1_655
In2_6 Y0_5 3.515087 1_555
In2_7 Y1_3 3.234176 1_655
In2_7 Y1_7 3.234176 1_555
In2_7 Y1_1 3.234452 1_655
In2_7 Y1_5 3.234452 1_555
In2_7 Y0_0 3.515087 1_656
In2_7 Y0_4 3.515087 1_556
Cu0_0 In2_2 2.633035 1_555
Cu0_0 In1_2 2.668907 1_555
Cu0_0 In1_0 2.669128 1_555
Cu0_0 Y0_4 3.205077 1_555
Cu0_0 Y0_0 3.205077 1_555
Cu0_0 Y1_2 3.301124 1_555
Cu0_0 Y1_6 3.301124 1_555
Cu0_0 Y1_0 3.301354 1_555
Cu0_0 Y1_4 3.301354 1_555
Cu0_1 In2_3 2.633035 1_555
Cu0_1 In1_3 2.668907 1_555
Cu0_1 In1_1 2.669128 1_555
Cu0_1 Y0_1 3.205077 1_555
Cu0_1 Y0_5 3.205077 1_555
Cu0_1 Y1_7 3.301124 1_555
Cu0_1 Y1_3 3.301124 1_555
Cu0_1 Y1_1 3.301354 1_555
Cu0_1 Y1_5 3.301354 1_555
Cu0_2 In2_0 2.633035 1_565
Cu0_2 In1_0 2.668907 1_565
Cu0_2 In1_2 2.669128 1_555
Cu0_2 Y0_2 3.205077 1_555
Cu0_2 Y0_6 3.205077 1_555
Cu0_2 Y1_0 3.301124 1_565
Cu0_2 Y1_4 3.301124 1_565
Cu0_2 Y1_2 3.301354 1_555
Cu0_2 Y1_6 3.301354 1_555
Cu0_3 In2_1 2.633035 1_565
Cu0_3 In1_1 2.668907 1_565
Cu0_3 In1_3 2.669128 1_555
Cu0_3 Y0_7 3.205077 1_555
Cu0_3 Y0_3 3.205077 1_555
Cu0_3 Y1_1 3.301124 1_565
Cu0_3 Y1_5 3.301124 1_565
Cu0_3 Y1_3 3.301354 1_555
Cu0_3 Y1_7 3.301354 1_555
Cu0_4 In2_6 2.633035 1_555
Cu0_4 In1_6 2.668907 1_555
Cu0_4 In1_4 2.669128 1_555
Cu0_4 Y0_4 3.205077 1_555
Cu0_4 Y0_0 3.205077 1_655
Cu0_4 Y1_6 3.301124 1_555
Cu0_4 Y1_2 3.301124 1_655
Cu0_4 Y1_4 3.301354 1_555
Cu0_4 Y1_0 3.301354 1_655
Cu0_5 In2_7 2.633035 1_555
Cu0_5 In1_7 2.668907 1_555
Cu0_5 In1_5 2.669128 1_555
Cu0_5 Y0_1 3.205077 1_655
Cu0_5 Y0_5 3.205077 1_555
Cu0_5 Y1_3 3.301124 1_655
Cu0_5 Y1_7 3.301124 1_555
Cu0_5 Y1_5 3.301354 1_555
Cu0_5 Y1_1 3.301354 1_655
Cu0_6 In2_4 2.633035 1_565
Cu0_6 In1_4 2.668907 1_565
Cu0_6 In1_6 2.669128 1_555
Cu0_6 Y0_2 3.205077 1_655
Cu0_6 Y0_6 3.205077 1_555
Cu0_6 Y1_0 3.301124 1_665
Cu0_6 Y1_4 3.301124 1_565
Cu0_6 Y1_2 3.301354 1_655
Cu0_6 Y1_6 3.301354 1_555
Cu0_7 In2_5 2.633035 1_565
Cu0_7 In1_5 2.668907 1_565
Cu0_7 In1_7 2.669128 1_555
Cu0_7 Y0_7 3.205077 1_555
Cu0_7 Y0_3 3.205077 1_655
Cu0_7 Y1_5 3.301124 1_565
Cu0_7 Y1_1 3.301124 1_665
Cu0_7 Y1_7 3.301354 1_555
Cu0_7 Y1_3 3.301354 1_655
