# generated using pymatgen
data_Mg14TiSn
_symmetry_space_group_name_H-M   'P 1'
_cell_length_a   6.31421470
_cell_length_b   6.31421420
_cell_length_c   10.38781480
_cell_angle_alpha   90.00000000
_cell_angle_beta   90.00000000
_cell_angle_gamma   120.00000261
_symmetry_Int_Tables_number   1
_chemical_formula_structural   Mg14TiSn
_chemical_formula_sum   'Mg14 Ti1 Sn1'
_cell_volume   358.66869624
_cell_formula_units_Z   1
loop_
 _symmetry_equiv_pos_site_id
 _symmetry_equiv_pos_as_xyz
  1  'x, y, z'
loop_
 _atom_site_type_symbol
 _atom_site_label
 _atom_site_symmetry_multiplicity
 _atom_site_fract_x
 _atom_site_fract_y
 _atom_site_fract_z
 _atom_site_occupancy
  Mg  Mg0  1  0.16533913  0.83266907  0.12500000  1
  Mg  Mg1  1  0.16860044  0.83429972  0.62500000  1
  Mg  Mg2  1  0.66733093  0.33466087  0.12500000  1
  Mg  Mg3  1  0.66570028  0.33139956  0.62500000  1
  Mg  Mg4  1  0.66733093  0.83266907  0.12500000  1
  Mg  Mg5  1  0.66570028  0.83429972  0.62500000  1
  Mg  Mg6  1  0.33111328  0.16888672  0.37865397  1
  Mg  Mg7  1  0.33111328  0.16888672  0.87134603  1
  Mg  Mg8  1  0.33111328  0.66222755  0.37865397  1
  Mg  Mg9  1  0.33111328  0.66222755  0.87134603  1
  Mg  Mg10  1  0.83777245  0.16888672  0.37865397  1
  Mg  Mg11  1  0.83777245  0.16888672  0.87134603  1
  Mg  Mg12  1  0.83333300  0.66666700  0.37736505  1
  Mg  Mg13  1  0.83333300  0.66666700  0.87263495  1
  Ti  Ti0  1  0.16666700  0.33333300  0.62500000  1
  Sn  Sn0  1  0.16666700  0.33333300  0.12500000  1
loop_
_geom_bond_atom_site_label_1
_geom_bond_atom_site_label_2
_geom_bond_distance
_geom_bond_site_symmetry_2
Mg0 Mg2 3.144530 1_455
Mg0 Mg4 3.144531 1_455
Mg0 Sn0 3.157115 1_565
Mg0 Sn0 3.157115 1_555
Mg0 Mg2 3.169684 1_565
Mg0 Mg4 3.169684 1_555
Mg0 Mg12 3.188795 1_455
Mg0 Mg13 3.188795 1_454
Mg0 Mg8 3.212961 1_555
Mg0 Mg9 3.212961 1_554
Mg0 Mg7 3.212967 1_564
Mg0 Mg6 3.212967 1_565
Mg1 Mg3 3.138795 1_565
Mg1 Mg5 3.138795 1_555
Mg1 Mg9 3.145921 1_555
Mg1 Mg8 3.145921 1_555
Mg1 Mg7 3.145927 1_565
Mg1 Mg6 3.145927 1_565
Mg1 Ti0 3.157125 1_555
Mg1 Ti0 3.157125 1_565
Mg1 Mg12 3.158841 1_455
Mg1 Mg13 3.158841 1_455
Mg1 Mg3 3.175419 1_455
Mg1 Mg5 3.175420 1_455
Mg2 Mg4 3.144530 1_555
Mg2 Sn0 3.157116 1_555
Mg2 Sn0 3.157116 1_655
Mg2 Mg4 3.169684 1_545
Mg2 Mg7 3.212967 1_554
Mg2 Mg6 3.212967 1_555
Mg3 Mg5 3.138795 1_545
Mg3 Mg7 3.145927 1_555
Mg3 Mg6 3.145927 1_555
Mg3 Ti0 3.157125 1_655
Mg3 Ti0 3.157125 1_555
Mg3 Mg5 3.175419 1_555
Mg4 Sn0 3.157115 1_665
Mg4 Sn0 3.157115 1_555
Mg4 Mg9 3.212967 1_554
Mg4 Mg8 3.212967 1_555
Mg5 Mg8 3.145927 1_555
Mg5 Mg9 3.145927 1_555
Mg5 Ti0 3.157125 1_555
Mg5 Ti0 3.157125 1_665
Mg6 Mg8 3.115060 1_555
Mg6 Ti0 3.127774 1_555
Mg6 Sn0 3.190182 1_555
Mg6 Mg8 3.199155 1_545
Mg7 Mg9 3.115060 1_555
Mg7 Ti0 3.127774 1_555
Mg7 Sn0 3.190182 1_556
Mg7 Mg9 3.199155 1_545
Mg8 Ti0 3.127780 1_555
Mg8 Sn0 3.190188 1_555
Mg9 Ti0 3.127780 1_555
Mg9 Sn0 3.190188 1_556
Mg10 Mg8 3.115060 1_655
Mg10 Mg6 3.115060 1_655
Mg10 Ti0 3.127781 1_655
Mg10 Mg3 3.145921 1_555
Mg10 Mg5 3.145927 1_545
Mg10 Mg12 3.157229 1_545
Mg10 Mg12 3.157229 1_555
Mg10 Sn0 3.190188 1_655
Mg10 Mg8 3.199155 1_545
Mg10 Mg6 3.199155 1_555
Mg10 Mg2 3.212961 1_555
Mg10 Mg4 3.212967 1_545
Mg11 Mg9 3.115060 1_655
Mg11 Mg7 3.115060 1_655
Mg11 Ti0 3.127781 1_655
Mg11 Mg3 3.145921 1_555
Mg11 Mg5 3.145927 1_545
Mg11 Mg13 3.157229 1_545
Mg11 Mg13 3.157229 1_555
Mg11 Sn0 3.190188 1_656
Mg11 Mg9 3.199155 1_545
Mg11 Mg7 3.199155 1_555
Mg11 Mg2 3.212961 1_556
Mg11 Mg4 3.212967 1_546
Mg12 Mg6 3.157229 1_665
Mg12 Mg6 3.157229 1_555
Mg12 Mg8 3.157229 1_555
Mg12 Mg8 3.157229 1_655
Mg12 Mg5 3.158835 1_555
Mg12 Mg3 3.158841 1_555
Mg12 Mg4 3.188789 1_555
Mg12 Mg2 3.188795 1_555
Mg13 Mg7 3.157229 1_665
Mg13 Mg7 3.157229 1_555
Mg13 Mg9 3.157229 1_555
Mg13 Mg9 3.157229 1_655
Mg13 Mg5 3.158835 1_555
Mg13 Mg3 3.158841 1_555
Mg13 Mg4 3.188789 1_556
Mg13 Mg2 3.188795 1_556
