# generated using pymatgen
data_BeTe
_symmetry_space_group_name_H-M   'P 1'
_cell_length_a   3.99663710
_cell_length_b   3.99663710
_cell_length_c   6.58677100
_cell_angle_alpha   90.00000000
_cell_angle_beta   90.00000000
_cell_angle_gamma   119.99998512
_symmetry_Int_Tables_number   1
_chemical_formula_structural   BeTe
_chemical_formula_sum   'Be2 Te2'
_cell_volume   91.11559025
_cell_formula_units_Z   2
loop_
 _symmetry_equiv_pos_site_id
 _symmetry_equiv_pos_as_xyz
  1  'x, y, z'
loop_
 _atom_site_type_symbol
 _atom_site_label
 _atom_site_symmetry_multiplicity
 _atom_site_fract_x
 _atom_site_fract_y
 _atom_site_fract_z
 _atom_site_occupancy
  Be  Be0  1  0.00000000  0.00000000  0.00043300  1
  Be  Be1  1  0.33333400  0.66667000  0.50043100  1
  Te  Te0  1  0.00000000  0.00000000  0.37456800  1
  Te  Te1  1  0.33333400  0.66667000  0.87456900  1
loop_
_geom_bond_atom_site_label_1
_geom_bond_atom_site_label_2
_geom_bond_distance
_geom_bond_site_symmetry_2
Be0 Te1 2.451862 1_544
Be0 Te1 2.451869 1_444
Be0 Te1 2.451882 1_554
Be0 Te0 2.464342 1_555
Be1 Te0 2.451860 1_565
Be1 Te0 2.451867 1_665
Be1 Te0 2.451880 1_555
Be1 Te1 2.464361 1_555
