# generated using pymatgen
data_Sr2YFe2O7
_symmetry_space_group_name_H-M   'P 1'
_cell_length_a   13.33679941
_cell_length_b   13.33679941
_cell_length_c   13.33679941
_cell_angle_alpha   157.09112141
_cell_angle_beta   156.94539936
_cell_angle_gamma   32.72688624
_symmetry_Int_Tables_number   1
_chemical_formula_structural   Sr2YFe2O7
_chemical_formula_sum   'Sr4 Y2 Fe4 O14'
_cell_volume   361.31224617
_cell_formula_units_Z   2
loop_
 _symmetry_equiv_pos_site_id
 _symmetry_equiv_pos_as_xyz
  1  'x, y, z'
loop_
 _atom_site_type_symbol
 _atom_site_label
 _atom_site_symmetry_multiplicity
 _atom_site_fract_x
 _atom_site_fract_y
 _atom_site_fract_z
 _atom_site_occupancy
  Sr  Sr0  1  0.82246800  0.78117700  0.95870900  1
  Sr  Sr1  1  0.17753200  0.21882300  0.04129100  1
  Sr  Sr2  1  0.67753200  0.63624100  0.95870900  1
  Sr  Sr3  1  0.32246800  0.36375900  0.04129100  1
  Y  Y0  1  0.50000000  0.50000000  0.00000000  1
  Y  Y1  1  0.00000000  0.00000000  0.00000000  1
  Fe  Fe0  1  0.41870500  0.92750600  0.50880100  1
  Fe  Fe1  1  0.58129500  0.07249400  0.49119900  1
  Fe  Fe2  1  0.08129500  0.59009500  0.50880100  1
  Fe  Fe3  1  0.91870500  0.40990500  0.49119900  1
  O  O0  1  0.00000000  0.50000000  0.00000000  1
  O  O1  1  0.50000000  0.50000000  0.50000000  1
  O  O2  1  0.19751700  0.19751700  0.50000000  1
  O  O3  1  0.30248300  0.80248300  0.00000000  1
  O  O4  1  0.80248300  0.80248300  0.50000000  1
  O  O5  1  0.69751700  0.19751700  0.00000000  1
  O  O6  1  0.68995000  0.68995000  0.50000000  1
  O  O7  1  0.81005000  0.31005000  0.00000000  1
  O  O8  1  0.31005000  0.31005000  0.50000000  1
  O  O9  1  0.18995000  0.68995000  0.00000000  1
  O  O10  1  0.84641400  0.31652000  0.47010600  1
  O  O11  1  0.15358600  0.68348000  0.52989400  1
  O  O12  1  0.65358600  0.12369200  0.47010600  1
  O  O13  1  0.34641400  0.87630800  0.52989400  1
loop_
_geom_bond_atom_site_label_1
_geom_bond_atom_site_label_2
_geom_bond_distance
_geom_bond_site_symmetry_2
Fe0 O13 1.853526 1_555
Fe0 O9 1.987646 1_555
Fe0 O6 1.987646 1_555
Fe0 O2 1.987938 1_565
Fe0 O5 1.987938 1_566
Fe1 O12 1.853526 1_555
Fe1 O8 1.987646 1_555
Fe1 O7 1.987646 1_556
Fe1 O3 1.987938 1_545
Fe1 O4 1.987938 1_545
Fe2 O11 1.853538 1_555
Fe2 O8 1.987639 1_555
Fe2 O7 1.987643 1_455
Fe2 O3 1.987933 1_556
Fe2 O4 1.987936 1_455
Fe3 O10 1.853538 1_555
Fe3 O6 1.987639 1_555
Fe3 O9 1.987643 1_656
Fe3 O5 1.987933 1_555
Fe3 O2 1.987936 1_655
O0 Sr3 2.537293 1_555
O0 Sr0 2.537293 1_454
O0 Sr1 2.537293 1_555
O0 Sr2 2.537293 1_454
O1 Sr0 2.537293 1_555
O1 Sr1 2.537293 1_555
O1 Sr3 2.537293 1_555
O1 Sr2 2.537293 1_555
O2 Y0 2.309470 1_556
O2 Y1 2.309470 1_555
O3 Y0 2.309470 1_555
O3 Y1 2.309470 1_565
O4 Y0 2.309470 1_555
O4 Y1 2.309470 1_666
O5 Y1 2.309470 1_655
O5 Y0 2.309470 1_555
O6 Y0 2.427225 1_555
O6 Y1 2.427225 1_666
O7 Y1 2.427225 1_655
O7 Y0 2.427225 1_555
O8 Y1 2.427225 1_555
O8 Y0 2.427225 1_556
O9 Y0 2.427225 1_555
O9 Y1 2.427225 1_565
O10 Sr0 2.659736 1_555
O10 Sr3 2.760586 1_656
O10 Sr3 2.760586 1_555
O10 Sr0 2.777368 1_544
O11 Sr1 2.659736 1_555
O11 Sr2 2.760586 1_454
O11 Sr2 2.760586 1_555
O11 Sr1 2.777368 1_566
O12 Sr2 2.659736 1_555
O12 Sr1 2.760586 1_555
O12 Sr1 2.760586 1_656
O12 Sr2 2.777368 1_544
O13 Sr3 2.659736 1_555
O13 Sr0 2.760586 1_555
O13 Sr0 2.760586 1_454
O13 Sr3 2.777368 1_566
