# generated using pymatgen
data_Li9Co3P8O29
_symmetry_space_group_name_H-M   'P 1'
_cell_length_a   9.83375915
_cell_length_b   9.83375915
_cell_length_c   13.74438780
_cell_angle_alpha   89.86362654
_cell_angle_beta   89.86362654
_cell_angle_gamma   59.79588178
_symmetry_Int_Tables_number   1
_chemical_formula_structural   Li9Co3P8O29
_chemical_formula_sum   'Li18 Co6 P16 O58'
_cell_volume   1148.67344162
_cell_formula_units_Z   2
loop_
 _symmetry_equiv_pos_site_id
 _symmetry_equiv_pos_as_xyz
  1  'x, y, z'
loop_
 _atom_site_type_symbol
 _atom_site_label
 _atom_site_symmetry_multiplicity
 _atom_site_fract_x
 _atom_site_fract_y
 _atom_site_fract_z
 _atom_site_occupancy
  Li  Li0  1  0.10057500  0.23843000  0.93706000  1
  Li  Li1  1  0.23843000  0.10057500  0.43706000  1
  Li  Li2  1  0.09420900  0.67572800  0.43504200  1
  Li  Li3  1  0.33475400  0.33275300  0.61970400  1
  Li  Li4  1  0.33275300  0.33475400  0.11970400  1
  Li  Li5  1  0.00141600  0.02587700  0.50087700  1
  Li  Li6  1  0.23692000  0.66360500  0.93629400  1
  Li  Li7  1  0.67572800  0.09420900  0.93504200  1
  Li  Li8  1  0.32767200  0.76942000  0.56427900  1
  Li  Li9  1  0.66360500  0.23692000  0.43629400  1
  Li  Li10  1  0.33921600  0.90053700  0.06402100  1
  Li  Li11  1  0.76942000  0.32767200  0.06427900  1
  Li  Li12  1  0.66797700  0.66539400  0.38027500  1
  Li  Li13  1  0.66539400  0.66797700  0.88027500  1
  Li  Li14  1  0.90053700  0.33921600  0.56402100  1
  Li  Li15  1  0.76445500  0.90231900  0.56279500  1
  Li  Li16  1  0.90231900  0.76445500  0.06279500  1
  Li  Li17  1  0.02587700  0.00141600  0.00087700  1
  Co  Co0  1  0.00058100  0.43660700  0.74982800  1
  Co  Co1  1  0.43805800  0.56127100  0.74875300  1
  Co  Co2  1  0.56127100  0.43805900  0.24875300  1
  Co  Co3  1  0.43660700  0.00058100  0.24982800  1
  Co  Co4  1  0.56367200  0.99871700  0.75086400  1
  Co  Co5  1  0.99871700  0.56367200  0.25086400  1
  P  P0  1  0.09270500  0.22518700  0.15672100  1
  P  P1  1  0.22518700  0.09270500  0.65672100  1
  P  P2  1  0.09141900  0.67927600  0.65441900  1
  P  P3  1  0.33145300  0.33399600  0.37317100  1
  P  P4  1  0.33399600  0.33145300  0.87317100  1
  P  P5  1  0.22408300  0.68628900  0.15610100  1
  P  P6  1  0.31674600  0.77620600  0.34446900  1
  P  P7  1  0.67927600  0.09141900  0.15441900  1
  P  P8  1  0.31618300  0.90875900  0.84432200  1
  P  P9  1  0.68628900  0.22408300  0.65610100  1
  P  P10  1  0.77620600  0.31674600  0.84446900  1
  P  P11  1  0.66641000  0.66596700  0.62669000  1
  P  P12  1  0.66596700  0.66641000  0.12669000  1
  P  P13  1  0.90875900  0.31618300  0.34432200  1
  P  P14  1  0.76943300  0.91052200  0.34429500  1
  P  P15  1  0.91052200  0.76943300  0.84429500  1
  O  O0  1  0.00339300  0.21208700  0.25139300  1
  O  O1  1  0.00280300  0.22560900  0.43421600  1
  O  O2  1  0.07521000  0.25413200  0.65462500  1
  O  O3  1  0.22560900  0.00280300  0.93421600  1
  O  O4  1  0.25413200  0.07521000  0.15462500  1
  O  O5  1  0.11036300  0.37138500  0.16714300  1
  O  O6  1  0.18890600  0.32463500  0.83263100  1
  O  O7  1  0.11308100  0.51310300  0.66540400  1
  O  O8  1  0.00697700  0.76106200  0.93283300  1
  O  O9  1  0.00070800  0.78125800  0.74939200  1
  O  O10  1  0.07486500  0.67485800  0.15678800  1
  O  O11  1  0.32463500  0.18890600  0.33263100  1
  O  O12  1  0.37138500  0.11036300  0.66714300  1
  O  O13  1  0.18316000  0.48876200  0.33719100  1
  O  O14  1  0.32632500  0.33514300  0.98318000  1
  O  O15  1  0.33514200  0.32632500  0.48318000  1
  O  O16  1  0.33117500  0.48302900  0.83461600  1
  O  O17  1  0.51310300  0.11308100  0.16540400  1
  O  O18  1  0.48876200  0.18316000  0.83719100  1
  O  O19  1  0.25239500  0.66764500  0.65268600  1
  O  O20  1  0.21512700  0.78881400  0.24950400  1
  O  O21  1  0.22403800  0.77424000  0.43298500  1
  O  O22  1  0.22698500  0.77762500  0.06647300  1
  O  O23  1  0.37014800  0.52063200  0.16520700  1
  O  O24  1  0.48302900  0.33117500  0.33461600  1
  O  O25  1  0.52063200  0.37014800  0.66520700  1
  O  O26  1  0.32688500  0.74851700  0.84373300  1
  O  O27  1  0.67485800  0.07486500  0.65678800  1
  O  O28  1  0.21208700  0.00339300  0.75139300  1
  O  O29  1  0.22768000  0.99834800  0.56794400  1
  O  O30  1  0.76106200  0.00697700  0.43283300  1
  O  O31  1  0.32863000  0.92543000  0.34592000  1
  O  O32  1  0.66764500  0.25239500  0.15268600  1
  O  O33  1  0.48121600  0.62875500  0.33422800  1
  O  O34  1  0.51186700  0.67317900  0.66338700  1
  O  O35  1  0.62875500  0.48121600  0.83422800  1
  O  O36  1  0.77424000  0.22403800  0.93298500  1
  O  O37  1  0.77762500  0.22698500  0.56647300  1
  O  O38  1  0.78881400  0.21512700  0.74950400  1
  O  O39  1  0.74851700  0.32688500  0.34373300  1
  O  O40  1  0.51309800  0.81231600  0.16692400  1
  O  O41  1  0.48077200  0.88971900  0.83441100  1
  O  O42  1  0.67317900  0.51186700  0.16338700  1
  O  O43  1  0.67182500  0.66295400  0.51668800  1
  O  O44  1  0.66295400  0.67182500  0.01668800  1
  O  O45  1  0.81231600  0.51309800  0.66692400  1
  O  O46  1  0.62500300  0.88897100  0.33406900  1
  O  O47  1  0.67006200  0.81406000  0.66496900  1
  O  O48  1  0.92543000  0.32863000  0.84592000  1
  O  O49  1  0.99834800  0.22768000  0.06794400  1
  O  O50  1  0.88971900  0.48077200  0.33441100  1
  O  O51  1  0.81406000  0.67006200  0.16496900  1
  O  O52  1  0.88897100  0.62500300  0.83406900  1
  O  O53  1  0.74925600  0.91907800  0.84603300  1
  O  O54  1  0.76892400  0.99497000  0.06602100  1
  O  O55  1  0.78125800  0.00070800  0.24939200  1
  O  O56  1  0.91907800  0.74925600  0.34603300  1
  O  O57  1  0.99497000  0.76892400  0.56602100  1
loop_
_geom_bond_atom_site_label_1
_geom_bond_atom_site_label_2
_geom_bond_distance
_geom_bond_site_symmetry_2
Li0 O48 1.946849 1_455
Li0 O3 2.003976 1_555
Li0 O6 2.064564 1_555
Li0 O49 2.086931 1_456
Li1 O31 1.946849 1_545
Li1 O1 2.003976 1_555
Li1 O11 2.064564 1_555
Li1 O29 2.086931 1_545
Li2 O56 1.933472 1_455
Li2 O21 1.952784 1_555
Li2 O57 2.032903 1_455
Li2 O13 2.083815 1_555
Li3 O15 1.877584 1_555
Li3 O7 2.097778 1_555
Li3 O12 2.130551 1_555
Li3 O25 2.133158 1_555
Li4 O14 1.877584 1_554
Li4 O17 2.097778 1_555
Li4 O5 2.130551 1_555
Li4 O23 2.133158 1_555
Li5 O1 2.171570 1_555
Li5 O37 2.277506 1_455
Li5 O29 2.297009 1_545
Li5 O21 2.517401 1_545
Li6 O26 1.957360 1_555
Li6 O8 1.963071 1_555
Li6 O16 2.077252 1_555
Li6 O22 2.089637 1_556
Li7 O53 1.933472 1_545
Li7 O36 1.952784 1_555
Li7 O54 2.032903 1_546
Li7 O18 2.083815 1_555
Li8 O19 1.939453 1_555
Li8 O29 1.952038 1_555
Li8 O21 2.063250 1_555
Li8 O34 2.076757 1_555
Li9 O39 1.957360 1_555
Li9 O30 1.963071 1_555
Li9 O24 2.077252 1_555
Li9 O37 2.089637 1_555
Li10 O4 1.939192 1_565
Li10 O22 2.005475 1_555
Li10 O40 2.046923 1_555
Li10 O3 2.076763 1_564
Li11 O32 1.939453 1_555
Li11 O49 1.952038 1_555
Li11 O36 2.063250 1_554
Li11 O42 2.076757 1_555
Li12 O43 1.875238 1_555
Li12 O50 2.112814 1_555
Li12 O46 2.115547 1_555
Li12 O33 2.139097 1_555
Li13 O44 1.875238 1_556
Li13 O41 2.112814 1_555
Li13 O52 2.115547 1_555
Li13 O35 2.139097 1_555
Li14 O2 1.939192 1_655
Li14 O37 2.005475 1_555
Li14 O45 2.046923 1_555
Li14 O1 2.076763 1_655
Li15 O27 1.955786 1_565
Li15 O57 1.967114 1_555
Li15 O30 2.051339 1_565
Li15 O47 2.094185 1_555
Li16 O10 1.955786 1_655
Li16 O54 1.967114 1_555
Li16 O8 2.051339 1_654
Li16 O51 2.094185 1_555
Li17 O3 2.171570 1_554
Li17 O22 2.277506 1_545
Li17 O49 2.297009 1_455
Li17 O36 2.517401 1_454
Co0 O6 1.972221 1_555
Co0 O45 1.973951 1_455
Co0 O52 1.983873 1_455
Co0 O7 1.990794 1_555
Co0 O2 2.037719 1_555
Co0 O48 2.048449 1_455
Co1 O16 1.973044 1_555
Co1 O34 1.976860 1_555
Co1 O25 1.995138 1_555
Co1 O35 2.009287 1_555
Co1 O19 2.062604 1_555
Co1 O26 2.066176 1_555
Co2 O24 1.973051 1_555
Co2 O42 1.976853 1_555
Co2 O23 1.995139 1_555
Co2 O33 2.009280 1_555
Co2 O32 2.062610 1_555
Co2 O39 2.066176 1_555
Co3 O11 1.972221 1_555
Co3 O40 1.973951 1_545
Co3 O46 1.983873 1_545
Co3 O17 1.990794 1_555
Co3 O4 2.037719 1_555
Co3 O31 2.048449 1_545
Co4 O47 1.969400 1_555
Co4 O18 1.975337 1_565
Co4 O41 2.000234 1_555
Co4 O12 2.005124 1_565
Co4 O53 2.055070 1_555
Co4 O27 2.059259 1_565
Co5 O51 1.969400 1_555
Co5 O13 1.975337 1_655
Co5 O50 2.000234 1_555
Co5 O5 2.005124 1_655
Co5 O56 2.055070 1_555
Co5 O10 2.059259 1_655
O0 P13 1.608523 1_455
O0 P0 1.608945 1_555
O1 P13 1.531846 1_455
O2 P1 1.529794 1_555
O3 P8 1.531846 1_545
O4 P0 1.529794 1_555
O5 P0 1.539437 1_555
O6 P4 1.565528 1_555
O7 P2 1.545060 1_555
O8 P15 1.521105 1_455
O9 P15 1.612144 1_455
O9 P2 1.614303 1_555
O10 P5 1.527025 1_555
O11 P3 1.565528 1_555
O12 P1 1.539437 1_555
O13 P3 1.566580 1_555
O14 P4 1.513319 1_555
O15 P3 1.513319 1_555
O16 P4 1.567820 1_555
O17 P7 1.545060 1_555
O18 P4 1.566580 1_555
O19 P2 1.528789 1_555
O20 P5 1.608905 1_555
O20 P6 1.611951 1_555
O21 P6 1.524456 1_555
O22 P5 1.531478 1_555
O23 P5 1.542120 1_555
O24 P3 1.567820 1_555
O25 P9 1.542120 1_555
O26 P8 1.525590 1_555
O27 P9 1.527025 1_555
O28 P8 1.608523 1_545
O28 P1 1.608945 1_555
O29 P1 1.527345 1_565
O30 P14 1.521105 1_545
O31 P6 1.529743 1_555
O32 P7 1.528789 1_555
O33 P6 1.542213 1_555
O34 P11 1.567516 1_555
O35 P10 1.542213 1_555
O36 P10 1.524456 1_555
O37 P9 1.531478 1_555
O38 P9 1.608905 1_555
O38 P10 1.611951 1_555
O39 P13 1.525590 1_555
O40 P12 1.566500 1_555
O41 P8 1.538638 1_555
O42 P12 1.567516 1_555
O43 P11 1.512557 1_555
O44 P12 1.512557 1_555
O45 P11 1.566500 1_555
O46 P14 1.544615 1_555
O47 P11 1.566938 1_555
O48 P10 1.529743 1_555
O49 P0 1.527345 1_655
O50 P13 1.538638 1_555
O51 P12 1.566938 1_555
O52 P15 1.544615 1_555
O53 P15 1.527392 1_555
O54 P7 1.520530 1_565
O55 P14 1.612144 1_545
O55 P7 1.614303 1_555
O56 P14 1.527392 1_555
O57 P2 1.520530 1_655
