# generated using pymatgen
data_SrTaNO2
_symmetry_space_group_name_H-M   'P 1'
_cell_length_a   4.05545600
_cell_length_b   4.07567200
_cell_length_c   4.09785200
_cell_angle_alpha   90.00000000
_cell_angle_beta   90.00000000
_cell_angle_gamma   90.00000000
_symmetry_Int_Tables_number   1
_chemical_formula_structural   SrTaNO2
_chemical_formula_sum   'Sr1 Ta1 N1 O2'
_cell_volume   67.73220105
_cell_formula_units_Z   1
loop_
 _symmetry_equiv_pos_site_id
 _symmetry_equiv_pos_as_xyz
  1  'x, y, z'
loop_
 _atom_site_type_symbol
 _atom_site_label
 _atom_site_symmetry_multiplicity
 _atom_site_fract_x
 _atom_site_fract_y
 _atom_site_fract_z
 _atom_site_occupancy
  Sr  Sr0  1  0.00000000  0.99554200  0.00000000  1
  Ta  Ta0  1  0.50000000  0.48867900  0.50000000  1
  N  N0  1  0.50000000  0.51885700  0.00000000  1
  O  O0  1  0.00000000  0.49515700  0.50000000  1
  O  O1  1  0.50000000  0.00176400  0.50000000  1
loop_
_geom_bond_atom_site_label_1
_geom_bond_atom_site_label_2
_geom_bond_distance
_geom_bond_site_symmetry_2
N0 Ta0 2.052614 1_554
N0 Ta0 2.052614 1_555
N0 Sr0 2.808238 1_555
N0 Sr0 2.808238 1_655
N0 Sr0 2.942919 1_545
N0 Sr0 2.942919 1_645
O0 Ta0 2.027900 1_455
O0 Ta0 2.027900 1_555
O0 Sr0 2.888681 1_546
O0 Sr0 2.888681 1_545
O0 Sr0 2.890895 1_555
O0 Sr0 2.890895 1_556
O1 Ta0 1.984506 1_555
O1 Ta0 2.091166 1_545
O1 Sr0 2.882780 1_645
O1 Sr0 2.882780 1_546
O1 Sr0 2.882780 1_646
O1 Sr0 2.882780 1_545
