# generated using pymatgen
data_Ce2MgCo9
_symmetry_space_group_name_H-M   'P 1'
_cell_length_a   8.54237048
_cell_length_b   8.54237048
_cell_length_c   8.54237029
_cell_angle_alpha   33.59344652
_cell_angle_beta   33.59344652
_cell_angle_gamma   33.59344654
_symmetry_Int_Tables_number   1
_chemical_formula_structural   Ce2MgCo9
_chemical_formula_sum   'Ce2 Mg1 Co9'
_cell_volume   169.98846246
_cell_formula_units_Z   1
loop_
 _symmetry_equiv_pos_site_id
 _symmetry_equiv_pos_as_xyz
  1  'x, y, z'
loop_
 _atom_site_type_symbol
 _atom_site_label
 _atom_site_symmetry_multiplicity
 _atom_site_fract_x
 _atom_site_fract_y
 _atom_site_fract_z
 _atom_site_occupancy
  Ce  Ce0  1  0.00229300  0.00229300  0.00229300  1
  Ce  Ce1  1  0.85917000  0.85917000  0.85917000  1
  Mg  Mg0  1  0.13993100  0.13993100  0.13993100  1
  Co  Co0  1  0.66546800  0.66546800  0.66546800  1
  Co  Co1  1  0.33374800  0.33374800  0.33374800  1
  Co  Co2  1  0.41453900  0.92117900  0.41453900  1
  Co  Co3  1  0.41453900  0.41453900  0.92117900  1
  Co  Co4  1  0.92117900  0.41453900  0.41453900  1
  Co  Co5  1  0.58451300  0.08142100  0.58451300  1
  Co  Co6  1  0.58451300  0.58451300  0.08142100  1
  Co  Co7  1  0.08142100  0.58451300  0.58451300  1
  Co  Co8  1  0.49868600  0.49868600  0.49868600  1
loop_
_geom_bond_atom_site_label_1
_geom_bond_atom_site_label_2
_geom_bond_distance
_geom_bond_site_symmetry_2
Ce0 Co1 2.850796 1_554
Ce0 Co1 2.850796 1_545
Ce0 Co1 2.850796 1_455
Ce0 Co0 2.851683 1_445
Ce0 Co0 2.851683 1_544
Ce0 Co0 2.851683 1_454
Ce0 Co5 3.152918 1_455
Ce0 Co7 3.152918 1_545
Ce0 Co6 3.152918 1_545
Ce0 Co6 3.152918 1_455
Ce0 Co5 3.152918 1_554
Ce0 Co7 3.152918 1_554
Ce0 Co2 3.219408 1_544
Ce0 Co4 3.219408 1_454
Ce0 Co3 3.219408 1_544
Ce0 Co3 3.219408 1_454
Ce0 Co2 3.219408 1_445
Ce0 Co4 3.219408 1_445
Ce0 Mg0 3.325102 1_555
Ce1 Co4 2.833589 1_556
Ce1 Co2 2.833589 1_556
Ce1 Co3 2.833589 1_565
Ce1 Co3 2.833589 1_655
Ce1 Co4 2.833589 1_565
Ce1 Co2 2.833589 1_655
Ce1 Co8 2.924928 1_655
Ce1 Co8 2.924928 1_565
Ce1 Co8 2.924928 1_556
Ce1 Co5 2.990470 1_565
Ce1 Co7 2.990470 1_655
Ce1 Co6 2.990470 1_556
Ce1 Mg0 3.120581 1_665
Ce1 Mg0 3.120581 1_566
Ce1 Mg0 3.120581 1_656
Co0 Co2 2.452454 1_555
Co0 Co4 2.452454 1_555
Co0 Co3 2.452454 1_555
Co0 Co6 2.488231 1_556
Co0 Co5 2.488231 1_565
Co0 Co7 2.488231 1_655
Co0 Co1 2.850701 1_556
Co0 Co1 2.850701 1_565
Co0 Co1 2.850701 1_655
Co1 Co3 2.462247 1_554
Co1 Co4 2.462248 1_455
Co1 Co2 2.462248 1_545
Co1 Co5 2.466493 1_555
Co1 Co7 2.466493 1_555
Co1 Co6 2.466493 1_555
Co2 Co3 2.435767 1_564
Co2 Co4 2.435767 1_465
Co2 Co3 2.501331 1_555
Co2 Co4 2.501331 1_555
Co2 Co8 2.505152 1_555
Co2 Mg0 3.009880 1_565
Co3 Co4 2.435767 1_456
Co3 Co4 2.501331 1_555
Co3 Co8 2.505152 1_555
Co3 Mg0 3.009880 1_556
Co4 Co8 2.505152 1_555
Co4 Mg0 3.009880 1_655
Co5 Co8 2.443017 1_555
Co5 Co6 2.453283 1_546
Co5 Co7 2.453283 1_645
Co5 Co6 2.483814 1_555
Co5 Co7 2.483815 1_555
Co5 Mg0 2.820195 1_556
Co5 Mg0 2.820195 1_655
Co6 Co8 2.443017 1_555
Co6 Co7 2.453283 1_654
Co6 Co7 2.483814 1_555
Co6 Mg0 2.820195 1_565
Co6 Mg0 2.820195 1_655
Co7 Co8 2.443017 1_555
Co7 Mg0 2.820195 1_556
Co7 Mg0 2.820195 1_565
Co8 Mg0 2.915845 1_655
Co8 Mg0 2.915845 1_565
Co8 Mg0 2.915845 1_556
