# generated using pymatgen
data_Ba2YCr3O7
_symmetry_space_group_name_H-M   'P 1'
_cell_length_a   5.63193073
_cell_length_b   12.35671993
_cell_length_c   5.63197598
_cell_angle_alpha   102.82933625
_cell_angle_beta   91.47500989
_cell_angle_gamma   102.82929951
_symmetry_Int_Tables_number   1
_chemical_formula_structural   Ba2YCr3O7
_chemical_formula_sum   'Ba4 Y2 Cr6 O14'
_cell_volume   371.45409934
_cell_formula_units_Z   2
loop_
 _symmetry_equiv_pos_site_id
 _symmetry_equiv_pos_as_xyz
  1  'x, y, z'
loop_
 _atom_site_type_symbol
 _atom_site_label
 _atom_site_symmetry_multiplicity
 _atom_site_fract_x
 _atom_site_fract_y
 _atom_site_fract_z
 _atom_site_occupancy
  Ba  Ba0  1  0.40894700  0.81790900  0.90895800  1
  Ba  Ba1  1  0.90894500  0.81791200  0.40895400  1
  Ba  Ba2  1  0.09007300  0.18016200  0.59007900  1
  Ba  Ba3  1  0.59007100  0.18016200  0.09008100  1
  Y  Y0  1  0.25111500  0.50217900  0.75109400  1
  Y  Y1  1  0.75111100  0.50218100  0.25110900  1
  Cr  Cr0  1  0.49942500  0.99893800  0.49944500  1
  Cr  Cr1  1  0.00029200  0.00064200  0.00030400  1
  Cr  Cr2  1  0.82178700  0.64355700  0.82178800  1
  Cr  Cr3  1  0.32420100  0.64836500  0.32418900  1
  Cr  Cr4  1  0.67274800  0.34547900  0.67274200  1
  Cr  Cr5  1  0.17554000  0.35103100  0.17552700  1
  O  O0  1  0.74993300  0.00248500  0.25248800  1
  O  O1  1  0.25247200  0.00248700  0.74995200  1
  O  O2  1  0.06288800  0.62104900  0.06286700  1
  O  O3  1  0.55820700  0.62105000  0.55820000  1
  O  O4  1  0.93690100  0.37849600  0.93689200  1
  O  O5  1  0.44162900  0.37849500  0.44161400  1
  O  O6  1  0.06361600  0.62224300  0.55863000  1
  O  O7  1  0.55864400  0.62224400  0.06361300  1
  O  O8  1  0.93610200  0.37688900  0.44084000  1
  O  O9  1  0.44084400  0.37689000  0.93609000  1
  O  O10  1  0.41177600  0.82346600  0.41178300  1
  O  O11  1  0.91468100  0.82931800  0.91470000  1
  O  O12  1  0.08879400  0.17773300  0.08880100  1
  O  O13  1  0.58925600  0.17864400  0.58926400  1
loop_
_geom_bond_atom_site_label_1
_geom_bond_atom_site_label_2
_geom_bond_distance
_geom_bond_site_symmetry_2
Ba0 O10 2.816487 1_555
Ba0 O10 2.816993 1_556
Ba0 O11 2.818978 1_455
Ba0 O11 2.819293 1_555
Ba0 O0 2.921817 1_566
Ba0 O1 2.922251 1_565
Ba0 O6 3.019407 1_555
Ba0 O7 3.019563 1_556
Ba0 O2 3.063509 1_556
Ba0 O3 3.063633 1_555
Ba1 O10 2.816422 1_555
Ba1 O10 2.817012 1_655
Ba1 O11 2.818922 1_554
Ba1 O11 2.819390 1_555
Ba1 O1 2.921834 1_665
Ba1 O0 2.922187 1_565
Ba1 O7 3.019375 1_555
Ba1 O6 3.019597 1_655
Ba1 O3 3.063566 1_555
Ba1 O2 3.063703 1_655
Ba2 O13 2.815703 1_555
Ba2 O12 2.815784 1_556
Ba2 O13 2.816340 1_455
Ba2 O12 2.816479 1_555
Ba2 O1 2.862628 1_555
Ba2 O0 2.862833 1_455
Ba2 O8 3.028808 1_455
Ba2 O9 3.029011 1_555
Ba2 O4 3.076576 1_455
Ba2 O5 3.076660 1_555
Ba3 O13 2.815726 1_555
Ba3 O12 2.815767 1_655
Ba3 O13 2.816362 1_554
Ba3 O12 2.816451 1_555
Ba3 O0 2.862642 1_555
Ba3 O1 2.862813 1_554
Ba3 O9 3.028841 1_554
Ba3 O8 3.029024 1_555
Ba3 O5 3.076542 1_555
Ba3 O4 3.076663 1_554
Cr0 O1 2.006847 1_565
Cr0 O0 2.006867 1_565
Cr0 O10 2.055601 1_555
Cr0 O13 2.105201 1_565
Cr1 O11 2.007008 1_444
Cr1 O1 2.026989 1_554
Cr1 O0 2.027033 1_455
Cr1 O12 2.074567 1_555
Cr2 O3 2.001159 1_555
Cr2 O2 2.001284 1_656
Cr2 O7 2.051945 1_556
Cr2 O6 2.052023 1_655
Cr2 O11 2.176133 1_555
Cr3 O2 1.973112 1_555
Cr3 O3 1.973182 1_555
Cr3 O7 2.019884 1_555
Cr3 O6 2.019913 1_555
Cr3 O10 2.051255 1_555
Cr4 O13 1.954421 1_555
Cr4 O5 1.984843 1_555
Cr4 O4 1.984908 1_555
Cr4 O9 2.031121 1_555
Cr4 O8 2.031134 1_555
Cr5 O5 2.009831 1_555
Cr5 O4 2.009960 1_454
Cr5 O12 2.030133 1_555
Cr5 O9 2.058198 1_554
Cr5 O8 2.058236 1_455
O2 Y0 2.450794 1_554
O2 Y1 2.450841 1_455
O3 Y0 2.450753 1_555
O3 Y1 2.450771 1_555
O4 Y1 2.483302 1_556
O4 Y0 2.483302 1_655
O5 Y1 2.483241 1_555
O5 Y0 2.483253 1_555
O6 Y1 2.416748 1_455
O6 Y0 2.417043 1_555
O7 Y0 2.416829 1_554
O7 Y1 2.417033 1_555
O8 Y0 2.452928 1_655
O8 Y1 2.453141 1_555
O9 Y1 2.452992 1_556
O9 Y0 2.453119 1_555
