# generated using pymatgen
data_Sr2DyCu2(BiO4)2
_symmetry_space_group_name_H-M   'P 1'
_cell_length_a   15.64966049
_cell_length_b   15.64966049
_cell_length_c   5.35504500
_cell_angle_alpha   90.00000000
_cell_angle_beta   90.00000000
_cell_angle_gamma   159.74206417
_symmetry_Int_Tables_number   1
_chemical_formula_structural   Sr2DyCu2(BiO4)2
_chemical_formula_sum   'Sr4 Dy2 Cu4 Bi4 O16'
_cell_volume   454.10782255
_cell_formula_units_Z   2
loop_
 _symmetry_equiv_pos_site_id
 _symmetry_equiv_pos_as_xyz
  1  'x, y, z'
loop_
 _atom_site_type_symbol
 _atom_site_label
 _atom_site_symmetry_multiplicity
 _atom_site_fract_x
 _atom_site_fract_y
 _atom_site_fract_z
 _atom_site_occupancy
  Sr  Sr0  1  0.61295900  0.88971500  0.50000000  1
  Sr  Sr1  1  0.38704100  0.11028500  0.50000000  1
  Sr  Sr2  1  0.11028500  0.38704100  0.00000000  1
  Sr  Sr3  1  0.88971500  0.61295900  0.00000000  1
  Dy  Dy0  1  0.50000000  0.00000000  0.50000000  1
  Dy  Dy1  1  0.00000000  0.50000000  0.00000000  1
  Cu  Cu0  1  0.05028300  0.45023200  0.50000000  1
  Cu  Cu1  1  0.94971700  0.54976800  0.50000000  1
  Cu  Cu2  1  0.54976800  0.94971700  0.00000000  1
  Cu  Cu3  1  0.45023200  0.05028300  0.00000000  1
  Bi  Bi0  1  0.22430300  0.32066300  0.50000000  1
  Bi  Bi1  1  0.77569700  0.67933700  0.50000000  1
  Bi  Bi2  1  0.67933700  0.77569700  0.00000000  1
  Bi  Bi3  1  0.32066300  0.22430300  0.00000000  1
  O  O0  1  0.12588100  0.35836700  0.50000000  1
  O  O1  1  0.87411900  0.64163300  0.50000000  1
  O  O2  1  0.64163300  0.87411900  0.00000000  1
  O  O3  1  0.35836700  0.12588100  0.00000000  1
  O  O4  1  0.70195900  0.29804100  0.75000000  1
  O  O5  1  0.29804100  0.70195900  0.25000000  1
  O  O6  1  0.29804100  0.70195900  0.75000000  1
  O  O7  1  0.70195900  0.29804100  0.25000000  1
  O  O8  1  0.61483100  0.71594600  0.50000000  1
  O  O9  1  0.38516900  0.28405400  0.50000000  1
  O  O10  1  0.28405400  0.38516900  0.00000000  1
  O  O11  1  0.71594600  0.61483100  0.00000000  1
  O  O12  1  0.79801200  0.20198800  0.75000000  1
  O  O13  1  0.20198800  0.79801200  0.25000000  1
  O  O14  1  0.20198800  0.79801200  0.75000000  1
  O  O15  1  0.79801200  0.20198800  0.25000000  1
loop_
_geom_bond_atom_site_label_1
_geom_bond_atom_site_label_2
_geom_bond_distance
_geom_bond_site_symmetry_2
Dy0 O15 2.423706 1_555
Dy0 O12 2.423706 1_555
Dy0 O14 2.423706 1_545
Dy0 O13 2.423706 1_545
Dy0 O4 2.424252 1_555
Dy0 O6 2.424252 1_545
Dy0 O5 2.424252 1_545
Dy0 O7 2.424252 1_555
Dy1 O13 2.423706 1_555
Dy1 O14 2.423706 1_554
Dy1 O12 2.423706 1_454
Dy1 O15 2.423706 1_455
Dy1 O7 2.424252 1_455
Dy1 O4 2.424252 1_454
Dy1 O5 2.424252 1_555
Dy1 O6 2.424252 1_554
Cu0 O5 1.919843 1_555
Cu0 O6 1.919843 1_555
Cu0 O15 1.921903 1_455
Cu0 O12 1.921903 1_455
Cu0 O0 2.580282 1_555
Cu1 O7 1.919843 1_555
Cu1 O4 1.919843 1_555
Cu1 O13 1.921903 1_655
Cu1 O14 1.921903 1_655
Cu1 O1 2.580282 1_555
Cu2 O5 1.919843 1_555
Cu2 O6 1.919843 1_554
Cu2 O12 1.921903 1_564
Cu2 O15 1.921903 1_565
Cu2 O2 2.580282 1_555
Cu3 O4 1.919843 1_554
Cu3 O7 1.919843 1_555
Cu3 O14 1.921903 1_544
Cu3 O13 1.921903 1_545
Cu3 O3 2.580282 1_555
Bi0 O0 2.103771 1_555
Bi0 O8 2.163964 1_555
Bi0 O10 2.700268 1_556
Bi0 O10 2.700268 1_555
Bi1 O1 2.103771 1_555
Bi1 O9 2.163964 1_555
Bi1 O11 2.700268 1_556
Bi1 O11 2.700268 1_555
Bi2 O2 2.103771 1_555
Bi2 O10 2.163964 1_555
Bi2 O8 2.700268 1_555
Bi2 O8 2.700268 1_554
Bi3 O3 2.103771 1_555
Bi3 O11 2.163964 1_555
Bi3 O9 2.700268 1_554
Bi3 O9 2.700268 1_555
O0 Sr2 2.763252 1_556
O0 Sr2 2.763252 1_555
O0 Sr0 2.786266 1_445
O0 Sr0 2.884712 1_555
O1 Sr3 2.763252 1_555
O1 Sr3 2.763252 1_556
O1 Sr1 2.786266 1_665
O1 Sr1 2.884712 1_555
O2 Sr0 2.763252 1_555
O2 Sr0 2.763252 1_554
O2 Sr2 2.786266 1_665
O2 Sr2 2.884712 1_555
O3 Sr1 2.763252 1_555
O3 Sr1 2.763252 1_554
O3 Sr3 2.786266 1_445
O3 Sr3 2.884712 1_555
O4 Sr3 2.746644 1_556
O4 Sr1 2.746644 1_555
O5 Sr0 2.746644 1_555
O5 Sr2 2.746644 1_555
O6 Sr0 2.746644 1_555
O6 Sr2 2.746644 1_556
O7 Sr3 2.746644 1_555
O7 Sr1 2.746644 1_555
O8 Sr0 2.746929 1_555
O9 Sr1 2.746929 1_555
O10 Sr2 2.746929 1_555
O11 Sr3 2.746929 1_555
O12 Sr0 2.739898 1_545
O12 Sr2 2.739898 1_656
O13 Sr3 2.739898 1_455
O13 Sr1 2.739898 1_565
O14 Sr3 2.739898 1_456
O14 Sr1 2.739898 1_565
O15 Sr0 2.739898 1_545
O15 Sr2 2.739898 1_655
