# generated using pymatgen
data_LiRuPbO3
_symmetry_space_group_name_H-M   'P 1'
_cell_length_a   5.42085000
_cell_length_b   3.87147100
_cell_length_c   3.87494700
_cell_angle_alpha   90.00000000
_cell_angle_beta   90.00000000
_cell_angle_gamma   90.00000000
_symmetry_Int_Tables_number   1
_chemical_formula_structural   LiRuPbO3
_chemical_formula_sum   'Li1 Ru1 Pb1 O3'
_cell_volume   81.32220904
_cell_formula_units_Z   1
loop_
 _symmetry_equiv_pos_site_id
 _symmetry_equiv_pos_as_xyz
  1  'x, y, z'
loop_
 _atom_site_type_symbol
 _atom_site_label
 _atom_site_symmetry_multiplicity
 _atom_site_fract_x
 _atom_site_fract_y
 _atom_site_fract_z
 _atom_site_occupancy
  Li  Li0  1  0.50000000  0.00000000  0.00000000  1
  Ru  Ru0  1  0.49999800  0.49999800  0.49999800  1
  Pb  Pb0  1  0.00000000  0.00000000  0.00000000  1
  O  O0  1  0.49999800  0.49999800  0.00000000  1
  O  O1  1  0.49999800  0.00000000  0.49999800  1
  O  O2  1  0.00000000  0.49999800  0.49999800  1
loop_
_geom_bond_atom_site_label_1
_geom_bond_atom_site_label_2
_geom_bond_distance
_geom_bond_site_symmetry_2
Li0 O0 1.935728 1_555
Li0 O0 1.935743 1_545
Li0 O1 1.937466 1_555
Li0 O1 1.937481 1_554
Li0 Pb0 2.710425 1_555
Li0 Pb0 2.710425 1_655
O0 Ru0 1.937466 1_555
O0 Ru0 1.937481 1_554
O1 Ru0 1.935728 1_555
O1 Ru0 1.935743 1_545
O2 Ru0 2.710414 1_555
O2 Ru0 2.710436 1_455
O2 Pb0 2.738762 1_555
O2 Pb0 2.738773 1_565
O2 Pb0 2.738773 1_556
O2 Pb0 2.738784 1_566
