# generated using pymatgen
data_Mg2Cr3O8
_symmetry_space_group_name_H-M   'P 1'
_cell_length_a   5.85820804
_cell_length_b   5.85820804
_cell_length_c   9.49630900
_cell_angle_alpha   90.00000000
_cell_angle_beta   90.00000000
_cell_angle_gamma   120.00000050
_symmetry_Int_Tables_number   1
_chemical_formula_structural   Mg2Cr3O8
_chemical_formula_sum   'Mg4 Cr6 O16'
_cell_volume   282.23771596
_cell_formula_units_Z   2
loop_
 _symmetry_equiv_pos_site_id
 _symmetry_equiv_pos_as_xyz
  1  'x, y, z'
loop_
 _atom_site_type_symbol
 _atom_site_label
 _atom_site_symmetry_multiplicity
 _atom_site_fract_x
 _atom_site_fract_y
 _atom_site_fract_z
 _atom_site_occupancy
  Mg  Mg0  1  0.66666700  0.33333300  0.02024700  1
  Mg  Mg1  1  0.33333300  0.66666700  0.52024700  1
  Mg  Mg2  1  0.66666700  0.33333300  0.42248900  1
  Mg  Mg3  1  0.33333300  0.66666700  0.92248900  1
  Cr  Cr0  1  0.67280500  0.83640300  0.24379000  1
  Cr  Cr1  1  0.83640300  0.16359700  0.74379000  1
  Cr  Cr2  1  0.16359700  0.32719500  0.24379000  1
  Cr  Cr3  1  0.83640300  0.67280500  0.74379000  1
  Cr  Cr4  1  0.32719500  0.16359700  0.74379000  1
  Cr  Cr5  1  0.16359700  0.83640300  0.24379000  1
  O  O0  1  0.83654800  0.16345200  0.14875300  1
  O  O1  1  0.67309600  0.83654800  0.64875300  1
  O  O2  1  0.16345200  0.32690400  0.64875300  1
  O  O3  1  0.83654800  0.67309600  0.14875300  1
  O  O4  1  0.32690400  0.16345200  0.14875300  1
  O  O5  1  0.16345200  0.83654800  0.64875300  1
  O  O6  1  0.51913700  0.48086300  0.86303700  1
  O  O7  1  0.03827400  0.51913700  0.36303700  1
  O  O8  1  0.48086300  0.96172600  0.36303700  1
  O  O9  1  0.51913700  0.03827400  0.86303700  1
  O  O10  1  0.00000000  0.00000000  0.35252800  1
  O  O11  1  0.00000000  0.00000000  0.85252800  1
  O  O12  1  0.33333300  0.66666700  0.13150100  1
  O  O13  1  0.96172600  0.48086300  0.86303700  1
  O  O14  1  0.48086300  0.51913700  0.36303700  1
  O  O15  1  0.66666700  0.33333300  0.63150100  1
loop_
_geom_bond_atom_site_label_1
_geom_bond_atom_site_label_2
_geom_bond_distance
_geom_bond_site_symmetry_2
Mg0 O0 2.111983 1_555
Mg0 O3 2.111987 1_555
Mg0 O4 2.111987 1_555
Mg0 O9 2.114148 1_554
Mg0 O13 2.114148 1_554
Mg0 O6 2.114152 1_554
Mg1 O5 2.111983 1_555
Mg1 O1 2.111987 1_555
Mg1 O2 2.111987 1_555
Mg1 O7 2.114148 1_555
Mg1 O8 2.114148 1_555
Mg1 O14 2.114152 1_555
Mg2 O7 1.968015 1_655
Mg2 O8 1.968015 1_545
Mg2 O14 1.968019 1_555
Mg2 O15 1.984843 1_555
Mg3 O9 1.968015 1_565
Mg3 O13 1.968015 1_455
Mg3 O6 1.968019 1_555
Mg3 O12 1.984843 1_556
Cr0 O0 1.888802 1_565
Cr0 O3 1.888807 1_555
Cr0 O10 1.954944 1_665
Cr0 O8 1.977683 1_555
Cr0 O14 1.977687 1_555
Cr0 O12 2.025648 1_555
Cr1 O2 1.888802 1_655
Cr1 O1 1.888802 1_545
Cr1 O11 1.954940 1_655
Cr1 O13 1.977687 1_555
Cr1 O9 1.977687 1_555
Cr1 O15 2.025648 1_555
Cr2 O0 1.888802 1_455
Cr2 O4 1.888807 1_555
Cr2 O10 1.954944 1_555
Cr2 O7 1.977683 1_555
Cr2 O14 1.977687 1_555
Cr2 O12 2.025648 1_555
Cr3 O5 1.888802 1_655
Cr3 O1 1.888807 1_555
Cr3 O11 1.954944 1_665
Cr3 O13 1.977683 1_555
Cr3 O6 1.977687 1_555
Cr3 O15 2.025648 1_555
Cr4 O5 1.888802 1_545
Cr4 O2 1.888807 1_555
Cr4 O11 1.954944 1_555
Cr4 O9 1.977683 1_555
Cr4 O6 1.977687 1_555
Cr4 O15 2.025648 1_555
Cr5 O4 1.888802 1_565
Cr5 O3 1.888802 1_455
Cr5 O10 1.954940 1_565
Cr5 O8 1.977687 1_555
Cr5 O7 1.977687 1_555
Cr5 O12 2.025648 1_555
