# generated using pymatgen
data_BaSrDyWO6
_symmetry_space_group_name_H-M   'P 1'
_cell_length_a   5.98717032
_cell_length_b   5.95882660
_cell_length_c   8.40650656
_cell_angle_alpha   89.93118610
_cell_angle_beta   90.53956075
_cell_angle_gamma   90.31162656
_symmetry_Int_Tables_number   1
_chemical_formula_structural   BaSrDyWO6
_chemical_formula_sum   'Ba2 Sr2 Dy2 W2 O12'
_cell_volume   299.89688109
_cell_formula_units_Z   2
loop_
 _symmetry_equiv_pos_site_id
 _symmetry_equiv_pos_as_xyz
  1  'x, y, z'
loop_
 _atom_site_type_symbol
 _atom_site_label
 _atom_site_symmetry_multiplicity
 _atom_site_fract_x
 _atom_site_fract_y
 _atom_site_fract_z
 _atom_site_occupancy
  Ba  Ba0  1  0.50514357  0.52018052  0.24856489  1
  Ba  Ba1  1  0.49485643  0.47981948  0.75143511  1
  Sr  Sr0  1  0.99628251  0.02228627  0.25161614  1
  Sr  Sr1  1  0.00371749  0.97771373  0.74838386  1
  Dy  Dy0  1  -0.00000000  0.50000000  -0.00000000  1
  Dy  Dy1  1  0.50000000  0.00000000  0.50000000  1
  W  W0  1  0.50000000  0.00000000  -0.00000000  1
  W  W1  1  -0.00000000  0.50000000  0.50000000  1
  O  O0  1  0.23274555  0.20285942  0.97087983  1
  O  O1  1  0.25981651  0.71025844  0.52544139  1
  O  O2  1  0.76725445  0.79714058  0.02912017  1
  O  O3  1  0.74018349  0.28974156  0.47455861  1
  O  O4  1  0.28617460  0.73761025  0.96702374  1
  O  O5  1  0.20559520  0.22833452  0.53221541  1
  O  O6  1  0.71382540  0.26238975  0.03297626  1
  O  O7  1  0.79440480  0.77166548  0.46778459  1
  O  O8  1  0.43519914  0.00002330  0.23417785  1
  O  O9  1  0.05454744  0.49238904  0.26526138  1
  O  O10  1  0.56480086  -0.00002330  0.76582215  1
  O  O11  1  0.94545256  0.50761096  0.73473862  1
loop_
_geom_bond_atom_site_label_1
_geom_bond_atom_site_label_2
_geom_bond_distance
_geom_bond_site_symmetry_2
Ba0 O6 2.697322 1_555
Ba0 O9 2.706925 1_555
Ba0 O3 2.727548 1_555
Ba0 O8 2.894276 1_565
Ba0 O7 2.925656 1_555
Ba0 O2 2.934038 1_555
Ba0 O1 2.991098 1_555
Ba0 O4 2.991937 1_554
Ba0 O8 3.127761 1_555
Ba1 O4 2.697322 1_555
Ba1 O11 2.706925 1_555
Ba1 O1 2.727548 1_555
Ba1 O10 2.894276 1_555
Ba1 O5 2.925656 1_555
Ba1 O0 2.934038 1_555
Ba1 O3 2.991098 1_555
Ba1 O6 2.991937 1_556
Ba1 O10 3.127761 1_565
Dy0 O6 2.235807 1_455
Dy0 O4 2.235807 1_554
Dy0 O11 2.251103 1_454
Dy0 O9 2.251103 1_555
Dy0 O0 2.274004 1_554
Dy0 O2 2.274004 1_455
Dy1 O5 2.251110 1_555
Dy1 O7 2.251110 1_545
Dy1 O1 2.252201 1_545
Dy1 O3 2.252201 1_555
Dy1 O10 2.264463 1_555
Dy1 O8 2.264463 1_555
O0 W0 2.023462 1_556
O0 Sr1 2.667646 1_545
O0 Sr0 2.961761 1_456
O1 W1 2.002110 1_555
O1 Sr1 2.913994 1_555
O2 W0 2.023462 1_565
O2 Sr0 2.667646 1_565
O2 Sr1 2.961761 1_654
O3 W1 2.002110 1_655
O3 Sr0 2.913994 1_555
O4 W0 2.032980 1_566
O4 Sr1 2.871686 1_555
O5 W1 2.055097 1_555
O5 Sr1 2.647389 1_545
O5 Sr0 2.928610 1_455
O6 W0 2.032980 1_555
O6 Sr0 2.871686 1_555
O7 W1 2.055097 1_655
O7 Sr0 2.647389 1_565
O7 Sr1 2.928610 1_655
O8 W0 2.010066 1_555
O8 Sr0 2.637400 1_455
O9 W1 2.003813 1_555
O9 Sr0 2.823349 1_455
O9 Sr0 3.180476 1_465
O10 W0 2.010066 1_556
O10 Sr1 2.637400 1_645
O11 W1 2.003813 1_655
O11 Sr1 2.823349 1_655
O11 Sr1 3.180476 1_645
