# generated using pymatgen
data_Zn2MoWO6
_symmetry_space_group_name_H-M   'P 1'
_cell_length_a   5.29986400
_cell_length_b   5.33568648
_cell_length_c   5.63668033
_cell_angle_alpha   118.16097362
_cell_angle_beta   89.34500609
_cell_angle_gamma   119.37846305
_symmetry_Int_Tables_number   1
_chemical_formula_structural   Zn2MoWO6
_chemical_formula_sum   'Zn2 Mo1 W1 O6'
_cell_volume   117.32272167
_cell_formula_units_Z   1
loop_
 _symmetry_equiv_pos_site_id
 _symmetry_equiv_pos_as_xyz
  1  'x, y, z'
loop_
 _atom_site_type_symbol
 _atom_site_label
 _atom_site_symmetry_multiplicity
 _atom_site_fract_x
 _atom_site_fract_y
 _atom_site_fract_z
 _atom_site_occupancy
  Zn  Zn0  1  0.73180700  0.27306800  0.19044000  1
  Zn  Zn1  1  0.23115500  0.76618200  0.67234900  1
  Mo  Mo0  1  0.50661300  0.48499600  0.52195500  1
  W  W0  1  0.00576200  0.98569700  0.01910500  1
  O  O0  1  0.62738400  0.71794700  0.80502300  1
  O  O1  1  0.38069900  0.19786800  0.28873300  1
  O  O2  1  0.90561300  0.37271600  0.79148900  1
  O  O3  1  0.24062100  0.08094200  0.78504500  1
  O  O4  1  0.78100600  0.89059400  0.27252500  1
  O  O5  1  0.10615500  0.60333900  0.28706800  1
loop_
_geom_bond_atom_site_label_1
_geom_bond_atom_site_label_2
_geom_bond_distance
_geom_bond_site_symmetry_2
Mo0 O1 1.279275 1_555
Mo0 O0 1.367940 1_555
O0 W0 1.770807 1_656
O1 Zn0 1.839654 1_555
O1 W0 1.943682 1_545
O2 Zn1 2.363398 1_655
O3 Zn1 1.462083 1_545
O3 W0 1.876933 1_546
O4 W0 1.941413 1_655
O4 Zn0 2.421341 1_565
O5 Zn0 1.739744 1_455
O5 Zn1 1.896621 1_555
