# generated using pymatgen
data_CaTe4H4(O3F4)2
_symmetry_space_group_name_H-M   'P 1'
_cell_length_a   5.58245741
_cell_length_b   6.68592253
_cell_length_c   11.81895138
_cell_angle_alpha   81.23308176
_cell_angle_beta   74.54533031
_cell_angle_gamma   60.41830419
_symmetry_Int_Tables_number   1
_chemical_formula_structural   CaTe4H4(O3F4)2
_chemical_formula_sum   'Ca1 Te4 H4 O6 F8'
_cell_volume   369.64309913
_cell_formula_units_Z   1
loop_
 _symmetry_equiv_pos_site_id
 _symmetry_equiv_pos_as_xyz
  1  'x, y, z'
loop_
 _atom_site_type_symbol
 _atom_site_label
 _atom_site_symmetry_multiplicity
 _atom_site_fract_x
 _atom_site_fract_y
 _atom_site_fract_z
 _atom_site_occupancy
  Ca  Ca0  1  0.35861900  0.65983400  0.22560200  1
  Te  Te0  1  0.79969200  0.23992800  0.85965800  1
  Te  Te1  1  0.94850100  0.76141800  0.06157000  1
  Te  Te2  1  0.46530400  0.73376900  0.60067000  1
  Te  Te3  1  0.83279000  0.23314200  0.42504500  1
  H  H0  1  0.20246000  0.24357300  0.71285300  1
  H  H1  1  0.85069200  0.86044100  0.39023800  1
  H  H2  1  0.69280400  0.75465800  0.75080100  1
  H  H3  1  0.09718400  0.22594200  0.22041000  1
  O  O0  1  0.76238100  0.56300000  0.47341600  1
  O  O1  1  0.95516400  0.04581500  0.99469000  1
  O  O2  1  0.64454000  0.63952400  0.73458100  1
  O  O3  1  0.93217700  0.35397800  0.26587200  1
  O  O4  1  0.11698100  0.14122900  0.72401800  1
  O  O5  1  0.94990600  0.93827100  0.33706600  1
  F  F0  1  0.43321000  0.42354300  0.37933100  1
  F  F1  1  0.42837900  0.44359300  0.65461300  1
  F  F2  1  0.49685800  0.92053400  0.13968700  1
  F  F3  1  0.78959600  0.96479300  0.81205100  1
  F  F4  1  0.24563300  0.08348000  0.42125500  1
  F  F5  1  0.64564900  0.94049800  0.56795800  1
  F  F6  1  0.40905400  0.54600300  0.04273000  1
  F  F7  1  0.98842700  0.39761700  0.89635800  1
loop_
_geom_bond_atom_site_label_1
_geom_bond_atom_site_label_2
_geom_bond_distance
_geom_bond_site_symmetry_2
Ca0 F0 2.202075 1_555
Ca0 F2 2.244028 1_555
Ca0 F6 2.301194 1_555
Ca0 O5 2.314926 1_455
H0 O4 0.987234 1_555
H1 O5 0.985820 1_555
H2 O2 0.989538 1_555
H3 O3 0.983820 1_455
O0 Te2 1.908038 1_555
O0 Te3 2.180334 1_555
O1 Te1 1.959013 1_546
O1 Te0 1.994829 1_555
O2 Te2 1.954634 1_555
O3 Te3 1.980567 1_555
O4 Te0 1.948823 1_455
O5 Te3 2.094133 1_565
F0 Te3 2.125376 1_555
F1 Te2 2.039776 1_555
F2 Te1 2.179808 1_555
F3 Te0 2.034311 1_565
F4 Te3 1.999136 1_455
F5 Te2 2.019163 1_555
F6 Te1 2.206966 1_455
F7 Te0 1.972174 1_555
