# generated using pymatgen
data_SrU(SeO5)2
_symmetry_space_group_name_H-M   'P 1'
_cell_length_a   7.65373800
_cell_length_b   8.38433015
_cell_length_c   9.46963697
_cell_angle_alpha   106.81312812
_cell_angle_beta   107.32204132
_cell_angle_gamma   105.07953261
_symmetry_Int_Tables_number   1
_chemical_formula_structural   SrU(SeO5)2
_chemical_formula_sum   'Sr2 U2 Se4 O20'
_cell_volume   513.90850016
_cell_formula_units_Z   2
loop_
 _symmetry_equiv_pos_site_id
 _symmetry_equiv_pos_as_xyz
  1  'x, y, z'
loop_
 _atom_site_type_symbol
 _atom_site_label
 _atom_site_symmetry_multiplicity
 _atom_site_fract_x
 _atom_site_fract_y
 _atom_site_fract_z
 _atom_site_occupancy
  Sr  Sr0  1  0.82106800  0.75381400  0.97245800  1
  Sr  Sr1  1  0.17893200  0.24618600  0.02754200  1
  U  U0  1  0.82028300  0.32245600  0.55561800  1
  U  U1  1  0.17971700  0.67754400  0.44438200  1
  Se  Se0  1  0.74018700  0.92461400  0.63939500  1
  Se  Se1  1  0.25981300  0.07538600  0.36060500  1
  Se  Se2  1  0.31181700  0.42155800  0.71974600  1
  Se  Se3  1  0.68818300  0.57844200  0.28025400  1
  O  O0  1  0.80094600  0.51017600  0.70543600  1
  O  O1  1  0.19905400  0.48982400  0.29456400  1
  O  O2  1  0.84977300  0.13975900  0.41767400  1
  O  O3  1  0.15022700  0.86024100  0.58232600  1
  O  O4  1  0.71174800  0.12990500  0.66476600  1
  O  O5  1  0.28825200  0.87009500  0.33523400  1
  O  O6  1  0.12666400  0.32138000  0.77216200  1
  O  O7  1  0.87333600  0.67862000  0.22783800  1
  O  O8  1  0.16045400  0.50619800  0.60277200  1
  O  O9  1  0.83954600  0.49380200  0.39722800  1
  O  O10  1  0.47002400  0.60383900  0.88721900  1
  O  O11  1  0.52997600  0.39616100  0.11278100  1
  O  O12  1  0.50960800  0.78082200  0.60499700  1
  O  O13  1  0.49039200  0.21917800  0.39500300  1
  O  O14  1  0.87397800  0.96519400  0.83608200  1
  O  O15  1  0.12602200  0.03480600  0.16391800  1
  O  O16  1  0.56843200  0.98805400  0.04353400  1
  O  O17  1  0.43156800  0.01194600  0.95646600  1
  O  O18  1  0.92036500  0.44034800  0.98419400  1
  O  O19  1  0.07963500  0.55965200  0.01580600  1
loop_
_geom_bond_atom_site_label_1
_geom_bond_atom_site_label_2
_geom_bond_distance
_geom_bond_site_symmetry_2
O0 U0 1.861810 1_555
O0 Sr0 2.684515 1_555
O1 U1 1.861810 1_555
O1 Sr1 2.684515 1_555
O2 U0 1.817033 1_555
O3 U1 1.817033 1_555
O4 Se0 1.747734 1_545
O4 U0 2.267928 1_555
O5 Se1 1.747734 1_565
O5 U1 2.267928 1_555
O6 Se2 1.732276 1_555
O6 Sr1 2.615931 1_556
O6 U0 2.619568 1_455
O7 Se3 1.732276 1_555
O7 Sr0 2.615931 1_554
O7 U1 2.619568 1_655
O8 Se2 1.786355 1_555
O8 U1 2.367135 1_555
O8 U0 2.484772 1_455
O9 Se3 1.786355 1_555
O9 U0 2.367135 1_555
O9 U1 2.484772 1_655
O10 Se2 1.675848 1_555
O10 Sr0 2.411447 1_555
O11 Se3 1.675848 1_555
O11 Sr1 2.411447 1_555
O12 Se0 1.731333 1_555
O12 U1 2.291709 1_555
O13 Se1 1.731333 1_555
O13 U0 2.291709 1_555
O14 Se0 1.717505 1_555
O14 Sr0 2.496961 1_555
O14 Sr1 2.536374 1_666
O15 Se1 1.717505 1_555
O15 Sr1 2.496961 1_555
O15 Sr0 2.536374 1_444
O16 O17 1.227865 1_564
O16 Sr0 3.167830 1_554
O17 Sr1 3.167830 1_556
O18 O19 1.245466 1_656
O18 Sr1 2.883435 1_656
O18 Sr0 2.941999 1_555
O19 Sr0 2.883435 1_454
O19 Sr1 2.941999 1_555
