# generated using pymatgen
data_Li4MnGe2S7
_symmetry_space_group_name_H-M   'P 1'
_cell_length_a   9.17476734
_cell_length_b   9.17476734
_cell_length_c   10.20299653
_cell_angle_alpha   85.78580185
_cell_angle_beta   85.78580185
_cell_angle_gamma   43.15267709
_symmetry_Int_Tables_number   1
_chemical_formula_structural   Li4MnGe2S7
_chemical_formula_sum   'Li8 Mn2 Ge4 S14'
_cell_volume   585.56978790
_cell_formula_units_Z   2
loop_
 _symmetry_equiv_pos_site_id
 _symmetry_equiv_pos_as_xyz
  1  'x, y, z'
loop_
 _atom_site_type_symbol
 _atom_site_label
 _atom_site_symmetry_multiplicity
 _atom_site_fract_x
 _atom_site_fract_y
 _atom_site_fract_z
 _atom_site_occupancy
  Li  Li0  1  0.56209700  0.27748000  0.29443600  1
  Li  Li1  1  0.27748000  0.56209700  0.79443600  1
  Li  Li2  1  0.02527000  0.67707300  0.13704300  1
  Li  Li3  1  0.67707300  0.02527000  0.63704300  1
  Li  Li4  1  0.97757500  0.30777200  0.22078700  1
  Li  Li5  1  0.30777200  0.97757500  0.72078700  1
  Li  Li6  1  0.89524900  0.52804500  0.85637600  1
  Li  Li7  1  0.52804500  0.89524900  0.35637600  1
  Mn  Mn0  1  0.81791500  0.16875000  0.94310800  1
  Mn  Mn1  1  0.16875000  0.81791500  0.44310800  1
  Ge  Ge0  1  0.45294200  0.11319000  0.01795100  1
  Ge  Ge1  1  0.11319000  0.45294200  0.51795100  1
  Ge  Ge2  1  0.39483200  0.74285300  0.08102500  1
  Ge  Ge3  1  0.74285300  0.39483200  0.58102500  1
  S  S0  1  0.50995200  0.84494500  0.93088500  1
  S  S1  1  0.84494500  0.50995200  0.43088500  1
  S  S2  1  0.67621200  0.39557600  0.12784900  1
  S  S3  1  0.39557600  0.67621200  0.62784900  1
  S  S4  1  0.27047000  0.92303800  0.26567400  1
  S  S5  1  0.92303800  0.27047000  0.76567400  1
  S  S6  1  0.14550500  0.79819700  0.98570200  1
  S  S7  1  0.79819700  0.14550500  0.48570200  1
  S  S8  1  0.65129500  0.98565700  0.18958100  1
  S  S9  1  0.98565700  0.65129500  0.68958100  1
  S  S10  1  0.10610800  0.38823300  0.04886200  1
  S  S11  1  0.38823300  0.10610800  0.54886200  1
  S  S12  1  0.57578200  0.18170500  0.85374100  1
  S  S13  1  0.18170500  0.57578200  0.35374100  1
loop_
_geom_bond_atom_site_label_1
_geom_bond_atom_site_label_2
_geom_bond_distance
_geom_bond_site_symmetry_2
Li0 S13 2.456255 1_555
Li0 S8 2.465383 1_545
Li0 S2 2.506401 1_555
Li0 S7 2.532536 1_555
Li1 S12 2.456255 1_555
Li1 S9 2.465383 1_455
Li1 S3 2.506401 1_555
Li1 S6 2.532536 1_555
Li2 S10 2.401433 1_555
Li2 S8 2.419655 1_455
Li2 S13 2.455658 1_555
Li2 S6 2.474328 1_554
Li3 S11 2.401433 1_555
Li3 S9 2.419655 1_545
Li3 S12 2.455658 1_555
Li3 S7 2.474328 1_555
Li4 S10 2.405929 1_655
Li4 S4 2.448275 1_645
Li4 S2 2.493224 1_555
Li4 S1 2.534631 1_555
Li5 S11 2.405929 1_565
Li5 S5 2.448275 1_465
Li5 S3 2.493224 1_555
Li5 S0 2.534631 1_555
Li6 S9 2.396063 1_555
Li6 S10 2.410901 1_656
Li6 S5 2.431817 1_555
Li6 S0 2.541909 1_555
Li7 S8 2.396063 1_555
Li7 S11 2.410901 1_565
Li7 S4 2.431817 1_555
Li7 S1 2.541909 1_555
Mn0 S12 2.382680 1_555
Mn0 S2 2.417172 1_556
Mn0 S6 2.417928 1_645
Mn0 S5 2.426309 1_555
Mn1 S13 2.382680 1_555
Mn1 S3 2.417172 1_555
Mn1 S7 2.417928 1_465
Mn1 S4 2.426309 1_555
Ge0 S8 2.192658 1_545
Ge0 S10 2.201462 1_555
Ge0 S12 2.252511 1_554
Ge0 S0 2.344027 1_544
Ge1 S9 2.192658 1_455
Ge1 S11 2.201462 1_555
Ge1 S13 2.252511 1_555
Ge1 S1 2.344027 1_455
Ge2 S4 2.230203 1_555
Ge2 S6 2.235201 1_554
Ge2 S2 2.236231 1_555
Ge2 S0 2.309622 1_554
Ge3 S5 2.230203 1_555
Ge3 S7 2.235201 1_555
Ge3 S3 2.236231 1_555
Ge3 S1 2.309622 1_555
