# generated using pymatgen
data_Li4Mn3CoO8
_symmetry_space_group_name_H-M   'P 1'
_cell_length_a   3.08611000
_cell_length_b   5.12376667
_cell_length_c   10.01734028
_cell_angle_alpha   76.97288871
_cell_angle_beta   84.58302281
_cell_angle_gamma   87.37348553
_symmetry_Int_Tables_number   1
_chemical_formula_structural   Li4Mn3CoO8
_chemical_formula_sum   'Li4 Mn3 Co1 O8'
_cell_volume   153.58422387
_cell_formula_units_Z   1
loop_
 _symmetry_equiv_pos_site_id
 _symmetry_equiv_pos_as_xyz
  1  'x, y, z'
loop_
 _atom_site_type_symbol
 _atom_site_label
 _atom_site_symmetry_multiplicity
 _atom_site_fract_x
 _atom_site_fract_y
 _atom_site_fract_z
 _atom_site_occupancy
  Li  Li0  1  0.00743900  0.25184300  0.25113100  1
  Li  Li1  1  0.50000000  0.00000000  0.50000000  1
  Li  Li2  1  0.99256100  0.74815700  0.74886900  1
  Li  Li3  1  0.50000000  0.50000000  0.00000000  1
  Mn  Mn0  1  0.48491600  0.74976100  0.24712700  1
  Mn  Mn1  1  0.00000000  0.50000000  0.50000000  1
  Mn  Mn2  1  0.51508400  0.25023900  0.75287300  1
  Co  Co0  1  0.00000000  0.00000000  0.00000000  1
  O  O0  1  0.46736300  0.10045000  0.12102700  1
  O  O1  1  0.02405700  0.85513000  0.37558700  1
  O  O2  1  0.53389400  0.60522400  0.62783300  1
  O  O3  1  0.04211300  0.35610800  0.87849600  1
  O  O4  1  0.46610600  0.39477600  0.37216700  1
  O  O5  1  0.97594300  0.14487000  0.62441300  1
  O  O6  1  0.53263700  0.89955000  0.87897300  1
  O  O7  1  0.95788700  0.64389200  0.12150400  1
loop_
_geom_bond_atom_site_label_1
_geom_bond_atom_site_label_2
_geom_bond_distance
_geom_bond_site_symmetry_2
Li0 O0 2.078585 1_555
Li0 O1 2.132773 1_545
Li0 O7 2.139645 1_455
Li0 O4 2.168661 1_455
Li0 O4 2.197587 1_555
Li0 O0 2.462254 1_455
Li1 O2 2.140184 1_545
Li1 O4 2.140184 1_555
Li1 O5 2.155535 1_455
Li1 O1 2.155535 1_645
Li1 O5 2.263675 1_555
Li1 O1 2.263675 1_545
Li2 O6 2.078585 1_555
Li2 O5 2.132773 1_565
Li2 O3 2.139645 1_655
Li2 O2 2.168661 1_655
Li2 O2 2.197587 1_555
Li2 O6 2.462254 1_655
Li3 O6 2.132587 1_554
Li3 O0 2.132587 1_555
Li3 O7 2.175097 1_455
Li3 O3 2.175097 1_654
Li3 O3 2.201501 1_554
Li3 O7 2.201501 1_555
Mn0 O0 1.951404 1_565
Mn0 O4 1.961991 1_555
Mn0 O1 1.966598 1_555
Mn0 O7 1.974022 1_555
Mn0 O7 2.301801 1_455
Mn0 O1 2.348527 1_655
Mn1 O1 1.960167 1_555
Mn1 O5 1.960167 1_455
Mn1 O2 1.972819 1_455
Mn1 O4 1.972819 1_555
Mn1 O2 2.331581 1_555
Mn1 O4 2.331581 1_455
Mn2 O6 1.951404 1_545
Mn2 O2 1.961991 1_555
Mn2 O5 1.966598 1_555
Mn2 O3 1.974022 1_555
Mn2 O3 2.301801 1_655
Mn2 O5 2.348527 1_455
Co0 O3 1.954027 1_554
Co0 O7 1.954027 1_445
Co0 O6 2.065004 1_544
Co0 O0 2.065004 1_455
Co0 O6 2.120038 1_444
Co0 O0 2.120038 1_555
