# generated using pymatgen
data_Mg5Si6
_symmetry_space_group_name_H-M   'P 1'
_cell_length_a   5.17529600
_cell_length_b   5.81089154
_cell_length_c   13.75177951
_cell_angle_alpha   100.82351499
_cell_angle_beta   92.14470642
_cell_angle_gamma   100.02166980
_symmetry_Int_Tables_number   1
_chemical_formula_structural   Mg5Si6
_chemical_formula_sum   'Mg10 Si12'
_cell_volume   398.95151927
_cell_formula_units_Z   2
loop_
 _symmetry_equiv_pos_site_id
 _symmetry_equiv_pos_as_xyz
  1  'x, y, z'
loop_
 _atom_site_type_symbol
 _atom_site_label
 _atom_site_symmetry_multiplicity
 _atom_site_fract_x
 _atom_site_fract_y
 _atom_site_fract_z
 _atom_site_occupancy
  Mg  Mg0  1  0.29485400  0.92267900  0.16531100  1
  Mg  Mg1  1  0.40438300  0.57803300  0.50651000  1
  Mg  Mg2  1  0.75816600  0.96520000  0.63459700  1
  Mg  Mg3  1  0.07745400  0.20777900  0.35422700  1
  Mg  Mg4  1  0.81192000  0.01494200  0.05735400  1
  Mg  Mg5  1  0.87290800  0.89174900  0.83350900  1
  Mg  Mg6  1  0.88349000  0.42629000  0.57960000  1
  Mg  Mg7  1  0.92951400  0.72670500  0.41181400  1
  Mg  Mg8  1  0.46694300  0.42377400  0.09200400  1
  Mg  Mg9  1  0.97312400  0.50256300  0.97078600  1
  Si  Si0  1  0.48619500  0.62161400  0.91809000  1
  Si  Si1  1  0.30262500  0.98147300  0.96956100  1
  Si  Si2  1  0.53905900  0.03769300  0.42657800  1
  Si  Si3  1  0.28153600  0.12774300  0.56668300  1
  Si  Si4  1  0.40997300  0.15736300  0.82424000  1
  Si  Si5  1  0.98822700  0.46388200  0.18536600  1
  Si  Si6  1  0.60938500  0.29325800  0.29305400  1
  Si  Si7  1  0.23412600  0.83168300  0.68203000  1
  Si  Si8  1  0.47764200  0.50264900  0.71963300  1
  Si  Si9  1  0.39495800  0.63778500  0.30855200  1
  Si  Si10  1  0.78737900  0.81963100  0.22259400  1
  Si  Si11  1  0.01954100  0.36178200  0.77439700  1
loop_
_geom_bond_atom_site_label_1
_geom_bond_atom_site_label_2
_geom_bond_distance
_geom_bond_site_symmetry_2
Mg0 Si6 2.741907 1_565
Mg0 Si10 2.767921 1_455
Mg0 Si1 2.777309 1_554
Mg0 Si10 2.834502 1_555
Mg0 Si9 2.887226 1_555
Mg0 Si5 2.922051 1_455
Mg1 Si9 2.807964 1_555
Mg1 Si7 2.837239 1_555
Mg1 Si3 2.865141 1_555
Mg1 Si2 3.056232 1_565
Mg1 Si8 3.063029 1_555
Mg2 Si7 2.798196 1_655
Mg2 Si11 2.809444 1_665
Mg2 Si7 2.823623 1_555
Mg2 Si3 2.954840 1_665
Mg2 Si3 2.969634 1_565
Mg2 Si2 3.165838 1_565
Mg3 Si6 2.691762 1_455
Mg3 Si10 2.775323 1_445
Mg3 Si6 2.896069 1_555
Mg3 Si9 2.928454 1_555
Mg3 Si2 2.947372 1_555
Mg3 Si5 3.045828 1_455
Mg3 Si2 3.057595 1_455
Mg4 Si10 2.721719 1_545
Mg4 Si1 2.817417 1_544
Mg4 Si5 2.839652 1_555
Mg4 Si1 2.873656 1_644
Mg4 Si0 2.916634 1_544
Mg5 Si0 2.754796 1_555
Mg5 Si1 2.763470 1_655
Mg5 Si7 2.863799 1_655
Mg5 Si8 2.927420 1_555
Mg5 Si4 2.954872 1_665
Mg5 Si11 2.975800 1_665
Mg5 Si4 3.078395 1_565
Mg5 Si11 3.261879 1_655
Mg6 Si7 2.810880 1_655
Mg6 Si11 2.853084 1_655
Mg6 Si3 2.905212 1_655
Mg6 Si8 2.936497 1_555
Mg6 Si2 3.039460 1_555
Mg7 Si10 2.850676 1_555
Mg7 Si9 2.915389 1_655
Mg7 Si2 2.924731 1_565
Mg7 Si6 2.925106 1_555
Mg7 Si9 2.978223 1_555
Mg7 Si3 3.107000 1_665
Mg8 Si1 2.769642 1_544
Mg8 Si0 2.839373 1_554
Mg8 Si10 2.857352 1_555
Mg8 Si5 2.857858 1_455
Mg8 Si5 2.896612 1_555
Mg8 Si9 3.067043 1_555
Mg8 Si6 3.097139 1_555
Mg9 Si11 2.703313 1_655
Mg9 Si0 2.783394 1_655
Mg9 Si0 2.830630 1_555
Mg9 Si5 3.000357 1_556
Mg9 Si1 3.003467 1_655
Si0 Si1 2.441748 1_555
Si0 Si8 2.683241 1_555
Si0 Si4 2.717136 1_555
Si1 Si4 2.449401 1_565
Si2 Si3 2.412151 1_555
Si2 Si9 2.545655 1_545
Si2 Si6 2.568171 1_555
Si3 Si7 2.538327 1_545
Si3 Si8 2.747699 1_555
Si4 Si7 2.472172 1_545
Si4 Si8 2.663624 1_555
Si5 Si9 2.582941 1_655
Si5 Si6 2.666894 1_555
Si6 Si9 2.432208 1_555
Si7 Si8 2.583125 1_555
Si10 Si5 2.450746 1_555
Si10 Si9 2.557405 1_555
Si11 Si8 2.558842 1_555
Si11 Si4 2.645966 1_555
