# generated using pymatgen
data_Pr3Ag
_symmetry_space_group_name_H-M   'P 1'
_cell_length_a   7.26096599
_cell_length_b   7.26096599
_cell_length_c   5.38850200
_cell_angle_alpha   90.00000000
_cell_angle_beta   90.00000000
_cell_angle_gamma   119.99999991
_symmetry_Int_Tables_number   1
_chemical_formula_structural   Pr3Ag
_chemical_formula_sum   'Pr6 Ag2'
_cell_volume   246.02967082
_cell_formula_units_Z   2
loop_
 _symmetry_equiv_pos_site_id
 _symmetry_equiv_pos_as_xyz
  1  'x, y, z'
loop_
 _atom_site_type_symbol
 _atom_site_label
 _atom_site_symmetry_multiplicity
 _atom_site_fract_x
 _atom_site_fract_y
 _atom_site_fract_z
 _atom_site_occupancy
  Pr  Pr0  1  0.17558500  0.35117100  0.25000000  1
  Pr  Pr1  1  0.64882900  0.82441500  0.25000000  1
  Pr  Pr2  1  0.17558500  0.82441500  0.25000000  1
  Pr  Pr3  1  0.82441500  0.64882900  0.75000000  1
  Pr  Pr4  1  0.35117100  0.17558500  0.75000000  1
  Pr  Pr5  1  0.82441500  0.17558500  0.75000000  1
  Ag  Ag0  1  0.33333300  0.66666700  0.75000000  1
  Ag  Ag1  1  0.66666700  0.33333300  0.25000000  1
loop_
_geom_bond_atom_site_label_1
_geom_bond_atom_site_label_2
_geom_bond_distance
_geom_bond_site_symmetry_2
Pr0 Pr2 3.436209 1_555
Pr0 Pr1 3.436209 1_555
Pr0 Pr5 3.483565 1_455
Pr0 Pr5 3.483565 1_454
Pr0 Pr4 3.483573 1_555
Pr0 Pr4 3.483573 1_554
Pr0 Pr2 3.824757 1_545
Pr0 Pr1 3.824757 1_445
Pr1 Pr2 3.436209 1_555
Pr1 Pr5 3.483565 1_564
Pr1 Pr5 3.483565 1_565
Pr1 Pr3 3.483573 1_555
Pr1 Pr3 3.483573 1_554
Pr1 Pr2 3.824757 1_655
Pr2 Pr4 3.483565 1_565
Pr2 Pr4 3.483565 1_564
Pr2 Pr3 3.483565 1_454
Pr2 Pr3 3.483565 1_455
Pr3 Pr5 3.436209 1_555
Pr3 Pr4 3.436209 1_555
Pr3 Pr5 3.824757 1_565
Pr3 Pr4 3.824757 1_665
Pr4 Pr5 3.436209 1_555
Pr4 Pr5 3.824757 1_455
Ag0 Pr2 3.345868 1_556
Ag0 Pr2 3.345868 1_555
Ag0 Pr0 3.345868 1_556
Ag0 Pr1 3.345868 1_556
Ag0 Pr1 3.345868 1_555
Ag0 Pr0 3.345868 1_555
Ag0 Pr4 3.632208 1_565
Ag0 Pr3 3.632208 1_455
Ag0 Pr5 3.632215 1_565
Ag0 Pr5 3.632215 1_455
Ag0 Pr4 3.632223 1_555
Ag0 Pr3 3.632223 1_555
Ag1 Pr5 3.345868 1_555
Ag1 Pr5 3.345868 1_554
Ag1 Pr4 3.345868 1_555
Ag1 Pr3 3.345868 1_554
Ag1 Pr3 3.345868 1_555
Ag1 Pr4 3.345868 1_554
Ag1 Pr0 3.632208 1_655
Ag1 Pr1 3.632208 1_545
Ag1 Pr2 3.632215 1_655
Ag1 Pr2 3.632215 1_545
Ag1 Pr1 3.632223 1_555
Ag1 Pr0 3.632223 1_555
