# generated using pymatgen
data_Y2Ga2Co15
_symmetry_space_group_name_H-M   'P 1'
_cell_length_a   8.19534900
_cell_length_b   8.36790253
_cell_length_c   8.36790253
_cell_angle_alpha   120.11123100
_cell_angle_beta   90.00000000
_cell_angle_gamma   90.00000000
_symmetry_Int_Tables_number   1
_chemical_formula_structural   Y2Ga2Co15
_chemical_formula_sum   'Y4 Ga4 Co30'
_cell_volume   496.41334071
_cell_formula_units_Z   2
loop_
 _symmetry_equiv_pos_site_id
 _symmetry_equiv_pos_as_xyz
  1  'x, y, z'
loop_
 _atom_site_type_symbol
 _atom_site_label
 _atom_site_symmetry_multiplicity
 _atom_site_fract_x
 _atom_site_fract_y
 _atom_site_fract_z
 _atom_site_occupancy
  Y  Y0  1  0.75000000  0.00012400  0.99987600  1
  Y  Y1  1  0.25000000  0.99987600  0.00012400  1
  Y  Y2  1  0.25000000  0.66711300  0.33288700  1
  Y  Y3  1  0.75000000  0.33288700  0.66711300  1
  Ga  Ga0  1  0.59562100  0.66693600  0.33306400  1
  Ga  Ga1  1  0.40437900  0.33306400  0.66693600  1
  Ga  Ga2  1  0.09562100  0.33306400  0.66693600  1
  Ga  Ga3  1  0.90437900  0.66693600  0.33306400  1
  Co  Co0  1  0.50000000  0.50000000  0.00000000  1
  Co  Co1  1  0.50000000  0.50000000  0.50000000  1
  Co  Co2  1  0.50000000  0.00000000  0.50000000  1
  Co  Co3  1  0.00000000  0.50000000  0.00000000  1
  Co  Co4  1  0.00000000  0.50000000  0.50000000  1
  Co  Co5  1  0.00000000  0.00000000  0.50000000  1
  Co  Co6  1  0.75000000  0.67257400  0.04694400  1
  Co  Co7  1  0.75000000  0.37421600  0.32737800  1
  Co  Co8  1  0.75000000  0.95331000  0.62572800  1
  Co  Co9  1  0.75000000  0.37427200  0.04669000  1
  Co  Co10  1  0.75000000  0.95305600  0.32742600  1
  Co  Co11  1  0.75000000  0.67262200  0.62578400  1
  Co  Co12  1  0.25000000  0.32742600  0.95305600  1
  Co  Co13  1  0.25000000  0.62578400  0.67262200  1
  Co  Co14  1  0.25000000  0.04669000  0.37427200  1
  Co  Co15  1  0.25000000  0.62572800  0.95331000  1
  Co  Co16  1  0.25000000  0.04694400  0.67257400  1
  Co  Co17  1  0.25000000  0.32737800  0.37421600  1
  Co  Co18  1  0.47466600  0.83778700  0.67490100  1
  Co  Co19  1  0.47429600  0.83735800  0.16264200  1
  Co  Co20  1  0.47466600  0.32509900  0.16221300  1
  Co  Co21  1  0.52533400  0.16221300  0.32509900  1
  Co  Co22  1  0.52570400  0.16264200  0.83735800  1
  Co  Co23  1  0.52533400  0.67490100  0.83778700  1
  Co  Co24  1  0.97466600  0.16221300  0.32509900  1
  Co  Co25  1  0.97429600  0.16264200  0.83735800  1
  Co  Co26  1  0.97466600  0.67490100  0.83778700  1
  Co  Co27  1  0.02533400  0.83778700  0.67490100  1
  Co  Co28  1  0.02570400  0.83735800  0.16264200  1
  Co  Co29  1  0.02533400  0.32509900  0.16221300  1
loop_
_geom_bond_atom_site_label_1
_geom_bond_atom_site_label_2
_geom_bond_distance
_geom_bond_site_symmetry_2
Ga0 Ga3 2.530380 1_555
Ga0 Y2 2.832486 1_555
Ga1 Ga2 2.530380 1_555
Ga1 Y3 2.832486 1_555
Ga2 Y3 2.832486 1_455
Ga3 Y2 2.832486 1_655
Co0 Co6 2.422446 1_555
Co0 Co12 2.422446 1_554
Co0 Co15 2.422741 1_554
Co0 Co9 2.422741 1_555
Co0 Co22 2.451718 1_554
Co0 Co19 2.451718 1_555
Co0 Co20 2.453745 1_555
Co0 Co23 2.453745 1_554
Co0 Ga0 2.535104 1_555
Co0 Ga1 2.535104 1_554
Co0 Y2 3.162943 1_555
Co0 Y3 3.162943 1_554
Co1 Co13 2.422112 1_555
Co1 Co7 2.422112 1_555
Co1 Co11 2.422112 1_555
Co1 Co17 2.422112 1_555
Co1 Co23 2.454353 1_555
Co1 Co20 2.454353 1_555
Co1 Co21 2.454353 1_555
Co1 Co18 2.454353 1_555
Co1 Ga1 2.544540 1_555
Co1 Ga0 2.544540 1_555
Co1 Y2 3.173445 1_555
Co1 Y3 3.173445 1_555
Co2 Co8 2.422741 1_545
Co2 Co22 2.451718 1_555
Co2 Co21 2.453745 1_555
Co2 Ga0 2.535104 1_545
Co2 Ga1 2.535104 1_555
Co2 Y3 3.162943 1_555
Co2 Y2 3.162943 1_545
Co3 Co6 2.422446 1_455
Co3 Co9 2.422741 1_455
Co3 Ga3 2.535104 1_455
Co3 Ga2 2.535104 1_554
Co3 Y2 3.162943 1_555
Co3 Y3 3.162943 1_454
Co4 Co7 2.422112 1_455
Co4 Ga2 2.544540 1_555
Co4 Ga3 2.544540 1_455
Co4 Y3 3.173445 1_455
Co4 Y2 3.173445 1_555
Co5 Co8 2.422741 1_445
Co5 Ga3 2.535104 1_445
Co5 Ga2 2.535104 1_555
Co5 Y3 3.162943 1_455
Co5 Y2 3.162943 1_545
Co6 Co9 2.495096 1_555
Co6 Ga3 2.729208 1_555
Co6 Ga0 2.729208 1_555
Co6 Y0 2.958185 1_564
Co6 Y3 3.019429 1_554
Co7 Co9 2.349005 1_555
Co7 Ga0 2.736028 1_555
Co7 Ga3 2.736028 1_555
Co7 Y0 2.949906 1_554
Co7 Y3 3.031169 1_555
Co8 Ga3 2.729904 1_555
Co8 Ga0 2.729904 1_555
Co8 Y0 2.953811 1_565
Co8 Y3 3.017436 1_565
Co9 Ga0 2.729904 1_555
Co9 Ga3 2.729904 1_555
Co9 Y0 2.953811 1_554
Co9 Y3 3.017436 1_554
Co10 Co6 2.343099 1_555
Co10 Co2 2.422446 1_565
Co10 Co5 2.422446 1_665
Co10 Co8 2.495096 1_555
Co10 Co21 2.547130 1_565
Co10 Co24 2.547130 1_565
Co10 Co28 2.569923 1_655
Co10 Co19 2.569923 1_555
Co10 Ga3 2.729208 1_555
Co10 Ga0 2.729208 1_555
Co10 Y0 2.958185 1_564
Co10 Y3 3.019429 1_565
Co11 Co8 2.349005 1_555
Co11 Co4 2.422112 1_655
Co11 Co7 2.492833 1_555
Co11 Co23 2.550224 1_555
Co11 Co26 2.550224 1_555
Co11 Co18 2.569189 1_555
Co11 Co27 2.569189 1_655
Co11 Ga0 2.736028 1_555
Co11 Ga3 2.736028 1_555
Co11 Y0 2.949906 1_565
Co11 Y3 3.031169 1_555
Co12 Co16 2.343099 1_555
Co12 Co3 2.422446 1_556
Co12 Co15 2.495096 1_555
Co12 Co29 2.547130 1_556
Co12 Co20 2.547130 1_556
Co12 Co25 2.569923 1_455
Co12 Co22 2.569923 1_555
Co12 Ga2 2.729208 1_555
Co12 Ga1 2.729208 1_555
Co12 Y1 2.958185 1_546
Co12 Y2 3.019429 1_556
Co13 Co15 2.349005 1_555
Co13 Co4 2.422112 1_555
Co13 Co17 2.492833 1_555
Co13 Co27 2.550224 1_555
Co13 Co18 2.550224 1_555
Co13 Co26 2.569189 1_455
Co13 Co23 2.569189 1_555
Co13 Ga2 2.736028 1_555
Co13 Ga1 2.736028 1_555
Co13 Y1 2.949906 1_556
Co13 Y2 3.031169 1_555
Co14 Co17 2.349005 1_555
Co14 Co2 2.422741 1_555
Co14 Co5 2.422741 1_555
Co14 Co16 2.495096 1_555
Co14 Co19 2.543796 1_545
Co14 Co28 2.543796 1_545
Co14 Co24 2.567976 1_455
Co14 Co21 2.567976 1_555
Co14 Ga2 2.729904 1_555
Co14 Ga1 2.729904 1_555
Co14 Y1 2.953811 1_545
Co14 Y2 3.017436 1_545
Co15 Co3 2.422741 1_556
Co15 Co28 2.543796 1_556
Co15 Co19 2.543796 1_556
Co15 Co26 2.567976 1_455
Co15 Co23 2.567976 1_555
Co15 Ga2 2.729904 1_555
Co15 Ga1 2.729904 1_555
Co15 Y1 2.953811 1_556
Co15 Y2 3.017436 1_556
Co16 Co5 2.422446 1_555
Co16 Co2 2.422446 1_555
Co16 Co27 2.547130 1_545
Co16 Co18 2.547130 1_545
Co16 Co25 2.569923 1_455
Co16 Co22 2.569923 1_555
Co16 Ga1 2.729208 1_555
Co16 Ga2 2.729208 1_555
Co16 Y1 2.958185 1_546
Co16 Y2 3.019429 1_545
Co17 Co4 2.422112 1_555
Co17 Co29 2.550224 1_555
Co17 Co20 2.550224 1_555
Co17 Co24 2.569189 1_455
Co17 Co21 2.569189 1_555
Co17 Ga2 2.736028 1_555
Co17 Ga1 2.736028 1_555
Co17 Y1 2.949906 1_545
Co17 Y2 3.031169 1_555
Co18 Co22 2.388436 1_565
Co18 Co23 2.398352 1_555
Co18 Co2 2.453745 1_565
Co18 Co8 2.567976 1_555
Co18 Ga0 2.665622 1_555
Co18 Y1 2.988703 1_556
Co18 Y2 3.085348 1_555
Co18 Y0 3.259659 1_565
Co19 Co21 2.388436 1_565
Co19 Co23 2.388436 1_554
Co19 Co2 2.451718 1_565
Co19 Co6 2.569923 1_555
Co19 Ga0 2.663932 1_555
Co19 Y1 2.988880 1_555
Co19 Y2 3.078009 1_555
Co19 Y0 3.267529 1_564
Co20 Co22 2.388436 1_554
Co20 Co21 2.398352 1_555
Co20 Co9 2.567976 1_555
Co20 Co7 2.569189 1_555
Co20 Ga0 2.665622 1_555
Co20 Y1 2.988703 1_545
Co20 Y2 3.085348 1_555
Co20 Y0 3.259659 1_554
Co21 Co7 2.550224 1_555
Co21 Ga1 2.665622 1_555
Co21 Y0 2.988703 1_554
Co21 Y3 3.085348 1_555
Co21 Y1 3.259659 1_545
Co22 Co9 2.543796 1_556
Co22 Co8 2.543796 1_545
Co22 Ga1 2.663932 1_555
Co22 Y0 2.988880 1_555
Co22 Y3 3.078009 1_555
Co22 Y1 3.267529 1_546
Co23 Co6 2.547130 1_556
Co23 Ga1 2.665622 1_555
Co23 Y0 2.988703 1_565
Co23 Y3 3.085348 1_555
Co23 Y1 3.259659 1_556
Co24 Co28 2.388436 1_645
Co24 Co29 2.398352 1_655
Co24 Co5 2.453745 1_655
Co24 Co4 2.454353 1_655
Co24 Co7 2.550224 1_555
Co24 Ga2 2.665622 1_655
Co24 Y0 2.988703 1_554
Co24 Y3 3.085348 1_555
Co24 Y1 3.259659 1_645
Co25 Co29 2.388436 1_656
Co25 Co27 2.388436 1_645
Co25 Co3 2.451718 1_656
Co25 Co5 2.451718 1_655
Co25 Co9 2.543796 1_556
Co25 Co8 2.543796 1_545
Co25 Ga2 2.663932 1_655
Co25 Y0 2.988880 1_555
Co25 Y3 3.078009 1_555
Co25 Y1 3.267529 1_646
Co26 Co28 2.388436 1_656
Co26 Co27 2.398352 1_655
Co26 Co3 2.453745 1_656
Co26 Co4 2.454353 1_655
Co26 Co6 2.547130 1_556
Co26 Ga2 2.665622 1_655
Co26 Y0 2.988703 1_565
Co26 Y3 3.085348 1_555
Co26 Y1 3.259659 1_656
Co27 Co5 2.453745 1_565
Co27 Co4 2.454353 1_555
Co27 Co8 2.567976 1_455
Co27 Ga3 2.665622 1_455
Co27 Y1 2.988703 1_556
Co27 Y2 3.085348 1_555
Co27 Y0 3.259659 1_465
Co28 Co5 2.451718 1_565
Co28 Co3 2.451718 1_555
Co28 Co6 2.569923 1_455
Co28 Ga3 2.663932 1_455
Co28 Y1 2.988880 1_555
Co28 Y2 3.078009 1_555
Co28 Y0 3.267529 1_464
Co29 Co3 2.453745 1_555
Co29 Co4 2.454353 1_555
Co29 Co9 2.567976 1_455
Co29 Co7 2.569189 1_455
Co29 Ga3 2.665622 1_455
Co29 Y1 2.988703 1_545
Co29 Y2 3.085348 1_555
Co29 Y0 3.259659 1_454
