# generated using pymatgen
data_Mg17Al11Ga
_symmetry_space_group_name_H-M   'P 1'
_cell_length_a   9.11680052
_cell_length_b   9.11680052
_cell_length_c   9.10997557
_cell_angle_alpha   70.55231845
_cell_angle_beta   70.55231845
_cell_angle_gamma   109.48791061
_symmetry_Int_Tables_number   1
_chemical_formula_structural   Mg17Al11Ga
_chemical_formula_sum   'Mg17 Al11 Ga1'
_cell_volume   583.09986331
_cell_formula_units_Z   1
loop_
 _symmetry_equiv_pos_site_id
 _symmetry_equiv_pos_as_xyz
  1  'x, y, z'
loop_
 _atom_site_type_symbol
 _atom_site_label
 _atom_site_symmetry_multiplicity
 _atom_site_fract_x
 _atom_site_fract_y
 _atom_site_fract_z
 _atom_site_occupancy
  Mg  Mg0  1  0.00025200  0.00025200  0.65458900  1
  Mg  Mg1  1  0.99969500  0.99969500  0.99995400  1
  Mg  Mg2  1  0.65562200  0.65562200  0.34334700  1
  Mg  Mg3  1  0.39775200  0.39775200  0.28655000  1
  Mg  Mg4  1  0.68296800  0.68296800  0.71447300  1
  Mg  Mg5  1  0.60219400  0.31527400  0.00088200  1
  Mg  Mg6  1  0.71299200  0.39774100  0.60224300  1
  Mg  Mg7  1  0.31594600  0.00015700  0.39759400  1
  Mg  Mg8  1  0.34520900  0.99978700  0.00023600  1
  Mg  Mg9  1  0.68398500  0.28621600  0.31626400  1
  Mg  Mg10  1  0.99976700  0.60172300  0.68416300  1
  Mg  Mg11  1  0.60172300  0.99976700  0.68416300  1
  Mg  Mg12  1  0.28621600  0.68398500  0.31626400  1
  Mg  Mg13  1  0.99978700  0.34520900  0.00023600  1
  Mg  Mg14  1  0.00015700  0.31594600  0.39759400  1
  Mg  Mg15  1  0.39774100  0.71299200  0.60224300  1
  Mg  Mg16  1  0.31527400  0.60219400  0.00088200  1
  Al  Al0  1  0.18648600  0.18648600  0.18003700  1
  Al  Al1  1  0.81454600  0.63295700  0.99969100  1
  Al  Al2  1  0.36654900  0.18160200  0.63336900  1
  Al  Al3  1  0.00005100  0.81495000  0.36661000  1
  Al  Al4  1  0.18547300  0.81870600  0.81469500  1
  Al  Al5  1  0.99957600  0.63270900  0.18571300  1
  Al  Al6  1  0.63270900  0.99957600  0.18571300  1
  Al  Al7  1  0.81870600  0.18547300  0.81469500  1
  Al  Al8  1  0.81495000  0.00005100  0.36661000  1
  Al  Al9  1  0.18160200  0.36654900  0.63336900  1
  Al  Al10  1  0.63295700  0.81454600  0.99969100  1
  Ga  Ga0  1  0.36911700  0.36911700  0.81812800  1
loop_
_geom_bond_atom_site_label_1
_geom_bond_atom_site_label_2
_geom_bond_distance
_geom_bond_site_symmetry_2
Mg0 Mg14 3.046458 1_555
Mg0 Mg7 3.046458 1_555
Mg0 Mg4 3.057401 1_445
Mg0 Mg1 3.142889 1_445
Mg1 Mg2 3.135571 1_556
Mg1 Mg8 3.150559 1_656
Mg1 Mg13 3.150559 1_566
Mg2 Mg3 3.042037 1_555
Mg2 Mg6 3.051751 1_555
Mg3 Mg5 3.133723 1_555
Mg3 Mg7 3.157662 1_555
Mg3 Mg9 3.158235 1_555
Mg4 Mg5 3.136333 1_556
Mg4 Mg6 3.152940 1_555
Mg5 Mg8 3.047317 1_545
Mg5 Mg7 3.150979 1_555
Mg5 Mg9 3.151606 1_555
Mg5 Mg6 3.163305 1_554
Mg6 Mg9 3.151882 1_555
Mg7 Mg9 3.134968 1_555
Mg10 Mg13 3.045768 1_556
Mg10 Mg12 3.131530 1_655
Mg10 Mg6 3.135305 1_555
Mg10 Mg5 3.159994 1_556
Mg10 Mg15 3.160268 1_655
Mg10 Mg4 3.162124 1_555
Mg10 Mg7 3.163424 1_665
Mg11 Mg8 3.045768 1_556
Mg11 Mg9 3.131530 1_565
Mg11 Mg15 3.135305 1_555
Mg11 Mg16 3.159994 1_556
Mg11 Mg6 3.160268 1_565
Mg11 Mg4 3.162124 1_555
Mg11 Mg14 3.163424 1_665
Mg12 Mg8 3.046867 1_555
Mg12 Mg14 3.134968 1_555
Mg12 Mg16 3.151606 1_555
Mg12 Mg15 3.151882 1_555
Mg12 Mg7 3.156844 1_565
Mg12 Mg3 3.158235 1_555
Mg13 Mg9 3.046867 1_555
Mg13 Mg16 3.047317 1_655
Mg14 Mg6 3.140722 1_455
Mg14 Mg16 3.150979 1_555
Mg14 Mg9 3.156844 1_455
Mg14 Mg3 3.157662 1_555
Mg15 Mg2 3.051751 1_555
Mg15 Mg7 3.140722 1_565
Mg15 Mg4 3.152940 1_555
Mg15 Mg16 3.163305 1_556
Mg16 Mg3 3.133723 1_555
Mg16 Mg4 3.136333 1_554
Al0 Ga0 2.693339 1_554
Al0 Al3 2.766301 1_545
Al0 Al8 2.766301 1_455
Al0 Mg3 2.893931 1_555
Al0 Mg7 2.976616 1_555
Al0 Mg14 2.976616 1_555
Al0 Mg13 3.097679 1_455
Al0 Mg8 3.097679 1_545
Al0 Mg5 3.168896 1_555
Al0 Mg16 3.168896 1_555
Al0 Mg1 3.205800 1_444
Al1 Al10 2.703716 1_555
Al1 Al5 2.760616 1_556
Al1 Al4 2.761759 1_655
Al1 Mg5 2.891426 1_556
Al1 Mg10 2.971317 1_555
Al1 Mg9 2.976562 1_556
Al1 Mg2 3.090833 1_556
Al1 Mg0 3.102588 1_665
Al1 Mg4 3.170129 1_555
Al1 Mg3 3.175806 1_556
Al1 Mg1 3.204770 1_555
Al2 Al4 2.701960 1_545
Al2 Al9 2.753714 1_555
Al2 Ga0 2.769772 1_555
Al2 Mg9 2.896006 1_555
Al2 Mg6 2.969524 1_555
Al2 Mg3 2.971236 1_555
Al2 Mg0 3.097788 1_555
Al2 Mg8 3.101333 1_546
Al2 Mg7 3.174792 1_555
Al2 Mg11 3.174974 1_545
Al2 Mg1 3.203545 1_445
Al3 Al5 2.701745 1_455
Al3 Al8 2.756007 1_465
Al3 Mg10 2.897365 1_455
Al3 Mg7 2.973038 1_565
Al3 Mg4 2.981107 1_455
Al3 Mg8 3.099136 1_555
Al3 Mg2 3.101587 1_455
Al3 Mg12 3.176255 1_555
Al3 Mg6 3.178831 1_455
Al3 Mg1 3.202900 1_454
Al4 Al5 2.761059 1_456
Al4 Mg15 2.900385 1_555
Al4 Mg16 2.973085 1_556
Al4 Mg10 2.977603 1_455
Al4 Mg8 3.097795 1_556
Al4 Mg0 3.100902 1_565
Al4 Mg11 3.169906 1_555
Al4 Mg7 3.175139 1_565
Al4 Mg1 3.202373 1_455
Al5 Mg14 2.893225 1_655
Al5 Mg16 2.969084 1_655
Al5 Mg9 2.971004 1_555
Al5 Mg2 3.094686 1_555
Al5 Mg8 3.104358 1_655
Al5 Mg6 3.172561 1_555
Al5 Mg12 3.175962 1_655
Al5 Mg1 3.206849 1_554
Al6 Al8 2.701745 1_565
Al6 Al7 2.761059 1_564
Al6 Mg7 2.893225 1_565
Al6 Mg5 2.969084 1_565
Al6 Mg12 2.971004 1_555
Al6 Mg2 3.094686 1_555
Al6 Mg13 3.104358 1_565
Al6 Mg15 3.172561 1_555
Al6 Mg9 3.175962 1_565
Al6 Mg1 3.206849 1_554
Al7 Al9 2.701960 1_655
Al7 Mg6 2.900385 1_555
Al7 Mg5 2.973085 1_556
Al7 Mg11 2.977603 1_545
Al7 Mg13 3.097795 1_556
Al7 Mg0 3.100902 1_655
Al7 Mg10 3.169906 1_555
Al7 Mg14 3.175139 1_655
Al7 Mg1 3.202373 1_545
Al8 Mg11 2.897365 1_545
Al8 Mg14 2.973038 1_655
Al8 Mg4 2.981107 1_545
Al8 Mg13 3.099136 1_555
Al8 Mg2 3.101587 1_545
Al8 Mg9 3.176255 1_555
Al8 Mg15 3.178831 1_545
Al8 Mg1 3.202900 1_544
Al9 Ga0 2.769772 1_555
Al9 Mg12 2.896006 1_555
Al9 Mg15 2.969524 1_555
Al9 Mg3 2.971236 1_555
Al9 Mg0 3.097788 1_555
Al9 Mg13 3.101333 1_456
Al9 Mg14 3.174792 1_555
Al9 Mg10 3.174974 1_455
Al9 Mg1 3.203545 1_445
Al10 Al6 2.760616 1_556
Al10 Al7 2.761759 1_565
Al10 Mg16 2.891426 1_556
Al10 Mg11 2.971317 1_555
Al10 Mg12 2.976562 1_556
Al10 Mg2 3.090833 1_556
Al10 Mg0 3.102588 1_665
Al10 Mg4 3.170129 1_555
Al10 Mg3 3.175806 1_556
Al10 Mg1 3.204770 1_555
Ga0 Mg4 2.864436 1_555
Ga0 Mg6 2.961621 1_555
Ga0 Mg15 2.961621 1_555
Ga0 Mg8 3.112402 1_546
Ga0 Mg13 3.112402 1_456
Ga0 Mg16 3.167897 1_556
Ga0 Mg5 3.167897 1_556
Ga0 Mg1 3.229846 1_445
