# generated using pymatgen
data_CaEuNbFeO6
_symmetry_space_group_name_H-M   'P 1'
_cell_length_a   5.65541640
_cell_length_b   5.65541640
_cell_length_c   5.65541640
_cell_angle_alpha   60.00000000
_cell_angle_beta   60.00000000
_cell_angle_gamma   60.00000000
_symmetry_Int_Tables_number   1
_chemical_formula_structural   CaEuNbFeO6
_chemical_formula_sum   'Ca1 Eu1 Nb1 Fe1 O6'
_cell_volume   127.90242065
_cell_formula_units_Z   1
loop_
 _symmetry_equiv_pos_site_id
 _symmetry_equiv_pos_as_xyz
  1  'x, y, z'
loop_
 _atom_site_type_symbol
 _atom_site_label
 _atom_site_symmetry_multiplicity
 _atom_site_fract_x
 _atom_site_fract_y
 _atom_site_fract_z
 _atom_site_occupancy
  Ca  Ca0  1  0.75000000  0.75000000  0.75000000  1
  Eu  Eu0  1  0.25000000  0.25000000  0.25000000  1
  Nb  Nb0  1  0.50000000  0.50000000  0.50000000  1
  Fe  Fe0  1  0.00000000  -0.00000000  -0.00000000  1
  O  O0  1  0.75014017  0.24985983  0.24985983  1
  O  O1  1  0.24985983  0.75014017  0.75014017  1
  O  O2  1  0.75014017  0.24985983  0.75014017  1
  O  O3  1  0.24985983  0.75014017  0.24985983  1
  O  O4  1  0.75014017  0.75014017  0.24985983  1
  O  O5  1  0.24985983  0.24985983  0.75014017  1
loop_
_geom_bond_atom_site_label_1
_geom_bond_atom_site_label_2
_geom_bond_distance
_geom_bond_site_symmetry_2
Ca0 O4 2.827708 1_555
Ca0 O0 2.827708 1_565
Ca0 O3 2.827708 1_655
Ca0 O5 2.827708 1_655
Ca0 O5 2.827708 1_565
Ca0 O0 2.827708 1_556
Ca0 O2 2.827708 1_555
Ca0 O3 2.827708 1_556
Ca0 O1 2.827708 1_555
Ca0 O2 2.827708 1_565
Ca0 O4 2.827708 1_556
Ca0 O1 2.827708 1_655
Eu0 O4 2.827708 1_545
Eu0 O4 2.827708 1_455
Eu0 O5 2.827708 1_555
Eu0 O5 2.827708 1_554
Eu0 O1 2.827708 1_554
Eu0 O3 2.827708 1_545
Eu0 O2 2.827708 1_455
Eu0 O2 2.827708 1_554
Eu0 O1 2.827708 1_545
Eu0 O0 2.827708 1_555
Eu0 O0 2.827708 1_455
Eu0 O3 2.827708 1_555
Nb0 O2 2.000613 1_555
Nb0 O0 2.000613 1_555
Nb0 O4 2.000613 1_555
Nb0 O1 2.000613 1_555
Nb0 O5 2.000613 1_555
Nb0 O3 2.000613 1_555
Fe0 O4 1.998371 1_445
Fe0 O1 1.998371 1_544
Fe0 O5 1.998371 1_554
Fe0 O0 1.998371 1_455
Fe0 O3 1.998371 1_545
Fe0 O2 1.998371 1_454
