# generated using pymatgen
data_Li3MnCoO5
_symmetry_space_group_name_H-M   'P 1'
_cell_length_a   2.99535851
_cell_length_b   2.99535851
_cell_length_c   24.48421706
_cell_angle_alpha   88.80227025
_cell_angle_beta   88.80227025
_cell_angle_gamma   57.20205977
_symmetry_Int_Tables_number   1
_chemical_formula_structural   Li3MnCoO5
_chemical_formula_sum   'Li6 Mn2 Co2 O10'
_cell_volume   184.60476796
_cell_formula_units_Z   2
loop_
 _symmetry_equiv_pos_site_id
 _symmetry_equiv_pos_as_xyz
  1  'x, y, z'
loop_
 _atom_site_type_symbol
 _atom_site_label
 _atom_site_symmetry_multiplicity
 _atom_site_fract_x
 _atom_site_fract_y
 _atom_site_fract_z
 _atom_site_occupancy
  Li  Li0  1  0.30003800  0.30003800  0.10002300  1
  Li  Li1  1  0.89069200  0.89069200  0.30627800  1
  Li  Li2  1  0.50652400  0.50652400  0.49686000  1
  Li  Li3  1  0.10252200  0.10252200  0.69836300  1
  Li  Li4  1  0.70105400  0.70105400  0.89791500  1
  Li  Li5  1  0.20052600  0.20052600  0.40067500  1
  Mn  Mn0  1  0.00081100  0.00081100  0.99942900  1
  Mn  Mn1  1  0.59681300  0.59681300  0.19988500  1
  Co  Co0  1  0.80252800  0.80252800  0.60065600  1
  Co  Co1  1  0.39958400  0.39958400  0.79910700  1
  O  O0  1  0.62672000  0.62672000  0.04657300  1
  O  O1  1  0.23663100  0.23663100  0.24340100  1
  O  O2  1  0.84793500  0.84793500  0.45243800  1
  O  O3  1  0.43621500  0.43621500  0.64536100  1
  O  O4  1  0.05463600  0.05463600  0.84513800  1
  O  O5  1  0.96596900  0.96596900  0.15269700  1
  O  O6  1  0.55236900  0.55236900  0.34932100  1
  O  O7  1  0.16050000  0.16050000  0.55904700  1
  O  O8  1  0.74394600  0.74394600  0.75399500  1
  O  O9  1  0.37398500  0.37398500  0.95283800  1
loop_
_geom_bond_atom_site_label_1
_geom_bond_atom_site_label_2
_geom_bond_distance
_geom_bond_site_symmetry_2
Li0 O5 2.129468 1_545
Li0 O5 2.129468 1_455
Li0 O0 2.134936 1_555
Li0 O5 2.154711 1_445
Li0 O0 2.157902 1_455
Li0 O0 2.157902 1_545
Li1 O6 1.983060 1_655
Li1 O6 1.983060 1_565
Li1 O6 2.046433 1_555
Li1 O1 2.267625 1_655
Li1 O1 2.267625 1_565
Li1 O1 2.355285 1_665
Li2 O2 1.994492 1_545
Li2 O2 1.994492 1_455
Li2 O2 2.077152 1_555
Li2 O7 2.255877 1_655
Li2 O7 2.255877 1_565
Li2 O7 2.344929 1_555
Li3 O8 2.124372 1_545
Li3 O8 2.124372 1_455
Li3 O3 2.135257 1_455
Li3 O3 2.135257 1_545
Li3 O3 2.157792 1_555
Li3 O8 2.300002 1_445
Li4 O4 2.089575 1_655
Li4 O4 2.089575 1_565
Li4 O9 2.158140 1_555
Li4 O9 2.179441 1_655
Li4 O9 2.179441 1_565
Li4 O4 2.239190 1_665
Li5 O6 2.071457 1_545
Li5 O6 2.071457 1_455
Li5 O2 2.076111 1_455
Li5 O2 2.076111 1_545
Li5 O6 2.212428 1_555
Li5 O2 2.221166 1_445
Mn0 O9 1.959229 1_545
Mn0 O9 1.959229 1_455
Mn0 O0 1.965555 1_546
Mn0 O0 1.965555 1_456
Mn0 O9 2.246597 1_555
Mn0 O0 2.257365 1_446
Mn1 O1 1.941491 1_655
Mn1 O1 1.941491 1_565
Mn1 O5 1.975452 1_545
Mn1 O5 1.975452 1_455
Mn1 O1 2.151283 1_555
Mn1 O5 2.235630 1_555
Co0 O7 1.920478 1_655
Co0 O7 1.920478 1_565
Co0 O3 1.945564 1_565
Co0 O3 1.945564 1_655
Co0 O7 2.119333 1_665
Co0 O3 2.193129 1_555
Co1 O8 1.997307 1_545
Co1 O8 1.997307 1_455
Co1 O4 2.008762 1_565
Co1 O4 2.008762 1_655
Co1 O8 2.098885 1_555
Co1 O4 2.112960 1_555
