# generated using pymatgen
data_Zr3Si
_symmetry_space_group_name_H-M   'P 1'
_cell_length_a   6.11738404
_cell_length_b   6.11738404
_cell_length_c   4.97108600
_cell_angle_alpha   90.00000000
_cell_angle_beta   90.00000000
_cell_angle_gamma   120.00000048
_symmetry_Int_Tables_number   1
_chemical_formula_structural   Zr3Si
_chemical_formula_sum   'Zr6 Si2'
_cell_volume   161.10662439
_cell_formula_units_Z   2
loop_
 _symmetry_equiv_pos_site_id
 _symmetry_equiv_pos_as_xyz
  1  'x, y, z'
loop_
 _atom_site_type_symbol
 _atom_site_label
 _atom_site_symmetry_multiplicity
 _atom_site_fract_x
 _atom_site_fract_y
 _atom_site_fract_z
 _atom_site_occupancy
  Zr  Zr0  1  0.17273500  0.34547000  0.25000000  1
  Zr  Zr1  1  0.65453000  0.82726500  0.25000000  1
  Zr  Zr2  1  0.17273500  0.82726500  0.25000000  1
  Zr  Zr3  1  0.82726500  0.65453000  0.75000000  1
  Zr  Zr4  1  0.34547000  0.17273500  0.75000000  1
  Zr  Zr5  1  0.82726500  0.17273500  0.75000000  1
  Si  Si0  1  0.33333300  0.66666700  0.75000000  1
  Si  Si1  1  0.66666700  0.33333300  0.25000000  1
loop_
_geom_bond_atom_site_label_1
_geom_bond_atom_site_label_2
_geom_bond_distance
_geom_bond_site_symmetry_2
Zr0 Zr1 2.947325 1_555
Zr0 Zr2 2.947325 1_555
Zr0 Zr5 3.086694 1_455
Zr0 Zr5 3.086694 1_454
Zr0 Zr4 3.086694 1_555
Zr0 Zr4 3.086694 1_554
Zr0 Zr1 3.170059 1_445
Zr0 Zr2 3.170059 1_545
Zr1 Zr2 2.947325 1_555
Zr1 Zr5 3.086694 1_565
Zr1 Zr5 3.086694 1_564
Zr1 Zr3 3.086694 1_554
Zr1 Zr3 3.086694 1_555
Zr1 Zr2 3.170059 1_655
Zr2 Zr3 3.086694 1_455
Zr2 Zr3 3.086694 1_454
Zr2 Zr4 3.086694 1_564
Zr2 Zr4 3.086694 1_565
Zr3 Zr4 2.947325 1_555
Zr3 Zr5 2.947325 1_555
Zr3 Zr4 3.170059 1_665
Zr3 Zr5 3.170059 1_565
Zr4 Zr5 2.947325 1_555
Zr4 Zr5 3.170059 1_455
Si0 Zr2 3.012223 1_556
Si0 Zr2 3.012223 1_555
Si0 Zr0 3.012226 1_555
Si0 Zr0 3.012226 1_556
Si0 Zr1 3.012226 1_555
Si0 Zr1 3.012226 1_556
Si0 Zr4 3.059365 1_565
Si0 Zr3 3.059365 1_455
Si0 Zr5 3.059368 1_565
Si0 Zr5 3.059368 1_455
Si0 Zr3 3.059371 1_555
Si0 Zr4 3.059371 1_555
Si1 Zr5 3.012223 1_555
Si1 Zr5 3.012223 1_554
Si1 Zr4 3.012226 1_554
Si1 Zr4 3.012226 1_555
Si1 Zr3 3.012226 1_554
Si1 Zr3 3.012226 1_555
Si1 Zr0 3.059365 1_655
Si1 Zr1 3.059365 1_545
Si1 Zr2 3.059368 1_655
Si1 Zr2 3.059368 1_545
Si1 Zr1 3.059371 1_555
Si1 Zr0 3.059371 1_555
