# generated using pymatgen
data_Sr3(CoO3)2
_symmetry_space_group_name_H-M   'P 1'
_cell_length_a   6.52212899
_cell_length_b   6.51164031
_cell_length_c   6.54049416
_cell_angle_alpha   93.55205999
_cell_angle_beta   93.46962989
_cell_angle_gamma   93.68249455
_symmetry_Int_Tables_number   1
_chemical_formula_structural   Sr3(CoO3)2
_chemical_formula_sum   'Sr6 Co4 O12'
_cell_volume   276.08646007
_cell_formula_units_Z   2
loop_
 _symmetry_equiv_pos_site_id
 _symmetry_equiv_pos_as_xyz
  1  'x, y, z'
loop_
 _atom_site_type_symbol
 _atom_site_label
 _atom_site_symmetry_multiplicity
 _atom_site_fract_x
 _atom_site_fract_y
 _atom_site_fract_z
 _atom_site_occupancy
  Sr  Sr0  1  0.88106257  0.25067268  0.61855980  1
  Sr  Sr1  1  0.24896555  0.61957386  0.88051413  1
  Sr  Sr2  1  0.62083396  0.87916830  0.25062786  1
  Sr  Sr3  1  0.75278031  0.38065557  0.11877220  1
  Sr  Sr4  1  0.38017588  0.12023495  0.74858963  1
  Sr  Sr5  1  0.11873754  0.74825384  0.38180344  1
  Co  Co0  1  0.00090819  0.00307273  0.00084616  1
  Co  Co1  1  0.74995905  0.75002696  0.75021260  1
  Co  Co2  1  0.49747551  0.49816532  0.49984254  1
  Co  Co3  1  0.25573023  0.24591076  0.24738462  1
  O  O0  1  0.21745374  0.41010439  0.53534209  1
  O  O1  1  0.40403409  0.52759568  0.21852894  1
  O  O2  1  0.53197376  0.21651878  0.40904931  1
  O  O3  1  0.90696787  0.71966577  0.02679629  1
  O  O4  1  0.71854526  0.02519971  0.90724291  1
  O  O5  1  0.02570506  0.90687079  0.71919386  1
  O  O6  1  0.78038754  0.59334819  0.47342842  1
  O  O7  1  0.59314028  0.47498646  0.78149663  1
  O  O8  1  0.47415707  0.78127068  0.59300850  1
  O  O9  1  0.08863339  0.28328938  0.96374805  1
  O  O10  1  0.28277338  0.97135091  0.09363463  1
  O  O11  1  0.96959977  0.09406427  0.28137840  1
loop_
_geom_bond_atom_site_label_1
_geom_bond_atom_site_label_2
_geom_bond_distance
_geom_bond_site_symmetry_2
Co0 O9 1.911338 1_554
Co0 O11 1.919766 1_455
Co0 O4 1.922402 1_454
Co0 O3 1.927698 1_445
Co0 O5 1.928252 1_544
Co0 O10 1.928683 1_545
Co1 O7 2.032477 1_555
Co1 O4 2.037659 1_565
Co1 O5 2.037782 1_655
Co1 O8 2.045330 1_555
Co1 O6 2.048929 1_555
Co1 O3 2.050923 1_556
Co2 O0 1.910898 1_555
Co2 O8 1.923772 1_555
Co2 O2 1.923793 1_555
Co2 O7 1.926927 1_555
Co2 O1 1.927810 1_555
Co2 O6 1.929679 1_555
Co3 O10 2.019381 1_545
Co3 O1 2.042718 1_555
Co3 O2 2.059016 1_555
Co3 O11 2.085704 1_455
Co3 O9 2.129262 1_554
Co3 O0 2.143423 1_555
O0 Sr0 2.471756 1_455
O0 Sr1 2.554547 1_555
O0 Sr5 2.578609 1_555
O0 Sr4 2.653070 1_555
O1 Sr1 2.498081 1_554
O1 Sr2 2.602522 1_555
O1 Sr3 2.626158 1_555
O1 Sr5 2.657274 1_555
O2 Sr2 2.487811 1_545
O2 Sr0 2.574991 1_555
O2 Sr4 2.581467 1_555
O2 Sr3 2.684302 1_555
O3 Sr3 2.489759 1_555
O3 Sr1 2.585214 1_654
O3 Sr5 2.618950 1_655
O3 Sr2 2.663816 1_555
O4 Sr4 2.511552 1_555
O4 Sr2 2.591231 1_546
O4 Sr3 2.611656 1_556
O4 Sr0 2.688864 1_555
O5 Sr5 2.502926 1_555
O5 Sr0 2.591089 1_465
O5 Sr4 2.610107 1_565
O5 Sr1 2.672440 1_555
O6 Sr5 2.489060 1_655
O6 Sr0 2.585819 1_555
O6 Sr3 2.617362 1_555
O6 Sr2 2.659253 1_555
O7 Sr3 2.509909 1_556
O7 Sr1 2.591648 1_555
O7 Sr4 2.608028 1_555
O7 Sr0 2.682770 1_555
O8 Sr4 2.500790 1_565
O8 Sr2 2.587282 1_555
O8 Sr5 2.615261 1_555
O8 Sr1 2.680070 1_555
O9 Sr1 2.471316 1_555
O9 Sr0 2.551236 1_455
O9 Sr3 2.568228 1_456
O9 Sr4 2.668584 1_555
O10 Sr2 2.499696 1_555
O10 Sr1 2.596333 1_554
O10 Sr4 2.608058 1_564
O10 Sr5 2.681616 1_555
O11 Sr0 2.487570 1_555
O11 Sr2 2.583346 1_545
O11 Sr5 2.614465 1_645
O11 Sr3 2.648838 1_555
