# generated using pymatgen
data_Yb5(Ni2Sn5)2
_symmetry_space_group_name_H-M   'P 1'
_cell_length_a   13.59677306
_cell_length_b   13.59677306
_cell_length_c   4.42852751
_cell_angle_alpha   90.00000000
_cell_angle_beta   90.00000000
_cell_angle_gamma   90.00000000
_symmetry_Int_Tables_number   1
_chemical_formula_structural   Yb5(Ni2Sn5)2
_chemical_formula_sum   'Yb10 Ni8 Sn20'
_cell_volume   818.71179083
_cell_formula_units_Z   2
loop_
 _symmetry_equiv_pos_site_id
 _symmetry_equiv_pos_as_xyz
  1  'x, y, z'
loop_
 _atom_site_type_symbol
 _atom_site_label
 _atom_site_symmetry_multiplicity
 _atom_site_fract_x
 _atom_site_fract_y
 _atom_site_fract_z
 _atom_site_occupancy
  Yb  Yb0  1  0.00000000  0.00000000  0.00000000  1
  Yb  Yb1  1  0.50000000  0.50000000  0.00000000  1
  Yb  Yb2  1  0.18079343  0.68079343  0.50000000  1
  Yb  Yb3  1  0.81920657  0.31920657  0.50000000  1
  Yb  Yb4  1  0.68079343  0.81920657  0.50000000  1
  Yb  Yb5  1  0.31920657  0.18079343  0.50000000  1
  Yb  Yb6  1  0.89438403  0.60561597  0.50000000  1
  Yb  Yb7  1  0.10561597  0.39438403  0.50000000  1
  Yb  Yb8  1  0.39438403  0.89438403  0.50000000  1
  Yb  Yb9  1  0.60561597  0.10561597  0.50000000  1
  Ni  Ni0  1  0.25724893  0.53743334  0.00000000  1
  Ni  Ni1  1  0.74275107  0.46256666  0.00000000  1
  Ni  Ni2  1  0.75724893  0.96256666  0.00000000  1
  Ni  Ni3  1  0.24275107  0.03743334  0.00000000  1
  Ni  Ni4  1  0.46256666  0.25724893  0.00000000  1
  Ni  Ni5  1  0.53743334  0.74275107  0.00000000  1
  Ni  Ni6  1  0.03743334  0.75724893  0.00000000  1
  Ni  Ni7  1  0.96256666  0.24275107  0.00000000  1
  Sn  Sn0  1  0.35257227  0.70440901  0.00000000  1
  Sn  Sn1  1  0.64742773  0.29559099  0.00000000  1
  Sn  Sn2  1  0.85257227  0.79559099  0.00000000  1
  Sn  Sn3  1  0.14742773  0.20440901  0.00000000  1
  Sn  Sn4  1  0.29559099  0.35257227  0.00000000  1
  Sn  Sn5  1  0.70440901  0.64742773  0.00000000  1
  Sn  Sn6  1  0.20440901  0.85257227  0.00000000  1
  Sn  Sn7  1  0.79559099  0.14742773  0.00000000  1
  Sn  Sn8  1  0.33545923  0.51238677  0.50000000  1
  Sn  Sn9  1  0.66454077  0.48761323  0.50000000  1
  Sn  Sn10  1  0.83545923  0.98761323  0.50000000  1
  Sn  Sn11  1  0.16454077  0.01238677  0.50000000  1
  Sn  Sn12  1  0.48761323  0.33545923  0.50000000  1
  Sn  Sn13  1  0.51238677  0.66454077  0.50000000  1
  Sn  Sn14  1  0.01238677  0.83545923  0.50000000  1
  Sn  Sn15  1  0.98761323  0.16454077  0.50000000  1
  Sn  Sn16  1  0.07276814  0.57276814  0.00000000  1
  Sn  Sn17  1  0.92723186  0.42723186  0.00000000  1
  Sn  Sn18  1  0.57276814  0.92723186  0.00000000  1
  Sn  Sn19  1  0.42723186  0.07276814  0.00000000  1
loop_
_geom_bond_atom_site_label_1
_geom_bond_atom_site_label_2
_geom_bond_distance
_geom_bond_site_symmetry_2
Ni0 Sn8 2.479874 1_554
Ni0 Sn8 2.479874 1_555
Ni0 Sn16 2.553940 1_555
Ni0 Sn4 2.567009 1_555
Ni0 Sn0 2.614240 1_555
Ni0 Yb2 3.127801 1_555
Ni0 Yb2 3.127801 1_554
Ni0 Yb1 3.339644 1_555
Ni0 Yb7 3.596764 1_555
Ni0 Yb7 3.596764 1_554
Ni1 Sn9 2.479874 1_554
Ni1 Sn9 2.479874 1_555
Ni1 Sn17 2.553940 1_555
Ni1 Sn5 2.567009 1_555
Ni1 Sn1 2.614240 1_555
Ni1 Yb3 3.127801 1_554
Ni1 Yb3 3.127801 1_555
Ni1 Yb1 3.339644 1_555
Ni1 Yb6 3.596764 1_555
Ni1 Yb6 3.596764 1_554
Ni2 Sn10 2.479874 1_554
Ni2 Sn10 2.479874 1_555
Ni2 Sn18 2.553940 1_555
Ni2 Sn7 2.567009 1_565
Ni2 Sn2 2.614240 1_555
Ni2 Yb4 3.127801 1_554
Ni2 Yb4 3.127801 1_555
Ni2 Yb0 3.339644 1_665
Ni2 Yb9 3.596764 1_565
Ni2 Yb9 3.596764 1_564
Ni3 Sn11 2.479874 1_555
Ni3 Sn11 2.479874 1_554
Ni3 Sn19 2.553940 1_555
Ni3 Sn6 2.567009 1_545
Ni3 Sn3 2.614240 1_555
Ni3 Yb5 3.127801 1_555
Ni3 Yb5 3.127801 1_554
Ni3 Yb0 3.339644 1_555
Ni3 Yb8 3.596764 1_544
Ni3 Yb8 3.596764 1_545
Ni4 Sn12 2.479874 1_555
Ni4 Sn12 2.479874 1_554
Ni4 Sn19 2.553940 1_555
Ni4 Sn1 2.567009 1_555
Ni4 Sn4 2.614240 1_555
Ni4 Yb5 3.127801 1_555
Ni4 Yb5 3.127801 1_554
Ni4 Yb1 3.339644 1_555
Ni4 Yb9 3.596764 1_554
Ni4 Yb9 3.596764 1_555
Ni5 Sn13 2.479874 1_555
Ni5 Sn13 2.479874 1_554
Ni5 Sn18 2.553940 1_555
Ni5 Sn0 2.567009 1_555
Ni5 Sn5 2.614240 1_555
Ni5 Yb4 3.127801 1_554
Ni5 Yb4 3.127801 1_555
Ni5 Yb1 3.339644 1_555
Ni5 Yb8 3.596764 1_555
Ni5 Yb8 3.596764 1_554
Ni6 Sn14 2.479874 1_554
Ni6 Sn14 2.479874 1_555
Ni6 Sn16 2.553940 1_555
Ni6 Sn2 2.567009 1_455
Ni6 Sn6 2.614240 1_555
Ni6 Yb2 3.127801 1_554
Ni6 Yb2 3.127801 1_555
Ni6 Yb0 3.339644 1_565
Ni6 Yb6 3.596764 1_455
Ni6 Yb6 3.596764 1_454
Ni7 Sn15 2.479874 1_555
Ni7 Sn15 2.479874 1_554
Ni7 Sn17 2.553940 1_555
Ni7 Sn3 2.567009 1_655
Ni7 Sn7 2.614240 1_555
Ni7 Yb3 3.127801 1_554
Ni7 Yb3 3.127801 1_555
Ni7 Yb0 3.339644 1_655
Ni7 Yb7 3.596764 1_654
Ni7 Yb7 3.596764 1_655
Sn0 Sn6 2.848993 1_555
Sn0 Sn13 3.149377 1_554
Sn0 Sn13 3.149377 1_555
Sn0 Yb2 3.234389 1_554
Sn0 Yb2 3.234389 1_555
Sn0 Yb1 3.426764 1_555
Sn0 Yb8 3.449391 1_555
Sn0 Yb8 3.449391 1_554
Sn1 Sn7 2.848993 1_555
Sn1 Sn12 3.149377 1_554
Sn1 Sn12 3.149377 1_555
Sn1 Yb3 3.234389 1_555
Sn1 Yb3 3.234389 1_554
Sn1 Yb1 3.426764 1_555
Sn1 Yb9 3.449391 1_554
Sn1 Yb9 3.449391 1_555
Sn2 Sn5 2.848993 1_555
Sn2 Yb4 3.234389 1_554
Sn2 Yb4 3.234389 1_555
Sn2 Yb0 3.426764 1_665
Sn2 Yb6 3.449391 1_554
Sn2 Yb6 3.449391 1_555
Sn3 Sn4 2.848993 1_555
Sn3 Yb5 3.234389 1_555
Sn3 Yb5 3.234389 1_554
Sn3 Yb0 3.426764 1_555
Sn3 Yb7 3.449391 1_554
Sn3 Yb7 3.449391 1_555
Sn4 Sn8 3.149377 1_555
Sn4 Sn8 3.149377 1_554
Sn4 Yb5 3.234389 1_555
Sn4 Yb5 3.234389 1_554
Sn4 Yb1 3.426764 1_555
Sn4 Yb7 3.449391 1_555
Sn4 Yb7 3.449391 1_554
Sn5 Sn9 3.149377 1_554
Sn5 Sn9 3.149377 1_555
Sn5 Yb4 3.234389 1_554
Sn5 Yb4 3.234389 1_555
Sn5 Yb1 3.426764 1_555
Sn5 Yb6 3.449391 1_554
Sn5 Yb6 3.449391 1_555
Sn6 Yb2 3.234389 1_555
Sn6 Yb2 3.234389 1_554
Sn6 Yb0 3.426764 1_565
Sn6 Yb8 3.449391 1_555
Sn6 Yb8 3.449391 1_554
Sn7 Yb3 3.234389 1_555
Sn7 Yb3 3.234389 1_554
Sn7 Yb0 3.426764 1_655
Sn7 Yb9 3.449391 1_554
Sn7 Yb9 3.449391 1_555
Sn8 Yb2 3.108946 1_555
Sn8 Yb1 3.152221 1_556
Sn8 Yb1 3.152221 1_555
Sn8 Yb7 3.512933 1_555
Sn9 Yb3 3.108946 1_555
Sn9 Yb1 3.152221 1_556
Sn9 Yb1 3.152221 1_555
Sn9 Yb6 3.512933 1_555
Sn10 Yb4 3.108946 1_555
Sn10 Sn7 3.149377 1_565
Sn10 Sn7 3.149377 1_566
Sn10 Yb0 3.152221 1_666
Sn10 Yb0 3.152221 1_665
Sn10 Yb9 3.512933 1_565
Sn11 Yb5 3.108946 1_555
Sn11 Sn6 3.149377 1_545
Sn11 Sn6 3.149377 1_546
Sn11 Yb0 3.152221 1_555
Sn11 Yb0 3.152221 1_556
Sn11 Yb8 3.512933 1_545
Sn12 Yb5 3.108946 1_555
Sn12 Yb1 3.152221 1_556
Sn12 Yb1 3.152221 1_555
Sn12 Yb9 3.512933 1_555
Sn13 Yb4 3.108946 1_555
Sn13 Yb1 3.152221 1_556
Sn13 Yb1 3.152221 1_555
Sn13 Yb8 3.512933 1_555
Sn14 Yb2 3.108946 1_555
Sn14 Sn2 3.149377 1_456
Sn14 Sn2 3.149377 1_455
Sn14 Yb0 3.152221 1_566
Sn14 Yb0 3.152221 1_565
Sn14 Yb6 3.512933 1_455
Sn15 Yb3 3.108946 1_555
Sn15 Sn3 3.149377 1_655
Sn15 Sn3 3.149377 1_656
Sn15 Yb0 3.152221 1_655
Sn15 Yb0 3.152221 1_656
Sn15 Yb7 3.512933 1_655
Sn16 Sn17 2.798480 1_455
Sn16 Yb2 3.036064 1_554
Sn16 Yb2 3.036064 1_555
Sn16 Yb6 3.314398 1_455
Sn16 Yb6 3.314398 1_454
Sn16 Yb7 3.314398 1_555
Sn16 Yb7 3.314398 1_554
Sn17 Yb3 3.036064 1_555
Sn17 Yb3 3.036064 1_554
Sn17 Yb7 3.314398 1_655
Sn17 Yb7 3.314398 1_654
Sn17 Yb6 3.314398 1_555
Sn17 Yb6 3.314398 1_554
Sn18 Sn19 2.798480 1_565
Sn18 Yb4 3.036064 1_555
Sn18 Yb4 3.036064 1_554
Sn18 Yb9 3.314398 1_564
Sn18 Yb9 3.314398 1_565
Sn18 Yb8 3.314398 1_555
Sn18 Yb8 3.314398 1_554
Sn19 Yb5 3.036064 1_555
Sn19 Yb5 3.036064 1_554
Sn19 Yb8 3.314398 1_544
Sn19 Yb8 3.314398 1_545
Sn19 Yb9 3.314398 1_555
Sn19 Yb9 3.314398 1_554
