# generated using pymatgen
data_Li2MnFeO4
_symmetry_space_group_name_H-M   'P 1'
_cell_length_a   5.87699570
_cell_length_b   5.87699570
_cell_length_c   6.02094204
_cell_angle_alpha   61.25132050
_cell_angle_beta   61.25132050
_cell_angle_gamma   89.99187922
_symmetry_Int_Tables_number   1
_chemical_formula_structural   Li2MnFeO4
_chemical_formula_sum   'Li4 Mn2 Fe2 O8'
_cell_volume   152.44937722
_cell_formula_units_Z   2
loop_
 _symmetry_equiv_pos_site_id
 _symmetry_equiv_pos_as_xyz
  1  'x, y, z'
loop_
 _atom_site_type_symbol
 _atom_site_label
 _atom_site_symmetry_multiplicity
 _atom_site_fract_x
 _atom_site_fract_y
 _atom_site_fract_z
 _atom_site_occupancy
  Li  Li0  1  0.50000000  0.00000000  0.00000000  1
  Li  Li1  1  0.50000000  0.50000000  0.50000000  1
  Li  Li2  1  0.00000000  0.50000000  0.50000000  1
  Li  Li3  1  0.50000000  0.50000000  0.00000000  1
  Mn  Mn0  1  0.50000000  0.00000000  0.50000000  1
  Mn  Mn1  1  0.00000000  0.50000000  0.00000000  1
  Fe  Fe0  1  0.00000000  0.00000000  0.50000000  1
  Fe  Fe1  1  0.00000000  0.00000000  0.00000000  1
  O  O0  1  0.77797500  0.26615600  0.98465800  1
  O  O1  1  0.22222000  0.24354000  0.02856700  1
  O  O2  1  0.73384400  0.22202500  0.51534200  1
  O  O3  1  0.75646000  0.77778000  0.47143300  1
  O  O4  1  0.24354000  0.22222000  0.52856700  1
  O  O5  1  0.26615600  0.77797500  0.48465800  1
  O  O6  1  0.77778000  0.75646000  0.97143300  1
  O  O7  1  0.22202500  0.73384400  0.01534200  1
loop_
_geom_bond_atom_site_label_1
_geom_bond_atom_site_label_2
_geom_bond_distance
_geom_bond_site_symmetry_2
Li0 O5 2.141657 1_545
Li0 O2 2.141657 1_554
Li0 O1 2.170091 1_555
Li0 O6 2.170091 1_544
Li0 O0 2.200149 1_554
Li0 O7 2.200149 1_545
Li1 O4 2.108932 1_555
Li1 O3 2.108932 1_555
Li1 O2 2.131288 1_555
Li1 O5 2.131288 1_555
Li1 O6 2.335348 1_554
Li1 O1 2.335348 1_556
Li2 O0 2.141657 1_455
Li2 O7 2.141657 1_555
Li2 O4 2.170091 1_555
Li2 O3 2.170091 1_455
Li2 O5 2.200149 1_555
Li2 O2 2.200149 1_455
Li3 O6 2.108932 1_554
Li3 O1 2.108932 1_555
Li3 O7 2.131288 1_555
Li3 O0 2.131288 1_554
Li3 O3 2.335348 1_554
Li3 O4 2.335348 1_555
Mn0 O2 1.959186 1_555
Mn0 O5 1.959186 1_545
Mn0 O3 1.993245 1_545
Mn0 O4 1.993245 1_555
Mn0 O7 2.280164 1_546
Mn0 O0 2.280164 1_554
Mn1 O7 1.959186 1_555
Mn1 O0 1.959186 1_454
Mn1 O6 1.993245 1_454
Mn1 O1 1.993245 1_555
Mn1 O5 2.280164 1_554
Mn1 O2 2.280164 1_455
Fe0 O5 2.033281 1_545
Fe0 O2 2.033281 1_455
Fe0 O3 2.058440 1_445
Fe0 O4 2.058440 1_555
Fe0 O1 2.082713 1_555
Fe0 O6 2.082713 1_445
Fe1 O0 2.033281 1_454
Fe1 O7 2.033281 1_545
Fe1 O6 2.058440 1_444
Fe1 O1 2.058440 1_555
Fe1 O3 2.082713 1_445
Fe1 O4 2.082713 1_554
