# generated using pymatgen
data_Te
_symmetry_space_group_name_H-M   'P 1'
_cell_length_a   6.30440328
_cell_length_b   8.91328240
_cell_length_c   18.42803178
_cell_angle_alpha   90.00000000
_cell_angle_beta   90.00000000
_cell_angle_gamma   90.00000000
_symmetry_Int_Tables_number   1
_chemical_formula_structural   Te
_chemical_formula_sum   Te32
_cell_volume   1035.52504085
_cell_formula_units_Z   32
loop_
 _symmetry_equiv_pos_site_id
 _symmetry_equiv_pos_as_xyz
  1  'x, y, z'
loop_
 _atom_site_type_symbol
 _atom_site_label
 _atom_site_symmetry_multiplicity
 _atom_site_fract_x
 _atom_site_fract_y
 _atom_site_fract_z
 _atom_site_occupancy
  Te  Te0_0  1  0.25000000  0.26031155  0.37500000  1
  Te  Te0_1  1  0.25000000  0.26031155  0.87500000  1
  Te  Te0_2  1  0.25000000  0.76031155  0.37500000  1
  Te  Te0_3  1  0.25000000  0.76031155  0.87500000  1
  Te  Te0_4  1  0.75000000  0.26031155  0.37500000  1
  Te  Te0_5  1  0.75000000  0.26031155  0.87500000  1
  Te  Te0_6  1  0.75000000  0.76031155  0.37500000  1
  Te  Te0_7  1  0.75000000  0.76031155  0.87500000  1
  Te  Te1_0  1  0.25000000  0.23968845  0.12500000  1
  Te  Te1_1  1  0.25000000  0.23968845  0.62500000  1
  Te  Te1_2  1  0.25000000  0.73968845  0.12500000  1
  Te  Te1_3  1  0.25000000  0.73968845  0.62500000  1
  Te  Te1_4  1  0.75000000  0.23968845  0.12500000  1
  Te  Te1_5  1  0.75000000  0.23968845  0.62500000  1
  Te  Te1_6  1  0.75000000  0.73968845  0.12500000  1
  Te  Te1_7  1  0.75000000  0.73968845  0.62500000  1
  Te  Te2_0  1  0.25000000  0.00000000  0.00000000  1
  Te  Te2_1  1  0.25000000  0.00000000  0.50000000  1
  Te  Te2_2  1  0.25000000  0.50000000  0.00000000  1
  Te  Te2_3  1  0.25000000  0.50000000  0.50000000  1
  Te  Te2_4  1  0.75000000  0.00000000  0.00000000  1
  Te  Te2_5  1  0.75000000  0.00000000  0.50000000  1
  Te  Te2_6  1  0.75000000  0.50000000  0.00000000  1
  Te  Te2_7  1  0.75000000  0.50000000  0.50000000  1
  Te  Te3_0  1  0.25000000  0.00000000  0.25000000  1
  Te  Te3_1  1  0.25000000  0.00000000  0.75000000  1
  Te  Te3_2  1  0.25000000  0.50000000  0.25000000  1
  Te  Te3_3  1  0.25000000  0.50000000  0.75000000  1
  Te  Te3_4  1  0.75000000  0.00000000  0.25000000  1
  Te  Te3_5  1  0.75000000  0.00000000  0.75000000  1
  Te  Te3_6  1  0.75000000  0.50000000  0.25000000  1
  Te  Te3_7  1  0.75000000  0.50000000  0.75000000  1
loop_
_geom_bond_atom_site_label_1
_geom_bond_atom_site_label_2
_geom_bond_distance
_geom_bond_site_symmetry_2
Te0_0 Te2_3 3.141716 1_555
Te0_0 Te3_2 3.141716 1_555
Te0_0 Te0_4 3.152202 1_455
Te0_0 Te0_4 3.152202 1_555
Te0_0 Te2_1 3.269495 1_555
Te0_0 Te3_0 3.269495 1_555
Te0_1 Te2_2 3.141716 1_556
Te0_1 Te3_3 3.141716 1_555
Te0_1 Te0_5 3.152202 1_455
Te0_1 Te0_5 3.152202 1_555
Te0_1 Te2_0 3.269495 1_556
Te0_1 Te3_1 3.269495 1_555
Te0_2 Te2_1 3.141716 1_565
Te0_2 Te3_0 3.141716 1_565
Te0_2 Te0_6 3.152202 1_455
Te0_2 Te0_6 3.152202 1_555
Te0_2 Te2_3 3.269495 1_555
Te0_2 Te3_2 3.269495 1_555
Te0_3 Te2_0 3.141716 1_566
Te0_3 Te3_1 3.141716 1_565
Te0_3 Te0_7 3.152202 1_455
Te0_3 Te0_7 3.152202 1_555
Te0_3 Te2_2 3.269495 1_556
Te0_3 Te3_3 3.269495 1_555
Te0_4 Te2_7 3.141716 1_555
Te0_4 Te3_6 3.141716 1_555
Te0_4 Te2_5 3.269495 1_555
Te0_4 Te3_4 3.269495 1_555
Te0_5 Te2_6 3.141716 1_556
Te0_5 Te3_7 3.141716 1_555
Te0_5 Te2_4 3.269495 1_556
Te0_5 Te3_5 3.269495 1_555
Te0_6 Te2_5 3.141716 1_565
Te0_6 Te3_4 3.141716 1_565
Te0_6 Te2_7 3.269495 1_555
Te0_6 Te3_6 3.269495 1_555
Te0_7 Te2_4 3.141716 1_566
Te0_7 Te3_5 3.141716 1_565
Te0_7 Te2_6 3.269495 1_556
Te0_7 Te3_7 3.269495 1_555
Te1_0 Te3_0 3.141716 1_555
Te1_0 Te2_0 3.141716 1_555
Te1_0 Te1_4 3.152202 1_455
Te1_0 Te1_4 3.152202 1_555
Te1_0 Te3_2 3.269495 1_555
Te1_0 Te2_2 3.269495 1_555
Te1_1 Te2_1 3.141716 1_555
Te1_1 Te3_1 3.141716 1_555
Te1_1 Te1_5 3.152202 1_455
Te1_1 Te1_5 3.152202 1_555
Te1_1 Te2_3 3.269495 1_555
Te1_1 Te3_3 3.269495 1_555
Te1_2 Te2_2 3.141716 1_555
Te1_2 Te3_2 3.141716 1_555
Te1_2 Te1_6 3.152202 1_455
Te1_2 Te1_6 3.152202 1_555
Te1_2 Te3_0 3.269495 1_565
Te1_2 Te2_0 3.269495 1_565
Te1_3 Te2_3 3.141716 1_555
Te1_3 Te3_3 3.141716 1_555
Te1_3 Te1_7 3.152202 1_455
Te1_3 Te1_7 3.152202 1_555
Te1_3 Te2_1 3.269495 1_565
Te1_3 Te3_1 3.269495 1_565
Te1_4 Te2_4 3.141716 1_555
Te1_4 Te3_4 3.141716 1_555
Te1_4 Te2_6 3.269495 1_555
Te1_4 Te3_6 3.269495 1_555
Te1_5 Te2_5 3.141716 1_555
Te1_5 Te3_5 3.141716 1_555
Te1_5 Te2_7 3.269495 1_555
Te1_5 Te3_7 3.269495 1_555
Te1_6 Te3_6 3.141716 1_555
Te1_6 Te2_6 3.141716 1_555
Te1_6 Te2_4 3.269495 1_565
Te1_6 Te3_4 3.269495 1_565
Te1_7 Te2_7 3.141716 1_555
Te1_7 Te3_7 3.141716 1_555
Te1_7 Te2_5 3.269495 1_565
Te1_7 Te3_5 3.269495 1_565
Te2_0 Te2_4 3.152202 1_455
Te2_0 Te2_4 3.152202 1_555
Te2_1 Te2_5 3.152202 1_455
Te2_1 Te2_5 3.152202 1_555
Te2_2 Te2_6 3.152202 1_455
Te2_2 Te2_6 3.152202 1_555
Te2_3 Te2_7 3.152202 1_455
Te2_3 Te2_7 3.152202 1_555
Te3_0 Te3_4 3.152202 1_455
Te3_0 Te3_4 3.152202 1_555
Te3_1 Te3_5 3.152202 1_455
Te3_1 Te3_5 3.152202 1_555
Te3_2 Te3_6 3.152202 1_455
Te3_2 Te3_6 3.152202 1_555
Te3_3 Te3_7 3.152202 1_455
Te3_3 Te3_7 3.152202 1_555
