# generated using pymatgen
data_Al17(BC3)6
_symmetry_space_group_name_H-M   'P 1'
_cell_length_a   5.82505400
_cell_length_b   5.82505422
_cell_length_c   16.14544900
_cell_angle_alpha   90.00000000
_cell_angle_beta   90.00000000
_cell_angle_gamma   119.99999873
_symmetry_Int_Tables_number   1
_chemical_formula_structural   Al17(BC3)6
_chemical_formula_sum   'Al17 B6 C18'
_cell_volume   474.43933937
_cell_formula_units_Z   1
loop_
 _symmetry_equiv_pos_site_id
 _symmetry_equiv_pos_as_xyz
  1  'x, y, z'
loop_
 _atom_site_type_symbol
 _atom_site_label
 _atom_site_symmetry_multiplicity
 _atom_site_fract_x
 _atom_site_fract_y
 _atom_site_fract_z
 _atom_site_occupancy
  Al  Al0  1  0.01626400  0.67111700  0.87677600  1
  Al  Al1  1  0.30445300  0.97970100  0.37616500  1
  Al  Al2  1  0.02029900  0.32475200  0.37616500  1
  Al  Al3  1  0.33333300  0.66666700  0.22839000  1
  Al  Al4  1  0.33333300  0.66666700  0.73334200  1
  Al  Al5  1  0.32888300  0.34514700  0.87677600  1
  Al  Al6  1  0.65485300  0.98373600  0.87677600  1
  Al  Al7  1  0.34514700  0.32888300  0.62322400  1
  Al  Al8  1  0.67524800  0.69554700  0.37616500  1
  Al  Al9  1  0.32475200  0.02029900  0.12383500  1
  Al  Al10  1  0.69554700  0.67524800  0.12383500  1
  Al  Al11  1  0.66666700  0.33333300  0.27161000  1
  Al  Al12  1  0.00000000  0.00000000  0.75000000  1
  Al  Al13  1  0.66666700  0.33333300  0.76665800  1
  Al  Al14  1  0.98373600  0.65485300  0.62322400  1
  Al  Al15  1  0.67111700  0.01626400  0.62322400  1
  Al  Al16  1  0.97970100  0.30445300  0.12383500  1
  B  B0  1  0.33333300  0.66666700  0.50686800  1
  B  B1  1  0.33333300  0.66666700  0.01312000  1
  B  B2  1  0.00000000  0.00000000  0.98939800  1
  B  B3  1  0.00000000  0.00000000  0.51060200  1
  B  B4  1  0.66666700  0.33333300  0.48688000  1
  B  B5  1  0.66666700  0.33333300  0.99313200  1
  C  C0  1  0.00000000  0.66297800  0.75000000  1
  C  C1  1  0.33333300  0.66666700  0.59690000  1
  C  C2  1  0.33333300  0.66666700  0.41806000  1
  C  C3  1  0.33333300  0.66666700  0.10256700  1
  C  C4  1  0.33333300  0.66666700  0.92403300  1
  C  C5  1  0.00000000  0.00000000  0.59950400  1
  C  C6  1  0.00000000  0.00000000  0.90049600  1
  C  C7  1  0.33702200  0.33702200  0.75000000  1
  C  C8  1  0.66297800  0.00000000  0.75000000  1
  C  C9  1  0.31410300  0.00000000  0.25000000  1
  C  C10  1  0.68589700  0.68589700  0.25000000  1
  C  C11  1  0.00000000  0.00000000  0.42254700  1
  C  C12  1  0.66666700  0.33333300  0.08194000  1
  C  C13  1  0.66666700  0.33333300  0.57596700  1
  C  C14  1  0.66666700  0.33333300  0.39743300  1
  C  C15  1  0.66666700  0.33333300  0.90310000  1
  C  C16  1  0.00000000  0.31410300  0.25000000  1
  C  C17  1  0.00000000  0.00000000  0.07745300  1
loop_
_geom_bond_atom_site_label_1
_geom_bond_atom_site_label_2
_geom_bond_distance
_geom_bond_site_symmetry_2
Al0 C6 2.001819 1_565
Al0 C4 2.010447 1_555
Al0 C15 2.047500 1_455
Al0 C0 2.048499 1_555
Al1 C11 1.982325 1_565
Al1 C2 2.029168 1_555
Al1 C9 2.039565 1_565
Al1 C14 2.113452 1_565
Al2 C11 1.982325 1_555
Al2 C2 2.029171 1_555
Al2 C16 2.039565 1_555
Al2 C14 2.113449 1_455
Al3 C9 2.030249 1_565
Al3 C16 2.030252 1_555
Al3 C10 2.030255 1_555
Al3 C3 2.031469 1_555
Al4 C0 1.949668 1_555
Al4 C8 1.949671 1_565
Al4 C7 1.949674 1_555
Al4 C1 2.202917 1_555
Al5 C6 2.001819 1_555
Al5 C4 2.010452 1_555
Al5 C15 2.047502 1_555
Al5 C7 2.048499 1_555
Al6 C6 2.001819 1_665
Al6 C4 2.010450 1_555
Al6 C15 2.047497 1_565
Al6 C8 2.048499 1_565
Al7 C5 2.001819 1_555
Al7 C13 2.010452 1_555
Al7 C1 2.047503 1_555
Al7 C7 2.048499 1_555
Al8 C11 1.982325 1_665
Al8 C2 2.029173 1_555
Al8 C10 2.039565 1_555
Al8 C14 2.113455 1_555
Al9 C17 1.982325 1_555
Al9 C12 2.029171 1_555
Al9 C9 2.039565 1_555
Al9 C3 2.113449 1_545
Al10 C17 1.982325 1_665
Al10 C12 2.029173 1_555
Al10 C10 2.039565 1_555
Al10 C3 2.113455 1_555
Al11 C16 2.030249 1_655
Al11 C9 2.030252 1_555
Al11 C10 2.030255 1_555
Al11 C14 2.031469 1_555
Al12 C8 1.963171 1_455
Al12 C7 1.963171 1_555
Al12 C0 1.963171 1_545
Al12 C6 2.429825 1_555
Al12 C5 2.429825 1_555
Al13 C8 1.949668 1_555
Al13 C0 1.949671 1_655
Al13 C7 1.949673 1_555
Al13 C15 2.202917 1_555
Al14 C5 2.001819 1_665
Al14 C13 2.010450 1_555
Al14 C1 2.047497 1_655
Al14 C0 2.048499 1_655
Al15 C5 2.001819 1_655
Al15 C13 2.010447 1_555
Al15 C1 2.047500 1_545
Al15 C8 2.048499 1_555
Al16 C17 1.982325 1_655
Al16 C12 2.029168 1_555
Al16 C16 2.039565 1_655
Al16 C3 2.113452 1_655
B0 C2 1.433845 1_555
B0 C1 1.453607 1_555
B1 C4 1.438350 1_554
B1 C3 1.444162 1_555
B2 C17 1.421688 1_556
B2 C6 1.435363 1_555
B3 C11 1.421688 1_555
B3 C5 1.435363 1_555
B4 C13 1.438350 1_555
B4 C14 1.444162 1_555
B5 C12 1.433845 1_556
B5 C15 1.453607 1_555
