# generated using pymatgen
data_RbSbWO6
_symmetry_space_group_name_H-M   'P 1'
_cell_length_a   7.38701733
_cell_length_b   7.38701733
_cell_length_c   7.38701733
_cell_angle_alpha   120.74654391
_cell_angle_beta   119.73566413
_cell_angle_gamma   89.58514609
_symmetry_Int_Tables_number   1
_chemical_formula_structural   RbSbWO6
_chemical_formula_sum   'Rb2 Sb2 W2 O12'
_cell_volume   283.95649374
_cell_formula_units_Z   2
loop_
 _symmetry_equiv_pos_site_id
 _symmetry_equiv_pos_as_xyz
  1  'x, y, z'
loop_
 _atom_site_type_symbol
 _atom_site_label
 _atom_site_symmetry_multiplicity
 _atom_site_fract_x
 _atom_site_fract_y
 _atom_site_fract_z
 _atom_site_occupancy
  Rb  Rb0  1  0.67718900  0.39211800  0.78507000  1
  Rb  Rb1  1  0.39295200  0.60788200  0.28507000  1
  Sb  Sb0  1  0.00113300  0.50000000  0.50113300  1
  Sb  Sb1  1  0.00113300  0.00000000  0.00113300  1
  W  W0  1  0.50170100  0.99942800  0.00227400  1
  W  W1  1  0.00284600  0.00057200  0.50227400  1
  O  O0  1  0.07253800  0.32438900  0.24814900  1
  O  O1  1  0.69157300  0.94095300  0.25061900  1
  O  O2  1  0.06455000  0.93235400  0.25262300  1
  O  O3  1  0.68106400  0.31184600  0.24671800  1
  O  O4  1  0.68106400  0.93434600  0.86921900  1
  O  O5  1  0.06455000  0.31192700  0.63219500  1
  O  O6  1  0.92376000  0.67561100  0.74814900  1
  O  O7  1  0.30966600  0.05904700  0.75061900  1
  O  O8  1  0.93487200  0.06565400  0.74671800  1
  O  O9  1  0.32026800  0.68807300  0.75262300  1
  O  O10  1  0.32026800  0.06764600  0.13219500  1
  O  O11  1  0.93487200  0.68815400  0.36921900  1
loop_
_geom_bond_atom_site_label_1
_geom_bond_atom_site_label_2
_geom_bond_distance
_geom_bond_site_symmetry_2
O0 Sb1 1.985602 1_555
O0 Sb0 1.985602 1_555
O0 Rb1 2.984889 1_555
O0 Rb0 3.507072 1_454
O1 W0 1.941214 1_555
O1 W1 1.968289 1_665
O1 Rb1 3.501447 1_555
O2 W1 1.934685 1_565
O2 Sb1 2.000729 1_565
O2 Rb1 3.407923 1_555
O2 Rb0 3.508711 1_454
O3 W0 1.937052 1_545
O3 Sb0 2.005694 1_655
O3 Rb1 3.047841 1_555
O4 W0 1.937052 1_556
O4 Sb1 2.005695 1_666
O4 Rb1 3.047846 1_555
O5 W1 1.934686 1_555
O5 Sb0 2.000724 1_555
O5 Rb1 3.407928 1_556
O5 Rb0 3.508711 1_455
O6 Sb0 1.985602 1_655
O6 Sb1 1.985602 1_666
O6 Rb0 2.984884 1_555
O6 Rb1 3.507075 1_555
O7 W1 1.941211 1_555
O7 W0 1.968292 1_546
O7 Rb0 3.501447 1_555
O8 W1 1.937051 1_655
O8 Sb1 2.005694 1_656
O8 Rb0 3.047836 1_555
O9 W0 1.934685 1_556
O9 Sb0 2.000724 1_555
O9 Rb0 3.407934 1_555
O9 Rb1 3.508718 1_555
O10 W0 1.934679 1_545
O10 Sb1 2.000724 1_555
O10 Rb0 3.407929 1_555
O10 Rb1 3.508711 1_555
O11 W1 1.937052 1_665
O11 Sb0 2.005688 1_655
O11 Rb0 3.047847 1_554
