# generated using pymatgen
data_NaPb2IO6
_symmetry_space_group_name_H-M   'P 1'
_cell_length_a   5.98998820
_cell_length_b   5.68810081
_cell_length_c   8.20896502
_cell_angle_alpha   90.00000000
_cell_angle_beta   89.15877737
_cell_angle_gamma   90.00000000
_symmetry_Int_Tables_number   1
_chemical_formula_structural   NaPb2IO6
_chemical_formula_sum   'Na2 Pb4 I2 O12'
_cell_volume   279.66289297
_cell_formula_units_Z   2
loop_
 _symmetry_equiv_pos_site_id
 _symmetry_equiv_pos_as_xyz
  1  'x, y, z'
loop_
 _atom_site_type_symbol
 _atom_site_label
 _atom_site_symmetry_multiplicity
 _atom_site_fract_x
 _atom_site_fract_y
 _atom_site_fract_z
 _atom_site_occupancy
  Na  Na0  1  0.50000000  0.50000000  0.50000000  1
  Na  Na1  1  -0.00000000  -0.00000000  -0.00000000  1
  Pb  Pb0  1  0.50693914  0.98609212  0.75737183  1
  Pb  Pb1  1  0.99306086  0.48609212  0.74262817  1
  Pb  Pb2  1  0.49306086  0.01390788  0.24262817  1
  Pb  Pb3  1  0.00693914  0.51390788  0.25737183  1
  I  I0  1  0.50000000  0.50000000  -0.00000000  1
  I  I1  1  -0.00000000  -0.00000000  0.50000000  1
  O  O0  1  0.43047546  0.53171985  0.77870165  1
  O  O1  1  0.06952454  0.03171985  0.72129835  1
  O  O2  1  0.56952454  0.46828015  0.22129835  1
  O  O3  1  0.93047546  0.96828015  0.27870165  1
  O  O4  1  0.80467138  0.25734643  0.52293116  1
  O  O5  1  0.69532862  0.75734643  0.97706884  1
  O  O6  1  0.19532862  0.74265357  0.47706884  1
  O  O7  1  0.30467138  0.24265357  0.02293116  1
  O  O8  1  0.76723911  0.78951176  0.55473508  1
  O  O9  1  0.73276089  0.28951176  0.94526492  1
  O  O10  1  0.23276089  0.21048824  0.44526492  1
  O  O11  1  0.26723911  0.71048824  0.05473508  1
loop_
_geom_bond_atom_site_label_1
_geom_bond_atom_site_label_2
_geom_bond_distance
_geom_bond_site_symmetry_2
Na0 O6 2.298070 1_555
Na0 O4 2.298070 1_555
Na0 O0 2.326430 1_555
Na0 O2 2.326430 1_555
Na0 O8 2.344631 1_555
Na0 O10 2.344631 1_555
Na1 O7 2.298070 1_555
Na1 O5 2.298070 1_444
Na1 O3 2.326430 1_445
Na1 O1 2.326430 1_554
Na1 O11 2.344631 1_545
Na1 O9 2.344631 1_454
I0 O2 1.878389 1_555
I0 O0 1.878389 1_554
I0 O5 1.881662 1_554
I0 O7 1.881662 1_555
I0 O11 1.887024 1_555
I0 O9 1.887024 1_554
I1 O1 1.878389 1_555
I1 O3 1.878389 1_445
I1 O4 1.881662 1_455
I1 O6 1.881662 1_545
I1 O10 1.887024 1_555
I1 O8 1.887024 1_445
O0 Pb0 2.630171 1_555
O0 Pb1 2.653827 1_455
O1 Pb1 2.630171 1_455
O1 Pb0 2.653827 1_545
O2 Pb2 2.630171 1_555
O2 Pb3 2.653827 1_655
O3 Pb3 2.630171 1_655
O3 Pb2 2.653827 1_565
O4 Pb1 2.505724 1_555
O5 Pb0 2.505724 1_555
O6 Pb3 2.505724 1_555
O7 Pb2 2.505724 1_555
O8 Pb0 2.524333 1_555
O8 Pb1 2.692335 1_555
O9 Pb1 2.524333 1_555
O9 Pb0 2.692335 1_545
O10 Pb2 2.524333 1_555
O10 Pb3 2.692335 1_555
O11 Pb3 2.524333 1_555
O11 Pb2 2.692335 1_565
