# generated using pymatgen
data_Ca2AlFeO5
_symmetry_space_group_name_H-M   'P 1'
_cell_length_a   5.30985200
_cell_length_b   5.44750300
_cell_length_c   15.04272700
_cell_angle_alpha   90.00000000
_cell_angle_beta   90.00000000
_cell_angle_gamma   90.00000000
_symmetry_Int_Tables_number   1
_chemical_formula_structural   Ca2AlFeO5
_chemical_formula_sum   'Ca8 Al4 Fe4 O20'
_cell_volume   435.11741754
_cell_formula_units_Z   4
loop_
 _symmetry_equiv_pos_site_id
 _symmetry_equiv_pos_as_xyz
  1  'x, y, z'
loop_
 _atom_site_type_symbol
 _atom_site_label
 _atom_site_symmetry_multiplicity
 _atom_site_fract_x
 _atom_site_fract_y
 _atom_site_fract_z
 _atom_site_occupancy
  Ca  Ca0  1  0.50856700  0.98092700  0.10528500  1
  Ca  Ca1  1  0.00856700  0.51907300  0.39471500  1
  Ca  Ca2  1  0.49143300  0.01907300  0.60528500  1
  Ca  Ca3  1  0.99143300  0.48092700  0.89471500  1
  Ca  Ca4  1  0.49143300  0.01907300  0.89471500  1
  Ca  Ca5  1  0.99143300  0.48092700  0.60528500  1
  Ca  Ca6  1  0.50856700  0.98092700  0.39471500  1
  Ca  Ca7  1  0.00856700  0.51907300  0.10528500  1
  Al  Al0  1  0.00000000  0.00000000  0.00000000  1
  Al  Al1  1  0.50000000  0.50000000  0.50000000  1
  Al  Al2  1  0.00000000  0.00000000  0.50000000  1
  Al  Al3  1  0.50000000  0.50000000  0.00000000  1
  Fe  Fe0  1  0.05163000  0.06083400  0.25000000  1
  Fe  Fe1  1  0.55163000  0.43916600  0.25000000  1
  Fe  Fe2  1  0.94837000  0.93916600  0.75000000  1
  Fe  Fe3  1  0.44837000  0.56083400  0.75000000  1
  O  O0  1  0.41842400  0.10796800  0.25000000  1
  O  O1  1  0.91842400  0.39203200  0.25000000  1
  O  O2  1  0.58157600  0.89203200  0.75000000  1
  O  O3  1  0.08157600  0.60796800  0.75000000  1
  O  O4  1  0.74824700  0.75186800  0.98861400  1
  O  O5  1  0.24824700  0.74813200  0.51138600  1
  O  O6  1  0.25175300  0.24813200  0.48861400  1
  O  O7  1  0.75175300  0.25186800  0.01138600  1
  O  O8  1  0.25175300  0.24813200  0.01138600  1
  O  O9  1  0.75175300  0.25186800  0.48861400  1
  O  O10  1  0.74824700  0.75186800  0.51138600  1
  O  O11  1  0.24824700  0.74813200  0.98861400  1
  O  O12  1  0.98523100  0.94214600  0.13499000  1
  O  O13  1  0.48523100  0.55785400  0.36501000  1
  O  O14  1  0.01476900  0.05785400  0.63499000  1
  O  O15  1  0.51476900  0.44214600  0.86501000  1
  O  O16  1  0.01476900  0.05785400  0.86501000  1
  O  O17  1  0.51476900  0.44214600  0.63499000  1
  O  O18  1  0.98523100  0.94214600  0.36501000  1
  O  O19  1  0.48523100  0.55785400  0.13499000  1
loop_
_geom_bond_atom_site_label_1
_geom_bond_atom_site_label_2
_geom_bond_distance
_geom_bond_site_symmetry_2
Ca0 O0 2.333875 1_565
Ca0 O19 2.350878 1_555
Ca0 O7 2.416814 1_565
Ca0 O8 2.444063 1_565
Ca0 O4 2.501376 1_554
Ca0 O11 2.568862 1_554
Ca0 O12 2.578825 1_555
Ca0 O12 2.822452 1_455
Ca1 O1 2.333875 1_455
Ca1 O18 2.350878 1_455
Ca1 O6 2.416814 1_555
Ca1 O9 2.444063 1_455
Ca1 O5 2.501376 1_555
Ca1 O10 2.568862 1_455
Ca1 O13 2.578825 1_555
Ca1 O13 2.822452 1_455
Ca2 O2 2.333875 1_545
Ca2 O17 2.350878 1_555
Ca2 O5 2.416814 1_545
Ca2 O10 2.444063 1_545
Ca2 O6 2.501376 1_555
Ca2 O9 2.568862 1_555
Ca2 O14 2.578825 1_555
Ca2 O14 2.822452 1_655
Ca3 O3 2.333875 1_655
Ca3 O16 2.350878 1_655
Ca3 O4 2.416814 1_555
Ca3 O11 2.444063 1_655
Ca3 O7 2.501376 1_556
Ca3 O8 2.568862 1_656
Ca3 O15 2.578825 1_555
Ca3 O15 2.822452 1_655
Ca4 O2 2.333875 1_545
Ca4 O15 2.350878 1_555
Ca4 O11 2.416814 1_545
Ca4 O4 2.444063 1_545
Ca4 O8 2.501376 1_556
Ca4 O7 2.568862 1_556
Ca4 O16 2.578825 1_555
Ca4 O16 2.822452 1_655
Ca5 O3 2.333875 1_655
Ca5 O14 2.350878 1_655
Ca5 O10 2.416814 1_555
Ca5 O5 2.444063 1_655
Ca5 O9 2.501376 1_555
Ca5 O6 2.568862 1_655
Ca5 O17 2.578825 1_555
Ca5 O17 2.822452 1_655
Ca6 O0 2.333875 1_565
Ca6 O13 2.350878 1_555
Ca6 O9 2.416814 1_565
Ca6 O6 2.444063 1_565
Ca6 O10 2.501376 1_555
Ca6 O5 2.568862 1_555
Ca6 O18 2.578825 1_555
Ca6 O18 2.822452 1_455
Ca7 O1 2.333875 1_455
Ca7 O12 2.350878 1_455
Ca7 O8 2.416814 1_555
Ca7 O7 2.444063 1_455
Ca7 O11 2.501376 1_554
Ca7 O4 2.568862 1_454
Ca7 O19 2.578825 1_555
Ca7 O19 2.822452 1_455
Al0 O8 1.908765 1_555
Al0 O4 1.908765 1_444
Al0 O7 1.910339 1_455
Al0 O11 1.910339 1_544
Al0 O12 2.056425 1_445
Al0 O16 2.056425 1_554
Al1 O5 1.908765 1_555
Al1 O9 1.908765 1_555
Al1 O10 1.910339 1_555
Al1 O6 1.910339 1_555
Al1 O13 2.056425 1_555
Al1 O17 2.056425 1_555
Al2 O6 1.908765 1_555
Al2 O10 1.908765 1_445
Al2 O9 1.910339 1_455
Al2 O5 1.910339 1_545
Al2 O18 2.056425 1_445
Al2 O14 2.056425 1_555
Al3 O11 1.908765 1_554
Al3 O7 1.908765 1_555
Al3 O4 1.910339 1_554
Al3 O8 1.910339 1_555
Al3 O19 2.056425 1_555
Al3 O15 2.056425 1_554
Fe0 O18 1.880281 1_445
Fe0 O12 1.880281 1_445
Fe0 O1 1.937892 1_455
Fe0 O0 1.964474 1_555
Fe1 O19 1.880281 1_555
Fe1 O13 1.880281 1_555
Fe1 O0 1.937892 1_555
Fe1 O1 1.964474 1_555
Fe2 O14 1.880281 1_665
Fe2 O16 1.880281 1_665
Fe2 O3 1.937892 1_655
Fe2 O2 1.964474 1_555
Fe3 O17 1.880281 1_555
Fe3 O15 1.880281 1_555
Fe3 O2 1.937892 1_555
Fe3 O3 1.964474 1_555
