# generated using pymatgen
data_Dy(NiSb)2
_symmetry_space_group_name_H-M   'P 1'
_cell_length_a   4.40771200
_cell_length_b   4.40771200
_cell_length_c   9.90133500
_cell_angle_alpha   90.00000000
_cell_angle_beta   90.00000000
_cell_angle_gamma   90.00000000
_symmetry_Int_Tables_number   1
_chemical_formula_structural   Dy(NiSb)2
_chemical_formula_sum   'Dy2 Ni4 Sb4'
_cell_volume   192.36239452
_cell_formula_units_Z   2
loop_
 _symmetry_equiv_pos_site_id
 _symmetry_equiv_pos_as_xyz
  1  'x, y, z'
loop_
 _atom_site_type_symbol
 _atom_site_label
 _atom_site_symmetry_multiplicity
 _atom_site_fract_x
 _atom_site_fract_y
 _atom_site_fract_z
 _atom_site_occupancy
  Dy  Dy0  1  0.00000000  0.50000000  0.24133700  1
  Dy  Dy1  1  0.50000000  0.00000000  0.75866300  1
  Ni  Ni0  1  0.00000000  0.00000000  0.00000000  1
  Ni  Ni1  1  0.50000000  0.50000000  0.00000000  1
  Ni  Ni2  1  0.00000000  0.50000000  0.62480600  1
  Ni  Ni3  1  0.50000000  0.00000000  0.37519400  1
  Sb  Sb0  1  0.00000000  0.00000000  0.50000000  1
  Sb  Sb1  1  0.50000000  0.50000000  0.50000000  1
  Sb  Sb2  1  0.00000000  0.50000000  0.87301300  1
  Sb  Sb3  1  0.50000000  0.00000000  0.12698700  1
loop_
_geom_bond_atom_site_label_1
_geom_bond_atom_site_label_2
_geom_bond_distance
_geom_bond_site_symmetry_2
Dy0 Ni0 3.250688 1_555
Dy0 Ni0 3.250688 1_565
Dy0 Ni1 3.250688 1_455
Dy0 Ni1 3.250688 1_555
Dy0 Sb3 3.316004 1_465
Dy0 Sb3 3.316004 1_455
Dy0 Sb3 3.316004 1_565
Dy0 Sb3 3.316004 1_555
Dy0 Sb0 3.378796 1_555
Dy0 Sb0 3.378796 1_565
Dy0 Sb1 3.378796 1_555
Dy0 Sb1 3.378796 1_455
Dy0 Ni3 3.386820 1_455
Dy0 Ni3 3.386820 1_565
Dy0 Ni3 3.386820 1_465
Dy0 Ni3 3.386820 1_555
Dy1 Ni1 3.250688 1_546
Dy1 Ni0 3.250688 1_556
Dy1 Ni0 3.250688 1_656
Dy1 Ni1 3.250688 1_556
Dy1 Sb2 3.316004 1_645
Dy1 Sb2 3.316004 1_555
Dy1 Sb2 3.316004 1_655
Dy1 Sb2 3.316004 1_545
Dy1 Sb0 3.378796 1_555
Dy1 Sb1 3.378796 1_545
Dy1 Sb1 3.378796 1_555
Dy1 Sb0 3.378796 1_655
Dy1 Ni2 3.386820 1_655
Dy1 Ni2 3.386820 1_555
Dy1 Ni2 3.386820 1_645
Dy1 Ni2 3.386820 1_545
Ni0 Sb3 2.537299 1_455
Ni0 Sb2 2.537299 1_544
Ni0 Sb3 2.537299 1_555
Ni0 Sb2 2.537299 1_554
Ni1 Sb3 2.537299 1_555
Ni1 Sb2 2.537299 1_554
Ni1 Sb3 2.537299 1_565
Ni1 Sb2 2.537299 1_654
Ni2 Sb2 2.457581 1_555
Ni2 Sb0 2.526668 1_555
Ni2 Sb0 2.526668 1_565
Ni2 Sb1 2.526668 1_555
Ni2 Sb1 2.526668 1_455
Ni3 Sb3 2.457581 1_555
Ni3 Sb0 2.526668 1_555
Ni3 Sb0 2.526668 1_655
Ni3 Sb1 2.526668 1_545
Ni3 Sb1 2.526668 1_555
