# generated using pymatgen
data_ThU4(Cu4Pd)5
_symmetry_space_group_name_H-M   'P 1'
_cell_length_a   5.01084733
_cell_length_b   5.01084733
_cell_length_c   20.57040749
_cell_angle_alpha   83.00414873
_cell_angle_beta   90.00000000
_cell_angle_gamma   120.00000000
_symmetry_Int_Tables_number   1
_chemical_formula_structural   ThU4(Cu4Pd)5
_chemical_formula_sum   'Th1 U4 Cu20 Pd5'
_cell_volume   442.85113266
_cell_formula_units_Z   1
loop_
 _symmetry_equiv_pos_site_id
 _symmetry_equiv_pos_as_xyz
  1  'x, y, z'
loop_
 _atom_site_type_symbol
 _atom_site_label
 _atom_site_symmetry_multiplicity
 _atom_site_fract_x
 _atom_site_fract_y
 _atom_site_fract_z
 _atom_site_occupancy
  Th  Th0  1  0.39979559  0.79959117  0.80061324  1
  U  U0  1  0.99945657  0.99891313  0.00163030  1
  U  U1  1  0.59998790  0.19997580  0.20003631  1
  U  U2  1  0.19995808  0.39991617  0.40012575  1
  U  U3  1  0.80028254  0.60056508  0.59915238  1
  Cu  Cu0  1  0.47349801  0.45118009  0.07532190  1
  Cu  Cu1  1  0.07397932  0.65064978  0.27537091  1
  Cu  Cu2  1  0.67365843  0.85181658  0.47452499  1
  Cu  Cu3  1  0.27305631  0.05460076  0.67234293  1
  Cu  Cu4  1  0.87340745  0.24886716  0.87772539  1
  Cu  Cu5  1  0.47349801  0.94699602  0.07532190  1
  Cu  Cu6  1  0.07397932  0.14795863  0.27537091  1
  Cu  Cu7  1  0.67365843  0.34731686  0.47452499  1
  Cu  Cu8  1  0.27305631  0.54611262  0.67234293  1
  Cu  Cu9  1  0.87340745  0.74681490  0.87772539  1
  Cu  Cu10  1  0.27515347  0.55030694  0.17453960  1
  Cu  Cu11  1  0.87508340  0.75016681  0.37474979  1
  Cu  Cu12  1  0.47553931  0.95107861  0.57338208  1
  Cu  Cu13  1  0.07546750  0.15093499  0.77359751  1
  Cu  Cu14  1  0.67490191  0.34980382  0.97529427  1
  Cu  Cu15  1  0.97768208  0.45118009  0.07532190  1
  Cu  Cu16  1  0.57667046  0.65064978  0.27537091  1
  Cu  Cu17  1  0.17815814  0.85181658  0.47452499  1
  Cu  Cu18  1  0.78154445  0.05460076  0.67234293  1
  Cu  Cu19  1  0.37545971  0.24886716  0.87772539  1
  Pd  Pd0  1  0.34842599  0.69685199  0.95472202  1
  Pd  Pd1  1  0.15032902  0.30065805  0.54901293  1
  Pd  Pd2  1  0.75110251  0.50220501  0.74669248  1
  Pd  Pd3  1  0.95020422  0.90040845  0.14938733  1
  Pd  Pd4  1  0.54959812  0.09919623  0.35120565  1
loop_
_geom_bond_atom_site_label_1
_geom_bond_atom_site_label_2
_geom_bond_distance
_geom_bond_site_symmetry_2
Cu0 Cu10 2.478021 1_555
Cu0 Cu5 2.484458 1_555
Cu0 Cu15 2.484458 1_455
Cu0 Cu14 2.505506 1_554
Cu0 Cu5 2.526389 1_545
Cu0 Cu15 2.526389 1_555
Cu0 Pd0 2.844309 1_554
Cu0 U0 2.920564 1_445
Cu0 U0 2.920564 1_555
Cu0 Pd3 2.924484 1_445
Cu0 Pd3 2.924484 1_555
Cu0 U1 2.928956 1_555
Cu1 Cu11 2.483199 1_455
Cu1 Cu6 2.491939 1_565
Cu1 Cu16 2.491939 1_455
Cu1 Cu10 2.516334 1_555
Cu1 Cu16 2.518909 1_555
Cu1 Cu6 2.518909 1_555
Cu1 U2 2.927522 1_555
Cu1 U1 2.937885 1_565
Cu1 U1 2.937885 1_455
Cu1 Pd3 2.941620 1_455
Cu1 Pd4 2.943217 1_565
Cu1 Pd4 2.943217 1_455
Cu2 Cu7 2.482876 1_565
Cu2 Cu7 2.527971 1_555
Cu2 Pd4 2.891817 1_565
Cu2 U3 2.927874 1_555
Cu2 U2 2.928000 1_665
Cu2 U2 2.928000 1_555
Cu2 Pd1 2.928935 1_555
Cu2 Pd1 2.928935 1_665
Cu3 Cu8 2.462891 1_555
Cu3 Cu8 2.547956 1_545
Cu3 Pd1 2.886304 1_555
Cu3 U3 2.915412 1_555
Cu3 U3 2.915412 1_445
Cu3 Pd2 2.927550 1_445
Cu3 Pd2 2.927550 1_555
Cu3 Th0 2.998064 1_545
Cu4 Cu9 2.495140 1_555
Cu4 Cu9 2.515707 1_545
Cu4 U0 2.911589 1_546
Cu4 Pd0 2.955698 1_545
Cu4 Pd0 2.955698 1_655
Cu4 Th0 2.956947 1_545
Cu4 Th0 2.956947 1_655
Cu4 Pd2 3.032610 1_555
Cu5 Pd0 2.844309 1_554
Cu5 U0 2.920564 1_455
Cu5 U0 2.920564 1_555
Cu5 Pd3 2.924484 1_555
Cu5 Pd3 2.924484 1_455
Cu5 U1 2.928956 1_565
Cu6 U2 2.927522 1_555
Cu6 U1 2.937885 1_555
Cu6 U1 2.937885 1_455
Cu6 Pd3 2.941620 1_445
Cu6 Pd4 2.943217 1_555
Cu6 Pd4 2.943217 1_455
Cu7 Pd4 2.891817 1_555
Cu7 U3 2.927874 1_555
Cu7 U2 2.928000 1_655
Cu7 U2 2.928000 1_555
Cu7 Pd1 2.928935 1_655
Cu7 Pd1 2.928935 1_555
Cu8 Pd1 2.886303 1_555
Cu8 U3 2.915412 1_555
Cu8 U3 2.915412 1_455
Cu8 Pd2 2.927550 1_455
Cu8 Pd2 2.927550 1_555
Cu8 Th0 2.998064 1_555
Cu9 U0 2.911589 1_556
Cu9 Pd0 2.955698 1_655
Cu9 Pd0 2.955698 1_555
Cu9 Th0 2.956947 1_555
Cu9 Th0 2.956947 1_655
Cu9 Pd2 3.032610 1_555
Cu10 Cu5 2.478021 1_555
Cu10 Cu15 2.478021 1_455
Cu10 Cu16 2.516334 1_555
Cu10 Cu6 2.516334 1_555
Cu10 Pd3 2.938015 1_555
Cu10 Pd3 2.938015 1_455
Cu10 Pd3 2.938015 1_445
Cu10 U1 2.939246 1_565
Cu10 U1 2.939246 1_455
Cu10 U1 2.939246 1_555
Cu11 Cu16 2.483199 1_555
Cu11 Cu6 2.483199 1_665
Cu11 Cu2 2.501861 1_555
Cu11 Cu17 2.501861 1_655
Cu11 Cu7 2.501861 1_555
Cu11 Pd4 2.932482 1_565
Cu11 Pd4 2.932482 1_665
Cu11 Pd4 2.932482 1_555
Cu11 U2 2.938812 1_555
Cu11 U2 2.938812 1_655
Cu11 U2 2.938812 1_665
Cu12 Cu2 2.471507 1_555
Cu12 Cu7 2.471507 1_565
Cu12 Cu17 2.471507 1_555
Cu12 Cu8 2.495194 1_555
Cu12 Cu18 2.495194 1_565
Cu12 Cu3 2.495194 1_565
Cu12 Pd1 2.935276 1_665
Cu12 Pd1 2.935276 1_555
Cu12 Pd1 2.935276 1_565
Cu12 U3 2.940235 1_555
Cu12 U3 2.940235 1_565
Cu12 U3 2.940235 1_455
Cu13 Cu3 2.504873 1_555
Cu13 Cu18 2.504873 1_455
Cu13 Cu8 2.504873 1_555
Cu13 Cu9 2.570371 1_445
Cu13 Cu19 2.570371 1_555
Cu13 Cu4 2.570371 1_455
Cu13 Pd2 2.944448 1_455
Cu13 Pd2 2.944448 1_445
Cu13 Pd2 2.944448 1_555
Cu13 Th0 2.944869 1_445
Cu13 Th0 2.944869 1_555
Cu13 Th0 2.944869 1_545
Cu14 Cu4 2.454331 1_555
Cu14 Cu9 2.454331 1_555
Cu14 Cu19 2.454331 1_555
Cu14 Cu5 2.505506 1_546
Cu14 Cu15 2.505506 1_556
Cu14 Pd0 2.923195 1_655
Cu14 Pd0 2.923195 1_545
Cu14 Pd0 2.923195 1_555
Cu14 U0 2.942314 1_446
Cu14 U0 2.942314 1_556
Cu14 U0 2.942314 1_546
Cu15 Cu5 2.484458 1_655
Cu15 Cu5 2.526389 1_545
Cu15 Pd0 2.844309 1_654
Cu15 U0 2.920564 1_555
Cu15 U0 2.920564 1_545
Cu15 Pd3 2.924484 1_545
Cu15 Pd3 2.924484 1_555
Cu15 U1 2.928956 1_555
Cu16 Cu6 2.491939 1_665
Cu16 Cu6 2.518909 1_555
Cu16 U2 2.927522 1_555
Cu16 U1 2.937885 1_565
Cu16 U1 2.937885 1_555
Cu16 Pd3 2.941620 1_555
Cu16 Pd4 2.943217 1_565
Cu16 Pd4 2.943217 1_555
Cu17 Cu7 2.482876 1_565
Cu17 Cu2 2.482876 1_555
Cu17 Cu2 2.527971 1_455
Cu17 Cu7 2.527971 1_455
Cu17 Pd4 2.891817 1_565
Cu17 U3 2.927874 1_455
Cu17 U2 2.928000 1_565
Cu17 U2 2.928000 1_555
Cu17 Pd1 2.928935 1_565
Cu17 Pd1 2.928935 1_555
Cu18 Cu8 2.462891 1_655
Cu18 Cu3 2.462891 1_655
Cu18 Cu8 2.547956 1_545
Cu18 Cu3 2.547956 1_555
Cu18 Pd1 2.886303 1_655
Cu18 U3 2.915412 1_545
Cu18 U3 2.915412 1_555
Cu18 Pd2 2.927550 1_555
Cu18 Pd2 2.927550 1_545
Cu18 Th0 2.998064 1_545
Cu19 Cu9 2.495140 1_555
Cu19 Cu4 2.495140 1_555
Cu19 Cu9 2.515707 1_445
Cu19 Cu4 2.515707 1_455
Cu19 U0 2.911589 1_446
Cu19 Pd0 2.955698 1_545
Cu19 Pd0 2.955698 1_555
Cu19 Th0 2.956947 1_555
Cu19 Th0 2.956947 1_545
Cu19 Pd2 3.032610 1_555
Pd0 U0 3.046669 1_456
Pd0 U0 3.046669 1_446
Pd0 U0 3.046669 1_556
Pd0 Th0 3.138573 1_555
Pd1 U2 3.032230 1_555
Pd1 U3 3.067939 1_455
Pd1 U3 3.067940 1_555
Pd1 U3 3.067940 1_445
Pd2 U3 3.004795 1_555
Pd2 Th0 3.094424 1_555
Pd2 Th0 3.094424 1_655
Pd2 Th0 3.094424 1_545
Pd3 U0 3.009213 1_555
Pd3 U1 3.071409 1_565
Pd3 U1 3.071409 1_555
Pd3 U1 3.071409 1_665
Pd4 U2 3.059764 1_545
Pd4 U2 3.059764 1_655
Pd4 U2 3.059764 1_555
Pd4 U1 3.078708 1_555
