# generated using pymatgen
data_KFe3H6(SO7)2
_symmetry_space_group_name_H-M   'P 1'
_cell_length_a   7.29195042
_cell_length_b   7.29195042
_cell_length_c   7.29195118
_cell_angle_alpha   61.12404566
_cell_angle_beta   61.12404566
_cell_angle_gamma   61.12405060
_symmetry_Int_Tables_number   1
_chemical_formula_structural   KFe3H6(SO7)2
_chemical_formula_sum   'K1 Fe3 H6 S2 O14'
_cell_volume   281.10343040
_cell_formula_units_Z   1
loop_
 _symmetry_equiv_pos_site_id
 _symmetry_equiv_pos_as_xyz
  1  'x, y, z'
loop_
 _atom_site_type_symbol
 _atom_site_label
 _atom_site_symmetry_multiplicity
 _atom_site_fract_x
 _atom_site_fract_y
 _atom_site_fract_z
 _atom_site_occupancy
  K  K0  1  0.00000000  0.00000000  0.00000000  1
  Fe  Fe0  1  0.00000000  0.00000000  0.50000000  1
  Fe  Fe1  1  0.50000000  0.00000000  0.00000000  1
  Fe  Fe2  1  0.00000000  0.50000000  0.00000000  1
  H  H0  1  0.69344300  0.28239800  0.69344300  1
  H  H1  1  0.69344300  0.69344300  0.28239800  1
  H  H2  1  0.28239800  0.69344300  0.69344300  1
  H  H3  1  0.30655700  0.71760200  0.30655700  1
  H  H4  1  0.30655700  0.30655700  0.71760200  1
  H  H5  1  0.71760200  0.30655700  0.30655700  1
  S  S0  1  0.69453200  0.69453200  0.69453200  1
  S  S1  1  0.30546800  0.30546800  0.30546800  1
  O  O0  1  0.38858300  0.38858300  0.38858300  1
  O  O1  1  0.61141700  0.61141700  0.61141700  1
  O  O2  1  0.83323800  0.50254100  0.83323800  1
  O  O3  1  0.83323800  0.83323800  0.50254100  1
  O  O4  1  0.50254100  0.83323800  0.83323800  1
  O  O5  1  0.16676200  0.49745900  0.16676200  1
  O  O6  1  0.16676200  0.16676200  0.49745900  1
  O  O7  1  0.49745900  0.16676200  0.16676200  1
  O  O8  1  0.73650100  0.12048100  0.73650100  1
  O  O9  1  0.73650100  0.73650100  0.12048100  1
  O  O10  1  0.12048100  0.73650100  0.73650100  1
  O  O11  1  0.26349900  0.87951900  0.26349900  1
  O  O12  1  0.26349900  0.26349900  0.87951900  1
  O  O13  1  0.87951900  0.26349900  0.26349900  1
loop_
_geom_bond_atom_site_label_1
_geom_bond_atom_site_label_2
_geom_bond_distance
_geom_bond_site_symmetry_2
K0 O12 2.908699 1_554
K0 O9 2.908699 1_445
K0 O13 2.908700 1_455
K0 O11 2.908700 1_545
K0 O8 2.908700 1_454
K0 O10 2.908700 1_544
K0 O4 3.034220 1_544
K0 O2 3.034220 1_454
K0 O7 3.034220 1_455
K0 O5 3.034220 1_545
K0 O6 3.034220 1_554
K0 O3 3.034220 1_445
Fe0 O10 2.017515 1_545
Fe0 O8 2.017515 1_455
Fe0 O13 2.017515 1_455
Fe0 O11 2.017515 1_545
Fe0 O6 2.083845 1_555
Fe0 O3 2.083845 1_445
Fe1 O8 2.017515 1_554
Fe1 O11 2.017515 1_545
Fe1 O9 2.017515 1_545
Fe1 O12 2.017515 1_554
Fe1 O7 2.083845 1_555
Fe1 O4 2.083845 1_544
Fe2 O10 2.017515 1_554
Fe2 O13 2.017515 1_455
Fe2 O9 2.017515 1_455
Fe2 O12 2.017515 1_554
Fe2 O5 2.083845 1_555
Fe2 O2 2.083845 1_454
H0 O8 0.985049 1_555
H1 O9 0.985049 1_555
H2 O10 0.985049 1_555
H3 O11 0.985049 1_555
H4 O12 0.985049 1_555
H5 O13 0.985049 1_555
O0 S1 1.471827 1_555
O1 S0 1.471827 1_555
O2 S0 1.502930 1_555
O3 S0 1.502929 1_555
O4 S0 1.502930 1_555
O5 S1 1.502930 1_555
O6 S1 1.502929 1_555
O7 S1 1.502930 1_555
