# generated using pymatgen
data_Na4Cd7(N5O6)6
_symmetry_space_group_name_H-M   'P 1'
_cell_length_a   12.14450537
_cell_length_b   12.14450537
_cell_length_c   12.14450537
_cell_angle_alpha   70.21058171
_cell_angle_beta   70.21058171
_cell_angle_gamma   109.78941829
_symmetry_Int_Tables_number   1
_chemical_formula_structural   Na4Cd7(N5O6)6
_chemical_formula_sum   'Na4 Cd7 N30 O36'
_cell_volume   1362.36562312
_cell_formula_units_Z   1
loop_
 _symmetry_equiv_pos_site_id
 _symmetry_equiv_pos_as_xyz
  1  'x, y, z'
loop_
 _atom_site_type_symbol
 _atom_site_label
 _atom_site_symmetry_multiplicity
 _atom_site_fract_x
 _atom_site_fract_y
 _atom_site_fract_z
 _atom_site_occupancy
  Na  Na0  1  0.50617623  0.00161742  -0.00161742  1
  Na  Na1  1  0.00161742  0.00161742  0.49382377  1
  Na  Na2  1  0.00161742  0.50617623  -0.00161742  1
  Na  Na3  1  0.52203288  0.52203288  0.47796712  1
  Cd  Cd0  1  0.75365037  0.96984472  0.03015528  1
  Cd  Cd1  1  0.96984472  0.96984472  0.24634963  1
  Cd  Cd2  1  0.96984472  0.75365037  0.03015528  1
  Cd  Cd3  1  0.23482267  0.23482267  0.76517733  1
  Cd  Cd4  1  0.23633215  0.99789777  0.00210223  1
  Cd  Cd5  1  0.99789777  0.23633215  0.00210223  1
  Cd  Cd6  1  0.99789777  0.99789777  0.76366785  1
  N  N0  1  0.99906317  0.26237501  0.73762499  1
  N  N1  1  0.26237501  0.26237501  0.00093683  1
  N  N2  1  0.26237501  0.99906317  0.73762499  1
  N  N3  1  0.73394601  0.73394601  0.99607981  1
  N  N4  1  0.73394601  0.00392019  0.26605399  1
  N  N5  1  0.00392019  0.73394601  0.26605399  1
  N  N6  1  0.26488359  0.00148352  0.26161553  1
  N  N7  1  0.00148352  0.73838447  0.73511641  1
  N  N8  1  0.73838447  0.26488359  0.99851648  1
  N  N9  1  0.26488359  0.73838447  0.99851648  1
  N  N10  1  0.00148352  0.26488359  0.26161553  1
  N  N11  1  0.73838447  0.00148352  0.73511641  1
  N  N12  1  0.73373867  0.46639839  0.26626133  1
  N  N13  1  0.26600556  0.26600556  0.46890259  1
  N  N14  1  0.73373867  0.73373867  0.53360161  1
  N  N15  1  0.26600556  0.53109741  0.73399444  1
  N  N16  1  0.53109741  0.26600556  0.73399444  1
  N  N17  1  0.46639839  0.73373867  0.26626133  1
  N  N18  1  0.99682604  0.34335826  0.65664174  1
  N  N19  1  0.34335826  0.34335826  0.00317396  1
  N  N20  1  0.34335826  0.99682604  0.65664174  1
  N  N21  1  0.64630040  0.64630040  0.00825585  1
  N  N22  1  0.64630040  0.99174415  0.35369960  1
  N  N23  1  0.99174415  0.64630040  0.35369960  1
  N  N24  1  0.00123158  0.17387850  0.82612150  1
  N  N25  1  0.17387850  0.17387850  0.99876842  1
  N  N26  1  0.17387850  0.00123158  0.82612150  1
  N  N27  1  0.82867823  0.82867823  0.98522256  1
  N  N28  1  0.82867823  0.01477744  0.17132177  1
  N  N29  1  0.01477744  0.82867823  0.17132177  1
  O  O0  1  0.15207352  0.00173061  0.30136257  1
  O  O1  1  0.00173061  0.69863743  0.84792648  1
  O  O2  1  0.69863743  0.15207352  0.99826939  1
  O  O3  1  0.15207352  0.69863743  0.99826939  1
  O  O4  1  0.00173061  0.15207352  0.30136257  1
  O  O5  1  0.69863743  0.00173061  0.84792648  1
  O  O6  1  0.84989612  0.52783457  0.15010388  1
  O  O7  1  0.31131758  0.31131758  0.53625042  1
  O  O8  1  0.84989612  0.84989612  0.47216543  1
  O  O9  1  0.31131758  0.46374958  0.68868242  1
  O  O10  1  0.46374958  0.31131758  0.68868242  1
  O  O11  1  0.52783457  0.84989612  0.15010388  1
  O  O12  1  0.32207152  0.00026003  0.32737451  1
  O  O13  1  0.00026003  0.67262549  0.67792848  1
  O  O14  1  0.67262549  0.32207152  0.99973997  1
  O  O15  1  0.32207152  0.67262549  0.99973997  1
  O  O16  1  0.00026003  0.32207152  0.32737451  1
  O  O17  1  0.67262549  0.00026003  0.67792848  1
  O  O18  1  0.66794131  0.34151044  0.33205869  1
  O  O19  1  0.32885346  0.32885346  0.34475298  1
  O  O20  1  0.66794131  0.66794131  0.65848956  1
  O  O21  1  0.32885346  0.65524702  0.67114654  1
  O  O22  1  0.65524702  0.32885346  0.67114654  1
  O  O23  1  0.34151044  0.66794131  0.33205869  1
  O  O24  1  0.31752506  0.00330730  0.14787006  1
  O  O25  1  0.00330730  0.85212994  0.68247494  1
  O  O26  1  0.85212994  0.31752506  0.99669270  1
  O  O27  1  0.31752506  0.85212994  0.99669270  1
  O  O28  1  0.00330730  0.31752506  0.14787006  1
  O  O29  1  0.85212994  0.00330730  0.68247494  1
  O  O30  1  0.70032215  0.54277057  0.29967785  1
  O  O31  1  0.15153530  0.15153530  0.53682275  1
  O  O32  1  0.70032215  0.70032215  0.45722943  1
  O  O33  1  0.15153530  0.46317725  0.84846470  1
  O  O34  1  0.46317725  0.15153530  0.84846470  1
  O  O35  1  0.54277057  0.70032215  0.29967785  1
loop_
_geom_bond_atom_site_label_1
_geom_bond_atom_site_label_2
_geom_bond_distance
_geom_bond_site_symmetry_2
Na0 O11 2.284035 1_545
Na0 O24 2.405405 1_555
Na0 O27 2.405405 1_544
Na0 O5 2.430252 1_554
Na0 O2 2.430252 1_554
Na0 O34 2.438322 1_554
Na1 O8 2.284035 1_445
Na1 O25 2.405405 1_545
Na1 O29 2.405405 1_455
Na1 O4 2.430252 1_555
Na1 O0 2.430252 1_555
Na1 O31 2.438322 1_555
Na2 O6 2.284035 1_455
Na2 O28 2.405405 1_555
Na2 O26 2.405405 1_454
Na2 O1 2.430252 1_554
Na2 O3 2.430252 1_554
Na2 O33 2.438322 1_554
Na3 O32 2.350931 1_555
Na3 O35 2.350931 1_555
Na3 O30 2.350931 1_555
Na3 O9 2.590563 1_555
Na3 O10 2.590563 1_555
Na3 O7 2.590563 1_555
Cd0 O11 2.217629 1_555
Cd0 N28 2.328458 1_565
Cd0 N27 2.328458 1_554
Cd0 O5 2.467814 1_564
Cd0 O2 2.467814 1_564
Cd0 N24 2.659540 1_664
Cd1 O8 2.217629 1_555
Cd1 N28 2.328458 1_565
Cd1 N29 2.328458 1_655
Cd1 O4 2.467814 1_665
Cd1 O0 2.467814 1_665
Cd1 N25 2.659540 1_664
Cd2 O6 2.217629 1_555
Cd2 N29 2.328458 1_655
Cd2 N27 2.328458 1_554
Cd2 O1 2.467814 1_654
Cd2 O3 2.467814 1_654
Cd2 N26 2.659540 1_664
Cd3 O7 2.318070 1_555
Cd3 O9 2.318070 1_555
Cd3 O10 2.318070 1_555
Cd3 N26 2.434935 1_555
Cd3 N25 2.434935 1_555
Cd3 N24 2.434935 1_555
Cd4 O34 2.287748 1_564
Cd4 O24 2.308107 1_565
Cd4 O27 2.308107 1_554
Cd4 N29 2.310468 1_555
Cd4 N25 2.490855 1_564
Cd4 N26 2.490855 1_564
Cd5 O33 2.287748 1_654
Cd5 O28 2.308107 1_655
Cd5 O26 2.308107 1_554
Cd5 N28 2.310468 1_555
Cd5 N25 2.490855 1_654
Cd5 N24 2.490855 1_654
Cd6 O31 2.287748 1_665
Cd6 O29 2.308107 1_565
Cd6 O25 2.308107 1_655
Cd6 N27 2.310468 1_555
Cd6 N26 2.490855 1_665
Cd6 N24 2.490855 1_665
N0 N18 1.147391 1_555
N0 N24 1.251817 1_655
N1 N19 1.147391 1_555
N1 N25 1.251817 1_554
N2 N20 1.147391 1_555
N2 N26 1.251817 1_565
N6 O12 1.222652 1_555
N6 O0 1.290714 1_555
N6 O24 1.299663 1_555
N7 O13 1.222652 1_555
N7 O1 1.290714 1_555
N7 O25 1.299663 1_555
N8 O14 1.222652 1_555
N8 O2 1.290714 1_555
N8 O26 1.299663 1_555
N9 O15 1.222652 1_555
N9 O3 1.290714 1_555
N9 O27 1.299663 1_555
N10 O16 1.222652 1_555
N10 O4 1.290714 1_555
N10 O28 1.299663 1_555
N11 O17 1.222652 1_555
N11 O5 1.290714 1_555
N11 O29 1.299663 1_555
N12 O18 1.226281 1_555
N12 O30 1.260112 1_555
N12 O6 1.328088 1_555
N13 O19 1.218793 1_555
N13 O7 1.295800 1_555
N13 O31 1.297713 1_555
N14 O20 1.226281 1_555
N14 O32 1.260112 1_555
N14 O8 1.328088 1_555
N15 O21 1.218793 1_555
N15 O9 1.295800 1_555
N15 O33 1.297713 1_555
N16 O22 1.218793 1_555
N16 O10 1.295800 1_555
N16 O34 1.297713 1_555
N17 O23 1.226281 1_555
N17 O35 1.260112 1_555
N17 O11 1.328088 1_555
N21 N3 1.143455 1_554
N22 N4 1.143455 1_565
N23 N5 1.143455 1_655
N27 N3 1.250158 1_555
N28 N4 1.250158 1_555
N29 N5 1.250158 1_555
