# generated using pymatgen
data_LaTmB12
_symmetry_space_group_name_H-M   'P 1'
_cell_length_a   5.82605925
_cell_length_b   5.82605925
_cell_length_c   5.82605925
_cell_angle_alpha   60.00000000
_cell_angle_beta   60.00000000
_cell_angle_gamma   60.00000000
_symmetry_Int_Tables_number   1
_chemical_formula_structural   LaTmB12
_chemical_formula_sum   'La1 Tm1 B12'
_cell_volume   139.83300547
_cell_formula_units_Z   1
loop_
 _symmetry_equiv_pos_site_id
 _symmetry_equiv_pos_as_xyz
  1  'x, y, z'
loop_
 _atom_site_type_symbol
 _atom_site_label
 _atom_site_symmetry_multiplicity
 _atom_site_fract_x
 _atom_site_fract_y
 _atom_site_fract_z
 _atom_site_occupancy
  La  La0  1  0.00000000  0.00000000  0.00000000  1
  Tm  Tm0  1  0.50000000  0.50000000  0.50000000  1
  B  B0  1  0.90037700  0.59962300  0.59962300  1
  B  B1  1  0.40037700  0.09962300  0.09962300  1
  B  B2  1  0.90037700  0.90037700  0.59962300  1
  B  B3  1  0.40037700  0.40037700  0.09962300  1
  B  B4  1  0.59962300  0.90037700  0.59962300  1
  B  B5  1  0.09962300  0.40037700  0.09962300  1
  B  B6  1  0.59962300  0.59962300  0.90037700  1
  B  B7  1  0.09962300  0.09962300  0.40037700  1
  B  B8  1  0.90037700  0.59962300  0.90037700  1
  B  B9  1  0.40037700  0.09962300  0.40037700  1
  B  B10  1  0.59962300  0.90037700  0.90037700  1
  B  B11  1  0.09962300  0.40037700  0.40037700  1
loop_
_geom_bond_atom_site_label_1
_geom_bond_atom_site_label_2
_geom_bond_distance
_geom_bond_site_symmetry_2
B0 B11 1.641646 1_655
B0 B8 1.752211 1_555
B0 B2 1.752211 1_555
B0 B6 1.752211 1_555
B0 B4 1.752211 1_555
B0 Tm0 3.026465 1_655
B0 Tm0 3.026465 1_555
B0 La0 3.026465 1_656
B0 La0 3.026465 1_665
B1 B10 1.641646 1_544
B1 B5 1.752211 1_555
B1 B9 1.752211 1_555
B1 B3 1.752211 1_555
B1 B7 1.752211 1_555
B1 La0 3.026465 1_555
B1 Tm0 3.026465 1_554
B1 La0 3.026465 1_655
B1 Tm0 3.026465 1_545
B2 B7 1.641646 1_665
B2 B8 1.752211 1_555
B2 B4 1.752211 1_555
B2 Tm0 3.026465 1_565
B2 La0 3.026465 1_666
B2 La0 3.026465 1_665
B2 Tm0 3.026465 1_655
B3 B6 1.641646 1_554
B3 B5 1.752211 1_555
B3 B9 1.752211 1_555
B3 Tm0 3.026465 1_555
B3 Tm0 3.026465 1_554
B3 La0 3.026465 1_565
B3 La0 3.026465 1_655
B4 B9 1.641646 1_565
B4 B6 1.752211 1_555
B4 Tm0 3.026465 1_565
B4 La0 3.026465 1_566
B4 Tm0 3.026465 1_555
B4 La0 3.026465 1_665
B5 B8 1.641646 1_454
B5 B7 1.752211 1_555
B5 La0 3.026465 1_555
B5 Tm0 3.026465 1_455
B5 Tm0 3.026465 1_554
B5 La0 3.026465 1_565
B6 B8 1.752211 1_555
B6 La0 3.026465 1_566
B6 La0 3.026465 1_656
B6 Tm0 3.026465 1_555
B6 Tm0 3.026465 1_556
B7 B9 1.752211 1_555
B7 Tm0 3.026465 1_545
B7 Tm0 3.026465 1_455
B7 La0 3.026465 1_555
B7 La0 3.026465 1_556
B8 Tm0 3.026465 1_556
B8 Tm0 3.026465 1_655
B8 La0 3.026465 1_656
B8 La0 3.026465 1_666
B9 Tm0 3.026465 1_555
B9 La0 3.026465 1_655
B9 Tm0 3.026465 1_545
B9 La0 3.026465 1_556
B10 B8 1.752211 1_555
B10 B2 1.752211 1_555
B10 B6 1.752211 1_555
B10 B4 1.752211 1_555
B10 Tm0 3.026465 1_565
B10 Tm0 3.026465 1_556
B10 La0 3.026465 1_566
B10 La0 3.026465 1_666
B11 B5 1.752211 1_555
B11 B3 1.752211 1_555
B11 B9 1.752211 1_555
B11 B7 1.752211 1_555
B11 Tm0 3.026465 1_455
B11 La0 3.026465 1_565
B11 Tm0 3.026465 1_555
B11 La0 3.026465 1_556
