# generated using pymatgen
data_SrMg6Si
_symmetry_space_group_name_H-M   'P 1'
_cell_length_a   4.90901800
_cell_length_b   6.05112800
_cell_length_c   13.52183800
_cell_angle_alpha   90.00000000
_cell_angle_beta   90.00000000
_cell_angle_gamma   90.00000000
_symmetry_Int_Tables_number   1
_chemical_formula_structural   SrMg6Si
_chemical_formula_sum   'Sr2 Mg12 Si2'
_cell_volume   401.66749957
_cell_formula_units_Z   2
loop_
 _symmetry_equiv_pos_site_id
 _symmetry_equiv_pos_as_xyz
  1  'x, y, z'
loop_
 _atom_site_type_symbol
 _atom_site_label
 _atom_site_symmetry_multiplicity
 _atom_site_fract_x
 _atom_site_fract_y
 _atom_site_fract_z
 _atom_site_occupancy
  Sr  Sr0  1  0.50000000  0.50000000  0.19763200  1
  Sr  Sr1  1  0.50000000  0.00000000  0.69763200  1
  Mg  Mg0  1  0.50000000  0.24468400  0.43682000  1
  Mg  Mg1  1  0.50000000  0.75531600  0.43682000  1
  Mg  Mg2  1  0.00000000  0.75456200  0.07547800  1
  Mg  Mg3  1  0.00000000  0.24543800  0.07547800  1
  Mg  Mg4  1  0.00000000  0.00000000  0.29972300  1
  Mg  Mg5  1  0.00000000  0.50000000  0.36278900  1
  Mg  Mg6  1  0.50000000  0.74468400  0.93682000  1
  Mg  Mg7  1  0.50000000  0.25531600  0.93682000  1
  Mg  Mg8  1  0.00000000  0.25456200  0.57547800  1
  Mg  Mg9  1  0.00000000  0.74543800  0.57547800  1
  Mg  Mg10  1  0.00000000  0.50000000  0.79972300  1
  Mg  Mg11  1  0.00000000  0.00000000  0.86278900  1
  Si  Si0  1  0.50000000  0.00000000  0.11525400  1
  Si  Si1  1  0.50000000  0.50000000  0.61525400  1
loop_
_geom_bond_atom_site_label_1
_geom_bond_atom_site_label_2
_geom_bond_distance
_geom_bond_site_symmetry_2
Mg0 Si1 2.865006 1_555
Mg0 Mg5 3.068152 1_555
Mg0 Mg5 3.068152 1_655
Mg0 Mg8 3.089252 1_555
Mg0 Mg8 3.089252 1_655
Mg0 Mg4 3.413711 1_655
Mg0 Mg4 3.413711 1_555
Mg0 Sr0 3.584315 1_555
Mg1 Si1 2.865006 1_555
Mg1 Mg5 3.068152 1_655
Mg1 Mg5 3.068152 1_555
Mg1 Mg9 3.089252 1_655
Mg1 Mg9 3.089252 1_555
Mg1 Mg4 3.413711 1_665
Mg1 Mg4 3.413711 1_565
Mg1 Sr0 3.584315 1_555
Mg2 Si0 2.918842 1_465
Mg2 Si0 2.918842 1_565
Mg2 Mg3 2.970354 1_565
Mg2 Mg3 3.080774 1_555
Mg2 Mg6 3.089252 1_554
Mg2 Mg6 3.089252 1_454
Mg2 Sr0 3.335517 1_455
Mg2 Sr0 3.335517 1_555
Mg2 Mg4 3.376391 1_565
Mg3 Si0 2.918842 1_555
Mg3 Si0 2.918842 1_455
Mg3 Mg7 3.089252 1_554
Mg3 Mg7 3.089252 1_454
Mg3 Sr0 3.335517 1_555
Mg3 Sr0 3.335517 1_455
Mg3 Mg4 3.376391 1_555
Mg4 Mg5 3.143446 1_555
Mg4 Mg5 3.143446 1_545
Mg5 Mg9 3.236791 1_555
Mg5 Mg8 3.236791 1_555
Mg5 Sr0 3.318420 1_455
Mg5 Sr0 3.318420 1_555
Mg6 Si0 2.865006 1_566
Mg6 Sr1 3.584315 1_565
Mg7 Si0 2.865006 1_556
Mg7 Sr1 3.584315 1_555
Mg8 Si1 2.918842 1_455
Mg8 Si1 2.918842 1_555
Mg8 Mg9 2.970354 1_555
Mg8 Mg9 3.080774 1_545
Mg8 Sr1 3.335517 1_455
Mg8 Sr1 3.335517 1_555
Mg9 Si1 2.918842 1_455
Mg9 Si1 2.918842 1_555
Mg9 Sr1 3.335517 1_565
Mg9 Sr1 3.335517 1_465
Mg10 Mg11 3.143446 1_555
Mg10 Mg11 3.143446 1_565
Mg10 Mg9 3.376391 1_555
Mg10 Mg8 3.376391 1_555
Mg10 Mg7 3.413711 1_555
Mg10 Mg7 3.413711 1_455
Mg10 Mg6 3.413711 1_455
Mg10 Mg6 3.413711 1_555
Mg11 Mg6 3.068152 1_445
Mg11 Mg6 3.068152 1_545
Mg11 Mg7 3.068152 1_455
Mg11 Mg7 3.068152 1_555
Mg11 Mg3 3.236791 1_556
Mg11 Mg2 3.236791 1_546
Mg11 Sr1 3.318420 1_555
Mg11 Sr1 3.318420 1_455
Si0 Sr0 3.224099 1_545
Si0 Sr0 3.224099 1_555
Si1 Sr1 3.224099 1_555
Si1 Sr1 3.224099 1_565
