# generated using pymatgen
data_Zr5Sb3As
_symmetry_space_group_name_H-M   'P 1'
_cell_length_a   5.94914297
_cell_length_b   8.63378363
_cell_length_c   8.63355594
_cell_angle_alpha   120.00071042
_cell_angle_beta   89.99844876
_cell_angle_gamma   90.00081691
_symmetry_Int_Tables_number   1
_chemical_formula_structural   Zr5Sb3As
_chemical_formula_sum   'Zr10 Sb6 As2'
_cell_volume   384.03675981
_cell_formula_units_Z   2
loop_
 _symmetry_equiv_pos_site_id
 _symmetry_equiv_pos_as_xyz
  1  'x, y, z'
loop_
 _atom_site_type_symbol
 _atom_site_label
 _atom_site_symmetry_multiplicity
 _atom_site_fract_x
 _atom_site_fract_y
 _atom_site_fract_z
 _atom_site_occupancy
  Zr  Zr0  1  0.49999512  0.33333993  0.66667467  1
  Zr  Zr1  1  0.50000184  0.66665918  0.33332605  1
  Zr  Zr2  1  0.00000291  0.66666436  0.33333148  1
  Zr  Zr3  1  -0.00000140  0.33333481  0.66666809  1
  Zr  Zr4  1  0.74999341  0.26277600  0.00001312  1
  Zr  Zr5  1  0.75000077  0.73722192  0.73722172  1
  Zr  Zr6  1  0.75000751  0.99998456  0.26276658  1
  Zr  Zr7  1  0.25000516  0.73723563  0.00000763  1
  Zr  Zr8  1  0.25000053  0.26279484  0.26276704  1
  Zr  Zr9  1  0.24999907  -0.00000314  0.73722581  1
  Sb  Sb0  1  0.75001373  0.60436118  -0.00000896  1
  Sb  Sb1  1  0.74999741  0.39561941  0.39560958  1
  Sb  Sb2  1  0.75000648  0.00000041  0.60436691  1
  Sb  Sb3  1  0.24997463  0.39564337  0.00001766  1
  Sb  Sb4  1  0.25000383  0.60438344  0.60438410  1
  Sb  Sb5  1  0.24999194  -0.00001585  0.39562470  1
  As  As0  1  0.50000325  -0.00000008  0.00000246  1
  As  As1  1  0.00000082  0.00000102  0.00000137  1
loop_
_geom_bond_atom_site_label_1
_geom_bond_atom_site_label_2
_geom_bond_distance
_geom_bond_site_symmetry_2
Sb0 Zr4 2.949268 1_555
Sb0 Zr6 3.010772 1_555
Sb0 Zr5 3.010797 1_554
Sb0 Zr3 3.038848 1_654
Sb0 Zr0 3.038945 1_554
Sb0 Zr1 3.038995 1_555
Sb0 Zr2 3.039025 1_655
Sb0 Zr7 3.188040 1_655
Sb0 Zr7 3.188166 1_555
Sb1 Zr5 2.949293 1_555
Sb1 Zr4 3.010500 1_555
Sb1 Zr6 3.010904 1_545
Sb1 Zr2 3.039017 1_655
Sb1 Zr1 3.039023 1_555
Sb1 Zr0 3.039107 1_555
Sb1 Zr3 3.039150 1_655
Sb1 Zr8 3.187988 1_555
Sb1 Zr8 3.187995 1_655
Sb2 Zr6 2.949157 1_545
Sb2 Zr4 3.010864 1_556
Sb2 Zr5 3.010867 1_545
Sb2 Zr2 3.039003 1_645
Sb2 Zr3 3.039016 1_655
Sb2 Zr1 3.039088 1_545
Sb2 Zr0 3.039119 1_555
Sb2 Zr9 3.188063 1_655
Sb2 Zr9 3.188087 1_555
Sb3 Zr7 2.949277 1_555
Sb3 Zr8 3.010555 1_555
Sb3 Zr9 3.010950 1_554
Sb3 Zr2 3.038751 1_555
Sb3 Zr1 3.038917 1_555
Sb3 Zr3 3.039041 1_554
Sb3 Zr0 3.039066 1_554
Sb3 Zr4 3.187980 1_455
Sb3 Zr4 3.188219 1_555
Sb4 Zr8 2.949254 1_555
Sb4 Zr7 3.010706 1_556
Sb4 Zr9 3.010731 1_565
Sb4 Zr1 3.039025 1_555
Sb4 Zr3 3.039072 1_555
Sb4 Zr0 3.039073 1_555
Sb4 Zr2 3.039088 1_555
Sb4 Zr5 3.188002 1_555
Sb4 Zr5 3.188009 1_455
Sb5 Zr9 2.949177 1_555
Sb5 Zr7 3.010630 1_545
Sb5 Zr8 3.011148 1_555
Sb5 Zr2 3.038919 1_545
Sb5 Zr1 3.039030 1_545
Sb5 Zr3 3.039086 1_555
Sb5 Zr0 3.039178 1_555
Sb5 Zr6 3.188010 1_445
Sb5 Zr6 3.188125 1_545
As0 Zr7 2.712704 1_545
As0 Zr4 2.712706 1_555
As0 Zr5 2.712749 1_544
As0 Zr6 2.712761 1_545
As0 Zr8 2.712768 1_555
As0 Zr9 2.712785 1_554
As1 Zr6 2.712670 1_445
As1 Zr9 2.712686 1_554
As1 Zr7 2.712772 1_545
As1 Zr4 2.712786 1_455
As1 Zr5 2.712789 1_444
As1 Zr8 2.712791 1_555
