# generated using pymatgen
data_VP2O7
_symmetry_space_group_name_H-M   'P 1'
_cell_length_a   6.36737800
_cell_length_b   9.48059272
_cell_length_c   10.59635347
_cell_angle_alpha   115.32051201
_cell_angle_beta   85.42210027
_cell_angle_gamma   106.45833627
_symmetry_Int_Tables_number   1
_chemical_formula_structural   VP2O7
_chemical_formula_sum   'V4 P8 O28'
_cell_volume   553.88901835
_cell_formula_units_Z   4
loop_
 _symmetry_equiv_pos_site_id
 _symmetry_equiv_pos_as_xyz
  1  'x, y, z'
loop_
 _atom_site_type_symbol
 _atom_site_label
 _atom_site_symmetry_multiplicity
 _atom_site_fract_x
 _atom_site_fract_y
 _atom_site_fract_z
 _atom_site_occupancy
  V  V0  1  0.62733300  0.50185800  0.24248700  1
  V  V1  1  0.37266700  0.49814200  0.75751300  1
  V  V2  1  0.73064700  0.09447900  0.22156300  1
  V  V3  1  0.26935300  0.90552100  0.77843700  1
  P  P0  1  0.94457000  0.81663400  0.21990600  1
  P  P1  1  0.30960100  0.79772500  0.03385900  1
  P  P2  1  0.89131500  0.55014800  0.69886400  1
  P  P3  1  0.10868500  0.44985200  0.30113600  1
  P  P4  1  0.05543000  0.18336600  0.78009400  1
  P  P5  1  0.40794300  0.67861600  0.53898400  1
  P  P6  1  0.69039900  0.20227500  0.96614100  1
  P  P7  1  0.59205700  0.32138400  0.46101600  1
  O  O0  1  0.19063300  0.54395800  0.45871800  1
  O  O1  1  0.92530300  0.26248200  0.91377100  1
  O  O2  1  0.06544200  0.88271300  0.35431800  1
  O  O3  1  0.42673100  0.67159100  0.68204200  1
  O  O4  1  0.12545800  0.05360400  0.81728700  1
  O  O5  1  0.72767900  0.67193500  0.19561600  1
  O  O6  1  0.73093900  0.10561400  0.05147900  1
  O  O7  1  0.94141600  0.51184600  0.26578000  1
  O  O8  1  0.64142100  0.14849400  0.40813700  1
  O  O9  1  0.59745400  0.65086100  0.44477600  1
  O  O10  1  0.68299600  0.52980000  0.78032300  1
  O  O11  1  0.45351400  0.91953200  0.16241700  1
  O  O12  1  0.31700400  0.47020000  0.21967700  1
  O  O13  1  0.98982700  0.72538500  0.71859000  1
  O  O14  1  0.27232100  0.32806500  0.80438400  1
  O  O15  1  0.80936700  0.45604200  0.54128200  1
  O  O16  1  0.93293400  0.10300000  0.64148500  1
  O  O17  1  0.26906100  0.89438600  0.94852100  1
  O  O18  1  0.35857900  0.85150600  0.59186300  1
  O  O19  1  0.07469700  0.73751800  0.08622900  1
  O  O20  1  0.01017300  0.27461500  0.28141000  1
  O  O21  1  0.39355700  0.65275100  0.94216500  1
  O  O22  1  0.60644300  0.34724900  0.05783500  1
  O  O23  1  0.87454200  0.94639600  0.18271300  1
  O  O24  1  0.05508100  0.47572700  0.72571000  1
  O  O25  1  0.40254600  0.34913900  0.55522400  1
  O  O26  1  0.57326900  0.32840900  0.31795800  1
  O  O27  1  0.55109300  0.06761200  0.83322400  1
loop_
_geom_bond_atom_site_label_1
_geom_bond_atom_site_label_2
_geom_bond_distance
_geom_bond_site_symmetry_2
O0 P3 1.567635 1_555
O0 P5 1.589326 1_555
O1 P4 1.584796 1_655
O1 P6 1.589220 1_555
O2 P0 1.466948 1_455
O3 P5 1.560929 1_555
O3 V1 2.054810 1_555
O3 V3 2.474742 1_555
O4 P4 1.619007 1_555
O4 V3 1.776018 1_545
O5 P0 1.592675 1_555
O5 V0 1.818082 1_555
O6 P6 1.613771 1_554
O6 V2 1.849708 1_555
O7 P3 1.492282 1_655
O7 V0 2.005225 1_555
O8 P7 1.605502 1_555
O8 V2 1.900827 1_555
O9 P5 1.511558 1_555
O9 V0 2.030658 1_555
O10 P2 1.535058 1_555
O10 V1 1.931617 1_555
O11 P1 1.510971 1_555
O11 V2 1.971439 1_565
O12 P3 1.535058 1_555
O12 V0 1.931617 1_555
O13 P2 1.526642 1_555
O13 V3 2.004502 1_655
O14 P4 1.592675 1_555
O14 V1 1.818082 1_555
O15 P2 1.567635 1_555
O15 P7 1.589326 1_555
O16 P4 1.495003 1_655
O17 P1 1.613771 1_556
O17 V3 1.849708 1_555
O18 P5 1.605502 1_555
O18 V3 1.900827 1_555
O19 P0 1.584796 1_455
O19 P1 1.589220 1_555
O20 P3 1.526642 1_555
O20 V2 2.004502 1_455
O21 P1 1.519884 1_556
O21 V1 1.863472 1_555
O22 P6 1.519884 1_554
O22 V0 1.863472 1_555
O23 P0 1.619007 1_555
O23 V2 1.776018 1_565
O24 P2 1.517234 1_455
O24 V1 2.012959 1_555
O25 P7 1.511558 1_555
O25 V1 2.030658 1_555
O26 P7 1.560929 1_555
O26 V0 2.054810 1_555
O26 V2 2.474742 1_555
O27 P6 1.555667 1_555
O27 V3 1.938512 1_545
