# generated using pymatgen
data_H9C2(N3O2)3
_symmetry_space_group_name_H-M   'P 1'
_cell_length_a   8.15359300
_cell_length_b   8.49741316
_cell_length_c   8.62472077
_cell_angle_alpha   105.05468824
_cell_angle_beta   95.37768034
_cell_angle_gamma   110.94696397
_symmetry_Int_Tables_number   1
_chemical_formula_structural   H9C2(N3O2)3
_chemical_formula_sum   'H18 C4 N18 O12'
_cell_volume   527.25461897
_cell_formula_units_Z   2
loop_
 _symmetry_equiv_pos_site_id
 _symmetry_equiv_pos_as_xyz
  1  'x, y, z'
loop_
 _atom_site_type_symbol
 _atom_site_label
 _atom_site_symmetry_multiplicity
 _atom_site_fract_x
 _atom_site_fract_y
 _atom_site_fract_z
 _atom_site_occupancy
  H  H0  1  0.40762800  0.84502300  0.98099200  1
  H  H1  1  0.59237200  0.15497700  0.01900800  1
  H  H2  1  0.48779000  0.35831100  0.59767300  1
  H  H3  1  0.51221000  0.64168900  0.40232700  1
  H  H4  1  0.74615700  0.99292400  0.85760000  1
  H  H5  1  0.25384300  0.00707600  0.14240000  1
  H  H6  1  0.15376900  0.61985600  0.03807200  1
  H  H7  1  0.84623100  0.38014400  0.96192800  1
  H  H8  1  0.72854900  0.70000300  0.82257300  1
  H  H9  1  0.27145100  0.29999700  0.17742700  1
  H  H10  1  0.11157600  0.63056800  0.84970900  1
  H  H11  1  0.88842400  0.36943200  0.15029100  1
  H  H12  1  0.55358300  0.30557100  0.75674000  1
  H  H13  1  0.44641700  0.69442900  0.24326000  1
  H  H14  1  0.29486900  0.38818800  0.78856400  1
  H  H15  1  0.70513100  0.61181200  0.21143600  1
  H  H16  1  0.81168000  0.98688900  0.04433600  1
  H  H17  1  0.18832000  0.01311100  0.95566400  1
  C  C0  1  0.07762400  0.78909900  0.50374100  1
  C  C1  1  0.92237600  0.21090100  0.49625900  1
  C  C2  1  0.48146800  0.64408300  0.87730700  1
  C  C3  1  0.51853200  0.35591700  0.12269300  1
  N  N0  1  0.36988400  0.70985500  0.94903900  1
  N  N1  1  0.63011600  0.29014500  0.05096100  1
  N  N2  1  0.64938900  0.75348700  0.88391600  1
  N  N3  1  0.35061100  0.24651300  0.11608400  1
  N  N4  1  0.42781900  0.46878900  0.80490900  1
  N  N5  1  0.57218100  0.53121100  0.19509100  1
  N  N6  1  0.54364100  0.40782000  0.72054200  1
  N  N7  1  0.45635900  0.59218000  0.27945800  1
  N  N8  1  0.18819900  0.59659900  0.92565400  1
  N  N9  1  0.81180100  0.40340100  0.07434600  1
  N  N10  1  0.70474100  0.93843900  0.94765900  1
  N  N11  1  0.29525900  0.06156100  0.05234100  1
  N  N12  1  0.94874600  0.78119100  0.59745000  1
  N  N13  1  0.05125400  0.21880900  0.40255000  1
  N  N14  1  0.07280600  0.81392300  0.35180300  1
  N  N15  1  0.92719400  0.18607700  0.64819700  1
  N  N16  1  0.24426500  0.78413900  0.57960800  1
  N  N17  1  0.75573500  0.21586100  0.42039200  1
  O  O0  1  0.24660700  0.63553500  0.56328600  1
  O  O1  1  0.75339300  0.36446500  0.43671400  1
  O  O2  1  0.98787500  0.76958300  0.73991900  1
  O  O3  1  0.01212500  0.23041700  0.26008100  1
  O  O4  1  0.80300800  0.78659200  0.54650900  1
  O  O5  1  0.19699200  0.21340800  0.45349100  1
  O  O6  1  0.94126700  0.82990500  0.28014900  1
  O  O7  1  0.05873300  0.17009500  0.71985100  1
  O  O8  1  0.20932600  0.81991300  0.28967700  1
  O  O9  1  0.79067400  0.18008700  0.71032300  1
  O  O10  1  0.36987300  0.92745800  0.65510200  1
  O  O11  1  0.63012700  0.07254200  0.34489800  1
loop_
_geom_bond_atom_site_label_1
_geom_bond_atom_site_label_2
_geom_bond_distance
_geom_bond_site_symmetry_2
H0 N0 1.028019 1_555
H1 N1 1.028019 1_555
H2 N6 1.023875 1_555
H3 N7 1.023875 1_555
H4 N10 1.027566 1_555
H5 N11 1.027566 1_555
H6 N8 1.024249 1_554
H7 N9 1.024249 1_556
H8 N2 1.025615 1_555
H9 N3 1.025615 1_555
H10 N8 1.026215 1_555
H11 N9 1.026215 1_555
H12 N6 1.022482 1_555
H13 N7 1.022482 1_555
H14 N4 1.026843 1_555
H15 N5 1.026843 1_555
H16 N10 1.026518 1_554
H17 N11 1.026518 1_556
C0 N12 1.377992 1_455
C0 N14 1.379535 1_555
C0 N16 1.471286 1_555
C1 N13 1.377992 1_655
C1 N15 1.379535 1_555
C1 N17 1.471286 1_555
C2 N2 1.337853 1_555
C2 N4 1.341544 1_555
C2 N0 1.346225 1_555
C3 N3 1.337853 1_555
C3 N5 1.341544 1_555
C3 N1 1.346225 1_555
N4 N6 1.404452 1_555
N5 N7 1.404452 1_555
N10 N2 1.404776 1_555
N11 N3 1.404776 1_555
N12 O4 1.248509 1_555
N12 O2 1.278021 1_555
N13 O5 1.248509 1_555
N13 O3 1.278021 1_555
N14 O6 1.254654 1_455
N14 O8 1.270512 1_555
N15 O7 1.254654 1_655
N15 O9 1.270512 1_555
N16 O10 1.235825 1_555
N16 O0 1.241016 1_555
N17 O11 1.235825 1_555
N17 O1 1.241016 1_555
