# generated using pymatgen
data_Mg16ScAl12
_symmetry_space_group_name_H-M   'P 1'
_cell_length_a   9.10149225
_cell_length_b   9.10149225
_cell_length_c   9.10149225
_cell_angle_alpha   109.47122063
_cell_angle_beta   109.47122063
_cell_angle_gamma   109.47122063
_symmetry_Int_Tables_number   1
_chemical_formula_structural   Mg16ScAl12
_chemical_formula_sum   'Mg16 Sc1 Al12'
_cell_volume   580.38465302
_cell_formula_units_Z   1
loop_
 _symmetry_equiv_pos_site_id
 _symmetry_equiv_pos_as_xyz
  1  'x, y, z'
loop_
 _atom_site_type_symbol
 _atom_site_label
 _atom_site_symmetry_multiplicity
 _atom_site_fract_x
 _atom_site_fract_y
 _atom_site_fract_z
 _atom_site_occupancy
  Mg  Mg0  1  0.60274400  0.31801800  0.00000000  1
  Mg  Mg1  1  0.31801800  0.60274400  0.00000000  1
  Mg  Mg2  1  0.34982300  0.00000000  0.00000000  1
  Mg  Mg3  1  0.00000000  0.34982300  0.00000000  1
  Mg  Mg4  1  0.39725600  0.39725600  0.71527400  1
  Mg  Mg5  1  0.28472600  0.68198200  0.68198200  1
  Mg  Mg6  1  0.68198200  0.28472600  0.68198200  1
  Mg  Mg7  1  0.65017700  0.65017700  0.65017700  1
  Mg  Mg8  1  0.00000000  0.31801800  0.60274400  1
  Mg  Mg9  1  0.31801800  0.00000000  0.60274400  1
  Mg  Mg10  1  0.39725600  0.71527400  0.39725600  1
  Mg  Mg11  1  0.71527400  0.39725600  0.39725600  1
  Mg  Mg12  1  0.00000000  0.00000000  0.34982300  1
  Mg  Mg13  1  0.60274400  0.00000000  0.31801800  1
  Mg  Mg14  1  0.00000000  0.60274400  0.31801800  1
  Mg  Mg15  1  0.68198200  0.68198200  0.28472600  1
  Sc  Sc0  1  0.00000000  0.00000000  0.00000000  1
  Al  Al0  1  0.63430800  0.81493100  0.00000000  1
  Al  Al1  1  0.81493100  0.63430800  0.00000000  1
  Al  Al2  1  0.18506900  0.18506900  0.81937700  1
  Al  Al3  1  0.63430800  0.00000000  0.81493100  1
  Al  Al4  1  0.00000000  0.63430800  0.81493100  1
  Al  Al5  1  0.81493100  0.00000000  0.63430800  1
  Al  Al6  1  0.00000000  0.81493100  0.63430800  1
  Al  Al7  1  0.36569200  0.18062300  0.36569200  1
  Al  Al8  1  0.18062300  0.36569200  0.36569200  1
  Al  Al9  1  0.18506900  0.81937700  0.18506900  1
  Al  Al10  1  0.81937700  0.18506900  0.18506900  1
  Al  Al11  1  0.36569200  0.36569200  0.18062300  1
loop_
_geom_bond_atom_site_label_1
_geom_bond_atom_site_label_2
_geom_bond_distance
_geom_bond_site_symmetry_2
Mg0 Mg2 3.038893 1_555
Mg0 Mg15 3.106042 1_555
Mg0 Mg4 3.106042 1_554
Mg0 Mg9 3.153141 1_554
Mg0 Mg14 3.153141 1_655
Mg0 Mg6 3.153141 1_554
Mg0 Mg11 3.153141 1_555
Mg1 Mg3 3.038893 1_555
Mg1 Mg15 3.106042 1_555
Mg1 Mg4 3.106042 1_554
Mg1 Mg13 3.153141 1_565
Mg1 Mg10 3.153141 1_555
Mg1 Mg8 3.153141 1_554
Mg1 Mg5 3.153141 1_554
Mg2 Mg5 3.038893 1_544
Mg2 Sc0 3.183911 1_555
Mg3 Mg6 3.038893 1_454
Mg3 Sc0 3.183911 1_555
Mg4 Mg7 3.038893 1_555
Mg4 Mg5 3.153141 1_555
Mg4 Mg6 3.153141 1_555
Mg4 Mg9 3.153141 1_555
Mg4 Mg8 3.153141 1_555
Mg5 Mg8 3.106042 1_555
Mg5 Mg9 3.153141 1_565
Mg6 Mg9 3.106042 1_555
Mg6 Mg8 3.153141 1_655
Mg7 Sc0 3.183911 1_666
Mg10 Mg7 3.038893 1_555
Mg10 Mg13 3.106042 1_565
Mg10 Mg9 3.106042 1_565
Mg10 Mg5 3.153141 1_555
Mg10 Mg15 3.153141 1_555
Mg10 Mg14 3.153141 1_555
Mg11 Mg7 3.038893 1_555
Mg11 Mg14 3.106042 1_655
Mg11 Mg8 3.106042 1_655
Mg11 Mg6 3.153141 1_555
Mg11 Mg15 3.153141 1_555
Mg11 Mg13 3.153141 1_555
Mg12 Mg9 3.038893 1_555
Mg12 Mg8 3.038893 1_555
Mg12 Mg15 3.038893 1_445
Mg12 Sc0 3.183911 1_555
Mg13 Mg2 3.038893 1_555
Mg13 Mg6 3.106042 1_555
Mg13 Mg15 3.153141 1_545
Mg13 Mg8 3.153141 1_655
Mg14 Mg3 3.038893 1_555
Mg14 Mg5 3.106042 1_555
Mg14 Mg15 3.153141 1_455
Mg14 Mg9 3.153141 1_565
Al0 Al1 2.684541 1_555
Al0 Al10 2.750620 1_565
Al0 Al3 2.750620 1_564
Al0 Mg1 2.882759 1_555
Al0 Mg5 2.987338 1_554
Al0 Mg13 2.987338 1_565
Al0 Mg7 3.110428 1_554
Al0 Mg12 3.110428 1_665
Al0 Mg15 3.171570 1_555
Al0 Mg4 3.171570 1_554
Al0 Sc0 3.190230 1_665
Al1 Al9 2.750620 1_655
Al1 Al4 2.750620 1_654
Al1 Mg0 2.882759 1_555
Al1 Mg6 2.987338 1_554
Al1 Mg14 2.987338 1_655
Al1 Mg7 3.110428 1_554
Al1 Mg12 3.110428 1_665
Al1 Mg15 3.171570 1_555
Al1 Mg4 3.171570 1_554
Al1 Sc0 3.190230 1_665
Al2 Al5 2.750620 1_455
Al2 Al6 2.750620 1_545
Al2 Mg4 2.882759 1_555
Al2 Mg8 2.987338 1_555
Al2 Mg9 2.987338 1_555
Al2 Mg3 3.110428 1_556
Al2 Mg2 3.110428 1_556
Al2 Mg0 3.171570 1_556
Al2 Mg1 3.171570 1_556
Al2 Sc0 3.190230 1_556
Al3 Al5 2.684541 1_555
Al3 Mg9 2.882759 1_555
Al3 Mg0 2.987338 1_556
Al3 Mg5 2.987338 1_545
Al3 Mg3 3.110428 1_656
Al3 Mg7 3.110428 1_545
Al3 Mg6 3.171570 1_555
Al3 Mg10 3.171570 1_545
Al3 Sc0 3.190230 1_656
Al4 Al6 2.684541 1_555
Al4 Al9 2.750620 1_556
Al4 Mg8 2.882759 1_555
Al4 Mg6 2.987338 1_455
Al4 Mg1 2.987338 1_556
Al4 Mg7 3.110428 1_455
Al4 Mg2 3.110428 1_566
Al4 Mg5 3.171570 1_555
Al4 Mg11 3.171570 1_455
Al4 Sc0 3.190230 1_566
Al5 Al6 2.750620 1_645
Al5 Mg13 2.882759 1_555
Al5 Mg15 2.987338 1_545
Al5 Mg8 2.987338 1_655
Al5 Mg3 3.110428 1_656
Al5 Mg7 3.110428 1_545
Al5 Mg10 3.171570 1_545
Al5 Mg6 3.171570 1_555
Al5 Sc0 3.190230 1_656
Al6 Mg14 2.882759 1_555
Al6 Mg9 2.987338 1_565
Al6 Mg15 2.987338 1_455
Al6 Mg7 3.110428 1_455
Al6 Mg2 3.110428 1_566
Al6 Mg5 3.171570 1_555
Al6 Mg11 3.171570 1_455
Al6 Sc0 3.190230 1_566
Al7 Al9 2.684541 1_545
Al7 Al8 2.750620 1_555
Al7 Mg6 2.882759 1_555
Al7 Mg11 2.987338 1_555
Al7 Mg4 2.987338 1_555
Al7 Mg2 3.110428 1_555
Al7 Mg12 3.110428 1_555
Al7 Mg13 3.171570 1_555
Al7 Mg9 3.171570 1_555
Al7 Sc0 3.190230 1_555
Al8 Mg5 2.882759 1_555
Al8 Mg10 2.987338 1_555
Al8 Mg4 2.987338 1_555
Al8 Mg12 3.110428 1_555
Al8 Mg3 3.110428 1_555
Al8 Mg8 3.171570 1_555
Al8 Mg14 3.171570 1_555
Al8 Sc0 3.190230 1_555
Al9 Mg10 2.882759 1_555
Al9 Mg1 2.987338 1_555
Al9 Mg14 2.987338 1_555
Al9 Mg2 3.110428 1_565
Al9 Mg12 3.110428 1_565
Al9 Mg13 3.171570 1_565
Al9 Mg9 3.171570 1_565
Al9 Sc0 3.190230 1_565
Al10 Al8 2.684541 1_655
Al10 Al3 2.750620 1_554
Al10 Mg11 2.882759 1_555
Al10 Mg0 2.987338 1_555
Al10 Mg13 2.987338 1_555
Al10 Mg12 3.110428 1_655
Al10 Mg3 3.110428 1_655
Al10 Mg8 3.171570 1_655
Al10 Mg14 3.171570 1_655
Al10 Sc0 3.190230 1_655
Al11 Al2 2.684541 1_554
Al11 Al7 2.750620 1_555
Al11 Al8 2.750620 1_555
Al11 Mg15 2.882759 1_555
Al11 Mg10 2.987338 1_555
Al11 Mg11 2.987338 1_555
Al11 Mg2 3.110428 1_555
Al11 Mg3 3.110428 1_555
Al11 Mg1 3.171570 1_555
Al11 Mg0 3.171570 1_555
Al11 Sc0 3.190230 1_555
