# generated using pymatgen
data_Ba(SbN2)2
_symmetry_space_group_name_H-M   'P 1'
_cell_length_a   11.52029700
_cell_length_b   11.52029700
_cell_length_c   11.52029700
_cell_angle_alpha   90.00000000
_cell_angle_beta   90.00000000
_cell_angle_gamma   90.00000000
_symmetry_Int_Tables_number   1
_chemical_formula_structural   Ba(SbN2)2
_chemical_formula_sum   'Ba12 Sb24 N48'
_cell_volume   1528.94205601
_cell_formula_units_Z   12
loop_
 _symmetry_equiv_pos_site_id
 _symmetry_equiv_pos_as_xyz
  1  'x, y, z'
loop_
 _atom_site_type_symbol
 _atom_site_label
 _atom_site_symmetry_multiplicity
 _atom_site_fract_x
 _atom_site_fract_y
 _atom_site_fract_z
 _atom_site_occupancy
  Ba  Ba0  1  0.50000000  0.50000000  0.00000000  1
  Ba  Ba1  1  0.50000000  0.00000000  0.50000000  1
  Ba  Ba2  1  0.00000000  0.50000000  0.50000000  1
  Ba  Ba3  1  0.00000000  0.00000000  0.00000000  1
  Ba  Ba4  1  0.12352100  0.87647900  0.37647900  1
  Ba  Ba5  1  0.87647900  0.37647900  0.12352100  1
  Ba  Ba6  1  0.37647900  0.12352100  0.87647900  1
  Ba  Ba7  1  0.62352100  0.62352100  0.62352100  1
  Ba  Ba8  1  0.87647900  0.12352100  0.62352100  1
  Ba  Ba9  1  0.12352100  0.62352100  0.87647900  1
  Ba  Ba10  1  0.62352100  0.87647900  0.12352100  1
  Ba  Ba11  1  0.37647900  0.37647900  0.37647900  1
  Sb  Sb0  1  0.39339000  0.70343000  0.34405200  1
  Sb  Sb1  1  0.60661000  0.20343000  0.15594800  1
  Sb  Sb2  1  0.10661000  0.29657000  0.84405200  1
  Sb  Sb3  1  0.89339000  0.79657000  0.65594800  1
  Sb  Sb4  1  0.34405200  0.39339000  0.70343000  1
  Sb  Sb5  1  0.15594800  0.60661000  0.20343000  1
  Sb  Sb6  1  0.84405200  0.10661000  0.29657000  1
  Sb  Sb7  1  0.65594800  0.89339000  0.79657000  1
  Sb  Sb8  1  0.70343000  0.34405200  0.39339000  1
  Sb  Sb9  1  0.20343000  0.15594800  0.60661000  1
  Sb  Sb10  1  0.29657000  0.84405200  0.10661000  1
  Sb  Sb11  1  0.79657000  0.65594800  0.89339000  1
  Sb  Sb12  1  0.60661000  0.29657000  0.65594800  1
  Sb  Sb13  1  0.39339000  0.79657000  0.84405200  1
  Sb  Sb14  1  0.89339000  0.70343000  0.15594800  1
  Sb  Sb15  1  0.10661000  0.20343000  0.34405200  1
  Sb  Sb16  1  0.65594800  0.60661000  0.29657000  1
  Sb  Sb17  1  0.84405200  0.39339000  0.79657000  1
  Sb  Sb18  1  0.15594800  0.89339000  0.70343000  1
  Sb  Sb19  1  0.34405200  0.10661000  0.20343000  1
  Sb  Sb20  1  0.29657000  0.65594800  0.60661000  1
  Sb  Sb21  1  0.79657000  0.84405200  0.39339000  1
  Sb  Sb22  1  0.70343000  0.15594800  0.89339000  1
  Sb  Sb23  1  0.20343000  0.34405200  0.10661000  1
  N  N0  1  0.37225300  0.85827500  0.26604500  1
  N  N1  1  0.62774700  0.35827500  0.23395500  1
  N  N2  1  0.12774700  0.14172500  0.76604500  1
  N  N3  1  0.87225300  0.64172500  0.73395500  1
  N  N4  1  0.26604500  0.37225300  0.85827500  1
  N  N5  1  0.23395500  0.62774700  0.35827500  1
  N  N6  1  0.76604500  0.12774700  0.14172500  1
  N  N7  1  0.73395500  0.87225300  0.64172500  1
  N  N8  1  0.85827500  0.26604500  0.37225300  1
  N  N9  1  0.35827500  0.23395500  0.62774700  1
  N  N10  1  0.14172500  0.76604500  0.12774700  1
  N  N11  1  0.64172500  0.73395500  0.87225300  1
  N  N12  1  0.62774700  0.14172500  0.73395500  1
  N  N13  1  0.37225300  0.64172500  0.76604500  1
  N  N14  1  0.87225300  0.85827500  0.23395500  1
  N  N15  1  0.12774700  0.35827500  0.26604500  1
  N  N16  1  0.73395500  0.62774700  0.14172500  1
  N  N17  1  0.76604500  0.37225300  0.64172500  1
  N  N18  1  0.23395500  0.87225300  0.85827500  1
  N  N19  1  0.26604500  0.12774700  0.35827500  1
  N  N20  1  0.14172500  0.73395500  0.62774700  1
  N  N21  1  0.64172500  0.76604500  0.37225300  1
  N  N22  1  0.85827500  0.23395500  0.87225300  1
  N  N23  1  0.35827500  0.26604500  0.12774700  1
  N  N24  1  0.42428900  0.73237400  0.51358700  1
  N  N25  1  0.57571100  0.23237400  0.98641300  1
  N  N26  1  0.07571100  0.26762600  0.01358700  1
  N  N27  1  0.92428900  0.76762600  0.48641300  1
  N  N28  1  0.51358700  0.42428900  0.73237400  1
  N  N29  1  0.98641300  0.57571100  0.23237400  1
  N  N30  1  0.01358700  0.07571100  0.26762600  1
  N  N31  1  0.48641300  0.92428900  0.76762600  1
  N  N32  1  0.73237400  0.51358700  0.42428900  1
  N  N33  1  0.23237400  0.98641300  0.57571100  1
  N  N34  1  0.26762600  0.01358700  0.07571100  1
  N  N35  1  0.76762600  0.48641300  0.92428900  1
  N  N36  1  0.57571100  0.26762600  0.48641300  1
  N  N37  1  0.42428900  0.76762600  0.01358700  1
  N  N38  1  0.92428900  0.73237400  0.98641300  1
  N  N39  1  0.07571100  0.23237400  0.51358700  1
  N  N40  1  0.48641300  0.57571100  0.26762600  1
  N  N41  1  0.01358700  0.42428900  0.76762600  1
  N  N42  1  0.98641300  0.92428900  0.73237400  1
  N  N43  1  0.51358700  0.07571100  0.23237400  1
  N  N44  1  0.26762600  0.48641300  0.57571100  1
  N  N45  1  0.76762600  0.01358700  0.42428900  1
  N  N46  1  0.73237400  0.98641300  0.92428900  1
  N  N47  1  0.23237400  0.51358700  0.07571100  1
loop_
_geom_bond_atom_site_label_1
_geom_bond_atom_site_label_2
_geom_bond_distance
_geom_bond_site_symmetry_2
Ba0 N37 3.207952 1_555
Ba0 N35 3.207952 1_554
Ba0 N40 3.207952 1_555
Ba0 N25 3.207952 1_554
Ba0 N47 3.207952 1_555
Ba0 N28 3.207952 1_554
Ba0 N16 3.477913 1_555
Ba0 N11 3.477913 1_554
Ba0 N1 3.477913 1_555
Ba0 N4 3.477913 1_554
Ba0 N23 3.477913 1_555
Ba0 N13 3.477913 1_554
Ba1 N31 3.207952 1_545
Ba1 N45 3.207952 1_555
Ba1 N36 3.207952 1_555
Ba1 N43 3.207952 1_555
Ba1 N33 3.207952 1_545
Ba1 N24 3.207952 1_545
Ba1 N12 3.477913 1_555
Ba1 N7 3.477913 1_545
Ba1 N9 3.477913 1_555
Ba1 N21 3.477913 1_545
Ba1 N0 3.477913 1_545
Ba1 N19 3.477913 1_555
Ba2 N27 3.207952 1_455
Ba2 N41 3.207952 1_555
Ba2 N39 3.207952 1_555
Ba2 N44 3.207952 1_555
Ba2 N29 3.207952 1_455
Ba2 N32 3.207952 1_455
Ba2 N20 3.477913 1_555
Ba2 N3 3.477913 1_455
Ba2 N5 3.477913 1_555
Ba2 N17 3.477913 1_455
Ba2 N15 3.477913 1_555
Ba2 N8 3.477913 1_455
Ba3 N30 3.207952 1_555
Ba3 N34 3.207952 1_555
Ba3 N26 3.207952 1_555
Ba3 N38 3.207952 1_444
Ba3 N46 3.207952 1_444
Ba3 N42 3.207952 1_444
Ba3 N2 3.477913 1_554
Ba3 N10 3.477913 1_545
Ba3 N6 3.477913 1_455
Ba3 N14 3.477913 1_445
Ba3 N22 3.477913 1_454
Ba3 N18 3.477913 1_544
Ba4 N30 2.905944 1_565
Ba4 N27 2.905944 1_455
Ba4 N33 2.905944 1_555
Ba4 N10 3.142205 1_555
Ba4 N0 3.142205 1_555
Ba4 N5 3.142205 1_555
Ba4 N14 3.334526 1_455
Ba4 N20 3.334526 1_555
Ba4 N19 3.334526 1_565
Ba5 N26 2.905944 1_655
Ba5 N35 2.905944 1_554
Ba5 N29 2.905944 1_555
Ba5 N6 3.142205 1_555
Ba5 N8 3.142205 1_555
Ba5 N1 3.142205 1_555
Ba5 N22 3.334526 1_554
Ba5 N16 3.334526 1_555
Ba5 N15 3.334526 1_655
Ba6 N34 2.905944 1_556
Ba6 N31 2.905944 1_545
Ba6 N25 2.905944 1_555
Ba6 N2 3.142205 1_555
Ba6 N4 3.142205 1_555
Ba6 N9 3.142205 1_555
Ba6 N18 3.334526 1_545
Ba6 N12 3.334526 1_555
Ba6 N23 3.334526 1_556
Ba7 N28 2.905944 1_555
Ba7 N32 2.905944 1_555
Ba7 N24 2.905944 1_555
Ba7 N7 3.142205 1_555
Ba7 N3 3.142205 1_555
Ba7 N11 3.142205 1_555
Ba7 N17 3.334526 1_555
Ba7 N13 3.334526 1_555
Ba7 N21 3.334526 1_555
Ba8 N42 2.905944 1_545
Ba8 N39 2.905944 1_655
Ba8 N45 2.905944 1_555
Ba8 N22 3.142205 1_555
Ba8 N12 3.142205 1_555
Ba8 N17 3.142205 1_555
Ba8 N7 3.334526 1_545
Ba8 N2 3.334526 1_655
Ba8 N8 3.334526 1_555
Ba9 N38 2.905944 1_455
Ba9 N47 2.905944 1_556
Ba9 N41 2.905944 1_555
Ba9 N18 3.142205 1_555
Ba9 N20 3.142205 1_555
Ba9 N13 3.142205 1_555
Ba9 N3 3.334526 1_455
Ba9 N10 3.334526 1_556
Ba9 N4 3.334526 1_555
Ba10 N46 2.905944 1_554
Ba10 N43 2.905944 1_565
Ba10 N37 2.905944 1_555
Ba10 N14 3.142205 1_555
Ba10 N16 3.142205 1_555
Ba10 N21 3.142205 1_555
Ba10 N11 3.334526 1_554
Ba10 N6 3.334526 1_565
Ba10 N0 3.334526 1_555
Ba11 N36 2.905944 1_555
Ba11 N44 2.905944 1_555
Ba11 N40 2.905944 1_555
Ba11 N15 3.142205 1_555
Ba11 N19 3.142205 1_555
Ba11 N23 3.142205 1_555
Ba11 N1 3.334526 1_555
Ba11 N5 3.334526 1_555
Ba11 N9 3.334526 1_555
N0 Sb0 2.012225 1_555
N0 Sb10 2.039767 1_555
N1 Sb1 2.012225 1_555
N1 Sb8 2.039767 1_555
N2 Sb2 2.012225 1_555
N2 Sb9 2.039767 1_555
N3 Sb3 2.012225 1_555
N3 Sb11 2.039767 1_555
N4 Sb4 2.012225 1_555
N4 Sb2 2.039767 1_555
N5 Sb5 2.012225 1_555
N5 Sb0 2.039767 1_555
N6 Sb6 2.012225 1_555
N6 Sb1 2.039767 1_555
N7 Sb7 2.012225 1_555
N7 Sb3 2.039767 1_555
N8 Sb8 2.012225 1_555
N8 Sb6 2.039767 1_555
N9 Sb9 2.012225 1_555
N9 Sb4 2.039767 1_555
N10 Sb10 2.012225 1_555
N10 Sb5 2.039767 1_555
N11 Sb11 2.012225 1_555
N11 Sb7 2.039767 1_555
N12 Sb12 2.012225 1_555
N12 Sb22 2.039767 1_555
N13 Sb13 2.012225 1_555
N13 Sb20 2.039767 1_555
N14 Sb14 2.012225 1_555
N14 Sb21 2.039767 1_555
N15 Sb15 2.012225 1_555
N15 Sb23 2.039767 1_555
N16 Sb16 2.012225 1_555
N16 Sb14 2.039767 1_555
N17 Sb17 2.012225 1_555
N17 Sb12 2.039767 1_555
N18 Sb18 2.012225 1_555
N18 Sb13 2.039767 1_555
N19 Sb19 2.012225 1_555
N19 Sb15 2.039767 1_555
N20 Sb20 2.012225 1_555
N20 Sb18 2.039767 1_555
N21 Sb21 2.012225 1_555
N21 Sb16 2.039767 1_555
N22 Sb22 2.012225 1_555
N22 Sb17 2.039767 1_555
N23 Sb23 2.012225 1_555
N23 Sb19 2.039767 1_555
N24 Sb0 2.013075 1_555
N24 Sb20 2.022012 1_555
N25 Sb1 2.013075 1_556
N25 Sb22 2.022012 1_555
N26 Sb2 2.013075 1_554
N26 Sb23 2.022012 1_555
N27 Sb3 2.013075 1_555
N27 Sb21 2.022012 1_555
N28 Sb4 2.013075 1_555
N28 Sb12 2.022012 1_555
N29 Sb5 2.013075 1_655
N29 Sb14 2.022012 1_555
N30 Sb6 2.013075 1_455
N30 Sb15 2.022012 1_555
N31 Sb7 2.013075 1_555
N31 Sb13 2.022012 1_555
N32 Sb8 2.013075 1_555
N32 Sb16 2.022012 1_555
N33 Sb9 2.013075 1_565
N33 Sb18 2.022012 1_555
N34 Sb10 2.013075 1_545
N34 Sb19 2.022012 1_555
N35 Sb11 2.013075 1_555
N35 Sb17 2.022012 1_555
N36 Sb12 2.013075 1_555
N36 Sb8 2.022012 1_555
N37 Sb13 2.013075 1_554
N37 Sb10 2.022012 1_555
N38 Sb14 2.013075 1_556
N38 Sb11 2.022012 1_555
N39 Sb15 2.013075 1_555
N39 Sb9 2.022012 1_555
N40 Sb16 2.013075 1_555
N40 Sb0 2.022012 1_555
N41 Sb17 2.013075 1_455
N41 Sb2 2.022012 1_555
N42 Sb18 2.013075 1_655
N42 Sb3 2.022012 1_555
N43 Sb19 2.013075 1_555
N43 Sb1 2.022012 1_555
N44 Sb20 2.013075 1_555
N44 Sb4 2.022012 1_555
N45 Sb21 2.013075 1_545
N45 Sb6 2.022012 1_555
N46 Sb22 2.013075 1_565
N46 Sb7 2.022012 1_555
N47 Sb23 2.013075 1_555
N47 Sb5 2.022012 1_555
