# generated using pymatgen
data_MgCuPb
_symmetry_space_group_name_H-M   'P 1'
_cell_length_a   4.52642385
_cell_length_b   4.52642385
_cell_length_c   4.52642385
_cell_angle_alpha   60.00000000
_cell_angle_beta   60.00000000
_cell_angle_gamma   60.00000000
_symmetry_Int_Tables_number   1
_chemical_formula_structural   MgCuPb
_chemical_formula_sum   'Mg1 Cu1 Pb1'
_cell_volume   65.57686609
_cell_formula_units_Z   1
loop_
 _symmetry_equiv_pos_site_id
 _symmetry_equiv_pos_as_xyz
  1  'x, y, z'
loop_
 _atom_site_type_symbol
 _atom_site_label
 _atom_site_symmetry_multiplicity
 _atom_site_fract_x
 _atom_site_fract_y
 _atom_site_fract_z
 _atom_site_occupancy
  Mg  Mg0  1  0.00000000  0.00000000  0.00000000  1
  Cu  Cu0  1  0.25000000  0.25000000  0.25000000  1
  Pb  Pb0  1  0.50000000  0.50000000  0.50000000  1
loop_
_geom_bond_atom_site_label_1
_geom_bond_atom_site_label_2
_geom_bond_distance
_geom_bond_site_symmetry_2
Mg0 Pb0 3.200665 1_454
Mg0 Pb0 3.200665 1_545
Mg0 Pb0 3.200665 1_455
Mg0 Pb0 3.200665 1_554
Mg0 Pb0 3.200665 1_544
Mg0 Pb0 3.200665 1_445
Cu0 Mg0 2.771857 1_655
Cu0 Pb0 2.771857 1_545
Cu0 Mg0 2.771857 1_565
Cu0 Pb0 2.771857 1_455
Cu0 Mg0 2.771857 1_555
Cu0 Mg0 2.771857 1_556
Cu0 Pb0 2.771857 1_554
Cu0 Pb0 2.771857 1_555
