# generated using pymatgen
data_GdAlZnGe2
_symmetry_space_group_name_H-M   'P 1'
_cell_length_a   4.21628532
_cell_length_b   4.21628532
_cell_length_c   6.86570100
_cell_angle_alpha   90.00000000
_cell_angle_beta   90.00000000
_cell_angle_gamma   119.99998932
_symmetry_Int_Tables_number   1
_chemical_formula_structural   GdAlZnGe2
_chemical_formula_sum   'Gd1 Al1 Zn1 Ge2'
_cell_volume   105.70013671
_cell_formula_units_Z   1
loop_
 _symmetry_equiv_pos_site_id
 _symmetry_equiv_pos_as_xyz
  1  'x, y, z'
loop_
 _atom_site_type_symbol
 _atom_site_label
 _atom_site_symmetry_multiplicity
 _atom_site_fract_x
 _atom_site_fract_y
 _atom_site_fract_z
 _atom_site_occupancy
  Gd  Gd0  1  0.00000000  0.00000000  0.01027900  1
  Al  Al0  1  0.66666700  0.33333300  0.62886400  1
  Zn  Zn0  1  0.33333300  0.66666700  0.35446700  1
  Ge  Ge0  1  0.33333300  0.66666700  0.75153900  1
  Ge  Ge1  1  0.66666700  0.33333300  0.25485100  1
loop_
_geom_bond_atom_site_label_1
_geom_bond_atom_site_label_2
_geom_bond_distance
_geom_bond_site_symmetry_2
Gd0 Ge1 2.957236 1_455
Gd0 Ge1 2.957240 1_445
Gd0 Ge1 2.957240 1_555
Gd0 Ge0 3.013533 1_544
Gd0 Ge0 3.013537 1_554
Gd0 Ge0 3.013537 1_444
Al0 Ge1 2.567861 1_555
Al0 Ge0 2.575861 1_545
Al0 Ge0 2.575861 1_655
Al0 Ge0 2.575868 1_555
Ge0 Zn0 2.726178 1_555
Ge1 Zn0 2.528526 1_545
Ge1 Zn0 2.528526 1_655
Ge1 Zn0 2.528532 1_555
