# generated using pymatgen
data_Ag3Au
_symmetry_space_group_name_H-M   'P 1'
_cell_length_a   5.83402875
_cell_length_b   5.83402875
_cell_length_c   4.73081269
_cell_angle_alpha   90.00000000
_cell_angle_beta   90.00000000
_cell_angle_gamma   120.00000331
_symmetry_Int_Tables_number   1
_chemical_formula_structural   Ag3Au
_chemical_formula_sum   'Ag6 Au2'
_cell_volume   139.44517786
_cell_formula_units_Z   2
loop_
 _symmetry_equiv_pos_site_id
 _symmetry_equiv_pos_as_xyz
  1  'x, y, z'
loop_
 _atom_site_type_symbol
 _atom_site_label
 _atom_site_symmetry_multiplicity
 _atom_site_fract_x
 _atom_site_fract_y
 _atom_site_fract_z
 _atom_site_occupancy
  Ag  Ag0  1  0.16639994  0.33279888  0.25000000  1
  Ag  Ag1  1  0.66720112  0.83360006  0.25000000  1
  Ag  Ag2  1  0.16639994  0.83360006  0.25000000  1
  Ag  Ag3  1  0.83360006  0.66720112  0.75000000  1
  Ag  Ag4  1  0.33279888  0.16639994  0.75000000  1
  Ag  Ag5  1  0.83360006  0.16639994  0.75000000  1
  Au  Au0  1  0.33333300  0.66666700  0.75000000  1
  Au  Au1  1  0.66666700  0.33333300  0.25000000  1
loop_
_geom_bond_atom_site_label_1
_geom_bond_atom_site_label_2
_geom_bond_distance
_geom_bond_site_symmetry_2
Ag0 Ag4 2.902131 1_555
Ag0 Ag4 2.902131 1_554
Ag0 Ag5 2.902137 1_455
Ag0 Ag5 2.902137 1_454
Ag0 Au0 2.905268 1_555
Ag0 Au0 2.905268 1_554
Ag0 Ag1 2.912340 1_445
Ag0 Ag2 2.912340 1_545
Ag0 Au1 2.917016 1_555
Ag0 Au1 2.917016 1_455
Ag0 Ag1 2.921688 1_555
Ag0 Ag2 2.921688 1_555
Ag1 Ag3 2.902131 1_555
Ag1 Ag3 2.902131 1_554
Ag1 Ag5 2.902137 1_564
Ag1 Ag5 2.902137 1_565
Ag1 Au0 2.905268 1_555
Ag1 Au0 2.905268 1_554
Ag1 Ag2 2.912340 1_655
Ag1 Au1 2.917016 1_555
Ag1 Au1 2.917016 1_565
Ag1 Ag2 2.921688 1_555
Ag2 Ag3 2.902137 1_455
Ag2 Ag4 2.902137 1_565
Ag2 Ag4 2.902137 1_564
Ag2 Ag3 2.902137 1_454
Ag2 Au0 2.905262 1_554
Ag2 Au0 2.905262 1_555
Ag2 Au1 2.917015 1_455
Ag2 Au1 2.917015 1_565
Ag3 Au1 2.905268 1_556
Ag3 Au1 2.905268 1_555
Ag3 Ag4 2.912340 1_665
Ag3 Ag5 2.912340 1_565
Ag3 Au0 2.917016 1_555
Ag3 Au0 2.917016 1_655
Ag3 Ag4 2.921688 1_555
Ag3 Ag5 2.921688 1_555
Ag4 Au1 2.905268 1_556
Ag4 Au1 2.905268 1_555
Ag4 Ag5 2.912340 1_455
Ag4 Au0 2.917016 1_555
Ag4 Au0 2.917016 1_545
Ag4 Ag5 2.921688 1_555
Ag5 Au1 2.905262 1_555
Ag5 Au1 2.905262 1_556
Ag5 Au0 2.917015 1_545
Ag5 Au0 2.917015 1_655
