# generated using pymatgen
data_Sr2Mn2O5
_symmetry_space_group_name_H-M   'P 1'
_cell_length_a   6.82367356
_cell_length_b   6.82368609
_cell_length_c   6.82367408
_cell_angle_alpha   75.82882520
_cell_angle_beta   65.78636434
_cell_angle_gamma   110.18449407
_symmetry_Int_Tables_number   1
_chemical_formula_structural   Sr2Mn2O5
_chemical_formula_sum   'Sr4 Mn4 O10'
_cell_volume   242.70366508
_cell_formula_units_Z   2
loop_
 _symmetry_equiv_pos_site_id
 _symmetry_equiv_pos_as_xyz
  1  'x, y, z'
loop_
 _atom_site_type_symbol
 _atom_site_label
 _atom_site_symmetry_multiplicity
 _atom_site_fract_x
 _atom_site_fract_y
 _atom_site_fract_z
 _atom_site_occupancy
  Sr  Sr0  1  0.99998500  0.00000100  0.99999800  1
  Sr  Sr1  1  0.50000800  0.00000700  0.50000700  1
  Sr  Sr2  1  0.49998700  0.50000400  0.00001400  1
  Sr  Sr3  1  0.99998700  0.49996900  0.50000900  1
  Mn  Mn0  1  0.99999000  0.49998300  0.00001900  1
  Mn  Mn1  1  0.00001400  0.00001000  0.50000000  1
  Mn  Mn2  1  0.49995100  0.49995900  0.50000600  1
  Mn  Mn3  1  0.50008500  0.00003000  0.99992600  1
  O  O0  1  0.24998900  0.99997900  0.25000100  1
  O  O1  1  0.74999000  0.99998000  0.75000600  1
  O  O2  1  0.74345000  0.74343700  0.49999700  1
  O  O3  1  0.24343100  0.74344500  0.00001200  1
  O  O4  1  0.75658200  0.25659100  0.00001200  1
  O  O5  1  0.25659900  0.25658700  0.49999400  1
  O  O6  1  0.99999700  0.72697600  0.77302600  1
  O  O7  1  0.49997900  0.72694900  0.27305800  1
  O  O8  1  0.49998000  0.27303600  0.72697300  1
  O  O9  1  0.99999600  0.27305700  0.22694300  1
loop_
_geom_bond_atom_site_label_1
_geom_bond_atom_site_label_2
_geom_bond_distance
_geom_bond_site_symmetry_2
Mn0 O4 1.900931 1_555
Mn0 O3 1.901279 1_655
Mn0 O9 1.903036 1_555
Mn0 O6 1.903552 1_554
Mn1 O1 1.852882 1_445
Mn1 O0 1.852900 1_545
Mn1 O2 2.003759 1_445
Mn1 O5 2.003822 1_555
Mn1 O6 2.289580 1_445
Mn1 O9 2.289911 1_455
Mn2 O5 1.900654 1_555
Mn2 O2 1.901560 1_555
Mn2 O7 1.903263 1_555
Mn2 O8 1.903301 1_555
Mn3 O1 1.852419 1_545
Mn3 O0 1.853326 1_546
Mn3 O4 2.003775 1_556
Mn3 O3 2.003810 1_546
Mn3 O8 2.289668 1_555
Mn3 O7 2.289849 1_546
O0 Sr0 2.864916 1_464
O0 Sr3 2.864923 1_455
O0 Sr1 2.864998 1_565
O0 Sr2 2.865002 1_565
O1 Sr2 2.864728 1_556
O1 Sr1 2.864769 1_565
O1 Sr0 2.864784 1_565
O1 Sr3 2.864801 1_565
O2 Sr0 2.798434 1_564
O2 Sr3 2.798465 1_555
O2 Sr1 2.798493 1_565
O2 Sr2 2.798496 1_556
O3 Sr2 2.798416 1_555
O3 Sr3 2.798424 1_455
O3 Sr1 2.798440 1_564
O3 Sr0 2.798451 1_464
O4 Sr0 2.798389 1_554
O4 Sr1 2.798403 1_555
O4 Sr3 2.798427 1_554
O4 Sr2 2.798479 1_555
O5 Sr2 2.798334 1_555
O5 Sr1 2.798382 1_555
O5 Sr3 2.798395 1_455
O5 Sr0 2.798430 1_455
O6 Sr0 2.698604 1_565
O6 Sr2 2.698657 1_556
O6 Sr1 2.698666 1_665
O6 Sr3 2.698740 1_555
O7 Sr2 2.698569 1_555
O7 Sr3 2.698576 1_455
O7 Sr0 2.698653 1_564
O7 Sr1 2.698673 1_565
O8 Sr0 2.698587 1_455
O8 Sr1 2.698596 1_555
O8 Sr3 2.698655 1_555
O8 Sr2 2.698677 1_556
O9 Sr3 2.698526 1_555
O9 Sr1 2.698561 1_555
O9 Sr2 2.698584 1_655
O9 Sr0 2.698642 1_554
