# generated using pymatgen
data_K4(BSe)9
_symmetry_space_group_name_H-M   'P 1'
_cell_length_a   22.65903195
_cell_length_b   22.65903195
_cell_length_c   10.01924401
_cell_angle_alpha   82.98327739
_cell_angle_beta   82.98327739
_cell_angle_gamma   137.08049840
_symmetry_Int_Tables_number   1
_chemical_formula_structural   K4(BSe)9
_chemical_formula_sum   'K24 B54 Se54'
_cell_volume   3301.99159047
_cell_formula_units_Z   6
loop_
 _symmetry_equiv_pos_site_id
 _symmetry_equiv_pos_as_xyz
  1  'x, y, z'
loop_
 _atom_site_type_symbol
 _atom_site_label
 _atom_site_symmetry_multiplicity
 _atom_site_fract_x
 _atom_site_fract_y
 _atom_site_fract_z
 _atom_site_occupancy
  K  K0  1  0.74437300  0.59809200  0.10025700  1
  K  K1  1  0.86543700  0.14814500  0.99631700  1
  K  K2  1  0.45870300  0.08829700  0.09105900  1
  K  K3  1  0.79370300  0.17041400  0.48686600  1
  K  K4  1  0.16013500  0.16013500  0.39208100  1
  K  K5  1  0.05842500  0.25262800  0.53073400  1
  K  K6  1  0.39518700  0.24522400  0.95787000  1
  K  K7  1  0.91204200  0.39361300  0.77790300  1
  K  K8  1  0.73519700  0.90050000  0.51397100  1
  K  K9  1  0.90050000  0.73519700  0.51397100  1
  K  K10  1  0.60837000  0.60837000  0.58147900  1
  K  K11  1  0.24747200  0.39262900  0.96236500  1
  K  K12  1  0.49349100  0.49349100  0.02055400  1
  K  K13  1  0.17041400  0.79370300  0.48686600  1
  K  K14  1  0.59809200  0.74437300  0.10025700  1
  K  K15  1  0.39361300  0.91204200  0.77790300  1
  K  K16  1  0.40575700  0.40294300  0.45757300  1
  K  K17  1  0.07599900  0.62556900  0.19829100  1
  K  K18  1  0.25262800  0.05842500  0.53073400  1
  K  K19  1  0.08829700  0.45870300  0.09105900  1
  K  K20  1  0.83326400  0.51392400  0.90462000  1
  K  K21  1  0.14814500  0.86543700  0.99631700  1
  K  K22  1  0.62556900  0.07599900  0.19829100  1
  K  K23  1  0.51392400  0.83326400  0.90462000  1
  B  B0  1  0.67229100  0.40922000  0.48322000  1
  B  B1  1  0.91818500  0.60005400  0.36998500  1
  B  B2  1  0.81790700  0.98211000  0.84992600  1
  B  B3  1  0.55783700  0.22434200  0.63084400  1
  B  B4  1  0.62594900  0.12927100  0.75109400  1
  B  B5  1  0.34491200  0.74156000  0.45441900  1
  B  B6  1  0.90890600  0.97529700  0.03680700  1
  B  B7  1  0.81271000  0.31881400  0.22085300  1
  B  B8  1  0.62830300  0.33420900  0.65015800  1
  B  B9  1  0.29679600  0.55760300  0.53266600  1
  B  B10  1  0.18243700  0.01502200  0.14671500  1
  B  B11  1  0.08764400  0.08764400  0.85359800  1
  B  B12  1  0.72464700  0.72464700  0.17562900  1
  B  B13  1  0.66494500  0.48599600  0.70331900  1
  B  B14  1  0.04195000  0.37839500  0.62708300  1
  B  B15  1  0.97529700  0.90890600  0.03680700  1
  B  B16  1  0.40765200  0.74072600  0.54114100  1
  B  B17  1  0.30702500  0.67295800  0.34325800  1
  B  B18  1  0.33420900  0.62830300  0.65015800  1
  B  B19  1  0.48599600  0.66494500  0.70331900  1
  B  B20  1  0.22434200  0.55783700  0.63084400  1
  B  B21  1  0.01502200  0.18243700  0.14671500  1
  B  B22  1  0.40922000  0.67229100  0.48322000  1
  B  B23  1  0.90993700  0.90993700  0.14827900  1
  B  B24  1  0.02674100  0.98225700  0.14195700  1
  B  B25  1  0.02161000  0.08787300  0.96399400  1
  B  B26  1  0.62995500  0.22997600  0.51527700  1
  B  B27  1  0.67295800  0.30702500  0.34325800  1
  B  B28  1  0.74156000  0.34491200  0.45441900  1
  B  B29  1  0.34747000  0.62854600  0.35728700  1
  B  B30  1  0.23204200  0.55969500  0.45133200  1
  B  B31  1  0.98225700  0.02674100  0.14195700  1
  B  B32  1  0.31881400  0.81271000  0.22085300  1
  B  B33  1  0.74302500  0.41648400  0.36272300  1
  B  B34  1  0.22997600  0.62995500  0.51527700  1
  B  B35  1  0.37839500  0.04195000  0.62708300  1
  B  B36  1  0.67092400  0.29190300  0.63674000  1
  B  B37  1  0.08787300  0.02161000  0.96399400  1
  B  B38  1  0.12927100  0.62594900  0.75109400  1
  B  B39  1  0.29190300  0.67092400  0.63674000  1
  B  B40  1  0.55969500  0.23204200  0.45133200  1
  B  B41  1  0.90351400  0.90351400  0.97420500  1
  B  B42  1  0.30914200  0.47172200  0.34360100  1
  B  B43  1  0.09261700  0.09261700  0.02723300  1
  B  B44  1  0.55760300  0.29679600  0.53266600  1
  B  B45  1  0.62854600  0.34747000  0.35728700  1
  B  B46  1  0.41648400  0.74302500  0.36272300  1
  B  B47  1  0.27489800  0.27489800  0.83339500  1
  B  B48  1  0.01492200  0.97049700  0.85886200  1
  B  B49  1  0.74072600  0.40765200  0.54114100  1
  B  B50  1  0.97049700  0.01492300  0.85886200  1
  B  B51  1  0.98211000  0.81790700  0.84992600  1
  B  B52  1  0.47172200  0.30914200  0.34360100  1
  B  B53  1  0.60005400  0.91818500  0.36998500  1
  Se  Se0  1  0.27151200  0.45059400  0.54926000  1
  Se  Se1  1  0.59443500  0.03489800  0.88057500  1
  Se  Se2  1  0.04630200  0.19417900  0.94299700  1
  Se  Se3  1  0.03128400  0.72700800  0.31804700  1
  Se  Se4  1  0.02486300  0.92117100  0.71417900  1
  Se  Se5  1  0.54271600  0.85573500  0.22590600  1
  Se  Se6  1  0.36908500  0.84679000  0.38023400  1
  Se  Se7  1  0.95563600  0.80311800  0.05552100  1
  Se  Se8  1  0.69429800  0.51216700  0.49498200  1
  Se  Se9  1  0.36570100  0.58552900  0.21088600  1
  Se  Se10  1  0.44808900  0.11535300  0.42425200  1
  Se  Se11  1  0.61653300  0.37148800  0.81543600  1
  Se  Se12  1  0.60132800  0.60132800  0.25128700  1
  Se  Se13  1  0.12372200  0.60347300  0.56162100  1
  Se  Se14  1  0.68013300  0.24049600  0.80052000  1
  Se  Se15  1  0.85573500  0.54271600  0.22590600  1
  Se  Se16  1  0.71372700  0.29165200  0.16990900  1
  Se  Se17  1  0.43822000  0.10351900  0.76843200  1
  Se  Se18  1  0.28884200  0.38527200  0.26960600  1
  Se  Se19  1  0.37148800  0.61653300  0.81543600  1
  Se  Se20  1  0.20561900  0.20561900  0.70435000  1
  Se  Se21  1  0.79473400  0.79473400  0.30259600  1
  Se  Se22  1  0.97765900  0.73692900  0.78517600  1
  Se  Se23  1  0.11535300  0.44808900  0.42425200  1
  Se  Se24  1  0.73692900  0.97765900  0.78517600  1
  Se  Se25  1  0.21094800  0.21094800  0.03806900  1
  Se  Se26  1  0.86772900  0.29547400  0.11820000  1
  Se  Se27  1  0.29547400  0.86772900  0.11820000  1
  Se  Se28  1  0.92117100  0.02486300  0.71417900  1
  Se  Se29  1  0.38527200  0.28884200  0.26960600  1
  Se  Se30  1  0.29165200  0.71372700  0.16990900  1
  Se  Se31  1  0.45059400  0.27151200  0.54926000  1
  Se  Se32  1  0.91777900  0.25951400  0.68640100  1
  Se  Se33  1  0.97371200  0.07496500  0.28540000  1
  Se  Se34  1  0.72700800  0.03128400  0.31804700  1
  Se  Se35  1  0.60347300  0.12372200  0.56162100  1
  Se  Se36  1  0.03489800  0.59443500  0.88057500  1
  Se  Se37  1  0.10351900  0.43822000  0.76843200  1
  Se  Se38  1  0.68746700  0.56986000  0.78950800  1
  Se  Se39  1  0.85952300  0.51923100  0.56703000  1
  Se  Se40  1  0.25951400  0.91777900  0.68640100  1
  Se  Se41  1  0.78296600  0.78296600  0.96937500  1
  Se  Se42  1  0.80311800  0.95563600  0.05552100  1
  Se  Se43  1  0.07496500  0.97371200  0.28540000  1
  Se  Se44  1  0.56986000  0.68746700  0.78950800  1
  Se  Se45  1  0.84679000  0.36908500  0.38023400  1
  Se  Se46  1  0.51216700  0.69429800  0.49498200  1
  Se  Se47  1  0.26509200  0.02549500  0.20889600  1
  Se  Se48  1  0.19417900  0.04630200  0.94299700  1
  Se  Se49  1  0.24049600  0.68013300  0.80052000  1
  Se  Se50  1  0.02549500  0.26509200  0.20889600  1
  Se  Se51  1  0.58552900  0.36570100  0.21088600  1
  Se  Se52  1  0.39862100  0.39596100  0.77881000  1
  Se  Se53  1  0.51923100  0.85952300  0.56703000  1
loop_
_geom_bond_atom_site_label_1
_geom_bond_atom_site_label_2
_geom_bond_distance
_geom_bond_site_symmetry_2
K0 Se7 3.330792 1_555
K0 Se51 3.428121 1_555
K0 Se12 3.460901 1_555
K0 Se38 3.467695 1_554
K0 Se41 3.611791 1_554
K0 Se8 3.808650 1_555
K0 Se15 3.814985 1_555
K1 Se32 3.196693 1_555
K1 Se34 3.243568 1_556
K1 Se2 3.352143 1_655
K1 Se42 3.393398 1_546
K1 Se26 3.660056 1_556
K2 Se27 3.328774 1_545
K2 Se17 3.333452 1_554
K2 Se47 3.441747 1_555
K2 Se10 3.478222 1_555
K2 Se14 3.765287 1_554
K3 Se32 3.165917 1_555
K3 Se34 3.167467 1_555
K3 Se35 3.549432 1_555
K3 Se45 3.665179 1_555
K3 Se26 3.668072 1_555
K4 Se25 3.360796 1_555
K4 Se18 3.441136 1_555
K4 Se29 3.441136 1_555
K4 Se20 3.454423 1_555
K4 Se33 3.518207 1_455
K4 Se43 3.518207 1_545
K5 Se50 3.421751 1_555
K5 Se0 3.488519 1_555
K5 Se32 3.490932 1_455
K5 Se28 3.530359 1_455
K5 Se23 3.543962 1_555
K5 Se18 3.859530 1_555
K6 Se48 3.368295 1_555
K6 Se11 3.407991 1_555
K6 Se29 3.419157 1_556
K6 Se25 3.599445 1_556
K6 Se52 3.601418 1_555
K6 Se47 3.665725 1_556
K7 Se32 3.364549 1_555
K7 Se26 3.408659 1_556
K7 Se13 3.442611 1_655
K7 Se14 3.537878 1_555
K7 Se36 3.578324 1_655
K7 Se37 3.648003 1_655
K8 Se24 3.395300 1_555
K8 Se34 3.484667 1_565
K8 Se44 3.562097 1_555
K8 Se46 3.643514 1_555
K8 Se33 3.681516 1_565
K9 Se22 3.395300 1_555
K9 Se3 3.484667 1_655
K9 Se38 3.562097 1_555
K9 Se8 3.643514 1_555
K9 Se43 3.681516 1_655
K10 Se38 3.328181 1_555
K10 Se44 3.328181 1_555
K10 Se12 3.349067 1_555
K10 Se52 3.396845 1_555
K10 Se21 3.404250 1_555
K11 Se18 3.345310 1_556
K11 Se2 3.382982 1_555
K11 Se19 3.476679 1_555
K11 Se25 3.507332 1_556
K11 Se52 3.628536 1_555
K11 Se50 3.699055 1_556
K12 Se52 3.315626 1_554
K12 Se12 3.361696 1_555
K12 Se29 3.573040 1_555
K12 Se18 3.573040 1_555
K12 Se44 3.614929 1_554
K12 Se38 3.614929 1_554
K13 Se40 3.165917 1_555
K13 Se3 3.167467 1_555
K13 Se13 3.549432 1_555
K13 Se6 3.665179 1_555
K13 Se27 3.668072 1_555
K14 Se42 3.330792 1_555
K14 Se9 3.428121 1_555
K14 Se12 3.460901 1_555
K14 Se44 3.467695 1_554
K14 Se41 3.611791 1_554
K14 Se46 3.808650 1_555
K14 Se5 3.814985 1_555
K15 Se40 3.364549 1_555
K15 Se27 3.408659 1_556
K15 Se35 3.442611 1_565
K15 Se49 3.537878 1_555
K15 Se1 3.578324 1_565
K15 Se17 3.648003 1_565
K16 Se29 3.176812 1_555
K16 Se52 3.181388 1_555
K16 Se12 3.230030 1_555
K16 Se18 3.251897 1_555
K16 Se20 3.395963 1_555
K17 Se3 3.396625 1_555
K17 Se36 3.436416 1_554
K17 Se30 3.629642 1_555
K17 Se27 3.669703 1_555
K17 Se45 3.868242 1_455
K18 Se47 3.421751 1_555
K18 Se31 3.488519 1_555
K18 Se40 3.490932 1_545
K18 Se4 3.530359 1_545
K18 Se10 3.543962 1_555
K18 Se29 3.859530 1_555
K19 Se26 3.328774 1_455
K19 Se37 3.333452 1_554
K19 Se50 3.441747 1_555
K19 Se23 3.478222 1_555
K19 Se49 3.765287 1_554
K20 Se22 3.319973 1_555
K20 Se39 3.333651 1_555
K20 Se15 3.387349 1_556
K20 Se36 3.417092 1_655
K20 Se11 3.727571 1_555
K20 Se16 3.841590 1_556
K21 Se40 3.196693 1_555
K21 Se3 3.243568 1_556
K21 Se48 3.352143 1_565
K21 Se7 3.393398 1_456
K21 Se27 3.660056 1_556
K22 Se34 3.396625 1_555
K22 Se1 3.436416 1_554
K22 Se16 3.629642 1_555
K22 Se26 3.669703 1_555
K22 Se6 3.868242 1_545
K23 Se24 3.319973 1_555
K23 Se53 3.333651 1_555
K23 Se5 3.387349 1_556
K23 Se1 3.417092 1_565
K23 Se19 3.727571 1_555
K23 Se30 3.841590 1_556
B0 B49 1.743024 1_555
B0 B8 1.759780 1_555
B0 B33 1.773642 1_555
B0 B44 1.780281 1_555
B0 B45 1.799410 1_555
B0 Se8 2.020346 1_555
B1 Se3 1.903846 1_655
B1 Se39 1.982060 1_555
B1 Se15 2.009693 1_555
B1 K17 3.362557 1_655
B2 Se24 1.957962 1_555
B2 Se28 1.960593 1_565
B2 Se42 1.987559 1_556
B3 B8 1.776456 1_555
B3 B40 1.777964 1_555
B3 B36 1.796349 1_555
B3 B44 1.811740 1_555
B3 Se17 2.009690 1_555
B4 Se1 1.903969 1_555
B4 Se14 2.006449 1_555
B4 Se35 2.019840 1_555
B5 Se6 2.023013 1_555
B6 Se42 2.070079 1_555
B7 Se26 1.917551 1_555
B7 Se45 1.975155 1_555
B7 Se16 2.001106 1_555
B8 Se11 2.022539 1_555
B9 Se0 2.019603 1_555
B10 Se47 1.903256 1_555
B10 Se48 1.994221 1_554
B10 Se43 2.062559 1_545
B11 B37 1.752339 1_555
B11 B25 1.752339 1_555
B11 B43 1.768930 1_556
B11 B48 1.817248 1_545
B11 B50 1.817252 1_455
B11 Se20 2.026974 1_555
B12 Se12 1.928694 1_555
B12 Se41 1.967484 1_554
B12 Se21 1.988894 1_555
B12 K0 3.364098 1_555
B12 K14 3.364098 1_555
B13 Se38 1.924957 1_555
B13 Se8 1.982900 1_555
B13 Se11 2.003881 1_555
B14 Se32 1.904091 1_455
B14 Se23 1.983249 1_555
B14 Se37 1.992848 1_555
B14 K5 3.366684 1_555
B14 K7 3.405032 1_455
B15 B41 1.740939 1_554
B15 B23 1.759036 1_555
B15 B48 1.760178 1_654
B15 B37 1.763519 1_664
B15 B24 1.766752 1_655
B15 Se7 2.070079 1_555
B16 B22 1.743024 1_555
B16 B46 1.764342 1_555
B16 B5 1.764505 1_555
B16 B18 1.766035 1_555
B16 B39 1.799544 1_555
B16 Se53 2.017039 1_555
B17 B5 1.759501 1_555
B17 B30 1.769440 1_555
B17 B46 1.771087 1_555
B17 B29 1.794434 1_555
B17 B34 1.825076 1_555
B17 Se30 2.053874 1_555
B18 B22 1.759780 1_555
B18 B20 1.776456 1_555
B18 B39 1.795932 1_555
B18 B9 1.840189 1_555
B18 Se19 2.022539 1_555
B19 Se44 1.924957 1_555
B19 Se46 1.982900 1_555
B19 Se19 2.003881 1_555
B20 B30 1.777964 1_555
B20 B34 1.795393 1_555
B20 B39 1.796349 1_555
B20 B9 1.811740 1_555
B20 Se37 2.009690 1_555
B21 Se50 1.903256 1_555
B21 Se2 1.994221 1_554
B21 Se33 2.062559 1_455
B22 B46 1.773642 1_555
B22 B9 1.780281 1_555
B22 B29 1.799410 1_555
B22 Se46 2.020346 1_555
B23 B6 1.759036 1_555
B23 B41 1.782476 1_554
B23 B31 1.809881 1_565
B23 B24 1.809881 1_655
B23 Se21 2.016564 1_555
B24 B37 1.758470 1_564
B24 B43 1.792810 1_565
B24 B31 1.876174 1_465
B24 Se43 1.980553 1_555
B25 B43 1.736125 1_556
B25 B31 1.758470 1_456
B25 B50 1.761465 1_455
B25 B6 1.763519 1_446
B25 Se2 2.008262 1_555
B26 B36 1.759872 1_555
B26 B28 1.771662 1_555
B26 B3 1.795393 1_555
B26 B40 1.816103 1_555
B26 B27 1.825076 1_555
B26 Se35 1.978667 1_555
B27 B28 1.759501 1_555
B27 B40 1.769440 1_555
B27 B33 1.771087 1_555
B27 B45 1.794434 1_555
B27 Se16 2.053874 1_555
B28 B33 1.739229 1_555
B28 B49 1.764505 1_555
B28 B36 1.809775 1_555
B28 Se45 2.023013 1_555
B29 B9 1.761731 1_555
B29 B30 1.795828 1_555
B29 B46 1.814200 1_555
B29 Se9 2.015770 1_555
B30 B9 1.789898 1_555
B30 B34 1.816103 1_555
B30 Se23 2.002399 1_555
B31 B6 1.766752 1_545
B31 B43 1.792810 1_655
B31 Se33 1.980553 1_555
B32 Se27 1.917551 1_555
B32 Se6 1.975155 1_555
B32 Se30 2.001106 1_555
B33 B49 1.764342 1_555
B33 B45 1.814200 1_555
B33 Se15 2.017569 1_555
B34 B39 1.759872 1_555
B34 B5 1.771662 1_555
B34 Se13 1.978667 1_555
B35 Se40 1.904091 1_545
B35 Se10 1.983249 1_555
B35 Se17 1.992848 1_555
B35 K18 3.366684 1_555
B35 K15 3.405032 1_545
B36 B8 1.795932 1_555
B36 B49 1.799544 1_555
B36 Se14 2.016372 1_555
B37 B43 1.736125 1_556
B37 B48 1.761477 1_545
B37 Se48 2.008262 1_555
B38 Se36 1.903969 1_555
B38 Se49 2.006449 1_555
B38 Se13 2.019840 1_555
B39 B5 1.809775 1_555
B39 Se49 2.016372 1_555
B40 B44 1.789898 1_555
B40 B45 1.795828 1_555
B40 Se10 2.002399 1_555
B41 B6 1.740939 1_556
B41 B48 1.805217 1_655
B41 B50 1.805233 1_565
B41 Se41 2.015301 1_555
B42 Se18 1.927913 1_555
B42 Se0 1.983419 1_555
B42 Se9 1.991492 1_555
B43 Se25 2.000740 1_555
B44 B45 1.761731 1_555
B44 B8 1.840189 1_555
B44 Se31 2.019603 1_555
B45 Se51 2.015770 1_555
B46 B5 1.739229 1_555
B46 Se5 2.017569 1_555
B47 Se52 1.918029 1_555
B47 Se25 1.969121 1_556
B47 Se20 1.995680 1_555
B48 B50 1.873707 1_465
B48 Se4 2.021418 1_555
B49 B8 1.766035 1_555
B49 Se39 2.017039 1_555
B50 B6 1.760174 1_546
B50 Se28 2.021408 1_555
B51 Se22 1.957962 1_555
B51 Se4 1.960593 1_655
B51 Se7 1.987559 1_556
B52 Se29 1.927913 1_555
B52 Se31 1.983419 1_555
B52 Se51 1.991492 1_555
B53 Se34 1.903846 1_565
B53 Se53 1.982060 1_555
B53 Se5 2.009693 1_555
B53 K22 3.362557 1_565
