# generated using pymatgen
data_Re3PbS6
_symmetry_space_group_name_H-M   'P 1'
_cell_length_a   9.45770222
_cell_length_b   9.45770222
_cell_length_c   11.87780657
_cell_angle_alpha   89.10930680
_cell_angle_beta   89.10930680
_cell_angle_gamma   61.36870787
_symmetry_Int_Tables_number   1
_chemical_formula_structural   Re3PbS6
_chemical_formula_sum   'Re12 Pb4 S24'
_cell_volume   932.38064888
_cell_formula_units_Z   4
loop_
 _symmetry_equiv_pos_site_id
 _symmetry_equiv_pos_as_xyz
  1  'x, y, z'
loop_
 _atom_site_type_symbol
 _atom_site_label
 _atom_site_symmetry_multiplicity
 _atom_site_fract_x
 _atom_site_fract_y
 _atom_site_fract_z
 _atom_site_occupancy
  Re  Re0  1  0.88733100  0.52198600  0.86668200  1
  Re  Re1  1  0.47772500  0.11579500  0.63094400  1
  Re  Re2  1  0.11579500  0.47772500  0.13094400  1
  Re  Re3  1  0.52198600  0.88733100  0.36668200  1
  Re  Re4  1  0.98997700  0.69848400  0.96948000  1
  Re  Re5  1  0.30179400  0.01354100  0.52738900  1
  Re  Re6  1  0.01354100  0.30179400  0.02738900  1
  Re  Re7  1  0.69848400  0.98997700  0.46948000  1
  Re  Re8  1  0.19504100  0.40034500  0.91556600  1
  Re  Re9  1  0.60129600  0.80712800  0.58001200  1
  Re  Re10  1  0.80712800  0.60129600  0.08001200  1
  Re  Re11  1  0.40034500  0.19504100  0.41556600  1
  Pb  Pb0  1  0.88753900  0.35456100  0.49963500  1
  Pb  Pb1  1  0.35456100  0.88753900  0.99963500  1
  Pb  Pb2  1  0.74382800  0.23095000  0.77600800  1
  Pb  Pb3  1  0.23095000  0.74382800  0.27600800  1
  S  S0  1  0.73032100  0.42423400  0.97936300  1
  S  S1  1  0.57513100  0.27235500  0.51804500  1
  S  S2  1  0.27235500  0.57513100  0.01804500  1
  S  S3  1  0.42423400  0.73032100  0.47936300  1
  S  S4  1  0.95201500  0.98846300  0.42223200  1
  S  S5  1  0.02570600  0.04093400  0.07463500  1
  S  S6  1  0.04093400  0.02570600  0.57463500  1
  S  S7  1  0.98846300  0.95201500  0.92223200  1
  S  S8  1  0.73606000  0.54371700  0.68898300  1
  S  S9  1  0.44984300  0.26278700  0.80584400  1
  S  S10  1  0.26278700  0.44984300  0.30584400  1
  S  S11  1  0.54371700  0.73606000  0.18898300  1
  S  S12  1  0.91945100  0.75536100  0.16516800  1
  S  S13  1  0.24507300  0.08478300  0.33088300  1
  S  S14  1  0.08478300  0.24507300  0.83088300  1
  S  S15  1  0.75536100  0.91945100  0.66516800  1
  S  S16  1  0.20469400  0.29941900  0.56814800  1
  S  S17  1  0.70912000  0.79496600  0.92414800  1
  S  S18  1  0.79496600  0.70912000  0.42414800  1
  S  S19  1  0.29941900  0.20469400  0.06814800  1
  S  S20  1  0.93746900  0.39161200  0.21891000  1
  S  S21  1  0.61046500  0.06269700  0.27692500  1
  S  S22  1  0.06269700  0.61046500  0.77692500  1
  S  S23  1  0.39161200  0.93746900  0.71891000  1
loop_
_geom_bond_atom_site_label_1
_geom_bond_atom_site_label_2
_geom_bond_distance
_geom_bond_site_symmetry_2
Re0 S17 2.412679 1_555
Re0 S22 2.415583 1_655
Re0 S14 2.418681 1_655
Re0 S0 2.463033 1_555
Re0 S8 2.518457 1_555
Re1 S23 2.415488 1_545
Re1 S15 2.417686 1_545
Re1 S16 2.441773 1_555
Re1 S9 2.457509 1_555
Re1 S1 2.458966 1_555
Re2 S20 2.415488 1_455
Re2 S12 2.417686 1_455
Re2 S19 2.441773 1_555
Re2 S10 2.457509 1_555
Re2 S2 2.458966 1_555
Re3 S18 2.412679 1_555
Re3 S21 2.415583 1_565
Re3 S13 2.418681 1_565
Re3 S3 2.463033 1_555
Re3 S11 2.518457 1_555
Re4 S12 2.404925 1_556
Re4 S22 2.420450 1_655
Re4 S2 2.422238 1_656
Re4 S17 2.425826 1_555
Re4 S7 2.447490 1_555
Re5 S13 2.415211 1_555
Re5 S23 2.416125 1_545
Re5 S3 2.428101 1_545
Re5 S16 2.456691 1_555
Re5 S6 2.470194 1_555
Re6 S14 2.415211 1_554
Re6 S20 2.416125 1_455
Re6 S0 2.428101 1_454
Re6 S19 2.456691 1_555
Re6 S5 2.470194 1_555
Re7 S15 2.404925 1_555
Re7 S21 2.420450 1_565
Re7 S1 2.422238 1_565
Re7 S18 2.425826 1_555
Re7 S4 2.447490 1_555
Re8 S14 2.408686 1_555
Re8 S22 2.409608 1_555
Re8 S19 2.425671 1_556
Re8 S2 2.448998 1_556
Re8 S9 2.479694 1_555
Re9 S23 2.406857 1_555
Re9 S15 2.416066 1_555
Re9 S18 2.441811 1_555
Re9 S3 2.452791 1_555
Re9 S8 2.532637 1_555
Re10 S20 2.406857 1_555
Re10 S12 2.416066 1_555
Re10 S17 2.441811 1_554
Re10 S0 2.452791 1_554
Re10 S11 2.532637 1_555
Re11 S13 2.408686 1_555
Re11 S21 2.409608 1_555
Re11 S16 2.425671 1_555
Re11 S1 2.448998 1_555
Re11 S10 2.479694 1_555
Pb0 S8 2.807099 1_555
Pb0 S6 2.863835 1_655
Pb0 S16 2.914637 1_655
Pb0 S18 3.151587 1_555
Pb1 S11 2.807099 1_556
Pb1 S5 2.863835 1_566
Pb1 S19 2.914637 1_566
Pb1 S17 3.151587 1_555
Pb2 S9 2.667839 1_555
Pb2 S0 3.015972 1_555
Pb2 S7 3.076073 1_545
Pb2 S8 3.085935 1_555
Pb2 S15 3.198847 1_545
Pb3 S10 2.667839 1_555
Pb3 S3 3.015972 1_555
Pb3 S4 3.076073 1_455
Pb3 S11 3.085935 1_555
Pb3 S12 3.198847 1_455
S4 S6 2.111682 1_665
S5 S7 2.111682 1_444
