# generated using pymatgen
data_YMn4(CuO4)3
_symmetry_space_group_name_H-M   'P 1'
_cell_length_a   6.41815296
_cell_length_b   10.47323963
_cell_length_c   6.42321316
_cell_angle_alpha   90.85292161
_cell_angle_beta   109.76175757
_cell_angle_gamma   89.12314178
_symmetry_Int_Tables_number   1
_chemical_formula_structural   YMn4(CuO4)3
_chemical_formula_sum   'Y2 Mn8 Cu6 O24'
_cell_volume   406.26395374
_cell_formula_units_Z   2
loop_
 _symmetry_equiv_pos_site_id
 _symmetry_equiv_pos_as_xyz
  1  'x, y, z'
loop_
 _atom_site_type_symbol
 _atom_site_label
 _atom_site_symmetry_multiplicity
 _atom_site_fract_x
 _atom_site_fract_y
 _atom_site_fract_z
 _atom_site_occupancy
  Y  Y0  1  0.49937700  0.49910700  0.50057300  1
  Y  Y1  1  0.00065200  0.00121700  0.99941400  1
  Mn  Mn0  1  0.00088000  0.99985000  0.50110800  1
  Mn  Mn1  1  0.49950300  0.50001700  0.99906500  1
  Mn  Mn2  1  0.75243300  0.24902800  0.74797100  1
  Mn  Mn3  1  0.24740500  0.75084700  0.25173400  1
  Mn  Mn4  1  0.49904200  0.99980100  0.99943400  1
  Mn  Mn5  1  0.00136900  0.49992700  0.50064900  1
  Mn  Mn6  1  0.25188300  0.24912700  0.24773000  1
  Mn  Mn7  1  0.74817100  0.75083300  0.75245300  1
  Cu  Cu0  1  0.49969800  0.99986000  0.49974600  1
  Cu  Cu1  1  0.25170600  0.24952400  0.74831100  1
  Cu  Cu2  1  0.74804800  0.75053000  0.25178200  1
  Cu  Cu3  1  0.75120600  0.25041000  0.24886100  1
  Cu  Cu4  1  0.24892000  0.74963700  0.75155800  1
  Cu  Cu5  1  0.00015400  0.49998600  0.99946000  1
  O  O0  1  0.23661400  0.06111900  0.76353200  1
  O  O1  1  0.73651100  0.56650100  0.26351200  1
  O  O2  1  0.26681400  0.43765500  0.73331400  1
  O  O3  1  0.75987200  0.93481700  0.24018400  1
  O  O4  1  0.44040600  0.26475200  0.55966500  1
  O  O5  1  0.93182900  0.76232200  0.06815100  1
  O  O6  1  0.38184600  0.08420400  0.20978200  1
  O  O7  1  0.88448600  0.58560900  0.71931200  1
  O  O8  1  0.01858400  0.15211200  0.32352200  1
  O  O9  1  0.51756900  0.65304000  0.82338600  1
  O  O10  1  0.67637200  0.15207800  0.98124300  1
  O  O11  1  0.17661400  0.65302400  0.48247500  1
  O  O12  1  0.79028800  0.08417300  0.61826900  1
  O  O13  1  0.28047400  0.58558500  0.11538900  1
  O  O14  1  0.48313600  0.34838500  0.17454500  1
  O  O15  1  0.98047900  0.84651900  0.67829500  1
  O  O16  1  0.06341600  0.23572000  0.93667200  1
  O  O17  1  0.56428500  0.73720400  0.43568000  1
  O  O18  1  0.11582100  0.41437800  0.28022600  1
  O  O19  1  0.61817200  0.91596100  0.79079700  1
  O  O20  1  0.82532500  0.34836200  0.51666500  1
  O  O21  1  0.32173100  0.84651500  0.01954700  1
  O  O22  1  0.71964000  0.41431900  0.88408500  1
  O  O23  1  0.20926700  0.91594200  0.38190600  1
loop_
_geom_bond_atom_site_label_1
_geom_bond_atom_site_label_2
_geom_bond_distance
_geom_bond_site_symmetry_2
Mn0 O23 1.945192 1_555
Mn0 O12 1.950542 1_465
Mn0 O0 1.953225 1_565
Mn0 O3 1.977539 1_455
Mn0 O8 2.001096 1_565
Mn0 O15 2.013177 1_455
Mn1 O2 1.960484 1_555
Mn1 O1 1.983420 1_556
Mn1 O14 1.985434 1_556
Mn1 O13 1.997332 1_556
Mn1 O22 1.998571 1_555
Mn1 O9 2.000816 1_555
Mn2 O12 1.953287 1_555
Mn2 O16 1.957778 1_655
Mn2 O4 1.964307 1_555
Mn2 O22 1.968177 1_555
Mn2 O20 2.009854 1_555
Mn2 O10 2.017292 1_555
Mn3 O23 1.957328 1_555
Mn3 O13 1.969039 1_555
Mn3 O5 1.972045 1_455
Mn3 O17 1.980882 1_555
Mn3 O11 1.991861 1_555
Mn3 O21 1.998979 1_555
Mn4 O19 1.946497 1_555
Mn4 O6 1.950386 1_566
Mn4 O0 1.953288 1_565
Mn4 O3 1.975568 1_556
Mn4 O10 2.000880 1_565
Mn4 O21 2.012605 1_556
Mn5 O2 1.958200 1_555
Mn5 O1 1.985026 1_455
Mn5 O20 1.986285 1_455
Mn5 O18 1.998073 1_555
Mn5 O7 1.998765 1_455
Mn5 O11 1.999801 1_555
Mn6 O6 1.954359 1_555
Mn6 O16 1.958930 1_554
Mn6 O4 1.965259 1_555
Mn6 O18 1.966666 1_555
Mn6 O14 2.009508 1_555
Mn6 O8 2.016348 1_555
Mn7 O19 1.956995 1_555
Mn7 O7 1.968190 1_555
Mn7 O5 1.973984 1_556
Mn7 O17 1.981395 1_555
Mn7 O9 1.990827 1_555
Mn7 O15 1.998606 1_555
Cu0 O23 1.973888 1_555
Cu0 O6 1.974143 1_565
Cu0 O12 1.976863 1_565
Cu0 O19 1.977990 1_555
Cu1 O2 1.979581 1_555
Cu1 O0 1.982549 1_555
Cu1 O16 1.986049 1_555
Cu1 O4 1.991102 1_555
Cu2 O1 1.933499 1_555
Cu2 O5 1.935813 1_555
Cu2 O3 1.936262 1_555
Cu2 O17 1.938505 1_555
Cu3 O8 1.907583 1_655
Cu3 O14 1.909482 1_555
Cu3 O20 1.909641 1_555
Cu3 O10 1.910569 1_554
Cu4 O21 1.905113 1_556
Cu4 O15 1.905734 1_455
Cu4 O9 1.905756 1_555
Cu4 O11 1.909558 1_555
Cu5 O7 1.928115 1_455
Cu5 O13 1.928379 1_556
Cu5 O22 1.929501 1_455
Cu5 O18 1.931257 1_556
O0 Y1 2.567433 1_555
O1 Y0 2.600994 1_555
O2 Y0 2.538498 1_555
O3 Y1 2.635243 1_664
O4 Y0 2.542633 1_555
O5 Y1 2.616996 1_664
O6 Y1 2.522207 1_554
O7 Y0 2.566389 1_555
O8 Y1 2.567164 1_554
O9 Y0 2.579664 1_555
O10 Y1 2.565605 1_655
O11 Y0 2.577578 1_555
O12 Y1 2.522609 1_655
O13 Y0 2.567620 1_555
O14 Y0 2.578205 1_555
O15 Y1 2.573422 1_665
O16 Y1 2.554638 1_555
O17 Y0 2.597253 1_555
O18 Y0 2.554234 1_555
O19 Y1 2.534968 1_665
O20 Y0 2.576277 1_555
O21 Y1 2.571446 1_564
O22 Y0 2.554819 1_555
O23 Y1 2.535873 1_564
