# generated using pymatgen
data_CsH3(SO4)2
_symmetry_space_group_name_H-M   'P 1'
_cell_length_a   7.89423996
_cell_length_b   8.33132756
_cell_length_c   13.00069400
_cell_angle_alpha   90.00000000
_cell_angle_beta   90.00000000
_cell_angle_gamma   90.34672558
_symmetry_Int_Tables_number   1
_chemical_formula_structural   CsH3(SO4)2
_chemical_formula_sum   'Cs4 H12 S8 O32'
_cell_volume   855.03347416
_cell_formula_units_Z   4
loop_
 _symmetry_equiv_pos_site_id
 _symmetry_equiv_pos_as_xyz
  1  'x, y, z'
loop_
 _atom_site_type_symbol
 _atom_site_label
 _atom_site_symmetry_multiplicity
 _atom_site_fract_x
 _atom_site_fract_y
 _atom_site_fract_z
 _atom_site_occupancy
  Cs  Cs0  1  0.78423000  0.83615800  0.56807300  1
  Cs  Cs1  1  0.21577000  0.16384200  0.43192700  1
  Cs  Cs2  1  0.21577000  0.66384200  0.06807300  1
  Cs  Cs3  1  0.78423000  0.33615800  0.93192700  1
  H  H0  1  0.49239200  0.77052900  0.84107200  1
  H  H1  1  0.50760800  0.22947100  0.15892800  1
  H  H2  1  0.50760800  0.72947100  0.34107200  1
  H  H3  1  0.49239200  0.27052900  0.65892800  1
  H  H4  1  0.86948300  0.88728100  0.25310100  1
  H  H5  1  0.13051700  0.11271900  0.74689900  1
  H  H6  1  0.13051700  0.61271900  0.75310100  1
  H  H7  1  0.86948300  0.38728100  0.24689900  1
  H  H8  1  0.66980900  0.37711900  0.45314600  1
  H  H9  1  0.33019100  0.62288100  0.54685400  1
  H  H10  1  0.33019100  0.12288100  0.95314600  1
  H  H11  1  0.66980900  0.87711900  0.04685400  1
  S  S0  1  0.75254900  0.82907700  0.89281800  1
  S  S1  1  0.24745100  0.17092300  0.10718200  1
  S  S2  1  0.24745100  0.67092300  0.39281800  1
  S  S3  1  0.75254900  0.32907700  0.60718200  1
  S  S4  1  0.26192000  0.82703300  0.70029200  1
  S  S5  1  0.73808000  0.17296700  0.29970800  1
  S  S6  1  0.73808000  0.67296700  0.20029200  1
  S  S7  1  0.26192000  0.32703300  0.79970800  1
  O  O0  1  0.69897900  0.94420200  0.98331400  1
  O  O1  1  0.30102100  0.05579800  0.01668600  1
  O  O2  1  0.30102100  0.55579800  0.48331400  1
  O  O3  1  0.69897900  0.44420200  0.51668600  1
  O  O4  1  0.77888600  0.93376700  0.80628700  1
  O  O5  1  0.22111400  0.06623300  0.19371300  1
  O  O6  1  0.22111400  0.56623300  0.30628700  1
  O  O7  1  0.77888600  0.43376700  0.69371300  1
  O  O8  1  0.18429500  0.97654700  0.66407600  1
  O  O9  1  0.81570500  0.02345300  0.33592400  1
  O  O10  1  0.81570500  0.52345300  0.16407600  1
  O  O11  1  0.18429500  0.47654700  0.83592400  1
  O  O12  1  0.38405100  0.75968100  0.62652300  1
  O  O13  1  0.61594900  0.24031900  0.37347700  1
  O  O14  1  0.61594900  0.74031900  0.12652300  1
  O  O15  1  0.38405100  0.25968100  0.87347700  1
  O  O16  1  0.88709200  0.72443700  0.92617200  1
  O  O17  1  0.11290800  0.27556300  0.07382800  1
  O  O18  1  0.11290800  0.77556300  0.42617200  1
  O  O19  1  0.88709200  0.22443700  0.57382800  1
  O  O20  1  0.89403200  0.79211800  0.20648400  1
  O  O21  1  0.10596800  0.20788200  0.79351600  1
  O  O22  1  0.10596800  0.70788200  0.70648400  1
  O  O23  1  0.89403200  0.29211800  0.29351600  1
  O  O24  1  0.33485100  0.84311800  0.80413300  1
  O  O25  1  0.66514900  0.15688200  0.19586700  1
  O  O26  1  0.66514900  0.65688200  0.30413300  1
  O  O27  1  0.33485100  0.34311800  0.69586700  1
  O  O28  1  0.59690300  0.71535600  0.87559200  1
  O  O29  1  0.40309700  0.28464400  0.12440800  1
  O  O30  1  0.40309700  0.78464400  0.37559200  1
  O  O31  1  0.59690300  0.21535600  0.62440800  1
loop_
_geom_bond_atom_site_label_1
_geom_bond_atom_site_label_2
_geom_bond_distance
_geom_bond_site_symmetry_2
Cs0 O4 3.202279 1_555
Cs0 O18 3.225883 1_655
Cs0 O22 3.296050 1_655
Cs0 O12 3.307417 1_555
Cs0 O19 3.331310 1_565
Cs0 O3 3.396500 1_555
Cs0 O9 3.406003 1_565
Cs0 O31 3.572183 1_565
Cs0 O8 3.585439 1_655
Cs0 O7 3.729211 1_555
Cs1 O5 3.202279 1_555
Cs1 O19 3.225883 1_455
Cs1 O23 3.296050 1_455
Cs1 O13 3.307417 1_555
Cs1 O18 3.331310 1_545
Cs1 O2 3.396500 1_555
Cs1 O8 3.406003 1_545
Cs1 O30 3.572183 1_545
Cs1 O9 3.585439 1_455
Cs1 O6 3.729211 1_555
Cs2 O6 3.202279 1_555
Cs2 O16 3.225883 1_454
Cs2 O20 3.296050 1_455
Cs2 O14 3.307417 1_555
Cs2 O17 3.331310 1_555
Cs2 O1 3.396500 1_565
Cs2 O11 3.406003 1_554
Cs2 O29 3.572183 1_555
Cs2 O10 3.585439 1_455
Cs2 O5 3.729211 1_565
Cs3 O7 3.202279 1_555
Cs3 O17 3.225883 1_656
Cs3 O21 3.296050 1_655
Cs3 O15 3.307417 1_555
Cs3 O16 3.331310 1_555
Cs3 O0 3.396500 1_545
Cs3 O10 3.406003 1_556
Cs3 O28 3.572183 1_555
Cs3 O11 3.585439 1_655
Cs3 O4 3.729211 1_545
H0 O28 1.047841 1_555
H0 O24 1.467028 1_555
H1 O29 1.047841 1_555
H1 O25 1.467028 1_555
H2 O30 1.047841 1_555
H2 O26 1.467028 1_555
H3 O31 1.047841 1_555
H3 O27 1.467028 1_555
H4 O20 1.017498 1_555
H4 O9 1.622511 1_565
H5 O21 1.017498 1_555
H5 O8 1.622511 1_545
H6 O22 1.017498 1_555
H6 O11 1.622511 1_555
H7 O23 1.017498 1_555
H7 O10 1.622511 1_555
H8 O3 1.022844 1_555
H8 O13 1.595830 1_555
H9 O2 1.022844 1_555
H9 O12 1.595830 1_555
H10 O1 1.022844 1_556
H10 O15 1.595830 1_555
H11 O0 1.022844 1_554
H11 O14 1.595830 1_555
O0 S0 1.577303 1_555
O1 S1 1.577303 1_555
O2 S2 1.577303 1_555
O3 S3 1.577303 1_555
O4 S0 1.437817 1_555
O5 S1 1.437817 1_555
O6 S2 1.437817 1_555
O7 S3 1.437817 1_555
O8 S4 1.469040 1_555
O9 S5 1.469040 1_555
O10 S6 1.469040 1_555
O11 S7 1.469040 1_555
O12 S4 1.473343 1_555
O13 S5 1.473343 1_555
O14 S6 1.473343 1_555
O15 S7 1.473343 1_555
O16 S0 1.444764 1_555
O17 S1 1.444764 1_555
O18 S2 1.444764 1_555
O19 S3 1.444764 1_555
O20 S6 1.578853 1_555
O21 S7 1.578853 1_555
O22 S4 1.578853 1_555
O23 S5 1.578853 1_555
O24 S4 1.473434 1_555
O25 S5 1.473434 1_555
O26 S6 1.473434 1_555
O27 S7 1.473434 1_555
O28 S0 1.563151 1_555
O29 S1 1.563151 1_555
O30 S2 1.563151 1_555
O31 S3 1.563151 1_555
