# generated using pymatgen
data_NaNd2RuO6
_symmetry_space_group_name_H-M   'P 1'
_cell_length_a   5.98083900
_cell_length_b   5.55287100
_cell_length_c   9.67637886
_cell_angle_alpha   55.96721349
_cell_angle_beta   90.00000000
_cell_angle_gamma   90.00000000
_symmetry_Int_Tables_number   1
_chemical_formula_structural   NaNd2RuO6
_chemical_formula_sum   'Na2 Nd4 Ru2 O12'
_cell_volume   266.31709386
_cell_formula_units_Z   2
loop_
 _symmetry_equiv_pos_site_id
 _symmetry_equiv_pos_as_xyz
  1  'x, y, z'
loop_
 _atom_site_type_symbol
 _atom_site_label
 _atom_site_symmetry_multiplicity
 _atom_site_fract_x
 _atom_site_fract_y
 _atom_site_fract_z
 _atom_site_occupancy
  Na  Na0  1  0.00000000  0.00000000  0.00000000  1
  Na  Na1  1  0.50000000  0.00000000  0.50000000  1
  Nd  Nd0  1  0.42743400  0.77592300  0.24587200  1
  Nd  Nd1  1  0.92743400  0.22407700  0.25412800  1
  Nd  Nd2  1  0.57256600  0.22407700  0.75412800  1
  Nd  Nd3  1  0.07256600  0.77592300  0.74587200  1
  Ru  Ru0  1  0.50000000  0.50000000  0.00000000  1
  Ru  Ru1  1  0.00000000  0.50000000  0.50000000  1
  O  O0  1  0.71937000  0.73586400  0.42826100  1
  O  O1  1  0.21937000  0.26413600  0.07173900  1
  O  O2  1  0.28063000  0.26413600  0.57173900  1
  O  O3  1  0.78063000  0.73586400  0.92826100  1
  O  O4  1  0.05290800  0.60679800  0.27001600  1
  O  O5  1  0.55290800  0.39320200  0.22998400  1
  O  O6  1  0.94709200  0.39320200  0.72998400  1
  O  O7  1  0.44709200  0.60679800  0.77001600  1
  O  O8  1  0.32684700  0.84476200  0.94751800  1
  O  O9  1  0.82684700  0.15523800  0.55248200  1
  O  O10  1  0.67315300  0.15523800  0.05248200  1
  O  O11  1  0.17315300  0.84476200  0.44751800  1
loop_
_geom_bond_atom_site_label_1
_geom_bond_atom_site_label_2
_geom_bond_distance
_geom_bond_site_symmetry_2
Na0 O4 2.304010 1_545
Na0 O6 2.304010 1_454
Na0 O10 2.304841 1_455
Na0 O8 2.304841 1_544
Na0 O3 2.343964 1_444
Na0 O1 2.343964 1_555
Na1 O5 2.304010 1_555
Na1 O7 2.304010 1_545
Na1 O9 2.304841 1_555
Na1 O11 2.304841 1_545
Na1 O0 2.343964 1_545
Na1 O2 2.343964 1_555
Nd0 O5 2.338586 1_555
Nd0 O10 2.384559 1_565
Nd0 O4 2.389240 1_555
Nd0 O0 2.402789 1_555
Nd0 O1 2.573722 1_565
Nd0 O11 2.664779 1_555
Nd0 O8 2.758164 1_554
Nd0 O2 2.959651 1_555
Nd1 O4 2.338586 1_655
Nd1 O11 2.384559 1_645
Nd1 O5 2.389240 1_555
Nd1 O1 2.402789 1_655
Nd1 O0 2.573722 1_545
Nd1 O10 2.664779 1_555
Nd1 O9 2.758164 1_555
Nd1 O3 2.959651 1_554
Nd2 O7 2.338586 1_555
Nd2 O8 2.384559 1_545
Nd2 O6 2.389240 1_555
Nd2 O2 2.402789 1_555
Nd2 O3 2.573722 1_545
Nd2 O9 2.664779 1_555
Nd2 O10 2.758164 1_556
Nd2 O0 2.959651 1_555
Nd3 O6 2.338586 1_455
Nd3 O9 2.384559 1_465
Nd3 O7 2.389240 1_555
Nd3 O3 2.402789 1_455
Nd3 O2 2.573722 1_565
Nd3 O8 2.664779 1_555
Nd3 O11 2.758164 1_555
Nd3 O1 2.959651 1_556
O0 Ru1 1.999154 1_655
O1 Ru0 1.999154 1_555
O2 Ru1 1.999154 1_555
O3 Ru0 1.999154 1_556
O4 Ru1 1.981676 1_555
O5 Ru0 1.981676 1_555
O6 Ru1 1.981676 1_655
O7 Ru0 1.981676 1_556
O8 Ru0 1.976648 1_556
O9 Ru1 1.976648 1_655
O10 Ru0 1.976648 1_555
O11 Ru1 1.976648 1_555
