# generated using pymatgen
data_Ba2CaSm2Ti3(CuO7)2
_symmetry_space_group_name_H-M   'P 1'
_cell_length_a   3.88624700
_cell_length_b   3.88624700
_cell_length_c   20.78108100
_cell_angle_alpha   90.00000000
_cell_angle_beta   90.00000000
_cell_angle_gamma   90.00000000
_symmetry_Int_Tables_number   1
_chemical_formula_structural   Ba2CaSm2Ti3(CuO7)2
_chemical_formula_sum   'Ba2 Ca1 Sm2 Ti3 Cu2 O14'
_cell_volume   313.85491543
_cell_formula_units_Z   1
loop_
 _symmetry_equiv_pos_site_id
 _symmetry_equiv_pos_as_xyz
  1  'x, y, z'
loop_
 _atom_site_type_symbol
 _atom_site_label
 _atom_site_symmetry_multiplicity
 _atom_site_fract_x
 _atom_site_fract_y
 _atom_site_fract_z
 _atom_site_occupancy
  Ba  Ba0  1  0.50000000  0.50000000  0.33042500  1
  Ba  Ba1  1  0.50000000  0.50000000  0.66957500  1
  Ca  Ca0  1  0.50000000  0.50000000  0.50000000  1
  Sm  Sm0  1  0.50000000  0.50000000  0.10361000  1
  Sm  Sm1  1  0.50000000  0.50000000  0.89639000  1
  Ti  Ti0  1  0.00000000  0.00000000  0.00000000  1
  Ti  Ti1  1  0.00000000  0.00000000  0.19807300  1
  Ti  Ti2  1  0.00000000  0.00000000  0.80192700  1
  Cu  Cu0  1  0.00000000  0.00000000  0.42803900  1
  Cu  Cu1  1  0.00000000  0.00000000  0.57196100  1
  O  O0  1  0.00000000  0.50000000  0.17841800  1
  O  O1  1  0.00000000  0.50000000  0.82158200  1
  O  O2  1  0.50000000  0.00000000  0.17841800  1
  O  O3  1  0.50000000  0.00000000  0.82158200  1
  O  O4  1  0.00000000  0.00000000  0.28383600  1
  O  O5  1  0.00000000  0.00000000  0.71616400  1
  O  O6  1  0.00000000  0.00000000  0.09254200  1
  O  O7  1  0.00000000  0.00000000  0.90745800  1
  O  O8  1  0.00000000  0.50000000  0.42375200  1
  O  O9  1  0.00000000  0.50000000  0.57624800  1
  O  O10  1  0.50000000  0.00000000  0.42375200  1
  O  O11  1  0.50000000  0.00000000  0.57624800  1
  O  O12  1  0.00000000  0.50000000  0.00000000  1
  O  O13  1  0.50000000  0.00000000  0.00000000  1
loop_
_geom_bond_atom_site_label_1
_geom_bond_atom_site_label_2
_geom_bond_distance
_geom_bond_site_symmetry_2
Ba0 O8 2.745385 1_555
Ba0 O10 2.745385 1_555
Ba0 O10 2.745385 1_565
Ba0 O8 2.745385 1_655
Ba0 O4 2.913556 1_655
Ba0 O4 2.913556 1_555
Ba0 O4 2.913556 1_665
Ba0 O4 2.913556 1_565
Ba1 O9 2.745385 1_655
Ba1 O11 2.745385 1_555
Ba1 O11 2.745385 1_565
Ba1 O9 2.745385 1_555
Ba1 O5 2.913556 1_655
Ba1 O5 2.913556 1_665
Ba1 O5 2.913556 1_565
Ba1 O5 2.913556 1_555
Ca0 O10 2.507273 1_565
Ca0 O11 2.507273 1_555
Ca0 O8 2.507273 1_655
Ca0 O11 2.507273 1_565
Ca0 O9 2.507273 1_655
Ca0 O8 2.507273 1_555
Ca0 O9 2.507273 1_555
Ca0 O10 2.507273 1_555
Cu0 O10 1.945165 1_455
Cu0 O10 1.945165 1_555
Cu0 O8 1.945165 1_545
Cu0 O8 1.945165 1_555
Cu1 O9 1.945165 1_555
Cu1 O9 1.945165 1_545
Cu1 O11 1.945165 1_555
Cu1 O11 1.945165 1_455
O0 Ti1 1.985589 1_555
O0 Ti1 1.985589 1_565
O0 Sm0 2.488470 1_555
O0 Sm0 2.488470 1_455
O1 Ti2 1.985589 1_555
O1 Ti2 1.985589 1_565
O1 Sm1 2.488470 1_455
O1 Sm1 2.488470 1_555
O2 Ti1 1.985589 1_655
O2 Ti1 1.985589 1_555
O2 Sm0 2.488470 1_545
O2 Sm0 2.488470 1_555
O3 Ti2 1.985589 1_555
O3 Ti2 1.985589 1_655
O3 Sm1 2.488470 1_545
O3 Sm1 2.488470 1_555
O4 Ti1 1.782248 1_555
O5 Ti2 1.782248 1_555
O6 Ti0 1.923123 1_555
O6 Ti1 2.193048 1_555
O6 Sm0 2.757600 1_545
O6 Sm0 2.757600 1_555
O6 Sm0 2.757600 1_445
O6 Sm0 2.757600 1_455
O7 Ti0 1.923123 1_556
O7 Ti2 2.193048 1_555
O7 Sm1 2.757600 1_455
O7 Sm1 2.757600 1_555
O7 Sm1 2.757600 1_445
O7 Sm1 2.757600 1_545
O12 Ti0 1.943124 1_555
O12 Ti0 1.943124 1_565
O12 Sm0 2.900291 1_555
O12 Sm1 2.900291 1_554
O12 Sm0 2.900291 1_455
O12 Sm1 2.900291 1_454
O13 Ti0 1.943124 1_555
O13 Ti0 1.943124 1_655
O13 Sm0 2.900291 1_545
O13 Sm0 2.900291 1_555
O13 Sm1 2.900291 1_554
O13 Sm1 2.900291 1_544
