# generated using pymatgen
data_RbEu(WO4)2
_symmetry_space_group_name_H-M   'P 1'
_cell_length_a   7.71791586
_cell_length_b   7.71791586
_cell_length_c   7.55956379
_cell_angle_alpha   62.98750689
_cell_angle_beta   62.98750689
_cell_angle_gamma   89.55235316
_symmetry_Int_Tables_number   1
_chemical_formula_structural   RbEu(WO4)2
_chemical_formula_sum   'Rb2 Eu2 W4 O16'
_cell_volume   346.05217050
_cell_formula_units_Z   2
loop_
 _symmetry_equiv_pos_site_id
 _symmetry_equiv_pos_as_xyz
  1  'x, y, z'
loop_
 _atom_site_type_symbol
 _atom_site_label
 _atom_site_symmetry_multiplicity
 _atom_site_fract_x
 _atom_site_fract_y
 _atom_site_fract_z
 _atom_site_occupancy
  Rb  Rb0  1  0.19989600  0.80010400  0.75000000  1
  Rb  Rb1  1  0.80010400  0.19989600  0.25000000  1
  Eu  Eu0  1  0.77418100  0.22581900  0.75000000  1
  Eu  Eu1  1  0.22581900  0.77418100  0.25000000  1
  W  W0  1  0.69829700  0.68807000  0.77877700  1
  W  W1  1  0.30170300  0.31193000  0.22122300  1
  W  W2  1  0.31193000  0.30170300  0.72122300  1
  W  W3  1  0.68807000  0.69829700  0.27877700  1
  O  O0  1  0.62146000  0.75254800  0.55908100  1
  O  O1  1  0.37854000  0.24745200  0.44091900  1
  O  O2  1  0.24745200  0.37854000  0.94091900  1
  O  O3  1  0.75254800  0.62146000  0.05908100  1
  O  O4  1  0.38064000  0.06868400  0.86678600  1
  O  O5  1  0.61936000  0.93131600  0.13321400  1
  O  O6  1  0.93131600  0.61936000  0.63321400  1
  O  O7  1  0.06868400  0.38064000  0.36678600  1
  O  O8  1  0.58476900  0.37125700  0.97204400  1
  O  O9  1  0.41523100  0.62874300  0.02795600  1
  O  O10  1  0.62874300  0.41523100  0.52795600  1
  O  O11  1  0.37125700  0.58476900  0.47204400  1
  O  O12  1  0.78799400  0.94850500  0.69029900  1
  O  O13  1  0.21200600  0.05149500  0.30970100  1
  O  O14  1  0.05149500  0.21200600  0.80970100  1
  O  O15  1  0.94850500  0.78799400  0.19029900  1
loop_
_geom_bond_atom_site_label_1
_geom_bond_atom_site_label_2
_geom_bond_distance
_geom_bond_site_symmetry_2
Eu0 O12 2.371926 1_545
Eu0 O14 2.371926 1_655
Eu0 O10 2.381478 1_555
Eu0 O8 2.381478 1_555
Eu0 O5 2.429638 1_546
Eu0 O7 2.429638 1_655
Eu0 O6 2.850383 1_555
Eu0 O4 2.850383 1_555
Eu1 O15 2.371926 1_455
Eu1 O13 2.371926 1_565
Eu1 O9 2.381478 1_555
Eu1 O11 2.381478 1_555
Eu1 O6 2.429638 1_455
Eu1 O4 2.429638 1_564
Eu1 O5 2.850383 1_555
Eu1 O7 2.850383 1_555
O0 W0 1.869995 1_555
O0 W3 2.177774 1_555
O0 Rb0 3.000103 1_555
O0 Rb1 3.016772 1_565
O1 W1 1.869995 1_555
O1 W2 2.177774 1_555
O1 Rb1 3.000103 1_555
O1 Rb0 3.016772 1_545
O2 W2 1.869995 1_555
O2 W1 2.177774 1_556
O2 Rb0 3.000103 1_555
O2 Rb1 3.016772 1_456
O3 W3 1.869995 1_555
O3 W0 2.177774 1_554
O3 Rb1 3.000103 1_555
O3 Rb0 3.016772 1_654
O4 W2 1.855782 1_555
O4 Rb0 3.138219 1_545
O5 W3 1.855782 1_555
O5 Rb1 3.138219 1_565
O6 W0 1.855782 1_555
O6 Rb0 3.138219 1_655
O7 W1 1.855782 1_555
O7 Rb1 3.138219 1_455
O8 W1 2.006176 1_556
O8 W0 2.122870 1_555
O8 Rb1 3.088651 1_556
O9 W0 2.006176 1_554
O9 W1 2.122870 1_555
O9 Rb0 3.088651 1_554
O10 W3 2.006176 1_555
O10 W2 2.122870 1_555
O10 Rb1 3.088651 1_555
O11 W2 2.006176 1_555
O11 W3 2.122870 1_555
O11 Rb0 3.088651 1_555
O12 W0 1.829397 1_555
O12 Rb1 2.950579 1_565
O13 W1 1.829397 1_555
O13 Rb0 2.950579 1_545
O14 W2 1.829397 1_555
O14 Rb1 2.950579 1_456
O15 W3 1.829397 1_555
O15 Rb0 2.950579 1_654
