# generated using pymatgen
data_Ho3(CuSn)4
_symmetry_space_group_name_H-M   'P 1'
_cell_length_a   8.36723426
_cell_length_b   8.36723426
_cell_length_c   8.36723426
_cell_angle_alpha   149.35774702
_cell_angle_beta   131.21968697
_cell_angle_gamma   58.71372923
_symmetry_Int_Tables_number   1
_chemical_formula_structural   Ho3(CuSn)4
_chemical_formula_sum   'Ho3 Cu4 Sn4'
_cell_volume   222.83833421
_cell_formula_units_Z   1
loop_
 _symmetry_equiv_pos_site_id
 _symmetry_equiv_pos_as_xyz
  1  'x, y, z'
loop_
 _atom_site_type_symbol
 _atom_site_label
 _atom_site_symmetry_multiplicity
 _atom_site_fract_x
 _atom_site_fract_y
 _atom_site_fract_z
 _atom_site_occupancy
  Ho  Ho0  1  0.00000000  -0.00000000  0.00000000  1
  Ho  Ho1  1  0.36852984  0.86852984  0.50000000  1
  Ho  Ho2  1  0.63147016  0.13147016  0.50000000  1
  Cu  Cu0  1  0.64001166  0.32869985  0.31131181  1
  Cu  Cu1  1  0.01738804  0.32869985  0.68868819  1
  Cu  Cu2  1  0.35998834  0.67130015  0.68868819  1
  Cu  Cu3  1  0.98261196  0.67130015  0.31131181  1
  Sn  Sn0  1  0.21602421  0.21602421  0.00000000  1
  Sn  Sn1  1  0.78397579  0.78397579  0.00000000  1
  Sn  Sn2  1  0.70296007  0.50000000  0.20296007  1
  Sn  Sn3  1  0.29703993  0.50000000  0.79703993  1
loop_
_geom_bond_atom_site_label_1
_geom_bond_atom_site_label_2
_geom_bond_distance
_geom_bond_site_symmetry_2
Ho0 Sn2 3.016857 1_444
Ho0 Sn3 3.016857 1_544
Ho0 Sn3 3.016857 1_555
Ho0 Sn2 3.016857 1_455
Ho0 Sn0 3.150817 1_555
Ho0 Sn1 3.150817 1_445
Ho1 Sn0 3.136197 1_566
Ho1 Sn0 3.136197 1_555
Ho1 Sn2 3.245316 1_566
Ho1 Sn2 3.245316 1_555
Ho1 Sn3 3.245316 1_554
Ho1 Sn3 3.245316 1_565
Ho2 Sn1 3.136197 1_545
Ho2 Sn1 3.136197 1_556
Ho2 Sn2 3.245316 1_545
Ho2 Sn3 3.245316 1_544
Ho2 Sn3 3.245316 1_555
Ho2 Sn2 3.245316 1_556
Cu0 Cu1 2.607846 1_655
Cu0 Sn2 2.608279 1_555
Cu0 Sn1 2.648331 1_556
Cu0 Sn1 2.648331 1_545
Cu0 Sn0 2.707210 1_555
Cu0 Ho1 3.139035 1_555
Cu0 Ho1 3.139035 1_544
Cu0 Ho2 3.158411 1_555
Cu1 Sn3 2.608279 1_555
Cu1 Sn1 2.648331 1_445
Cu1 Sn1 2.648331 1_456
Cu1 Sn0 2.707210 1_556
Cu1 Ho1 3.139035 1_545
Cu1 Ho1 3.139035 1_556
Cu1 Ho2 3.158411 1_455
Cu2 Cu3 2.607846 1_455
Cu2 Sn3 2.608279 1_555
Cu2 Sn0 2.648331 1_555
Cu2 Sn0 2.648331 1_566
Cu2 Sn1 2.707210 1_556
Cu2 Ho2 3.139035 1_566
Cu2 Ho2 3.139035 1_555
Cu2 Ho1 3.158411 1_555
Cu3 Sn2 2.608279 1_555
Cu3 Sn0 2.648331 1_666
Cu3 Sn0 2.648331 1_655
Cu3 Sn1 2.707210 1_555
Cu3 Ho2 3.139035 1_565
Cu3 Ho2 3.139035 1_554
Cu3 Ho1 3.158411 1_655
Sn2 Sn3 2.805097 1_554
