# generated using pymatgen
data_Fe2OF2
_symmetry_space_group_name_H-M   'P 1'
_cell_length_a   5.48566893
_cell_length_b   5.48566893
_cell_length_c   14.27973973
_cell_angle_alpha   89.98405396
_cell_angle_beta   89.98405396
_cell_angle_gamma   58.50056592
_symmetry_Int_Tables_number   1
_chemical_formula_structural   Fe2OF2
_chemical_formula_sum   'Fe12 O6 F12'
_cell_volume   366.39359415
_cell_formula_units_Z   6
loop_
 _symmetry_equiv_pos_site_id
 _symmetry_equiv_pos_as_xyz
  1  'x, y, z'
loop_
 _atom_site_type_symbol
 _atom_site_label
 _atom_site_symmetry_multiplicity
 _atom_site_fract_x
 _atom_site_fract_y
 _atom_site_fract_z
 _atom_site_occupancy
  Fe  Fe0  1  0.99822800  0.01433200  0.64705200  1
  Fe  Fe1  1  0.01433200  0.99822800  0.14705200  1
  Fe  Fe2  1  0.63422800  0.64935500  0.81201500  1
  Fe  Fe3  1  0.65086500  0.64593700  0.52210900  1
  Fe  Fe4  1  0.64935500  0.63422800  0.31201500  1
  Fe  Fe5  1  0.64593700  0.65086500  0.02210900  1
  Fe  Fe6  1  0.35406300  0.34913500  0.97789100  1
  Fe  Fe7  1  0.35064500  0.36577200  0.68798500  1
  Fe  Fe8  1  0.34913500  0.35406300  0.47789100  1
  Fe  Fe9  1  0.36577200  0.35064500  0.18798500  1
  Fe  Fe10  1  0.98566800  0.00177200  0.85294800  1
  Fe  Fe11  1  0.00177200  0.98566800  0.35294800  1
  O  O0  1  0.67815300  0.35156300  0.91499600  1
  O  O1  1  0.35156300  0.67815300  0.41499600  1
  O  O2  1  0.64843700  0.32184700  0.58500400  1
  O  O3  1  0.32184700  0.64843700  0.08500400  1
  O  O4  1  0.26711200  0.73288800  0.75000000  1
  O  O5  1  0.73288800  0.26711200  0.25000000  1
  F  F0  1  0.01701400  0.32147900  0.74943600  1
  F  F1  1  0.32147900  0.01701400  0.24943600  1
  F  F2  1  0.35681100  0.98459600  0.91833000  1
  F  F3  1  0.98459600  0.35681100  0.41833000  1
  F  F4  1  0.33721600  0.05113500  0.58252100  1
  F  F5  1  0.05113500  0.33721600  0.08252100  1
  F  F6  1  0.94886500  0.66278400  0.91747900  1
  F  F7  1  0.66278400  0.94886500  0.41747900  1
  F  F8  1  0.01540400  0.64318900  0.58167000  1
  F  F9  1  0.64318900  0.01540400  0.08167000  1
  F  F10  1  0.67852100  0.98298600  0.75056400  1
  F  F11  1  0.98298600  0.67852100  0.25056400  1
loop_
_geom_bond_atom_site_label_1
_geom_bond_atom_site_label_2
_geom_bond_distance
_geom_bond_site_symmetry_2
Fe0 O2 1.982494 1_555
Fe0 O4 2.083421 1_645
Fe1 O3 1.982494 1_555
Fe1 O5 2.083421 1_465
Fe2 O4 2.021465 1_555
Fe2 O0 2.115820 1_555
Fe3 O2 1.997850 1_555
Fe3 O1 2.182778 1_555
Fe4 O5 2.021465 1_555
Fe4 O1 2.115820 1_555
Fe5 O3 1.997850 1_555
Fe5 O0 2.182778 1_554
Fe6 O0 1.997850 1_555
Fe6 O3 2.182778 1_556
Fe7 O4 2.021465 1_555
Fe7 O2 2.115820 1_555
Fe8 O1 1.997850 1_555
Fe8 O2 2.182778 1_555
Fe9 O5 2.021465 1_555
Fe9 O3 2.115820 1_555
Fe10 O0 1.982494 1_555
Fe10 O4 2.083421 1_645
Fe11 O1 1.982494 1_555
Fe11 O5 2.083421 1_465
F0 Fe2 2.120389 1_455
F0 Fe7 2.154606 1_555
F0 Fe0 2.273747 1_455
F0 Fe10 2.367237 1_455
F1 Fe4 2.120389 1_545
F1 Fe9 2.154606 1_555
F1 Fe1 2.273747 1_545
F1 Fe11 2.367237 1_545
F2 Fe6 2.166103 1_565
F2 Fe10 2.196877 1_465
F2 Fe5 2.242508 1_556
F2 Fe2 2.253539 1_555
F3 Fe8 2.166103 1_655
F3 Fe11 2.196877 1_645
F3 Fe3 2.242508 1_555
F3 Fe4 2.253539 1_555
F4 Fe3 2.156174 1_545
F4 Fe0 2.176965 1_455
F4 Fe8 2.260561 1_555
F4 Fe7 2.320968 1_555
F5 Fe5 2.156174 1_455
F5 Fe1 2.176965 1_545
F5 Fe6 2.260561 1_554
F5 Fe9 2.320968 1_555
F6 Fe6 2.156174 1_655
F6 Fe10 2.176965 1_565
F6 Fe5 2.260561 1_556
F6 Fe2 2.320968 1_555
F7 Fe8 2.156174 1_565
F7 Fe11 2.176965 1_655
F7 Fe3 2.260561 1_555
F7 Fe4 2.320968 1_555
F8 Fe3 2.166103 1_455
F8 Fe0 2.196877 1_465
F8 Fe8 2.242508 1_555
F8 Fe7 2.253539 1_555
F9 Fe5 2.166103 1_545
F9 Fe1 2.196877 1_645
F9 Fe6 2.242508 1_554
F9 Fe9 2.253539 1_555
F10 Fe7 2.120389 1_565
F10 Fe2 2.154606 1_555
F10 Fe10 2.273747 1_565
F10 Fe0 2.367237 1_565
F11 Fe9 2.120389 1_655
F11 Fe4 2.154606 1_555
F11 Fe11 2.273747 1_655
F11 Fe1 2.367237 1_655
