# generated using pymatgen
data_Na3TiFe3O8
_symmetry_space_group_name_H-M   'P 1'
_cell_length_a   5.24322200
_cell_length_b   6.03876100
_cell_length_c   5.80020853
_cell_angle_alpha   90.00000000
_cell_angle_beta   72.05179035
_cell_angle_gamma   90.00000000
_symmetry_Int_Tables_number   1
_chemical_formula_structural   Na3TiFe3O8
_chemical_formula_sum   'Na3 Ti1 Fe3 O8'
_cell_volume   174.71225796
_cell_formula_units_Z   1
loop_
 _symmetry_equiv_pos_site_id
 _symmetry_equiv_pos_as_xyz
  1  'x, y, z'
loop_
 _atom_site_type_symbol
 _atom_site_label
 _atom_site_symmetry_multiplicity
 _atom_site_fract_x
 _atom_site_fract_y
 _atom_site_fract_z
 _atom_site_occupancy
  Na  Na0  1  0.00000000  0.76028200  0.00000000  1
  Na  Na1  1  0.50000000  0.50000000  0.00000000  1
  Na  Na2  1  0.00000000  0.23971800  0.00000000  1
  Ti  Ti0  1  0.00000000  0.00000000  0.50000000  1
  Fe  Fe0  1  0.50000000  0.25067500  0.50000000  1
  Fe  Fe1  1  0.50000000  0.74932500  0.50000000  1
  Fe  Fe2  1  0.00000000  0.50000000  0.50000000  1
  O  O0  1  0.26840700  0.50000000  0.70103200  1
  O  O1  1  0.77546500  0.24597800  0.69215100  1
  O  O2  1  0.25560500  0.00000000  0.68855100  1
  O  O3  1  0.77546500  0.75402200  0.69215100  1
  O  O4  1  0.74439500  0.00000000  0.31144900  1
  O  O5  1  0.22453500  0.75402200  0.30784900  1
  O  O6  1  0.73159300  0.50000000  0.29896800  1
  O  O7  1  0.22453500  0.24597800  0.30784900  1
loop_
_geom_bond_atom_site_label_1
_geom_bond_atom_site_label_2
_geom_bond_distance
_geom_bond_site_symmetry_2
Na0 O2 2.379682 1_564
Na0 O4 2.379682 1_465
Na0 O5 2.423086 1_555
Na0 O3 2.423086 1_454
Na0 O0 2.440084 1_554
Na0 O6 2.440084 1_455
Na1 O6 2.404016 1_555
Na1 O0 2.404016 1_554
Na1 O1 2.457241 1_554
Na1 O3 2.457241 1_554
Na1 O7 2.457241 1_555
Na1 O5 2.457241 1_555
Na2 O2 2.379682 1_554
Na2 O4 2.379682 1_455
Na2 O7 2.423086 1_555
Na2 O1 2.423086 1_454
Na2 O0 2.440084 1_554
Na2 O6 2.440084 1_455
Fe0 O6 2.056298 1_555
Fe0 O0 2.056298 1_555
Fe0 O4 2.065394 1_555
Fe0 O2 2.065394 1_555
Fe0 O1 2.078730 1_555
Fe0 O7 2.078730 1_555
Fe1 O6 2.056298 1_555
Fe1 O0 2.056298 1_555
Fe1 O4 2.065394 1_565
Fe1 O2 2.065394 1_565
Fe1 O3 2.078730 1_555
Fe1 O5 2.078730 1_555
Fe2 O5 2.042687 1_555
Fe2 O7 2.042687 1_555
Fe2 O3 2.042687 1_455
Fe2 O1 2.042687 1_455
Fe2 O0 2.086029 1_555
Fe2 O6 2.086029 1_455
O1 Ti0 2.006465 1_655
O2 Ti0 1.973697 1_555
O3 Ti0 2.006465 1_665
O4 Ti0 1.973697 1_655
O5 Ti0 2.006465 1_565
O7 Ti0 2.006465 1_555
