# generated using pymatgen
data_NdRh3
_symmetry_space_group_name_H-M   'P 1'
_cell_length_a   10.62242930
_cell_length_b   10.62242930
_cell_length_c   6.16591000
_cell_angle_alpha   90.00000000
_cell_angle_beta   90.00000000
_cell_angle_gamma   120.00000810
_symmetry_Int_Tables_number   1
_chemical_formula_structural   NdRh3
_chemical_formula_sum   'Nd8 Rh24'
_cell_volume   602.52556144
_cell_formula_units_Z   8
loop_
 _symmetry_equiv_pos_site_id
 _symmetry_equiv_pos_as_xyz
  1  'x, y, z'
loop_
 _atom_site_type_symbol
 _atom_site_label
 _atom_site_symmetry_multiplicity
 _atom_site_fract_x
 _atom_site_fract_y
 _atom_site_fract_z
 _atom_site_occupancy
  Nd  Nd0_0  1  0.00000000  0.00000000  0.00000000  1
  Nd  Nd0_1  1  0.00000000  0.00000000  0.50000000  1
  Nd  Nd0_2  1  0.00000000  0.50000000  0.00000000  1
  Nd  Nd0_3  1  0.00000000  0.50000000  0.50000000  1
  Nd  Nd0_4  1  0.50000000  0.00000000  0.00000000  1
  Nd  Nd0_5  1  0.50000000  0.00000000  0.50000000  1
  Nd  Nd0_6  1  0.50000000  0.50000000  0.00000000  1
  Nd  Nd0_7  1  0.50000000  0.50000000  0.50000000  1
  Rh  Rh0_0  1  0.25000000  0.25000000  0.25000000  1
  Rh  Rh0_1  1  0.25000000  0.25000000  0.75000000  1
  Rh  Rh0_2  1  0.25000000  0.75000000  0.25000000  1
  Rh  Rh0_3  1  0.25000000  0.75000000  0.75000000  1
  Rh  Rh0_4  1  0.75000000  0.25000000  0.25000000  1
  Rh  Rh0_5  1  0.75000000  0.25000000  0.75000000  1
  Rh  Rh0_6  1  0.75000000  0.75000000  0.25000000  1
  Rh  Rh0_7  1  0.75000000  0.75000000  0.75000000  1
  Rh  Rh1_0  1  0.25000000  0.00000000  0.25000000  1
  Rh  Rh1_1  1  0.25000000  0.00000000  0.75000000  1
  Rh  Rh1_2  1  0.25000000  0.50000000  0.25000000  1
  Rh  Rh1_3  1  0.25000000  0.50000000  0.75000000  1
  Rh  Rh1_4  1  0.75000000  0.00000000  0.25000000  1
  Rh  Rh1_5  1  0.75000000  0.00000000  0.75000000  1
  Rh  Rh1_6  1  0.75000000  0.50000000  0.25000000  1
  Rh  Rh1_7  1  0.75000000  0.50000000  0.75000000  1
  Rh  Rh2_0  1  0.00000000  0.25000000  0.25000000  1
  Rh  Rh2_1  1  0.00000000  0.25000000  0.75000000  1
  Rh  Rh2_2  1  0.00000000  0.75000000  0.25000000  1
  Rh  Rh2_3  1  0.00000000  0.75000000  0.75000000  1
  Rh  Rh2_4  1  0.50000000  0.25000000  0.25000000  1
  Rh  Rh2_5  1  0.50000000  0.25000000  0.75000000  1
  Rh  Rh2_6  1  0.50000000  0.75000000  0.25000000  1
  Rh  Rh2_7  1  0.50000000  0.75000000  0.75000000  1
loop_
_geom_bond_atom_site_label_1
_geom_bond_atom_site_label_2
_geom_bond_distance
_geom_bond_site_symmetry_2
Nd0_0 Rh0_0 3.070570 1_555
Nd0_0 Rh0_6 3.070570 1_445
Nd0_0 Rh0_7 3.070570 1_444
Nd0_0 Rh0_1 3.070570 1_554
Nd0_0 Rh1_0 3.070570 1_555
Nd0_0 Rh2_1 3.070570 1_554
Nd0_0 Rh2_2 3.070570 1_545
Nd0_0 Rh2_3 3.070570 1_544
Nd0_0 Rh1_4 3.070570 1_455
Nd0_0 Rh1_5 3.070570 1_454
Nd0_0 Rh2_0 3.070570 1_555
Nd0_0 Rh1_1 3.070570 1_554
Nd0_0 Nd0_1 3.082955 1_555
Nd0_0 Nd0_1 3.082955 1_554
Nd0_1 Rh0_0 3.070570 1_555
Nd0_1 Rh0_6 3.070570 1_445
Nd0_1 Rh0_7 3.070570 1_445
Nd0_1 Rh0_1 3.070570 1_555
Nd0_1 Rh1_0 3.070570 1_555
Nd0_1 Rh2_2 3.070570 1_545
Nd0_1 Rh1_4 3.070570 1_455
Nd0_1 Rh1_1 3.070570 1_555
Nd0_1 Rh2_0 3.070570 1_555
Nd0_1 Rh2_1 3.070570 1_555
Nd0_1 Rh1_5 3.070570 1_455
Nd0_1 Rh2_3 3.070570 1_545
Nd0_2 Rh0_4 3.070570 1_455
Nd0_2 Rh0_5 3.070570 1_454
Nd0_2 Rh0_3 3.070570 1_554
Nd0_2 Rh0_2 3.070570 1_555
Nd0_2 Rh2_2 3.070570 1_555
Nd0_2 Rh2_3 3.070570 1_554
Nd0_2 Rh1_3 3.070570 1_554
Nd0_2 Rh2_1 3.070570 1_554
Nd0_2 Rh1_7 3.070570 1_454
Nd0_2 Rh2_0 3.070570 1_555
Nd0_2 Rh1_2 3.070570 1_555
Nd0_2 Rh1_6 3.070570 1_455
Nd0_2 Nd0_3 3.082955 1_555
Nd0_2 Nd0_3 3.082955 1_554
Nd0_3 Rh0_4 3.070570 1_455
Nd0_3 Rh0_2 3.070570 1_555
Nd0_3 Rh0_5 3.070570 1_455
Nd0_3 Rh0_3 3.070570 1_555
Nd0_3 Rh2_2 3.070570 1_555
Nd0_3 Rh2_3 3.070570 1_555
Nd0_3 Rh1_7 3.070570 1_455
Nd0_3 Rh1_3 3.070570 1_555
Nd0_3 Rh2_0 3.070570 1_555
Nd0_3 Rh1_2 3.070570 1_555
Nd0_3 Rh2_1 3.070570 1_555
Nd0_3 Rh1_6 3.070570 1_455
Nd0_4 Rh0_5 3.070570 1_554
Nd0_4 Rh0_2 3.070570 1_545
Nd0_4 Rh0_4 3.070570 1_555
Nd0_4 Rh0_3 3.070570 1_544
Nd0_4 Rh1_5 3.070570 1_554
Nd0_4 Rh1_4 3.070570 1_555
Nd0_4 Rh1_0 3.070570 1_555
Nd0_4 Rh2_4 3.070570 1_555
Nd0_4 Rh2_6 3.070570 1_545
Nd0_4 Rh2_5 3.070570 1_554
Nd0_4 Rh2_7 3.070570 1_544
Nd0_4 Rh1_1 3.070570 1_554
Nd0_4 Nd0_5 3.082955 1_555
Nd0_4 Nd0_5 3.082955 1_554
Nd0_5 Rh0_2 3.070570 1_545
Nd0_5 Rh0_4 3.070570 1_555
Nd0_5 Rh0_3 3.070570 1_545
Nd0_5 Rh0_5 3.070570 1_555
Nd0_5 Rh1_4 3.070570 1_555
Nd0_5 Rh1_0 3.070570 1_555
Nd0_5 Rh2_4 3.070570 1_555
Nd0_5 Rh2_6 3.070570 1_545
Nd0_5 Rh1_5 3.070570 1_555
Nd0_5 Rh2_5 3.070570 1_555
Nd0_5 Rh2_7 3.070570 1_545
Nd0_5 Rh1_1 3.070570 1_555
Nd0_6 Rh0_0 3.070570 1_555
Nd0_6 Rh0_7 3.070570 1_554
Nd0_6 Rh0_1 3.070570 1_554
Nd0_6 Rh0_6 3.070570 1_555
Nd0_6 Rh1_3 3.070570 1_554
Nd0_6 Rh2_4 3.070570 1_555
Nd0_6 Rh1_2 3.070570 1_555
Nd0_6 Rh2_7 3.070570 1_554
Nd0_6 Rh1_6 3.070570 1_555
Nd0_6 Rh2_5 3.070570 1_554
Nd0_6 Rh2_6 3.070570 1_555
Nd0_6 Rh1_7 3.070570 1_554
Nd0_6 Nd0_7 3.082955 1_555
Nd0_6 Nd0_7 3.082955 1_554
Nd0_7 Rh0_0 3.070570 1_555
Nd0_7 Rh0_6 3.070570 1_555
Nd0_7 Rh0_1 3.070570 1_555
Nd0_7 Rh0_7 3.070570 1_555
Nd0_7 Rh2_7 3.070570 1_555
Nd0_7 Rh2_4 3.070570 1_555
Nd0_7 Rh1_2 3.070570 1_555
Nd0_7 Rh1_6 3.070570 1_555
Nd0_7 Rh2_6 3.070570 1_555
Nd0_7 Rh2_5 3.070570 1_555
Nd0_7 Rh1_3 3.070570 1_555
Nd0_7 Rh1_7 3.070570 1_555
Rh0_0 Rh1_2 2.655607 1_555
Rh0_0 Rh2_0 2.655607 1_555
Rh0_0 Rh1_0 2.655607 1_555
Rh0_0 Rh2_4 2.655607 1_555
Rh0_0 Rh0_1 3.082955 1_555
Rh0_0 Rh0_1 3.082955 1_554
Rh0_1 Rh2_5 2.655607 1_555
Rh0_1 Rh1_3 2.655607 1_555
Rh0_1 Rh1_1 2.655607 1_555
Rh0_1 Rh2_1 2.655607 1_555
Rh0_2 Rh2_2 2.655607 1_555
Rh0_2 Rh1_2 2.655607 1_555
Rh0_2 Rh1_0 2.655607 1_565
Rh0_2 Rh2_6 2.655607 1_555
Rh0_2 Rh0_3 3.082955 1_555
Rh0_2 Rh0_3 3.082955 1_554
Rh0_3 Rh2_3 2.655607 1_555
Rh0_3 Rh1_3 2.655607 1_555
Rh0_3 Rh2_7 2.655607 1_555
Rh0_3 Rh1_1 2.655607 1_565
Rh0_4 Rh1_4 2.655607 1_555
Rh0_4 Rh1_6 2.655607 1_555
Rh0_4 Rh2_0 2.655607 1_655
Rh0_4 Rh2_4 2.655607 1_555
Rh0_4 Rh0_5 3.082955 1_554
Rh0_4 Rh0_5 3.082955 1_555
Rh0_5 Rh1_5 2.655607 1_555
Rh0_5 Rh2_5 2.655607 1_555
Rh0_5 Rh2_1 2.655607 1_655
Rh0_5 Rh1_7 2.655607 1_555
Rh0_6 Rh1_6 2.655607 1_555
Rh0_6 Rh1_4 2.655607 1_565
Rh0_6 Rh2_2 2.655607 1_655
Rh0_6 Rh2_6 2.655607 1_555
Rh0_6 Rh0_7 3.082955 1_555
Rh0_6 Rh0_7 3.082955 1_554
Rh0_7 Rh2_3 2.655607 1_655
Rh0_7 Rh1_5 2.655607 1_565
Rh0_7 Rh1_7 2.655607 1_555
Rh0_7 Rh2_7 2.655607 1_555
Rh1_0 Rh2_4 2.655607 1_555
Rh1_0 Rh2_2 2.655607 1_545
Rh1_0 Rh1_1 3.082955 1_555
Rh1_0 Rh1_1 3.082955 1_554
Rh1_1 Rh2_3 2.655607 1_545
Rh1_1 Rh2_5 2.655607 1_555
Rh1_2 Rh2_6 2.655607 1_555
Rh1_2 Rh2_0 2.655607 1_555
Rh1_2 Rh1_3 3.082955 1_554
Rh1_2 Rh1_3 3.082955 1_555
Rh1_3 Rh2_1 2.655607 1_555
Rh1_3 Rh2_7 2.655607 1_555
Rh1_4 Rh2_0 2.655607 1_655
Rh1_4 Rh2_6 2.655607 1_545
Rh1_4 Rh1_5 3.082955 1_554
Rh1_4 Rh1_5 3.082955 1_555
Rh1_5 Rh2_1 2.655607 1_655
Rh1_5 Rh2_7 2.655607 1_545
Rh1_6 Rh2_2 2.655607 1_655
Rh1_6 Rh2_4 2.655607 1_555
Rh1_6 Rh1_7 3.082955 1_554
Rh1_6 Rh1_7 3.082955 1_555
Rh1_7 Rh2_3 2.655607 1_655
Rh1_7 Rh2_5 2.655607 1_555
Rh2_0 Rh2_1 3.082955 1_555
Rh2_0 Rh2_1 3.082955 1_554
Rh2_2 Rh2_3 3.082955 1_554
Rh2_2 Rh2_3 3.082955 1_555
Rh2_4 Rh2_5 3.082955 1_554
Rh2_4 Rh2_5 3.082955 1_555
Rh2_6 Rh2_7 3.082955 1_555
Rh2_6 Rh2_7 3.082955 1_554
