# generated using pymatgen
data_Te2MoWSe2
_symmetry_space_group_name_H-M   'P 1'
_cell_length_a   3.43404594
_cell_length_b   3.43404594
_cell_length_c   24.40923900
_cell_angle_alpha   90.00000000
_cell_angle_beta   90.00000000
_cell_angle_gamma   119.99999877
_symmetry_Int_Tables_number   1
_chemical_formula_structural   Te2MoWSe2
_chemical_formula_sum   'Te2 Mo1 W1 Se2'
_cell_volume   249.28553411
_cell_formula_units_Z   1
loop_
 _symmetry_equiv_pos_site_id
 _symmetry_equiv_pos_as_xyz
  1  'x, y, z'
loop_
 _atom_site_type_symbol
 _atom_site_label
 _atom_site_symmetry_multiplicity
 _atom_site_fract_x
 _atom_site_fract_y
 _atom_site_fract_z
 _atom_site_occupancy
  Te  Te0  1  0.33333300  0.66666700  0.52755800  1
  Te  Te1  1  0.33333300  0.66666700  0.37526400  1
  Mo  Mo0  1  0.66666700  0.33333300  0.45142600  1
  W  W0  1  0.33333300  0.66666700  0.15043000  1
  Se  Se0  1  0.66666700  0.33333300  0.08306200  1
  Se  Se1  1  0.66666700  0.33333300  0.21786500  1
loop_
_geom_bond_atom_site_label_1
_geom_bond_atom_site_label_2
_geom_bond_distance
_geom_bond_site_symmetry_2
Mo0 Te0 2.717398 1_545
Mo0 Te0 2.717398 1_655
Mo0 Te0 2.717402 1_555
Mo0 Te1 2.717899 1_545
Mo0 Te1 2.717899 1_655
Mo0 Te1 2.717903 1_555
Se0 W0 2.575838 1_545
Se0 W0 2.575838 1_655
Se0 W0 2.575842 1_555
Se1 W0 2.576882 1_545
Se1 W0 2.576882 1_655
Se1 W0 2.576887 1_555
