# generated using pymatgen
data_MgAg6Mo10O33
_symmetry_space_group_name_H-M   'P 1'
_cell_length_a   7.75816848
_cell_length_b   8.71372675
_cell_length_c   11.69110924
_cell_angle_alpha   77.30657934
_cell_angle_beta   76.53130864
_cell_angle_gamma   74.97770822
_symmetry_Int_Tables_number   1
_chemical_formula_structural   MgAg6Mo10O33
_chemical_formula_sum   'Mg1 Ag6 Mo10 O33'
_cell_volume   731.58170515
_cell_formula_units_Z   1
loop_
 _symmetry_equiv_pos_site_id
 _symmetry_equiv_pos_as_xyz
  1  'x, y, z'
loop_
 _atom_site_type_symbol
 _atom_site_label
 _atom_site_symmetry_multiplicity
 _atom_site_fract_x
 _atom_site_fract_y
 _atom_site_fract_z
 _atom_site_occupancy
  Mg  Mg0  1  0.85923148  0.60920656  0.30782344  1
  Ag  Ag0  1  0.34842471  0.99782601  0.24920135  1
  Ag  Ag1  1  0.65957158  0.00386984  0.74809249  1
  Ag  Ag2  1  0.24097055  0.35604479  0.20358692  1
  Ag  Ag3  1  0.80193934  0.56350823  0.81216122  1
  Ag  Ag4  1  0.44810543  0.64584711  0.29059761  1
  Ag  Ag5  1  0.49641364  0.42236747  0.74482963  1
  Mo  Mo0  1  0.45193113  0.23203008  0.47465840  1
  Mo  Mo1  1  0.55829196  0.79226472  0.53264436  1
  Mo  Mo2  1  0.95118026  0.22720332  0.48278247  1
  Mo  Mo3  1  0.05983323  0.77655635  0.52700825  1
  Mo  Mo4  1  0.84278476  0.81504240  0.04140746  1
  Mo  Mo5  1  0.13737046  0.18809257  0.95011559  1
  Mo  Mo6  1  0.70129879  0.19240433  0.00919546  1
  Mo  Mo7  1  0.30796021  0.77927386  0.98068941  1
  Mo  Mo8  1  0.81708905  0.01765139  0.32187583  1
  Mo  Mo9  1  0.19211953  0.99821072  0.67852994  1
  O  O0  1  0.95541381  0.01222694  0.99738043  1
  O  O1  1  0.09789791  0.69239320  0.02734035  1
  O  O2  1  0.88752585  0.32128764  0.95500030  1
  O  O3  1  0.63569688  0.98620990  0.09071956  1
  O  O4  1  0.33148322  0.99437882  0.91622267  1
  O  O5  1  0.50543791  0.32013425  0.07535361  1
  O  O6  1  0.49162908  0.63915588  0.92062914  1
  O  O7  1  0.77023546  0.65186411  0.14941366  1
  O  O8  1  0.25123455  0.33907182  0.87299674  1
  O  O9  1  0.16760357  0.16991648  0.09740273  1
  O  O10  1  0.79247086  0.80016285  0.90588708  1
  O  O11  1  0.34661063  0.77489300  0.12481833  1
  O  O12  1  0.65618413  0.19323492  0.86722413  1
  O  O13  1  0.79102051  0.16798537  0.19616987  1
  O  O14  1  0.21382495  0.82908723  0.79358921  1
  O  O15  1  0.89518067  0.83939032  0.25194645  1
  O  O16  1  0.11409991  0.15636148  0.76253035  1
  O  O17  1  0.42560670  0.37081913  0.34228282  1
  O  O18  1  0.59027103  0.65673625  0.66624182  1
  O  O19  1  0.98880770  0.38559895  0.33977154  1
  O  O20  1  0.02338922  0.63731748  0.65763710  1
  O  O21  1  0.03548099  0.02151556  0.37370012  1
  O  O22  1  0.97575116  0.99809069  0.62045137  1
  O  O23  1  0.55635772  0.01007544  0.38285498  1
  O  O24  1  0.45496452  0.00216845  0.62384095  1
  O  O25  1  0.15314766  0.66076221  0.41312068  1
  O  O26  1  0.83484241  0.33724508  0.59367321  1
  O  O27  1  0.62270454  0.66345183  0.41155629  1
  O  O28  1  0.41984429  0.34984206  0.58352214  1
  O  O29  1  0.71907693  0.18195284  0.44747572  1
  O  O30  1  0.28613620  0.82907166  0.54205100  1
  O  O31  1  0.81463131  0.83887649  0.49664936  1
  O  O32  1  0.21258859  0.17632193  0.50645745  1
loop_
_geom_bond_atom_site_label_1
_geom_bond_atom_site_label_2
_geom_bond_distance
_geom_bond_site_symmetry_2
Mg0 O19 1.945831 1_555
Mg0 O27 1.956297 1_555
Mg0 O15 2.038846 1_555
Mg0 O7 2.050565 1_555
Ag0 O9 2.503168 1_565
Ag0 O21 2.506354 1_565
Ag0 O23 2.528259 1_565
Ag0 O3 2.540124 1_555
Ag0 O11 2.674616 1_555
Ag1 O12 2.373548 1_555
Ag1 O24 2.392896 1_555
Ag1 O10 2.472924 1_545
Ag1 O22 2.551531 1_545
Ag2 O19 2.212812 1_455
Ag2 O5 2.235116 1_555
Ag2 O17 2.442758 1_555
Ag2 O9 2.487587 1_555
Ag3 O20 2.290274 1_655
Ag3 O2 2.434231 1_555
Ag3 O6 2.441508 1_555
Ag3 O18 2.504261 1_555
Ag3 O10 2.517047 1_555
Ag4 O11 2.221486 1_555
Ag4 O27 2.225659 1_555
Ag4 O17 2.381221 1_555
Ag4 O25 2.388708 1_555
Ag4 O7 2.661059 1_555
Ag5 O18 2.275894 1_555
Ag5 O8 2.302223 1_555
Ag5 O28 2.355625 1_555
Ag5 O12 2.420356 1_555
Mo0 O28 1.740641 1_555
Mo0 O17 1.759567 1_555
Mo0 O29 1.967796 1_555
Mo0 O32 1.971841 1_555
Mo0 O23 2.289931 1_555
Mo0 O24 2.348137 1_555
Mo1 O18 1.764586 1_555
Mo1 O27 1.895170 1_555
Mo1 O30 2.032088 1_555
Mo1 O31 2.061757 1_555
Mo1 O24 2.196263 1_565
Mo1 O23 2.281655 1_565
Mo2 O26 1.722617 1_555
Mo2 O19 1.937270 1_555
Mo2 O32 2.031651 1_655
Mo2 O29 2.086671 1_555
Mo2 O22 2.268494 1_545
Mo2 O21 2.296691 1_655
Mo3 O20 1.745487 1_555
Mo3 O25 1.754343 1_555
Mo3 O31 1.932352 1_455
Mo3 O30 1.979516 1_555
Mo3 O22 2.299440 1_455
Mo3 O21 2.464081 1_565
Mo4 O10 1.756148 1_554
Mo4 O7 1.796602 1_555
Mo4 O3 1.960205 1_555
Mo4 O1 1.978788 1_655
Mo4 O0 2.039810 1_564
Mo5 O8 1.741895 1_555
Mo5 O9 1.759046 1_556
Mo5 O2 1.979599 1_455
Mo5 O4 1.993082 1_545
Mo5 O0 2.243301 1_455
Mo5 O16 2.322808 1_555
Mo6 O5 1.760707 1_555
Mo6 O12 1.772436 1_554
Mo6 O2 1.962671 1_554
Mo6 O3 1.972600 1_545
Mo6 O0 2.175920 1_554
Mo6 O13 2.394939 1_555
Mo7 O6 1.738678 1_555
Mo7 O11 1.769704 1_556
Mo7 O1 1.889599 1_556
Mo7 O4 1.899215 1_555
Mo7 O14 2.380987 1_555
Mo8 O13 1.752663 1_555
Mo8 O15 1.813217 1_545
Mo8 O21 1.937961 1_655
Mo8 O23 1.995268 1_555
Mo8 O29 2.150238 1_555
Mo8 O31 2.280473 1_545
Mo9 O14 1.765022 1_555
Mo9 O16 1.765041 1_565
Mo9 O22 1.952175 1_455
Mo9 O24 1.996928 1_565
Mo9 O32 2.255617 1_565
Mo9 O30 2.276876 1_555
