# generated using pymatgen
data_Mn(C4N3)2
_symmetry_space_group_name_H-M   'P 1'
_cell_length_a   5.69182290
_cell_length_b   7.22975951
_cell_length_c   7.22975915
_cell_angle_alpha   59.95658291
_cell_angle_beta   90.16036236
_cell_angle_gamma   90.16036731
_symmetry_Int_Tables_number   1
_chemical_formula_structural   Mn(C4N3)2
_chemical_formula_sum   'Mn1 C8 N6'
_cell_volume   257.53558949
_cell_formula_units_Z   1
loop_
 _symmetry_equiv_pos_site_id
 _symmetry_equiv_pos_as_xyz
  1  'x, y, z'
loop_
 _atom_site_type_symbol
 _atom_site_label
 _atom_site_symmetry_multiplicity
 _atom_site_fract_x
 _atom_site_fract_y
 _atom_site_fract_z
 _atom_site_occupancy
  Mn  Mn0  1  0.98005700  0.99999800  0.99999800  1
  C  C0  1  0.22625600  0.66679400  0.66679400  1
  C  C1  1  0.20072200  0.77820300  0.77820300  1
  C  C2  1  0.20116800  0.77811100  0.44405100  1
  C  C3  1  0.20116800  0.44405100  0.77811100  1
  C  C4  1  0.73384400  0.33320500  0.33320500  1
  C  C5  1  0.75893200  0.55596700  0.22187500  1
  C  C6  1  0.75938400  0.22178900  0.22178900  1
  C  C7  1  0.75893200  0.22187500  0.55596700  1
  N  N0  1  0.16188500  0.87011200  0.87011200  1
  N  N1  1  0.16248000  0.87025100  0.25986800  1
  N  N2  1  0.16248000  0.25986800  0.87025100  1
  N  N3  1  0.79765100  0.74013500  0.12975000  1
  N  N4  1  0.79824600  0.12989000  0.12989000  1
  N  N5  1  0.79765100  0.12975000  0.74013500  1
loop_
_geom_bond_atom_site_label_1
_geom_bond_atom_site_label_2
_geom_bond_distance
_geom_bond_site_symmetry_2
Mn0 N3 1.928055 1_556
Mn0 N5 1.928055 1_565
Mn0 N2 1.928144 1_665
Mn0 N1 1.928144 1_656
Mn0 N0 1.930942 1_655
Mn0 N4 1.930953 1_566
C0 C2 1.401084 1_555
C0 C3 1.401084 1_555
C0 C1 1.403418 1_555
C1 N0 1.172898 1_555
C2 N1 1.173189 1_555
C3 N2 1.173189 1_555
C4 C7 1.401202 1_555
C4 C5 1.401202 1_555
C4 C6 1.403509 1_555
C5 N3 1.173130 1_555
C6 N4 1.172802 1_555
C7 N5 1.173130 1_555
