# generated using pymatgen
data_ErMn2
_symmetry_space_group_name_H-M   'P 1'
_cell_length_a   5.09361029
_cell_length_b   5.09361029
_cell_length_c   8.34264901
_cell_angle_alpha   86.79766997
_cell_angle_beta   86.79766997
_cell_angle_gamma   62.24021638
_symmetry_Int_Tables_number   1
_chemical_formula_structural   ErMn2
_chemical_formula_sum   'Er4 Mn8'
_cell_volume   191.12918370
_cell_formula_units_Z   4
loop_
 _symmetry_equiv_pos_site_id
 _symmetry_equiv_pos_as_xyz
  1  'x, y, z'
loop_
 _atom_site_type_symbol
 _atom_site_label
 _atom_site_symmetry_multiplicity
 _atom_site_fract_x
 _atom_site_fract_y
 _atom_site_fract_z
 _atom_site_occupancy
  Er  Er0  1  0.66941000  0.66941000  0.93845300  1
  Er  Er1  1  0.33059000  0.33059000  0.06154700  1
  Er  Er2  1  0.33429400  0.33429400  0.43651100  1
  Er  Er3  1  0.66570600  0.66570600  0.56348900  1
  Mn  Mn0  1  0.00000000  0.00000000  0.00000000  1
  Mn  Mn1  1  0.00000000  0.00000000  0.50000000  1
  Mn  Mn2  1  0.16800200  0.16800200  0.75454400  1
  Mn  Mn3  1  0.83199800  0.83199800  0.24545600  1
  Mn  Mn4  1  0.32941100  0.83995300  0.25563500  1
  Mn  Mn5  1  0.83995300  0.32941100  0.25563500  1
  Mn  Mn6  1  0.67058900  0.16004700  0.74436500  1
  Mn  Mn7  1  0.16004700  0.67058900  0.74436500  1
loop_
_geom_bond_atom_site_label_1
_geom_bond_atom_site_label_2
_geom_bond_distance
_geom_bond_site_symmetry_2
Er0 Mn6 2.903142 1_565
Er0 Mn7 2.903142 1_655
Er0 Mn0 2.961288 1_666
Er0 Mn3 3.007388 1_556
Er0 Mn5 3.016503 1_556
Er0 Mn4 3.016503 1_556
Er0 Mn0 3.045950 1_566
Er0 Mn0 3.045950 1_656
Er0 Mn2 3.047453 1_655
Er0 Mn2 3.047453 1_565
Er0 Er1 3.064306 1_556
Er0 Er3 3.130467 1_555
Er0 Mn6 3.131619 1_555
Er0 Mn7 3.131619 1_555
Er0 Er1 3.185782 1_656
Er0 Er1 3.185782 1_566
Er1 Mn5 2.903142 1_455
Er1 Mn4 2.903142 1_545
Er1 Mn0 2.961288 1_555
Er1 Mn2 3.007388 1_554
Er1 Mn6 3.016503 1_554
Er1 Mn7 3.016503 1_554
Er1 Mn0 3.045950 1_655
Er1 Mn0 3.045950 1_565
Er1 Mn3 3.047453 1_545
Er1 Mn3 3.047453 1_455
Er1 Er2 3.130467 1_555
Er1 Mn4 3.131619 1_555
Er1 Mn5 3.131619 1_555
Er2 Mn4 2.902036 1_555
Er2 Mn5 2.902036 1_555
Er2 Mn1 2.928943 1_555
Er2 Mn2 2.939514 1_555
Er2 Mn4 3.017436 1_545
Er2 Mn5 3.017436 1_455
Er2 Mn7 3.023049 1_555
Er2 Mn6 3.023049 1_555
Er2 Mn1 3.065812 1_655
Er2 Mn1 3.065812 1_565
Er2 Mn3 3.078217 1_545
Er2 Mn3 3.078217 1_455
Er2 Er3 3.142536 1_555
Er2 Er3 3.164010 1_455
Er2 Er3 3.164010 1_545
Er3 Mn6 2.902036 1_555
Er3 Mn7 2.902036 1_555
Er3 Mn1 2.928943 1_665
Er3 Mn3 2.939514 1_555
Er3 Mn7 3.017436 1_655
Er3 Mn6 3.017436 1_565
Er3 Mn5 3.023049 1_555
Er3 Mn4 3.023049 1_555
Er3 Mn1 3.065812 1_565
Er3 Mn1 3.065812 1_655
Er3 Mn2 3.078217 1_655
Er3 Mn2 3.078217 1_565
Mn0 Mn3 2.438945 1_445
Mn0 Mn2 2.438945 1_554
Mn0 Mn4 2.638096 1_545
Mn0 Mn5 2.638096 1_455
Mn0 Mn7 2.638096 1_544
Mn0 Mn6 2.638096 1_454
Mn1 Mn6 2.483006 1_455
Mn1 Mn7 2.483006 1_545
Mn1 Mn5 2.483006 1_455
Mn1 Mn4 2.483006 1_545
Mn1 Mn2 2.657504 1_555
Mn1 Mn3 2.657504 1_445
Mn2 Mn6 2.538076 1_555
Mn2 Mn7 2.538076 1_555
Mn2 Mn7 2.558941 1_545
Mn2 Mn6 2.558941 1_455
Mn3 Mn4 2.538076 1_555
Mn3 Mn5 2.538076 1_555
Mn3 Mn5 2.558941 1_565
Mn3 Mn4 2.558941 1_655
Mn4 Mn5 2.577045 1_465
Mn4 Mn5 2.688055 1_555
Mn6 Mn7 2.577045 1_645
Mn6 Mn7 2.688055 1_555
