# generated using pymatgen
data_EuZnIn3
_symmetry_space_group_name_H-M   'P 1'
_cell_length_a   6.78349508
_cell_length_b   6.78349508
_cell_length_c   6.78349508
_cell_angle_alpha   139.33175241
_cell_angle_beta   139.33175241
_cell_angle_gamma   58.86935701
_symmetry_Int_Tables_number   1
_chemical_formula_structural   EuZnIn3
_chemical_formula_sum   'Eu1 Zn1 In3'
_cell_volume   131.30828115
_cell_formula_units_Z   1
loop_
 _symmetry_equiv_pos_site_id
 _symmetry_equiv_pos_as_xyz
  1  'x, y, z'
loop_
 _atom_site_type_symbol
 _atom_site_label
 _atom_site_symmetry_multiplicity
 _atom_site_fract_x
 _atom_site_fract_y
 _atom_site_fract_z
 _atom_site_occupancy
  Eu  Eu0  1  0.99649900  0.99649900  0.00000000  1
  Zn  Zn0  1  0.38319000  0.38319000  0.00000000  1
  In  In0  1  0.25896000  0.75896000  0.50000000  1
  In  In1  1  0.75896000  0.25896000  0.50000000  1
  In  In2  1  0.60239100  0.60239100  0.00000000  1
loop_
_geom_bond_atom_site_label_1
_geom_bond_atom_site_label_2
_geom_bond_distance
_geom_bond_site_symmetry_2
Eu0 In2 3.560687 1_655
Eu0 In2 3.560687 1_565
Eu0 In2 3.560687 1_666
Eu0 In2 3.560687 1_554
Eu0 Zn0 3.592419 1_655
Eu0 Zn0 3.592419 1_554
Eu0 Zn0 3.592419 1_565
Eu0 Zn0 3.592419 1_666
Eu0 In1 3.665247 1_554
Eu0 In0 3.665247 1_554
Eu0 In1 3.665247 1_565
Eu0 In0 3.665247 1_655
Eu0 In1 3.895347 1_564
Eu0 In0 3.895347 1_654
Eu0 In0 3.895347 1_665
Eu0 In1 3.895347 1_665
In0 Zn0 2.776894 1_555
In0 Zn0 2.776894 1_566
In0 In2 2.996484 1_455
In0 In2 2.996484 1_556
In1 Zn0 2.776894 1_555
In1 Zn0 2.776894 1_656
In1 In2 2.996484 1_556
In1 In2 2.996484 1_545
In2 Zn0 2.590017 1_555
