# generated using pymatgen
data_CaNiO2
_symmetry_space_group_name_H-M   'P 1'
_cell_length_a   3.16846300
_cell_length_b   8.17190074
_cell_length_c   8.93616114
_cell_angle_alpha   111.02658341
_cell_angle_beta   99.97209618
_cell_angle_gamma   89.16022460
_symmetry_Int_Tables_number   1
_chemical_formula_structural   CaNiO2
_chemical_formula_sum   'Ca4 Ni4 O8'
_cell_volume   212.42509858
_cell_formula_units_Z   4
loop_
 _symmetry_equiv_pos_site_id
 _symmetry_equiv_pos_as_xyz
  1  'x, y, z'
loop_
 _atom_site_type_symbol
 _atom_site_label
 _atom_site_symmetry_multiplicity
 _atom_site_fract_x
 _atom_site_fract_y
 _atom_site_fract_z
 _atom_site_occupancy
  Ca  Ca0  1  0.68735000  0.14488300  0.36571600  1
  Ca  Ca1  1  0.31265000  0.85511700  0.63428400  1
  Ca  Ca2  1  0.99421900  0.70259500  0.97930400  1
  Ca  Ca3  1  0.00578100  0.29740500  0.02069600  1
  Ni  Ni0  1  0.37768600  0.25317800  0.71655500  1
  Ni  Ni1  1  0.82606100  0.52509800  0.64897200  1
  Ni  Ni2  1  0.17393900  0.47490200  0.35102800  1
  Ni  Ni3  1  0.62231400  0.74682200  0.28344500  1
  O  O0  1  0.09280100  0.58501900  0.17779700  1
  O  O1  1  0.60341800  0.28885000  0.19571700  1
  O  O2  1  0.39658200  0.71115000  0.80428300  1
  O  O3  1  0.90719900  0.41498100  0.82220300  1
  O  O4  1  0.83987600  0.07457800  0.71572400  1
  O  O5  1  0.26415400  0.35356300  0.52508700  1
  O  O6  1  0.16012400  0.92542200  0.28427600  1
  O  O7  1  0.73584600  0.64643700  0.47491300  1
loop_
_geom_bond_atom_site_label_1
_geom_bond_atom_site_label_2
_geom_bond_distance
_geom_bond_site_symmetry_2
Ca0 O1 2.212704 1_555
Ca0 O6 2.294928 1_545
Ca0 O6 2.313459 1_645
Ca0 O5 2.363440 1_555
Ca0 O5 2.392385 1_655
Ca1 O2 2.212704 1_555
Ca1 O4 2.294928 1_565
Ca1 O4 2.313459 1_465
Ca1 O7 2.363440 1_555
Ca1 O7 2.392385 1_455
Ca2 O2 2.201812 1_655
Ca2 O2 2.255125 1_555
Ca2 O3 2.255701 1_555
Ca2 O0 2.278001 1_656
Ca2 O6 2.643862 1_656
Ca3 O1 2.201812 1_455
Ca3 O1 2.255125 1_555
Ca3 O0 2.255701 1_555
Ca3 O3 2.278001 1_454
Ca3 O4 2.643862 1_454
Ni0 O3 2.018687 1_555
Ni0 O4 2.051365 1_555
Ni0 O3 2.096597 1_455
Ni0 O5 2.124909 1_555
Ni0 O4 2.257136 1_455
Ni1 O3 2.031558 1_555
Ni1 O7 2.104452 1_555
Ni1 O5 2.116334 1_655
Ni1 O5 2.153419 1_555
Ni1 O2 2.273498 1_555
Ni1 O2 2.280995 1_655
Ni2 O0 2.031558 1_555
Ni2 O5 2.104452 1_555
Ni2 O7 2.116334 1_455
Ni2 O7 2.153419 1_555
Ni2 O1 2.273498 1_555
Ni2 O1 2.280995 1_455
Ni3 O0 2.018687 1_555
Ni3 O6 2.051365 1_555
Ni3 O0 2.096597 1_655
Ni3 O7 2.124909 1_555
Ni3 O6 2.257136 1_655
