# generated using pymatgen
data_Mg2Bi
_symmetry_space_group_name_H-M   'P 1'
_cell_length_a   12.53128279
_cell_length_b   12.53128279
_cell_length_c   15.69414103
_cell_angle_alpha   79.73051748
_cell_angle_beta   79.73051748
_cell_angle_gamma   31.17702169
_symmetry_Int_Tables_number   1
_chemical_formula_structural   Mg2Bi
_chemical_formula_sum   'Mg32 Bi16'
_cell_volume   1253.78795623
_cell_formula_units_Z   16
loop_
 _symmetry_equiv_pos_site_id
 _symmetry_equiv_pos_as_xyz
  1  'x, y, z'
loop_
 _atom_site_type_symbol
 _atom_site_label
 _atom_site_symmetry_multiplicity
 _atom_site_fract_x
 _atom_site_fract_y
 _atom_site_fract_z
 _atom_site_occupancy
  Mg  Mg0_0  1  0.49942700  0.49942700  0.49960800  1
  Mg  Mg0_1  1  0.49942700  0.49942700  0.99960800  1
  Mg  Mg0_2  1  0.49942700  0.99942700  0.49960800  1
  Mg  Mg0_3  1  0.49942700  0.99942700  0.99960800  1
  Mg  Mg0_4  1  0.99942700  0.49942700  0.49960800  1
  Mg  Mg0_5  1  0.99942700  0.49942700  0.99960800  1
  Mg  Mg0_6  1  0.99942700  0.99942700  0.49960800  1
  Mg  Mg0_7  1  0.99942700  0.99942700  0.99960800  1
  Mg  Mg1_0  1  0.17013950  0.17013950  0.16371850  1
  Mg  Mg1_1  1  0.17013950  0.17013950  0.66371850  1
  Mg  Mg1_2  1  0.17013950  0.67013950  0.16371850  1
  Mg  Mg1_3  1  0.17013950  0.67013950  0.66371850  1
  Mg  Mg1_4  1  0.67013950  0.17013950  0.16371850  1
  Mg  Mg1_5  1  0.67013950  0.17013950  0.66371850  1
  Mg  Mg1_6  1  0.67013950  0.67013950  0.16371850  1
  Mg  Mg1_7  1  0.67013950  0.67013950  0.66371850  1
  Mg  Mg2_0  1  0.33110100  0.33110100  0.33574800  1
  Mg  Mg2_1  1  0.33110100  0.33110100  0.83574800  1
  Mg  Mg2_2  1  0.33110100  0.83110100  0.33574800  1
  Mg  Mg2_3  1  0.33110100  0.83110100  0.83574800  1
  Mg  Mg2_4  1  0.83110100  0.33110100  0.33574800  1
  Mg  Mg2_5  1  0.83110100  0.33110100  0.83574800  1
  Mg  Mg2_6  1  0.83110100  0.83110100  0.33574800  1
  Mg  Mg2_7  1  0.83110100  0.83110100  0.83574800  1
  Mg  Mg3_0  1  0.13858200  0.13858200  0.47248500  1
  Mg  Mg3_1  1  0.13858200  0.13858200  0.97248500  1
  Mg  Mg3_2  1  0.13858200  0.63858200  0.47248500  1
  Mg  Mg3_3  1  0.13858200  0.63858200  0.97248500  1
  Mg  Mg3_4  1  0.63858200  0.13858200  0.47248500  1
  Mg  Mg3_5  1  0.63858200  0.13858200  0.97248500  1
  Mg  Mg3_6  1  0.63858200  0.63858200  0.47248500  1
  Mg  Mg3_7  1  0.63858200  0.63858200  0.97248500  1
  Bi  Bi0_0  1  0.31418550  0.31418550  0.12764050  1
  Bi  Bi0_1  1  0.31418550  0.31418550  0.62764050  1
  Bi  Bi0_2  1  0.31418550  0.81418550  0.12764050  1
  Bi  Bi0_3  1  0.31418550  0.81418550  0.62764050  1
  Bi  Bi0_4  1  0.81418550  0.31418550  0.12764050  1
  Bi  Bi0_5  1  0.81418550  0.31418550  0.62764050  1
  Bi  Bi0_6  1  0.81418550  0.81418550  0.12764050  1
  Bi  Bi0_7  1  0.81418550  0.81418550  0.62764050  1
  Bi  Bi1_0  1  0.46323150  0.46323150  0.31746650  1
  Bi  Bi1_1  1  0.46323150  0.46323150  0.81746650  1
  Bi  Bi1_2  1  0.46323150  0.96323150  0.31746650  1
  Bi  Bi1_3  1  0.46323150  0.96323150  0.81746650  1
  Bi  Bi1_4  1  0.96323150  0.46323150  0.31746650  1
  Bi  Bi1_5  1  0.96323150  0.46323150  0.81746650  1
  Bi  Bi1_6  1  0.96323150  0.96323150  0.31746650  1
  Bi  Bi1_7  1  0.96323150  0.96323150  0.81746650  1
loop_
_geom_bond_atom_site_label_1
_geom_bond_atom_site_label_2
_geom_bond_distance
_geom_bond_site_symmetry_2
Mg0_0 Mg3_2 3.255478 1_555
Mg0_0 Mg3_4 3.255478 1_555
Mg0_0 Mg3_6 3.307073 1_555
Mg0_0 Mg1_3 3.362634 1_555
Mg0_0 Mg1_5 3.362634 1_555
Mg0_0 Mg0_6 3.367490 1_545
Mg0_0 Mg0_6 3.367490 1_455
Mg0_0 Mg2_4 3.385096 1_555
Mg0_0 Mg2_2 3.385096 1_555
Mg0_1 Mg3_5 3.255478 1_555
Mg0_1 Mg3_3 3.255478 1_555
Mg0_1 Mg3_7 3.307073 1_555
Mg0_1 Mg1_2 3.362634 1_556
Mg0_1 Mg1_4 3.362634 1_556
Mg0_1 Mg0_7 3.367490 1_455
Mg0_1 Mg0_7 3.367490 1_545
Mg0_1 Mg2_5 3.385096 1_555
Mg0_1 Mg2_3 3.385096 1_555
Mg0_2 Mg3_0 3.255478 1_565
Mg0_2 Mg3_6 3.255478 1_555
Mg0_2 Mg3_4 3.307073 1_565
Mg0_2 Mg1_1 3.362634 1_565
Mg0_2 Mg1_7 3.362634 1_555
Mg0_2 Mg0_4 3.367490 1_555
Mg0_2 Mg0_4 3.367490 1_465
Mg0_2 Mg2_6 3.385096 1_555
Mg0_2 Mg2_0 3.385096 1_565
Mg0_3 Mg3_1 3.255478 1_565
Mg0_3 Mg3_7 3.255478 1_555
Mg0_3 Mg3_5 3.307073 1_565
Mg0_3 Mg1_6 3.362634 1_556
Mg0_3 Mg1_0 3.362634 1_566
Mg0_3 Mg0_5 3.367490 1_465
Mg0_3 Mg0_5 3.367490 1_555
Mg0_3 Mg2_1 3.385096 1_565
Mg0_3 Mg2_7 3.385096 1_555
Mg0_4 Mg3_0 3.255478 1_655
Mg0_4 Mg3_6 3.255478 1_555
Mg0_4 Mg3_2 3.307073 1_655
Mg0_4 Mg1_1 3.362634 1_655
Mg0_4 Mg1_7 3.362634 1_555
Mg0_4 Mg2_6 3.385096 1_555
Mg0_4 Mg2_0 3.385096 1_655
Mg0_5 Mg3_1 3.255478 1_655
Mg0_5 Mg3_7 3.255478 1_555
Mg0_5 Mg3_3 3.307073 1_655
Mg0_5 Mg1_6 3.362634 1_556
Mg0_5 Mg1_0 3.362634 1_656
Mg0_5 Mg2_1 3.385096 1_655
Mg0_5 Mg2_7 3.385096 1_555
Mg0_6 Mg3_4 3.255478 1_565
Mg0_6 Mg3_2 3.255478 1_655
Mg0_6 Mg3_0 3.307073 1_665
Mg0_6 Mg1_3 3.362634 1_655
Mg0_6 Mg1_5 3.362634 1_565
Mg0_6 Mg2_4 3.385096 1_565
Mg0_6 Mg2_2 3.385096 1_655
Mg0_7 Mg3_5 3.255478 1_565
Mg0_7 Mg3_3 3.255478 1_655
Mg0_7 Mg3_1 3.307073 1_665
Mg0_7 Mg1_2 3.362634 1_656
Mg0_7 Mg1_4 3.362634 1_566
Mg0_7 Mg2_5 3.385096 1_565
Mg0_7 Mg2_3 3.385096 1_655
Mg1_0 Mg3_1 3.230203 1_554
Mg1_0 Mg1_6 3.367490 1_455
Mg1_0 Mg1_6 3.367490 1_545
Mg1_0 Mg2_2 3.549107 1_545
Mg1_0 Mg2_4 3.549107 1_455
Mg1_1 Mg3_0 3.230203 1_555
Mg1_1 Mg1_7 3.367490 1_455
Mg1_1 Mg1_7 3.367490 1_545
Mg1_1 Mg2_3 3.549107 1_545
Mg1_1 Mg2_5 3.549107 1_455
Mg1_2 Mg3_3 3.230203 1_554
Mg1_2 Mg1_4 3.367490 1_555
Mg1_2 Mg1_4 3.367490 1_465
Mg1_2 Mg2_6 3.549107 1_455
Mg1_2 Mg2_0 3.549107 1_555
Mg1_3 Mg3_2 3.230203 1_555
Mg1_3 Mg1_5 3.367490 1_555
Mg1_3 Mg1_5 3.367490 1_465
Mg1_3 Mg2_1 3.549107 1_555
Mg1_3 Mg2_7 3.549107 1_455
Mg1_4 Mg3_5 3.230203 1_554
Mg1_4 Mg2_0 3.549107 1_555
Mg1_4 Mg2_6 3.549107 1_545
Mg1_5 Mg3_4 3.230203 1_555
Mg1_5 Mg2_1 3.549107 1_555
Mg1_5 Mg2_7 3.549107 1_545
Mg1_6 Mg3_7 3.230203 1_554
Mg1_6 Mg2_2 3.549107 1_555
Mg1_6 Mg2_4 3.549107 1_555
Mg1_7 Mg3_6 3.230203 1_555
Mg1_7 Mg2_3 3.549107 1_555
Mg1_7 Mg2_5 3.549107 1_555
Mg2_0 Mg3_4 3.235430 1_555
Mg2_0 Mg3_2 3.235430 1_555
Mg2_0 Mg2_6 3.367490 1_455
Mg2_0 Mg2_6 3.367490 1_545
Mg2_1 Mg3_5 3.235430 1_555
Mg2_1 Mg3_3 3.235430 1_555
Mg2_1 Mg2_7 3.367490 1_545
Mg2_1 Mg2_7 3.367490 1_455
Mg2_2 Mg3_6 3.235430 1_555
Mg2_2 Mg3_0 3.235430 1_565
Mg2_2 Mg2_4 3.367490 1_555
Mg2_2 Mg2_4 3.367490 1_465
Mg2_3 Mg3_7 3.235430 1_555
Mg2_3 Mg3_1 3.235430 1_565
Mg2_3 Mg2_5 3.367490 1_465
Mg2_3 Mg2_5 3.367490 1_555
Mg2_4 Mg3_6 3.235430 1_555
Mg2_4 Mg3_0 3.235430 1_655
Mg2_5 Mg3_7 3.235430 1_555
Mg2_5 Mg3_1 3.235430 1_655
Mg2_6 Mg3_2 3.235430 1_655
Mg2_6 Mg3_4 3.235430 1_565
Mg2_7 Mg3_3 3.235430 1_655
Mg2_7 Mg3_5 3.235430 1_565
Mg3_0 Mg3_6 3.367490 1_455
Mg3_0 Mg3_6 3.367490 1_545
Mg3_1 Mg3_7 3.367490 1_455
Mg3_1 Mg3_7 3.367490 1_545
Mg3_2 Mg3_4 3.367490 1_555
Mg3_2 Mg3_4 3.367490 1_465
Mg3_3 Mg3_5 3.367490 1_555
Mg3_3 Mg3_5 3.367490 1_465
Bi0_0 Mg1_4 3.199070 1_555
Bi0_0 Mg1_2 3.199070 1_555
Bi0_0 Mg3_5 3.220414 1_554
Bi0_0 Mg3_3 3.220414 1_554
Bi0_0 Mg0_3 3.237172 1_544
Bi0_0 Mg0_5 3.237172 1_454
Bi0_0 Mg2_0 3.365658 1_555
Bi0_0 Bi0_6 3.367490 1_545
Bi0_0 Bi0_6 3.367490 1_455
Bi0_0 Mg1_0 3.418163 1_555
Bi0_1 Mg1_5 3.199070 1_555
Bi0_1 Mg1_3 3.199070 1_555
Bi0_1 Mg3_2 3.220414 1_555
Bi0_1 Mg3_4 3.220414 1_555
Bi0_1 Mg0_2 3.237172 1_545
Bi0_1 Mg0_4 3.237172 1_455
Bi0_1 Mg2_1 3.365658 1_555
Bi0_1 Bi0_7 3.367490 1_455
Bi0_1 Bi0_7 3.367490 1_545
Bi0_1 Mg1_1 3.418163 1_555
Bi0_2 Mg1_0 3.199070 1_565
Bi0_2 Mg1_6 3.199070 1_555
Bi0_2 Mg3_7 3.220414 1_554
Bi0_2 Mg3_1 3.220414 1_564
Bi0_2 Mg0_7 3.237172 1_454
Bi0_2 Mg0_1 3.237172 1_554
Bi0_2 Mg2_2 3.365658 1_555
Bi0_2 Bi0_4 3.367490 1_555
Bi0_2 Bi0_4 3.367490 1_465
Bi0_2 Mg1_2 3.418163 1_555
Bi0_3 Mg1_7 3.199070 1_555
Bi0_3 Mg1_1 3.199070 1_565
Bi0_3 Mg3_6 3.220414 1_555
Bi0_3 Mg3_0 3.220414 1_565
Bi0_3 Mg0_6 3.237172 1_455
Bi0_3 Mg0_0 3.237172 1_555
Bi0_3 Mg2_3 3.365658 1_555
Bi0_3 Bi0_5 3.367490 1_555
Bi0_3 Bi0_5 3.367490 1_465
Bi0_3 Mg1_3 3.418163 1_555
Bi0_4 Mg1_0 3.199070 1_655
Bi0_4 Mg1_6 3.199070 1_555
Bi0_4 Mg3_7 3.220414 1_554
Bi0_4 Mg3_1 3.220414 1_654
Bi0_4 Mg0_7 3.237172 1_544
Bi0_4 Mg0_1 3.237172 1_554
Bi0_4 Mg2_4 3.365658 1_555
Bi0_4 Mg1_4 3.418163 1_555
Bi0_5 Mg1_7 3.199070 1_555
Bi0_5 Mg1_1 3.199070 1_655
Bi0_5 Mg3_6 3.220414 1_555
Bi0_5 Mg3_0 3.220414 1_655
Bi0_5 Mg0_6 3.237172 1_545
Bi0_5 Mg0_0 3.237172 1_555
Bi0_5 Mg2_5 3.365658 1_555
Bi0_5 Mg1_5 3.418163 1_555
Bi0_6 Mg1_4 3.199070 1_565
Bi0_6 Mg1_2 3.199070 1_655
Bi0_6 Mg3_3 3.220414 1_654
Bi0_6 Mg3_5 3.220414 1_564
Bi0_6 Mg0_3 3.237172 1_554
Bi0_6 Mg0_5 3.237172 1_554
Bi0_6 Mg2_6 3.365658 1_555
Bi0_6 Mg1_6 3.418163 1_555
Bi0_7 Mg1_5 3.199070 1_565
Bi0_7 Mg1_3 3.199070 1_655
Bi0_7 Mg3_4 3.220414 1_565
Bi0_7 Mg3_2 3.220414 1_655
Bi0_7 Mg0_2 3.237172 1_555
Bi0_7 Mg0_4 3.237172 1_555
Bi0_7 Mg2_7 3.365658 1_555
Bi0_7 Mg1_7 3.418163 1_555
Bi1_0 Mg0_0 3.139973 1_555
Bi1_0 Mg2_0 3.149263 1_555
Bi1_0 Mg3_2 3.221568 1_555
Bi1_0 Mg3_4 3.221568 1_555
Bi1_0 Mg1_2 3.266286 1_555
Bi1_0 Mg1_4 3.266286 1_555
Bi1_0 Mg2_4 3.363942 1_555
Bi1_0 Mg2_2 3.363942 1_555
Bi1_0 Bi1_6 3.367490 1_545
Bi1_0 Bi1_6 3.367490 1_455
Bi1_1 Mg0_1 3.139973 1_555
Bi1_1 Mg2_1 3.149263 1_555
Bi1_1 Mg3_5 3.221568 1_555
Bi1_1 Mg3_3 3.221568 1_555
Bi1_1 Mg1_3 3.266286 1_555
Bi1_1 Mg1_5 3.266286 1_555
Bi1_1 Mg2_5 3.363942 1_555
Bi1_1 Mg2_3 3.363942 1_555
Bi1_1 Bi1_7 3.367490 1_545
Bi1_1 Bi1_7 3.367490 1_455
Bi1_2 Mg0_2 3.139973 1_555
Bi1_2 Mg2_2 3.149263 1_555
Bi1_2 Mg3_0 3.221568 1_565
Bi1_2 Mg3_6 3.221568 1_555
Bi1_2 Mg1_6 3.266286 1_555
Bi1_2 Mg1_0 3.266286 1_565
Bi1_2 Mg2_6 3.363942 1_555
Bi1_2 Mg2_0 3.363942 1_565
Bi1_2 Bi1_4 3.367490 1_555
Bi1_2 Bi1_4 3.367490 1_465
Bi1_3 Mg0_3 3.139973 1_555
Bi1_3 Mg2_3 3.149263 1_555
Bi1_3 Mg3_1 3.221568 1_565
Bi1_3 Mg3_7 3.221568 1_555
Bi1_3 Mg1_1 3.266286 1_565
Bi1_3 Mg1_7 3.266286 1_555
Bi1_3 Mg2_1 3.363942 1_565
Bi1_3 Mg2_7 3.363942 1_555
Bi1_3 Bi1_5 3.367490 1_555
Bi1_3 Bi1_5 3.367490 1_465
Bi1_4 Mg0_4 3.139973 1_555
Bi1_4 Mg2_4 3.149263 1_555
Bi1_4 Mg3_0 3.221568 1_655
Bi1_4 Mg3_6 3.221568 1_555
Bi1_4 Mg1_6 3.266286 1_555
Bi1_4 Mg1_0 3.266286 1_655
Bi1_4 Mg2_6 3.363942 1_555
Bi1_4 Mg2_0 3.363942 1_655
Bi1_5 Mg0_5 3.139973 1_555
Bi1_5 Mg2_5 3.149263 1_555
Bi1_5 Mg3_1 3.221568 1_655
Bi1_5 Mg3_7 3.221568 1_555
Bi1_5 Mg1_1 3.266286 1_655
Bi1_5 Mg1_7 3.266286 1_555
Bi1_5 Mg2_1 3.363942 1_655
Bi1_5 Mg2_7 3.363942 1_555
Bi1_6 Mg0_6 3.139973 1_555
Bi1_6 Mg2_6 3.149263 1_555
Bi1_6 Mg3_4 3.221568 1_565
Bi1_6 Mg3_2 3.221568 1_655
Bi1_6 Mg1_2 3.266286 1_655
Bi1_6 Mg1_4 3.266286 1_565
Bi1_6 Mg2_4 3.363942 1_565
Bi1_6 Mg2_2 3.363942 1_655
Bi1_7 Mg0_7 3.139973 1_555
Bi1_7 Mg2_7 3.149263 1_555
Bi1_7 Mg3_3 3.221568 1_655
Bi1_7 Mg3_5 3.221568 1_565
Bi1_7 Mg1_3 3.266286 1_655
Bi1_7 Mg1_5 3.266286 1_565
Bi1_7 Mg2_5 3.363942 1_565
Bi1_7 Mg2_3 3.363942 1_655
