# generated using pymatgen
data_Nd2MgS4
_symmetry_space_group_name_H-M   'P 1'
_cell_length_a   7.62386780
_cell_length_b   8.90113248
_cell_length_c   11.94238978
_cell_angle_alpha   79.79683340
_cell_angle_beta   83.56928201
_cell_angle_gamma   91.22166044
_symmetry_Int_Tables_number   1
_chemical_formula_structural   Nd2MgS4
_chemical_formula_sum   'Nd8 Mg4 S16'
_cell_volume   791.88623163
_cell_formula_units_Z   4
loop_
 _symmetry_equiv_pos_site_id
 _symmetry_equiv_pos_as_xyz
  1  'x, y, z'
loop_
 _atom_site_type_symbol
 _atom_site_label
 _atom_site_symmetry_multiplicity
 _atom_site_fract_x
 _atom_site_fract_y
 _atom_site_fract_z
 _atom_site_occupancy
  Nd  Nd0  1  0.13632600  0.70603500  0.65829400  1
  Nd  Nd1  1  0.86367400  0.29396500  0.34170600  1
  Nd  Nd2  1  0.24776200  0.86955900  0.99721500  1
  Nd  Nd3  1  0.75223800  0.13044100  0.00278500  1
  Nd  Nd4  1  0.36862400  0.55264200  0.33453100  1
  Nd  Nd5  1  0.63137600  0.44735800  0.66546900  1
  Nd  Nd6  1  0.36091800  0.02749800  0.34572800  1
  Nd  Nd7  1  0.63908200  0.97250200  0.65427200  1
  Mg  Mg0  1  0.13955500  0.20714300  0.68568900  1
  Mg  Mg1  1  0.86044500  0.79285700  0.31431100  1
  Mg  Mg2  1  0.24802700  0.38900300  0.99332400  1
  Mg  Mg3  1  0.75197300  0.61099700  0.00667600  1
  S  S0  1  0.09917500  0.63988600  0.88773900  1
  S  S1  1  0.90082500  0.36011400  0.11226100  1
  S  S2  1  0.11536100  0.16598200  0.89229400  1
  S  S3  1  0.88463900  0.83401800  0.10770600  1
  S  S4  1  0.14940300  0.77067100  0.39360400  1
  S  S5  1  0.85059700  0.22932900  0.60639600  1
  S  S6  1  0.20120600  0.28032400  0.37818500  1
  S  S7  1  0.79879400  0.71967600  0.62181500  1
  S  S8  1  0.29642300  0.99388200  0.60908100  1
  S  S9  1  0.70357700  0.00611800  0.39091900  1
  S  S10  1  0.30036000  0.45455600  0.60260100  1
  S  S11  1  0.69964000  0.54544400  0.39739900  1
  S  S12  1  0.39686400  0.08579700  0.11704800  1
  S  S13  1  0.60313600  0.91420300  0.88295200  1
  S  S14  1  0.40367000  0.58879700  0.10478700  1
  S  S15  1  0.59633000  0.41120300  0.89521300  1
loop_
_geom_bond_atom_site_label_1
_geom_bond_atom_site_label_2
_geom_bond_distance
_geom_bond_site_symmetry_2
Nd0 S7 2.659342 1_455
Nd0 S0 2.680042 1_555
Nd0 S10 2.734493 1_555
Nd0 S8 2.751789 1_555
Nd0 S4 3.100922 1_555
Nd1 S6 2.659342 1_655
Nd1 S1 2.680042 1_555
Nd1 S11 2.734493 1_555
Nd1 S9 2.751789 1_555
Nd1 S5 3.100922 1_555
Nd2 S12 2.879561 1_566
Nd2 S13 2.879972 1_555
Nd2 S0 2.889956 1_555
Nd2 S3 2.915779 1_456
Nd2 S14 2.939386 1_556
Nd2 S2 2.962471 1_565
Nd3 S13 2.879561 1_544
Nd3 S12 2.879972 1_555
Nd3 S1 2.889956 1_555
Nd3 S2 2.915779 1_654
Nd3 S15 2.939386 1_554
Nd3 S3 2.962471 1_545
Nd4 S6 2.654754 1_555
Nd4 S14 2.687398 1_555
Nd4 S11 2.711225 1_555
Nd4 S4 2.723334 1_555
Nd4 S10 3.146305 1_555
Nd5 S7 2.654754 1_555
Nd5 S15 2.687398 1_555
Nd5 S10 2.711225 1_555
Nd5 S5 2.723334 1_555
Nd5 S11 3.146305 1_555
Nd6 S6 2.649053 1_555
Nd6 S12 2.669622 1_555
Nd6 S4 2.706752 1_545
Nd6 S9 2.729959 1_555
Nd6 S8 3.088147 1_545
Nd7 S7 2.649053 1_555
Nd7 S13 2.669622 1_555
Nd7 S5 2.706752 1_565
Nd7 S8 2.729959 1_555
Nd7 S9 3.088147 1_565
Mg0 S2 2.414750 1_555
Mg0 S10 2.485095 1_555
Mg0 S5 2.491669 1_455
Mg0 S8 2.517474 1_545
Mg1 S3 2.414750 1_555
Mg1 S11 2.485095 1_555
Mg1 S4 2.491669 1_655
Mg1 S9 2.517474 1_565
Mg2 S0 2.701060 1_555
Mg2 S14 2.728578 1_556
Mg2 S2 2.730530 1_555
Mg2 S15 2.767991 1_555
Mg2 S1 2.844245 1_456
Mg2 S12 3.138164 1_556
Mg3 S1 2.701060 1_555
Mg3 S15 2.728578 1_554
Mg3 S3 2.730530 1_555
Mg3 S14 2.767991 1_555
Mg3 S0 2.844245 1_654
Mg3 S13 3.138164 1_554
