# generated using pymatgen
data_Sr(NiO2)4
_symmetry_space_group_name_H-M   'P 1'
_cell_length_a   5.72524542
_cell_length_b   6.83538648
_cell_length_c   9.91632905
_cell_angle_alpha   103.99113002
_cell_angle_beta   90.00114189
_cell_angle_gamma   65.24013516
_symmetry_Int_Tables_number   1
_chemical_formula_structural   Sr(NiO2)4
_chemical_formula_sum   'Sr2 Ni8 O16'
_cell_volume   339.67469514
_cell_formula_units_Z   2
loop_
 _symmetry_equiv_pos_site_id
 _symmetry_equiv_pos_as_xyz
  1  'x, y, z'
loop_
 _atom_site_type_symbol
 _atom_site_label
 _atom_site_symmetry_multiplicity
 _atom_site_fract_x
 _atom_site_fract_y
 _atom_site_fract_z
 _atom_site_occupancy
  Sr  Sr0  1  0.74999600  0.50000900  0.75000600  1
  Sr  Sr1  1  0.25000200  0.49999700  0.24999500  1
  Ni  Ni0  1  0.25004500  0.99999100  0.74990300  1
  Ni  Ni1  1  0.74995300  0.00000800  0.25010100  1
  Ni  Ni2  1  0.99999900  0.00000100  0.50000000  1
  Ni  Ni3  1  0.50000000  0.00000100  0.00000100  1
  Ni  Ni4  1  0.74996400  0.99999200  0.74990300  1
  Ni  Ni5  1  0.25003900  0.00000800  0.25010100  1
  Ni  Ni6  1  0.50000000  0.00000100  0.50000000  1
  Ni  Ni7  1  0.00000000  0.00000000  0.99999900  1
  O  O0  1  0.08040500  0.83920500  0.63991000  1
  O  O1  1  0.58035200  0.83931200  0.13984500  1
  O  O2  1  0.41964900  0.16068700  0.86015400  1
  O  O3  1  0.91959700  0.16079100  0.36008800  1
  O  O4  1  0.81775100  0.83270000  0.88346800  1
  O  O5  1  0.31772100  0.83258000  0.38343300  1
  O  O6  1  0.91636600  0.16726300  0.85061800  1
  O  O7  1  0.41625600  0.16748200  0.35055700  1
  O  O8  1  0.68227900  0.16742000  0.61656600  1
  O  O9  1  0.18225000  0.16730000  0.11653100  1
  O  O10  1  0.15029500  0.16743300  0.61656900  1
  O  O11  1  0.65044400  0.16731200  0.11653400  1
  O  O12  1  0.58374400  0.83251700  0.64944100  1
  O  O13  1  0.08363400  0.83273800  0.14938200  1
  O  O14  1  0.34955600  0.83268700  0.88346500  1
  O  O15  1  0.84970500  0.83256700  0.38343000  1
loop_
_geom_bond_atom_site_label_1
_geom_bond_atom_site_label_2
_geom_bond_distance
_geom_bond_site_symmetry_2
Ni0 O10 1.889039 1_565
Ni0 O12 1.889345 1_555
Ni0 O6 1.890141 1_465
Ni0 O14 1.890276 1_555
Ni0 O0 1.911875 1_555
Ni0 O2 1.912427 1_565
Ni1 O15 1.888994 1_545
Ni1 O7 1.889314 1_555
Ni1 O13 1.890164 1_645
Ni1 O11 1.890318 1_555
Ni1 O3 1.911853 1_555
Ni1 O1 1.912435 1_545
Ni2 O8 1.889807 1_555
Ni2 O5 1.889820 1_645
Ni2 O10 1.889860 1_655
Ni2 O15 1.889865 1_545
Ni2 O3 1.912663 1_555
Ni2 O0 1.912672 1_645
Ni3 O9 1.889718 1_555
Ni3 O4 1.889736 1_544
Ni3 O11 1.889759 1_555
Ni3 O14 1.889786 1_544
Ni3 O1 1.911632 1_545
Ni3 O2 1.911644 1_554
Ni4 O8 1.889006 1_565
Ni4 O12 1.889336 1_555
Ni4 O6 1.890121 1_565
Ni4 O4 1.890251 1_555
Ni4 O0 1.911936 1_655
Ni4 O2 1.912488 1_565
Ni5 O5 1.888964 1_545
Ni5 O7 1.889295 1_555
Ni5 O13 1.890145 1_545
Ni5 O9 1.890293 1_555
Ni5 O3 1.911914 1_455
Ni5 O1 1.912501 1_545
Ni6 O8 2.023727 1_555
Ni6 O5 2.023740 1_545
Ni6 O10 2.023769 1_555
Ni6 O15 2.023773 1_545
Ni6 O12 2.024123 1_545
Ni6 O7 2.024127 1_555
Ni7 O6 2.022634 1_455
Ni7 O13 2.022647 1_546
Ni7 O4 2.022924 1_445
Ni7 O9 2.022932 1_556
Ni7 O14 2.022966 1_545
Ni7 O11 2.022970 1_456
O4 Sr0 2.521312 1_555
O5 Sr1 2.520510 1_555
O6 Sr0 2.521577 1_555
O7 Sr1 2.519947 1_555
O8 Sr0 2.520544 1_555
O9 Sr1 2.521343 1_555
O10 Sr0 2.520455 1_455
O11 Sr1 2.521256 1_555
O12 Sr0 2.519925 1_555
O13 Sr1 2.521554 1_555
O14 Sr0 2.521225 1_555
O15 Sr1 2.520426 1_655
