# generated using pymatgen
data_RbZrN3O11
_symmetry_space_group_name_H-M   'P 1'
_cell_length_a   6.06012900
_cell_length_b   9.94753500
_cell_length_c   17.18851100
_cell_angle_alpha   90.00000000
_cell_angle_beta   90.00000000
_cell_angle_gamma   90.00000000
_symmetry_Int_Tables_number   1
_chemical_formula_structural   RbZrN3O11
_chemical_formula_sum   'Rb4 Zr4 N12 O44'
_cell_volume   1036.18094436
_cell_formula_units_Z   4
loop_
 _symmetry_equiv_pos_site_id
 _symmetry_equiv_pos_as_xyz
  1  'x, y, z'
loop_
 _atom_site_type_symbol
 _atom_site_label
 _atom_site_symmetry_multiplicity
 _atom_site_fract_x
 _atom_site_fract_y
 _atom_site_fract_z
 _atom_site_occupancy
  Rb  Rb0  1  0.75000000  0.50000000  0.82972700  1
  Rb  Rb1  1  0.25000000  0.00000000  0.67027300  1
  Rb  Rb2  1  0.25000000  0.50000000  0.17027300  1
  Rb  Rb3  1  0.75000000  0.00000000  0.32972700  1
  Zr  Zr0  1  0.25000000  0.50000000  0.55920400  1
  Zr  Zr1  1  0.75000000  0.00000000  0.94079600  1
  Zr  Zr2  1  0.75000000  0.50000000  0.44079600  1
  Zr  Zr3  1  0.25000000  0.00000000  0.05920400  1
  N  N0  1  0.41590400  0.66112200  0.67680100  1
  N  N1  1  0.91590400  0.83887800  0.82319900  1
  N  N2  1  0.58409600  0.16112200  0.82319900  1
  N  N3  1  0.08409600  0.33887800  0.67680100  1
  N  N4  1  0.58409600  0.33887800  0.32319900  1
  N  N5  1  0.08409600  0.16112200  0.17680100  1
  N  N6  1  0.41590400  0.83887800  0.17680100  1
  N  N7  1  0.91590400  0.66112200  0.32319900  1
  N  N8  1  0.25000000  0.00000000  0.42300700  1
  N  N9  1  0.75000000  0.50000000  0.07699300  1
  N  N10  1  0.75000000  0.00000000  0.57699300  1
  N  N11  1  0.25000000  0.50000000  0.92300700  1
  O  O0  1  0.51275200  0.39451600  0.50730400  1
  O  O1  1  0.01275200  0.10548400  0.99269600  1
  O  O2  1  0.48724800  0.89451600  0.99269600  1
  O  O3  1  0.98724800  0.60548400  0.50730400  1
  O  O4  1  0.48724800  0.60548400  0.49269600  1
  O  O5  1  0.98724800  0.89451600  0.00730400  1
  O  O6  1  0.51275200  0.10548400  0.00730400  1
  O  O7  1  0.01275200  0.39451600  0.49269600  1
  O  O8  1  0.26502600  0.70076200  0.62855900  1
  O  O9  1  0.76502600  0.79923800  0.87144100  1
  O  O10  1  0.73497400  0.20076200  0.87144100  1
  O  O11  1  0.23497400  0.29923800  0.62855900  1
  O  O12  1  0.73497400  0.29923800  0.37144100  1
  O  O13  1  0.23497400  0.20076200  0.12855900  1
  O  O14  1  0.26502600  0.79923800  0.12855900  1
  O  O15  1  0.76502600  0.70076200  0.37144100  1
  O  O16  1  0.48018100  0.53837700  0.66714100  1
  O  O17  1  0.98018100  0.96162300  0.83285900  1
  O  O18  1  0.51981900  0.03837700  0.83285900  1
  O  O19  1  0.01981900  0.46162300  0.66714100  1
  O  O20  1  0.51981900  0.46162300  0.33285900  1
  O  O21  1  0.01981900  0.03837700  0.16714100  1
  O  O22  1  0.48018100  0.96162300  0.16714100  1
  O  O23  1  0.98018100  0.53837700  0.33285900  1
  O  O24  1  0.49112900  0.73408900  0.72758700  1
  O  O25  1  0.99112900  0.76591100  0.77241300  1
  O  O26  1  0.50887100  0.23408900  0.77241300  1
  O  O27  1  0.00887100  0.26591100  0.72758700  1
  O  O28  1  0.50887100  0.26591100  0.27241300  1
  O  O29  1  0.00887100  0.23408900  0.22758700  1
  O  O30  1  0.49112900  0.76591100  0.22758700  1
  O  O31  1  0.99112900  0.73408900  0.27241300  1
  O  O32  1  0.25000000  0.00000000  0.34909800  1
  O  O33  1  0.75000000  0.50000000  0.15090200  1
  O  O34  1  0.75000000  0.00000000  0.65090200  1
  O  O35  1  0.25000000  0.50000000  0.84909800  1
  O  O36  1  0.34575800  0.09286800  0.45896300  1
  O  O37  1  0.84575800  0.40713200  0.04103700  1
  O  O38  1  0.65424200  0.59286800  0.04103700  1
  O  O39  1  0.15424200  0.90713200  0.45896300  1
  O  O40  1  0.65424200  0.90713200  0.54103700  1
  O  O41  1  0.15424200  0.59286800  0.95896300  1
  O  O42  1  0.34575800  0.40713200  0.95896300  1
  O  O43  1  0.84575800  0.09286800  0.54103700  1
loop_
_geom_bond_atom_site_label_1
_geom_bond_atom_site_label_2
_geom_bond_distance
_geom_bond_site_symmetry_2
N0 O24 1.223390 1_555
N0 O16 1.292349 1_555
N0 O8 1.295798 1_555
N1 O25 1.223390 1_555
N1 O17 1.292349 1_555
N1 O9 1.295798 1_555
N2 O26 1.223390 1_555
N2 O18 1.292349 1_555
N2 O10 1.295798 1_555
N3 O27 1.223390 1_555
N3 O19 1.292349 1_555
N3 O11 1.295798 1_555
N4 O28 1.223390 1_555
N4 O20 1.292349 1_555
N4 O12 1.295798 1_555
N5 O29 1.223390 1_555
N5 O21 1.292349 1_555
N5 O13 1.295798 1_555
N6 O30 1.223390 1_555
N6 O22 1.292349 1_555
N6 O14 1.295798 1_555
N7 O31 1.223390 1_555
N7 O23 1.292349 1_555
N7 O15 1.295798 1_555
N8 O39 1.253849 1_545
N8 O36 1.253849 1_555
N8 O32 1.270386 1_555
N9 O38 1.253849 1_555
N9 O37 1.253849 1_555
N9 O33 1.270386 1_555
N10 O40 1.253849 1_545
N10 O43 1.253849 1_555
N10 O34 1.270386 1_555
N11 O41 1.253849 1_555
N11 O42 1.253849 1_555
N11 O35 1.270386 1_555
O0 Zr0 2.105305 1_555
O0 Zr2 2.115425 1_555
O1 Zr1 2.105305 1_455
O1 Zr3 2.115425 1_556
O2 Zr1 2.105305 1_565
O2 Zr3 2.115425 1_566
O3 Zr0 2.105305 1_655
O3 Zr2 2.115425 1_555
O4 Zr2 2.105305 1_555
O4 Zr0 2.115425 1_555
O5 Zr3 2.105305 1_665
O5 Zr1 2.115425 1_564
O6 Zr3 2.105305 1_555
O6 Zr1 2.115425 1_554
O7 Zr2 2.105305 1_455
O7 Zr0 2.115425 1_555
O8 Zr0 2.327611 1_555
O8 Rb1 3.063170 1_565
O9 Zr1 2.327611 1_565
O9 Rb0 3.063170 1_555
O10 Zr1 2.327611 1_555
O10 Rb0 3.063170 1_555
O11 Zr0 2.327611 1_555
O11 Rb1 3.063170 1_555
O12 Zr2 2.327611 1_555
O12 Rb3 3.063170 1_555
O13 Zr3 2.327611 1_555
O13 Rb2 3.063170 1_555
O14 Zr3 2.327611 1_565
O14 Rb2 3.063170 1_555
O15 Zr2 2.327611 1_555
O15 Rb3 3.063170 1_565
O16 Zr0 2.352362 1_555
O16 Rb0 3.260256 1_555
O17 Zr1 2.352362 1_565
O17 Rb1 3.260256 1_665
O18 Zr1 2.352362 1_555
O18 Rb1 3.260256 1_555
O19 Zr0 2.352362 1_555
O19 Rb0 3.260256 1_455
O20 Zr2 2.352362 1_555
O20 Rb2 3.260256 1_555
O21 Zr3 2.352362 1_555
O21 Rb3 3.260256 1_455
O22 Zr3 2.352362 1_565
O22 Rb3 3.260256 1_565
O23 Zr2 2.352362 1_555
O23 Rb2 3.260256 1_655
O24 Rb1 3.178473 1_565
O24 Rb0 3.311462 1_555
O25 Rb0 3.178473 1_555
O25 Rb1 3.311462 1_665
O26 Rb0 3.178473 1_555
O26 Rb1 3.311462 1_555
O27 Rb1 3.178473 1_555
O27 Rb0 3.311462 1_455
O28 Rb3 3.178473 1_555
O28 Rb2 3.311462 1_555
O29 Rb2 3.178473 1_555
O29 Rb3 3.311462 1_455
O30 Rb2 3.178473 1_555
O30 Rb3 3.311462 1_565
O31 Rb3 3.178473 1_565
O31 Rb2 3.311462 1_655
O32 Rb3 3.048303 1_555
O32 Rb3 3.048303 1_455
O33 Rb2 3.048303 1_555
O33 Rb2 3.048303 1_655
O34 Rb1 3.048303 1_655
O34 Rb1 3.048303 1_555
O35 Rb0 3.048303 1_555
O35 Rb0 3.048303 1_455
O36 Rb3 3.433547 1_555
O37 Rb2 3.433547 1_655
O38 Rb2 3.433547 1_555
O39 Rb3 3.433547 1_465
O40 Rb1 3.433547 1_565
O41 Rb0 3.433547 1_455
O42 Rb0 3.433547 1_555
O43 Rb1 3.433547 1_655
