# generated using pymatgen
data_Li9Mn2Co5O16
_symmetry_space_group_name_H-M   'P 1'
_cell_length_a   5.05426100
_cell_length_b   5.11791932
_cell_length_c   11.71571351
_cell_angle_alpha   91.23742105
_cell_angle_beta   92.03461932
_cell_angle_gamma   108.86878463
_symmetry_Int_Tables_number   1
_chemical_formula_structural   Li9Mn2Co5O16
_chemical_formula_sum   'Li9 Mn2 Co5 O16'
_cell_volume   286.41211779
_cell_formula_units_Z   1
loop_
 _symmetry_equiv_pos_site_id
 _symmetry_equiv_pos_as_xyz
  1  'x, y, z'
loop_
 _atom_site_type_symbol
 _atom_site_label
 _atom_site_symmetry_multiplicity
 _atom_site_fract_x
 _atom_site_fract_y
 _atom_site_fract_z
 _atom_site_occupancy
  Li  Li0  1  0.00270300  0.50610000  0.13478900  1
  Li  Li1  1  0.49929100  0.49617900  0.25881100  1
  Li  Li2  1  0.99785800  0.49173700  0.37538400  1
  Li  Li3  1  0.50186800  0.50235600  0.49808800  1
  Li  Li4  1  0.00122200  0.49939700  0.62092000  1
  Li  Li5  1  0.50394600  0.50338700  0.74348400  1
  Li  Li6  1  0.99835600  0.50061300  0.86988800  1
  Li  Li7  1  0.49379700  0.49774500  0.00097300  1
  Li  Li8  1  0.00262600  0.00518600  0.25228100  1
  Mn  Mn0  1  0.99367800  0.99256900  0.00253700  1
  Mn  Mn1  1  0.50280000  0.00424000  0.12961400  1
  Co  Co0  1  0.50998500  0.00887800  0.37381900  1
  Co  Co1  1  0.00779400  0.00339700  0.49288200  1
  Co  Co2  1  0.50033500  0.00315100  0.62035500  1
  Co  Co3  1  0.99438200  0.99719900  0.74446900  1
  Co  Co4  1  0.49606100  0.99501000  0.87351200  1
  O  O0  1  0.23439500  0.76759700  0.00847300  1
  O  O1  1  0.75266400  0.78510300  0.11439200  1
  O  O2  1  0.29584600  0.78426400  0.24457600  1
  O  O3  1  0.74817800  0.77970400  0.38121400  1
  O  O4  1  0.25730200  0.76018100  0.50780600  1
  O  O5  1  0.76223500  0.76669300  0.62975100  1
  O  O6  1  0.26293400  0.76956900  0.75855000  1
  O  O7  1  0.74572100  0.77080800  0.87885200  1
  O  O8  1  0.73970100  0.24985300  0.23853400  1
  O  O9  1  0.26425600  0.22526800  0.37917000  1
  O  O10  1  0.74136300  0.23217200  0.49741900  1
  O  O11  1  0.23744800  0.22948800  0.62637900  1
  O  O12  1  0.73794100  0.23345800  0.74804200  1
  O  O13  1  0.22612500  0.20506900  0.88053100  1
  O  O14  1  0.73404400  0.20975700  0.99939200  1
  O  O15  1  0.25314500  0.22387000  0.11511200  1
loop_
_geom_bond_atom_site_label_1
_geom_bond_atom_site_label_2
_geom_bond_distance
_geom_bond_site_symmetry_2
Li0 O8 2.005046 1_455
Li0 O2 2.073067 1_555
Li0 O0 2.132459 1_555
Li0 O1 2.203094 1_455
Li0 O15 2.220518 1_555
Li0 O14 2.251984 1_454
Li1 O8 2.029916 1_555
Li1 O2 2.058647 1_555
Li1 O3 2.084669 1_555
Li1 O9 2.111865 1_555
Li1 O15 2.225492 1_555
Li1 O1 2.392983 1_555
Li2 O8 2.127562 1_555
Li2 O10 2.142247 1_555
Li2 O4 2.147595 1_655
Li2 O9 2.204722 1_655
Li2 O3 2.230240 1_555
Li2 O2 2.379684 1_655
Li3 O9 2.022044 1_555
Li3 O4 2.083398 1_555
Li3 O10 2.111922 1_555
Li3 O3 2.121684 1_555
Li3 O5 2.134382 1_555
Li3 O11 2.240878 1_555
Li4 O4 2.072098 1_555
Li4 O10 2.075268 1_455
Li4 O11 2.098321 1_555
Li4 O5 2.100643 1_455
Li4 O6 2.197908 1_555
Li4 O12 2.213169 1_455
Li5 O11 2.055737 1_555
Li5 O5 2.087788 1_555
Li5 O12 2.089380 1_555
Li5 O6 2.109289 1_555
Li5 O7 2.137406 1_555
Li5 O13 2.400003 1_555
Li6 O12 2.063474 1_555
Li6 O6 2.096488 1_655
Li6 O0 2.153772 1_656
Li6 O7 2.167722 1_555
Li6 O13 2.180116 1_655
Li6 O14 2.292974 1_555
Li7 O1 2.046455 1_555
Li7 O15 2.079902 1_555
Li7 O13 2.127794 1_554
Li7 O7 2.164736 1_554
Li7 O14 2.192074 1_554
Li7 O0 2.192753 1_555
Li8 O9 2.012952 1_555
Li8 O1 2.081015 1_445
Li8 O8 2.104678 1_455
Li8 O3 2.126188 1_445
Li8 O2 2.138178 1_545
Li8 O15 2.178067 1_555
Mn0 O1 1.914538 1_555
Mn0 O15 1.914750 1_665
Mn0 O0 1.927246 1_655
Mn0 O7 1.959215 1_554
Mn0 O14 1.975023 1_564
Mn0 O13 1.991520 1_664
Mn1 O8 1.868387 1_555
Mn1 O2 1.891948 1_545
Mn1 O15 1.948067 1_555
Mn1 O1 1.951394 1_545
Mn1 O0 2.011909 1_545
Mn1 O14 2.049565 1_554
Co0 O9 1.914445 1_555
Co0 O10 1.927263 1_555
Co0 O3 1.934639 1_545
Co0 O2 1.946618 1_545
Co0 O8 2.161032 1_555
Co0 O4 2.211892 1_545
Co1 O3 1.893618 1_445
Co1 O9 1.995078 1_555
Co1 O11 2.014090 1_555
Co1 O4 2.044352 1_545
Co1 O10 2.051654 1_455
Co1 O5 2.198167 1_445
Co2 O4 1.902639 1_545
Co2 O12 1.987485 1_555
Co2 O11 2.027535 1_555
Co2 O10 2.050915 1_555
Co2 O5 2.064069 1_545
Co2 O6 2.187219 1_545
Co3 O5 1.870565 1_555
Co3 O13 2.008223 1_665
Co3 O11 2.020829 1_665
Co3 O12 2.039381 1_565
Co3 O6 2.059600 1_655
Co3 O7 2.162902 1_555
Co4 O6 1.863999 1_555
Co4 O14 1.943877 1_565
Co4 O7 1.961329 1_555
Co4 O13 1.994181 1_565
Co4 O12 2.093982 1_565
Co4 O0 2.199124 1_556
