# generated using pymatgen
data_MnCoSb
_symmetry_space_group_name_H-M   'P 1'
_cell_length_a   8.22791996
_cell_length_b   8.22791996
_cell_length_c   8.22791996
_cell_angle_alpha   60.00000000
_cell_angle_beta   60.00000000
_cell_angle_gamma   60.00000000
_symmetry_Int_Tables_number   1
_chemical_formula_structural   MnCoSb
_chemical_formula_sum   'Mn8 Co8 Sb8'
_cell_volume   393.87206258
_cell_formula_units_Z   8
loop_
 _symmetry_equiv_pos_site_id
 _symmetry_equiv_pos_as_xyz
  1  'x, y, z'
loop_
 _atom_site_type_symbol
 _atom_site_label
 _atom_site_symmetry_multiplicity
 _atom_site_fract_x
 _atom_site_fract_y
 _atom_site_fract_z
 _atom_site_occupancy
  Mn  Mn0  1  0.61783100  0.12739000  0.12739000  1
  Mn  Mn1  1  0.12739000  0.61783100  0.12739000  1
  Mn  Mn2  1  0.12739000  0.12739000  0.61783100  1
  Mn  Mn3  1  0.12739000  0.12739000  0.12739000  1
  Mn  Mn4  1  0.12441500  0.62519500  0.62519500  1
  Mn  Mn5  1  0.62519500  0.12441500  0.62519500  1
  Mn  Mn6  1  0.62519500  0.62519500  0.12441500  1
  Mn  Mn7  1  0.62519500  0.62519500  0.62519500  1
  Co  Co0  1  0.00000000  0.00000000  0.00000000  1
  Co  Co1  1  0.25000000  0.25000000  0.25000000  1
  Co  Co2  1  0.24261400  0.24261400  0.75738600  1
  Co  Co3  1  0.75738600  0.75738600  0.24261400  1
  Co  Co4  1  0.24261400  0.75738600  0.24261400  1
  Co  Co5  1  0.75738600  0.24261400  0.75738600  1
  Co  Co6  1  0.75738600  0.24261400  0.24261400  1
  Co  Co7  1  0.24261400  0.75738600  0.75738600  1
  Sb  Sb0  1  0.40194300  0.86601900  0.86601900  1
  Sb  Sb1  1  0.86601900  0.40194300  0.86601900  1
  Sb  Sb2  1  0.86601900  0.86601900  0.40194300  1
  Sb  Sb3  1  0.86601900  0.86601900  0.86601900  1
  Sb  Sb4  1  0.87063500  0.37645500  0.37645500  1
  Sb  Sb5  1  0.37645500  0.87063500  0.37645500  1
  Sb  Sb6  1  0.37645500  0.37645500  0.87063500  1
  Sb  Sb7  1  0.37645500  0.37645500  0.37645500  1
loop_
_geom_bond_atom_site_label_1
_geom_bond_atom_site_label_2
_geom_bond_distance
_geom_bond_site_symmetry_2
Mn0 Sb7 2.898820 1_555
Mn0 Sb5 2.898826 1_545
Mn0 Sb6 2.898826 1_554
Mn0 Sb2 3.043250 1_545
Mn0 Sb1 3.043250 1_554
Mn0 Sb3 3.043256 1_544
Mn1 Sb7 2.898820 1_555
Mn1 Sb6 2.898826 1_554
Mn1 Sb4 2.898826 1_455
Mn1 Sb0 3.043250 1_554
Mn1 Sb2 3.043250 1_455
Mn1 Sb3 3.043256 1_454
Mn2 Sb7 2.898820 1_555
Mn2 Sb5 2.898826 1_545
Mn2 Sb4 2.898826 1_455
Mn2 Sb1 3.043250 1_455
Mn2 Sb0 3.043250 1_545
Mn2 Sb3 3.043256 1_445
Mn3 Sb5 2.898820 1_545
Mn3 Sb4 2.898820 1_455
Mn3 Sb6 2.898820 1_554
Mn3 Sb2 3.043256 1_445
Mn3 Sb1 3.043256 1_454
Mn3 Sb0 3.043256 1_544
Mn4 Sb1 2.805964 1_455
Mn4 Sb2 2.805964 1_455
Mn4 Sb3 2.805964 1_455
Mn4 Sb6 2.894475 1_555
Mn4 Sb5 2.894475 1_555
Mn4 Sb7 2.894475 1_555
Mn5 Sb0 2.805964 1_545
Mn5 Sb2 2.805964 1_545
Mn5 Sb3 2.805964 1_545
Mn5 Sb6 2.894475 1_555
Mn5 Sb4 2.894475 1_555
Mn5 Sb7 2.894475 1_555
Mn6 Sb1 2.805964 1_554
Mn6 Sb0 2.805964 1_554
Mn6 Sb3 2.805964 1_554
Mn6 Sb4 2.894475 1_555
Mn6 Sb5 2.894475 1_555
Mn6 Sb7 2.894475 1_555
Mn7 Sb1 2.805964 1_555
Mn7 Sb2 2.805964 1_555
Mn7 Sb0 2.805964 1_555
Mn7 Sb4 2.894475 1_555
Mn7 Sb6 2.894475 1_555
Mn7 Sb5 2.894475 1_555
Co0 Mn2 2.567438 1_554
Co0 Mn1 2.567438 1_545
Co0 Mn0 2.567438 1_455
Co0 Mn3 2.567444 1_555
Co0 Sb1 2.700281 1_454
Co0 Sb0 2.700281 1_544
Co0 Sb2 2.700281 1_445
Co0 Sb3 2.700281 1_444
Co1 Mn3 2.471107 1_555
Co1 Mn1 2.471114 1_555
Co1 Mn0 2.471114 1_555
Co1 Mn2 2.471114 1_555
Co1 Sb7 2.548600 1_555
Co1 Sb6 2.548600 1_554
Co1 Sb4 2.548600 1_455
Co1 Sb5 2.548600 1_545
Co2 Mn2 2.488391 1_555
Co2 Mn3 2.488398 1_556
Co2 Sb1 2.541427 1_455
Co2 Sb0 2.541427 1_545
Co2 Sb6 2.560989 1_555
Co2 Sb7 2.560989 1_555
Co2 Mn4 2.571065 1_555
Co2 Mn5 2.571065 1_555
Co3 Mn0 2.488398 1_565
Co3 Mn1 2.488398 1_655
Co3 Sb2 2.541427 1_555
Co3 Sb3 2.541427 1_554
Co3 Sb4 2.560989 1_555
Co3 Sb5 2.560989 1_555
Co3 Mn7 2.571065 1_555
Co3 Mn6 2.571065 1_555
Co4 Mn1 2.488391 1_555
Co4 Mn3 2.488398 1_565
Co4 Sb2 2.541427 1_455
Co4 Sb0 2.541427 1_554
Co4 Sb5 2.560989 1_555
Co4 Sb7 2.560989 1_555
Co4 Mn6 2.571065 1_555
Co4 Mn4 2.571065 1_555
Co5 Mn0 2.488398 1_556
Co5 Mn2 2.488398 1_655
Co5 Sb1 2.541427 1_555
Co5 Sb3 2.541427 1_545
Co5 Sb4 2.560989 1_555
Co5 Sb6 2.560989 1_555
Co5 Mn7 2.571065 1_555
Co5 Mn5 2.571065 1_555
Co6 Mn0 2.488391 1_555
Co6 Mn3 2.488398 1_655
Co6 Sb1 2.541427 1_554
Co6 Sb2 2.541427 1_545
Co6 Sb4 2.560989 1_555
Co6 Sb7 2.560989 1_555
Co6 Mn6 2.571065 1_555
Co6 Mn5 2.571065 1_555
Co7 Mn1 2.488398 1_556
Co7 Mn2 2.488398 1_565
Co7 Sb3 2.541427 1_455
Co7 Sb0 2.541427 1_555
Co7 Sb6 2.560989 1_555
Co7 Sb5 2.560989 1_555
Co7 Mn7 2.571065 1_555
Co7 Mn4 2.571065 1_555
