# generated using pymatgen
data_Li4Co3O7
_symmetry_space_group_name_H-M   'P 1'
_cell_length_a   2.98618700
_cell_length_b   5.07164184
_cell_length_c   16.97811660
_cell_angle_alpha   85.12721752
_cell_angle_beta   88.25625768
_cell_angle_gamma   75.39895518
_symmetry_Int_Tables_number   1
_chemical_formula_structural   Li4Co3O7
_chemical_formula_sum   'Li8 Co6 O14'
_cell_volume   247.91705579
_cell_formula_units_Z   2
loop_
 _symmetry_equiv_pos_site_id
 _symmetry_equiv_pos_as_xyz
  1  'x, y, z'
loop_
 _atom_site_type_symbol
 _atom_site_label
 _atom_site_symmetry_multiplicity
 _atom_site_fract_x
 _atom_site_fract_y
 _atom_site_fract_z
 _atom_site_occupancy
  Li  Li0  1  0.64949500  0.21643000  0.78644100  1
  Li  Li1  1  0.06798500  0.35919700  0.64258100  1
  Li  Li2  1  0.50000000  0.50000000  0.50000000  1
  Li  Li3  1  0.93201500  0.64080300  0.35741900  1
  Li  Li4  1  0.35050500  0.78357000  0.21355900  1
  Li  Li5  1  0.79382000  0.91546900  0.07151000  1
  Li  Li6  1  0.20618000  0.08453100  0.92849000  1
  Li  Li7  1  0.50000000  0.50000000  0.00000000  1
  Co  Co0  1  0.93218500  0.64127900  0.86299800  1
  Co  Co1  1  0.06781500  0.35872100  0.13700200  1
  Co  Co2  1  0.34548000  0.78616000  0.71528300  1
  Co  Co3  1  0.77957100  0.92686700  0.57239300  1
  Co  Co4  1  0.22042900  0.07313300  0.42760700  1
  Co  Co5  1  0.65452000  0.21384000  0.28471700  1
  O  O0  1  0.26826100  0.90784600  0.81777200  1
  O  O1  1  0.67126700  0.05825900  0.67703000  1
  O  O2  1  0.15014200  0.20137200  0.53223100  1
  O  O3  1  0.59482500  0.34179300  0.38815100  1
  O  O4  1  0.98870900  0.46988700  0.24423800  1
  O  O5  1  0.40421500  0.61712400  0.11009300  1
  O  O6  1  0.85585300  0.78532300  0.95362500  1
  O  O7  1  0.01129100  0.53011300  0.75576200  1
  O  O8  1  0.40517500  0.65820700  0.61184900  1
  O  O9  1  0.84985800  0.79862800  0.46776900  1
  O  O10  1  0.32873300  0.94174100  0.32297000  1
  O  O11  1  0.73173900  0.09215400  0.18222800  1
  O  O12  1  0.14414700  0.21467700  0.04637500  1
  O  O13  1  0.59578500  0.38287600  0.88990700  1
loop_
_geom_bond_atom_site_label_1
_geom_bond_atom_site_label_2
_geom_bond_distance
_geom_bond_site_symmetry_2
Li0 O13 1.997670 1_555
Li0 O1 2.077954 1_555
Li0 O0 2.146365 1_645
Li0 O7 2.158938 1_655
Li0 O0 2.179060 1_545
Li0 O7 2.196661 1_555
Li1 O8 2.046768 1_555
Li1 O2 2.082980 1_555
Li1 O1 2.107887 1_555
Li1 O7 2.159117 1_555
Li1 O1 2.189236 1_455
Li1 O8 2.214633 1_455
Li2 O9 2.075310 1_555
Li2 O2 2.075310 1_555
Li2 O8 2.107535 1_555
Li2 O3 2.107535 1_555
Li2 O2 2.191772 1_655
Li2 O9 2.191772 1_455
Li3 O3 2.046768 1_555
Li3 O9 2.082980 1_555
Li3 O10 2.107887 1_555
Li3 O4 2.159117 1_555
Li3 O10 2.189236 1_655
Li3 O3 2.214633 1_655
Li4 O5 1.997670 1_555
Li4 O10 2.077954 1_555
Li4 O11 2.146365 1_465
Li4 O4 2.158938 1_455
Li4 O11 2.179060 1_565
Li4 O4 2.196661 1_555
Li5 O12 2.059720 1_665
Li5 O11 2.133570 1_565
Li5 O5 2.134192 1_655
Li5 O6 2.148505 1_554
Li5 O12 2.169036 1_565
Li5 O5 2.178286 1_555
Li6 O6 2.059720 1_445
Li6 O0 2.133570 1_545
Li6 O13 2.134192 1_455
Li6 O12 2.148505 1_556
Li6 O6 2.169036 1_545
Li6 O13 2.178286 1_555
Li7 O5 1.999723 1_555
Li7 O13 1.999723 1_554
Li7 O12 2.091389 1_555
Li7 O6 2.091389 1_554
Li7 O12 2.215667 1_655
Li7 O6 2.215667 1_454
Co0 O6 1.743225 1_555
Co0 O13 1.862640 1_555
Co0 O7 1.941534 1_655
Co0 O0 1.971117 1_655
Co0 O13 2.120643 1_655
Co0 O0 2.216519 1_555
Co1 O12 1.743225 1_555
Co1 O5 1.862640 1_555
Co1 O4 1.941534 1_455
Co1 O11 1.971117 1_455
Co1 O5 2.120643 1_455
Co1 O11 2.216519 1_555
Co2 O0 1.883656 1_555
Co2 O7 1.901196 1_555
Co2 O8 1.911297 1_555
Co2 O1 1.938759 1_565
Co2 O7 2.177507 1_655
Co2 O1 2.214992 1_465
Co3 O9 1.930573 1_555
Co3 O1 1.939649 1_565
Co3 O8 2.030427 1_555
Co3 O2 2.048714 1_665
Co3 O8 2.105489 1_655
Co3 O2 2.129189 1_565
Co4 O2 1.930573 1_555
Co4 O10 1.939649 1_545
Co4 O3 2.030427 1_555
Co4 O9 2.048714 1_445
Co4 O3 2.105489 1_455
Co4 O9 2.129189 1_545
Co5 O11 1.883656 1_555
Co5 O4 1.901196 1_555
Co5 O3 1.911297 1_555
Co5 O10 1.938759 1_545
Co5 O4 2.177507 1_455
Co5 O10 2.214992 1_645
