# generated using pymatgen
data_Na2Eu2B2O7
_symmetry_space_group_name_H-M   'P 1'
_cell_length_a   6.46350300
_cell_length_b   10.90968462
_cell_length_c   10.53151470
_cell_angle_alpha   117.62542087
_cell_angle_beta   90.00000000
_cell_angle_gamma   90.00000000
_symmetry_Int_Tables_number   1
_chemical_formula_structural   Na2Eu2B2O7
_chemical_formula_sum   'Na8 Eu8 B8 O28'
_cell_volume   657.96637582
_cell_formula_units_Z   4
loop_
 _symmetry_equiv_pos_site_id
 _symmetry_equiv_pos_as_xyz
  1  'x, y, z'
loop_
 _atom_site_type_symbol
 _atom_site_label
 _atom_site_symmetry_multiplicity
 _atom_site_fract_x
 _atom_site_fract_y
 _atom_site_fract_z
 _atom_site_occupancy
  Na  Na0  1  0.26274900  0.88966000  0.95305200  1
  Na  Na1  1  0.73725100  0.11034000  0.04694800  1
  Na  Na2  1  0.76274900  0.11034000  0.54694800  1
  Na  Na3  1  0.23725100  0.88966000  0.45305200  1
  Na  Na4  1  0.94258500  0.97726800  0.73768700  1
  Na  Na5  1  0.05741500  0.02273200  0.26231300  1
  Na  Na6  1  0.44258500  0.02273200  0.76231300  1
  Na  Na7  1  0.55741500  0.97726800  0.23768700  1
  Eu  Eu0  1  0.95769100  0.48290000  0.68156700  1
  Eu  Eu1  1  0.04230900  0.51710000  0.31843300  1
  Eu  Eu2  1  0.45769100  0.51710000  0.81843300  1
  Eu  Eu3  1  0.54230900  0.48290000  0.18156700  1
  Eu  Eu4  1  0.58340800  0.68550900  0.59021200  1
  Eu  Eu5  1  0.41659200  0.31449100  0.40978800  1
  Eu  Eu6  1  0.08340800  0.31449100  0.90978800  1
  Eu  Eu7  1  0.91659200  0.68550900  0.09021200  1
  B  B0  1  0.74903700  0.81719500  0.91948800  1
  B  B1  1  0.25096300  0.18280500  0.08051200  1
  B  B2  1  0.24903700  0.18280500  0.58051200  1
  B  B3  1  0.75096300  0.81719500  0.41948800  1
  B  B4  1  0.65284300  0.29059200  0.85008100  1
  B  B5  1  0.34715700  0.70940800  0.14991900  1
  B  B6  1  0.15284300  0.70940800  0.64991900  1
  B  B7  1  0.84715700  0.29059200  0.35008100  1
  O  O0  1  0.75686200  0.34698500  0.77217000  1
  O  O1  1  0.24313800  0.65301500  0.22783000  1
  O  O2  1  0.25686200  0.65301500  0.72783000  1
  O  O3  1  0.74313800  0.34698500  0.27217000  1
  O  O4  1  0.96324800  0.65240800  0.58887700  1
  O  O5  1  0.03675200  0.34759200  0.41112300  1
  O  O6  1  0.46324800  0.34759200  0.91112300  1
  O  O7  1  0.53675200  0.65240800  0.08887700  1
  O  O8  1  0.65116900  0.87346200  0.84214800  1
  O  O9  1  0.34883100  0.12653800  0.15785200  1
  O  O10  1  0.15116900  0.12653800  0.65785200  1
  O  O11  1  0.84883100  0.87346200  0.34214800  1
  O  O12  1  0.62217900  0.47369300  0.59612200  1
  O  O13  1  0.37782100  0.52630700  0.40387800  1
  O  O14  1  0.12217900  0.52630700  0.90387800  1
  O  O15  1  0.87782100  0.47369300  0.09612200  1
  O  O16  1  0.76233600  0.67260600  0.86590400  1
  O  O17  1  0.23766400  0.32739400  0.13409600  1
  O  O18  1  0.26233600  0.32739400  0.63409600  1
  O  O19  1  0.73766400  0.67260600  0.36590400  1
  O  O20  1  0.24156800  0.81717200  0.63626400  1
  O  O21  1  0.75843200  0.18282800  0.36373600  1
  O  O22  1  0.74156800  0.18282800  0.86373600  1
  O  O23  1  0.25843200  0.81717200  0.13626400  1
  O  O24  1  0.66361100  0.89729800  0.55336900  1
  O  O25  1  0.33638900  0.10270200  0.44663100  1
  O  O26  1  0.16361100  0.10270200  0.94663100  1
  O  O27  1  0.83638900  0.89729800  0.05336900  1
loop_
_geom_bond_atom_site_label_1
_geom_bond_atom_site_label_2
_geom_bond_distance
_geom_bond_site_symmetry_2
Na0 O23 2.400880 1_556
Na0 O26 2.441911 1_565
Na0 O9 2.543800 1_566
Na0 O2 2.571737 1_555
Na0 O8 2.739871 1_555
Na0 O27 2.938672 1_456
Na1 O22 2.400880 1_554
Na1 O27 2.441911 1_545
Na1 O8 2.543800 1_544
Na1 O3 2.571737 1_555
Na1 O9 2.739871 1_555
Na1 O26 2.938672 1_654
Na2 O21 2.400880 1_555
Na2 O24 2.441911 1_545
Na2 O11 2.543800 1_545
Na2 O0 2.571737 1_555
Na2 O10 2.739871 1_655
Na2 O25 2.938672 1_555
Na3 O20 2.400880 1_555
Na3 O25 2.441911 1_565
Na3 O10 2.543800 1_565
Na3 O1 2.571737 1_555
Na3 O11 2.739871 1_455
Na3 O24 2.938672 1_555
Na4 O22 2.391390 1_565
Na4 O26 2.441957 1_665
Na4 O20 2.489150 1_655
Na4 O24 2.491988 1_555
Na4 O10 2.538949 1_665
Na4 O8 2.682549 1_555
Na5 O23 2.391390 1_545
Na5 O27 2.441957 1_445
Na5 O21 2.489150 1_455
Na5 O25 2.491988 1_555
Na5 O11 2.538949 1_445
Na5 O9 2.682549 1_555
Na6 O20 2.391390 1_545
Na6 O24 2.441957 1_545
Na6 O22 2.489150 1_555
Na6 O26 2.491988 1_555
Na6 O8 2.538949 1_545
Na6 O10 2.682549 1_555
Na7 O21 2.391390 1_565
Na7 O25 2.441957 1_565
Na7 O23 2.489150 1_555
Na7 O27 2.491988 1_555
Na7 O9 2.538949 1_565
Na7 O11 2.682549 1_555
Eu0 O12 2.332118 1_555
Eu0 O14 2.409964 1_655
Eu0 O16 2.433202 1_555
Eu0 O4 2.459294 1_555
Eu0 O0 2.471073 1_555
Eu0 O18 2.493755 1_655
Eu0 O2 2.565610 1_655
Eu0 O5 2.579398 1_655
Eu1 O13 2.332118 1_555
Eu1 O15 2.409964 1_455
Eu1 O17 2.433202 1_555
Eu1 O5 2.459294 1_555
Eu1 O1 2.471073 1_555
Eu1 O19 2.493755 1_455
Eu1 O3 2.565610 1_455
Eu1 O4 2.579398 1_455
Eu2 O14 2.332118 1_555
Eu2 O12 2.409964 1_555
Eu2 O18 2.433202 1_555
Eu2 O6 2.459294 1_555
Eu2 O2 2.471073 1_555
Eu2 O16 2.493755 1_555
Eu2 O0 2.565610 1_555
Eu2 O7 2.579398 1_556
Eu3 O15 2.332118 1_555
Eu3 O13 2.409964 1_555
Eu3 O19 2.433202 1_555
Eu3 O7 2.459294 1_555
Eu3 O3 2.471073 1_555
Eu3 O17 2.493755 1_555
Eu3 O1 2.565610 1_555
Eu3 O6 2.579398 1_554
Eu4 O13 2.339332 1_555
Eu4 O12 2.353734 1_555
Eu4 O4 2.480605 1_555
Eu4 O19 2.507186 1_555
Eu4 O8 2.528001 1_555
Eu4 O20 2.556214 1_555
Eu4 O24 2.566972 1_555
Eu4 O2 2.675341 1_555
Eu5 O12 2.339332 1_555
Eu5 O13 2.353734 1_555
Eu5 O5 2.480605 1_555
Eu5 O18 2.507186 1_555
Eu5 O9 2.528001 1_555
Eu5 O21 2.556214 1_555
Eu5 O25 2.566972 1_555
Eu5 O3 2.675341 1_555
Eu6 O15 2.339332 1_456
Eu6 O14 2.353734 1_555
Eu6 O6 2.480605 1_555
Eu6 O17 2.507186 1_556
Eu6 O10 2.528001 1_555
Eu6 O22 2.556214 1_455
Eu6 O26 2.566972 1_555
Eu6 O0 2.675341 1_455
Eu7 O14 2.339332 1_654
Eu7 O15 2.353734 1_555
Eu7 O7 2.480605 1_555
Eu7 O16 2.507186 1_554
Eu7 O11 2.528001 1_555
Eu7 O23 2.556214 1_655
Eu7 O27 2.566972 1_555
Eu7 O1 2.675341 1_655
B0 O8 1.379879 1_555
B0 O27 1.388452 1_556
B0 O16 1.410169 1_555
B1 O9 1.379879 1_555
B1 O26 1.388452 1_554
B1 O17 1.410169 1_555
B2 O10 1.379879 1_555
B2 O25 1.388452 1_555
B2 O18 1.410169 1_555
B3 O11 1.379879 1_555
B3 O24 1.388452 1_555
B3 O19 1.410169 1_555
B4 O22 1.374245 1_555
B4 O6 1.389591 1_555
B4 O0 1.404256 1_555
B5 O23 1.374245 1_555
B5 O7 1.389591 1_555
B5 O1 1.404256 1_555
B6 O20 1.374245 1_555
B6 O4 1.389591 1_455
B6 O2 1.404256 1_555
B7 O21 1.374245 1_555
B7 O5 1.389591 1_655
B7 O3 1.404256 1_555
