# generated using pymatgen
data_CaMg14C
_symmetry_space_group_name_H-M   'P 1'
_cell_length_a   6.48515074
_cell_length_b   6.07409300
_cell_length_c   10.41019003
_cell_angle_alpha   90.00000000
_cell_angle_beta   90.00000000
_cell_angle_gamma   117.92451167
_symmetry_Int_Tables_number   1
_chemical_formula_structural   CaMg14C
_chemical_formula_sum   'Ca1 Mg14 C1'
_cell_volume   362.32546028
_cell_formula_units_Z   1
loop_
 _symmetry_equiv_pos_site_id
 _symmetry_equiv_pos_as_xyz
  1  'x, y, z'
loop_
 _atom_site_type_symbol
 _atom_site_label
 _atom_site_symmetry_multiplicity
 _atom_site_fract_x
 _atom_site_fract_y
 _atom_site_fract_z
 _atom_site_occupancy
  Ca  Ca0  1  0.10428660  0.30214280  0.12500000  1
  Mg  Mg0  1  0.15686147  0.32843023  0.62500000  1
  Mg  Mg1  1  0.13872651  0.81936276  0.62500000  1
  Mg  Mg2  1  0.56829645  0.26068046  0.12500000  1
  Mg  Mg3  1  0.65750689  0.33251992  0.62500000  1
  Mg  Mg4  1  0.56829645  0.80761499  0.12500000  1
  Mg  Mg5  1  0.65750689  0.82498597  0.62500000  1
  Mg  Mg6  1  0.34593761  0.17574773  0.38463328  1
  Mg  Mg7  1  0.34593761  0.17574773  0.86536672  1
  Mg  Mg8  1  0.34593761  0.67019088  0.38463328  1
  Mg  Mg9  1  0.34593761  0.67019088  0.86536672  1
  Mg  Mg10  1  0.82886191  0.16443146  0.38471825  1
  Mg  Mg11  1  0.82886191  0.16443146  0.86528175  1
  Mg  Mg12  1  0.93095330  0.71547715  0.27613715  1
  Mg  Mg13  1  0.93095330  0.71547715  0.97386285  1
  C  C0  1  0.24513786  0.87256843  0.12500000  1
loop_
_geom_bond_atom_site_label_1
_geom_bond_atom_site_label_2
_geom_bond_distance
_geom_bond_site_symmetry_2
Ca0 Mg10 3.130622 1_455
Ca0 Mg11 3.130622 1_454
Ca0 Mg4 3.135022 1_555
Ca0 Mg2 3.135023 1_555
Ca0 Mg4 3.365400 1_445
Ca0 Mg2 3.365400 1_455
Ca0 Mg7 3.387853 1_554
Ca0 Mg6 3.387853 1_555
Ca0 Mg9 3.387858 1_554
Ca0 Mg8 3.387858 1_555
Ca0 Mg13 3.561679 1_444
Ca0 Mg12 3.561679 1_445
Ca0 Mg12 3.561690 1_455
Ca0 Mg13 3.561690 1_454
Mg0 Mg1 3.038824 1_545
Mg0 Mg1 3.038824 1_555
Mg0 Mg6 3.112883 1_555
Mg0 Mg7 3.112883 1_555
Mg0 Mg8 3.112888 1_555
Mg0 Mg9 3.112888 1_555
Mg0 Mg10 3.128777 1_455
Mg0 Mg11 3.128777 1_455
Mg0 Mg5 3.235202 1_555
Mg0 Mg3 3.235202 1_555
Mg0 Mg5 3.250097 1_445
Mg0 Mg3 3.250097 1_455
Mg1 Mg3 3.136922 1_455
Mg1 Mg5 3.136922 1_455
Mg1 Mg8 3.166782 1_555
Mg1 Mg9 3.166782 1_555
Mg1 Mg6 3.166788 1_565
Mg1 Mg7 3.166788 1_565
Mg1 Mg3 3.348509 1_565
Mg1 Mg5 3.348509 1_555
Mg2 Mg6 2.992343 1_555
Mg2 Mg7 2.992343 1_554
Mg3 Mg5 2.991285 1_555
Mg3 Mg6 3.073871 1_555
Mg3 Mg7 3.073871 1_555
Mg3 Mg5 3.082808 1_545
Mg4 Mg9 2.992343 1_554
Mg4 Mg8 2.992343 1_555
Mg5 Mg8 3.073871 1_555
Mg5 Mg9 3.073871 1_555
Mg6 Mg8 3.003294 1_555
Mg6 Mg8 3.070799 1_545
Mg7 Mg9 3.003294 1_555
Mg7 Mg9 3.070799 1_545
Mg10 Mg3 3.097883 1_555
Mg10 Mg5 3.097889 1_545
Mg10 Mg8 3.164609 1_545
Mg10 Mg6 3.164609 1_555
Mg10 Mg12 3.292955 1_555
Mg10 Mg12 3.292955 1_545
Mg10 Mg8 3.321679 1_655
Mg10 Mg6 3.321680 1_655
Mg10 Mg2 3.381213 1_555
Mg10 Mg4 3.381218 1_545
Mg11 Mg3 3.097883 1_555
Mg11 Mg5 3.097889 1_545
Mg11 Mg9 3.164609 1_545
Mg11 Mg7 3.164609 1_555
Mg11 Mg13 3.292955 1_555
Mg11 Mg13 3.292955 1_545
Mg11 Mg9 3.321679 1_655
Mg11 Mg7 3.321680 1_655
Mg11 Mg2 3.381213 1_556
Mg11 Mg4 3.381218 1_546
Mg12 Mg6 3.047535 1_665
Mg12 Mg8 3.047535 1_655
Mg13 Mg7 3.047535 1_665
Mg13 Mg9 3.047535 1_655
C0 Mg2 2.306984 1_565
C0 Mg4 2.306984 1_555
C0 Mg12 2.390929 1_455
C0 Mg13 2.390929 1_454
C0 Ca0 3.142457 1_555
C0 Ca0 3.142457 1_565
