# generated using pymatgen
data_Cu4(PO4)3
_symmetry_space_group_name_H-M   'P 1'
_cell_length_a   6.03208800
_cell_length_b   14.51813600
_cell_length_c   10.16605100
_cell_angle_alpha   90.00000000
_cell_angle_beta   90.00000000
_cell_angle_gamma   90.00000000
_symmetry_Int_Tables_number   1
_chemical_formula_structural   Cu4(PO4)3
_chemical_formula_sum   'Cu16 P12 O48'
_cell_volume   890.28860166
_cell_formula_units_Z   4
loop_
 _symmetry_equiv_pos_site_id
 _symmetry_equiv_pos_as_xyz
  1  'x, y, z'
loop_
 _atom_site_type_symbol
 _atom_site_label
 _atom_site_symmetry_multiplicity
 _atom_site_fract_x
 _atom_site_fract_y
 _atom_site_fract_z
 _atom_site_occupancy
  Cu  Cu0  1  0.56104800  0.63445000  0.64686300  1
  Cu  Cu1  1  0.85701900  0.40538900  0.56706500  1
  Cu  Cu2  1  0.43895200  0.13445000  0.35313700  1
  Cu  Cu3  1  0.14298100  0.90538900  0.43293500  1
  Cu  Cu4  1  0.93895200  0.36555000  0.14686300  1
  Cu  Cu5  1  0.06104800  0.63445000  0.85313700  1
  Cu  Cu6  1  0.85701900  0.09461100  0.56706500  1
  Cu  Cu7  1  0.06104800  0.86555000  0.85313700  1
  Cu  Cu8  1  0.35701900  0.09461100  0.93293500  1
  Cu  Cu9  1  0.35701900  0.40538900  0.93293500  1
  Cu  Cu10  1  0.14298100  0.59461100  0.43293500  1
  Cu  Cu11  1  0.64298100  0.90538900  0.06706500  1
  Cu  Cu12  1  0.64298100  0.59461100  0.06706500  1
  Cu  Cu13  1  0.56104800  0.86555000  0.64686300  1
  Cu  Cu14  1  0.43895200  0.36555000  0.35313700  1
  Cu  Cu15  1  0.93895200  0.13445000  0.14686300  1
  P  P0  1  0.63647100  0.56897100  0.36430200  1
  P  P1  1  0.86352900  0.43102900  0.86430200  1
  P  P2  1  0.13647100  0.93102900  0.13569800  1
  P  P3  1  0.36352800  0.43102900  0.63569800  1
  P  P4  1  0.01246200  0.25000000  0.39884100  1
  P  P5  1  0.48753800  0.75000000  0.89884100  1
  P  P6  1  0.36352800  0.06897100  0.63569800  1
  P  P7  1  0.98753800  0.75000000  0.60115900  1
  P  P8  1  0.51246200  0.25000000  0.10115900  1
  P  P9  1  0.13647100  0.56897100  0.13569800  1
  P  P10  1  0.86352900  0.06897100  0.86430200  1
  P  P11  1  0.63647100  0.93102900  0.36430200  1
  O  O0  1  0.94269600  0.25000000  0.54248800  1
  O  O1  1  0.96207900  0.98170700  0.80084600  1
  O  O2  1  0.96212100  0.88770500  0.03320200  1
  O  O3  1  0.96207900  0.51829300  0.80084600  1
  O  O4  1  0.53792100  0.01829300  0.30084600  1
  O  O5  1  0.15999800  0.45050200  0.54568900  1
  O  O6  1  0.65999800  0.45050200  0.95431100  1
  O  O7  1  0.91976100  0.16063200  0.33479800  1
  O  O8  1  0.53792100  0.48170700  0.30084600  1
  O  O9  1  0.58023900  0.66063200  0.83479800  1
  O  O10  1  0.81575500  0.36571500  0.75073200  1
  O  O11  1  0.91976100  0.33936800  0.33479800  1
  O  O12  1  0.03787900  0.11229500  0.96679800  1
  O  O13  1  0.65999800  0.04949800  0.95431100  1
  O  O14  1  0.18424500  0.86571500  0.24926800  1
  O  O15  1  0.46212100  0.88770500  0.46679800  1
  O  O16  1  0.41976100  0.33936800  0.16520200  1
  O  O17  1  0.27846100  0.25000000  0.38525700  1
  O  O18  1  0.84000200  0.95050200  0.45431100  1
  O  O19  1  0.31575500  0.13428500  0.74926800  1
  O  O20  1  0.34000200  0.54949800  0.04568900  1
  O  O21  1  0.08023900  0.83936800  0.66520200  1
  O  O22  1  0.84000200  0.54949800  0.45431100  1
  O  O23  1  0.03792100  0.01829300  0.19915400  1
  O  O24  1  0.68424500  0.86571500  0.25073200  1
  O  O25  1  0.34000200  0.95050200  0.04568900  1
  O  O26  1  0.31575500  0.36571500  0.74926800  1
  O  O27  1  0.53787900  0.11229500  0.53320200  1
  O  O28  1  0.18424500  0.63428500  0.24926800  1
  O  O29  1  0.08023900  0.66063200  0.66520200  1
  O  O30  1  0.96212100  0.61229500  0.03320200  1
  O  O31  1  0.22153900  0.75000000  0.88525700  1
  O  O32  1  0.77846100  0.25000000  0.11474300  1
  O  O33  1  0.55730400  0.75000000  0.04248800  1
  O  O34  1  0.46207900  0.98170700  0.69915400  1
  O  O35  1  0.58023900  0.83936800  0.83479800  1
  O  O36  1  0.03787900  0.38770500  0.96679800  1
  O  O37  1  0.72153900  0.75000000  0.61474300  1
  O  O38  1  0.46207900  0.51829300  0.69915400  1
  O  O39  1  0.68424500  0.63428500  0.25073200  1
  O  O40  1  0.81575500  0.13428500  0.75073200  1
  O  O41  1  0.41976100  0.16063200  0.16520200  1
  O  O42  1  0.03792100  0.48170700  0.19915400  1
  O  O43  1  0.05730400  0.75000000  0.45751200  1
  O  O44  1  0.15999800  0.04949800  0.54568900  1
  O  O45  1  0.53787900  0.38770500  0.53320200  1
  O  O46  1  0.46212100  0.61229500  0.46679800  1
  O  O47  1  0.44269600  0.25000000  0.95751200  1
loop_
_geom_bond_atom_site_label_1
_geom_bond_atom_site_label_2
_geom_bond_distance
_geom_bond_site_symmetry_2
Cu0 O38 1.866246 1_555
Cu0 O9 1.951439 1_555
Cu0 O46 1.952041 1_555
Cu0 O37 1.964199 1_555
Cu1 O5 1.953535 1_655
Cu1 O10 1.969782 1_555
Cu1 O45 1.972400 1_555
Cu1 O0 2.327846 1_555
Cu1 O22 2.387830 1_555
Cu1 O11 2.576317 1_555
Cu2 O4 1.866246 1_555
Cu2 O41 1.951439 1_555
Cu2 O27 1.952041 1_555
Cu2 O17 1.964199 1_555
Cu3 O18 1.953535 1_455
Cu3 O14 1.969782 1_555
Cu3 O15 1.972400 1_555
Cu3 O43 2.327846 1_555
Cu3 O44 2.387830 1_565
Cu3 O21 2.576317 1_555
Cu4 O42 1.866246 1_655
Cu4 O11 1.951439 1_555
Cu4 O36 1.952041 1_654
Cu4 O32 1.964199 1_555
Cu5 O3 1.866246 1_455
Cu5 O29 1.951439 1_555
Cu5 O30 1.952041 1_456
Cu5 O31 1.964199 1_555
Cu6 O44 1.953535 1_655
Cu6 O40 1.969782 1_555
Cu6 O27 1.972400 1_555
Cu6 O0 2.327846 1_555
Cu6 O18 2.387830 1_545
Cu6 O7 2.576317 1_555
Cu7 O1 1.866246 1_455
Cu7 O21 1.951439 1_555
Cu7 O2 1.952041 1_456
Cu7 O31 1.964199 1_555
Cu8 O13 1.953535 1_555
Cu8 O19 1.969782 1_555
Cu8 O12 1.972400 1_555
Cu8 O47 2.327846 1_555
Cu8 O25 2.387830 1_546
Cu8 O41 2.576317 1_556
Cu9 O6 1.953535 1_555
Cu9 O26 1.969782 1_555
Cu9 O36 1.972400 1_555
Cu9 O47 2.327846 1_555
Cu9 O20 2.387830 1_556
Cu9 O16 2.576317 1_556
Cu10 O22 1.953535 1_455
Cu10 O28 1.969782 1_555
Cu10 O46 1.972400 1_555
Cu10 O43 2.327846 1_555
Cu10 O5 2.387830 1_555
Cu10 O29 2.576317 1_555
Cu11 O25 1.953535 1_555
Cu11 O24 1.969782 1_555
Cu11 O2 1.972400 1_555
Cu11 O33 2.327846 1_555
Cu11 O13 2.387830 1_564
Cu11 O35 2.576317 1_554
Cu12 O20 1.953535 1_555
Cu12 O39 1.969782 1_555
Cu12 O30 1.972400 1_555
Cu12 O33 2.327846 1_555
Cu12 O6 2.387830 1_554
Cu12 O9 2.576317 1_554
Cu13 O34 1.866246 1_555
Cu13 O35 1.951439 1_555
Cu13 O15 1.952041 1_555
Cu13 O37 1.964199 1_555
Cu14 O8 1.866246 1_555
Cu14 O16 1.951439 1_555
Cu14 O45 1.952041 1_555
Cu14 O17 1.964199 1_555
Cu15 O23 1.866246 1_655
Cu15 O7 1.951439 1_555
Cu15 O12 1.952041 1_654
Cu15 O32 1.964199 1_555
O0 P4 1.519751 1_655
O1 P10 1.540973 1_565
O2 P2 1.608541 1_655
O3 P1 1.540973 1_555
O4 P11 1.540973 1_545
O5 P3 1.557078 1_555
O6 P1 1.557082 1_555
O7 P4 1.555623 1_655
O8 P0 1.540973 1_555
O9 P5 1.555623 1_555
O10 P1 1.521580 1_555
O11 P4 1.555623 1_655
O12 P10 1.608541 1_455
O13 P10 1.557082 1_555
O14 P2 1.521580 1_555
O15 P11 1.608541 1_555
O16 P8 1.555623 1_555
O17 P4 1.610461 1_555
O18 P11 1.557082 1_555
O19 P6 1.521579 1_555
O20 P9 1.557082 1_555
O21 P7 1.555623 1_455
O22 P0 1.557082 1_555
O23 P2 1.540973 1_545
O24 P11 1.521580 1_555
O25 P2 1.557082 1_555
O26 P3 1.521579 1_555
O27 P6 1.608545 1_555
O28 P9 1.521580 1_555
O29 P7 1.555623 1_455
O30 P9 1.608541 1_655
O31 P5 1.610461 1_555
O32 P8 1.610461 1_555
O33 P5 1.519751 1_554
O34 P6 1.540975 1_565
O35 P5 1.555623 1_555
O36 P1 1.608541 1_455
O37 P7 1.610461 1_555
O38 P3 1.540975 1_555
O39 P0 1.521580 1_555
O40 P10 1.521580 1_555
O41 P8 1.555623 1_555
O42 P9 1.540973 1_555
O43 P7 1.519751 1_455
O44 P6 1.557078 1_555
O45 P3 1.608545 1_555
O46 P0 1.608541 1_555
O47 P8 1.519751 1_556
