# generated using pymatgen
data_LiVN
_symmetry_space_group_name_H-M   'P 1'
_cell_length_a   6.90741700
_cell_length_b   3.26528300
_cell_length_c   4.91506200
_cell_angle_alpha   90.00000000
_cell_angle_beta   90.00000000
_cell_angle_gamma   90.00000000
_symmetry_Int_Tables_number   1
_chemical_formula_structural   LiVN
_chemical_formula_sum   'Li4 V4 N4'
_cell_volume   110.85760785
_cell_formula_units_Z   4
loop_
 _symmetry_equiv_pos_site_id
 _symmetry_equiv_pos_as_xyz
  1  'x, y, z'
loop_
 _atom_site_type_symbol
 _atom_site_label
 _atom_site_symmetry_multiplicity
 _atom_site_fract_x
 _atom_site_fract_y
 _atom_site_fract_z
 _atom_site_occupancy
  Li  Li0  1  0.58401500  0.25000000  0.93728900  1
  Li  Li1  1  0.08401500  0.25000000  0.56271100  1
  Li  Li2  1  0.41598500  0.75000000  0.06271100  1
  Li  Li3  1  0.91598500  0.75000000  0.43728900  1
  V  V0  1  0.63736400  0.25000000  0.45018700  1
  V  V1  1  0.13736400  0.25000000  0.04981300  1
  V  V2  1  0.36263600  0.75000000  0.54981300  1
  V  V3  1  0.86263600  0.75000000  0.95018700  1
  N  N0  1  0.87631500  0.25000000  0.21694400  1
  N  N1  1  0.37631500  0.25000000  0.28305600  1
  N  N2  1  0.12368500  0.75000000  0.78305600  1
  N  N3  1  0.62368500  0.75000000  0.71694400  1
loop_
_geom_bond_atom_site_label_1
_geom_bond_atom_site_label_2
_geom_bond_distance
_geom_bond_site_symmetry_2
Li0 N3 1.978260 1_545
Li0 N3 1.978260 1_555
Li0 N1 2.224065 1_556
Li0 N0 2.442504 1_556
Li1 N2 1.978260 1_555
Li1 N2 1.978260 1_545
Li1 N0 2.224065 1_455
Li1 N1 2.442504 1_555
Li2 N1 1.978260 1_565
Li2 N1 1.978260 1_555
Li2 N3 2.224065 1_554
Li2 N2 2.442504 1_554
Li3 N0 1.978260 1_565
Li3 N0 1.978260 1_555
Li3 N2 2.224065 1_655
Li3 N3 2.442504 1_555
N0 V1 1.981472 1_655
N0 V0 2.009603 1_555
N0 V3 2.096068 1_544
N0 V3 2.096068 1_554
N1 V0 1.981472 1_555
N1 V1 2.009603 1_555
N1 V2 2.096068 1_545
N1 V2 2.096068 1_555
N2 V3 1.981472 1_455
N2 V2 2.009603 1_555
N2 V1 2.096068 1_566
N2 V1 2.096068 1_556
N3 V2 1.981472 1_555
N3 V3 2.009603 1_555
N3 V0 2.096068 1_565
N3 V0 2.096068 1_555
