# generated using pymatgen
data_YGa2Ni3
_symmetry_space_group_name_H-M   'P 1'
_cell_length_a   3.88119600
_cell_length_b   9.03129502
_cell_length_c   9.03168853
_cell_angle_alpha   60.00891111
_cell_angle_beta   90.00000000
_cell_angle_gamma   90.00000000
_symmetry_Int_Tables_number   1
_chemical_formula_structural   YGa2Ni3
_chemical_formula_sum   'Y3 Ga6 Ni9'
_cell_volume   274.19162036
_cell_formula_units_Z   3
loop_
 _symmetry_equiv_pos_site_id
 _symmetry_equiv_pos_as_xyz
  1  'x, y, z'
loop_
 _atom_site_type_symbol
 _atom_site_label
 _atom_site_symmetry_multiplicity
 _atom_site_fract_x
 _atom_site_fract_y
 _atom_site_fract_z
 _atom_site_occupancy
  Y  Y0  1  0.00000000  0.33343100  0.33329800  1
  Y  Y1  1  0.00000000  0.66675300  0.66664200  1
  Y  Y2  1  0.50000000  0.99996900  0.00002500  1
  Ga  Ga0  1  0.50000000  0.81496000  0.81475300  1
  Ga  Ga1  1  0.50000000  0.37025600  0.81495600  1
  Ga  Ga2  1  0.50000000  0.81495800  0.37030200  1
  Ga  Ga3  1  0.50000000  0.49121700  0.49134900  1
  Ga  Ga4  1  0.50000000  0.49117100  0.01743500  1
  Ga  Ga5  1  0.50000000  0.01733000  0.49130200  1
  Ni  Ni0  1  0.00000000  0.30026200  0.69635200  1
  Ni  Ni1  1  0.00000000  0.69626100  0.00346900  1
  Ni  Ni2  1  0.00000000  0.00332600  0.30044900  1
  Ni  Ni3  1  0.00000000  0.69639300  0.30029000  1
  Ni  Ni4  1  0.00000000  0.30029000  0.00331000  1
  Ni  Ni5  1  0.00000000  0.00328900  0.69615300  1
  Ni  Ni6  1  0.50000000  0.18415200  0.18409600  1
  Ni  Ni7  1  0.50000000  0.18408200  0.63185900  1
  Ni  Ni8  1  0.50000000  0.63180100  0.18405900  1
loop_
_geom_bond_atom_site_label_1
_geom_bond_atom_site_label_2
_geom_bond_distance
_geom_bond_site_symmetry_2
Ga0 Ni5 2.446388 1_665
Ga0 Ni5 2.446388 1_565
Ga0 Ni1 2.448166 1_556
Ga0 Ni1 2.448166 1_656
Ga0 Ga5 2.556691 1_565
Ga0 Ga4 2.559404 1_556
Ga0 Ni7 2.887321 1_565
Ga0 Ni8 2.888879 1_556
Ga0 Y2 2.896024 1_556
Ga0 Y1 3.022738 1_555
Ga0 Y1 3.022738 1_655
Ga1 Ni4 2.446320 1_656
Ga1 Ni4 2.446320 1_556
Ga1 Ni0 2.447434 1_555
Ga1 Ni0 2.447434 1_655
Ga1 Ga4 2.556016 1_556
Ga1 Ga3 2.558061 1_555
Ga1 Ni6 2.887586 1_556
Ga1 Ni7 2.888157 1_555
Ga1 Y2 2.896397 1_546
Ga1 Y1 3.024013 1_555
Ga1 Y1 3.024013 1_655
Ga2 Ni2 2.446439 1_665
Ga2 Ni2 2.446439 1_565
Ga2 Ni3 2.447299 1_555
Ga2 Ni3 2.447299 1_655
Ga2 Ga5 2.555684 1_565
Ga2 Ga3 2.558948 1_555
Ga2 Ni6 2.887887 1_565
Ga2 Ni8 2.889167 1_555
Ga2 Y2 2.896445 1_555
Ga2 Y1 3.023148 1_655
Ga2 Y1 3.023148 1_555
Ga3 Ni7 2.405292 1_555
Ga3 Ni8 2.406614 1_555
Ga3 Ni0 2.641208 1_555
Ga3 Ni0 2.641208 1_655
Ga3 Ni3 2.642070 1_655
Ga3 Ni3 2.642070 1_555
Ga3 Y0 3.141314 1_555
Ga3 Y0 3.141314 1_655
Ga3 Y1 3.360779 1_555
Ga3 Y1 3.360779 1_655
Ga4 Ni6 2.404470 1_555
Ga4 Ni8 2.405951 1_555
Ga4 Ni4 2.640814 1_655
Ga4 Ni4 2.640814 1_555
Ga4 Ni1 2.641782 1_655
Ga4 Ni1 2.641782 1_555
Ga4 Y0 3.141778 1_655
Ga4 Y0 3.141778 1_555
Ga4 Y1 3.360900 1_654
Ga4 Y1 3.360900 1_554
Ga5 Ni6 2.406059 1_555
Ga5 Ni7 2.406414 1_555
Ga5 Ni5 2.640172 1_655
Ga5 Ni5 2.640172 1_555
Ga5 Ni2 2.640283 1_555
Ga5 Ni2 2.640283 1_655
Ga5 Y0 3.143157 1_655
Ga5 Y0 3.143157 1_555
Ga5 Y1 3.359422 1_645
Ga5 Y1 3.359422 1_545
Ni0 Ni7 2.411877 1_455
Ni0 Ni7 2.411877 1_555
Ni0 Ni5 2.682950 1_555
Ni0 Ni4 2.772475 1_556
Ni0 Y0 3.139989 1_555
Ni0 Y1 3.184251 1_555
Ni0 Y2 3.347702 1_546
Ni0 Y2 3.347702 1_446
Ni1 Ni8 2.411604 1_455
Ni1 Ni8 2.411604 1_555
Ni1 Ni3 2.681391 1_555
Ni1 Ni5 2.774596 1_564
Ni1 Y0 3.138910 1_555
Ni1 Y1 3.183706 1_554
Ni1 Y2 3.347382 1_455
Ni1 Y2 3.347382 1_555
Ni2 Ni6 2.412785 1_555
Ni2 Ni6 2.412785 1_455
Ni2 Ni4 2.683180 1_555
Ni2 Ni3 2.772721 1_545
Ni2 Y0 3.140108 1_555
Ni2 Y1 3.182395 1_545
Ni2 Y2 3.348324 1_545
Ni2 Y2 3.348324 1_445
Ni3 Ni8 2.412557 1_555
Ni3 Ni8 2.412557 1_455
Ni3 Y0 3.139633 1_555
Ni3 Y1 3.183423 1_555
Ni3 Y2 3.347235 1_555
Ni3 Y2 3.347235 1_455
Ni4 Ni6 2.412459 1_455
Ni4 Ni6 2.412459 1_555
Ni4 Y0 3.140678 1_555
Ni4 Y1 3.184116 1_554
Ni4 Y2 3.347201 1_445
Ni4 Y2 3.347201 1_545
Ni5 Ni7 2.412727 1_455
Ni5 Ni7 2.412727 1_555
Ni5 Y0 3.140273 1_555
Ni5 Y1 3.180974 1_545
Ni5 Y2 3.349135 1_446
Ni5 Y2 3.349135 1_546
Ni6 Y2 2.880170 1_545
Ni6 Y0 3.035728 1_555
Ni6 Y0 3.035728 1_655
Ni7 Y2 2.879932 1_546
Ni7 Y0 3.036491 1_655
Ni7 Y0 3.036491 1_555
Ni8 Y2 2.879822 1_555
Ni8 Y0 3.035263 1_655
Ni8 Y0 3.035263 1_555
