# generated using pymatgen
data_LiCrO2
_symmetry_space_group_name_H-M   'P 1'
_cell_length_a   5.04101547
_cell_length_b   5.04101565
_cell_length_c   5.04101569
_cell_angle_alpha   33.66229927
_cell_angle_beta   33.66229528
_cell_angle_gamma   33.66230395
_symmetry_Int_Tables_number   1
_chemical_formula_structural   LiCrO2
_chemical_formula_sum   'Li1 Cr1 O2'
_cell_volume   35.06364172
_cell_formula_units_Z   1
loop_
 _symmetry_equiv_pos_site_id
 _symmetry_equiv_pos_as_xyz
  1  'x, y, z'
loop_
 _atom_site_type_symbol
 _atom_site_label
 _atom_site_symmetry_multiplicity
 _atom_site_fract_x
 _atom_site_fract_y
 _atom_site_fract_z
 _atom_site_occupancy
  Li  Li0  1  -0.00000000  0.00000000  -0.00000000  1
  Cr  Cr0  1  0.50000000  0.50000000  0.50000000  1
  O  O0  1  0.24187645  0.24187645  0.24187645  1
  O  O1  1  0.75812355  0.75812355  0.75812355  1
loop_
_geom_bond_atom_site_label_1
_geom_bond_atom_site_label_2
_geom_bond_distance
_geom_bond_site_symmetry_2
Li0 O1 2.130694 1_544
Li0 O0 2.130694 1_455
Li0 O0 2.130694 1_554
Li0 O1 2.130694 1_445
Li0 O1 2.130694 1_454
Li0 O0 2.130694 1_545
Cr0 O0 1.997445 1_556
Cr0 O1 1.997445 1_554
Cr0 O0 1.997445 1_655
Cr0 O1 1.997445 1_455
Cr0 O0 1.997445 1_565
Cr0 O1 1.997445 1_545
