# generated using pymatgen
data_UB6H36(C2N)3
_symmetry_space_group_name_H-M   'P 1'
_cell_length_a   16.14871600
_cell_length_b   10.38047000
_cell_length_c   11.79787619
_cell_angle_alpha   90.00000000
_cell_angle_beta   95.81379666
_cell_angle_gamma   90.00000000
_symmetry_Int_Tables_number   1
_chemical_formula_structural   UB6H36(C2N)3
_chemical_formula_sum   'U4 B24 H144 C24 N12'
_cell_volume   1967.52030702
_cell_formula_units_Z   4
loop_
 _symmetry_equiv_pos_site_id
 _symmetry_equiv_pos_as_xyz
  1  'x, y, z'
loop_
 _atom_site_type_symbol
 _atom_site_label
 _atom_site_symmetry_multiplicity
 _atom_site_fract_x
 _atom_site_fract_y
 _atom_site_fract_z
 _atom_site_occupancy
  U  U0  1  0.26379600  0.34047300  0.33618500  1
  U  U1  1  0.73620400  0.84047300  0.16381500  1
  U  U2  1  0.73620400  0.65952700  0.66381500  1
  U  U3  1  0.26379600  0.15952700  0.83618500  1
  B  B0  1  0.17232100  0.12346100  0.38875900  1
  B  B1  1  0.82767900  0.62346100  0.11124100  1
  B  B2  1  0.82767900  0.87653900  0.61124100  1
  B  B3  1  0.17232100  0.37653900  0.88875900  1
  B  B4  1  0.10294500  0.27613700  0.24060300  1
  B  B5  1  0.89705500  0.77613700  0.25939700  1
  B  B6  1  0.89705500  0.72386300  0.75939700  1
  B  B7  1  0.10294500  0.22386300  0.74060300  1
  B  B8  1  0.26225500  0.52505500  0.50934600  1
  B  B9  1  0.73774500  0.02505500  0.99065400  1
  B  B10  1  0.73774500  0.47494500  0.49065400  1
  B  B11  1  0.26225500  0.97494500  0.00934600  1
  B  B12  1  0.23996900  0.60885800  0.30681700  1
  B  B13  1  0.76003100  0.10885800  0.19318300  1
  B  B14  1  0.76003100  0.39114200  0.69318300  1
  B  B15  1  0.23996900  0.89114200  0.80681700  1
  B  B16  1  0.43364100  0.29524000  0.30969100  1
  B  B17  1  0.56635900  0.79524000  0.19030900  1
  B  B18  1  0.56635900  0.70476000  0.69030900  1
  B  B19  1  0.43364100  0.20476000  0.80969100  1
  B  B20  1  0.33558000  0.28821600  0.12817500  1
  B  B21  1  0.66442000  0.78821600  0.37182500  1
  B  B22  1  0.66442000  0.71178400  0.87182500  1
  B  B23  1  0.33558000  0.21178400  0.62817500  1
  H  H0  1  0.00906000  0.05078100  0.40505000  1
  H  H1  1  0.99094000  0.55078100  0.09495000  1
  H  H2  1  0.99094000  0.94921900  0.59495000  1
  H  H3  1  0.00906000  0.44921900  0.90505000  1
  H  H4  1  0.02250800  0.21999600  0.42909400  1
  H  H5  1  0.97749200  0.71999600  0.07090600  1
  H  H6  1  0.97749200  0.78000400  0.57090600  1
  H  H7  1  0.02250800  0.28000400  0.92909400  1
  H  H8  1  0.96074200  0.16350700  0.30396100  1
  H  H9  1  0.03925800  0.66350700  0.19603900  1
  H  H10  1  0.03925800  0.83649300  0.69603900  1
  H  H11  1  0.96074200  0.33649300  0.80396100  1
  H  H12  1  0.02622600  0.05489800  0.15725100  1
  H  H13  1  0.97377400  0.55489800  0.34274900  1
  H  H14  1  0.97377400  0.94510200  0.84274900  1
  H  H15  1  0.02622600  0.44510200  0.65725100  1
  H  H16  1  0.13690800  0.03366100  0.16901400  1
  H  H17  1  0.86309200  0.53366100  0.33098600  1
  H  H18  1  0.86309200  0.96633900  0.83098600  1
  H  H19  1  0.13690800  0.46633900  0.66901400  1
  H  H20  1  0.07485900  0.94429900  0.25959200  1
  H  H21  1  0.92514100  0.44429900  0.24040800  1
  H  H22  1  0.92514100  0.05570100  0.74040800  1
  H  H23  1  0.07485900  0.55570100  0.75959200  1
  H  H24  1  0.14246000  0.78659300  0.40439400  1
  H  H25  1  0.85754000  0.28659300  0.09560600  1
  H  H26  1  0.85754000  0.21340700  0.59560600  1
  H  H27  1  0.14246000  0.71340700  0.90439400  1
  H  H28  1  0.11023200  0.62706100  0.43788300  1
  H  H29  1  0.88976800  0.12706100  0.06211700  1
  H  H30  1  0.88976800  0.37293900  0.56211700  1
  H  H31  1  0.11023200  0.87293900  0.93788300  1
  H  H32  1  0.15840300  0.72902800  0.54828800  1
  H  H33  1  0.84159700  0.22902800  0.95171200  1
  H  H34  1  0.84159700  0.27097200  0.45171200  1
  H  H35  1  0.15840300  0.77097200  0.04828800  1
  H  H36  1  0.30161500  0.77918800  0.55689600  1
  H  H37  1  0.69838500  0.27918800  0.94310400  1
  H  H38  1  0.69838500  0.22081200  0.44310400  1
  H  H39  1  0.30161500  0.72081200  0.05689600  1
  H  H40  1  0.36492900  0.71800200  0.45333600  1
  H  H41  1  0.63507100  0.21800200  0.04666400  1
  H  H42  1  0.63507100  0.28199800  0.54666400  1
  H  H43  1  0.36492900  0.78199800  0.95333600  1
  H  H44  1  0.28795000  0.83889200  0.41322600  1
  H  H45  1  0.71205000  0.33889200  0.08677400  1
  H  H46  1  0.71205000  0.16110800  0.58677400  1
  H  H47  1  0.28795000  0.66110800  0.91322600  1
  H  H48  1  0.47778600  0.37487600  0.03491300  1
  H  H49  1  0.52221400  0.87487600  0.46508700  1
  H  H50  1  0.52221400  0.62512400  0.96508700  1
  H  H51  1  0.47778600  0.12512400  0.53491300  1
  H  H52  1  0.45032100  0.48063700  0.14510400  1
  H  H53  1  0.54967900  0.98063700  0.35489600  1
  H  H54  1  0.54967900  0.51936300  0.85489600  1
  H  H55  1  0.45032100  0.01936300  0.64510400  1
  H  H56  1  0.54331700  0.38618000  0.16710300  1
  H  H57  1  0.45668300  0.88618000  0.33289700  1
  H  H58  1  0.45668300  0.61382000  0.83289700  1
  H  H59  1  0.54331700  0.11382000  0.66710300  1
  H  H60  1  0.53370800  0.15424000  0.18544000  1
  H  H61  1  0.46629200  0.65424000  0.31456000  1
  H  H62  1  0.46629200  0.84576000  0.81456000  1
  H  H63  1  0.53370800  0.34576000  0.68544000  1
  H  H64  1  0.43381800  0.07784600  0.17863100  1
  H  H65  1  0.56618200  0.57784600  0.32136900  1
  H  H66  1  0.56618200  0.92215400  0.82136900  1
  H  H67  1  0.43381800  0.42215400  0.67863100  1
  H  H68  1  0.46774000  0.14850300  0.05329600  1
  H  H69  1  0.53226000  0.64850300  0.44670400  1
  H  H70  1  0.53226000  0.85149700  0.94670400  1
  H  H71  1  0.46774000  0.35149700  0.55329600  1
  H  H72  1  0.23439300  0.11606000  0.33372300  1
  H  H73  1  0.76560700  0.61606000  0.16627700  1
  H  H74  1  0.76560700  0.88394000  0.66627700  1
  H  H75  1  0.23439300  0.38394000  0.83372300  1
  H  H76  1  0.18002100  0.22055700  0.45097500  1
  H  H77  1  0.81997900  0.72055700  0.04902500  1
  H  H78  1  0.81997900  0.77944300  0.54902500  1
  H  H79  1  0.18002100  0.27944300  0.95097500  1
  H  H80  1  0.16843300  0.02890100  0.44791500  1
  H  H81  1  0.83156700  0.52890100  0.05208500  1
  H  H82  1  0.83156700  0.97109900  0.55208500  1
  H  H83  1  0.16843300  0.47109900  0.94791500  1
  H  H84  1  0.04372000  0.30405200  0.17367800  1
  H  H85  1  0.95628000  0.80405200  0.32632200  1
  H  H86  1  0.95628000  0.69594800  0.82632200  1
  H  H87  1  0.04372000  0.19594800  0.67367800  1
  H  H88  1  0.11426200  0.35979900  0.31610800  1
  H  H89  1  0.88573800  0.85979900  0.18389200  1
  H  H90  1  0.88573800  0.64020100  0.68389200  1
  H  H91  1  0.11426200  0.14020100  0.81610800  1
  H  H92  1  0.16594300  0.27005400  0.18796000  1
  H  H93  1  0.83405700  0.77005400  0.31204000  1
  H  H94  1  0.83405700  0.72994600  0.81204000  1
  H  H95  1  0.16594300  0.22994600  0.68796000  1
  H  H96  1  0.20554400  0.44462300  0.48502100  1
  H  H97  1  0.79445600  0.94462300  0.01497900  1
  H  H98  1  0.79445600  0.55537700  0.51497900  1
  H  H99  1  0.20554400  0.05537700  0.98502100  1
  H  H100  1  0.32876100  0.47989600  0.48161300  1
  H  H101  1  0.67123900  0.97989600  0.01838700  1
  H  H102  1  0.67123900  0.52010400  0.51838700  1
  H  H103  1  0.32876100  0.02010400  0.98161300  1
  H  H104  1  0.26847900  0.54600500  0.61087300  1
  H  H105  1  0.73152100  0.04600500  0.88912700  1
  H  H106  1  0.73152100  0.45399500  0.38912700  1
  H  H107  1  0.26847900  0.95399500  0.11087300  1
  H  H108  1  0.22733900  0.69864400  0.24180700  1
  H  H109  1  0.77266100  0.19864400  0.25819300  1
  H  H110  1  0.77266100  0.30135600  0.75819300  1
  H  H111  1  0.22733900  0.80135600  0.74180700  1
  H  H112  1  0.30814300  0.55771900  0.29440200  1
  H  H113  1  0.69185700  0.05771900  0.20559800  1
  H  H114  1  0.69185700  0.44228100  0.70559800  1
  H  H115  1  0.30814300  0.94228100  0.79440200  1
  H  H116  1  0.18408700  0.52717400  0.28530300  1
  H  H117  1  0.81591300  0.02717400  0.21469700  1
  H  H118  1  0.81591300  0.47282600  0.71469700  1
  H  H119  1  0.18408700  0.97282600  0.78530300  1
  H  H120  1  0.40490800  0.40269200  0.33201500  1
  H  H121  1  0.59509200  0.90269200  0.16798500  1
  H  H122  1  0.59509200  0.59730800  0.66798500  1
  H  H123  1  0.40490800  0.09730800  0.83201500  1
  H  H124  1  0.38899800  0.20931400  0.34498500  1
  H  H125  1  0.61100200  0.70931400  0.15501500  1
  H  H126  1  0.61100200  0.79068600  0.65501500  1
  H  H127  1  0.38899800  0.29068600  0.84498500  1
  H  H128  1  0.50392000  0.28650200  0.35577000  1
  H  H129  1  0.49608000  0.78650200  0.14423000  1
  H  H130  1  0.49608000  0.71349800  0.64423000  1
  H  H131  1  0.50392000  0.21349800  0.85577000  1
  H  H132  1  0.32618000  0.27313000  0.02393200  1
  H  H133  1  0.67382000  0.77313000  0.47606800  1
  H  H134  1  0.67382000  0.72687000  0.97606800  1
  H  H135  1  0.32618000  0.22687000  0.52393200  1
  H  H136  1  0.29768900  0.20348900  0.17547900  1
  H  H137  1  0.70231100  0.70348900  0.32452100  1
  H  H138  1  0.70231100  0.79651100  0.82452100  1
  H  H139  1  0.29768900  0.29651100  0.67547900  1
  H  H140  1  0.30742400  0.39606100  0.14955600  1
  H  H141  1  0.69257600  0.89606100  0.35044400  1
  H  H142  1  0.69257600  0.60393900  0.85044400  1
  H  H143  1  0.30742400  0.10393900  0.64955600  1
  C  C0  1  0.01606400  0.14455800  0.36390600  1
  C  C1  1  0.98393600  0.64455800  0.13609400  1
  C  C2  1  0.98393600  0.85544200  0.63609400  1
  C  C3  1  0.01606400  0.35544200  0.86390600  1
  C  C4  1  0.08216500  0.03688400  0.21649400  1
  C  C5  1  0.91783500  0.53688400  0.28350600  1
  C  C6  1  0.91783500  0.96311600  0.78350600  1
  C  C7  1  0.08216500  0.46311600  0.71649400  1
  C  C8  1  0.15742300  0.70148200  0.45809800  1
  C  C9  1  0.84257700  0.20148200  0.04190200  1
  C  C10  1  0.84257700  0.29851800  0.54190200  1
  C  C11  1  0.15742300  0.79851800  0.95809800  1
  C  C12  1  0.30286200  0.75335000  0.46656300  1
  C  C13  1  0.69713800  0.25335000  0.03343700  1
  C  C14  1  0.69713800  0.24665000  0.53343700  1
  C  C15  1  0.30286200  0.74665000  0.96656300  1
  C  C16  1  0.47866000  0.38786800  0.12758900  1
  C  C17  1  0.52134000  0.88786800  0.37241100  1
  C  C18  1  0.52134000  0.61213200  0.87241100  1
  C  C19  1  0.47866000  0.11213200  0.62758900  1
  C  C20  1  0.46898600  0.15754700  0.14633000  1
  C  C21  1  0.53101400  0.65754700  0.35367000  1
  C  C22  1  0.53101400  0.84245300  0.85367000  1
  C  C23  1  0.46898600  0.34245300  0.64633000  1
  N  N0  1  0.09167000  0.14256100  0.30168700  1
  N  N1  1  0.90833000  0.64256100  0.19831300  1
  N  N2  1  0.90833000  0.85743900  0.69831300  1
  N  N3  1  0.09167000  0.35743900  0.80168700  1
  N  N4  1  0.24032500  0.65065800  0.43616600  1
  N  N5  1  0.75967500  0.15065800  0.06383400  1
  N  N6  1  0.75967500  0.34934200  0.56383400  1
  N  N7  1  0.24032500  0.84934200  0.93616600  1
  N  N8  1  0.43072900  0.28213400  0.17538700  1
  N  N9  1  0.56927100  0.78213400  0.32461300  1
  N  N10  1  0.56927100  0.71786600  0.82461300  1
  N  N11  1  0.43072900  0.21786600  0.67538700  1
loop_
_geom_bond_atom_site_label_1
_geom_bond_atom_site_label_2
_geom_bond_distance
_geom_bond_site_symmetry_2
B0 H80 1.209710 1_555
B0 H76 1.245640 1_555
B0 H72 1.250653 1_555
B0 N0 1.587389 1_555
B1 H81 1.209710 1_555
B1 H77 1.245640 1_555
B1 H73 1.250653 1_555
B1 N1 1.587389 1_555
B2 H82 1.209710 1_555
B2 H78 1.245640 1_555
B2 H74 1.250653 1_555
B2 N2 1.587389 1_555
B3 H83 1.209710 1_555
B3 H79 1.245640 1_555
B3 H75 1.250653 1_555
B3 N3 1.587389 1_555
B4 H84 1.212073 1_555
B4 H88 1.244246 1_555
B4 H92 1.246075 1_555
B4 N0 1.581675 1_555
B5 H85 1.212073 1_555
B5 H89 1.244246 1_555
B5 H93 1.246075 1_555
B5 N1 1.581675 1_555
B6 H86 1.212073 1_555
B6 H90 1.244246 1_555
B6 H94 1.246075 1_555
B6 N2 1.581675 1_555
B7 H87 1.212073 1_555
B7 H91 1.244246 1_555
B7 H95 1.246075 1_555
B7 N3 1.581675 1_555
B8 H104 1.211502 1_555
B8 H100 1.245567 1_555
B8 H96 1.250966 1_555
B8 N4 1.583925 1_555
B9 H105 1.211502 1_555
B9 H101 1.245567 1_546
B9 H97 1.250966 1_546
B9 N5 1.583925 1_556
B10 H106 1.211502 1_555
B10 H102 1.245567 1_555
B10 H98 1.250966 1_555
B10 N6 1.583925 1_555
B11 H107 1.211502 1_555
B11 H103 1.245567 1_564
B11 H99 1.250966 1_564
B11 N7 1.583925 1_554
B12 H108 1.211127 1_555
B12 H112 1.244167 1_555
B12 H116 1.245533 1_555
B12 N4 1.585981 1_555
B13 H109 1.211127 1_555
B13 H113 1.244167 1_555
B13 H117 1.245533 1_555
B13 N5 1.585981 1_555
B14 H110 1.211127 1_555
B14 H114 1.244167 1_555
B14 H118 1.245533 1_555
B14 N6 1.585981 1_555
B15 H111 1.211127 1_555
B15 H115 1.244167 1_555
B15 H119 1.245533 1_555
B15 N7 1.585981 1_555
B16 H128 1.211117 1_555
B16 H124 1.244795 1_555
B16 H120 1.246412 1_555
B16 N8 1.586276 1_555
B17 H129 1.211117 1_555
B17 H125 1.244795 1_555
B17 H121 1.246412 1_555
B17 N9 1.586276 1_555
B18 H130 1.211117 1_555
B18 H126 1.244795 1_555
B18 H122 1.246412 1_555
B18 N10 1.586276 1_555
B19 H131 1.211117 1_555
B19 H127 1.244795 1_555
B19 H123 1.246412 1_555
B19 N11 1.586276 1_555
B20 H132 1.233801 1_555
B20 H136 1.236360 1_555
B20 H140 1.243721 1_555
B20 N8 1.581703 1_555
B21 H133 1.233801 1_555
B21 H137 1.236360 1_555
B21 H141 1.243721 1_555
B21 N9 1.581703 1_555
B22 H134 1.233801 1_555
B22 H138 1.236360 1_555
B22 H142 1.243721 1_555
B22 N10 1.581703 1_555
B23 H135 1.233801 1_555
B23 H139 1.236360 1_555
B23 H143 1.243721 1_555
B23 N11 1.581703 1_555
H72 U0 2.377001 1_555
H73 U1 2.377001 1_555
H74 U2 2.377001 1_555
H75 U3 2.377001 1_555
H76 U0 2.363252 1_555
H77 U1 2.363252 1_555
H78 U2 2.363252 1_555
H79 U3 2.363252 1_555
H88 U0 2.410735 1_555
H89 U1 2.410735 1_555
H90 U2 2.410735 1_555
H91 U3 2.410735 1_555
H92 U0 2.351516 1_555
H93 U1 2.351516 1_555
H94 U2 2.351516 1_555
H95 U3 2.351516 1_555
H96 U0 2.339175 1_555
H97 U1 2.339175 1_555
H98 U2 2.339175 1_555
H99 U3 2.339175 1_555
H100 U0 2.402983 1_555
H101 U1 2.402983 1_555
H102 U2 2.402983 1_555
H103 U3 2.402983 1_555
H112 U0 2.431652 1_555
H113 U1 2.431652 1_545
H114 U2 2.431652 1_555
H115 U3 2.431652 1_565
H116 U0 2.369960 1_555
H117 U1 2.369960 1_545
H118 U2 2.369960 1_555
H119 U3 2.369960 1_565
H120 U0 2.373836 1_555
H121 U1 2.373836 1_555
H122 U2 2.373836 1_555
H123 U3 2.373836 1_555
H124 U0 2.431007 1_555
H125 U1 2.431007 1_555
H126 U2 2.431007 1_555
H127 U3 2.431007 1_555
H132 U3 2.619114 1_554
H133 U2 2.619114 1_555
H134 U1 2.619114 1_556
H135 U0 2.619114 1_555
H136 U0 2.475186 1_555
H137 U1 2.475186 1_555
H138 U2 2.475186 1_555
H139 U3 2.475186 1_555
H140 U0 2.447784 1_555
H141 U1 2.447784 1_555
H142 U2 2.447784 1_555
H143 U3 2.447784 1_555
C0 H4 1.095133 1_555
C0 H0 1.098701 1_555
C0 H8 1.099537 1_455
C0 N0 1.487120 1_555
C1 H5 1.095133 1_555
C1 H1 1.098701 1_555
C1 H9 1.099537 1_655
C1 N1 1.487120 1_555
C2 H6 1.095133 1_555
C2 H2 1.098701 1_555
C2 H10 1.099537 1_655
C2 N2 1.487120 1_555
C3 H7 1.095133 1_555
C3 H3 1.098701 1_555
C3 H11 1.099537 1_455
C3 N3 1.487120 1_555
C4 H16 1.093953 1_555
C4 H20 1.099216 1_545
C4 H12 1.100728 1_555
C4 N0 1.485221 1_555
C5 H17 1.093953 1_555
C5 H21 1.099216 1_555
C5 H13 1.100728 1_555
C5 N1 1.485221 1_555
C6 H18 1.093953 1_555
C6 H22 1.099216 1_565
C6 H14 1.100728 1_555
C6 N2 1.485221 1_555
C7 H19 1.093953 1_555
C7 H23 1.099216 1_555
C7 H15 1.100728 1_555
C7 N3 1.485221 1_555
C8 H28 1.094354 1_555
C8 H24 1.099713 1_555
C8 H32 1.100365 1_555
C8 N4 1.485850 1_555
C9 H29 1.094354 1_555
C9 H25 1.099713 1_555
C9 H33 1.100365 1_554
C9 N5 1.485850 1_555
C10 H30 1.094354 1_555
C10 H26 1.099713 1_555
C10 H34 1.100365 1_555
C10 N6 1.485850 1_555
C11 H31 1.094354 1_555
C11 H27 1.099713 1_555
C11 H35 1.100365 1_556
C11 N7 1.485850 1_555
C12 H40 1.093291 1_555
C12 H44 1.100793 1_555
C12 H36 1.101130 1_555
C12 N4 1.487096 1_555
C13 H41 1.093291 1_555
C13 H45 1.100793 1_555
C13 H37 1.101130 1_554
C13 N5 1.487096 1_555
C14 H42 1.093291 1_555
C14 H46 1.100793 1_555
C14 H38 1.101130 1_555
C14 N6 1.487096 1_555
C15 H43 1.093291 1_555
C15 H47 1.100793 1_555
C15 H39 1.101130 1_556
C15 N7 1.487096 1_555
C16 H52 1.094821 1_555
C16 H56 1.099646 1_555
C16 H48 1.100337 1_555
C16 N8 1.486674 1_555
C17 H53 1.094821 1_555
C17 H57 1.099646 1_555
C17 H49 1.100337 1_555
C17 N9 1.486674 1_555
C18 H54 1.094821 1_555
C18 H58 1.099646 1_555
C18 H50 1.100337 1_555
C18 N10 1.486674 1_555
C19 H55 1.094821 1_555
C19 H59 1.099646 1_555
C19 H51 1.100337 1_555
C19 N11 1.486674 1_555
C20 H64 1.093655 1_555
C20 H60 1.099443 1_555
C20 H68 1.099763 1_555
C20 N8 1.488172 1_555
C21 H65 1.093655 1_555
C21 H61 1.099443 1_555
C21 H69 1.099763 1_555
C21 N9 1.488172 1_555
C22 H66 1.093655 1_555
C22 H62 1.099443 1_555
C22 H70 1.099763 1_555
C22 N10 1.488172 1_555
C23 H67 1.093655 1_555
C23 H63 1.099443 1_555
C23 H71 1.099763 1_555
C23 N11 1.488172 1_555
