# generated using pymatgen
data_ScCoGe
_symmetry_space_group_name_H-M   'P 1'
_cell_length_a   4.04391526
_cell_length_b   6.48166698
_cell_length_c   6.95170530
_cell_angle_alpha   90.00000000
_cell_angle_beta   90.00000000
_cell_angle_gamma   90.00000000
_symmetry_Int_Tables_number   1
_chemical_formula_structural   ScCoGe
_chemical_formula_sum   'Sc4 Co4 Ge4'
_cell_volume   182.21331662
_cell_formula_units_Z   4
loop_
 _symmetry_equiv_pos_site_id
 _symmetry_equiv_pos_as_xyz
  1  'x, y, z'
loop_
 _atom_site_type_symbol
 _atom_site_label
 _atom_site_symmetry_multiplicity
 _atom_site_fract_x
 _atom_site_fract_y
 _atom_site_fract_z
 _atom_site_occupancy
  Sc  Sc0  1  0.25000000  0.99483221  0.29843652  1
  Sc  Sc1  1  0.25000000  0.49483221  0.20156348  1
  Sc  Sc2  1  0.75000000  0.00516779  0.70156348  1
  Sc  Sc3  1  0.75000000  0.50516779  0.79843652  1
  Co  Co0  1  0.25000000  0.15062881  0.93989310  1
  Co  Co1  1  0.25000000  0.65062881  0.56010690  1
  Co  Co2  1  0.75000000  0.84937119  0.06010690  1
  Co  Co3  1  0.75000000  0.34937119  0.43989310  1
  Ge  Ge0  1  0.25000000  0.28644358  0.60870229  1
  Ge  Ge1  1  0.25000000  0.78644358  0.89129771  1
  Ge  Ge2  1  0.75000000  0.71355642  0.39129771  1
  Ge  Ge3  1  0.75000000  0.21355642  0.10870229  1
loop_
_geom_bond_atom_site_label_1
_geom_bond_atom_site_label_2
_geom_bond_distance
_geom_bond_site_symmetry_2
Co0 Ge3 2.373142 1_556
Co0 Ge3 2.373142 1_456
Co0 Ge1 2.384578 1_545
Co0 Ge0 2.464896 1_555
Co0 Sc0 2.689282 1_546
Co0 Sc2 2.778888 1_555
Co0 Sc2 2.778888 1_455
Co0 Sc1 2.878607 1_556
Co1 Ge2 2.373142 1_455
Co1 Ge2 2.373142 1_555
Co1 Ge0 2.384578 1_555
Co1 Ge1 2.464896 1_555
Co1 Sc1 2.689282 1_555
Co1 Sc3 2.778888 1_455
Co1 Sc3 2.778888 1_555
Co1 Sc0 2.878607 1_555
Co2 Ge1 2.373142 1_554
Co2 Ge1 2.373142 1_654
Co2 Ge3 2.384578 1_565
Co2 Ge2 2.464896 1_555
Co2 Sc2 2.689282 1_564
Co2 Sc0 2.778888 1_655
Co2 Sc0 2.778888 1_555
Co2 Sc3 2.878607 1_554
Co3 Ge0 2.373142 1_655
Co3 Ge0 2.373142 1_555
Co3 Ge2 2.384578 1_555
Co3 Ge3 2.464896 1_555
Co3 Sc3 2.689282 1_555
Co3 Sc1 2.778888 1_555
Co3 Sc1 2.778888 1_655
Co3 Sc2 2.878607 1_555
Ge0 Sc2 2.798011 1_455
Ge0 Sc2 2.798011 1_555
Ge0 Sc3 2.799621 1_555
Ge0 Sc3 2.799621 1_455
Ge0 Sc0 2.867873 1_545
Ge1 Sc3 2.798011 1_455
Ge1 Sc3 2.798011 1_555
Ge1 Sc2 2.799621 1_465
Ge1 Sc2 2.799621 1_565
Ge1 Sc1 2.867873 1_556
Ge2 Sc0 2.798011 1_555
Ge2 Sc0 2.798011 1_655
Ge2 Sc1 2.799621 1_655
Ge2 Sc1 2.799621 1_555
Ge2 Sc2 2.867873 1_565
Ge3 Sc1 2.798011 1_655
Ge3 Sc1 2.798011 1_555
Ge3 Sc0 2.799621 1_645
Ge3 Sc0 2.799621 1_545
Ge3 Sc3 2.867873 1_554
