# generated using pymatgen
data_MgSi
_symmetry_space_group_name_H-M   'P 1'
_cell_length_a   5.45888223
_cell_length_b   5.45888223
_cell_length_c   9.76688851
_cell_angle_alpha   83.56906272
_cell_angle_beta   83.56906272
_cell_angle_gamma   49.20589148
_symmetry_Int_Tables_number   1
_chemical_formula_structural   MgSi
_chemical_formula_sum   'Mg6 Si6'
_cell_volume   218.66267958
_cell_formula_units_Z   6
loop_
 _symmetry_equiv_pos_site_id
 _symmetry_equiv_pos_as_xyz
  1  'x, y, z'
loop_
 _atom_site_type_symbol
 _atom_site_label
 _atom_site_symmetry_multiplicity
 _atom_site_fract_x
 _atom_site_fract_y
 _atom_site_fract_z
 _atom_site_occupancy
  Mg  Mg0  1  0.09010800  0.09010800  0.87422900  1
  Mg  Mg1  1  0.90989200  0.90989200  0.12577100  1
  Mg  Mg2  1  0.44268300  0.44268300  0.35557800  1
  Mg  Mg3  1  0.55731700  0.55731700  0.64442200  1
  Mg  Mg4  1  0.20655000  0.20655000  0.16572000  1
  Mg  Mg5  1  0.79345000  0.79345000  0.83428000  1
  Si  Si0  1  0.25859600  0.25859600  0.63450100  1
  Si  Si1  1  0.11763300  0.11763300  0.45003300  1
  Si  Si2  1  0.41431800  0.41431800  0.91532100  1
  Si  Si3  1  0.58568200  0.58568200  0.08467900  1
  Si  Si4  1  0.74140400  0.74140400  0.36549900  1
  Si  Si5  1  0.88236700  0.88236700  0.54996700  1
loop_
_geom_bond_atom_site_label_1
_geom_bond_atom_site_label_2
_geom_bond_distance
_geom_bond_site_symmetry_2
Mg0 Si0 2.704554 1_555
Mg0 Si2 2.863324 1_455
Mg0 Si2 2.863324 1_545
Mg0 Si3 3.060982 1_546
Mg0 Si3 3.060982 1_456
Mg1 Si4 2.704554 1_555
Mg1 Si3 2.863324 1_655
Mg1 Si3 2.863324 1_565
Mg1 Si2 3.060982 1_654
Mg1 Si2 3.060982 1_564
Mg2 Si3 2.844309 1_555
Mg2 Si5 2.974574 1_455
Mg2 Si5 2.974574 1_545
Mg2 Si4 2.978771 1_555
Mg2 Si4 3.019742 1_455
Mg2 Si4 3.019742 1_545
Mg2 Si1 3.070319 1_565
Mg2 Si1 3.070319 1_655
Mg2 Si0 3.087726 1_555
Mg3 Si2 2.844309 1_555
Mg3 Si1 2.974574 1_655
Mg3 Si1 2.974574 1_565
Mg3 Si0 2.978771 1_555
Mg3 Si0 3.019742 1_565
Mg3 Si0 3.019742 1_655
Mg3 Si5 3.070319 1_545
Mg3 Si5 3.070319 1_455
Mg3 Si4 3.087726 1_555
Mg4 Si3 2.732234 1_545
Mg4 Si3 2.732234 1_455
Mg4 Si1 2.808221 1_555
Mg4 Si2 2.998658 1_554
Mg4 Si4 3.042758 1_455
Mg4 Si4 3.042758 1_545
Mg5 Si2 2.732234 1_655
Mg5 Si2 2.732234 1_565
Mg5 Si5 2.808221 1_555
Mg5 Si3 2.998658 1_556
Mg5 Si0 3.042758 1_565
Mg5 Si0 3.042758 1_655
Si0 Si1 2.413539 1_555
Si0 Si5 2.665774 1_455
Si0 Si5 2.665774 1_545
Si1 Si5 2.417664 1_445
Si1 Si4 2.665774 1_455
Si1 Si4 2.665774 1_545
Si2 Si3 2.514537 1_556
Si4 Si5 2.413539 1_555
