# generated using pymatgen
data_Mg3Si2O9
_symmetry_space_group_name_H-M   'P 1'
_cell_length_a   5.41900004
_cell_length_b   5.41900004
_cell_length_c   15.00619700
_cell_angle_alpha   90.00000000
_cell_angle_beta   90.00000000
_cell_angle_gamma   120.16867888
_symmetry_Int_Tables_number   1
_chemical_formula_structural   Mg3Si2O9
_chemical_formula_sum   'Mg6 Si4 O18'
_cell_volume   380.97711840
_cell_formula_units_Z   2
loop_
 _symmetry_equiv_pos_site_id
 _symmetry_equiv_pos_as_xyz
  1  'x, y, z'
loop_
 _atom_site_type_symbol
 _atom_site_label
 _atom_site_symmetry_multiplicity
 _atom_site_fract_x
 _atom_site_fract_y
 _atom_site_fract_z
 _atom_site_occupancy
  Mg  Mg0  1  0.36528200  0.36528200  0.72717900  1
  Mg  Mg1  1  0.63471800  0.63471800  0.22717900  1
  Mg  Mg2  1  0.07814100  0.72155700  0.72532700  1
  Mg  Mg3  1  0.72155700  0.07814100  0.72532700  1
  Mg  Mg4  1  0.92185900  0.27844300  0.22532700  1
  Mg  Mg5  1  0.27844300  0.92185900  0.22532700  1
  Si  Si0  1  0.38405500  0.05080500  0.53756300  1
  Si  Si1  1  0.05080500  0.38405500  0.53756300  1
  Si  Si2  1  0.61594500  0.94919500  0.03756300  1
  Si  Si3  1  0.94919500  0.61594500  0.03756300  1
  O  O0  1  0.21964400  0.21964400  0.50367900  1
  O  O1  1  0.78035600  0.78035600  0.00367900  1
  O  O2  1  0.71783700  0.21447400  0.50227900  1
  O  O3  1  0.21447400  0.71783700  0.50227900  1
  O  O4  1  0.28216300  0.78552600  0.00227900  1
  O  O5  1  0.78552600  0.28216300  0.00227900  1
  O  O6  1  0.38659300  0.05235800  0.64757000  1
  O  O7  1  0.05235800  0.38659300  0.64757000  1
  O  O8  1  0.61340700  0.94764200  0.14757000  1
  O  O9  1  0.94764200  0.61340700  0.14757000  1
  O  O10  1  0.72075200  0.72075200  0.67474200  1
  O  O11  1  0.27924800  0.27924800  0.17474200  1
  O  O12  1  0.02519300  0.02519300  0.78664700  1
  O  O13  1  0.97480700  0.97480700  0.28664700  1
  O  O14  1  0.72281100  0.41497800  0.78663800  1
  O  O15  1  0.41497800  0.72281100  0.78663800  1
  O  O16  1  0.27718900  0.58502200  0.28663800  1
  O  O17  1  0.58502200  0.27718900  0.28663800  1
loop_
_geom_bond_atom_site_label_1
_geom_bond_atom_site_label_2
_geom_bond_distance
_geom_bond_site_symmetry_2
Mg0 O15 2.024335 1_555
Mg0 O14 2.024335 1_555
Mg0 O12 2.043401 1_555
Mg0 O10 2.076265 1_555
Mg0 O6 2.124340 1_555
Mg0 O7 2.124340 1_555
Mg1 O16 2.024335 1_555
Mg1 O17 2.024335 1_555
Mg1 O13 2.043401 1_555
Mg1 O11 2.076265 1_555
Mg1 O9 2.124340 1_555
Mg1 O8 2.124340 1_555
Mg2 O14 2.024590 1_455
Mg2 O12 2.027541 1_565
Mg2 O15 2.041042 1_555
Mg2 O10 2.078104 1_455
Mg2 O6 2.087405 1_565
Mg2 O7 2.102610 1_555
Mg3 O15 2.024590 1_545
Mg3 O12 2.027541 1_655
Mg3 O14 2.041042 1_555
Mg3 O10 2.078104 1_545
Mg3 O7 2.087405 1_655
Mg3 O6 2.102610 1_555
Mg4 O16 2.024590 1_655
Mg4 O13 2.027541 1_545
Mg4 O17 2.041042 1_555
Mg4 O11 2.078104 1_655
Mg4 O8 2.087405 1_545
Mg4 O9 2.102610 1_555
Mg5 O17 2.024590 1_565
Mg5 O13 2.027541 1_455
Mg5 O16 2.041042 1_555
Mg5 O11 2.078104 1_565
Mg5 O9 2.087405 1_455
Mg5 O8 2.102610 1_555
O0 Si1 1.645827 1_555
O0 Si0 1.645827 1_555
O1 Si3 1.645827 1_555
O1 Si2 1.645827 1_555
O2 Si1 1.647407 1_655
O2 Si0 1.651121 1_555
O3 Si0 1.647407 1_565
O3 Si1 1.651121 1_555
O4 Si3 1.647407 1_455
O4 Si2 1.651121 1_555
O5 Si2 1.647407 1_545
O5 Si3 1.651121 1_555
O6 Si0 1.650830 1_555
O7 Si1 1.650830 1_555
O8 Si2 1.650830 1_555
O9 Si3 1.650830 1_555
