# generated using pymatgen
data_Nd2C3O17
_symmetry_space_group_name_H-M   'P 1'
_cell_length_a   8.43221200
_cell_length_b   9.64311100
_cell_length_c   17.67002800
_cell_angle_alpha   90.00000000
_cell_angle_beta   90.00000000
_cell_angle_gamma   90.00000000
_symmetry_Int_Tables_number   1
_chemical_formula_structural   Nd2C3O17
_chemical_formula_sum   'Nd8 C12 O68'
_cell_volume   1436.79868043
_cell_formula_units_Z   4
loop_
 _symmetry_equiv_pos_site_id
 _symmetry_equiv_pos_as_xyz
  1  'x, y, z'
loop_
 _atom_site_type_symbol
 _atom_site_label
 _atom_site_symmetry_multiplicity
 _atom_site_fract_x
 _atom_site_fract_y
 _atom_site_fract_z
 _atom_site_occupancy
  Nd  Nd0  1  0.25000000  0.25000000  0.76573700  1
  Nd  Nd1  1  0.75000000  0.75000000  0.73426300  1
  Nd  Nd2  1  0.75000000  0.75000000  0.23426300  1
  Nd  Nd3  1  0.25000000  0.25000000  0.26573700  1
  Nd  Nd4  1  0.25000000  0.75000000  0.80125200  1
  Nd  Nd5  1  0.75000000  0.25000000  0.69874800  1
  Nd  Nd6  1  0.75000000  0.25000000  0.19874800  1
  Nd  Nd7  1  0.25000000  0.75000000  0.30125200  1
  C  C0  1  0.25000000  0.75000000  0.62193400  1
  C  C1  1  0.75000000  0.25000000  0.87806600  1
  C  C2  1  0.75000000  0.25000000  0.37806600  1
  C  C3  1  0.25000000  0.75000000  0.12193400  1
  C  C4  1  0.45627200  0.00158600  0.77839200  1
  C  C5  1  0.04372800  0.49841400  0.77839200  1
  C  C6  1  0.95627200  0.99841400  0.72160800  1
  C  C7  1  0.54372800  0.50158600  0.72160800  1
  C  C8  1  0.54372800  0.99841400  0.22160800  1
  C  C9  1  0.95627200  0.50158600  0.22160800  1
  C  C10  1  0.04372800  0.00158600  0.27839200  1
  C  C11  1  0.45627200  0.49841400  0.27839200  1
  O  O0  1  0.34555900  0.83869800  0.62470400  1
  O  O1  1  0.15444100  0.66130200  0.62470400  1
  O  O2  1  0.84555900  0.16130200  0.87529600  1
  O  O3  1  0.65444100  0.33869800  0.87529600  1
  O  O4  1  0.65444100  0.16130200  0.37529600  1
  O  O5  1  0.84555900  0.33869800  0.37529600  1
  O  O6  1  0.15444100  0.83869800  0.12470400  1
  O  O7  1  0.34555900  0.66130200  0.12470400  1
  O  O8  1  0.25000000  0.75000000  0.46650300  1
  O  O9  1  0.75000000  0.25000000  0.03349700  1
  O  O10  1  0.75000000  0.25000000  0.53349700  1
  O  O11  1  0.25000000  0.75000000  0.96650300  1
  O  O12  1  0.02758400  0.11563700  0.71197200  1
  O  O13  1  0.47241600  0.38436300  0.71197200  1
  O  O14  1  0.52758400  0.88436300  0.78802800  1
  O  O15  1  0.97241600  0.61563700  0.78802800  1
  O  O16  1  0.97241600  0.88436300  0.28802800  1
  O  O17  1  0.52758400  0.61563700  0.28802800  1
  O  O18  1  0.47241600  0.11563700  0.21197200  1
  O  O19  1  0.02758400  0.38436300  0.21197200  1
  O  O20  1  0.02131200  0.88243300  0.74144400  1
  O  O21  1  0.47868800  0.61756700  0.74144400  1
  O  O22  1  0.52131200  0.11756700  0.75855600  1
  O  O23  1  0.97868800  0.38243300  0.75855600  1
  O  O24  1  0.97868800  0.11756700  0.25855600  1
  O  O25  1  0.52131200  0.38243300  0.25855600  1
  O  O26  1  0.47868800  0.88243300  0.24144400  1
  O  O27  1  0.02131200  0.61756700  0.24144400  1
  O  O28  1  0.30282400  0.00168300  0.78892600  1
  O  O29  1  0.19717600  0.49831700  0.78892600  1
  O  O30  1  0.80282400  0.99831700  0.71107400  1
  O  O31  1  0.69717600  0.50168300  0.71107400  1
  O  O32  1  0.69717600  0.99831700  0.21107400  1
  O  O33  1  0.80282400  0.50168300  0.21107400  1
  O  O34  1  0.19717600  0.00168300  0.28892600  1
  O  O35  1  0.30282400  0.49831700  0.28892600  1
  O  O36  1  0.27163000  0.10848100  0.57438900  1
  O  O37  1  0.22837000  0.39151900  0.57438900  1
  O  O38  1  0.77163000  0.89151900  0.92561100  1
  O  O39  1  0.72837000  0.60848100  0.92561100  1
  O  O40  1  0.72837000  0.89151900  0.42561100  1
  O  O41  1  0.77163000  0.60848100  0.42561100  1
  O  O42  1  0.22837000  0.10848100  0.07438900  1
  O  O43  1  0.27163000  0.39151900  0.07438900  1
  O  O44  1  0.17036000  0.24511000  0.89262700  1
  O  O45  1  0.32964000  0.25489000  0.89262700  1
  O  O46  1  0.67036000  0.75489000  0.60737300  1
  O  O47  1  0.82964000  0.74511000  0.60737300  1
  O  O48  1  0.82964000  0.75489000  0.10737300  1
  O  O49  1  0.67036000  0.74511000  0.10737300  1
  O  O50  1  0.32964000  0.24511000  0.39262700  1
  O  O51  1  0.17036000  0.25489000  0.39262700  1
  O  O52  1  0.14154900  0.81905800  0.92304900  1
  O  O53  1  0.35845100  0.68094200  0.92304900  1
  O  O54  1  0.64154900  0.18094200  0.57695100  1
  O  O55  1  0.85845100  0.31905800  0.57695100  1
  O  O56  1  0.85845100  0.18094200  0.07695100  1
  O  O57  1  0.64154900  0.31905800  0.07695100  1
  O  O58  1  0.35845100  0.81905800  0.42304900  1
  O  O59  1  0.14154900  0.68094200  0.42304900  1
  O  O60  1  0.34045800  0.06257400  0.03749100  1
  O  O61  1  0.15954200  0.43742600  0.03749100  1
  O  O62  1  0.84045800  0.93742600  0.46250900  1
  O  O63  1  0.65954200  0.56257400  0.46250900  1
  O  O64  1  0.65954200  0.93742600  0.96250900  1
  O  O65  1  0.84045800  0.56257400  0.96250900  1
  O  O66  1  0.15954200  0.06257400  0.53749100  1
  O  O67  1  0.34045800  0.43742600  0.53749100  1
loop_
_geom_bond_atom_site_label_1
_geom_bond_atom_site_label_2
_geom_bond_distance
_geom_bond_site_symmetry_2
Nd0 O44 2.341031 1_555
Nd0 O45 2.341031 1_555
Nd0 O13 2.469551 1_555
Nd0 O12 2.469551 1_555
Nd0 O28 2.469850 1_555
Nd0 O29 2.469850 1_555
Nd0 O22 2.623137 1_555
Nd0 O23 2.623137 1_455
Nd1 O47 2.341031 1_555
Nd1 O46 2.341031 1_555
Nd1 O14 2.469551 1_555
Nd1 O15 2.469551 1_555
Nd1 O30 2.469850 1_555
Nd1 O31 2.469850 1_555
Nd1 O20 2.623137 1_655
Nd1 O21 2.623137 1_555
Nd2 O48 2.341031 1_555
Nd2 O49 2.341031 1_555
Nd2 O16 2.469551 1_555
Nd2 O17 2.469551 1_555
Nd2 O32 2.469850 1_555
Nd2 O33 2.469850 1_555
Nd2 O27 2.623137 1_655
Nd2 O26 2.623137 1_555
Nd3 O50 2.341031 1_555
Nd3 O51 2.341031 1_555
Nd3 O18 2.469551 1_555
Nd3 O19 2.469551 1_555
Nd3 O35 2.469850 1_555
Nd3 O34 2.469850 1_555
Nd3 O25 2.623137 1_555
Nd3 O24 2.623137 1_455
Nd4 O52 2.431362 1_555
Nd4 O53 2.431362 1_555
Nd4 O29 2.477136 1_555
Nd4 O28 2.477136 1_565
Nd4 O20 2.542884 1_555
Nd4 O21 2.542884 1_555
Nd4 O14 2.685519 1_555
Nd4 O15 2.685519 1_455
Nd5 O54 2.431362 1_555
Nd5 O55 2.431362 1_555
Nd5 O31 2.477136 1_555
Nd5 O30 2.477136 1_545
Nd5 O23 2.542884 1_555
Nd5 O22 2.542884 1_555
Nd5 O13 2.685519 1_555
Nd5 O12 2.685519 1_655
Nd6 O56 2.431362 1_555
Nd6 O57 2.431362 1_555
Nd6 O32 2.477136 1_545
Nd6 O33 2.477136 1_555
Nd6 O24 2.542884 1_555
Nd6 O25 2.542884 1_555
Nd6 O18 2.685519 1_555
Nd6 O19 2.685519 1_655
Nd7 O59 2.431362 1_555
Nd7 O58 2.431362 1_555
Nd7 O35 2.477136 1_555
Nd7 O34 2.477136 1_565
Nd7 O27 2.542884 1_555
Nd7 O26 2.542884 1_555
Nd7 O16 2.685519 1_455
Nd7 O17 2.685519 1_555
C0 O1 1.176115 1_555
C0 O0 1.176115 1_555
C1 O3 1.176115 1_555
C1 O2 1.176115 1_555
C2 O5 1.176115 1_555
C2 O4 1.176115 1_555
C3 O6 1.176115 1_555
C3 O7 1.176115 1_555
C4 O14 1.291652 1_545
C4 O22 1.294020 1_555
C4 O28 1.307226 1_555
C5 O15 1.291652 1_455
C5 O23 1.294020 1_455
C5 O29 1.307226 1_555
C6 O12 1.291652 1_665
C6 O20 1.294020 1_655
C6 O30 1.307226 1_555
C7 O13 1.291652 1_555
C7 O21 1.294020 1_555
C7 O31 1.307226 1_555
C8 O18 1.291652 1_565
C8 O26 1.294020 1_555
C8 O32 1.307226 1_555
C9 O19 1.291652 1_655
C9 O27 1.294020 1_655
C9 O33 1.307226 1_555
C10 O16 1.291652 1_445
C10 O24 1.294020 1_455
C10 O34 1.307226 1_555
C11 O17 1.291652 1_555
C11 O25 1.294020 1_555
C11 O35 1.307226 1_555
O10 O55 1.367228 1_555
O10 O54 1.367228 1_555
O11 O52 1.367228 1_555
O11 O53 1.367228 1_555
O36 O66 1.230597 1_555
O37 O67 1.230597 1_555
O38 O64 1.230597 1_555
O39 O65 1.230597 1_555
O40 O62 1.230597 1_555
O41 O63 1.230597 1_555
O42 O60 1.230597 1_555
O43 O61 1.230597 1_555
O44 O45 1.346390 1_555
O46 O47 1.346390 1_555
O48 O49 1.346390 1_555
O50 O51 1.346390 1_555
O56 O9 1.367228 1_555
O57 O9 1.367228 1_555
O58 O8 1.367228 1_555
O59 O8 1.367228 1_555
