# generated using pymatgen
data_U8CoSe17
_symmetry_space_group_name_H-M   'P 1'
_cell_length_a   8.27661083
_cell_length_b   8.27594145
_cell_length_c   10.83931267
_cell_angle_alpha   80.20286017
_cell_angle_beta   80.17241218
_cell_angle_gamma   64.69398646
_symmetry_Int_Tables_number   1
_chemical_formula_structural   U8CoSe17
_chemical_formula_sum   'U8 Co1 Se17'
_cell_volume   657.41100067
_cell_formula_units_Z   1
loop_
 _symmetry_equiv_pos_site_id
 _symmetry_equiv_pos_as_xyz
  1  'x, y, z'
loop_
 _atom_site_type_symbol
 _atom_site_label
 _atom_site_symmetry_multiplicity
 _atom_site_fract_x
 _atom_site_fract_y
 _atom_site_fract_z
 _atom_site_occupancy
  U  U0  1  0.18309001  0.69724636  0.70855298  1
  U  U1  1  0.69755197  0.18251481  0.70432395  1
  U  U2  1  0.81762735  0.30303234  0.29345088  1
  U  U3  1  0.30333967  0.81691785  0.29330900  1
  U  U4  1  0.20329839  0.20320531  0.54576656  1
  U  U5  1  0.79707213  0.79628363  0.45365607  1
  U  U6  1  0.67996685  0.68060865  0.98054484  1
  U  U7  1  0.32154218  0.31739064  0.01909294  1
  Co  Co0  1  0.00025187  0.00094254  -0.00082282  1
  Se  Se0  1  0.82301244  0.43315990  0.53618727  1
  Se  Se1  1  0.43250593  0.82342424  0.53630036  1
  Se  Se2  1  0.17684258  0.56744228  0.46530387  1
  Se  Se3  1  0.56709797  0.17673180  0.46379516  1
  Se  Se4  1  0.05442457  0.67507348  0.97452529  1
  Se  Se5  1  0.67737680  0.05178766  0.97426881  1
  Se  Se6  1  0.94759261  0.32296823  0.02659014  1
  Se  Se7  1  0.32214598  0.94488746  0.02489389  1
  Se  Se8  1  0.04947440  0.05487806  0.78017337  1
  Se  Se9  1  0.94840226  0.94814668  0.21988714  1
  Se  Se10  1  0.21095810  0.21140234  0.27920475  1
  Se  Se11  1  0.78549160  0.79279427  0.72142444  1
  Se  Se12  1  0.30134784  0.30069066  0.75573019  1
  Se  Se13  1  0.69889181  0.69943218  0.24408994  1
  Se  Se14  1  0.52075075  0.52061242  0.82984664  1
  Se  Se15  1  0.47925281  0.47938476  0.16934988  1
  Se  Se16  1  0.00069113  -0.00095858  0.50055446  1
loop_
_geom_bond_atom_site_label_1
_geom_bond_atom_site_label_2
_geom_bond_distance
_geom_bond_site_symmetry_2
Co0 Se8 2.337756 1_554
Co0 Se9 2.356371 1_445
Co0 Se7 2.558071 1_545
Co0 Se6 2.571595 1_455
Co0 Se5 2.576337 1_454
Co0 Se4 2.591556 1_544
Se0 U4 2.909062 1_655
Se0 U5 2.911460 1_555
Se0 U1 2.934514 1_555
Se0 U2 3.021554 1_555
Se1 U4 2.904134 1_565
Se1 U5 2.919558 1_555
Se1 U0 2.949836 1_555
Se1 U3 3.023522 1_555
Se2 U5 2.906451 1_455
Se2 U4 2.915722 1_555
Se2 U3 2.950639 1_555
Se2 U0 3.027638 1_555
Se3 U5 2.910568 1_545
Se3 U4 2.914231 1_555
Se3 U2 2.947962 1_555
Se3 U1 3.002164 1_555
Se4 U7 2.857755 1_556
Se4 U0 2.901404 1_555
Se4 U6 3.069570 1_455
Se5 U7 2.842889 1_556
Se5 U1 2.944532 1_555
Se5 U6 3.051962 1_545
Se6 U6 2.861081 1_554
Se6 U2 2.911786 1_555
Se6 U7 3.062884 1_655
Se7 U6 2.849521 1_554
Se7 U3 2.923761 1_555
Se7 U7 3.070618 1_565
Se8 U1 2.857849 1_455
Se8 U0 2.876868 1_545
Se8 U4 2.958690 1_555
Se9 U2 2.866719 1_565
Se9 U3 2.866920 1_655
Se9 U5 2.957619 1_555
Se10 U4 2.869039 1_555
Se10 U7 2.918921 1_555
Se10 U2 2.992421 1_455
Se10 U3 3.000410 1_545
Se11 U5 2.883222 1_555
Se11 U6 2.912372 1_555
Se11 U1 2.966883 1_565
Se11 U0 3.021606 1_655
Se12 U4 2.881678 1_555
Se12 U7 2.917718 1_556
Se12 U1 2.973254 1_555
Se12 U0 2.973846 1_555
Se13 U5 2.875641 1_555
Se13 U6 2.921351 1_554
Se13 U3 2.967654 1_555
Se13 U2 2.973254 1_555
Se14 U0 2.963676 1_555
Se14 U1 2.989527 1_555
Se14 U6 3.020035 1_555
Se14 U7 3.130000 1_556
Se15 U3 2.976713 1_555
Se15 U2 2.984365 1_555
Se15 U7 3.019712 1_555
Se15 U6 3.125040 1_554
Se16 U4 2.981892 1_555
Se16 U5 2.985739 1_445
Se16 U1 3.077608 1_455
Se16 U3 3.097796 1_545
Se16 U0 3.101985 1_545
Se16 U2 3.105593 1_455
