# generated using pymatgen
data_Rb2Ti4H3F21
_symmetry_space_group_name_H-M   'P 1'
_cell_length_a   10.55441400
_cell_length_b   10.58054746
_cell_length_c   10.92978693
_cell_angle_alpha   89.44196239
_cell_angle_beta   113.80347146
_cell_angle_gamma   115.76276666
_symmetry_Int_Tables_number   1
_chemical_formula_structural   Rb2Ti4H3F21
_chemical_formula_sum   'Rb4 Ti8 H6 F42'
_cell_volume   985.17871606
_cell_formula_units_Z   2
loop_
 _symmetry_equiv_pos_site_id
 _symmetry_equiv_pos_as_xyz
  1  'x, y, z'
loop_
 _atom_site_type_symbol
 _atom_site_label
 _atom_site_symmetry_multiplicity
 _atom_site_fract_x
 _atom_site_fract_y
 _atom_site_fract_z
 _atom_site_occupancy
  Rb  Rb0  1  0.31476800  0.92673200  0.10962200  1
  Rb  Rb1  1  0.68523200  0.07326800  0.89037800  1
  Rb  Rb2  1  0.90567000  0.15884200  0.35638800  1
  Rb  Rb3  1  0.09433000  0.84115800  0.64361200  1
  Ti  Ti0  1  0.79532600  0.40108000  0.60589900  1
  Ti  Ti1  1  0.20467400  0.59892000  0.39410100  1
  Ti  Ti2  1  0.77729600  0.68809500  0.82535600  1
  Ti  Ti3  1  0.22270400  0.31190500  0.17464400  1
  Ti  Ti4  1  0.32771300  0.42667400  0.71868900  1
  Ti  Ti5  1  0.67228700  0.57332600  0.28131100  1
  Ti  Ti6  1  0.34659400  0.14356900  0.49701200  1
  Ti  Ti7  1  0.65340600  0.85643100  0.50298800  1
  H  H0  1  0.34673500  0.18642500  0.87621100  1
  H  H1  1  0.65326500  0.81357500  0.12378900  1
  H  H2  1  0.19834200  0.55072300  0.00142000  1
  H  H3  1  0.80165800  0.44927700  0.99858000  1
  H  H4  1  0.64211800  0.26649500  0.15726500  1
  H  H5  1  0.35788200  0.73350500  0.84273500  1
  F  F0  1  0.31540100  0.08551200  0.87429800  1
  F  F1  1  0.68459900  0.91448800  0.12570200  1
  F  F2  1  0.56267700  0.29374300  0.54981200  1
  F  F3  1  0.43732300  0.70625700  0.45018800  1
  F  F4  1  0.78369800  0.54097200  0.71912800  1
  F  F5  1  0.21630200  0.45902800  0.28087200  1
  F  F6  1  0.20422700  0.64264400  0.98817800  1
  F  F7  1  0.79577300  0.35735600  0.01182200  1
  F  F8  1  0.62561000  0.16939000  0.14703800  1
  F  F9  1  0.37439000  0.83061000  0.85296200  1
  F  F10  1  0.72207000  0.50237500  0.45190200  1
  F  F11  1  0.27793000  0.49762500  0.54809800  1
  F  F12  1  0.77294000  0.27494300  0.47964400  1
  F  F13  1  0.22706000  0.72505700  0.52035600  1
  F  F14  1  0.99279200  0.53470200  0.64736500  1
  F  F15  1  0.00720800  0.46529800  0.35263500  1
  F  F16  1  0.83122000  0.30929600  0.74426100  1
  F  F17  1  0.16878000  0.69070400  0.25573900  1
  F  F18  1  0.98234900  0.80650000  0.86810200  1
  F  F19  1  0.01765100  0.19350000  0.13189800  1
  F  F20  1  0.81330800  0.60102900  0.97221000  1
  F  F21  1  0.18669200  0.39897100  0.02779000  1
  F  F22  1  0.74509800  0.81959800  0.89332400  1
  F  F23  1  0.25490200  0.18040200  0.10667600  1
  F  F24  1  0.55070300  0.54930200  0.75387000  1
  F  F25  1  0.44929700  0.45069800  0.24613000  1
  F  F26  1  0.39311300  0.34698500  0.86758500  1
  F  F27  1  0.60688700  0.65301500  0.13241500  1
  F  F28  1  0.34070500  0.57810600  0.81144900  1
  F  F29  1  0.65929500  0.42189400  0.18855100  1
  F  F30  1  0.12237700  0.30799400  0.66137900  1
  F  F31  1  0.87762300  0.69200600  0.33862100  1
  F  F32  1  0.34200200  0.28595000  0.61417700  1
  F  F33  1  0.65799800  0.71405000  0.38582300  1
  F  F34  1  0.41280000  0.06886000  0.64479800  1
  F  F35  1  0.58720000  0.93114000  0.35520200  1
  F  F36  1  0.28571200  0.25380300  0.35378300  1
  F  F37  1  0.71428800  0.74619700  0.64621700  1
  F  F38  1  0.13802900  0.03481900  0.45061900  1
  F  F39  1  0.86197100  0.96518100  0.54938100  1
  F  F40  1  0.35640900  0.03755100  0.37716900  1
  F  F41  1  0.64359100  0.96244900  0.62283100  1
loop_
_geom_bond_atom_site_label_1
_geom_bond_atom_site_label_2
_geom_bond_distance
_geom_bond_site_symmetry_2
F0 H0 0.968361 1_555
F0 Rb3 2.935969 1_545
F0 Rb0 3.059039 1_546
F1 H1 0.968361 1_555
F1 Rb2 2.935969 1_565
F1 Rb1 3.059039 1_564
F2 Ti6 1.965799 1_555
F2 Ti0 2.017250 1_555
F3 Ti7 1.965799 1_555
F3 Ti1 2.017250 1_555
F4 Ti2 1.991406 1_555
F4 Ti0 2.013361 1_555
F5 Ti3 1.991406 1_555
F5 Ti1 2.013361 1_555
F6 H2 0.960577 1_556
F6 Rb0 2.817288 1_556
F7 H3 0.960577 1_554
F7 Rb1 2.817288 1_554
F8 H4 0.964031 1_555
F8 Rb2 2.967753 1_555
F8 Rb0 3.022857 1_545
F8 Rb1 3.366976 1_554
F9 H5 0.964031 1_555
F9 Rb3 2.967753 1_555
F9 Rb1 3.022857 1_565
F9 Rb0 3.366976 1_556
F10 Ti5 1.959821 1_555
F10 Ti0 2.052853 1_555
F11 Ti4 1.959821 1_555
F11 Ti1 2.052853 1_555
F12 Ti0 1.799943 1_555
F12 Rb2 2.887536 1_555
F13 Ti1 1.799943 1_555
F13 Rb3 2.887536 1_555
F14 Ti0 1.799020 1_555
F14 Rb3 2.945506 1_655
F15 Ti1 1.799020 1_555
F15 Rb2 2.945506 1_455
F16 Ti0 1.789500 1_555
F16 Rb1 3.118465 1_555
F17 Ti1 1.789500 1_555
F17 Rb0 3.118465 1_555
F18 Ti2 1.819309 1_555
F18 Rb3 3.081912 1_655
F18 Rb0 3.099312 1_656
F19 Ti3 1.819309 1_555
F19 Rb2 3.081912 1_455
F19 Rb1 3.099312 1_454
F20 H3 1.588765 1_555
F20 Ti2 1.830983 1_555
F21 H2 1.588765 1_555
F21 Ti3 1.830983 1_555
F22 Ti2 1.799504 1_555
F22 Rb1 3.009992 1_565
F23 Ti3 1.799504 1_555
F23 Rb0 3.009992 1_545
F24 Ti2 1.986852 1_555
F24 Ti4 1.998775 1_555
F25 Ti3 1.986852 1_555
F25 Ti5 1.998775 1_555
F26 H0 1.563881 1_555
F26 Ti4 1.846143 1_555
F27 H1 1.563881 1_555
F27 Ti5 1.846143 1_555
F28 H5 1.598437 1_555
F28 Ti4 1.828190 1_555
F29 H4 1.598437 1_555
F29 Ti5 1.828190 1_555
F30 Ti4 1.794378 1_555
F30 Rb2 3.105523 1_455
F31 Ti5 1.794378 1_555
F31 Rb3 3.105523 1_655
F32 Ti4 1.977852 1_555
F32 Ti6 2.015651 1_555
F33 Ti5 1.977852 1_555
F33 Ti7 2.015651 1_555
F34 Ti6 1.807317 1_555
F34 Rb1 3.021665 1_555
F34 Rb3 3.166778 1_545
F35 Ti7 1.807317 1_555
F35 Rb0 3.021665 1_555
F35 Rb2 3.166778 1_565
F36 Ti3 1.983593 1_555
F36 Ti6 2.006953 1_555
F37 Ti2 1.983593 1_555
F37 Ti7 2.006953 1_555
F38 Ti6 1.826276 1_555
F38 Rb3 2.956404 1_545
F38 Rb2 3.086967 1_455
F39 Ti7 1.826276 1_555
F39 Rb2 2.956404 1_565
F39 Rb3 3.086967 1_655
F40 Ti6 1.795522 1_555
F40 Rb0 2.949665 1_545
F41 Ti7 1.795522 1_555
F41 Rb1 2.949665 1_565
