# generated using pymatgen
data_Li7Mn2(CoO4)3
_symmetry_space_group_name_H-M   'P 1'
_cell_length_a   3.03464200
_cell_length_b   5.06578097
_cell_length_c   14.40973111
_cell_angle_alpha   86.92605745
_cell_angle_beta   86.43812058
_cell_angle_gamma   88.37871575
_symmetry_Int_Tables_number   1
_chemical_formula_structural   Li7Mn2(CoO4)3
_chemical_formula_sum   'Li7 Mn2 Co3 O12'
_cell_volume   220.70309161
_cell_formula_units_Z   1
loop_
 _symmetry_equiv_pos_site_id
 _symmetry_equiv_pos_as_xyz
  1  'x, y, z'
loop_
 _atom_site_type_symbol
 _atom_site_label
 _atom_site_symmetry_multiplicity
 _atom_site_fract_x
 _atom_site_fract_y
 _atom_site_fract_z
 _atom_site_occupancy
  Li  Li0  1  0.00000000  0.00000000  0.00000000  1
  Li  Li1  1  0.50311600  0.83495400  0.16769700  1
  Li  Li2  1  0.00705000  0.67043500  0.33379100  1
  Li  Li3  1  0.50000000  0.50000000  0.50000000  1
  Li  Li4  1  0.99295000  0.32956500  0.66620900  1
  Li  Li5  1  0.49688400  0.16504600  0.83230300  1
  Li  Li6  1  0.00000000  0.00000000  0.50000000  1
  Mn  Mn0  1  0.00423300  0.67010200  0.83116500  1
  Mn  Mn1  1  0.99576700  0.32989800  0.16883500  1
  Co  Co0  1  0.50000000  0.50000000  0.00000000  1
  Co  Co1  1  0.50956100  0.16221500  0.34213700  1
  Co  Co2  1  0.49043900  0.83778500  0.65786300  1
  O  O0  1  0.53849300  0.81439000  0.91848700  1
  O  O1  1  0.98728700  0.64371700  0.08347600  1
  O  O2  1  0.52465800  0.46729000  0.25454500  1
  O  O3  1  0.03229900  0.32364900  0.41065900  1
  O  O4  1  0.50063900  0.13394900  0.59245600  1
  O  O5  1  0.02400700  0.98204700  0.74794500  1
  O  O6  1  0.46150700  0.18561000  0.08151300  1
  O  O7  1  0.97599300  0.01795300  0.25205500  1
  O  O8  1  0.49936100  0.86605100  0.40754400  1
  O  O9  1  0.96770100  0.67635100  0.58934100  1
  O  O10  1  0.47534200  0.53271000  0.74545500  1
  O  O11  1  0.01271300  0.35628300  0.91652400  1
loop_
_geom_bond_atom_site_label_1
_geom_bond_atom_site_label_2
_geom_bond_distance
_geom_bond_site_symmetry_2
Li0 O11 2.114522 1_554
Li0 O1 2.114522 1_445
Li0 O6 2.150003 1_555
Li0 O0 2.150003 1_444
Li0 O6 2.174196 1_455
Li0 O0 2.174196 1_544
Li1 O1 2.096217 1_555
Li1 O6 2.117507 1_565
Li1 O7 2.165911 1_465
Li1 O2 2.189209 1_555
Li1 O7 2.192978 1_565
Li1 O1 2.304262 1_455
Li2 O3 2.028086 1_555
Li2 O7 2.068162 1_465
Li2 O8 2.075613 1_455
Li2 O2 2.154520 1_555
Li2 O8 2.176567 1_555
Li2 O2 2.219220 1_455
Li3 O9 2.201827 1_455
Li3 O3 2.201827 1_655
Li3 O9 2.211783 1_555
Li3 O3 2.211783 1_555
Li3 O4 2.224557 1_555
Li3 O8 2.224557 1_555
Li4 O9 2.028086 1_555
Li4 O5 2.068162 1_645
Li4 O4 2.075613 1_655
Li4 O10 2.154520 1_555
Li4 O4 2.176567 1_555
Li4 O10 2.219220 1_655
Li5 O11 2.096217 1_555
Li5 O0 2.117507 1_545
Li5 O5 2.165911 1_645
Li5 O10 2.189209 1_555
Li5 O5 2.192978 1_545
Li5 O11 2.304262 1_655
Li6 O3 2.030289 1_555
Li6 O9 2.030289 1_445
Li6 O4 2.078382 1_455
Li6 O8 2.078382 1_545
Li6 O4 2.224929 1_555
Li6 O8 2.224929 1_445
Mn0 O5 1.931836 1_555
Mn0 O11 1.957737 1_555
Mn0 O10 1.967274 1_555
Mn0 O0 1.983514 1_455
Mn0 O10 2.233270 1_455
Mn0 O0 2.272729 1_555
Mn1 O7 1.931836 1_555
Mn1 O1 1.957737 1_555
Mn1 O2 1.967274 1_555
Mn1 O6 1.983514 1_655
Mn1 O2 2.233270 1_655
Mn1 O6 2.272729 1_555
Co0 O6 1.929406 1_555
Co0 O0 1.929406 1_554
Co0 O11 2.048178 1_654
Co0 O1 2.048178 1_455
Co0 O1 2.130601 1_555
Co0 O11 2.130601 1_554
Co1 O8 1.728443 1_545
Co1 O3 1.892941 1_555
Co1 O2 1.941959 1_555
Co1 O7 2.009339 1_555
Co1 O3 2.124795 1_655
Co1 O7 2.295788 1_455
Co2 O4 1.728443 1_565
Co2 O9 1.892941 1_555
Co2 O10 1.941959 1_555
Co2 O5 2.009339 1_555
Co2 O9 2.124795 1_455
Co2 O5 2.295788 1_655
