# generated using pymatgen
data_Dy2Ga3Co
_symmetry_space_group_name_H-M   'P 1'
_cell_length_a   5.57721419
_cell_length_b   5.57721419
_cell_length_c   7.05534132
_cell_angle_alpha   51.80305642
_cell_angle_beta   51.80305642
_cell_angle_gamma   45.34489102
_symmetry_Int_Tables_number   1
_chemical_formula_structural   Dy2Ga3Co
_chemical_formula_sum   'Dy2 Ga3 Co1'
_cell_volume   115.86982300
_cell_formula_units_Z   1
loop_
 _symmetry_equiv_pos_site_id
 _symmetry_equiv_pos_as_xyz
  1  'x, y, z'
loop_
 _atom_site_type_symbol
 _atom_site_label
 _atom_site_symmetry_multiplicity
 _atom_site_fract_x
 _atom_site_fract_y
 _atom_site_fract_z
 _atom_site_occupancy
  Dy  Dy0  1  0.45636100  0.45636100  0.29720500  1
  Dy  Dy1  1  0.54355900  0.54355900  0.70706300  1
  Ga  Ga0  1  0.14764600  0.14764600  0.31775600  1
  Ga  Ga1  1  0.17895800  0.17895800  0.87261800  1
  Ga  Ga2  1  0.83494600  0.83494600  0.09770000  1
  Co  Co0  1  0.83853000  0.83853000  0.70765800  1
loop_
_geom_bond_atom_site_label_1
_geom_bond_atom_site_label_2
_geom_bond_distance
_geom_bond_site_symmetry_2
Dy0 Ga0 2.983528 1_565
Dy0 Ga0 2.983528 1_655
Dy0 Ga1 3.016228 1_555
Dy0 Ga0 3.082146 1_555
Dy0 Ga1 3.105737 1_564
Dy0 Ga1 3.105737 1_654
Dy0 Ga2 3.132621 1_555
Dy0 Ga2 3.243789 1_455
Dy0 Ga2 3.243789 1_545
Dy0 Dy1 3.556086 1_555
Dy0 Dy1 3.623951 1_554
Dy0 Dy1 3.816843 1_545
Dy0 Dy1 3.816843 1_455
Dy1 Ga2 2.982671 1_546
Dy1 Ga2 2.982671 1_456
Dy1 Ga0 3.061007 1_655
Dy1 Ga0 3.061007 1_565
Dy1 Ga1 3.093820 1_555
Dy1 Ga1 3.179592 1_655
Dy1 Ga1 3.179592 1_565
Dy1 Ga2 3.193188 1_555
Ga0 Ga2 2.595556 1_455
Ga0 Ga2 2.595556 1_545
Ga0 Ga1 2.934391 1_554
Ga1 Ga2 2.742688 1_446
Co0 Ga0 2.441147 1_665
Co0 Ga1 2.472178 1_565
Co0 Ga1 2.472178 1_655
Co0 Ga2 2.727296 1_556
Co0 Dy1 3.010477 1_565
Co0 Dy1 3.010477 1_655
Co0 Dy1 3.038790 1_555
Co0 Dy0 3.125926 1_655
Co0 Dy0 3.125926 1_565
Co0 Dy0 3.293074 1_556
