# generated using pymatgen
data_Ca2TlCd
_symmetry_space_group_name_H-M   'P 1'
_cell_length_a   3.87225482
_cell_length_b   3.87225482
_cell_length_c   7.54148283
_cell_angle_alpha   90.00000000
_cell_angle_beta   90.00000000
_cell_angle_gamma   90.00000000
_symmetry_Int_Tables_number   1
_chemical_formula_structural   Ca2TlCd
_chemical_formula_sum   'Ca2 Tl1 Cd1'
_cell_volume   113.07968881
_cell_formula_units_Z   1
loop_
 _symmetry_equiv_pos_site_id
 _symmetry_equiv_pos_as_xyz
  1  'x, y, z'
loop_
 _atom_site_type_symbol
 _atom_site_label
 _atom_site_symmetry_multiplicity
 _atom_site_fract_x
 _atom_site_fract_y
 _atom_site_fract_z
 _atom_site_occupancy
  Ca  Ca0  1  0.00000000  0.00000000  0.75180064  1
  Ca  Ca1  1  0.00000000  0.00000000  0.24819936  1
  Tl  Tl0  1  0.50000000  0.50000000  0.50000000  1
  Cd  Cd0  1  0.50000000  0.50000000  -0.00000000  1
loop_
_geom_bond_atom_site_label_1
_geom_bond_atom_site_label_2
_geom_bond_distance
_geom_bond_site_symmetry_2
Ca0 Cd0 3.316743 1_446
Ca0 Cd0 3.316743 1_546
Ca0 Cd0 3.316743 1_556
Ca0 Cd0 3.316743 1_456
Ca0 Tl0 3.332145 1_545
Ca0 Tl0 3.332145 1_445
Ca0 Tl0 3.332145 1_455
Ca0 Tl0 3.332145 1_555
Ca1 Cd0 3.316743 1_445
Ca1 Cd0 3.316743 1_545
Ca1 Cd0 3.316743 1_455
Ca1 Cd0 3.316743 1_555
Ca1 Tl0 3.332145 1_545
Ca1 Tl0 3.332145 1_445
Ca1 Tl0 3.332145 1_455
Ca1 Tl0 3.332145 1_555
