# generated using pymatgen
data_AlZnCu2
_symmetry_space_group_name_H-M   'P 1'
_cell_length_a   9.87390437
_cell_length_b   9.87390437
_cell_length_c   9.87390437
_cell_angle_alpha   122.20184312
_cell_angle_beta   119.26875858
_cell_angle_gamma   88.75025897
_symmetry_Int_Tables_number   1
_chemical_formula_structural   AlZnCu2
_chemical_formula_sum   'Al1 Zn1 Cu2'
_cell_volume   672.38842781
_cell_formula_units_Z   1
loop_
 _symmetry_equiv_pos_site_id
 _symmetry_equiv_pos_as_xyz
  1  'x, y, z'
loop_
 _atom_site_type_symbol
 _atom_site_label
 _atom_site_symmetry_multiplicity
 _atom_site_fract_x
 _atom_site_fract_y
 _atom_site_fract_z
 _atom_site_occupancy
  Al  Al0  1  0.00000000  0.00000000  0.00000000  1
  Zn  Zn0  1  0.00000000  0.50000000  0.50000000  1
  Cu  Cu0  1  0.00000000  0.24651000  0.24651000  1
  Cu  Cu1  1  0.00000000  0.75349000  0.75349000  1
loop_
_geom_bond_atom_site_label_1
_geom_bond_atom_site_label_2
_geom_bond_distance
_geom_bond_site_symmetry_2
Al0 Cu1 2.352566 1_544
Al0 Cu0 2.352566 1_555
Cu0 Zn0 2.419179 1_555
Cu1 Zn0 2.419179 1_555
