# generated using pymatgen
data_RbY(MoO4)2
_symmetry_space_group_name_H-M   'P 1'
_cell_length_a   5.07975688
_cell_length_b   8.01402345
_cell_length_c   19.05487415
_cell_angle_alpha   90.00000000
_cell_angle_beta   90.00000000
_cell_angle_gamma   90.00000000
_symmetry_Int_Tables_number   1
_chemical_formula_structural   RbY(MoO4)2
_chemical_formula_sum   'Rb4 Y4 Mo8 O32'
_cell_volume   775.71041210
_cell_formula_units_Z   4
loop_
 _symmetry_equiv_pos_site_id
 _symmetry_equiv_pos_as_xyz
  1  'x, y, z'
loop_
 _atom_site_type_symbol
 _atom_site_label
 _atom_site_symmetry_multiplicity
 _atom_site_fract_x
 _atom_site_fract_y
 _atom_site_fract_z
 _atom_site_occupancy
  Rb  Rb0  1  0.00000000  0.75000000  0.77170542  1
  Rb  Rb1  1  0.00000000  0.25000000  0.22829458  1
  Rb  Rb2  1  0.50000000  0.25000000  0.72829458  1
  Rb  Rb3  1  0.50000000  0.75000000  0.27170542  1
  Y  Y0  1  0.00000000  0.75000000  0.00566544  1
  Y  Y1  1  0.00000000  0.25000000  0.99433456  1
  Y  Y2  1  0.50000000  0.25000000  0.49433456  1
  Y  Y3  1  0.50000000  0.75000000  0.50566544  1
  Mo  Mo0  1  0.02259130  0.51429176  0.40255838  1
  Mo  Mo1  1  0.97740870  0.48570824  0.59744162  1
  Mo  Mo2  1  0.47740870  0.01429176  0.09744162  1
  Mo  Mo3  1  0.97740870  0.98570824  0.40255838  1
  Mo  Mo4  1  0.52259130  0.98570824  0.90255838  1
  Mo  Mo5  1  0.02259130  0.01429176  0.59744162  1
  Mo  Mo6  1  0.52259130  0.48570824  0.09744162  1
  Mo  Mo7  1  0.47740870  0.51429176  0.90255838  1
  O  O0  1  0.09707600  0.97671425  0.31814208  1
  O  O1  1  0.90292400  0.02328575  0.68185792  1
  O  O2  1  0.40292400  0.47671425  0.18185792  1
  O  O3  1  0.90292400  0.52328575  0.31814208  1
  O  O4  1  0.59707600  0.52328575  0.81814208  1
  O  O5  1  0.09707600  0.47671425  0.68185792  1
  O  O6  1  0.59707600  0.02328575  0.18185792  1
  O  O7  1  0.40292400  0.97671425  0.81814208  1
  O  O8  1  0.26947814  0.83782870  0.09498565  1
  O  O9  1  0.73052186  0.16217130  0.90501435  1
  O  O10  1  0.23052186  0.33782870  0.40501435  1
  O  O11  1  0.73052186  0.66217130  0.09498565  1
  O  O12  1  0.76947814  0.66217130  0.59498565  1
  O  O13  1  0.26947814  0.33782870  0.90501435  1
  O  O14  1  0.76947814  0.16217130  0.40501435  1
  O  O15  1  0.23052186  0.83782870  0.59498565  1
  O  O16  1  0.24936480  0.50387812  0.03463401  1
  O  O17  1  0.75063520  0.49612188  0.96536599  1
  O  O18  1  0.25063520  0.00387812  0.46536599  1
  O  O19  1  0.75063520  0.99612188  0.03463401  1
  O  O20  1  0.74936480  0.99612188  0.53463401  1
  O  O21  1  0.24936480  0.00387812  0.96536599  1
  O  O22  1  0.74936480  0.49612188  0.46536599  1
  O  O23  1  0.25063520  0.50387812  0.53463401  1
  O  O24  1  0.24066212  0.68763115  0.41184958  1
  O  O25  1  0.75933788  0.31236885  0.58815042  1
  O  O26  1  0.25933788  0.18763115  0.08815042  1
  O  O27  1  0.75933788  0.81236885  0.41184958  1
  O  O28  1  0.74066212  0.81236885  0.91184958  1
  O  O29  1  0.24066212  0.18763115  0.58815042  1
  O  O30  1  0.74066212  0.31236885  0.08815042  1
  O  O31  1  0.25933788  0.68763115  0.91184958  1
loop_
_geom_bond_atom_site_label_1
_geom_bond_atom_site_label_2
_geom_bond_distance
_geom_bond_site_symmetry_2
Mo0 O3 1.721082 1_455
Mo0 O10 1.765709 1_555
Mo0 O24 1.785546 1_555
Mo0 O22 1.838436 1_455
Mo1 O5 1.721082 1_655
Mo1 O12 1.765709 1_555
Mo1 O25 1.785546 1_555
Mo1 O23 1.838436 1_655
Mo2 O6 1.721082 1_555
Mo2 O8 1.765709 1_545
Mo2 O26 1.785546 1_555
Mo2 O19 1.838436 1_545
Mo3 O0 1.721082 1_655
Mo3 O14 1.765709 1_565
Mo3 O27 1.785546 1_555
Mo3 O18 1.838436 1_665
Mo4 O7 1.721082 1_555
Mo4 O9 1.765709 1_565
Mo4 O28 1.785546 1_555
Mo4 O21 1.838436 1_565
Mo5 O1 1.721082 1_455
Mo5 O15 1.765709 1_545
Mo5 O29 1.785546 1_555
Mo5 O20 1.838436 1_445
Mo6 O2 1.721082 1_555
Mo6 O11 1.765709 1_555
Mo6 O30 1.785546 1_555
Mo6 O16 1.838436 1_555
Mo7 O4 1.721082 1_555
Mo7 O13 1.765709 1_555
Mo7 O31 1.785546 1_555
Mo7 O17 1.838436 1_555
O0 Rb1 2.823268 1_565
O0 Rb3 2.876328 1_555
O1 Rb0 2.823268 1_645
O1 Rb2 2.876328 1_555
O2 Rb3 2.823268 1_555
O2 Rb1 2.876328 1_555
O3 Rb1 2.823268 1_655
O3 Rb3 2.876328 1_555
O4 Rb2 2.823268 1_555
O4 Rb0 2.876328 1_655
O5 Rb0 2.823268 1_555
O5 Rb2 2.876328 1_555
O6 Rb3 2.823268 1_545
O6 Rb1 2.876328 1_655
O7 Rb2 2.823268 1_565
O7 Rb0 2.876328 1_555
O8 Y0 2.294780 1_555
O9 Y1 2.294780 1_655
O10 Y2 2.294780 1_555
O11 Y0 2.294780 1_655
O12 Y3 2.294780 1_555
O13 Y1 2.294780 1_555
O14 Y2 2.294780 1_555
O15 Y3 2.294780 1_555
O16 Y0 2.408261 1_555
O16 Y1 2.516698 1_554
O17 Y1 2.408261 1_655
O17 Y0 2.516698 1_656
O18 Y2 2.408261 1_555
O18 Y3 2.516698 1_545
O19 Y0 2.408261 1_655
O19 Y1 2.516698 1_664
O20 Y3 2.408261 1_555
O20 Y2 2.516698 1_565
O21 Y1 2.408261 1_555
O21 Y0 2.516698 1_546
O22 Y2 2.408261 1_555
O22 Y3 2.516698 1_555
O23 Y3 2.408261 1_555
O23 Y2 2.516698 1_555
O24 Y3 2.276178 1_555
O24 Rb3 3.019353 1_555
O25 Y2 2.276178 1_555
O25 Rb2 3.019353 1_555
O26 Y1 2.276178 1_554
O26 Rb1 3.019353 1_555
O27 Y3 2.276178 1_555
O27 Rb3 3.019353 1_555
O28 Y0 2.276178 1_656
O28 Rb0 3.019353 1_655
O29 Y2 2.276178 1_555
O29 Rb2 3.019353 1_555
O30 Y1 2.276178 1_654
O30 Rb1 3.019353 1_655
O31 Y0 2.276178 1_556
O31 Rb0 3.019353 1_555
