# generated using pymatgen
data_Lu2Ga3Ni14
_symmetry_space_group_name_H-M   'P 1'
_cell_length_a   8.29934782
_cell_length_b   8.29934782
_cell_length_c   8.11461000
_cell_angle_alpha   90.00000000
_cell_angle_beta   90.00000000
_cell_angle_gamma   119.99999860
_symmetry_Int_Tables_number   1
_chemical_formula_structural   Lu2Ga3Ni14
_chemical_formula_sum   'Lu4 Ga6 Ni28'
_cell_volume   484.04553904
_cell_formula_units_Z   2
loop_
 _symmetry_equiv_pos_site_id
 _symmetry_equiv_pos_as_xyz
  1  'x, y, z'
loop_
 _atom_site_type_symbol
 _atom_site_label
 _atom_site_symmetry_multiplicity
 _atom_site_fract_x
 _atom_site_fract_y
 _atom_site_fract_z
 _atom_site_occupancy
  Lu  Lu0  1  0.00000000  0.00000000  0.25000000  1
  Lu  Lu1  1  0.00000000  0.00000000  0.75000000  1
  Lu  Lu2  1  0.33333300  0.66666700  0.75000000  1
  Lu  Lu3  1  0.66666700  0.33333300  0.25000000  1
  Ga  Ga0  1  0.50000000  0.50000000  0.50000000  1
  Ga  Ga1  1  0.50000000  0.00000000  0.50000000  1
  Ga  Ga2  1  0.00000000  0.50000000  0.50000000  1
  Ga  Ga3  1  0.50000000  0.50000000  0.00000000  1
  Ga  Ga4  1  0.50000000  0.00000000  0.00000000  1
  Ga  Ga5  1  0.00000000  0.50000000  0.00000000  1
  Ni  Ni0  1  0.33333300  0.66666700  0.39650000  1
  Ni  Ni1  1  0.66666700  0.33333300  0.60350000  1
  Ni  Ni2  1  0.66666700  0.33333300  0.89650000  1
  Ni  Ni3  1  0.33333300  0.66666700  0.10350000  1
  Ni  Ni4  1  0.32461300  0.35865000  0.25000000  1
  Ni  Ni5  1  0.64135000  0.96596300  0.25000000  1
  Ni  Ni6  1  0.03403700  0.67538700  0.25000000  1
  Ni  Ni7  1  0.64135000  0.67538700  0.25000000  1
  Ni  Ni8  1  0.03403700  0.35865000  0.25000000  1
  Ni  Ni9  1  0.32461300  0.96596300  0.25000000  1
  Ni  Ni10  1  0.67538700  0.64135000  0.75000000  1
  Ni  Ni11  1  0.35865000  0.03403700  0.75000000  1
  Ni  Ni12  1  0.96596300  0.32461300  0.75000000  1
  Ni  Ni13  1  0.35865000  0.32461300  0.75000000  1
  Ni  Ni14  1  0.96596300  0.64135000  0.75000000  1
  Ni  Ni15  1  0.67538700  0.03403700  0.75000000  1
  Ni  Ni16  1  0.16524000  0.83476000  0.51972300  1
  Ni  Ni17  1  0.16524000  0.33048000  0.51972300  1
  Ni  Ni18  1  0.66952000  0.83476000  0.51972300  1
  Ni  Ni19  1  0.83476000  0.16524000  0.48027700  1
  Ni  Ni20  1  0.83476000  0.66952000  0.48027700  1
  Ni  Ni21  1  0.33048000  0.16524000  0.48027700  1
  Ni  Ni22  1  0.83476000  0.16524000  0.01972300  1
  Ni  Ni23  1  0.83476000  0.66952000  0.01972300  1
  Ni  Ni24  1  0.33048000  0.16524000  0.01972300  1
  Ni  Ni25  1  0.16524000  0.83476000  0.98027700  1
  Ni  Ni26  1  0.16524000  0.33048000  0.98027700  1
  Ni  Ni27  1  0.66952000  0.83476000  0.98027700  1
loop_
_geom_bond_atom_site_label_1
_geom_bond_atom_site_label_2
_geom_bond_distance
_geom_bond_site_symmetry_2
Lu0 Ni6 2.845853 1_545
Lu0 Ni9 2.845853 1_545
Lu0 Ni5 2.845853 1_445
Lu0 Ni8 2.845853 1_555
Lu0 Ni7 2.845853 1_445
Lu0 Ni4 2.845853 1_555
Lu0 Ni19 3.022214 1_455
Lu0 Ni22 3.022214 1_455
Lu0 Ni21 3.022214 1_555
Lu0 Ni20 3.022214 1_445
Lu0 Ni23 3.022214 1_445
Lu0 Ni24 3.022214 1_555
Lu0 Ni16 3.229935 1_545
Lu0 Ni25 3.229935 1_544
Lu0 Ni18 3.229935 1_445
Lu0 Ni17 3.229935 1_555
Lu0 Ni27 3.229935 1_444
Lu0 Ni26 3.229935 1_554
Lu1 Ni15 2.845853 1_455
Lu1 Ni12 2.845853 1_455
Lu1 Ni14 2.845853 1_445
Lu1 Ni11 2.845853 1_555
Lu1 Ni10 2.845853 1_445
Lu1 Ni13 2.845853 1_555
Lu1 Ni25 3.022214 1_545
Lu1 Ni16 3.022214 1_545
Lu1 Ni26 3.022214 1_555
Lu1 Ni27 3.022214 1_445
Lu1 Ni18 3.022214 1_445
Lu1 Ni17 3.022214 1_555
Lu1 Ni22 3.229935 1_456
Lu1 Ni19 3.229935 1_455
Lu1 Ni24 3.229935 1_556
Lu1 Ni23 3.229935 1_446
Lu1 Ni20 3.229935 1_445
Lu1 Ni21 3.229935 1_555
Lu2 Ni3 2.868515 1_556
Lu2 Ni0 2.868515 1_555
Lu2 Ni11 2.949492 1_565
Lu2 Ni14 2.949492 1_455
Lu2 Ni15 2.949496 1_565
Lu2 Ni12 2.949496 1_455
Lu2 Ni10 2.949501 1_555
Lu2 Ni13 2.949501 1_555
Lu2 Ni25 3.054553 1_555
Lu2 Ni16 3.054553 1_555
Lu2 Ni27 3.054558 1_555
Lu2 Ni26 3.054558 1_555
Lu2 Ni17 3.054558 1_555
Lu2 Ni18 3.054558 1_555
Lu3 Ni2 2.868515 1_554
Lu3 Ni1 2.868515 1_555
Lu3 Ni8 2.949492 1_655
Lu3 Ni5 2.949492 1_545
Lu3 Ni6 2.949496 1_655
Lu3 Ni9 2.949496 1_545
Lu3 Ni7 2.949501 1_555
Lu3 Ni4 2.949501 1_555
Lu3 Ni19 3.054553 1_555
Lu3 Ni22 3.054553 1_555
Lu3 Ni21 3.054558 1_555
Lu3 Ni20 3.054558 1_555
Lu3 Ni23 3.054558 1_555
Lu3 Ni24 3.054558 1_555
Ga0 Ni17 2.411452 1_555
Ga0 Ni18 2.411452 1_555
Ga0 Ni21 2.411452 1_555
Ga0 Ni20 2.411452 1_555
Ga0 Ni4 2.429570 1_555
Ga0 Ni10 2.429570 1_555
Ga0 Ni13 2.429570 1_555
Ga0 Ni7 2.429570 1_555
Ga0 Ni1 2.538764 1_555
Ga0 Ni0 2.538764 1_555
Ga0 Lu3 3.139329 1_555
Ga0 Lu2 3.139329 1_555
Ga1 Ni18 2.411452 1_545
Ga1 Ni21 2.411452 1_555
Ga1 Ni16 2.411452 1_545
Ga1 Ni19 2.411452 1_555
Ga1 Ni11 2.429570 1_555
Ga1 Ni5 2.429570 1_545
Ga1 Ni9 2.429570 1_545
Ga1 Ni15 2.429570 1_555
Ga1 Ni1 2.538757 1_555
Ga1 Ni0 2.538757 1_545
Ga1 Lu2 3.139323 1_545
Ga1 Lu3 3.139323 1_555
Ga2 Ni17 2.411452 1_555
Ga2 Ni20 2.411452 1_455
Ga2 Ni16 2.411452 1_555
Ga2 Ni19 2.411452 1_455
Ga2 Ni8 2.429570 1_555
Ga2 Ni14 2.429570 1_455
Ga2 Ni12 2.429570 1_455
Ga2 Ni6 2.429570 1_555
Ga2 Ni1 2.538757 1_455
Ga2 Ni0 2.538757 1_555
Ga2 Lu2 3.139323 1_555
Ga2 Lu3 3.139323 1_455
Ga3 Ni24 2.411452 1_555
Ga3 Ni26 2.411452 1_554
Ga3 Ni23 2.411452 1_555
Ga3 Ni27 2.411452 1_554
Ga3 Ni4 2.429570 1_555
Ga3 Ni13 2.429570 1_554
Ga3 Ni10 2.429570 1_554
Ga3 Ni7 2.429570 1_555
Ga3 Ni3 2.538764 1_555
Ga3 Ni2 2.538764 1_554
Ga3 Lu3 3.139329 1_555
Ga3 Lu2 3.139329 1_554
Ga4 Ni27 2.411452 1_544
Ga4 Ni24 2.411452 1_555
Ga4 Ni25 2.411452 1_544
Ga4 Ni22 2.411452 1_555
Ga4 Ni11 2.429570 1_554
Ga4 Ni5 2.429570 1_545
Ga4 Ni9 2.429570 1_545
Ga4 Ni15 2.429570 1_554
Ga4 Ni2 2.538757 1_554
Ga4 Ni3 2.538757 1_545
Ga4 Lu3 3.139323 1_555
Ga4 Lu2 3.139323 1_544
Ga5 Ni23 2.411452 1_455
Ga5 Ni26 2.411452 1_554
Ga5 Ni22 2.411452 1_455
Ga5 Ni25 2.411452 1_554
Ga5 Ni8 2.429570 1_555
Ga5 Ni14 2.429570 1_454
Ga5 Ni12 2.429570 1_454
Ga5 Ni6 2.429570 1_555
Ga5 Ni2 2.538757 1_454
Ga5 Ni3 2.538757 1_555
Ga5 Lu2 3.139323 1_554
Ga5 Lu3 3.139323 1_455
Ni0 Ni3 2.377581 1_555
Ni0 Ni16 2.615035 1_555
Ni0 Ni18 2.615042 1_555
Ni0 Ni17 2.615042 1_555
Ni0 Ni9 2.787165 1_555
Ni0 Ni6 2.787165 1_555
Ni0 Ni5 2.787169 1_555
Ni0 Ni8 2.787169 1_555
Ni0 Ni4 2.787173 1_555
Ni0 Ni7 2.787173 1_555
Ni1 Ni2 2.377581 1_555
Ni1 Ni19 2.615035 1_555
Ni1 Ni21 2.615042 1_555
Ni1 Ni20 2.615042 1_555
Ni1 Ni12 2.787165 1_555
Ni1 Ni15 2.787165 1_555
Ni1 Ni14 2.787169 1_555
Ni1 Ni11 2.787169 1_555
Ni1 Ni13 2.787173 1_555
Ni1 Ni10 2.787173 1_555
Ni2 Ni22 2.615035 1_556
Ni2 Ni24 2.615042 1_556
Ni2 Ni23 2.615042 1_556
Ni3 Ni9 2.787165 1_555
Ni3 Ni6 2.787165 1_555
Ni3 Ni5 2.787169 1_555
Ni3 Ni8 2.787169 1_555
Ni3 Ni4 2.787173 1_555
Ni3 Ni7 2.787173 1_555
Ni4 Ni8 2.411591 1_555
Ni4 Ni7 2.628711 1_555
Ni5 Ni7 2.411591 1_555
Ni5 Ni9 2.628711 1_555
Ni6 Ni9 2.411591 1_555
Ni6 Ni8 2.628711 1_555
Ni10 Ni14 2.411591 1_555
Ni10 Ni27 2.479681 1_555
Ni10 Ni18 2.479681 1_555
Ni10 Ni23 2.507056 1_556
Ni10 Ni20 2.507056 1_555
Ni10 Ni13 2.628711 1_555
Ni10 Ni2 2.787173 1_555
Ni11 Ni13 2.411591 1_555
Ni11 Ni25 2.479681 1_545
Ni11 Ni16 2.479681 1_545
Ni11 Ni24 2.507056 1_556
Ni11 Ni21 2.507056 1_555
Ni11 Ni15 2.628711 1_555
Ni11 Ni2 2.787169 1_555
Ni12 Ni15 2.411591 1_555
Ni12 Ni26 2.479681 1_655
Ni12 Ni17 2.479681 1_655
Ni12 Ni22 2.507056 1_556
Ni12 Ni19 2.507056 1_555
Ni12 Ni14 2.628711 1_555
Ni12 Ni2 2.787165 1_555
Ni13 Ni26 2.479681 1_555
Ni13 Ni17 2.479681 1_555
Ni13 Ni24 2.507056 1_556
Ni13 Ni21 2.507056 1_555
Ni13 Ni2 2.787173 1_555
Ni14 Ni25 2.479681 1_655
Ni14 Ni16 2.479681 1_655
Ni14 Ni23 2.507056 1_556
Ni14 Ni20 2.507056 1_555
Ni14 Ni2 2.787169 1_555
Ni15 Ni27 2.479681 1_545
Ni15 Ni18 2.479681 1_545
Ni15 Ni22 2.507056 1_556
Ni15 Ni19 2.507056 1_555
Ni15 Ni2 2.787165 1_555
Ni16 Ni20 2.396777 1_455
Ni16 Ni21 2.396777 1_565
Ni16 Ni9 2.507056 1_555
Ni16 Ni6 2.507056 1_555
Ni17 Ni21 2.396777 1_555
Ni17 Ni19 2.396777 1_455
Ni17 Ni8 2.507056 1_555
Ni17 Ni4 2.507056 1_555
Ni18 Ni20 2.396777 1_555
Ni18 Ni19 2.396777 1_565
Ni18 Ni5 2.507056 1_555
Ni18 Ni7 2.507056 1_555
Ni19 Ni8 2.479681 1_655
Ni19 Ni5 2.479681 1_545
Ni20 Ni7 2.479681 1_555
Ni20 Ni6 2.479681 1_655
Ni21 Ni4 2.479681 1_555
Ni21 Ni9 2.479681 1_545
Ni22 Ni27 2.396777 1_544
Ni22 Ni26 2.396777 1_654
Ni22 Ni8 2.479681 1_655
Ni22 Ni5 2.479681 1_545
Ni23 Ni27 2.396777 1_554
Ni23 Ni25 2.396777 1_654
Ni23 Ni7 2.479681 1_555
Ni23 Ni6 2.479681 1_655
Ni24 Ni26 2.396777 1_554
Ni24 Ni25 2.396777 1_544
Ni24 Ni4 2.479681 1_555
Ni24 Ni9 2.479681 1_545
Ni25 Ni9 2.507056 1_556
Ni25 Ni6 2.507056 1_556
Ni25 Ni3 2.615035 1_556
Ni26 Ni8 2.507056 1_556
Ni26 Ni4 2.507056 1_556
Ni26 Ni3 2.615042 1_556
Ni27 Ni5 2.507056 1_556
Ni27 Ni7 2.507056 1_556
Ni27 Ni3 2.615042 1_556
