# generated using pymatgen
data_Tm2Mo4O15
_symmetry_space_group_name_H-M   'P 1'
_cell_length_a   9.49271015
_cell_length_b   6.73968423
_cell_length_c   10.44853123
_cell_angle_alpha   74.84897134
_cell_angle_beta   90.00000000
_cell_angle_gamma   90.00000000
_symmetry_Int_Tables_number   1
_chemical_formula_structural   Tm2Mo4O15
_chemical_formula_sum   'Tm4 Mo8 O30'
_cell_volume   645.23873778
_cell_formula_units_Z   2
loop_
 _symmetry_equiv_pos_site_id
 _symmetry_equiv_pos_as_xyz
  1  'x, y, z'
loop_
 _atom_site_type_symbol
 _atom_site_label
 _atom_site_symmetry_multiplicity
 _atom_site_fract_x
 _atom_site_fract_y
 _atom_site_fract_z
 _atom_site_occupancy
  Tm  Tm0  1  0.52253658  0.71208880  0.22407055  1
  Tm  Tm1  1  0.47746342  0.28791120  0.77592945  1
  Tm  Tm2  1  0.02253658  0.28791120  0.27592945  1
  Tm  Tm3  1  0.97746342  0.71208880  0.72407055  1
  Mo  Mo0  1  0.74335297  0.42006930  0.01056830  1
  Mo  Mo1  1  0.25664703  0.57993070  0.98943170  1
  Mo  Mo2  1  0.24335297  0.57993070  0.48943170  1
  Mo  Mo3  1  0.75664703  0.42006930  0.51056830  1
  Mo  Mo4  1  0.90374767  0.87951448  0.15740197  1
  Mo  Mo5  1  0.09625233  0.12048552  0.84259803  1
  Mo  Mo6  1  0.40374767  0.12048552  0.34259803  1
  Mo  Mo7  1  0.59625233  0.87951448  0.65740197  1
  O  O0  1  0.72079597  0.88735678  0.14776701  1
  O  O1  1  0.27920403  0.11264322  0.85223299  1
  O  O2  1  0.22079597  0.11264322  0.35223299  1
  O  O3  1  0.77920403  0.88735678  0.64776701  1
  O  O4  1  0.62454371  0.52453393  0.10321686  1
  O  O5  1  0.37545629  0.47546607  0.89678314  1
  O  O6  1  0.12454371  0.47546607  0.39678314  1
  O  O7  1  0.87545629  0.52453393  0.60321686  1
  O  O8  1  0.34748677  0.72062601  0.08313053  1
  O  O9  1  0.65251323  0.27937399  0.91686947  1
  O  O10  1  0.84748677  0.27937399  0.41686947  1
  O  O11  1  0.15251323  0.72062601  0.58313053  1
  O  O12  1  0.00000000  -0.00000000  -0.00000000  1
  O  O13  1  0.50000000  -0.00000000  0.50000000  1
  O  O14  1  0.66585324  0.62085409  0.39938085  1
  O  O15  1  0.33414676  0.37914591  0.60061915  1
  O  O16  1  0.16585324  0.37914591  0.10061915  1
  O  O17  1  0.83414676  0.62085409  0.89938085  1
  O  O18  1  0.97145285  0.94819059  0.29538653  1
  O  O19  1  0.02854715  0.05180941  0.70461347  1
  O  O20  1  0.47145285  0.05180941  0.20461347  1
  O  O21  1  0.52854715  0.94819059  0.79538653  1
  O  O22  1  0.94403843  0.61982900  0.18380086  1
  O  O23  1  0.05596157  0.38017100  0.81619914  1
  O  O24  1  0.44403843  0.38017100  0.31619914  1
  O  O25  1  0.55596157  0.61982900  0.68380086  1
  O  O26  1  0.86496571  0.25468950  0.11849836  1
  O  O27  1  0.13503429  0.74531050  0.88150164  1
  O  O28  1  0.36496571  0.74531050  0.38150164  1
  O  O29  1  0.63503429  0.25468950  0.61849836  1
loop_
_geom_bond_atom_site_label_1
_geom_bond_atom_site_label_2
_geom_bond_distance
_geom_bond_site_symmetry_2
Mo0 O4 1.749587 1_555
Mo0 O9 1.756842 1_554
Mo0 O17 1.761228 1_554
Mo0 O26 1.785988 1_555
Mo1 O5 1.749587 1_555
Mo1 O8 1.756842 1_556
Mo1 O16 1.761228 1_556
Mo1 O27 1.785988 1_555
Mo2 O6 1.749587 1_555
Mo2 O11 1.756842 1_555
Mo2 O15 1.761228 1_555
Mo2 O28 1.785988 1_555
Mo3 O7 1.749587 1_555
Mo3 O10 1.756842 1_555
Mo3 O14 1.761228 1_555
Mo3 O29 1.785988 1_555
Mo4 O0 1.739626 1_555
Mo4 O22 1.741610 1_555
Mo4 O18 1.747779 1_555
Mo4 O12 1.871073 1_665
Mo4 O26 2.481353 1_565
Mo5 O1 1.739626 1_555
Mo5 O23 1.741610 1_555
Mo5 O19 1.747779 1_555
Mo5 O12 1.871073 1_556
Mo5 O27 2.481353 1_545
Mo6 O2 1.739626 1_555
Mo6 O24 1.741610 1_555
Mo6 O20 1.747779 1_555
Mo6 O13 1.871073 1_555
Mo6 O28 2.481353 1_545
Mo7 O3 1.739626 1_555
Mo7 O25 1.741610 1_555
Mo7 O21 1.747779 1_555
Mo7 O13 1.871073 1_565
Mo7 O29 2.481353 1_565
O0 Tm0 2.254038 1_555
O1 Tm1 2.254038 1_555
O2 Tm2 2.254038 1_555
O3 Tm3 2.254038 1_555
O4 Tm0 2.228092 1_555
O5 Tm1 2.228092 1_555
O6 Tm2 2.228092 1_555
O7 Tm3 2.228092 1_555
O8 Tm0 2.211075 1_555
O9 Tm1 2.211075 1_555
O10 Tm2 2.211075 1_655
O11 Tm3 2.211075 1_455
O14 Tm0 2.235050 1_555
O15 Tm1 2.235050 1_555
O16 Tm2 2.235050 1_555
O17 Tm3 2.235050 1_555
O18 Tm2 2.296841 1_665
O19 Tm3 2.296841 1_445
O20 Tm0 2.296841 1_545
O21 Tm1 2.296841 1_565
O22 Tm2 2.315278 1_655
O23 Tm3 2.315278 1_455
O24 Tm0 2.315278 1_555
O25 Tm1 2.315278 1_555
O26 Tm2 2.277229 1_655
O27 Tm3 2.277229 1_455
O28 Tm0 2.277229 1_555
O29 Tm1 2.277229 1_555
