# generated using pymatgen
data_Rb4CeH12C3O17
_symmetry_space_group_name_H-M   'P 1'
_cell_length_a   9.37539507
_cell_length_b   11.91462909
_cell_length_c   11.79717490
_cell_angle_alpha   59.79299736
_cell_angle_beta   74.45548340
_cell_angle_gamma   79.01569833
_symmetry_Int_Tables_number   1
_chemical_formula_structural   Rb4CeH12C3O17
_chemical_formula_sum   'Rb8 Ce2 H24 C6 O34'
_cell_volume   1094.74142698
_cell_formula_units_Z   2
loop_
 _symmetry_equiv_pos_site_id
 _symmetry_equiv_pos_as_xyz
  1  'x, y, z'
loop_
 _atom_site_type_symbol
 _atom_site_label
 _atom_site_symmetry_multiplicity
 _atom_site_fract_x
 _atom_site_fract_y
 _atom_site_fract_z
 _atom_site_occupancy
  Rb  Rb0  1  0.27532900  0.65187300  0.07938100  1
  Rb  Rb1  1  0.72467100  0.34812700  0.92061900  1
  Rb  Rb2  1  0.28851300  0.96768500  0.56790200  1
  Rb  Rb3  1  0.71148700  0.03231500  0.43209800  1
  Rb  Rb4  1  0.14732600  0.92087400  0.25146200  1
  Rb  Rb5  1  0.85267400  0.07912600  0.74853800  1
  Rb  Rb6  1  0.73139700  0.48685600  0.30557400  1
  Rb  Rb7  1  0.26860300  0.51314400  0.69442600  1
  Ce  Ce0  1  0.88266000  0.61434300  0.54233100  1
  Ce  Ce1  1  0.11734000  0.38565700  0.45766900  1
  H  H0  1  0.53387600  0.73157600  0.10923700  1
  H  H1  1  0.51769000  0.95396300  0.26240800  1
  H  H2  1  0.49646400  0.83024200  0.80016700  1
  H  H3  1  0.69286000  0.59823800  0.97360100  1
  H  H4  1  0.30714000  0.40176200  0.02639900  1
  H  H5  1  0.94816700  0.70528000  0.03698600  1
  H  H6  1  0.48231000  0.04603700  0.73759200  1
  H  H7  1  0.20930200  0.98765200  0.91998300  1
  H  H8  1  0.95992200  0.50595800  0.74328900  1
  H  H9  1  0.54649100  0.74650900  0.16042900  1
  H  H10  1  0.07407700  0.89861500  0.98402000  1
  H  H11  1  0.96742700  0.79265300  0.87885300  1
  H  H12  1  0.42989100  0.70626800  0.43556100  1
  H  H13  1  0.57010900  0.29373200  0.56443900  1
  H  H14  1  0.73615200  0.80845900  0.74386500  1
  H  H15  1  0.92592300  0.10138500  0.01598000  1
  H  H16  1  0.05183300  0.29472000  0.96301400  1
  H  H17  1  0.03257300  0.20734700  0.12114700  1
  H  H18  1  0.46612400  0.26842400  0.89076300  1
  H  H19  1  0.26384800  0.19154100  0.25613500  1
  H  H20  1  0.79069800  0.01234800  0.08001700  1
  H  H21  1  0.04007900  0.49404200  0.25671100  1
  H  H22  1  0.45350900  0.25349100  0.83957100  1
  H  H23  1  0.50353600  0.16975800  0.19983300  1
  C  C0  1  0.04769700  0.20601200  0.34541000  1
  C  C1  1  0.44408400  0.32160700  0.32171200  1
  C  C2  1  0.95230300  0.79398800  0.65459000  1
  C  C3  1  0.24266800  0.19546000  0.68560200  1
  C  C4  1  0.75733200  0.80454000  0.31439800  1
  C  C5  1  0.55591600  0.67839300  0.67828800  1
  O  O0  1  0.68955100  0.89135600  0.22301900  1
  O  O1  1  0.80849100  0.76284000  0.69361300  1
  O  O2  1  0.99755200  0.85001200  0.70414500  1
  O  O3  1  0.19150900  0.23716000  0.30638700  1
  O  O4  1  0.91339800  0.38248400  0.63578600  1
  O  O5  1  0.00244800  0.14998800  0.29585500  1
  O  O6  1  0.63249200  0.57258900  0.68762600  1
  O  O7  1  0.41788600  0.98697900  0.29790800  1
  O  O8  1  0.53494000  0.34562000  0.19809700  1
  O  O9  1  0.58211400  0.01302100  0.70209200  1
  O  O10  1  0.04759300  0.20543800  0.03533600  1
  O  O11  1  0.85242400  0.83414300  0.35815000  1
  O  O12  1  0.31044900  0.10864400  0.77698100  1
  O  O13  1  0.40611200  0.12534600  0.19522800  1
  O  O14  1  0.26343600  0.31913300  0.62822700  1
  O  O15  1  0.55646300  0.78722600  0.57851400  1
  O  O16  1  0.02985600  0.76154400  0.56699500  1
  O  O17  1  0.14757600  0.16585700  0.64185000  1
  O  O18  1  0.08660200  0.61751600  0.36421400  1
  O  O19  1  0.84182300  0.08303500  0.99443400  1
  O  O20  1  0.44353700  0.21277400  0.42148600  1
  O  O21  1  0.13947300  0.55972600  0.48888200  1
  O  O22  1  0.86052700  0.44027400  0.51111800  1
  O  O23  1  0.61123100  0.22625700  0.19693100  1
  O  O24  1  0.73656400  0.68086700  0.37177300  1
  O  O25  1  0.15817700  0.91696500  0.00556600  1
  O  O26  1  0.46506000  0.65438000  0.80190300  1
  O  O27  1  0.43425000  0.98906600  0.02293200  1
  O  O28  1  0.56575000  0.01093400  0.97706800  1
  O  O29  1  0.59388800  0.87465400  0.80477200  1
  O  O30  1  0.38876900  0.77374300  0.80306900  1
  O  O31  1  0.36750800  0.42741100  0.31237400  1
  O  O32  1  0.97014400  0.23845600  0.43300500  1
  O  O33  1  0.95240700  0.79456200  0.96466400  1
loop_
_geom_bond_atom_site_label_1
_geom_bond_atom_site_label_2
_geom_bond_distance
_geom_bond_site_symmetry_2
Ce0 H8 2.301312 1_555
Ce0 O22 2.335253 1_555
Ce0 O21 2.370715 1_655
Ce0 O4 2.394209 1_555
Ce0 O18 2.422168 1_655
Ce0 O11 2.445647 1_555
Ce0 O24 2.451842 1_555
Ce0 O6 2.473540 1_555
Ce0 O16 2.591553 1_655
Ce1 H21 2.301307 1_555
Ce1 O21 2.335253 1_555
Ce1 O22 2.370715 1_455
Ce1 O18 2.394209 1_555
Ce1 O4 2.422168 1_455
Ce1 O17 2.445647 1_555
Ce1 O14 2.451842 1_555
Ce1 O31 2.473540 1_555
Ce1 O32 2.591553 1_455
H0 H9 0.751524 1_555
H0 Rb0 2.927952 1_555
H1 O7 1.010518 1_555
H2 O29 1.164877 1_555
H2 O30 1.300415 1_555
H5 O33 0.972511 1_554
H6 O9 1.010518 1_555
H7 O25 0.998622 1_556
H8 Rb7 2.804554 1_655
H8 Rb1 2.815355 1_555
H10 O25 0.981389 1_556
H11 O33 0.995338 1_555
H12 Rb7 2.947423 1_555
H13 Rb6 2.947423 1_555
H14 O1 1.036874 1_555
H14 O29 1.604057 1_555
H15 O19 0.981389 1_554
H16 O10 0.972511 1_556
H17 O10 0.995338 1_555
H18 H22 0.751524 1_555
H18 Rb1 2.927952 1_555
H19 O3 1.036874 1_555
H19 O13 1.604057 1_555
H20 O19 0.998622 1_554
H21 Rb6 2.804563 1_455
H21 Rb0 2.815348 1_555
H23 O13 1.164877 1_555
H23 O23 1.300415 1_555
C0 O5 1.265230 1_555
C0 O32 1.279879 1_455
C0 O3 1.361486 1_555
C1 O20 1.237089 1_555
C1 O31 1.294013 1_555
C1 O8 1.393322 1_555
C2 O2 1.265230 1_555
C2 O16 1.279879 1_655
C2 O1 1.361486 1_555
C3 O12 1.276916 1_555
C3 O14 1.304762 1_555
C3 O17 1.317302 1_555
C4 O0 1.276916 1_555
C4 O24 1.304762 1_555
C4 O11 1.317302 1_555
C5 O15 1.237089 1_555
C5 O6 1.294013 1_555
C5 O26 1.393322 1_555
O2 Rb2 2.971583 1_655
O2 Rb5 3.035685 1_565
O4 Rb1 3.208530 1_555
O4 Rb5 3.270751 1_555
O5 Rb3 2.971583 1_455
O5 Rb4 3.035685 1_545
O6 Rb1 2.906854 1_555
O7 Rb2 2.994682 1_555
O7 Rb4 3.048851 1_555
O9 Rb3 2.994682 1_555
O9 Rb5 3.048851 1_555
O11 Rb4 2.865507 1_655
O11 Rb3 2.889279 1_565
O14 Rb7 2.799121 1_555
O15 Rb2 2.964592 1_555
O15 Rb3 2.969771 1_565
O16 Rb4 3.187754 1_555
O17 Rb5 2.865507 1_455
O17 Rb2 2.889279 1_545
O18 O21 1.457575 1_555
O18 Rb0 3.208530 1_555
O18 Rb4 3.270751 1_555
O19 Rb1 2.891995 1_555
O19 Rb5 2.898894 1_555
O20 Rb3 2.964592 1_555
O20 Rb2 2.969771 1_545
O21 Rb7 2.759833 1_555
O22 O4 1.457575 1_555
O22 Rb6 2.759833 1_555
O23 Rb1 2.798708 1_554
O23 Rb3 2.835309 1_555
O24 Rb6 2.799121 1_555
O25 Rb0 2.891995 1_555
O25 Rb4 2.898894 1_555
O27 O28 1.226222 1_564
O27 Rb4 3.147460 1_555
O28 Rb5 3.147460 1_555
O30 Rb0 2.798708 1_556
O30 Rb2 2.835309 1_555
O31 Rb0 2.906854 1_555
O32 Rb5 3.187754 1_555
