# generated using pymatgen
data_Li8Be6P7O29
_symmetry_space_group_name_H-M   'P 1'
_cell_length_a   9.35023444
_cell_length_b   11.68268707
_cell_length_c   11.69178483
_cell_angle_alpha   119.97426015
_cell_angle_beta   89.90140150
_cell_angle_gamma   90.19735092
_symmetry_Int_Tables_number   1
_chemical_formula_structural   Li8Be6P7O29
_chemical_formula_sum   'Li16 Be12 P14 O58'
_cell_volume   1106.33512045
_cell_formula_units_Z   2
loop_
 _symmetry_equiv_pos_site_id
 _symmetry_equiv_pos_as_xyz
  1  'x, y, z'
loop_
 _atom_site_type_symbol
 _atom_site_label
 _atom_site_symmetry_multiplicity
 _atom_site_fract_x
 _atom_site_fract_y
 _atom_site_fract_z
 _atom_site_occupancy
  Li  Li0  1  0.55227354  0.00005337  0.99994108  1
  Li  Li1  1  0.05227354  0.00011229  0.00005892  1
  Li  Li2  1  0.38121203  0.33344794  0.66661266  1
  Li  Li3  1  0.88121203  0.66683527  0.33338734  1
  Li  Li4  1  0.45669978  0.54482666  0.44585705  1
  Li  Li5  1  0.45455645  0.89931511  0.45370812  1
  Li  Li6  1  0.45536581  0.55457580  0.10004585  1
  Li  Li7  1  0.95669978  0.09896961  0.55414295  1
  Li  Li8  1  0.95455645  0.44560698  0.54629188  1
  Li  Li9  1  0.95536581  0.45452995  0.89995415  1
  Li  Li10  1  0.25882380  0.34878888  0.17564335  1
  Li  Li11  1  0.25885400  0.82631007  0.65278445  1
  Li  Li12  1  0.25918533  0.82449602  0.17308278  1
  Li  Li13  1  0.75882380  0.17314552  0.82435665  1
  Li  Li14  1  0.75885400  0.17352562  0.34721555  1
  Li  Li15  1  0.75918533  0.65141324  0.82691722  1
  Be  Be0  1  0.00759666  0.99932035  0.25395197  1
  Be  Be1  1  0.00726623  0.25461289  0.00049940  1
  Be  Be2  1  0.00744321  0.74581515  0.74543881  1
  Be  Be3  1  0.50759666  0.74536838  0.74604803  1
  Be  Be4  1  0.50726623  0.25411349  0.99950060  1
  Be  Be5  1  0.50744321  0.00037633  0.25456119  1
  Be  Be6  1  0.25611016  0.32893830  0.41793965  1
  Be  Be7  1  0.25626922  0.08897790  0.67102467  1
  Be  Be8  1  0.25600019  0.58209411  0.91098730  1
  Be  Be9  1  0.75611016  0.91099866  0.58206035  1
  Be  Be10  1  0.75626922  0.41795323  0.32897533  1
  Be  Be11  1  0.75600019  0.67110681  0.08901270  1
  P  P0  1  0.25583440  0.08557648  0.42214537  1
  P  P1  1  0.25583087  0.33665123  0.91445853  1
  P  P2  1  0.25568959  0.57794192  0.66362133  1
  P  P3  1  0.75583440  0.66343111  0.57785463  1
  P  P4  1  0.75583087  0.42219269  0.08554147  1
  P  P5  1  0.75568959  0.91432059  0.33637867  1
  P  P6  1  0.00722831  0.74947726  0.00043730  1
  P  P7  1  0.00702657  0.25097124  0.25049946  1
  P  P8  1  0.00717739  0.99954545  0.74899390  1
  P  P9  1  0.50722831  0.74903996  0.99956270  1
  P  P10  1  0.50702657  0.00047178  0.74950054  1
  P  P11  1  0.50717739  0.25055156  0.25100610  1
  P  P12  1  0.26290546  0.66593218  0.33217330  1
  P  P13  1  0.76290546  0.33375888  0.66782670  1
  O  O0  1  0.09442591  0.05159163  0.39382747  1
  O  O1  1  0.09461939  0.34221413  0.94851372  1
  O  O2  1  0.09456360  0.60617345  0.65781131  1
  O  O3  1  0.59442591  0.65776416  0.60617253  1
  O  O4  1  0.59461939  0.39370042  0.05148628  1
  O  O5  1  0.59456360  0.94836214  0.34218869  1
  O  O6  1  0.31031375  0.04528422  0.52202977  1
  O  O7  1  0.31046415  0.47699304  0.95459091  1
  O  O8  1  0.31020094  0.47802951  0.52319414  1
  O  O9  1  0.81031375  0.52325445  0.47797023  1
  O  O10  1  0.81046415  0.52240213  0.04540909  1
  O  O11  1  0.81020094  0.95483537  0.47680586  1
  O  O12  1  0.83849061  0.99550531  0.28583335  1
  O  O13  1  0.83822707  0.29052413  0.00413062  1
  O  O14  1  0.83826873  0.71378865  0.70941199  1
  O  O15  1  0.33849061  0.70967196  0.71416665  1
  O  O16  1  0.33822707  0.28639351  0.99586938  1
  O  O17  1  0.33826873  0.00437667  0.29058801  1
  O  O18  1  0.28178887  0.23623956  0.48405878  1
  O  O19  1  0.28174234  0.24788741  0.76407994  1
  O  O20  1  0.28129984  0.51588822  0.75203026  1
  O  O21  1  0.78178887  0.75218078  0.51594122  1
  O  O22  1  0.78174234  0.48380748  0.23592006  1
  O  O23  1  0.78129984  0.76385796  0.24796974  1
  O  O24  1  0.06436967  0.85329797  0.13843196  1
  O  O25  1  0.06384817  0.28526321  0.14665374  1
  O  O26  1  0.06387047  0.86161726  0.71489914  1
  O  O27  1  0.56436967  0.71486602  0.86156804  1
  O  O28  1  0.56384817  0.13860947  0.85334626  1
  O  O29  1  0.56387047  0.14671812  0.28510086  1
  O  O30  1  0.08706057  0.33355307  0.38323817  1
  O  O31  1  0.08725054  0.04960388  0.66638400  1
  O  O32  1  0.08680133  0.61675526  0.95024539  1
  O  O33  1  0.58706057  0.95031491  0.61676183  1
  O  O34  1  0.58725054  0.38321989  0.33361600  1
  O  O35  1  0.58680133  0.66650987  0.04975461  1
  O  O36  1  0.02879319  0.10044566  0.19494551  1
  O  O37  1  0.02878861  0.09451367  0.89954640  1
  O  O38  1  0.02915974  0.80509303  0.90541821  1
  O  O39  1  0.52879319  0.90550015  0.80505449  1
  O  O40  1  0.52878861  0.19496727  0.10045360  1
  O  O41  1  0.52915974  0.89967482  0.09458179  1
  O  O42  1  0.34548929  0.27609658  0.28079409  1
  O  O43  1  0.34554085  0.00433000  0.72363220  1
  O  O44  1  0.34559692  0.71934362  0.99524578  1
  O  O45  1  0.84548929  0.99530249  0.71920591  1
  O  O46  1  0.84554085  0.28069779  0.27636780  1
  O  O47  1  0.84559692  0.72409784  0.00475422  1
  O  O48  1  0.32367497  0.72565246  0.25057927  1
  O  O49  1  0.32896659  0.52638965  0.27320301  1
  O  O50  1  0.32218556  0.74594296  0.47469886  1
  O  O51  1  0.82367497  0.47507319  0.74942073  1
  O  O52  1  0.82896659  0.25318663  0.72679699  1
  O  O53  1  0.82218556  0.27124410  0.52530114  1
  O  O54  1  0.09797550  0.67066715  0.33530820  1
  O  O55  1  0.59797550  0.33535895  0.66469180  1
  O  O56  1  0.28067387  0.99998973  0.00000296  1
  O  O57  1  0.78067387  0.99998677  -0.00000296  1
loop_
_geom_bond_atom_site_label_1
_geom_bond_atom_site_label_2
_geom_bond_distance
_geom_bond_site_symmetry_2
Li0 O41 1.985024 1_546
Li0 O40 1.985736 1_556
Li0 O39 1.986285 1_545
Li0 O57 2.135601 1_546
Li0 O56 2.539517 1_546
Li1 O38 1.985025 1_544
Li1 O37 1.985736 1_554
Li1 O36 1.986285 1_555
Li1 O56 2.135601 1_545
Li1 O57 2.539517 1_445
Li2 O55 2.027045 1_555
Li2 O18 2.070514 1_555
Li2 O19 2.071457 1_555
Li2 O20 2.072803 1_555
Li3 O54 2.027045 1_655
Li3 O21 2.070514 1_555
Li3 O22 2.071456 1_555
Li3 O23 2.072803 1_555
Li4 O8 1.999090 1_555
Li4 O34 2.076393 1_555
Li4 O3 2.106642 1_555
Li4 O49 2.262692 1_555
Li4 O50 2.538375 1_555
Li5 O6 2.004036 1_565
Li5 O33 2.095798 1_555
Li5 O5 2.116038 1_555
Li5 O50 2.285990 1_555
Li5 O48 2.536224 1_555
Li6 O7 2.002142 1_554
Li6 O35 2.078672 1_555
Li6 O4 2.120878 1_555
Li6 O48 2.258978 1_555
Li6 O49 2.501822 1_555
Li7 O11 1.999090 1_545
Li7 O31 2.076393 1_655
Li7 O0 2.106642 1_655
Li7 O52 2.262692 1_555
Li7 O53 2.538375 1_555
Li8 O9 2.004036 1_555
Li8 O30 2.095798 1_655
Li8 O2 2.116038 1_655
Li8 O53 2.285990 1_555
Li8 O51 2.536224 1_555
Li9 O10 2.002142 1_556
Li9 O32 2.078672 1_655
Li9 O1 2.120878 1_655
Li9 O51 2.258978 1_555
Li9 O52 2.501822 1_555
Li10 O49 1.914315 1_555
Li10 O25 1.931502 1_555
Li10 O42 1.985121 1_555
Li10 O16 1.991950 1_554
Li11 O50 1.900968 1_555
Li11 O26 1.929430 1_555
Li11 O15 1.977955 1_555
Li11 O43 1.984387 1_565
Li12 O48 1.889495 1_555
Li12 O24 1.933508 1_555
Li12 O44 1.983412 1_554
Li12 O17 1.989575 1_565
Li13 O52 1.914315 1_555
Li13 O28 1.931502 1_555
Li13 O45 1.985121 1_545
Li13 O13 1.991950 1_556
Li14 O53 1.900968 1_555
Li14 O29 1.929430 1_555
Li14 O12 1.977955 1_545
Li14 O46 1.984386 1_555
Li15 O51 1.889495 1_555
Li15 O27 1.933508 1_555
Li15 O47 1.983412 1_556
Li15 O14 1.989575 1_555
Be0 O12 1.629463 1_455
Be0 O0 1.646152 1_565
Be0 O24 1.648541 1_555
Be0 O36 1.650243 1_565
Be1 O13 1.631721 1_455
Be1 O1 1.642564 1_554
Be1 O25 1.648797 1_555
Be1 O37 1.651619 1_554
Be2 O14 1.631046 1_455
Be2 O2 1.646461 1_555
Be2 O26 1.647201 1_555
Be2 O38 1.650879 1_555
Be3 O15 1.629463 1_555
Be3 O3 1.646152 1_555
Be3 O27 1.648541 1_555
Be3 O39 1.650243 1_555
Be4 O16 1.631721 1_555
Be4 O4 1.642564 1_556
Be4 O28 1.648797 1_555
Be4 O40 1.651619 1_556
Be5 O17 1.631046 1_555
Be5 O5 1.646461 1_545
Be5 O29 1.647201 1_555
Be5 O41 1.650879 1_545
Be6 O8 1.630429 1_555
Be6 O42 1.631101 1_555
Be6 O18 1.633111 1_555
Be6 O30 1.640315 1_555
Be7 O6 1.631183 1_555
Be7 O19 1.632967 1_555
Be7 O43 1.633478 1_555
Be7 O31 1.637815 1_555
Be8 O7 1.630205 1_555
Be8 O44 1.630507 1_555
Be8 O20 1.634499 1_555
Be8 O32 1.641257 1_555
Be9 O11 1.630429 1_555
Be9 O45 1.631101 1_555
Be9 O21 1.633111 1_555
Be9 O33 1.640315 1_555
Be10 O9 1.631183 1_555
Be10 O22 1.632967 1_555
Be10 O46 1.633478 1_555
Be10 O34 1.637815 1_555
Be11 O10 1.630205 1_555
Be11 O47 1.630507 1_555
Be11 O23 1.634499 1_555
Be11 O35 1.641257 1_555
O0 P0 1.552805 1_555
O1 P1 1.551664 1_555
O2 P2 1.552192 1_555
O3 P3 1.552805 1_555
O4 P4 1.551664 1_555
O5 P5 1.552192 1_555
O6 P0 1.548507 1_555
O7 P1 1.547786 1_555
O8 P2 1.550541 1_555
O9 P3 1.548507 1_555
O10 P4 1.547786 1_555
O11 P5 1.550541 1_555
O12 P5 1.549723 1_555
O13 P4 1.551889 1_555
O14 P3 1.550111 1_555
O15 P2 1.549723 1_555
O16 P1 1.551889 1_555
O17 P0 1.550111 1_555
O18 P0 1.550980 1_555
O19 P1 1.550403 1_555
O20 P2 1.549893 1_555
O21 P3 1.550980 1_555
O22 P4 1.550403 1_555
O23 P5 1.549893 1_555
O24 P6 1.550094 1_555
O25 P7 1.548955 1_555
O26 P8 1.549110 1_555
O27 P9 1.550094 1_555
O28 P10 1.548955 1_555
O29 P11 1.549110 1_555
O30 P7 1.549923 1_555
O31 P8 1.547369 1_545
O32 P6 1.548997 1_556
O33 P10 1.549923 1_565
O34 P11 1.547369 1_555
O35 P9 1.548997 1_554
O36 P7 1.554497 1_555
O37 P8 1.555134 1_545
O38 P6 1.554983 1_556
O39 P10 1.554497 1_565
O40 P11 1.555134 1_555
O41 P9 1.554983 1_554
O42 P11 1.547063 1_555
O43 P10 1.545657 1_555
O44 P9 1.544689 1_555
O45 P8 1.547063 1_655
O46 P7 1.545657 1_655
O47 P6 1.544689 1_655
O48 P12 1.542785 1_555
O49 P12 1.548196 1_555
O50 P12 1.549508 1_555
O51 P13 1.542785 1_555
O52 P13 1.548196 1_555
O53 P13 1.549508 1_555
O54 P12 1.543032 1_555
O55 P13 1.543032 1_555
