# generated using pymatgen
data_Ba3MgSb2O9
_symmetry_space_group_name_H-M   'P 1'
_cell_length_a   5.93388598
_cell_length_b   5.93388598
_cell_length_c   14.65841800
_cell_angle_alpha   90.00000000
_cell_angle_beta   90.00000000
_cell_angle_gamma   119.99999981
_symmetry_Int_Tables_number   1
_chemical_formula_structural   Ba3MgSb2O9
_chemical_formula_sum   'Ba6 Mg2 Sb4 O18'
_cell_volume   446.98827271
_cell_formula_units_Z   2
loop_
 _symmetry_equiv_pos_site_id
 _symmetry_equiv_pos_as_xyz
  1  'x, y, z'
loop_
 _atom_site_type_symbol
 _atom_site_label
 _atom_site_symmetry_multiplicity
 _atom_site_fract_x
 _atom_site_fract_y
 _atom_site_fract_z
 _atom_site_occupancy
  Ba  Ba0  1  0.33333300  0.66666700  0.58790900  1
  Ba  Ba1  1  0.66666700  0.33333300  0.08790900  1
  Ba  Ba2  1  0.66666700  0.33333300  0.41209100  1
  Ba  Ba3  1  0.33333300  0.66666700  0.91209100  1
  Ba  Ba4  1  0.00000000  0.00000000  0.75000000  1
  Ba  Ba5  1  0.00000000  0.00000000  0.25000000  1
  Mg  Mg0  1  0.00000000  0.00000000  0.00000000  1
  Mg  Mg1  1  0.00000000  0.00000000  0.50000000  1
  Sb  Sb0  1  0.66666700  0.33333300  0.65149700  1
  Sb  Sb1  1  0.33333300  0.66666700  0.15149700  1
  Sb  Sb2  1  0.66666700  0.33333300  0.84850300  1
  Sb  Sb3  1  0.33333300  0.66666700  0.34850300  1
  O  O0  1  0.16909100  0.83090900  0.08369400  1
  O  O1  1  0.16909100  0.33818100  0.08369400  1
  O  O2  1  0.66181900  0.83090900  0.08369400  1
  O  O3  1  0.33818100  0.16909100  0.58369400  1
  O  O4  1  0.83090900  0.66181900  0.91630600  1
  O  O5  1  0.83090900  0.16909100  0.58369400  1
  O  O6  1  0.83090900  0.66181900  0.58369400  1
  O  O7  1  0.16909100  0.83090900  0.41630600  1
  O  O8  1  0.66181900  0.83090900  0.41630600  1
  O  O9  1  0.33818100  0.16909100  0.91630600  1
  O  O10  1  0.83090900  0.16909100  0.91630600  1
  O  O11  1  0.16909100  0.33818100  0.41630600  1
  O  O12  1  0.48167400  0.96334900  0.25000000  1
  O  O13  1  0.51832600  0.48167400  0.75000000  1
  O  O14  1  0.96334900  0.48167400  0.75000000  1
  O  O15  1  0.03665100  0.51832600  0.25000000  1
  O  O16  1  0.48167400  0.51832600  0.25000000  1
  O  O17  1  0.51832600  0.03665100  0.75000000  1
loop_
_geom_bond_atom_site_label_1
_geom_bond_atom_site_label_2
_geom_bond_distance
_geom_bond_site_symmetry_2
Ba0 O3 2.967691 1_555
Ba0 O6 2.967691 1_555
Ba0 O6 2.967691 1_455
Ba0 O3 2.967691 1_565
Ba0 O5 2.967691 1_565
Ba0 O5 2.967691 1_455
Ba0 O7 3.029336 1_555
Ba0 O8 3.029342 1_555
Ba0 O11 3.029342 1_555
Ba0 O17 3.043081 1_565
Ba0 O14 3.043081 1_455
Ba0 O13 3.043087 1_555
Ba1 O1 2.967691 1_555
Ba1 O2 2.967691 1_555
Ba1 O2 2.967691 1_545
Ba1 O1 2.967691 1_655
Ba1 O0 2.967691 1_655
Ba1 O0 2.967691 1_545
Ba1 O10 3.029336 1_554
Ba1 O4 3.029342 1_554
Ba1 O9 3.029342 1_554
Ba1 O15 3.043081 1_655
Ba1 O12 3.043081 1_545
Ba1 O16 3.043087 1_555
Ba2 O11 2.967691 1_555
Ba2 O8 2.967691 1_555
Ba2 O8 2.967691 1_545
Ba2 O11 2.967691 1_655
Ba2 O7 2.967691 1_655
Ba2 O7 2.967691 1_545
Ba2 O5 3.029336 1_555
Ba2 O6 3.029342 1_555
Ba2 O3 3.029342 1_555
Ba2 O15 3.043081 1_655
Ba2 O12 3.043081 1_545
Ba2 O16 3.043087 1_555
Ba3 O9 2.967691 1_555
Ba3 O4 2.967691 1_555
Ba3 O4 2.967691 1_455
Ba3 O9 2.967691 1_565
Ba3 O10 2.967691 1_565
Ba3 O10 2.967691 1_455
Ba3 O0 3.029336 1_556
Ba3 O2 3.029342 1_556
Ba3 O1 3.029342 1_556
Ba3 O17 3.043081 1_565
Ba3 O14 3.043081 1_455
Ba3 O13 3.043087 1_555
Ba4 O17 2.972912 1_455
Ba4 O14 2.972912 1_455
Ba4 O13 2.972916 1_555
Ba4 O13 2.972916 1_445
Ba4 O14 2.972918 1_445
Ba4 O17 2.972918 1_555
Ba4 O9 2.993827 1_555
Ba4 O4 2.993827 1_445
Ba4 O3 2.993827 1_555
Ba4 O6 2.993827 1_445
Ba4 O10 2.993830 1_455
Ba4 O5 2.993830 1_455
Ba5 O15 2.972912 1_545
Ba5 O12 2.972912 1_545
Ba5 O16 2.972916 1_555
Ba5 O16 2.972916 1_445
Ba5 O12 2.972918 1_445
Ba5 O15 2.972918 1_555
Ba5 O11 2.993827 1_555
Ba5 O8 2.993827 1_445
Ba5 O1 2.993827 1_555
Ba5 O2 2.993827 1_445
Ba5 O7 2.993830 1_545
Ba5 O0 2.993830 1_545
Mg0 O1 2.127277 1_555
Mg0 O2 2.127277 1_445
Mg0 O9 2.127277 1_554
Mg0 O4 2.127277 1_444
Mg0 O0 2.127281 1_545
Mg0 O10 2.127281 1_454
Mg1 O3 2.127277 1_555
Mg1 O6 2.127277 1_445
Mg1 O11 2.127277 1_555
Mg1 O8 2.127277 1_445
Mg1 O5 2.127281 1_455
Mg1 O7 2.127281 1_545
O0 Sb1 1.958904 1_555
O1 Sb1 1.958912 1_555
O2 Sb1 1.958912 1_555
O3 Sb0 1.958912 1_555
O4 Sb2 1.958912 1_555
O5 Sb0 1.958904 1_555
O6 Sb0 1.958912 1_555
O7 Sb3 1.958904 1_555
O8 Sb3 1.958912 1_555
O9 Sb2 1.958912 1_555
O10 Sb2 1.958904 1_555
O11 Sb3 1.958912 1_555
O12 Sb1 2.099834 1_555
O12 Sb3 2.099834 1_555
O13 Sb2 2.099834 1_555
O13 Sb0 2.099834 1_555
O14 Sb2 2.099834 1_555
O14 Sb0 2.099834 1_555
O15 Sb3 2.099834 1_555
O15 Sb1 2.099834 1_555
O16 Sb1 2.099834 1_555
O16 Sb3 2.099834 1_555
O17 Sb0 2.099834 1_555
O17 Sb2 2.099834 1_555
