# generated using pymatgen
data_PrVO3
_symmetry_space_group_name_H-M   'P 1'
_cell_length_a   5.48384877
_cell_length_b   5.49925769
_cell_length_c   7.94591615
_cell_angle_alpha   90.00000000
_cell_angle_beta   90.00000000
_cell_angle_gamma   90.00000000
_symmetry_Int_Tables_number   1
_chemical_formula_structural   PrVO3
_chemical_formula_sum   'Pr4 V4 O12'
_cell_volume   239.62576822
_cell_formula_units_Z   4
loop_
 _symmetry_equiv_pos_site_id
 _symmetry_equiv_pos_as_xyz
  1  'x, y, z'
loop_
 _atom_site_type_symbol
 _atom_site_label
 _atom_site_symmetry_multiplicity
 _atom_site_fract_x
 _atom_site_fract_y
 _atom_site_fract_z
 _atom_site_occupancy
  Pr  Pr0  1  0.00666457  0.45948922  0.25000000  1
  Pr  Pr1  1  0.99333543  0.54051078  0.75000000  1
  Pr  Pr2  1  0.50666457  0.04051078  0.75000000  1
  Pr  Pr3  1  0.49333543  0.95948922  0.25000000  1
  V  V0  1  0.00000000  -0.00000000  -0.00000000  1
  V  V1  1  0.50000000  0.50000000  -0.00000000  1
  V  V2  1  0.00000000  -0.00000000  0.50000000  1
  V  V3  1  0.50000000  0.50000000  0.50000000  1
  O  O0  1  0.28780811  0.21221480  0.04392389  1
  O  O1  1  0.71219189  0.78778520  0.95607611  1
  O  O2  1  0.78780811  0.28778520  0.95607611  1
  O  O3  1  0.71219189  0.78778520  0.54392389  1
  O  O4  1  0.21219189  0.71221480  0.04392389  1
  O  O5  1  0.28780811  0.21221480  0.45607611  1
  O  O6  1  0.21219189  0.71221480  0.45607611  1
  O  O7  1  0.78780811  0.28778520  0.54392389  1
  O  O8  1  0.58133550  0.51999278  0.25000000  1
  O  O9  1  0.41866450  0.48000722  0.75000000  1
  O  O10  1  0.08133550  0.98000722  0.75000000  1
  O  O11  1  0.91866450  0.01999278  0.25000000  1
loop_
_geom_bond_atom_site_label_1
_geom_bond_atom_site_label_2
_geom_bond_distance
_geom_bond_site_symmetry_2
O0 V0 1.993684 1_555
O0 V1 1.995114 1_555
O0 Pr3 2.425521 1_545
O0 Pr0 2.628194 1_555
O0 Pr2 2.790440 1_554
O1 V0 1.993684 1_666
O1 V1 1.995114 1_556
O1 Pr2 2.425521 1_565
O1 Pr1 2.628194 1_555
O1 Pr3 2.790440 1_556
O2 V1 1.993684 1_556
O2 V0 1.995114 1_656
O2 Pr1 2.425521 1_555
O2 Pr2 2.628194 1_555
O2 Pr0 2.790440 1_656
O3 V2 1.993684 1_665
O3 V3 1.995114 1_555
O3 Pr2 2.425521 1_565
O3 Pr1 2.628194 1_555
O3 Pr3 2.790440 1_555
O4 V1 1.993684 1_555
O4 V0 1.995114 1_565
O4 Pr0 2.425521 1_555
O4 Pr3 2.628194 1_555
O4 Pr1 2.790440 1_454
O5 V2 1.993684 1_555
O5 V3 1.995114 1_555
O5 Pr3 2.425521 1_545
O5 Pr0 2.628194 1_555
O5 Pr2 2.790440 1_555
O6 V3 1.993684 1_555
O6 V2 1.995114 1_565
O6 Pr0 2.425521 1_555
O6 Pr3 2.628194 1_555
O6 Pr1 2.790440 1_455
O7 V3 1.993684 1_555
O7 V2 1.995114 1_655
O7 Pr1 2.425521 1_555
O7 Pr2 2.628194 1_555
O7 Pr0 2.790440 1_655
O8 V3 2.038904 1_555
O8 V1 2.038904 1_555
O8 Pr0 2.356053 1_655
O8 Pr3 2.464611 1_555
O9 V1 2.038904 1_556
O9 V3 2.038904 1_555
O9 Pr1 2.356053 1_455
O9 Pr2 2.464611 1_555
O10 V0 2.038904 1_566
O10 V2 2.038904 1_565
O10 Pr2 2.356053 1_565
O10 Pr1 2.464611 1_455
O11 V2 2.038904 1_655
O11 V0 2.038904 1_655
O11 Pr3 2.356053 1_545
O11 Pr0 2.464611 1_655
