# generated using pymatgen
data_Nd12(MnC3)5
_symmetry_space_group_name_H-M   'P 1'
_cell_length_a   5.33050287
_cell_length_b   10.76931230
_cell_length_c   10.76924312
_cell_angle_alpha   120.00026876
_cell_angle_beta   90.00005517
_cell_angle_gamma   89.99996317
_symmetry_Int_Tables_number   1
_chemical_formula_structural   Nd12(MnC3)5
_chemical_formula_sum   'Nd12 Mn5 C15'
_cell_volume   535.39065886
_cell_formula_units_Z   1
loop_
 _symmetry_equiv_pos_site_id
 _symmetry_equiv_pos_as_xyz
  1  'x, y, z'
loop_
 _atom_site_type_symbol
 _atom_site_label
 _atom_site_symmetry_multiplicity
 _atom_site_fract_x
 _atom_site_fract_y
 _atom_site_fract_z
 _atom_site_occupancy
  Nd  Nd0  1  0.50000096  0.20702946  0.20705031  1
  Nd  Nd1  1  0.50000003  -0.00001417  0.79296086  1
  Nd  Nd2  1  0.50000066  0.79295841  -0.00000881  1
  Nd  Nd3  1  0.00000008  0.72878713  0.18660061  1
  Nd  Nd4  1  0.00000013  0.45782430  0.27122216  1
  Nd  Nd5  1  -0.00000029  0.54218354  0.81337450  1
  Nd  Nd6  1  0.00000007  0.81336931  0.54217606  1
  Nd  Nd7  1  -0.00000063  0.18662235  0.72877809  1
  Nd  Nd8  1  -0.00000029  0.27120424  0.45782625  1
  Nd  Nd9  1  0.50000010  0.57654458  0.57656267  1
  Nd  Nd10  1  0.49999992  0.00001140  0.42344727  1
  Nd  Nd11  1  0.50000015  0.42345355  -0.00001080  1
  Mn  Mn0  1  0.00000066  0.84730002  0.84732670  1
  Mn  Mn1  1  -0.00000011  -0.00001356  0.15268428  1
  Mn  Mn2  1  0.00000043  0.15268416  -0.00000535  1
  Mn  Mn3  1  0.49999839  0.66666116  0.33333065  1
  Mn  Mn4  1  0.49999840  0.33333067  0.66666204  1
  C  C0  1  -0.00000004  0.67711058  0.67711942  1
  C  C1  1  0.00000112  0.00000964  0.32288567  1
  C  C2  1  0.00000018  0.32289093  -0.00000256  1
  C  C3  1  0.00000069  0.19921367  0.19922831  1
  C  C4  1  -0.00000009  -0.00001095  0.80078777  1
  C  C5  1  0.00000069  0.80080418  -0.00000729  1
  C  C6  1  -0.00000010  0.55283243  0.55282057  1
  C  C7  1  -0.00000013  0.99998770  0.44715671  1
  C  C8  1  -0.00000006  0.44718108  0.00001630  1
  C  C9  1  0.50000018  0.71377491  0.19761743  1
  C  C10  1  0.49999991  0.48388061  0.28623573  1
  C  C11  1  0.49999963  0.51617130  0.80241028  1
  C  C12  1  0.50000005  0.80237398  0.51612964  1
  C  C13  1  0.49999960  0.19760386  0.71377390  1
  C  C14  1  0.49999974  0.28623755  0.48385064  1
loop_
_geom_bond_atom_site_label_1
_geom_bond_atom_site_label_2
_geom_bond_distance
_geom_bond_site_symmetry_2
C0 C6 1.338492 1_555
C0 Mn0 1.832906 1_555
C0 Nd5 2.529185 1_555
C0 Nd6 2.529371 1_555
C0 Nd9 2.876870 1_455
C0 Nd9 2.876872 1_555
C1 C7 1.338423 1_545
C1 Mn1 1.832815 1_555
C1 Nd8 2.529299 1_555
C1 Nd3 2.529560 1_545
C1 Nd10 2.876862 1_555
C1 Nd10 2.876876 1_455
C2 C8 1.338418 1_555
C2 Mn2 1.832995 1_555
C2 Nd7 2.529514 1_554
C2 Nd4 2.529564 1_555
C2 Nd11 2.876895 1_455
C2 Nd11 2.876896 1_555
C3 Mn1 1.944001 1_555
C3 Mn2 1.944100 1_555
C3 Nd8 2.489506 1_555
C3 Nd4 2.489647 1_555
C3 Nd0 2.666580 1_455
C3 Nd0 2.666583 1_555
C4 Mn2 1.943874 1_556
C4 Mn0 1.944026 1_545
C4 Nd6 2.489644 1_545
C4 Nd7 2.489942 1_555
C4 Nd1 2.666583 1_455
C4 Nd1 2.666584 1_555
C5 Mn0 1.943460 1_554
C5 Mn1 1.943689 1_565
C5 Nd5 2.489718 1_554
C5 Nd3 2.489726 1_555
C5 Nd2 2.666590 1_555
C5 Nd2 2.666590 1_455
C6 Nd4 2.672201 1_555
C6 Nd8 2.672550 1_555
C6 Nd9 2.677471 1_455
C6 Nd9 2.677473 1_555
C6 Nd6 2.864841 1_555
C6 Nd5 2.865032 1_555
C7 Nd7 2.672475 1_565
C7 Nd6 2.672599 1_555
C7 Nd10 2.677466 1_465
C7 Nd10 2.677467 1_565
C7 Nd3 2.865027 1_555
C7 Nd8 2.865092 1_565
C8 Nd3 2.672263 1_555
C8 Nd5 2.672692 1_554
C8 Nd11 2.677458 1_455
C8 Nd11 2.677460 1_555
C8 Nd4 2.865091 1_555
C8 Nd7 2.865254 1_554
C9 Mn3 1.770611 1_555
C9 Nd2 2.659266 1_555
C9 Nd3 2.676370 1_655
C9 Nd3 2.676371 1_555
C9 Nd11 2.765997 1_555
C9 Nd10 2.814253 1_565
C10 Mn3 1.770187 1_555
C10 Nd0 2.659697 1_555
C10 Nd4 2.676392 1_555
C10 Nd4 2.676394 1_655
C10 Nd9 2.766107 1_555
C10 Nd11 2.814283 1_555
C11 Mn4 1.770814 1_555
C11 Nd2 2.658971 1_556
C11 Nd5 2.676360 1_555
C11 Nd5 2.676361 1_655
C11 Nd11 2.765693 1_556
C11 Nd9 2.814205 1_555
C12 Mn3 1.770391 1_555
C12 Nd1 2.659383 1_565
C12 Nd6 2.676388 1_655
C12 Nd6 2.676388 1_555
C12 Nd10 2.766016 1_565
C12 Nd9 2.814452 1_555
C13 Mn4 1.770745 1_555
C13 Nd1 2.659217 1_555
C13 Nd7 2.676334 1_655
C13 Nd7 2.676337 1_555
C13 Nd10 2.765949 1_555
C13 Nd11 2.814161 1_556
C14 Mn4 1.770501 1_555
C14 Nd0 2.659093 1_555
C14 Nd8 2.676369 1_555
C14 Nd8 2.676369 1_655
C14 Nd9 2.765818 1_555
C14 Nd10 2.814169 1_555
