# generated using pymatgen
data_Si2Pb5N6
_symmetry_space_group_name_H-M   'P 1'
_cell_length_a   6.40687641
_cell_length_b   7.49420918
_cell_length_c   12.94261924
_cell_angle_alpha   89.99999975
_cell_angle_beta   103.84546902
_cell_angle_gamma   125.79286834
_symmetry_Int_Tables_number   1
_chemical_formula_structural   Si2Pb5N6
_chemical_formula_sum   'Si4 Pb10 N12'
_cell_volume   481.63112035
_cell_formula_units_Z   2
loop_
 _symmetry_equiv_pos_site_id
 _symmetry_equiv_pos_as_xyz
  1  'x, y, z'
loop_
 _atom_site_type_symbol
 _atom_site_label
 _atom_site_symmetry_multiplicity
 _atom_site_fract_x
 _atom_site_fract_y
 _atom_site_fract_z
 _atom_site_occupancy
  Si  Si0  1  0.64579000  0.98058100  0.57466600  1
  Si  Si1  1  0.35421000  0.33479000  0.92533400  1
  Si  Si2  1  0.35421000  0.01941900  0.42533400  1
  Si  Si3  1  0.64579000  0.66521000  0.07466600  1
  Pb  Pb0  1  0.00000000  0.41522400  0.75000000  1
  Pb  Pb1  1  0.00000000  0.58477600  0.25000000  1
  Pb  Pb2  1  0.23173000  0.77619700  0.01917800  1
  Pb  Pb3  1  0.76827000  0.54446700  0.48082200  1
  Pb  Pb4  1  0.76827000  0.22380300  0.98082200  1
  Pb  Pb5  1  0.23173000  0.45553300  0.51917800  1
  Pb  Pb6  1  0.22205700  0.01728200  0.68310400  1
  Pb  Pb7  1  0.77794300  0.79522600  0.81689600  1
  Pb  Pb8  1  0.77794300  0.98271800  0.31689600  1
  Pb  Pb9  1  0.22205700  0.20477400  0.18310400  1
  N  N0  1  0.51049400  0.76347400  0.64910500  1
  N  N1  1  0.48950600  0.25298100  0.85089500  1
  N  N2  1  0.48950600  0.23652600  0.35089500  1
  N  N3  1  0.51049400  0.74701900  0.14910500  1
  N  N4  1  0.49880900  0.12553100  0.56817100  1
  N  N5  1  0.50119100  0.62672100  0.93182900  1
  N  N6  1  0.50119100  0.87446900  0.43182900  1
  N  N7  1  0.49880900  0.37327900  0.06817100  1
  N  N8  1  0.99837700  0.18283300  0.62357000  1
  N  N9  1  0.00162300  0.18445600  0.87643000  1
  N  N10  1  0.00162300  0.81716700  0.37643000  1
  N  N11  1  0.99837700  0.81554400  0.12357000  1
loop_
_geom_bond_atom_site_label_1
_geom_bond_atom_site_label_2
_geom_bond_distance
_geom_bond_site_symmetry_2
N0 Si0 1.754095 1_555
N0 Pb5 2.254944 1_555
N0 Pb7 2.334720 1_555
N1 Si1 1.754085 1_555
N1 Pb4 2.254949 1_555
N1 Pb6 2.334725 1_555
N2 Si2 1.754095 1_555
N2 Pb3 2.254944 1_555
N2 Pb9 2.334720 1_555
N3 Si3 1.754085 1_555
N3 Pb2 2.254949 1_555
N3 Pb8 2.334725 1_555
N4 Si2 1.796340 1_555
N4 Si0 1.797922 1_545
N4 Pb6 2.365297 1_555
N5 Si3 1.796338 1_556
N5 Si1 1.797922 1_555
N5 Pb7 2.365298 1_555
N6 Si0 1.796340 1_555
N6 Si2 1.797922 1_565
N6 Pb8 2.365297 1_555
N7 Si1 1.796338 1_554
N7 Si3 1.797922 1_555
N7 Pb9 2.365298 1_555
N8 Si0 1.763980 1_545
N8 Pb5 2.372786 1_655
N8 Pb0 2.383590 1_655
N8 Pb6 2.395408 1_655
N9 Si1 1.763981 1_555
N9 Pb4 2.372786 1_455
N9 Pb0 2.383590 1_555
N9 Pb7 2.395402 1_445
N10 Si2 1.763980 1_565
N10 Pb3 2.372786 1_455
N10 Pb1 2.383590 1_555
N10 Pb8 2.395408 1_455
N11 Si3 1.763981 1_555
N11 Pb2 2.372786 1_655
N11 Pb1 2.383590 1_655
N11 Pb9 2.395402 1_665
