# generated using pymatgen
data_Gd3ReB7
_symmetry_space_group_name_H-M   'P 1'
_cell_length_a   8.20350929
_cell_length_b   8.20350929
_cell_length_c   9.43893700
_cell_angle_alpha   90.00000000
_cell_angle_beta   90.00000000
_cell_angle_gamma   155.00301010
_symmetry_Int_Tables_number   1
_chemical_formula_structural   Gd3ReB7
_chemical_formula_sum   'Gd6 Re2 B14'
_cell_volume   268.42425861
_cell_formula_units_Z   2
loop_
 _symmetry_equiv_pos_site_id
 _symmetry_equiv_pos_as_xyz
  1  'x, y, z'
loop_
 _atom_site_type_symbol
 _atom_site_label
 _atom_site_symmetry_multiplicity
 _atom_site_fract_x
 _atom_site_fract_y
 _atom_site_fract_z
 _atom_site_occupancy
  Gd  Gd0  1  0.89461800  0.10538200  0.43869300  1
  Gd  Gd1  1  0.10538200  0.89461800  0.56130700  1
  Gd  Gd2  1  0.89461800  0.10538200  0.06130700  1
  Gd  Gd3  1  0.10538200  0.89461800  0.93869300  1
  Gd  Gd4  1  0.24386500  0.75613500  0.25000000  1
  Gd  Gd5  1  0.75613500  0.24386500  0.75000000  1
  Re  Re0  1  0.05374500  0.94625500  0.25000000  1
  Re  Re1  1  0.94625500  0.05374500  0.75000000  1
  B  B0  1  0.72689100  0.27310900  0.46757900  1
  B  B1  1  0.27310900  0.72689100  0.53242100  1
  B  B2  1  0.72689100  0.27310900  0.03242100  1
  B  B3  1  0.27310900  0.72689100  0.96757900  1
  B  B4  1  0.63229400  0.36770600  0.15039100  1
  B  B5  1  0.36770600  0.63229400  0.84960900  1
  B  B6  1  0.63229400  0.36770600  0.34960900  1
  B  B7  1  0.36770600  0.63229400  0.65039100  1
  B  B8  1  0.52169200  0.47830800  0.09542900  1
  B  B9  1  0.47830800  0.52169200  0.90457100  1
  B  B10  1  0.52169200  0.47830800  0.40457100  1
  B  B11  1  0.47830800  0.52169200  0.59542900  1
  B  B12  1  0.45946000  0.54054000  0.25000000  1
  B  B13  1  0.54054000  0.45946000  0.75000000  1
loop_
_geom_bond_atom_site_label_1
_geom_bond_atom_site_label_2
_geom_bond_distance
_geom_bond_site_symmetry_2
B0 B6 1.880415 1_555
B0 B1 2.018554 1_545
B0 B1 2.018554 1_655
B0 Gd0 2.700484 1_555
B0 Gd5 2.706599 1_555
B0 Gd4 2.728287 1_655
B0 Gd4 2.728287 1_545
B0 Gd1 2.779004 1_655
B0 Gd1 2.779004 1_545
B1 B7 1.880415 1_555
B1 Gd1 2.700484 1_555
B1 Gd4 2.706599 1_555
B1 Gd5 2.728287 1_565
B1 Gd5 2.728287 1_455
B1 Gd0 2.779004 1_565
B1 Gd0 2.779004 1_455
B2 B4 1.880415 1_555
B2 B3 2.018554 1_544
B2 B3 2.018554 1_654
B2 Gd2 2.700484 1_555
B2 Gd5 2.706599 1_554
B2 Gd4 2.728287 1_655
B2 Gd4 2.728287 1_545
B2 Gd3 2.779004 1_654
B2 Gd3 2.779004 1_544
B3 B5 1.880415 1_555
B3 Gd3 2.700484 1_555
B3 Gd4 2.706599 1_556
B3 Gd5 2.728287 1_565
B3 Gd5 2.728287 1_455
B3 Gd2 2.779004 1_566
B3 Gd2 2.779004 1_456
B4 B8 1.846039 1_555
B4 B6 1.880406 1_555
B4 Re0 2.370436 1_655
B4 Re0 2.370436 1_545
B4 Gd4 2.688834 1_655
B4 Gd4 2.688834 1_545
B4 Gd3 2.707496 1_654
B4 Gd3 2.707496 1_544
B5 B9 1.846039 1_555
B5 B7 1.880406 1_555
B5 Re1 2.370436 1_565
B5 Re1 2.370436 1_455
B5 Gd5 2.688834 1_565
B5 Gd5 2.688834 1_455
B5 Gd2 2.707496 1_566
B5 Gd2 2.707496 1_456
B6 Re0 2.370436 1_655
B6 Re0 2.370436 1_545
B6 Gd4 2.688834 1_655
B6 Gd4 2.688834 1_545
B6 Gd1 2.707496 1_655
B6 Gd1 2.707496 1_545
B7 Re1 2.370436 1_565
B7 Re1 2.370436 1_455
B7 Gd5 2.688834 1_565
B7 Gd5 2.688834 1_455
B7 Gd0 2.707496 1_565
B7 Gd0 2.707496 1_455
B8 B9 1.930887 1_554
B8 Re0 2.354598 1_545
B8 Re0 2.354598 1_655
B8 Gd3 2.671643 1_654
B8 Gd3 2.671643 1_544
B8 Gd2 2.720085 1_565
B8 Gd2 2.720085 1_455
B9 Re1 2.354598 1_455
B9 Re1 2.354598 1_565
B9 Gd2 2.671643 1_456
B9 Gd2 2.671643 1_566
B9 Gd3 2.720085 1_655
B9 Gd3 2.720085 1_545
B10 B12 1.767014 1_555
B10 B6 1.846039 1_555
B10 B11 1.930887 1_555
B10 Re0 2.354598 1_545
B10 Re0 2.354598 1_655
B10 Gd1 2.671643 1_655
B10 Gd1 2.671643 1_545
B10 Gd0 2.720085 1_565
B10 Gd0 2.720085 1_455
B11 B13 1.767014 1_555
B11 B7 1.846039 1_555
B11 Re1 2.354598 1_455
B11 Re1 2.354598 1_565
B11 Gd0 2.671643 1_455
B11 Gd0 2.671643 1_565
B11 Gd1 2.720085 1_655
B11 Gd1 2.720085 1_545
B12 B8 1.767014 1_555
B12 Re0 2.330840 1_655
B12 Re0 2.330840 1_545
B12 Gd2 2.720820 1_565
B12 Gd0 2.720820 1_565
B12 Gd2 2.720820 1_455
B12 Gd0 2.720820 1_455
B13 B9 1.767014 1_555
B13 Re1 2.330840 1_565
B13 Re1 2.330840 1_455
B13 Gd3 2.720820 1_655
B13 Gd1 2.720820 1_655
B13 Gd3 2.720820 1_545
B13 Gd1 2.720820 1_545
