# generated using pymatgen
data_Th(BOs)4
_symmetry_space_group_name_H-M   'P 1'
_cell_length_a   7.63376700
_cell_length_b   7.63376700
_cell_length_c   4.01398200
_cell_angle_alpha   90.00000000
_cell_angle_beta   90.00000000
_cell_angle_gamma   90.00000000
_symmetry_Int_Tables_number   1
_chemical_formula_structural   Th(BOs)4
_chemical_formula_sum   'Th2 B8 Os8'
_cell_volume   233.91238708
_cell_formula_units_Z   2
loop_
 _symmetry_equiv_pos_site_id
 _symmetry_equiv_pos_as_xyz
  1  'x, y, z'
loop_
 _atom_site_type_symbol
 _atom_site_label
 _atom_site_symmetry_multiplicity
 _atom_site_fract_x
 _atom_site_fract_y
 _atom_site_fract_z
 _atom_site_occupancy
  Th  Th0  1  0.25000000  0.25000000  0.25000000  1
  Th  Th1  1  0.75000000  0.75000000  0.75000000  1
  B  B0  1  0.91299300  0.03022000  0.36075700  1
  B  B1  1  0.58700700  0.46978000  0.36075700  1
  B  B2  1  0.53022000  0.08700700  0.86075700  1
  B  B3  1  0.96978000  0.41299300  0.86075700  1
  B  B4  1  0.08700700  0.96978000  0.63924300  1
  B  B5  1  0.41299300  0.53022000  0.63924300  1
  B  B6  1  0.46978000  0.91299300  0.13924300  1
  B  B7  1  0.03022000  0.58700700  0.13924300  1
  Os  Os0  1  0.39550900  0.64282200  0.13968400  1
  Os  Os1  1  0.10449100  0.85717800  0.13968400  1
  Os  Os2  1  0.14282200  0.60449100  0.63968400  1
  Os  Os3  1  0.35717800  0.89550900  0.63968400  1
  Os  Os4  1  0.60449100  0.35717800  0.86031600  1
  Os  Os5  1  0.89550900  0.14282200  0.86031600  1
  Os  Os6  1  0.85717800  0.39550900  0.36031600  1
  Os  Os7  1  0.64282200  0.10449100  0.36031600  1
loop_
_geom_bond_atom_site_label_1
_geom_bond_atom_site_label_2
_geom_bond_distance
_geom_bond_site_symmetry_2
B0 B4 1.796396 1_645
B0 Os7 2.138935 1_555
B0 Os1 2.160879 1_645
B0 Os5 2.185772 1_555
B0 Os5 2.189020 1_554
B0 Th1 2.926635 1_545
B0 Th0 3.103374 1_655
B0 Th1 3.483423 1_544
B1 B5 1.796396 1_555
B1 Os6 2.138935 1_555
B1 Os0 2.160879 1_555
B1 Os4 2.185772 1_555
B1 Os4 2.189020 1_554
B1 Th1 2.926635 1_555
B1 Th0 3.103374 1_555
B1 Th1 3.483423 1_554
B2 B6 1.796396 1_546
B2 Os4 2.138935 1_555
B2 Os3 2.160879 1_545
B2 Os7 2.185772 1_556
B2 Os7 2.189020 1_555
B2 Th0 2.926635 1_556
B2 Th1 3.103374 1_545
B2 Th0 3.483423 1_555
B3 B7 1.796396 1_656
B3 Os5 2.138935 1_555
B3 Os2 2.160879 1_655
B3 Os6 2.185772 1_556
B3 Os6 2.189020 1_555
B3 Th0 2.926635 1_656
B3 Th1 3.103374 1_555
B3 Th0 3.483423 1_655
B4 Os3 2.138935 1_555
B4 Os5 2.160879 1_465
B4 Os1 2.185772 1_555
B4 Os1 2.189020 1_556
B4 Th0 2.926635 1_565
B4 Th1 3.103374 1_455
B4 Th0 3.483423 1_566
B5 Os2 2.138935 1_555
B5 Os4 2.160879 1_555
B5 Os0 2.185772 1_555
B5 Os0 2.189020 1_556
B5 Th0 2.926635 1_555
B5 Th1 3.103374 1_555
B5 Th0 3.483423 1_556
B6 Os0 2.138935 1_555
B6 Os7 2.160879 1_565
B6 Os3 2.185772 1_554
B6 Os3 2.189020 1_555
B6 Th1 2.926635 1_554
B6 Th0 3.103374 1_565
B6 Th1 3.483423 1_555
B7 Os1 2.138935 1_555
B7 Os6 2.160879 1_455
B7 Os2 2.185772 1_554
B7 Os2 2.189020 1_555
B7 Th1 2.926635 1_454
B7 Th0 3.103374 1_555
B7 Th1 3.483423 1_455
Os0 Th0 3.228341 1_555
Os0 Th1 3.230954 1_554
Os1 Th0 3.228341 1_565
Os1 Th1 3.230954 1_454
Os2 Th1 3.228341 1_455
Os2 Th0 3.230954 1_555
Os3 Th1 3.228341 1_555
Os3 Th0 3.230954 1_565
Os4 Th1 3.228341 1_555
Os4 Th0 3.230954 1_556
Os5 Th1 3.228341 1_545
Os5 Th0 3.230954 1_656
Os6 Th0 3.228341 1_655
Os6 Th1 3.230954 1_555
Os7 Th0 3.228341 1_555
Os7 Th1 3.230954 1_545
