# generated using pymatgen
data_Ca8(YbSe4)3
_symmetry_space_group_name_H-M   'P 1'
_cell_length_a   5.94096300
_cell_length_b   5.94096300
_cell_length_c   17.86001000
_cell_angle_alpha   90.00000000
_cell_angle_beta   90.00000000
_cell_angle_gamma   90.00000000
_symmetry_Int_Tables_number   1
_chemical_formula_structural   Ca8(YbSe4)3
_chemical_formula_sum   'Ca8 Yb3 Se12'
_cell_volume   630.36979177
_cell_formula_units_Z   1
loop_
 _symmetry_equiv_pos_site_id
 _symmetry_equiv_pos_as_xyz
  1  'x, y, z'
loop_
 _atom_site_type_symbol
 _atom_site_label
 _atom_site_symmetry_multiplicity
 _atom_site_fract_x
 _atom_site_fract_y
 _atom_site_fract_z
 _atom_site_occupancy
  Ca  Ca0  1  0.00000000  0.00000000  0.33262100  1
  Ca  Ca1  1  0.00000000  0.50000000  0.50000100  1
  Ca  Ca2  1  0.00000000  0.00000000  0.66737900  1
  Ca  Ca3  1  0.00000000  0.50000000  0.83430700  1
  Ca  Ca4  1  0.50000000  0.00000000  0.16569300  1
  Ca  Ca5  1  0.50000000  0.50000000  0.33293700  1
  Ca  Ca6  1  0.50000000  0.00000000  0.49999900  1
  Ca  Ca7  1  0.50000000  0.50000000  0.66706300  1
  Yb  Yb0  1  0.00000000  0.50000000  0.16583500  1
  Yb  Yb1  1  0.50000000  0.50000000  0.00000000  1
  Yb  Yb2  1  0.50000000  0.00000000  0.83416500  1
  Se  Se0  1  0.50000000  0.50000000  0.16662000  1
  Se  Se1  1  0.50000000  0.00000000  0.33370300  1
  Se  Se2  1  0.00000000  0.00000000  0.16632100  1
  Se  Se3  1  0.50000000  0.50000000  0.50000000  1
  Se  Se4  1  0.50000000  0.00000000  0.66675300  1
  Se  Se5  1  0.00000000  0.50000000  0.33324700  1
  Se  Se6  1  0.00000000  0.00000000  0.50000000  1
  Se  Se7  1  0.50000000  0.50000000  0.83338000  1
  Se  Se8  1  0.50000000  0.00000000  0.99962700  1
  Se  Se9  1  0.00000000  0.50000000  0.66629700  1
  Se  Se10  1  0.00000000  0.00000000  0.83368000  1
  Se  Se11  1  0.00000000  0.50000000  0.00037300  1
loop_
_geom_bond_atom_site_label_1
_geom_bond_atom_site_label_2
_geom_bond_distance
_geom_bond_site_symmetry_2
Ca0 Se2 2.970120 1_555
Ca0 Se5 2.970503 1_555
Ca0 Se5 2.970503 1_545
Ca0 Se1 2.970544 1_555
Ca0 Se1 2.970544 1_455
Ca0 Se6 2.989391 1_555
Ca1 Se9 2.970048 1_555
Ca1 Se3 2.970482 1_455
Ca1 Se6 2.970482 1_565
Ca1 Se3 2.970482 1_555
Ca1 Se6 2.970482 1_555
Ca1 Se5 2.978228 1_555
Ca2 Se10 2.970138 1_555
Ca2 Se4 2.970503 1_555
Ca2 Se4 2.970503 1_455
Ca2 Se9 2.970544 1_555
Ca2 Se9 2.970544 1_545
Ca2 Se6 2.989391 1_555
Ca3 Se11 2.965940 1_556
Ca3 Se10 2.970503 1_555
Ca3 Se10 2.970503 1_565
Ca3 Se7 2.970528 1_555
Ca3 Se7 2.970528 1_455
Ca3 Se9 3.000660 1_555
Ca4 Se8 2.965940 1_554
Ca4 Se2 2.970503 1_555
Ca4 Se2 2.970503 1_655
Ca4 Se0 2.970528 1_545
Ca4 Se0 2.970528 1_555
Ca4 Se1 3.000660 1_555
Ca5 Se0 2.970423 1_555
Ca5 Se5 2.970487 1_555
Ca5 Se5 2.970487 1_655
Ca5 Se1 2.970513 1_555
Ca5 Se1 2.970513 1_565
Ca5 Se3 2.983747 1_555
Ca6 Se1 2.970048 1_555
Ca6 Se3 2.970482 1_545
Ca6 Se3 2.970482 1_555
Ca6 Se6 2.970482 1_655
Ca6 Se6 2.970482 1_555
Ca6 Se4 2.978228 1_555
Ca7 Se7 2.970423 1_555
Ca7 Se4 2.970487 1_565
Ca7 Se4 2.970487 1_555
Ca7 Se9 2.970513 1_555
Ca7 Se9 2.970513 1_655
Ca7 Se3 2.983747 1_555
Se0 Yb0 2.970515 1_555
Se0 Yb0 2.970515 1_655
Se0 Yb1 2.975835 1_555
Se2 Yb0 2.970494 1_545
Se2 Yb0 2.970494 1_555
Se4 Yb2 2.989980 1_555
Se5 Yb0 2.989980 1_555
Se7 Yb2 2.970515 1_565
Se7 Yb2 2.970515 1_555
Se7 Yb1 2.975835 1_556
Se8 Yb2 2.955153 1_555
Se8 Yb1 2.970489 1_556
Se8 Yb1 2.970489 1_546
Se10 Yb2 2.970494 1_455
Se10 Yb2 2.970494 1_555
Se11 Yb0 2.955153 1_555
Se11 Yb1 2.970489 1_455
Se11 Yb1 2.970489 1_555
