# generated using pymatgen
data_SrPrZnRuO6
_symmetry_space_group_name_H-M   'P 1'
_cell_length_a   5.73522800
_cell_length_b   5.61606400
_cell_length_c   9.72498777
_cell_angle_alpha   54.78673414
_cell_angle_beta   90.00000000
_cell_angle_gamma   90.00000000
_symmetry_Int_Tables_number   1
_chemical_formula_structural   SrPrZnRuO6
_chemical_formula_sum   'Sr2 Pr2 Zn2 Ru2 O12'
_cell_volume   255.91746382
_cell_formula_units_Z   2
loop_
 _symmetry_equiv_pos_site_id
 _symmetry_equiv_pos_as_xyz
  1  'x, y, z'
loop_
 _atom_site_type_symbol
 _atom_site_label
 _atom_site_symmetry_multiplicity
 _atom_site_fract_x
 _atom_site_fract_y
 _atom_site_fract_z
 _atom_site_occupancy
  Sr  Sr0  1  0.21183900  0.24334600  0.25031000  1
  Sr  Sr1  1  0.78816100  0.24334600  0.75031000  1
  Pr  Pr0  1  0.30642500  0.76295100  0.75172800  1
  Pr  Pr1  1  0.69357500  0.76295100  0.25172800  1
  Zn  Zn0  1  0.75998700  0.49961900  0.00170100  1
  Zn  Zn1  1  0.24001300  0.49961900  0.50170100  1
  Ru  Ru0  1  0.75221900  0.00057300  0.49974500  1
  Ru  Ru1  1  0.24778100  0.00057300  0.99974500  1
  O  O0  1  0.76593800  0.33601200  0.25756200  1
  O  O1  1  0.23406200  0.33601200  0.75756200  1
  O  O2  1  0.72466700  0.68759200  0.74252100  1
  O  O3  1  0.27533300  0.68759200  0.24252100  1
  O  O4  1  0.94500800  0.75742600  0.45388300  1
  O  O5  1  0.05499200  0.75742600  0.95388300  1
  O  O6  1  0.53979500  0.23529200  0.53909900  1
  O  O7  1  0.46020500  0.23529200  0.03909900  1
  O  O8  1  0.03917500  0.14337200  0.54647400  1
  O  O9  1  0.96082500  0.14337200  0.04647400  1
  O  O10  1  0.47698000  0.83381600  0.45697800  1
  O  O11  1  0.52302000  0.83381600  0.95697800  1
loop_
_geom_bond_atom_site_label_1
_geom_bond_atom_site_label_2
_geom_bond_distance
_geom_bond_site_symmetry_2
O0 Ru0 1.996335 1_555
O0 Zn0 2.097653 1_555
O0 Pr1 2.401587 1_555
O0 Sr0 2.618806 1_655
O1 Ru1 1.996335 1_555
O1 Zn1 2.097653 1_555
O1 Pr0 2.401587 1_555
O1 Sr1 2.618806 1_455
O2 Ru0 1.975581 1_565
O2 Zn0 2.107110 1_556
O2 Pr0 2.446356 1_555
O2 Sr1 2.478910 1_555
O3 Ru1 1.975581 1_564
O3 Zn1 2.107110 1_555
O3 Pr1 2.446356 1_555
O3 Sr0 2.478910 1_555
O4 Ru0 1.997125 1_565
O4 Zn1 2.097301 1_655
O4 Pr1 2.423846 1_555
O4 Sr0 2.734588 1_665
O4 Sr1 2.802964 1_555
O5 Ru1 1.997125 1_565
O5 Zn0 2.097301 1_456
O5 Pr0 2.423846 1_555
O5 Sr1 2.734588 1_465
O5 Sr0 2.802964 1_556
O6 Ru0 1.987505 1_555
O6 Zn1 2.160872 1_555
O6 Sr1 2.521354 1_555
O6 Pr0 2.603495 1_545
O6 Pr1 2.796224 1_555
O7 Ru1 1.987505 1_554
O7 Zn0 2.160872 1_555
O7 Sr0 2.521354 1_555
O7 Pr1 2.603495 1_545
O7 Pr0 2.796224 1_554
O8 Ru0 1.994613 1_455
O8 Zn1 2.124744 1_555
O8 Pr0 2.445418 1_545
O8 Sr1 2.756958 1_455
O8 Sr0 2.779648 1_555
O9 Ru1 1.994613 1_654
O9 Zn0 2.124744 1_555
O9 Pr1 2.445418 1_545
O9 Sr0 2.756958 1_655
O9 Sr1 2.779648 1_554
O10 Ru0 1.997771 1_565
O10 Zn1 2.148826 1_555
O10 Sr0 2.512107 1_565
O10 Pr1 2.569409 1_555
O10 Pr0 2.831268 1_555
O11 Ru1 1.997771 1_565
O11 Zn0 2.148826 1_556
O11 Sr1 2.512107 1_565
O11 Pr0 2.569409 1_555
O11 Pr1 2.831268 1_556
