# generated using pymatgen
data_KLiLuF5
_symmetry_space_group_name_H-M   'P 1'
_cell_length_a   6.31402584
_cell_length_b   6.15288408
_cell_length_c   11.56008712
_cell_angle_alpha   90.00000000
_cell_angle_beta   90.00000000
_cell_angle_gamma   114.04645196
_symmetry_Int_Tables_number   1
_chemical_formula_structural   KLiLuF5
_chemical_formula_sum   'K4 Li4 Lu4 F20'
_cell_volume   410.12800180
_cell_formula_units_Z   4
loop_
 _symmetry_equiv_pos_site_id
 _symmetry_equiv_pos_as_xyz
  1  'x, y, z'
loop_
 _atom_site_type_symbol
 _atom_site_label
 _atom_site_symmetry_multiplicity
 _atom_site_fract_x
 _atom_site_fract_y
 _atom_site_fract_z
 _atom_site_occupancy
  K  K0  1  0.94756298  0.96250054  0.34889766  1
  K  K1  1  0.05243702  0.03749946  0.65110234  1
  K  K2  1  0.05243702  0.53749946  0.84889766  1
  K  K3  1  0.94756298  0.46250054  0.15110234  1
  Li  Li0  1  0.55889816  0.96199031  0.74496805  1
  Li  Li1  1  0.44110184  0.03800969  0.25503195  1
  Li  Li2  1  0.44110184  0.53800969  0.24496805  1
  Li  Li3  1  0.55889816  0.46199031  0.75503195  1
  Lu  Lu0  1  0.68195414  0.82071883  0.99756764  1
  Lu  Lu1  1  0.31804586  0.17928117  0.00243236  1
  Lu  Lu2  1  0.31804586  0.67928117  0.49756764  1
  Lu  Lu3  1  0.68195414  0.32071883  0.50243236  1
  F  F0  1  0.72331505  0.77899421  0.80784618  1
  F  F1  1  0.27668495  0.22100579  0.19215382  1
  F  F2  1  0.27668495  0.72100579  0.30784618  1
  F  F3  1  0.72331505  0.27899421  0.69215382  1
  F  F4  1  0.66358638  0.95112774  0.53021694  1
  F  F5  1  0.33641362  0.04887226  0.46978306  1
  F  F6  1  0.33641362  0.54887226  0.03021694  1
  F  F7  1  0.66358638  0.45112774  0.96978306  1
  F  F8  1  0.95473751  0.67180327  0.50753228  1
  F  F9  1  0.04526249  0.32819673  0.49246772  1
  F  F10  1  0.04526249  0.82819673  0.00753228  1
  F  F11  1  0.95473751  0.17180327  0.99246772  1
  F  F12  1  0.46540873  0.96678040  0.89598352  1
  F  F13  1  0.53459127  0.03321960  0.10401648  1
  F  F14  1  0.53459127  0.53321960  0.39598352  1
  F  F15  1  0.46540873  0.46678040  0.60401648  1
  F  F16  1  0.28788517  0.77397327  0.67219701  1
  F  F17  1  0.71211483  0.22602673  0.32780299  1
  F  F18  1  0.71211483  0.72602673  0.17219701  1
  F  F19  1  0.28788517  0.27397327  0.82780299  1
loop_
_geom_bond_atom_site_label_1
_geom_bond_atom_site_label_2
_geom_bond_distance
_geom_bond_site_symmetry_2
F0 Li3 1.898606 1_555
F0 Li0 1.956127 1_555
F0 Lu0 2.235813 1_555
F0 K1 2.727245 1_665
F0 K2 3.044327 1_655
F1 Li2 1.898606 1_555
F1 Li1 1.956127 1_555
F1 Lu1 2.235813 1_555
F1 K0 2.727245 1_445
F1 K3 3.044327 1_455
F2 Li1 1.898606 1_565
F2 Li2 1.956127 1_555
F2 Lu2 2.235813 1_555
F2 K3 2.727245 1_455
F2 K0 3.044327 1_455
F3 Li0 1.898606 1_545
F3 Li3 1.956127 1_555
F3 Lu3 2.235813 1_555
F3 K2 2.727245 1_655
F3 K1 3.044327 1_655
F4 Lu2 2.173987 1_555
F4 Lu3 2.252331 1_565
F4 Li0 2.576899 1_555
F4 K1 2.683283 1_665
F4 K0 2.740642 1_555
F5 Lu3 2.173987 1_555
F5 Lu2 2.252331 1_545
F5 Li1 2.576899 1_555
F5 K0 2.683283 1_445
F5 K1 2.740642 1_555
F6 Lu0 2.173987 1_554
F6 Lu1 2.252331 1_555
F6 Li2 2.576899 1_555
F6 K3 2.683283 1_455
F6 K2 2.740642 1_554
F7 Lu1 2.173987 1_556
F7 Lu0 2.252331 1_555
F7 Li3 2.576899 1_555
F7 K2 2.683283 1_655
F7 K3 2.740642 1_556
F8 Lu3 2.145754 1_555
F8 Lu2 2.278492 1_655
F8 K0 2.574918 1_555
F8 K1 2.658344 1_665
F9 Lu2 2.145754 1_555
F9 Lu3 2.278492 1_455
F9 K1 2.574918 1_555
F9 K0 2.658344 1_445
F10 Lu1 2.145754 1_565
F10 Lu0 2.278492 1_454
F10 K2 2.574918 1_554
F10 K3 2.658344 1_455
F11 Lu0 2.145754 1_545
F11 Lu1 2.278492 1_656
F11 K3 2.574918 1_556
F11 K2 2.658344 1_655
F12 Li0 1.846928 1_555
F12 Lu0 2.248893 1_555
F12 Lu1 2.254106 1_566
F12 K2 2.908462 1_555
F13 Li1 1.846928 1_555
F13 Lu1 2.248893 1_555
F13 Lu0 2.254106 1_544
F13 K3 2.908462 1_555
F14 Li2 1.846928 1_555
F14 Lu2 2.248893 1_555
F14 Lu3 2.254106 1_555
F14 K0 2.908462 1_555
F15 Li3 1.846928 1_555
F15 Lu3 2.248893 1_555
F15 Lu2 2.254106 1_555
F15 K1 2.908462 1_555
F16 Li0 1.833265 1_555
F16 Lu2 2.131060 1_555
F16 K2 2.595538 1_555
F16 K1 2.619741 1_565
F17 Li1 1.833265 1_555
F17 Lu3 2.131060 1_555
F17 K3 2.595538 1_555
F17 K0 2.619741 1_545
F18 Li2 1.833265 1_555
F18 Lu0 2.131060 1_554
F18 K0 2.595538 1_555
F18 K3 2.619741 1_555
F19 Li3 1.833265 1_555
F19 Lu1 2.131060 1_556
F19 K1 2.595538 1_555
F19 K2 2.619741 1_555
