# generated using pymatgen
data_Nd2ZrSe5
_symmetry_space_group_name_H-M   'P 1'
_cell_length_a   7.73846305
_cell_length_b   8.31723391
_cell_length_c   12.25538468
_cell_angle_alpha   90.00000000
_cell_angle_beta   90.00000000
_cell_angle_gamma   90.00000000
_symmetry_Int_Tables_number   1
_chemical_formula_structural   Nd2ZrSe5
_chemical_formula_sum   'Nd8 Zr4 Se20'
_cell_volume   788.78851136
_cell_formula_units_Z   4
loop_
 _symmetry_equiv_pos_site_id
 _symmetry_equiv_pos_as_xyz
  1  'x, y, z'
loop_
 _atom_site_type_symbol
 _atom_site_label
 _atom_site_symmetry_multiplicity
 _atom_site_fract_x
 _atom_site_fract_y
 _atom_site_fract_z
 _atom_site_occupancy
  Nd  Nd0  1  0.46863479  0.49766428  0.17743955  1
  Nd  Nd1  1  0.03136521  0.00233572  0.67743955  1
  Nd  Nd2  1  0.53136521  0.99766428  0.82256045  1
  Nd  Nd3  1  0.96863479  0.50233572  0.32256045  1
  Nd  Nd4  1  0.53136521  0.50233572  0.82256045  1
  Nd  Nd5  1  0.96863479  0.99766428  0.32256045  1
  Nd  Nd6  1  0.46863479  0.00233572  0.17743955  1
  Nd  Nd7  1  0.03136521  0.49766428  0.67743955  1
  Zr  Zr0  1  0.92289044  0.75000000  0.00693384  1
  Zr  Zr1  1  0.57710956  0.75000000  0.50693384  1
  Zr  Zr2  1  0.07710956  0.25000000  0.99306616  1
  Zr  Zr3  1  0.42289044  0.25000000  0.49306616  1
  Se  Se0  1  0.16138083  0.75000000  0.18201631  1
  Se  Se1  1  0.33861917  0.75000000  0.68201631  1
  Se  Se2  1  0.83861917  0.25000000  0.81798369  1
  Se  Se3  1  0.66138083  0.25000000  0.31798369  1
  Se  Se4  1  0.68133758  0.75000000  0.29328906  1
  Se  Se5  1  0.81866242  0.75000000  0.79328906  1
  Se  Se6  1  0.31866242  0.25000000  0.70671094  1
  Se  Se7  1  0.18133758  0.25000000  0.20671094  1
  Se  Se8  1  0.55444681  0.75000000  0.00406546  1
  Se  Se9  1  0.94555319  0.75000000  0.50406546  1
  Se  Se10  1  0.44555319  0.25000000  0.99593454  1
  Se  Se11  1  0.05444681  0.25000000  0.49593454  1
  Se  Se12  1  0.83632665  0.46365107  0.08815915  1
  Se  Se13  1  0.66367335  0.03634893  0.58815915  1
  Se  Se14  1  0.16367335  0.96365107  0.91184085  1
  Se  Se15  1  0.33632665  0.53634893  0.41184085  1
  Se  Se16  1  0.16367335  0.53634893  0.91184085  1
  Se  Se17  1  0.33632665  0.96365107  0.41184085  1
  Se  Se18  1  0.83632665  0.03634893  0.08815915  1
  Se  Se19  1  0.66367335  0.46365107  0.58815915  1
loop_
_geom_bond_atom_site_label_1
_geom_bond_atom_site_label_2
_geom_bond_distance
_geom_bond_site_symmetry_2
Nd0 Se4 3.021549 1_555
Nd0 Se10 3.036945 1_554
Nd0 Se7 3.051982 1_555
Nd0 Se8 3.059459 1_555
Nd0 Se12 3.061594 1_555
Nd0 Se15 3.066610 1_555
Nd0 Se3 3.071579 1_555
Nd0 Se0 3.171934 1_555
Nd1 Se5 3.021549 1_445
Nd1 Se11 3.036945 1_555
Nd1 Se6 3.051982 1_555
Nd1 Se9 3.059459 1_445
Nd1 Se13 3.061594 1_455
Nd1 Se14 3.066610 1_545
Nd1 Se2 3.071579 1_455
Nd1 Se1 3.171934 1_545
Nd2 Se6 3.021549 1_565
Nd2 Se8 3.036945 1_556
Nd2 Se5 3.051982 1_555
Nd2 Se10 3.059459 1_565
Nd2 Se14 3.061594 1_555
Nd2 Se13 3.066610 1_565
Nd2 Se1 3.071579 1_555
Nd2 Se2 3.171934 1_565
Nd3 Se7 3.021549 1_655
Nd3 Se9 3.036945 1_555
Nd3 Se4 3.051982 1_555
Nd3 Se11 3.059459 1_655
Nd3 Se15 3.061594 1_655
Nd3 Se12 3.066610 1_555
Nd3 Se0 3.071579 1_655
Nd3 Se3 3.171934 1_555
Nd4 Se6 3.021549 1_555
Nd4 Se8 3.036945 1_556
Nd4 Se5 3.051982 1_555
Nd4 Se10 3.059459 1_555
Nd4 Se16 3.061594 1_555
Nd4 Se19 3.066610 1_555
Nd4 Se1 3.071579 1_555
Nd4 Se2 3.171934 1_555
Nd5 Se7 3.021549 1_665
Nd5 Se9 3.036945 1_555
Nd5 Se4 3.051982 1_555
Nd5 Se11 3.059459 1_665
Nd5 Se17 3.061594 1_655
Nd5 Se18 3.066610 1_565
Nd5 Se0 3.071579 1_655
Nd5 Se3 3.171934 1_565
Nd6 Se4 3.021549 1_545
Nd6 Se10 3.036945 1_554
Nd6 Se7 3.051982 1_555
Nd6 Se8 3.059459 1_545
Nd6 Se18 3.061594 1_555
Nd6 Se17 3.066610 1_545
Nd6 Se3 3.071579 1_555
Nd6 Se0 3.171934 1_545
Nd7 Se5 3.021549 1_455
Nd7 Se11 3.036945 1_555
Nd7 Se6 3.051982 1_555
Nd7 Se9 3.059459 1_455
Nd7 Se19 3.061594 1_455
Nd7 Se16 3.066610 1_555
Nd7 Se2 3.071579 1_455
Nd7 Se1 3.171934 1_555
Se0 Zr0 2.830211 1_455
Se1 Zr1 2.830211 1_555
Se2 Zr2 2.830211 1_655
Se3 Zr3 2.830211 1_555
Se4 Zr1 2.739715 1_555
Se5 Zr0 2.739715 1_556
Se6 Zr3 2.739715 1_555
Se7 Zr2 2.739715 1_554
Se8 Zr0 2.851404 1_555
Se9 Zr1 2.851404 1_555
Se10 Zr2 2.851404 1_555
Se11 Zr3 2.851404 1_555
Se12 Zr0 2.666797 1_555
Se12 Zr2 2.826250 1_654
Se13 Zr1 2.666797 1_545
Se13 Zr3 2.826250 1_555
Se14 Zr2 2.666797 1_565
Se14 Zr0 2.826250 1_456
Se15 Zr3 2.666797 1_555
Se15 Zr1 2.826250 1_555
Se16 Zr2 2.666797 1_555
Se16 Zr0 2.826250 1_456
Se17 Zr3 2.666797 1_565
Se17 Zr1 2.826250 1_555
Se18 Zr0 2.666797 1_545
Se18 Zr2 2.826250 1_654
Se19 Zr1 2.666797 1_555
Se19 Zr3 2.826250 1_555
