# generated using pymatgen
data_Li3MnV(PO4)3
_symmetry_space_group_name_H-M   'P 1'
_cell_length_a   9.79412100
_cell_length_b   9.82637219
_cell_length_c   9.90337514
_cell_angle_alpha   85.29558654
_cell_angle_beta   85.33194877
_cell_angle_gamma   88.22759790
_symmetry_Int_Tables_number   1
_chemical_formula_structural   Li3MnV(PO4)3
_chemical_formula_sum   'Li12 Mn4 V4 P12 O48'
_cell_volume   946.46343081
_cell_formula_units_Z   4
loop_
 _symmetry_equiv_pos_site_id
 _symmetry_equiv_pos_as_xyz
  1  'x, y, z'
loop_
 _atom_site_type_symbol
 _atom_site_label
 _atom_site_symmetry_multiplicity
 _atom_site_fract_x
 _atom_site_fract_y
 _atom_site_fract_z
 _atom_site_occupancy
  Li  Li0  1  0.24957500  0.51314300  0.98078700  1
  Li  Li1  1  0.38769100  0.25915700  0.00914900  1
  Li  Li2  1  0.47511600  0.56903100  0.77068800  1
  Li  Li3  1  0.17610400  0.73186800  0.77640100  1
  Li  Li4  1  0.61215100  0.96896000  0.75341800  1
  Li  Li5  1  0.83262200  0.74651600  0.62108200  1
  Li  Li6  1  0.73369500  0.01582100  0.48945500  1
  Li  Li7  1  0.53313200  0.23329600  0.43966900  1
  Li  Li8  1  0.97544700  0.91667300  0.31279200  1
  Li  Li9  1  0.82452100  0.22581400  0.26818600  1
  Li  Li10  1  0.18310200  0.37555800  0.24620400  1
  Li  Li11  1  0.01602300  0.67187600  0.08795300  1
  Mn  Mn0  1  0.99428500  0.46857800  0.52363900  1
  Mn  Mn1  1  0.51011500  0.53311000  0.46939000  1
  Mn  Mn2  1  0.49290900  0.75644500  0.24958500  1
  Mn  Mn3  1  0.72017700  0.74130800  0.02863400  1
  V  V0  1  0.78696700  0.25056200  0.97039000  1
  V  V1  1  0.00614000  0.24996000  0.74858200  1
  V  V2  1  0.21996200  0.02678700  0.75124800  1
  V  V3  1  0.27675400  0.96712000  0.25224900  1
  P  P0  1  0.40492000  0.82351300  0.95026700  1
  P  P1  1  0.89784100  0.94708600  0.82609500  1
  P  P2  1  0.93415200  0.55088800  0.84254600  1
  P  P3  1  0.30764800  0.34324600  0.67945800  1
  P  P4  1  0.70193700  0.32708100  0.66123700  1
  P  P5  1  0.42410500  0.83849700  0.55560200  1
  P  P6  1  0.06660800  0.15001200  0.45062900  1
  P  P7  1  0.79771000  0.67802400  0.34726100  1
  P  P8  1  0.19508800  0.65015700  0.31243900  1
  P  P9  1  0.57843200  0.44710700  0.15858800  1
  P  P10  1  0.59010200  0.05450500  0.18594200  1
  P  P11  1  0.09770300  0.17271300  0.05160700  1
  O  O0  1  0.85311700  0.87495300  0.96785900  1
  O  O1  1  0.56288000  0.82702400  0.91688800  1
  O  O2  1  0.79605500  0.60842600  0.89933700  1
  O  O3  1  0.34356600  0.95905400  0.88777700  1
  O  O4  1  0.34342800  0.69605300  0.90129800  1
  O  O5  1  0.93083500  0.38938600  0.87457400  1
  O  O6  1  0.05877700  0.60203000  0.90794800  1
  O  O7  1  0.12464000  0.16169400  0.89229800  1
  O  O8  1  0.87468200  0.10607700  0.83617200  1
  O  O9  1  0.67624200  0.30593900  0.81841500  1
  O  O10  1  0.05276800  0.91007100  0.79859600  1
  O  O11  1  0.35667200  0.40818200  0.80176700  1
  O  O12  1  0.81028800  0.90814700  0.71495900  1
  O  O13  1  0.94692000  0.59009300  0.68651000  1
  O  O14  1  0.32977400  0.18559700  0.68627800  1
  O  O15  1  0.14975900  0.37914000  0.67131900  1
  O  O16  1  0.28667600  0.87485300  0.63613500  1
  O  O17  1  0.54760100  0.91438000  0.59155400  1
  O  O18  1  0.86764400  0.33353100  0.62234000  1
  O  O19  1  0.63988000  0.46805700  0.61958400  1
  O  O20  1  0.44139800  0.67889100  0.58848500  1
  O  O21  1  0.65485200  0.20741700  0.58922900  1
  O  O22  1  0.07340300  0.12070200  0.60999300  1
  O  O23  1  0.38286400  0.39282700  0.53956700  1
  O  O24  1  0.84133200  0.79748700  0.42371400  1
  O  O25  1  0.13331200  0.59174600  0.45276300  1
  O  O26  1  0.85491200  0.53831800  0.39841200  1
  O  O27  1  0.40546700  0.87335900  0.39942600  1
  O  O28  1  0.63434800  0.67093500  0.37462900  1
  O  O29  1  0.93620500  0.09031900  0.40434800  1
  O  O30  1  0.07213100  0.30623900  0.40947500  1
  O  O31  1  0.19906200  0.08122800  0.38978400  1
  O  O32  1  0.35491800  0.62818700  0.31926900  1
  O  O33  1  0.15172600  0.80443800  0.29350900  1
  O  O34  1  0.56005600  0.41646600  0.31798700  1
  O  O35  1  0.64862500  0.10963200  0.30967100  1
  O  O36  1  0.83928000  0.70365500  0.19245700  1
  O  O37  1  0.62030800  0.89463900  0.18703800  1
  O  O38  1  0.15198200  0.57308600  0.19453500  1
  O  O39  1  0.43302800  0.08714700  0.18095000  1
  O  O40  1  0.59081700  0.60903100  0.12207800  1
  O  O41  1  0.36996600  0.82954100  0.10957800  1
  O  O42  1  0.71631200  0.37637700  0.11569200  1
  O  O43  1  0.94251200  0.20557300  0.09105900  1
  O  O44  1  0.45423900  0.40551300  0.09167600  1
  O  O45  1  0.13143400  0.03360100  0.12580300  1
  O  O46  1  0.19009800  0.28732500  0.08362600  1
  O  O47  1  0.66047600  0.11202700  0.04966600  1
loop_
_geom_bond_atom_site_label_1
_geom_bond_atom_site_label_2
_geom_bond_distance
_geom_bond_site_symmetry_2
Li0 O4 2.108889 1_555
Li0 O6 2.188691 1_555
Li0 O11 2.288560 1_555
Li0 O38 2.362603 1_556
Li0 O46 2.431690 1_556
Li0 O44 2.525710 1_556
Li1 O44 1.870441 1_555
Li1 O46 2.033185 1_555
Li1 O39 2.356625 1_555
Li1 O11 2.456710 1_554
Li2 O11 1.978420 1_555
Li2 O20 2.070217 1_555
Li2 O4 2.188198 1_555
Li2 O19 2.362065 1_555
Li3 O6 2.054214 1_555
Li3 O10 2.112554 1_555
Li3 O4 2.135947 1_555
Li3 O16 2.146073 1_555
Li4 O17 1.893116 1_555
Li4 O12 2.028126 1_555
Li4 O1 2.084002 1_555
Li5 O12 1.903242 1_555
Li5 O13 1.970751 1_555
Li5 O24 1.973209 1_555
Li6 O35 2.153775 1_555
Li6 O29 2.212848 1_555
Li6 O17 2.232722 1_545
Li6 O21 2.282145 1_555
Li6 O24 2.472975 1_545
Li6 O12 2.550609 1_545
Li7 O21 1.971429 1_555
Li7 O35 2.085221 1_555
Li7 O34 2.093609 1_555
Li7 O23 2.340274 1_555
Li8 O24 1.988214 1_555
Li8 O29 2.009435 1_565
Li8 O33 2.024023 1_655
Li8 O45 2.526366 1_665
Li9 O43 2.040867 1_555
Li9 O35 2.090342 1_555
Li9 O29 2.154771 1_555
Li9 O42 2.321600 1_555
Li10 O46 1.885756 1_555
Li10 O30 1.959289 1_555
Li10 O38 1.986964 1_555
Li11 O38 1.952017 1_555
Li11 O6 1.971211 1_554
Li11 O36 1.973094 1_455
Mn0 O25 1.902264 1_655
Mn0 O18 1.986602 1_555
Mn0 O26 1.987269 1_555
Mn0 O13 2.098215 1_555
Mn0 O30 2.117676 1_655
Mn0 O15 2.301945 1_655
Mn1 O23 1.935106 1_555
Mn1 O28 1.975593 1_555
Mn1 O34 1.982182 1_555
Mn1 O20 1.996094 1_555
Mn1 O19 2.082742 1_555
Mn1 O32 2.333609 1_555
Mn2 O37 1.904114 1_555
Mn2 O32 1.924078 1_555
Mn2 O41 1.985748 1_555
Mn2 O28 2.048186 1_555
Mn2 O27 2.065735 1_555
Mn2 O40 2.151598 1_555
Mn3 O0 1.905445 1_554
Mn3 O40 1.965911 1_555
Mn3 O2 1.989026 1_554
Mn3 O36 2.076704 1_555
Mn3 O1 2.086115 1_554
Mn3 O37 2.394694 1_555
O0 P1 1.556024 1_555
O1 P0 1.556313 1_555
O2 P2 1.531792 1_555
O3 P0 1.547189 1_555
O3 V2 1.950808 1_565
O4 P0 1.536363 1_555
O5 P2 1.593458 1_555
O5 V1 2.011467 1_655
O5 V0 2.106106 1_555
O6 P2 1.543348 1_455
O7 P11 1.590270 1_556
O7 V1 2.032015 1_555
O7 V2 2.143621 1_555
O8 P1 1.581826 1_545
O8 V1 2.034394 1_655
O8 V0 2.137477 1_555
O9 P4 1.554317 1_555
O9 V0 1.957597 1_555
O10 P1 1.556834 1_455
O10 V2 2.029702 1_565
O11 P3 1.531426 1_555
O12 P1 1.528423 1_555
O13 P2 1.557507 1_555
O14 P3 1.554266 1_555
O14 V2 1.957664 1_555
O15 P3 1.582431 1_555
O15 V1 1.987790 1_555
O16 P5 1.554888 1_555
O16 V2 2.013225 1_565
O17 P5 1.521571 1_555
O18 P4 1.639203 1_555
O18 V1 2.028814 1_655
O19 P4 1.534136 1_555
O20 P5 1.582157 1_555
O21 P4 1.525935 1_555
O22 P6 1.587317 1_555
O22 V1 2.004499 1_555
O22 V2 2.214073 1_555
O23 P3 1.563566 1_555
O24 P7 1.537295 1_555
O25 P8 1.542893 1_555
O26 P7 1.529581 1_555
O27 P5 1.580518 1_555
O27 V3 2.137625 1_555
O28 P7 1.603585 1_555
O29 P6 1.539821 1_655
O30 P6 1.557120 1_555
O31 P6 1.545371 1_555
O31 V3 1.928859 1_545
O32 P8 1.579739 1_555
O33 P8 1.562161 1_555
O33 V3 2.038235 1_555
O34 P9 1.579282 1_555
O35 P10 1.538122 1_555
O36 P7 1.555940 1_555
O37 P10 1.588821 1_565
O38 P8 1.536312 1_555
O39 P10 1.565650 1_555
O39 V3 2.007841 1_545
O40 P9 1.608590 1_555
O41 P0 1.592501 1_554
O41 V3 2.164361 1_555
O42 P9 1.544064 1_555
O42 V0 2.038332 1_554
O43 P11 1.568714 1_655
O43 V0 2.027896 1_554
O44 P9 1.513958 1_555
O45 P11 1.537685 1_555
O45 V3 2.029531 1_545
O46 P11 1.534973 1_555
O47 P10 1.537375 1_555
O47 V0 1.942938 1_554
