# generated using pymatgen
data_UTi
_symmetry_space_group_name_H-M   'P 1'
_cell_length_a   5.89515699
_cell_length_b   5.89515699
_cell_length_c   10.20593600
_cell_angle_alpha   90.00000000
_cell_angle_beta   90.00000000
_cell_angle_gamma   120.00001113
_symmetry_Int_Tables_number   1
_chemical_formula_structural   UTi
_chemical_formula_sum   'U8 Ti8'
_cell_volume   307.16672959
_cell_formula_units_Z   8
loop_
 _symmetry_equiv_pos_site_id
 _symmetry_equiv_pos_as_xyz
  1  'x, y, z'
loop_
 _atom_site_type_symbol
 _atom_site_label
 _atom_site_symmetry_multiplicity
 _atom_site_fract_x
 _atom_site_fract_y
 _atom_site_fract_z
 _atom_site_occupancy
  U  U0_0  1  0.00000000  0.00000000  0.00000000  1
  U  U0_1  1  0.00000000  0.00000000  0.50000000  1
  U  U0_2  1  0.00000000  0.50000000  0.00000000  1
  U  U0_3  1  0.00000000  0.50000000  0.50000000  1
  U  U0_4  1  0.50000000  0.00000000  0.00000000  1
  U  U0_5  1  0.50000000  0.00000000  0.50000000  1
  U  U0_6  1  0.50000000  0.50000000  0.00000000  1
  U  U0_7  1  0.50000000  0.50000000  0.50000000  1
  Ti  Ti0_0  1  0.16666650  0.33333350  0.25000000  1
  Ti  Ti0_1  1  0.16666650  0.33333350  0.75000000  1
  Ti  Ti0_2  1  0.16666650  0.83333350  0.25000000  1
  Ti  Ti0_3  1  0.16666650  0.83333350  0.75000000  1
  Ti  Ti0_4  1  0.66666650  0.33333350  0.25000000  1
  Ti  Ti0_5  1  0.66666650  0.33333350  0.75000000  1
  Ti  Ti0_6  1  0.66666650  0.83333350  0.25000000  1
  Ti  Ti0_7  1  0.66666650  0.83333350  0.75000000  1
loop_
_geom_bond_atom_site_label_1
_geom_bond_atom_site_label_2
_geom_bond_distance
_geom_bond_site_symmetry_2
U0_0 U0_6 2.947578 1_555
U0_0 U0_6 2.947578 1_445
U0_0 U0_4 2.947578 1_555
U0_0 U0_2 2.947578 1_555
U0_0 U0_4 2.947578 1_455
U0_0 U0_2 2.947578 1_545
U0_1 U0_7 2.947578 1_445
U0_1 U0_7 2.947578 1_555
U0_1 U0_3 2.947578 1_545
U0_1 U0_5 2.947578 1_455
U0_1 U0_5 2.947578 1_555
U0_1 U0_3 2.947578 1_555
U0_2 U0_4 2.947578 1_455
U0_2 U0_4 2.947578 1_565
U0_2 U0_6 2.947578 1_455
U0_2 U0_6 2.947578 1_555
U0_3 U0_5 2.947578 1_565
U0_3 U0_5 2.947578 1_455
U0_3 U0_7 2.947578 1_555
U0_3 U0_7 2.947578 1_455
U0_4 U0_6 2.947578 1_545
U0_4 U0_6 2.947578 1_555
U0_5 U0_7 2.947578 1_545
U0_5 U0_7 2.947578 1_555
Ti0_0 Ti0_6 2.947578 1_445
Ti0_0 Ti0_6 2.947578 1_555
Ti0_0 Ti0_4 2.947578 1_555
Ti0_0 Ti0_2 2.947578 1_555
Ti0_0 Ti0_2 2.947578 1_545
Ti0_0 Ti0_4 2.947578 1_455
Ti0_0 U0_2 3.066943 1_555
Ti0_0 U0_3 3.066943 1_555
Ti0_0 U0_6 3.066944 1_555
Ti0_0 U0_1 3.066944 1_555
Ti0_0 U0_7 3.066944 1_555
Ti0_0 U0_0 3.066944 1_555
Ti0_1 Ti0_7 2.947578 1_445
Ti0_1 Ti0_7 2.947578 1_555
Ti0_1 Ti0_5 2.947578 1_555
Ti0_1 Ti0_3 2.947578 1_555
Ti0_1 Ti0_3 2.947578 1_545
Ti0_1 Ti0_5 2.947578 1_455
Ti0_1 U0_3 3.066943 1_555
Ti0_1 U0_2 3.066943 1_556
Ti0_1 U0_1 3.066944 1_555
Ti0_1 U0_7 3.066944 1_555
Ti0_1 U0_0 3.066944 1_556
Ti0_1 U0_6 3.066944 1_556
Ti0_2 Ti0_4 2.947578 1_565
Ti0_2 Ti0_4 2.947578 1_455
Ti0_2 Ti0_6 2.947578 1_455
Ti0_2 Ti0_6 2.947578 1_555
Ti0_2 U0_1 3.066943 1_565
Ti0_2 U0_0 3.066943 1_565
Ti0_2 U0_3 3.066944 1_555
Ti0_2 U0_5 3.066944 1_565
Ti0_2 U0_4 3.066944 1_565
Ti0_2 U0_2 3.066944 1_555
Ti0_3 Ti0_5 2.947578 1_565
Ti0_3 Ti0_5 2.947578 1_455
Ti0_3 Ti0_7 2.947578 1_555
Ti0_3 Ti0_7 2.947578 1_455
Ti0_3 U0_1 3.066943 1_565
Ti0_3 U0_0 3.066943 1_566
Ti0_3 U0_3 3.066944 1_555
Ti0_3 U0_5 3.066944 1_565
Ti0_3 U0_4 3.066944 1_566
Ti0_3 U0_2 3.066944 1_556
Ti0_4 Ti0_6 2.947578 1_555
Ti0_4 Ti0_6 2.947578 1_545
Ti0_4 U0_7 3.066943 1_555
Ti0_4 U0_6 3.066943 1_555
Ti0_4 U0_5 3.066944 1_555
Ti0_4 U0_2 3.066944 1_655
Ti0_4 U0_3 3.066944 1_655
Ti0_4 U0_4 3.066944 1_555
Ti0_5 Ti0_7 2.947578 1_555
Ti0_5 Ti0_7 2.947578 1_545
Ti0_5 U0_7 3.066943 1_555
Ti0_5 U0_6 3.066943 1_556
Ti0_5 U0_5 3.066944 1_555
Ti0_5 U0_3 3.066944 1_655
Ti0_5 U0_4 3.066944 1_556
Ti0_5 U0_2 3.066944 1_656
Ti0_6 U0_5 3.066943 1_565
Ti0_6 U0_4 3.066943 1_565
Ti0_6 U0_6 3.066944 1_555
Ti0_6 U0_7 3.066944 1_555
Ti0_6 U0_0 3.066944 1_665
Ti0_6 U0_1 3.066944 1_665
Ti0_7 U0_5 3.066943 1_565
Ti0_7 U0_4 3.066943 1_566
Ti0_7 U0_1 3.066944 1_665
Ti0_7 U0_7 3.066944 1_555
Ti0_7 U0_0 3.066944 1_666
Ti0_7 U0_6 3.066944 1_556
