# generated using pymatgen
data_Na2Sb8S13O2
_symmetry_space_group_name_H-M   'P 1'
_cell_length_a   12.82788727
_cell_length_b   12.82788727
_cell_length_c   7.22296325
_cell_angle_alpha   76.54017206
_cell_angle_beta   76.54017206
_cell_angle_gamma   134.70936985
_symmetry_Int_Tables_number   1
_chemical_formula_structural   Na2Sb8S13O2
_chemical_formula_sum   'Na2 Sb8 S13 O2'
_cell_volume   672.86618182
_cell_formula_units_Z   1
loop_
 _symmetry_equiv_pos_site_id
 _symmetry_equiv_pos_as_xyz
  1  'x, y, z'
loop_
 _atom_site_type_symbol
 _atom_site_label
 _atom_site_symmetry_multiplicity
 _atom_site_fract_x
 _atom_site_fract_y
 _atom_site_fract_z
 _atom_site_occupancy
  Na  Na0  1  0.41465000  0.56241800  0.01803000  1
  Na  Na1  1  0.56241800  0.41465000  0.01803000  1
  Sb  Sb0  1  0.75310600  0.26037800  0.98232400  1
  Sb  Sb1  1  0.26037800  0.75310600  0.98232400  1
  Sb  Sb2  1  0.99410000  0.18100700  0.79510300  1
  Sb  Sb3  1  0.18100700  0.99410000  0.79510300  1
  Sb  Sb4  1  0.68194400  0.34523600  0.51815400  1
  Sb  Sb5  1  0.34523600  0.68194400  0.51815400  1
  Sb  Sb6  1  0.08227000  0.74705700  0.50972000  1
  Sb  Sb7  1  0.74705700  0.08227000  0.50972000  1
  S  S0  1  0.16452500  0.50788300  0.95615100  1
  S  S1  1  0.50788300  0.16452500  0.95615100  1
  S  S2  1  0.84490000  0.63433700  0.45293100  1
  S  S3  1  0.63433700  0.84490000  0.45293100  1
  S  S4  1  0.88390900  0.53531800  0.94878400  1
  S  S5  1  0.53531800  0.88390900  0.94878400  1
  S  S6  1  0.95917300  0.40987500  0.57449800  1
  S  S7  1  0.40987500  0.95917300  0.57449800  1
  S  S8  1  0.32057000  0.47005400  0.51605100  1
  S  S9  1  0.47005400  0.32057000  0.51605100  1
  S  S10  1  0.95632100  0.10409200  0.51374900  1
  S  S11  1  0.10409200  0.95632100  0.51374900  1
  S  S12  1  0.01037900  0.01037900  0.99780600  1
  O  O0  1  0.65474400  0.65474400  0.98859100  1
  O  O1  1  0.33535500  0.33535500  0.98601400  1
loop_
_geom_bond_atom_site_label_1
_geom_bond_atom_site_label_2
_geom_bond_distance
_geom_bond_site_symmetry_2
Na0 O0 2.319312 1_554
Na0 O1 2.413822 1_554
Na0 S0 2.939225 1_554
Na0 S5 3.058000 1_554
Na0 S8 3.127789 1_555
Na0 S3 3.335302 1_554
Na1 O0 2.319312 1_554
Na1 O1 2.413822 1_554
Na1 S1 2.939225 1_554
Na1 S4 3.058000 1_554
Na1 S9 3.127789 1_555
Na1 S2 3.335302 1_554
S0 Sb5 2.526391 1_555
S0 Sb1 2.527019 1_555
S1 Sb4 2.526391 1_555
S1 Sb0 2.527019 1_555
S2 Sb4 2.483061 1_555
S2 Sb6 2.488655 1_655
S3 Sb5 2.483061 1_555
S3 Sb7 2.488655 1_565
S4 Sb0 2.529738 1_555
S4 Sb6 2.533486 1_655
S5 Sb1 2.529738 1_555
S5 Sb7 2.533486 1_565
S6 Sb0 2.440308 1_555
S7 Sb1 2.440308 1_555
S8 Sb2 2.468249 1_455
S8 Sb5 2.509937 1_555
S9 Sb3 2.468249 1_545
S9 Sb4 2.509937 1_555
S10 Sb2 2.461169 1_555
S10 Sb7 2.503627 1_555
S11 Sb3 2.461169 1_555
S11 Sb6 2.503627 1_555
S12 Sb3 2.504330 1_545
S12 Sb2 2.504330 1_455
