# generated using pymatgen
data_CrAgS2
_symmetry_space_group_name_H-M   'P 1'
_cell_length_a   6.08790574
_cell_length_b   6.96160741
_cell_length_c   7.19899300
_cell_angle_alpha   103.99994839
_cell_angle_beta   81.53800460
_cell_angle_gamma   90.03909032
_symmetry_Int_Tables_number   1
_chemical_formula_structural   CrAgS2
_chemical_formula_sum   'Cr4 Ag4 S8'
_cell_volume   292.62539035
_cell_formula_units_Z   4
loop_
 _symmetry_equiv_pos_site_id
 _symmetry_equiv_pos_as_xyz
  1  'x, y, z'
loop_
 _atom_site_type_symbol
 _atom_site_label
 _atom_site_symmetry_multiplicity
 _atom_site_fract_x
 _atom_site_fract_y
 _atom_site_fract_z
 _atom_site_occupancy
  Cr  Cr0  1  0.00030400  0.50483400  0.99988000  1
  Cr  Cr1  1  0.50013100  0.24485700  0.99989500  1
  Cr  Cr2  1  0.50010400  0.74500600  0.99993000  1
  Cr  Cr3  1  0.00036500  0.00502800  0.99969600  1
  Ag  Ag0  1  0.42340800  0.86580200  0.46190700  1
  Ag  Ag1  1  0.92378500  0.61544200  0.46205600  1
  Ag  Ag2  1  0.42344100  0.36587300  0.46201500  1
  Ag  Ag3  1  0.92385600  0.11538300  0.46202900  1
  S  S0  1  0.36407900  0.94935700  0.81425500  1
  S  S1  1  0.86395100  0.70764600  0.81450500  1
  S  S2  1  0.36408000  0.44933700  0.81436700  1
  S  S3  1  0.86390600  0.20763000  0.81441900  1
  S  S4  1  0.63478600  0.54570600  0.19648300  1
  S  S5  1  0.13471400  0.30260700  0.19665300  1
  S  S6  1  0.63484900  0.04571200  0.19655100  1
  S  S7  1  0.13464000  0.80257900  0.19656100  1
loop_
_geom_bond_atom_site_label_1
_geom_bond_atom_site_label_2
_geom_bond_distance
_geom_bond_site_symmetry_2
Cr0 S1 2.388040 1_455
Cr0 S2 2.391340 1_555
Cr0 S3 2.395895 1_455
Cr0 S7 2.426629 1_556
Cr0 S4 2.432067 1_456
Cr0 S5 2.442507 1_556
Cr1 S0 2.386881 1_545
Cr1 S3 2.391167 1_555
Cr1 S2 2.396532 1_555
Cr1 S6 2.427316 1_556
Cr1 S5 2.432127 1_556
Cr1 S4 2.442612 1_556
Cr2 S2 2.387439 1_555
Cr2 S1 2.391368 1_555
Cr2 S0 2.396605 1_555
Cr2 S4 2.427420 1_556
Cr2 S7 2.431961 1_556
Cr2 S6 2.442229 1_566
Cr3 S3 2.386724 1_455
Cr3 S0 2.390856 1_545
Cr3 S1 2.396064 1_445
Cr3 S5 2.426688 1_556
Cr3 S6 2.432848 1_456
Cr3 S7 2.443779 1_546
Ag0 S0 2.433035 1_555
Ag0 S6 2.703071 1_565
Ag0 S4 2.737304 1_555
Ag0 S7 2.741111 1_555
Ag1 S1 2.433678 1_555
Ag1 S5 2.703866 1_655
Ag1 S7 2.734681 1_655
Ag1 S4 2.743372 1_555
Ag2 S2 2.433070 1_555
Ag2 S4 2.703463 1_555
Ag2 S6 2.737788 1_555
Ag2 S5 2.741010 1_555
Ag3 S3 2.433273 1_555
Ag3 S7 2.703608 1_645
Ag3 S5 2.734440 1_655
Ag3 S6 2.742893 1_555
