# generated using pymatgen
data_TiCu2Sn
_symmetry_space_group_name_H-M   'P 1'
_cell_length_a   4.43948790
_cell_length_b   4.43948790
_cell_length_c   4.43948790
_cell_angle_alpha   60.00000000
_cell_angle_beta   60.00000000
_cell_angle_gamma   60.00000000
_symmetry_Int_Tables_number   1
_chemical_formula_structural   TiCu2Sn
_chemical_formula_sum   'Ti1 Cu2 Sn1'
_cell_volume   61.87050096
_cell_formula_units_Z   1
loop_
 _symmetry_equiv_pos_site_id
 _symmetry_equiv_pos_as_xyz
  1  'x, y, z'
loop_
 _atom_site_type_symbol
 _atom_site_label
 _atom_site_symmetry_multiplicity
 _atom_site_fract_x
 _atom_site_fract_y
 _atom_site_fract_z
 _atom_site_occupancy
  Ti  Ti0  1  0.00000000  0.00000000  0.00000000  1
  Cu  Cu0  1  0.25000000  0.25000000  0.25000000  1
  Cu  Cu1  1  0.75000000  0.75000000  0.75000000  1
  Sn  Sn0  1  0.50000000  0.50000000  0.50000000  1
loop_
_geom_bond_atom_site_label_1
_geom_bond_atom_site_label_2
_geom_bond_distance
_geom_bond_site_symmetry_2
Cu0 Ti0 2.718620 1_555
Cu0 Sn0 2.718620 1_545
Cu0 Sn0 2.718620 1_555
Cu0 Ti0 2.718620 1_565
Cu0 Sn0 2.718620 1_554
Cu0 Ti0 2.718620 1_556
Cu0 Sn0 2.718620 1_455
Cu0 Ti0 2.718620 1_655
Cu1 Sn0 2.718620 1_555
Cu1 Ti0 2.718620 1_656
Cu1 Sn0 2.718620 1_556
Cu1 Ti0 2.718620 1_665
Cu1 Ti0 2.718620 1_666
Cu1 Sn0 2.718620 1_565
Cu1 Ti0 2.718620 1_566
Cu1 Sn0 2.718620 1_655
Sn0 Ti0 3.139192 1_556
Sn0 Ti0 3.139192 1_566
Sn0 Ti0 3.139192 1_565
Sn0 Ti0 3.139192 1_656
Sn0 Ti0 3.139192 1_655
Sn0 Ti0 3.139192 1_665
