# generated using pymatgen
data_SrTh3
_symmetry_space_group_name_H-M   'P 1'
_cell_length_a   7.37695934
_cell_length_b   7.37695934
_cell_length_c   5.97494800
_cell_angle_alpha   90.00000000
_cell_angle_beta   90.00000000
_cell_angle_gamma   119.99999408
_symmetry_Int_Tables_number   1
_chemical_formula_structural   SrTh3
_chemical_formula_sum   'Sr2 Th6'
_cell_volume   281.59151671
_cell_formula_units_Z   2
loop_
 _symmetry_equiv_pos_site_id
 _symmetry_equiv_pos_as_xyz
  1  'x, y, z'
loop_
 _atom_site_type_symbol
 _atom_site_label
 _atom_site_symmetry_multiplicity
 _atom_site_fract_x
 _atom_site_fract_y
 _atom_site_fract_z
 _atom_site_occupancy
  Sr  Sr0  1  0.33333300  0.66666700  0.75000000  1
  Sr  Sr1  1  0.66666700  0.33333300  0.25000000  1
  Th  Th0  1  0.16081700  0.32163500  0.25000000  1
  Th  Th1  1  0.67836500  0.83918300  0.25000000  1
  Th  Th2  1  0.16081700  0.83918300  0.25000000  1
  Th  Th3  1  0.83918300  0.67836500  0.75000000  1
  Th  Th4  1  0.32163500  0.16081700  0.75000000  1
  Th  Th5  1  0.83918300  0.16081700  0.75000000  1
loop_
_geom_bond_atom_site_label_1
_geom_bond_atom_site_label_2
_geom_bond_distance
_geom_bond_site_symmetry_2
Sr0 Th4 3.689229 1_565
Sr0 Th3 3.689229 1_455
Sr0 Th5 3.689237 1_455
Sr0 Th5 3.689237 1_565
Sr0 Th3 3.689244 1_555
Sr0 Th4 3.689244 1_555
Sr0 Th2 3.712663 1_556
Sr0 Th2 3.712663 1_555
Sr0 Th1 3.712663 1_555
Sr0 Th0 3.712663 1_555
Sr0 Th1 3.712663 1_556
Sr0 Th0 3.712663 1_556
Sr1 Th1 3.689229 1_545
Sr1 Th0 3.689229 1_655
Sr1 Th2 3.689237 1_545
Sr1 Th2 3.689237 1_655
Sr1 Th0 3.689244 1_555
Sr1 Th1 3.689244 1_555
Sr1 Th5 3.712663 1_554
Sr1 Th5 3.712663 1_555
Sr1 Th3 3.712663 1_554
Sr1 Th4 3.712663 1_554
Sr1 Th3 3.712663 1_555
Sr1 Th4 3.712663 1_555
Th0 Th2 3.559029 1_545
Th0 Th1 3.559029 1_445
Th0 Th5 3.625909 1_455
Th0 Th5 3.625909 1_454
Th0 Th4 3.625916 1_555
Th0 Th4 3.625916 1_554
Th0 Th2 3.817931 1_555
Th0 Th1 3.817931 1_555
Th1 Th2 3.559029 1_655
Th1 Th5 3.625909 1_565
Th1 Th5 3.625909 1_564
Th1 Th3 3.625916 1_554
Th1 Th3 3.625916 1_555
Th1 Th2 3.817931 1_555
Th2 Th3 3.625909 1_455
Th2 Th3 3.625909 1_454
Th2 Th4 3.625909 1_564
Th2 Th4 3.625909 1_565
Th3 Th5 3.559029 1_565
Th3 Th4 3.559029 1_665
Th3 Th5 3.817931 1_555
Th3 Th4 3.817931 1_555
Th4 Th5 3.559029 1_455
Th4 Th5 3.817931 1_555
