# generated using pymatgen
data_La2Ge4IrRh3
_symmetry_space_group_name_H-M   'P 1'
_cell_length_a   4.22587100
_cell_length_b   4.22587100
_cell_length_c   10.65282300
_cell_angle_alpha   90.00000000
_cell_angle_beta   90.00000000
_cell_angle_gamma   90.00000000
_symmetry_Int_Tables_number   1
_chemical_formula_structural   La2Ge4IrRh3
_chemical_formula_sum   'La2 Ge4 Ir1 Rh3'
_cell_volume   190.23796089
_cell_formula_units_Z   1
loop_
 _symmetry_equiv_pos_site_id
 _symmetry_equiv_pos_as_xyz
  1  'x, y, z'
loop_
 _atom_site_type_symbol
 _atom_site_label
 _atom_site_symmetry_multiplicity
 _atom_site_fract_x
 _atom_site_fract_y
 _atom_site_fract_z
 _atom_site_occupancy
  La  La0  1  0.50000000  0.00000000  0.75019900  1
  La  La1  1  0.00000000  0.50000000  0.24980100  1
  Ge  Ge0  1  0.00000000  0.50000000  0.87562800  1
  Ge  Ge1  1  0.50000000  0.00000000  0.37611600  1
  Ge  Ge2  1  0.50000000  0.00000000  0.12437200  1
  Ge  Ge3  1  0.00000000  0.50000000  0.62388400  1
  Ir  Ir0  1  0.50000000  0.50000000  0.00000000  1
  Rh  Rh0  1  0.00000000  0.00000000  0.50000000  1
  Rh  Rh1  1  0.00000000  0.00000000  0.00000000  1
  Rh  Rh2  1  0.50000000  0.50000000  0.50000000  1
loop_
_geom_bond_atom_site_label_1
_geom_bond_atom_site_label_2
_geom_bond_distance
_geom_bond_site_symmetry_2
La0 Rh1 3.397922 1_556
La0 Rh1 3.397922 1_656
La0 Rh2 3.401243 1_555
La0 Rh0 3.401243 1_555
La0 Rh0 3.401243 1_655
La0 Rh2 3.401243 1_545
La1 Rh1 3.397922 1_565
La1 Rh1 3.397922 1_555
La1 Rh0 3.401243 1_555
La1 Rh2 3.401243 1_555
La1 Rh2 3.401243 1_455
La1 Rh0 3.401243 1_565
Ge0 Rh1 2.493971 1_566
Ge0 Ir0 2.493971 1_556
Ge0 Ir0 2.493971 1_456
Ge0 Rh1 2.493971 1_556
Ge0 Ge3 2.681784 1_555
Ge0 La0 3.273278 1_465
Ge0 La0 3.273278 1_565
Ge0 La0 3.273278 1_455
Ge0 La0 3.273278 1_555
Ge1 Rh2 2.491213 1_545
Ge1 Rh0 2.491213 1_555
Ge1 Rh2 2.491213 1_555
Ge1 Rh0 2.491213 1_655
Ge1 Ge2 2.681784 1_555
Ge1 La1 3.277142 1_555
Ge1 La1 3.277142 1_545
Ge1 La1 3.277142 1_645
Ge1 La1 3.277142 1_655
Ge2 Ir0 2.493971 1_545
Ge2 Ir0 2.493971 1_555
Ge2 Rh1 2.493971 1_655
Ge2 Rh1 2.493971 1_555
Ge2 La1 3.273278 1_645
Ge2 La1 3.273278 1_555
Ge2 La1 3.273278 1_545
Ge2 La1 3.273278 1_655
Ge3 Rh2 2.491213 1_455
Ge3 Rh0 2.491213 1_565
Ge3 Rh0 2.491213 1_555
Ge3 Rh2 2.491213 1_555
Ge3 La0 3.277142 1_465
Ge3 La0 3.277142 1_565
Ge3 La0 3.277142 1_455
Ge3 La0 3.277142 1_555
Ir0 La1 3.397922 1_655
Ir0 La1 3.397922 1_555
Ir0 La0 3.397922 1_554
Ir0 La0 3.397922 1_564
