# generated using pymatgen
data_Mn3(PO7)2
_symmetry_space_group_name_H-M   'P 1'
_cell_length_a   19.12877000
_cell_length_b   5.24644400
_cell_length_c   5.27944949
_cell_angle_alpha   70.10906746
_cell_angle_beta   90.00000000
_cell_angle_gamma   90.00000000
_symmetry_Int_Tables_number   1
_chemical_formula_structural   Mn3(PO7)2
_chemical_formula_sum   'Mn6 P4 O28'
_cell_volume   498.22618894
_cell_formula_units_Z   2
loop_
 _symmetry_equiv_pos_site_id
 _symmetry_equiv_pos_as_xyz
  1  'x, y, z'
loop_
 _atom_site_type_symbol
 _atom_site_label
 _atom_site_symmetry_multiplicity
 _atom_site_fract_x
 _atom_site_fract_y
 _atom_site_fract_z
 _atom_site_occupancy
  Mn  Mn0  1  0.50117200  0.22745000  0.57431500  1
  Mn  Mn1  1  0.00117200  0.77255000  0.42568500  1
  Mn  Mn2  1  0.50216200  0.72800900  0.07429200  1
  Mn  Mn3  1  0.00216200  0.27199100  0.92570800  1
  Mn  Mn4  1  0.75616600  0.53042400  0.54050000  1
  Mn  Mn5  1  0.25616600  0.46957600  0.45950000  1
  P  P0  1  0.59958700  0.70689500  0.55424100  1
  P  P1  1  0.09958700  0.29310500  0.44575900  1
  P  P2  1  0.40383600  0.74494800  0.59562900  1
  P  P3  1  0.90383600  0.25505200  0.40437100  1
  O  O0  1  0.57851300  0.40538500  0.68193200  1
  O  O1  1  0.07851300  0.59461500  0.31806800  1
  O  O2  1  0.42264000  0.04888100  0.47314200  1
  O  O3  1  0.92264000  0.95111900  0.52685800  1
  O  O4  1  0.55566700  0.87016000  0.70721600  1
  O  O5  1  0.05566700  0.12984000  0.29278400  1
  O  O6  1  0.45056000  0.58849800  0.44052600  1
  O  O7  1  0.95056000  0.41150200  0.55947400  1
  O  O8  1  0.58206800  0.82872200  0.25290300  1
  O  O9  1  0.08206800  0.17127800  0.74709700  1
  O  O10  1  0.42310100  0.62496000  0.89585700  1
  O  O11  1  0.92310100  0.37504000  0.10414300  1
  O  O12  1  0.67765900  0.74008800  0.60880300  1
  O  O13  1  0.17765900  0.25991200  0.39119700  1
  O  O14  1  0.82665700  0.29174900  0.45371200  1
  O  O15  1  0.32665700  0.70825100  0.54628800  1
  O  O16  1  0.53276000  0.36324100  0.21408100  1
  O  O17  1  0.03276000  0.63675900  0.78591900  1
  O  O18  1  0.47044600  0.09012100  0.93658800  1
  O  O19  1  0.97044600  0.90987900  0.06341200  1
  O  O20  1  0.69756000  0.45778600  0.20494600  1
  O  O21  1  0.19756000  0.54221400  0.79505400  1
  O  O22  1  0.80471800  0.59499200  0.75959500  1
  O  O23  1  0.30471800  0.40500800  0.24040500  1
  O  O24  1  0.70525400  0.24647900  0.63916300  1
  O  O25  1  0.20525400  0.75352100  0.36083700  1
  O  O26  1  0.76447400  0.76153000  0.21419900  1
  O  O27  1  0.26447400  0.23847000  0.78580100  1
loop_
_geom_bond_atom_site_label_1
_geom_bond_atom_site_label_2
_geom_bond_distance
_geom_bond_site_symmetry_2
Mn0 O16 1.888828 1_555
Mn0 O18 1.893388 1_555
Mn0 O0 1.934922 1_555
Mn0 O2 1.939116 1_555
Mn0 O6 2.028263 1_555
Mn0 O4 2.048839 1_545
Mn1 O17 1.888828 1_555
Mn1 O19 1.893388 1_455
Mn1 O1 1.934922 1_555
Mn1 O3 1.939116 1_455
Mn1 O7 2.028263 1_455
Mn1 O5 2.048839 1_565
Mn2 O18 1.888390 1_564
Mn2 O16 1.894351 1_555
Mn2 O10 1.952809 1_554
Mn2 O8 1.960546 1_555
Mn2 O6 2.070156 1_555
Mn2 O4 2.091873 1_554
Mn3 O19 1.888390 1_446
Mn3 O17 1.894351 1_555
Mn3 O11 1.952809 1_456
Mn3 O9 1.960546 1_555
Mn3 O7 2.070156 1_455
Mn3 O5 2.091873 1_556
Mn4 O22 1.606828 1_555
Mn4 O24 1.706156 1_555
Mn4 O26 1.744056 1_555
Mn4 O12 1.966000 1_555
Mn4 O14 1.996633 1_555
Mn4 O20 2.236013 1_555
Mn5 O23 1.606828 1_555
Mn5 O25 1.706156 1_555
Mn5 O27 1.744056 1_555
Mn5 O13 1.966000 1_555
Mn5 O15 1.996633 1_555
Mn5 O21 2.236013 1_555
O0 P0 1.547126 1_555
O1 P1 1.547126 1_555
O2 P2 1.545492 1_545
O3 P3 1.545492 1_565
O4 P0 1.600784 1_555
O5 P1 1.600784 1_555
O6 P2 1.612587 1_555
O7 P3 1.612587 1_555
O8 P0 1.536186 1_555
O9 P1 1.536186 1_555
O10 P2 1.538009 1_555
O11 P3 1.538009 1_555
O12 P0 1.541994 1_555
O13 P1 1.541994 1_555
O14 P3 1.522704 1_555
O15 P2 1.522704 1_555
