# generated using pymatgen
data_LaAgPb
_symmetry_space_group_name_H-M   'P 1'
_cell_length_a   4.99987757
_cell_length_b   4.94017300
_cell_length_c   8.34654091
_cell_angle_alpha   90.00000000
_cell_angle_beta   89.77724406
_cell_angle_gamma   60.39423860
_symmetry_Int_Tables_number   1
_chemical_formula_structural   LaAgPb
_chemical_formula_sum   'La2 Ag2 Pb2'
_cell_volume   179.24454810
_cell_formula_units_Z   2
loop_
 _symmetry_equiv_pos_site_id
 _symmetry_equiv_pos_as_xyz
  1  'x, y, z'
loop_
 _atom_site_type_symbol
 _atom_site_label
 _atom_site_symmetry_multiplicity
 _atom_site_fract_x
 _atom_site_fract_y
 _atom_site_fract_z
 _atom_site_occupancy
  La  La0  1  0.99878900  0.00060500  0.72598300  1
  La  La1  1  0.00121100  0.99939500  0.27401700  1
  Ag  Ag0  1  0.33181900  0.33409000  0.51337700  1
  Ag  Ag1  1  0.66818100  0.66591000  0.48662300  1
  Pb  Pb0  1  0.66535300  0.66732300  0.05284400  1
  Pb  Pb1  1  0.33464700  0.33267700  0.94715600  1
loop_
_geom_bond_atom_site_label_1
_geom_bond_atom_site_label_2
_geom_bond_distance
_geom_bond_site_symmetry_2
La0 Pb1 3.415388 1_645
La0 Pb1 3.415395 1_655
La0 Pb1 3.419874 1_555
La0 La1 3.772320 1_645
La0 Pb0 3.950927 1_546
La0 Pb0 3.950927 1_556
La0 Pb0 3.988713 1_646
La1 Pb0 3.415388 1_465
La1 Pb0 3.415395 1_455
La1 Pb0 3.419874 1_555
La1 Pb1 3.950927 1_564
La1 Pb1 3.950927 1_554
La1 Pb1 3.988713 1_464
Ag0 Ag1 2.878592 1_545
Ag0 Ag1 2.878601 1_555
Ag0 Ag1 2.894539 1_455
Ag0 La0 3.364994 1_455
Ag0 La0 3.364994 1_465
Ag0 La0 3.406092 1_555
Ag0 La1 3.490533 1_545
Ag0 La1 3.490540 1_555
Ag0 La1 3.522357 1_645
Ag1 La1 3.364994 1_655
Ag1 La1 3.364994 1_645
Ag1 La1 3.406092 1_555
Ag1 La0 3.490533 1_565
Ag1 La0 3.490540 1_555
Ag1 La0 3.522357 1_465
Pb0 Pb1 2.992915 1_554
Pb0 Pb1 2.992924 1_564
Pb0 Pb1 3.036511 1_654
