# generated using pymatgen
data_DyPdPb
_symmetry_space_group_name_H-M   'P 1'
_cell_length_a   7.74210030
_cell_length_b   7.74210030
_cell_length_c   3.91308531
_cell_angle_alpha   90.00000000
_cell_angle_beta   90.00000000
_cell_angle_gamma   119.99999006
_symmetry_Int_Tables_number   1
_chemical_formula_structural   DyPdPb
_chemical_formula_sum   'Dy3 Pd3 Pb3'
_cell_volume   203.12696412
_cell_formula_units_Z   3
loop_
 _symmetry_equiv_pos_site_id
 _symmetry_equiv_pos_as_xyz
  1  'x, y, z'
loop_
 _atom_site_type_symbol
 _atom_site_label
 _atom_site_symmetry_multiplicity
 _atom_site_fract_x
 _atom_site_fract_y
 _atom_site_fract_z
 _atom_site_occupancy
  Dy  Dy0  1  0.40079196  0.40079196  0.50000000  1
  Dy  Dy1  1  0.59920804  0.00000000  0.50000000  1
  Dy  Dy2  1  0.00000000  0.59920804  0.50000000  1
  Pd  Pd0  1  0.66666700  0.33333300  0.00000000  1
  Pd  Pd1  1  0.33333300  0.66666700  0.00000000  1
  Pd  Pd2  1  0.00000000  0.00000000  0.50000000  1
  Pb  Pb0  1  0.73392281  0.73392281  0.00000000  1
  Pb  Pb1  1  0.26607719  0.00000000  0.00000000  1
  Pb  Pb2  1  0.00000000  0.26607719  -0.00000000  1
loop_
_geom_bond_atom_site_label_1
_geom_bond_atom_site_label_2
_geom_bond_distance
_geom_bond_site_symmetry_2
Dy0 Pd1 3.068067 1_556
Dy0 Pd0 3.068067 1_556
Dy0 Pd0 3.068067 1_555
Dy0 Pd1 3.068067 1_555
Dy0 Pd2 3.102972 1_555
Dy0 Pb0 3.237281 1_556
Dy0 Pb0 3.237281 1_555
Dy0 Pb2 3.362732 1_555
Dy0 Pb1 3.362732 1_556
Dy0 Pb2 3.362732 1_556
Dy0 Pb1 3.362732 1_555
Dy1 Pd0 3.068061 1_556
Dy1 Pd0 3.068061 1_555
Dy1 Pd1 3.068063 1_545
Dy1 Pd1 3.068063 1_546
Dy1 Pd2 3.102972 1_655
Dy1 Pb1 3.237280 1_555
Dy1 Pb1 3.237280 1_556
Dy1 Pb0 3.362732 1_545
Dy1 Pb0 3.362732 1_546
Dy1 Pb2 3.362732 1_655
Dy1 Pb2 3.362732 1_656
Dy2 Pd1 3.068061 1_556
Dy2 Pd1 3.068061 1_555
Dy2 Pd0 3.068063 1_455
Dy2 Pd0 3.068063 1_456
Dy2 Pd2 3.102972 1_565
Dy2 Pb2 3.237280 1_556
Dy2 Pb2 3.237280 1_555
Dy2 Pb0 3.362732 1_455
Dy2 Pb0 3.362732 1_456
Dy2 Pb1 3.362732 1_565
Dy2 Pb1 3.362732 1_566
Pb0 Pd2 2.841064 1_664
Pb0 Pd2 2.841064 1_665
Pb0 Pd1 2.876621 1_555
Pb0 Pd0 2.876621 1_555
Pb1 Pd2 2.841064 1_554
Pb1 Pd2 2.841064 1_555
Pb1 Pd1 2.876613 1_545
Pb1 Pd0 2.876618 1_555
Pb2 Pd2 2.841064 1_554
Pb2 Pd2 2.841064 1_555
Pb2 Pd0 2.876613 1_455
Pb2 Pd1 2.876618 1_555
