# generated using pymatgen
data_CrFeTeO6
_symmetry_space_group_name_H-M   'P 1'
_cell_length_a   4.57635000
_cell_length_b   4.57635000
_cell_length_c   9.12640500
_cell_angle_alpha   90.00000000
_cell_angle_beta   90.00000000
_cell_angle_gamma   90.00000000
_symmetry_Int_Tables_number   1
_chemical_formula_structural   CrFeTeO6
_chemical_formula_sum   'Cr2 Fe2 Te2 O12'
_cell_volume   191.13411120
_cell_formula_units_Z   2
loop_
 _symmetry_equiv_pos_site_id
 _symmetry_equiv_pos_as_xyz
  1  'x, y, z'
loop_
 _atom_site_type_symbol
 _atom_site_label
 _atom_site_symmetry_multiplicity
 _atom_site_fract_x
 _atom_site_fract_y
 _atom_site_fract_z
 _atom_site_occupancy
  Cr  Cr0  1  0.50000000  0.50000000  0.16548500  1
  Cr  Cr1  1  0.00000000  0.00000000  0.66548500  1
  Fe  Fe0  1  0.50000000  0.50000000  0.83365200  1
  Fe  Fe1  1  0.00000000  0.00000000  0.33365200  1
  Te  Te0  1  0.50000000  0.50000000  0.49990000  1
  Te  Te1  1  0.00000000  0.00000000  0.99990000  1
  O  O0  1  0.19623500  0.80376500  0.49781200  1
  O  O1  1  0.80376500  0.19623500  0.49781200  1
  O  O2  1  0.30376500  0.30376500  0.99781200  1
  O  O3  1  0.69623500  0.69623500  0.99781200  1
  O  O4  1  0.18982700  0.81017300  0.16647700  1
  O  O5  1  0.81017300  0.18982700  0.16647700  1
  O  O6  1  0.31017300  0.31017300  0.66647700  1
  O  O7  1  0.68982700  0.68982700  0.66647700  1
  O  O8  1  0.80342700  0.19657300  0.83619200  1
  O  O9  1  0.19657300  0.80342700  0.83619200  1
  O  O10  1  0.69657300  0.69657300  0.33619200  1
  O  O11  1  0.30342800  0.30342800  0.33619200  1
loop_
_geom_bond_atom_site_label_1
_geom_bond_atom_site_label_2
_geom_bond_distance
_geom_bond_site_symmetry_2
Cr0 O3 1.988623 1_554
Cr0 O2 1.988623 1_554
Cr0 O4 2.007440 1_555
Cr0 O5 2.007440 1_555
Cr0 O11 2.011387 1_555
Cr0 O10 2.011391 1_555
Cr1 O1 1.988623 1_455
Cr1 O0 1.988623 1_545
Cr1 O6 2.007440 1_555
Cr1 O7 2.007440 1_445
Cr1 O8 2.011391 1_455
Cr1 O9 2.011391 1_545
Fe0 O7 1.958855 1_555
Fe0 O6 1.958855 1_555
Fe0 O8 1.963897 1_555
Fe0 O9 1.963897 1_555
Fe0 O3 1.964059 1_555
Fe0 O2 1.964059 1_555
Fe1 O5 1.958855 1_455
Fe1 O4 1.958855 1_545
Fe1 O10 1.963897 1_445
Fe1 O11 1.963903 1_555
Fe1 O1 1.964059 1_455
Fe1 O0 1.964059 1_545
O0 Te0 1.966040 1_555
O1 Te0 1.966040 1_555
O2 Te1 1.966040 1_555
O3 Te1 1.966040 1_665
O4 Te1 1.954607 1_564
O5 Te1 1.954607 1_654
O6 Te0 1.954607 1_555
O7 Te0 1.954607 1_555
O8 Te1 1.962331 1_655
O9 Te1 1.962331 1_565
O10 Te0 1.962331 1_555
O11 Te0 1.962327 1_555
