# generated using pymatgen
data_Sc2Al
_symmetry_space_group_name_H-M   'P 1'
_cell_length_a   4.89261207
_cell_length_b   4.89261073
_cell_length_c   6.16142057
_cell_angle_alpha   90.00000000
_cell_angle_beta   90.00000000
_cell_angle_gamma   120.00001613
_symmetry_Int_Tables_number   1
_chemical_formula_structural   Sc2Al
_chemical_formula_sum   'Sc4 Al2'
_cell_volume   127.72998499
_cell_formula_units_Z   2
loop_
 _symmetry_equiv_pos_site_id
 _symmetry_equiv_pos_as_xyz
  1  'x, y, z'
loop_
 _atom_site_type_symbol
 _atom_site_label
 _atom_site_symmetry_multiplicity
 _atom_site_fract_x
 _atom_site_fract_y
 _atom_site_fract_z
 _atom_site_occupancy
  Sc  Sc0  1  0.00000000  0.00000000  0.00000100  1
  Sc  Sc1  1  0.00000000  0.00000000  0.49999900  1
  Sc  Sc2  1  0.33333300  0.66666700  0.74996332  1
  Sc  Sc3  1  0.66666700  0.33333300  0.25003668  1
  Al  Al0  1  0.33333300  0.66666700  0.24999578  1
  Al  Al1  1  0.66666700  0.33333300  0.75000422  1
loop_
_geom_bond_atom_site_label_1
_geom_bond_atom_site_label_2
_geom_bond_distance
_geom_bond_site_symmetry_2
Sc0 Sc1 3.080698 1_555
Sc0 Sc1 3.080723 1_554
Sc0 Sc3 3.217541 1_455
Sc0 Sc3 3.217544 1_445
Sc0 Sc3 3.217545 1_555
Sc0 Sc2 3.217547 1_544
Sc0 Sc2 3.217550 1_554
Sc0 Sc2 3.217551 1_444
Sc1 Sc3 3.217325 1_455
Sc1 Sc3 3.217328 1_445
Sc1 Sc3 3.217328 1_555
Sc1 Sc2 3.217331 1_545
Sc1 Sc2 3.217334 1_555
Sc1 Sc2 3.217334 1_445
Al0 Sc3 2.824747 1_565
Al0 Sc3 2.824748 1_455
Al0 Sc3 2.824756 1_555
Al0 Sc2 3.080510 1_555
Al0 Sc2 3.080910 1_554
Al0 Sc0 3.217421 1_565
Al0 Sc0 3.217423 1_555
Al0 Sc0 3.217424 1_665
Al0 Sc1 3.217446 1_565
Al0 Sc1 3.217448 1_555
Al0 Sc1 3.217449 1_665
Al1 Sc2 2.824747 1_545
Al1 Sc2 2.824748 1_655
Al1 Sc2 2.824756 1_555
Al1 Sc3 3.080510 1_555
Al1 Sc3 3.080910 1_556
Al1 Sc0 3.217427 1_656
Al1 Sc0 3.217429 1_666
Al1 Sc0 3.217430 1_556
Al1 Sc1 3.217451 1_655
Al1 Sc1 3.217454 1_665
Al1 Sc1 3.217455 1_555
