# generated using pymatgen
data_Ce2Al3Sn
_symmetry_space_group_name_H-M   'P 1'
_cell_length_a   4.16028800
_cell_length_b   4.48383771
_cell_length_c   7.79408227
_cell_angle_alpha   90.00864681
_cell_angle_beta   90.00000000
_cell_angle_gamma   90.00000000
_symmetry_Int_Tables_number   1
_chemical_formula_structural   Ce2Al3Sn
_chemical_formula_sum   'Ce2 Al3 Sn1'
_cell_volume   145.39124696
_cell_formula_units_Z   1
loop_
 _symmetry_equiv_pos_site_id
 _symmetry_equiv_pos_as_xyz
  1  'x, y, z'
loop_
 _atom_site_type_symbol
 _atom_site_label
 _atom_site_symmetry_multiplicity
 _atom_site_fract_x
 _atom_site_fract_y
 _atom_site_fract_z
 _atom_site_occupancy
  Ce  Ce0  1  0.00000000  0.99998900  0.99565300  1
  Ce  Ce1  1  0.00000000  0.49995400  0.50507800  1
  Al  Al0  1  0.50000000  0.49993900  0.83096000  1
  Al  Al1  1  0.50000000  0.50001400  0.15337900  1
  Al  Al2  1  0.50000000  0.99997000  0.67902200  1
  Sn  Sn0  1  0.50000000  0.99993300  0.33590800  1
loop_
_geom_bond_atom_site_label_1
_geom_bond_atom_site_label_2
_geom_bond_distance
_geom_bond_site_symmetry_2
Ce0 Sn0 3.370456 1_456
Ce0 Sn0 3.370456 1_556
Ce1 Sn0 3.330351 1_445
Ce1 Sn0 3.330351 1_545
Ce1 Sn0 3.330492 1_455
Ce1 Sn0 3.330492 1_555
Al0 Al1 2.512960 1_556
Al0 Al2 2.535182 1_545
Al0 Al2 2.535744 1_555
Al0 Ce1 3.283040 1_655
Al0 Ce1 3.283040 1_555
Al0 Ce0 3.316741 1_645
Al0 Ce0 3.316741 1_545
Al0 Ce0 3.316782 1_655
Al0 Ce0 3.316782 1_555
Al1 Sn0 2.654719 1_555
Al1 Sn0 2.655695 1_545
Al1 Ce0 3.296077 1_544
Al1 Ce0 3.296077 1_644
Al1 Ce0 3.296176 1_654
Al1 Ce0 3.296176 1_554
Al1 Ce1 3.441078 1_555
Al1 Ce1 3.441078 1_655
Al2 Sn0 2.674259 1_555
Al2 Ce0 3.227580 1_555
Al2 Ce0 3.227580 1_655
Al2 Ce1 3.345238 1_555
Al2 Ce1 3.345238 1_655
Al2 Ce1 3.345416 1_565
Al2 Ce1 3.345416 1_665
