# generated using pymatgen
data_MnOs3
_symmetry_space_group_name_H-M   'P 1'
_cell_length_a   5.41366999
_cell_length_b   5.41366775
_cell_length_c   4.26815759
_cell_angle_alpha   90.00000031
_cell_angle_beta   90.00000199
_cell_angle_gamma   120.00020925
_symmetry_Int_Tables_number   1
_chemical_formula_structural   MnOs3
_chemical_formula_sum   'Mn2 Os6'
_cell_volume   108.33119629
_cell_formula_units_Z   2
loop_
 _symmetry_equiv_pos_site_id
 _symmetry_equiv_pos_as_xyz
  1  'x, y, z'
loop_
 _atom_site_type_symbol
 _atom_site_label
 _atom_site_symmetry_multiplicity
 _atom_site_fract_x
 _atom_site_fract_y
 _atom_site_fract_z
 _atom_site_occupancy
  Mn  Mn0  1  0.66666592  0.33333281  0.24999726  1
  Mn  Mn1  1  0.33333164  0.66667191  0.75000161  1
  Os  Os0  1  0.83053529  0.16945876  0.74999892  1
  Os  Os1  1  0.33891896  0.16945564  0.74999932  1
  Os  Os2  1  0.66109416  0.83054718  0.24999949  1
  Os  Os3  1  0.16945430  0.83054672  0.24999957  1
  Os  Os4  1  0.83054256  0.66108061  0.74999928  1
  Os  Os5  1  0.16945119  0.33890436  0.24999955  1
loop_
_geom_bond_atom_site_label_1
_geom_bond_atom_site_label_2
_geom_bond_distance
_geom_bond_site_symmetry_2
Mn0 Os0 2.629707 1_554
Mn0 Os1 2.629712 1_554
Mn0 Os4 2.629714 1_554
Mn0 Os0 2.629718 1_555
Mn0 Os1 2.629727 1_555
Mn0 Os4 2.629728 1_555
Mn0 Os3 2.706946 1_545
Mn0 Os5 2.706958 1_655
Mn0 Os3 2.706958 1_655
Mn0 Os2 2.706958 1_545
Mn0 Os2 2.706961 1_555
Mn0 Os5 2.706964 1_555
Mn1 Os3 2.629729 1_556
Mn1 Os3 2.629743 1_555
Mn1 Os2 2.629755 1_556
Mn1 Os5 2.629768 1_556
Mn1 Os2 2.629770 1_555
Mn1 Os5 2.629783 1_555
Mn1 Os1 2.706907 1_565
Mn1 Os4 2.706926 1_455
Mn1 Os0 2.706927 1_565
Mn1 Os0 2.706978 1_455
Mn1 Os4 2.706998 1_555
Mn1 Os1 2.707014 1_555
Os0 Os2 2.660642 1_545
Os0 Os2 2.660646 1_546
Os0 Os5 2.660654 1_655
Os0 Os5 2.660658 1_656
Os0 Os1 2.661440 1_555
Os0 Os4 2.661458 1_555
Os0 Os4 2.752210 1_545
Os0 Os1 2.752230 1_655
Os1 Os3 2.660635 1_545
Os1 Os3 2.660637 1_546
Os1 Os5 2.660660 1_555
Os1 Os5 2.660662 1_556
Os1 Os4 2.661483 1_555
Os1 Os4 2.752169 1_445
Os2 Os4 2.660656 1_555
Os2 Os4 2.660657 1_554
Os2 Os3 2.661575 1_555
Os2 Os5 2.661583 1_555
Os2 Os5 2.752068 1_665
Os2 Os3 2.752095 1_655
Os3 Os4 2.660644 1_455
Os3 Os4 2.660646 1_454
Os3 Os5 2.661580 1_555
Os3 Os5 2.752088 1_565
