# generated using pymatgen
data_Ca3Co2(WO6)2
_symmetry_space_group_name_H-M   'P 1'
_cell_length_a   5.38825500
_cell_length_b   5.51132574
_cell_length_c   7.79898064
_cell_angle_alpha   90.61191516
_cell_angle_beta   90.41444583
_cell_angle_gamma   91.64260694
_symmetry_Int_Tables_number   1
_chemical_formula_structural   Ca3Co2(WO6)2
_chemical_formula_sum   'Ca3 Co2 W2 O12'
_cell_volume   231.48691113
_cell_formula_units_Z   1
loop_
 _symmetry_equiv_pos_site_id
 _symmetry_equiv_pos_as_xyz
  1  'x, y, z'
loop_
 _atom_site_type_symbol
 _atom_site_label
 _atom_site_symmetry_multiplicity
 _atom_site_fract_x
 _atom_site_fract_y
 _atom_site_fract_z
 _atom_site_occupancy
  Ca  Ca0  1  0.01587500  0.05422400  0.74791500  1
  Ca  Ca1  1  0.49625500  0.54382600  0.74999300  1
  Ca  Ca2  1  0.50934500  0.45302900  0.24861000  1
  Co  Co0  1  0.00723300  0.50892800  0.49831600  1
  Co  Co1  1  0.51282100  0.00787300  0.00330000  1
  W  W0  1  0.50736000  0.99766000  0.49003500  1
  W  W1  1  0.00402900  0.51898300  0.00643600  1
  O  O0  1  0.29470300  0.27662800  0.54285800  1
  O  O1  1  0.21283800  0.79154700  0.94860100  1
  O  O2  1  0.68477200  0.70076500  0.46745500  1
  O  O3  1  0.77912900  0.21862800  0.03469900  1
  O  O4  1  0.78491300  0.21686500  0.46636700  1
  O  O5  1  0.70200500  0.69183300  0.03121900  1
  O  O6  1  0.20876700  0.78224600  0.55188900  1
  O  O7  1  0.27979700  0.30178100  0.96004600  1
  O  O8  1  0.92136300  0.47763000  0.75871100  1
  O  O9  1  0.58440500  0.98153100  0.74079900  1
  O  O10  1  0.07954500  0.52060900  0.24304600  1
  O  O11  1  0.42919000  0.01120800  0.25607100  1
loop_
_geom_bond_atom_site_label_1
_geom_bond_atom_site_label_2
_geom_bond_distance
_geom_bond_site_symmetry_2
Ca0 O9 2.347950 1_445
Ca0 O6 2.393267 1_545
Ca0 O8 2.403401 1_455
Ca0 O1 2.405056 1_545
Ca0 O0 2.507637 1_555
Ca0 O7 2.535228 1_555
Ca0 O4 2.690753 1_455
Ca0 O3 2.741350 1_456
Ca1 O8 2.330389 1_555
Ca1 O0 2.406199 1_555
Ca1 O7 2.410119 1_555
Ca1 O9 2.447162 1_555
Ca1 O5 2.565089 1_556
Ca1 O6 2.576566 1_555
Ca1 O2 2.580329 1_555
Ca1 O1 2.589182 1_555
Ca2 O2 2.350241 1_555
Ca2 O10 2.356313 1_555
Ca2 O5 2.383089 1_555
Ca2 O11 2.462181 1_555
Ca2 O3 2.581074 1_555
Ca2 O4 2.627645 1_555
Ca2 O7 2.673950 1_554
Ca2 O0 2.751478 1_555
Co0 O6 1.873252 1_555
Co0 O4 1.991142 1_455
Co0 O10 2.032720 1_555
Co0 O0 2.067482 1_555
Co0 O2 2.073494 1_455
Co0 O8 2.093931 1_455
Co1 O3 1.833430 1_555
Co1 O1 2.021091 1_544
Co1 O11 2.025388 1_555
Co1 O5 2.055985 1_545
Co1 O9 2.090294 1_544
Co1 O7 2.106248 1_554
O0 W0 1.985156 1_545
O1 W1 1.910714 1_556
O2 W0 1.925674 1_555
O3 W1 2.038122 1_655
O4 W0 1.906666 1_545
O5 W1 1.919046 1_655
O6 W0 2.035851 1_555
O7 W1 1.967816 1_556
O8 W1 1.988795 1_656
O9 W0 1.999775 1_555
O10 W1 1.886642 1_555
O11 W0 1.872442 1_545
