# generated using pymatgen
data_Tl4SnI6
_symmetry_space_group_name_H-M   'P 1'
_cell_length_a   4.65913300
_cell_length_b   10.08444800
_cell_length_c   19.47989000
_cell_angle_alpha   90.00000000
_cell_angle_beta   90.00000000
_cell_angle_gamma   90.00000000
_symmetry_Int_Tables_number   1
_chemical_formula_structural   Tl4SnI6
_chemical_formula_sum   'Tl8 Sn2 I12'
_cell_volume   915.25843302
_cell_formula_units_Z   2
loop_
 _symmetry_equiv_pos_site_id
 _symmetry_equiv_pos_as_xyz
  1  'x, y, z'
loop_
 _atom_site_type_symbol
 _atom_site_label
 _atom_site_symmetry_multiplicity
 _atom_site_fract_x
 _atom_site_fract_y
 _atom_site_fract_z
 _atom_site_occupancy
  Tl  Tl0  1  0.50000000  0.10639200  0.41923300  1
  Tl  Tl1  1  0.50000000  0.89360800  0.58076700  1
  Tl  Tl2  1  0.50000000  0.39360800  0.91923300  1
  Tl  Tl3  1  0.50000000  0.60639200  0.08076700  1
  Tl  Tl4  1  0.50000000  0.29242800  0.20483100  1
  Tl  Tl5  1  0.50000000  0.70757200  0.79516900  1
  Tl  Tl6  1  0.50000000  0.20757200  0.70483100  1
  Tl  Tl7  1  0.50000000  0.79242800  0.29516900  1
  Sn  Sn0  1  0.00000000  0.00000000  0.00000000  1
  Sn  Sn1  1  0.00000000  0.50000000  0.50000000  1
  I  I0  1  0.00000000  0.30018100  0.05321300  1
  I  I1  1  0.00000000  0.69981900  0.94678700  1
  I  I2  1  0.00000000  0.19981900  0.55321300  1
  I  I3  1  0.00000000  0.80018100  0.44678700  1
  I  I4  1  0.00000000  0.09233500  0.28645500  1
  I  I5  1  0.00000000  0.90766500  0.71354500  1
  I  I6  1  0.00000000  0.40766500  0.78645500  1
  I  I7  1  0.00000000  0.59233500  0.21354500  1
  I  I8  1  0.50000000  0.44085300  0.38869400  1
  I  I9  1  0.50000000  0.55914700  0.61130600  1
  I  I10  1  0.50000000  0.05914700  0.88869400  1
  I  I11  1  0.50000000  0.94085300  0.11130600  1
loop_
_geom_bond_atom_site_label_1
_geom_bond_atom_site_label_2
_geom_bond_distance
_geom_bond_site_symmetry_2
I0 Sn0 3.199719 1_555
I1 Sn0 3.199719 1_566
I2 Sn1 3.199719 1_555
I3 Sn1 3.199719 1_555
I4 Tl4 3.467952 1_455
I4 Tl4 3.467952 1_555
I4 Tl0 3.483814 1_455
I4 Tl0 3.483814 1_555
I5 Tl5 3.467952 1_455
I5 Tl5 3.467952 1_555
I5 Tl1 3.483814 1_555
I5 Tl1 3.483814 1_455
I6 Tl6 3.467952 1_555
I6 Tl6 3.467952 1_455
I6 Tl2 3.483814 1_555
I6 Tl2 3.483814 1_455
I7 Tl7 3.467952 1_455
I7 Tl7 3.467952 1_555
I7 Tl3 3.483814 1_555
I7 Tl3 3.483814 1_455
I8 Sn1 3.237880 1_655
I8 Sn1 3.237880 1_555
I8 Tl0 3.424916 1_555
I9 Sn1 3.237880 1_655
I9 Sn1 3.237880 1_555
I9 Tl1 3.424916 1_555
I10 Sn0 3.237880 1_656
I10 Sn0 3.237880 1_556
I10 Tl2 3.424916 1_555
I11 Sn0 3.237880 1_665
I11 Sn0 3.237880 1_565
I11 Tl3 3.424916 1_555
