# generated using pymatgen
data_Sc2Ir
_symmetry_space_group_name_H-M   'P 1'
_cell_length_a   8.69136518
_cell_length_b   8.69136372
_cell_length_c   8.69136591
_cell_angle_alpha   59.99999168
_cell_angle_beta   59.99999723
_cell_angle_gamma   60.00000000
_symmetry_Int_Tables_number   1
_chemical_formula_structural   Sc2Ir
_chemical_formula_sum   'Sc16 Ir8'
_cell_volume   464.24680383
_cell_formula_units_Z   8
loop_
 _symmetry_equiv_pos_site_id
 _symmetry_equiv_pos_as_xyz
  1  'x, y, z'
loop_
 _atom_site_type_symbol
 _atom_site_label
 _atom_site_symmetry_multiplicity
 _atom_site_fract_x
 _atom_site_fract_y
 _atom_site_fract_z
 _atom_site_occupancy
  Sc  Sc0  1  0.12500000  0.62500000  0.62500000  1
  Sc  Sc1  1  0.62500000  0.12500000  0.62500000  1
  Sc  Sc2  1  0.62500000  0.62500000  0.12500000  1
  Sc  Sc3  1  0.62500000  0.62500000  0.62500000  1
  Sc  Sc4  1  0.81155194  0.81155094  0.18844906  1
  Sc  Sc5  1  0.18844906  0.18844906  0.81155094  1
  Sc  Sc6  1  0.81155194  0.18844906  0.81155094  1
  Sc  Sc7  1  0.18844906  0.81155094  0.18844806  1
  Sc  Sc8  1  0.18844906  0.81155094  0.81155194  1
  Sc  Sc9  1  0.81155194  0.18844906  0.18844806  1
  Sc  Sc10  1  0.43844806  0.43844906  0.06155094  1
  Sc  Sc11  1  0.06155094  0.06155094  0.43844906  1
  Sc  Sc12  1  0.43844806  0.06155094  0.43844906  1
  Sc  Sc13  1  0.06155094  0.43844906  0.06155194  1
  Sc  Sc14  1  0.06155094  0.43844906  0.43844806  1
  Sc  Sc15  1  0.43844806  0.06155094  0.06155194  1
  Ir  Ir0  1  0.77230144  0.40923252  0.40923252  1
  Ir  Ir1  1  0.40923252  0.77230144  0.40923252  1
  Ir  Ir2  1  0.40923252  0.40923252  0.77230144  1
  Ir  Ir3  1  0.40923252  0.40923252  0.40923252  1
  Ir  Ir4  1  0.47769856  0.84076748  0.84076748  1
  Ir  Ir5  1  0.84076748  0.47769856  0.84076748  1
  Ir  Ir6  1  0.84076748  0.84076748  0.47769856  1
  Ir  Ir7  1  0.84076748  0.84076748  0.84076748  1
loop_
_geom_bond_atom_site_label_1
_geom_bond_atom_site_label_2
_geom_bond_distance
_geom_bond_site_symmetry_2
Sc0 Sc5 3.158955 1_555
Sc0 Sc11 3.158955 1_565
Sc0 Sc7 3.158963 1_555
Sc0 Sc13 3.158963 1_556
Sc0 Sc14 3.158963 1_555
Sc0 Sc8 3.158963 1_555
Sc1 Sc11 3.158956 1_655
Sc1 Sc5 3.158956 1_555
Sc1 Sc12 3.158963 1_555
Sc1 Sc15 3.158963 1_556
Sc1 Sc9 3.158963 1_555
Sc1 Sc6 3.158963 1_555
Sc2 Sc9 3.158956 1_555
Sc2 Sc7 3.158957 1_555
Sc2 Sc4 3.158963 1_555
Sc3 Sc6 3.158956 1_555
Sc3 Sc4 3.158957 1_555
Sc3 Sc8 3.158957 1_555
Sc4 Sc7 3.275746 1_655
Sc4 Sc8 3.275751 1_654
Sc4 Sc9 3.275754 1_565
Sc4 Sc6 3.275759 1_564
Sc5 Sc9 3.275751 1_456
Sc5 Sc6 3.275751 1_455
Sc5 Sc8 3.275754 1_545
Sc5 Sc7 3.275754 1_546
Sc6 Sc9 3.275751 1_556
Sc6 Sc8 3.275755 1_645
Sc7 Sc8 3.275742 1_554
Sc7 Sc9 3.275755 1_465
Sc10 Sc3 3.158957 1_554
Sc10 Sc2 3.158963 1_555
Sc10 Sc8 3.253791 1_554
Sc10 Sc7 3.253795 1_555
Sc10 Sc6 3.253806 1_554
Sc10 Sc9 3.253810 1_555
Sc10 Sc13 3.275746 1_555
Sc10 Sc14 3.275751 1_555
Sc10 Sc15 3.275754 1_555
Sc10 Sc12 3.275759 1_555
Sc11 Sc6 3.253800 1_455
Sc11 Sc9 3.253800 1_455
Sc11 Sc7 3.253807 1_545
Sc11 Sc8 3.253807 1_545
Sc11 Sc15 3.275751 1_555
Sc11 Sc12 3.275751 1_555
Sc11 Sc13 3.275754 1_555
Sc11 Sc14 3.275754 1_555
Sc12 Sc3 3.158956 1_545
Sc12 Sc8 3.253798 1_545
Sc12 Sc5 3.253800 1_555
Sc12 Sc4 3.253806 1_545
Sc12 Sc9 3.253814 1_555
Sc12 Sc15 3.275751 1_555
Sc12 Sc14 3.275755 1_555
Sc13 Sc2 3.158957 1_455
Sc13 Sc4 3.253795 1_455
Sc13 Sc9 3.253798 1_455
Sc13 Sc8 3.253799 1_554
Sc13 Sc5 3.253807 1_554
Sc13 Sc14 3.275742 1_555
Sc13 Sc15 3.275755 1_555
Sc14 Sc3 3.158957 1_455
Sc14 Sc4 3.253791 1_455
Sc14 Sc6 3.253798 1_455
Sc14 Sc7 3.253799 1_555
Sc14 Sc5 3.253807 1_555
Sc15 Sc2 3.158956 1_545
Sc15 Sc7 3.253798 1_545
Sc15 Sc5 3.253800 1_554
Sc15 Sc4 3.253810 1_545
Sc15 Sc6 3.253814 1_554
Ir0 Sc1 2.718026 1_555
Ir0 Sc2 2.718026 1_555
Ir0 Sc3 2.718033 1_555
Ir0 Sc13 2.791093 1_655
Ir0 Sc11 2.791098 1_655
Ir0 Sc14 2.791098 1_655
Ir0 Sc9 3.139081 1_555
Ir0 Sc4 3.139088 1_555
Ir0 Sc6 3.139089 1_555
Ir0 Ir1 3.155564 1_555
Ir0 Ir2 3.155565 1_555
Ir0 Ir3 3.155565 1_555
Ir1 Sc0 2.718026 1_555
Ir1 Sc2 2.718027 1_555
Ir1 Sc3 2.718033 1_555
Ir1 Sc15 2.791093 1_565
Ir1 Sc12 2.791098 1_565
Ir1 Sc11 2.791098 1_565
Ir1 Sc7 3.139086 1_555
Ir1 Sc4 3.139093 1_555
Ir1 Sc8 3.139093 1_555
Ir1 Ir3 3.155564 1_555
Ir1 Ir2 3.155564 1_555
Ir2 Sc1 2.718026 1_555
Ir2 Sc0 2.718026 1_555
Ir2 Sc3 2.718033 1_555
Ir2 Sc10 2.791099 1_556
Ir2 Sc15 2.791101 1_556
Ir2 Sc13 2.791102 1_556
Ir2 Sc5 3.139078 1_555
Ir2 Sc8 3.139088 1_555
Ir2 Sc6 3.139093 1_555
Ir2 Ir3 3.155565 1_555
Ir3 Sc2 2.718031 1_555
Ir3 Sc1 2.718031 1_555
Ir3 Sc0 2.718031 1_555
Ir3 Sc12 2.791098 1_555
Ir3 Sc14 2.791098 1_555
Ir3 Sc10 2.791099 1_555
Ir3 Sc5 3.139082 1_555
Ir3 Sc7 3.139085 1_555
Ir3 Sc9 3.139090 1_555
Ir4 Sc1 2.718026 1_565
Ir4 Sc2 2.718026 1_556
Ir4 Sc3 2.718033 1_555
Ir4 Sc7 2.791093 1_556
Ir4 Sc5 2.791098 1_565
Ir4 Sc8 2.791098 1_555
Ir4 Sc15 3.139081 1_566
Ir4 Sc10 3.139088 1_556
Ir4 Sc12 3.139089 1_565
Ir4 Ir5 3.155564 1_555
Ir4 Ir7 3.155565 1_555
Ir4 Ir6 3.155565 1_555
Ir5 Sc0 2.718026 1_655
Ir5 Sc2 2.718027 1_556
Ir5 Sc3 2.718033 1_555
Ir5 Sc9 2.791093 1_556
Ir5 Sc6 2.791098 1_555
Ir5 Sc5 2.791098 1_655
Ir5 Sc13 3.139086 1_656
Ir5 Sc10 3.139093 1_556
Ir5 Sc14 3.139093 1_655
Ir5 Ir7 3.155564 1_555
Ir5 Ir6 3.155564 1_555
Ir6 Sc1 2.718026 1_565
Ir6 Sc0 2.718026 1_655
Ir6 Sc3 2.718033 1_555
Ir6 Sc4 2.791099 1_555
Ir6 Sc9 2.791101 1_565
Ir6 Sc7 2.791102 1_655
Ir6 Sc11 3.139078 1_665
Ir6 Sc14 3.139088 1_655
Ir6 Sc12 3.139093 1_565
Ir6 Ir7 3.155565 1_555
Ir7 Sc2 2.718031 1_556
Ir7 Sc1 2.718031 1_565
Ir7 Sc0 2.718031 1_655
Ir7 Sc6 2.791098 1_565
Ir7 Sc8 2.791098 1_655
Ir7 Sc4 2.791099 1_556
Ir7 Sc11 3.139082 1_665
Ir7 Sc13 3.139085 1_656
Ir7 Sc15 3.139090 1_566
