# generated using pymatgen
data_LiPH4CO3
_symmetry_space_group_name_H-M   'P 1'
_cell_length_a   4.68585600
_cell_length_b   9.40819900
_cell_length_c   9.62248516
_cell_angle_alpha   83.76180541
_cell_angle_beta   90.00000000
_cell_angle_gamma   90.00000000
_symmetry_Int_Tables_number   1
_chemical_formula_structural   LiPH4CO3
_chemical_formula_sum   'Li4 P4 H16 C4 O12'
_cell_volume   421.69987516
_cell_formula_units_Z   4
loop_
 _symmetry_equiv_pos_site_id
 _symmetry_equiv_pos_as_xyz
  1  'x, y, z'
loop_
 _atom_site_type_symbol
 _atom_site_label
 _atom_site_symmetry_multiplicity
 _atom_site_fract_x
 _atom_site_fract_y
 _atom_site_fract_z
 _atom_site_occupancy
  Li  Li0  1  0.10110100  0.49134000  0.63950800  1
  Li  Li1  1  0.60110100  0.50866000  0.86049200  1
  Li  Li2  1  0.89889900  0.50866000  0.36049200  1
  Li  Li3  1  0.39889900  0.49134000  0.13950800  1
  P  P0  1  0.10125600  0.29802400  0.92276200  1
  P  P1  1  0.60125600  0.70197600  0.57723800  1
  P  P2  1  0.89874400  0.70197600  0.07723800  1
  P  P3  1  0.39874400  0.29802400  0.42276200  1
  H  H0  1  0.67990600  0.27593700  0.02438800  1
  H  H1  1  0.17990600  0.72406300  0.47561200  1
  H  H2  1  0.32009400  0.72406300  0.97561200  1
  H  H3  1  0.82009400  0.27593700  0.52438800  1
  H  H4  1  0.01854800  0.09491200  0.79691400  1
  H  H5  1  0.51854800  0.90508800  0.70308600  1
  H  H6  1  0.98145200  0.90508800  0.20308600  1
  H  H7  1  0.48145200  0.09491200  0.29691400  1
  H  H8  1  0.36794400  0.16667800  0.76570400  1
  H  H9  1  0.86794400  0.83332200  0.73429600  1
  H  H10  1  0.63205600  0.83332200  0.23429600  1
  H  H11  1  0.13205600  0.16667800  0.26570400  1
  H  H12  1  0.28808600  0.05920300  0.92670700  1
  H  H13  1  0.78808600  0.94079700  0.57329300  1
  H  H14  1  0.71191400  0.94079700  0.07329300  1
  H  H15  1  0.21191400  0.05920300  0.42670700  1
  C  C0  1  0.20418800  0.13984400  0.84574800  1
  C  C1  1  0.70418800  0.86015600  0.65425200  1
  C  C2  1  0.79581200  0.86015600  0.15425200  1
  C  C3  1  0.29581200  0.13984400  0.34574800  1
  O  O0  1  0.88323000  0.24486000  0.04533500  1
  O  O1  1  0.38323000  0.75514000  0.45466500  1
  O  O2  1  0.11677000  0.75514000  0.95466500  1
  O  O3  1  0.61677000  0.24486000  0.54533500  1
  O  O4  1  0.36979000  0.35728200  0.98842600  1
  O  O5  1  0.86979000  0.64271800  0.51157400  1
  O  O6  1  0.63021000  0.64271800  0.01157400  1
  O  O7  1  0.13021000  0.35728200  0.48842600  1
  O  O8  1  0.95185300  0.40542000  0.81662800  1
  O  O9  1  0.45185300  0.59458000  0.68337200  1
  O  O10  1  0.04814700  0.59458000  0.18337200  1
  O  O11  1  0.54814700  0.40542000  0.31662800  1
loop_
_geom_bond_atom_site_label_1
_geom_bond_atom_site_label_2
_geom_bond_distance
_geom_bond_site_symmetry_2
Li0 O8 1.935944 1_455
Li0 O9 1.977880 1_555
Li0 O7 2.030101 1_555
Li0 O5 2.082689 1_455
Li1 O9 1.935944 1_555
Li1 O8 1.977880 1_555
Li1 O6 2.030101 1_556
Li1 O4 2.082689 1_555
Li2 O10 1.935944 1_655
Li2 O11 1.977880 1_555
Li2 O5 2.030101 1_555
Li2 O7 2.082689 1_655
Li3 O11 1.935944 1_555
Li3 O10 1.977880 1_555
Li3 O4 2.030101 1_554
Li3 O6 2.082689 1_555
H0 O0 1.010461 1_555
H0 O4 1.661193 1_554
H1 O1 1.010461 1_555
H1 O5 1.661193 1_455
H2 O2 1.010461 1_555
H2 O6 1.661193 1_556
H3 O3 1.010461 1_555
H3 O7 1.661193 1_655
C0 H4 1.095160 1_555
C0 H8 1.097053 1_555
C0 H12 1.099362 1_555
C0 P0 1.798943 1_555
C1 H5 1.095160 1_555
C1 H9 1.097053 1_555
C1 H13 1.099362 1_555
C1 P1 1.798943 1_555
C2 H6 1.095160 1_555
C2 H10 1.097053 1_555
C2 H14 1.099362 1_555
C2 P2 1.798943 1_555
C3 H7 1.095160 1_555
C3 H11 1.097053 1_555
C3 H15 1.099362 1_555
C3 P3 1.798943 1_555
O0 P0 1.599010 1_654
O1 P1 1.599010 1_555
O2 P2 1.599010 1_456
O3 P3 1.599010 1_555
O4 P0 1.539467 1_555
O5 P1 1.539467 1_555
O6 P2 1.539467 1_555
O7 P3 1.539467 1_555
O8 P0 1.526358 1_655
O9 P1 1.526358 1_555
O10 P2 1.526358 1_455
O11 P3 1.526358 1_555
