# generated using pymatgen
data_SrCuBiO4
_symmetry_space_group_name_H-M   'P 1'
_cell_length_a   16.85252584
_cell_length_b   16.85252584
_cell_length_c   16.85252584
_cell_angle_alpha   167.74494963
_cell_angle_beta   167.74494963
_cell_angle_gamma   17.36462062
_symmetry_Int_Tables_number   1
_chemical_formula_structural   SrCuBiO4
_chemical_formula_sum   'Sr2 Cu2 Bi2 O8'
_cell_volume   215.63441256
_cell_formula_units_Z   2
loop_
 _symmetry_equiv_pos_site_id
 _symmetry_equiv_pos_as_xyz
  1  'x, y, z'
loop_
 _atom_site_type_symbol
 _atom_site_label
 _atom_site_symmetry_multiplicity
 _atom_site_fract_x
 _atom_site_fract_y
 _atom_site_fract_z
 _atom_site_occupancy
  Sr  Sr0  1  0.89275200  0.89275200  0.00000000  1
  Sr  Sr1  1  0.10724800  0.10724800  0.00000000  1
  Cu  Cu0  1  0.54126400  0.54126400  0.00000000  1
  Cu  Cu1  1  0.45873600  0.45873600  0.00000000  1
  Bi  Bi0  1  0.30265000  0.30265000  0.00000000  1
  Bi  Bi1  1  0.69735000  0.69735000  0.00000000  1
  O  O0  1  0.19756600  0.19756600  0.00000000  1
  O  O1  1  0.44567100  0.94567100  0.50000000  1
  O  O2  1  0.55432900  0.05432900  0.50000000  1
  O  O3  1  0.80243400  0.80243400  0.00000000  1
  O  O4  1  0.36443600  0.36443600  0.00000000  1
  O  O5  1  0.63556400  0.63556400  0.00000000  1
  O  O6  1  0.94567100  0.44567100  0.50000000  1
  O  O7  1  0.05432900  0.55432900  0.50000000  1
loop_
_geom_bond_atom_site_label_1
_geom_bond_atom_site_label_2
_geom_bond_distance
_geom_bond_site_symmetry_2
Cu0 O7 1.850789 1_554
Cu0 O2 1.850789 1_554
Cu0 O7 1.850789 1_655
Cu0 O2 1.850789 1_565
Cu1 O6 1.850789 1_454
Cu1 O1 1.850789 1_544
Cu1 O6 1.850789 1_555
Cu1 O1 1.850789 1_555
Bi0 O4 2.058636 1_555
Bi0 O3 2.543994 1_545
Bi0 O3 2.543994 1_455
Bi0 O3 2.543994 1_556
Bi0 O3 2.543994 1_444
Bi1 O5 2.058636 1_555
Bi1 O0 2.543994 1_565
Bi1 O0 2.543994 1_666
Bi1 O0 2.543994 1_554
Bi1 O0 2.543994 1_655
O0 Sr1 3.009288 1_555
O1 Sr0 2.518887 1_455
O1 Sr0 2.518887 1_556
O2 Sr1 2.518887 1_656
O2 Sr1 2.518887 1_555
O3 Sr0 3.009288 1_555
O4 Sr0 2.713293 1_444
O4 Sr0 2.713293 1_545
O4 Sr0 2.713293 1_455
O4 Sr0 2.713293 1_556
O5 Sr1 2.713293 1_554
O5 Sr1 2.713293 1_655
O5 Sr1 2.713293 1_565
O5 Sr1 2.713293 1_666
O6 Sr0 2.518887 1_545
O6 Sr0 2.518887 1_556
O7 Sr1 2.518887 1_566
O7 Sr1 2.518887 1_555
