# generated using pymatgen
data_Mn3Cr8CuS16
_symmetry_space_group_name_H-M   'P 1'
_cell_length_a   12.28640900
_cell_length_b   12.28640900
_cell_length_c   12.28640940
_cell_angle_alpha   33.70265186
_cell_angle_beta   33.70265186
_cell_angle_gamma   33.70265246
_symmetry_Int_Tables_number   1
_chemical_formula_structural   Mn3Cr8CuS16
_chemical_formula_sum   'Mn3 Cr8 Cu1 S16'
_cell_volume   508.77363369
_cell_formula_units_Z   1
loop_
 _symmetry_equiv_pos_site_id
 _symmetry_equiv_pos_as_xyz
  1  'x, y, z'
loop_
 _atom_site_type_symbol
 _atom_site_label
 _atom_site_symmetry_multiplicity
 _atom_site_fract_x
 _atom_site_fract_y
 _atom_site_fract_z
 _atom_site_occupancy
  Mn  Mn0  1  0.56227200  0.56227200  0.56227200  1
  Mn  Mn1  1  0.43764400  0.43764400  0.43764400  1
  Mn  Mn2  1  0.93750500  0.93750500  0.93750500  1
  Cr  Cr0  1  0.74854300  0.74854300  0.74854300  1
  Cr  Cr1  1  0.25012800  0.25012800  0.25012800  1
  Cr  Cr2  1  0.99730400  0.50324600  0.50324600  1
  Cr  Cr3  1  0.49619000  0.00075600  0.00075600  1
  Cr  Cr4  1  0.50324600  0.99730400  0.50324600  1
  Cr  Cr5  1  0.00075600  0.49619000  0.00075600  1
  Cr  Cr6  1  0.50324600  0.50324600  0.99730400  1
  Cr  Cr7  1  0.00075600  0.00075600  0.49619000  1
  Cu  Cu0  1  0.06239300  0.06239300  0.06239300  1
  S  S0  1  0.12952800  0.12952800  0.12952800  1
  S  S1  1  0.62993400  0.62993400  0.62993400  1
  S  S2  1  0.39622700  0.86216000  0.86216000  1
  S  S3  1  0.90050700  0.35982700  0.35982700  1
  S  S4  1  0.86216000  0.39622700  0.86216000  1
  S  S5  1  0.35982700  0.90050700  0.35982700  1
  S  S6  1  0.86216000  0.86216000  0.39622700  1
  S  S7  1  0.35982700  0.35982700  0.90050700  1
  S  S8  1  0.37016800  0.37016800  0.37016800  1
  S  S9  1  0.86913900  0.86913900  0.86913900  1
  S  S10  1  0.09983000  0.63988300  0.63988300  1
  S  S11  1  0.59814000  0.14140300  0.14140300  1
  S  S12  1  0.63988300  0.09983000  0.63988300  1
  S  S13  1  0.14140300  0.59814000  0.14140300  1
  S  S14  1  0.63988300  0.63988300  0.09983000  1
  S  S15  1  0.14140300  0.14140300  0.59814000  1
loop_
_geom_bond_atom_site_label_1
_geom_bond_atom_site_label_2
_geom_bond_distance
_geom_bond_site_symmetry_2
Mn0 S1 2.350097 1_555
Mn0 S7 2.353754 1_555
Mn0 S3 2.353754 1_555
Mn0 S5 2.353754 1_555
Mn1 S8 2.343637 1_555
Mn1 S14 2.351352 1_555
Mn1 S10 2.351352 1_555
Mn1 S12 2.351352 1_555
Mn2 S15 2.370585 1_665
Mn2 S11 2.370585 1_566
Mn2 S13 2.370585 1_656
Mn2 S9 2.374549 1_555
Cr0 S2 2.401900 1_555
Cr0 S4 2.401900 1_555
Cr0 S6 2.401900 1_555
Cr0 S12 2.446201 1_565
Cr0 S10 2.446201 1_655
Cr0 S14 2.446201 1_556
Cr1 S13 2.411098 1_555
Cr1 S11 2.411098 1_555
Cr1 S15 2.411098 1_555
Cr1 S3 2.416933 1_455
Cr1 S5 2.416933 1_545
Cr1 S7 2.416933 1_554
Cr2 S6 2.394598 1_555
Cr2 S4 2.394598 1_555
Cr2 S8 2.419906 1_655
Cr2 S1 2.422907 1_555
Cr2 S15 2.443872 1_655
Cr2 S13 2.443872 1_655
Cr3 S0 2.397433 1_555
Cr3 S14 2.414286 1_545
Cr3 S12 2.414286 1_554
Cr3 S7 2.425125 1_554
Cr3 S5 2.425125 1_545
Cr3 S9 2.433035 1_544
Cr4 S6 2.394598 1_555
Cr4 S2 2.394598 1_555
Cr4 S8 2.419906 1_565
Cr4 S1 2.422907 1_555
Cr4 S15 2.443872 1_565
Cr4 S11 2.443872 1_565
Cr5 S0 2.397433 1_555
Cr5 S14 2.414286 1_455
Cr5 S10 2.414286 1_554
Cr5 S7 2.425125 1_554
Cr5 S3 2.425125 1_455
Cr5 S9 2.433035 1_454
Cr6 S4 2.394598 1_555
Cr6 S2 2.394598 1_555
Cr6 S8 2.419906 1_556
Cr6 S1 2.422907 1_555
Cr6 S11 2.443872 1_556
Cr6 S13 2.443872 1_556
Cr7 S0 2.397433 1_555
Cr7 S12 2.414286 1_455
Cr7 S10 2.414286 1_545
Cr7 S5 2.425125 1_545
Cr7 S3 2.425125 1_455
Cr7 S9 2.433035 1_445
Cu0 S6 2.327989 1_445
Cu0 S2 2.327989 1_544
Cu0 S4 2.327989 1_454
Cu0 S0 2.331793 1_555
