# generated using pymatgen
data_NdMn4(CuO4)3
_symmetry_space_group_name_H-M   'P 1'
_cell_length_a   6.44880274
_cell_length_b   6.44880274
_cell_length_c   6.44880274
_cell_angle_alpha   109.47122063
_cell_angle_beta   109.47122063
_cell_angle_gamma   109.47122063
_symmetry_Int_Tables_number   1
_chemical_formula_structural   NdMn4(CuO4)3
_chemical_formula_sum   'Nd1 Mn4 Cu3 O12'
_cell_volume   206.45023806
_cell_formula_units_Z   1
loop_
 _symmetry_equiv_pos_site_id
 _symmetry_equiv_pos_as_xyz
  1  'x, y, z'
loop_
 _atom_site_type_symbol
 _atom_site_label
 _atom_site_symmetry_multiplicity
 _atom_site_fract_x
 _atom_site_fract_y
 _atom_site_fract_z
 _atom_site_occupancy
  Nd  Nd0  1  0.00000000  0.00000000  0.00000000  1
  Mn  Mn0  1  0.50000000  0.50000000  0.50000000  1
  Mn  Mn1  1  0.50000000  0.00000000  0.00000000  1
  Mn  Mn2  1  0.00000000  0.50000000  0.00000000  1
  Mn  Mn3  1  0.00000000  0.00000000  0.50000000  1
  Cu  Cu0  1  0.50000000  0.50000000  0.00000000  1
  Cu  Cu1  1  0.50000000  0.00000000  0.50000000  1
  Cu  Cu2  1  0.00000000  0.50000000  0.50000000  1
  O  O0  1  0.82951000  0.69384400  0.52335400  1
  O  O1  1  0.17049000  0.30615600  0.47664600  1
  O  O2  1  0.17049000  0.69384400  0.86433500  1
  O  O3  1  0.82951000  0.30615600  0.13566500  1
  O  O4  1  0.69384400  0.52335400  0.82951000  1
  O  O5  1  0.30615600  0.47664600  0.17049000  1
  O  O6  1  0.69384400  0.86433500  0.17049000  1
  O  O7  1  0.30615600  0.13566500  0.82951000  1
  O  O8  1  0.52335400  0.82951000  0.69384400  1
  O  O9  1  0.47664600  0.17049000  0.30615600  1
  O  O10  1  0.13566500  0.82951000  0.30615600  1
  O  O11  1  0.86433500  0.17049000  0.69384400  1
loop_
_geom_bond_atom_site_label_1
_geom_bond_atom_site_label_2
_geom_bond_distance
_geom_bond_site_symmetry_2
Nd0 O11 2.609423 1_454
Nd0 O3 2.609423 1_455
Nd0 O10 2.609423 1_545
Nd0 O2 2.609423 1_544
Nd0 O6 2.609423 1_445
Nd0 O7 2.609423 1_554
Nd0 O8 2.609424 1_444
Nd0 O0 2.609424 1_444
Nd0 O1 2.609424 1_555
Nd0 O9 2.609424 1_555
Nd0 O4 2.609424 1_444
Nd0 O5 2.609424 1_555
Mn0 O4 1.997746 1_555
Mn0 O1 1.997746 1_555
Mn0 O5 1.997746 1_555
Mn0 O8 1.997746 1_555
Mn0 O0 1.997746 1_555
Mn0 O9 1.997746 1_555
Mn1 O6 1.997741 1_545
Mn1 O7 1.997741 1_554
Mn1 O8 1.997746 1_544
Mn1 O9 1.997746 1_555
Mn1 O3 1.997748 1_555
Mn1 O2 1.997748 1_544
Mn2 O2 1.997741 1_554
Mn2 O3 1.997741 1_455
Mn2 O5 1.997746 1_555
Mn2 O4 1.997746 1_454
Mn2 O11 1.997748 1_454
Mn2 O10 1.997748 1_555
Mn3 O10 1.997741 1_545
Mn3 O11 1.997741 1_455
Mn3 O0 1.997746 1_445
Mn3 O1 1.997746 1_555
Mn3 O6 1.997748 1_445
Mn3 O7 1.997748 1_555
Cu0 O5 1.922311 1_555
Cu0 O4 1.922311 1_554
Cu0 O7 1.922316 1_554
Cu0 O6 1.922316 1_555
Cu1 O9 1.922311 1_555
Cu1 O8 1.922311 1_545
Cu1 O11 1.922316 1_555
Cu1 O10 1.922316 1_545
Cu2 O1 1.922311 1_555
Cu2 O0 1.922311 1_455
Cu2 O3 1.922316 1_455
Cu2 O2 1.922316 1_555
