# generated using pymatgen
data_Li4MnCo2O7
_symmetry_space_group_name_H-M   'P 1'
_cell_length_a   14.84900490
_cell_length_b   14.84900490
_cell_length_c   5.90696181
_cell_angle_alpha   83.89306533
_cell_angle_beta   83.89306533
_cell_angle_gamma   11.16622384
_symmetry_Int_Tables_number   1
_chemical_formula_structural   Li4MnCo2O7
_chemical_formula_sum   'Li8 Mn2 Co4 O14'
_cell_volume   250.78095233
_cell_formula_units_Z   2
loop_
 _symmetry_equiv_pos_site_id
 _symmetry_equiv_pos_as_xyz
  1  'x, y, z'
loop_
 _atom_site_type_symbol
 _atom_site_label
 _atom_site_symmetry_multiplicity
 _atom_site_fract_x
 _atom_site_fract_y
 _atom_site_fract_z
 _atom_site_occupancy
  Li  Li0  1  0.57729900  0.57729900  0.21918900  1
  Li  Li1  1  0.70924400  0.70924400  0.63954500  1
  Li  Li2  1  0.85559800  0.85559800  0.07534400  1
  Li  Li3  1  0.14329300  0.14329300  0.93359600  1
  Li  Li4  1  0.28473700  0.28473700  0.35792500  1
  Li  Li5  1  0.42718400  0.42718400  0.78426400  1
  Li  Li6  1  0.00299400  0.00299400  0.49893500  1
  Li  Li7  1  0.14290100  0.14290100  0.42235500  1
  Mn  Mn0  1  0.00190100  0.00190100  0.99846500  1
  Mn  Mn1  1  0.71067800  0.71067800  0.14835300  1
  Co  Co0  1  0.28510200  0.28510200  0.85868100  1
  Co  Co1  1  0.42789000  0.42789000  0.28886600  1
  Co  Co2  1  0.58020800  0.58020800  0.69609900  1
  Co  Co3  1  0.85587300  0.85587300  0.56924700  1
  O  O0  1  0.50140600  0.50140600  0.22230300  1
  O  O1  1  0.64014700  0.64014700  0.68420100  1
  O  O2  1  0.78095900  0.78095900  0.09331400  1
  O  O3  1  0.06650200  0.06650200  0.94880000  1
  O  O4  1  0.21458400  0.21458400  0.36506600  1
  O  O5  1  0.35548500  0.35548500  0.81315600  1
  O  O6  1  0.92707200  0.92707200  0.51547400  1
  O  O7  1  0.64845800  0.64845800  0.17451300  1
  O  O8  1  0.78569100  0.78569100  0.62608600  1
  O  O9  1  0.93388100  0.93388100  0.05698000  1
  O  O10  1  0.21483200  0.21483200  0.91773600  1
  O  O11  1  0.35661100  0.35661100  0.33040500  1
  O  O12  1  0.49898900  0.49898900  0.77987200  1
  O  O13  1  0.07048000  0.07048000  0.48123000  1
loop_
_geom_bond_atom_site_label_1
_geom_bond_atom_site_label_2
_geom_bond_distance
_geom_bond_site_symmetry_2
Li0 O7 2.091570 1_555
Li0 O13 2.111123 1_655
Li0 O13 2.111123 1_565
Li0 O3 2.202001 1_654
Li0 O3 2.202001 1_564
Li0 O0 2.241287 1_555
Li1 O1 2.031117 1_555
Li1 O4 2.164708 1_655
Li1 O4 2.164708 1_565
Li1 O10 2.207406 1_655
Li1 O10 2.207406 1_565
Li1 O8 2.252443 1_555
Li2 O11 2.089860 1_565
Li2 O11 2.089860 1_655
Li2 O5 2.118187 1_654
Li2 O5 2.118187 1_564
Li2 O2 2.197304 1_555
Li2 O9 2.304750 1_555
Li3 O7 2.044982 1_546
Li3 O7 2.044982 1_456
Li3 O1 2.072480 1_545
Li3 O1 2.072480 1_455
Li3 O10 2.106534 1_555
Li3 O3 2.261885 1_555
Li4 O4 2.069437 1_555
Li4 O11 2.113203 1_555
Li4 O2 2.140075 1_545
Li4 O2 2.140075 1_455
Li4 O8 2.146270 1_545
Li4 O8 2.146270 1_455
Li5 O5 2.107815 1_555
Li5 O12 2.119733 1_555
Li5 O6 2.146870 1_455
Li5 O6 2.146870 1_545
Li5 O9 2.188480 1_456
Li5 O9 2.188480 1_546
Li6 O13 1.986237 1_555
Li6 O0 2.185350 1_545
Li6 O0 2.185350 1_455
Li6 O12 2.193838 1_545
Li6 O12 2.193838 1_455
Li6 O6 2.235704 1_445
Li7 O7 2.050822 1_455
Li7 O7 2.050822 1_545
Li7 O4 2.109576 1_555
Li7 O1 2.111648 1_455
Li7 O1 2.111648 1_545
Li7 O13 2.131615 1_555
Mn0 O3 1.900578 1_555
Mn0 O12 1.945621 1_455
Mn0 O12 1.945621 1_545
Mn0 O0 1.957376 1_456
Mn0 O0 1.957376 1_546
Mn0 O9 2.003228 1_446
Mn1 O7 1.828991 1_555
Mn1 O4 1.941814 1_655
Mn1 O4 1.941814 1_565
Mn1 O10 1.980418 1_564
Mn1 O10 1.980418 1_654
Mn1 O2 2.067973 1_555
Co0 O8 1.992460 1_545
Co0 O8 1.992460 1_455
Co0 O2 1.996658 1_546
Co0 O2 1.996658 1_456
Co0 O5 2.068924 1_555
Co0 O10 2.068970 1_555
Co1 O6 1.967853 1_455
Co1 O6 1.967853 1_545
Co1 O9 1.985628 1_455
Co1 O9 1.985628 1_545
Co1 O11 2.094829 1_555
Co1 O0 2.166457 1_555
Co2 O1 1.765496 1_555
Co2 O13 1.964343 1_655
Co2 O13 1.964343 1_565
Co2 O3 2.085665 1_655
Co2 O3 2.085665 1_565
Co2 O12 2.398707 1_555
Co3 O11 2.017762 1_655
Co3 O11 2.017762 1_565
Co3 O5 2.039464 1_565
Co3 O5 2.039464 1_655
Co3 O8 2.065642 1_555
Co3 O6 2.094433 1_555
