# generated using pymatgen
data_Y3Ge4
_symmetry_space_group_name_H-M   'P 1'
_cell_length_a   4.07225758
_cell_length_b   5.70881286
_cell_length_c   14.26578813
_cell_angle_alpha   90.00000000
_cell_angle_beta   90.00000000
_cell_angle_gamma   110.89547525
_symmetry_Int_Tables_number   1
_chemical_formula_structural   Y3Ge4
_chemical_formula_sum   'Y6 Ge8'
_cell_volume   309.83598410
_cell_formula_units_Z   2
loop_
 _symmetry_equiv_pos_site_id
 _symmetry_equiv_pos_as_xyz
  1  'x, y, z'
loop_
 _atom_site_type_symbol
 _atom_site_label
 _atom_site_symmetry_multiplicity
 _atom_site_fract_x
 _atom_site_fract_y
 _atom_site_fract_z
 _atom_site_occupancy
  Y  Y0  1  0.95412773  0.90825446  0.25000000  1
  Y  Y1  1  0.04587227  0.09174554  0.75000000  1
  Y  Y2  1  0.33068839  0.66137779  0.59640305  1
  Y  Y3  1  0.66931161  0.33862221  0.40359695  1
  Y  Y4  1  0.66931161  0.33862221  0.09640305  1
  Y  Y5  1  0.33068839  0.66137779  0.90359695  1
  Ge  Ge0  1  0.22737644  0.45475288  0.25000000  1
  Ge  Ge1  1  0.77262356  0.54524712  0.75000000  1
  Ge  Ge2  1  0.00000000  0.00000000  0.50000000  1
  Ge  Ge3  1  0.00000000  0.00000000  -0.00000000  1
  Ge  Ge4  1  0.37996205  0.75992509  0.39095572  1
  Ge  Ge5  1  0.62003795  0.24007491  0.60904328  1
  Ge  Ge6  1  0.37996205  0.75992509  0.10904328  1
  Ge  Ge7  1  0.62003795  0.24007491  0.89095672  1
loop_
_geom_bond_atom_site_label_1
_geom_bond_atom_site_label_2
_geom_bond_distance
_geom_bond_site_symmetry_2
Ge0 Ge4 2.586997 1_555
Ge0 Ge6 2.587008 1_555
Ge0 Y0 2.914672 1_445
Ge0 Y3 3.054620 1_455
Ge0 Y4 3.054620 1_455
Ge0 Y4 3.054623 1_555
Ge0 Y3 3.054623 1_555
Ge0 Y0 3.161623 1_455
Ge0 Y0 3.161625 1_555
Ge1 Ge7 2.587008 1_555
Ge1 Ge5 2.587008 1_555
Ge1 Y1 2.914672 1_665
Ge1 Y2 3.054620 1_655
Ge1 Y5 3.054620 1_655
Ge1 Y2 3.054623 1_555
Ge1 Y5 3.054623 1_555
Ge1 Y1 3.161623 1_655
Ge1 Y1 3.161625 1_555
Ge2 Ge5 2.864456 1_455
Ge2 Ge5 2.864458 1_555
Ge2 Ge4 2.864463 1_545
Ge2 Ge4 2.864466 1_445
Ge2 Y3 3.049390 1_455
Ge2 Y2 3.049390 1_545
Ge2 Y3 3.049393 1_555
Ge2 Y2 3.049393 1_445
Ge3 Ge7 2.864456 1_454
Ge3 Ge6 2.864456 1_545
Ge3 Ge7 2.864458 1_554
Ge3 Ge6 2.864458 1_445
Ge3 Y5 3.049390 1_544
Ge3 Y4 3.049390 1_455
Ge3 Y5 3.049393 1_444
Ge3 Y4 3.049393 1_555
Ge4 Y0 2.969028 1_455
Ge4 Y0 2.969034 1_555
Ge4 Y2 2.977622 1_555
Ge4 Y3 3.037623 1_455
Ge4 Y3 3.037629 1_555
Ge4 Y3 3.091664 1_565
Ge5 Y1 2.969038 1_655
Ge5 Y1 2.969043 1_555
Ge5 Y3 2.977608 1_555
Ge5 Y2 3.037622 1_655
Ge5 Y2 3.037628 1_555
Ge5 Y2 3.091663 1_545
Ge6 Y0 2.969038 1_455
Ge6 Y0 2.969043 1_555
Ge6 Y5 2.977608 1_554
Ge6 Y4 3.037622 1_455
Ge6 Y4 3.037628 1_555
Ge6 Y4 3.091663 1_565
Ge7 Y1 2.969038 1_655
Ge7 Y1 2.969043 1_555
Ge7 Y4 2.977608 1_556
Ge7 Y5 3.037622 1_655
Ge7 Y5 3.037628 1_555
Ge7 Y5 3.091663 1_545
