# generated using pymatgen
data_RhSe2
_symmetry_space_group_name_H-M   'P 1'
_cell_length_a   3.72899249
_cell_length_b   5.99536860
_cell_length_c   21.10271054
_cell_angle_alpha   90.00000000
_cell_angle_beta   90.00000000
_cell_angle_gamma   90.00000000
_symmetry_Int_Tables_number   1
_chemical_formula_structural   RhSe2
_chemical_formula_sum   'Rh8 Se16'
_cell_volume   471.78664130
_cell_formula_units_Z   8
loop_
 _symmetry_equiv_pos_site_id
 _symmetry_equiv_pos_as_xyz
  1  'x, y, z'
loop_
 _atom_site_type_symbol
 _atom_site_label
 _atom_site_symmetry_multiplicity
 _atom_site_fract_x
 _atom_site_fract_y
 _atom_site_fract_z
 _atom_site_occupancy
  Rh  Rh0  1  0.25000000  0.07459657  0.57554433  1
  Rh  Rh1  1  0.25000000  0.42540343  0.07554433  1
  Rh  Rh2  1  0.75000000  0.92540343  0.42445567  1
  Rh  Rh3  1  0.75000000  0.57459657  0.92445567  1
  Rh  Rh4  1  0.25000000  0.05615897  0.80530047  1
  Rh  Rh5  1  0.25000000  0.44384103  0.30530047  1
  Rh  Rh6  1  0.75000000  0.94384103  0.19469953  1
  Rh  Rh7  1  0.75000000  0.55615897  0.69469953  1
  Se  Se0  1  0.25000000  0.43028821  0.85972027  1
  Se  Se1  1  0.25000000  0.06971179  0.35972027  1
  Se  Se2  1  0.75000000  0.56971179  0.14027973  1
  Se  Se3  1  0.75000000  0.93028821  0.64027973  1
  Se  Se4  1  0.75000000  0.17925669  0.73667013  1
  Se  Se5  1  0.75000000  0.32074331  0.23667013  1
  Se  Se6  1  0.25000000  0.82074331  0.26332987  1
  Se  Se7  1  0.25000000  0.67925669  0.76332987  1
  Se  Se8  1  0.75000000  0.95277866  0.87858256  1
  Se  Se9  1  0.75000000  0.54722134  0.37858256  1
  Se  Se10  1  0.25000000  0.04722134  0.12141744  1
  Se  Se11  1  0.25000000  0.45277866  0.62141744  1
  Se  Se12  1  0.75000000  0.22380480  0.50730495  1
  Se  Se13  1  0.75000000  0.27619520  0.00730495  1
  Se  Se14  1  0.25000000  0.77619520  0.49269505  1
  Se  Se15  1  0.25000000  0.72380480  0.99269505  1
loop_
_geom_bond_atom_site_label_1
_geom_bond_atom_site_label_2
_geom_bond_distance
_geom_bond_site_symmetry_2
Rh0 Se11 2.465350 1_555
Rh0 Se3 2.468014 1_545
Rh0 Se3 2.468014 1_445
Rh0 Se14 2.501464 1_545
Rh0 Se12 2.519977 1_455
Rh0 Se12 2.519977 1_555
Rh1 Se10 2.465350 1_555
Rh1 Se2 2.468014 1_455
Rh1 Se2 2.468014 1_555
Rh1 Se15 2.501464 1_554
Rh1 Se13 2.519977 1_555
Rh1 Se13 2.519977 1_455
Rh2 Se9 2.465350 1_555
Rh2 Se1 2.468014 1_565
Rh2 Se1 2.468014 1_665
Rh2 Se12 2.501464 1_565
Rh2 Se14 2.519977 1_655
Rh2 Se14 2.519977 1_555
Rh3 Se8 2.465350 1_555
Rh3 Se0 2.468014 1_555
Rh3 Se0 2.468014 1_655
Rh3 Se13 2.501464 1_556
Rh3 Se15 2.519977 1_555
Rh3 Se15 2.519977 1_655
Rh4 Se7 2.427046 1_545
Rh4 Se4 2.473570 1_455
Rh4 Se4 2.473570 1_555
Rh4 Se8 2.500402 1_445
Rh4 Se8 2.500402 1_545
Rh4 Se0 2.519936 1_555
Rh5 Se6 2.427046 1_555
Rh5 Se5 2.473570 1_455
Rh5 Se5 2.473570 1_555
Rh5 Se9 2.500402 1_455
Rh5 Se9 2.500402 1_555
Rh5 Se1 2.519936 1_555
Rh6 Se5 2.427046 1_565
Rh6 Se6 2.473570 1_555
Rh6 Se6 2.473570 1_655
Rh6 Se10 2.500402 1_665
Rh6 Se10 2.500402 1_565
Rh6 Se2 2.519936 1_555
Rh7 Se4 2.427046 1_555
Rh7 Se7 2.473570 1_555
Rh7 Se7 2.473570 1_655
Rh7 Se11 2.500402 1_655
Rh7 Se11 2.500402 1_555
Rh7 Se3 2.519936 1_555
Se0 Se7 2.523011 1_555
Se1 Se6 2.523011 1_545
Se2 Se5 2.523011 1_555
Se3 Se4 2.523011 1_565
