# generated using pymatgen
data_Na2Cd11
_symmetry_space_group_name_H-M   'P 1'
_cell_length_a   9.62164142
_cell_length_b   9.62164142
_cell_length_c   9.62164142
_cell_angle_alpha   90.00000000
_cell_angle_beta   90.00000000
_cell_angle_gamma   90.00000000
_symmetry_Int_Tables_number   1
_chemical_formula_structural   Na2Cd11
_chemical_formula_sum   'Na6 Cd33'
_cell_volume   890.73291845
_cell_formula_units_Z   3
loop_
 _symmetry_equiv_pos_site_id
 _symmetry_equiv_pos_as_xyz
  1  'x, y, z'
loop_
 _atom_site_type_symbol
 _atom_site_label
 _atom_site_symmetry_multiplicity
 _atom_site_fract_x
 _atom_site_fract_y
 _atom_site_fract_z
 _atom_site_occupancy
  Na  Na0  1  0.50000000  0.19798668  0.00000000  1
  Na  Na1  1  0.50000000  0.80201332  0.00000000  1
  Na  Na2  1  -0.00000000  0.50000000  0.19798668  1
  Na  Na3  1  -0.00000000  0.50000000  0.80201332  1
  Na  Na4  1  0.19798668  -0.00000000  0.50000000  1
  Na  Na5  1  0.80201332  -0.00000000  0.50000000  1
  Cd  Cd0  1  -0.00000000  -0.00000000  0.00000000  1
  Cd  Cd1  1  0.73309892  -0.00000000  0.15654497  1
  Cd  Cd2  1  0.26690108  -0.00000000  0.84345503  1
  Cd  Cd3  1  0.26690108  -0.00000000  0.15654497  1
  Cd  Cd4  1  0.73309892  -0.00000000  0.84345503  1
  Cd  Cd5  1  0.15654497  0.73309892  0.00000000  1
  Cd  Cd6  1  0.84345503  0.26690108  0.00000000  1
  Cd  Cd7  1  0.15654497  0.26690108  0.00000000  1
  Cd  Cd8  1  0.84345503  0.73309892  0.00000000  1
  Cd  Cd9  1  -0.00000000  0.15654497  0.73309892  1
  Cd  Cd10  1  -0.00000000  0.84345503  0.26690108  1
  Cd  Cd11  1  -0.00000000  0.15654497  0.26690108  1
  Cd  Cd12  1  -0.00000000  0.84345503  0.73309892  1
  Cd  Cd13  1  0.50000000  0.26766811  0.50000000  1
  Cd  Cd14  1  0.50000000  0.73233189  0.50000000  1
  Cd  Cd15  1  0.50000000  0.50000000  0.26766811  1
  Cd  Cd16  1  0.50000000  0.50000000  0.73233189  1
  Cd  Cd17  1  0.26766811  0.50000000  0.50000000  1
  Cd  Cd18  1  0.73233189  0.50000000  0.50000000  1
  Cd  Cd19  1  -0.00000000  0.34088839  0.50000000  1
  Cd  Cd20  1  -0.00000000  0.65911161  0.50000000  1
  Cd  Cd21  1  0.50000000  -0.00000000  0.34088839  1
  Cd  Cd22  1  0.50000000  -0.00000000  0.65911161  1
  Cd  Cd23  1  0.34088839  0.50000000  0.00000000  1
  Cd  Cd24  1  0.65911161  0.50000000  0.00000000  1
  Cd  Cd25  1  0.71856163  0.28143837  0.28143837  1
  Cd  Cd26  1  0.28143837  0.28143837  0.71856163  1
  Cd  Cd27  1  0.28143837  0.71856163  0.28143837  1
  Cd  Cd28  1  0.71856163  0.71856163  0.71856163  1
  Cd  Cd29  1  0.28143837  0.71856163  0.71856163  1
  Cd  Cd30  1  0.71856163  0.71856163  0.28143837  1
  Cd  Cd31  1  0.71856163  0.28143837  0.71856163  1
  Cd  Cd32  1  0.28143837  0.28143837  0.28143837  1
loop_
_geom_bond_atom_site_label_1
_geom_bond_atom_site_label_2
_geom_bond_distance
_geom_bond_site_symmetry_2
Cd0 Cd7 2.977156 1_555
Cd0 Cd11 2.977156 1_555
Cd0 Cd9 2.977156 1_554
Cd0 Cd10 2.977156 1_545
Cd0 Cd2 2.977156 1_554
Cd0 Cd8 2.977156 1_445
Cd0 Cd6 2.977156 1_455
Cd0 Cd3 2.977156 1_555
Cd0 Cd12 2.977156 1_544
Cd0 Cd1 2.977156 1_455
Cd0 Cd5 2.977156 1_545
Cd0 Cd4 2.977156 1_454
Cd1 Cd21 2.859386 1_555
Cd1 Cd30 2.965858 1_545
Cd1 Cd25 2.965858 1_555
Cd1 Cd4 3.012439 1_554
Cd1 Cd10 3.160837 1_645
Cd1 Cd11 3.160837 1_655
Cd1 Cd6 3.160837 1_555
Cd1 Cd8 3.160837 1_545
Cd1 Na1 3.305705 1_545
Cd1 Na0 3.305705 1_555
Cd1 Na5 3.370467 1_555
Cd2 Cd22 2.859386 1_555
Cd2 Cd29 2.965858 1_545
Cd2 Cd26 2.965858 1_555
Cd2 Cd3 3.012439 1_556
Cd2 Cd7 3.160837 1_556
Cd2 Cd9 3.160837 1_555
Cd2 Cd5 3.160837 1_546
Cd2 Na1 3.305705 1_546
Cd2 Na0 3.305705 1_556
Cd2 Na4 3.370467 1_555
Cd3 Cd32 2.965858 1_555
Cd3 Cd7 3.160837 1_555
Cd3 Cd5 3.160837 1_545
Cd3 Na1 3.305705 1_545
Cd3 Na0 3.305705 1_555
Cd3 Na4 3.370467 1_555
Cd4 Cd6 3.160837 1_556
Cd4 Cd8 3.160837 1_546
Cd4 Cd9 3.160837 1_655
Cd4 Na1 3.305705 1_546
Cd4 Na0 3.305705 1_556
Cd4 Na5 3.370467 1_555
Cd5 Cd8 3.012439 1_455
Cd5 Na2 3.305705 1_555
Cd5 Na3 3.305705 1_554
Cd5 Na1 3.370467 1_555
Cd6 Cd7 3.012439 1_655
Cd6 Cd9 3.160837 1_654
Cd6 Na3 3.305705 1_654
Cd6 Na2 3.305705 1_655
Cd6 Na0 3.370467 1_555
Cd7 Cd9 3.160837 1_554
Cd7 Na2 3.305705 1_555
Cd7 Na3 3.305705 1_554
Cd7 Na0 3.370467 1_555
Cd8 Na3 3.305705 1_654
Cd8 Na2 3.305705 1_655
Cd8 Na1 3.370467 1_555
Cd9 Na5 3.305705 1_455
Cd9 Na4 3.305705 1_555
Cd9 Na3 3.370467 1_555
Cd10 Cd20 2.859386 1_555
Cd10 Cd30 2.965858 1_455
Cd10 Cd27 2.965858 1_555
Cd10 Cd11 3.012439 1_565
Cd10 Cd5 3.160837 1_555
Cd10 Cd3 3.160837 1_565
Cd10 Cd8 3.160837 1_455
Cd10 Na5 3.305705 1_465
Cd10 Na4 3.305705 1_565
Cd10 Na2 3.370467 1_555
Cd11 Cd19 2.859386 1_555
Cd11 Cd25 2.965858 1_455
Cd11 Cd32 2.965858 1_555
Cd11 Cd6 3.160837 1_455
Cd11 Cd3 3.160837 1_555
Cd11 Cd7 3.160837 1_555
Cd11 Na5 3.305705 1_455
Cd11 Na4 3.305705 1_555
Cd11 Na2 3.370467 1_555
Cd12 Cd20 2.859386 1_555
Cd12 Cd29 2.965858 1_555
Cd12 Cd28 2.965858 1_455
Cd12 Cd9 3.012439 1_565
Cd12 Cd5 3.160837 1_556
Cd12 Cd8 3.160837 1_456
Cd12 Cd4 3.160837 1_465
Cd12 Cd2 3.160837 1_565
Cd12 Na5 3.305705 1_465
Cd12 Na4 3.305705 1_565
Cd12 Na3 3.370467 1_555
Cd13 Cd26 2.976930 1_555
Cd13 Cd25 2.976930 1_555
Cd13 Cd32 2.976930 1_555
Cd13 Cd31 2.976930 1_555
Cd13 Cd22 2.996067 1_555
Cd13 Cd21 2.996067 1_555
Cd13 Cd15 3.161353 1_555
Cd13 Cd16 3.161353 1_555
Cd13 Cd17 3.161353 1_555
Cd13 Cd18 3.161353 1_555
Cd14 Cd30 2.976930 1_555
Cd14 Cd27 2.976930 1_555
Cd14 Cd29 2.976930 1_555
Cd14 Cd28 2.976930 1_555
Cd14 Cd21 2.996067 1_565
Cd14 Cd22 2.996067 1_565
Cd14 Cd15 3.161353 1_555
Cd14 Cd16 3.161353 1_555
Cd14 Cd17 3.161353 1_555
Cd14 Cd18 3.161353 1_555
Cd15 Cd27 2.976930 1_555
Cd15 Cd25 2.976930 1_555
Cd15 Cd32 2.976930 1_555
Cd15 Cd30 2.976930 1_555
Cd15 Cd23 2.996067 1_555
Cd15 Cd24 2.996067 1_555
Cd15 Cd17 3.161353 1_555
Cd15 Cd18 3.161353 1_555
Cd16 Cd31 2.976930 1_555
Cd16 Cd26 2.976930 1_555
Cd16 Cd29 2.976930 1_555
Cd16 Cd28 2.976930 1_555
Cd16 Cd23 2.996067 1_556
Cd16 Cd24 2.996067 1_556
Cd16 Cd17 3.161353 1_555
Cd16 Cd18 3.161353 1_555
Cd17 Cd27 2.976930 1_555
Cd17 Cd32 2.976930 1_555
Cd17 Cd26 2.976930 1_555
Cd17 Cd29 2.976930 1_555
Cd17 Cd20 2.996067 1_555
Cd17 Cd19 2.996067 1_555
Cd18 Cd30 2.976930 1_555
Cd18 Cd31 2.976930 1_555
Cd18 Cd25 2.976930 1_555
Cd18 Cd28 2.976930 1_555
Cd18 Cd20 2.996067 1_655
Cd18 Cd19 2.996067 1_655
Cd19 Cd9 2.859386 1_555
Cd19 Cd20 3.061830 1_555
Cd19 Na2 3.284470 1_555
Cd19 Na3 3.284470 1_555
Cd19 Cd32 3.475944 1_555
Cd19 Cd25 3.475944 1_455
Cd19 Cd31 3.475944 1_455
Cd19 Cd26 3.475944 1_555
Cd19 Na5 3.792973 1_455
Cd19 Na4 3.792973 1_555
Cd20 Na3 3.284470 1_555
Cd20 Na2 3.284470 1_555
Cd20 Cd30 3.475944 1_455
Cd20 Cd28 3.475944 1_455
Cd20 Cd27 3.475944 1_555
Cd20 Cd29 3.475944 1_555
Cd20 Na5 3.792973 1_465
Cd20 Na4 3.792973 1_565
Cd21 Cd3 2.859386 1_555
Cd21 Cd22 3.061830 1_555
Cd21 Na5 3.284470 1_555
Cd21 Na4 3.284470 1_555
Cd21 Cd32 3.475944 1_555
Cd21 Cd27 3.475944 1_545
Cd21 Cd30 3.475944 1_545
Cd21 Cd25 3.475944 1_555
Cd21 Na1 3.792973 1_545
Cd21 Na0 3.792973 1_555
Cd22 Cd4 2.859386 1_555
Cd22 Na5 3.284470 1_555
Cd22 Na4 3.284470 1_555
Cd22 Cd29 3.475944 1_545
Cd22 Cd31 3.475944 1_555
Cd22 Cd26 3.475944 1_555
Cd22 Cd28 3.475944 1_545
Cd22 Na1 3.792973 1_546
Cd22 Na0 3.792973 1_556
Cd23 Cd5 2.859386 1_555
Cd23 Cd7 2.859386 1_555
Cd23 Cd24 3.061830 1_555
Cd23 Na1 3.284470 1_555
Cd23 Na0 3.284470 1_555
Cd23 Cd26 3.475944 1_554
Cd23 Cd32 3.475944 1_555
Cd23 Cd29 3.475944 1_554
Cd23 Cd27 3.475944 1_555
Cd23 Na3 3.792973 1_554
Cd23 Na2 3.792973 1_555
Cd24 Cd8 2.859386 1_555
Cd24 Cd6 2.859386 1_555
Cd24 Na0 3.284470 1_555
Cd24 Na1 3.284470 1_555
Cd24 Cd31 3.475944 1_554
Cd24 Cd30 3.475944 1_555
Cd24 Cd28 3.475944 1_554
Cd24 Cd25 3.475944 1_555
Cd24 Na3 3.792973 1_654
Cd24 Na2 3.792973 1_655
Cd25 Cd6 2.965858 1_555
Cd25 Na2 3.521323 1_655
Cd25 Na5 3.521323 1_555
Cd25 Na0 3.521323 1_555
Cd26 Cd7 2.965858 1_556
Cd26 Cd9 2.965858 1_555
Cd26 Na0 3.521323 1_556
Cd26 Na3 3.521323 1_555
Cd26 Na4 3.521323 1_555
Cd27 Cd3 2.965858 1_565
Cd27 Cd5 2.965858 1_555
Cd27 Na1 3.521323 1_555
Cd27 Na4 3.521323 1_565
Cd27 Na2 3.521323 1_555
Cd28 Cd8 2.965858 1_556
Cd28 Cd4 2.965858 1_565
Cd28 Na1 3.521323 1_556
Cd28 Na3 3.521323 1_655
Cd28 Na5 3.521323 1_565
Cd29 Cd5 2.965858 1_556
Cd29 Na1 3.521323 1_556
Cd29 Na4 3.521323 1_565
Cd29 Na3 3.521323 1_555
Cd30 Cd8 2.965858 1_555
Cd30 Na5 3.521323 1_565
Cd30 Na2 3.521323 1_655
Cd30 Na1 3.521323 1_555
Cd31 Cd6 2.965858 1_556
Cd31 Cd9 2.965858 1_655
Cd31 Cd4 2.965858 1_555
Cd31 Na3 3.521323 1_655
Cd31 Na0 3.521323 1_556
Cd31 Na5 3.521323 1_555
Cd32 Cd7 2.965858 1_555
Cd32 Na4 3.521323 1_555
Cd32 Na2 3.521323 1_555
Cd32 Na0 3.521323 1_555
