# generated using pymatgen
data_TaOs3
_symmetry_space_group_name_H-M   'P 1'
_cell_length_a   5.57529156
_cell_length_b   5.57529156
_cell_length_c   18.17397400
_cell_angle_alpha   90.00000000
_cell_angle_beta   90.00000000
_cell_angle_gamma   119.99999480
_symmetry_Int_Tables_number   1
_chemical_formula_structural   TaOs3
_chemical_formula_sum   'Ta8 Os24'
_cell_volume   489.23297869
_cell_formula_units_Z   8
loop_
 _symmetry_equiv_pos_site_id
 _symmetry_equiv_pos_as_xyz
  1  'x, y, z'
loop_
 _atom_site_type_symbol
 _atom_site_label
 _atom_site_symmetry_multiplicity
 _atom_site_fract_x
 _atom_site_fract_y
 _atom_site_fract_z
 _atom_site_occupancy
  Ta  Ta0_0  1  0.33333350  0.16666650  0.00000000  1
  Ta  Ta0_1  1  0.33333350  0.16666650  0.50000000  1
  Ta  Ta0_2  1  0.33333350  0.66666650  0.00000000  1
  Ta  Ta0_3  1  0.33333350  0.66666650  0.50000000  1
  Ta  Ta0_4  1  0.83333350  0.16666650  0.00000000  1
  Ta  Ta0_5  1  0.83333350  0.16666650  0.50000000  1
  Ta  Ta0_6  1  0.83333350  0.66666650  0.00000000  1
  Ta  Ta0_7  1  0.83333350  0.66666650  0.50000000  1
  Os  Os0_0  1  0.33333350  0.16666650  0.25000000  1
  Os  Os0_1  1  0.33333350  0.16666650  0.75000000  1
  Os  Os0_2  1  0.33333350  0.66666650  0.25000000  1
  Os  Os0_3  1  0.33333350  0.66666650  0.75000000  1
  Os  Os0_4  1  0.83333350  0.16666650  0.25000000  1
  Os  Os0_5  1  0.83333350  0.16666650  0.75000000  1
  Os  Os0_6  1  0.83333350  0.66666650  0.25000000  1
  Os  Os0_7  1  0.83333350  0.66666650  0.75000000  1
  Os  Os1_0  1  0.16666650  0.33333350  0.13239300  1
  Os  Os1_1  1  0.16666650  0.33333350  0.63239300  1
  Os  Os1_2  1  0.16666650  0.83333350  0.13239300  1
  Os  Os1_3  1  0.16666650  0.83333350  0.63239300  1
  Os  Os1_4  1  0.66666650  0.33333350  0.13239300  1
  Os  Os1_5  1  0.66666650  0.33333350  0.63239300  1
  Os  Os1_6  1  0.66666650  0.83333350  0.13239300  1
  Os  Os1_7  1  0.66666650  0.83333350  0.63239300  1
  Os  Os2_0  1  0.16666650  0.33333350  0.36760700  1
  Os  Os2_1  1  0.16666650  0.33333350  0.86760700  1
  Os  Os2_2  1  0.16666650  0.83333350  0.36760700  1
  Os  Os2_3  1  0.16666650  0.83333350  0.86760700  1
  Os  Os2_4  1  0.66666650  0.33333350  0.36760700  1
  Os  Os2_5  1  0.66666650  0.33333350  0.86760700  1
  Os  Os2_6  1  0.66666650  0.83333350  0.36760700  1
  Os  Os2_7  1  0.66666650  0.83333350  0.86760700  1
loop_
_geom_bond_atom_site_label_1
_geom_bond_atom_site_label_2
_geom_bond_distance
_geom_bond_site_symmetry_2
Ta0_0 Ta0_4 2.787646 1_555
Ta0_0 Ta0_2 2.787646 1_555
Ta0_0 Ta0_2 2.787646 1_545
Ta0_0 Ta0_4 2.787646 1_455
Ta0_0 Ta0_6 2.787646 1_555
Ta0_0 Ta0_6 2.787646 1_445
Ta0_1 Ta0_5 2.787646 1_555
Ta0_1 Ta0_5 2.787646 1_455
Ta0_1 Ta0_3 2.787646 1_545
Ta0_1 Ta0_3 2.787646 1_555
Ta0_1 Ta0_7 2.787646 1_555
Ta0_1 Ta0_7 2.787646 1_445
Ta0_2 Ta0_6 2.787646 1_555
Ta0_2 Ta0_6 2.787646 1_455
Ta0_2 Ta0_4 2.787646 1_565
Ta0_2 Ta0_4 2.787646 1_455
Ta0_3 Ta0_7 2.787646 1_555
Ta0_3 Ta0_7 2.787646 1_455
Ta0_3 Ta0_5 2.787646 1_565
Ta0_3 Ta0_5 2.787646 1_455
Ta0_4 Ta0_6 2.787646 1_555
Ta0_4 Ta0_6 2.787646 1_545
Ta0_5 Ta0_7 2.787646 1_555
Ta0_5 Ta0_7 2.787646 1_545
Os0_0 Os1_2 2.675582 1_545
Os0_0 Os1_4 2.675582 1_555
Os0_0 Os2_4 2.675582 1_555
Os0_0 Os2_2 2.675582 1_545
Os0_0 Os1_0 2.675585 1_555
Os0_0 Os2_0 2.675585 1_555
Os0_0 Os0_4 2.787646 1_555
Os0_0 Os0_2 2.787646 1_545
Os0_0 Os0_2 2.787646 1_555
Os0_0 Os0_4 2.787646 1_455
Os0_0 Os0_6 2.787646 1_555
Os0_0 Os0_6 2.787646 1_445
Os0_1 Os1_3 2.675582 1_545
Os0_1 Os1_5 2.675582 1_555
Os0_1 Os2_5 2.675582 1_555
Os0_1 Os2_3 2.675582 1_545
Os0_1 Os1_1 2.675585 1_555
Os0_1 Os2_1 2.675585 1_555
Os0_1 Os0_5 2.787646 1_555
Os0_1 Os0_5 2.787646 1_455
Os0_1 Os0_3 2.787646 1_545
Os0_1 Os0_3 2.787646 1_555
Os0_1 Os0_7 2.787646 1_555
Os0_1 Os0_7 2.787646 1_445
Os0_2 Os1_6 2.675582 1_555
Os0_2 Os1_0 2.675582 1_555
Os0_2 Os2_0 2.675582 1_555
Os0_2 Os2_6 2.675582 1_555
Os0_2 Os1_2 2.675585 1_555
Os0_2 Os2_2 2.675585 1_555
Os0_2 Os0_6 2.787646 1_555
Os0_2 Os0_6 2.787646 1_455
Os0_2 Os0_4 2.787646 1_565
Os0_2 Os0_4 2.787646 1_455
Os0_3 Os1_1 2.675582 1_555
Os0_3 Os1_7 2.675582 1_555
Os0_3 Os2_1 2.675582 1_555
Os0_3 Os2_7 2.675582 1_555
Os0_3 Os1_3 2.675585 1_555
Os0_3 Os2_3 2.675585 1_555
Os0_3 Os0_7 2.787646 1_555
Os0_3 Os0_7 2.787646 1_455
Os0_3 Os0_5 2.787646 1_565
Os0_3 Os0_5 2.787646 1_455
Os0_4 Os1_6 2.675582 1_545
Os0_4 Os1_0 2.675582 1_655
Os0_4 Os2_0 2.675582 1_655
Os0_4 Os2_6 2.675582 1_545
Os0_4 Os1_4 2.675585 1_555
Os0_4 Os2_4 2.675585 1_555
Os0_4 Os0_6 2.787646 1_545
Os0_4 Os0_6 2.787646 1_555
Os0_5 Os1_7 2.675582 1_545
Os0_5 Os1_1 2.675582 1_655
Os0_5 Os2_1 2.675582 1_655
Os0_5 Os2_7 2.675582 1_545
Os0_5 Os1_5 2.675585 1_555
Os0_5 Os2_5 2.675585 1_555
Os0_5 Os0_7 2.787646 1_545
Os0_5 Os0_7 2.787646 1_555
Os0_6 Os1_4 2.675582 1_555
Os0_6 Os1_2 2.675582 1_655
Os0_6 Os2_4 2.675582 1_555
Os0_6 Os2_2 2.675582 1_655
Os0_6 Os1_6 2.675585 1_555
Os0_6 Os2_6 2.675585 1_555
Os0_7 Os1_5 2.675582 1_555
Os0_7 Os1_3 2.675582 1_655
Os0_7 Os2_3 2.675582 1_655
Os0_7 Os2_5 2.675582 1_555
Os0_7 Os1_7 2.675585 1_555
Os0_7 Os2_7 2.675585 1_555
Os1_0 Os1_4 2.787646 1_555
Os1_0 Os1_4 2.787646 1_455
Os1_0 Os1_2 2.787646 1_555
Os1_0 Os1_2 2.787646 1_545
Os1_0 Os1_6 2.787646 1_445
Os1_0 Os1_6 2.787646 1_555
Os1_0 Ta0_2 2.894766 1_555
Os1_0 Ta0_4 2.894766 1_455
Os1_0 Ta0_0 2.894768 1_555
Os1_1 Os1_3 2.787646 1_555
Os1_1 Os1_5 2.787646 1_455
Os1_1 Os1_5 2.787646 1_555
Os1_1 Os1_3 2.787646 1_545
Os1_1 Os1_7 2.787646 1_445
Os1_1 Os1_7 2.787646 1_555
Os1_1 Ta0_3 2.894766 1_555
Os1_1 Ta0_5 2.894766 1_455
Os1_1 Ta0_1 2.894768 1_555
Os1_2 Os1_6 2.787646 1_455
Os1_2 Os1_6 2.787646 1_555
Os1_2 Os1_4 2.787646 1_565
Os1_2 Os1_4 2.787646 1_455
Os1_2 Ta0_6 2.894766 1_455
Os1_2 Ta0_0 2.894766 1_565
Os1_2 Ta0_2 2.894768 1_555
Os1_3 Os1_7 2.787646 1_455
Os1_3 Os1_7 2.787646 1_555
Os1_3 Os1_5 2.787646 1_565
Os1_3 Os1_5 2.787646 1_455
Os1_3 Ta0_7 2.894766 1_455
Os1_3 Ta0_1 2.894766 1_565
Os1_3 Ta0_3 2.894768 1_555
Os1_4 Os1_6 2.787646 1_555
Os1_4 Os1_6 2.787646 1_545
Os1_4 Ta0_0 2.894766 1_555
Os1_4 Ta0_6 2.894766 1_555
Os1_4 Ta0_4 2.894768 1_555
Os1_5 Os1_7 2.787646 1_555
Os1_5 Os1_7 2.787646 1_545
Os1_5 Ta0_1 2.894766 1_555
Os1_5 Ta0_7 2.894766 1_555
Os1_5 Ta0_5 2.894768 1_555
Os1_6 Ta0_4 2.894766 1_565
Os1_6 Ta0_2 2.894766 1_555
Os1_6 Ta0_6 2.894768 1_555
Os1_7 Ta0_3 2.894766 1_555
Os1_7 Ta0_5 2.894766 1_565
Os1_7 Ta0_7 2.894768 1_555
Os2_0 Os2_4 2.787646 1_455
Os2_0 Os2_2 2.787646 1_555
Os2_0 Os2_4 2.787646 1_555
Os2_0 Os2_2 2.787646 1_545
Os2_0 Os2_6 2.787646 1_445
Os2_0 Os2_6 2.787646 1_555
Os2_0 Ta0_3 2.894766 1_555
Os2_0 Ta0_5 2.894766 1_455
Os2_0 Ta0_1 2.894768 1_555
Os2_1 Os2_5 2.787646 1_555
Os2_1 Os2_3 2.787646 1_555
Os2_1 Os2_5 2.787646 1_455
Os2_1 Os2_3 2.787646 1_545
Os2_1 Os2_7 2.787646 1_445
Os2_1 Os2_7 2.787646 1_555
Os2_1 Ta0_2 2.894766 1_556
Os2_1 Ta0_4 2.894766 1_456
Os2_1 Ta0_0 2.894768 1_556
Os2_2 Os2_6 2.787646 1_555
Os2_2 Os2_6 2.787646 1_455
Os2_2 Os2_4 2.787646 1_565
Os2_2 Os2_4 2.787646 1_455
Os2_2 Ta0_7 2.894766 1_455
Os2_2 Ta0_1 2.894766 1_565
Os2_2 Ta0_3 2.894768 1_555
Os2_3 Os2_7 2.787646 1_555
Os2_3 Os2_7 2.787646 1_455
Os2_3 Os2_5 2.787646 1_565
Os2_3 Os2_5 2.787646 1_455
Os2_3 Ta0_6 2.894766 1_456
Os2_3 Ta0_0 2.894766 1_566
Os2_3 Ta0_2 2.894768 1_556
Os2_4 Os2_6 2.787646 1_555
Os2_4 Os2_6 2.787646 1_545
Os2_4 Ta0_1 2.894766 1_555
Os2_4 Ta0_7 2.894766 1_555
Os2_4 Ta0_5 2.894768 1_555
Os2_5 Os2_7 2.787646 1_555
Os2_5 Os2_7 2.787646 1_545
Os2_5 Ta0_0 2.894766 1_556
Os2_5 Ta0_6 2.894766 1_556
Os2_5 Ta0_4 2.894768 1_556
Os2_6 Ta0_3 2.894766 1_555
Os2_6 Ta0_5 2.894766 1_565
Os2_6 Ta0_7 2.894768 1_555
Os2_7 Ta0_2 2.894766 1_556
Os2_7 Ta0_4 2.894766 1_566
Os2_7 Ta0_6 2.894768 1_556
