# generated using pymatgen
data_Sc6TeO12
_symmetry_space_group_name_H-M   'P 1'
_cell_length_a   9.21837964
_cell_length_b   9.15948648
_cell_length_c   7.58981204
_cell_angle_alpha   126.24190215
_cell_angle_beta   108.32241965
_cell_angle_gamma   69.36135564
_symmetry_Int_Tables_number   1
_chemical_formula_structural   Sc6TeO12
_chemical_formula_sum   'Sc6 Te1 O12'
_cell_volume   478.90036740
_cell_formula_units_Z   1
loop_
 _symmetry_equiv_pos_site_id
 _symmetry_equiv_pos_as_xyz
  1  'x, y, z'
loop_
 _atom_site_type_symbol
 _atom_site_label
 _atom_site_symmetry_multiplicity
 _atom_site_fract_x
 _atom_site_fract_y
 _atom_site_fract_z
 _atom_site_occupancy
  Sc  Sc0  1  0.97765900  0.71041600  0.17051300  1
  Sc  Sc1  1  0.02234100  0.28958400  0.82948700  1
  Sc  Sc2  1  0.65114700  0.02411000  0.16248100  1
  Sc  Sc3  1  0.34885300  0.97589000  0.83751900  1
  Sc  Sc4  1  0.78436600  0.68627000  0.72168400  1
  Sc  Sc5  1  0.21563400  0.31373000  0.27831600  1
  Te  Te0  1  0.00000000  0.00000000  0.00000000  1
  O  O0  1  0.91134700  0.80788900  0.71284600  1
  O  O1  1  0.08865300  0.19211100  0.28715400  1
  O  O2  1  0.06363300  0.82712800  0.09251800  1
  O  O3  1  0.93636700  0.17287200  0.90748200  1
  O  O4  1  0.79999800  0.09100900  0.10433400  1
  O  O5  1  0.20000200  0.90899100  0.89566600  1
  O  O6  1  0.58174300  0.83447800  0.83074300  1
  O  O7  1  0.41825700  0.16552200  0.16925700  1
  O  O8  1  0.88897400  0.52930600  0.84046700  1
  O  O9  1  0.11102600  0.47069400  0.15953300  1
  O  O10  1  0.78273500  0.87259100  0.27255800  1
  O  O11  1  0.21726500  0.12740900  0.72744200  1
loop_
_geom_bond_atom_site_label_1
_geom_bond_atom_site_label_2
_geom_bond_distance
_geom_bond_site_symmetry_2
O0 Sc4 1.916397 1_555
O0 Te0 1.968139 1_666
O1 Sc5 1.916397 1_555
O1 Te0 1.968139 1_555
O2 Te0 1.935278 1_565
O2 Sc0 1.939545 1_455
O3 Te0 1.935278 1_656
O3 Sc1 1.939545 1_655
O4 Sc2 1.935534 1_555
O4 Te0 1.942976 1_655
O5 Sc3 1.935534 1_555
O5 Te0 1.942976 1_566
O6 Sc4 1.967955 1_555
O6 Sc3 2.078404 1_555
O6 Sc2 2.089344 1_566
O7 Sc5 1.967955 1_555
O7 Sc2 2.078404 1_555
O7 Sc3 2.089344 1_544
O8 Sc4 1.954050 1_555
O8 Sc1 2.069960 1_655
O8 Sc0 2.109565 1_556
O9 Sc5 1.954050 1_555
O9 Sc0 2.069960 1_455
O9 Sc1 2.109565 1_554
O10 Sc2 1.908546 1_565
O10 Sc0 1.915265 1_555
O11 Sc3 1.908546 1_545
O11 Sc1 1.915265 1_555
