# generated using pymatgen
data_Pr(PPt)2
_symmetry_space_group_name_H-M   'P 1'
_cell_length_a   10.07779008
_cell_length_b   10.07779008
_cell_length_c   10.07779008
_cell_angle_alpha   155.34521670
_cell_angle_beta   155.34521670
_cell_angle_gamma   35.14724171
_symmetry_Int_Tables_number   1
_chemical_formula_structural   Pr(PPt)2
_chemical_formula_sum   'Pr2 P4 Pt4'
_cell_volume   177.90350695
_cell_formula_units_Z   2
loop_
 _symmetry_equiv_pos_site_id
 _symmetry_equiv_pos_as_xyz
  1  'x, y, z'
loop_
 _atom_site_type_symbol
 _atom_site_label
 _atom_site_symmetry_multiplicity
 _atom_site_fract_x
 _atom_site_fract_y
 _atom_site_fract_z
 _atom_site_occupancy
  Pr  Pr0  1  0.37462051  0.37462051  -0.00000000  1
  Pr  Pr1  1  0.62537949  0.62537949  0.00000000  1
  P  P0  1  0.06976290  0.06976290  -0.00000000  1
  P  P1  1  0.93023710  0.93023710  0.00000000  1
  P  P2  1  0.75000000  0.25000000  0.50000000  1
  P  P3  1  0.25000000  0.75000000  0.50000000  1
  Pt  Pt0  1  0.19416561  0.19416561  0.00000000  1
  Pt  Pt1  1  0.80583439  0.80583439  -0.00000000  1
  Pt  Pt2  1  0.50000000  0.00000000  0.50000000  1
  Pt  Pt3  1  -0.00000000  0.50000000  0.50000000  1
loop_
_geom_bond_atom_site_label_1
_geom_bond_atom_site_label_2
_geom_bond_distance
_geom_bond_site_symmetry_2
Pr0 Pt3 3.230068 1_554
Pr0 Pt2 3.230068 1_554
Pr0 Pt3 3.230068 1_655
Pr0 Pt2 3.230068 1_565
Pr0 Pt1 3.317463 1_545
Pr0 Pt1 3.317463 1_556
Pr0 Pt1 3.317463 1_455
Pr0 Pt1 3.317463 1_444
Pr0 Pt0 3.467426 1_555
Pr1 Pt3 3.230068 1_655
Pr1 Pt2 3.230068 1_554
Pr1 Pt2 3.230068 1_565
Pr1 Pt3 3.230068 1_554
Pr1 Pt0 3.317463 1_655
Pr1 Pt0 3.317463 1_565
Pr1 Pt0 3.317463 1_666
Pr1 Pt0 3.317463 1_554
Pr1 Pt1 3.467426 1_555
P0 Pt0 2.390387 1_555
P0 Pt2 2.534998 1_454
P0 Pt3 2.534998 1_544
P0 Pt2 2.534998 1_555
P0 Pt3 2.534998 1_555
P0 P1 2.680976 1_445
P0 Pr1 3.225006 1_545
P0 Pr1 3.225006 1_455
P0 Pr1 3.225006 1_444
P0 Pr1 3.225006 1_556
P1 Pt1 2.390387 1_555
P1 Pt2 2.534998 1_564
P1 Pt3 2.534998 1_654
P1 Pt3 2.534998 1_665
P1 Pt2 2.534998 1_665
P1 Pr0 3.225006 1_565
P1 Pr0 3.225006 1_655
P1 Pr0 3.225006 1_554
P1 Pr0 3.225006 1_666
P2 Pt1 2.404230 1_556
P2 Pt0 2.404230 1_555
P2 Pt0 2.404230 1_656
P2 Pt1 2.404230 1_545
P2 Pr1 3.219206 1_556
P2 Pr0 3.219206 1_656
P2 Pr1 3.219206 1_545
P2 Pr0 3.219206 1_555
P3 Pt0 2.404230 1_555
P3 Pt1 2.404230 1_455
P3 Pt0 2.404230 1_566
P3 Pt1 2.404230 1_556
P3 Pr1 3.219206 1_455
P3 Pr1 3.219206 1_556
P3 Pr0 3.219206 1_566
P3 Pr0 3.219206 1_555
