# generated using pymatgen
data_V6FeNi
_symmetry_space_group_name_H-M   'P 1'
_cell_length_a   4.62972270
_cell_length_b   4.62972270
_cell_length_c   4.62972270
_cell_angle_alpha   90.00000000
_cell_angle_beta   90.00000000
_cell_angle_gamma   90.00000000
_symmetry_Int_Tables_number   1
_chemical_formula_structural   V6FeNi
_chemical_formula_sum   'V6 Fe1 Ni1'
_cell_volume   99.23501471
_cell_formula_units_Z   1
loop_
 _symmetry_equiv_pos_site_id
 _symmetry_equiv_pos_as_xyz
  1  'x, y, z'
loop_
 _atom_site_type_symbol
 _atom_site_label
 _atom_site_symmetry_multiplicity
 _atom_site_fract_x
 _atom_site_fract_y
 _atom_site_fract_z
 _atom_site_occupancy
  V  V0  1  0.00000000  0.50000000  0.74791462  1
  V  V1  1  0.50000000  0.25208538  -0.00000000  1
  V  V2  1  0.74791462  -0.00000000  0.50000000  1
  V  V3  1  -0.00000000  0.50000000  0.25208538  1
  V  V4  1  0.50000000  0.74791462  -0.00000000  1
  V  V5  1  0.25208538  0.00000000  0.50000000  1
  Fe  Fe0  1  0.50000000  0.50000000  0.50000000  1
  Ni  Ni0  1  -0.00000000  -0.00000000  -0.00000000  1
loop_
_geom_bond_atom_site_label_1
_geom_bond_atom_site_label_2
_geom_bond_distance
_geom_bond_site_symmetry_2
V0 V3 2.295552 1_555
V0 V3 2.334171 1_556
V1 V4 2.295552 1_555
V1 V4 2.334171 1_545
V2 V5 2.295552 1_555
V2 V5 2.334171 1_655
Fe0 V3 2.583790 1_655
Fe0 V0 2.583790 1_555
Fe0 V4 2.583790 1_556
Fe0 V3 2.583790 1_555
Fe0 V4 2.583790 1_555
Fe0 V1 2.583790 1_555
Fe0 V5 2.583790 1_555
Fe0 V5 2.583790 1_565
Fe0 V2 2.583790 1_565
Fe0 V1 2.583790 1_556
Fe0 V0 2.583790 1_655
Fe0 V2 2.583790 1_555
Ni0 V5 2.592426 1_554
Ni0 V3 2.592426 1_545
Ni0 V0 2.592426 1_544
Ni0 V2 2.592426 1_455
Ni0 V4 2.592426 1_545
Ni0 V3 2.592426 1_555
Ni0 V0 2.592426 1_554
Ni0 V4 2.592426 1_445
Ni0 V1 2.592426 1_555
Ni0 V5 2.592426 1_555
Ni0 V1 2.592426 1_455
Ni0 V2 2.592426 1_454
