# generated using pymatgen
data_Mn4Fe2P3
_symmetry_space_group_name_H-M   'P 1'
_cell_length_a   3.24555600
_cell_length_b   6.11836589
_cell_length_c   6.16240285
_cell_angle_alpha   59.91134357
_cell_angle_beta   90.00000000
_cell_angle_gamma   90.00000000
_symmetry_Int_Tables_number   1
_chemical_formula_structural   Mn4Fe2P3
_chemical_formula_sum   'Mn4 Fe2 P3'
_cell_volume   105.88064884
_cell_formula_units_Z   1
loop_
 _symmetry_equiv_pos_site_id
 _symmetry_equiv_pos_as_xyz
  1  'x, y, z'
loop_
 _atom_site_type_symbol
 _atom_site_label
 _atom_site_symmetry_multiplicity
 _atom_site_fract_x
 _atom_site_fract_y
 _atom_site_fract_z
 _atom_site_occupancy
  Mn  Mn0  1  0.50000000  0.99988800  0.60188500  1
  Mn  Mn1  1  0.00000000  0.26207800  0.74111300  1
  Mn  Mn2  1  0.00000000  0.73773300  0.00325100  1
  Mn  Mn3  1  0.00000000  0.99994800  0.25646100  1
  Fe  Fe0  1  0.50000000  0.59819400  0.39849300  1
  Fe  Fe1  1  0.50000000  0.40195000  0.99676100  1
  P  P0  1  0.00000000  0.33001000  0.33569000  1
  P  P1  1  0.00000000  0.67036400  0.66584300  1
  P  P2  1  0.50000000  0.99973500  0.00060400  1
loop_
_geom_bond_atom_site_label_1
_geom_bond_atom_site_label_2
_geom_bond_distance
_geom_bond_site_symmetry_2
Mn0 P2 2.456598 1_556
Mn0 P1 2.461065 1_655
Mn0 P1 2.461065 1_555
Mn0 P0 2.466126 1_565
Mn0 P0 2.466126 1_665
Mn1 P2 2.278877 1_446
Mn1 P2 2.278877 1_546
Mn1 P1 2.300775 1_555
Mn1 P0 2.318073 1_555
Mn2 P2 2.275333 1_455
Mn2 P2 2.275333 1_555
Mn2 P0 2.301238 1_555
Mn2 P1 2.313545 1_554
Mn3 P2 2.263059 1_555
Mn3 P2 2.263059 1_455
Mn3 P0 2.303287 1_565
Mn3 P1 2.308656 1_555
Fe0 P2 2.451077 1_555
Fe0 P0 2.472309 1_655
Fe0 P0 2.472309 1_555
Fe0 P1 2.504423 1_655
Fe0 P1 2.504423 1_555
Fe0 Mn1 2.639463 1_655
Fe0 Mn1 2.639463 1_555
Fe0 Mn2 2.685078 1_655
Fe0 Mn2 2.685078 1_555
Fe0 Mn3 2.698966 1_655
Fe0 Mn3 2.698966 1_555
Fe1 P2 2.449111 1_546
Fe1 P1 2.476088 1_555
Fe1 P1 2.476088 1_655
Fe1 P0 2.503535 1_556
Fe1 P0 2.503535 1_656
Fe1 Mn2 2.634033 1_656
Fe1 Mn2 2.634033 1_556
Fe1 Mn1 2.683190 1_655
Fe1 Mn1 2.683190 1_555
Fe1 Mn3 2.701370 1_646
Fe1 Mn3 2.701370 1_546
