# generated using pymatgen
data_K3Eu(PO4)2
_symmetry_space_group_name_H-M   'P 1'
_cell_length_a   5.74865200
_cell_length_b   7.55766200
_cell_length_c   9.68408395
_cell_angle_alpha   88.77343582
_cell_angle_beta   90.00000000
_cell_angle_gamma   90.00000000
_symmetry_Int_Tables_number   1
_chemical_formula_structural   K3Eu(PO4)2
_chemical_formula_sum   'K6 Eu2 P4 O16'
_cell_volume   420.64187719
_cell_formula_units_Z   2
loop_
 _symmetry_equiv_pos_site_id
 _symmetry_equiv_pos_as_xyz
  1  'x, y, z'
loop_
 _atom_site_type_symbol
 _atom_site_label
 _atom_site_symmetry_multiplicity
 _atom_site_fract_x
 _atom_site_fract_y
 _atom_site_fract_z
 _atom_site_occupancy
  K  K0  1  0.25000000  0.35750000  0.91139900  1
  K  K1  1  0.25000000  0.50658700  0.30779400  1
  K  K2  1  0.75000000  0.19989700  0.41490700  1
  K  K3  1  0.75000000  0.49341300  0.69220600  1
  K  K4  1  0.25000000  0.80010300  0.58509300  1
  K  K5  1  0.75000000  0.64250000  0.08860100  1
  Eu  Eu0  1  0.75000000  0.99405800  0.79007200  1
  Eu  Eu1  1  0.25000000  0.00594200  0.20992800  1
  P  P0  1  0.75000000  0.19142500  0.07185500  1
  P  P1  1  0.25000000  0.80857500  0.92814500  1
  P  P2  1  0.25000000  0.23463800  0.58803500  1
  P  P3  1  0.75000000  0.76536200  0.41196500  1
  O  O0  1  0.97212300  0.84613700  0.34195300  1
  O  O1  1  0.47212300  0.15386300  0.65804700  1
  O  O2  1  0.02787700  0.15386300  0.65804700  1
  O  O3  1  0.52787700  0.84613700  0.34195300  1
  O  O4  1  0.25000000  0.43711200  0.60390700  1
  O  O5  1  0.75000000  0.56288800  0.39609300  1
  O  O6  1  0.25000000  0.01057500  0.95344900  1
  O  O7  1  0.75000000  0.98942500  0.04655100  1
  O  O8  1  0.25000000  0.71453400  0.07341800  1
  O  O9  1  0.75000000  0.28546600  0.92658200  1
  O  O10  1  0.25000000  0.18257400  0.43300000  1
  O  O11  1  0.02914900  0.75530100  0.84512600  1
  O  O12  1  0.47085100  0.75530100  0.84512600  1
  O  O13  1  0.97085100  0.24469900  0.15487400  1
  O  O14  1  0.52914900  0.24469900  0.15487400  1
  O  O15  1  0.75000000  0.81742600  0.56700000  1
loop_
_geom_bond_atom_site_label_1
_geom_bond_atom_site_label_2
_geom_bond_distance
_geom_bond_site_symmetry_2
K0 O6 2.644748 1_555
K0 O9 2.928536 1_455
K0 O9 2.928536 1_555
K0 O13 2.962306 1_456
K0 O14 2.962306 1_556
K0 O4 3.025306 1_555
K0 O8 3.150251 1_556
K0 O1 3.190659 1_555
K0 O2 3.190659 1_555
K0 O12 3.313590 1_555
K0 O11 3.313590 1_555
K1 O10 2.709166 1_555
K1 O8 2.732912 1_555
K1 O4 2.904181 1_555
K1 O13 2.968359 1_455
K1 O14 2.968359 1_555
K1 O5 3.031430 1_455
K1 O5 3.031430 1_555
K1 O3 3.046788 1_555
K1 O0 3.046788 1_455
K2 O5 2.745513 1_555
K2 O14 2.833947 1_555
K2 O13 2.833947 1_555
K2 O2 2.860385 1_655
K2 O1 2.860385 1_555
K2 O10 2.882466 1_555
K2 O10 2.882466 1_655
K2 O0 3.059186 1_545
K2 O3 3.059186 1_545
K2 O15 3.215991 1_545
K3 O15 2.709166 1_555
K3 O9 2.732912 1_555
K3 O5 2.904181 1_555
K3 O12 2.968359 1_555
K3 O11 2.968359 1_655
K3 O4 3.031430 1_655
K3 O4 3.031430 1_555
K3 O2 3.046788 1_655
K3 O1 3.046788 1_555
K4 O4 2.745513 1_555
K4 O12 2.833947 1_555
K4 O11 2.833947 1_555
K4 O3 2.860385 1_555
K4 O0 2.860385 1_455
K4 O15 2.882466 1_455
K4 O15 2.882466 1_555
K4 O1 3.059186 1_565
K4 O2 3.059186 1_565
K4 O10 3.215991 1_565
K5 O7 2.644748 1_555
K5 O8 2.928536 1_555
K5 O8 2.928536 1_655
K5 O11 2.962306 1_654
K5 O12 2.962306 1_554
K5 O5 3.025306 1_555
K5 O9 3.150251 1_554
K5 O3 3.190659 1_555
K5 O0 3.190659 1_555
K5 O13 3.313590 1_555
K5 O14 3.313590 1_555
Eu0 O1 2.361984 1_565
Eu0 O2 2.361984 1_665
Eu0 O12 2.464597 1_555
Eu0 O11 2.464597 1_655
Eu0 O7 2.483261 1_556
Eu0 O15 2.563622 1_555
Eu0 O9 2.592810 1_565
Eu1 O0 2.361984 1_445
Eu1 O3 2.361984 1_545
Eu1 O14 2.464597 1_555
Eu1 O13 2.464597 1_455
Eu1 O6 2.483261 1_554
Eu1 O10 2.563622 1_555
Eu1 O8 2.592810 1_545
O0 P3 1.563693 1_555
O1 P2 1.563693 1_555
O2 P2 1.563693 1_555
O3 P3 1.563693 1_555
O4 P2 1.541201 1_555
O5 P3 1.541201 1_555
O6 P1 1.551360 1_545
O7 P0 1.551360 1_565
O8 P1 1.562536 1_554
O9 P0 1.562536 1_556
O10 P2 1.560204 1_555
O11 P1 1.560191 1_555
O12 P1 1.560191 1_555
O13 P0 1.560191 1_555
O14 P0 1.560191 1_555
O15 P3 1.560204 1_555
