# generated using pymatgen
data_Si3C10NO7
_symmetry_space_group_name_H-M   'P 1'
_cell_length_a   8.97710900
_cell_length_b   11.50652500
_cell_length_c   12.47950300
_cell_angle_alpha   90.00000000
_cell_angle_beta   90.00000000
_cell_angle_gamma   90.00000000
_symmetry_Int_Tables_number   1
_chemical_formula_structural   Si3C10NO7
_chemical_formula_sum   'Si12 C40 N4 O28'
_cell_volume   1289.07436984
_cell_formula_units_Z   4
loop_
 _symmetry_equiv_pos_site_id
 _symmetry_equiv_pos_as_xyz
  1  'x, y, z'
loop_
 _atom_site_type_symbol
 _atom_site_label
 _atom_site_symmetry_multiplicity
 _atom_site_fract_x
 _atom_site_fract_y
 _atom_site_fract_z
 _atom_site_occupancy
  Si  Si0  1  0.25355000  0.77102200  0.51574000  1
  Si  Si1  1  0.74645000  0.27102200  0.48426000  1
  Si  Si2  1  0.24645000  0.27102200  0.51574000  1
  Si  Si3  1  0.75355000  0.77102200  0.48426000  1
  Si  Si4  1  0.98759800  0.65773300  0.63407200  1
  Si  Si5  1  0.01240200  0.15773300  0.36592800  1
  Si  Si6  1  0.51240200  0.15773300  0.63407200  1
  Si  Si7  1  0.48759800  0.65773300  0.36592800  1
  Si  Si8  1  0.48133200  0.38366000  0.35250000  1
  Si  Si9  1  0.51866800  0.88366000  0.64750000  1
  Si  Si10  1  0.01866800  0.88366000  0.35250000  1
  Si  Si11  1  0.98133200  0.38366000  0.64750000  1
  C  C0  1  0.03876600  0.42730400  0.05295400  1
  C  C1  1  0.96123400  0.92730400  0.94704700  1
  C  C2  1  0.46123400  0.92730400  0.05295400  1
  C  C3  1  0.53876600  0.42730400  0.94704700  1
  C  C4  1  0.01170600  0.34976200  0.96745400  1
  C  C5  1  0.98829400  0.84976200  0.03254600  1
  C  C6  1  0.48829400  0.84976200  0.96745400  1
  C  C7  1  0.51170600  0.34976200  0.03254600  1
  C  C8  1  0.00588900  0.38302600  0.86052200  1
  C  C9  1  0.99411100  0.88302600  0.13947800  1
  C  C10  1  0.49411100  0.88302600  0.86052200  1
  C  C11  1  0.50588900  0.38302600  0.13947800  1
  C  C12  1  0.04004300  0.49949400  0.86645700  1
  C  C13  1  0.95995700  0.99949400  0.13354300  1
  C  C14  1  0.45995700  0.99949400  0.86645700  1
  C  C15  1  0.54004300  0.49949400  0.13354300  1
  C  C16  1  0.06892200  0.60233800  0.91526900  1
  C  C17  1  0.93107800  0.10233800  0.08473100  1
  C  C18  1  0.43107800  0.10233800  0.91526900  1
  C  C19  1  0.56892200  0.60233800  0.08473100  1
  C  C20  1  0.06274600  0.53105600  0.99945900  1
  C  C21  1  0.93725400  0.03105600  0.00054100  1
  C  C22  1  0.43725400  0.03105600  0.99945900  1
  C  C23  1  0.56274600  0.53105600  0.00054100  1
  C  C24  1  0.97555400  0.93491300  0.83293900  1
  C  C25  1  0.02444600  0.43491300  0.16706100  1
  C  C26  1  0.52444600  0.43491300  0.83293900  1
  C  C27  1  0.47555400  0.93491300  0.16706100  1
  C  C28  1  0.02216200  0.92075000  0.64161400  1
  C  C29  1  0.97783800  0.42075000  0.35838600  1
  C  C30  1  0.47783800  0.42075000  0.64161400  1
  C  C31  1  0.52216200  0.92075000  0.35838600  1
  C  C32  1  0.47673100  0.51582000  0.70007500  1
  C  C33  1  0.52326900  0.01582000  0.29992500  1
  C  C34  1  0.02326900  0.01582000  0.70007500  1
  C  C35  1  0.97673100  0.51582000  0.29992500  1
  C  C36  1  0.98581800  0.85698000  0.73630000  1
  C  C37  1  0.01418200  0.35698000  0.26370000  1
  C  C38  1  0.51418200  0.35698000  0.73630000  1
  C  C39  1  0.48581800  0.85698000  0.26370000  1
  N  N0  1  0.50032500  0.55078900  0.79509900  1
  N  N1  1  0.49967500  0.05078900  0.20490100  1
  N  N2  1  0.99967500  0.05078900  0.79509900  1
  N  N3  1  0.00032500  0.55078900  0.20490100  1
  O  O0  1  0.97587500  0.52300100  0.67112000  1
  O  O1  1  0.02412500  0.02300100  0.32888000  1
  O  O2  1  0.52412500  0.02300100  0.67112000  1
  O  O3  1  0.47587500  0.52300100  0.32888000  1
  O  O4  1  0.85940200  0.67855800  0.54684600  1
  O  O5  1  0.14059800  0.17855900  0.45315400  1
  O  O6  1  0.64059800  0.17855900  0.54684600  1
  O  O7  1  0.35940200  0.67855800  0.45315400  1
  O  O8  1  0.64012000  0.34924000  0.40646200  1
  O  O9  1  0.35988000  0.84924000  0.59353800  1
  O  O10  1  0.85988000  0.84924000  0.40646200  1
  O  O11  1  0.14012000  0.34924000  0.59353800  1
  O  O12  1  0.95912800  0.74215800  0.74208900  1
  O  O13  1  0.04087200  0.24215800  0.25791100  1
  O  O14  1  0.54087200  0.24215800  0.74208900  1
  O  O15  1  0.45912800  0.74215800  0.25791100  1
  O  O16  1  0.46947500  0.32313500  0.23002700  1
  O  O17  1  0.53052500  0.82313500  0.76997300  1
  O  O18  1  0.03052500  0.82313500  0.23002700  1
  O  O19  1  0.96947500  0.32313500  0.76997300  1
  O  O20  1  0.15185600  0.68461700  0.58843700  1
  O  O21  1  0.84814400  0.18461700  0.41156300  1
  O  O22  1  0.34814400  0.18461700  0.58843700  1
  O  O23  1  0.65185600  0.68461700  0.41156300  1
  O  O24  1  0.34000300  0.34104600  0.42347600  1
  O  O25  1  0.65999700  0.84104600  0.57652400  1
  O  O26  1  0.15999700  0.84104600  0.42347600  1
  O  O27  1  0.84000300  0.34104600  0.57652400  1
loop_
_geom_bond_atom_site_label_1
_geom_bond_atom_site_label_2
_geom_bond_distance
_geom_bond_site_symmetry_2
C0 C20 1.384643 1_554
C0 C4 1.411943 1_554
C0 C25 1.432468 1_555
C1 C21 1.384637 1_566
C1 C5 1.411934 1_556
C1 C24 1.432480 1_555
C2 C22 1.384643 1_564
C2 C6 1.411943 1_554
C2 C27 1.432468 1_555
C3 C7 1.411934 1_556
C4 C8 1.389246 1_555
C5 C9 1.389246 1_555
C8 O19 1.363335 1_455
C9 O18 1.363335 1_655
C10 O17 1.363335 1_555
C10 C14 1.376762 1_555
C10 C6 1.389246 1_555
C11 O16 1.363335 1_555
C11 C15 1.376762 1_555
C11 C7 1.389246 1_555
C12 C16 1.355970 1_555
C12 C8 1.376762 1_555
C12 C20 1.711246 1_555
C13 C17 1.355970 1_565
C13 C9 1.376762 1_555
C13 C21 1.711246 1_565
C14 C18 1.355970 1_565
C14 C22 1.711246 1_565
C15 C19 1.355970 1_555
C15 C23 1.711246 1_555
C16 C20 1.334046 1_555
C17 C21 1.334046 1_555
C18 C22 1.334046 1_555
C19 C23 1.334046 1_555
C23 C3 1.384637 1_554
C24 N2 1.430962 1_565
C25 N3 1.430962 1_555
C26 N0 1.430962 1_555
C26 C3 1.432480 1_555
C27 N1 1.430962 1_565
C28 C34 1.314928 1_565
C28 C36 1.428680 1_455
C29 C35 1.314928 1_555
C29 C37 1.428680 1_655
C30 C32 1.314928 1_555
C30 C38 1.428680 1_555
C31 C33 1.314928 1_565
C31 C39 1.428680 1_555
C32 N0 1.270043 1_555
C33 N1 1.270043 1_555
C34 N2 1.270043 1_455
C35 N3 1.270043 1_655
C36 O12 1.344694 1_555
C37 O13 1.344694 1_555
C38 O14 1.344694 1_555
C39 O15 1.344694 1_555
O0 Si4 1.621189 1_555
O0 Si11 1.630937 1_555
O1 Si5 1.621189 1_555
O1 Si10 1.630937 1_545
O2 Si6 1.621189 1_555
O2 Si9 1.630937 1_545
O3 Si7 1.621189 1_555
O3 Si8 1.630937 1_555
O4 Si4 1.602105 1_555
O4 Si3 1.626333 1_555
O5 Si5 1.602107 1_555
O5 Si2 1.626326 1_555
O6 Si6 1.602107 1_555
O6 Si1 1.626326 1_555
O7 Si7 1.602105 1_555
O7 Si0 1.626333 1_555
O8 Si8 1.625509 1_555
O8 Si1 1.632109 1_555
O9 Si9 1.625509 1_555
O9 Si0 1.632109 1_555
O10 Si10 1.625509 1_655
O10 Si3 1.632109 1_555
O11 Si11 1.625509 1_455
O11 Si2 1.632109 1_555
O12 Si4 1.681105 1_555
O13 Si5 1.681105 1_555
O14 Si6 1.681105 1_555
O15 Si7 1.681105 1_555
O16 Si8 1.682962 1_555
O17 Si9 1.682962 1_555
O18 Si10 1.682962 1_555
O19 Si11 1.682962 1_555
O20 Si4 1.610701 1_455
O20 Si0 1.626330 1_555
O21 Si5 1.610701 1_655
O21 Si1 1.626330 1_555
O22 Si6 1.610701 1_555
O22 Si2 1.626330 1_555
O23 Si7 1.610701 1_555
O23 Si3 1.626330 1_555
O24 Si8 1.623158 1_555
O24 Si2 1.637153 1_555
O25 Si9 1.623158 1_555
O25 Si3 1.637153 1_555
O26 Si10 1.623158 1_555
O26 Si0 1.637153 1_555
O27 Si11 1.623158 1_555
O27 Si1 1.637153 1_555
