# generated using pymatgen
data_Mg16Al12Sb
_symmetry_space_group_name_H-M   'P 1'
_cell_length_a   9.11248354
_cell_length_b   9.11248354
_cell_length_c   9.11248374
_cell_angle_alpha   109.13284255
_cell_angle_beta   109.13284255
_cell_angle_gamma   109.13284864
_symmetry_Int_Tables_number   1
_chemical_formula_structural   Mg16Al12Sb
_chemical_formula_sum   'Mg16 Al12 Sb1'
_cell_volume   589.67443916
_cell_formula_units_Z   1
loop_
 _symmetry_equiv_pos_site_id
 _symmetry_equiv_pos_as_xyz
  1  'x, y, z'
loop_
 _atom_site_type_symbol
 _atom_site_label
 _atom_site_symmetry_multiplicity
 _atom_site_fract_x
 _atom_site_fract_y
 _atom_site_fract_z
 _atom_site_occupancy
  Mg  Mg0  1  0.99840100  0.99840100  0.99840100  1
  Mg  Mg1  1  0.00167500  0.65418300  0.00167500  1
  Mg  Mg2  1  0.60033600  0.29099600  0.60033600  1
  Mg  Mg3  1  0.31630000  0.71356200  0.31630000  1
  Mg  Mg4  1  0.40245000  0.99866400  0.68146000  1
  Mg  Mg5  1  0.29099600  0.60033600  0.60033600  1
  Mg  Mg6  1  0.68146000  0.40245000  0.99866400  1
  Mg  Mg7  1  0.65418300  0.00167500  0.00167500  1
  Mg  Mg8  1  0.31630000  0.31630000  0.71356200  1
  Mg  Mg9  1  0.99866400  0.68146000  0.40245000  1
  Mg  Mg10  1  0.40245000  0.68146000  0.99866400  1
  Mg  Mg11  1  0.71356200  0.31630000  0.31630000  1
  Mg  Mg12  1  0.00167500  0.00167500  0.65418300  1
  Mg  Mg13  1  0.99866400  0.40245000  0.68146000  1
  Mg  Mg14  1  0.60033600  0.60033600  0.29099600  1
  Mg  Mg15  1  0.68146000  0.99866400  0.40245000  1
  Al  Al0  1  0.63897700  0.82655600  0.63897700  1
  Al  Al1  1  0.81669500  0.18575000  0.81669500  1
  Al  Al2  1  0.18189900  0.99286700  0.36806200  1
  Al  Al3  1  0.63897700  0.63897700  0.82655600  1
  Al  Al4  1  0.99286700  0.36806200  0.18189900  1
  Al  Al5  1  0.81669500  0.81669500  0.18575000  1
  Al  Al6  1  0.99286700  0.18189900  0.36806200  1
  Al  Al7  1  0.36806200  0.18189900  0.99286700  1
  Al  Al8  1  0.18575000  0.81669500  0.81669500  1
  Al  Al9  1  0.18189900  0.36806200  0.99286700  1
  Al  Al10  1  0.82655600  0.63897700  0.63897700  1
  Al  Al11  1  0.36806200  0.99286700  0.18189900  1
  Sb  Sb0  1  0.33178500  0.33178500  0.33178500  1
loop_
_geom_bond_atom_site_label_1
_geom_bond_atom_site_label_2
_geom_bond_distance
_geom_bond_site_symmetry_2
Mg0 Sb0 3.088337 1_666
Mg0 Mg1 3.156367 1_656
Mg0 Mg7 3.156367 1_566
Mg0 Mg12 3.156367 1_665
Mg1 Mg6 3.048896 1_454
Mg1 Mg13 3.048896 1_454
Mg1 Mg3 3.051275 1_555
Mg2 Sb0 3.063045 1_555
Mg2 Mg4 3.148046 1_545
Mg2 Mg6 3.175763 1_555
Mg3 Mg4 3.118013 1_555
Mg3 Mg9 3.188218 1_455
Mg4 Mg7 3.048896 1_566
Mg4 Mg5 3.175763 1_555
Mg4 Mg8 3.188218 1_565
Mg4 Mg9 3.230515 1_455
Mg4 Mg6 3.230515 1_565
Mg5 Sb0 3.063045 1_555
Mg5 Mg9 3.148046 1_455
Mg6 Mg8 3.118013 1_555
Mg6 Mg9 3.230515 1_556
Mg10 Mg7 3.048896 1_566
Mg10 Mg8 3.118013 1_555
Mg10 Mg14 3.148046 1_556
Mg10 Mg5 3.175763 1_555
Mg10 Mg3 3.188218 1_556
Mg10 Mg13 3.230515 1_455
Mg10 Mg15 3.230515 1_556
Mg11 Mg7 3.051275 1_555
Mg11 Mg9 3.118013 1_555
Mg11 Mg13 3.118013 1_555
Mg11 Mg15 3.188218 1_545
Mg11 Mg6 3.188218 1_554
Mg12 Mg15 3.048896 1_445
Mg12 Mg9 3.048896 1_445
Mg12 Mg8 3.051275 1_555
Mg13 Mg5 3.148046 1_655
Mg13 Mg2 3.175763 1_555
Mg13 Mg8 3.188218 1_655
Mg13 Mg15 3.230515 1_545
Mg14 Sb0 3.063045 1_555
Mg14 Mg6 3.148046 1_554
Mg14 Mg15 3.175763 1_555
Mg14 Mg9 3.175763 1_555
Mg15 Mg3 3.118013 1_555
Mg15 Mg2 3.148046 1_565
Al0 Al1 2.700027 1_565
Al0 Al3 2.785452 1_555
Al0 Al10 2.785452 1_555
Al0 Mg3 2.952141 1_555
Al0 Mg5 2.989288 1_555
Al0 Mg14 2.989288 1_555
Al0 Mg12 3.096252 1_665
Al0 Mg7 3.096252 1_566
Al0 Mg15 3.101592 1_555
Al0 Mg4 3.101592 1_555
Al0 Mg0 3.186006 1_555
Al1 Al9 2.745470 1_655
Al1 Al4 2.745470 1_556
Al1 Mg2 2.936809 1_555
Al1 Mg13 2.992627 1_555
Al1 Mg6 2.992628 1_555
Al1 Mg7 3.115994 1_556
Al1 Mg12 3.115994 1_655
Al1 Mg4 3.166883 1_545
Al1 Mg15 3.166883 1_545
Al1 Mg0 3.210407 1_545
Al2 Al5 2.745470 1_455
Al2 Al6 2.807028 1_465
Al2 Mg4 2.875216 1_555
Al2 Mg9 2.959492 1_455
Al2 Mg8 3.020297 1_565
Al2 Mg1 3.114107 1_555
Al2 Sb0 3.116568 1_565
Al2 Mg3 3.136137 1_555
Al2 Mg2 3.247964 1_565
Al2 Mg0 3.258817 1_454
Al3 Al5 2.700027 1_556
Al3 Mg8 2.952141 1_555
Al3 Mg2 2.989288 1_555
Al3 Mg5 2.989288 1_555
Al3 Mg7 3.096252 1_566
Al3 Mg1 3.096252 1_656
Al3 Mg6 3.101592 1_555
Al3 Mg10 3.101592 1_555
Al3 Mg0 3.186005 1_555
Al4 Al6 2.764425 1_555
Al4 Al9 2.807028 1_654
Al4 Mg9 2.875216 1_555
Al4 Mg6 2.959493 1_554
Al4 Mg3 3.020296 1_655
Al4 Mg7 3.114107 1_555
Al4 Sb0 3.116568 1_655
Al4 Mg11 3.136137 1_555
Al4 Mg5 3.247964 1_655
Al4 Mg0 3.258816 1_544
Al5 Al6 2.745470 1_565
Al5 Mg14 2.936809 1_555
Al5 Mg9 2.992628 1_555
Al5 Mg15 2.992628 1_555
Al5 Mg7 3.115994 1_565
Al5 Mg1 3.115994 1_655
Al5 Mg6 3.166883 1_554
Al5 Mg10 3.166883 1_554
Al5 Mg0 3.210407 1_554
Al6 Mg13 2.875216 1_555
Al6 Mg15 2.959492 1_545
Al6 Mg8 3.020297 1_655
Al6 Mg7 3.114107 1_555
Al6 Sb0 3.116568 1_655
Al6 Mg11 3.136137 1_555
Al6 Mg5 3.247964 1_655
Al6 Mg0 3.258817 1_544
Al7 Al8 2.745470 1_545
Al7 Al9 2.764425 1_555
Al7 Mg6 2.875216 1_555
Al7 Mg4 2.959493 1_545
Al7 Mg11 3.020297 1_556
Al7 Mg12 3.114107 1_555
Al7 Sb0 3.116568 1_556
Al7 Mg8 3.136137 1_555
Al7 Mg14 3.247964 1_556
Al7 Mg0 3.258816 1_445
Al8 Mg5 2.936809 1_555
Al8 Mg4 2.992627 1_555
Al8 Mg10 2.992628 1_555
Al8 Mg1 3.115994 1_556
Al8 Mg12 3.115994 1_565
Al8 Mg13 3.166883 1_455
Al8 Mg9 3.166883 1_455
Al8 Mg0 3.210407 1_455
Al9 Mg10 2.875216 1_555
Al9 Mg13 2.959493 1_455
Al9 Mg3 3.020297 1_556
Al9 Mg12 3.114107 1_555
Al9 Sb0 3.116568 1_556
Al9 Mg8 3.136137 1_555
Al9 Mg14 3.247964 1_556
Al9 Mg0 3.258816 1_445
Al10 Al8 2.700027 1_655
Al10 Al3 2.785452 1_555
Al10 Mg11 2.952141 1_555
Al10 Mg2 2.989288 1_555
Al10 Mg14 2.989288 1_555
Al10 Mg12 3.096252 1_665
Al10 Mg1 3.096252 1_656
Al10 Mg9 3.101592 1_555
Al10 Mg13 3.101592 1_555
Al10 Mg0 3.186006 1_555
Al11 Al8 2.745470 1_554
Al11 Al2 2.764425 1_555
Al11 Al7 2.807028 1_564
Al11 Mg15 2.875216 1_555
Al11 Mg10 2.959493 1_554
Al11 Mg11 3.020296 1_565
Al11 Mg1 3.114107 1_555
Al11 Sb0 3.116568 1_565
Al11 Mg3 3.136137 1_555
Al11 Mg2 3.247964 1_565
Al11 Mg0 3.258816 1_454
