# generated using pymatgen
data_KNaMoWO6
_symmetry_space_group_name_H-M   'P 1'
_cell_length_a   8.02655400
_cell_length_b   8.02655400
_cell_length_c   7.98045400
_cell_angle_alpha   90.00000000
_cell_angle_beta   90.00000000
_cell_angle_gamma   90.00000000
_symmetry_Int_Tables_number   1
_chemical_formula_structural   KNaMoWO6
_chemical_formula_sum   'K4 Na4 Mo4 W4 O24'
_cell_volume   514.14529075
_cell_formula_units_Z   4
loop_
 _symmetry_equiv_pos_site_id
 _symmetry_equiv_pos_as_xyz
  1  'x, y, z'
loop_
 _atom_site_type_symbol
 _atom_site_label
 _atom_site_symmetry_multiplicity
 _atom_site_fract_x
 _atom_site_fract_y
 _atom_site_fract_z
 _atom_site_occupancy
  K  K0  1  0.25291100  0.25291100  0.25403000  1
  K  K1  1  0.74708900  0.25291100  0.25403000  1
  K  K2  1  0.25291100  0.74708900  0.25403000  1
  K  K3  1  0.74708900  0.74708900  0.25403000  1
  Na  Na0  1  0.25333100  0.25333100  0.74563500  1
  Na  Na1  1  0.74666900  0.25333100  0.74563500  1
  Na  Na2  1  0.25333100  0.74666900  0.74563500  1
  Na  Na3  1  0.74666900  0.74666900  0.74563500  1
  Mo  Mo0  1  0.50000000  0.00000000  0.50178200  1
  Mo  Mo1  1  0.00000000  0.50000000  0.50178200  1
  Mo  Mo2  1  0.50000000  0.50000000  0.99784400  1
  Mo  Mo3  1  0.50000000  0.50000000  0.50385700  1
  W  W0  1  0.00000000  0.00000000  0.99955800  1
  W  W1  1  0.00000000  0.00000000  0.50497100  1
  W  W2  1  0.50000000  0.00000000  0.99670900  1
  W  W3  1  0.00000000  0.50000000  0.99670900  1
  O  O0  1  0.00000000  0.25358000  0.99501400  1
  O  O1  1  0.00000000  0.23828400  0.50526900  1
  O  O2  1  0.50000000  0.24277000  0.99485400  1
  O  O3  1  0.50000000  0.24934100  0.50621100  1
  O  O4  1  0.00000000  0.74642000  0.99501400  1
  O  O5  1  0.00000000  0.76171600  0.50526900  1
  O  O6  1  0.50000000  0.75723000  0.99485400  1
  O  O7  1  0.50000000  0.75065900  0.50621100  1
  O  O8  1  0.25358000  0.00000000  0.99501400  1
  O  O9  1  0.23828400  0.00000000  0.50526900  1
  O  O10  1  0.74642000  0.00000000  0.99501400  1
  O  O11  1  0.76171600  0.00000000  0.50526900  1
  O  O12  1  0.24277000  0.50000000  0.99485400  1
  O  O13  1  0.24934100  0.50000000  0.50621100  1
  O  O14  1  0.75723000  0.50000000  0.99485400  1
  O  O15  1  0.75065900  0.50000000  0.50621100  1
  O  O16  1  0.00000000  0.00000000  0.24466600  1
  O  O17  1  0.00000000  0.00000000  0.75591300  1
  O  O18  1  0.50000000  0.00000000  0.24012200  1
  O  O19  1  0.50000000  0.00000000  0.75683000  1
  O  O20  1  0.00000000  0.50000000  0.24012200  1
  O  O21  1  0.00000000  0.50000000  0.75683000  1
  O  O22  1  0.50000000  0.50000000  0.23585200  1
  O  O23  1  0.50000000  0.50000000  0.76240300  1
loop_
_geom_bond_atom_site_label_1
_geom_bond_atom_site_label_2
_geom_bond_distance
_geom_bond_site_symmetry_2
K0 O22 2.808521 1_555
K0 O13 2.825673 1_555
K0 O3 2.825673 1_555
K0 O20 2.840177 1_555
K0 O18 2.840177 1_555
K0 O1 2.855649 1_555
K0 O9 2.855649 1_555
K0 O12 2.866712 1_554
K0 O2 2.866712 1_554
K0 O16 2.871831 1_555
K0 O0 2.897189 1_554
K0 O8 2.897189 1_554
K1 O22 2.808521 1_555
K1 O15 2.825673 1_555
K1 O3 2.825673 1_555
K1 O18 2.840177 1_555
K1 O20 2.840177 1_655
K1 O1 2.855649 1_655
K1 O11 2.855649 1_555
K1 O14 2.866712 1_554
K1 O2 2.866712 1_554
K1 O16 2.871831 1_655
K1 O10 2.897189 1_554
K1 O0 2.897189 1_654
K2 O22 2.808521 1_555
K2 O7 2.825673 1_555
K2 O13 2.825673 1_555
K2 O18 2.840177 1_565
K2 O20 2.840177 1_555
K2 O5 2.855649 1_555
K2 O9 2.855649 1_565
K2 O6 2.866712 1_554
K2 O12 2.866712 1_554
K2 O16 2.871831 1_565
K2 O8 2.897189 1_564
K2 O4 2.897189 1_554
K3 O22 2.808521 1_555
K3 O15 2.825673 1_555
K3 O7 2.825673 1_555
K3 O18 2.840177 1_565
K3 O20 2.840177 1_655
K3 O5 2.855649 1_655
K3 O11 2.855649 1_565
K3 O6 2.866712 1_554
K3 O14 2.866712 1_554
K3 O16 2.871831 1_665
K3 O4 2.897189 1_654
K3 O10 2.897189 1_564
Na0 O13 2.751701 1_555
Na0 O3 2.751701 1_555
Na0 O9 2.798000 1_555
Na0 O1 2.798000 1_555
Na0 O23 2.803200 1_555
Na0 O12 2.807640 1_555
Na0 O2 2.807640 1_555
Na0 O19 2.839473 1_555
Na0 O21 2.839473 1_555
Na0 O8 2.845232 1_555
Na0 O0 2.845232 1_555
Na0 O17 2.876796 1_555
Na1 O15 2.751701 1_555
Na1 O3 2.751701 1_555
Na1 O1 2.798000 1_655
Na1 O11 2.798000 1_555
Na1 O23 2.803200 1_555
Na1 O14 2.807640 1_555
Na1 O2 2.807640 1_555
Na1 O19 2.839473 1_555
Na1 O21 2.839473 1_655
Na1 O0 2.845232 1_655
Na1 O10 2.845232 1_555
Na1 O17 2.876796 1_655
Na2 O7 2.751701 1_555
Na2 O13 2.751701 1_555
Na2 O9 2.798000 1_565
Na2 O5 2.798000 1_555
Na2 O23 2.803200 1_555
Na2 O6 2.807640 1_555
Na2 O12 2.807640 1_555
Na2 O19 2.839473 1_565
Na2 O21 2.839473 1_555
Na2 O8 2.845232 1_565
Na2 O4 2.845232 1_555
Na2 O17 2.876796 1_565
Na3 O15 2.751701 1_555
Na3 O7 2.751701 1_555
Na3 O11 2.798000 1_565
Na3 O5 2.798000 1_655
Na3 O23 2.803200 1_555
Na3 O14 2.807640 1_555
Na3 O6 2.807640 1_555
Na3 O19 2.839473 1_565
Na3 O21 2.839473 1_655
Na3 O4 2.845232 1_655
Na3 O10 2.845232 1_565
Na3 O17 2.876796 1_665
Mo0 O3 2.001661 1_555
Mo0 O7 2.001661 1_545
Mo0 O19 2.035399 1_555
Mo0 O18 2.088166 1_555
Mo0 O11 2.100862 1_555
Mo0 O9 2.100862 1_555
Mo1 O13 2.001661 1_555
Mo1 O15 2.001661 1_455
Mo1 O21 2.035399 1_555
Mo1 O20 2.088166 1_555
Mo1 O5 2.100862 1_555
Mo1 O1 2.100862 1_555
Mo2 O23 1.878926 1_555
Mo2 O22 1.899412 1_556
Mo2 O2 2.064808 1_555
Mo2 O14 2.064808 1_555
Mo2 O6 2.064808 1_555
Mo2 O12 2.064808 1_555
Mo3 O7 2.012016 1_555
Mo3 O3 2.012016 1_555
Mo3 O13 2.012016 1_555
Mo3 O15 2.012016 1_555
Mo3 O23 2.063314 1_555
Mo3 O22 2.138802 1_555
O0 W3 1.977950 1_555
O0 W0 2.035697 1_555
O1 W1 1.912601 1_555
O2 W2 1.948663 1_555
O4 W3 1.977950 1_555
O4 W0 2.035697 1_565
O5 W1 1.912601 1_565
O6 W2 1.948663 1_565
O8 W2 1.977950 1_555
O8 W0 2.035697 1_555
O9 W1 1.912601 1_555
O10 W2 1.977950 1_555
O10 W0 2.035697 1_655
O11 W1 1.912601 1_655
O12 W3 1.948663 1_555
O14 W3 1.948663 1_655
O16 W0 1.956073 1_554
O16 W1 2.077352 1_555
O17 W0 1.944398 1_555
O17 W1 2.002631 1_555
O18 W2 1.942546 1_554
O19 W2 1.914343 1_555
O20 W3 1.942546 1_554
O21 W3 1.914343 1_555
