# generated using pymatgen
data_BaZnCrF7
_symmetry_space_group_name_H-M   'P 1'
_cell_length_a   10.06583000
_cell_length_b   5.67203400
_cell_length_c   9.71492670
_cell_angle_alpha   86.91360049
_cell_angle_beta   90.00000000
_cell_angle_gamma   90.00000000
_symmetry_Int_Tables_number   1
_chemical_formula_structural   BaZnCrF7
_chemical_formula_sum   'Ba4 Zn4 Cr4 F28'
_cell_volume   553.85685425
_cell_formula_units_Z   4
loop_
 _symmetry_equiv_pos_site_id
 _symmetry_equiv_pos_as_xyz
  1  'x, y, z'
loop_
 _atom_site_type_symbol
 _atom_site_label
 _atom_site_symmetry_multiplicity
 _atom_site_fract_x
 _atom_site_fract_y
 _atom_site_fract_z
 _atom_site_occupancy
  Ba  Ba0  1  0.32018300  0.73930400  0.49885100  1
  Ba  Ba1  1  0.82018300  0.26069600  0.00114900  1
  Ba  Ba2  1  0.67981700  0.26069600  0.50114900  1
  Ba  Ba3  1  0.17981700  0.73930400  0.99885100  1
  Zn  Zn0  1  0.39906500  0.30369800  0.81090500  1
  Zn  Zn1  1  0.89906500  0.69630200  0.68909500  1
  Zn  Zn2  1  0.10093500  0.30369800  0.31090500  1
  Zn  Zn3  1  0.60093500  0.69630200  0.18909500  1
  Cr  Cr0  1  0.61282500  0.80478600  0.81276400  1
  Cr  Cr1  1  0.38717500  0.19521400  0.18723600  1
  Cr  Cr2  1  0.88717500  0.80478600  0.31276400  1
  Cr  Cr3  1  0.11282500  0.19521400  0.68723600  1
  F  F0  1  0.44384000  0.89155500  0.12220500  1
  F  F1  1  0.04918600  0.63882900  0.37015200  1
  F  F2  1  0.70641300  0.52432400  0.75197700  1
  F  F3  1  0.29358700  0.47567600  0.24802300  1
  F  F4  1  0.45774400  0.11076600  0.36630600  1
  F  F5  1  0.80825000  0.73926700  0.49755600  1
  F  F6  1  0.77583600  0.97592800  0.75289500  1
  F  F7  1  0.95774400  0.88923400  0.13369400  1
  F  F8  1  0.45081400  0.63882900  0.87015200  1
  F  F9  1  0.20641300  0.47567600  0.74802300  1
  F  F10  1  0.05616000  0.89155500  0.62220500  1
  F  F11  1  0.55616000  0.10844500  0.87779500  1
  F  F12  1  0.27583600  0.02407200  0.74710500  1
  F  F13  1  0.95721600  0.61203300  0.87585900  1
  F  F14  1  0.54225600  0.88923400  0.63369400  1
  F  F15  1  0.04225600  0.11076600  0.86630600  1
  F  F16  1  0.22416400  0.02407200  0.24710500  1
  F  F17  1  0.94384000  0.10844500  0.37779500  1
  F  F18  1  0.45721600  0.38796700  0.62414100  1
  F  F19  1  0.95081400  0.36117100  0.62984800  1
  F  F20  1  0.04278400  0.38796700  0.12414100  1
  F  F21  1  0.72416400  0.97592800  0.25289500  1
  F  F22  1  0.54278400  0.61203300  0.37585900  1
  F  F23  1  0.30825000  0.26073300  0.00244400  1
  F  F24  1  0.19175000  0.26073300  0.50244400  1
  F  F25  1  0.69175000  0.73926700  0.99755600  1
  F  F26  1  0.54918600  0.36117100  0.12984800  1
  F  F27  1  0.79358700  0.52432400  0.25197700  1
loop_
_geom_bond_atom_site_label_1
_geom_bond_atom_site_label_2
_geom_bond_distance
_geom_bond_site_symmetry_2
Ba0 F22 2.657492 1_555
Ba0 F18 2.663490 1_555
Ba0 F14 2.748821 1_555
Ba0 F4 2.778929 1_565
Ba0 F3 2.939023 1_555
Ba0 F9 3.002891 1_555
Ba0 F24 3.005106 1_555
Ba0 F12 3.007373 1_565
Ba0 F16 3.016470 1_565
Ba0 F10 3.058790 1_555
Ba0 F1 3.066873 1_555
Ba0 F24 3.229676 1_565
Ba1 F20 2.657492 1_655
Ba1 F13 2.663490 1_554
Ba1 F15 2.748821 1_654
Ba1 F7 2.778929 1_545
Ba1 F27 2.939023 1_555
Ba1 F2 3.002891 1_554
Ba1 F25 3.005106 1_554
Ba1 F6 3.007373 1_544
Ba1 F21 3.016470 1_545
Ba1 F11 3.058790 1_554
Ba1 F26 3.066873 1_555
Ba1 F25 3.229676 1_544
Ba2 F18 2.657492 1_555
Ba2 F22 2.663490 1_555
Ba2 F4 2.748821 1_555
Ba2 F14 2.778929 1_545
Ba2 F2 2.939023 1_555
Ba2 F27 3.002891 1_555
Ba2 F5 3.005106 1_555
Ba2 F21 3.007373 1_545
Ba2 F6 3.016470 1_545
Ba2 F17 3.058790 1_555
Ba2 F19 3.066873 1_555
Ba2 F5 3.229676 1_545
Ba3 F13 2.657492 1_455
Ba3 F20 2.663490 1_556
Ba3 F7 2.748821 1_456
Ba3 F15 2.778929 1_565
Ba3 F9 2.939023 1_555
Ba3 F3 3.002891 1_556
Ba3 F23 3.005106 1_556
Ba3 F16 3.007373 1_566
Ba3 F12 3.016470 1_565
Ba3 F0 3.058790 1_556
Ba3 F8 3.066873 1_555
Ba3 F23 3.229676 1_566
Cr0 F14 1.915899 1_555
Cr0 F8 1.949312 1_555
Cr0 F11 1.951456 1_565
Cr0 F2 1.966711 1_555
Cr0 F6 1.977916 1_555
Cr0 F25 1.979974 1_555
Cr1 F4 1.915899 1_555
Cr1 F26 1.949312 1_555
Cr1 F0 1.951456 1_545
Cr1 F3 1.966711 1_555
Cr1 F16 1.977916 1_555
Cr1 F23 1.979974 1_555
Cr2 F7 1.915899 1_555
Cr2 F1 1.949312 1_655
Cr2 F17 1.951456 1_565
Cr2 F27 1.966711 1_555
Cr2 F21 1.977916 1_555
Cr2 F5 1.979974 1_555
Cr3 F15 1.915899 1_555
Cr3 F19 1.949312 1_455
Cr3 F10 1.951456 1_545
Cr3 F9 1.966711 1_555
Cr3 F12 1.977916 1_555
Cr3 F24 1.979974 1_555
F0 Zn3 2.017866 1_555
F1 Zn2 2.081770 1_555
F2 Zn1 2.240772 1_555
F3 Zn2 2.240772 1_555
F5 Zn1 2.075745 1_555
F6 Zn1 2.131706 1_555
F8 Zn0 2.081770 1_555
F9 Zn0 2.240772 1_555
F10 Zn1 2.017866 1_455
F11 Zn0 2.017866 1_555
F12 Zn0 2.131706 1_555
F13 Zn1 1.941581 1_555
F16 Zn2 2.131706 1_555
F17 Zn2 2.017866 1_655
F18 Zn0 1.941581 1_555
F19 Zn1 2.081770 1_555
F20 Zn2 1.941581 1_555
F21 Zn3 2.131706 1_555
F22 Zn3 1.941581 1_555
F23 Zn0 2.075745 1_554
F24 Zn2 2.075745 1_555
F25 Zn3 2.075745 1_556
F26 Zn3 2.081770 1_555
F27 Zn3 2.240772 1_555
