# generated using pymatgen
data_ErMgAu
_symmetry_space_group_name_H-M   'P 1'
_cell_length_a   7.51765085
_cell_length_b   7.51765085
_cell_length_c   4.03884748
_cell_angle_alpha   90.00000000
_cell_angle_beta   90.00000000
_cell_angle_gamma   120.00000763
_symmetry_Int_Tables_number   1
_chemical_formula_structural   ErMgAu
_chemical_formula_sum   'Er3 Mg3 Au3'
_cell_volume   197.67527605
_cell_formula_units_Z   3
loop_
 _symmetry_equiv_pos_site_id
 _symmetry_equiv_pos_as_xyz
  1  'x, y, z'
loop_
 _atom_site_type_symbol
 _atom_site_label
 _atom_site_symmetry_multiplicity
 _atom_site_fract_x
 _atom_site_fract_y
 _atom_site_fract_z
 _atom_site_occupancy
  Er  Er0  1  0.58876197  1.00000000  0.00000000  1
  Er  Er1  1  1.00000000  0.58876197  -0.00000000  1
  Er  Er2  1  0.41123803  0.41123803  0.00000000  1
  Mg  Mg0  1  0.24725854  0.00000000  0.50000000  1
  Mg  Mg1  1  0.00000000  0.24725854  0.50000000  1
  Mg  Mg2  1  0.75274146  0.75274146  0.50000000  1
  Au  Au0  1  0.33333300  0.66666700  0.50000000  1
  Au  Au1  1  0.66666700  0.33333300  0.50000000  1
  Au  Au2  1  0.00000000  -0.00000000  -0.00000000  1
loop_
_geom_bond_atom_site_label_1
_geom_bond_atom_site_label_2
_geom_bond_distance
_geom_bond_site_symmetry_2
Er0 Mg0 3.266362 1_565
Er0 Mg0 3.266362 1_564
Er0 Mg1 3.368129 1_664
Er0 Mg1 3.368129 1_665
Er0 Mg2 3.368129 1_555
Er0 Mg2 3.368129 1_554
Er1 Mg1 3.266362 1_654
Er1 Mg1 3.266362 1_655
Er1 Mg0 3.368129 1_664
Er1 Mg0 3.368129 1_665
Er1 Mg2 3.368129 1_555
Er1 Mg2 3.368129 1_554
Er2 Mg2 3.266362 1_554
Er2 Mg2 3.266362 1_555
Er2 Mg1 3.368129 1_555
Er2 Mg0 3.368129 1_555
Er2 Mg0 3.368129 1_554
Er2 Mg1 3.368129 1_554
Mg0 Mg2 3.219542 1_445
Mg0 Mg1 3.219542 1_555
Mg1 Mg2 3.219542 1_445
Au0 Mg0 2.884380 1_565
Au0 Mg1 2.884385 1_555
Au0 Mg2 2.884388 1_555
Au0 Er1 3.038571 1_455
Au0 Er1 3.038571 1_456
Au0 Er0 3.038572 1_556
Au0 Er0 3.038572 1_555
Au0 Er2 3.038576 1_556
Au0 Er2 3.038576 1_555
Au1 Mg1 2.884380 1_655
Au1 Mg0 2.884385 1_555
Au1 Mg2 2.884388 1_555
Au1 Er0 3.038571 1_545
Au1 Er0 3.038571 1_546
Au1 Er1 3.038572 1_555
Au1 Er1 3.038572 1_556
Au1 Er2 3.038576 1_556
Au1 Er2 3.038576 1_555
Au2 Mg2 2.744671 1_444
Au2 Mg2 2.744671 1_445
Au2 Mg0 2.744672 1_555
Au2 Mg1 2.744672 1_555
Au2 Mg0 2.744672 1_554
Au2 Mg1 2.744672 1_554
Au2 Er2 3.091544 1_555
Au2 Er0 3.091544 1_445
Au2 Er1 3.091544 1_445
