# generated using pymatgen
data_LiNbZnO4
_symmetry_space_group_name_H-M   'P 1'
_cell_length_a   6.17185200
_cell_length_b   6.17185200
_cell_length_c   8.50539300
_cell_angle_alpha   90.00000000
_cell_angle_beta   90.00000000
_cell_angle_gamma   90.00000000
_symmetry_Int_Tables_number   1
_chemical_formula_structural   LiNbZnO4
_chemical_formula_sum   'Li4 Nb4 Zn4 O16'
_cell_volume   323.98536428
_cell_formula_units_Z   4
loop_
 _symmetry_equiv_pos_site_id
 _symmetry_equiv_pos_as_xyz
  1  'x, y, z'
loop_
 _atom_site_type_symbol
 _atom_site_label
 _atom_site_symmetry_multiplicity
 _atom_site_fract_x
 _atom_site_fract_y
 _atom_site_fract_z
 _atom_site_occupancy
  Li  Li0  1  0.21942400  0.00000000  0.25000000  1
  Li  Li1  1  0.00000000  0.21942400  0.00000000  1
  Li  Li2  1  0.00000000  0.78057600  0.50000000  1
  Li  Li3  1  0.78057600  0.00000000  0.75000000  1
  Nb  Nb0  1  0.78683200  0.50000000  0.75000000  1
  Nb  Nb1  1  0.21316800  0.50000000  0.25000000  1
  Nb  Nb2  1  0.50000000  0.78683200  0.50000000  1
  Nb  Nb3  1  0.50000000  0.21316800  0.00000000  1
  Zn  Zn0  1  0.25910000  0.25910000  0.62500000  1
  Zn  Zn1  1  0.25910000  0.74090000  0.87500000  1
  Zn  Zn2  1  0.74090000  0.74090000  0.12500000  1
  Zn  Zn3  1  0.74090000  0.25910000  0.37500000  1
  O  O0  1  0.26583900  0.51737000  0.48354000  1
  O  O1  1  0.51737000  0.73416100  0.73354000  1
  O  O2  1  0.48263000  0.26583900  0.23354000  1
  O  O3  1  0.73416100  0.51737000  0.51646000  1
  O  O4  1  0.73416100  0.48263000  0.98354000  1
  O  O5  1  0.01664000  0.73669300  0.24675100  1
  O  O6  1  0.48263000  0.73416100  0.26646000  1
  O  O7  1  0.51737000  0.26583900  0.76646000  1
  O  O8  1  0.26330700  0.01664000  0.99675100  1
  O  O9  1  0.98336000  0.26330700  0.74675100  1
  O  O10  1  0.73669300  0.01664000  0.00324900  1
  O  O11  1  0.26330700  0.98336000  0.50324900  1
  O  O12  1  0.98336000  0.73669300  0.75324900  1
  O  O13  1  0.73669300  0.98336000  0.49675100  1
  O  O14  1  0.01664000  0.26330700  0.25324900  1
  O  O15  1  0.26583900  0.48263000  0.01646000  1
loop_
_geom_bond_atom_site_label_1
_geom_bond_atom_site_label_2
_geom_bond_distance
_geom_bond_site_symmetry_2
Li0 O14 2.051358 1_555
Li0 O5 2.051358 1_545
Li0 O11 2.173371 1_545
Li0 O8 2.173371 1_554
Li0 O2 2.313105 1_555
Li0 O6 2.313105 1_545
Li1 O8 2.051358 1_554
Li1 O10 2.051358 1_455
Li1 O14 2.173371 1_555
Li1 O9 2.173371 1_454
Li1 O15 2.313105 1_555
Li1 O4 2.313105 1_454
Li2 O11 2.051358 1_555
Li2 O13 2.051358 1_455
Li2 O12 2.173371 1_455
Li2 O5 2.173371 1_555
Li2 O0 2.313105 1_555
Li2 O3 2.313105 1_455
Li3 O9 2.051358 1_555
Li3 O12 2.051358 1_545
Li3 O10 2.173371 1_556
Li3 O13 2.173371 1_545
Li3 O7 2.313105 1_555
Li3 O1 2.313105 1_545
Nb0 O12 1.898954 1_555
Nb0 O9 1.898954 1_555
Nb0 O3 2.015627 1_555
Nb0 O4 2.015627 1_555
Nb0 O7 2.207727 1_555
Nb0 O1 2.207727 1_555
Nb1 O5 1.898954 1_555
Nb1 O14 1.898954 1_555
Nb1 O0 2.015627 1_555
Nb1 O15 2.015627 1_555
Nb1 O6 2.207727 1_555
Nb1 O2 2.207727 1_555
Nb2 O13 1.898954 1_555
Nb2 O11 1.898954 1_555
Nb2 O6 2.015627 1_555
Nb2 O1 2.015627 1_555
Nb2 O3 2.207727 1_555
Nb2 O0 2.207727 1_555
Nb3 O10 1.898954 1_555
Nb3 O8 1.898954 1_554
Nb3 O7 2.015627 1_554
Nb3 O2 2.015627 1_555
Nb3 O4 2.207727 1_554
Nb3 O15 2.207727 1_555
O0 Zn0 1.997550 1_555
O1 Zn1 1.997550 1_555
O2 Zn3 1.997550 1_555
O3 Zn3 1.997550 1_555
O4 Zn2 1.997550 1_556
O5 Zn2 1.992293 1_455
O6 Zn2 1.997550 1_555
O7 Zn0 1.997550 1_555
O8 Zn1 1.992293 1_545
O9 Zn0 1.992293 1_655
O10 Zn2 1.992293 1_545
O11 Zn0 1.992293 1_565
O12 Zn1 1.992293 1_655
O13 Zn3 1.992293 1_565
O14 Zn3 1.992293 1_455
O15 Zn1 1.997550 1_554
