# generated using pymatgen
data_Ce3YRh4
_symmetry_space_group_name_H-M   'P 1'
_cell_length_a   3.81629000
_cell_length_b   4.16752500
_cell_length_c   10.97130500
_cell_angle_alpha   90.00000000
_cell_angle_beta   90.00000000
_cell_angle_gamma   90.00000000
_symmetry_Int_Tables_number   1
_chemical_formula_structural   Ce3YRh4
_chemical_formula_sum   'Ce3 Y1 Rh4'
_cell_volume   174.49294464
_cell_formula_units_Z   1
loop_
 _symmetry_equiv_pos_site_id
 _symmetry_equiv_pos_as_xyz
  1  'x, y, z'
loop_
 _atom_site_type_symbol
 _atom_site_label
 _atom_site_symmetry_multiplicity
 _atom_site_fract_x
 _atom_site_fract_y
 _atom_site_fract_z
 _atom_site_occupancy
  Ce  Ce0  1  0.00000000  0.75000000  0.86308200  1
  Ce  Ce1  1  0.00000000  0.25000000  0.14330800  1
  Ce  Ce2  1  0.50000000  0.25000000  0.63201700  1
  Y  Y0  1  0.50000000  0.75000000  0.36061800  1
  Rh  Rh0  1  0.50000000  0.75000000  0.09287700  1
  Rh  Rh1  1  0.00000000  0.75000000  0.59589300  1
  Rh  Rh2  1  0.00000000  0.25000000  0.40921400  1
  Rh  Rh3  1  0.50000000  0.25000000  0.90299100  1
loop_
_geom_bond_atom_site_label_1
_geom_bond_atom_site_label_2
_geom_bond_distance
_geom_bond_site_symmetry_2
Ce0 Rh3 2.859161 1_465
Ce0 Rh3 2.859161 1_555
Ce0 Rh3 2.859161 1_455
Ce0 Rh3 2.859161 1_565
Ce0 Rh1 2.931412 1_555
Ce0 Rh0 3.161838 1_556
Ce0 Rh0 3.161838 1_456
Ce1 Rh0 2.879100 1_555
Ce1 Rh0 2.879100 1_445
Ce1 Rh0 2.879100 1_545
Ce1 Rh0 2.879100 1_455
Ce1 Rh2 2.917336 1_555
Ce1 Rh3 3.254632 1_554
Ce1 Rh3 3.254632 1_454
Ce2 Rh1 2.853096 1_555
Ce2 Rh1 2.853096 1_545
Ce2 Rh1 2.853096 1_645
Ce2 Rh1 2.853096 1_655
Ce2 Rh3 2.972938 1_555
Ce2 Rh2 3.101016 1_655
Ce2 Rh2 3.101016 1_555
Rh0 Y0 2.937468 1_555
Rh0 Rh3 2.946556 1_554
Rh0 Rh3 2.946556 1_564
Rh1 Y0 3.209983 1_555
Rh1 Y0 3.209983 1_455
Rh2 Y0 2.875299 1_555
Rh2 Y0 2.875299 1_445
Rh2 Y0 2.875299 1_545
Rh2 Y0 2.875299 1_455
