# generated using pymatgen
data_RbAg5(PS4)2
_symmetry_space_group_name_H-M   'P 1'
_cell_length_a   12.75944800
_cell_length_b   12.80101800
_cell_length_c   18.02697300
_cell_angle_alpha   90.00000000
_cell_angle_beta   90.00000000
_cell_angle_gamma   90.00000000
_symmetry_Int_Tables_number   1
_chemical_formula_structural   RbAg5(PS4)2
_chemical_formula_sum   'Rb8 Ag40 P16 S64'
_cell_volume   2944.41622924
_cell_formula_units_Z   8
loop_
 _symmetry_equiv_pos_site_id
 _symmetry_equiv_pos_as_xyz
  1  'x, y, z'
loop_
 _atom_site_type_symbol
 _atom_site_label
 _atom_site_symmetry_multiplicity
 _atom_site_fract_x
 _atom_site_fract_y
 _atom_site_fract_z
 _atom_site_occupancy
  Rb  Rb0  1  0.53723400  0.26450900  0.24913500  1
  Rb  Rb1  1  0.03723400  0.23549100  0.75086500  1
  Rb  Rb2  1  0.46276600  0.76450900  0.25086500  1
  Rb  Rb3  1  0.96276600  0.73549100  0.74913500  1
  Rb  Rb4  1  0.46276600  0.73549100  0.75086500  1
  Rb  Rb5  1  0.96276600  0.76450900  0.24913500  1
  Rb  Rb6  1  0.53723400  0.23549100  0.74913500  1
  Rb  Rb7  1  0.03723400  0.26450900  0.25086500  1
  Ag  Ag0  1  0.50491900  0.01921800  0.37041000  1
  Ag  Ag1  1  0.00491900  0.48078200  0.62959000  1
  Ag  Ag2  1  0.49508100  0.51921800  0.12959000  1
  Ag  Ag3  1  0.99508100  0.98078200  0.87041000  1
  Ag  Ag4  1  0.49508100  0.98078200  0.62959000  1
  Ag  Ag5  1  0.99508100  0.51921800  0.37041000  1
  Ag  Ag6  1  0.50491900  0.48078200  0.87041000  1
  Ag  Ag7  1  0.00491900  0.01921800  0.12959000  1
  Ag  Ag8  1  0.75841600  0.26353400  0.11832500  1
  Ag  Ag9  1  0.25841600  0.23646600  0.88167500  1
  Ag  Ag10  1  0.24158400  0.76353400  0.38167500  1
  Ag  Ag11  1  0.74158400  0.73646600  0.61832500  1
  Ag  Ag12  1  0.24158400  0.73646600  0.88167500  1
  Ag  Ag13  1  0.74158400  0.76353400  0.11832500  1
  Ag  Ag14  1  0.75841600  0.23646600  0.61832500  1
  Ag  Ag15  1  0.25841600  0.26353400  0.38167500  1
  Ag  Ag16  1  0.75873500  0.24725100  0.38163400  1
  Ag  Ag17  1  0.25873500  0.25274900  0.61836600  1
  Ag  Ag18  1  0.24126500  0.74725100  0.11836600  1
  Ag  Ag19  1  0.74126500  0.75274900  0.88163400  1
  Ag  Ag20  1  0.24126500  0.75274900  0.61836600  1
  Ag  Ag21  1  0.74126500  0.74725100  0.38163400  1
  Ag  Ag22  1  0.75873500  0.25274900  0.88163400  1
  Ag  Ag23  1  0.25873500  0.24725100  0.11836600  1
  Ag  Ag24  1  0.80524100  0.06239800  0.03159700  1
  Ag  Ag25  1  0.30524100  0.43760200  0.96840300  1
  Ag  Ag26  1  0.19475900  0.56239800  0.46840300  1
  Ag  Ag27  1  0.69475900  0.93760200  0.53159700  1
  Ag  Ag28  1  0.19475900  0.93760200  0.96840300  1
  Ag  Ag29  1  0.69475900  0.56239800  0.03159700  1
  Ag  Ag30  1  0.80524100  0.43760200  0.53159700  1
  Ag  Ag31  1  0.30524100  0.06239800  0.46840300  1
  Ag  Ag32  1  0.98260500  0.02148300  0.38514000  1
  Ag  Ag33  1  0.48260500  0.47851700  0.61486000  1
  Ag  Ag34  1  0.01739500  0.52148300  0.11486000  1
  Ag  Ag35  1  0.51739500  0.97851700  0.88514000  1
  Ag  Ag36  1  0.01739500  0.97851700  0.61486000  1
  Ag  Ag37  1  0.51739500  0.52148300  0.38514000  1
  Ag  Ag38  1  0.98260500  0.47851700  0.88514000  1
  Ag  Ag39  1  0.48260500  0.02148300  0.11486000  1
  P  P0  1  0.51903300  0.24498800  0.49677300  1
  P  P1  1  0.01903300  0.25501200  0.50322700  1
  P  P2  1  0.48096700  0.74498800  0.00322700  1
  P  P3  1  0.98096700  0.75501200  0.99677300  1
  P  P4  1  0.48096700  0.75501200  0.50322700  1
  P  P5  1  0.98096700  0.74498800  0.49677300  1
  P  P6  1  0.51903300  0.25501200  0.99677300  1
  P  P7  1  0.01903300  0.24498800  0.00322700  1
  P  P8  1  0.75326300  0.02196900  0.24920000  1
  P  P9  1  0.25326300  0.47803100  0.75080000  1
  P  P10  1  0.24673700  0.52196900  0.25080000  1
  P  P11  1  0.74673700  0.97803100  0.74920000  1
  P  P12  1  0.24673700  0.97803100  0.75080000  1
  P  P13  1  0.74673700  0.52196900  0.24920000  1
  P  P14  1  0.75326300  0.47803100  0.74920000  1
  P  P15  1  0.25326300  0.02196900  0.25080000  1
  S  S0  1  0.60889100  0.15400100  0.06203900  1
  S  S1  1  0.10889100  0.34599900  0.93796100  1
  S  S2  1  0.39110900  0.65400100  0.43796100  1
  S  S3  1  0.89110900  0.84599900  0.56203900  1
  S  S4  1  0.39110900  0.84599900  0.93796100  1
  S  S5  1  0.89110900  0.65400100  0.06203900  1
  S  S6  1  0.60889100  0.34599900  0.56203900  1
  S  S7  1  0.10889100  0.15400100  0.43796100  1
  S  S8  1  0.62123700  0.13955700  0.44730300  1
  S  S9  1  0.12123700  0.36044300  0.55269700  1
  S  S10  1  0.37876300  0.63955700  0.05269700  1
  S  S11  1  0.87876300  0.86044300  0.94730300  1
  S  S12  1  0.37876300  0.86044300  0.55269700  1
  S  S13  1  0.87876300  0.63955700  0.44730300  1
  S  S14  1  0.62123700  0.36044300  0.94730300  1
  S  S15  1  0.12123700  0.13955700  0.05269700  1
  S  S16  1  0.68175800  0.45382400  0.15151700  1
  S  S17  1  0.18175800  0.04617600  0.84848300  1
  S  S18  1  0.31824200  0.95382400  0.34848300  1
  S  S19  1  0.81824200  0.54617600  0.65151700  1
  S  S20  1  0.31824200  0.54617600  0.84848300  1
  S  S21  1  0.81824200  0.95382400  0.15151700  1
  S  S22  1  0.68175800  0.04617600  0.65151700  1
  S  S23  1  0.18175800  0.45382400  0.34848300  1
  S  S24  1  0.69132700  0.45153400  0.34488000  1
  S  S25  1  0.19132700  0.04846600  0.65512000  1
  S  S26  1  0.30867300  0.95153400  0.15512000  1
  S  S27  1  0.80867300  0.54846600  0.84488000  1
  S  S28  1  0.30867300  0.54846600  0.65512000  1
  S  S29  1  0.80867300  0.95153400  0.34488000  1
  S  S30  1  0.69132700  0.04846600  0.84488000  1
  S  S31  1  0.19132700  0.45153400  0.15512000  1
  S  S32  1  0.79483700  0.17736300  0.24926600  1
  S  S33  1  0.29483700  0.32263700  0.75073400  1
  S  S34  1  0.20516300  0.67736300  0.25073400  1
  S  S35  1  0.70516300  0.82263700  0.74926600  1
  S  S36  1  0.20516300  0.82263700  0.75073400  1
  S  S37  1  0.70516300  0.67736300  0.24926600  1
  S  S38  1  0.79483700  0.32263700  0.74926600  1
  S  S39  1  0.29483700  0.17736300  0.25073400  1
  S  S40  1  0.90470300  0.49742500  0.24278300  1
  S  S41  1  0.40470300  0.00257500  0.75721700  1
  S  S42  1  0.09529700  0.99742500  0.25721700  1
  S  S43  1  0.59529700  0.50257500  0.74278300  1
  S  S44  1  0.09529700  0.50257500  0.75721700  1
  S  S45  1  0.59529700  0.99742500  0.24278300  1
  S  S46  1  0.90470300  0.00257500  0.74278300  1
  S  S47  1  0.40470300  0.49742500  0.25721700  1
  S  S48  1  0.91774500  0.34218000  0.43571600  1
  S  S49  1  0.41774500  0.15782000  0.56428400  1
  S  S50  1  0.08225500  0.84218000  0.06428400  1
  S  S51  1  0.58225500  0.65782000  0.93571600  1
  S  S52  1  0.08225500  0.65782000  0.56428400  1
  S  S53  1  0.58225500  0.84218000  0.43571600  1
  S  S54  1  0.91774500  0.15782000  0.93571600  1
  S  S55  1  0.41774500  0.34218000  0.06428400  1
  S  S56  1  0.93416900  0.33483900  0.07485400  1
  S  S57  1  0.43416900  0.16516100  0.92514600  1
  S  S58  1  0.06583100  0.83483900  0.42514600  1
  S  S59  1  0.56583100  0.66516100  0.57485400  1
  S  S60  1  0.06583100  0.66516100  0.92514600  1
  S  S61  1  0.56583100  0.83483900  0.07485400  1
  S  S62  1  0.93416900  0.16516100  0.57485400  1
  S  S63  1  0.43416900  0.33483900  0.42514600  1
loop_
_geom_bond_atom_site_label_1
_geom_bond_atom_site_label_2
_geom_bond_distance
_geom_bond_site_symmetry_2
Rb0 S39 3.288013 1_555
Rb0 S47 3.430815 1_555
Rb0 S32 3.471023 1_555
Rb0 S45 3.500168 1_545
Rb0 S16 3.517135 1_555
Rb0 S24 3.546340 1_555
Rb0 S63 3.550701 1_555
Rb1 S38 3.288013 1_455
Rb1 S46 3.430815 1_455
Rb1 S33 3.471023 1_555
Rb1 S44 3.500168 1_555
Rb1 S17 3.517135 1_555
Rb1 S25 3.546340 1_555
Rb1 S62 3.550701 1_455
Rb2 S37 3.288013 1_555
Rb2 S45 3.430815 1_555
Rb2 S34 3.471023 1_555
Rb2 S47 3.500168 1_555
Rb2 S18 3.517135 1_555
Rb2 S26 3.546340 1_555
Rb2 S61 3.550701 1_555
Rb3 S36 3.288013 1_655
Rb3 S44 3.430815 1_655
Rb3 S35 3.471023 1_555
Rb3 S46 3.500168 1_565
Rb3 S19 3.517135 1_555
Rb3 S27 3.546340 1_555
Rb3 S60 3.550701 1_655
Rb4 S35 3.288013 1_555
Rb4 S43 3.430815 1_555
Rb4 S36 3.471023 1_555
Rb4 S41 3.500168 1_565
Rb4 S20 3.517135 1_555
Rb4 S28 3.546340 1_555
Rb4 S59 3.550701 1_555
Rb5 S34 3.288013 1_655
Rb5 S42 3.430815 1_655
Rb5 S37 3.471023 1_555
Rb5 S40 3.500168 1_555
Rb5 S21 3.517135 1_555
Rb5 S29 3.546340 1_555
Rb5 S58 3.550701 1_655
Rb6 S33 3.288013 1_555
Rb6 S41 3.430815 1_555
Rb6 S38 3.471023 1_555
Rb6 S43 3.500168 1_555
Rb6 S22 3.517135 1_555
Rb6 S30 3.546340 1_555
Rb6 S57 3.550701 1_555
Rb7 S32 3.288013 1_455
Rb7 S40 3.430815 1_455
Rb7 S39 3.471023 1_555
Rb7 S42 3.500168 1_545
Rb7 S23 3.517135 1_555
Rb7 S31 3.546340 1_555
Rb7 S56 3.550701 1_455
Ag0 S8 2.548949 1_555
Ag0 S18 2.555469 1_545
Ag0 S45 2.588626 1_545
Ag0 S53 2.737815 1_545
Ag1 S9 2.548949 1_555
Ag1 S19 2.555469 1_455
Ag1 S44 2.588626 1_555
Ag1 S52 2.737815 1_555
Ag2 S10 2.548949 1_555
Ag2 S16 2.555469 1_555
Ag2 S47 2.588626 1_555
Ag2 S55 2.737815 1_555
Ag3 S11 2.548949 1_555
Ag3 S17 2.555469 1_665
Ag3 S46 2.588626 1_565
Ag3 S54 2.737815 1_565
Ag4 S12 2.548949 1_555
Ag4 S22 2.555469 1_565
Ag4 S41 2.588626 1_565
Ag4 S49 2.737815 1_565
Ag5 S13 2.548949 1_555
Ag5 S23 2.555469 1_655
Ag5 S40 2.588626 1_555
Ag5 S48 2.737815 1_555
Ag6 S14 2.548949 1_555
Ag6 S20 2.555469 1_555
Ag6 S43 2.588626 1_555
Ag6 S51 2.737815 1_555
Ag7 S15 2.548949 1_555
Ag7 S21 2.555469 1_445
Ag7 S42 2.588626 1_545
Ag7 S50 2.737815 1_545
Ag8 S56 2.544823 1_555
Ag8 S0 2.575935 1_555
Ag8 S32 2.646612 1_555
Ag8 S16 2.692279 1_555
Ag9 S57 2.544823 1_555
Ag9 S1 2.575935 1_555
Ag9 S33 2.646612 1_555
Ag9 S17 2.692279 1_555
Ag10 S58 2.544823 1_555
Ag10 S2 2.575935 1_555
Ag10 S34 2.646612 1_555
Ag10 S18 2.692279 1_555
Ag11 S59 2.544823 1_555
Ag11 S3 2.575935 1_555
Ag11 S35 2.646612 1_555
Ag11 S19 2.692279 1_555
Ag12 S60 2.544823 1_555
Ag12 S4 2.575935 1_555
Ag12 S36 2.646612 1_555
Ag12 S20 2.692279 1_555
Ag13 S61 2.544823 1_555
Ag13 S5 2.575935 1_555
Ag13 S37 2.646612 1_555
Ag13 S21 2.692279 1_555
Ag14 S62 2.544823 1_555
Ag14 S6 2.575935 1_555
Ag14 S38 2.646612 1_555
Ag14 S22 2.692279 1_555
Ag15 S63 2.544823 1_555
Ag15 S7 2.575935 1_555
Ag15 S39 2.646612 1_555
Ag15 S23 2.692279 1_555
Ag16 S8 2.525836 1_555
Ag16 S48 2.558033 1_555
Ag16 S32 2.589689 1_555
Ag16 S24 2.831453 1_555
Ag17 S9 2.525836 1_555
Ag17 S49 2.558033 1_555
Ag17 S33 2.589689 1_555
Ag17 S25 2.831453 1_555
Ag18 S10 2.525836 1_555
Ag18 S50 2.558033 1_555
Ag18 S34 2.589689 1_555
Ag18 S26 2.831453 1_555
Ag19 S11 2.525836 1_555
Ag19 S51 2.558033 1_555
Ag19 S35 2.589689 1_555
Ag19 S27 2.831453 1_555
Ag20 S12 2.525836 1_555
Ag20 S52 2.558033 1_555
Ag20 S36 2.589689 1_555
Ag20 S28 2.831453 1_555
Ag21 S13 2.525836 1_555
Ag21 S53 2.558033 1_555
Ag21 S37 2.589689 1_555
Ag21 S29 2.831453 1_555
Ag22 S14 2.525836 1_555
Ag22 S54 2.558033 1_555
Ag22 S38 2.589689 1_555
Ag22 S30 2.831453 1_555
Ag23 S15 2.525836 1_555
Ag23 S55 2.558033 1_555
Ag23 S39 2.589689 1_555
Ag23 S31 2.831453 1_555
Ag24 S54 2.557383 1_554
Ag24 S21 2.575379 1_545
Ag24 S0 2.820069 1_555
Ag24 S11 3.142057 1_544
Ag25 S55 2.557383 1_556
Ag25 S20 2.575379 1_555
Ag25 S1 2.820069 1_555
Ag25 S10 3.142057 1_556
Ag26 S52 2.557383 1_555
Ag26 S23 2.575379 1_555
Ag26 S2 2.820069 1_555
Ag26 S9 3.142057 1_555
Ag27 S53 2.557383 1_555
Ag27 S22 2.575379 1_565
Ag27 S3 2.820069 1_555
Ag27 S8 3.142057 1_565
Ag28 S50 2.557383 1_556
Ag28 S17 2.575379 1_565
Ag28 S4 2.820069 1_555
Ag28 S15 3.142057 1_566
Ag29 S51 2.557383 1_554
Ag29 S16 2.575379 1_555
Ag29 S5 2.820069 1_555
Ag29 S14 3.142057 1_554
Ag30 S48 2.557383 1_555
Ag30 S19 2.575379 1_555
Ag30 S6 2.820069 1_555
Ag30 S13 3.142057 1_555
Ag31 S49 2.557383 1_555
Ag31 S18 2.575379 1_545
Ag31 S7 2.820069 1_555
Ag31 S12 3.142057 1_545
Ag32 S29 2.500739 1_545
Ag32 S7 2.526017 1_655
Ag32 S58 2.712234 1_645
Ag32 S42 2.735013 1_645
Ag33 S28 2.500739 1_555
Ag33 S6 2.526017 1_555
Ag33 S59 2.712234 1_555
Ag33 S43 2.735013 1_555
Ag34 S31 2.500739 1_555
Ag34 S5 2.526017 1_455
Ag34 S56 2.712234 1_455
Ag34 S40 2.735013 1_455
Ag35 S30 2.500739 1_565
Ag35 S4 2.526017 1_555
Ag35 S57 2.712234 1_565
Ag35 S41 2.735013 1_565
Ag36 S25 2.500739 1_565
Ag36 S3 2.526017 1_455
Ag36 S62 2.712234 1_465
Ag36 S46 2.735013 1_465
Ag37 S24 2.500739 1_555
Ag37 S2 2.526017 1_555
Ag37 S63 2.712234 1_555
Ag37 S47 2.735013 1_555
Ag38 S27 2.500739 1_555
Ag38 S1 2.526017 1_655
Ag38 S60 2.712234 1_655
Ag38 S44 2.735013 1_655
Ag39 S26 2.500739 1_545
Ag39 S0 2.526017 1_555
Ag39 S61 2.712234 1_545
Ag39 S45 2.735013 1_545
P0 S63 2.040260 1_555
P0 S8 2.077829 1_555
P0 S6 2.090641 1_555
P0 S49 2.096777 1_555
P1 S62 2.040260 1_455
P1 S9 2.077829 1_555
P1 S7 2.090641 1_555
P1 S48 2.096777 1_455
P2 S61 2.040260 1_555
P2 S10 2.077829 1_555
P2 S4 2.090641 1_554
P2 S51 2.096777 1_554
P3 S60 2.040260 1_655
P3 S11 2.077829 1_555
P3 S5 2.090641 1_556
P3 S50 2.096777 1_656
P4 S59 2.040260 1_555
P4 S12 2.077829 1_555
P4 S2 2.090641 1_555
P4 S53 2.096777 1_555
P5 S58 2.040260 1_655
P5 S13 2.077829 1_555
P5 S3 2.090641 1_555
P5 S52 2.096777 1_655
P6 S57 2.040260 1_555
P6 S14 2.077829 1_555
P6 S0 2.090641 1_556
P6 S55 2.096777 1_556
P7 S56 2.040260 1_455
P7 S15 2.077829 1_555
P7 S1 2.090641 1_554
P7 S54 2.096777 1_454
P8 S45 2.043177 1_545
P8 S32 2.058716 1_555
P8 S29 2.070703 1_545
P8 S21 2.132891 1_545
P9 S44 2.043177 1_555
P9 S33 2.058716 1_555
P9 S28 2.070703 1_555
P9 S20 2.132891 1_555
P10 S47 2.043177 1_555
P10 S34 2.058716 1_555
P10 S31 2.070703 1_555
P10 S23 2.132891 1_555
P11 S46 2.043177 1_565
P11 S35 2.058716 1_555
P11 S30 2.070703 1_565
P11 S22 2.132891 1_565
P12 S41 2.043177 1_565
P12 S36 2.058716 1_555
P12 S25 2.070703 1_565
P12 S17 2.132891 1_565
P13 S40 2.043177 1_555
P13 S37 2.058716 1_555
P13 S24 2.070703 1_555
P13 S16 2.132891 1_555
P14 S43 2.043177 1_555
P14 S38 2.058716 1_555
P14 S27 2.070703 1_555
P14 S19 2.132891 1_555
P15 S42 2.043177 1_545
P15 S39 2.058716 1_555
P15 S26 2.070703 1_545
P15 S18 2.132891 1_545
