# generated using pymatgen
data_NaMg6Al3Si6(BO10)3
_symmetry_space_group_name_H-M   'P 1'
_cell_length_a   8.00144100
_cell_length_b   10.33937544
_cell_length_c   10.33937508
_cell_angle_alpha   113.58973152
_cell_angle_beta   104.94906047
_cell_angle_gamma   104.94905994
_symmetry_Int_Tables_number   1
_chemical_formula_structural   NaMg6Al3Si6(BO10)3
_chemical_formula_sum   'Na1 Mg6 Al3 Si6 B3 O30'
_cell_volume   691.48307098
_cell_formula_units_Z   1
loop_
 _symmetry_equiv_pos_site_id
 _symmetry_equiv_pos_as_xyz
  1  'x, y, z'
loop_
 _atom_site_type_symbol
 _atom_site_label
 _atom_site_symmetry_multiplicity
 _atom_site_fract_x
 _atom_site_fract_y
 _atom_site_fract_z
 _atom_site_occupancy
  Na  Na0  1  0.03833400  0.00000000  0.00000000  1
  Mg  Mg0  1  0.07892200  0.27290000  0.63526700  1
  Mg  Mg1  1  0.44365500  0.36473300  0.63763300  1
  Mg  Mg2  1  0.80602200  0.36236700  0.72710000  1
  Mg  Mg3  1  0.07050500  0.63253300  0.25521500  1
  Mg  Mg4  1  0.81529000  0.74478500  0.37731900  1
  Mg  Mg5  1  0.43797200  0.62268100  0.36746700  1
  Al  Al0  1  0.81542000  0.15542300  0.83282200  1
  Al  Al1  1  0.98259700  0.16717800  0.32260100  1
  Al  Al2  1  0.65999600  0.67739900  0.84457700  1
  Si  Si0  1  0.43093900  0.81091500  0.17863000  1
  Si  Si1  1  0.25230800  0.82137000  0.63228500  1
  Si  Si2  1  0.62002300  0.36771500  0.18908500  1
  Si  Si3  1  0.42669900  0.18788300  0.82161200  1
  Si  Si4  1  0.60508600  0.17838800  0.36627000  1
  Si  Si5  1  0.23881600  0.63373000  0.81211700  1
  B  B0  1  0.81820200  0.83172200  0.17030500  1
  B  B1  1  0.64789700  0.82969500  0.66141700  1
  B  B2  1  0.98648000  0.33858300  0.16827800  1
  O  O0  1  0.70855700  0.51514100  0.80519100  1
  O  O1  1  0.90336700  0.19480900  0.70995000  1
  O  O2  1  0.19341600  0.29005000  0.48485900  1
  O  O3  1  0.70110000  0.80715900  0.53100900  1
  O  O4  1  0.17009100  0.46899100  0.27615000  1
  O  O5  1  0.89394100  0.72385000  0.19284100  1
  O  O6  1  0.46547000  0.99347900  0.26772200  1
  O  O7  1  0.19774800  0.73227800  0.72575700  1
  O  O8  1  0.47199100  0.27424300  0.00652100  1
  O  O9  1  0.63723700  0.79477600  0.20344000  1
  O  O10  1  0.43379700  0.79656000  0.59133600  1
  O  O11  1  0.84246100  0.40866400  0.20522400  1
  O  O12  1  0.62595600  0.21251600  0.79952600  1
  O  O13  1  0.82643100  0.20047400  0.41299000  1
  O  O14  1  0.41344000  0.58701000  0.78748400  1
  O  O15  1  0.79442800  0.83327600  0.02920300  1
  O  O16  1  0.76522500  0.97079700  0.80407300  1
  O  O17  1  0.96115200  0.19592700  0.16672400  1
  O  O18  1  0.94836300  0.98179000  0.30631800  1
  O  O19  1  0.64204500  0.69368200  0.67547200  1
  O  O20  1  0.96657300  0.32452800  0.01821000  1
  O  O21  1  0.30148300  0.74852500  0.99717700  1
  O  O22  1  0.30430600  0.00282300  0.75134900  1
  O  O23  1  0.55295700  0.24865100  0.25147500  1
  O  O24  1  0.32280400  0.71639400  0.24682100  1
  O  O25  1  0.07598300  0.75317900  0.46957200  1
  O  O26  1  0.60641100  0.53042800  0.28360600  1
  O  O27  1  0.31578800  0.25866200  0.73460100  1
  O  O28  1  0.58118700  0.26539900  0.52406100  1
  O  O29  1  0.05712600  0.47593900  0.74133800  1
loop_
_geom_bond_atom_site_label_1
_geom_bond_atom_site_label_2
_geom_bond_distance
_geom_bond_site_symmetry_2
Na0 O16 2.420002 1_444
Na0 O15 2.420002 1_445
Na0 O17 2.420002 1_455
Mg0 O1 1.922186 1_455
Mg0 O27 1.982233 1_555
Mg0 O29 2.021161 1_555
Mg0 O2 2.039863 1_555
Mg0 O13 2.317476 1_455
Mg1 O2 1.922191 1_555
Mg1 O28 1.982233 1_555
Mg1 O27 2.021161 1_555
Mg1 O0 2.039863 1_555
Mg1 O14 2.317481 1_555
Mg2 O0 1.922191 1_555
Mg2 O29 1.982233 1_655
Mg2 O28 2.021161 1_555
Mg2 O1 2.039868 1_555
Mg2 O12 2.317481 1_555
Mg3 O5 2.002178 1_455
Mg3 O24 2.020463 1_555
Mg3 O25 2.044245 1_555
Mg3 O4 2.107156 1_555
Mg3 O11 2.308929 1_455
Mg4 O3 2.002170 1_555
Mg4 O25 2.020459 1_655
Mg4 O26 2.044241 1_555
Mg4 O5 2.107166 1_555
Mg4 O9 2.308937 1_555
Mg5 O4 2.002174 1_555
Mg5 O26 2.020460 1_555
Mg5 O24 2.044262 1_555
Mg5 O3 2.107160 1_555
Mg5 O10 2.308933 1_555
Al0 O16 1.726947 1_545
Al0 O1 1.732759 1_555
Al0 O12 1.766430 1_555
Al0 O20 1.795695 1_556
Al1 O17 1.726947 1_555
Al1 O2 1.732759 1_655
Al1 O13 1.766416 1_555
Al1 O18 1.795696 1_545
Al2 O15 1.726948 1_556
Al2 O0 1.732759 1_555
Al2 O14 1.766423 1_555
Al2 O19 1.795696 1_555
B0 O15 1.428990 1_555
B0 O18 1.460843 1_555
B0 O5 1.466076 1_555
B0 O9 1.560529 1_555
B1 O16 1.428990 1_555
B1 O19 1.460843 1_555
B1 O3 1.466076 1_555
B1 O10 1.560529 1_555
B2 O17 1.428990 1_555
B2 O20 1.460843 1_555
B2 O4 1.466076 1_655
B2 O11 1.560529 1_555
O6 Si4 1.641050 1_565
O6 Si0 1.641905 1_555
O7 Si5 1.641042 1_555
O7 Si1 1.641903 1_555
O8 Si3 1.641051 1_554
O8 Si2 1.641903 1_555
O9 Si0 1.666225 1_555
O10 Si1 1.666233 1_555
O11 Si2 1.666233 1_555
O12 Si3 1.638240 1_555
O13 Si4 1.638255 1_555
O14 Si5 1.638245 1_555
O21 Si0 1.641003 1_556
O21 Si5 1.643652 1_555
O22 Si1 1.641004 1_545
O22 Si3 1.643655 1_555
O23 Si2 1.641012 1_555
O23 Si4 1.643637 1_555
O24 Si0 1.621970 1_555
O25 Si1 1.621972 1_555
O26 Si2 1.621970 1_555
O27 Si3 1.607033 1_555
O28 Si4 1.607038 1_555
O29 Si5 1.607040 1_555
