# generated using pymatgen
data_Eu3Ti2O7
_symmetry_space_group_name_H-M   'P 1'
_cell_length_a   10.51063287
_cell_length_b   10.51063287
_cell_length_c   10.51063287
_cell_angle_alpha   158.47110958
_cell_angle_beta   158.47110958
_cell_angle_gamma   30.63113356
_symmetry_Int_Tables_number   1
_chemical_formula_structural   Eu3Ti2O7
_chemical_formula_sum   'Eu3 Ti2 O7'
_cell_volume   156.26604685
_cell_formula_units_Z   1
loop_
 _symmetry_equiv_pos_site_id
 _symmetry_equiv_pos_as_xyz
  1  'x, y, z'
loop_
 _atom_site_type_symbol
 _atom_site_label
 _atom_site_symmetry_multiplicity
 _atom_site_fract_x
 _atom_site_fract_y
 _atom_site_fract_z
 _atom_site_occupancy
  Eu  Eu0  1  0.31570400  0.31570400  0.00000000  1
  Eu  Eu1  1  0.68429600  0.68429600  0.00000000  1
  Eu  Eu2  1  0.50000000  0.50000000  0.00000000  1
  Ti  Ti0  1  0.09786200  0.09786200  0.00000000  1
  Ti  Ti1  1  0.90213800  0.90213800  0.00000000  1
  O  O0  1  0.59648500  0.09648500  0.50000000  1
  O  O1  1  0.40351500  0.90351500  0.50000000  1
  O  O2  1  0.09648500  0.59648500  0.50000000  1
  O  O3  1  0.90351500  0.40351500  0.50000000  1
  O  O4  1  0.19721900  0.19721900  0.00000000  1
  O  O5  1  0.80278100  0.80278100  0.00000000  1
  O  O6  1  0.00000000  0.00000000  0.00000000  1
loop_
_geom_bond_atom_site_label_1
_geom_bond_atom_site_label_2
_geom_bond_distance
_geom_bond_site_symmetry_2
Eu0 O4 2.402249 1_555
Eu0 O1 2.650158 1_544
Eu0 O3 2.650158 1_454
Eu0 O1 2.650158 1_555
Eu0 O3 2.650158 1_555
Eu0 O5 2.788563 1_556
Eu0 O5 2.788563 1_545
Eu0 O5 2.788563 1_444
Eu0 O5 2.788563 1_455
Eu1 O5 2.402249 1_555
Eu1 O0 2.650158 1_554
Eu1 O2 2.650158 1_554
Eu1 O0 2.650158 1_565
Eu1 O2 2.650158 1_655
Eu1 O4 2.788563 1_655
Eu1 O4 2.788563 1_666
Eu1 O4 2.788563 1_565
Eu1 O4 2.788563 1_554
Eu2 O0 2.771364 1_554
Eu2 O2 2.771364 1_554
Eu2 O2 2.771364 1_655
Eu2 O0 2.771364 1_565
Eu2 O1 2.771364 1_544
Eu2 O3 2.771364 1_454
Eu2 O1 2.771364 1_555
Eu2 O3 2.771364 1_555
Eu2 O6 2.776227 1_655
Eu2 O6 2.776227 1_666
Eu2 O6 2.776227 1_554
Eu2 O6 2.776227 1_565
O0 Ti0 1.963288 1_555
O0 Ti0 1.963288 1_656
O1 Ti1 1.963288 1_455
O1 Ti1 1.963288 1_556
O2 Ti0 1.963288 1_555
O2 Ti0 1.963288 1_566
O3 Ti1 1.963288 1_545
O3 Ti1 1.963288 1_556
O4 Ti0 2.014434 1_555
O5 Ti1 2.014434 1_555
O6 Ti0 1.984124 1_555
O6 Ti1 1.984124 1_445
