# generated using pymatgen
data_RbPPbS4
_symmetry_space_group_name_H-M   'P 1'
_cell_length_a   6.51319800
_cell_length_b   6.80138800
_cell_length_c   17.65903900
_cell_angle_alpha   90.00000000
_cell_angle_beta   90.00000000
_cell_angle_gamma   90.00000000
_symmetry_Int_Tables_number   1
_chemical_formula_structural   RbPPbS4
_chemical_formula_sum   'Rb4 P4 Pb4 S16'
_cell_volume   782.27400232
_cell_formula_units_Z   4
loop_
 _symmetry_equiv_pos_site_id
 _symmetry_equiv_pos_as_xyz
  1  'x, y, z'
loop_
 _atom_site_type_symbol
 _atom_site_label
 _atom_site_symmetry_multiplicity
 _atom_site_fract_x
 _atom_site_fract_y
 _atom_site_fract_z
 _atom_site_occupancy
  Rb  Rb0  1  0.53009000  0.75000000  0.29406800  1
  Rb  Rb1  1  0.96991000  0.75000000  0.79406800  1
  Rb  Rb2  1  0.46991000  0.25000000  0.70593200  1
  Rb  Rb3  1  0.03009000  0.25000000  0.20593200  1
  P  P0  1  0.78158900  0.75000000  0.09733200  1
  P  P1  1  0.71841100  0.75000000  0.59733200  1
  P  P2  1  0.21841100  0.25000000  0.90266800  1
  P  P3  1  0.28158900  0.25000000  0.40266800  1
  Pb  Pb0  1  0.28832600  0.75000000  0.01838500  1
  Pb  Pb1  1  0.21167400  0.75000000  0.51838500  1
  Pb  Pb2  1  0.71167400  0.25000000  0.98161500  1
  Pb  Pb3  1  0.78832600  0.25000000  0.48161500  1
  S  S0  1  0.04485900  0.75000000  0.16006100  1
  S  S1  1  0.45514100  0.75000000  0.66006100  1
  S  S2  1  0.95514100  0.25000000  0.83993900  1
  S  S3  1  0.54485900  0.25000000  0.33993900  1
  S  S4  1  0.84612500  0.75000000  0.98268600  1
  S  S5  1  0.65387500  0.75000000  0.48268600  1
  S  S6  1  0.15387500  0.25000000  0.01731400  1
  S  S7  1  0.34612500  0.25000000  0.51731400  1
  S  S8  1  0.60677200  0.50703100  0.12082900  1
  S  S9  1  0.89322800  0.99296900  0.62082900  1
  S  S10  1  0.39322800  0.00703100  0.87917100  1
  S  S11  1  0.10677200  0.49296900  0.37917100  1
  S  S12  1  0.39322800  0.49296900  0.87917100  1
  S  S13  1  0.10677200  0.00703100  0.37917100  1
  S  S14  1  0.60677200  0.99296900  0.12082900  1
  S  S15  1  0.89322800  0.50703100  0.62082900  1
loop_
_geom_bond_atom_site_label_1
_geom_bond_atom_site_label_2
_geom_bond_distance
_geom_bond_site_symmetry_2
Rb0 S5 3.427000 1_555
Rb0 S3 3.497161 1_565
Rb0 S3 3.497161 1_555
Rb0 S14 3.512720 1_555
Rb0 S8 3.512720 1_555
Rb0 S13 3.593954 1_565
Rb0 S11 3.593954 1_555
Rb1 S4 3.427000 1_555
Rb1 S2 3.497161 1_555
Rb1 S2 3.497161 1_565
Rb1 S15 3.512720 1_555
Rb1 S9 3.512720 1_555
Rb1 S10 3.593954 1_665
Rb1 S12 3.593954 1_655
Rb2 S7 3.427000 1_555
Rb2 S1 3.497161 1_555
Rb2 S1 3.497161 1_545
Rb2 S12 3.512720 1_555
Rb2 S10 3.512720 1_555
Rb2 S9 3.593954 1_545
Rb2 S15 3.593954 1_555
Rb3 S6 3.427000 1_555
Rb3 S0 3.497161 1_555
Rb3 S0 3.497161 1_545
Rb3 S13 3.512720 1_555
Rb3 S11 3.512720 1_555
Rb3 S14 3.593954 1_445
Rb3 S8 3.593954 1_455
P0 S0 2.041414 1_655
P0 S8 2.049260 1_555
P0 S14 2.049260 1_555
P0 S4 2.067713 1_554
P1 S1 2.041414 1_555
P1 S9 2.049260 1_555
P1 S15 2.049260 1_555
P1 S5 2.067713 1_555
P2 S2 2.041414 1_455
P2 S10 2.049260 1_555
P2 S12 2.049260 1_555
P2 S6 2.067713 1_556
P3 S3 2.041414 1_555
P3 S13 2.049260 1_555
P3 S11 2.049260 1_555
P3 S7 2.067713 1_555
Pb0 S4 2.948328 1_454
Pb0 S0 2.962079 1_555
Pb0 S10 3.092988 1_564
Pb0 S12 3.092988 1_554
Pb0 S14 3.210210 1_555
Pb0 S8 3.210210 1_555
Pb1 S5 2.948328 1_555
Pb1 S1 2.962079 1_555
Pb1 S13 3.092988 1_565
Pb1 S11 3.092988 1_555
Pb1 S15 3.210210 1_455
Pb1 S9 3.210210 1_455
Pb2 S6 2.948328 1_656
Pb2 S2 2.962079 1_555
Pb2 S8 3.092988 1_556
Pb2 S14 3.092988 1_546
Pb2 S10 3.210210 1_555
Pb2 S12 3.210210 1_555
Pb3 S7 2.948328 1_555
Pb3 S3 2.962079 1_555
Pb3 S9 3.092988 1_545
Pb3 S15 3.092988 1_555
Pb3 S13 3.210210 1_655
Pb3 S11 3.210210 1_655
