# generated using pymatgen
data_Rb7Th6F32
_symmetry_space_group_name_H-M   'P 1'
_cell_length_a   9.79314500
_cell_length_b   9.79627724
_cell_length_c   9.79813654
_cell_angle_alpha   106.62463988
_cell_angle_beta   106.66478519
_cell_angle_gamma   106.59323514
_symmetry_Int_Tables_number   1
_chemical_formula_structural   Rb7Th6F32
_chemical_formula_sum   'Rb7 Th6 F32'
_cell_volume   790.65751649
_cell_formula_units_Z   1
loop_
 _symmetry_equiv_pos_site_id
 _symmetry_equiv_pos_as_xyz
  1  'x, y, z'
loop_
 _atom_site_type_symbol
 _atom_site_label
 _atom_site_symmetry_multiplicity
 _atom_site_fract_x
 _atom_site_fract_y
 _atom_site_fract_z
 _atom_site_occupancy
  Rb  Rb0  1  0.68353500  0.21677400  0.07693000  1
  Rb  Rb1  1  0.07737300  0.68249300  0.21734200  1
  Rb  Rb2  1  0.21768300  0.07727800  0.68307400  1
  Rb  Rb3  1  0.31646500  0.78322600  0.92307000  1
  Rb  Rb4  1  0.92262700  0.31750700  0.78265800  1
  Rb  Rb5  1  0.78231700  0.92272200  0.31692600  1
  Rb  Rb6  1  0.00000000  0.00000000  0.00000000  1
  Th  Th0  1  0.54189800  0.86085300  0.61884300  1
  Th  Th1  1  0.61942200  0.54135800  0.86071100  1
  Th  Th2  1  0.86152500  0.61936200  0.54245600  1
  Th  Th3  1  0.45810200  0.13914700  0.38115700  1
  Th  Th4  1  0.38057800  0.45864200  0.13928900  1
  Th  Th5  1  0.13847500  0.38063800  0.45754400  1
  F  F0  1  0.44578100  0.97102400  0.78110900  1
  F  F1  1  0.78202900  0.44607800  0.97244100  1
  F  F2  1  0.97344300  0.78146400  0.44700000  1
  F  F3  1  0.55421900  0.02897600  0.21889100  1
  F  F4  1  0.21797100  0.55392200  0.02755900  1
  F  F5  1  0.02655700  0.21853600  0.55300000  1
  F  F6  1  0.75418700  0.05535000  0.82008600  1
  F  F7  1  0.82331300  0.75277400  0.05426300  1
  F  F8  1  0.05448100  0.82274000  0.75439100  1
  F  F9  1  0.24581300  0.94465000  0.17991400  1
  F  F10  1  0.17668700  0.24722600  0.94573700  1
  F  F11  1  0.94551900  0.17726000  0.24560900  1
  F  F12  1  0.64151500  0.05483800  0.52294100  1
  F  F13  1  0.52413400  0.64040100  0.05420900  1
  F  F14  1  0.05621400  0.52510000  0.64194900  1
  F  F15  1  0.35848500  0.94516200  0.47705900  1
  F  F16  1  0.47586600  0.35959900  0.94579100  1
  F  F17  1  0.94378600  0.47490000  0.35805100  1
  F  F18  1  0.70008700  0.34844300  0.45798500  1
  F  F19  1  0.45781900  0.70164800  0.34638400  1
  F  F20  1  0.34721500  0.45861900  0.70246500  1
  F  F21  1  0.29991300  0.65155700  0.54201500  1
  F  F22  1  0.54218100  0.29835200  0.65361600  1
  F  F23  1  0.65278500  0.54138100  0.29753500  1
  F  F24  1  0.17360700  0.41509900  0.23276500  1
  F  F25  1  0.23379100  0.17473300  0.41490200  1
  F  F26  1  0.41382600  0.23250200  0.17341700  1
  F  F27  1  0.82639300  0.58490100  0.76723500  1
  F  F28  1  0.76620900  0.82526700  0.58509800  1
  F  F29  1  0.58617400  0.76749800  0.82658300  1
  F  F30  1  0.41204100  0.41130000  0.40953600  1
  F  F31  1  0.58795900  0.58870000  0.59046400  1
loop_
_geom_bond_atom_site_label_1
_geom_bond_atom_site_label_2
_geom_bond_distance
_geom_bond_site_symmetry_2
F0 Th0 2.243958 1_555
F0 Rb2 2.768655 1_565
F0 Rb3 2.840243 1_555
F0 Rb0 2.924600 1_566
F1 Th1 2.244836 1_555
F1 Rb0 2.769354 1_556
F1 Rb4 2.838816 1_555
F1 Rb1 2.915635 1_656
F2 Th2 2.245328 1_555
F2 Rb1 2.769161 1_655
F2 Rb5 2.857075 1_555
F2 Rb2 2.915750 1_665
F3 Th3 2.243958 1_555
F3 Rb5 2.768655 1_545
F3 Rb0 2.840243 1_555
F3 Rb3 2.924600 1_544
F4 Th4 2.244836 1_555
F4 Rb3 2.769354 1_554
F4 Rb1 2.838816 1_555
F4 Rb4 2.915635 1_454
F5 Th5 2.245328 1_555
F5 Rb4 2.769161 1_455
F5 Rb2 2.857075 1_555
F5 Rb5 2.915750 1_445
F6 Th0 2.253262 1_545
F6 Rb4 2.813763 1_555
F6 Rb6 2.838153 1_656
F6 Rb0 2.942636 1_556
F7 Th1 2.256469 1_554
F7 Rb6 2.830762 1_665
F7 Rb5 2.842370 1_555
F7 Rb1 2.923233 1_655
F8 Th2 2.254806 1_455
F8 Rb3 2.822271 1_555
F8 Rb6 2.822369 1_566
F8 Rb2 2.936279 1_565
F9 Th3 2.253262 1_565
F9 Rb1 2.813763 1_555
F9 Rb6 2.838153 1_565
F9 Rb3 2.942636 1_554
F10 Th4 2.256469 1_556
F10 Rb6 2.830762 1_556
F10 Rb2 2.842370 1_555
F10 Rb4 2.923233 1_455
F11 Th5 2.254806 1_655
F11 Rb0 2.822271 1_555
F11 Rb6 2.822369 1_655
F11 Rb5 2.936279 1_545
F12 Th3 2.431261 1_555
F12 Th0 2.436107 1_545
F12 Rb5 2.961725 1_545
F12 Rb4 2.977417 1_555
F13 Th1 2.426103 1_554
F13 Th4 2.435892 1_555
F13 Rb5 2.977858 1_555
F13 Rb3 2.983262 1_554
F14 Th2 2.427519 1_455
F14 Th5 2.437053 1_555
F14 Rb3 2.963815 1_555
F14 Rb4 2.977782 1_455
F15 Th0 2.431261 1_555
F15 Th3 2.436107 1_565
F15 Rb2 2.961725 1_565
F15 Rb1 2.977417 1_555
F16 Th4 2.426103 1_556
F16 Th1 2.435892 1_555
F16 Rb2 2.977858 1_555
F16 Rb0 2.983262 1_556
F17 Th5 2.427519 1_655
F17 Th2 2.437053 1_555
F17 Rb0 2.963815 1_555
F17 Rb1 2.977782 1_655
F18 Th3 2.388510 1_555
F18 Th2 2.413367 1_555
F19 Th4 2.384077 1_555
F19 Th0 2.420854 1_555
F20 Th5 2.401415 1_555
F20 Th1 2.417340 1_555
F21 Th0 2.388510 1_555
F21 Th5 2.413367 1_555
F22 Th1 2.384077 1_555
F22 Th3 2.420854 1_555
F23 Th2 2.401415 1_555
F23 Th4 2.417340 1_555
F24 Th5 2.424185 1_555
F24 Th4 2.433843 1_555
F24 Rb1 3.054083 1_555
F25 Th3 2.417517 1_555
F25 Th5 2.435452 1_555
F25 Rb2 3.070447 1_555
F26 Th4 2.428772 1_555
F26 Th3 2.439863 1_555
F26 Rb0 3.078187 1_555
F27 Th2 2.424185 1_555
F27 Th1 2.433843 1_555
F27 Rb4 3.054083 1_555
F28 Th0 2.417517 1_555
F28 Th2 2.435452 1_555
F28 Rb5 3.070447 1_555
F29 Th1 2.428772 1_555
F29 Th0 2.439863 1_555
F29 Rb3 3.078187 1_555
F30 Th4 2.763666 1_555
F30 Th3 2.779107 1_555
F30 Th5 2.798737 1_555
F31 Th1 2.763666 1_555
F31 Th0 2.779107 1_555
F31 Th2 2.798737 1_555
