# generated using pymatgen
data_Xe
_symmetry_space_group_name_H-M   'P 1'
_cell_length_a   4.62534400
_cell_length_b   7.58758800
_cell_length_c   9.04365592
_cell_angle_alpha   65.19711277
_cell_angle_beta   90.00000000
_cell_angle_gamma   90.00000000
_symmetry_Int_Tables_number   1
_chemical_formula_structural   Xe
_chemical_formula_sum   Xe4
_cell_volume   288.11183632
_cell_formula_units_Z   4
loop_
 _symmetry_equiv_pos_site_id
 _symmetry_equiv_pos_as_xyz
  1  'x, y, z'
loop_
 _atom_site_type_symbol
 _atom_site_label
 _atom_site_symmetry_multiplicity
 _atom_site_fract_x
 _atom_site_fract_y
 _atom_site_fract_z
 _atom_site_occupancy
  Xe  Xe0  1  0.98881298  0.36532002  0.26939384  1
  Xe  Xe1  1  0.51118802  0.86531999  0.26939383  1
  Xe  Xe2  1  0.48881298  0.13468001  0.73060617  1
  Xe  Xe3  1  0.01118802  0.63467998  0.73060616  1
loop_
_geom_bond_atom_site_label_1
_geom_bond_atom_site_label_2
_geom_bond_distance
_geom_bond_site_symmetry_2
