# generated using pymatgen
data_Nb5Si3B
_symmetry_space_group_name_H-M   'P 1'
_cell_length_a   7.65332748
_cell_length_b   7.65332748
_cell_length_c   5.29665890
_cell_angle_alpha   90.00000000
_cell_angle_beta   90.00000000
_cell_angle_gamma   120.00000885
_symmetry_Int_Tables_number   1
_chemical_formula_structural   Nb5Si3B
_chemical_formula_sum   'Nb10 Si6 B2'
_cell_volume   268.67867183
_cell_formula_units_Z   2
loop_
 _symmetry_equiv_pos_site_id
 _symmetry_equiv_pos_as_xyz
  1  'x, y, z'
loop_
 _atom_site_type_symbol
 _atom_site_label
 _atom_site_symmetry_multiplicity
 _atom_site_fract_x
 _atom_site_fract_y
 _atom_site_fract_z
 _atom_site_occupancy
  Nb  Nb0  1  0.66666700  0.33333300  0.50000000  1
  Nb  Nb1  1  0.33333300  0.66666700  0.50000000  1
  Nb  Nb2  1  0.33333300  0.66666700  -0.00000000  1
  Nb  Nb3  1  0.66666700  0.33333300  -0.00000000  1
  Nb  Nb4  1  0.75268907  0.75268907  0.25000000  1
  Nb  Nb5  1  0.24731093  1.00000000  0.25000000  1
  Nb  Nb6  1  1.00000000  0.24731093  0.25000000  1
  Nb  Nb7  1  0.24731093  0.24731093  0.75000000  1
  Nb  Nb8  1  0.75268907  0.00000000  0.75000000  1
  Nb  Nb9  1  0.00000000  0.75268907  0.75000000  1
  Si  Si0  1  0.40181509  0.40181509  0.25000000  1
  Si  Si1  1  0.59818491  0.00000000  0.25000000  1
  Si  Si2  1  0.00000000  0.59818491  0.25000000  1
  Si  Si3  1  0.59818491  0.59818491  0.75000000  1
  Si  Si4  1  0.40181509  1.00000000  0.75000000  1
  Si  Si5  1  1.00000000  0.40181509  0.75000000  1
  B  B0  1  -0.00000000  -0.00000000  0.50000000  1
  B  B1  1  -0.00000000  -0.00000000  -0.00000000  1
loop_
_geom_bond_atom_site_label_1
_geom_bond_atom_site_label_2
_geom_bond_distance
_geom_bond_site_symmetry_2
Nb0 Nb3 2.648329 1_555
Nb0 Nb3 2.648329 1_556
Nb0 Si1 2.683129 1_555
Nb0 Si5 2.683129 1_555
Nb0 Si4 2.683130 1_545
Nb0 Si2 2.683130 1_655
Nb0 Si0 2.683135 1_555
Nb0 Si3 2.683135 1_555
Nb1 Nb2 2.648329 1_555
Nb1 Nb2 2.648329 1_556
Nb1 Si2 2.683129 1_555
Nb1 Si4 2.683129 1_555
Nb1 Si1 2.683130 1_565
Nb1 Si5 2.683130 1_455
Nb1 Si3 2.683135 1_555
Nb1 Si0 2.683135 1_555
Nb2 Si2 2.683129 1_555
Nb2 Si4 2.683129 1_554
Nb2 Si1 2.683130 1_565
Nb2 Si5 2.683130 1_454
Nb2 Si3 2.683135 1_554
Nb2 Si0 2.683135 1_555
Nb3 Si5 2.683129 1_554
Nb3 Si1 2.683129 1_555
Nb3 Si4 2.683130 1_544
Nb3 Si2 2.683130 1_655
Nb3 Si3 2.683135 1_554
Nb3 Si0 2.683135 1_555
Nb4 Si0 2.685353 1_555
Nb4 Si2 2.686796 1_655
Nb4 Si1 2.686796 1_565
Nb4 Si3 2.900325 1_554
Nb4 Si3 2.900325 1_555
Nb5 Si1 2.685353 1_565
Nb5 Si2 2.686795 1_555
Nb5 Si0 2.686795 1_565
Nb5 Si4 2.900325 1_555
Nb5 Si4 2.900325 1_554
Nb6 Si2 2.685353 1_655
Nb6 Si1 2.686795 1_555
Nb6 Si0 2.686795 1_655
Nb6 Si5 2.900325 1_554
Nb6 Si5 2.900325 1_555
Nb7 Si3 2.685353 1_555
Nb7 Si5 2.686796 1_455
Nb7 Si4 2.686796 1_545
Nb7 Si0 2.900325 1_556
Nb7 Si0 2.900325 1_555
Nb8 Si4 2.685353 1_545
Nb8 Si5 2.686795 1_555
Nb8 Si3 2.686795 1_545
Nb8 Si1 2.900325 1_555
Nb8 Si1 2.900325 1_556
Nb9 Si5 2.685353 1_455
Nb9 Si4 2.686795 1_555
Nb9 Si3 2.686795 1_455
Nb9 Si2 2.900325 1_555
Nb9 Si2 2.900325 1_556
B0 Nb7 2.309961 1_555
B0 Nb4 2.309961 1_445
B0 Nb5 2.309961 1_545
B0 Nb6 2.309961 1_455
B0 Nb9 2.309961 1_545
B0 Nb8 2.309961 1_455
B1 Nb7 2.309961 1_554
B1 Nb4 2.309961 1_445
B1 Nb5 2.309961 1_545
B1 Nb6 2.309961 1_455
B1 Nb9 2.309961 1_544
B1 Nb8 2.309961 1_454
