# generated using pymatgen
data_Mg2Bi
_symmetry_space_group_name_H-M   'P 1'
_cell_length_a   8.07568346
_cell_length_b   8.07568346
_cell_length_c   5.59516400
_cell_angle_alpha   90.00000000
_cell_angle_beta   90.00000000
_cell_angle_gamma   154.31702940
_symmetry_Int_Tables_number   1
_chemical_formula_structural   Mg2Bi
_chemical_formula_sum   'Mg4 Bi2'
_cell_volume   158.14356798
_cell_formula_units_Z   2
loop_
 _symmetry_equiv_pos_site_id
 _symmetry_equiv_pos_as_xyz
  1  'x, y, z'
loop_
 _atom_site_type_symbol
 _atom_site_label
 _atom_site_symmetry_multiplicity
 _atom_site_fract_x
 _atom_site_fract_y
 _atom_site_fract_z
 _atom_site_occupancy
  Mg  Mg0  1  0.60911200  0.39088800  0.25000000  1
  Mg  Mg1  1  0.94729400  0.05270600  0.25000000  1
  Mg  Mg2  1  0.05270600  0.94729400  0.75000000  1
  Mg  Mg3  1  0.39088800  0.60911200  0.75000000  1
  Bi  Bi0  1  0.28290800  0.71709200  0.25000000  1
  Bi  Bi1  1  0.71709200  0.28290800  0.75000000  1
loop_
_geom_bond_atom_site_label_1
_geom_bond_atom_site_label_2
_geom_bond_distance
_geom_bond_site_symmetry_2
Bi0 Mg1 3.150021 1_455
Bi0 Mg1 3.150021 1_565
Bi0 Mg0 3.272885 1_565
Bi0 Mg0 3.272885 1_455
Bi0 Mg3 3.273811 1_555
Bi0 Mg3 3.273811 1_554
Bi1 Mg2 3.150021 1_655
Bi1 Mg2 3.150021 1_545
Bi1 Mg3 3.272885 1_655
Bi1 Mg3 3.272885 1_545
Bi1 Mg0 3.273811 1_556
Bi1 Mg0 3.273811 1_555
