# generated using pymatgen
data_Pr3MnGaS7
_symmetry_space_group_name_H-M   'P 1'
_cell_length_a   10.15904521
_cell_length_b   10.15904521
_cell_length_c   6.06965100
_cell_angle_alpha   90.00000000
_cell_angle_beta   90.00000000
_cell_angle_gamma   119.99999484
_symmetry_Int_Tables_number   1
_chemical_formula_structural   Pr3MnGaS7
_chemical_formula_sum   'Pr6 Mn2 Ga2 S14'
_cell_volume   542.50052199
_cell_formula_units_Z   2
loop_
 _symmetry_equiv_pos_site_id
 _symmetry_equiv_pos_as_xyz
  1  'x, y, z'
loop_
 _atom_site_type_symbol
 _atom_site_label
 _atom_site_symmetry_multiplicity
 _atom_site_fract_x
 _atom_site_fract_y
 _atom_site_fract_z
 _atom_site_occupancy
  Pr  Pr0  1  0.62534500  0.85978100  0.25089600  1
  Pr  Pr1  1  0.14021900  0.76556400  0.25089600  1
  Pr  Pr2  1  0.23443600  0.37465500  0.25089600  1
  Pr  Pr3  1  0.37465500  0.14021900  0.75089600  1
  Pr  Pr4  1  0.85978100  0.23443600  0.75089600  1
  Pr  Pr5  1  0.76556400  0.62534500  0.75089600  1
  Mn  Mn0  1  0.00000000  0.00000000  0.47611100  1
  Mn  Mn1  1  0.00000000  0.00000000  0.97611100  1
  Ga  Ga0  1  0.33333300  0.66666700  0.82918800  1
  Ga  Ga1  1  0.66666700  0.33333300  0.32918800  1
  S  S0  1  0.76311300  0.91054500  0.71646200  1
  S  S1  1  0.08945500  0.85256800  0.71646200  1
  S  S2  1  0.14743200  0.23688700  0.71646200  1
  S  S3  1  0.23688700  0.08945500  0.21646200  1
  S  S4  1  0.91054500  0.14743200  0.21646200  1
  S  S5  1  0.85256800  0.76311300  0.21646200  1
  S  S6  1  0.48321200  0.58048000  0.98185600  1
  S  S7  1  0.41952000  0.90273200  0.98185600  1
  S  S8  1  0.09726800  0.51678800  0.98185600  1
  S  S9  1  0.51678800  0.41952000  0.48185600  1
  S  S10  1  0.58048000  0.09726800  0.48185600  1
  S  S11  1  0.90273200  0.48321200  0.48185600  1
  S  S12  1  0.33333300  0.66666700  0.45902000  1
  S  S13  1  0.66666700  0.33333300  0.95902000  1
loop_
_geom_bond_atom_site_label_1
_geom_bond_atom_site_label_2
_geom_bond_distance
_geom_bond_site_symmetry_2
Pr0 S7 2.853352 1_554
Pr0 S12 2.902616 1_555
Pr0 S4 2.917386 1_565
Pr0 S5 2.933193 1_555
Pr0 S6 2.950512 1_554
Pr0 S10 3.015526 1_565
Pr0 S0 3.080309 1_555
Pr0 S0 3.467773 1_554
Pr1 S8 2.853352 1_554
Pr1 S12 2.902609 1_555
Pr1 S5 2.917386 1_455
Pr1 S3 2.933193 1_565
Pr1 S7 2.950512 1_554
Pr1 S11 3.015526 1_455
Pr1 S1 3.080309 1_555
Pr1 S1 3.467773 1_554
Pr2 S6 2.853352 1_554
Pr2 S12 2.902618 1_555
Pr2 S3 2.917386 1_555
Pr2 S4 2.933194 1_455
Pr2 S8 2.950512 1_554
Pr2 S9 3.015526 1_555
Pr2 S2 3.080309 1_555
Pr2 S2 3.467773 1_554
Pr3 S10 2.853352 1_555
Pr3 S13 2.902616 1_555
Pr3 S1 2.917386 1_545
Pr3 S2 2.933193 1_555
Pr3 S9 2.950512 1_555
Pr3 S7 3.015526 1_545
Pr3 S3 3.080309 1_556
Pr3 S3 3.467773 1_555
Pr4 S11 2.853352 1_555
Pr4 S13 2.902609 1_555
Pr4 S2 2.917386 1_655
Pr4 S0 2.933193 1_545
Pr4 S10 2.950512 1_555
Pr4 S8 3.015526 1_655
Pr4 S4 3.080309 1_556
Pr4 S4 3.467773 1_555
Pr5 S9 2.853352 1_555
Pr5 S13 2.902618 1_555
Pr5 S0 2.917386 1_555
Pr5 S1 2.933194 1_655
Pr5 S11 2.950512 1_555
Pr5 S6 3.015526 1_555
Pr5 S5 3.080309 1_556
Pr5 S5 3.467773 1_555
Mn0 S1 2.560968 1_545
Mn0 S0 2.560968 1_445
Mn0 S2 2.560968 1_555
Mn0 S4 2.629455 1_455
Mn0 S3 2.629455 1_555
Mn0 S5 2.629455 1_445
Mn1 S4 2.560968 1_456
Mn1 S3 2.560968 1_556
Mn1 S5 2.560968 1_446
Mn1 S1 2.629455 1_545
Mn1 S0 2.629455 1_445
Mn1 S2 2.629455 1_555
Ga0 S12 2.246791 1_555
Ga0 S7 2.297136 1_555
Ga0 S8 2.297138 1_555
Ga0 S6 2.297145 1_555
Ga1 S13 2.246791 1_554
Ga1 S10 2.297136 1_555
Ga1 S11 2.297138 1_555
Ga1 S9 2.297145 1_555
