# generated using pymatgen
data_Sm3Ti3(SeO4)2
_symmetry_space_group_name_H-M   'P 1'
_cell_length_a   3.87765117
_cell_length_b   9.81868263
_cell_length_c   13.42587882
_cell_angle_alpha   68.85445564
_cell_angle_beta   90.00000000
_cell_angle_gamma   90.00000000
_symmetry_Int_Tables_number   1
_chemical_formula_structural   Sm3Ti3(SeO4)2
_chemical_formula_sum   'Sm6 Ti6 Se4 O16'
_cell_volume   476.75069013
_cell_formula_units_Z   2
loop_
 _symmetry_equiv_pos_site_id
 _symmetry_equiv_pos_as_xyz
  1  'x, y, z'
loop_
 _atom_site_type_symbol
 _atom_site_label
 _atom_site_symmetry_multiplicity
 _atom_site_fract_x
 _atom_site_fract_y
 _atom_site_fract_z
 _atom_site_occupancy
  Sm  Sm0  1  0.25000000  0.41599935  0.91547497  1
  Sm  Sm1  1  0.75000000  0.58400065  0.08452503  1
  Sm  Sm2  1  0.75000000  0.40961467  0.41082025  1
  Sm  Sm3  1  0.25000000  0.59038533  0.58917975  1
  Sm  Sm4  1  0.25000000  0.94987629  0.16163461  1
  Sm  Sm5  1  0.75000000  0.05012371  0.83836539  1
  Ti  Ti0  1  0.25000000  0.18985933  0.60031669  1
  Ti  Ti1  1  0.75000000  0.68469862  0.76944764  1
  Ti  Ti2  1  0.25000000  0.04809259  0.40788970  1
  Ti  Ti3  1  0.75000000  0.95190741  0.59211030  1
  Ti  Ti4  1  0.75000000  0.81014067  0.39968331  1
  Ti  Ti5  1  0.25000000  0.31530138  0.23055236  1
  Se  Se0  1  0.25000000  0.60985049  0.25402994  1
  Se  Se1  1  0.75000000  0.39014951  0.74597006  1
  Se  Se2  1  0.25000000  0.83681834  0.98218445  1
  Se  Se3  1  0.75000000  0.16318166  0.01781555  1
  O  O0  1  0.25000000  0.38976506  0.52997576  1
  O  O1  1  0.75000000  0.61023494  0.47002424  1
  O  O2  1  0.75000000  0.17613184  0.57150409  1
  O  O3  1  0.25000000  0.82386816  0.42849591  1
  O  O4  1  0.25000000  0.25263430  0.39171978  1
  O  O5  1  0.75000000  0.74736570  0.60828022  1
  O  O6  1  0.25000000  0.12125787  0.24929223  1
  O  O7  1  0.75000000  0.87874213  0.75070777  1
  O  O8  1  0.25000000  0.44225921  0.08361434  1
  O  O9  1  0.75000000  0.55774079  0.91638566  1
  O  O10  1  0.25000000  0.64205807  0.76275302  1
  O  O11  1  0.25000000  -0.00070596  0.57394326  1
  O  O12  1  0.25000000  0.12103733  0.74347343  1
  O  O13  1  0.75000000  0.87896267  0.25652657  1
  O  O14  1  0.75000000  0.35794193  0.23724698  1
  O  O15  1  0.75000000  0.00070596  0.42605674  1
loop_
_geom_bond_atom_site_label_1
_geom_bond_atom_site_label_2
_geom_bond_distance
_geom_bond_site_symmetry_2
Se0 Sm2 3.011595 1_455
Se0 Sm2 3.011595 1_555
Se0 Ti5 3.020134 1_555
Se0 Sm1 3.069079 1_555
Se0 Sm1 3.069079 1_455
Se0 Sm4 3.114017 1_555
Se1 Sm3 3.011595 1_555
Se1 Sm3 3.011595 1_655
Se1 Ti1 3.020134 1_555
Se1 Sm0 3.069079 1_655
Se1 Sm0 3.069079 1_555
Se1 Sm5 3.114017 1_555
Se2 Sm5 2.992684 1_565
Se2 Sm5 2.992684 1_465
Se2 Sm4 2.994407 1_556
Se2 Sm1 3.057477 1_556
Se2 Sm1 3.057477 1_456
Se3 Sm4 2.992684 1_545
Se3 Sm4 2.992684 1_645
Se3 Sm5 2.994407 1_554
Se3 Sm0 3.057477 1_554
Se3 Sm0 3.057477 1_654
O0 Ti0 1.845840 1_555
O0 Sm3 2.375222 1_555
O0 Sm2 2.476154 1_555
O0 Sm2 2.476154 1_455
O1 Ti4 1.845840 1_555
O1 Sm2 2.375222 1_555
O1 Sm3 2.476154 1_655
O1 Sm3 2.476154 1_555
O2 Ti0 1.991098 1_555
O2 Ti0 1.991098 1_655
O2 Ti3 2.117567 1_545
O2 Sm2 2.518213 1_555
O3 Ti4 1.991098 1_555
O3 Ti4 1.991098 1_455
O3 Ti2 2.117567 1_565
O3 Sm3 2.518213 1_555
O4 Ti2 1.940607 1_555
O4 Ti5 2.024874 1_555
O4 Sm2 2.546706 1_455
O4 Sm2 2.546706 1_555
O4 Ti0 2.641560 1_555
O5 Ti3 1.940607 1_555
O5 Ti1 2.024874 1_555
O5 Sm3 2.546706 1_555
O5 Sm3 2.546706 1_655
O5 Ti4 2.641560 1_555
O6 Ti5 1.829601 1_555
O6 Ti2 1.986560 1_555
O6 Sm4 2.376019 1_545
O7 Ti1 1.829601 1_555
O7 Ti3 1.986560 1_555
O7 Sm5 2.376019 1_565
O8 Ti5 1.916116 1_555
O8 Sm0 2.362700 1_554
O8 Sm1 2.389213 1_555
O8 Sm1 2.389213 1_455
O9 Ti1 1.916116 1_555
O9 Sm1 2.362700 1_556
O9 Sm0 2.389213 1_655
O9 Sm0 2.389213 1_555
O10 Ti1 1.992376 1_555
O10 Ti1 1.992376 1_455
O10 Sm0 2.418127 1_555
O10 Sm3 2.557554 1_555
O11 Ti3 1.988250 1_445
O11 Ti3 1.988250 1_545
O11 Ti0 2.025930 1_555
O11 Ti2 2.104563 1_555
O12 Ti0 1.792677 1_555
O12 Sm5 2.286252 1_555
O12 Sm5 2.286252 1_455
O13 Ti4 1.792677 1_555
O13 Sm4 2.286252 1_655
O13 Sm4 2.286252 1_555
O14 Ti5 1.992376 1_555
O14 Ti5 1.992376 1_655
O14 Sm1 2.418127 1_555
O14 Sm2 2.557554 1_555
O15 Ti2 1.988250 1_555
O15 Ti2 1.988250 1_655
O15 Ti4 2.025930 1_545
O15 Ti3 2.104563 1_545
