# generated using pymatgen
data_Dy2AlGe3
_symmetry_space_group_name_H-M   'P 1'
_cell_length_a   4.19843100
_cell_length_b   6.84351700
_cell_length_c   17.76075800
_cell_angle_alpha   90.00000000
_cell_angle_beta   90.00000000
_cell_angle_gamma   90.00000000
_symmetry_Int_Tables_number   1
_chemical_formula_structural   Dy2AlGe3
_chemical_formula_sum   'Dy8 Al4 Ge12'
_cell_volume   510.30270133
_cell_formula_units_Z   4
loop_
 _symmetry_equiv_pos_site_id
 _symmetry_equiv_pos_as_xyz
  1  'x, y, z'
loop_
 _atom_site_type_symbol
 _atom_site_label
 _atom_site_symmetry_multiplicity
 _atom_site_fract_x
 _atom_site_fract_y
 _atom_site_fract_z
 _atom_site_occupancy
  Dy  Dy0  1  0.25000000  0.66720600  0.70273300  1
  Dy  Dy1  1  0.75000000  0.33279400  0.29726700  1
  Dy  Dy2  1  0.75000000  0.83279400  0.20273300  1
  Dy  Dy3  1  0.25000000  0.16720600  0.79726700  1
  Dy  Dy4  1  0.25000000  0.66730100  0.91496100  1
  Dy  Dy5  1  0.75000000  0.33269900  0.08503900  1
  Dy  Dy6  1  0.75000000  0.83269900  0.41496100  1
  Dy  Dy7  1  0.25000000  0.16730100  0.58503900  1
  Al  Al0  1  0.25000000  0.95009600  0.06458400  1
  Al  Al1  1  0.75000000  0.04990400  0.93541600  1
  Al  Al2  1  0.75000000  0.54990400  0.56458400  1
  Al  Al3  1  0.25000000  0.45009600  0.43541600  1
  Ge  Ge0  1  0.25000000  0.74883500  0.53434800  1
  Ge  Ge1  1  0.75000000  0.25116500  0.46565200  1
  Ge  Ge2  1  0.75000000  0.75116500  0.03434800  1
  Ge  Ge3  1  0.25000000  0.24883500  0.96565200  1
  Ge  Ge4  1  0.25000000  0.53403200  0.17334700  1
  Ge  Ge5  1  0.75000000  0.46596800  0.82665300  1
  Ge  Ge6  1  0.75000000  0.96596800  0.67334700  1
  Ge  Ge7  1  0.25000000  0.03403200  0.32665300  1
  Ge  Ge8  1  0.25000000  0.64568500  0.31190400  1
  Ge  Ge9  1  0.75000000  0.35431500  0.68809600  1
  Ge  Ge10  1  0.75000000  0.85431500  0.81190400  1
  Ge  Ge11  1  0.25000000  0.14568500  0.18809600  1
loop_
_geom_bond_atom_site_label_1
_geom_bond_atom_site_label_2
_geom_bond_distance
_geom_bond_site_symmetry_2
Dy0 Ge6 2.976478 1_455
Dy0 Ge6 2.976478 1_555
Dy0 Ge9 3.009875 1_455
Dy0 Ge9 3.009875 1_555
Dy0 Ge0 3.042372 1_555
Dy0 Ge10 3.131439 1_455
Dy0 Ge10 3.131439 1_555
Dy0 Ge5 3.338763 1_455
Dy0 Ge5 3.338763 1_555
Dy1 Ge7 2.976478 1_655
Dy1 Ge7 2.976478 1_555
Dy1 Ge8 3.009875 1_655
Dy1 Ge8 3.009875 1_555
Dy1 Ge1 3.042372 1_555
Dy1 Ge11 3.131439 1_655
Dy1 Ge11 3.131439 1_555
Dy1 Ge4 3.338763 1_655
Dy1 Ge4 3.338763 1_555
Dy2 Ge4 2.976478 1_555
Dy2 Ge4 2.976478 1_655
Dy2 Ge11 3.009875 1_665
Dy2 Ge11 3.009875 1_565
Dy2 Ge2 3.042372 1_555
Dy2 Ge8 3.131439 1_655
Dy2 Ge8 3.131439 1_555
Dy2 Ge7 3.338763 1_565
Dy2 Ge7 3.338763 1_665
Dy3 Ge5 2.976478 1_455
Dy3 Ge5 2.976478 1_555
Dy3 Ge10 3.009875 1_445
Dy3 Ge10 3.009875 1_545
Dy3 Ge3 3.042372 1_555
Dy3 Ge9 3.131439 1_455
Dy3 Ge9 3.131439 1_555
Dy3 Ge6 3.338763 1_445
Dy3 Ge6 3.338763 1_545
Dy4 Ge5 2.960581 1_555
Dy4 Ge5 2.960581 1_455
Dy4 Ge3 3.001964 1_555
Dy4 Ge2 3.038455 1_556
Dy4 Ge2 3.038455 1_456
Dy4 Ge10 3.065116 1_555
Dy4 Ge10 3.065116 1_455
Dy5 Ge4 2.960581 1_655
Dy5 Ge4 2.960581 1_555
Dy5 Ge2 3.001964 1_555
Dy5 Ge3 3.038455 1_654
Dy5 Ge3 3.038455 1_554
Dy5 Ge11 3.065116 1_555
Dy5 Ge11 3.065116 1_655
Dy6 Ge7 2.960581 1_565
Dy6 Ge7 2.960581 1_665
Dy6 Ge1 3.001964 1_565
Dy6 Ge0 3.038455 1_555
Dy6 Ge0 3.038455 1_655
Dy6 Ge8 3.065116 1_655
Dy6 Ge8 3.065116 1_555
Dy7 Ge6 2.960581 1_545
Dy7 Ge6 2.960581 1_445
Dy7 Ge0 3.001964 1_545
Dy7 Ge1 3.038455 1_555
Dy7 Ge1 3.038455 1_455
Dy7 Ge9 3.065116 1_455
Dy7 Ge9 3.065116 1_555
Al0 Ge2 2.558997 1_455
Al0 Ge2 2.558997 1_555
Al0 Ge11 2.569786 1_565
Al0 Ge3 2.695756 1_564
Al0 Dy2 3.327376 1_455
Al0 Dy2 3.327376 1_555
Al1 Ge3 2.558997 1_555
Al1 Ge3 2.558997 1_655
Al1 Ge10 2.569786 1_545
Al1 Ge2 2.695756 1_546
Al1 Dy3 3.327376 1_655
Al1 Dy3 3.327376 1_555
Al2 Ge0 2.558997 1_655
Al2 Ge0 2.558997 1_555
Al2 Ge9 2.569786 1_555
Al2 Ge1 2.695756 1_555
Al2 Dy0 3.327376 1_655
Al2 Dy0 3.327376 1_555
Al3 Ge1 2.558997 1_555
Al3 Ge1 2.558997 1_455
Al3 Ge8 2.569786 1_555
Al3 Ge0 2.695756 1_555
Al3 Dy1 3.327376 1_455
Al3 Dy1 3.327376 1_555
Ge4 Ge8 2.576774 1_555
Ge5 Ge9 2.576774 1_555
Ge6 Ge9 2.670538 1_565
Ge7 Ge8 2.670538 1_545
Ge10 Ge6 2.576774 1_555
Ge10 Ge5 2.670538 1_555
Ge11 Ge7 2.576774 1_555
Ge11 Ge4 2.670538 1_555
