# generated using pymatgen
data_Ho2Re3Si5
_symmetry_space_group_name_H-M   'P 1'
_cell_length_a   10.93749786
_cell_length_b   10.93749786
_cell_length_c   5.48822888
_cell_angle_alpha   90.00000000
_cell_angle_beta   90.00000000
_cell_angle_gamma   90.00000000
_symmetry_Int_Tables_number   1
_chemical_formula_structural   Ho2Re3Si5
_chemical_formula_sum   'Ho8 Re12 Si20'
_cell_volume   656.55056125
_cell_formula_units_Z   4
loop_
 _symmetry_equiv_pos_site_id
 _symmetry_equiv_pos_as_xyz
  1  'x, y, z'
loop_
 _atom_site_type_symbol
 _atom_site_label
 _atom_site_symmetry_multiplicity
 _atom_site_fract_x
 _atom_site_fract_y
 _atom_site_fract_z
 _atom_site_occupancy
  Ho  Ho0  1  0.57836797  0.73739292  0.50000000  1
  Ho  Ho1  1  0.42163203  0.26260708  0.50000000  1
  Ho  Ho2  1  0.07836797  0.76260708  -0.00000000  1
  Ho  Ho3  1  0.92163203  0.23739292  -0.00000000  1
  Ho  Ho4  1  0.26260708  0.57836797  0.50000000  1
  Ho  Ho5  1  0.73739292  0.42163203  0.50000000  1
  Ho  Ho6  1  0.23739292  0.07836797  -0.00000000  1
  Ho  Ho7  1  0.76260708  0.92163203  -0.00000000  1
  Re  Re0  1  0.87557114  0.85229081  0.50000000  1
  Re  Re1  1  0.12442886  0.14770919  0.50000000  1
  Re  Re2  1  0.37557114  0.64770919  -0.00000000  1
  Re  Re3  1  0.62442886  0.35229081  -0.00000000  1
  Re  Re4  1  0.14770919  0.87557114  0.50000000  1
  Re  Re5  1  0.85229081  0.12442886  0.50000000  1
  Re  Re6  1  0.35229081  0.37557114  -0.00000000  1
  Re  Re7  1  0.64770919  0.62442886  -0.00000000  1
  Re  Re8  1  0.50000000  -0.00000000  0.25000000  1
  Re  Re9  1  -0.00000000  0.50000000  0.75000000  1
  Re  Re10  1  -0.00000000  0.50000000  0.25000000  1
  Re  Re11  1  0.50000000  -0.00000000  0.75000000  1
  Si  Si0  1  0.67194679  0.17194679  0.25000000  1
  Si  Si1  1  0.32805321  0.82805321  0.25000000  1
  Si  Si2  1  0.17194679  0.32805321  0.75000000  1
  Si  Si3  1  0.82805321  0.67194679  0.75000000  1
  Si  Si4  1  0.82805321  0.67194679  0.25000000  1
  Si  Si5  1  0.17194679  0.32805321  0.25000000  1
  Si  Si6  1  0.67194679  0.17194679  0.75000000  1
  Si  Si7  1  0.32805321  0.82805321  0.75000000  1
  Si  Si8  1  0.50000000  0.50000000  0.25446202  1
  Si  Si9  1  -0.00000000  -0.00000000  0.75446202  1
  Si  Si10  1  0.50000000  0.50000000  0.74553798  1
  Si  Si11  1  -0.00000000  -0.00000000  0.24553798  1
  Si  Si12  1  0.68604645  0.97278699  0.50000000  1
  Si  Si13  1  0.31395355  0.02721301  0.50000000  1
  Si  Si14  1  0.18604645  0.52721301  -0.00000000  1
  Si  Si15  1  0.81395355  0.47278699  -0.00000000  1
  Si  Si16  1  0.02721301  0.68604645  0.50000000  1
  Si  Si17  1  0.97278699  0.31395355  0.50000000  1
  Si  Si18  1  0.47278699  0.18604645  -0.00000000  1
  Si  Si19  1  0.52721301  0.81395355  -0.00000000  1
loop_
_geom_bond_atom_site_label_1
_geom_bond_atom_site_label_2
_geom_bond_distance
_geom_bond_site_symmetry_2
Ho0 Si12 2.831207 1_555
Ho0 Si19 2.923084 1_556
Ho0 Si19 2.923084 1_555
Ho0 Si10 3.048340 1_555
Ho0 Si8 3.048340 1_555
Ho0 Re7 3.103536 1_555
Ho0 Re7 3.103536 1_556
Ho0 Si4 3.138937 1_555
Ho0 Si3 3.138937 1_555
Ho0 Si7 3.218920 1_555
Ho0 Si1 3.218920 1_555
Ho0 Re8 3.296536 1_565
Ho0 Re11 3.296536 1_565
Ho1 Si13 2.831207 1_555
Ho1 Si18 2.923084 1_556
Ho1 Si18 2.923084 1_555
Ho1 Si10 3.048340 1_555
Ho1 Si8 3.048340 1_555
Ho1 Re6 3.103536 1_556
Ho1 Re6 3.103536 1_555
Ho1 Si5 3.138937 1_555
Ho1 Si2 3.138937 1_555
Ho1 Si6 3.218920 1_555
Ho1 Si0 3.218920 1_555
Ho1 Re11 3.296536 1_555
Ho1 Re8 3.296536 1_555
Ho2 Si14 2.831207 1_555
Ho2 Si16 2.923084 1_555
Ho2 Si16 2.923084 1_554
Ho2 Si9 3.048340 1_564
Ho2 Si11 3.048340 1_565
Ho2 Re4 3.103536 1_555
Ho2 Re4 3.103536 1_554
Ho2 Si1 3.138937 1_555
Ho2 Si7 3.138937 1_554
Ho2 Si3 3.218920 1_454
Ho2 Si4 3.218920 1_455
Ho2 Re10 3.296536 1_555
Ho2 Re9 3.296536 1_554
Ho3 Si15 2.831207 1_555
Ho3 Si17 2.923084 1_554
Ho3 Si17 2.923084 1_555
Ho3 Si9 3.048340 1_654
Ho3 Si11 3.048340 1_655
Ho3 Re5 3.103536 1_554
Ho3 Re5 3.103536 1_555
Ho3 Si0 3.138937 1_555
Ho3 Si6 3.138937 1_554
Ho3 Si2 3.218920 1_654
Ho3 Si5 3.218920 1_655
Ho3 Re10 3.296536 1_655
Ho3 Re9 3.296536 1_654
Ho4 Si16 2.831207 1_555
Ho4 Si14 2.923084 1_555
Ho4 Si14 2.923084 1_556
Ho4 Si8 3.048340 1_555
Ho4 Si10 3.048340 1_555
Ho4 Re2 3.103536 1_556
Ho4 Re2 3.103536 1_555
Ho4 Si7 3.138937 1_555
Ho4 Si1 3.138937 1_555
Ho4 Si5 3.218920 1_555
Ho4 Si2 3.218920 1_555
Ho4 Re9 3.296536 1_555
Ho4 Re10 3.296536 1_555
Ho5 Si17 2.831207 1_555
Ho5 Si15 2.923084 1_556
Ho5 Si15 2.923084 1_555
Ho5 Si10 3.048340 1_555
Ho5 Si8 3.048340 1_555
Ho5 Re3 3.103536 1_555
Ho5 Re3 3.103536 1_556
Ho5 Si0 3.138937 1_555
Ho5 Si6 3.138937 1_555
Ho5 Si3 3.218920 1_555
Ho5 Si4 3.218920 1_555
Ho5 Re10 3.296536 1_655
Ho5 Re9 3.296536 1_655
Ho6 Si18 2.831207 1_555
Ho6 Si13 2.923084 1_555
Ho6 Si13 2.923084 1_554
Ho6 Si9 3.048340 1_554
Ho6 Si11 3.048340 1_555
Ho6 Re1 3.103536 1_554
Ho6 Re1 3.103536 1_555
Ho6 Si2 3.138937 1_554
Ho6 Si5 3.138937 1_555
Ho6 Si7 3.218920 1_544
Ho6 Si1 3.218920 1_545
Ho6 Re11 3.296536 1_554
Ho6 Re8 3.296536 1_555
Ho7 Si19 2.831207 1_555
Ho7 Si12 2.923084 1_554
Ho7 Si12 2.923084 1_555
Ho7 Si11 3.048340 1_665
Ho7 Si9 3.048340 1_664
Ho7 Re0 3.103536 1_555
Ho7 Re0 3.103536 1_554
Ho7 Si4 3.138937 1_555
Ho7 Si3 3.138937 1_554
Ho7 Si6 3.218920 1_564
Ho7 Si0 3.218920 1_565
Ho7 Re8 3.296536 1_565
Ho7 Re11 3.296536 1_564
Re0 Si12 2.456411 1_555
Re0 Si3 2.458345 1_555
Re0 Si4 2.458345 1_555
Re0 Si16 2.461118 1_655
Re0 Si9 2.532304 1_665
Re0 Si11 2.532304 1_665
Re1 Si13 2.456411 1_555
Re1 Si2 2.458345 1_555
Re1 Si5 2.458345 1_555
Re1 Si17 2.461118 1_455
Re1 Si9 2.532304 1_555
Re1 Si11 2.532304 1_555
Re2 Si14 2.456411 1_555
Re2 Si7 2.458345 1_554
Re2 Si1 2.458345 1_555
Re2 Si19 2.461118 1_555
Re2 Si8 2.532304 1_555
Re2 Si10 2.532304 1_554
Re3 Si15 2.456411 1_555
Re3 Si0 2.458345 1_555
Re3 Si6 2.458345 1_554
Re3 Si18 2.461118 1_555
Re3 Si8 2.532304 1_555
Re3 Si10 2.532304 1_554
Re4 Si16 2.456411 1_555
Re4 Si7 2.458345 1_555
Re4 Si1 2.458345 1_555
Re4 Si13 2.461118 1_565
Re4 Si11 2.532304 1_565
Re4 Si9 2.532304 1_565
Re5 Si17 2.456411 1_555
Re5 Si0 2.458345 1_555
Re5 Si6 2.458345 1_555
Re5 Si12 2.461118 1_545
Re5 Si9 2.532304 1_655
Re5 Si11 2.532304 1_655
Re6 Si18 2.456411 1_555
Re6 Si2 2.458345 1_554
Re6 Si5 2.458345 1_555
Re6 Si14 2.461118 1_555
Re6 Si8 2.532304 1_555
Re6 Si10 2.532304 1_554
Re7 Si19 2.456411 1_555
Re7 Si3 2.458345 1_554
Re7 Si4 2.458345 1_555
Re7 Si15 2.461118 1_555
Re7 Si10 2.532304 1_554
Re7 Si8 2.532304 1_555
Re8 Si18 2.472222 1_555
Re8 Si12 2.472222 1_545
Re8 Si13 2.472222 1_555
Re8 Si19 2.472222 1_545
Re8 Si0 2.659666 1_555
Re8 Si1 2.659666 1_545
Re9 Si14 2.472222 1_556
Re9 Si15 2.472222 1_456
Re9 Si16 2.472222 1_555
Re9 Si17 2.472222 1_455
Re9 Si3 2.659666 1_455
Re9 Si2 2.659666 1_555
Re10 Si14 2.472222 1_555
Re10 Si15 2.472222 1_455
Re10 Si16 2.472222 1_555
Re10 Si17 2.472222 1_455
Re10 Si5 2.659666 1_555
Re10 Si4 2.659666 1_455
Re10 Re9 2.744114 1_555
Re10 Re9 2.744114 1_554
Re11 Si18 2.472222 1_556
Re11 Si19 2.472222 1_546
Re11 Si12 2.472222 1_545
Re11 Si13 2.472222 1_555
Re11 Si6 2.659666 1_555
Re11 Si7 2.659666 1_545
Re11 Re8 2.744114 1_556
Re11 Re8 2.744114 1_555
Si0 Si12 2.579023 1_545
Si0 Si18 2.579023 1_555
Si0 Si6 2.744114 1_554
Si0 Si6 2.744114 1_555
Si1 Si19 2.579023 1_555
Si1 Si13 2.579023 1_565
Si1 Si7 2.744114 1_555
Si1 Si7 2.744114 1_554
Si2 Si5 2.744114 1_555
Si2 Si5 2.744114 1_556
Si3 Si4 2.744114 1_556
Si3 Si4 2.744114 1_555
Si10 Si8 2.695137 1_555
Si10 Si8 2.793092 1_556
Si11 Si9 2.695137 1_554
Si11 Si9 2.793092 1_555
Si12 Si6 2.579023 1_565
Si13 Si7 2.579023 1_545
Si14 Si2 2.579023 1_554
Si14 Si5 2.579023 1_555
Si15 Si4 2.579023 1_555
Si15 Si3 2.579023 1_554
Si16 Si3 2.579023 1_455
Si16 Si4 2.579023 1_455
Si17 Si5 2.579023 1_655
Si17 Si2 2.579023 1_655
Si18 Si6 2.579023 1_554
Si19 Si7 2.579023 1_554
