# generated using pymatgen
data_K3PrCl6
_symmetry_space_group_name_H-M   'P 1'
_cell_length_a   7.93426200
_cell_length_b   13.42885912
_cell_length_c   12.94552108
_cell_angle_alpha   108.81586976
_cell_angle_beta   90.00000000
_cell_angle_gamma   90.00000000
_symmetry_Int_Tables_number   1
_chemical_formula_structural   K3PrCl6
_chemical_formula_sum   'K12 Pr4 Cl24'
_cell_volume   1305.60956199
_cell_formula_units_Z   4
loop_
 _symmetry_equiv_pos_site_id
 _symmetry_equiv_pos_as_xyz
  1  'x, y, z'
loop_
 _atom_site_type_symbol
 _atom_site_label
 _atom_site_symmetry_multiplicity
 _atom_site_fract_x
 _atom_site_fract_y
 _atom_site_fract_z
 _atom_site_occupancy
  K  K0  1  0.43903200  0.68639000  0.73252400  1
  K  K1  1  0.56096800  0.31361000  0.26747600  1
  K  K2  1  0.93903200  0.31361000  0.76747600  1
  K  K3  1  0.06096800  0.68639000  0.23252400  1
  K  K4  1  0.96521700  0.90063000  0.64128500  1
  K  K5  1  0.03478300  0.09937000  0.35871500  1
  K  K6  1  0.46521700  0.09937000  0.85871500  1
  K  K7  1  0.53478300  0.90063000  0.14128500  1
  K  K8  1  0.93331900  0.67891600  0.88741800  1
  K  K9  1  0.06668100  0.32108400  0.11258200  1
  K  K10  1  0.43331900  0.32108400  0.61258200  1
  K  K11  1  0.56668100  0.67891600  0.38741800  1
  Pr  Pr0  1  0.00000000  0.50000000  0.50000000  1
  Pr  Pr1  1  0.50000000  0.50000000  0.00000000  1
  Pr  Pr2  1  0.00000000  0.00000000  0.00000000  1
  Pr  Pr3  1  0.50000000  0.00000000  0.50000000  1
  Cl  Cl0  1  0.50102500  0.88400800  0.63791100  1
  Cl  Cl1  1  0.49897500  0.11599200  0.36208900  1
  Cl  Cl2  1  0.00102500  0.11599200  0.86208900  1
  Cl  Cl3  1  0.99897500  0.88400800  0.13791100  1
  Cl  Cl4  1  0.28464000  0.65982800  0.99802400  1
  Cl  Cl5  1  0.71536000  0.34017200  0.00197600  1
  Cl  Cl6  1  0.78464000  0.34017200  0.50197600  1
  Cl  Cl7  1  0.21536000  0.65982800  0.49802400  1
  Cl  Cl8  1  0.78153600  0.65983800  0.60733300  1
  Cl  Cl9  1  0.21846400  0.34016200  0.39266700  1
  Cl  Cl10  1  0.28153600  0.34016200  0.89266700  1
  Cl  Cl11  1  0.71846400  0.65983800  0.10733300  1
  Cl  Cl12  1  0.64735300  0.50118000  0.80440500  1
  Cl  Cl13  1  0.35264700  0.49882000  0.19559500  1
  Cl  Cl14  1  0.14735300  0.49882000  0.69559500  1
  Cl  Cl15  1  0.85264700  0.50118000  0.30440500  1
  Cl  Cl16  1  0.16828800  0.85188600  0.83522400  1
  Cl  Cl17  1  0.83171200  0.14811400  0.16477600  1
  Cl  Cl18  1  0.66828800  0.14811400  0.66477600  1
  Cl  Cl19  1  0.33171200  0.85188600  0.33522400  1
  Cl  Cl20  1  0.70367700  0.89418600  0.91218300  1
  Cl  Cl21  1  0.29632300  0.10581400  0.08781700  1
  Cl  Cl22  1  0.20367700  0.10581400  0.58781700  1
  Cl  Cl23  1  0.79632300  0.89418600  0.41218300  1
loop_
_geom_bond_atom_site_label_1
_geom_bond_atom_site_label_2
_geom_bond_distance
_geom_bond_site_symmetry_2
Cl0 Pr3 2.721681 1_565
Cl0 K0 3.298691 1_555
Cl0 K6 3.358993 1_565
Cl0 K11 3.551225 1_555
Cl0 K4 3.689185 1_555
Cl1 Pr3 2.721681 1_555
Cl1 K1 3.298691 1_555
Cl1 K7 3.358993 1_545
Cl1 K10 3.551225 1_555
Cl1 K5 3.689185 1_555
Cl2 Pr2 2.721681 1_556
Cl2 K2 3.298691 1_455
Cl2 K4 3.358993 1_445
Cl2 K9 3.551225 1_556
Cl2 K6 3.689185 1_555
Cl3 Pr2 2.721681 1_665
Cl3 K3 3.298691 1_655
Cl3 K5 3.358993 1_665
Cl3 K8 3.551225 1_554
Cl3 K7 3.689185 1_555
Cl4 Pr1 2.749989 1_556
Cl4 K8 3.181613 1_455
Cl4 K3 3.434215 1_556
Cl4 K7 3.737220 1_556
Cl4 K0 3.772515 1_555
Cl5 Pr1 2.749989 1_555
Cl5 K9 3.181613 1_655
Cl5 K2 3.434215 1_554
Cl5 K6 3.737220 1_554
Cl5 K1 3.772515 1_555
Cl6 Pr0 2.749989 1_655
Cl6 K10 3.181613 1_555
Cl6 K1 3.434215 1_555
Cl6 K5 3.737220 1_655
Cl6 K2 3.772515 1_555
Cl7 Pr0 2.749989 1_555
Cl7 K11 3.181613 1_555
Cl7 K0 3.434215 1_555
Cl7 K4 3.737220 1_455
Cl7 K3 3.772515 1_555
Cl8 Pr0 2.760169 1_655
Cl8 K0 3.125032 1_555
Cl8 K11 3.398102 1_555
Cl8 K4 3.443293 1_555
Cl8 K8 3.750132 1_555
Cl9 Pr0 2.760169 1_555
Cl9 K1 3.125032 1_555
Cl9 K10 3.398102 1_555
Cl9 K5 3.443293 1_555
Cl9 K9 3.750132 1_555
Cl10 Pr1 2.760169 1_556
Cl10 K2 3.125032 1_455
Cl10 K9 3.398102 1_556
Cl10 K6 3.443293 1_555
Cl10 K10 3.750132 1_555
Cl11 Pr1 2.760169 1_555
Cl11 K3 3.125032 1_655
Cl11 K8 3.398102 1_554
Cl11 K7 3.443293 1_555
Cl11 K11 3.750132 1_555
Cl12 Pr1 2.793643 1_556
Cl12 K8 3.216386 1_555
Cl12 K10 3.320462 1_555
Cl12 K2 3.339489 1_555
Cl12 K0 3.358089 1_555
Cl13 Pr1 2.793643 1_555
Cl13 K9 3.216386 1_555
Cl13 K11 3.320462 1_555
Cl13 K3 3.339489 1_555
Cl13 K1 3.358089 1_555
Cl14 Pr0 2.793643 1_555
Cl14 K10 3.216386 1_555
Cl14 K8 3.320462 1_455
Cl14 K0 3.339489 1_555
Cl14 K2 3.358089 1_455
Cl15 Pr0 2.793643 1_655
Cl15 K11 3.216386 1_555
Cl15 K9 3.320462 1_655
Cl15 K1 3.339489 1_555
Cl15 K3 3.358089 1_655
Cl16 Pr2 2.748153 1_566
Cl16 K0 3.068444 1_555
Cl16 K8 3.215574 1_455
Cl16 K4 3.223027 1_455
Cl17 Pr2 2.748153 1_655
Cl17 K1 3.068444 1_555
Cl17 K9 3.215574 1_655
Cl17 K5 3.223027 1_655
Cl18 Pr3 2.748153 1_555
Cl18 K2 3.068444 1_555
Cl18 K10 3.215574 1_555
Cl18 K6 3.223027 1_555
Cl19 Pr3 2.748153 1_565
Cl19 K3 3.068444 1_555
Cl19 K11 3.215574 1_555
Cl19 K7 3.223027 1_555
Cl20 Pr2 2.792346 1_666
Cl20 K7 3.230155 1_556
Cl20 K8 3.343902 1_555
Cl20 K6 3.589037 1_565
Cl20 K0 3.663131 1_555
Cl21 Pr2 2.792346 1_555
Cl21 K6 3.230155 1_554
Cl21 K9 3.343902 1_555
Cl21 K7 3.589037 1_545
Cl21 K1 3.663131 1_555
Cl22 Pr3 2.792346 1_555
Cl22 K5 3.230155 1_555
Cl22 K10 3.343902 1_555
Cl22 K4 3.589037 1_445
Cl22 K2 3.663131 1_455
Cl23 Pr3 2.792346 1_565
Cl23 K4 3.230155 1_555
Cl23 K11 3.343902 1_555
Cl23 K5 3.589037 1_665
Cl23 K3 3.663131 1_655
