# generated using pymatgen
data_Ca5(PbN3)2
_symmetry_space_group_name_H-M   'P 1'
_cell_length_a   6.43921932
_cell_length_b   6.03368239
_cell_length_c   14.65120784
_cell_angle_alpha   89.99999898
_cell_angle_beta   90.46854801
_cell_angle_gamma   117.93764756
_symmetry_Int_Tables_number   1
_chemical_formula_structural   Ca5(PbN3)2
_chemical_formula_sum   'Ca10 Pb4 N12'
_cell_volume   502.87075726
_cell_formula_units_Z   2
loop_
 _symmetry_equiv_pos_site_id
 _symmetry_equiv_pos_as_xyz
  1  'x, y, z'
loop_
 _atom_site_type_symbol
 _atom_site_label
 _atom_site_symmetry_multiplicity
 _atom_site_fract_x
 _atom_site_fract_y
 _atom_site_fract_z
 _atom_site_occupancy
  Ca  Ca0  1  1.00000000  0.40331748  0.75000000  1
  Ca  Ca1  1  0.00000000  0.59668252  0.25000000  1
  Ca  Ca2  1  0.23282628  0.83490848  0.05169347  1
  Ca  Ca3  1  0.76717372  0.60208220  0.44830653  1
  Ca  Ca4  1  0.76717372  0.16509152  0.94830653  1
  Ca  Ca5  1  0.23282628  0.39791780  0.55169347  1
  Ca  Ca6  1  0.30432065  0.07590346  0.71668259  1
  Ca  Ca7  1  0.69567935  0.77158381  0.78331741  1
  Ca  Ca8  1  0.69567935  0.92409654  0.28331741  1
  Ca  Ca9  1  0.30432065  0.22841619  0.21668259  1
  Pb  Pb0  1  0.62261814  0.95486545  0.58489641  1
  Pb  Pb1  1  0.37738186  0.33224730  0.91510359  1
  Pb  Pb2  1  0.37738186  0.04513455  0.41510359  1
  Pb  Pb3  1  0.62261814  0.66775270  0.08489641  1
  N  N0  1  0.34956611  0.69934212  0.68212977  1
  N  N1  1  0.65043389  0.34977701  0.81787023  1
  N  N2  1  0.65043389  0.30065788  0.31787023  1
  N  N3  1  0.34956611  0.65022299  0.18212977  1
  N  N4  1  0.51562815  0.25532788  0.55168789  1
  N  N5  1  0.48437185  0.73969973  0.94831211  1
  N  N6  1  0.48437185  0.74467212  0.44831211  1
  N  N7  1  0.51562815  0.26030027  0.05168789  1
  N  N8  1  0.95615466  0.06989229  0.64895445  1
  N  N9  1  0.04384534  0.11373762  0.85104555  1
  N  N10  1  0.04384534  0.93010771  0.35104555  1
  N  N11  1  0.95615466  0.88626238  0.14895445  1
loop_
_geom_bond_atom_site_label_1
_geom_bond_atom_site_label_2
_geom_bond_distance
_geom_bond_site_symmetry_2
Ca0 N0 2.348423 1_655
Ca0 N1 2.348425 1_555
Ca0 N8 2.404085 1_555
Ca0 N9 2.404085 1_655
Ca1 N2 2.348423 1_455
Ca1 N3 2.348425 1_555
Ca1 N10 2.404085 1_555
Ca1 N11 2.404085 1_455
Ca2 N7 2.350394 1_565
Ca2 N11 2.420599 1_455
Ca2 N5 2.481900 1_554
Ca2 N3 2.494059 1_555
Ca3 N6 2.350394 1_555
Ca3 N10 2.420599 1_655
Ca3 N4 2.481900 1_555
Ca3 N2 2.494056 1_555
Ca4 N5 2.350394 1_545
Ca4 N9 2.420599 1_655
Ca4 N7 2.481900 1_556
Ca4 N1 2.494059 1_555
Ca5 N4 2.350394 1_555
Ca5 N8 2.420599 1_455
Ca5 N6 2.481900 1_555
Ca5 N0 2.494056 1_555
Ca6 N8 2.428907 1_455
Ca6 N0 2.475087 1_545
Ca6 N1 2.527977 1_555
Ca6 N9 2.674581 1_555
Ca6 N4 2.746016 1_555
Ca7 N9 2.428904 1_665
Ca7 N1 2.475087 1_555
Ca7 N0 2.527974 1_555
Ca7 N8 2.674578 1_565
Ca7 N5 2.746015 1_555
Ca8 N10 2.428907 1_655
Ca8 N2 2.475087 1_565
Ca8 N3 2.527977 1_555
Ca8 N11 2.674581 1_555
Ca8 N6 2.746016 1_555
Ca9 N11 2.428904 1_445
Ca9 N3 2.475087 1_555
Ca9 N2 2.527974 1_555
Ca9 N10 2.674578 1_545
Ca9 N7 2.746015 1_555
N0 Pb0 2.235792 1_555
N1 Pb1 2.235790 1_555
N2 Pb2 2.235792 1_555
N3 Pb3 2.235790 1_555
N4 Pb0 2.272171 1_545
N4 Pb2 2.306159 1_555
N5 Pb1 2.272171 1_555
N5 Pb3 2.306159 1_556
N6 Pb2 2.272171 1_565
N6 Pb0 2.306159 1_555
N7 Pb3 2.272171 1_555
N7 Pb1 2.306159 1_554
N8 Pb0 2.132022 1_545
N9 Pb1 2.132022 1_555
N10 Pb2 2.132022 1_565
N11 Pb3 2.132022 1_555
