# generated using pymatgen
data_Na2CaNb4Bi2O15
_symmetry_space_group_name_H-M   'P 1'
_cell_length_a   20.97797737
_cell_length_b   20.97797737
_cell_length_c   5.57239900
_cell_angle_alpha   90.00000000
_cell_angle_beta   90.00000000
_cell_angle_gamma   164.81218205
_symmetry_Int_Tables_number   1
_chemical_formula_structural   Na2CaNb4Bi2O15
_chemical_formula_sum   'Na4 Ca2 Nb8 Bi4 O30'
_cell_volume   642.45718314
_cell_formula_units_Z   2
loop_
 _symmetry_equiv_pos_site_id
 _symmetry_equiv_pos_as_xyz
  1  'x, y, z'
loop_
 _atom_site_type_symbol
 _atom_site_label
 _atom_site_symmetry_multiplicity
 _atom_site_fract_x
 _atom_site_fract_y
 _atom_site_fract_z
 _atom_site_occupancy
  Na  Na0  1  0.13243400  0.33919400  0.53410800  1
  Na  Na1  1  0.33919400  0.13243400  0.53410800  1
  Na  Na2  1  0.86756600  0.66080600  0.03410800  1
  Na  Na3  1  0.66080600  0.86756600  0.03410800  1
  Ca  Ca0  1  0.75391900  0.75391900  0.01780300  1
  Ca  Ca1  1  0.24608100  0.24608100  0.51780300  1
  Nb  Nb0  1  0.70590900  0.80704000  0.54666300  1
  Nb  Nb1  1  0.80704000  0.70590900  0.54666300  1
  Nb  Nb2  1  0.29409100  0.19296000  0.04666300  1
  Nb  Nb3  1  0.19296000  0.29409100  0.04666300  1
  Nb  Nb4  1  0.59147800  0.89218300  0.53794000  1
  Nb  Nb5  1  0.89218300  0.59147800  0.53794000  1
  Nb  Nb6  1  0.40852200  0.10781700  0.03794000  1
  Nb  Nb7  1  0.10781700  0.40852200  0.03794000  1
  Bi  Bi0  1  0.05609600  0.49527700  0.48614200  1
  Bi  Bi1  1  0.49527700  0.05609600  0.48614200  1
  Bi  Bi2  1  0.94390400  0.50472300  0.98614200  1
  Bi  Bi3  1  0.50472300  0.94390400  0.98614200  1
  O  O0  1  0.40706000  0.49069600  0.76858200  1
  O  O1  1  0.49069600  0.40706000  0.76858200  1
  O  O2  1  0.59294000  0.50930400  0.26858200  1
  O  O3  1  0.50930400  0.59294000  0.26858200  1
  O  O4  1  0.64241000  0.83396800  0.55578800  1
  O  O5  1  0.83396800  0.64241000  0.55578800  1
  O  O6  1  0.35759000  0.16603200  0.05578800  1
  O  O7  1  0.16603200  0.35759000  0.05578800  1
  O  O8  1  0.74305000  0.24093700  0.76489900  1
  O  O9  1  0.24093700  0.74305000  0.76489900  1
  O  O10  1  0.25695000  0.75906300  0.26489900  1
  O  O11  1  0.75906300  0.25695000  0.26489900  1
  O  O12  1  0.19204500  0.19204500  0.08639000  1
  O  O13  1  0.80795500  0.80795500  0.58639000  1
  O  O14  1  0.88211000  0.17410800  0.77750100  1
  O  O15  1  0.17410800  0.88211000  0.77750100  1
  O  O16  1  0.11789000  0.82589200  0.27750100  1
  O  O17  1  0.82589200  0.11789000  0.27750100  1
  O  O18  1  0.50972100  0.90089000  0.56686400  1
  O  O19  1  0.90089000  0.50972100  0.56686400  1
  O  O20  1  0.49027900  0.09911000  0.06686400  1
  O  O21  1  0.09911000  0.49027900  0.06686400  1
  O  O22  1  0.39253600  0.67864200  0.84012600  1
  O  O23  1  0.67864200  0.39253600  0.84012600  1
  O  O24  1  0.60746400  0.32135800  0.34012600  1
  O  O25  1  0.32135800  0.60746400  0.34012600  1
  O  O26  1  0.88344400  0.98382800  0.88169200  1
  O  O27  1  0.98382800  0.88344400  0.88169200  1
  O  O28  1  0.11655600  0.01617200  0.38169200  1
  O  O29  1  0.01617200  0.11655600  0.38169200  1
loop_
_geom_bond_atom_site_label_1
_geom_bond_atom_site_label_2
_geom_bond_distance
_geom_bond_site_symmetry_2
Na0 O25 2.344597 1_555
Na0 O14 2.511430 1_455
Na0 O29 2.548903 1_555
Na0 O7 2.687937 1_555
Na0 O17 2.706940 1_455
Na0 O4 2.779769 1_445
Na0 O4 2.805911 1_555
Na0 O22 2.897022 1_555
Na0 O7 2.927696 1_556
Na1 O24 2.344597 1_555
Na1 O15 2.511430 1_545
Na1 O28 2.548903 1_555
Na1 O6 2.687937 1_555
Na1 O16 2.706940 1_545
Na1 O5 2.779769 1_445
Na1 O5 2.805911 1_555
Na1 O23 2.897022 1_555
Na1 O6 2.927696 1_556
Na2 O23 2.344597 1_554
Na2 O16 2.511430 1_655
Na2 O27 2.548903 1_554
Na2 O5 2.687937 1_554
Na2 O15 2.706940 1_654
Na2 O6 2.779769 1_665
Na2 O6 2.805911 1_555
Na2 O24 2.897022 1_555
Na2 O5 2.927696 1_555
Na3 O22 2.344597 1_554
Na3 O17 2.511430 1_565
Na3 O26 2.548903 1_554
Na3 O4 2.687937 1_554
Na3 O14 2.706940 1_564
Na3 O7 2.779769 1_665
Na3 O7 2.805911 1_555
Na3 O25 2.897022 1_555
Na3 O4 2.927696 1_555
Ca0 O13 2.422603 1_554
Ca0 O26 2.434203 1_554
Ca0 O27 2.434203 1_554
Ca0 O12 2.459081 1_665
Ca0 O2 2.498340 1_555
Ca0 O3 2.498340 1_555
Ca0 O1 2.795305 1_554
Ca0 O0 2.795305 1_554
Ca1 O12 2.422603 1_555
Ca1 O28 2.434203 1_555
Ca1 O29 2.434203 1_555
Ca1 O13 2.459081 1_445
Ca1 O1 2.498340 1_555
Ca1 O0 2.498340 1_555
Ca1 O2 2.795305 1_555
Ca1 O3 2.795305 1_555
Nb0 O4 1.883756 1_555
Nb0 O29 1.948717 1_665
Nb0 O3 1.957014 1_555
Nb0 O26 2.109616 1_555
Nb0 O13 2.133715 1_555
Nb0 O0 2.137808 1_555
Nb1 O5 1.883756 1_555
Nb1 O28 1.948717 1_665
Nb1 O2 1.957014 1_555
Nb1 O27 2.109616 1_555
Nb1 O13 2.133715 1_555
Nb1 O1 2.137808 1_555
Nb2 O6 1.883756 1_555
Nb2 O27 1.948717 1_444
Nb2 O1 1.957014 1_554
Nb2 O28 2.109616 1_555
Nb2 O12 2.133715 1_555
Nb2 O2 2.137808 1_555
Nb3 O7 1.883756 1_555
Nb3 O26 1.948717 1_444
Nb3 O0 1.957014 1_554
Nb3 O29 2.109616 1_555
Nb3 O12 2.133715 1_555
Nb3 O3 2.137808 1_555
Nb4 O18 1.898830 1_555
Nb4 O25 1.916546 1_555
Nb4 O17 1.940633 1_565
Nb4 O22 2.057983 1_555
Nb4 O14 2.081890 1_565
Nb4 O4 2.271870 1_555
Nb5 O19 1.898830 1_555
Nb5 O24 1.916546 1_555
Nb5 O16 1.940633 1_655
Nb5 O23 2.057983 1_555
Nb5 O15 2.081890 1_655
Nb5 O5 2.271870 1_555
Nb6 O20 1.898830 1_555
Nb6 O23 1.916546 1_554
Nb6 O15 1.940633 1_544
Nb6 O24 2.057983 1_555
Nb6 O16 2.081890 1_545
Nb6 O6 2.271870 1_555
Nb7 O21 1.898830 1_555
Nb7 O22 1.916546 1_554
Nb7 O14 1.940633 1_454
Nb7 O25 2.057983 1_555
Nb7 O17 2.081890 1_455
Nb7 O7 2.271870 1_555
Bi0 O10 2.211695 1_555
Bi0 O11 2.283165 1_455
Bi0 O9 2.358750 1_555
Bi0 O8 2.525315 1_455
Bi0 O21 2.542936 1_555
Bi0 O18 2.621666 1_555
Bi1 O11 2.211695 1_555
Bi1 O10 2.283165 1_545
Bi1 O8 2.358750 1_555
Bi1 O9 2.525315 1_545
Bi1 O20 2.542936 1_555
Bi1 O19 2.621666 1_555
Bi2 O8 2.211695 1_555
Bi2 O9 2.283165 1_655
Bi2 O11 2.358750 1_556
Bi2 O10 2.525315 1_656
Bi2 O19 2.542936 1_555
Bi2 O20 2.621666 1_556
Bi3 O9 2.211695 1_555
Bi3 O8 2.283165 1_565
Bi3 O10 2.358750 1_556
Bi3 O11 2.525315 1_566
Bi3 O18 2.542936 1_555
Bi3 O21 2.621666 1_556
