# generated using pymatgen
data_Nd4Bi2S9
_symmetry_space_group_name_H-M   'P 1'
_cell_length_a   28.45851400
_cell_length_b   3.97753400
_cell_length_c   12.84667900
_cell_angle_alpha   90.00000000
_cell_angle_beta   90.00000000
_cell_angle_gamma   90.00000000
_symmetry_Int_Tables_number   1
_chemical_formula_structural   Nd4Bi2S9
_chemical_formula_sum   'Nd16 Bi8 S36'
_cell_volume   1454.17606564
_cell_formula_units_Z   4
loop_
 _symmetry_equiv_pos_site_id
 _symmetry_equiv_pos_as_xyz
  1  'x, y, z'
loop_
 _atom_site_type_symbol
 _atom_site_label
 _atom_site_symmetry_multiplicity
 _atom_site_fract_x
 _atom_site_fract_y
 _atom_site_fract_z
 _atom_site_occupancy
  Nd  Nd0  1  0.68763000  0.25000000  0.89424900  1
  Nd  Nd1  1  0.18763000  0.25000000  0.60575100  1
  Nd  Nd2  1  0.31237000  0.75000000  0.10575100  1
  Nd  Nd3  1  0.81237000  0.75000000  0.39424900  1
  Nd  Nd4  1  0.82047500  0.25000000  0.74190900  1
  Nd  Nd5  1  0.32047500  0.25000000  0.75809100  1
  Nd  Nd6  1  0.17952500  0.75000000  0.25809100  1
  Nd  Nd7  1  0.67952500  0.75000000  0.24190900  1
  Nd  Nd8  1  0.05439600  0.25000000  0.74150800  1
  Nd  Nd9  1  0.55439600  0.25000000  0.75849200  1
  Nd  Nd10  1  0.94560400  0.75000000  0.25849200  1
  Nd  Nd11  1  0.44560400  0.75000000  0.24150800  1
  Nd  Nd12  1  0.80564700  0.25000000  0.07507600  1
  Nd  Nd13  1  0.30564700  0.25000000  0.42492400  1
  Nd  Nd14  1  0.19435300  0.75000000  0.92492400  1
  Nd  Nd15  1  0.69435300  0.75000000  0.57507600  1
  Bi  Bi0  1  0.55939400  0.25000000  0.42906000  1
  Bi  Bi1  1  0.05939400  0.25000000  0.07094000  1
  Bi  Bi2  1  0.44060600  0.75000000  0.57094000  1
  Bi  Bi3  1  0.94060600  0.75000000  0.92906000  1
  Bi  Bi4  1  0.93427100  0.25000000  0.56106200  1
  Bi  Bi5  1  0.43427100  0.25000000  0.93893800  1
  Bi  Bi6  1  0.06572900  0.75000000  0.43893800  1
  Bi  Bi7  1  0.56572900  0.75000000  0.06106200  1
  S  S0  1  0.99558200  0.25000000  0.38654500  1
  S  S1  1  0.49558200  0.25000000  0.11345500  1
  S  S2  1  0.00441800  0.75000000  0.61345500  1
  S  S3  1  0.50441800  0.75000000  0.88654500  1
  S  S4  1  0.63565700  0.25000000  0.10463200  1
  S  S5  1  0.13565700  0.25000000  0.39536800  1
  S  S6  1  0.36434300  0.75000000  0.89536800  1
  S  S7  1  0.86434300  0.75000000  0.60463200  1
  S  S8  1  0.95746400  0.25000000  0.09990900  1
  S  S9  1  0.45746400  0.25000000  0.40009100  1
  S  S10  1  0.04253600  0.75000000  0.90009100  1
  S  S11  1  0.54253600  0.75000000  0.59990900  1
  S  S12  1  0.44210800  0.25000000  0.71102700  1
  S  S13  1  0.94210800  0.25000000  0.78897300  1
  S  S14  1  0.55789200  0.75000000  0.28897300  1
  S  S15  1  0.05789200  0.75000000  0.21102700  1
  S  S16  1  0.76965600  0.25000000  0.53868800  1
  S  S17  1  0.26965600  0.25000000  0.96131200  1
  S  S18  1  0.23034400  0.75000000  0.46131200  1
  S  S19  1  0.73034400  0.75000000  0.03868800  1
  S  S20  1  0.88598200  0.25000000  0.37555300  1
  S  S21  1  0.38598200  0.25000000  0.12444700  1
  S  S22  1  0.11401800  0.75000000  0.62444700  1
  S  S23  1  0.61401800  0.75000000  0.87555300  1
  S  S24  1  0.65714400  0.25000000  0.40928400  1
  S  S25  1  0.15714400  0.25000000  0.09071600  1
  S  S26  1  0.34285600  0.75000000  0.59071600  1
  S  S27  1  0.84285600  0.75000000  0.90928400  1
  S  S28  1  0.75453500  0.25000000  0.27153000  1
  S  S29  1  0.25453500  0.25000000  0.22847000  1
  S  S30  1  0.24546500  0.75000000  0.72847000  1
  S  S31  1  0.74546500  0.75000000  0.77153000  1
  S  S32  1  0.64891300  0.25000000  0.68508200  1
  S  S33  1  0.14891300  0.25000000  0.81491800  1
  S  S34  1  0.35108700  0.75000000  0.31491800  1
  S  S35  1  0.85108700  0.75000000  0.18508200  1
loop_
_geom_bond_atom_site_label_1
_geom_bond_atom_site_label_2
_geom_bond_distance
_geom_bond_site_symmetry_2
Nd0 S23 2.898523 1_555
Nd0 S23 2.898523 1_545
Nd0 S32 2.904228 1_555
Nd0 S19 2.979250 1_556
Nd0 S19 2.979250 1_546
Nd0 S31 3.024835 1_545
Nd0 S31 3.024835 1_555
Nd0 S4 3.080969 1_556
Nd1 S22 2.898523 1_555
Nd1 S22 2.898523 1_545
Nd1 S33 2.904228 1_555
Nd1 S18 2.979250 1_555
Nd1 S18 2.979250 1_545
Nd1 S30 3.024835 1_555
Nd1 S30 3.024835 1_545
Nd1 S5 3.080969 1_555
Nd2 S21 2.898523 1_565
Nd2 S21 2.898523 1_555
Nd2 S34 2.904228 1_555
Nd2 S17 2.979250 1_554
Nd2 S17 2.979250 1_564
Nd2 S29 3.024835 1_565
Nd2 S29 3.024835 1_555
Nd2 S6 3.080969 1_554
Nd3 S20 2.898523 1_555
Nd3 S20 2.898523 1_565
Nd3 S35 2.904228 1_555
Nd3 S16 2.979250 1_555
Nd3 S16 2.979250 1_565
Nd3 S28 3.024835 1_555
Nd3 S28 3.024835 1_565
Nd3 S7 3.080969 1_555
Nd4 S7 2.936641 1_555
Nd4 S7 2.936641 1_545
Nd4 S31 2.942249 1_545
Nd4 S31 2.942249 1_555
Nd4 S16 2.984531 1_555
Nd4 S27 2.997380 1_545
Nd4 S27 2.997380 1_555
Nd4 S13 3.513902 1_555
Nd5 S6 2.936641 1_555
Nd5 S6 2.936641 1_545
Nd5 S30 2.942249 1_555
Nd5 S30 2.942249 1_545
Nd5 S17 2.984531 1_555
Nd5 S26 2.997380 1_555
Nd5 S26 2.997380 1_545
Nd5 S12 3.513902 1_555
Nd6 S5 2.936641 1_555
Nd6 S5 2.936641 1_565
Nd6 S29 2.942249 1_555
Nd6 S29 2.942249 1_565
Nd6 S18 2.984531 1_555
Nd6 S25 2.997380 1_565
Nd6 S25 2.997380 1_555
Nd6 S15 3.513902 1_555
Nd7 S4 2.936641 1_565
Nd7 S4 2.936641 1_555
Nd7 S28 2.942249 1_555
Nd7 S28 2.942249 1_565
Nd7 S19 2.984531 1_555
Nd7 S24 2.997380 1_555
Nd7 S24 2.997380 1_565
Nd7 S14 3.513902 1_555
Nd8 S33 2.850348 1_555
Nd8 S10 2.866978 1_555
Nd8 S10 2.866978 1_545
Nd8 S2 2.946920 1_555
Nd8 S2 2.946920 1_545
Nd8 S22 3.015911 1_555
Nd8 S22 3.015911 1_545
Nd8 S13 3.253207 1_455
Nd9 S32 2.850348 1_555
Nd9 S11 2.866978 1_545
Nd9 S11 2.866978 1_555
Nd9 S3 2.946920 1_555
Nd9 S3 2.946920 1_545
Nd9 S23 3.015911 1_545
Nd9 S23 3.015911 1_555
Nd9 S12 3.253207 1_555
Nd10 S35 2.850348 1_555
Nd10 S8 2.866978 1_555
Nd10 S8 2.866978 1_565
Nd10 S0 2.946920 1_555
Nd10 S0 2.946920 1_565
Nd10 S20 3.015911 1_555
Nd10 S20 3.015911 1_565
Nd10 S15 3.253207 1_655
Nd11 S34 2.850348 1_555
Nd11 S9 2.866978 1_565
Nd11 S9 2.866978 1_555
Nd11 S1 2.946920 1_555
Nd11 S1 2.946920 1_565
Nd11 S21 3.015911 1_555
Nd11 S21 3.015911 1_565
Nd11 S14 3.253207 1_555
Nd12 S35 2.761270 1_555
Nd12 S35 2.761270 1_545
Nd12 S28 2.912945 1_555
Nd12 S19 2.960780 1_555
Nd12 S19 2.960780 1_545
Nd12 S27 3.100462 1_554
Nd12 S27 3.100462 1_544
Nd13 S34 2.761270 1_545
Nd13 S34 2.761270 1_555
Nd13 S29 2.912945 1_555
Nd13 S18 2.960780 1_555
Nd13 S18 2.960780 1_545
Nd13 S26 3.100462 1_545
Nd13 S26 3.100462 1_555
Nd14 S33 2.761270 1_555
Nd14 S33 2.761270 1_565
Nd14 S30 2.912945 1_555
Nd14 S17 2.960780 1_555
Nd14 S17 2.960780 1_565
Nd14 S25 3.100462 1_556
Nd14 S25 3.100462 1_566
Nd15 S32 2.761270 1_555
Nd15 S32 2.761270 1_565
Nd15 S31 2.912945 1_555
Nd15 S16 2.960780 1_555
Nd15 S16 2.960780 1_565
Nd15 S24 3.100462 1_555
Nd15 S24 3.100462 1_565
Bi0 S14 2.682493 1_555
Bi0 S14 2.682493 1_545
Bi0 S24 2.793397 1_555
Bi0 S9 2.924552 1_555
Bi0 S11 3.000448 1_545
Bi0 S11 3.000448 1_555
Bi1 S15 2.682493 1_545
Bi1 S15 2.682493 1_555
Bi1 S25 2.793397 1_555
Bi1 S8 2.924552 1_455
Bi1 S10 3.000448 1_554
Bi1 S10 3.000448 1_544
Bi2 S12 2.682493 1_555
Bi2 S12 2.682493 1_565
Bi2 S26 2.793397 1_555
Bi2 S11 2.924552 1_555
Bi2 S9 3.000448 1_565
Bi2 S9 3.000448 1_555
Bi3 S13 2.682493 1_565
Bi3 S13 2.682493 1_555
Bi3 S27 2.793397 1_555
Bi3 S10 2.924552 1_655
Bi3 S8 3.000448 1_556
Bi3 S8 3.000448 1_566
Bi4 S20 2.751007 1_555
Bi4 S0 2.840915 1_555
Bi4 S7 2.868585 1_555
Bi4 S7 2.868585 1_545
Bi4 S2 2.897129 1_655
Bi4 S2 2.897129 1_645
Bi4 S13 2.936382 1_555
Bi5 S21 2.751007 1_556
Bi5 S1 2.840915 1_556
Bi5 S6 2.868585 1_545
Bi5 S6 2.868585 1_555
Bi5 S3 2.897129 1_555
Bi5 S3 2.897129 1_545
Bi5 S12 2.936382 1_555
Bi6 S22 2.751007 1_555
Bi6 S2 2.840915 1_555
Bi6 S5 2.868585 1_555
Bi6 S5 2.868585 1_565
Bi6 S0 2.897129 1_455
Bi6 S0 2.897129 1_465
Bi6 S15 2.936382 1_555
Bi7 S23 2.751007 1_554
Bi7 S3 2.840915 1_554
Bi7 S4 2.868585 1_555
Bi7 S4 2.868585 1_565
Bi7 S1 2.897129 1_565
Bi7 S1 2.897129 1_555
Bi7 S14 2.936382 1_555
