# generated using pymatgen
data_Cd3Ge
_symmetry_space_group_name_H-M   'P 1'
_cell_length_a   5.54991229
_cell_length_b   5.54991229
_cell_length_c   5.54991229
_cell_angle_alpha   133.06022835
_cell_angle_beta   133.06022835
_cell_angle_gamma   68.55957869
_symmetry_Int_Tables_number   1
_chemical_formula_structural   Cd3Ge
_chemical_formula_sum   'Cd3 Ge1'
_cell_volume   89.61964426
_cell_formula_units_Z   1
loop_
 _symmetry_equiv_pos_site_id
 _symmetry_equiv_pos_as_xyz
  1  'x, y, z'
loop_
 _atom_site_type_symbol
 _atom_site_label
 _atom_site_symmetry_multiplicity
 _atom_site_fract_x
 _atom_site_fract_y
 _atom_site_fract_z
 _atom_site_occupancy
  Cd  Cd0  1  0.75000000  0.25000000  0.50000000  1
  Cd  Cd1  1  0.25000000  0.75000000  0.50000000  1
  Cd  Cd2  1  0.50000000  0.50000000  0.00000000  1
  Ge  Ge0  1  0.00000000  0.00000000  0.00000000  1
loop_
_geom_bond_atom_site_label_1
_geom_bond_atom_site_label_2
_geom_bond_distance
_geom_bond_site_symmetry_2
Cd0 Cd1 3.125903 1_656
Cd0 Cd1 3.125903 1_555
Cd0 Cd1 3.125903 1_645
Cd0 Cd1 3.125903 1_544
Cd0 Ge0 3.184839 1_666
Cd0 Cd2 3.184839 1_555
Cd0 Cd2 3.184839 1_556
Cd0 Ge0 3.184839 1_555
Cd0 Cd2 3.184839 1_656
Cd0 Ge0 3.184839 1_656
Cd0 Ge0 3.184839 1_655
Cd0 Cd2 3.184839 1_545
Cd1 Ge0 3.184839 1_666
Cd1 Cd2 3.184839 1_455
Cd1 Cd2 3.184839 1_555
Cd1 Cd2 3.184839 1_556
Cd1 Cd2 3.184839 1_566
Cd1 Ge0 3.184839 1_555
Cd1 Ge0 3.184839 1_565
Cd1 Ge0 3.184839 1_566
Cd2 Ge0 3.125903 1_655
Cd2 Ge0 3.125903 1_666
Cd2 Ge0 3.125903 1_554
Cd2 Ge0 3.125903 1_565
