# generated using pymatgen
data_Mg5Si9
_symmetry_space_group_name_H-M   'P 1'
_cell_length_a   6.88806800
_cell_length_b   7.30496698
_cell_length_c   11.83473985
_cell_angle_alpha   88.09026880
_cell_angle_beta   97.25365554
_cell_angle_gamma   114.79481067
_symmetry_Int_Tables_number   1
_chemical_formula_structural   Mg5Si9
_chemical_formula_sum   'Mg10 Si18'
_cell_volume   536.14114092
_cell_formula_units_Z   2
loop_
 _symmetry_equiv_pos_site_id
 _symmetry_equiv_pos_as_xyz
  1  'x, y, z'
loop_
 _atom_site_type_symbol
 _atom_site_label
 _atom_site_symmetry_multiplicity
 _atom_site_fract_x
 _atom_site_fract_y
 _atom_site_fract_z
 _atom_site_occupancy
  Mg  Mg0  1  0.58939600  0.97929500  0.69689900  1
  Mg  Mg1  1  0.69472500  0.01351200  0.41204400  1
  Mg  Mg2  1  0.19234500  0.65384200  0.51840200  1
  Mg  Mg3  1  0.73426900  0.43785500  0.33856300  1
  Mg  Mg4  1  0.77385300  0.68798900  0.56844400  1
  Mg  Mg5  1  0.36219700  0.22795800  0.50352000  1
  Mg  Mg6  1  0.67107600  0.15962800  0.11896200  1
  Mg  Mg7  1  0.40518700  0.17858300  0.87483600  1
  Mg  Mg8  1  0.94693700  0.62481800  0.06901700  1
  Mg  Mg9  1  0.02556400  0.33437700  0.91098700  1
  Si  Si0  1  0.22431000  0.24612900  0.16989100  1
  Si  Si1  1  0.50639000  0.63702000  0.91342300  1
  Si  Si2  1  0.97367000  0.85823000  0.36538000  1
  Si  Si3  1  0.11112900  0.23633700  0.69478600  1
  Si  Si4  1  0.10774700  0.45374300  0.26498300  1
  Si  Si5  1  0.03416600  0.73687800  0.81790300  1
  Si  Si6  1  0.35582200  0.76883400  0.18944400  1
  Si  Si7  1  0.73581200  0.41447300  0.74964900  1
  Si  Si8  1  0.70974400  0.77198600  0.19574800  1
  Si  Si9  1  0.17733000  0.94537000  0.66067200  1
  Si  Si10  1  0.83368400  0.90468000  0.86966800  1
  Si  Si11  1  0.92902500  0.00183900  0.06207500  1
  Si  Si12  1  0.33033400  0.03304600  0.29616200  1
  Si  Si13  1  0.44671500  0.53515200  0.71629100  1
  Si  Si14  1  0.31973900  0.81419100  0.97439700  1
  Si  Si15  1  0.52404300  0.44433500  0.07798800  1
  Si  Si16  1  0.83779300  0.31444900  0.57853300  1
  Si  Si17  1  0.44661500  0.58535100  0.39104700  1
loop_
_geom_bond_atom_site_label_1
_geom_bond_atom_site_label_2
_geom_bond_distance
_geom_bond_site_symmetry_2
Mg0 Si10 2.671206 1_555
Mg0 Si9 2.722354 1_555
Mg0 Si16 2.783361 1_565
Mg0 Si7 2.965953 1_565
Mg0 Si13 2.979582 1_555
Mg1 Si2 2.724183 1_545
Mg1 Si12 2.760281 1_555
Mg1 Si16 2.769015 1_555
Mg1 Si17 2.868143 1_545
Mg1 Si8 3.193303 1_545
Mg2 Si17 2.653557 1_555
Mg2 Si9 2.801524 1_555
Mg2 Si16 2.803615 1_455
Mg2 Si2 2.965604 1_455
Mg2 Si13 3.067420 1_555
Mg2 Si4 3.256918 1_555
Mg3 Si17 2.760172 1_555
Mg3 Si4 2.774576 1_655
Mg3 Si2 2.817002 1_555
Mg3 Si8 2.973482 1_555
Mg3 Si16 3.040358 1_555
Mg3 Si12 3.095669 1_555
Mg4 Si9 2.727321 1_655
Mg4 Si17 2.746443 1_555
Mg4 Si7 2.841990 1_555
Mg4 Si13 2.853241 1_555
Mg4 Si2 2.901167 1_555
Mg4 Si16 2.937176 1_555
Mg4 Si5 3.202338 1_655
Mg5 Si9 2.734829 1_545
Mg5 Si17 2.759792 1_555
Mg5 Si12 2.816465 1_555
Mg5 Si3 3.033947 1_555
Mg5 Si16 3.079942 1_555
Mg5 Si2 3.202562 1_445
Mg5 Si13 3.259772 1_555
Mg6 Si11 2.647691 1_555
Mg6 Si15 2.676146 1_555
Mg6 Si6 2.942787 1_545
Mg6 Si14 3.044916 1_544
Mg6 Si8 3.052099 1_545
Mg6 Si12 3.170960 1_555
Mg6 Si4 3.188121 1_655
Mg7 Si14 2.733559 1_545
Mg7 Si7 2.782290 1_555
Mg7 Si3 2.896209 1_555
Mg7 Si15 2.949636 1_556
Mg7 Si9 2.971582 1_545
Mg7 Si13 3.093854 1_555
Mg7 Si1 3.157993 1_555
Mg7 Si5 3.192202 1_545
Mg8 Si15 2.661249 1_555
Mg8 Si14 2.721234 1_654
Mg8 Si6 2.769733 1_655
Mg8 Si11 2.806162 1_565
Mg8 Si8 2.876454 1_555
Mg8 Si4 2.913166 1_655
Mg8 Si5 3.120793 1_654
Mg9 Si7 2.813205 1_455
Mg9 Si11 2.862913 1_456
Mg9 Si3 2.874737 1_555
Mg9 Si10 2.880668 1_445
Mg9 Si5 3.084911 1_555
Mg9 Si1 3.113899 1_555
Si0 Si11 2.324148 1_455
Si0 Si15 2.344508 1_555
Si0 Si4 2.361038 1_555
Si0 Si12 2.390028 1_555
Si1 Si14 2.353896 1_555
Si1 Si15 2.385399 1_556
Si1 Si10 2.388253 1_555
Si1 Si13 2.404708 1_555
Si2 Si8 2.436008 1_555
Si3 Si9 2.409421 1_545
Si4 Si6 2.442700 1_555
Si5 Si9 2.401952 1_555
Si5 Si7 2.463876 1_455
Si6 Si8 2.419971 1_555
Si10 Si11 2.336512 1_566
Si10 Si5 2.338438 1_655
Si11 Si8 2.429517 1_545
Si12 Si6 2.419450 1_545
Si12 Si2 2.478800 1_445
Si13 Si3 2.414370 1_555
Si13 Si7 2.479719 1_555
Si14 Si5 2.415853 1_555
Si14 Si6 2.549871 1_556
Si15 Si8 2.551763 1_555
Si16 Si3 2.440876 1_655
Si16 Si7 2.452906 1_555
Si17 Si4 2.435659 1_555
