# generated using pymatgen
data_LiCoBP2H2O11
_symmetry_space_group_name_H-M   'P 1'
_cell_length_a   9.90601536
_cell_length_b   9.90601536
_cell_length_c   16.39280512
_cell_angle_alpha   90.00000000
_cell_angle_beta   90.00000000
_cell_angle_gamma   119.99999693
_symmetry_Int_Tables_number   1
_chemical_formula_structural   LiCoBP2H2O11
_chemical_formula_sum   'Li6 Co6 B6 P12 H12 O66'
_cell_volume   1393.09879073
_cell_formula_units_Z   6
loop_
 _symmetry_equiv_pos_site_id
 _symmetry_equiv_pos_as_xyz
  1  'x, y, z'
loop_
 _atom_site_type_symbol
 _atom_site_label
 _atom_site_symmetry_multiplicity
 _atom_site_fract_x
 _atom_site_fract_y
 _atom_site_fract_z
 _atom_site_occupancy
  Li  Li0  1  0.77405892  0.22594108  0.75000000  1
  Li  Li1  1  0.45188216  0.22594108  0.41666700  1
  Li  Li2  1  0.22594108  0.77405892  0.25000000  1
  Li  Li3  1  0.54811784  0.77405892  0.91666700  1
  Li  Li4  1  0.77405892  0.54811784  0.08333300  1
  Li  Li5  1  0.22594108  0.45188216  0.58333300  1
  Co  Co0  1  0.48190448  0.51809552  0.75000000  1
  Co  Co1  1  0.03619105  0.51809552  0.41666700  1
  Co  Co2  1  0.51809552  0.48190448  0.25000000  1
  Co  Co3  1  0.96380895  0.48190448  0.91666700  1
  Co  Co4  1  0.48190448  0.96380895  0.08333300  1
  Co  Co5  1  0.51809552  0.03619105  0.58333300  1
  B  B0  1  0.15044669  0.84955331  0.75000000  1
  B  B1  1  0.69910661  0.84955331  0.41666700  1
  B  B2  1  0.84955331  0.15044669  0.25000000  1
  B  B3  1  0.30089339  0.15044669  0.91666700  1
  B  B4  1  0.15044669  0.30089339  0.08333300  1
  B  B5  1  0.84955331  0.69910661  0.58333300  1
  P  P0  1  0.64421072  0.82200870  0.57822737  1
  P  P1  1  0.17779798  0.35578928  0.24489437  1
  P  P2  1  0.35578928  0.17799130  0.07822737  1
  P  P3  1  0.82220202  0.17799130  0.08843963  1
  P  P4  1  0.17799130  0.82220202  0.91156037  1
  P  P5  1  0.82220202  0.64421072  0.74489437  1
  P  P6  1  0.82200870  0.64421072  0.42177263  1
  P  P7  1  0.17779798  0.82200870  0.58843963  1
  P  P8  1  0.82200870  0.17779798  0.41156037  1
  P  P9  1  0.17799130  0.35578928  0.92177263  1
  P  P10  1  0.35578928  0.17779798  0.75510563  1
  P  P11  1  0.64421072  0.82220202  0.25510563  1
  H  H0  1  0.51638180  0.03994660  0.92959468  1
  H  H1  1  0.52356480  0.48361820  0.59626168  1
  H  H2  1  0.48361820  0.96005340  0.42959468  1
  H  H3  1  0.47643520  0.96005340  0.73707232  1
  H  H4  1  0.96005340  0.47643520  0.26292768  1
  H  H5  1  0.47643520  0.51638180  0.09626168  1
  H  H6  1  0.03994660  0.51638180  0.07040532  1
  H  H7  1  0.52356480  0.03994660  0.23707232  1
  H  H8  1  0.03994660  0.52356480  0.76292768  1
  H  H9  1  0.96005340  0.48361820  0.57040532  1
  H  H10  1  0.48361820  0.52356480  0.40373832  1
  H  H11  1  0.51638180  0.47643520  0.90373832  1
  O  O0  1  0.26974760  0.49905574  0.86607284  1
  O  O1  1  0.22930814  0.73025240  0.53273984  1
  O  O2  1  0.73025240  0.50094426  0.36607284  1
  O  O3  1  0.77069186  0.50094426  0.80059416  1
  O  O4  1  0.50094426  0.77069186  0.19940584  1
  O  O5  1  0.77069186  0.26974760  0.03273984  1
  O  O6  1  0.49905574  0.26974760  0.13392716  1
  O  O7  1  0.22930814  0.49905574  0.30059416  1
  O  O8  1  0.49905574  0.22930814  0.69940584  1
  O  O9  1  0.50094426  0.73025240  0.63392716  1
  O  O10  1  0.73025240  0.22930814  0.46726016  1
  O  O11  1  0.26974760  0.77069186  0.96726016  1
  O  O12  1  0.95228049  0.43925168  0.79288312  1
  O  O13  1  0.48697119  0.04771951  0.45955012  1
  O  O14  1  0.04771951  0.56074832  0.29288312  1
  O  O15  1  0.51302881  0.56074832  0.87378388  1
  O  O16  1  0.56074832  0.51302881  0.12621612  1
  O  O17  1  0.51302881  0.95228049  0.95955012  1
  O  O18  1  0.43925168  0.95228049  0.20711688  1
  O  O19  1  0.48697119  0.43925168  0.37378388  1
  O  O20  1  0.43925168  0.48697119  0.62621612  1
  O  O21  1  0.56074832  0.04771951  0.70711688  1
  O  O22  1  0.04771951  0.48697119  0.54044988  1
  O  O23  1  0.95228049  0.51302881  0.04044988  1
  O  O24  1  0.78532478  0.80243343  0.59870636  1
  O  O25  1  0.01710864  0.21467522  0.26537336  1
  O  O26  1  0.21467522  0.19756657  0.09870636  1
  O  O27  1  0.98289136  0.19756657  0.06796064  1
  O  O28  1  0.19756657  0.98289136  0.93203936  1
  O  O29  1  0.98289136  0.78532478  0.76537336  1
  O  O30  1  0.80243343  0.78532478  0.40129364  1
  O  O31  1  0.01710864  0.80243343  0.56796064  1
  O  O32  1  0.80243343  0.01710864  0.43203936  1
  O  O33  1  0.19756657  0.21467522  0.90129364  1
  O  O34  1  0.21467522  0.01710864  0.73462664  1
  O  O35  1  0.78532478  0.98289136  0.23462664  1
  O  O36  1  0.88908172  0.11091828  0.75000000  1
  O  O37  1  0.22183655  0.11091828  0.41666700  1
  O  O38  1  0.11091828  0.88908172  0.25000000  1
  O  O39  1  0.77816345  0.88908172  0.91666700  1
  O  O40  1  0.88908172  0.77816345  0.08333300  1
  O  O41  1  0.11091828  0.22183655  0.58333300  1
  O  O42  1  0.59370872  0.76994447  0.48669008  1
  O  O43  1  0.17623576  0.40629128  0.15335708  1
  O  O44  1  0.40629128  0.23005553  0.98669008  1
  O  O45  1  0.82376424  0.23005553  0.17997692  1
  O  O46  1  0.23005553  0.82376424  0.82002308  1
  O  O47  1  0.82376424  0.59370872  0.65335708  1
  O  O48  1  0.76994447  0.59370872  0.51330992  1
  O  O49  1  0.17623576  0.76994447  0.67997692  1
  O  O50  1  0.76994447  0.17623576  0.32002308  1
  O  O51  1  0.23005553  0.40629128  0.01330992  1
  O  O52  1  0.40629128  0.17623576  0.84664292  1
  O  O53  1  0.59370872  0.82376424  0.34664292  1
  O  O54  1  0.69038612  0.99460737  0.58709108  1
  O  O55  1  0.30422125  0.30961388  0.25375808  1
  O  O56  1  0.30961388  0.00539263  0.08709108  1
  O  O57  1  0.69577875  0.00539263  0.07957592  1
  O  O58  1  0.00539263  0.69577875  0.92042408  1
  O  O59  1  0.69577875  0.69038612  0.75375808  1
  O  O60  1  0.99460737  0.69038612  0.41290892  1
  O  O61  1  0.30422125  0.99460737  0.57957592  1
  O  O62  1  0.99460737  0.30422125  0.42042408  1
  O  O63  1  0.00539263  0.30961388  0.91290892  1
  O  O64  1  0.30961388  0.30422125  0.74624192  1
  O  O65  1  0.69038612  0.69577875  0.24624192  1
loop_
_geom_bond_atom_site_label_1
_geom_bond_atom_site_label_2
_geom_bond_distance
_geom_bond_site_symmetry_2
Li0 O36 1.973529 1_555
Li0 O21 2.084592 1_555
Li0 O12 2.084592 1_555
Li1 O37 1.973529 1_555
Li1 O13 2.084592 1_555
Li1 O19 2.084592 1_555
Li2 O38 1.973529 1_555
Li2 O14 2.084592 1_555
Li2 O18 2.084592 1_555
Li3 O39 1.973529 1_555
Li3 O17 2.084592 1_555
Li3 O15 2.084592 1_555
Li4 O40 1.973529 1_555
Li4 O23 2.084592 1_555
Li4 O16 2.084592 1_555
Li5 O41 1.973529 1_555
Li5 O22 2.084592 1_555
Li5 O20 2.084592 1_555
Co0 O59 1.946637 1_555
Co0 O64 1.946637 1_555
Co0 O20 2.064176 1_555
Co0 O15 2.064176 1_555
Co1 O62 1.946636 1_455
Co1 O60 1.946637 1_455
Co1 O22 2.064160 1_555
Co1 O14 2.064176 1_555
Co2 O65 1.946637 1_555
Co2 O55 1.946637 1_555
Co2 O16 2.064176 1_555
Co2 O19 2.064176 1_555
Co3 O58 1.946636 1_655
Co3 O63 1.946637 1_655
Co3 O23 2.064160 1_556
Co3 O12 2.064176 1_555
Co4 O57 1.946636 1_565
Co4 O56 1.946637 1_565
Co4 O17 2.064160 1_554
Co4 O18 2.064176 1_555
Co5 O61 1.946636 1_545
Co5 O54 1.946637 1_545
Co5 O13 2.064160 1_555
Co5 O21 2.064176 1_555
B0 O34 1.472151 1_565
B0 O29 1.472151 1_455
B0 O46 1.485343 1_555
B0 O49 1.485343 1_555
B1 O32 1.472148 1_565
B1 O30 1.472151 1_555
B1 O42 1.485343 1_555
B1 O53 1.485355 1_555
B2 O35 1.472151 1_545
B2 O25 1.472151 1_655
B2 O45 1.485343 1_555
B2 O50 1.485343 1_555
B3 O28 1.472148 1_545
B3 O33 1.472151 1_555
B3 O44 1.485343 1_555
B3 O52 1.485355 1_555
B4 O27 1.472148 1_455
B4 O26 1.472151 1_555
B4 O51 1.485343 1_555
B4 O43 1.485355 1_555
B5 O31 1.472148 1_655
B5 O24 1.472151 1_555
B5 O48 1.485343 1_555
B5 O47 1.485355 1_555
H0 O17 0.983641 1_545
H1 O20 0.983632 1_555
H2 O13 0.983641 1_565
H3 O21 0.983641 1_565
H4 O14 0.983641 1_655
H5 O16 0.983632 1_555
H6 O23 0.983641 1_455
H7 O18 0.983641 1_545
H8 O12 0.983641 1_455
H9 O22 0.983641 1_655
H10 O19 0.983632 1_555
H11 O15 0.983632 1_555
O0 P9 1.544034 1_555
O1 P7 1.544034 1_555
O2 P6 1.544034 1_555
O3 P5 1.544034 1_555
O4 P11 1.544034 1_555
O5 P3 1.544034 1_555
O6 P2 1.544034 1_555
O7 P1 1.544034 1_555
O8 P10 1.544034 1_555
O9 P0 1.544034 1_555
O10 P8 1.544034 1_555
O11 P4 1.544034 1_555
O24 P0 1.541244 1_555
O25 P1 1.541244 1_555
O26 P2 1.541244 1_555
O27 P3 1.541244 1_555
O28 P4 1.541244 1_555
O29 P5 1.541244 1_555
O30 P6 1.541244 1_555
O31 P7 1.541244 1_555
O32 P8 1.541244 1_555
O33 P9 1.541244 1_555
O34 P10 1.541244 1_555
O35 P11 1.541244 1_555
O42 P0 1.584271 1_555
O43 P1 1.584271 1_555
O44 P2 1.584271 1_556
O45 P3 1.584271 1_555
O46 P4 1.584271 1_555
O47 P5 1.584271 1_555
O48 P6 1.584271 1_555
O49 P7 1.584271 1_555
O50 P8 1.584271 1_555
O51 P9 1.584271 1_554
O52 P10 1.584271 1_555
O53 P11 1.584271 1_555
O54 P0 1.539989 1_555
O55 P1 1.539989 1_555
O56 P2 1.539989 1_555
O57 P3 1.539989 1_555
O58 P4 1.539989 1_555
O59 P5 1.539989 1_555
O60 P6 1.539989 1_555
O61 P7 1.539989 1_555
O62 P8 1.539989 1_555
O63 P9 1.539989 1_555
O64 P10 1.539989 1_555
O65 P11 1.539989 1_555
