# generated using pymatgen
data_Sr3TaCoO7
_symmetry_space_group_name_H-M   'P 1'
_cell_length_a   3.96585516
_cell_length_b   12.45809868
_cell_length_c   14.74113381
_cell_angle_alpha   70.13776894
_cell_angle_beta   82.26250769
_cell_angle_gamma   80.86825844
_symmetry_Int_Tables_number   1
_chemical_formula_structural   Sr3TaCoO7
_chemical_formula_sum   'Sr12 Ta4 Co4 O28'
_cell_volume   673.74846003
_cell_formula_units_Z   4
loop_
 _symmetry_equiv_pos_site_id
 _symmetry_equiv_pos_as_xyz
  1  'x, y, z'
loop_
 _atom_site_type_symbol
 _atom_site_label
 _atom_site_symmetry_multiplicity
 _atom_site_fract_x
 _atom_site_fract_y
 _atom_site_fract_z
 _atom_site_occupancy
  Sr  Sr0  1  0.52066500  0.09856100  0.86025200  1
  Sr  Sr1  1  0.51961800  0.34926900  0.61209900  1
  Sr  Sr2  1  0.51963200  0.85134700  0.11006100  1
  Sr  Sr3  1  0.51552700  0.60391200  0.35721900  1
  Sr  Sr4  1  0.30882900  0.61431300  0.76822900  1
  Sr  Sr5  1  0.30873300  0.86400400  0.51917500  1
  Sr  Sr6  1  0.30796800  0.36517700  0.01922100  1
  Sr  Sr7  1  0.30773000  0.11644300  0.26934100  1
  Sr  Sr8  1  0.68298500  0.89530500  0.73819000  1
  Sr  Sr9  1  0.68728700  0.14918600  0.48557900  1
  Sr  Sr10  1  0.68398500  0.64541600  0.98707700  1
  Sr  Sr11  1  0.68108300  0.39415300  0.24289200  1
  Ta  Ta0  1  0.90290200  0.62128100  0.57277700  1
  Ta  Ta1  1  0.90114500  0.87390700  0.32372300  1
  Ta  Ta2  1  0.90176000  0.37260300  0.82405000  1
  Ta  Ta3  1  0.90136500  0.12351400  0.07420300  1
  Co  Co0  1  0.10836700  0.86252000  0.92066300  1
  Co  Co1  1  0.10920700  0.11491400  0.66712700  1
  Co  Co2  1  0.10837700  0.61361800  0.16903300  1
  Co  Co3  1  0.10329800  0.37036500  0.42348600  1
  O  O0  1  0.19946200  0.75194000  0.84981600  1
  O  O1  1  0.19832200  0.99765900  0.60465600  1
  O  O2  1  0.19801000  0.50770600  0.09555200  1
  O  O3  1  0.19772800  0.25161300  0.35234000  1
  O  O4  1  0.80653700  0.74231500  0.64512800  1
  O  O5  1  0.80495800  0.99276900  0.39839900  1
  O  O6  1  0.80502800  0.49458300  0.89573900  1
  O  O7  1  0.80408000  0.24565500  0.14658100  1
  O  O8  1  0.99225400  0.50861100  0.50729300  1
  O  O9  1  0.98976800  0.76595600  0.25446400  1
  O  O10  1  0.99002200  0.26079700  0.75877800  1
  O  O11  1  0.98955700  0.01152500  0.00902500  1
  O  O12  1  0.59775000  0.87839100  0.92625200  1
  O  O13  1  0.59828500  0.12399500  0.67933100  1
  O  O14  1  0.59610600  0.63239600  0.17344800  1
  O  O15  1  0.59545800  0.37987300  0.42734200  1
  O  O16  1  0.09754400  0.00125200  0.80355200  1
  O  O17  1  0.09582300  0.24946000  0.55931100  1
  O  O18  1  0.09704200  0.75668200  0.04926000  1
  O  O19  1  0.09329200  0.51168300  0.29710700  1
  O  O20  1  0.39802800  0.62755900  0.57664800  1
  O  O21  1  0.39632200  0.87919000  0.32845900  1
  O  O22  1  0.39638700  0.37984000  0.82752200  1
  O  O23  1  0.39619600  0.12992500  0.07791300  1
  O  O24  1  0.89708300  0.50374500  0.70236200  1
  O  O25  1  0.89856100  0.75242400  0.45159100  1
  O  O26  1  0.89561000  0.25541700  0.95349500  1
  O  O27  1  0.89432600  0.00723200  0.20423500  1
loop_
_geom_bond_atom_site_label_1
_geom_bond_atom_site_label_2
_geom_bond_distance
_geom_bond_site_symmetry_2
Co0 O18 1.905654 1_556
Co0 O0 1.958858 1_555
Co0 O16 1.984487 1_565
Co0 O12 1.996421 1_455
Co0 O12 1.997149 1_555
Co0 O11 2.562176 1_466
Co1 O17 1.876864 1_555
Co1 O1 1.941496 1_545
Co1 O13 1.996171 1_555
Co1 O13 1.998434 1_455
Co1 O16 2.027874 1_555
Co1 O10 2.564300 1_455
Co2 O19 1.882861 1_555
Co2 O2 1.938887 1_555
Co2 O14 1.997049 1_555
Co2 O14 2.002553 1_455
Co2 O18 2.038028 1_555
Co2 O9 2.567147 1_455
Co3 O15 1.983622 1_555
Co3 O15 1.992878 1_455
Co3 O3 2.049776 1_555
Co3 O17 2.056063 1_555
Co3 O19 2.083455 1_555
Co3 O8 2.396877 1_455
O0 Sr4 2.366231 1_555
O0 Sr8 2.795559 1_555
O0 Sr8 2.800421 1_455
O0 Sr10 2.820832 1_455
O0 Sr10 2.821426 1_555
O1 Sr5 2.365969 1_555
O1 Sr8 2.777762 1_455
O1 Sr8 2.780367 1_555
O1 Sr9 2.871257 1_465
O1 Sr9 2.898069 1_565
O2 Sr6 2.364086 1_555
O2 Sr10 2.749442 1_454
O2 Sr10 2.751414 1_554
O2 Sr11 2.924908 1_455
O2 Sr11 2.925963 1_555
O3 Sr7 2.355020 1_555
O3 Sr9 2.762270 1_455
O3 Sr11 2.780617 1_555
O3 Sr11 2.782619 1_455
O3 Sr9 2.791565 1_555
O4 Ta0 2.087415 1_555
O4 Sr8 2.655942 1_555
O4 Sr5 2.786068 1_655
O4 Sr5 2.787017 1_555
O4 Sr4 2.792880 1_555
O4 Sr4 2.793339 1_655
O5 Ta1 2.089341 1_555
O5 Sr9 2.630245 1_565
O5 Sr5 2.780975 1_555
O5 Sr5 2.781092 1_655
O5 Sr7 2.816176 1_665
O5 Sr7 2.817049 1_565
O6 Ta2 2.090526 1_555
O6 Sr10 2.614031 1_555
O6 Sr4 2.789177 1_655
O6 Sr4 2.790975 1_555
O6 Sr6 2.801204 1_556
O6 Sr6 2.802440 1_656
O7 Ta3 2.099670 1_555
O7 Sr11 2.643472 1_555
O7 Sr6 2.787461 1_655
O7 Sr6 2.788931 1_555
O7 Sr7 2.794267 1_555
O7 Sr7 2.798012 1_655
O8 Ta0 1.923114 1_555
O8 Sr1 2.856251 1_555
O8 Sr1 2.858307 1_655
O8 Sr3 2.893325 1_655
O8 Sr3 2.916702 1_555
O9 Ta1 1.913347 1_555
O9 Sr2 2.835416 1_555
O9 Sr2 2.836362 1_655
O9 Sr3 2.855495 1_655
O9 Sr3 2.875282 1_555
O10 Ta2 1.911471 1_555
O10 Sr0 2.859619 1_555
O10 Sr1 2.860835 1_555
O10 Sr1 2.862482 1_655
O10 Sr0 2.862600 1_655
O11 Ta3 1.912451 1_555
O11 Sr2 2.843762 1_545
O11 Sr2 2.848078 1_645
O11 Sr0 2.878459 1_554
O11 Sr0 2.878720 1_654
O12 Sr0 2.562046 1_565
O12 Sr2 2.595754 1_556
O12 Sr8 2.686512 1_555
O12 Sr10 2.710000 1_555
O13 Sr0 2.558048 1_555
O13 Sr1 2.621302 1_555
O13 Sr8 2.660386 1_545
O13 Sr9 2.745022 1_555
O14 Sr2 2.547015 1_555
O14 Sr3 2.591592 1_555
O14 Sr10 2.674481 1_554
O14 Sr11 2.771577 1_555
O15 Sr1 2.600701 1_555
O15 Sr3 2.608857 1_555
O15 Sr11 2.642309 1_555
O15 Sr9 2.684120 1_555
O16 Sr0 2.587594 1_455
O16 Sr0 2.587648 1_555
O16 Sr8 2.711127 1_545
O16 Sr8 2.711639 1_445
O17 Sr1 2.578647 1_555
O17 Sr1 2.578821 1_455
O17 Sr9 2.721428 1_455
O17 Sr9 2.747738 1_555
O18 Sr2 2.597371 1_455
O18 Sr2 2.598655 1_555
O18 Sr10 2.726468 1_454
O18 Sr10 2.728504 1_554
O19 Sr3 2.571291 1_555
O19 Sr3 2.581681 1_455
O19 Sr11 2.713253 1_455
O19 Sr11 2.725200 1_555
O20 Ta0 1.985187 1_555
O20 Ta0 1.986716 1_455
O20 Sr4 2.749704 1_555
O20 Sr5 2.752079 1_555
O21 Ta1 1.985218 1_555
O21 Ta1 1.986651 1_455
O21 Sr5 2.730702 1_555
O21 Sr7 2.760742 1_565
O22 Ta2 1.986203 1_455
O22 Ta2 1.986421 1_555
O22 Sr4 2.728027 1_555
O22 Sr6 2.746735 1_556
O23 Ta3 1.985475 1_455
O23 Ta3 1.986395 1_555
O23 Sr6 2.737425 1_555
O23 Sr7 2.746686 1_555
O24 Ta0 1.972760 1_555
O24 Ta2 1.973636 1_555
O24 Sr4 2.748875 1_655
O24 Sr4 2.749838 1_555
O25 Ta0 1.968997 1_555
O25 Ta1 1.976054 1_555
O25 Sr5 2.768775 1_655
O25 Sr5 2.770924 1_555
O26 Ta2 1.969476 1_555
O26 Ta3 1.969550 1_556
O26 Sr6 2.742183 1_656
O26 Sr6 2.742354 1_556
O27 Ta1 1.967896 1_545
O27 Ta3 1.971067 1_555
O27 Sr7 2.732326 1_555
O27 Sr7 2.734814 1_655
