# generated using pymatgen
data_Co4P6SN12
_symmetry_space_group_name_H-M   'P 1'
_cell_length_a   6.66585408
_cell_length_b   6.66585408
_cell_length_c   6.66585408
_cell_angle_alpha   76.55736555
_cell_angle_beta   67.43296119
_cell_angle_gamma   112.56703881
_symmetry_Int_Tables_number   1
_chemical_formula_structural   Co4P6SN12
_chemical_formula_sum   'Co4 P6 S1 N12'
_cell_volume   226.13957046
_cell_formula_units_Z   1
loop_
 _symmetry_equiv_pos_site_id
 _symmetry_equiv_pos_as_xyz
  1  'x, y, z'
loop_
 _atom_site_type_symbol
 _atom_site_label
 _atom_site_symmetry_multiplicity
 _atom_site_fract_x
 _atom_site_fract_y
 _atom_site_fract_z
 _atom_site_occupancy
  Co  Co0  1  0.20566000  0.22662300  0.77337700  1
  Co  Co1  1  0.79434000  0.02096200  0.97903800  1
  Co  Co2  1  0.00000000  0.77337700  0.02096200  1
  Co  Co3  1  0.00000000  0.97903800  0.22662300  1
  P  P0  1  0.59491400  0.53536800  0.46463200  1
  P  P1  1  0.40508600  0.94045500  0.05954500  1
  P  P2  1  0.00000000  0.46463200  0.94045500  1
  P  P3  1  0.00000000  0.05954500  0.53536800  1
  P  P4  1  0.50000000  0.50000000  0.00000000  1
  P  P5  1  0.50000000  0.00000000  0.50000000  1
  S  S0  1  0.00000000  0.50000000  0.50000000  1
  N  N0  1  0.30890100  0.49868600  0.50131400  1
  N  N1  1  0.48212400  0.47152800  0.76697400  1
  N  N2  1  0.48212400  0.23302600  0.52847200  1
  N  N3  1  0.69109900  0.18978500  0.81021500  1
  N  N4  1  0.51787600  0.75090200  0.01059500  1
  N  N5  1  0.51787600  0.98940500  0.24909800  1
  N  N6  1  0.00000000  0.50131400  0.18978500  1
  N  N7  1  0.76149700  0.52847200  0.98940500  1
  N  N8  1  0.23850300  0.76697400  0.75090200  1
  N  N9  1  0.00000000  0.81021500  0.49868600  1
  N  N10  1  0.23850300  0.24909800  0.23302600  1
  N  N11  1  0.76149700  0.01059500  0.47152800  1
loop_
_geom_bond_atom_site_label_1
_geom_bond_atom_site_label_2
_geom_bond_distance
_geom_bond_site_symmetry_2
Co0 N0 1.899057 1_555
Co0 N2 1.913421 1_555
Co0 N1 1.913421 1_555
Co1 N3 1.899065 1_555
Co1 N5 1.913424 1_546
Co1 N4 1.913424 1_546
Co2 N6 1.899060 1_555
Co2 N7 1.913417 1_454
Co2 N8 1.913420 1_554
Co3 N9 1.899060 1_555
Co3 N11 1.913417 1_465
Co3 N10 1.913420 1_565
N0 P0 1.735221 1_555
N0 S0 2.065829 1_555
N1 P4 1.650693 1_556
N1 P0 1.732269 1_555
N2 P5 1.650693 1_555
N2 P0 1.732269 1_555
N3 P1 1.735217 1_546
N3 S0 2.065829 1_655
N4 P4 1.650691 1_555
N4 P1 1.732276 1_555
N5 P5 1.650691 1_565
N5 P1 1.732276 1_555
N6 P2 1.735215 1_554
N6 S0 2.065829 1_555
N7 P4 1.650689 1_556
N7 P2 1.732276 1_655
N8 P5 1.650691 1_565
N8 P2 1.732271 1_555
N9 P3 1.735215 1_565
N9 S0 2.065829 1_555
N10 P4 1.650691 1_555
N10 P3 1.732271 1_555
N11 P5 1.650689 1_555
N11 P3 1.732276 1_655
