# generated using pymatgen
data_LiBeB
_symmetry_space_group_name_H-M   'P 1'
_cell_length_a   3.40346800
_cell_length_b   4.99733800
_cell_length_c   6.07422689
_cell_angle_alpha   114.29003812
_cell_angle_beta   106.26954392
_cell_angle_gamma   90.00000000
_symmetry_Int_Tables_number   1
_chemical_formula_structural   LiBeB
_chemical_formula_sum   'Li4 Be4 B4'
_cell_volume   89.60795293
_cell_formula_units_Z   4
loop_
 _symmetry_equiv_pos_site_id
 _symmetry_equiv_pos_as_xyz
  1  'x, y, z'
loop_
 _atom_site_type_symbol
 _atom_site_label
 _atom_site_symmetry_multiplicity
 _atom_site_fract_x
 _atom_site_fract_y
 _atom_site_fract_z
 _atom_site_occupancy
  Li  Li0  1  0.34682900  0.24866700  0.69365800  1
  Li  Li1  1  0.65317100  0.55501000  0.30634200  1
  Li  Li2  1  0.50000000  0.14575100  0.00000000  1
  Li  Li3  1  0.00000000  0.90120100  0.00000000  1
  Be  Be0  1  0.17663000  0.30995900  0.35326000  1
  Be  Be1  1  0.82337000  0.95669900  0.64674000  1
  Be  Be2  1  0.17329400  0.83736000  0.34658800  1
  Be  Be3  1  0.82670600  0.49077200  0.65341200  1
  B  B0  1  0.66604200  0.04386200  0.33208500  1
  B  B1  1  0.33395800  0.71177800  0.66791500  1
  B  B2  1  0.50000000  0.66203800  0.00000000  1
  B  B3  1  0.00000000  0.44581300  0.00000000  1
loop_
_geom_bond_atom_site_label_1
_geom_bond_atom_site_label_2
_geom_bond_distance
_geom_bond_site_symmetry_2
Li2 Li3 2.095095 1_645
Li2 Li3 2.095095 1_545
Be0 Li0 2.134127 1_555
Be0 Li1 2.181174 1_555
Be0 Li1 2.181174 1_455
Be0 Li3 2.193061 1_545
Be1 Li1 2.134125 1_555
Be1 Li0 2.181171 1_565
Be1 Li0 2.181171 1_665
Be1 Li3 2.193061 1_656
Be2 Li1 2.158264 1_555
Be2 Li1 2.158264 1_455
Be2 Li3 2.176830 1_555
Be2 Li0 2.180693 1_565
Be3 Li0 2.158267 1_555
Be3 Li0 2.158267 1_655
Be3 Li3 2.176830 1_656
Be3 Li1 2.180696 1_555
B0 Be2 2.010666 1_545
B0 Be2 2.010669 1_645
B0 Be1 2.059358 1_545
B0 Be0 2.130429 1_555
B0 Be0 2.130432 1_655
B0 Li2 2.203140 1_555
B0 Be3 2.216345 1_555
B0 Li3 2.443481 1_545
B0 Li3 2.443483 1_645
B1 Be3 2.010669 1_555
B1 Be3 2.010672 1_455
B1 Be0 2.059361 1_555
B1 Be1 2.130426 1_555
B1 Be1 2.130429 1_455
B1 Li2 2.203137 1_566
B1 Be2 2.216341 1_555
B1 Li3 2.443481 1_656
B1 Li3 2.443483 1_556
B2 B3 2.015809 1_555
B2 B3 2.015809 1_655
B2 Li1 2.072596 1_555
B2 Li0 2.072599 1_554
B2 Li3 2.079507 1_655
B2 Li3 2.079507 1_555
B3 Be2 2.126935 1_555
B3 Be3 2.126935 1_454
B3 Li2 2.268134 1_455
B3 Li2 2.268134 1_555
B3 Li3 2.275728 1_555
B3 Li1 2.355643 1_555
B3 Li1 2.355643 1_455
B3 Li0 2.355644 1_454
B3 Li0 2.355644 1_554
B3 Be0 2.429491 1_555
B3 Be1 2.429491 1_444
