# generated using pymatgen
data_ZnAgPd2
_symmetry_space_group_name_H-M   'P 1'
_cell_length_a   10.63643649
_cell_length_b   10.63643649
_cell_length_c   10.63643649
_cell_angle_alpha   122.91279355
_cell_angle_beta   119.00819678
_cell_angle_gamma   88.37850472
_symmetry_Int_Tables_number   1
_chemical_formula_structural   ZnAgPd2
_chemical_formula_sum   'Zn1 Ag1 Pd2'
_cell_volume   836.91212197
_cell_formula_units_Z   1
loop_
 _symmetry_equiv_pos_site_id
 _symmetry_equiv_pos_as_xyz
  1  'x, y, z'
loop_
 _atom_site_type_symbol
 _atom_site_label
 _atom_site_symmetry_multiplicity
 _atom_site_fract_x
 _atom_site_fract_y
 _atom_site_fract_z
 _atom_site_occupancy
  Zn  Zn0  1  0.00000000  0.00000000  0.00000000  1
  Ag  Ag0  1  0.00000000  0.50000000  0.50000000  1
  Pd  Pd0  1  0.00000000  0.23868700  0.23868700  1
  Pd  Pd1  1  0.00000000  0.76131300  0.76131300  1
loop_
_geom_bond_atom_site_label_1
_geom_bond_atom_site_label_2
_geom_bond_distance
_geom_bond_site_symmetry_2
Ag0 Pd1 2.656184 1_555
Ag0 Pd0 2.656184 1_555
Pd0 Zn0 2.426197 1_555
Pd1 Zn0 2.426197 1_566
