# generated using pymatgen
data_La2BiN
_symmetry_space_group_name_H-M   'P 1'
_cell_length_a   4.83408148
_cell_length_b   4.83408148
_cell_length_c   9.56228833
_cell_angle_alpha   90.00000000
_cell_angle_beta   90.00000000
_cell_angle_gamma   90.00000000
_symmetry_Int_Tables_number   1
_chemical_formula_structural   La2BiN
_chemical_formula_sum   'La4 Bi2 N2'
_cell_volume   223.45484078
_cell_formula_units_Z   2
loop_
 _symmetry_equiv_pos_site_id
 _symmetry_equiv_pos_as_xyz
  1  'x, y, z'
loop_
 _atom_site_type_symbol
 _atom_site_label
 _atom_site_symmetry_multiplicity
 _atom_site_fract_x
 _atom_site_fract_y
 _atom_site_fract_z
 _atom_site_occupancy
  La  La0  1  0.00000000  0.00000000  0.00000000  1
  La  La1  1  0.50000000  0.50000000  0.00000000  1
  La  La2  1  0.00000000  0.50000000  0.67517727  1
  La  La3  1  0.50000000  -0.00000000  0.32482273  1
  Bi  Bi0  1  0.00000000  0.50000000  0.30117510  1
  Bi  Bi1  1  0.50000000  -0.00000000  0.69882490  1
  N  N0  1  -0.00000000  0.50000000  0.91243930  1
  N  N1  1  0.50000000  -0.00000000  0.08756070  1
loop_
_geom_bond_atom_site_label_1
_geom_bond_atom_site_label_2
_geom_bond_distance
_geom_bond_site_symmetry_2
La0 N1 2.557953 1_455
La0 N1 2.557953 1_555
La0 N0 2.557953 1_544
La0 N0 2.557953 1_554
La1 N1 2.557953 1_555
La1 N1 2.557953 1_565
La1 N0 2.557953 1_654
La1 N0 2.557953 1_554
La2 N0 2.268768 1_555
La3 N1 2.268768 1_555
Bi0 La3 3.425683 1_555
Bi0 La3 3.425683 1_565
Bi0 La3 3.425683 1_465
Bi0 La3 3.425683 1_455
Bi0 La2 3.576317 1_555
Bi0 La0 3.759793 1_565
Bi0 La1 3.759793 1_555
Bi0 La1 3.759793 1_455
Bi0 La0 3.759793 1_555
Bi1 La2 3.425683 1_655
Bi1 La2 3.425683 1_645
Bi1 La2 3.425683 1_555
Bi1 La2 3.425683 1_545
Bi1 La3 3.576317 1_555
Bi1 La1 3.759793 1_556
Bi1 La0 3.759793 1_656
Bi1 La1 3.759793 1_546
Bi1 La0 3.759793 1_556
