# generated using pymatgen
data_LiS2N3O8
_symmetry_space_group_name_H-M   'P 1'
_cell_length_a   8.35081300
_cell_length_b   6.04804700
_cell_length_c   10.02021581
_cell_angle_alpha   90.00000000
_cell_angle_beta   96.42912260
_cell_angle_gamma   90.00000000
_symmetry_Int_Tables_number   1
_chemical_formula_structural   LiS2N3O8
_chemical_formula_sum   'Li2 S4 N6 O16'
_cell_volume   502.89943363
_cell_formula_units_Z   2
loop_
 _symmetry_equiv_pos_site_id
 _symmetry_equiv_pos_as_xyz
  1  'x, y, z'
loop_
 _atom_site_type_symbol
 _atom_site_label
 _atom_site_symmetry_multiplicity
 _atom_site_fract_x
 _atom_site_fract_y
 _atom_site_fract_z
 _atom_site_occupancy
  Li  Li0  1  0.94341900  0.10241900  0.17113000  1
  Li  Li1  1  0.05658100  0.60241900  0.82887000  1
  S  S0  1  0.57637200  0.08804700  0.30585600  1
  S  S1  1  0.42362800  0.58804700  0.69414400  1
  S  S2  1  0.07697200  0.61008400  0.16812500  1
  S  S3  1  0.92302800  0.11008400  0.83187500  1
  N  N0  1  0.60484900  0.11186500  0.78563600  1
  N  N1  1  0.39515100  0.61186500  0.21436400  1
  N  N2  1  0.19990200  0.06687500  0.50815300  1
  N  N3  1  0.80009800  0.56687500  0.49184700  1
  N  N4  1  0.70956600  0.55305200  0.03347600  1
  N  N5  1  0.29043400  0.05305200  0.96652400  1
  O  O0  1  0.60694400  0.07447800  0.44919600  1
  O  O1  1  0.39305600  0.57447800  0.55080400  1
  O  O2  1  0.51942200  0.70257000  0.25936700  1
  O  O3  1  0.48057800  0.20257000  0.74063300  1
  O  O4  1  0.42326000  0.15791600  0.24133100  1
  O  O5  1  0.57674000  0.65791600  0.75866900  1
  O  O6  1  0.71020500  0.07635500  0.22700500  1
  O  O7  1  0.28979500  0.57635500  0.77299500  1
  O  O8  1  0.97575300  0.78258200  0.21314300  1
  O  O9  1  0.02424700  0.28258200  0.78685700  1
  O  O10  1  0.26111200  0.72472500  0.24476700  1
  O  O11  1  0.73888800  0.22472500  0.75523300  1
  O  O12  1  0.09782300  0.60819600  0.02662300  1
  O  O13  1  0.90217700  0.10819600  0.97337700  1
  O  O14  1  0.06184800  0.39443700  0.22874100  1
  O  O15  1  0.93815200  0.89443700  0.77125900  1
loop_
_geom_bond_atom_site_label_1
_geom_bond_atom_site_label_2
_geom_bond_distance
_geom_bond_site_symmetry_2
Li0 O13 1.973184 1_554
Li0 O8 1.991617 1_545
Li0 O14 2.074299 1_655
Li0 O6 2.091737 1_555
Li1 O12 1.973184 1_556
Li1 O9 1.991617 1_555
Li1 O15 2.074299 1_455
Li1 O7 2.091737 1_555
N0 O3 1.215092 1_555
N0 O11 1.374046 1_555
N1 O2 1.215092 1_555
N1 O10 1.374046 1_555
O0 S0 1.432741 1_555
O1 S1 1.432741 1_555
O4 S0 1.430491 1_555
O5 S1 1.430491 1_555
O6 S0 1.440861 1_555
O7 S1 1.440861 1_555
O8 S2 1.446293 1_655
O9 S3 1.446293 1_455
O10 S2 1.780627 1_555
O11 S3 1.780627 1_555
O12 S2 1.447800 1_555
O13 S3 1.447800 1_555
O14 S2 1.450206 1_555
O15 S3 1.450206 1_565
