# generated using pymatgen
data_TaBRu
_symmetry_space_group_name_H-M   'P 1'
_cell_length_a   3.14789344
_cell_length_b   6.31432576
_cell_length_c   10.82234736
_cell_angle_alpha   89.99996642
_cell_angle_beta   90.00000000
_cell_angle_gamma   90.00000000
_symmetry_Int_Tables_number   1
_chemical_formula_structural   TaBRu
_chemical_formula_sum   'Ta6 B6 Ru6'
_cell_volume   215.11390065
_cell_formula_units_Z   6
loop_
 _symmetry_equiv_pos_site_id
 _symmetry_equiv_pos_as_xyz
  1  'x, y, z'
loop_
 _atom_site_type_symbol
 _atom_site_label
 _atom_site_symmetry_multiplicity
 _atom_site_fract_x
 _atom_site_fract_y
 _atom_site_fract_z
 _atom_site_occupancy
  Ta  Ta0  1  -0.00000000  0.22197803  0.95642779  1
  Ta  Ta1  1  0.00000000  0.77802791  0.04347538  1
  Ta  Ta2  1  -0.00000000  0.22197603  0.54357321  1
  Ta  Ta3  1  -0.00000000  0.77803091  0.45652362  1
  Ta  Ta4  1  -0.00000000  0.14404596  0.24999900  1
  Ta  Ta5  1  -0.00000000  0.85598542  0.75000000  1
  B  B0  1  0.50000000  0.04987177  0.08387029  1
  B  B1  1  0.50000000  0.95014386  0.91609035  1
  B  B2  1  0.50000000  0.04987077  0.41613171  1
  B  B3  1  0.50000000  0.95014386  0.58390865  1
  B  B4  1  -0.00000000  0.55100110  0.25000100  1
  B  B5  1  0.00000000  0.44898903  0.74999900  1
  Ru  Ru0  1  0.50000000  0.42648529  0.12503384  1
  Ru  Ru1  1  0.50000000  0.57347732  0.87487015  1
  Ru  Ru2  1  0.50000000  0.42648429  0.37496116  1
  Ru  Ru3  1  0.50000000  0.57347832  0.62513485  1
  Ru  Ru4  1  0.50000000  0.79842142  0.24999800  1
  Ru  Ru5  1  0.50000000  0.20158969  0.75000200  1
loop_
_geom_bond_atom_site_label_1
_geom_bond_atom_site_label_2
_geom_bond_distance
_geom_bond_site_symmetry_2
B0 B1 1.921867 1_544
B0 Ta0 2.358085 1_554
B0 Ta0 2.358085 1_654
B0 Ta1 2.369564 1_645
B0 Ta1 2.369564 1_545
B0 Ru4 2.398610 1_545
B0 Ru0 2.419428 1_555
B0 Ta4 2.462391 1_655
B0 Ta4 2.462391 1_555
B1 Ta1 2.357750 1_656
B1 Ta1 2.357750 1_556
B1 Ta0 2.369405 1_665
B1 Ta0 2.369405 1_565
B1 Ru5 2.398271 1_565
B1 Ru1 2.419870 1_555
B1 Ta5 2.462064 1_655
B1 Ta5 2.462064 1_555
B2 B3 1.921833 1_545
B2 Ta2 2.358077 1_655
B2 Ta2 2.358077 1_555
B2 Ta3 2.369539 1_545
B2 Ta3 2.369539 1_645
B2 Ru4 2.398655 1_545
B2 Ru2 2.419441 1_555
B2 Ta4 2.462423 1_555
B2 Ta4 2.462423 1_655
B3 Ta3 2.357742 1_555
B3 Ta3 2.357742 1_655
B3 Ta2 2.369392 1_565
B3 Ta2 2.369392 1_665
B3 Ru5 2.398313 1_565
B3 Ru3 2.419875 1_555
B3 Ta5 2.462071 1_555
B3 Ta5 2.462071 1_655
B4 Ru4 2.217671 1_555
B4 Ru4 2.217671 1_455
B4 Ru2 2.219091 1_555
B4 Ru2 2.219091 1_455
B4 Ru0 2.219135 1_455
B4 Ru0 2.219135 1_555
B4 Ta4 2.569647 1_555
B4 Ta3 2.655284 1_555
B4 Ta1 2.655300 1_555
B5 Ru5 2.217578 1_455
B5 Ru5 2.217578 1_555
B5 Ru3 2.218396 1_555
B5 Ru3 2.218396 1_455
B5 Ru1 2.218441 1_455
B5 Ru1 2.218441 1_555
B5 Ta5 2.569908 1_555
B5 Ta2 2.654345 1_555
B5 Ta0 2.654364 1_555
Ru0 Ta0 2.733937 1_654
Ru0 Ta0 2.733937 1_554
Ru0 Ta4 2.736220 1_555
Ru0 Ta4 2.736220 1_655
Ru0 Ta1 2.860716 1_555
Ru0 Ta1 2.860716 1_655
Ru1 Ta1 2.734060 1_656
Ru1 Ta1 2.734060 1_556
Ru1 Ta5 2.735995 1_655
Ru1 Ta5 2.735995 1_555
Ru1 Ta0 2.860501 1_555
Ru1 Ta0 2.860501 1_655
Ru2 Ta2 2.733982 1_655
Ru2 Ta2 2.733982 1_555
Ru2 Ta4 2.736201 1_555
Ru2 Ta4 2.736201 1_655
Ru2 Ta3 2.860750 1_555
Ru2 Ta3 2.860750 1_655
Ru3 Ta3 2.734108 1_555
Ru3 Ta3 2.734108 1_655
Ru3 Ta5 2.735965 1_555
Ru3 Ta5 2.735965 1_655
Ru3 Ta2 2.860530 1_555
Ru3 Ta2 2.860530 1_655
Ru4 Ta4 2.690746 1_565
Ru4 Ta4 2.690746 1_665
Ru4 Ta1 2.736673 1_555
Ru4 Ta1 2.736673 1_655
Ru4 Ta3 2.736699 1_555
Ru4 Ta3 2.736699 1_655
Ru5 Ta5 2.690643 1_545
Ru5 Ta5 2.690643 1_645
Ru5 Ta0 2.735816 1_655
Ru5 Ta0 2.735816 1_555
Ru5 Ta2 2.735842 1_555
Ru5 Ta2 2.735842 1_655
