# generated using pymatgen
data_Rb2Mn2(MoO4)3
_symmetry_space_group_name_H-M   'P 1'
_cell_length_a   11.21138700
_cell_length_b   11.21138700
_cell_length_c   11.21138700
_cell_angle_alpha   90.00000000
_cell_angle_beta   90.00000000
_cell_angle_gamma   90.00000000
_symmetry_Int_Tables_number   1
_chemical_formula_structural   Rb2Mn2(MoO4)3
_chemical_formula_sum   'Rb8 Mn8 Mo12 O48'
_cell_volume   1409.21751402
_cell_formula_units_Z   4
loop_
 _symmetry_equiv_pos_site_id
 _symmetry_equiv_pos_as_xyz
  1  'x, y, z'
loop_
 _atom_site_type_symbol
 _atom_site_label
 _atom_site_symmetry_multiplicity
 _atom_site_fract_x
 _atom_site_fract_y
 _atom_site_fract_z
 _atom_site_occupancy
  Rb  Rb0  1  0.54712900  0.95287100  0.04712900  1
  Rb  Rb1  1  0.95287100  0.04712900  0.54712900  1
  Rb  Rb2  1  0.45287100  0.45287100  0.45287100  1
  Rb  Rb3  1  0.04712900  0.54712900  0.95287100  1
  Rb  Rb4  1  0.68063400  0.68063400  0.68063400  1
  Rb  Rb5  1  0.31936600  0.18063400  0.81936600  1
  Rb  Rb6  1  0.18063400  0.81936600  0.31936600  1
  Rb  Rb7  1  0.81936600  0.31936600  0.18063400  1
  Mn  Mn0  1  0.38863200  0.61136800  0.11136800  1
  Mn  Mn1  1  0.88863200  0.88863200  0.88863200  1
  Mn  Mn2  1  0.11136800  0.38863200  0.61136800  1
  Mn  Mn3  1  0.61136800  0.11136800  0.38863200  1
  Mn  Mn4  1  0.83710000  0.66290000  0.33710000  1
  Mn  Mn5  1  0.66290000  0.33710000  0.83710000  1
  Mn  Mn6  1  0.16290000  0.16290000  0.16290000  1
  Mn  Mn7  1  0.33710000  0.83710000  0.66290000  1
  Mo  Mo0  1  0.70341300  0.62089800  0.02440100  1
  Mo  Mo1  1  0.97559900  0.20341300  0.87910200  1
  Mo  Mo2  1  0.12089800  0.47559900  0.29658700  1
  Mo  Mo3  1  0.20341300  0.87910200  0.97559900  1
  Mo  Mo4  1  0.47559900  0.29658700  0.12089800  1
  Mo  Mo5  1  0.62089800  0.02440100  0.70341300  1
  Mo  Mo6  1  0.29658700  0.12089800  0.47559900  1
  Mo  Mo7  1  0.02440100  0.70341300  0.62089800  1
  Mo  Mo8  1  0.87910200  0.97559900  0.20341300  1
  Mo  Mo9  1  0.79658700  0.37910200  0.52440100  1
  Mo  Mo10  1  0.52440100  0.79658700  0.37910200  1
  Mo  Mo11  1  0.37910200  0.52440100  0.79658700  1
  O  O0  1  0.75476700  0.60334200  0.17462000  1
  O  O1  1  0.82538000  0.25476700  0.89665800  1
  O  O2  1  0.10334200  0.32538000  0.24523300  1
  O  O3  1  0.25476700  0.89665800  0.82538000  1
  O  O4  1  0.32538000  0.24523300  0.10334200  1
  O  O5  1  0.60334200  0.17462000  0.75476700  1
  O  O6  1  0.24523300  0.10334200  0.32538000  1
  O  O7  1  0.17462000  0.75476700  0.60334200  1
  O  O8  1  0.89665800  0.82538000  0.25476700  1
  O  O9  1  0.74523300  0.39665800  0.67462000  1
  O  O10  1  0.67462000  0.74523300  0.39665800  1
  O  O11  1  0.39665800  0.67462000  0.74523300  1
  O  O12  1  0.79264400  0.72859500  0.94487200  1
  O  O13  1  0.05512800  0.29264400  0.77140500  1
  O  O14  1  0.22859500  0.55512800  0.20735600  1
  O  O15  1  0.29264400  0.77140500  0.05512800  1
  O  O16  1  0.55512800  0.20735600  0.22859500  1
  O  O17  1  0.72859500  0.94487200  0.79264400  1
  O  O18  1  0.20735600  0.22859500  0.55512800  1
  O  O19  1  0.94487200  0.79264400  0.72859500  1
  O  O20  1  0.77140500  0.05512800  0.29264400  1
  O  O21  1  0.70735600  0.27140500  0.44487200  1
  O  O22  1  0.44487200  0.70735600  0.27140500  1
  O  O23  1  0.27140500  0.44487200  0.70735600  1
  O  O24  1  0.54996400  0.67025400  0.01890900  1
  O  O25  1  0.98109100  0.04996400  0.82974600  1
  O  O26  1  0.17025400  0.48109100  0.45003600  1
  O  O27  1  0.04996400  0.82974600  0.98109100  1
  O  O28  1  0.48109100  0.45003600  0.17025400  1
  O  O29  1  0.67025400  0.01890900  0.54996400  1
  O  O30  1  0.45003600  0.17025400  0.48109100  1
  O  O31  1  0.01890900  0.54996400  0.67025400  1
  O  O32  1  0.82974600  0.98109100  0.04996400  1
  O  O33  1  0.95003600  0.32974600  0.51890900  1
  O  O34  1  0.51890900  0.95003600  0.32974600  1
  O  O35  1  0.32974600  0.51890900  0.95003600  1
  O  O36  1  0.72370400  0.48024500  0.95100000  1
  O  O37  1  0.04900000  0.22370400  0.01975500  1
  O  O38  1  0.98024500  0.54900000  0.27629600  1
  O  O39  1  0.22370400  0.01975500  0.04900000  1
  O  O40  1  0.54900000  0.27629600  0.98024500  1
  O  O41  1  0.48024500  0.95100000  0.72370400  1
  O  O42  1  0.27629600  0.98024500  0.54900000  1
  O  O43  1  0.95100000  0.72370400  0.48024500  1
  O  O44  1  0.01975500  0.04900000  0.22370400  1
  O  O45  1  0.77629600  0.51975500  0.45100000  1
  O  O46  1  0.45100000  0.77629600  0.51975500  1
  O  O47  1  0.51975500  0.45100000  0.77629600  1
loop_
_geom_bond_atom_site_label_1
_geom_bond_atom_site_label_2
_geom_bond_distance
_geom_bond_site_symmetry_2
Mn0 O14 2.185170 1_555
Mn0 O22 2.185170 1_555
Mn0 O15 2.185170 1_555
Mn0 O24 2.186774 1_555
Mn0 O35 2.186774 1_554
Mn0 O28 2.186774 1_555
Mn1 O17 2.185170 1_555
Mn1 O12 2.185170 1_555
Mn1 O19 2.185170 1_555
Mn1 O27 2.186774 1_655
Mn1 O32 2.186774 1_556
Mn1 O25 2.186774 1_565
Mn2 O18 2.185170 1_555
Mn2 O23 2.185170 1_555
Mn2 O13 2.185170 1_555
Mn2 O31 2.186774 1_555
Mn2 O33 2.186774 1_455
Mn2 O26 2.186774 1_555
Mn3 O16 2.185170 1_555
Mn3 O21 2.185170 1_555
Mn3 O20 2.185170 1_555
Mn3 O29 2.186774 1_555
Mn3 O34 2.186774 1_545
Mn3 O30 2.186774 1_555
Mn4 O10 2.148543 1_555
Mn4 O0 2.148543 1_555
Mn4 O8 2.148543 1_555
Mn4 O38 2.161235 1_555
Mn4 O43 2.161235 1_555
Mn4 O45 2.161235 1_555
Mn5 O9 2.148543 1_555
Mn5 O5 2.148543 1_555
Mn5 O1 2.148543 1_555
Mn5 O40 2.161235 1_555
Mn5 O36 2.161235 1_555
Mn5 O47 2.161235 1_555
Mn6 O4 2.148543 1_555
Mn6 O6 2.148543 1_555
Mn6 O2 2.148543 1_555
Mn6 O37 2.161235 1_555
Mn6 O44 2.161235 1_555
Mn6 O39 2.161235 1_555
Mn7 O11 2.148543 1_555
Mn7 O7 2.148543 1_555
Mn7 O3 2.148543 1_555
Mn7 O42 2.161235 1_555
Mn7 O41 2.161235 1_555
Mn7 O46 2.161235 1_555
Mo0 O0 1.790708 1_555
Mo0 O36 1.793216 1_554
Mo0 O12 1.803803 1_554
Mo0 O24 1.808226 1_555
Mo1 O1 1.790708 1_555
Mo1 O37 1.793216 1_656
Mo1 O13 1.803803 1_655
Mo1 O25 1.808226 1_555
Mo2 O2 1.790708 1_555
Mo2 O38 1.793216 1_455
Mo2 O14 1.803803 1_555
Mo2 O26 1.808226 1_555
Mo3 O3 1.790708 1_555
Mo3 O39 1.793216 1_566
Mo3 O15 1.803803 1_556
Mo3 O27 1.808226 1_555
Mo4 O4 1.790708 1_555
Mo4 O40 1.793216 1_554
Mo4 O16 1.803803 1_555
Mo4 O28 1.808226 1_555
Mo5 O5 1.790708 1_555
Mo5 O41 1.793216 1_545
Mo5 O17 1.803803 1_545
Mo5 O29 1.808226 1_555
Mo6 O6 1.790708 1_555
Mo6 O42 1.793216 1_545
Mo6 O18 1.803803 1_555
Mo6 O30 1.808226 1_555
Mo7 O7 1.790708 1_555
Mo7 O43 1.793216 1_455
Mo7 O19 1.803803 1_455
Mo7 O31 1.808226 1_555
Mo8 O8 1.790708 1_555
Mo8 O44 1.793216 1_665
Mo8 O20 1.803803 1_565
Mo8 O32 1.808226 1_555
Mo9 O9 1.790708 1_555
Mo9 O45 1.793216 1_555
Mo9 O21 1.803803 1_555
Mo9 O33 1.808226 1_555
Mo10 O10 1.790708 1_555
Mo10 O46 1.793216 1_555
Mo10 O22 1.803803 1_555
Mo10 O34 1.808226 1_555
Mo11 O11 1.790708 1_555
Mo11 O47 1.793216 1_555
Mo11 O23 1.803803 1_555
Mo11 O35 1.808226 1_555
O0 Rb7 3.265798 1_555
O1 Rb7 3.265798 1_556
O2 Rb7 3.265798 1_455
O3 Rb5 3.265798 1_565
O4 Rb5 3.265798 1_554
O5 Rb5 3.265798 1_555
O6 Rb6 3.265798 1_545
O7 Rb6 3.265798 1_555
O8 Rb6 3.265798 1_655
O9 Rb4 3.265798 1_555
O10 Rb4 3.265798 1_555
O11 Rb4 3.265798 1_555
O12 Rb4 3.262267 1_555
O12 Rb3 3.505356 1_655
O13 Rb5 3.262267 1_555
O13 Rb3 3.505356 1_555
O14 Rb6 3.262267 1_555
O14 Rb3 3.505356 1_554
O15 Rb6 3.262267 1_555
O15 Rb0 3.505356 1_555
O16 Rb7 3.262267 1_555
O16 Rb0 3.505356 1_545
O17 Rb4 3.262267 1_555
O17 Rb0 3.505356 1_556
O18 Rb5 3.262267 1_555
O18 Rb1 3.505356 1_455
O19 Rb4 3.262267 1_555
O19 Rb1 3.505356 1_565
O20 Rb7 3.262267 1_555
O20 Rb1 3.505356 1_555
O21 Rb7 3.262267 1_555
O21 Rb2 3.505356 1_555
O22 Rb6 3.262267 1_555
O22 Rb2 3.505356 1_555
O23 Rb5 3.262267 1_555
O23 Rb2 3.505356 1_555
O24 Rb0 3.184444 1_555
O25 Rb1 3.184444 1_555
O26 Rb2 3.184444 1_555
O27 Rb3 3.184444 1_555
O28 Rb2 3.184444 1_555
O29 Rb1 3.184444 1_555
O30 Rb2 3.184444 1_555
O31 Rb3 3.184444 1_555
O32 Rb0 3.184444 1_555
O33 Rb1 3.184444 1_555
O34 Rb0 3.184444 1_555
O35 Rb3 3.184444 1_555
O36 Rb7 3.321392 1_556
O37 Rb7 3.321392 1_455
O38 Rb7 3.321392 1_555
O39 Rb5 3.321392 1_554
O40 Rb5 3.321392 1_555
O41 Rb5 3.321392 1_565
O42 Rb6 3.321392 1_555
O43 Rb6 3.321392 1_655
O44 Rb6 3.321392 1_545
O45 Rb4 3.321392 1_555
O46 Rb4 3.321392 1_555
O47 Rb4 3.321392 1_555
