# generated using pymatgen
data_CaNiWO6
_symmetry_space_group_name_H-M   'P 1'
_cell_length_a   5.07802500
_cell_length_b   5.60935700
_cell_length_c   9.99914600
_cell_angle_alpha   90.00000000
_cell_angle_beta   90.00000000
_cell_angle_gamma   90.00000000
_symmetry_Int_Tables_number   1
_chemical_formula_structural   CaNiWO6
_chemical_formula_sum   'Ca2 Ni2 W2 O12'
_cell_volume   284.82022507
_cell_formula_units_Z   2
loop_
 _symmetry_equiv_pos_site_id
 _symmetry_equiv_pos_as_xyz
  1  'x, y, z'
loop_
 _atom_site_type_symbol
 _atom_site_label
 _atom_site_symmetry_multiplicity
 _atom_site_fract_x
 _atom_site_fract_y
 _atom_site_fract_z
 _atom_site_occupancy
  Ca  Ca0  1  0.00000000  0.00000000  0.32435700  1
  Ca  Ca1  1  0.50000000  0.50000000  0.82435700  1
  Ni  Ni0  1  0.00000000  0.00000000  0.99193200  1
  Ni  Ni1  1  0.50000000  0.50000000  0.49193200  1
  W  W0  1  0.50000000  0.00000000  0.00986600  1
  W  W1  1  0.00000000  0.50000000  0.50986600  1
  O  O0  1  0.75204300  0.24022600  0.48422000  1
  O  O1  1  0.74456300  0.15278400  0.88002700  1
  O  O2  1  0.25543700  0.84721600  0.88002700  1
  O  O3  1  0.24456300  0.34721600  0.38002700  1
  O  O4  1  0.74795700  0.74022600  0.98422000  1
  O  O5  1  0.76711800  0.11171900  0.13386800  1
  O  O6  1  0.24795700  0.75977400  0.48422000  1
  O  O7  1  0.75543700  0.65278400  0.38002700  1
  O  O8  1  0.25204300  0.25977400  0.98422000  1
  O  O9  1  0.26711800  0.38828100  0.63386800  1
  O  O10  1  0.23288200  0.88828100  0.13386800  1
  O  O11  1  0.73288200  0.61171900  0.63386800  1
loop_
_geom_bond_atom_site_label_1
_geom_bond_atom_site_label_2
_geom_bond_distance
_geom_bond_site_symmetry_2
Ca0 O10 2.327918 1_545
Ca0 O5 2.327918 1_455
Ca0 O3 2.376035 1_555
Ca0 O7 2.376035 1_445
Ca0 O6 2.440571 1_545
Ca0 O0 2.440571 1_455
Ca1 O11 2.327918 1_555
Ca1 O9 2.327918 1_555
Ca1 O1 2.376035 1_555
Ca1 O2 2.376035 1_555
Ca1 O4 2.440571 1_555
Ca1 O8 2.440571 1_555
Ni0 O2 1.915477 1_545
Ni0 O1 1.915477 1_455
Ni0 O8 1.940972 1_555
Ni0 O4 1.940972 1_445
Ni0 O10 1.950757 1_546
Ni0 O5 1.950757 1_456
Ni1 O7 1.915477 1_555
Ni1 O3 1.915477 1_555
Ni1 O0 1.940972 1_555
Ni1 O6 1.940972 1_555
Ni1 O11 1.950757 1_555
Ni1 O9 1.950757 1_555
O0 W1 1.942808 1_655
O1 W0 1.990558 1_556
O2 W0 1.990558 1_566
O3 W1 1.990558 1_555
O4 W0 1.942808 1_566
O5 W0 1.941652 1_555
O6 W1 1.942808 1_555
O7 W1 1.990558 1_655
O8 W0 1.942808 1_556
O9 W1 1.941652 1_555
O10 W0 1.941652 1_565
O11 W1 1.941652 1_655
