# generated using pymatgen
data_Mn5(SO5)3
_symmetry_space_group_name_H-M   'P 1'
_cell_length_a   7.37013593
_cell_length_b   8.09829100
_cell_length_c   10.36511014
_cell_angle_alpha   90.00000000
_cell_angle_beta   98.90454608
_cell_angle_gamma   90.00000000
_symmetry_Int_Tables_number   1
_chemical_formula_structural   Mn5(SO5)3
_chemical_formula_sum   'Mn10 S6 O30'
_cell_volume   611.19065092
_cell_formula_units_Z   2
loop_
 _symmetry_equiv_pos_site_id
 _symmetry_equiv_pos_as_xyz
  1  'x, y, z'
loop_
 _atom_site_type_symbol
 _atom_site_label
 _atom_site_symmetry_multiplicity
 _atom_site_fract_x
 _atom_site_fract_y
 _atom_site_fract_z
 _atom_site_occupancy
  Mn  Mn0  1  0.30572900  0.05094600  0.39228300  1
  Mn  Mn1  1  0.69427100  0.94905400  0.60771700  1
  Mn  Mn2  1  0.69427100  0.55094600  0.60771700  1
  Mn  Mn3  1  0.30572900  0.44905400  0.39228300  1
  Mn  Mn4  1  0.05708000  0.25000000  0.60024500  1
  Mn  Mn5  1  0.94292000  0.75000000  0.39975500  1
  Mn  Mn6  1  0.05326600  0.05024000  0.84108400  1
  Mn  Mn7  1  0.94673400  0.94976000  0.15891600  1
  Mn  Mn8  1  0.94673400  0.55024000  0.15891600  1
  Mn  Mn9  1  0.05326600  0.44976000  0.84108400  1
  S  S0  1  0.64965200  0.25000000  0.82271000  1
  S  S1  1  0.35034800  0.75000000  0.17729000  1
  S  S2  1  0.68355500  0.25000000  0.37658200  1
  S  S3  1  0.31644500  0.75000000  0.62341800  1
  S  S4  1  0.24306100  0.25000000  0.09957000  1
  S  S5  1  0.75693900  0.75000000  0.90043000  1
  O  O0  1  0.86541800  0.25000000  0.86483700  1
  O  O1  1  0.13458200  0.75000000  0.13516300  1
  O  O2  1  0.88673600  0.25000000  0.43273800  1
  O  O3  1  0.11326400  0.75000000  0.56726200  1
  O  O4  1  0.25507200  0.25000000  0.49784300  1
  O  O5  1  0.74492800  0.75000000  0.50215700  1
  O  O6  1  0.28085900  0.25000000  0.24901400  1
  O  O7  1  0.71914100  0.75000000  0.75098600  1
  O  O8  1  0.39607200  0.59684800  0.26046700  1
  O  O9  1  0.60392800  0.40315200  0.73953300  1
  O  O10  1  0.60392800  0.09684800  0.73953300  1
  O  O11  1  0.39607200  0.90315200  0.26046700  1
  O  O12  1  0.05789100  0.54142200  0.33537200  1
  O  O13  1  0.94210900  0.45857800  0.66462800  1
  O  O14  1  0.94210900  0.04142200  0.66462800  1
  O  O15  1  0.05789100  0.95857800  0.33537200  1
  O  O16  1  0.59907700  0.09933200  0.44060500  1
  O  O17  1  0.40092300  0.90066800  0.55939500  1
  O  O18  1  0.40092300  0.59933200  0.55939500  1
  O  O19  1  0.59907700  0.40066800  0.44060500  1
  O  O20  1  0.75974700  0.07381900  0.14184600  1
  O  O21  1  0.24025300  0.92618100  0.85815400  1
  O  O22  1  0.24025300  0.57381900  0.85815400  1
  O  O23  1  0.75974700  0.42618100  0.14184600  1
  O  O24  1  0.11610800  0.09707600  0.06555600  1
  O  O25  1  0.88389200  0.90292400  0.93444400  1
  O  O26  1  0.88389200  0.59707600  0.93444400  1
  O  O27  1  0.11610800  0.40292400  0.06555600  1
  O  O28  1  0.17980500  0.25000000  0.78417200  1
  O  O29  1  0.82019500  0.75000000  0.21582800  1
loop_
_geom_bond_atom_site_label_1
_geom_bond_atom_site_label_2
_geom_bond_distance
_geom_bond_site_symmetry_2
Mn0 O15 1.977475 1_545
Mn0 O11 2.006050 1_545
Mn0 O4 2.015324 1_555
Mn0 O17 2.144151 1_545
Mn0 O16 2.177953 1_555
Mn0 O6 2.180158 1_555
Mn1 O14 1.977475 1_565
Mn1 O10 2.006050 1_565
Mn1 O5 2.015324 1_555
Mn1 O16 2.144151 1_565
Mn1 O17 2.177953 1_555
Mn1 O7 2.180158 1_555
Mn2 O13 1.977475 1_555
Mn2 O9 2.006050 1_555
Mn2 O5 2.015324 1_555
Mn2 O19 2.144151 1_555
Mn2 O18 2.177953 1_555
Mn2 O7 2.180158 1_555
Mn3 O12 1.977475 1_555
Mn3 O8 2.006050 1_555
Mn3 O4 2.015324 1_555
Mn3 O18 2.144151 1_555
Mn3 O19 2.177953 1_555
Mn3 O6 2.180158 1_555
Mn4 O4 1.932723 1_555
Mn4 O2 1.978853 1_455
Mn4 O28 1.979583 1_555
Mn4 O13 2.047326 1_455
Mn4 O14 2.047326 1_455
Mn5 O5 1.932723 1_555
Mn5 O3 1.978853 1_655
Mn5 O29 1.979583 1_555
Mn5 O12 2.047326 1_655
Mn5 O15 2.047326 1_655
Mn6 O21 1.692450 1_545
Mn6 O14 1.886155 1_455
Mn6 O28 2.001263 1_555
Mn6 O25 2.071696 1_445
Mn6 O0 2.167921 1_455
Mn6 O24 2.331994 1_556
Mn7 O20 1.692450 1_565
Mn7 O15 1.886155 1_655
Mn7 O29 2.001263 1_555
Mn7 O24 2.071696 1_665
Mn7 O1 2.167921 1_655
Mn7 O25 2.331994 1_554
Mn8 O23 1.692450 1_555
Mn8 O12 1.886155 1_655
Mn8 O29 2.001263 1_555
Mn8 O27 2.071696 1_655
Mn8 O1 2.167921 1_655
Mn8 O26 2.331994 1_554
Mn9 O22 1.692450 1_555
Mn9 O13 1.886155 1_455
Mn9 O28 2.001263 1_555
Mn9 O26 2.071696 1_455
Mn9 O0 2.167921 1_455
Mn9 O27 2.331994 1_556
O0 S0 1.582566 1_555
O1 S1 1.582566 1_555
O2 S2 1.520324 1_555
O3 S3 1.520324 1_555
O6 S4 1.530826 1_555
O7 S5 1.530826 1_555
O8 S1 1.518279 1_555
O9 S0 1.518279 1_555
O10 S0 1.518279 1_555
O11 S1 1.518279 1_555
O16 S2 1.563555 1_555
O17 S3 1.563555 1_555
O18 S3 1.563555 1_555
O19 S2 1.563555 1_555
O24 S4 1.559272 1_555
O25 S5 1.559272 1_555
O26 S5 1.559272 1_555
O27 S4 1.559272 1_555
