# generated using pymatgen
data_TbAl3
_symmetry_space_group_name_H-M   'P 1'
_cell_length_a   12.44509058
_cell_length_b   12.44509058
_cell_length_c   12.44509033
_cell_angle_alpha   28.36069058
_cell_angle_beta   28.36069058
_cell_angle_gamma   28.36069519
_symmetry_Int_Tables_number   1
_chemical_formula_structural   TbAl3
_chemical_formula_sum   'Tb5 Al15'
_cell_volume   384.34182261
_cell_formula_units_Z   5
loop_
 _symmetry_equiv_pos_site_id
 _symmetry_equiv_pos_as_xyz
  1  'x, y, z'
loop_
 _atom_site_type_symbol
 _atom_site_label
 _atom_site_symmetry_multiplicity
 _atom_site_fract_x
 _atom_site_fract_y
 _atom_site_fract_z
 _atom_site_occupancy
  Tb  Tb0  1  0.00000000  -0.00000000  0.00000000  1
  Tb  Tb1  1  0.86928837  0.86928837  0.86928837  1
  Tb  Tb2  1  0.13071163  0.13071163  0.13071163  1
  Tb  Tb3  1  0.59987270  0.59987270  0.59987270  1
  Tb  Tb4  1  0.40012730  0.40012730  0.40012730  1
  Al  Al0  1  0.50000000  0.50000000  0.00000000  1
  Al  Al1  1  0.00000000  0.50000000  0.50000000  1
  Al  Al2  1  0.50000000  -0.00000000  0.50000000  1
  Al  Al3  1  0.36320290  0.87277045  0.36320290  1
  Al  Al4  1  0.36320290  0.36320290  0.87277045  1
  Al  Al5  1  0.87277045  0.36320290  0.36320290  1
  Al  Al6  1  0.63679710  0.12722955  0.63679710  1
  Al  Al7  1  0.63679710  0.63679710  0.12722955  1
  Al  Al8  1  0.12722955  0.63679710  0.63679710  1
  Al  Al9  1  0.11907436  0.56350359  0.11907436  1
  Al  Al10  1  0.11907436  0.11907436  0.56350359  1
  Al  Al11  1  0.56350359  0.11907436  0.11907436  1
  Al  Al12  1  0.88092564  0.43649641  0.88092564  1
  Al  Al13  1  0.88092564  0.88092564  0.43649641  1
  Al  Al14  1  0.43649641  0.88092564  0.88092564  1
loop_
_geom_bond_atom_site_label_1
_geom_bond_atom_site_label_2
_geom_bond_distance
_geom_bond_site_symmetry_2
Al0 Al11 2.897911 1_555
Al0 Al9 2.897911 1_555
Al0 Al14 2.897911 1_554
Al0 Al12 2.897911 1_554
Al0 Tb4 2.969770 1_555
Al0 Tb3 2.969770 1_554
Al0 Al1 3.048734 1_555
Al0 Al1 3.048734 1_654
Al0 Al2 3.048734 1_555
Al0 Al2 3.048734 1_564
Al0 Tb0 3.048734 1_655
Al0 Tb0 3.048734 1_565
Al1 Al9 2.897911 1_555
Al1 Al12 2.897911 1_455
Al1 Al10 2.897911 1_555
Al1 Al13 2.897911 1_455
Al1 Tb4 2.969770 1_555
Al1 Tb3 2.969770 1_455
Al1 Tb0 3.048734 1_556
Al1 Tb0 3.048734 1_565
Al1 Al2 3.048734 1_555
Al1 Al2 3.048734 1_465
Al2 Tb4 2.969770 1_555
Al2 Tb3 2.969770 1_545
Al2 Tb0 3.048734 1_655
Al2 Tb0 3.048734 1_556
Al3 Tb3 2.990429 1_555
Al3 Tb2 3.014747 1_565
Al3 Tb1 3.050683 1_455
Al3 Tb1 3.050683 1_554
Al4 Al9 2.927274 1_556
Al4 Tb3 2.990429 1_555
Al4 Tb2 3.014747 1_556
Al4 Tb1 3.050684 1_455
Al4 Tb1 3.050684 1_545
Al5 Al9 2.927274 1_655
Al5 Tb3 2.990429 1_555
Al5 Tb2 3.014747 1_655
Al5 Tb1 3.050683 1_545
Al5 Tb1 3.050683 1_554
Al6 Tb4 2.990429 1_555
Al6 Tb1 3.014747 1_545
Al6 Tb2 3.050683 1_655
Al6 Tb2 3.050683 1_556
Al7 Tb4 2.990429 1_555
Al7 Tb1 3.014747 1_554
Al7 Tb2 3.050684 1_565
Al7 Tb2 3.050684 1_655
Al8 Tb4 2.990429 1_555
Al8 Tb1 3.014747 1_455
Al8 Tb2 3.050683 1_565
Al8 Tb2 3.050683 1_556
Al9 Tb1 3.029210 1_454
Al9 Tb3 3.055100 1_554
Al9 Tb3 3.055100 1_455
Al9 Tb0 3.070981 1_565
Al10 Al9 2.709893 1_555
Al10 Al11 2.709893 1_555
Al10 Al2 2.897911 1_555
Al10 Al5 2.927274 1_455
Al10 Al3 2.927274 1_545
Al10 Tb1 3.029210 1_445
Al10 Tb3 3.055101 1_455
Al10 Tb3 3.055101 1_545
Al10 Tb0 3.070981 1_556
Al11 Al9 2.709893 1_555
Al11 Al2 2.897911 1_555
Al11 Al3 2.927274 1_545
Al11 Al4 2.927274 1_554
Al11 Tb1 3.029210 1_544
Al11 Tb3 3.055100 1_554
Al11 Tb3 3.055100 1_545
Al11 Tb0 3.070981 1_655
Al12 Al13 2.709893 1_555
Al12 Al14 2.709893 1_555
Al12 Al8 2.927274 1_655
Al12 Al7 2.927274 1_556
Al12 Tb2 3.029210 1_656
Al12 Tb4 3.055100 1_556
Al12 Tb4 3.055100 1_655
Al12 Tb0 3.070981 1_656
Al13 Al14 2.709893 1_555
Al13 Al2 2.897911 1_565
Al13 Al6 2.927274 1_565
Al13 Al8 2.927274 1_655
Al13 Tb2 3.029210 1_665
Al13 Tb4 3.055101 1_565
Al13 Tb4 3.055101 1_655
Al13 Tb0 3.070981 1_665
Al14 Al2 2.897911 1_565
Al14 Al6 2.927274 1_565
Al14 Al7 2.927274 1_556
Al14 Tb2 3.029210 1_566
Al14 Tb4 3.055100 1_556
Al14 Tb4 3.055100 1_565
Al14 Tb0 3.070981 1_566
