# generated using pymatgen
data_Zn2Ag
_symmetry_space_group_name_H-M   'P 1'
_cell_length_a   5.09474263
_cell_length_b   5.09474263
_cell_length_c   8.04838345
_cell_angle_alpha   90.00000000
_cell_angle_beta   90.00000000
_cell_angle_gamma   119.99998918
_symmetry_Int_Tables_number   1
_chemical_formula_structural   Zn2Ag
_chemical_formula_sum   'Zn8 Ag4'
_cell_volume   180.91885783
_cell_formula_units_Z   4
loop_
 _symmetry_equiv_pos_site_id
 _symmetry_equiv_pos_as_xyz
  1  'x, y, z'
loop_
 _atom_site_type_symbol
 _atom_site_label
 _atom_site_symmetry_multiplicity
 _atom_site_fract_x
 _atom_site_fract_y
 _atom_site_fract_z
 _atom_site_occupancy
  Zn  Zn0  1  0.00000000  -0.00000000  -0.00000000  1
  Zn  Zn1  1  0.00000000  -0.00000000  0.50000000  1
  Zn  Zn2  1  0.82836470  0.17163530  0.25000000  1
  Zn  Zn3  1  0.17163530  0.34327161  0.75000000  1
  Zn  Zn4  1  0.65672839  0.82836470  0.75000000  1
  Zn  Zn5  1  0.34327161  0.17163530  0.25000000  1
  Zn  Zn6  1  0.82836470  0.65672839  0.25000000  1
  Zn  Zn7  1  0.17163530  0.82836470  0.75000000  1
  Ag  Ag0  1  0.66666700  0.33333400  0.93822206  1
  Ag  Ag1  1  0.33333300  0.66666600  0.43822206  1
  Ag  Ag2  1  0.33333300  0.66666600  0.06177794  1
  Ag  Ag3  1  0.66666700  0.33333400  0.56177794  1
loop_
_geom_bond_atom_site_label_1
_geom_bond_atom_site_label_2
_geom_bond_distance
_geom_bond_site_symmetry_2
Zn0 Zn7 2.518423 1_544
Zn0 Zn2 2.518423 1_455
Zn0 Zn4 2.518426 1_444
Zn0 Zn6 2.518426 1_445
Zn0 Zn3 2.518426 1_554
Zn0 Zn5 2.518426 1_555
Zn1 Zn7 2.518423 1_545
Zn1 Zn2 2.518423 1_455
Zn1 Zn4 2.518426 1_445
Zn1 Zn6 2.518426 1_445
Zn1 Zn3 2.518426 1_555
Zn1 Zn5 2.518426 1_555
Zn2 Zn5 2.471424 1_555
Zn2 Zn6 2.471424 1_555
Zn2 Zn6 2.623318 1_545
Zn2 Zn5 2.623318 1_655
Zn3 Zn7 2.471424 1_555
Zn3 Zn4 2.471425 1_555
Zn3 Zn7 2.623318 1_545
Zn3 Zn4 2.623319 1_445
Zn4 Zn7 2.471424 1_555
Zn4 Zn7 2.623318 1_655
Zn5 Zn6 2.471425 1_555
Zn5 Zn6 2.623319 1_445
Ag0 Zn6 2.886624 1_556
Ag0 Zn5 2.886626 1_556
Ag0 Zn2 2.886628 1_556
Ag0 Zn3 2.964099 1_655
Ag0 Zn7 2.964099 1_655
Ag0 Zn4 2.964101 1_545
Ag0 Zn4 2.964101 1_555
Ag0 Zn3 2.964103 1_555
Ag0 Zn7 2.964104 1_545
Ag0 Zn0 2.983176 1_666
Ag0 Zn0 2.983180 1_656
Ag0 Zn0 2.983180 1_556
Ag0 Ag3 3.029767 1_555
Ag0 Ag2 3.104996 1_556
Ag0 Ag2 3.104996 1_656
Ag0 Ag2 3.105004 1_546
Ag1 Zn3 2.886624 1_555
Ag1 Zn4 2.886626 1_555
Ag1 Zn7 2.886628 1_555
Ag1 Zn6 2.964099 1_455
Ag1 Zn2 2.964099 1_455
Ag1 Zn5 2.964101 1_565
Ag1 Zn5 2.964101 1_555
Ag1 Zn6 2.964103 1_555
Ag1 Zn2 2.964104 1_565
Ag1 Zn1 2.983176 1_555
Ag1 Zn1 2.983180 1_565
Ag1 Zn1 2.983180 1_665
Ag1 Ag2 3.029767 1_555
Ag1 Ag3 3.104996 1_555
Ag1 Ag3 3.104996 1_455
Ag1 Ag3 3.105004 1_565
Ag2 Zn3 2.886624 1_554
Ag2 Zn4 2.886626 1_554
Ag2 Zn7 2.886628 1_554
Ag2 Zn6 2.964099 1_455
Ag2 Zn2 2.964099 1_455
Ag2 Zn5 2.964101 1_565
Ag2 Zn5 2.964101 1_555
Ag2 Zn6 2.964103 1_555
Ag2 Zn2 2.964104 1_565
Ag2 Zn0 2.983176 1_555
Ag2 Zn0 2.983180 1_565
Ag2 Zn0 2.983180 1_665
Ag3 Zn6 2.886624 1_555
Ag3 Zn5 2.886626 1_555
Ag3 Zn2 2.886628 1_555
Ag3 Zn3 2.964099 1_655
Ag3 Zn7 2.964099 1_655
Ag3 Zn4 2.964101 1_545
Ag3 Zn4 2.964101 1_555
Ag3 Zn3 2.964103 1_555
Ag3 Zn7 2.964104 1_545
Ag3 Zn1 2.983176 1_665
Ag3 Zn1 2.983180 1_655
Ag3 Zn1 2.983180 1_555
