# generated using pymatgen
data_KBH5N
_symmetry_space_group_name_H-M   'P 1'
_cell_length_a   8.30594900
_cell_length_b   17.48138800
_cell_length_c   9.61208500
_cell_angle_alpha   90.00000000
_cell_angle_beta   90.00000000
_cell_angle_gamma   90.00000000
_symmetry_Int_Tables_number   1
_chemical_formula_structural   KBH5N
_chemical_formula_sum   'K16 B16 H80 N16'
_cell_volume   1395.67010107
_cell_formula_units_Z   16
loop_
 _symmetry_equiv_pos_site_id
 _symmetry_equiv_pos_as_xyz
  1  'x, y, z'
loop_
 _atom_site_type_symbol
 _atom_site_label
 _atom_site_symmetry_multiplicity
 _atom_site_fract_x
 _atom_site_fract_y
 _atom_site_fract_z
 _atom_site_occupancy
  K  K0  1  0.86518700  0.89091500  0.14582900  1
  K  K1  1  0.63481300  0.10908500  0.64582900  1
  K  K2  1  0.36518700  0.60908500  0.85417100  1
  K  K3  1  0.13481300  0.39091500  0.35417100  1
  K  K4  1  0.13481300  0.10908500  0.85417100  1
  K  K5  1  0.36518700  0.89091500  0.35417100  1
  K  K6  1  0.63481300  0.39091500  0.14582900  1
  K  K7  1  0.86518700  0.60908500  0.64582900  1
  K  K8  1  0.91884300  0.17468000  0.26782000  1
  K  K9  1  0.58115700  0.82532000  0.76782000  1
  K  K10  1  0.41884300  0.32532000  0.73218000  1
  K  K11  1  0.08115700  0.67468000  0.23218000  1
  K  K12  1  0.08115700  0.82532000  0.73218000  1
  K  K13  1  0.41884300  0.17468000  0.23218000  1
  K  K14  1  0.58115700  0.67468000  0.26782000  1
  K  K15  1  0.91884300  0.32532000  0.76782000  1
  B  B0  1  0.83675200  0.77506700  0.46000000  1
  B  B1  1  0.66324800  0.22493300  0.96000000  1
  B  B2  1  0.33675200  0.72493300  0.54000000  1
  B  B3  1  0.16324800  0.27506700  0.04000000  1
  B  B4  1  0.16324800  0.22493300  0.54000000  1
  B  B5  1  0.33675200  0.77506700  0.04000000  1
  B  B6  1  0.66324800  0.27506700  0.46000000  1
  B  B7  1  0.83675200  0.72493300  0.96000000  1
  B  B8  1  0.15615500  0.03088200  0.18738700  1
  B  B9  1  0.34384500  0.96911800  0.68738700  1
  B  B10  1  0.65615500  0.46911800  0.81261300  1
  B  B11  1  0.84384500  0.53088200  0.31261300  1
  B  B12  1  0.84384500  0.96911800  0.81261300  1
  B  B13  1  0.65615500  0.03088200  0.31261300  1
  B  B14  1  0.34384500  0.53088200  0.18738700  1
  B  B15  1  0.15615500  0.46911800  0.68738700  1
  H  H0  1  0.99178300  0.87340800  0.43640900  1
  H  H1  1  0.50821700  0.12659200  0.93640900  1
  H  H2  1  0.49178300  0.62659200  0.56359100  1
  H  H3  1  0.00821700  0.37340800  0.06359100  1
  H  H4  1  0.00821700  0.12659200  0.56359100  1
  H  H5  1  0.49178300  0.87340800  0.06359100  1
  H  H6  1  0.50821700  0.37340800  0.43640900  1
  H  H7  1  0.99178300  0.62659200  0.93640900  1
  H  H8  1  0.09005800  0.79307700  0.43876000  1
  H  H9  1  0.40994200  0.20692300  0.93876000  1
  H  H10  1  0.59005800  0.70692300  0.56124000  1
  H  H11  1  0.90994200  0.29307700  0.06124000  1
  H  H12  1  0.90994200  0.20692300  0.56124000  1
  H  H13  1  0.59005800  0.79307700  0.06124000  1
  H  H14  1  0.40994200  0.29307700  0.43876000  1
  H  H15  1  0.09005800  0.70692300  0.93876000  1
  H  H16  1  0.29049200  0.99378100  0.00867000  1
  H  H17  1  0.20950800  0.00621900  0.50867000  1
  H  H18  1  0.79049200  0.50621900  0.99133000  1
  H  H19  1  0.70950800  0.49378100  0.49133000  1
  H  H20  1  0.70950800  0.00621900  0.99133000  1
  H  H21  1  0.79049200  0.99378100  0.49133000  1
  H  H22  1  0.20950800  0.49378100  0.00867000  1
  H  H23  1  0.29049200  0.50621900  0.50867000  1
  H  H24  1  0.40815800  0.02209300  0.13219400  1
  H  H25  1  0.09184200  0.97790700  0.63219400  1
  H  H26  1  0.90815800  0.47790700  0.86780600  1
  H  H27  1  0.59184200  0.52209300  0.36780600  1
  H  H28  1  0.59184200  0.97790700  0.86780600  1
  H  H29  1  0.90815800  0.02209300  0.36780600  1
  H  H30  1  0.09184200  0.52209300  0.13219400  1
  H  H31  1  0.40815800  0.47790700  0.63219400  1
  H  H32  1  0.83940400  0.70773900  0.41931000  1
  H  H33  1  0.66059600  0.29226100  0.91931000  1
  H  H34  1  0.33940400  0.79226100  0.58069000  1
  H  H35  1  0.16059600  0.20773900  0.08069000  1
  H  H36  1  0.16059600  0.29226100  0.58069000  1
  H  H37  1  0.33940400  0.70773900  0.08069000  1
  H  H38  1  0.66059600  0.20773900  0.41931000  1
  H  H39  1  0.83940400  0.79226100  0.91931000  1
  H  H40  1  0.71091600  0.80500600  0.41738400  1
  H  H41  1  0.78908400  0.19499400  0.91738400  1
  H  H42  1  0.21091600  0.69499400  0.58261600  1
  H  H43  1  0.28908400  0.30500600  0.08261600  1
  H  H44  1  0.28908400  0.19499400  0.58261600  1
  H  H45  1  0.21091600  0.80500600  0.08261600  1
  H  H46  1  0.78908400  0.30500600  0.41738400  1
  H  H47  1  0.71091600  0.69499400  0.91738400  1
  H  H48  1  0.82725800  0.77184400  0.59050900  1
  H  H49  1  0.67274200  0.22815600  0.09050900  1
  H  H50  1  0.32725800  0.72815600  0.40949100  1
  H  H51  1  0.17274200  0.27184400  0.90949100  1
  H  H52  1  0.17274200  0.22815600  0.40949100  1
  H  H53  1  0.32725800  0.77184400  0.90949100  1
  H  H54  1  0.67274200  0.27184400  0.59050900  1
  H  H55  1  0.82725800  0.72815600  0.09050900  1
  H  H56  1  0.18132300  0.07336400  0.28841600  1
  H  H57  1  0.31867700  0.92663600  0.78841600  1
  H  H58  1  0.68132300  0.42663600  0.71158400  1
  H  H59  1  0.81867700  0.57336400  0.21158400  1
  H  H60  1  0.81867700  0.92663600  0.71158400  1
  H  H61  1  0.68132300  0.07336400  0.21158400  1
  H  H62  1  0.31867700  0.57336400  0.28841600  1
  H  H63  1  0.18132300  0.42663600  0.78841600  1
  H  H64  1  0.03013900  0.05271000  0.12930000  1
  H  H65  1  0.46986100  0.94729000  0.62930000  1
  H  H66  1  0.53013900  0.44729000  0.87070000  1
  H  H67  1  0.96986100  0.55271000  0.37070000  1
  H  H68  1  0.96986100  0.94729000  0.87070000  1
  H  H69  1  0.53013900  0.05271000  0.37070000  1
  H  H70  1  0.46986100  0.55271000  0.12930000  1
  H  H71  1  0.03013900  0.44729000  0.62930000  1
  H  H72  1  0.12756600  0.96609300  0.23634900  1
  H  H73  1  0.37243400  0.03390700  0.73634900  1
  H  H74  1  0.62756600  0.53390700  0.76365100  1
  H  H75  1  0.87243400  0.46609300  0.26365100  1
  H  H76  1  0.87243400  0.03390700  0.76365100  1
  H  H77  1  0.62756600  0.96609300  0.26365100  1
  H  H78  1  0.37243400  0.46609300  0.23634900  1
  H  H79  1  0.12756600  0.53390700  0.73634900  1
  N  N0  1  0.98618000  0.81758400  0.40309600  1
  N  N1  1  0.51382000  0.18241600  0.90309600  1
  N  N2  1  0.48618000  0.68241600  0.59690400  1
  N  N3  1  0.01382000  0.31758400  0.09690400  1
  N  N4  1  0.01382000  0.18241600  0.59690400  1
  N  N5  1  0.48618000  0.81758400  0.09690400  1
  N  N6  1  0.51382000  0.31758400  0.40309600  1
  N  N7  1  0.98618000  0.68241600  0.90309600  1
  N  N8  1  0.30046000  0.03418900  0.08523700  1
  N  N9  1  0.19954000  0.96581100  0.58523700  1
  N  N10  1  0.80046000  0.46581100  0.91476300  1
  N  N11  1  0.69954000  0.53418900  0.41476300  1
  N  N12  1  0.69954000  0.96581100  0.91476300  1
  N  N13  1  0.80046000  0.03418900  0.41476300  1
  N  N14  1  0.19954000  0.53418900  0.08523700  1
  N  N15  1  0.30046000  0.46581100  0.58523700  1
loop_
_geom_bond_atom_site_label_1
_geom_bond_atom_site_label_2
_geom_bond_distance
_geom_bond_site_symmetry_2
K0 N12 2.922356 1_554
K0 N0 2.961146 1_555
K1 N13 2.922356 1_555
K1 N1 2.961146 1_555
K2 N14 2.922356 1_556
K2 N2 2.961146 1_555
K3 N15 2.922356 1_555
K3 N3 2.961146 1_555
K4 N8 2.922356 1_556
K4 N4 2.961146 1_555
K5 N9 2.922356 1_555
K5 N5 2.961146 1_555
K6 N10 2.922356 1_554
K6 N6 2.961146 1_555
K7 N11 2.922356 1_555
K7 N7 2.961146 1_555
K8 N13 2.998938 1_555
K8 N3 3.092267 1_655
K9 N12 2.998938 1_555
K9 N2 3.092267 1_555
K10 N15 2.998938 1_555
K10 N1 3.092267 1_555
K11 N14 2.998938 1_555
K11 N0 3.092267 1_455
K12 N9 2.998938 1_555
K12 N7 3.092267 1_455
K13 N8 2.998938 1_555
K13 N6 3.092267 1_555
K14 N11 2.998938 1_555
K14 N5 3.092267 1_555
K15 N10 2.998938 1_555
K15 N4 3.092267 1_655
B0 H40 1.238602 1_555
B0 H32 1.240466 1_555
B0 H48 1.258202 1_555
B0 N0 1.546620 1_555
B1 H41 1.238602 1_555
B1 H33 1.240466 1_555
B1 H49 1.258202 1_556
B1 N1 1.546620 1_555
B2 H42 1.238602 1_555
B2 H34 1.240466 1_555
B2 H50 1.258202 1_555
B2 N2 1.546620 1_555
B3 H43 1.238602 1_555
B3 H35 1.240466 1_555
B3 H51 1.258202 1_554
B3 N3 1.546620 1_555
B4 H44 1.238602 1_555
B4 H36 1.240466 1_555
B4 H52 1.258202 1_555
B4 N4 1.546620 1_555
B5 H45 1.238602 1_555
B5 H37 1.240466 1_555
B5 H53 1.258202 1_554
B5 N5 1.546620 1_555
B6 H46 1.238602 1_555
B6 H38 1.240466 1_555
B6 H54 1.258202 1_555
B6 N6 1.546620 1_555
B7 H47 1.238602 1_555
B7 H39 1.240466 1_555
B7 H55 1.258202 1_556
B7 N7 1.546620 1_555
B8 H56 1.240264 1_555
B8 H64 1.246150 1_555
B8 H72 1.249265 1_545
B8 N8 1.550496 1_555
B9 H57 1.240264 1_555
B9 H65 1.246150 1_555
B9 H73 1.249265 1_565
B9 N9 1.550496 1_555
B10 H58 1.240264 1_555
B10 H66 1.246150 1_555
B10 H74 1.249265 1_555
B10 N10 1.550496 1_555
B11 H59 1.240264 1_555
B11 H67 1.246150 1_555
B11 H75 1.249265 1_555
B11 N11 1.550496 1_555
B12 H60 1.240264 1_555
B12 H68 1.246150 1_555
B12 H76 1.249265 1_565
B12 N12 1.550496 1_555
B13 H61 1.240264 1_555
B13 H69 1.246150 1_555
B13 H77 1.249265 1_545
B13 N13 1.550496 1_555
B14 H62 1.240264 1_555
B14 H70 1.246150 1_555
B14 H78 1.249265 1_555
B14 N14 1.550496 1_555
B15 H63 1.240264 1_555
B15 H71 1.246150 1_555
B15 H79 1.249265 1_555
B15 N15 1.550496 1_555
H0 N0 1.028126 1_555
H0 K0 3.000102 1_555
H0 K12 3.056184 1_655
H1 N1 1.028126 1_555
H1 K1 3.000102 1_555
H1 K13 3.056184 1_556
H2 N2 1.028126 1_555
H2 K2 3.000102 1_555
H2 K14 3.056184 1_555
H3 N3 1.028126 1_555
H3 K3 3.000102 1_555
H3 K15 3.056184 1_454
H4 N4 1.028126 1_555
H4 K4 3.000102 1_555
H4 K8 3.056184 1_455
H5 N5 1.028126 1_555
H5 K5 3.000102 1_555
H5 K9 3.056184 1_554
H6 N6 1.028126 1_555
H6 K6 3.000102 1_555
H6 K10 3.056184 1_555
H7 N7 1.028126 1_555
H7 K7 3.000102 1_555
H7 K11 3.056184 1_656
H8 N0 1.022492 1_455
H8 K11 2.869176 1_555
H8 K12 2.877100 1_555
H8 K5 2.967919 1_555
H9 N1 1.022492 1_555
H9 K10 2.869176 1_555
H9 K13 2.877100 1_556
H9 K4 2.967919 1_555
H10 N2 1.022492 1_555
H10 K9 2.869176 1_555
H10 K14 2.877100 1_555
H10 K7 2.967919 1_555
H11 N3 1.022492 1_655
H11 K8 2.869176 1_555
H11 K15 2.877100 1_554
H11 K6 2.967919 1_555
H12 N4 1.022492 1_655
H12 K15 2.869176 1_555
H12 K8 2.877100 1_555
H12 K1 2.967919 1_555
H13 N5 1.022492 1_555
H13 K14 2.869176 1_555
H13 K9 2.877100 1_554
H13 K0 2.967919 1_555
H14 N6 1.022492 1_555
H14 K13 2.869176 1_555
H14 K10 2.877100 1_555
H14 K3 2.967919 1_555
H15 N7 1.022492 1_455
H15 K12 2.869176 1_555
H15 K11 2.877100 1_556
H15 K2 2.967919 1_555
H16 N8 1.023469 1_565
H16 K4 2.817862 1_564
H17 N9 1.023469 1_545
H17 K5 2.817862 1_545
H18 N10 1.023469 1_555
H18 K6 2.817862 1_556
H19 N11 1.023469 1_555
H19 K7 2.817862 1_555
H20 N12 1.023469 1_545
H20 K0 2.817862 1_546
H21 N13 1.023469 1_565
H21 K1 2.817862 1_565
H22 N14 1.023469 1_555
H22 K2 2.817862 1_554
H23 N15 1.023469 1_555
H23 K3 2.817862 1_555
H24 N8 1.024024 1_555
H24 K13 2.836677 1_555
H25 N9 1.024024 1_555
H25 K12 2.836677 1_555
H26 N10 1.024024 1_555
H26 K15 2.836677 1_555
H27 N11 1.024024 1_555
H27 K14 2.836677 1_555
H28 N12 1.024024 1_555
H28 K9 2.836677 1_555
H29 N13 1.024024 1_555
H29 K8 2.836677 1_555
H30 N14 1.024024 1_555
H30 K11 2.836677 1_555
H31 N15 1.024024 1_555
H31 K10 2.836677 1_555
H32 K14 2.656178 1_555
H32 K11 2.757056 1_655
H32 K7 2.785832 1_555
H33 K15 2.656178 1_555
H33 K10 2.757056 1_555
H33 K6 2.785832 1_556
H34 K12 2.656178 1_555
H34 K9 2.757056 1_555
H34 K5 2.785832 1_555
H35 K13 2.656178 1_555
H35 K8 2.757056 1_455
H35 K4 2.785832 1_554
H36 K10 2.656178 1_555
H36 K15 2.757056 1_455
H36 K3 2.785832 1_555
H37 K11 2.656178 1_555
H37 K14 2.757056 1_555
H37 K2 2.785832 1_554
H38 K8 2.656178 1_555
H38 K13 2.757056 1_555
H38 K1 2.785832 1_555
H39 K9 2.656178 1_555
H39 K12 2.757056 1_655
H39 K0 2.785832 1_556
H40 K14 2.901535 1_555
H41 K15 2.901535 1_555
H42 K12 2.901535 1_555
H43 K13 2.901535 1_555
H44 K10 2.901535 1_555
H45 K11 2.901535 1_555
H46 K8 2.901535 1_555
H47 K9 2.901535 1_555
H48 K12 2.678737 1_655
H48 K9 2.820816 1_555
H48 K7 2.911608 1_555
H49 K13 2.678737 1_555
H49 K8 2.820816 1_555
H49 K6 2.911608 1_555
H50 K14 2.678737 1_555
H50 K11 2.820816 1_555
H50 K5 2.911608 1_555
H51 K15 2.678737 1_455
H51 K10 2.820816 1_555
H51 K4 2.911608 1_555
H52 K8 2.678737 1_455
H52 K13 2.820816 1_555
H52 K3 2.911608 1_555
H53 K9 2.678737 1_555
H53 K12 2.820816 1_555
H53 K2 2.911608 1_555
H54 K10 2.678737 1_555
H54 K15 2.820816 1_555
H54 K1 2.911608 1_555
H55 K11 2.678737 1_655
H55 K14 2.820816 1_555
H55 K0 2.911608 1_555
H56 K13 2.705771 1_555
H56 K8 2.815880 1_455
H57 K12 2.705771 1_555
H57 K9 2.815880 1_555
H58 K15 2.705771 1_555
H58 K10 2.815880 1_555
H59 K14 2.705771 1_555
H59 K11 2.815880 1_655
H60 K9 2.705771 1_555
H60 K12 2.815880 1_655
H61 K8 2.705771 1_555
H61 K13 2.815880 1_555
H62 K11 2.705771 1_555
H62 K14 2.815880 1_555
H63 K10 2.705771 1_555
H63 K15 2.815880 1_455
H64 K8 2.678367 1_455
H64 K4 2.953106 1_554
H65 K9 2.678367 1_555
H65 K5 2.953106 1_555
H66 K10 2.678367 1_555
H66 K6 2.953106 1_556
H67 K11 2.678367 1_655
H67 K7 2.953106 1_555
H68 K12 2.678367 1_655
H68 K0 2.953106 1_556
H69 K13 2.678367 1_555
H69 K1 2.953106 1_555
H70 K14 2.678367 1_555
H70 K2 2.953106 1_554
H71 K15 2.678367 1_455
H71 K3 2.953106 1_555
H72 K5 2.627759 1_555
H72 K0 2.689533 1_455
H73 K4 2.627759 1_555
H73 K1 2.689533 1_555
H74 K7 2.627759 1_555
H74 K2 2.689533 1_555
H75 K6 2.627759 1_555
H75 K3 2.689533 1_655
H76 K1 2.627759 1_555
H76 K4 2.689533 1_655
H77 K0 2.627759 1_555
H77 K5 2.689533 1_555
H78 K3 2.627759 1_555
H78 K6 2.689533 1_555
H79 K2 2.627759 1_555
H79 K7 2.689533 1_455
