# generated using pymatgen
data_CoNiSb
_symmetry_space_group_name_H-M   'P 1'
_cell_length_a   4.24327033
_cell_length_b   4.24327033
_cell_length_c   5.38023800
_cell_angle_alpha   90.00000000
_cell_angle_beta   90.00000000
_cell_angle_gamma   120.00000520
_symmetry_Int_Tables_number   1
_chemical_formula_structural   CoNiSb
_chemical_formula_sum   'Co2 Ni2 Sb2'
_cell_volume   83.89450162
_cell_formula_units_Z   2
loop_
 _symmetry_equiv_pos_site_id
 _symmetry_equiv_pos_as_xyz
  1  'x, y, z'
loop_
 _atom_site_type_symbol
 _atom_site_label
 _atom_site_symmetry_multiplicity
 _atom_site_fract_x
 _atom_site_fract_y
 _atom_site_fract_z
 _atom_site_occupancy
  Co  Co0  1  0.00000000  0.00000000  0.00000000  1
  Co  Co1  1  0.00000000  0.00000000  0.50000000  1
  Ni  Ni0  1  0.33333300  0.66666700  0.75000000  1
  Ni  Ni1  1  0.66666700  0.33333300  0.25000000  1
  Sb  Sb0  1  0.33333300  0.66666700  0.25000000  1
  Sb  Sb1  1  0.66666700  0.33333300  0.75000000  1
loop_
_geom_bond_atom_site_label_1
_geom_bond_atom_site_label_2
_geom_bond_distance
_geom_bond_site_symmetry_2
Co0 Co1 2.690119 1_554
Co0 Co1 2.690119 1_555
Co0 Ni1 2.794808 1_455
Co0 Sb1 2.794808 1_454
Co0 Ni0 2.794808 1_544
Co0 Sb0 2.794808 1_545
Co0 Sb1 2.794812 1_444
Co0 Ni0 2.794812 1_554
Co0 Ni0 2.794812 1_444
Co0 Sb0 2.794812 1_445
Co0 Ni1 2.794812 1_445
Co0 Ni1 2.794812 1_555
Co0 Sb0 2.794812 1_555
Co0 Sb1 2.794812 1_554
Co1 Ni1 2.794808 1_455
Co1 Ni0 2.794808 1_545
Co1 Sb1 2.794808 1_455
Co1 Sb0 2.794808 1_545
Co1 Ni0 2.794812 1_445
Co1 Sb0 2.794812 1_445
Co1 Ni0 2.794812 1_555
Co1 Sb1 2.794812 1_555
Co1 Ni1 2.794812 1_445
Co1 Ni1 2.794812 1_555
Co1 Sb1 2.794812 1_445
Co1 Sb0 2.794812 1_555
Ni0 Sb1 2.449851 1_455
Ni0 Sb1 2.449851 1_565
Ni0 Sb1 2.449858 1_555
Ni0 Sb0 2.690119 1_556
Ni0 Sb0 2.690119 1_555
Ni1 Sb0 2.449851 1_545
Ni1 Sb0 2.449851 1_655
Ni1 Sb0 2.449858 1_555
Ni1 Sb1 2.690119 1_555
Ni1 Sb1 2.690119 1_554
