# generated using pymatgen
data_Gd2SnAu2
_symmetry_space_group_name_H-M   'P 1'
_cell_length_a   7.95844330
_cell_length_b   7.95844330
_cell_length_c   3.79415350
_cell_angle_alpha   90.00000000
_cell_angle_beta   90.00000000
_cell_angle_gamma   89.99940735
_symmetry_Int_Tables_number   1
_chemical_formula_structural   Gd2SnAu2
_chemical_formula_sum   'Gd4 Sn2 Au4'
_cell_volume   240.30961636
_cell_formula_units_Z   2
loop_
 _symmetry_equiv_pos_site_id
 _symmetry_equiv_pos_as_xyz
  1  'x, y, z'
loop_
 _atom_site_type_symbol
 _atom_site_label
 _atom_site_symmetry_multiplicity
 _atom_site_fract_x
 _atom_site_fract_y
 _atom_site_fract_z
 _atom_site_occupancy
  Gd  Gd0  1  0.67185779  0.17185779  0.50000000  1
  Gd  Gd1  1  0.32814221  0.82814221  0.50000000  1
  Gd  Gd2  1  0.17184482  0.32815518  0.50000000  1
  Gd  Gd3  1  0.82815518  0.67184482  0.50000000  1
  Sn  Sn0  1  0.50000000  0.50000000  0.00000000  1
  Sn  Sn1  1  -0.00000000  -0.00000000  0.00000000  1
  Au  Au0  1  0.12614848  0.62614848  0.00000000  1
  Au  Au1  1  0.87385152  0.37385152  -0.00000000  1
  Au  Au2  1  0.62615817  0.87384183  0.00000000  1
  Au  Au3  1  0.37384183  0.12615817  0.00000000  1
loop_
_geom_bond_atom_site_label_1
_geom_bond_atom_site_label_2
_geom_bond_distance
_geom_bond_site_symmetry_2
Gd0 Sn1 3.505627 1_655
Gd0 Sn1 3.505627 1_656
Gd0 Sn0 3.505627 1_555
Gd0 Sn0 3.505627 1_556
Gd1 Sn1 3.505627 1_565
Gd1 Sn1 3.505627 1_566
Gd1 Sn0 3.505627 1_555
Gd1 Sn0 3.505627 1_556
Gd2 Sn0 3.505685 1_555
Gd2 Sn1 3.505685 1_556
Gd2 Sn0 3.505685 1_556
Gd2 Sn1 3.505685 1_555
Gd3 Sn1 3.505685 1_666
Gd3 Sn0 3.505685 1_555
Gd3 Sn0 3.505685 1_556
Gd3 Sn1 3.505685 1_665
Au0 Au1 2.839601 1_455
Au0 Gd1 2.960984 1_554
Au0 Gd1 2.960984 1_555
Au0 Gd3 3.058668 1_455
Au0 Gd2 3.058668 1_555
Au0 Gd2 3.058668 1_554
Au0 Gd3 3.058668 1_454
Au0 Sn1 3.140082 1_565
Au0 Sn0 3.140082 1_555
Au1 Gd0 2.960984 1_555
Au1 Gd0 2.960984 1_554
Au1 Gd3 3.058668 1_554
Au1 Gd2 3.058668 1_655
Au1 Gd3 3.058668 1_555
Au1 Gd2 3.058668 1_654
Au1 Sn1 3.140082 1_655
Au1 Sn0 3.140082 1_555
Au2 Au3 2.839790 1_565
Au2 Gd3 2.960994 1_554
Au2 Gd3 2.960994 1_555
Au2 Gd0 3.058817 1_565
Au2 Gd1 3.058817 1_555
Au2 Gd0 3.058817 1_564
Au2 Gd1 3.058817 1_554
Au2 Sn0 3.140053 1_555
Au2 Sn1 3.140053 1_665
Au3 Gd2 2.960994 1_555
Au3 Gd2 2.960994 1_554
Au3 Gd1 3.058817 1_544
Au3 Gd0 3.058817 1_555
Au3 Gd0 3.058817 1_554
Au3 Gd1 3.058817 1_545
Au3 Sn1 3.140053 1_555
Au3 Sn0 3.140053 1_555
