# generated using pymatgen
data_Hf2U
_symmetry_space_group_name_H-M   'P 1'
_cell_length_a   10.40128385
_cell_length_b   10.40128385
_cell_length_c   5.93056800
_cell_angle_alpha   90.00000000
_cell_angle_beta   90.00000000
_cell_angle_gamma   119.99999903
_symmetry_Int_Tables_number   1
_chemical_formula_structural   Hf2U
_chemical_formula_sum   'Hf16 U8'
_cell_volume   555.64936506
_cell_formula_units_Z   8
loop_
 _symmetry_equiv_pos_site_id
 _symmetry_equiv_pos_as_xyz
  1  'x, y, z'
loop_
 _atom_site_type_symbol
 _atom_site_label
 _atom_site_symmetry_multiplicity
 _atom_site_fract_x
 _atom_site_fract_y
 _atom_site_fract_z
 _atom_site_occupancy
  Hf  Hf0_0  1  0.16666650  0.33333350  0.25000000  1
  Hf  Hf0_1  1  0.16666650  0.33333350  0.75000000  1
  Hf  Hf0_2  1  0.16666650  0.83333350  0.25000000  1
  Hf  Hf0_3  1  0.16666650  0.83333350  0.75000000  1
  Hf  Hf0_4  1  0.66666650  0.33333350  0.25000000  1
  Hf  Hf0_5  1  0.66666650  0.33333350  0.75000000  1
  Hf  Hf0_6  1  0.66666650  0.83333350  0.25000000  1
  Hf  Hf0_7  1  0.66666650  0.83333350  0.75000000  1
  Hf  Hf1_0  1  0.33333350  0.16666650  0.25000000  1
  Hf  Hf1_1  1  0.33333350  0.16666650  0.75000000  1
  Hf  Hf1_2  1  0.33333350  0.66666650  0.25000000  1
  Hf  Hf1_3  1  0.33333350  0.66666650  0.75000000  1
  Hf  Hf1_4  1  0.83333350  0.16666650  0.25000000  1
  Hf  Hf1_5  1  0.83333350  0.16666650  0.75000000  1
  Hf  Hf1_6  1  0.83333350  0.66666650  0.25000000  1
  Hf  Hf1_7  1  0.83333350  0.66666650  0.75000000  1
  U  U0_0  1  0.00000000  0.00000000  0.00000000  1
  U  U0_1  1  0.00000000  0.00000000  0.50000000  1
  U  U0_2  1  0.00000000  0.50000000  0.00000000  1
  U  U0_3  1  0.00000000  0.50000000  0.50000000  1
  U  U0_4  1  0.50000000  0.00000000  0.00000000  1
  U  U0_5  1  0.50000000  0.00000000  0.50000000  1
  U  U0_6  1  0.50000000  0.50000000  0.00000000  1
  U  U0_7  1  0.50000000  0.50000000  0.50000000  1
loop_
_geom_bond_atom_site_label_1
_geom_bond_atom_site_label_2
_geom_bond_distance
_geom_bond_site_symmetry_2
Hf0_0 Hf0_1 2.965284 1_554
Hf0_0 Hf0_1 2.965284 1_555
Hf0_0 Hf1_2 3.002589 1_555
Hf0_0 Hf1_4 3.002589 1_455
Hf0_0 Hf1_0 3.002598 1_555
Hf0_0 U0_2 3.348696 1_555
Hf0_0 U0_3 3.348696 1_555
Hf0_0 U0_1 3.348701 1_555
Hf0_0 U0_0 3.348701 1_555
Hf0_0 U0_6 3.348701 1_555
Hf0_0 U0_7 3.348701 1_555
Hf0_1 Hf1_3 3.002589 1_555
Hf0_1 Hf1_5 3.002589 1_455
Hf0_1 Hf1_1 3.002598 1_555
Hf0_1 U0_2 3.348696 1_556
Hf0_1 U0_3 3.348696 1_555
Hf0_1 U0_1 3.348701 1_555
Hf0_1 U0_0 3.348701 1_556
Hf0_1 U0_6 3.348701 1_556
Hf0_1 U0_7 3.348701 1_555
Hf0_2 Hf0_3 2.965284 1_554
Hf0_2 Hf0_3 2.965284 1_555
Hf0_2 Hf1_0 3.002589 1_565
Hf0_2 Hf1_6 3.002589 1_455
Hf0_2 Hf1_2 3.002598 1_555
Hf0_2 U0_0 3.348696 1_565
Hf0_2 U0_1 3.348696 1_565
Hf0_2 U0_4 3.348701 1_565
Hf0_2 U0_3 3.348701 1_555
Hf0_2 U0_2 3.348701 1_555
Hf0_2 U0_5 3.348701 1_565
Hf0_3 Hf1_1 3.002589 1_565
Hf0_3 Hf1_7 3.002589 1_455
Hf0_3 Hf1_3 3.002598 1_555
Hf0_3 U0_0 3.348696 1_566
Hf0_3 U0_1 3.348696 1_565
Hf0_3 U0_4 3.348701 1_566
Hf0_3 U0_3 3.348701 1_555
Hf0_3 U0_2 3.348701 1_556
Hf0_3 U0_5 3.348701 1_565
Hf0_4 Hf0_5 2.965284 1_554
Hf0_4 Hf0_5 2.965284 1_555
Hf0_4 Hf1_0 3.002589 1_555
Hf0_4 Hf1_6 3.002589 1_555
Hf0_4 Hf1_4 3.002598 1_555
Hf0_4 U0_6 3.348696 1_555
Hf0_4 U0_7 3.348696 1_555
Hf0_4 U0_4 3.348701 1_555
Hf0_4 U0_5 3.348701 1_555
Hf0_4 U0_2 3.348701 1_655
Hf0_4 U0_3 3.348701 1_655
Hf0_5 Hf1_1 3.002589 1_555
Hf0_5 Hf1_7 3.002589 1_555
Hf0_5 Hf1_5 3.002598 1_555
Hf0_5 U0_6 3.348696 1_556
Hf0_5 U0_7 3.348696 1_555
Hf0_5 U0_5 3.348701 1_555
Hf0_5 U0_4 3.348701 1_556
Hf0_5 U0_2 3.348701 1_656
Hf0_5 U0_3 3.348701 1_655
Hf0_6 Hf0_7 2.965284 1_555
Hf0_6 Hf0_7 2.965284 1_554
Hf0_6 Hf1_4 3.002589 1_565
Hf0_6 Hf1_2 3.002589 1_555
Hf0_6 Hf1_6 3.002598 1_555
Hf0_6 U0_5 3.348696 1_565
Hf0_6 U0_4 3.348696 1_565
Hf0_6 U0_0 3.348701 1_665
Hf0_6 U0_1 3.348701 1_665
Hf0_6 U0_6 3.348701 1_555
Hf0_6 U0_7 3.348701 1_555
Hf0_7 Hf1_5 3.002589 1_565
Hf0_7 Hf1_3 3.002589 1_555
Hf0_7 Hf1_7 3.002598 1_555
Hf0_7 U0_5 3.348696 1_565
Hf0_7 U0_4 3.348696 1_566
Hf0_7 U0_1 3.348701 1_665
Hf0_7 U0_0 3.348701 1_666
Hf0_7 U0_6 3.348701 1_556
Hf0_7 U0_7 3.348701 1_555
Hf1_0 Hf1_1 2.965284 1_555
Hf1_0 Hf1_1 2.965284 1_554
Hf1_0 U0_4 3.348696 1_555
Hf1_0 U0_5 3.348696 1_555
Hf1_0 U0_6 3.348701 1_555
Hf1_0 U0_7 3.348701 1_555
Hf1_0 U0_1 3.348701 1_555
Hf1_0 U0_0 3.348701 1_555
Hf1_1 U0_4 3.348696 1_556
Hf1_1 U0_5 3.348696 1_555
Hf1_1 U0_6 3.348701 1_556
Hf1_1 U0_7 3.348701 1_555
Hf1_1 U0_1 3.348701 1_555
Hf1_1 U0_0 3.348701 1_556
Hf1_2 Hf1_3 2.965284 1_554
Hf1_2 Hf1_3 2.965284 1_555
Hf1_2 U0_6 3.348696 1_555
Hf1_2 U0_7 3.348696 1_555
Hf1_2 U0_2 3.348701 1_555
Hf1_2 U0_3 3.348701 1_555
Hf1_2 U0_5 3.348701 1_565
Hf1_2 U0_4 3.348701 1_565
Hf1_3 U0_6 3.348696 1_556
Hf1_3 U0_7 3.348696 1_555
Hf1_3 U0_2 3.348701 1_556
Hf1_3 U0_3 3.348701 1_555
Hf1_3 U0_5 3.348701 1_565
Hf1_3 U0_4 3.348701 1_566
Hf1_4 Hf1_5 2.965284 1_555
Hf1_4 Hf1_5 2.965284 1_554
Hf1_4 U0_0 3.348696 1_655
Hf1_4 U0_1 3.348696 1_655
Hf1_4 U0_5 3.348701 1_555
Hf1_4 U0_4 3.348701 1_555
Hf1_4 U0_3 3.348701 1_655
Hf1_4 U0_2 3.348701 1_655
Hf1_5 U0_0 3.348696 1_656
Hf1_5 U0_1 3.348696 1_655
Hf1_5 U0_5 3.348701 1_555
Hf1_5 U0_4 3.348701 1_556
Hf1_5 U0_2 3.348701 1_656
Hf1_5 U0_3 3.348701 1_655
Hf1_6 Hf1_7 2.965284 1_555
Hf1_6 Hf1_7 2.965284 1_554
Hf1_6 U0_2 3.348696 1_655
Hf1_6 U0_3 3.348696 1_655
Hf1_6 U0_6 3.348701 1_555
Hf1_6 U0_7 3.348701 1_555
Hf1_6 U0_1 3.348701 1_665
Hf1_6 U0_0 3.348701 1_665
Hf1_7 U0_2 3.348696 1_656
Hf1_7 U0_3 3.348696 1_655
Hf1_7 U0_6 3.348701 1_556
Hf1_7 U0_7 3.348701 1_555
Hf1_7 U0_0 3.348701 1_666
Hf1_7 U0_1 3.348701 1_665
U0_0 U0_1 2.965284 1_554
U0_0 U0_1 2.965284 1_555
U0_2 U0_3 2.965284 1_555
U0_2 U0_3 2.965284 1_554
U0_4 U0_5 2.965284 1_554
U0_4 U0_5 2.965284 1_555
U0_6 U0_7 2.965284 1_555
U0_6 U0_7 2.965284 1_554
