# generated using pymatgen
data_Tb3BBr3
_symmetry_space_group_name_H-M   'P 1'
_cell_length_a   9.74301902
_cell_length_b   9.74290295
_cell_length_c   9.74298606
_cell_angle_alpha   109.47062324
_cell_angle_beta   109.47173256
_cell_angle_gamma   109.47144626
_symmetry_Int_Tables_number   1
_chemical_formula_structural   Tb3BBr3
_chemical_formula_sum   'Tb12 B4 Br12'
_cell_volume   711.95306846
_cell_formula_units_Z   4
loop_
 _symmetry_equiv_pos_site_id
 _symmetry_equiv_pos_as_xyz
  1  'x, y, z'
loop_
 _atom_site_type_symbol
 _atom_site_label
 _atom_site_symmetry_multiplicity
 _atom_site_fract_x
 _atom_site_fract_y
 _atom_site_fract_z
 _atom_site_occupancy
  Tb  Tb0  1  0.46105716  0.48053570  0.23052191  1
  Tb  Tb1  1  0.75000618  0.23053010  0.26947259  1
  Tb  Tb2  1  0.75000181  0.01946254  0.48053980  1
  Tb  Tb3  1  0.23053640  0.46106461  0.48052611  1
  Tb  Tb4  1  0.26944770  0.74997346  0.23052389  1
  Tb  Tb5  1  0.03894431  0.26948057  0.01946872  1
  Tb  Tb6  1  0.01948386  0.03895879  0.26947663  1
  Tb  Tb7  1  0.48052227  0.74997433  0.01945349  1
  Tb  Tb8  1  0.48051826  0.23052997  0.46105284  1
  Tb  Tb9  1  0.01948078  0.48054337  0.75002131  1
  Tb  Tb10  1  0.26945483  0.01946625  0.03892311  1
  Tb  Tb11  1  0.23054523  0.26948178  0.75002083  1
  B  B0  1  0.24999997  0.25001125  0.24999110  1
  B  B1  1  0.49998626  -0.00001933  0.24999067  1
  B  B2  1  0.00001376  0.25001185  0.50001756  1
  B  B3  1  0.24999965  0.49999904  0.00000364  1
  Br  Br0  1  0.25000220  0.75816115  0.74183655  1
  Br  Br1  1  0.51632627  0.50815731  0.75814314  1
  Br  Br2  1  0.98366869  0.74186302  0.99184209  1
  Br  Br3  1  0.74182038  0.24998286  0.75814676  1
  Br  Br4  1  0.99183581  0.98368503  0.74183633  1
  Br  Br5  1  0.25000184  0.99184595  0.50815733  1
  Br  Br6  1  0.75815259  0.51631179  0.50815251  1
  Br  Br7  1  0.50817729  0.24998767  0.99185198  1
  Br  Br8  1  0.75818751  0.74185901  0.25002330  1
  Br  Br9  1  0.74183941  0.99183595  0.98368121  1
  Br  Br10  1  0.99182093  0.50814737  0.25000667  1
  Br  Br11  1  0.50816965  0.75815859  0.51631993  1
loop_
_geom_bond_atom_site_label_1
_geom_bond_atom_site_label_2
_geom_bond_distance
_geom_bond_site_symmetry_2
B0 Tb5 2.602663 1_555
B0 Tb0 2.602681 1_555
B0 Tb6 2.602709 1_555
B0 Tb3 2.602717 1_555
B0 Tb8 2.602743 1_555
B0 Tb10 2.602797 1_555
B1 Tb4 2.602837 1_545
B1 Tb7 2.602861 1_545
B1 Tb2 2.602870 1_555
B1 Tb8 2.602873 1_555
B1 Tb10 2.602879 1_555
B1 Tb1 2.602896 1_555
B2 Tb11 2.602765 1_555
B2 Tb3 2.602787 1_555
B2 Tb6 2.602791 1_555
B2 Tb1 2.602801 1_455
B2 Tb9 2.602803 1_555
B2 Tb2 2.602869 1_455
B3 Tb5 2.602610 1_555
B3 Tb0 2.602611 1_555
B3 Tb9 2.602647 1_554
B3 Tb7 2.602648 1_555
B3 Tb4 2.602662 1_555
B3 Tb11 2.602667 1_554
Br0 Tb9 2.929151 1_555
Br0 Tb7 2.929156 1_556
Br0 Tb10 3.048868 1_566
Br0 Tb3 3.048884 1_555
Br1 Tb3 2.929099 1_555
Br1 Tb11 2.929215 1_555
Br1 Tb8 3.048726 1_555
Br1 Tb7 3.048861 1_556
Br2 Tb10 2.929052 1_666
Br2 Tb4 2.929294 1_656
Br2 Tb6 3.048758 1_666
Br2 Tb9 3.048985 1_655
Br3 Tb2 2.929088 1_555
Br3 Tb9 2.929278 1_655
Br3 Tb8 3.048875 1_555
Br3 Tb5 3.048930 1_656
Br4 Tb11 2.929128 1_665
Br4 Tb5 2.929159 1_666
Br4 Tb2 3.048669 1_565
Br4 Tb10 3.048770 1_666
Br5 Tb8 2.929055 1_565
Br5 Tb6 2.929099 1_565
Br5 Tb4 3.048924 1_555
Br5 Tb11 3.048955 1_565
Br6 Tb8 2.929108 1_555
Br6 Tb1 2.929125 1_555
Br6 Tb0 3.048908 1_555
Br6 Tb9 3.048984 1_655
Br7 Tb10 2.929085 1_556
Br7 Tb0 2.929275 1_556
Br7 Tb1 3.048673 1_556
Br7 Tb11 3.048978 1_555
Br8 Tb2 2.929066 1_565
Br8 Tb7 2.929293 1_555
Br8 Tb6 3.048875 1_665
Br8 Tb0 3.048957 1_555
Br9 Tb6 2.929141 1_666
Br9 Tb1 2.929151 1_566
Br9 Tb7 3.048907 1_556
Br9 Tb5 3.048978 1_666
Br10 Tb3 2.929109 1_655
Br10 Tb5 2.929223 1_655
Br10 Tb1 3.048630 1_555
Br10 Tb4 3.048854 1_655
Br11 Tb0 2.929105 1_555
Br11 Tb4 2.929184 1_555
Br11 Tb2 3.048720 1_565
Br11 Tb3 3.048820 1_555
