# generated using pymatgen
data_CaTb4Al2(FeO6)2
_symmetry_space_group_name_H-M   'P 1'
_cell_length_a   6.14280864
_cell_length_b   6.25456642
_cell_length_c   7.08114982
_cell_angle_alpha   89.64869534
_cell_angle_beta   85.52756520
_cell_angle_gamma   91.98623958
_symmetry_Int_Tables_number   1
_chemical_formula_structural   CaTb4Al2(FeO6)2
_chemical_formula_sum   'Ca1 Tb4 Al2 Fe2 O12'
_cell_volume   271.06000170
_cell_formula_units_Z   1
loop_
 _symmetry_equiv_pos_site_id
 _symmetry_equiv_pos_as_xyz
  1  'x, y, z'
loop_
 _atom_site_type_symbol
 _atom_site_label
 _atom_site_symmetry_multiplicity
 _atom_site_fract_x
 _atom_site_fract_y
 _atom_site_fract_z
 _atom_site_occupancy
  Ca  Ca0  1  0.35914700  0.30426300  0.19574400  1
  Tb  Tb0  1  0.68870700  0.63688700  0.29723100  1
  Tb  Tb1  1  0.85368200  0.12189300  0.21207300  1
  Tb  Tb2  1  0.54225300  0.40683100  0.74029500  1
  Tb  Tb3  1  0.93574900  0.94352200  0.73932000  1
  Al  Al0  1  0.11200100  0.47501200  0.52516200  1
  Al  Al1  1  0.39447700  0.90904800  0.98267600  1
  Fe  Fe0  1  0.00569100  0.53574100  0.97193900  1
  Fe  Fe1  1  0.45845000  0.99064400  0.51573500  1
  O  O0  1  0.48204400  0.95543600  0.21569500  1
  O  O1  1  0.03144000  0.45740000  0.28616700  1
  O  O2  1  0.57007800  0.02598900  0.78484100  1
  O  O3  1  0.90210900  0.56349000  0.69185600  1
  O  O4  1  0.84279400  0.81227600  0.03552400  1
  O  O5  1  0.61881600  0.30363600  0.43479100  1
  O  O6  1  0.17964300  0.20393000  0.57904500  1
  O  O7  1  0.32917200  0.62901300  0.95065700  1
  O  O8  1  0.17732100  0.10374400  0.98793000  1
  O  O9  1  0.35779200  0.64158600  0.52839600  1
  O  O10  1  0.81993500  0.89579400  0.45464100  1
  O  O11  1  0.70120000  0.36958100  0.03099800  1
loop_
_geom_bond_atom_site_label_1
_geom_bond_atom_site_label_2
_geom_bond_distance
_geom_bond_site_symmetry_2
Ca0 O8 2.273278 1_554
Ca0 O1 2.306482 1_555
Ca0 O0 2.340298 1_545
Ca0 O11 2.344163 1_555
Ca0 O5 2.414773 1_555
Ca0 O7 2.684035 1_554
Ca0 O6 2.905339 1_555
Al0 O3 1.783824 1_455
Al0 O1 1.802841 1_555
Al0 O6 1.805154 1_555
Al0 O9 1.806171 1_555
Al1 O0 1.797120 1_556
Al1 O7 1.802894 1_555
Al1 O2 1.832516 1_565
Al1 O8 1.835513 1_565
Fe0 O7 2.045335 1_555
Fe0 O4 2.062720 1_456
Fe0 O11 2.119290 1_456
Fe0 O3 2.137462 1_455
Fe0 O1 2.294134 1_556
Fe1 O2 2.085365 1_565
Fe1 O0 2.131541 1_555
Fe1 O5 2.212637 1_565
Fe1 O6 2.227044 1_565
Fe1 O9 2.247694 1_555
Fe1 O10 2.326909 1_555
O0 Tb1 2.474268 1_565
O0 Tb0 2.487991 1_555
O1 Tb1 2.411454 1_455
O1 Tb0 2.416207 1_455
O2 Tb3 2.320561 1_545
O2 Tb2 2.414553 1_555
O3 Tb2 2.385716 1_555
O3 Tb3 2.406671 1_555
O4 Tb3 2.271314 1_554
O4 Tb0 2.272248 1_555
O4 Tb1 2.313279 1_565
O5 Tb2 2.279742 1_555
O5 Tb0 2.307701 1_555
O5 Tb1 2.375222 1_555
O6 Tb3 2.393417 1_445
O6 Tb2 2.845046 1_555
O7 Tb2 2.389708 1_555
O8 Tb1 2.451560 1_456
O8 Tb3 2.575157 1_445
O9 Tb2 2.458608 1_555
O9 Tb0 2.509622 1_555
O10 Tb0 2.141569 1_555
O10 Tb3 2.207992 1_555
O10 Tb1 2.210772 1_565
O11 Tb1 2.277044 1_555
O11 Tb2 2.359750 1_554
O11 Tb0 2.525901 1_555
