# generated using pymatgen
data_Mg14AlV
_symmetry_space_group_name_H-M   'P 1'
_cell_length_a   6.26811341
_cell_length_b   6.26811292
_cell_length_c   10.31137046
_cell_angle_alpha   90.00000000
_cell_angle_beta   90.00000000
_cell_angle_gamma   120.00000263
_symmetry_Int_Tables_number   1
_chemical_formula_structural   Mg14AlV
_chemical_formula_sum   'Mg14 Al1 V1'
_cell_volume   350.84934314
_cell_formula_units_Z   1
loop_
 _symmetry_equiv_pos_site_id
 _symmetry_equiv_pos_as_xyz
  1  'x, y, z'
loop_
 _atom_site_type_symbol
 _atom_site_label
 _atom_site_symmetry_multiplicity
 _atom_site_fract_x
 _atom_site_fract_y
 _atom_site_fract_z
 _atom_site_occupancy
  Mg  Mg0  1  0.16581980  0.83290940  0.12500000  1
  Mg  Mg1  1  0.16787076  0.83393488  0.62500000  1
  Mg  Mg2  1  0.66709060  0.33418020  0.12500000  1
  Mg  Mg3  1  0.66606512  0.33212924  0.62500000  1
  Mg  Mg4  1  0.66709060  0.83290940  0.12500000  1
  Mg  Mg5  1  0.66606512  0.83393488  0.62500000  1
  Mg  Mg6  1  0.33055359  0.16944641  0.37548283  1
  Mg  Mg7  1  0.33055359  0.16944641  0.87451717  1
  Mg  Mg8  1  0.33055359  0.66110818  0.37548283  1
  Mg  Mg9  1  0.33055359  0.66110818  0.87451717  1
  Mg  Mg10  1  0.83889182  0.16944641  0.37548283  1
  Mg  Mg11  1  0.83889182  0.16944641  0.87451717  1
  Mg  Mg12  1  0.83333300  0.66666700  0.37470578  1
  Mg  Mg13  1  0.83333300  0.66666700  0.87529422  1
  Al  Al0  1  0.16666700  0.33333300  0.12500000  1
  V  V0  1  0.16666700  0.33333300  0.62500000  1
loop_
_geom_bond_atom_site_label_1
_geom_bond_atom_site_label_2
_geom_bond_distance
_geom_bond_site_symmetry_2
Mg0 Mg2 3.126091 1_455
Mg0 Mg4 3.126091 1_455
Mg0 Mg2 3.142022 1_565
Mg0 Mg4 3.142022 1_555
Mg0 Mg12 3.144382 1_455
Mg0 Mg13 3.144382 1_454
Mg0 Mg9 3.163662 1_554
Mg0 Mg8 3.163662 1_555
Mg0 Mg7 3.163668 1_564
Mg0 Mg6 3.163668 1_565
Mg1 Mg3 3.122739 1_565
Mg1 Mg5 3.122739 1_555
Mg1 V0 3.134063 1_555
Mg1 V0 3.134063 1_565
Mg1 Mg3 3.145374 1_455
Mg1 Mg5 3.145375 1_455
Mg1 Mg9 3.152401 1_555
Mg1 Mg8 3.152401 1_555
Mg1 Mg6 3.152407 1_565
Mg1 Mg7 3.152407 1_565
Mg1 Mg12 3.155746 1_455
Mg1 Mg13 3.155746 1_455
Mg2 Mg4 3.126091 1_555
Mg2 Mg4 3.142022 1_545
Mg2 Mg7 3.163668 1_554
Mg2 Mg6 3.163668 1_555
Mg3 Mg5 3.122739 1_545
Mg3 V0 3.134064 1_655
Mg3 V0 3.134064 1_555
Mg3 Mg5 3.145374 1_555
Mg3 Mg6 3.152408 1_555
Mg3 Mg7 3.152408 1_555
Mg4 Mg9 3.163668 1_554
Mg4 Mg8 3.163668 1_555
Mg5 V0 3.134063 1_555
Mg5 V0 3.134063 1_665
Mg5 Mg8 3.152407 1_555
Mg5 Mg9 3.152407 1_555
Mg6 Mg8 3.081791 1_555
Mg6 V0 3.128165 1_555
Mg6 Mg8 3.186321 1_545
Mg7 Mg9 3.081791 1_555
Mg7 V0 3.128165 1_555
Mg7 Mg9 3.186321 1_545
Mg8 V0 3.128171 1_555
Mg9 V0 3.128171 1_555
Mg10 Mg8 3.081791 1_655
Mg10 Mg6 3.081792 1_655
Mg10 V0 3.128171 1_655
Mg10 Mg12 3.134212 1_545
Mg10 Mg12 3.134212 1_555
Mg10 Mg3 3.152401 1_555
Mg10 Mg5 3.152407 1_545
Mg10 Mg2 3.163662 1_555
Mg10 Mg4 3.163668 1_545
Mg10 Mg8 3.186321 1_545
Mg10 Mg6 3.186322 1_555
Mg11 Mg9 3.081791 1_655
Mg11 Mg7 3.081792 1_655
Mg11 V0 3.128171 1_655
Mg11 Mg13 3.134212 1_545
Mg11 Mg13 3.134212 1_555
Mg11 Mg3 3.152401 1_555
Mg11 Mg5 3.152407 1_545
Mg11 Mg2 3.163662 1_556
Mg11 Mg4 3.163668 1_546
Mg11 Mg9 3.186321 1_545
Mg11 Mg7 3.186322 1_555
Mg12 Mg6 3.134212 1_665
Mg12 Mg6 3.134212 1_555
Mg12 Mg8 3.134212 1_555
Mg12 Mg8 3.134212 1_655
Mg12 Mg4 3.144375 1_555
Mg12 Mg2 3.144381 1_555
Mg12 Mg5 3.155739 1_555
Mg12 Mg3 3.155745 1_555
Mg13 Mg7 3.134212 1_665
Mg13 Mg7 3.134212 1_555
Mg13 Mg9 3.134212 1_555
Mg13 Mg9 3.134212 1_655
Mg13 Mg4 3.144375 1_556
Mg13 Mg2 3.144381 1_556
Mg13 Mg5 3.155739 1_555
Mg13 Mg3 3.155745 1_555
Al0 Mg4 3.134060 1_445
Al0 Mg4 3.134060 1_555
Al0 Mg0 3.134060 1_545
Al0 Mg0 3.134060 1_555
Al0 Mg2 3.134060 1_555
Al0 Mg2 3.134060 1_455
Al0 Mg7 3.136360 1_554
Al0 Mg6 3.136360 1_555
Al0 Mg9 3.136366 1_554
Al0 Mg8 3.136366 1_555
Al0 Mg11 3.136366 1_454
Al0 Mg10 3.136366 1_455
