# generated using pymatgen
data_NaMg6Cu
_symmetry_space_group_name_H-M   'P 1'
_cell_length_a   5.03886100
_cell_length_b   6.35363900
_cell_length_c   10.90372200
_cell_angle_alpha   90.00000000
_cell_angle_beta   90.00000000
_cell_angle_gamma   90.00000000
_symmetry_Int_Tables_number   1
_chemical_formula_structural   NaMg6Cu
_chemical_formula_sum   'Na2 Mg12 Cu2'
_cell_volume   349.08379126
_cell_formula_units_Z   2
loop_
 _symmetry_equiv_pos_site_id
 _symmetry_equiv_pos_as_xyz
  1  'x, y, z'
loop_
 _atom_site_type_symbol
 _atom_site_label
 _atom_site_symmetry_multiplicity
 _atom_site_fract_x
 _atom_site_fract_y
 _atom_site_fract_z
 _atom_site_occupancy
  Na  Na0  1  0.50000000  0.50000000  0.83361400  1
  Na  Na1  1  0.50000000  0.00000000  0.33361400  1
  Mg  Mg0  1  0.50000000  0.24791600  0.08390600  1
  Mg  Mg1  1  0.50000000  0.75208400  0.08390600  1
  Mg  Mg2  1  0.00000000  0.23769000  0.91406600  1
  Mg  Mg3  1  0.00000000  0.76231000  0.91406600  1
  Mg  Mg4  1  0.00000000  0.50000000  0.17214100  1
  Mg  Mg5  1  0.00000000  0.50000000  0.66439000  1
  Mg  Mg6  1  0.50000000  0.74791600  0.58390600  1
  Mg  Mg7  1  0.50000000  0.25208400  0.58390600  1
  Mg  Mg8  1  0.00000000  0.73769000  0.41406600  1
  Mg  Mg9  1  0.00000000  0.26231000  0.41406600  1
  Mg  Mg10  1  0.00000000  0.00000000  0.67214100  1
  Mg  Mg11  1  0.00000000  0.00000000  0.16439000  1
  Cu  Cu0  1  0.50000000  0.50000000  0.33391500  1
  Cu  Cu1  1  0.50000000  0.00000000  0.83391500  1
loop_
_geom_bond_atom_site_label_1
_geom_bond_atom_site_label_2
_geom_bond_distance
_geom_bond_site_symmetry_2
Mg0 Mg11 3.098197 1_655
Mg0 Mg11 3.098197 1_555
Mg0 Mg2 3.127498 1_654
Mg0 Mg2 3.127498 1_554
Mg0 Mg4 3.136628 1_555
Mg0 Mg4 3.136628 1_655
Mg0 Na1 3.145553 1_555
Mg0 Mg1 3.150338 1_545
Mg0 Na0 3.164388 1_554
Mg0 Mg1 3.203301 1_555
Mg1 Mg11 3.098197 1_665
Mg1 Mg11 3.098197 1_565
Mg1 Mg3 3.127498 1_554
Mg1 Mg3 3.127498 1_654
Mg1 Mg4 3.136628 1_555
Mg1 Mg4 3.136628 1_655
Mg1 Na1 3.145553 1_565
Mg1 Na0 3.164388 1_554
Mg2 Mg3 3.020393 1_545
Mg2 Na0 3.145582 1_555
Mg2 Na0 3.145582 1_455
Mg2 Mg5 3.192034 1_555
Mg2 Mg4 3.270490 1_556
Mg2 Mg3 3.333246 1_555
Mg3 Na0 3.145582 1_555
Mg3 Na0 3.145582 1_455
Mg3 Mg5 3.192034 1_555
Mg3 Mg4 3.270490 1_556
Mg4 Mg8 3.039592 1_555
Mg4 Mg9 3.039592 1_555
Mg5 Mg7 3.098197 1_555
Mg5 Mg7 3.098197 1_455
Mg5 Mg6 3.098197 1_455
Mg5 Mg6 3.098197 1_555
Mg5 Mg8 3.119401 1_555
Mg5 Mg9 3.119401 1_555
Mg5 Na0 3.122849 1_455
Mg5 Na0 3.122849 1_555
Mg6 Mg8 3.127498 1_555
Mg6 Mg8 3.127498 1_655
Mg6 Na0 3.145553 1_555
Mg6 Mg7 3.150338 1_555
Mg6 Na1 3.164388 1_565
Mg6 Mg7 3.203301 1_565
Mg7 Mg9 3.127498 1_555
Mg7 Mg9 3.127498 1_655
Mg7 Na0 3.145553 1_555
Mg7 Na1 3.164388 1_555
Mg8 Mg9 3.020393 1_555
Mg8 Na1 3.145582 1_565
Mg8 Na1 3.145582 1_465
Mg8 Mg9 3.333246 1_565
Mg9 Na1 3.145582 1_555
Mg9 Na1 3.145582 1_455
Mg10 Mg2 3.039592 1_555
Mg10 Mg3 3.039592 1_545
Mg10 Mg6 3.136628 1_545
Mg10 Mg7 3.136628 1_455
Mg10 Mg7 3.136628 1_555
Mg10 Mg6 3.136628 1_445
Mg10 Mg5 3.177943 1_555
Mg10 Mg5 3.177943 1_545
Mg10 Mg9 3.270490 1_555
Mg10 Mg8 3.270490 1_545
Mg11 Mg2 3.119401 1_554
Mg11 Mg3 3.119401 1_544
Mg11 Na1 3.122849 1_455
Mg11 Na1 3.122849 1_555
Mg11 Mg4 3.177943 1_555
Mg11 Mg4 3.177943 1_545
Mg11 Mg9 3.192034 1_555
Mg11 Mg8 3.192034 1_545
Cu0 Mg9 3.064637 1_555
Cu0 Mg8 3.064637 1_555
Cu0 Mg9 3.064637 1_655
Cu0 Mg8 3.064637 1_655
Cu0 Mg4 3.075550 1_655
Cu0 Mg4 3.075550 1_555
Cu0 Mg6 3.148225 1_555
Cu0 Mg7 3.148225 1_555
Cu0 Mg1 3.161727 1_555
Cu0 Mg0 3.161727 1_555
Cu0 Na1 3.176821 1_555
Cu0 Na1 3.176821 1_565
Cu1 Mg2 3.064637 1_555
Cu1 Mg3 3.064637 1_645
Cu1 Mg3 3.064637 1_545
Cu1 Mg2 3.064637 1_655
Cu1 Mg10 3.075550 1_555
Cu1 Mg10 3.075550 1_655
Cu1 Mg1 3.148225 1_546
Cu1 Mg0 3.148225 1_556
Cu1 Mg6 3.161727 1_545
Cu1 Mg7 3.161727 1_555
Cu1 Na0 3.176821 1_555
Cu1 Na0 3.176821 1_545
