# generated using pymatgen
data_Li7Mn4CoO12
_symmetry_space_group_name_H-M   'P 1'
_cell_length_a   2.96634200
_cell_length_b   7.65640390
_cell_length_c   9.92719945
_cell_angle_alpha   101.09677384
_cell_angle_beta   92.96633786
_cell_angle_gamma   98.43611725
_symmetry_Int_Tables_number   1
_chemical_formula_structural   Li7Mn4CoO12
_chemical_formula_sum   'Li7 Mn4 Co1 O12'
_cell_volume   218.10823570
_cell_formula_units_Z   1
loop_
 _symmetry_equiv_pos_site_id
 _symmetry_equiv_pos_as_xyz
  1  'x, y, z'
loop_
 _atom_site_type_symbol
 _atom_site_label
 _atom_site_symmetry_multiplicity
 _atom_site_fract_x
 _atom_site_fract_y
 _atom_site_fract_z
 _atom_site_occupancy
  Li  Li0  1  0.08444800  0.16629300  0.74653200  1
  Li  Li1  1  0.58555300  0.16944000  0.25513500  1
  Li  Li2  1  0.76177300  0.51181600  0.75563700  1
  Li  Li3  1  0.25899900  0.50662400  0.24356000  1
  Li  Li4  1  0.40722100  0.82787100  0.75658400  1
  Li  Li5  1  0.90243000  0.81687800  0.24108100  1
  Li  Li6  1  0.33342100  0.66640300  0.99956300  1
  Mn  Mn0  1  0.00235700  0.98997300  0.99638900  1
  Mn  Mn1  1  0.66401900  0.34287600  0.00352200  1
  Mn  Mn2  1  0.50165500  0.00278100  0.49784200  1
  Mn  Mn3  1  0.83047500  0.66415200  0.50079300  1
  Co  Co0  1  0.16831700  0.33366200  0.50144200  1
  O  O0  1  0.52536100  0.08299400  0.89358600  1
  O  O1  1  0.08596100  0.09689200  0.38138100  1
  O  O2  1  0.16927600  0.39979100  0.89205200  1
  O  O3  1  0.74600800  0.42079200  0.38716200  1
  O  O4  1  0.89162500  0.76905300  0.88205300  1
  O  O5  1  0.41763400  0.75827000  0.37966700  1
  O  O6  1  0.58776500  0.24464500  0.61700000  1
  O  O7  1  0.14154400  0.25060900  0.10645700  1
  O  O8  1  0.24903900  0.57132900  0.61867700  1
  O  O9  1  0.77424800  0.56390000  0.11890300  1
  O  O10  1  0.91358300  0.90940600  0.61660100  1
  O  O11  1  0.49728600  0.93355100  0.10838100  1
loop_
_geom_bond_atom_site_label_1
_geom_bond_atom_site_label_2
_geom_bond_distance
_geom_bond_site_symmetry_2
Li0 O2 2.045123 1_555
Li0 O10 2.110053 1_445
Li0 O6 2.115493 1_555
Li0 O6 2.131731 1_455
Li0 O0 2.157311 1_555
Li0 O0 2.363667 1_455
Li1 O11 2.064410 1_545
Li1 O1 2.072219 1_555
Li1 O3 2.084141 1_555
Li1 O1 2.097606 1_655
Li1 O7 2.165968 1_555
Li1 O7 2.364108 1_655
Li2 O4 2.092418 1_555
Li2 O8 2.096191 1_655
Li2 O8 2.144126 1_555
Li2 O2 2.147708 1_655
Li2 O6 2.208597 1_555
Li2 O2 2.430985 1_555
Li3 O9 2.000277 1_455
Li3 O9 2.065844 1_555
Li3 O5 2.103649 1_555
Li3 O7 2.130642 1_555
Li3 O3 2.230941 1_555
Li3 O3 2.251980 1_455
Li4 O4 2.009840 1_555
Li4 O4 2.074697 1_455
Li4 O0 2.124904 1_565
Li4 O8 2.140198 1_555
Li4 O10 2.202674 1_555
Li4 O10 2.203750 1_455
Li5 O9 2.049179 1_555
Li5 O5 2.101241 1_555
Li5 O11 2.140512 1_555
Li5 O5 2.156607 1_655
Li5 O1 2.293948 1_665
Li5 O11 2.424469 1_655
Li6 O4 2.047650 1_455
Li6 O9 2.056226 1_556
Li6 O2 2.087820 1_555
Li6 O11 2.095297 1_556
Li6 O4 2.211620 1_555
Li6 O9 2.224875 1_456
Mn0 O4 1.821150 1_455
Mn0 O11 1.944240 1_556
Mn0 O11 1.958226 1_456
Mn0 O0 1.994192 1_465
Mn0 O0 2.018681 1_565
Mn0 O7 2.053966 1_566
Mn1 O9 1.826293 1_555
Mn1 O2 1.942520 1_554
Mn1 O2 1.956108 1_654
Mn1 O7 1.992834 1_655
Mn1 O7 2.016378 1_555
Mn1 O0 2.048633 1_554
Mn2 O1 1.951965 1_555
Mn2 O10 1.955956 1_545
Mn2 O6 1.969884 1_555
Mn2 O5 1.982547 1_545
Mn2 O1 2.240897 1_655
Mn2 O10 2.261725 1_445
Mn3 O3 1.957472 1_555
Mn3 O8 1.960825 1_655
Mn3 O5 1.976086 1_555
Mn3 O10 1.977959 1_555
Mn3 O8 2.240245 1_555
Mn3 O5 2.276125 1_655
Co0 O3 1.921145 1_455
Co0 O6 1.931489 1_555
Co0 O8 1.936784 1_555
Co0 O1 1.942866 1_555
Co0 O3 2.196749 1_555
Co0 O6 2.215227 1_455
