# generated using pymatgen
data_CaAlSi
_symmetry_space_group_name_H-M   'P 1'
_cell_length_a   4.18908606
_cell_length_b   4.18908686
_cell_length_c   26.35911528
_cell_angle_alpha   90.00000000
_cell_angle_beta   90.00000000
_cell_angle_gamma   120.00000159
_symmetry_Int_Tables_number   1
_chemical_formula_structural   CaAlSi
_chemical_formula_sum   'Ca6 Al6 Si6'
_cell_volume   400.58999847
_cell_formula_units_Z   6
loop_
 _symmetry_equiv_pos_site_id
 _symmetry_equiv_pos_as_xyz
  1  'x, y, z'
loop_
 _atom_site_type_symbol
 _atom_site_label
 _atom_site_symmetry_multiplicity
 _atom_site_fract_x
 _atom_site_fract_y
 _atom_site_fract_z
 _atom_site_occupancy
  Ca  Ca0  1  0.00000000  0.00000000  0.33320720  1
  Ca  Ca1  1  0.00000000  0.00000000  0.83320720  1
  Ca  Ca2  1  0.00000000  0.00000000  0.16862374  1
  Ca  Ca3  1  0.00000000  0.00000000  0.00040323  1
  Ca  Ca4  1  0.00000000  0.00000000  0.66862374  1
  Ca  Ca5  1  0.00000000  0.00000000  0.50040323  1
  Al  Al0  1  0.33333300  0.66666700  0.41067837  1
  Al  Al1  1  0.33333300  0.66666700  0.25247518  1
  Al  Al2  1  0.33333300  0.66666700  0.08988053  1
  Al  Al3  1  0.66666700  0.33333300  0.91067837  1
  Al  Al4  1  0.66666700  0.33333300  0.75247518  1
  Al  Al5  1  0.66666700  0.33333300  0.58988053  1
  Si  Si0  1  0.33333300  0.66666700  0.57941003  1
  Si  Si1  1  0.33333300  0.66666700  0.92178023  1
  Si  Si2  1  0.33333300  0.66666700  0.74990050  1
  Si  Si3  1  0.66666700  0.33333300  0.24990050  1
  Si  Si4  1  0.66666700  0.33333300  0.07941003  1
  Si  Si5  1  0.66666700  0.33333300  0.42178023  1
loop_
_geom_bond_atom_site_label_1
_geom_bond_atom_site_label_2
_geom_bond_distance
_geom_bond_site_symmetry_2
Ca0 Si3 3.266712 1_455
Ca0 Si3 3.266714 1_555
Ca0 Si3 3.266715 1_445
Ca0 Si5 3.361596 1_455
Ca0 Si5 3.361598 1_555
Ca0 Si5 3.361598 1_445
Ca1 Si2 3.266712 1_545
Ca1 Si2 3.266714 1_445
Ca1 Si2 3.266715 1_555
Ca1 Si1 3.361596 1_545
Ca1 Si1 3.361598 1_445
Ca1 Si1 3.361598 1_555
Ca2 Si3 3.230987 1_455
Ca2 Si3 3.230990 1_555
Ca2 Si3 3.230990 1_445
Ca2 Si4 3.373347 1_455
Ca2 Si4 3.373349 1_555
Ca2 Si4 3.373349 1_445
Ca3 Si1 3.185035 1_544
Ca3 Si1 3.185037 1_444
Ca3 Si1 3.185038 1_554
Ca3 Si4 3.191627 1_455
Ca3 Si4 3.191629 1_555
Ca3 Si4 3.191630 1_445
Ca4 Si2 3.230987 1_545
Ca4 Si2 3.230990 1_445
Ca4 Si2 3.230990 1_555
Ca4 Si0 3.373347 1_545
Ca4 Si0 3.373349 1_445
Ca4 Si0 3.373349 1_555
Ca5 Si5 3.185035 1_455
Ca5 Si5 3.185037 1_555
Ca5 Si5 3.185038 1_445
Ca5 Si0 3.191627 1_545
Ca5 Si0 3.191629 1_445
Ca5 Si0 3.191630 1_555
Al0 Si5 2.436207 1_455
Al0 Si5 2.436207 1_565
Al0 Si5 2.436214 1_555
Al0 Ca0 3.165364 1_565
Al0 Ca0 3.165366 1_665
Al0 Ca0 3.165366 1_555
Al0 Ca5 3.382753 1_565
Al0 Ca5 3.382755 1_665
Al0 Ca5 3.382756 1_555
Al1 Si3 2.419520 1_455
Al1 Si3 2.419520 1_565
Al1 Si3 2.419527 1_555
Al1 Ca0 3.221484 1_565
Al1 Ca0 3.221486 1_665
Al1 Ca0 3.221487 1_555
Al1 Ca2 3.276381 1_565
Al1 Ca2 3.276384 1_665
Al1 Ca2 3.276384 1_555
Al2 Si4 2.434264 1_455
Al2 Si4 2.434264 1_565
Al2 Si4 2.434271 1_555
Al2 Ca2 3.187098 1_565
Al2 Ca2 3.187100 1_665
Al2 Ca2 3.187100 1_555
Al2 Ca3 3.378194 1_565
Al2 Ca3 3.378196 1_665
Al2 Ca3 3.378196 1_555
Al3 Si1 2.436207 1_655
Al3 Si1 2.436207 1_545
Al3 Si1 2.436214 1_555
Al3 Ca1 3.165364 1_655
Al3 Ca1 3.165366 1_555
Al3 Ca1 3.165366 1_665
Al3 Ca3 3.382753 1_656
Al3 Ca3 3.382755 1_556
Al3 Ca3 3.382756 1_666
Al4 Si2 2.419520 1_655
Al4 Si2 2.419520 1_545
Al4 Si2 2.419527 1_555
Al4 Ca1 3.221484 1_655
Al4 Ca1 3.221486 1_555
Al4 Ca1 3.221487 1_665
Al4 Ca4 3.276381 1_655
Al4 Ca4 3.276384 1_555
Al4 Ca4 3.276384 1_665
Al5 Si0 2.434264 1_655
Al5 Si0 2.434264 1_545
Al5 Si0 2.434271 1_555
Al5 Ca4 3.187098 1_655
Al5 Ca4 3.187100 1_555
Al5 Ca4 3.187100 1_665
Al5 Ca5 3.378194 1_655
Al5 Ca5 3.378196 1_555
Al5 Ca5 3.378196 1_665
