# generated using pymatgen
data_UNbN2
_symmetry_space_group_name_H-M   'P 1'
_cell_length_a   3.26435695
_cell_length_b   5.74491461
_cell_length_c   10.94059534
_cell_angle_alpha   90.00108602
_cell_angle_beta   90.00000000
_cell_angle_gamma   90.00000000
_symmetry_Int_Tables_number   1
_chemical_formula_structural   UNbN2
_chemical_formula_sum   'U4 Nb4 N8'
_cell_volume   205.17392882
_cell_formula_units_Z   4
loop_
 _symmetry_equiv_pos_site_id
 _symmetry_equiv_pos_as_xyz
  1  'x, y, z'
loop_
 _atom_site_type_symbol
 _atom_site_label
 _atom_site_symmetry_multiplicity
 _atom_site_fract_x
 _atom_site_fract_y
 _atom_site_fract_z
 _atom_site_occupancy
  U  U0  1  0.25000000  0.57638900  0.85531152  1
  U  U1  1  0.75000000  0.42360071  0.14470320  1
  U  U2  1  0.75000000  0.92359628  0.35530878  1
  U  U3  1  0.25000000  0.07637848  0.64467844  1
  Nb  Nb0  1  0.25000000  0.92923646  0.09838692  1
  Nb  Nb1  1  0.75000000  0.07074919  0.90162618  1
  Nb  Nb2  1  0.75000000  0.57076357  0.59834749  1
  Nb  Nb3  1  0.25000000  0.42927477  0.40165277  1
  N  N0  1  0.25000000  0.66371083  0.24420476  1
  N  N1  1  0.75000000  0.33631269  0.75581016  1
  N  N2  1  0.75000000  0.83620864  0.74424252  1
  N  N3  1  0.25000000  0.16378462  0.25575959  1
  N  N4  1  0.25000000  0.77032412  0.50419929  1
  N  N5  1  0.75000000  0.22966822  0.49577673  1
  N  N6  1  0.75000000  0.72961661  0.00419747  1
  N  N7  1  0.25000000  0.27038682  0.99579418  1
loop_
_geom_bond_atom_site_label_1
_geom_bond_atom_site_label_2
_geom_bond_distance
_geom_bond_site_symmetry_2
N0 Nb3 2.186610 1_555
N0 Nb0 2.207282 1_555
N0 U1 2.398289 1_455
N0 U1 2.398289 1_555
N0 U2 2.524003 1_455
N0 U2 2.524003 1_555
N1 Nb2 2.186789 1_555
N1 Nb1 2.207418 1_555
N1 U0 2.398177 1_655
N1 U0 2.398177 1_555
N1 U3 2.524315 1_655
N1 U3 2.524315 1_555
N2 Nb1 2.186385 1_565
N2 Nb2 2.207531 1_555
N2 U3 2.398821 1_565
N2 U3 2.398821 1_665
N2 U0 2.523623 1_655
N2 U0 2.523623 1_555
N3 Nb0 2.186317 1_545
N3 Nb3 2.207696 1_555
N3 U2 2.398808 1_445
N3 U2 2.398808 1_545
N3 U1 2.523544 1_455
N3 U1 2.523544 1_555
N4 Nb2 2.244860 1_455
N4 Nb2 2.244860 1_555
N4 Nb3 2.257759 1_555
N4 U3 2.335274 1_565
N4 U2 2.468377 1_455
N4 U2 2.468377 1_555
N5 Nb3 2.244873 1_555
N5 Nb3 2.244873 1_655
N5 Nb2 2.258120 1_555
N5 U2 2.335269 1_545
N5 U3 2.468494 1_555
N5 U3 2.468494 1_655
N6 Nb0 2.245221 1_655
N6 Nb0 2.245221 1_555
N6 Nb1 2.258345 1_564
N6 U1 2.335342 1_555
N6 U0 2.468231 1_654
N6 U0 2.468231 1_554
N7 Nb1 2.245165 1_455
N7 Nb1 2.245165 1_555
N7 Nb0 2.258551 1_546
N7 U0 2.335117 1_555
N7 U1 2.468369 1_456
N7 U1 2.468369 1_556
