# generated using pymatgen
data_Ba2EuWO6
_symmetry_space_group_name_H-M   'P 1'
_cell_length_a   8.68230227
_cell_length_b   8.68230227
_cell_length_c   8.68230227
_cell_angle_alpha   90.00000000
_cell_angle_beta   90.00000000
_cell_angle_gamma   90.00000000
_symmetry_Int_Tables_number   1
_chemical_formula_structural   Ba2EuWO6
_chemical_formula_sum   'Ba8 Eu4 W4 O24'
_cell_volume   654.49254568
_cell_formula_units_Z   4
loop_
 _symmetry_equiv_pos_site_id
 _symmetry_equiv_pos_as_xyz
  1  'x, y, z'
loop_
 _atom_site_type_symbol
 _atom_site_label
 _atom_site_symmetry_multiplicity
 _atom_site_fract_x
 _atom_site_fract_y
 _atom_site_fract_z
 _atom_site_occupancy
  Ba  Ba0  1  0.50000000  0.50000000  0.50000000  1
  Ba  Ba1  1  -0.00000000  -0.00000000  -0.00000000  1
  Ba  Ba2  1  -0.00000000  -0.00000000  0.50000000  1
  Ba  Ba3  1  -0.00000000  0.50000000  -0.00000000  1
  Ba  Ba4  1  0.50000000  -0.00000000  -0.00000000  1
  Ba  Ba5  1  0.50000000  0.50000000  -0.00000000  1
  Ba  Ba6  1  0.50000000  -0.00000000  0.50000000  1
  Ba  Ba7  1  -0.00000000  0.50000000  0.50000000  1
  Eu  Eu0  1  0.75000000  0.75000000  0.75000000  1
  Eu  Eu1  1  0.75000000  0.25000000  0.25000000  1
  Eu  Eu2  1  0.25000000  0.75000000  0.25000000  1
  Eu  Eu3  1  0.25000000  0.25000000  0.75000000  1
  W  W0  1  0.25000000  0.25000000  0.25000000  1
  W  W1  1  0.25000000  0.75000000  0.75000000  1
  W  W2  1  0.75000000  0.25000000  0.75000000  1
  W  W3  1  0.75000000  0.75000000  0.25000000  1
  O  O0  1  0.22680672  0.27863634  0.47541109  1
  O  O1  1  0.22680672  0.72136366  0.52458891  1
  O  O2  1  0.77319328  0.27863634  0.52458891  1
  O  O3  1  0.77319328  0.72136366  0.47541109  1
  O  O4  1  0.27863634  0.47541109  0.22680672  1
  O  O5  1  0.72136366  0.52458891  0.22680672  1
  O  O6  1  0.27863634  0.52458891  0.77319328  1
  O  O7  1  0.72136366  0.47541109  0.77319328  1
  O  O8  1  0.47541109  0.22680672  0.27863634  1
  O  O9  1  0.52458891  0.22680672  0.72136366  1
  O  O10  1  0.52458891  0.77319328  0.27863634  1
  O  O11  1  0.47541109  0.77319328  0.72136366  1
  O  O12  1  0.27319328  0.22136366  0.02458891  1
  O  O13  1  0.27319328  0.77863634  0.97541109  1
  O  O14  1  0.72680672  0.22136366  0.97541109  1
  O  O15  1  0.72680672  0.77863634  0.02458891  1
  O  O16  1  0.22136366  0.02458891  0.27319328  1
  O  O17  1  0.77863634  0.97541109  0.27319328  1
  O  O18  1  0.22136366  0.97541109  0.72680672  1
  O  O19  1  0.77863634  0.02458891  0.72680672  1
  O  O20  1  0.02458891  0.27319328  0.22136366  1
  O  O21  1  0.97541109  0.27319328  0.77863634  1
  O  O22  1  0.97541109  0.72680672  0.22136366  1
  O  O23  1  0.02458891  0.72680672  0.77863634  1
loop_
_geom_bond_atom_site_label_1
_geom_bond_atom_site_label_2
_geom_bond_distance
_geom_bond_site_symmetry_2
Ba0 O8 3.060324 1_555
Ba0 O7 3.060324 1_555
Ba0 O5 3.060324 1_555
Ba0 O9 3.060324 1_555
Ba0 O10 3.060324 1_555
Ba0 O2 3.060324 1_555
Ba0 O0 3.060324 1_555
Ba0 O3 3.060324 1_555
Ba0 O11 3.060324 1_555
Ba0 O4 3.060324 1_555
Ba0 O1 3.060324 1_555
Ba0 O6 3.060324 1_555
Ba1 O23 3.060324 1_544
Ba1 O19 3.060324 1_454
Ba1 O15 3.060324 1_445
Ba1 O12 3.060324 1_555
Ba1 O16 3.060324 1_555
Ba1 O21 3.060324 1_454
Ba1 O18 3.060324 1_544
Ba1 O20 3.060324 1_555
Ba1 O22 3.060324 1_445
Ba1 O13 3.060324 1_544
Ba1 O17 3.060324 1_445
Ba1 O14 3.060324 1_454
Ba2 O17 2.759931 1_445
Ba2 O16 2.759931 1_555
Ba2 O18 2.759931 1_545
Ba2 O19 2.759931 1_455
Ba2 O0 3.126643 1_555
Ba2 O1 3.126643 1_545
Ba2 O2 3.126643 1_455
Ba2 O3 3.126643 1_445
Ba2 O22 3.394740 1_445
Ba2 O20 3.394740 1_555
Ba2 O23 3.394740 1_545
Ba2 O21 3.394740 1_455
Ba3 O21 2.759931 1_454
Ba3 O22 2.759931 1_455
Ba3 O20 2.759931 1_555
Ba3 O23 2.759931 1_554
Ba3 O6 3.126643 1_554
Ba3 O4 3.126643 1_555
Ba3 O5 3.126643 1_455
Ba3 O7 3.126643 1_454
Ba3 O12 3.394740 1_555
Ba3 O14 3.394740 1_454
Ba3 O15 3.394740 1_455
Ba3 O13 3.394740 1_554
Ba4 O12 2.759931 1_555
Ba4 O13 2.759931 1_544
Ba4 O14 2.759931 1_554
Ba4 O15 2.759931 1_545
Ba4 O8 3.126643 1_555
Ba4 O10 3.126643 1_545
Ba4 O9 3.126643 1_554
Ba4 O11 3.126643 1_544
Ba4 O16 3.394740 1_555
Ba4 O18 3.394740 1_544
Ba4 O19 3.394740 1_554
Ba4 O17 3.394740 1_545
Ba5 O5 2.759931 1_555
Ba5 O7 2.759931 1_554
Ba5 O6 2.759931 1_554
Ba5 O4 2.759931 1_555
Ba5 O15 3.126643 1_555
Ba5 O12 3.126643 1_555
Ba5 O13 3.126643 1_554
Ba5 O14 3.126643 1_554
Ba5 O10 3.394740 1_555
Ba5 O8 3.394740 1_555
Ba5 O11 3.394740 1_554
Ba5 O9 3.394740 1_554
Ba6 O10 2.759931 1_545
Ba6 O9 2.759931 1_555
Ba6 O11 2.759931 1_545
Ba6 O8 2.759931 1_555
Ba6 O18 3.126643 1_545
Ba6 O16 3.126643 1_555
Ba6 O17 3.126643 1_545
Ba6 O19 3.126643 1_555
Ba6 O0 3.394740 1_555
Ba6 O2 3.394740 1_555
Ba6 O3 3.394740 1_545
Ba6 O1 3.394740 1_545
Ba7 O3 2.759931 1_455
Ba7 O0 2.759931 1_555
Ba7 O2 2.759931 1_455
Ba7 O1 2.759931 1_555
Ba7 O22 3.126643 1_455
Ba7 O21 3.126643 1_455
Ba7 O23 3.126643 1_555
Ba7 O20 3.126643 1_555
Ba7 O6 3.394740 1_555
Ba7 O4 3.394740 1_555
Ba7 O5 3.394740 1_455
Ba7 O7 3.394740 1_455
Eu0 O3 2.405437 1_555
Eu0 O11 2.405437 1_555
Eu0 O7 2.405437 1_555
Eu0 O19 2.405437 1_565
Eu0 O23 2.405437 1_655
Eu0 O15 2.405437 1_556
Eu1 O17 2.405437 1_545
Eu1 O2 2.405437 1_555
Eu1 O14 2.405437 1_554
Eu1 O8 2.405437 1_555
Eu1 O5 2.405437 1_555
Eu1 O20 2.405437 1_655
Eu2 O22 2.405437 1_455
Eu2 O13 2.405437 1_554
Eu2 O10 2.405437 1_555
Eu2 O4 2.405437 1_555
Eu2 O1 2.405437 1_555
Eu2 O16 2.405437 1_565
Eu3 O0 2.405437 1_555
Eu3 O9 2.405437 1_555
Eu3 O18 2.405437 1_545
Eu3 O21 2.405437 1_455
Eu3 O6 2.405437 1_555
Eu3 O12 2.405437 1_556
O0 W0 1.983068 1_555
O1 W1 1.983068 1_555
O2 W2 1.983068 1_555
O3 W3 1.983068 1_555
O4 W0 1.983068 1_555
O5 W3 1.983068 1_555
O6 W1 1.983068 1_555
O7 W2 1.983068 1_555
O8 W0 1.983068 1_555
O9 W2 1.983068 1_555
O10 W3 1.983068 1_555
O11 W1 1.983068 1_555
O12 W0 1.983068 1_555
O13 W1 1.983068 1_555
O14 W2 1.983068 1_555
O15 W3 1.983068 1_555
O16 W0 1.983068 1_555
O17 W3 1.983068 1_555
O18 W1 1.983068 1_555
O19 W2 1.983068 1_555
O20 W0 1.983068 1_555
O21 W2 1.983068 1_555
O22 W3 1.983068 1_555
O23 W1 1.983068 1_555
