# generated using pymatgen
data_MgBi2
_symmetry_space_group_name_H-M   'P 1'
_cell_length_a   13.50863319
_cell_length_b   13.50863319
_cell_length_c   16.61624260
_cell_angle_alpha   74.42867867
_cell_angle_beta   74.42867867
_cell_angle_gamma   29.07077019
_symmetry_Int_Tables_number   1
_chemical_formula_structural   MgBi2
_chemical_formula_sum   'Mg16 Bi32'
_cell_volume   1415.52290550
_cell_formula_units_Z   16
loop_
 _symmetry_equiv_pos_site_id
 _symmetry_equiv_pos_as_xyz
  1  'x, y, z'
loop_
 _atom_site_type_symbol
 _atom_site_label
 _atom_site_symmetry_multiplicity
 _atom_site_fract_x
 _atom_site_fract_y
 _atom_site_fract_z
 _atom_site_occupancy
  Mg  Mg0_0  1  0.32103150  0.32103150  0.24079650  1
  Mg  Mg0_1  1  0.32103150  0.32103150  0.74079650  1
  Mg  Mg0_2  1  0.32103150  0.82103150  0.24079650  1
  Mg  Mg0_3  1  0.32103150  0.82103150  0.74079650  1
  Mg  Mg0_4  1  0.82103150  0.32103150  0.24079650  1
  Mg  Mg0_5  1  0.82103150  0.32103150  0.74079650  1
  Mg  Mg0_6  1  0.82103150  0.82103150  0.24079650  1
  Mg  Mg0_7  1  0.82103150  0.82103150  0.74079650  1
  Mg  Mg1_0  1  0.17896850  0.17896850  0.25920350  1
  Mg  Mg1_1  1  0.17896850  0.17896850  0.75920350  1
  Mg  Mg1_2  1  0.17896850  0.67896850  0.25920350  1
  Mg  Mg1_3  1  0.17896850  0.67896850  0.75920350  1
  Mg  Mg1_4  1  0.67896850  0.17896850  0.25920350  1
  Mg  Mg1_5  1  0.67896850  0.17896850  0.75920350  1
  Mg  Mg1_6  1  0.67896850  0.67896850  0.25920350  1
  Mg  Mg1_7  1  0.67896850  0.67896850  0.75920350  1
  Bi  Bi0_0  1  0.14349000  0.14349000  0.09402900  1
  Bi  Bi0_1  1  0.14349000  0.14349000  0.59402900  1
  Bi  Bi0_2  1  0.14349000  0.64349000  0.09402900  1
  Bi  Bi0_3  1  0.14349000  0.64349000  0.59402900  1
  Bi  Bi0_4  1  0.64349000  0.14349000  0.09402900  1
  Bi  Bi0_5  1  0.64349000  0.14349000  0.59402900  1
  Bi  Bi0_6  1  0.64349000  0.64349000  0.09402900  1
  Bi  Bi0_7  1  0.64349000  0.64349000  0.59402900  1
  Bi  Bi1_0  1  0.01371150  0.01371150  0.11714850  1
  Bi  Bi1_1  1  0.01371150  0.01371150  0.61714850  1
  Bi  Bi1_2  1  0.01371150  0.51371150  0.11714850  1
  Bi  Bi1_3  1  0.01371150  0.51371150  0.61714850  1
  Bi  Bi1_4  1  0.51371150  0.01371150  0.11714850  1
  Bi  Bi1_5  1  0.51371150  0.01371150  0.61714850  1
  Bi  Bi1_6  1  0.51371150  0.51371150  0.11714850  1
  Bi  Bi1_7  1  0.51371150  0.51371150  0.61714850  1
  Bi  Bi2_0  1  0.48628850  0.48628850  0.38285150  1
  Bi  Bi2_1  1  0.48628850  0.48628850  0.88285150  1
  Bi  Bi2_2  1  0.48628850  0.98628850  0.38285150  1
  Bi  Bi2_3  1  0.48628850  0.98628850  0.88285150  1
  Bi  Bi2_4  1  0.98628850  0.48628850  0.38285150  1
  Bi  Bi2_5  1  0.98628850  0.48628850  0.88285150  1
  Bi  Bi2_6  1  0.98628850  0.98628850  0.38285150  1
  Bi  Bi2_7  1  0.98628850  0.98628850  0.88285150  1
  Bi  Bi3_0  1  0.35651000  0.35651000  0.40597100  1
  Bi  Bi3_1  1  0.35651000  0.35651000  0.90597100  1
  Bi  Bi3_2  1  0.35651000  0.85651000  0.40597100  1
  Bi  Bi3_3  1  0.35651000  0.85651000  0.90597100  1
  Bi  Bi3_4  1  0.85651000  0.35651000  0.40597100  1
  Bi  Bi3_5  1  0.85651000  0.35651000  0.90597100  1
  Bi  Bi3_6  1  0.85651000  0.85651000  0.40597100  1
  Bi  Bi3_7  1  0.85651000  0.85651000  0.90597100  1
loop_
_geom_bond_atom_site_label_1
_geom_bond_atom_site_label_2
_geom_bond_distance
_geom_bond_site_symmetry_2
Mg0_0 Mg1_2 3.378518 1_555
Mg0_0 Mg1_4 3.378518 1_555
Mg0_0 Mg0_6 3.390368 1_545
Mg0_0 Mg0_6 3.390368 1_455
Mg0_1 Mg1_3 3.378518 1_555
Mg0_1 Mg1_5 3.378518 1_555
Mg0_1 Mg0_7 3.390368 1_545
Mg0_1 Mg0_7 3.390368 1_455
Mg0_2 Mg1_6 3.378518 1_555
Mg0_2 Mg1_0 3.378518 1_565
Mg0_2 Mg0_4 3.390368 1_555
Mg0_2 Mg0_4 3.390368 1_465
Mg0_3 Mg1_7 3.378518 1_555
Mg0_3 Mg1_1 3.378518 1_565
Mg0_3 Mg0_5 3.390368 1_555
Mg0_3 Mg0_5 3.390368 1_465
Mg0_4 Mg1_6 3.378518 1_555
Mg0_4 Mg1_0 3.378518 1_655
Mg0_5 Mg1_7 3.378518 1_555
Mg0_5 Mg1_1 3.378518 1_655
Mg0_6 Mg1_2 3.378518 1_655
Mg0_6 Mg1_4 3.378518 1_565
Mg0_7 Mg1_3 3.378518 1_655
Mg0_7 Mg1_5 3.378518 1_565
Mg1_0 Mg1_6 3.390368 1_545
Mg1_0 Mg1_6 3.390368 1_455
Mg1_1 Mg1_7 3.390368 1_545
Mg1_1 Mg1_7 3.390368 1_455
Mg1_2 Mg1_4 3.390368 1_555
Mg1_2 Mg1_4 3.390368 1_465
Mg1_3 Mg1_5 3.390368 1_555
Mg1_3 Mg1_5 3.390368 1_465
Bi0_0 Mg1_0 3.131457 1_555
Bi0_0 Mg0_4 3.138286 1_455
Bi0_0 Mg0_2 3.138286 1_545
Bi0_0 Bi1_0 3.308157 1_555
Bi0_0 Bi0_6 3.390368 1_545
Bi0_0 Bi0_6 3.390368 1_455
Bi0_1 Mg1_1 3.131457 1_555
Bi0_1 Mg0_5 3.138286 1_455
Bi0_1 Mg0_3 3.138286 1_545
Bi0_1 Bi1_1 3.308157 1_555
Bi0_1 Bi0_7 3.390368 1_455
Bi0_1 Bi0_7 3.390368 1_545
Bi0_2 Mg1_2 3.131457 1_555
Bi0_2 Mg0_6 3.138286 1_455
Bi0_2 Mg0_0 3.138286 1_555
Bi0_2 Bi1_2 3.308157 1_555
Bi0_2 Bi0_4 3.390368 1_555
Bi0_2 Bi0_4 3.390368 1_465
Bi0_3 Mg1_3 3.131457 1_555
Bi0_3 Mg0_1 3.138286 1_555
Bi0_3 Mg0_7 3.138286 1_455
Bi0_3 Bi1_3 3.308157 1_555
Bi0_3 Bi0_5 3.390368 1_555
Bi0_3 Bi0_5 3.390368 1_465
Bi0_4 Mg1_4 3.131457 1_555
Bi0_4 Mg0_6 3.138286 1_545
Bi0_4 Mg0_0 3.138286 1_555
Bi0_4 Bi1_4 3.308157 1_555
Bi0_5 Mg1_5 3.131457 1_555
Bi0_5 Mg0_1 3.138286 1_555
Bi0_5 Mg0_7 3.138286 1_545
Bi0_5 Bi1_5 3.308157 1_555
Bi0_6 Mg1_6 3.131457 1_555
Bi0_6 Mg0_4 3.138286 1_555
Bi0_6 Mg0_2 3.138286 1_555
Bi0_6 Bi1_6 3.308157 1_555
Bi0_7 Mg1_7 3.131457 1_555
Bi0_7 Mg0_5 3.138286 1_555
Bi0_7 Mg0_3 3.138286 1_555
Bi0_7 Bi1_7 3.308157 1_555
Bi1_0 Mg1_4 3.233506 1_455
Bi1_0 Mg1_2 3.233506 1_545
Bi1_0 Mg0_2 3.324197 1_545
Bi1_0 Mg0_4 3.324197 1_455
Bi1_0 Bi1_6 3.390368 1_545
Bi1_0 Bi1_6 3.390368 1_455
Bi1_1 Mg1_5 3.233506 1_455
Bi1_1 Mg1_3 3.233506 1_545
Bi1_1 Mg0_3 3.324197 1_545
Bi1_1 Mg0_5 3.324197 1_455
Bi1_1 Bi1_7 3.390368 1_545
Bi1_1 Bi1_7 3.390368 1_455
Bi1_2 Mg1_0 3.233506 1_555
Bi1_2 Mg1_6 3.233506 1_455
Bi1_2 Mg0_0 3.324197 1_555
Bi1_2 Mg0_6 3.324197 1_455
Bi1_2 Bi1_4 3.390368 1_555
Bi1_2 Bi1_4 3.390368 1_465
Bi1_3 Mg1_1 3.233506 1_555
Bi1_3 Mg1_7 3.233506 1_455
Bi1_3 Mg0_1 3.324197 1_555
Bi1_3 Mg0_7 3.324197 1_455
Bi1_3 Bi1_5 3.390368 1_555
Bi1_3 Bi1_5 3.390368 1_465
Bi1_4 Mg1_0 3.233506 1_555
Bi1_4 Mg1_6 3.233506 1_545
Bi1_4 Mg0_0 3.324197 1_555
Bi1_4 Mg0_6 3.324197 1_545
Bi1_5 Mg1_1 3.233506 1_555
Bi1_5 Mg1_7 3.233506 1_545
Bi1_5 Mg0_7 3.324197 1_545
Bi1_5 Mg0_1 3.324197 1_555
Bi1_6 Mg1_4 3.233506 1_555
Bi1_6 Mg1_2 3.233506 1_555
Bi1_6 Mg0_2 3.324197 1_555
Bi1_6 Mg0_4 3.324197 1_555
Bi1_7 Mg1_5 3.233506 1_555
Bi1_7 Mg1_3 3.233506 1_555
Bi1_7 Mg0_3 3.324197 1_555
Bi1_7 Mg0_5 3.324197 1_555
Bi2_0 Mg0_2 3.233506 1_555
Bi2_0 Mg0_4 3.233506 1_555
Bi2_0 Bi3_0 3.308157 1_555
Bi2_0 Mg1_4 3.324197 1_555
Bi2_0 Mg1_2 3.324197 1_555
Bi2_0 Bi2_6 3.390368 1_545
Bi2_0 Bi2_6 3.390368 1_455
Bi2_1 Mg0_3 3.233506 1_555
Bi2_1 Mg0_5 3.233506 1_555
Bi2_1 Bi3_1 3.308157 1_555
Bi2_1 Mg1_5 3.324197 1_555
Bi2_1 Mg1_3 3.324197 1_555
Bi2_1 Bi2_7 3.390368 1_545
Bi2_1 Bi2_7 3.390368 1_455
Bi2_2 Mg0_0 3.233506 1_565
Bi2_2 Mg0_6 3.233506 1_555
Bi2_2 Bi3_2 3.308157 1_555
Bi2_2 Mg1_0 3.324197 1_565
Bi2_2 Mg1_6 3.324197 1_555
Bi2_2 Bi2_4 3.390368 1_555
Bi2_2 Bi2_4 3.390368 1_465
Bi2_3 Mg0_7 3.233506 1_555
Bi2_3 Mg0_1 3.233506 1_565
Bi2_3 Bi3_3 3.308157 1_555
Bi2_3 Mg1_1 3.324197 1_565
Bi2_3 Mg1_7 3.324197 1_555
Bi2_3 Bi2_5 3.390368 1_555
Bi2_3 Bi2_5 3.390368 1_465
Bi2_4 Mg0_0 3.233506 1_655
Bi2_4 Mg0_6 3.233506 1_555
Bi2_4 Bi3_4 3.308157 1_555
Bi2_4 Mg1_0 3.324197 1_655
Bi2_4 Mg1_6 3.324197 1_555
Bi2_5 Mg0_7 3.233506 1_555
Bi2_5 Mg0_1 3.233506 1_655
Bi2_5 Bi3_5 3.308157 1_555
Bi2_5 Mg1_1 3.324197 1_655
Bi2_5 Mg1_7 3.324197 1_555
Bi2_6 Mg0_2 3.233506 1_655
Bi2_6 Mg0_4 3.233506 1_565
Bi2_6 Bi3_6 3.308157 1_555
Bi2_6 Mg1_4 3.324197 1_565
Bi2_6 Mg1_2 3.324197 1_655
Bi2_7 Mg0_3 3.233506 1_655
Bi2_7 Mg0_5 3.233506 1_565
Bi2_7 Bi3_7 3.308157 1_555
Bi2_7 Mg1_5 3.324197 1_565
Bi2_7 Mg1_3 3.324197 1_655
Bi3_0 Mg0_0 3.131457 1_555
Bi3_0 Mg1_2 3.138286 1_555
Bi3_0 Mg1_4 3.138286 1_555
Bi3_0 Bi3_6 3.390368 1_545
Bi3_0 Bi3_6 3.390368 1_455
Bi3_1 Mg0_1 3.131457 1_555
Bi3_1 Mg1_3 3.138286 1_555
Bi3_1 Mg1_5 3.138286 1_555
Bi3_1 Bi3_7 3.390368 1_545
Bi3_1 Bi3_7 3.390368 1_455
Bi3_2 Mg0_2 3.131457 1_555
Bi3_2 Mg1_6 3.138286 1_555
Bi3_2 Mg1_0 3.138286 1_565
Bi3_2 Bi3_4 3.390368 1_555
Bi3_2 Bi3_4 3.390368 1_465
Bi3_3 Mg0_3 3.131457 1_555
Bi3_3 Mg1_7 3.138286 1_555
Bi3_3 Mg1_1 3.138286 1_565
Bi3_3 Bi3_5 3.390368 1_555
Bi3_3 Bi3_5 3.390368 1_465
Bi3_4 Mg0_4 3.131457 1_555
Bi3_4 Mg1_6 3.138286 1_555
Bi3_4 Mg1_0 3.138286 1_655
Bi3_5 Mg0_5 3.131457 1_555
Bi3_5 Mg1_7 3.138286 1_555
Bi3_5 Mg1_1 3.138286 1_655
Bi3_6 Mg0_6 3.131457 1_555
Bi3_6 Mg1_2 3.138286 1_655
Bi3_6 Mg1_4 3.138286 1_565
Bi3_7 Mg0_7 3.131457 1_555
Bi3_7 Mg1_3 3.138286 1_655
Bi3_7 Mg1_5 3.138286 1_565
