# generated using pymatgen
data_Eu2Cu4Si3Ge
_symmetry_space_group_name_H-M   'P 1'
_cell_length_a   4.14167400
_cell_length_b   4.14167400
_cell_length_c   9.90883700
_cell_angle_alpha   90.00000000
_cell_angle_beta   90.00000000
_cell_angle_gamma   90.00000000
_symmetry_Int_Tables_number   1
_chemical_formula_structural   Eu2Cu4Si3Ge
_chemical_formula_sum   'Eu2 Cu4 Si3 Ge1'
_cell_volume   169.97087403
_cell_formula_units_Z   1
loop_
 _symmetry_equiv_pos_site_id
 _symmetry_equiv_pos_as_xyz
  1  'x, y, z'
loop_
 _atom_site_type_symbol
 _atom_site_label
 _atom_site_symmetry_multiplicity
 _atom_site_fract_x
 _atom_site_fract_y
 _atom_site_fract_z
 _atom_site_occupancy
  Eu  Eu0  1  0.00000000  0.00000000  0.99708000  1
  Eu  Eu1  1  0.50000000  0.50000000  0.50099800  1
  Cu  Cu0  1  0.00000000  0.50000000  0.25650100  1
  Cu  Cu1  1  0.50000000  0.00000000  0.74883600  1
  Cu  Cu2  1  0.50000000  0.00000000  0.25650100  1
  Cu  Cu3  1  0.00000000  0.50000000  0.74883600  1
  Si  Si0  1  0.00000000  0.00000000  0.62142200  1
  Si  Si1  1  0.00000000  0.00000000  0.37975900  1
  Si  Si2  1  0.50000000  0.50000000  0.87136700  1
  Ge  Ge0  1  0.50000000  0.50000000  0.11870200  1
loop_
_geom_bond_atom_site_label_1
_geom_bond_atom_site_label_2
_geom_bond_distance
_geom_bond_site_symmetry_2
Eu0 Ge0 3.166872 1_556
Eu0 Ge0 3.166872 1_446
Eu0 Ge0 3.166872 1_546
Eu0 Ge0 3.166872 1_456
Eu0 Si2 3.182519 1_455
Eu0 Si2 3.182519 1_545
Eu0 Si2 3.182519 1_445
Eu0 Si2 3.182519 1_555
Eu1 Si0 3.162373 1_565
Eu1 Si0 3.162373 1_555
Eu1 Si0 3.162373 1_655
Eu1 Si0 3.162373 1_665
Eu1 Si1 3.165429 1_655
Eu1 Si1 3.165429 1_665
Eu1 Si1 3.165429 1_565
Eu1 Si1 3.165429 1_555
Cu0 Si1 2.404173 1_565
Cu0 Si1 2.404173 1_555
Cu0 Ge0 2.480476 1_555
Cu0 Ge0 2.480476 1_455
Cu0 Cu2 2.928606 1_465
Cu0 Cu2 2.928606 1_455
Cu0 Cu2 2.928606 1_565
Cu0 Cu2 2.928606 1_555
Cu0 Eu1 3.187122 1_455
Cu0 Eu1 3.187122 1_555
Cu0 Eu0 3.300931 1_564
Cu0 Eu0 3.300931 1_554
Cu1 Si2 2.400521 1_545
Cu1 Si2 2.400521 1_555
Cu1 Si0 2.425352 1_655
Cu1 Si0 2.425352 1_555
Cu1 Eu1 3.212359 1_555
Cu1 Eu1 3.212359 1_545
Cu1 Eu0 3.215436 1_555
Cu1 Eu0 3.215436 1_655
Cu2 Si1 2.404173 1_555
Cu2 Si1 2.404173 1_655
Cu2 Ge0 2.480476 1_555
Cu2 Ge0 2.480476 1_545
Cu2 Eu1 3.187122 1_555
Cu2 Eu1 3.187122 1_545
Cu2 Eu0 3.300931 1_654
Cu2 Eu0 3.300931 1_554
Cu3 Si2 2.400521 1_555
Cu3 Si2 2.400521 1_455
Cu3 Si0 2.425352 1_565
Cu3 Si0 2.425352 1_555
Cu3 Eu1 3.212359 1_555
Cu3 Eu1 3.212359 1_455
Cu3 Eu0 3.215436 1_565
Cu3 Eu0 3.215436 1_555
Si0 Si1 2.394599 1_555
Ge0 Si2 2.450802 1_554
