# generated using pymatgen
data_TlBi(MoO4)2
_symmetry_space_group_name_H-M   'P 1'
_cell_length_a   12.22342300
_cell_length_b   5.37423500
_cell_length_c   11.75997887
_cell_angle_alpha   87.49342162
_cell_angle_beta   90.00000000
_cell_angle_gamma   90.00000000
_symmetry_Int_Tables_number   1
_chemical_formula_structural   TlBi(MoO4)2
_chemical_formula_sum   'Tl4 Bi4 Mo8 O32'
_cell_volume   771.79206021
_cell_formula_units_Z   4
loop_
 _symmetry_equiv_pos_site_id
 _symmetry_equiv_pos_as_xyz
  1  'x, y, z'
loop_
 _atom_site_type_symbol
 _atom_site_label
 _atom_site_symmetry_multiplicity
 _atom_site_fract_x
 _atom_site_fract_y
 _atom_site_fract_z
 _atom_site_occupancy
  Tl  Tl0  1  0.62376800  0.98384300  0.87795500  1
  Tl  Tl1  1  0.37623200  0.01615700  0.12204500  1
  Tl  Tl2  1  0.12376800  0.51615700  0.12204500  1
  Tl  Tl3  1  0.87623200  0.48384300  0.87795500  1
  Bi  Bi0  1  0.87577900  0.50824200  0.37872900  1
  Bi  Bi1  1  0.12422100  0.49175800  0.62127100  1
  Bi  Bi2  1  0.37577900  0.99175800  0.62127100  1
  Bi  Bi3  1  0.62422100  0.00824200  0.37872900  1
  Mo  Mo0  1  0.88585700  0.97820500  0.61306100  1
  Mo  Mo1  1  0.11414300  0.02179500  0.38693900  1
  Mo  Mo2  1  0.38585700  0.52179500  0.38693900  1
  Mo  Mo3  1  0.61414300  0.47820500  0.61306100  1
  Mo  Mo4  1  0.85398700  0.00630700  0.15498300  1
  Mo  Mo5  1  0.14601300  0.99369300  0.84501700  1
  Mo  Mo6  1  0.35398700  0.49369300  0.84501700  1
  Mo  Mo7  1  0.64601300  0.50630700  0.15498300  1
  O  O0  1  0.19751700  0.92051700  0.27695700  1
  O  O1  1  0.80248300  0.07948300  0.72304300  1
  O  O2  1  0.69751700  0.57948400  0.72304300  1
  O  O3  1  0.30248300  0.42051700  0.27695700  1
  O  O4  1  0.80297700  0.85243500  0.49948500  1
  O  O5  1  0.19702300  0.14756500  0.50051500  1
  O  O6  1  0.30297700  0.64756500  0.50051500  1
  O  O7  1  0.69702300  0.35243500  0.49948500  1
  O  O8  1  0.47300400  0.76278300  0.32334100  1
  O  O9  1  0.52699600  0.23721700  0.67665900  1
  O  O10  1  0.97300400  0.73721700  0.67665900  1
  O  O11  1  0.02699600  0.26278300  0.32334100  1
  O  O12  1  0.77231500  0.83906300  0.05865000  1
  O  O13  1  0.22768500  0.16093700  0.94135000  1
  O  O14  1  0.27231500  0.66093700  0.94135000  1
  O  O15  1  0.72768500  0.33906300  0.05865000  1
  O  O16  1  0.53990300  0.74948900  0.55099200  1
  O  O17  1  0.46009700  0.25051100  0.44900800  1
  O  O18  1  0.03990300  0.75051100  0.44900800  1
  O  O19  1  0.96009700  0.24948900  0.55099200  1
  O  O20  1  0.70901900  0.68618600  0.27580800  1
  O  O21  1  0.29098100  0.31381400  0.72419200  1
  O  O22  1  0.20901900  0.81381400  0.72419200  1
  O  O23  1  0.79098100  0.18618600  0.27580800  1
  O  O24  1  0.93661900  0.76203200  0.22924400  1
  O  O25  1  0.06338100  0.23796800  0.77075600  1
  O  O26  1  0.43661900  0.73796800  0.77075600  1
  O  O27  1  0.56338100  0.26203200  0.22924400  1
  O  O28  1  0.55048300  0.68652100  0.07740800  1
  O  O29  1  0.44951700  0.31347900  0.92259200  1
  O  O30  1  0.05048300  0.81347900  0.92259200  1
  O  O31  1  0.94951700  0.18652100  0.07740800  1
loop_
_geom_bond_atom_site_label_1
_geom_bond_atom_site_label_2
_geom_bond_distance
_geom_bond_site_symmetry_2
Bi0 O24 2.300865 1_555
Bi0 O11 2.378264 1_655
Bi0 O23 2.391284 1_555
Bi0 O20 2.536380 1_555
Bi0 O4 2.541650 1_555
Bi0 O18 2.548939 1_655
Bi0 O19 2.617922 1_555
Bi0 O7 2.718098 1_555
Bi1 O25 2.300865 1_555
Bi1 O10 2.378264 1_455
Bi1 O22 2.391284 1_555
Bi1 O21 2.536380 1_555
Bi1 O5 2.541650 1_555
Bi1 O19 2.548939 1_455
Bi1 O18 2.617922 1_555
Bi1 O6 2.718098 1_555
Bi2 O26 2.300865 1_555
Bi2 O9 2.378264 1_565
Bi2 O21 2.391284 1_565
Bi2 O22 2.536380 1_555
Bi2 O6 2.541650 1_555
Bi2 O16 2.548939 1_555
Bi2 O17 2.617922 1_565
Bi2 O5 2.718098 1_565
Bi3 O27 2.300865 1_555
Bi3 O8 2.378264 1_545
Bi3 O20 2.391284 1_545
Bi3 O23 2.536380 1_555
Bi3 O7 2.541650 1_555
Bi3 O17 2.548939 1_555
Bi3 O16 2.617922 1_545
Bi3 O4 2.718098 1_545
Mo0 O1 1.751934 1_565
Mo0 O10 1.812932 1_555
Mo0 O4 1.829240 1_555
Mo0 O19 1.840872 1_565
Mo1 O0 1.751934 1_545
Mo1 O11 1.812932 1_555
Mo1 O5 1.829240 1_555
Mo1 O18 1.840872 1_545
Mo2 O3 1.751934 1_555
Mo2 O8 1.812932 1_555
Mo2 O6 1.829240 1_555
Mo2 O17 1.840872 1_555
Mo3 O2 1.751936 1_555
Mo3 O9 1.812932 1_555
Mo3 O7 1.829240 1_555
Mo3 O16 1.840872 1_555
Mo4 O31 1.748291 1_555
Mo4 O12 1.782400 1_545
Mo4 O24 1.845535 1_545
Mo4 O23 1.914879 1_555
Mo5 O30 1.748291 1_555
Mo5 O13 1.782400 1_565
Mo5 O25 1.845535 1_565
Mo5 O22 1.914879 1_555
Mo6 O29 1.748291 1_555
Mo6 O14 1.782400 1_555
Mo6 O26 1.845535 1_555
Mo6 O21 1.914879 1_555
Mo7 O28 1.748291 1_555
Mo7 O15 1.782400 1_555
Mo7 O27 1.845535 1_555
Mo7 O20 1.914879 1_555
