# generated using pymatgen
data_BaMg30TiO32
_symmetry_space_group_name_H-M   'P 1'
_cell_length_a   8.67337504
_cell_length_b   8.67337504
_cell_length_c   8.67971138
_cell_angle_alpha   90.00000000
_cell_angle_beta   90.00000000
_cell_angle_gamma   90.00000000
_symmetry_Int_Tables_number   1
_chemical_formula_structural   BaMg30TiO32
_chemical_formula_sum   'Ba1 Mg30 Ti1 O32'
_cell_volume   652.95242005
_cell_formula_units_Z   1
loop_
 _symmetry_equiv_pos_site_id
 _symmetry_equiv_pos_as_xyz
  1  'x, y, z'
loop_
 _atom_site_type_symbol
 _atom_site_label
 _atom_site_symmetry_multiplicity
 _atom_site_fract_x
 _atom_site_fract_y
 _atom_site_fract_z
 _atom_site_occupancy
  Ba  Ba0  1  0.00000000  -0.00000000  0.50000000  1
  Mg  Mg0  1  0.00000000  0.50000000  0.00000000  1
  Mg  Mg1  1  0.00000000  0.50000000  0.50000000  1
  Mg  Mg2  1  0.50000000  -0.00000000  0.00000000  1
  Mg  Mg3  1  0.50000000  -0.00000000  0.50000000  1
  Mg  Mg4  1  0.50000000  0.50000000  0.00000000  1
  Mg  Mg5  1  0.50000000  0.50000000  0.50000000  1
  Mg  Mg6  1  0.00000000  0.25991476  0.24443480  1
  Mg  Mg7  1  0.00000000  0.25991476  0.75556520  1
  Mg  Mg8  1  0.00000000  0.74008524  0.24443480  1
  Mg  Mg9  1  0.00000000  0.74008524  0.75556520  1
  Mg  Mg10  1  0.50000000  0.25145714  0.24904214  1
  Mg  Mg11  1  0.50000000  0.25145714  0.75095786  1
  Mg  Mg12  1  0.50000000  0.74854286  0.24904214  1
  Mg  Mg13  1  0.50000000  0.74854286  0.75095786  1
  Mg  Mg14  1  0.25991476  -0.00000000  0.24443480  1
  Mg  Mg15  1  0.25991476  -0.00000000  0.75556520  1
  Mg  Mg16  1  0.25145714  0.50000000  0.24904214  1
  Mg  Mg17  1  0.25145714  0.50000000  0.75095786  1
  Mg  Mg18  1  0.74008524  -0.00000000  0.24443480  1
  Mg  Mg19  1  0.74008524  -0.00000000  0.75556520  1
  Mg  Mg20  1  0.74854286  0.50000000  0.24904214  1
  Mg  Mg21  1  0.74854286  0.50000000  0.75095786  1
  Mg  Mg22  1  0.25116327  0.25116327  0.00000000  1
  Mg  Mg23  1  0.25777450  0.25777450  0.50000000  1
  Mg  Mg24  1  0.25116327  0.74883673  0.00000000  1
  Mg  Mg25  1  0.25777450  0.74222550  0.50000000  1
  Mg  Mg26  1  0.74883673  0.25116327  -0.00000000  1
  Mg  Mg27  1  0.74222550  0.25777450  0.50000000  1
  Mg  Mg28  1  0.74883673  0.74883673  0.00000000  1
  Mg  Mg29  1  0.74222550  0.74222550  0.50000000  1
  Ti  Ti0  1  0.00000000  -0.00000000  0.00000000  1
  O  O0  1  0.25722196  -0.00000000  0.00000000  1
  O  O1  1  0.27937683  -0.00000000  0.50000000  1
  O  O2  1  0.25162023  0.50000000  -0.00000000  1
  O  O3  1  0.25590015  0.50000000  0.50000000  1
  O  O4  1  0.74277804  -0.00000000  -0.00000000  1
  O  O5  1  0.72062317  -0.00000000  0.50000000  1
  O  O6  1  0.74837977  0.50000000  0.00000000  1
  O  O7  1  0.74409985  0.50000000  0.50000000  1
  O  O8  1  0.24915309  0.24915309  0.25018357  1
  O  O9  1  0.24915309  0.24915309  0.74981643  1
  O  O10  1  0.24915309  0.75084691  0.25018357  1
  O  O11  1  0.24915309  0.75084691  0.74981643  1
  O  O12  1  0.75084691  0.24915309  0.25018357  1
  O  O13  1  0.75084691  0.24915309  0.74981643  1
  O  O14  1  0.75084691  0.75084691  0.25018357  1
  O  O15  1  0.75084691  0.75084691  0.74981643  1
  O  O16  1  0.00000000  -0.00000000  0.22394155  1
  O  O17  1  0.00000000  -0.00000000  0.77605845  1
  O  O18  1  0.00000000  0.50000000  0.24386598  1
  O  O19  1  0.00000000  0.50000000  0.75613402  1
  O  O20  1  0.50000000  -0.00000000  0.24386598  1
  O  O21  1  0.50000000  -0.00000000  0.75613402  1
  O  O22  1  0.50000000  0.50000000  0.24821449  1
  O  O23  1  0.50000000  0.50000000  0.75178551  1
  O  O24  1  0.00000000  0.25722196  -0.00000000  1
  O  O25  1  0.00000000  0.27937683  0.50000000  1
  O  O26  1  0.00000000  0.74277804  0.00000000  1
  O  O27  1  0.00000000  0.72062317  0.50000000  1
  O  O28  1  0.50000000  0.25162023  0.00000000  1
  O  O29  1  0.50000000  0.25590015  0.50000000  1
  O  O30  1  0.50000000  0.74837977  -0.00000000  1
  O  O31  1  0.50000000  0.74409985  0.50000000  1
loop_
_geom_bond_atom_site_label_1
_geom_bond_atom_site_label_2
_geom_bond_distance
_geom_bond_site_symmetry_2
Ba0 O16 2.396108 1_555
Ba0 O17 2.396108 1_555
Ba0 O25 2.423140 1_555
Ba0 O27 2.423140 1_545
Ba0 O1 2.423140 1_555
Ba0 O5 2.423140 1_455
Mg0 O24 2.105705 1_555
Mg0 O26 2.105705 1_555
Mg0 O19 2.116686 1_554
Mg0 O18 2.116686 1_555
Mg0 O6 2.182397 1_455
Mg0 O2 2.182397 1_555
Mg1 O25 1.913547 1_555
Mg1 O27 1.913547 1_555
Mg1 O3 2.219518 1_555
Mg1 O7 2.219518 1_455
Mg1 O18 2.223169 1_555
Mg1 O19 2.223169 1_555
Mg2 O0 2.105705 1_555
Mg2 O4 2.105705 1_555
Mg2 O20 2.116686 1_555
Mg2 O21 2.116686 1_554
Mg2 O28 2.182397 1_555
Mg2 O30 2.182397 1_545
Mg3 O1 1.913547 1_555
Mg3 O5 1.913547 1_555
Mg3 O29 2.219518 1_555
Mg3 O31 2.219518 1_545
Mg3 O21 2.223169 1_555
Mg3 O20 2.223169 1_555
Mg4 O2 2.154291 1_555
Mg4 O28 2.154291 1_555
Mg4 O6 2.154291 1_555
Mg4 O30 2.154291 1_555
Mg4 O23 2.154430 1_554
Mg4 O22 2.154430 1_555
Mg5 O7 2.117170 1_555
Mg5 O29 2.117170 1_555
Mg5 O31 2.117170 1_555
Mg5 O3 2.117170 1_555
Mg5 O22 2.185426 1_555
Mg5 O23 2.185426 1_555
Mg6 O18 2.082355 1_555
Mg6 O24 2.121752 1_555
Mg6 O12 2.163589 1_455
Mg6 O8 2.163589 1_555
Mg6 O25 2.224646 1_555
Mg6 O16 2.261345 1_555
Mg7 O19 2.082355 1_555
Mg7 O24 2.121752 1_556
Mg7 O13 2.163589 1_455
Mg7 O9 2.163589 1_555
Mg7 O25 2.224646 1_555
Mg7 O17 2.261345 1_555
Mg8 O18 2.082355 1_555
Mg8 O26 2.121752 1_555
Mg8 O14 2.163589 1_455
Mg8 O10 2.163589 1_555
Mg8 O27 2.224646 1_555
Mg8 O16 2.261345 1_565
Mg9 O19 2.082355 1_555
Mg9 O26 2.121752 1_556
Mg9 O15 2.163589 1_455
Mg9 O11 2.163589 1_555
Mg9 O27 2.224646 1_555
Mg9 O17 2.261345 1_565
Mg10 O22 2.155717 1_555
Mg10 O28 2.161614 1_555
Mg10 O12 2.175804 1_555
Mg10 O8 2.175804 1_555
Mg10 O29 2.178583 1_555
Mg10 O20 2.181445 1_555
Mg11 O23 2.155717 1_555
Mg11 O28 2.161614 1_556
Mg11 O9 2.175804 1_555
Mg11 O13 2.175804 1_555
Mg11 O29 2.178583 1_555
Mg11 O21 2.181445 1_555
Mg12 O22 2.155717 1_555
Mg12 O30 2.161614 1_555
Mg12 O10 2.175804 1_555
Mg12 O14 2.175804 1_555
Mg12 O31 2.178583 1_555
Mg12 O20 2.181445 1_565
Mg13 O23 2.155717 1_555
Mg13 O30 2.161614 1_556
Mg13 O11 2.175804 1_555
Mg13 O15 2.175804 1_555
Mg13 O31 2.178583 1_555
Mg13 O21 2.181445 1_565
Mg14 O20 2.082355 1_555
Mg14 O0 2.121752 1_555
Mg14 O10 2.163589 1_545
Mg14 O8 2.163589 1_555
Mg14 O1 2.224646 1_555
Mg14 O16 2.261345 1_555
Mg15 O21 2.082355 1_555
Mg15 O0 2.121752 1_556
Mg15 O11 2.163589 1_545
Mg15 O9 2.163589 1_555
Mg15 O1 2.224646 1_555
Mg15 O17 2.261345 1_555
Mg16 O22 2.155717 1_555
Mg16 O2 2.161614 1_555
Mg16 O8 2.175804 1_555
Mg16 O10 2.175804 1_555
Mg16 O3 2.178583 1_555
Mg16 O18 2.181445 1_555
Mg17 O23 2.155717 1_555
Mg17 O2 2.161614 1_556
Mg17 O11 2.175804 1_555
Mg17 O9 2.175804 1_555
Mg17 O3 2.178583 1_555
Mg17 O19 2.181445 1_555
Mg18 O20 2.082355 1_555
Mg18 O4 2.121752 1_555
Mg18 O14 2.163589 1_545
Mg18 O12 2.163589 1_555
Mg18 O5 2.224646 1_555
Mg18 O16 2.261345 1_655
Mg19 O21 2.082355 1_555
Mg19 O4 2.121752 1_556
Mg19 O15 2.163589 1_545
Mg19 O13 2.163589 1_555
Mg19 O5 2.224646 1_555
Mg19 O17 2.261345 1_655
Mg20 O22 2.155717 1_555
Mg20 O6 2.161614 1_555
Mg20 O14 2.175804 1_555
Mg20 O12 2.175804 1_555
Mg20 O7 2.178583 1_555
Mg20 O18 2.181445 1_655
Mg21 O23 2.155717 1_555
Mg21 O6 2.161614 1_556
Mg21 O15 2.175804 1_555
Mg21 O13 2.175804 1_555
Mg21 O7 2.178583 1_555
Mg21 O19 2.181445 1_655
Mg22 O28 2.158258 1_555
Mg22 O2 2.158258 1_555
Mg22 O9 2.171661 1_554
Mg22 O8 2.171661 1_555
Mg22 O24 2.179067 1_555
Mg22 O0 2.179067 1_555
Mg23 O29 2.100976 1_555
Mg23 O3 2.100976 1_555
Mg23 O8 2.170912 1_555
Mg23 O9 2.170912 1_555
Mg23 O25 2.243612 1_555
Mg23 O1 2.243612 1_555
Mg24 O30 2.158258 1_555
Mg24 O2 2.158258 1_555
Mg24 O10 2.171661 1_555
Mg24 O11 2.171661 1_554
Mg24 O0 2.179067 1_565
Mg24 O26 2.179067 1_555
Mg25 O3 2.100976 1_555
Mg25 O31 2.100976 1_555
Mg25 O11 2.170912 1_555
Mg25 O10 2.170912 1_555
Mg25 O27 2.243612 1_555
Mg25 O1 2.243612 1_565
Mg26 O6 2.158258 1_555
Mg26 O28 2.158258 1_555
Mg26 O13 2.171661 1_554
Mg26 O12 2.171661 1_555
Mg26 O24 2.179067 1_655
Mg26 O4 2.179067 1_555
Mg27 O29 2.100976 1_555
Mg27 O7 2.100976 1_555
Mg27 O13 2.170912 1_555
Mg27 O12 2.170912 1_555
Mg27 O5 2.243612 1_555
Mg27 O25 2.243612 1_655
Mg28 O30 2.158258 1_555
Mg28 O6 2.158258 1_555
Mg28 O14 2.171661 1_555
Mg28 O15 2.171661 1_554
Mg28 O26 2.179067 1_655
Mg28 O4 2.179067 1_565
Mg29 O7 2.100976 1_555
Mg29 O31 2.100976 1_555
Mg29 O14 2.170912 1_555
Mg29 O15 2.170912 1_555
Mg29 O27 2.243612 1_655
Mg29 O5 2.243612 1_565
O0 Ti0 2.230983 1_555
O4 Ti0 2.230983 1_655
O16 Ti0 1.943748 1_555
O17 Ti0 1.943748 1_556
O24 Ti0 2.230983 1_555
O26 Ti0 2.230983 1_565
