# generated using pymatgen
data_CuSeS
_symmetry_space_group_name_H-M   'P 1'
_cell_length_a   5.98536900
_cell_length_b   5.98536900
_cell_length_c   5.98536900
_cell_angle_alpha   90.00000000
_cell_angle_beta   90.00000000
_cell_angle_gamma   90.00000000
_symmetry_Int_Tables_number   1
_chemical_formula_structural   CuSeS
_chemical_formula_sum   'Cu4 Se4 S4'
_cell_volume   214.42370206
_cell_formula_units_Z   4
loop_
 _symmetry_equiv_pos_site_id
 _symmetry_equiv_pos_as_xyz
  1  'x, y, z'
loop_
 _atom_site_type_symbol
 _atom_site_label
 _atom_site_symmetry_multiplicity
 _atom_site_fract_x
 _atom_site_fract_y
 _atom_site_fract_z
 _atom_site_occupancy
  Cu  Cu0  1  0.50625800  0.49374200  0.99374200  1
  Cu  Cu1  1  0.49374200  0.99374200  0.50625800  1
  Cu  Cu2  1  0.99374200  0.50625800  0.49374200  1
  Cu  Cu3  1  0.00625800  0.00625800  0.00625800  1
  Se  Se0  1  0.89322500  0.10677500  0.60677500  1
  Se  Se1  1  0.10677500  0.60677500  0.89322500  1
  Se  Se2  1  0.60677500  0.89322500  0.10677500  1
  Se  Se3  1  0.39322500  0.39322500  0.39322500  1
  S  S0  1  0.10743000  0.89257000  0.39257000  1
  S  S1  1  0.89257000  0.39257000  0.10743000  1
  S  S2  1  0.39257000  0.10743000  0.89257000  1
  S  S3  1  0.60743000  0.60743000  0.60743000  1
loop_
_geom_bond_atom_site_label_1
_geom_bond_atom_site_label_2
_geom_bond_distance
_geom_bond_site_symmetry_2
Cu0 S1 2.485173 1_556
Cu0 S2 2.485173 1_555
Cu0 S3 2.485173 1_555
Cu0 Se1 2.556718 1_555
Cu0 Se3 2.556718 1_556
Cu0 Se2 2.556718 1_556
Cu1 S2 2.485173 1_565
Cu1 S0 2.485173 1_555
Cu1 S3 2.485173 1_555
Cu1 Se2 2.556718 1_555
Cu1 Se3 2.556718 1_565
Cu1 Se0 2.556718 1_565
Cu2 S0 2.485173 1_655
Cu2 S1 2.485173 1_555
Cu2 S3 2.485173 1_555
Cu2 Se0 2.556718 1_555
Cu2 Se3 2.556718 1_655
Cu2 Se1 2.556718 1_655
Cu3 S1 2.485173 1_455
Cu3 S0 2.485173 1_545
Cu3 S2 2.485173 1_554
Cu3 Se2 2.556718 1_445
Cu3 Se0 2.556718 1_454
Cu3 Se1 2.556718 1_544
S0 Se0 2.220655 1_465
S1 Se1 2.220655 1_654
S2 Se2 2.220655 1_546
S3 Se3 2.220655 1_555
