# generated using pymatgen
data_Rb2Ba8Li(Sb3O)2
_symmetry_space_group_name_H-M   'P 1'
_cell_length_a   9.19965264
_cell_length_b   9.33492330
_cell_length_c   10.29815386
_cell_angle_alpha   114.01083445
_cell_angle_beta   115.44689825
_cell_angle_gamma   90.97797990
_symmetry_Int_Tables_number   1
_chemical_formula_structural   Rb2Ba8Li(Sb3O)2
_chemical_formula_sum   'Rb2 Ba8 Li1 Sb6 O2'
_cell_volume   709.46507696
_cell_formula_units_Z   1
loop_
 _symmetry_equiv_pos_site_id
 _symmetry_equiv_pos_as_xyz
  1  'x, y, z'
loop_
 _atom_site_type_symbol
 _atom_site_label
 _atom_site_symmetry_multiplicity
 _atom_site_fract_x
 _atom_site_fract_y
 _atom_site_fract_z
 _atom_site_occupancy
  Rb  Rb0  1  0.00822700  0.00209500  0.00531500  1
  Rb  Rb1  1  0.44066700  0.42708200  0.91479100  1
  Ba  Ba0  1  0.51270900  0.69112000  0.69620800  1
  Ba  Ba1  1  0.19049900  0.97699100  0.68591800  1
  Ba  Ba2  1  0.84805400  0.06277000  0.34085600  1
  Ba  Ba3  1  0.99233800  0.53024600  0.71756400  1
  Ba  Ba4  1  0.49159600  0.30928900  0.29729100  1
  Ba  Ba5  1  0.69751200  0.20071000  0.69740300  1
  Ba  Ba6  1  0.00596600  0.49537200  0.30834000  1
  Ba  Ba7  1  0.30328800  0.79429700  0.29509200  1
  Li  Li0  1  0.67074900  0.71429700  0.18695800  1
  Sb  Sb0  1  0.85473100  0.63729000  0.01517800  1
  Sb  Sb1  1  0.61296800  0.10390300  0.99500200  1
  Sb  Sb2  1  0.12001300  0.37152300  0.99916500  1
  Sb  Sb3  1  0.41532100  0.87666500  0.02187900  1
  Sb  Sb4  1  0.25848400  0.24560900  0.48882100  1
  Sb  Sb5  1  0.75176800  0.75832900  0.49626100  1
  O  O0  1  0.75811100  0.28274700  0.51359800  1
  O  O1  1  0.25271500  0.74109400  0.49936000  1
loop_
_geom_bond_atom_site_label_1
_geom_bond_atom_site_label_2
_geom_bond_distance
_geom_bond_site_symmetry_2
Rb0 Sb2 3.614827 1_554
Rb0 Sb0 3.720470 1_445
Rb0 Sb1 3.742326 1_454
Rb0 Sb3 3.897339 1_545
Rb0 Sb4 4.002409 1_555
Rb0 Sb5 4.207883 1_444
Rb1 Sb2 3.499011 1_555
Rb1 Sb4 3.529769 1_555
Rb1 Sb1 3.655458 1_555
Rb1 Sb3 3.920672 1_556
Ba0 O1 2.586309 1_555
Ba0 Sb1 3.599623 1_565
Ba0 Sb3 3.599783 1_556
Ba0 Sb4 3.933711 1_555
Ba1 O1 2.532350 1_555
Ba1 Sb1 3.575393 1_565
Ba1 Sb3 3.698472 1_556
Ba1 Sb4 3.997263 1_565
Ba1 Sb2 4.074441 1_565
Ba2 O0 2.532991 1_555
Ba2 Li0 3.025873 1_545
Ba2 Sb1 3.468724 1_554
Ba2 Sb4 3.494424 1_655
Ba2 Sb3 3.679503 1_545
Ba3 O0 2.526701 1_555
Ba3 Sb2 3.551601 1_655
Ba3 Sb3 4.032880 1_656
Ba4 O0 2.609869 1_555
Ba4 Sb1 3.579999 1_554
Ba4 Sb4 3.659030 1_555
Ba4 Sb3 3.703724 1_545
Ba4 Sb2 3.734886 1_554
Ba5 O0 2.559703 1_555
Ba5 Sb2 3.561363 1_655
Ba5 Sb4 3.799665 1_555
Ba5 Sb1 3.884895 1_555
Ba6 O1 2.568432 1_555
Ba6 Sb2 3.534300 1_554
Ba6 Sb4 3.779976 1_555
Ba6 Sb1 4.094508 1_454
Ba7 O1 2.563506 1_555
Ba7 Sb2 3.643458 1_554
Ba7 Sb3 3.714202 1_555
Ba7 Sb4 3.978053 1_565
Li0 Sb5 2.784630 1_555
Li0 Sb0 2.844406 1_555
Li0 Rb1 2.849034 1_554
Li0 Sb3 3.081362 1_555
Sb1 Sb3 2.942974 1_546
