# generated using pymatgen
data_Eu2ZrVO6
_symmetry_space_group_name_H-M   'P 1'
_cell_length_a   5.64465095
_cell_length_b   5.64464912
_cell_length_c   5.64465101
_cell_angle_alpha   60.00001040
_cell_angle_beta   59.99997820
_cell_angle_gamma   60.00001140
_symmetry_Int_Tables_number   1
_chemical_formula_structural   Eu2ZrVO6
_chemical_formula_sum   'Eu2 Zr1 V1 O6'
_cell_volume   127.17335841
_cell_formula_units_Z   1
loop_
 _symmetry_equiv_pos_site_id
 _symmetry_equiv_pos_as_xyz
  1  'x, y, z'
loop_
 _atom_site_type_symbol
 _atom_site_label
 _atom_site_symmetry_multiplicity
 _atom_site_fract_x
 _atom_site_fract_y
 _atom_site_fract_z
 _atom_site_occupancy
  Eu  Eu0  1  0.25000000  0.25000000  0.25000000  1
  Eu  Eu1  1  0.75000000  0.75000000  0.75000000  1
  Zr  Zr0  1  0.00000000  -0.00000000  0.00000000  1
  V  V0  1  0.50000000  0.50000000  0.50000000  1
  O  O0  1  0.74196332  0.25803668  0.25803668  1
  O  O1  1  0.25803668  0.74196332  0.74196332  1
  O  O2  1  0.74196363  0.25803637  0.74196363  1
  O  O3  1  0.25803637  0.74196363  0.25803637  1
  O  O4  1  0.74196358  0.74196358  0.25803642  1
  O  O5  1  0.25803642  0.25803642  0.74196358  1
loop_
_geom_bond_atom_site_label_1
_geom_bond_atom_site_label_2
_geom_bond_distance
_geom_bond_site_symmetry_2
Eu0 O3 2.823054 1_545
Eu0 O2 2.823054 1_455
Eu0 O2 2.823054 1_554
Eu0 O3 2.823054 1_555
Eu0 O4 2.823055 1_545
Eu0 O4 2.823055 1_455
Eu0 O5 2.823055 1_554
Eu0 O5 2.823055 1_555
Eu0 O1 2.823055 1_554
Eu0 O1 2.823055 1_545
Eu0 O0 2.823055 1_455
Eu0 O0 2.823055 1_555
Eu1 O2 2.823054 1_555
Eu1 O3 2.823054 1_556
Eu1 O3 2.823054 1_655
Eu1 O2 2.823054 1_565
Eu1 O4 2.823055 1_555
Eu1 O5 2.823055 1_655
Eu1 O5 2.823055 1_565
Eu1 O4 2.823055 1_556
Eu1 O0 2.823055 1_556
Eu1 O1 2.823055 1_555
Eu1 O0 2.823055 1_565
Eu1 O1 2.823055 1_655
O0 V0 1.931530 1_555
O0 Zr0 2.059840 1_655
O1 V0 1.931530 1_555
O1 Zr0 2.059840 1_566
O2 V0 1.931534 1_555
O2 Zr0 2.059838 1_656
O3 V0 1.931534 1_555
O3 Zr0 2.059838 1_565
O4 V0 1.931532 1_555
O4 Zr0 2.059837 1_665
O5 V0 1.931532 1_555
O5 Zr0 2.059837 1_556
