# generated using pymatgen
data_PmS
_symmetry_space_group_name_H-M   'P 1'
_cell_length_a   10.98926544
_cell_length_b   10.98926544
_cell_length_c   10.98926544
_cell_angle_alpha   159.31933057
_cell_angle_beta   159.31933057
_cell_angle_gamma   29.41019271
_symmetry_Int_Tables_number   1
_chemical_formula_structural   PmS
_chemical_formula_sum   'Pm2 S2'
_cell_volume   165.42696321
_cell_formula_units_Z   2
loop_
 _symmetry_equiv_pos_site_id
 _symmetry_equiv_pos_as_xyz
  1  'x, y, z'
loop_
 _atom_site_type_symbol
 _atom_site_label
 _atom_site_symmetry_multiplicity
 _atom_site_fract_x
 _atom_site_fract_y
 _atom_site_fract_z
 _atom_site_occupancy
  Pm  Pm0  1  0.30488700  0.30488700  0.00000000  1
  Pm  Pm1  1  0.69511300  0.69511300  0.00000000  1
  S  S0  1  0.17055500  0.17055500  0.00000000  1
  S  S1  1  0.82944500  0.82944500  0.00000000  1
loop_
_geom_bond_atom_site_label_1
_geom_bond_atom_site_label_2
_geom_bond_distance
_geom_bond_site_symmetry_2
Pm0 S1 2.837991 1_455
Pm0 S1 2.837991 1_556
Pm0 S1 2.837991 1_444
Pm0 S1 2.837991 1_545
Pm0 S0 2.855714 1_555
Pm1 S0 2.837991 1_554
Pm1 S0 2.837991 1_565
Pm1 S0 2.837991 1_655
Pm1 S0 2.837991 1_666
Pm1 S1 2.855714 1_555
