# generated using pymatgen
data_U
_symmetry_space_group_name_H-M   'P 1'
_cell_length_a   6.72334005
_cell_length_b   4.97974553
_cell_length_c   4.78737607
_cell_angle_alpha   90.00000000
_cell_angle_beta   90.00000000
_cell_angle_gamma   90.00000000
_symmetry_Int_Tables_number   1
_chemical_formula_structural   U
_chemical_formula_sum   U8
_cell_volume   160.28385252
_cell_formula_units_Z   8
loop_
 _symmetry_equiv_pos_site_id
 _symmetry_equiv_pos_as_xyz
  1  'x, y, z'
loop_
 _atom_site_type_symbol
 _atom_site_label
 _atom_site_symmetry_multiplicity
 _atom_site_fract_x
 _atom_site_fract_y
 _atom_site_fract_z
 _atom_site_occupancy
  U  U0  1  0.81297857  0.34159886  0.25000000  1
  U  U1  1  0.31297857  0.15840114  0.25000000  1
  U  U2  1  0.18702143  0.65840114  0.75000000  1
  U  U3  1  0.68702143  0.84159886  0.75000000  1
  U  U4  1  0.53070499  0.71143073  0.25000000  1
  U  U5  1  0.03070499  0.78856927  0.25000000  1
  U  U6  1  0.46929501  0.28856927  0.75000000  1
  U  U7  1  0.96929501  0.21143073  0.75000000  1
loop_
_geom_bond_atom_site_label_1
_geom_bond_atom_site_label_2
_geom_bond_distance
_geom_bond_site_symmetry_2
U0 U4 2.644517 1_555
U0 U5 2.664026 1_655
U0 U7 2.693408 1_555
U0 U7 2.693408 1_554
U1 U5 2.644517 1_545
U1 U4 2.664026 1_545
U1 U6 2.693408 1_555
U1 U6 2.693408 1_554
U2 U6 2.644517 1_555
U2 U7 2.664026 1_455
U2 U5 2.693408 1_556
U2 U5 2.693408 1_555
U3 U7 2.644517 1_565
U3 U6 2.664026 1_565
U3 U4 2.693408 1_556
U3 U4 2.693408 1_555
