# generated using pymatgen
data_ZnO
_symmetry_space_group_name_H-M   'P 1'
_cell_length_a   9.93774190
_cell_length_b   10.13621837
_cell_length_c   10.57088866
_cell_angle_alpha   90.26419420
_cell_angle_beta   93.01417592
_cell_angle_gamma   84.33840987
_symmetry_Int_Tables_number   1
_chemical_formula_structural   ZnO
_chemical_formula_sum   'Zn40 O40'
_cell_volume   1058.15711151
_cell_formula_units_Z   40
loop_
 _symmetry_equiv_pos_site_id
 _symmetry_equiv_pos_as_xyz
  1  'x, y, z'
loop_
 _atom_site_type_symbol
 _atom_site_label
 _atom_site_symmetry_multiplicity
 _atom_site_fract_x
 _atom_site_fract_y
 _atom_site_fract_z
 _atom_site_occupancy
  Zn  Zn0  1  0.06195200  0.73513300  0.75198900  1
  Zn  Zn1  1  0.74260000  0.46247000  0.21627200  1
  Zn  Zn2  1  0.58803700  0.48626900  0.45391400  1
  Zn  Zn3  1  0.11370000  0.79733800  0.50323000  1
  Zn  Zn4  1  0.23310500  0.78217900  0.19471500  1
  Zn  Zn5  1  0.26408000  0.98142600  0.66587200  1
  Zn  Zn6  1  0.21661200  0.43093400  0.96490400  1
  Zn  Zn7  1  0.22408900  0.54084100  0.28263300  1
  Zn  Zn8  1  0.08523100  0.25478700  0.55949300  1
  Zn  Zn9  1  0.66284600  0.26613900  0.71399300  1
  Zn  Zn10  1  0.64447200  0.04510000  0.34135600  1
  Zn  Zn11  1  0.28201100  0.54721400  0.53899100  1
  Zn  Zn12  1  0.43138100  0.00381400  0.18569100  1
  Zn  Zn13  1  0.71396400  0.78422100  0.84283800  1
  Zn  Zn14  1  0.95843600  0.57001600  0.11136700  1
  Zn  Zn15  1  0.44910800  0.77385900  0.39804400  1
  Zn  Zn16  1  0.80284600  0.00753700  0.01833400  1
  Zn  Zn17  1  0.94131400  0.38505000  0.73699700  1
  Zn  Zn18  1  0.67258400  0.47447800  0.95178800  1
  Zn  Zn19  1  0.87238300  0.79101100  0.26313700  1
  Zn  Zn20  1  0.97696600  0.04306600  0.76650300  1
  Zn  Zn21  1  0.96847900  0.09611700  0.25549100  1
  Zn  Zn22  1  0.94786800  0.27610900  0.99202300  1
  Zn  Zn23  1  0.33391900  0.83651000  0.92312700  1
  Zn  Zn24  1  0.35253800  0.27990400  0.74555800  1
  Zn  Zn25  1  0.60671900  0.78025300  0.11115600  1
  Zn  Zn26  1  0.19306800  0.08422000  0.05542400  1
  Zn  Zn27  1  0.65405100  0.57678700  0.69190500  1
  Zn  Zn28  1  0.40391500  0.59755900  0.77480500  1
  Zn  Zn29  1  0.78976100  0.19173600  0.49772400  1
  Zn  Zn30  1  0.11750700  0.31517300  0.29041400  1
  Zn  Zn31  1  0.02751500  0.83912600  0.00620200  1
  Zn  Zn32  1  0.42622400  0.26967500  0.45651200  1
  Zn  Zn33  1  0.44994500  0.28352100  0.14410300  1
  Zn  Zn34  1  0.45041600  0.56335000  0.14062900  1
  Zn  Zn35  1  0.53327100  0.99722600  0.62494900  1
  Zn  Zn36  1  0.93685600  0.53285800  0.44455800  1
  Zn  Zn37  1  0.79540700  0.83747000  0.53952400  1
  Zn  Zn38  1  0.26812700  0.04504600  0.39388600  1
  Zn  Zn39  1  0.49878600  0.04411300  0.90079000  1
  O  O0  1  0.84460800  0.43315800  0.05605200  1
  O  O1  1  0.53300300  0.14903400  0.75388400  1
  O  O2  1  0.41340600  0.91367600  0.78265000  1
  O  O3  1  0.91693900  0.19723400  0.64697800  1
  O  O4  1  0.58223100  0.41073200  0.10459700  1
  O  O5  1  0.26804600  0.17512200  0.62270900  1
  O  O6  1  0.06730900  0.20754400  0.13916600  1
  O  O7  1  0.39270200  0.12575400  0.03754100  1
  O  O8  1  0.64817200  0.91409300  0.97583500  1
  O  O9  1  0.91892700  0.79180100  0.85495200  1
  O  O10  1  0.08139400  0.91901500  0.64728800  1
  O  O11  1  0.27409400  0.39916700  0.42220600  1
  O  O12  1  0.38963500  0.93011400  0.50429900  1
  O  O13  1  0.70762800  0.74888200  0.66166300  1
  O  O14  1  0.29956900  0.43678300  0.13495700  1
  O  O15  1  0.03260500  0.49583200  0.28279900  1
  O  O16  1  0.60313800  0.29652400  0.53074600  1
  O  O17  1  0.23624000  0.71493400  0.38305100  1
  O  O18  1  0.57074400  0.88389100  0.27293700  1
  O  O19  1  0.47726200  0.56553800  0.59618100  1
  O  O20  1  0.24430400  0.96846700  0.22062500  1
  O  O21  1  0.45996200  0.16513600  0.30191200  1
  O  O22  1  0.57956700  0.63816300  0.87179900  1
  O  O23  1  0.79377300  0.14739300  0.31954400  1
  O  O24  1  0.40285000  0.74924300  0.07844600  1
  O  O25  1  0.92773500  0.93146200  0.15654300  1
  O  O26  1  0.02991400  0.44570900  0.59049800  1
  O  O27  1  0.07002800  0.35712600  0.88128000  1
  O  O28  1  0.74531900  0.41689400  0.77720300  1
  O  O29  1  0.77503600  0.67245200  0.15999300  1
  O  O30  1  0.48993000  0.60265100  0.32159400  1
  O  O31  1  0.76829200  0.46397400  0.39454500  1
  O  O32  1  0.10939300  0.67820900  0.09266900  1
  O  O33  1  0.87649000  0.12139900  0.90726100  1
  O  O34  1  0.22159400  0.66350100  0.68030200  1
  O  O35  1  0.09950300  0.15595400  0.39619400  1
  O  O36  1  0.15772600  0.94800100  0.92880400  1
  O  O37  1  0.69544600  0.00819600  0.52915100  1
  O  O38  1  0.93090200  0.74749200  0.43838700  1
  O  O39  1  0.36486300  0.42762800  0.84807100  1
loop_
_geom_bond_atom_site_label_1
_geom_bond_atom_site_label_2
_geom_bond_distance
_geom_bond_site_symmetry_2
O0 Zn14 1.943828 1_555
O0 Zn22 1.945774 1_554
O0 Zn18 1.994369 1_554
O0 Zn1 2.025075 1_555
O1 Zn9 1.901532 1_555
O1 Zn39 1.949452 1_555
O1 Zn35 2.050773 1_545
O1 Zn24 2.121047 1_555
O2 Zn23 1.922725 1_555
O2 Zn5 1.952358 1_555
O2 Zn39 2.030336 1_565
O2 Zn35 2.309989 1_555
O3 Zn29 1.973099 1_555
O3 Zn20 2.036967 1_555
O3 Zn8 2.086327 1_655
O3 Zn17 2.153709 1_555
O4 Zn34 1.975184 1_555
O4 Zn33 1.990590 1_555
O4 Zn18 2.027226 1_554
O4 Zn1 2.042021 1_555
O5 Zn24 1.888930 1_555
O5 Zn8 1.996774 1_555
O5 Zn5 2.022345 1_545
O6 Zn26 1.925105 1_555
O6 Zn22 1.991062 1_454
O6 Zn30 2.000672 1_555
O6 Zn21 2.027563 1_455
O7 Zn39 1.965459 1_554
O7 Zn12 1.997216 1_555
O7 Zn33 2.060415 1_555
O7 Zn26 2.086587 1_555
O8 Zn16 1.916344 1_566
O8 Zn13 2.011653 1_555
O8 Zn39 2.017394 1_565
O8 Zn25 2.060707 1_556
O9 Zn0 1.878999 1_655
O9 Zn31 1.965842 1_656
O9 Zn13 2.043158 1_555
O10 Zn3 1.974630 1_555
O10 Zn5 1.980589 1_555
O10 Zn20 2.027719 1_465
O10 Zn0 2.202015 1_555
O11 Zn32 1.922279 1_555
O11 Zn11 1.943744 1_555
O11 Zn7 2.070657 1_555
O11 Zn30 2.260470 1_555
O12 Zn38 1.940180 1_565
O12 Zn15 1.997038 1_555
O12 Zn35 2.029531 1_555
O12 Zn5 2.198272 1_555
O13 Zn37 1.875615 1_555
O13 Zn27 1.906538 1_555
O13 Zn13 1.945670 1_555
O14 Zn6 1.940972 1_554
O14 Zn7 2.015923 1_555
O14 Zn33 2.045498 1_555
O14 Zn34 2.065426 1_555
O15 Zn30 1.939337 1_555
O15 Zn7 2.000222 1_555
O15 Zn36 2.016153 1_455
O15 Zn14 2.038496 1_455
O16 Zn32 1.930854 1_555
O16 Zn9 2.011914 1_555
O16 Zn2 2.079873 1_555
O16 Zn29 2.089402 1_555
O17 Zn3 1.935657 1_555
O17 Zn7 2.065584 1_555
O17 Zn4 2.104985 1_555
O17 Zn15 2.251678 1_555
O17 Zn11 2.368286 1_555
O18 Zn12 1.946823 1_565
O18 Zn10 1.974750 1_565
O18 Zn25 2.032158 1_555
O18 Zn15 2.213998 1_555
O19 Zn27 1.993755 1_555
O19 Zn2 2.026721 1_555
O19 Zn11 2.027723 1_555
O19 Zn28 2.072297 1_555
O20 Zn4 1.920000 1_555
O20 Zn12 1.981394 1_565
O20 Zn38 1.997646 1_565
O20 Zn26 2.119678 1_565
O21 Zn32 1.969159 1_555
O21 Zn33 2.051855 1_555
O21 Zn12 2.073718 1_555
O21 Zn10 2.121430 1_555
O22 Zn18 1.987547 1_555
O22 Zn28 2.053620 1_555
O22 Zn13 2.122895 1_555
O22 Zn27 2.144162 1_555
O23 Zn10 1.916084 1_555
O23 Zn21 1.919705 1_555
O23 Zn29 1.935928 1_555
O24 Zn23 1.929496 1_554
O24 Zn34 2.002234 1_555
O24 Zn25 2.091411 1_555
O24 Zn4 2.137936 1_555
O25 Zn19 1.957930 1_555
O25 Zn16 1.974929 1_565
O25 Zn21 2.028838 1_565
O25 Zn31 2.086577 1_655
O26 Zn36 1.927920 1_455
O26 Zn17 1.952057 1_455
O26 Zn8 1.989452 1_555
O27 Zn6 1.880597 1_555
O27 Zn17 1.941620 1_455
O27 Zn22 1.968150 1_455
O28 Zn9 1.906136 1_555
O28 Zn27 1.974791 1_555
O28 Zn17 2.010048 1_555
O28 Zn18 2.077549 1_555
O29 Zn19 1.917091 1_555
O29 Zn25 1.952474 1_555
O29 Zn14 2.093881 1_555
O29 Zn1 2.270513 1_555
O30 Zn15 1.926637 1_555
O30 Zn34 1.979179 1_555
O30 Zn2 1.985831 1_555
O31 Zn1 1.888565 1_555
O31 Zn2 1.921154 1_555
O31 Zn36 1.925452 1_555
O32 Zn31 1.957463 1_555
O32 Zn14 1.962154 1_455
O32 Zn4 1.972665 1_555
O33 Zn16 1.875035 1_556
O33 Zn20 1.957123 1_555
O33 Zn22 1.976066 1_555
O34 Zn0 1.874152 1_555
O34 Zn11 1.979819 1_555
O34 Zn28 2.074709 1_555
O34 Zn3 2.453375 1_555
O35 Zn38 1.924801 1_555
O35 Zn30 1.995399 1_555
O35 Zn8 1.996319 1_555
O35 Zn21 2.054104 1_455
O36 Zn26 1.962284 1_566
O36 Zn31 1.990768 1_556
O36 Zn23 1.991630 1_555
O36 Zn20 2.539389 1_465
O37 Zn37 1.909094 1_545
O37 Zn35 1.960440 1_545
O37 Zn10 2.049659 1_555
O37 Zn29 2.198281 1_555
O38 Zn37 1.920417 1_555
O38 Zn19 1.951496 1_555
O38 Zn3 2.017944 1_655
O38 Zn36 2.171727 1_555
O39 Zn24 1.854364 1_555
O39 Zn6 1.969316 1_555
O39 Zn28 1.973096 1_555
