# generated using pymatgen
data_NaMg2(SO4)3
_symmetry_space_group_name_H-M   'P 1'
_cell_length_a   8.69757795
_cell_length_b   8.69757795
_cell_length_c   9.07122016
_cell_angle_alpha   61.11378895
_cell_angle_beta   61.11378895
_cell_angle_gamma   59.34991670
_symmetry_Int_Tables_number   1
_chemical_formula_structural   NaMg2(SO4)3
_chemical_formula_sum   'Na2 Mg4 S6 O24'
_cell_volume   490.69322259
_cell_formula_units_Z   2
loop_
 _symmetry_equiv_pos_site_id
 _symmetry_equiv_pos_as_xyz
  1  'x, y, z'
loop_
 _atom_site_type_symbol
 _atom_site_label
 _atom_site_symmetry_multiplicity
 _atom_site_fract_x
 _atom_site_fract_y
 _atom_site_fract_z
 _atom_site_occupancy
  Na  Na0  1  0.50000000  0.00000000  0.00000000  1
  Na  Na1  1  0.00000000  0.50000000  0.50000000  1
  Mg  Mg0  1  0.65480800  0.14548700  0.55280100  1
  Mg  Mg1  1  0.34519200  0.85451300  0.44719900  1
  Mg  Mg2  1  0.85451300  0.34519200  0.94719900  1
  Mg  Mg3  1  0.14548700  0.65480800  0.05280100  1
  S  S0  1  0.94811000  0.05189000  0.75000000  1
  S  S1  1  0.05189000  0.94811000  0.25000000  1
  S  S2  1  0.53715200  0.75281300  0.75096800  1
  S  S3  1  0.46284800  0.24718700  0.24903200  1
  S  S4  1  0.24718700  0.46284800  0.74903200  1
  S  S5  1  0.75281300  0.53715200  0.25096800  1
  O  O0  1  0.41140600  0.28364000  0.73541600  1
  O  O1  1  0.58859400  0.71636000  0.26458400  1
  O  O2  1  0.71636000  0.58859400  0.76458400  1
  O  O3  1  0.28364000  0.41140600  0.23541600  1
  O  O4  1  0.76776200  0.07683300  0.74366200  1
  O  O5  1  0.23223800  0.92316700  0.25633800  1
  O  O6  1  0.92316700  0.23223800  0.75633800  1
  O  O7  1  0.07683300  0.76776200  0.24366200  1
  O  O8  1  0.56543600  0.91816500  0.73135900  1
  O  O9  1  0.43456400  0.08183500  0.26864100  1
  O  O10  1  0.08183500  0.43456400  0.76864100  1
  O  O11  1  0.91816500  0.56543600  0.23135900  1
  O  O12  1  0.50388400  0.78205900  0.59371100  1
  O  O13  1  0.49611600  0.21794100  0.40628900  1
  O  O14  1  0.21794100  0.49611600  0.90628900  1
  O  O15  1  0.78205900  0.50388400  0.09371100  1
  O  O16  1  0.27683100  0.61962900  0.58599000  1
  O  O17  1  0.72316900  0.38037100  0.41401000  1
  O  O18  1  0.38037100  0.72316900  0.91401000  1
  O  O19  1  0.61962900  0.27683100  0.08599000  1
  O  O20  1  0.10299900  0.01882900  0.58798900  1
  O  O21  1  0.89700100  0.98117100  0.41201100  1
  O  O22  1  0.98117100  0.89700100  0.91201100  1
  O  O23  1  0.01882900  0.10299900  0.08798900  1
loop_
_geom_bond_atom_site_label_1
_geom_bond_atom_site_label_2
_geom_bond_distance
_geom_bond_site_symmetry_2
Na0 O5 2.476037 1_545
Na0 O4 2.476037 1_554
Na0 O1 2.562871 1_545
Na0 O0 2.562871 1_554
Na0 O9 2.586852 1_555
Na0 O8 2.586852 1_544
Na1 O7 2.476037 1_555
Na1 O6 2.476037 1_455
Na1 O2 2.562871 1_455
Na1 O3 2.562871 1_555
Na1 O10 2.586852 1_555
Na1 O11 2.586852 1_455
Mg0 O17 2.035291 1_555
Mg0 O13 2.035881 1_555
Mg0 O21 2.050763 1_545
Mg0 O4 2.089413 1_555
Mg0 O8 2.096048 1_545
Mg0 O0 2.147322 1_555
Mg1 O16 2.035291 1_555
Mg1 O12 2.035881 1_555
Mg1 O20 2.050763 1_565
Mg1 O5 2.089413 1_555
Mg1 O9 2.096048 1_565
Mg1 O1 2.147322 1_555
Mg2 O19 2.035291 1_556
Mg2 O15 2.035881 1_556
Mg2 O23 2.050763 1_656
Mg2 O6 2.089413 1_555
Mg2 O10 2.096048 1_655
Mg2 O2 2.147322 1_555
Mg3 O18 2.035291 1_554
Mg3 O14 2.035881 1_554
Mg3 O22 2.050763 1_454
Mg3 O7 2.089413 1_555
Mg3 O11 2.096048 1_455
Mg3 O3 2.147322 1_555
O0 S4 1.493476 1_555
O1 S5 1.493476 1_555
O2 S2 1.493476 1_555
O3 S3 1.493476 1_555
O4 S0 1.496317 1_555
O5 S1 1.496317 1_555
O6 S0 1.496317 1_555
O7 S1 1.496317 1_555
O8 S2 1.493906 1_555
O9 S3 1.493906 1_555
O10 S4 1.493906 1_555
O11 S5 1.493906 1_555
O12 S2 1.468515 1_555
O13 S3 1.468515 1_555
O14 S4 1.468515 1_555
O15 S5 1.468515 1_555
O16 S4 1.467955 1_555
O17 S5 1.467955 1_555
O18 S2 1.467955 1_555
O19 S3 1.467955 1_555
O20 S0 1.468971 1_455
O21 S1 1.468971 1_655
O22 S0 1.468971 1_565
O23 S1 1.468971 1_545
