# generated using pymatgen
data_BiO2
_symmetry_space_group_name_H-M   'P 1'
_cell_length_a   6.98719200
_cell_length_b   7.12040636
_cell_length_c   16.58817220
_cell_angle_alpha   90.34154136
_cell_angle_beta   91.17021150
_cell_angle_gamma   119.24631289
_symmetry_Int_Tables_number   1
_chemical_formula_structural   BiO2
_chemical_formula_sum   'Bi12 O24'
_cell_volume   719.81683470
_cell_formula_units_Z   12
loop_
 _symmetry_equiv_pos_site_id
 _symmetry_equiv_pos_as_xyz
  1  'x, y, z'
loop_
 _atom_site_type_symbol
 _atom_site_label
 _atom_site_symmetry_multiplicity
 _atom_site_fract_x
 _atom_site_fract_y
 _atom_site_fract_z
 _atom_site_occupancy
  Bi  Bi0  1  0.34643300  0.66920300  0.83379700  1
  Bi  Bi1  1  0.50355600  0.00453300  0.50176500  1
  Bi  Bi2  1  0.15341100  0.80594500  0.66839600  1
  Bi  Bi3  1  0.36017200  0.20955000  0.83841000  1
  Bi  Bi4  1  0.00204000  0.00037500  0.50100500  1
  Bi  Bi5  1  0.83184500  0.66796000  0.83103100  1
  Bi  Bi6  1  0.83821500  0.18607800  0.33325800  1
  Bi  Bi7  1  0.00221700  0.50014200  0.50030500  1
  Bi  Bi8  1  0.66472300  0.33056200  0.16619400  1
  Bi  Bi9  1  0.66456200  0.83367900  0.16634200  1
  Bi  Bi10  1  0.16522700  0.33266200  0.16191100  1
  Bi  Bi11  1  0.15363300  0.82585100  0.04770800  1
  O  O0  1  0.68877800  0.38399800  0.89336100  1
  O  O1  1  0.66725200  0.81529500  0.89034700  1
  O  O2  1  0.50242700  0.50547500  0.76426000  1
  O  O3  1  0.20902100  0.38085200  0.89389900  1
  O  O4  1  0.29062400  0.67247200  0.58152300  1
  O  O5  1  0.43444700  0.92706300  0.75035900  1
  O  O6  1  0.15866100  0.79462600  0.90262000  1
  O  O7  1  0.02557600  0.54792000  0.75551000  1
  O  O8  1  0.28805400  0.08491700  0.59715800  1
  O  O9  1  0.14912800  0.79629700  0.43750900  1
  O  O10  1  0.88130500  0.67162600  0.57834100  1
  O  O11  1  0.99610800  0.92721900  0.74914300  1
  O  O12  1  0.97590900  0.05220700  0.25322200  1
  O  O13  1  0.11524800  0.32544400  0.42108600  1
  O  O14  1  0.85823200  0.20452800  0.56430100  1
  O  O15  1  0.69680600  0.91361100  0.41253400  1
  O  O16  1  0.80262200  0.17540200  0.09908600  1
  O  O17  1  0.95881300  0.44565200  0.24817900  1
  O  O18  1  0.56011000  0.05407000  0.24921600  1
  O  O19  1  0.70490000  0.32321300  0.42135300  1
  O  O20  1  0.83317600  0.64155500  0.10652100  1
  O  O21  1  0.34808000  0.15782400  0.10293300  1
  O  O22  1  0.51111200  0.48845600  0.22443000  1
  O  O23  1  0.32427900  0.67703700  0.09808600  1
loop_
_geom_bond_atom_site_label_1
_geom_bond_atom_site_label_2
_geom_bond_distance
_geom_bond_site_symmetry_2
Bi0 O3 2.066065 1_555
Bi0 O1 2.147304 1_555
Bi0 O5 2.150995 1_555
Bi0 O6 2.239685 1_555
Bi0 O2 2.270378 1_555
Bi0 O7 2.331145 1_555
Bi1 O15 2.314668 1_545
Bi1 O14 2.382116 1_555
Bi1 O9 2.398509 1_545
Bi1 O19 2.429165 1_555
Bi1 O8 2.455103 1_555
Bi1 O4 2.496956 1_545
Bi2 O8 2.115333 1_565
Bi2 O5 2.161126 1_555
Bi2 O11 2.172913 1_455
Bi2 O7 2.177694 1_555
Bi2 O4 2.197610 1_555
Bi2 O10 2.202554 1_455
Bi3 O3 2.176111 1_555
Bi3 O0 2.181702 1_555
Bi3 O2 2.230502 1_555
Bi3 O5 2.732116 1_545
Bi3 O11 2.742025 1_445
Bi3 O6 2.807076 1_545
Bi4 O8 2.362840 1_555
Bi4 O15 2.378626 1_445
Bi4 O14 2.382714 1_455
Bi4 O9 2.400504 1_545
Bi4 O10 2.446899 1_445
Bi4 O13 2.455827 1_555
Bi5 O0 2.061228 1_555
Bi5 O11 2.143263 1_555
Bi5 O1 2.145725 1_555
Bi5 O2 2.267536 1_555
Bi5 O6 2.302650 1_655
Bi5 O7 2.306368 1_655
Bi6 O12 2.128403 1_555
Bi6 O17 2.162359 1_555
Bi6 O15 2.163311 1_545
Bi6 O18 2.166095 1_555
Bi6 O13 2.201098 1_655
Bi6 O19 2.209979 1_555
Bi7 O9 2.130803 1_555
Bi7 O14 2.137923 1_455
Bi7 O4 2.198832 1_555
Bi7 O13 2.209247 1_555
Bi7 O10 2.216788 1_455
Bi7 O19 2.220338 1_455
Bi8 O16 2.111278 1_555
Bi8 O22 2.134873 1_555
Bi8 O21 2.177090 1_555
Bi8 O20 2.189909 1_555
Bi8 O17 2.229510 1_555
Bi8 O18 2.230279 1_555
Bi9 O23 2.337268 1_555
Bi9 O22 2.369724 1_555
Bi9 O12 2.401734 1_565
Bi9 O20 2.418789 1_555
Bi9 O16 2.424569 1_565
Bi9 O18 2.453469 1_565
Bi10 O22 2.326183 1_555
Bi10 O12 2.359794 1_455
Bi10 O21 2.393742 1_555
Bi10 O23 2.405199 1_555
Bi10 O16 2.421804 1_455
Bi10 O17 2.445322 1_455
Bi11 O23 2.108837 1_555
Bi11 O20 2.218283 1_455
Bi11 O21 2.248964 1_565
Bi11 O6 2.418221 1_554
