# generated using pymatgen
data_Li(Fe2O3)4
_symmetry_space_group_name_H-M   'P 1'
_cell_length_a   6.03725300
_cell_length_b   6.04185848
_cell_length_c   13.44973380
_cell_angle_alpha   102.62139917
_cell_angle_beta   102.94331061
_cell_angle_gamma   89.93020408
_symmetry_Int_Tables_number   1
_chemical_formula_structural   Li(Fe2O3)4
_chemical_formula_sum   'Li2 Fe16 O24'
_cell_volume   465.98883217
_cell_formula_units_Z   2
loop_
 _symmetry_equiv_pos_site_id
 _symmetry_equiv_pos_as_xyz
  1  'x, y, z'
loop_
 _atom_site_type_symbol
 _atom_site_label
 _atom_site_symmetry_multiplicity
 _atom_site_fract_x
 _atom_site_fract_y
 _atom_site_fract_z
 _atom_site_occupancy
  Li  Li0  1  0.00000000  0.50000000  0.00000000  1
  Li  Li1  1  0.50000000  0.00000000  0.50000000  1
  Fe  Fe0  1  0.04378900  0.30088900  0.58286800  1
  Fe  Fe1  1  0.33328300  0.84088900  0.66284700  1
  Fe  Fe2  1  0.82767100  0.84031800  0.66236000  1
  Fe  Fe3  1  0.62280100  0.37406200  0.74872000  1
  Fe  Fe4  1  0.15812700  0.66818700  0.83475000  1
  Fe  Fe5  1  0.15801800  0.17019700  0.83459400  1
  Fe  Fe6  1  0.70288100  0.96196800  0.92012400  1
  Fe  Fe7  1  0.50000000  0.50000000  0.00000000  1
  Fe  Fe8  1  0.29711900  0.03803200  0.07987600  1
  Fe  Fe9  1  0.84198200  0.82980300  0.16540600  1
  Fe  Fe10  1  0.84187300  0.33181300  0.16525000  1
  Fe  Fe11  1  0.37719900  0.62593800  0.25128000  1
  Fe  Fe12  1  0.17232900  0.15968200  0.33764000  1
  Fe  Fe13  1  0.66671700  0.15911100  0.33715300  1
  Fe  Fe14  1  0.95621100  0.69911100  0.41713200  1
  Fe  Fe15  1  0.50000000  0.50000000  0.50000000  1
  O  O0  1  0.57592300  0.07297500  0.67007000  1
  O  O1  1  0.57081600  0.59306900  0.66191600  1
  O  O2  1  0.09702400  0.08397900  0.67412500  1
  O  O3  1  0.09560000  0.60493000  0.67592800  1
  O  O4  1  0.39410800  0.91512200  0.82833500  1
  O  O5  1  0.93161000  0.92015300  0.83601000  1
  O  O6  1  0.93335600  0.41803500  0.83212700  1
  O  O7  1  0.40215700  0.42216200  0.84030100  1
  O  O8  1  0.25759500  0.73804000  0.99392300  1
  O  O9  1  0.25741100  0.25758300  0.99359900  1
  O  O10  1  0.74258900  0.74241700  0.00640100  1
  O  O11  1  0.74240500  0.26196000  0.00607700  1
  O  O12  1  0.06664400  0.58196500  0.16787300  1
  O  O13  1  0.59784300  0.57783800  0.15969900  1
  O  O14  1  0.60589200  0.08487800  0.17166500  1
  O  O15  1  0.06839000  0.07984700  0.16399000  1
  O  O16  1  0.90440000  0.39507000  0.32407200  1
  O  O17  1  0.90297600  0.91602100  0.32587500  1
  O  O18  1  0.42918400  0.40693100  0.33808400  1
  O  O19  1  0.42407700  0.92702500  0.32993000  1
  O  O20  1  0.73854200  0.25661800  0.49452900  1
  O  O21  1  0.25914100  0.26486800  0.49929500  1
  O  O22  1  0.26145800  0.74338200  0.50547100  1
  O  O23  1  0.74085900  0.73513200  0.50070500  1
loop_
_geom_bond_atom_site_label_1
_geom_bond_atom_site_label_2
_geom_bond_distance
_geom_bond_site_symmetry_2
Li0 O9 2.137050 1_554
Li0 O10 2.137050 1_455
Li0 O8 2.146489 1_554
Li0 O11 2.146489 1_455
Li0 O12 2.147065 1_555
Li0 O6 2.147065 1_454
Li1 O20 2.141513 1_555
Li1 O22 2.141513 1_545
Li1 O23 2.161089 1_545
Li1 O21 2.161089 1_555
Li1 O19 2.174108 1_545
Li1 O0 2.174108 1_555
Fe0 O21 1.883677 1_555
Fe0 O20 1.939271 1_455
Fe0 O2 1.962776 1_555
Fe0 O3 1.964718 1_555
Fe1 O0 2.000820 1_565
Fe1 O22 2.014913 1_555
Fe1 O2 2.051605 1_565
Fe1 O1 2.071993 1_555
Fe1 O3 2.085703 1_555
Fe1 O4 2.118502 1_555
Fe2 O23 2.071781 1_555
Fe2 O0 2.073254 1_565
Fe2 O2 2.150683 1_665
Fe2 O1 2.152642 1_555
Fe2 O3 2.155914 1_655
Fe2 O5 2.221054 1_555
Fe3 O0 1.880023 1_555
Fe3 O1 1.929347 1_555
Fe3 O6 1.942429 1_555
Fe3 O7 1.988400 1_555
Fe4 O6 2.021687 1_455
Fe4 O3 2.033197 1_555
Fe4 O8 2.037586 1_555
Fe4 O5 2.044998 1_455
Fe4 O7 2.092730 1_555
Fe4 O4 2.092738 1_555
Fe5 O6 2.019797 1_455
Fe5 O9 2.035876 1_555
Fe5 O5 2.044579 1_445
Fe5 O2 2.053820 1_555
Fe5 O7 2.097519 1_555
Fe5 O4 2.098915 1_545
Fe6 O11 1.907970 1_566
Fe6 O10 1.926366 1_556
Fe6 O5 1.955669 1_555
Fe6 O4 1.974045 1_555
Fe7 O13 2.043151 1_555
Fe7 O7 2.043151 1_554
Fe7 O10 2.047246 1_555
Fe7 O9 2.047246 1_554
Fe7 O11 2.051703 1_555
Fe7 O8 2.051703 1_554
Fe8 O8 1.907970 1_544
Fe8 O9 1.926366 1_554
Fe8 O15 1.955669 1_555
Fe8 O14 1.974045 1_555
Fe9 O12 2.019797 1_655
Fe9 O10 2.035876 1_555
Fe9 O15 2.044579 1_665
Fe9 O17 2.053820 1_555
Fe9 O13 2.097519 1_555
Fe9 O14 2.098915 1_565
Fe10 O12 2.021687 1_655
Fe10 O16 2.033197 1_555
Fe10 O11 2.037586 1_555
Fe10 O15 2.044998 1_655
Fe10 O13 2.092730 1_555
Fe10 O14 2.092738 1_555
Fe11 O19 1.880023 1_555
Fe11 O18 1.929347 1_555
Fe11 O12 1.942429 1_555
Fe11 O13 1.988400 1_555
Fe12 O21 2.071781 1_555
Fe12 O19 2.073254 1_545
Fe12 O17 2.150683 1_445
Fe12 O18 2.152642 1_555
Fe12 O16 2.155914 1_455
Fe12 O15 2.221054 1_555
Fe13 O19 2.000820 1_545
Fe13 O20 2.014913 1_555
Fe13 O17 2.051605 1_545
Fe13 O18 2.071993 1_555
Fe13 O16 2.085703 1_555
Fe13 O14 2.118502 1_555
Fe14 O23 1.883677 1_555
Fe14 O22 1.939271 1_655
Fe14 O17 1.962776 1_555
Fe14 O16 1.964718 1_555
Fe15 O23 2.031193 1_555
Fe15 O21 2.031193 1_555
Fe15 O20 2.058337 1_555
Fe15 O22 2.058337 1_555
Fe15 O1 2.071188 1_555
Fe15 O18 2.071188 1_555
