# generated using pymatgen
data_Mn(CdN)3
_symmetry_space_group_name_H-M   'P 1'
_cell_length_a   7.18853745
_cell_length_b   7.20079113
_cell_length_c   4.76790500
_cell_angle_alpha   90.00000000
_cell_angle_beta   90.00000000
_cell_angle_gamma   120.05564878
_symmetry_Int_Tables_number   1
_chemical_formula_structural   Mn(CdN)3
_chemical_formula_sum   'Mn2 Cd6 N6'
_cell_volume   213.61668584
_cell_formula_units_Z   2
loop_
 _symmetry_equiv_pos_site_id
 _symmetry_equiv_pos_as_xyz
  1  'x, y, z'
loop_
 _atom_site_type_symbol
 _atom_site_label
 _atom_site_symmetry_multiplicity
 _atom_site_fract_x
 _atom_site_fract_y
 _atom_site_fract_z
 _atom_site_occupancy
  Mn  Mn0  1  0.66608800  0.33304300  0.75000000  1
  Mn  Mn1  1  0.33391200  0.66695700  0.25000000  1
  Cd  Cd0  1  0.81369800  0.62674100  0.25000000  1
  Cd  Cd1  1  0.81314200  0.18640100  0.25000000  1
  Cd  Cd2  1  0.37228300  0.18642400  0.25000000  1
  Cd  Cd3  1  0.18630200  0.37325900  0.75000000  1
  Cd  Cd4  1  0.18685800  0.81359900  0.75000000  1
  Cd  Cd5  1  0.62771700  0.81357600  0.75000000  1
  N  N0  1  0.81017300  0.62021300  0.75000000  1
  N  N1  1  0.80964500  0.18941300  0.75000000  1
  N  N2  1  0.37837200  0.18945300  0.75000000  1
  N  N3  1  0.18982700  0.37978700  0.25000000  1
  N  N4  1  0.19035500  0.81058700  0.25000000  1
  N  N5  1  0.62162800  0.81054700  0.25000000  1
loop_
_geom_bond_atom_site_label_1
_geom_bond_atom_site_label_2
_geom_bond_distance
_geom_bond_site_symmetry_2
Mn0 N0 1.789807 1_555
Mn0 N1 1.789896 1_555
Mn0 N2 1.790159 1_555
Mn1 N3 1.789807 1_555
Mn1 N4 1.789896 1_555
Mn1 N5 1.790159 1_555
Cd0 N5 2.342780 1_555
Cd0 N4 2.343767 1_655
Cd0 N0 2.384300 1_554
Cd0 N0 2.384300 1_555
Cd1 N5 2.342632 1_545
Cd1 N3 2.344002 1_655
Cd1 N1 2.384298 1_554
Cd1 N1 2.384298 1_555
Cd2 N3 2.342700 1_555
Cd2 N4 2.342914 1_545
Cd2 N2 2.384254 1_554
Cd2 N2 2.384254 1_555
Cd3 N2 2.342780 1_555
Cd3 N1 2.343767 1_455
Cd3 N3 2.384300 1_556
Cd3 N3 2.384300 1_555
Cd4 N2 2.342632 1_565
Cd4 N0 2.344002 1_455
Cd4 N4 2.384298 1_556
Cd4 N4 2.384298 1_555
Cd5 N0 2.342700 1_555
Cd5 N1 2.342914 1_565
Cd5 N5 2.384254 1_555
Cd5 N5 2.384254 1_556
