# generated using pymatgen
data_KOsNOF5
_symmetry_space_group_name_H-M   'P 1'
_cell_length_a   4.94220900
_cell_length_b   6.29306400
_cell_length_c   9.49849230
_cell_angle_alpha   90.00000000
_cell_angle_beta   99.17488451
_cell_angle_gamma   90.00000000
_symmetry_Int_Tables_number   1
_chemical_formula_structural   KOsNOF5
_chemical_formula_sum   'K2 Os2 N2 O2 F10'
_cell_volume   291.63915325
_cell_formula_units_Z   2
loop_
 _symmetry_equiv_pos_site_id
 _symmetry_equiv_pos_as_xyz
  1  'x, y, z'
loop_
 _atom_site_type_symbol
 _atom_site_label
 _atom_site_symmetry_multiplicity
 _atom_site_fract_x
 _atom_site_fract_y
 _atom_site_fract_z
 _atom_site_occupancy
  K  K0  1  0.29189800  0.25000000  0.88971100  1
  K  K1  1  0.70810200  0.75000000  0.11028900  1
  Os  Os0  1  0.90383700  0.75000000  0.73324600  1
  Os  Os1  1  0.09616300  0.25000000  0.26675400  1
  N  N0  1  0.65681900  0.75000000  0.57843700  1
  N  N1  1  0.34318100  0.25000000  0.42156300  1
  O  O0  1  0.49508000  0.75000000  0.47425700  1
  O  O1  1  0.50492000  0.25000000  0.52574300  1
  F  F0  1  0.12658800  0.52796400  0.66800800  1
  F  F1  1  0.87341200  0.02796400  0.33199200  1
  F  F2  1  0.87341200  0.47203600  0.33199200  1
  F  F3  1  0.12658800  0.97203600  0.66800800  1
  F  F4  1  0.72929800  0.96803700  0.83440200  1
  F  F5  1  0.27070200  0.46803700  0.16559800  1
  F  F6  1  0.27070200  0.03196300  0.16559800  1
  F  F7  1  0.72929800  0.53196300  0.83440200  1
  F  F8  1  0.17783200  0.75000000  0.90657500  1
  F  F9  1  0.82216800  0.25000000  0.09342500  1
loop_
_geom_bond_atom_site_label_1
_geom_bond_atom_site_label_2
_geom_bond_distance
_geom_bond_site_symmetry_2
N0 O0 1.168728 1_555
N0 Os0 1.755036 1_555
N1 O1 1.168728 1_555
N1 Os1 1.755036 1_555
F0 Os0 1.940587 1_455
F0 K0 2.759216 1_555
F1 Os1 1.940587 1_655
F1 K1 2.759216 1_545
F2 Os1 1.940587 1_655
F2 K1 2.759216 1_555
F3 Os0 1.940587 1_455
F3 K0 2.759216 1_565
F4 Os0 1.953026 1_555
F4 K0 2.908562 1_565
F4 K1 2.974610 1_556
F4 K0 3.269528 1_665
F5 Os1 1.953026 1_555
F5 K1 2.908562 1_555
F5 K0 2.974610 1_554
F5 K1 3.269528 1_455
F6 Os1 1.953026 1_555
F6 K1 2.908562 1_545
F6 K0 2.974610 1_554
F6 K1 3.269528 1_445
F7 Os0 1.953026 1_555
F7 K0 2.908562 1_555
F7 K1 2.974610 1_556
F7 K0 3.269528 1_655
F8 Os0 1.957871 1_455
F8 K1 2.999183 1_556
F8 K0 3.205140 1_565
F8 K0 3.205140 1_555
F8 K1 3.250541 1_456
F9 Os1 1.957871 1_655
F9 K0 2.999183 1_554
F9 K1 3.205140 1_555
F9 K1 3.205140 1_545
F9 K0 3.250541 1_654
