# generated using pymatgen
data_Li3MnCoNiO6
_symmetry_space_group_name_H-M   'P 1'
_cell_length_a   5.09424281
_cell_length_b   5.09424281
_cell_length_c   5.11958382
_cell_angle_alpha   80.80192974
_cell_angle_beta   80.80192974
_cell_angle_gamma   120.69537310
_symmetry_Int_Tables_number   1
_chemical_formula_structural   Li3MnCoNiO6
_chemical_formula_sum   'Li3 Mn1 Co1 Ni1 O6'
_cell_volume   108.11788714
_cell_formula_units_Z   1
loop_
 _symmetry_equiv_pos_site_id
 _symmetry_equiv_pos_as_xyz
  1  'x, y, z'
loop_
 _atom_site_type_symbol
 _atom_site_label
 _atom_site_symmetry_multiplicity
 _atom_site_fract_x
 _atom_site_fract_y
 _atom_site_fract_z
 _atom_site_occupancy
  Li  Li0  1  0.16652600  0.83347400  0.50000000  1
  Li  Li1  1  0.49957300  0.50042700  0.50000000  1
  Li  Li2  1  0.83434200  0.16565800  0.50000000  1
  Mn  Mn0  1  0.33393800  0.66606200  0.00000000  1
  Co  Co0  1  0.66469400  0.33530600  0.00000000  1
  Ni  Ni0  1  0.99991600  0.00008400  0.00000000  1
  O  O0  1  0.26498000  0.28033600  0.23088000  1
  O  O1  1  0.57092200  0.91019900  0.22583400  1
  O  O2  1  0.93269300  0.57705000  0.22551900  1
  O  O3  1  0.08980100  0.42907800  0.77416600  1
  O  O4  1  0.42295000  0.06730700  0.77448100  1
  O  O5  1  0.71966400  0.73502000  0.76912000  1
loop_
_geom_bond_atom_site_label_1
_geom_bond_atom_site_label_2
_geom_bond_distance
_geom_bond_site_symmetry_2
Li0 O1 2.108318 1_555
Li0 O3 2.108318 1_555
Li0 O4 2.152523 1_565
Li0 O2 2.152523 1_455
Li0 O0 2.223211 1_565
Li0 O5 2.223211 1_455
Li1 O0 2.058115 1_555
Li1 O5 2.058115 1_555
Li1 O3 2.141348 1_555
Li1 O1 2.141348 1_555
Li1 O2 2.224735 1_555
Li1 O4 2.224735 1_555
Li2 O2 2.092652 1_555
Li2 O4 2.092652 1_555
Li2 O0 2.126066 1_655
Li2 O5 2.126066 1_545
Li2 O1 2.206280 1_545
Li2 O3 2.206280 1_655
Mn0 O3 1.927175 1_554
Mn0 O1 1.927175 1_555
Mn0 O5 1.949792 1_554
Mn0 O0 1.949792 1_555
Mn0 O2 1.961785 1_455
Mn0 O4 1.961785 1_564
Co0 O2 1.988840 1_555
Co0 O4 1.988840 1_554
Co0 O0 2.040687 1_555
Co0 O5 2.040687 1_554
Co0 O3 2.054643 1_654
Co0 O1 2.054643 1_545
Ni0 O1 2.079353 1_545
Ni0 O3 2.079353 1_654
Ni0 O0 2.083336 1_655
Ni0 O5 2.083336 1_544
Ni0 O4 2.102184 1_654
Ni0 O2 2.102184 1_545
