# generated using pymatgen
data_Ca8Ti3Mn5O21
_symmetry_space_group_name_H-M   'P 1'
_cell_length_a   11.15021675
_cell_length_b   15.46446718
_cell_length_c   11.12179441
_cell_angle_alpha   90.04365675
_cell_angle_beta   91.34307012
_cell_angle_gamma   90.43672131
_symmetry_Int_Tables_number   1
_chemical_formula_structural   Ca8Ti3Mn5O21
_chemical_formula_sum   'Ca32 Ti12 Mn20 O84'
_cell_volume   1917.17164103
_cell_formula_units_Z   4
loop_
 _symmetry_equiv_pos_site_id
 _symmetry_equiv_pos_as_xyz
  1  'x, y, z'
loop_
 _atom_site_type_symbol
 _atom_site_label
 _atom_site_symmetry_multiplicity
 _atom_site_fract_x
 _atom_site_fract_y
 _atom_site_fract_z
 _atom_site_occupancy
  Ca  Ca0  1  0.97456701  0.12259660  0.53154465  1
  Ca  Ca1  1  0.97854878  0.11869027  0.02409194  1
  Ca  Ca2  1  0.99693136  0.61955566  0.52643375  1
  Ca  Ca3  1  0.99459442  0.61814641  0.00114483  1
  Ca  Ca4  1  0.53963376  0.12003758  0.48228975  1
  Ca  Ca5  1  0.54059449  0.12421537  0.98648921  1
  Ca  Ca6  1  0.53353268  0.62735562  0.51331387  1
  Ca  Ca7  1  0.54461259  0.62170460  0.97185137  1
  Ca  Ca8  1  0.50947697  0.38876315  0.98783114  1
  Ca  Ca9  1  0.48728081  0.37607898  0.52328531  1
  Ca  Ca10  1  0.53553763  0.85790677  0.97521970  1
  Ca  Ca11  1  0.48938352  0.86358609  0.50016327  1
  Ca  Ca12  1  0.96350722  0.38707564  0.00792655  1
  Ca  Ca13  1  0.95630407  0.38620886  0.51004912  1
  Ca  Ca14  1  0.95654762  0.87840441  0.99716826  1
  Ca  Ca15  1  0.96495270  0.86845962  0.51530206  1
  Ca  Ca16  1  0.24366950  0.39055433  0.22541947  1
  Ca  Ca17  1  0.23304789  0.40329162  0.75973997  1
  Ca  Ca18  1  0.24129110  0.88098318  0.27549170  1
  Ca  Ca19  1  0.22970846  0.86332628  0.72019929  1
  Ca  Ca20  1  0.74598217  0.37540519  0.25165279  1
  Ca  Ca21  1  0.72462823  0.38860400  0.76232466  1
  Ca  Ca22  1  0.74195607  0.86183095  0.24158494  1
  Ca  Ca23  1  0.71787426  0.86489268  0.73686220  1
  Ca  Ca24  1  0.22345143  0.12132198  0.21736750  1
  Ca  Ca25  1  0.22886912  0.11521870  0.73307446  1
  Ca  Ca26  1  0.24470206  0.61837047  0.27358001  1
  Ca  Ca27  1  0.26319976  0.62543635  0.71878423  1
  Ca  Ca28  1  0.76579040  0.12124284  0.25206359  1
  Ca  Ca29  1  0.76505254  0.12734219  0.75389649  1
  Ca  Ca30  1  0.76852382  0.61278800  0.25643626  1
  Ca  Ca31  1  0.77117330  0.62549588  0.75198120  1
  Ti  Ti0  1  0.98863905  0.99491773  0.26566170  1
  Ti  Ti1  1  0.98277176  0.99403510  0.75735706  1
  Ti  Ti2  1  0.00209526  0.49886643  0.25885169  1
  Ti  Ti3  1  0.24133299  0.97337313  0.01931245  1
  Ti  Ti4  1  0.23264878  0.00277603  0.50749967  1
  Ti  Ti5  1  0.25317136  0.52165492  0.00703686  1
  Ti  Ti6  1  0.26368079  0.24505367  0.93865223  1
  Ti  Ti7  1  0.25551485  0.23896707  0.44030169  1
  Ti  Ti8  1  0.26486334  0.74332117  0.97896014  1
  Ti  Ti9  1  0.98827923  0.25193287  0.27187542  1
  Ti  Ti10  1  0.99431911  0.25756142  0.77720664  1
  Ti  Ti11  1  0.99940180  0.74697260  0.27166231  1
  Mn  Mn0  1  0.99429592  0.49926174  0.75753504  1
  Mn  Mn1  1  0.50129587  0.98911235  0.22338735  1
  Mn  Mn2  1  0.49901152  0.99957773  0.72163580  1
  Mn  Mn3  1  0.50472990  0.48970214  0.24778146  1
  Mn  Mn4  1  0.49329198  0.50197607  0.75048818  1
  Mn  Mn5  1  0.23218366  0.48866668  0.50719155  1
  Mn  Mn6  1  0.74158358  0.00064914  0.98886284  1
  Mn  Mn7  1  0.74259187  0.99569277  0.48723381  1
  Mn  Mn8  1  0.75133552  0.50205574  0.00460028  1
  Mn  Mn9  1  0.73871756  0.49817617  0.50660166  1
  Mn  Mn10  1  0.24499938  0.74384383  0.49143220  1
  Mn  Mn11  1  0.74527133  0.25051310  0.00779443  1
  Mn  Mn12  1  0.74295970  0.24986621  0.50428799  1
  Mn  Mn13  1  0.76021430  0.74780633  0.99818533  1
  Mn  Mn14  1  0.74971383  0.74788238  0.50122822  1
  Mn  Mn15  1  0.00089641  0.75167332  0.75255265  1
  Mn  Mn16  1  0.50374165  0.25677833  0.26047544  1
  Mn  Mn17  1  0.50780888  0.24724768  0.75658156  1
  Mn  Mn18  1  0.51443925  0.75058025  0.26239383  1
  Mn  Mn19  1  0.49776828  0.74735003  0.74296298  1
  O  O0  1  0.09814207  0.76949380  0.60517859  1
  O  O1  1  0.56132971  0.25854361  0.09420054  1
  O  O2  1  0.56671775  0.24791442  0.59086883  1
  O  O3  1  0.60664595  0.76481447  0.11880887  1
  O  O4  1  0.60578168  0.76345883  0.59570106  1
  O  O5  1  0.38416788  0.18515631  0.36584916  1
  O  O6  1  0.38809589  0.18423509  0.86738463  1
  O  O7  1  0.40798096  0.69466619  0.36815479  1
  O  O8  1  0.41166356  0.73307344  0.92443226  1
  O  O9  1  0.92448124  0.24027384  0.41584534  1
  O  O10  1  0.92348908  0.23941686  0.91695512  1
  O  O11  1  0.91051764  0.72851825  0.40207096  1
  O  O12  1  0.91645932  0.73872460  0.90217240  1
  O  O13  1  0.16837008  0.25295909  0.29734301  1
  O  O14  1  0.17606418  0.25514260  0.79421044  1
  O  O15  1  0.16584075  0.74930769  0.31326829  1
  O  O16  1  0.17550586  0.74162580  0.84569914  1
  O  O17  1  0.65812062  0.22836511  0.34927288  1
  O  O18  1  0.66113145  0.23252476  0.85398567  1
  O  O19  1  0.66297004  0.72333354  0.34936081  1
  O  O20  1  0.64347191  0.73241580  0.84923388  1
  O  O21  1  0.35543663  0.75818935  0.64016384  1
  O  O22  1  0.85770274  0.26407843  0.15923953  1
  O  O23  1  0.87492489  0.26599142  0.65675960  1
  O  O24  1  0.89143410  0.77732065  0.14678988  1
  O  O25  1  0.84904761  0.77408507  0.64367695  1
  O  O26  1  0.35751985  0.51218522  0.16281037  1
  O  O27  1  0.34759689  0.48933562  0.64041813  1
  O  O28  1  0.35403458  0.02890309  0.11711108  1
  O  O29  1  0.36457343  0.04332097  0.60290193  1
  O  O30  1  0.86612077  0.48158615  0.15223233  1
  O  O31  1  0.84564557  0.47708413  0.64336250  1
  O  O32  1  0.86276608  0.97812507  0.16082122  1
  O  O33  1  0.85943722  0.97820615  0.65486609  1
  O  O34  1  0.17621189  0.01756830  0.35043293  1
  O  O35  1  0.23623707  0.99453253  0.86029041  1
  O  O36  1  0.16022953  0.49292444  0.34636424  1
  O  O37  1  0.16170691  0.52741481  0.86619324  1
  O  O38  1  0.62851815  0.02953721  0.33688238  1
  O  O39  1  0.62502158  0.04023297  0.83516425  1
  O  O40  1  0.63028375  0.52183875  0.36084123  1
  O  O41  1  0.64074822  0.51603596  0.85566980  1
  O  O42  1  0.39519840  0.51615195  0.91261916  1
  O  O43  1  0.90013714  0.01723171  0.40215339  1
  O  O44  1  0.89776816  0.01418589  0.89952004  1
  O  O45  1  0.90758627  0.51684823  0.39123747  1
  O  O46  1  0.89517830  0.51110198  0.89879408  1
  O  O47  1  0.11885611  0.47625887  0.09794568  1
  O  O48  1  0.09266805  0.47307310  0.61771369  1
  O  O49  1  0.10112930  0.98970205  0.09759227  1
  O  O50  1  0.10985492  0.98805564  0.61318415  1
  O  O51  1  0.60698175  0.49498799  0.11179304  1
  O  O52  1  0.59424011  0.48517981  0.61280276  1
  O  O53  1  0.59516421  0.98388602  0.07487153  1
  O  O54  1  0.60144819  0.97961206  0.57746810  1
  O  O55  1  0.00536146  0.37277692  0.27641153  1
  O  O56  1  0.01814372  0.37624424  0.80325441  1
  O  O57  1  0.02116881  0.87908048  0.30209286  1
  O  O58  1  0.02873875  0.88243183  0.79741972  1
  O  O59  1  0.44926231  0.37925516  0.31155094  1
  O  O60  1  0.48795690  0.37666512  0.77741404  1
  O  O61  1  0.45479035  0.86973748  0.28575580  1
  O  O62  1  0.49328750  0.87339735  0.77074811  1
  O  O63  1  0.47938313  0.62383301  0.72084838  1
  O  O64  1  0.00305583  0.12666614  0.23156771  1
  O  O65  1  0.01283095  0.12243763  0.74307776  1
  O  O66  1  0.01189028  0.62527222  0.22049361  1
  O  O67  1  0.98741333  0.62388204  0.72667256  1
  O  O68  1  0.17711567  0.17652219  0.03314544  1
  O  O69  1  0.18209872  0.15871771  0.53274631  1
  O  O70  1  0.22398131  0.64162998  0.05794680  1
  O  O71  1  0.21718966  0.61427318  0.50848232  1
  O  O72  1  0.75286657  0.12443526  0.04100528  1
  O  O73  1  0.75416979  0.12466547  0.54001964  1
  O  O74  1  0.76053269  0.62489263  0.03920237  1
  O  O75  1  0.74960988  0.62463603  0.54199119  1
  O  O76  1  0.27231004  0.34705523  0.50654197  1
  O  O77  1  0.29266098  0.35364197  0.99814568  1
  O  O78  1  0.27896455  0.88993837  0.48714338  1
  O  O79  1  0.26298419  0.85428531  0.05366241  1
  O  O80  1  0.74863446  0.37408364  0.46226730  1
  O  O81  1  0.74640322  0.37508460  0.97724230  1
  O  O82  1  0.75759899  0.87084805  0.45023898  1
  O  O83  1  0.74845051  0.87673074  0.95569022  1
loop_
_geom_bond_atom_site_label_1
_geom_bond_atom_site_label_2
_geom_bond_distance
_geom_bond_site_symmetry_2
Ca0 O9 2.294516 1_555
Ca0 O43 2.309645 1_555
Ca0 O69 2.376078 1_655
Ca0 O65 2.381148 1_655
Ca0 O73 2.461941 1_555
Ca0 O50 2.723122 1_645
Ca0 O23 2.862964 1_555
Ca0 O33 2.925500 1_545
Ca1 O44 2.293142 1_554
Ca1 O10 2.295401 1_554
Ca1 O64 2.320333 1_655
Ca1 O68 2.381447 1_655
Ca1 O72 2.530049 1_555
Ca1 O49 2.550884 1_645
Ca2 O67 2.233001 1_555
Ca2 O11 2.376274 1_555
Ca2 O45 2.382877 1_555
Ca2 O71 2.470655 1_655
Ca2 O48 2.700219 1_655
Ca2 O0 2.706968 1_655
Ca2 O75 2.768863 1_555
Ca3 O46 2.274836 1_554
Ca3 O12 2.330374 1_554
Ca3 O66 2.444987 1_655
Ca3 O70 2.642466 1_655
Ca3 O74 2.656533 1_555
Ca3 O37 2.803789 1_654
Ca3 O47 2.805958 1_655
Ca4 O2 2.330308 1_555
Ca4 O5 2.370551 1_555
Ca4 O38 2.376781 1_555
Ca4 O73 2.462709 1_555
Ca4 O54 2.510694 1_545
Ca4 O17 2.608080 1_555
Ca4 O29 2.665884 1_555
Ca5 O6 2.329785 1_555
Ca5 O39 2.344145 1_555
Ca5 O1 2.404093 1_556
Ca5 O72 2.429476 1_556
Ca5 O53 2.457888 1_546
Ca5 O18 2.616455 1_555
Ca5 O28 2.950995 1_556
Ca6 O7 2.359773 1_555
Ca6 O63 2.400025 1_555
Ca6 O4 2.419755 1_555
Ca6 O75 2.423592 1_555
Ca6 O52 2.551073 1_555
Ca6 O40 2.609685 1_555
Ca6 O19 2.775930 1_555
Ca7 O8 2.333562 1_555
Ca7 O41 2.361655 1_555
Ca7 O42 2.404048 1_555
Ca7 O20 2.459945 1_555
Ca7 O74 2.504685 1_556
Ca7 O51 2.592440 1_556
Ca7 O3 2.822382 1_556
Ca7 O63 2.868529 1_555
Ca8 O60 2.354042 1_555
Ca8 O51 2.383341 1_556
Ca8 O1 2.403835 1_556
Ca8 O77 2.479063 1_555
Ca8 O42 2.488995 1_555
Ca8 O81 2.657193 1_555
Ca8 O41 2.870214 1_555
Ca9 O52 2.274039 1_555
Ca9 O2 2.296877 1_555
Ca9 O59 2.383528 1_555
Ca9 O76 2.438062 1_555
Ca9 O27 2.706240 1_555
Ca9 O60 2.826208 1_555
Ca9 O80 3.007957 1_555
Ca10 O3 2.283204 1_556
Ca10 O62 2.324465 1_555
Ca10 O53 2.325571 1_556
Ca10 O83 2.404505 1_555
Ca10 O8 2.423779 1_555
Ca10 O20 2.699695 1_555
Ca11 O4 2.275863 1_555
Ca11 O54 2.330904 1_555
Ca11 O78 2.385481 1_555
Ca11 O61 2.408716 1_555
Ca11 O21 2.717985 1_555
Ca12 O56 2.376303 1_654
Ca12 O46 2.390576 1_554
Ca12 O47 2.405217 1_655
Ca12 O81 2.442385 1_554
Ca12 O30 2.448147 1_555
Ca12 O10 2.529183 1_554
Ca12 O22 2.811676 1_555
Ca12 O55 3.019991 1_655
Ca13 O48 2.330504 1_655
Ca13 O80 2.369585 1_555
Ca13 O31 2.409309 1_555
Ca13 O45 2.471803 1_555
Ca13 O9 2.506702 1_555
Ca13 O23 2.643921 1_555
Ca13 O55 2.676180 1_655
Ca14 O83 2.355056 1_555
Ca14 O58 2.381267 1_655
Ca14 O24 2.404814 1_556
Ca14 O12 2.437546 1_555
Ca14 O44 2.451367 1_565
Ca14 O49 2.584401 1_656
Ca14 O32 2.625634 1_556
Ca15 O0 2.348265 1_655
Ca15 O82 2.406954 1_555
Ca15 O25 2.428915 1_555
Ca15 O57 2.472145 1_655
Ca15 O11 2.564707 1_555
Ca15 O33 2.604987 1_555
Ca15 O50 2.661784 1_655
Ca15 O43 2.717752 1_565
Ca16 O36 2.293257 1_555
Ca16 O26 2.375167 1_555
Ca16 O47 2.375270 1_555
Ca16 O13 2.424735 1_555
Ca16 O59 2.471176 1_555
Ca16 O77 2.660971 1_554
Ca16 O55 2.741823 1_555
Ca17 O27 2.284575 1_555
Ca17 O37 2.404776 1_555
Ca17 O14 2.406271 1_555
Ca17 O48 2.454002 1_555
Ca17 O56 2.488065 1_555
Ca17 O77 2.826670 1_555
Ca17 O60 2.877252 1_555
Ca17 O76 2.989612 1_555
Ca17 O42 3.001554 1_555
Ca18 O15 2.241099 1_555
Ca18 O78 2.385155 1_555
Ca18 O61 2.388296 1_555
Ca18 O34 2.394107 1_565
Ca18 O57 2.479008 1_555
Ca18 O79 2.518668 1_555
Ca19 O21 2.343545 1_555
Ca19 O0 2.402263 1_555
Ca19 O16 2.425228 1_555
Ca19 O58 2.438492 1_555
Ca19 O35 2.556846 1_555
Ca19 O50 2.625130 1_555
Ca19 O78 2.693396 1_555
Ca19 O62 2.982157 1_555
Ca20 O80 2.342011 1_555
Ca20 O22 2.379521 1_555
Ca20 O30 2.398341 1_555
Ca20 O17 2.707176 1_555
Ca20 O51 2.859477 1_555
Ca20 O40 2.894958 1_555
Ca21 O31 2.345605 1_555
Ca21 O81 2.406321 1_555
Ca21 O41 2.430342 1_555
Ca21 O52 2.652014 1_555
Ca21 O60 2.653228 1_555
Ca21 O18 2.716231 1_555
Ca21 O23 2.814163 1_555
Ca22 O82 2.327069 1_555
Ca22 O24 2.389758 1_555
Ca22 O32 2.424456 1_555
Ca22 O3 2.501514 1_555
Ca22 O19 2.612345 1_555
Ca23 O25 2.299025 1_555
Ca23 O83 2.456097 1_555
Ca23 O4 2.522276 1_555
Ca23 O33 2.534085 1_555
Ca23 O20 2.544382 1_555
Ca23 O62 2.545484 1_555
Ca23 O54 2.811984 1_555
Ca24 O34 2.251513 1_555
Ca24 O68 2.270090 1_555
Ca24 O13 2.313944 1_555
Ca24 O28 2.347628 1_555
Ca24 O64 2.468227 1_555
Ca24 O5 2.597061 1_555
Ca24 O49 2.765170 1_545
Ca25 O35 2.343666 1_545
Ca25 O14 2.350995 1_555
Ca25 O69 2.375218 1_555
Ca25 O29 2.397431 1_555
Ca25 O65 2.417468 1_555
Ca25 O6 2.523279 1_555
Ca25 O50 2.698035 1_545
Ca26 O15 2.261003 1_555
Ca26 O36 2.305675 1_555
Ca26 O7 2.385085 1_555
Ca26 O26 2.428514 1_555
Ca26 O70 2.431227 1_555
Ca26 O71 2.638368 1_555
Ca26 O66 2.651634 1_555
Ca27 O71 2.388597 1_555
Ca27 O63 2.410379 1_555
Ca27 O21 2.459600 1_555
Ca27 O27 2.478088 1_555
Ca27 O16 2.502925 1_555
Ca27 O37 2.516126 1_555
Ca28 O38 2.297941 1_555
Ca28 O17 2.333000 1_555
Ca28 O72 2.348972 1_555
Ca28 O22 2.648356 1_555
Ca28 O64 2.661373 1_655
Ca28 O32 2.679909 1_545
Ca28 O43 2.746133 1_555
Ca29 O39 2.259523 1_555
Ca29 O18 2.305228 1_555
Ca29 O73 2.379258 1_555
Ca29 O23 2.700157 1_555
Ca29 O65 2.769831 1_655
Ca29 O44 2.794015 1_555
Ca30 O19 2.336833 1_555
Ca30 O40 2.399122 1_555
Ca30 O74 2.423022 1_555
Ca30 O30 2.594855 1_555
Ca30 O45 2.604363 1_555
Ca30 O66 2.757466 1_655
Ca30 O11 2.857522 1_555
Ca30 O51 2.993433 1_555
Ca31 O75 2.342214 1_555
Ca31 O67 2.434356 1_555
Ca31 O20 2.456967 1_555
Ca31 O41 2.520755 1_555
Ca31 O31 2.736468 1_555
Ca31 O25 2.740044 1_555
Ca31 O46 2.764648 1_555
Ca31 O12 2.882023 1_555
Mn0 O46 1.951207 1_555
Mn0 O67 1.959536 1_555
Mn0 O48 1.967522 1_655
Mn0 O56 1.987771 1_655
Mn0 O31 2.090284 1_555
Mn0 O37 2.239525 1_655
Mn1 O38 1.974278 1_565
Mn1 O53 1.977994 1_555
Mn1 O61 2.040154 1_555
Mn1 O28 2.097000 1_565
Mn2 O39 1.966173 1_565
Mn2 O54 2.015269 1_555
Mn2 O62 2.027660 1_555
Mn2 O29 2.091048 1_565
Mn3 O26 1.909117 1_555
Mn3 O51 1.916675 1_555
Mn3 O40 1.921951 1_555
Mn3 O59 1.951692 1_555
Mn4 O63 1.920127 1_555
Mn4 O52 1.940100 1_555
Mn4 O60 1.961762 1_555
Mn4 O41 2.005746 1_555
Mn4 O27 2.019280 1_555
Mn4 O42 2.142749 1_555
Mn5 O27 1.939601 1_555
Mn5 O36 1.944517 1_555
Mn5 O71 1.950959 1_555
Mn5 O48 2.018279 1_555
Mn5 O76 2.238562 1_555
Mn6 O53 1.927375 1_546
Mn6 O83 1.953661 1_545
Mn6 O72 2.001959 1_556
Mn6 O44 2.034660 1_555
Mn6 O39 2.212590 1_555
Mn6 O32 2.343449 1_546
Mn7 O54 1.901114 1_555
Mn7 O82 1.982844 1_555
Mn7 O43 2.040020 1_565
Mn7 O73 2.080881 1_565
Mn7 O38 2.144700 1_565
Mn7 O33 2.266871 1_555
Mn8 O74 1.939379 1_555
Mn8 O81 1.986896 1_554
Mn8 O46 2.015454 1_554
Mn8 O51 2.027667 1_555
Mn8 O41 2.054178 1_554
Mn8 O30 2.083914 1_555
Mn9 O31 1.939869 1_555
Mn9 O80 1.985537 1_555
Mn9 O75 1.996782 1_555
Mn9 O52 2.028620 1_555
Mn9 O40 2.034581 1_555
Mn9 O45 2.319599 1_555
Mn10 O71 2.034933 1_555
Mn10 O21 2.049781 1_555
Mn10 O0 2.131983 1_555
Mn10 O15 2.152195 1_555
Mn10 O78 2.288666 1_555
Mn10 O7 2.428369 1_555
Mn11 O18 1.950353 1_554
Mn11 O81 1.956422 1_554
Mn11 O72 1.986752 1_555
Mn11 O22 2.085445 1_555
Mn11 O10 2.257880 1_554
Mn11 O1 2.289449 1_555
Mn12 O17 1.973737 1_555
Mn12 O80 1.978229 1_555
Mn12 O73 1.981113 1_555
Mn12 O2 2.208565 1_555
Mn12 O23 2.231526 1_555
Mn12 O9 2.276803 1_555
Mn13 O74 1.955118 1_556
Mn13 O83 2.053807 1_555
Mn13 O12 2.070230 1_555
Mn13 O20 2.094997 1_555
Mn13 O3 2.216978 1_556
Mn13 O24 2.226199 1_556
Mn14 O25 1.952137 1_555
Mn14 O4 1.955042 1_555
Mn14 O75 1.959450 1_555
Mn14 O19 1.961967 1_555
Mn14 O82 1.986664 1_555
Mn14 O11 2.149667 1_555
Mn15 O12 1.940776 1_455
Mn15 O67 2.000872 1_455
Mn15 O0 2.004408 1_555
Mn15 O25 2.089643 1_455
Mn15 O58 2.101415 1_555
Mn15 O16 2.190480 1_555
Mn16 O1 1.971892 1_555
Mn16 O17 2.015930 1_555
Mn16 O59 2.076330 1_555
Mn16 O5 2.104889 1_555
Mn17 O2 1.971031 1_555
Mn17 O18 2.016817 1_555
Mn17 O60 2.028945 1_555
Mn17 O6 2.075830 1_555
Mn18 O7 1.895164 1_555
Mn18 O3 1.931245 1_555
Mn18 O19 1.947325 1_555
Mn18 O61 1.982795 1_555
Mn19 O63 1.934437 1_555
Mn19 O21 1.942475 1_555
Mn19 O62 1.974557 1_555
Mn19 O20 2.001453 1_555
Mn19 O4 2.069670 1_555
Mn19 O8 2.265432 1_555
O5 Ti7 1.873176 1_555
O6 Ti6 1.872864 1_555
O8 Ti8 1.767067 1_555
O9 Ti9 1.776028 1_555
O10 Ti10 1.781293 1_555
O11 Ti11 1.797493 1_555
O13 Ti7 1.857487 1_555
O13 Ti9 2.021286 1_455
O14 Ti6 1.867775 1_555
O14 Ti10 2.031515 1_455
O15 Ti11 1.902164 1_455
O16 Ti8 1.766452 1_555
O22 Ti9 1.908770 1_555
O23 Ti10 1.871653 1_555
O24 Ti11 1.878711 1_555
O26 Ti5 2.070067 1_555
O28 Ti3 1.848711 1_545
O29 Ti4 1.895922 1_555
O30 Ti2 1.919710 1_655
O32 Ti0 1.820477 1_555
O33 Ti1 1.780845 1_555
O34 Ti4 1.857722 1_555
O34 Ti0 2.298207 1_445
O35 Ti3 1.798538 1_556
O36 Ti2 1.996720 1_555
O37 Ti5 1.851607 1_556
O42 Ti5 1.922942 1_556
O43 Ti0 1.863309 1_545
O44 Ti1 1.889273 1_545
O45 Ti2 1.852635 1_655
O47 Ti5 1.952966 1_555
O47 Ti2 2.266040 1_555
O49 Ti3 1.826233 1_555
O49 Ti0 2.277061 1_455
O50 Ti4 1.838243 1_565
O50 Ti1 2.166985 1_455
O55 Ti9 1.877545 1_455
O55 Ti2 1.960340 1_555
O56 Ti10 1.873824 1_455
O57 Ti0 1.873187 1_455
O57 Ti11 2.082005 1_455
O58 Ti1 1.855764 1_455
O64 Ti9 1.996947 1_455
O64 Ti0 2.078399 1_445
O65 Ti1 2.018242 1_445
O65 Ti10 2.135936 1_455
O66 Ti11 1.972656 1_455
O66 Ti2 2.003837 1_555
O68 Ti6 1.786882 1_554
O69 Ti7 1.814727 1_555
O69 Ti4 2.497848 1_555
O70 Ti8 1.860787 1_554
O70 Ti5 1.971065 1_555
O76 Ti7 1.832674 1_555
O77 Ti6 1.828156 1_555
O77 Ti5 2.640748 1_556
O78 Ti4 1.838888 1_565
O79 Ti3 1.897197 1_555
O79 Ti8 1.906452 1_554
