# generated using pymatgen
data_Ce2InCu2
_symmetry_space_group_name_H-M   'P 1'
_cell_length_a   7.65542300
_cell_length_b   7.65542300
_cell_length_c   3.79890000
_cell_angle_alpha   90.00000000
_cell_angle_beta   90.00000000
_cell_angle_gamma   90.00000000
_symmetry_Int_Tables_number   1
_chemical_formula_structural   Ce2InCu2
_chemical_formula_sum   'Ce4 In2 Cu4'
_cell_volume   222.63643892
_cell_formula_units_Z   2
loop_
 _symmetry_equiv_pos_site_id
 _symmetry_equiv_pos_as_xyz
  1  'x, y, z'
loop_
 _atom_site_type_symbol
 _atom_site_label
 _atom_site_symmetry_multiplicity
 _atom_site_fract_x
 _atom_site_fract_y
 _atom_site_fract_z
 _atom_site_occupancy
  Ce  Ce0  1  0.67885900  0.17885900  0.50000000  1
  Ce  Ce1  1  0.32114100  0.82114100  0.50000000  1
  Ce  Ce2  1  0.17885900  0.32114100  0.50000000  1
  Ce  Ce3  1  0.82114100  0.67885900  0.50000000  1
  In  In0  1  0.00000000  0.00000000  0.00000000  1
  In  In1  1  0.50000000  0.50000000  0.00000000  1
  Cu  Cu0  1  0.11771500  0.61771500  0.00000000  1
  Cu  Cu1  1  0.88228500  0.38228500  0.00000000  1
  Cu  Cu2  1  0.61771500  0.88228500  0.00000000  1
  Cu  Cu3  1  0.38228500  0.11771500  0.00000000  1
loop_
_geom_bond_atom_site_label_1
_geom_bond_atom_site_label_2
_geom_bond_distance
_geom_bond_site_symmetry_2
Ce0 Cu1 2.908325 1_556
Ce0 Cu1 2.908325 1_555
Ce0 Cu2 2.996953 1_546
Ce0 Cu2 2.996953 1_545
Ce0 Cu3 2.996953 1_556
Ce0 Cu3 2.996953 1_555
Ce0 In1 3.395115 1_555
Ce0 In1 3.395115 1_556
Ce0 In0 3.395115 1_655
Ce0 In0 3.395115 1_656
Ce1 Cu0 2.908325 1_555
Ce1 Cu0 2.908325 1_556
Ce1 Cu2 2.996953 1_555
Ce1 Cu3 2.996953 1_565
Ce1 Cu3 2.996953 1_566
Ce1 Cu2 2.996953 1_556
Ce1 In1 3.395115 1_555
Ce1 In1 3.395115 1_556
Ce1 In0 3.395115 1_566
Ce1 In0 3.395115 1_565
Ce2 Cu3 2.908325 1_555
Ce2 Cu3 2.908325 1_556
Ce2 Cu1 2.996953 1_456
Ce2 Cu1 2.996953 1_455
Ce2 Cu0 2.996953 1_556
Ce2 Cu0 2.996953 1_555
Ce2 In0 3.395115 1_555
Ce2 In0 3.395115 1_556
Ce2 In1 3.395115 1_556
Ce2 In1 3.395115 1_555
Ce3 Cu2 2.908325 1_556
Ce3 Cu2 2.908325 1_555
Ce3 Cu0 2.996953 1_656
Ce3 Cu1 2.996953 1_555
Ce3 Cu1 2.996953 1_556
Ce3 Cu0 2.996953 1_655
Ce3 In0 3.395115 1_666
Ce3 In0 3.395115 1_665
Ce3 In1 3.395115 1_556
Ce3 In1 3.395115 1_555
Cu0 Cu1 2.548860 1_455
Cu0 In1 3.062156 1_555
Cu0 In0 3.062156 1_565
Cu1 In1 3.062156 1_555
Cu1 In0 3.062156 1_655
Cu2 Cu3 2.548860 1_565
Cu2 In1 3.062156 1_555
Cu2 In0 3.062156 1_665
Cu3 In1 3.062156 1_555
Cu3 In0 3.062156 1_555
