# generated using pymatgen
data_CsTi3P5O19
_symmetry_space_group_name_H-M   'P 1'
_cell_length_a   10.12597824
_cell_length_b   10.12597824
_cell_length_c   8.91855016
_cell_angle_alpha   84.25067936
_cell_angle_beta   84.25067936
_cell_angle_gamma   112.76860912
_symmetry_Int_Tables_number   1
_chemical_formula_structural   CsTi3P5O19
_chemical_formula_sum   'Cs2 Ti6 P10 O38'
_cell_volume   829.28876179
_cell_formula_units_Z   2
loop_
 _symmetry_equiv_pos_site_id
 _symmetry_equiv_pos_as_xyz
  1  'x, y, z'
loop_
 _atom_site_type_symbol
 _atom_site_label
 _atom_site_symmetry_multiplicity
 _atom_site_fract_x
 _atom_site_fract_y
 _atom_site_fract_z
 _atom_site_occupancy
  Cs  Cs0  1  0.92551700  0.06248100  0.16047600  1
  Cs  Cs1  1  0.06248100  0.92551700  0.66047600  1
  Ti  Ti0  1  0.75011200  0.52975700  0.50906200  1
  Ti  Ti1  1  0.46866000  0.24885500  0.99031100  1
  Ti  Ti2  1  0.24885500  0.46866000  0.49031100  1
  Ti  Ti3  1  0.52975700  0.75011200  0.00906200  1
  Ti  Ti4  1  0.50264000  0.00062100  0.49864700  1
  Ti  Ti5  1  0.00062100  0.50264000  0.99864700  1
  P  P0  1  0.70305600  0.29717700  0.24936300  1
  P  P1  1  0.29717700  0.70305600  0.74936300  1
  P  P2  1  0.08136200  0.66514900  0.31523600  1
  P  P3  1  0.33493700  0.91883300  0.18480500  1
  P  P4  1  0.91883300  0.33493700  0.68480500  1
  P  P5  1  0.66514900  0.08136200  0.81523600  1
  P  P6  1  0.58456400  0.73026900  0.37190500  1
  P  P7  1  0.26899600  0.41529700  0.12844600  1
  P  P8  1  0.41529700  0.26899600  0.62844600  1
  P  P9  1  0.73026900  0.58456400  0.87190500  1
  O  O0  1  0.18514100  0.61653900  0.39074500  1
  O  O1  1  0.38389700  0.81508600  0.10945200  1
  O  O2  1  0.81508600  0.38389700  0.60945200  1
  O  O3  1  0.61653900  0.18514100  0.89074500  1
  O  O4  1  0.67189000  0.15777100  0.36425600  1
  O  O5  1  0.84175000  0.32706100  0.13494200  1
  O  O6  1  0.32706100  0.84175000  0.63494200  1
  O  O7  1  0.15777100  0.67189000  0.86425600  1
  O  O8  1  0.70697700  0.68899800  0.42291500  1
  O  O9  1  0.31050900  0.29302200  0.07759900  1
  O  O10  1  0.29302200  0.31050900  0.57759900  1
  O  O11  1  0.68899800  0.70697700  0.92291500  1
  O  O12  1  0.58047200  0.85562400  0.45643500  1
  O  O13  1  0.14359300  0.41856400  0.04384000  1
  O  O14  1  0.41856400  0.14359300  0.54384000  1
  O  O15  1  0.85562400  0.58047200  0.95643500  1
  O  O16  1  0.16337000  0.83685300  0.25028900  1
  O  O17  1  0.83685300  0.16337000  0.75028900  1
  O  O18  1  0.03377000  0.59554400  0.17511800  1
  O  O19  1  0.40381000  0.96555700  0.32585000  1
  O  O20  1  0.96555700  0.40381000  0.82585000  1
  O  O21  1  0.59554400  0.03377000  0.67511800  1
  O  O22  1  0.72924200  0.42990000  0.33352800  1
  O  O23  1  0.57006400  0.27148600  0.16640900  1
  O  O24  1  0.27148600  0.57006400  0.66640900  1
  O  O25  1  0.42990000  0.72924200  0.83352800  1
  O  O26  1  0.95510200  0.65893700  0.42812000  1
  O  O27  1  0.34279900  0.04602200  0.07303600  1
  O  O28  1  0.04602200  0.34279900  0.57303600  1
  O  O29  1  0.65893700  0.95510200  0.92812000  1
  O  O30  1  0.44185800  0.59403600  0.40885500  1
  O  O31  1  0.40586000  0.55821400  0.09070600  1
  O  O32  1  0.55821400  0.40586000  0.59070600  1
  O  O33  1  0.59403600  0.44185800  0.90885500  1
  O  O34  1  0.78286400  0.62105300  0.69846400  1
  O  O35  1  0.38030200  0.21838000  0.80189000  1
  O  O36  1  0.21838000  0.38030200  0.30189000  1
  O  O37  1  0.62105300  0.78286400  0.19846400  1
loop_
_geom_bond_atom_site_label_1
_geom_bond_atom_site_label_2
_geom_bond_distance
_geom_bond_site_symmetry_2
Cs0 O5 3.102340 1_555
Cs0 O37 3.237038 1_545
Cs0 O13 3.403638 1_655
Cs0 O29 3.473275 1_544
Cs0 O4 3.487708 1_555
Cs0 O9 3.636832 1_655
Cs1 O6 3.102340 1_555
Cs1 O34 3.237038 1_455
Cs1 O14 3.403638 1_565
Cs1 O26 3.473275 1_455
Cs1 O7 3.487708 1_555
Cs1 O10 3.636832 1_565
O0 P2 1.508593 1_555
O0 Ti2 2.010763 1_555
O1 P3 1.509597 1_555
O1 Ti3 2.005285 1_555
O2 P4 1.509597 1_555
O2 Ti0 2.005285 1_555
O3 P5 1.508593 1_555
O3 Ti1 2.010763 1_555
O4 P0 1.562956 1_555
O4 Ti4 2.000349 1_555
O5 P0 1.557996 1_555
O5 Ti5 2.046441 1_654
O6 P1 1.557996 1_555
O6 Ti4 2.046441 1_565
O7 P1 1.562956 1_555
O7 Ti5 2.000349 1_555
O8 P6 1.547240 1_555
O8 Ti0 1.935279 1_555
O9 P7 1.546780 1_555
O9 Ti1 1.935197 1_554
O10 P8 1.546780 1_555
O10 Ti2 1.935197 1_555
O11 P9 1.547240 1_555
O11 Ti3 1.935279 1_556
O12 P6 1.551601 1_555
O12 Ti4 1.966100 1_565
O13 P7 1.549970 1_555
O13 Ti5 1.996332 1_554
O14 P8 1.549970 1_555
O14 Ti4 1.996332 1_555
O15 P9 1.551601 1_555
O15 Ti5 1.966100 1_655
O16 P3 1.622241 1_555
O16 P2 1.622463 1_555
O17 P4 1.622241 1_555
O17 P5 1.622463 1_555
O18 P2 1.524747 1_555
O18 Ti5 1.905989 1_554
O19 P3 1.527150 1_555
O19 Ti4 1.909489 1_565
O20 P4 1.527150 1_555
O20 Ti5 1.909489 1_655
O21 P5 1.524747 1_555
O21 Ti4 1.905989 1_555
O22 P0 1.551168 1_555
O22 Ti0 1.932858 1_555
O23 P0 1.547761 1_555
O23 Ti1 1.945901 1_554
O24 P1 1.547761 1_555
O24 Ti2 1.945901 1_555
O25 P1 1.551168 1_555
O25 Ti3 1.932858 1_556
O26 P2 1.522919 1_655
O26 Ti0 1.987406 1_555
O27 P3 1.518627 1_545
O27 Ti1 1.966967 1_554
O28 P4 1.518627 1_455
O28 Ti2 1.966967 1_555
O29 P5 1.522919 1_565
O29 Ti3 1.987406 1_556
O30 P6 1.539576 1_555
O30 Ti2 1.889256 1_555
O31 P7 1.544292 1_555
O31 Ti3 1.877917 1_555
O32 P8 1.544292 1_555
O32 Ti0 1.877917 1_555
O33 P9 1.539576 1_555
O33 Ti1 1.889256 1_555
O34 P9 1.543051 1_555
O34 Ti0 2.001445 1_555
O35 P8 1.540072 1_555
O35 Ti1 1.977636 1_555
O36 P7 1.540072 1_555
O36 Ti2 1.977636 1_555
O37 P6 1.543051 1_555
O37 Ti3 2.001445 1_555
