# generated using pymatgen
data_Ca2Co12P7
_symmetry_space_group_name_H-M   'P 1'
_cell_length_a   9.03137956
_cell_length_b   9.03137956
_cell_length_c   3.56186100
_cell_angle_alpha   90.00000000
_cell_angle_beta   90.00000000
_cell_angle_gamma   119.99999676
_symmetry_Int_Tables_number   1
_chemical_formula_structural   Ca2Co12P7
_chemical_formula_sum   'Ca2 Co12 P7'
_cell_volume   251.60299255
_cell_formula_units_Z   1
loop_
 _symmetry_equiv_pos_site_id
 _symmetry_equiv_pos_as_xyz
  1  'x, y, z'
loop_
 _atom_site_type_symbol
 _atom_site_label
 _atom_site_symmetry_multiplicity
 _atom_site_fract_x
 _atom_site_fract_y
 _atom_site_fract_z
 _atom_site_occupancy
  Ca  Ca0  1  0.66666700  0.33333300  0.50000000  1
  Ca  Ca1  1  0.33333300  0.66666700  0.00000000  1
  Co  Co0  1  0.38250100  0.43441700  0.50000000  1
  Co  Co1  1  0.05191600  0.61749900  0.50000000  1
  Co  Co2  1  0.23490000  0.10309500  0.50000000  1
  Co  Co3  1  0.86819500  0.76510000  0.50000000  1
  Co  Co4  1  0.89690500  0.13180500  0.50000000  1
  Co  Co5  1  0.72819400  0.88055000  0.00000000  1
  Co  Co6  1  0.11945000  0.84764400  0.00000000  1
  Co  Co7  1  0.15235600  0.27180600  0.00000000  1
  Co  Co8  1  0.94183200  0.37636900  0.00000000  1
  Co  Co9  1  0.62363100  0.56546300  0.00000000  1
  Co  Co10  1  0.43453700  0.05816800  0.00000000  1
  Co  Co11  1  0.56558300  0.94808400  0.50000000  1
  P  P0  1  0.00000000  0.00000000  0.00000000  1
  P  P1  1  0.40457900  0.29202200  0.00000000  1
  P  P2  1  0.59871000  0.70840100  0.50000000  1
  P  P3  1  0.29159900  0.89030900  0.50000000  1
  P  P4  1  0.10969100  0.40129000  0.50000000  1
  P  P5  1  0.70797800  0.11255800  0.00000000  1
  P  P6  1  0.88744200  0.59542100  0.00000000  1
loop_
_geom_bond_atom_site_label_1
_geom_bond_atom_site_label_2
_geom_bond_distance
_geom_bond_site_symmetry_2
Ca0 P5 2.833810 1_556
Ca0 P5 2.833810 1_555
Ca0 P6 2.833819 1_555
Ca0 P6 2.833819 1_556
Ca0 P1 2.833824 1_555
Ca0 P1 2.833824 1_556
Ca0 Co8 2.921078 1_555
Ca0 Co8 2.921078 1_556
Ca0 Co10 2.921081 1_556
Ca0 Co10 2.921081 1_555
Ca0 Co9 2.921085 1_555
Ca0 Co9 2.921085 1_556
Ca1 P3 2.855634 1_554
Ca1 P3 2.855634 1_555
Ca1 P4 2.855639 1_555
Ca1 P4 2.855639 1_554
Ca1 P2 2.855641 1_555
Ca1 P2 2.855641 1_554
Ca1 Co1 2.949567 1_554
Ca1 Co1 2.949567 1_555
Ca1 Co11 2.949569 1_555
Ca1 Co11 2.949569 1_554
Ca1 Co0 2.949574 1_554
Ca1 Co0 2.949574 1_555
Ca1 Co6 3.091932 1_555
Ca1 Co5 3.091940 1_555
Ca1 Co7 3.091940 1_555
Ca1 Co10 3.178915 1_565
Ca1 Co8 3.178918 1_455
Ca1 Co9 3.178924 1_555
Co0 P2 2.259213 1_555
Co0 P1 2.263129 1_556
Co0 P1 2.263129 1_555
Co0 P4 2.328718 1_555
Co1 P4 2.259213 1_555
Co1 P6 2.263135 1_455
Co1 P6 2.263135 1_456
Co1 P3 2.328718 1_555
Co2 P3 2.222479 1_545
Co2 P1 2.411780 1_555
Co2 P1 2.411780 1_556
Co2 P0 2.562031 1_556
Co2 P0 2.562031 1_555
Co3 P2 2.222479 1_555
Co3 P6 2.411777 1_555
Co3 P6 2.411777 1_556
Co3 P0 2.562031 1_665
Co3 P0 2.562031 1_666
Co4 P4 2.222480 1_655
Co4 P5 2.411783 1_556
Co4 P5 2.411783 1_555
Co4 P0 2.562031 1_655
Co4 P0 2.562031 1_656
Co5 P0 2.131091 1_665
Co5 P5 2.192351 1_565
Co5 P2 2.266789 1_554
Co5 P2 2.266789 1_555
Co6 P0 2.131091 1_565
Co6 P6 2.192346 1_455
Co6 P3 2.266789 1_555
Co6 P3 2.266789 1_554
Co7 P0 2.131091 1_555
Co7 P1 2.192342 1_555
Co7 P4 2.266789 1_554
Co7 P4 2.266789 1_555
Co8 P5 2.259482 1_555
Co8 P6 2.264271 1_555
Co8 P4 2.275833 1_654
Co8 P4 2.275833 1_655
Co9 P6 2.259479 1_555
Co9 P1 2.264266 1_555
Co9 P2 2.275833 1_554
Co9 P2 2.275833 1_555
Co10 P1 2.259488 1_555
Co10 P5 2.264262 1_555
Co10 P3 2.275833 1_544
Co10 P3 2.275833 1_545
Co11 P3 2.259213 1_555
Co11 P5 2.263133 1_565
Co11 P5 2.263133 1_566
Co11 P2 2.328718 1_555
