# generated using pymatgen
data_LaY
_symmetry_space_group_name_H-M   'P 1'
_cell_length_a   7.41912491
_cell_length_b   7.41912491
_cell_length_c   23.82066946
_cell_angle_alpha   90.00000000
_cell_angle_beta   90.00000000
_cell_angle_gamma   119.99999920
_symmetry_Int_Tables_number   1
_chemical_formula_structural   LaY
_chemical_formula_sum   'La16 Y16'
_cell_volume   1135.50738753
_cell_formula_units_Z   16
loop_
 _symmetry_equiv_pos_site_id
 _symmetry_equiv_pos_as_xyz
  1  'x, y, z'
loop_
 _atom_site_type_symbol
 _atom_site_label
 _atom_site_symmetry_multiplicity
 _atom_site_fract_x
 _atom_site_fract_y
 _atom_site_fract_z
 _atom_site_occupancy
  La  La0_0  1  0.16666650  0.33333350  0.37500000  1
  La  La0_1  1  0.16666650  0.33333350  0.87500000  1
  La  La0_2  1  0.16666650  0.83333350  0.37500000  1
  La  La0_3  1  0.16666650  0.83333350  0.87500000  1
  La  La0_4  1  0.66666650  0.33333350  0.37500000  1
  La  La0_5  1  0.66666650  0.33333350  0.87500000  1
  La  La0_6  1  0.66666650  0.83333350  0.37500000  1
  La  La0_7  1  0.66666650  0.83333350  0.87500000  1
  La  La1_0  1  0.33333350  0.16666650  0.12500000  1
  La  La1_1  1  0.33333350  0.16666650  0.62500000  1
  La  La1_2  1  0.33333350  0.66666650  0.12500000  1
  La  La1_3  1  0.33333350  0.66666650  0.62500000  1
  La  La1_4  1  0.83333350  0.16666650  0.12500000  1
  La  La1_5  1  0.83333350  0.16666650  0.62500000  1
  La  La1_6  1  0.83333350  0.66666650  0.12500000  1
  La  La1_7  1  0.83333350  0.66666650  0.62500000  1
  Y  Y0_0  1  0.00000000  0.00000000  0.00000000  1
  Y  Y0_1  1  0.00000000  0.00000000  0.50000000  1
  Y  Y0_2  1  0.00000000  0.50000000  0.00000000  1
  Y  Y0_3  1  0.00000000  0.50000000  0.50000000  1
  Y  Y0_4  1  0.50000000  0.00000000  0.00000000  1
  Y  Y0_5  1  0.50000000  0.00000000  0.50000000  1
  Y  Y0_6  1  0.50000000  0.50000000  0.00000000  1
  Y  Y0_7  1  0.50000000  0.50000000  0.50000000  1
  Y  Y1_0  1  0.00000000  0.00000000  0.25000000  1
  Y  Y1_1  1  0.00000000  0.00000000  0.75000000  1
  Y  Y1_2  1  0.00000000  0.50000000  0.25000000  1
  Y  Y1_3  1  0.00000000  0.50000000  0.75000000  1
  Y  Y1_4  1  0.50000000  0.00000000  0.25000000  1
  Y  Y1_5  1  0.50000000  0.00000000  0.75000000  1
  Y  Y1_6  1  0.50000000  0.50000000  0.25000000  1
  Y  Y1_7  1  0.50000000  0.50000000  0.75000000  1
loop_
_geom_bond_atom_site_label_1
_geom_bond_atom_site_label_2
_geom_bond_distance
_geom_bond_site_symmetry_2
La0_0 Y1_2 3.667826 1_555
La0_0 Y0_3 3.667826 1_555
La0_0 Y1_6 3.667828 1_555
La0_0 Y0_7 3.667828 1_555
La0_0 Y0_1 3.667828 1_555
La0_0 Y1_0 3.667828 1_555
La0_0 La0_4 3.709562 1_455
La0_0 La0_2 3.709562 1_555
La0_0 La0_2 3.709562 1_545
La0_0 La0_4 3.709562 1_555
La0_0 La0_6 3.709562 1_445
La0_0 La0_6 3.709563 1_555
La0_1 Y0_2 3.667826 1_556
La0_1 Y1_3 3.667826 1_555
La0_1 Y1_7 3.667828 1_555
La0_1 Y1_1 3.667828 1_555
La0_1 Y0_6 3.667828 1_556
La0_1 Y0_0 3.667828 1_556
La0_1 La0_3 3.709562 1_555
La0_1 La0_5 3.709562 1_455
La0_1 La0_5 3.709562 1_555
La0_1 La0_3 3.709562 1_545
La0_1 La0_7 3.709562 1_445
La0_1 La0_7 3.709563 1_555
La0_2 Y0_1 3.667826 1_565
La0_2 Y1_0 3.667826 1_565
La0_2 Y1_2 3.667828 1_555
La0_2 Y0_3 3.667828 1_555
La0_2 Y1_4 3.667828 1_565
La0_2 Y0_5 3.667828 1_565
La0_2 La0_6 3.709562 1_455
La0_2 La0_6 3.709562 1_555
La0_2 La0_4 3.709562 1_455
La0_2 La0_4 3.709563 1_565
La0_3 Y1_1 3.667826 1_565
La0_3 Y0_0 3.667826 1_566
La0_3 Y0_2 3.667828 1_556
La0_3 Y1_3 3.667828 1_555
La0_3 Y0_4 3.667828 1_566
La0_3 Y1_5 3.667828 1_565
La0_3 La0_7 3.709562 1_455
La0_3 La0_7 3.709562 1_555
La0_3 La0_5 3.709562 1_455
La0_3 La0_5 3.709563 1_565
La0_4 Y1_6 3.667826 1_555
La0_4 Y0_7 3.667826 1_555
La0_4 Y1_2 3.667828 1_655
La0_4 Y0_3 3.667828 1_655
La0_4 Y0_5 3.667828 1_555
La0_4 Y1_4 3.667828 1_555
La0_4 La0_6 3.709562 1_555
La0_4 La0_6 3.709562 1_545
La0_5 Y0_6 3.667826 1_556
La0_5 Y1_7 3.667826 1_555
La0_5 Y1_3 3.667828 1_655
La0_5 Y0_2 3.667828 1_656
La0_5 Y0_4 3.667828 1_556
La0_5 Y1_5 3.667828 1_555
La0_5 La0_7 3.709562 1_555
La0_5 La0_7 3.709562 1_545
La0_6 Y0_5 3.667826 1_565
La0_6 Y1_4 3.667826 1_565
La0_6 Y1_6 3.667828 1_555
La0_6 Y0_7 3.667828 1_555
La0_6 Y1_0 3.667828 1_665
La0_6 Y0_1 3.667828 1_665
La0_7 Y0_4 3.667826 1_566
La0_7 Y1_5 3.667826 1_565
La0_7 Y0_0 3.667828 1_666
La0_7 Y1_1 3.667828 1_665
La0_7 Y0_6 3.667828 1_556
La0_7 Y1_7 3.667828 1_555
La1_0 Y0_4 3.667826 1_555
La1_0 Y1_4 3.667826 1_555
La1_0 Y0_6 3.667828 1_555
La1_0 Y1_6 3.667828 1_555
La1_0 Y0_0 3.667828 1_555
La1_0 Y1_0 3.667828 1_555
La1_0 La1_2 3.709562 1_545
La1_0 La1_4 3.709562 1_555
La1_0 La1_2 3.709562 1_555
La1_0 La1_4 3.709562 1_455
La1_0 La1_6 3.709562 1_555
La1_0 La1_6 3.709563 1_445
La1_1 Y1_5 3.667826 1_555
La1_1 Y0_5 3.667826 1_555
La1_1 Y1_7 3.667828 1_555
La1_1 Y1_1 3.667828 1_555
La1_1 Y0_7 3.667828 1_555
La1_1 Y0_1 3.667828 1_555
La1_1 La1_5 3.709562 1_555
La1_1 La1_3 3.709562 1_545
La1_1 La1_5 3.709562 1_455
La1_1 La1_3 3.709562 1_555
La1_1 La1_7 3.709562 1_555
La1_1 La1_7 3.709563 1_445
La1_2 Y1_6 3.667826 1_555
La1_2 Y0_6 3.667826 1_555
La1_2 Y1_4 3.667828 1_565
La1_2 Y0_4 3.667828 1_565
La1_2 Y1_2 3.667828 1_555
La1_2 Y0_2 3.667828 1_555
La1_2 La1_6 3.709562 1_555
La1_2 La1_6 3.709562 1_455
La1_2 La1_4 3.709562 1_565
La1_2 La1_4 3.709563 1_455
La1_3 Y0_7 3.667826 1_555
La1_3 Y1_7 3.667826 1_555
La1_3 Y0_5 3.667828 1_565
La1_3 Y1_5 3.667828 1_565
La1_3 Y0_3 3.667828 1_555
La1_3 Y1_3 3.667828 1_555
La1_3 La1_7 3.709562 1_555
La1_3 La1_7 3.709562 1_455
La1_3 La1_5 3.709562 1_565
La1_3 La1_5 3.709563 1_455
La1_4 Y1_0 3.667826 1_655
La1_4 Y0_0 3.667826 1_655
La1_4 Y0_4 3.667828 1_555
La1_4 Y1_4 3.667828 1_555
La1_4 Y0_2 3.667828 1_655
La1_4 Y1_2 3.667828 1_655
La1_4 La1_6 3.709562 1_545
La1_4 La1_6 3.709562 1_555
La1_5 Y1_1 3.667826 1_655
La1_5 Y0_1 3.667826 1_655
La1_5 Y1_5 3.667828 1_555
La1_5 Y0_5 3.667828 1_555
La1_5 Y1_3 3.667828 1_655
La1_5 Y0_3 3.667828 1_655
La1_5 La1_7 3.709562 1_545
La1_5 La1_7 3.709562 1_555
La1_6 Y1_2 3.667826 1_655
La1_6 Y0_2 3.667826 1_655
La1_6 Y1_6 3.667828 1_555
La1_6 Y0_0 3.667828 1_665
La1_6 Y1_0 3.667828 1_665
La1_6 Y0_6 3.667828 1_555
La1_7 Y1_3 3.667826 1_655
La1_7 Y0_3 3.667826 1_655
La1_7 Y0_7 3.667828 1_555
La1_7 Y1_1 3.667828 1_665
La1_7 Y1_7 3.667828 1_555
La1_7 Y0_1 3.667828 1_665
Y0_0 Y0_2 3.709562 1_545
Y0_0 Y0_2 3.709562 1_555
Y0_0 Y0_4 3.709562 1_455
Y0_0 Y0_4 3.709562 1_555
Y0_0 Y0_6 3.709563 1_555
Y0_0 Y0_6 3.709563 1_445
Y0_1 Y0_5 3.709562 1_555
Y0_1 Y0_3 3.709562 1_555
Y0_1 Y0_5 3.709562 1_455
Y0_1 Y0_3 3.709562 1_545
Y0_1 Y0_7 3.709563 1_445
Y0_1 Y0_7 3.709563 1_555
Y0_2 Y0_6 3.709562 1_555
Y0_2 Y0_6 3.709562 1_455
Y0_2 Y0_4 3.709563 1_455
Y0_2 Y0_4 3.709563 1_565
Y0_3 Y0_7 3.709562 1_455
Y0_3 Y0_7 3.709562 1_555
Y0_3 Y0_5 3.709563 1_455
Y0_3 Y0_5 3.709563 1_565
Y0_4 Y0_6 3.709562 1_555
Y0_4 Y0_6 3.709562 1_545
Y0_5 Y0_7 3.709562 1_545
Y0_5 Y0_7 3.709562 1_555
Y1_0 Y1_4 3.709562 1_555
Y1_0 Y1_2 3.709562 1_555
Y1_0 Y1_2 3.709562 1_545
Y1_0 Y1_4 3.709562 1_455
Y1_0 Y1_6 3.709563 1_555
Y1_0 Y1_6 3.709563 1_445
Y1_1 Y1_3 3.709562 1_555
Y1_1 Y1_3 3.709562 1_545
Y1_1 Y1_5 3.709562 1_555
Y1_1 Y1_5 3.709562 1_455
Y1_1 Y1_7 3.709563 1_445
Y1_1 Y1_7 3.709563 1_555
Y1_2 Y1_6 3.709562 1_455
Y1_2 Y1_6 3.709562 1_555
Y1_2 Y1_4 3.709563 1_455
Y1_2 Y1_4 3.709563 1_565
Y1_3 Y1_7 3.709562 1_555
Y1_3 Y1_7 3.709562 1_455
Y1_3 Y1_5 3.709563 1_565
Y1_3 Y1_5 3.709563 1_455
Y1_4 Y1_6 3.709562 1_545
Y1_4 Y1_6 3.709562 1_555
Y1_5 Y1_7 3.709562 1_545
Y1_5 Y1_7 3.709562 1_555
