# generated using pymatgen
data_Rb3Bi2Br9
_symmetry_space_group_name_H-M   'P 1'
_cell_length_a   8.25531125
_cell_length_b   13.49262943
_cell_length_c   19.28297676
_cell_angle_alpha   89.09655089
_cell_angle_beta   90.00000000
_cell_angle_gamma   90.00000000
_symmetry_Int_Tables_number   1
_chemical_formula_structural   Rb3Bi2Br9
_chemical_formula_sum   'Rb12 Bi8 Br36'
_cell_volume   2147.58385398
_cell_formula_units_Z   4
loop_
 _symmetry_equiv_pos_site_id
 _symmetry_equiv_pos_as_xyz
  1  'x, y, z'
loop_
 _atom_site_type_symbol
 _atom_site_label
 _atom_site_symmetry_multiplicity
 _atom_site_fract_x
 _atom_site_fract_y
 _atom_site_fract_z
 _atom_site_occupancy
  Rb  Rb0  1  0.56704618  0.49314898  0.24035859  1
  Rb  Rb1  1  0.06704618  0.00685102  0.75964141  1
  Rb  Rb2  1  0.43295382  0.50685102  0.75964141  1
  Rb  Rb3  1  0.93295382  0.99314898  0.24035859  1
  Rb  Rb4  1  0.42080111  0.15445074  0.08042036  1
  Rb  Rb5  1  0.92080111  0.34554926  0.91957964  1
  Rb  Rb6  1  0.57919889  0.84554926  0.91957964  1
  Rb  Rb7  1  0.07919889  0.65445074  0.08042036  1
  Rb  Rb8  1  0.58475729  0.18491090  0.56592151  1
  Rb  Rb9  1  0.08475729  0.31508910  0.43407849  1
  Rb  Rb10  1  0.41524271  0.81508910  0.43407849  1
  Rb  Rb11  1  0.91524271  0.68491090  0.56592151  1
  Bi  Bi0  1  0.48986273  0.83875935  0.66084558  1
  Bi  Bi1  1  0.98986273  0.66124065  0.33915442  1
  Bi  Bi2  1  0.51013727  0.16124065  0.33915442  1
  Bi  Bi3  1  0.01013727  0.33875935  0.66084558  1
  Bi  Bi4  1  0.49627341  0.82600450  0.16170530  1
  Bi  Bi5  1  0.99627341  0.67399550  0.83829470  1
  Bi  Bi6  1  0.50372659  0.17399550  0.83829470  1
  Bi  Bi7  1  0.00372659  0.32600450  0.16170530  1
  Br  Br0  1  0.47352802  0.04794342  0.71259788  1
  Br  Br1  1  0.97352802  0.45205658  0.28740212  1
  Br  Br2  1  0.52647198  0.95205658  0.28740212  1
  Br  Br3  1  0.02647198  0.54794342  0.71259788  1
  Br  Br4  1  0.30719928  0.77292625  0.78852615  1
  Br  Br5  1  0.80719928  0.72707375  0.21147385  1
  Br  Br6  1  0.69280072  0.22707375  0.21147385  1
  Br  Br7  1  0.19280072  0.27292625  0.78852615  1
  Br  Br8  1  0.20570819  0.18828594  0.25121018  1
  Br  Br9  1  0.70570819  0.31171406  0.74878982  1
  Br  Br10  1  0.79429181  0.81171406  0.74878982  1
  Br  Br11  1  0.29429181  0.68828594  0.25121018  1
  Br  Br12  1  0.50545090  0.31364162  0.94047036  1
  Br  Br13  1  0.00545090  0.18635838  0.05952964  1
  Br  Br14  1  0.49454910  0.68635838  0.05952964  1
  Br  Br15  1  0.99454910  0.81364162  0.94047036  1
  Br  Br16  1  0.49325150  0.34947335  0.39102440  1
  Br  Br17  1  0.99325150  0.15052665  0.60897560  1
  Br  Br18  1  0.50674850  0.65052665  0.60897560  1
  Br  Br19  1  0.00674850  0.84947335  0.39102440  1
  Br  Br20  1  0.71849139  0.58380244  0.88622716  1
  Br  Br21  1  0.21849139  0.91619756  0.11377284  1
  Br  Br22  1  0.28150861  0.41619756  0.11377284  1
  Br  Br23  1  0.78150861  0.08380244  0.88622716  1
  Br  Br24  1  0.80911567  0.45386171  0.08586789  1
  Br  Br25  1  0.30911567  0.04613829  0.91413211  1
  Br  Br26  1  0.19088433  0.54613829  0.91413211  1
  Br  Br27  1  0.69088433  0.95386171  0.08586789  1
  Br  Br28  1  0.70384425  0.62299059  0.40662085  1
  Br  Br29  1  0.20384425  0.87700941  0.59337915  1
  Br  Br30  1  0.29615575  0.37700941  0.59337915  1
  Br  Br31  1  0.79615575  0.12299059  0.40662085  1
  Br  Br32  1  0.81698831  0.41140589  0.55498495  1
  Br  Br33  1  0.31698831  0.08859411  0.44501505  1
  Br  Br34  1  0.18301169  0.58859411  0.44501505  1
  Br  Br35  1  0.68301169  0.91140589  0.55498495  1
loop_
_geom_bond_atom_site_label_1
_geom_bond_atom_site_label_2
_geom_bond_distance
_geom_bond_site_symmetry_2
Bi0 Br29 2.740947 1_555
Bi0 Br18 2.747782 1_555
Bi0 Br35 2.758091 1_555
Bi0 Br4 3.009266 1_555
Bi0 Br0 3.011490 1_565
Bi0 Br10 3.050481 1_555
Bi1 Br28 2.740947 1_555
Bi1 Br19 2.747782 1_655
Bi1 Br34 2.758091 1_655
Bi1 Br5 3.009266 1_555
Bi1 Br1 3.011490 1_555
Bi1 Br11 3.050481 1_655
Bi2 Br31 2.740947 1_555
Bi2 Br16 2.747782 1_555
Bi2 Br33 2.758091 1_555
Bi2 Br6 3.009266 1_555
Bi2 Br2 3.011490 1_545
Bi2 Br8 3.050481 1_555
Bi3 Br30 2.740947 1_555
Bi3 Br17 2.747782 1_455
Bi3 Br32 2.758091 1_455
Bi3 Br7 3.009266 1_555
Bi3 Br3 3.011490 1_555
Bi3 Br9 3.050481 1_455
Bi4 Br14 2.747607 1_555
Bi4 Br21 2.749260 1_555
Bi4 Br27 2.759733 1_555
Bi4 Br2 2.993264 1_555
Bi4 Br11 3.018412 1_555
Bi4 Br5 3.041512 1_555
Bi5 Br15 2.747607 1_555
Bi5 Br20 2.749260 1_555
Bi5 Br26 2.759733 1_655
Bi5 Br3 2.993264 1_655
Bi5 Br10 3.018412 1_555
Bi5 Br4 3.041512 1_655
Bi6 Br12 2.747607 1_555
Bi6 Br23 2.749260 1_555
Bi6 Br25 2.759733 1_555
Bi6 Br0 2.993264 1_555
Bi6 Br9 3.018412 1_555
Bi6 Br7 3.041512 1_555
Bi7 Br13 2.747607 1_555
Bi7 Br22 2.749260 1_555
Bi7 Br24 2.759733 1_455
Bi7 Br1 2.993264 1_455
Bi7 Br8 3.018412 1_555
Bi7 Br6 3.041512 1_455
Br0 Rb8 3.477530 1_555
Br0 Rb1 3.517773 1_555
Br1 Rb9 3.477530 1_655
Br1 Rb0 3.517773 1_555
Br2 Rb10 3.477530 1_555
Br2 Rb3 3.517773 1_555
Br3 Rb11 3.477530 1_455
Br3 Rb2 3.517773 1_555
Br4 Rb6 3.530792 1_555
Br4 Rb1 3.761280 1_565
Br4 Rb2 3.786756 1_555
Br5 Rb7 3.530792 1_655
Br5 Rb0 3.761280 1_555
Br5 Rb3 3.786756 1_555
Br6 Rb4 3.530792 1_555
Br6 Rb3 3.761280 1_545
Br6 Rb0 3.786756 1_555
Br7 Rb5 3.530792 1_455
Br7 Rb2 3.761280 1_555
Br7 Rb1 3.786756 1_555
Br8 Rb3 3.473241 1_445
Br8 Rb4 3.775560 1_555
Br8 Rb9 4.068027 1_555
Br9 Rb2 3.473241 1_555
Br9 Rb5 3.775560 1_555
Br9 Rb8 4.068027 1_555
Br10 Rb1 3.473241 1_665
Br10 Rb6 3.775560 1_555
Br10 Rb11 4.068027 1_555
Br11 Rb0 3.473241 1_555
Br11 Rb7 3.775560 1_555
Br11 Rb10 4.068027 1_555
Br12 Rb5 3.478381 1_555
Br12 Rb4 3.493102 1_556
Br13 Rb4 3.478381 1_555
Br13 Rb5 3.493102 1_454
Br14 Rb7 3.478381 1_555
Br14 Rb6 3.493102 1_554
Br15 Rb6 3.478381 1_555
Br15 Rb7 3.493102 1_656
Br16 Rb9 3.502055 1_555
Br16 Rb0 3.520259 1_555
Br16 Rb8 4.079043 1_555
Br17 Rb8 3.502055 1_555
Br17 Rb1 3.520259 1_655
Br17 Rb9 4.079043 1_655
Br18 Rb11 3.502055 1_555
Br18 Rb2 3.520259 1_555
Br18 Rb10 4.079043 1_555
Br19 Rb10 3.502055 1_555
Br19 Rb3 3.520259 1_455
Br19 Rb11 4.079043 1_455
Br20 Rb2 3.559856 1_555
Br20 Rb5 3.670396 1_555
Br20 Rb6 3.778902 1_555
Br21 Rb3 3.559856 1_455
Br21 Rb4 3.670396 1_565
Br21 Rb7 3.778902 1_555
Br22 Rb0 3.559856 1_555
Br22 Rb7 3.670396 1_555
Br22 Rb4 3.778902 1_555
Br23 Rb1 3.559856 1_655
Br23 Rb6 3.670396 1_545
Br23 Rb5 3.778902 1_555
Br24 Rb7 3.506890 1_655
Br24 Rb0 3.633031 1_555
Br24 Rb5 3.662711 1_554
Br25 Rb6 3.506890 1_545
Br25 Rb1 3.633031 1_555
Br25 Rb4 3.662711 1_556
Br26 Rb5 3.506890 1_455
Br26 Rb2 3.633031 1_555
Br26 Rb7 3.662711 1_556
Br27 Rb4 3.506890 1_565
Br27 Rb3 3.633031 1_555
Br27 Rb6 3.662711 1_554
Br28 Rb10 3.566218 1_555
Br28 Rb11 3.641486 1_555
Br28 Rb0 3.847112 1_555
Br29 Rb11 3.566218 1_455
Br29 Rb10 3.641486 1_555
Br29 Rb1 3.847112 1_565
Br30 Rb8 3.566218 1_555
Br30 Rb9 3.641486 1_555
Br30 Rb2 3.847112 1_555
Br31 Rb9 3.566218 1_655
Br31 Rb8 3.641486 1_555
Br31 Rb3 3.847112 1_545
Br32 Rb9 3.479425 1_655
Br32 Rb8 3.610926 1_555
Br32 Rb11 3.787514 1_555
Br33 Rb8 3.479425 1_555
Br33 Rb9 3.610926 1_555
Br33 Rb10 3.787514 1_545
Br34 Rb11 3.479425 1_455
Br34 Rb10 3.610926 1_555
Br34 Rb9 3.787514 1_555
Br35 Rb10 3.479425 1_555
Br35 Rb11 3.610926 1_555
Br35 Rb8 3.787514 1_565
