# generated using pymatgen
data_CsTi5Se8
_symmetry_space_group_name_H-M   'P 1'
_cell_length_a   3.66394336
_cell_length_b   9.36490137
_cell_length_c   9.65077097
_cell_angle_alpha   104.19974324
_cell_angle_beta   100.93550590
_cell_angle_gamma   90.03194433
_symmetry_Int_Tables_number   1
_chemical_formula_structural   CsTi5Se8
_chemical_formula_sum   'Cs1 Ti5 Se8'
_cell_volume   314.80884574
_cell_formula_units_Z   1
loop_
 _symmetry_equiv_pos_site_id
 _symmetry_equiv_pos_as_xyz
  1  'x, y, z'
loop_
 _atom_site_type_symbol
 _atom_site_label
 _atom_site_symmetry_multiplicity
 _atom_site_fract_x
 _atom_site_fract_y
 _atom_site_fract_z
 _atom_site_occupancy
  Cs  Cs0  1  0.49996173  0.49998478  -0.00003102  1
  Ti  Ti0  1  0.00005215  -0.00002161  -0.00001753  1
  Ti  Ti1  1  0.66353525  0.00026521  0.32627557  1
  Ti  Ti2  1  0.33650658  0.99970522  0.67366884  1
  Ti  Ti3  1  0.70820244  0.34976838  0.41514150  1
  Ti  Ti4  1  0.29170426  0.65025342  0.58484944  1
  Se  Se0  1  0.42515235  0.83342519  0.85041338  1
  Se  Se1  1  0.57482325  0.16651309  0.14960168  1
  Se  Se2  1  0.90977992  0.16585514  0.81936821  1
  Se  Se3  1  0.09020643  0.83415627  0.18061958  1
  Se  Se4  1  0.83550386  0.50408367  0.67333875  1
  Se  Se5  1  0.16446406  0.49598438  0.32670731  1
  Se  Se6  1  0.75582972  0.83115962  0.51246050  1
  Se  Se7  1  0.24427698  0.16886724  0.48760480  1
loop_
_geom_bond_atom_site_label_1
_geom_bond_atom_site_label_2
_geom_bond_distance
_geom_bond_site_symmetry_2
Cs0 Se4 3.602659 1_554
Cs0 Se5 3.603352 1_555
Cs0 Se4 3.607329 1_454
Cs0 Se5 3.607985 1_655
Cs0 Se2 3.659482 1_454
Cs0 Se3 3.659961 1_655
Cs0 Se2 3.661450 1_554
Cs0 Se3 3.661789 1_555
Cs0 Se0 3.737806 1_554
Cs0 Se1 3.738508 1_555
Se0 Ti2 2.556037 1_555
Se0 Ti0 2.586794 1_666
Se0 Ti0 2.587177 1_566
Se0 Ti4 2.667733 1_555
Se1 Ti1 2.555264 1_555
Se1 Ti0 2.586503 1_555
Se1 Ti0 2.587684 1_655
Se1 Ti3 2.667873 1_555
Se2 Ti2 2.570252 1_645
Se2 Ti2 2.571473 1_545
Se2 Ti0 2.582837 1_656
Se3 Ti1 2.569711 1_465
Se3 Ti1 2.571336 1_565
Se3 Ti0 2.582621 1_565
Se4 Ti3 2.511312 1_555
Se4 Ti4 2.550281 1_555
Se4 Ti4 2.551377 1_655
Se5 Ti4 2.510734 1_555
Se5 Ti3 2.550219 1_555
Se5 Ti3 2.551492 1_455
Se6 Ti2 2.640839 1_655
Se6 Ti2 2.641426 1_555
Se6 Ti1 2.648967 1_565
Se6 Ti4 2.697630 1_655
Se6 Ti4 2.697823 1_555
Se7 Ti1 2.641581 1_455
Se7 Ti1 2.642146 1_555
Se7 Ti2 2.648437 1_545
Se7 Ti3 2.697675 1_555
Se7 Ti3 2.698293 1_455
