# generated using pymatgen
data_Li7Mn5O12
_symmetry_space_group_name_H-M   'P 1'
_cell_length_a   6.05697039
_cell_length_b   7.81419377
_cell_length_c   10.16657994
_cell_angle_alpha   105.95083389
_cell_angle_beta   92.81600848
_cell_angle_gamma   104.56960659
_symmetry_Int_Tables_number   1
_chemical_formula_structural   Li7Mn5O12
_chemical_formula_sum   'Li14 Mn10 O24'
_cell_volume   444.15252065
_cell_formula_units_Z   2
loop_
 _symmetry_equiv_pos_site_id
 _symmetry_equiv_pos_as_xyz
  1  'x, y, z'
loop_
 _atom_site_type_symbol
 _atom_site_label
 _atom_site_symmetry_multiplicity
 _atom_site_fract_x
 _atom_site_fract_y
 _atom_site_fract_z
 _atom_site_occupancy
  Li  Li0  1  0.56292900  0.34700100  0.26593000  1
  Li  Li1  1  0.10391800  0.31951900  0.73409300  1
  Li  Li2  1  0.08687800  0.34006800  0.25433900  1
  Li  Li3  1  0.57993100  0.32671200  0.74555700  1
  Li  Li4  1  0.83332300  0.33332200  0.99993300  1
  Li  Li5  1  0.33343800  0.33319700  0.49997900  1
  Li  Li6  1  0.42173000  0.66463100  0.25182200  1
  Li  Li7  1  0.92360300  0.66238500  0.74313100  1
  Li  Li8  1  0.74318200  0.00422200  0.25680500  1
  Li  Li9  1  0.24502400  0.00199100  0.74813100  1
  Li  Li10  1  0.90496800  0.67651400  0.25821300  1
  Li  Li11  1  0.43730200  0.64007700  0.72905600  1
  Li  Li12  1  0.22937900  0.02656600  0.27090600  1
  Li  Li13  1  0.76180600  0.99006600  0.74169400  1
  Mn  Mn0  1  0.83349100  0.33330000  0.50006600  1
  Mn  Mn1  1  0.33327800  0.33338400  0.99998600  1
  Mn  Mn2  1  0.99383900  0.00485200  0.00237200  1
  Mn  Mn3  1  0.49190000  0.00683600  0.50381500  1
  Mn  Mn4  1  0.17494500  0.65978700  0.49623500  1
  Mn  Mn5  1  0.67265300  0.66189400  0.99754000  1
  Mn  Mn6  1  0.50318700  0.00404200  0.99947400  1
  Mn  Mn7  1  0.99914900  0.00509300  0.50420600  1
  Mn  Mn8  1  0.16345500  0.66284400  0.00047000  1
  Mn  Mn9  1  0.66723500  0.66131300  0.49574500  1
  O  O0  1  0.15402100  0.48832100  0.10156900  1
  O  O1  1  0.65152300  0.48857600  0.60614700  1
  O  O2  1  0.01523000  0.17800300  0.39388400  1
  O  O3  1  0.51249000  0.17843200  0.89837600  1
  O  O4  1  0.94390400  0.83538100  0.11705600  1
  O  O5  1  0.44780800  0.83341800  0.61914200  1
  O  O6  1  0.21898600  0.83320200  0.38094000  1
  O  O7  1  0.72246800  0.83147500  0.88293700  1
  O  O8  1  0.61441500  0.50248500  0.11236200  1
  O  O9  1  0.11262200  0.50165500  0.61750200  1
  O  O10  1  0.55421300  0.16498100  0.38266200  1
  O  O11  1  0.05202400  0.16430800  0.88761200  1
  O  O12  1  0.47249300  0.81256800  0.09711900  1
  O  O13  1  0.94433500  0.83461600  0.61731200  1
  O  O14  1  0.72230900  0.83199100  0.38291900  1
  O  O15  1  0.19393000  0.85416800  0.90294100  1
  O  O16  1  0.27240400  0.17197700  0.11954300  1
  O  O17  1  0.77554200  0.17682200  0.62100400  1
  O  O18  1  0.89146800  0.49001500  0.37906900  1
  O  O19  1  0.39415500  0.49466600  0.88043000  1
  O  O20  1  0.80143500  0.13801800  0.10342700  1
  O  O21  1  0.27456400  0.15888100  0.62094000  1
  O  O22  1  0.39208300  0.50770700  0.37904900  1
  O  O23  1  0.86503400  0.52871700  0.89655600  1
loop_
_geom_bond_atom_site_label_1
_geom_bond_atom_site_label_2
_geom_bond_distance
_geom_bond_site_symmetry_2
Li0 O22 1.986799 1_555
Li0 O10 2.080957 1_555
Li0 O18 2.116976 1_555
Li0 O16 2.143615 1_555
Li0 O8 2.216025 1_555
Li1 O21 1.985769 1_555
Li1 O9 2.080634 1_555
Li1 O17 2.115676 1_455
Li1 O19 2.142511 1_555
Li1 O11 2.214184 1_555
Li2 O22 2.092701 1_555
Li2 O18 2.100092 1_455
Li2 O2 2.139226 1_555
Li2 O0 2.175706 1_555
Li2 O16 2.184178 1_555
Li2 O20 2.206924 1_455
Li3 O21 2.093372 1_555
Li3 O17 2.099888 1_555
Li3 O1 2.136914 1_555
Li3 O3 2.176442 1_555
Li3 O19 2.185017 1_555
Li3 O23 2.206045 1_555
Li4 O23 2.055975 1_555
Li4 O20 2.056148 1_556
Li4 O0 2.058901 1_656
Li4 O3 2.059115 1_555
Li4 O11 2.236717 1_655
Li4 O8 2.238789 1_556
Li5 O21 2.052872 1_555
Li5 O22 2.053763 1_555
Li5 O1 2.061456 1_555
Li5 O2 2.061485 1_555
Li5 O10 2.262287 1_555
Li5 O9 2.264413 1_555
Li6 O22 1.998184 1_555
Li6 O0 2.082498 1_555
Li6 O14 2.099271 1_555
Li6 O12 2.184627 1_555
Li6 O8 2.212899 1_555
Li6 O6 2.233418 1_555
Li7 O1 2.027013 1_555
Li7 O13 2.083326 1_555
Li7 O23 2.100775 1_555
Li7 O9 2.122488 1_655
Li7 O15 2.175404 1_655
Li7 O7 2.279921 1_555
Li8 O2 2.027282 1_655
Li8 O14 2.085649 1_545
Li8 O20 2.100858 1_555
Li8 O10 2.123479 1_555
Li8 O12 2.175643 1_545
Li8 O4 2.276803 1_545
Li9 O21 1.997700 1_555
Li9 O3 2.081879 1_555
Li9 O13 2.098562 1_445
Li9 O15 2.185048 1_545
Li9 O11 2.215056 1_555
Li9 O5 2.233010 1_545
Li10 O14 2.067598 1_555
Li10 O6 2.104529 1_655
Li10 O4 2.126344 1_555
Li10 O18 2.138761 1_555
Li10 O8 2.139253 1_555
Li11 O9 2.088073 1_555
Li11 O5 2.102806 1_555
Li11 O19 2.139865 1_555
Li11 O1 2.183023 1_555
Li11 O7 2.194655 1_555
Li12 O10 2.089527 1_555
Li12 O6 2.103936 1_545
Li12 O16 2.139750 1_555
Li12 O2 2.182742 1_555
Li12 O4 2.195112 1_445
Li13 O13 2.065347 1_555
Li13 O5 2.103690 1_555
Li13 O7 2.125476 1_555
Li13 O11 2.138701 1_665
Li13 O17 2.138989 1_565
Mn0 O17 1.944951 1_555
Mn0 O18 1.946850 1_555
Mn0 O9 1.958043 1_655
Mn0 O10 1.958429 1_555
Mn0 O2 1.979526 1_655
Mn0 O1 1.980035 1_555
Mn1 O3 1.948196 1_555
Mn1 O0 1.948219 1_556
Mn1 O8 1.948852 1_556
Mn1 O11 1.949265 1_555
Mn1 O19 1.963123 1_555
Mn1 O16 1.963877 1_556
Mn2 O20 1.906993 1_555
Mn2 O11 1.912194 1_654
Mn2 O7 1.947035 1_544
Mn2 O16 1.951985 1_655
Mn2 O4 1.971395 1_545
Mn2 O15 2.015255 1_644
Mn3 O10 1.958142 1_555
Mn3 O6 1.967511 1_545
Mn3 O17 1.978980 1_555
Mn3 O5 2.001088 1_545
Mn3 O21 2.173875 1_555
Mn3 O14 2.351574 1_545
Mn4 O9 1.959010 1_555
Mn4 O5 1.967439 1_555
Mn4 O18 1.977742 1_455
Mn4 O6 2.000818 1_555
Mn4 O22 2.173367 1_555
Mn4 O13 2.353155 1_455
Mn5 O23 1.906630 1_555
Mn5 O8 1.912430 1_556
Mn5 O4 1.947162 1_556
Mn5 O19 1.951705 1_555
Mn5 O7 1.971424 1_555
Mn5 O12 2.016089 1_556
Mn6 O3 1.911405 1_555
Mn6 O20 1.931091 1_556
Mn6 O15 1.981773 1_545
Mn6 O12 1.988281 1_546
Mn6 O7 2.272386 1_545
Mn6 O16 2.318673 1_556
Mn7 O21 1.910092 1_655
Mn7 O13 1.965713 1_545
Mn7 O2 1.967366 1_655
Mn7 O14 1.975048 1_545
Mn7 O17 2.289482 1_555
Mn7 O6 2.299192 1_645
Mn8 O0 1.912201 1_555
Mn8 O23 1.931945 1_454
Mn8 O12 1.980833 1_555
Mn8 O15 1.986522 1_554
Mn8 O4 2.273681 1_455
Mn8 O19 2.319256 1_554
Mn9 O22 1.908505 1_555
Mn9 O14 1.964789 1_555
Mn9 O1 1.967076 1_555
Mn9 O13 1.977660 1_555
Mn9 O18 2.289910 1_555
Mn9 O5 2.298844 1_555
