# generated using pymatgen
data_SrLiLaTi3O9
_symmetry_space_group_name_H-M   'P 1'
_cell_length_a   5.52988758
_cell_length_b   5.52988758
_cell_length_c   6.78823100
_cell_angle_alpha   90.00000000
_cell_angle_beta   90.00000000
_cell_angle_gamma   119.99999494
_symmetry_Int_Tables_number   1
_chemical_formula_structural   SrLiLaTi3O9
_chemical_formula_sum   'Sr1 Li1 La1 Ti3 O9'
_cell_volume   179.77109796
_cell_formula_units_Z   1
loop_
 _symmetry_equiv_pos_site_id
 _symmetry_equiv_pos_as_xyz
  1  'x, y, z'
loop_
 _atom_site_type_symbol
 _atom_site_label
 _atom_site_symmetry_multiplicity
 _atom_site_fract_x
 _atom_site_fract_y
 _atom_site_fract_z
 _atom_site_occupancy
  Sr  Sr0  1  0.00000000  0.00000000  0.32952500  1
  Li  Li0  1  0.33333300  0.66666700  0.99867900  1
  La  La0  1  0.66666700  0.33333300  0.67124900  1
  Ti  Ti0  1  0.33333300  0.66666700  0.49665600  1
  Ti  Ti1  1  0.00000000  0.00000000  0.83970600  1
  Ti  Ti2  1  0.66666700  0.33333300  0.16307600  1
  O  O0  1  0.16515100  0.83484900  0.66411700  1
  O  O1  1  0.83061800  0.16938200  0.99460200  1
  O  O2  1  0.50407200  0.49592800  0.34165100  1
  O  O3  1  0.99185700  0.49592800  0.34165100  1
  O  O4  1  0.66969800  0.83484900  0.66411700  1
  O  O5  1  0.33876400  0.16938200  0.99460200  1
  O  O6  1  0.16515100  0.33030200  0.66411700  1
  O  O7  1  0.83061800  0.66123600  0.99460200  1
  O  O8  1  0.50407200  0.00814300  0.34165100  1
loop_
_geom_bond_atom_site_label_1
_geom_bond_atom_site_label_2
_geom_bond_distance
_geom_bond_site_symmetry_2
La0 O1 2.698877 1_555
La0 O7 2.698880 1_555
La0 O5 2.698880 1_555
La0 O2 2.726026 1_555
La0 O8 2.726026 1_555
La0 O3 2.726026 1_555
La0 O4 2.765403 1_545
La0 O6 2.765403 1_655
La0 O0 2.765406 1_655
La0 O0 2.765406 1_545
La0 O4 2.765408 1_555
La0 O6 2.765408 1_555
O0 Ti0 1.971569 1_555
O0 Ti1 1.980627 1_565
O0 Sr0 2.767836 1_565
O1 Ti1 1.933288 1_655
O1 Ti2 1.942640 1_556
O1 Sr0 2.793023 1_656
O2 Ti0 1.944608 1_555
O2 Ti2 1.973516 1_555
O2 Sr0 2.766444 1_555
O2 Sr0 2.766444 1_665
O3 Ti0 1.944600 1_655
O3 Ti2 1.973516 1_555
O3 Sr0 2.766441 1_655
O3 Sr0 2.766446 1_665
O4 Ti0 1.971573 1_555
O4 Ti1 1.980627 1_665
O4 Sr0 2.767836 1_665
O5 Ti1 1.933288 1_555
O5 Ti2 1.942644 1_556
O5 Sr0 2.793023 1_556
O6 Ti0 1.971573 1_555
O6 Ti1 1.980627 1_555
O6 Sr0 2.767836 1_555
O7 Ti1 1.933288 1_665
O7 Ti2 1.942644 1_556
O7 Sr0 2.793023 1_666
O8 Ti0 1.944600 1_545
O8 Ti2 1.973516 1_555
O8 Sr0 2.766441 1_655
O8 Sr0 2.766446 1_555
