# generated using pymatgen
data_Ba3Sr5Co4(CuO5)4
_symmetry_space_group_name_H-M   'P 1'
_cell_length_a   11.21515251
_cell_length_b   11.16550577
_cell_length_c   18.08489056
_cell_angle_alpha   108.11930443
_cell_angle_beta   108.00039908
_cell_angle_gamma   89.87717511
_symmetry_Int_Tables_number   1
_chemical_formula_structural   Ba3Sr5Co4(CuO5)4
_chemical_formula_sum   'Ba12 Sr20 Co16 Cu16 O80'
_cell_volume   2035.90257134
_cell_formula_units_Z   4
loop_
 _symmetry_equiv_pos_site_id
 _symmetry_equiv_pos_as_xyz
  1  'x, y, z'
loop_
 _atom_site_type_symbol
 _atom_site_label
 _atom_site_symmetry_multiplicity
 _atom_site_fract_x
 _atom_site_fract_y
 _atom_site_fract_z
 _atom_site_occupancy
  Ba  Ba0  1  0.30781400  0.05821200  0.11869600  1
  Ba  Ba1  1  0.30878800  0.55762400  0.11852200  1
  Ba  Ba2  1  0.80500300  0.05828600  0.11919400  1
  Ba  Ba3  1  0.80837200  0.55491200  0.11706600  1
  Ba  Ba4  1  0.18769800  0.94365700  0.38192100  1
  Ba  Ba5  1  0.18453800  0.93868600  0.87484100  1
  Ba  Ba6  1  0.68674400  0.43385800  0.87490700  1
  Ba  Ba7  1  0.05618600  0.31225300  0.11793300  1
  Ba  Ba8  1  0.05809500  0.81017200  0.11687900  1
  Ba  Ba9  1  0.55711200  0.30940800  0.11827300  1
  Ba  Ba10  1  0.55916600  0.81163600  0.11866000  1
  Ba  Ba11  1  0.93533200  0.68722600  0.87493700  1
  Sr  Sr0  1  0.30339600  0.05949300  0.61477500  1
  Sr  Sr1  1  0.30959400  0.55924200  0.61438400  1
  Sr  Sr2  1  0.80723100  0.05858200  0.61432500  1
  Sr  Sr3  1  0.80188000  0.55878800  0.61265300  1
  Sr  Sr4  1  0.19447000  0.44451100  0.39029300  1
  Sr  Sr5  1  0.19383600  0.43969100  0.88322100  1
  Sr  Sr6  1  0.69405700  0.44440300  0.38978200  1
  Sr  Sr7  1  0.69459700  0.94412000  0.38948500  1
  Sr  Sr8  1  0.69146700  0.94256800  0.88454400  1
  Sr  Sr9  1  0.05241400  0.30544100  0.61350500  1
  Sr  Sr10  1  0.05556100  0.80270000  0.61245900  1
  Sr  Sr11  1  0.55738800  0.30510300  0.61282400  1
  Sr  Sr12  1  0.55534900  0.80250500  0.61248100  1
  Sr  Sr13  1  0.44286500  0.19546200  0.38921000  1
  Sr  Sr14  1  0.44040200  0.19188400  0.88408800  1
  Sr  Sr15  1  0.44520400  0.69580600  0.39019600  1
  Sr  Sr16  1  0.44520700  0.69335100  0.88354800  1
  Sr  Sr17  1  0.94334200  0.19538400  0.39008700  1
  Sr  Sr18  1  0.94203000  0.19304200  0.88454000  1
  Sr  Sr19  1  0.94244200  0.69335300  0.38983700  1
  Co  Co0  1  0.99149400  0.99785700  0.99217400  1
  Co  Co1  1  0.99999900  0.00079200  0.50478700  1
  Co  Co2  1  0.99164200  0.49007600  0.98804100  1
  Co  Co3  1  0.00204200  0.50019300  0.50279500  1
  Co  Co4  1  0.49407000  0.99448600  0.98546100  1
  Co  Co5  1  0.50222400  0.00232100  0.50485400  1
  Co  Co6  1  0.49440500  0.49271500  0.98906200  1
  Co  Co7  1  0.50074100  0.49981300  0.50168100  1
  Co  Co8  1  0.24310400  0.24546800  0.98847400  1
  Co  Co9  1  0.25178700  0.25440800  0.50580400  1
  Co  Co10  1  0.24781400  0.74389400  0.98978800  1
  Co  Co11  1  0.25266200  0.75115500  0.50366200  1
  Co  Co12  1  0.74276400  0.24207200  0.98917100  1
  Co  Co13  1  0.75111200  0.25098200  0.50202600  1
  Co  Co14  1  0.74331100  0.74541900  0.99019900  1
  Co  Co15  1  0.75055100  0.75241900  0.50261800  1
  Cu  Cu0  1  0.11884000  0.11131000  0.25392200  1
  Cu  Cu1  1  0.11198000  0.10293900  0.74612800  1
  Cu  Cu2  1  0.12132700  0.60340800  0.25726300  1
  Cu  Cu3  1  0.11889500  0.59438800  0.74591700  1
  Cu  Cu4  1  0.62271600  0.11087500  0.25844200  1
  Cu  Cu5  1  0.61232100  0.09429600  0.74783400  1
  Cu  Cu6  1  0.62091300  0.60734100  0.25682500  1
  Cu  Cu7  1  0.61118600  0.60266100  0.74625600  1
  Cu  Cu8  1  0.37155800  0.39910400  0.25685500  1
  Cu  Cu9  1  0.36109400  0.39746700  0.74759200  1
  Cu  Cu10  1  0.37432200  0.89823800  0.25447000  1
  Cu  Cu11  1  0.36736800  0.89954000  0.74616100  1
  Cu  Cu12  1  0.87026200  0.39820300  0.25657600  1
  Cu  Cu13  1  0.86787300  0.39193600  0.74403200  1
  Cu  Cu14  1  0.86892400  0.89727600  0.25587600  1
  Cu  Cu15  1  0.85811800  0.90372200  0.74771400  1
  O  O0  1  0.13088700  0.13630300  0.49910700  1
  O  O1  1  0.12675500  0.13614300  0.99311700  1
  O  O2  1  0.13234900  0.63223000  0.49738900  1
  O  O3  1  0.13341900  0.63099200  0.99249700  1
  O  O4  1  0.63042300  0.13268600  0.49568400  1
  O  O5  1  0.62084400  0.12369800  0.99160700  1
  O  O6  1  0.63191900  0.63262200  0.49625000  1
  O  O7  1  0.63005300  0.62973800  0.99292000  1
  O  O8  1  0.11505600  0.38336900  0.99580200  1
  O  O9  1  0.11981600  0.38583700  0.50624800  1
  O  O10  1  0.11119200  0.88577700  0.99743800  1
  O  O11  1  0.11761000  0.88530000  0.50809000  1
  O  O12  1  0.61118800  0.37756100  0.99573200  1
  O  O13  1  0.61989300  0.38609200  0.50649600  1
  O  O14  1  0.61088500  0.88045000  0.99710400  1
  O  O15  1  0.61917900  0.88661000  0.50679700  1
  O  O16  1  0.38436700  0.11641400  0.49899500  1
  O  O17  1  0.37725000  0.11112400  0.99110500  1
  O  O18  1  0.38222600  0.61340200  0.49589400  1
  O  O19  1  0.38221100  0.61159700  0.99220400  1
  O  O20  1  0.87982600  0.11305600  0.49565800  1
  O  O21  1  0.87551300  0.11369400  0.99440100  1
  O  O22  1  0.88228400  0.61302200  0.49685600  1
  O  O23  1  0.88221600  0.61173400  0.99291600  1
  O  O24  1  0.36242900  0.36472000  0.99673300  1
  O  O25  1  0.36950800  0.37040000  0.50613600  1
  O  O26  1  0.36400900  0.86393400  0.99541100  1
  O  O27  1  0.37017900  0.87085700  0.50789700  1
  O  O28  1  0.86938800  0.36593900  0.99606300  1
  O  O29  1  0.86999400  0.37097400  0.50706100  1
  O  O30  1  0.86039700  0.86629000  0.99787500  1
  O  O31  1  0.86911600  0.87035900  0.50731100  1
  O  O32  1  0.06523700  0.08290700  0.14130400  1
  O  O33  1  0.06709000  0.08992400  0.63503200  1
  O  O34  1  0.07419700  0.58284600  0.14620300  1
  O  O35  1  0.08042000  0.58869500  0.63702100  1
  O  O36  1  0.57214200  0.08378600  0.14705700  1
  O  O37  1  0.57657700  0.08959600  0.63850700  1
  O  O38  1  0.57274000  0.58079400  0.14466500  1
  O  O39  1  0.56958400  0.58810100  0.63500200  1
  O  O40  1  0.44242400  0.41044300  0.36660200  1
  O  O41  1  0.42826200  0.41129700  0.85961800  1
  O  O42  1  0.44122100  0.90898900  0.36395000  1
  O  O43  1  0.43604700  0.91477100  0.85867200  1
  O  O44  1  0.94145300  0.40943200  0.36619400  1
  O  O45  1  0.93824600  0.41094700  0.85672300  1
  O  O46  1  0.93022800  0.90668800  0.36555200  1
  O  O47  1  0.92570500  0.92640700  0.86127600  1
  O  O48  1  0.32181500  0.31428800  0.14462800  1
  O  O49  1  0.32557800  0.30168800  0.63636300  1
  O  O50  1  0.32462800  0.81176800  0.14221200  1
  O  O51  1  0.32841100  0.79681000  0.63575500  1
  O  O52  1  0.81967900  0.31314300  0.14433600  1
  O  O53  1  0.82152100  0.29300400  0.63330800  1
  O  O54  1  0.82234700  0.81221600  0.14364100  1
  O  O55  1  0.82435700  0.80106900  0.63780200  1
  O  O56  1  0.19032800  0.20530100  0.36455200  1
  O  O57  1  0.18563000  0.19554700  0.85922000  1
  O  O58  1  0.19292200  0.69621500  0.36796900  1
  O  O59  1  0.19157500  0.68492900  0.85833400  1
  O  O60  1  0.69303200  0.20787300  0.36823600  1
  O  O61  1  0.68535100  0.18255200  0.86031100  1
  O  O62  1  0.69076300  0.70549200  0.36693200  1
  O  O63  1  0.67659300  0.69707800  0.85962100  1
  O  O64  1  0.47409400  0.04509700  0.26253700  1
  O  O65  1  0.45044400  0.05425100  0.74821100  1
  O  O66  1  0.47155800  0.54381300  0.26254100  1
  O  O67  1  0.45118700  0.54883100  0.74864700  1
  O  O68  1  0.97593900  0.03913500  0.26375600  1
  O  O69  1  0.95098900  0.05327000  0.74919800  1
  O  O70  1  0.96972800  0.54315100  0.26140200  1
  O  O71  1  0.95837000  0.53110500  0.73595400  1
  O  O72  1  0.22036500  0.46369200  0.26176200  1
  O  O73  1  0.19990000  0.43916100  0.74650200  1
  O  O74  1  0.22803000  0.97949500  0.25158200  1
  O  O75  1  0.20718000  0.95935300  0.73644100  1
  O  O76  1  0.72118900  0.46806600  0.26235900  1
  O  O77  1  0.71286700  0.46402900  0.73869000  1
  O  O78  1  0.72183400  0.97156500  0.26200400  1
  O  O79  1  0.69484100  0.94033200  0.74649200  1
loop_
_geom_bond_atom_site_label_1
_geom_bond_atom_site_label_2
_geom_bond_distance
_geom_bond_site_symmetry_2
Ba0 O64 2.739284 1_555
Ba0 O48 2.746288 1_555
Ba0 O10 2.789600 1_544
Ba0 O26 2.815693 1_544
Ba0 O36 2.847023 1_555
Ba0 O17 2.870599 1_554
Ba0 O32 2.873788 1_555
Ba0 O1 2.899942 1_554
Ba0 O50 2.909333 1_545
Ba0 O74 3.161464 1_545
Ba1 O66 2.729470 1_555
Ba1 O50 2.732451 1_555
Ba1 O24 2.777572 1_554
Ba1 O8 2.789970 1_554
Ba1 O34 2.824021 1_555
Ba1 O38 2.848825 1_555
Ba1 O3 2.849172 1_554
Ba1 O19 2.877670 1_554
Ba1 O48 2.894771 1_555
Ba2 O52 2.735378 1_555
Ba2 O30 2.776072 1_544
Ba2 O68 2.793607 1_555
Ba2 O36 2.806455 1_555
Ba2 O14 2.806810 1_544
Ba2 O32 2.822637 1_655
Ba2 O21 2.841670 1_554
Ba2 O5 2.866986 1_554
Ba2 O54 2.912413 1_545
Ba3 O70 2.720002 1_555
Ba3 O54 2.757867 1_555
Ba3 O28 2.785037 1_554
Ba3 O12 2.818457 1_554
Ba3 O38 2.835216 1_555
Ba3 O7 2.850048 1_554
Ba3 O23 2.857794 1_554
Ba3 O34 2.862472 1_655
Ba3 O52 2.886937 1_555
Ba4 O74 2.677196 1_555
Ba4 O58 2.697237 1_555
Ba4 O0 2.741786 1_565
Ba4 O16 2.767718 1_565
Ba4 O46 2.827869 1_455
Ba4 O11 2.878244 1_555
Ba4 O27 2.881425 1_555
Ba4 O42 2.971190 1_555
Ba4 O56 3.034949 1_565
Ba4 O68 3.100468 1_465
Ba5 O75 2.671105 1_555
Ba5 O17 2.736859 1_565
Ba5 O59 2.758729 1_555
Ba5 O1 2.788082 1_565
Ba5 O10 2.808091 1_555
Ba5 O26 2.813321 1_555
Ba5 O47 2.836579 1_455
Ba5 O43 2.927662 1_555
Ba5 O57 2.968421 1_565
Ba6 O77 2.688990 1_555
Ba6 O61 2.735008 1_555
Ba6 O7 2.769841 1_555
Ba6 O23 2.792097 1_555
Ba6 O28 2.797282 1_555
Ba6 O12 2.808706 1_555
Ba6 O41 2.829846 1_555
Ba6 O45 2.940651 1_555
Ba6 O63 3.035042 1_555
Ba7 O72 2.707939 1_555
Ba7 O32 2.718830 1_555
Ba7 O28 2.751089 1_454
Ba7 O1 2.815129 1_554
Ba7 O8 2.817675 1_554
Ba7 O52 2.836084 1_455
Ba7 O21 2.855300 1_454
Ba7 O48 2.865837 1_555
Ba7 O34 2.899742 1_555
Ba8 O74 2.724403 1_555
Ba8 O34 2.744531 1_555
Ba8 O10 2.768484 1_554
Ba8 O30 2.797159 1_454
Ba8 O54 2.830015 1_455
Ba8 O23 2.832312 1_454
Ba8 O3 2.853801 1_554
Ba8 O50 2.879986 1_555
Ba8 O32 2.935546 1_565
Ba9 O36 2.721267 1_555
Ba9 O76 2.737455 1_555
Ba9 O12 2.782037 1_554
Ba9 O24 2.802222 1_554
Ba9 O48 2.820369 1_555
Ba9 O52 2.832983 1_555
Ba9 O5 2.847654 1_554
Ba9 O17 2.871354 1_554
Ba9 O38 2.914002 1_555
Ba10 O78 2.729277 1_555
Ba10 O38 2.756035 1_555
Ba10 O14 2.756812 1_554
Ba10 O50 2.791479 1_555
Ba10 O26 2.808660 1_554
Ba10 O54 2.844343 1_555
Ba10 O7 2.857578 1_554
Ba10 O19 2.862541 1_554
Ba10 O36 2.916098 1_565
Ba11 O71 2.664068 1_555
Ba11 O23 2.743008 1_555
Ba11 O47 2.756327 1_555
Ba11 O3 2.784767 1_655
Ba11 O10 2.824203 1_655
Ba11 O30 2.833645 1_555
Ba11 O63 2.833738 1_555
Ba11 O59 2.979559 1_655
Ba11 O45 2.999955 1_555
Ba11 O77 3.303723 1_555
Co0 O21 1.832799 1_565
Co0 O10 1.834441 1_655
Co0 O30 2.127788 1_555
Co0 O47 2.129126 1_555
Co0 O1 2.159447 1_665
Co0 O32 2.427216 1_666
Co1 O11 1.843420 1_645
Co1 O20 1.843607 1_555
Co1 O31 2.090362 1_545
Co1 O33 2.134146 1_655
Co1 O0 2.157330 1_655
Co1 O46 2.279690 1_545
Co2 O8 1.825336 1_655
Co2 O23 1.828736 1_555
Co2 O28 2.019469 1_555
Co2 O45 2.144163 1_555
Co2 O3 2.205222 1_655
Co2 O34 2.576084 1_656
Co3 O9 1.835828 1_555
Co3 O22 1.841275 1_455
Co3 O29 2.104709 1_455
Co3 O2 2.122715 1_555
Co3 O35 2.198788 1_555
Co3 O44 2.236054 1_455
Co4 O14 1.836034 1_555
Co4 O17 1.848140 1_565
Co4 O5 1.981579 1_565
Co4 O43 2.069837 1_555
Co4 O26 2.149272 1_555
Co4 O36 2.628940 1_566
Co5 O16 1.836125 1_555
Co5 O15 1.839398 1_545
Co5 O27 2.112028 1_545
Co5 O4 2.126010 1_555
Co5 O37 2.186332 1_555
Co5 O42 2.306812 1_545
Co6 O19 1.827163 1_555
Co6 O12 1.837044 1_555
Co6 O41 2.112539 1_555
Co6 O24 2.124085 1_555
Co6 O7 2.130242 1_555
Co6 O38 2.532257 1_556
Co7 O18 1.837258 1_555
Co7 O13 1.842594 1_555
Co7 O25 2.101288 1_555
Co7 O6 2.135932 1_555
Co7 O39 2.180739 1_555
Co7 O40 2.211404 1_555
Co8 O1 1.827039 1_555
Co8 O24 1.829353 1_555
Co8 O8 2.105205 1_555
Co8 O57 2.109544 1_555
Co8 O17 2.122786 1_555
Co8 O48 2.541117 1_556
Co9 O0 1.843630 1_555
Co9 O25 1.848790 1_555
Co9 O9 2.082033 1_555
Co9 O49 2.134824 1_555
Co9 O16 2.141345 1_555
Co9 O56 2.311607 1_555
Co10 O3 1.822555 1_555
Co10 O26 1.829142 1_555
Co10 O19 2.108487 1_555
Co10 O59 2.141145 1_555
Co10 O10 2.204734 1_555
Co10 O50 2.480098 1_556
Co11 O27 1.846816 1_555
Co11 O2 1.848280 1_555
Co11 O18 2.116379 1_555
Co11 O11 2.129446 1_555
Co11 O51 2.162978 1_555
Co11 O58 2.212813 1_555
Co12 O5 1.923458 1_555
Co12 O28 1.933090 1_555
Co12 O21 2.065979 1_555
Co12 O61 2.097197 1_555
Co12 O12 2.113570 1_555
Co12 O52 2.523901 1_556
Co13 O4 1.845897 1_555
Co13 O29 1.854092 1_555
Co13 O13 2.106230 1_555
Co13 O20 2.109890 1_555
Co13 O53 2.151883 1_555
Co13 O60 2.193902 1_555
Co14 O30 1.828493 1_555
Co14 O7 1.835584 1_555
Co14 O14 2.117166 1_555
Co14 O63 2.131827 1_555
Co14 O23 2.155379 1_555
Co14 O54 2.497553 1_556
Co15 O31 1.837860 1_555
Co15 O6 1.841115 1_555
Co15 O15 2.100083 1_555
Co15 O22 2.144877 1_555
Co15 O55 2.209618 1_555
Co15 O62 2.220465 1_555
Cu0 O32 1.858064 1_555
Cu0 O56 1.858308 1_555
Cu0 O68 1.876275 1_455
Cu0 O74 1.911307 1_545
Cu1 O33 1.872124 1_555
Cu1 O57 1.891738 1_555
Cu1 O69 1.912070 1_455
Cu1 O75 1.916896 1_545
Cu2 O34 1.850341 1_555
Cu2 O58 1.856481 1_555
Cu2 O70 1.861142 1_455
Cu2 O72 1.920832 1_555
Cu3 O35 1.861641 1_555
Cu3 O71 1.870465 1_455
Cu3 O59 1.876338 1_555
Cu3 O73 1.956555 1_555
Cu4 O36 1.840262 1_555
Cu4 O60 1.853594 1_555
Cu4 O64 1.854332 1_555
Cu4 O78 1.915721 1_545
Cu5 O61 1.872587 1_555
Cu5 O65 1.873217 1_555
Cu5 O37 1.875723 1_555
Cu5 O79 1.947680 1_545
Cu6 O38 1.855687 1_555
Cu6 O62 1.860670 1_555
Cu6 O66 1.864752 1_555
Cu6 O76 1.926855 1_555
Cu7 O39 1.873236 1_555
Cu7 O63 1.892680 1_555
Cu7 O67 1.910964 1_555
Cu7 O77 1.916319 1_555
Cu8 O48 1.853198 1_555
Cu8 O72 1.857723 1_555
Cu8 O40 1.859081 1_555
Cu8 O66 1.926698 1_555
Cu9 O73 1.861554 1_555
Cu9 O49 1.875445 1_555
Cu9 O41 1.886414 1_555
Cu9 O67 1.962887 1_555
Cu10 O42 1.852542 1_555
Cu10 O50 1.856936 1_555
Cu10 O74 1.867582 1_555
Cu10 O64 1.928814 1_565
Cu11 O51 1.879299 1_555
Cu11 O75 1.891332 1_555
Cu11 O43 1.891850 1_555
Cu11 O65 1.949148 1_565
Cu12 O52 1.853545 1_555
Cu12 O44 1.857633 1_555
Cu12 O76 1.861808 1_555
Cu12 O70 1.931580 1_555
Cu13 O53 1.866403 1_555
Cu13 O45 1.886518 1_555
Cu13 O77 1.902090 1_555
Cu13 O71 1.924999 1_555
Cu14 O54 1.855416 1_555
Cu14 O46 1.856275 1_555
Cu14 O78 1.863212 1_555
Cu14 O68 1.931743 1_565
Cu15 O79 1.870344 1_555
Cu15 O55 1.878250 1_555
Cu15 O47 1.889909 1_555
Cu15 O69 1.958581 1_565
O0 Sr17 2.643195 1_455
O0 Sr9 2.703571 1_555
O0 Sr0 2.731645 1_555
O1 Sr18 2.609103 1_455
O2 Sr4 2.632963 1_555
O2 Sr19 2.654112 1_455
O2 Sr10 2.707784 1_555
O2 Sr1 2.749270 1_555
O3 Sr5 2.668874 1_555
O4 Sr13 2.636971 1_555
O4 Sr7 2.640497 1_545
O4 Sr11 2.719178 1_555
O4 Sr2 2.772706 1_555
O5 Sr14 2.634019 1_555
O5 Sr8 2.640411 1_545
O6 Sr15 2.629513 1_555
O6 Sr6 2.629785 1_555
O6 Sr3 2.708739 1_555
O6 Sr12 2.717088 1_555
O7 Sr16 2.654762 1_555
O8 Sr5 2.689240 1_555
O8 Sr18 2.697256 1_455
O9 Sr9 2.670571 1_555
O9 Sr1 2.682023 1_555
O9 Sr4 2.733081 1_555
O9 Sr17 2.742644 1_455
O11 Sr10 2.606687 1_555
O11 Sr0 2.654341 1_565
O11 Sr19 2.756230 1_455
O12 Sr14 2.658323 1_555
O13 Sr3 2.619572 1_555
O13 Sr11 2.631387 1_555
O13 Sr6 2.741022 1_555
O13 Sr13 2.752918 1_555
O14 Sr16 2.650273 1_555
O14 Sr8 2.731205 1_555
O15 Sr12 2.648058 1_555
O15 Sr2 2.660198 1_565
O15 Sr15 2.733683 1_555
O15 Sr7 2.754557 1_555
O16 Sr13 2.654984 1_555
O16 Sr11 2.700528 1_555
O16 Sr0 2.760117 1_555
O17 Sr14 2.644978 1_555
O18 Sr4 2.632281 1_555
O18 Sr15 2.632598 1_555
O18 Sr12 2.718815 1_555
O18 Sr1 2.740093 1_555
O19 Sr5 2.668883 1_555
O19 Sr16 2.677733 1_555
O20 Sr7 2.618984 1_545
O20 Sr17 2.632985 1_555
O20 Sr9 2.742935 1_655
O20 Sr2 2.744517 1_555
O21 Sr8 2.641921 1_545
O21 Sr18 2.702343 1_555
O22 Sr19 2.625825 1_555
O22 Sr6 2.640763 1_555
O22 Sr10 2.717592 1_655
O22 Sr3 2.742925 1_555
O24 Sr5 2.674533 1_555
O24 Sr14 2.699527 1_555
O25 Sr1 2.639935 1_555
O25 Sr11 2.655157 1_555
O25 Sr4 2.730744 1_555
O25 Sr13 2.731829 1_555
O26 Sr16 2.698915 1_555
O27 Sr12 2.633622 1_555
O27 Sr0 2.662506 1_565
O27 Sr15 2.751599 1_555
O28 Sr18 2.654302 1_555
O29 Sr9 2.619602 1_655
O29 Sr3 2.651735 1_555
O29 Sr17 2.735788 1_555
O29 Sr6 2.748130 1_555
O30 Sr8 2.682248 1_555
O31 Sr2 2.634019 1_565
O31 Sr10 2.643541 1_655
O31 Sr7 2.748951 1_555
O31 Sr19 2.749002 1_555
O33 Sr9 2.551589 1_555
O33 Sr0 2.791421 1_555
O33 Sr2 2.829227 1_455
O33 Sr10 3.102108 1_545
O35 Sr10 2.562308 1_555
O35 Sr1 2.728505 1_555
O35 Sr3 3.020988 1_455
O35 Sr9 3.060576 1_555
O37 Sr11 2.585194 1_555
O37 Sr2 2.757528 1_555
O37 Sr0 2.964091 1_555
O37 Sr12 3.090166 1_545
O39 Sr12 2.546940 1_555
O39 Sr3 2.760904 1_555
O39 Sr1 2.828824 1_555
O39 Sr11 3.056742 1_555
O40 Sr13 2.556974 1_555
O40 Sr6 2.730992 1_555
O40 Sr4 2.948188 1_555
O40 Sr15 3.079225 1_555
O41 Sr14 2.617603 1_555
O41 Sr5 2.793004 1_555
O41 Sr16 3.040617 1_555
O42 Sr15 2.565596 1_555
O42 Sr7 2.742839 1_555
O42 Sr13 3.086480 1_565
O43 Sr16 2.643329 1_555
O43 Sr8 2.757924 1_555
O43 Sr14 2.981499 1_565
O44 Sr17 2.556463 1_555
O44 Sr4 2.744031 1_655
O44 Sr6 2.942113 1_555
O44 Sr19 3.063778 1_555
O45 Sr18 2.630994 1_555
O45 Sr5 2.758380 1_655
O46 Sr19 2.549051 1_555
O46 Sr7 2.816953 1_555
O46 Sr17 3.111452 1_565
O47 Sr8 2.782947 1_555
O47 Sr18 2.872176 1_565
O49 Sr0 2.610238 1_555
O49 Sr11 2.763347 1_555
O49 Sr9 2.964059 1_555
O49 Sr1 3.020700 1_555
O51 Sr1 2.558192 1_555
O51 Sr12 2.708949 1_555
O51 Sr10 2.960630 1_555
O51 Sr0 3.073752 1_565
O53 Sr2 2.530498 1_555
O53 Sr9 2.731062 1_655
O53 Sr11 2.877817 1_555
O53 Sr3 3.103325 1_555
O55 Sr3 2.599085 1_555
O55 Sr10 2.770177 1_655
O55 Sr12 2.909043 1_555
O55 Sr2 3.031640 1_565
O56 Sr4 2.562495 1_555
O56 Sr13 2.735153 1_555
O56 Sr17 2.953311 1_455
O57 Sr5 2.620749 1_555
O57 Sr14 2.754064 1_555
O57 Sr18 2.907891 1_455
O58 Sr15 2.732245 1_555
O58 Sr19 2.956983 1_455
O58 Sr4 2.960212 1_555
O59 Sr16 2.735122 1_555
O59 Sr5 2.908640 1_555
O60 Sr6 2.546372 1_555
O60 Sr17 2.720902 1_555
O60 Sr13 2.954135 1_555
O60 Sr7 3.085474 1_545
O61 Sr18 2.771737 1_555
O61 Sr8 2.843900 1_545
O61 Sr14 2.905776 1_555
O62 Sr7 2.565338 1_555
O62 Sr19 2.732724 1_555
O62 Sr15 2.918701 1_555
O62 Sr6 3.067551 1_555
O63 Sr8 2.632721 1_555
O63 Sr16 2.762034 1_555
O64 Sr13 2.508096 1_555
O65 Sr0 2.484828 1_555
O65 Sr14 2.496833 1_555
O66 Sr15 2.505961 1_555
O67 Sr16 2.492458 1_555
O67 Sr1 2.494537 1_555
O68 Sr17 2.536011 1_555
O69 Sr2 2.492287 1_555
O69 Sr18 2.492391 1_555
O70 Sr19 2.513070 1_555
O71 Sr3 2.481081 1_555
O71 Sr9 3.213501 1_655
O72 Sr4 2.502098 1_555
O73 Sr9 2.463410 1_555
O73 Sr5 2.492585 1_555
O74 Sr13 3.224967 1_565
O75 Sr10 2.489029 1_555
O75 Sr0 3.202939 1_565
O76 Sr6 2.507036 1_555
O77 Sr11 2.533485 1_555
O77 Sr3 3.197255 1_555
O78 Sr7 2.525379 1_555
O78 Sr17 3.263719 1_565
O79 Sr12 2.456939 1_555
O79 Sr8 2.500991 1_555
