# generated using pymatgen
data_U2Mn3Si
_symmetry_space_group_name_H-M   'P 1'
_cell_length_a   5.23039589
_cell_length_b   5.23040956
_cell_length_c   7.91823276
_cell_angle_alpha   90.00002607
_cell_angle_beta   90.00005593
_cell_angle_gamma   120.00000337
_symmetry_Int_Tables_number   1
_chemical_formula_structural   U2Mn3Si
_chemical_formula_sum   'U4 Mn6 Si2'
_cell_volume   187.59840434
_cell_formula_units_Z   2
loop_
 _symmetry_equiv_pos_site_id
 _symmetry_equiv_pos_as_xyz
  1  'x, y, z'
loop_
 _atom_site_type_symbol
 _atom_site_label
 _atom_site_symmetry_multiplicity
 _atom_site_fract_x
 _atom_site_fract_y
 _atom_site_fract_z
 _atom_site_occupancy
  U  U0  1  0.66666820  0.33333786  0.42707872  1
  U  U1  1  0.33333180  0.66666214  0.57292128  1
  U  U2  1  0.33333169  0.66666279  0.92708155  1
  U  U3  1  0.66666831  0.33333721  0.07291845  1
  Mn  Mn0  1  0.83249402  0.16750591  0.75000438  1
  Mn  Mn1  1  0.16750598  0.83249409  0.24999562  1
  Mn  Mn2  1  0.33501154  0.16750561  0.75000491  1
  Mn  Mn3  1  0.66498846  0.83249439  0.24999509  1
  Mn  Mn4  1  0.83249553  0.66499090  0.75000417  1
  Mn  Mn5  1  0.16750447  0.33500910  0.24999583  1
  Si  Si0  1  0.00000000  0.00000000  -0.00000000  1
  Si  Si1  1  0.00000000  0.00000000  0.50000000  1
loop_
_geom_bond_atom_site_label_1
_geom_bond_atom_site_label_2
_geom_bond_distance
_geom_bond_site_symmetry_2
U0 U3 2.804323 1_555
U0 U1 3.233029 1_555
U0 U1 3.233035 1_655
U0 U1 3.233097 1_545
U1 U2 2.804323 1_555
U2 U3 3.233018 1_556
U2 U3 3.233021 1_456
U2 U3 3.233073 1_566
Mn0 Si0 2.494251 1_656
Mn0 Si1 2.494307 1_655
Mn0 Mn2 2.602030 1_555
Mn0 Mn4 2.602046 1_555
Mn0 Mn4 2.628363 1_545
Mn0 Mn2 2.628366 1_655
Mn0 U3 2.965581 1_556
Mn0 U0 2.965661 1_555
Mn0 U2 2.967363 1_655
Mn0 U1 2.967387 1_655
Mn0 U2 2.967391 1_545
Mn0 U1 2.967411 1_545
Mn1 Si0 2.494251 1_565
Mn1 Si1 2.494307 1_565
Mn1 Mn3 2.602030 1_555
Mn1 Mn5 2.602046 1_555
Mn1 Mn5 2.628363 1_565
Mn1 Mn3 2.628366 1_455
Mn1 U2 2.965581 1_554
Mn1 U1 2.965661 1_555
Mn1 U3 2.967363 1_455
Mn1 U0 2.967387 1_455
Mn1 U3 2.967391 1_565
Mn1 U0 2.967411 1_565
Mn2 Si0 2.494248 1_556
Mn2 Si1 2.494306 1_555
Mn2 Mn4 2.602045 1_555
Mn2 Mn4 2.628358 1_445
Mn2 U3 2.965574 1_556
Mn2 U0 2.965664 1_555
Mn2 U2 2.967364 1_555
Mn2 U1 2.967388 1_555
Mn2 U2 2.967392 1_545
Mn2 U1 2.967420 1_545
Mn3 Si0 2.494248 1_665
Mn3 Si1 2.494306 1_665
Mn3 Mn5 2.602045 1_555
Mn3 Mn5 2.628358 1_665
Mn3 U2 2.965574 1_554
Mn3 U1 2.965664 1_555
Mn3 U3 2.967364 1_555
Mn3 U0 2.967388 1_555
Mn3 U3 2.967392 1_565
Mn3 U0 2.967420 1_565
Mn4 Si0 2.494245 1_666
Mn4 Si1 2.494300 1_665
Mn4 U3 2.965577 1_556
Mn4 U0 2.965649 1_555
Mn4 U2 2.967375 1_655
Mn4 U2 2.967375 1_555
Mn4 U1 2.967391 1_555
Mn4 U1 2.967400 1_655
Mn5 Si0 2.494245 1_555
Mn5 Si1 2.494300 1_555
Mn5 U2 2.965577 1_554
Mn5 U1 2.965649 1_555
Mn5 U3 2.967375 1_455
Mn5 U3 2.967375 1_555
Mn5 U0 2.967391 1_555
Mn5 U0 2.967400 1_455
Si0 U2 3.074465 1_554
Si0 U3 3.074465 1_445
Si0 U3 3.074480 1_555
Si0 U2 3.074480 1_444
Si0 U3 3.074488 1_455
Si0 U2 3.074488 1_544
Si1 U1 3.074465 1_555
Si1 U0 3.074465 1_445
Si1 U1 3.074485 1_445
Si1 U0 3.074485 1_555
Si1 U1 3.074495 1_545
Si1 U0 3.074495 1_455
