# generated using pymatgen
data_Cr3B4Mo3
_symmetry_space_group_name_H-M   'P 1'
_cell_length_a   5.89189804
_cell_length_b   5.89189804
_cell_length_c   3.00590400
_cell_angle_alpha   90.00000000
_cell_angle_beta   90.00000000
_cell_angle_gamma   90.11389842
_symmetry_Int_Tables_number   1
_chemical_formula_structural   Cr3B4Mo3
_chemical_formula_sum   'Cr3 B4 Mo3'
_cell_volume   104.34813554
_cell_formula_units_Z   1
loop_
 _symmetry_equiv_pos_site_id
 _symmetry_equiv_pos_as_xyz
  1  'x, y, z'
loop_
 _atom_site_type_symbol
 _atom_site_label
 _atom_site_symmetry_multiplicity
 _atom_site_fract_x
 _atom_site_fract_y
 _atom_site_fract_z
 _atom_site_occupancy
  Cr  Cr0  1  0.32619800  0.32619800  0.50000000  1
  Cr  Cr1  1  0.16865100  0.83278800  0.50000000  1
  Cr  Cr2  1  0.83278800  0.16865100  0.50000000  1
  B  B0  1  0.11200600  0.11200600  0.00000000  1
  B  B1  1  0.89382900  0.89382900  0.00000000  1
  B  B2  1  0.61055500  0.38034200  0.00000000  1
  B  B3  1  0.38034200  0.61055500  0.00000000  1
  Mo  Mo0  1  0.49579800  0.00586100  0.00000000  1
  Mo  Mo1  1  0.00586100  0.49579800  0.00000000  1
  Mo  Mo2  1  0.67397400  0.67397400  0.50000000  1
loop_
_geom_bond_atom_site_label_1
_geom_bond_atom_site_label_2
_geom_bond_distance
_geom_bond_site_symmetry_2
Cr0 Mo0 2.612881 1_556
Cr0 Mo1 2.612881 1_556
Cr0 Mo0 2.612881 1_555
Cr0 Mo1 2.612881 1_555
Cr1 Mo0 2.646926 1_565
Cr1 Mo0 2.646926 1_566
Cr1 Mo1 2.667114 1_556
Cr1 Mo1 2.667114 1_555
Cr2 Mo1 2.646926 1_656
Cr2 Mo1 2.646926 1_655
Cr2 Mo0 2.667114 1_555
Cr2 Mo0 2.667114 1_556
B0 B1 1.816131 1_445
B0 Cr1 2.253634 1_545
B0 Cr2 2.253634 1_454
B0 Cr2 2.253634 1_455
B0 Cr1 2.253634 1_544
B0 Cr0 2.331911 1_554
B0 Cr0 2.331911 1_555
B0 Mo0 2.347350 1_555
B0 Mo1 2.347350 1_555
B1 Cr2 2.238841 1_564
B1 Cr1 2.238841 1_655
B1 Cr2 2.238841 1_565
B1 Cr1 2.238841 1_654
B1 Mo2 2.368148 1_554
B1 Mo2 2.368148 1_555
B1 Mo0 2.437545 1_565
B1 Mo1 2.437545 1_655
B2 B3 1.920133 1_555
B2 Cr0 2.272769 1_554
B2 Cr0 2.272769 1_555
B2 Mo0 2.306393 1_555
B2 Mo2 2.321419 1_555
B2 Mo2 2.321419 1_554
B2 Cr2 2.352760 1_555
B2 Cr2 2.352760 1_554
B2 Mo1 2.425112 1_655
B3 Cr0 2.272769 1_554
B3 Cr0 2.272769 1_555
B3 Mo1 2.306393 1_555
B3 Mo2 2.321419 1_555
B3 Mo2 2.321419 1_554
B3 Cr1 2.352760 1_555
B3 Cr1 2.352760 1_554
B3 Mo0 2.425112 1_565
