# generated using pymatgen
data_Mg3Cr8FeO16
_symmetry_space_group_name_H-M   'P 1'
_cell_length_a   10.37919610
_cell_length_b   10.37919610
_cell_length_c   10.37919695
_cell_angle_alpha   33.72639075
_cell_angle_beta   33.72639075
_cell_angle_gamma   33.72638861
_symmetry_Int_Tables_number   1
_chemical_formula_structural   Mg3Cr8FeO16
_chemical_formula_sum   'Mg3 Cr8 Fe1 O16'
_cell_volume   307.11228198
_cell_formula_units_Z   1
loop_
 _symmetry_equiv_pos_site_id
 _symmetry_equiv_pos_as_xyz
  1  'x, y, z'
loop_
 _atom_site_type_symbol
 _atom_site_label
 _atom_site_symmetry_multiplicity
 _atom_site_fract_x
 _atom_site_fract_y
 _atom_site_fract_z
 _atom_site_occupancy
  Mg  Mg0  1  0.18756100  0.18756100  0.18756100  1
  Mg  Mg1  1  0.81243200  0.81243200  0.81243200  1
  Mg  Mg2  1  0.31253300  0.31253300  0.31253300  1
  Cr  Cr0  1  0.99996000  0.99996000  0.99996000  1
  Cr  Cr1  1  0.50006200  0.50006200  0.50006200  1
  Cr  Cr2  1  0.74955100  0.25028400  0.25028400  1
  Cr  Cr3  1  0.24954700  0.75039800  0.75039800  1
  Cr  Cr4  1  0.25028400  0.74955100  0.25028400  1
  Cr  Cr5  1  0.75039800  0.24954700  0.75039800  1
  Cr  Cr6  1  0.25028400  0.25028400  0.74955100  1
  Cr  Cr7  1  0.75039800  0.75039800  0.24954700  1
  Fe  Fe0  1  0.68712800  0.68712800  0.68712800  1
  O  O0  1  0.11944500  0.11944500  0.11944500  1
  O  O1  1  0.61979100  0.61979100  0.61979100  1
  O  O2  1  0.34328800  0.89344500  0.89344500  1
  O  O3  1  0.84711400  0.39179000  0.39179000  1
  O  O4  1  0.89344500  0.34328800  0.89344500  1
  O  O5  1  0.39179000  0.84711400  0.39179000  1
  O  O6  1  0.89344500  0.89344500  0.34328800  1
  O  O7  1  0.39179000  0.39179000  0.84711400  1
  O  O8  1  0.38063600  0.38063600  0.38063600  1
  O  O9  1  0.88050900  0.88050900  0.88050900  1
  O  O10  1  0.15268300  0.60847400  0.60847400  1
  O  O11  1  0.65248700  0.10824800  0.10824800  1
  O  O12  1  0.60847400  0.15268300  0.60847400  1
  O  O13  1  0.10824800  0.65248700  0.10824800  1
  O  O14  1  0.60847400  0.60847400  0.15268300  1
  O  O15  1  0.10824800  0.10824800  0.65248700  1
loop_
_geom_bond_atom_site_label_1
_geom_bond_atom_site_label_2
_geom_bond_distance
_geom_bond_site_symmetry_2
Mg0 O0 1.998442 1_555
Mg0 O3 2.007064 1_455
Mg0 O5 2.007064 1_545
Mg0 O7 2.007064 1_554
Mg1 O9 1.997297 1_555
Mg1 O10 2.004413 1_655
Mg1 O12 2.004413 1_565
Mg1 O14 2.004413 1_556
Mg2 O8 1.998060 1_555
Mg2 O11 2.007601 1_555
Mg2 O13 2.007601 1_555
Mg2 O15 2.007601 1_555
Cr0 O4 2.017346 1_565
Cr0 O2 2.017346 1_655
Cr0 O6 2.017347 1_556
Cr0 O13 2.037015 1_656
Cr0 O11 2.037015 1_566
Cr0 O15 2.037015 1_665
Cr1 O5 2.033443 1_555
Cr1 O3 2.033443 1_555
Cr1 O7 2.033444 1_555
Cr1 O12 2.034996 1_555
Cr1 O10 2.034996 1_555
Cr1 O14 2.034996 1_555
Cr2 O6 2.032196 1_545
Cr2 O4 2.032196 1_554
Cr2 O8 2.032941 1_555
Cr2 O14 2.034567 1_555
Cr2 O12 2.034567 1_555
Cr2 O0 2.037320 1_655
Cr3 O15 2.029453 1_565
Cr3 O13 2.029453 1_556
Cr3 O9 2.035678 1_455
Cr3 O7 2.037327 1_555
Cr3 O5 2.037328 1_555
Cr3 O1 2.041817 1_555
Cr4 O6 2.032196 1_455
Cr4 O2 2.032196 1_554
Cr4 O8 2.032941 1_555
Cr4 O14 2.034567 1_555
Cr4 O10 2.034567 1_555
Cr4 O0 2.037320 1_565
Cr5 O15 2.029453 1_655
Cr5 O11 2.029453 1_556
Cr5 O9 2.035678 1_545
Cr5 O7 2.037327 1_555
Cr5 O3 2.037328 1_555
Cr5 O1 2.041817 1_555
Cr6 O4 2.032196 1_455
Cr6 O2 2.032196 1_545
Cr6 O8 2.032942 1_555
Cr6 O10 2.034567 1_555
Cr6 O12 2.034567 1_555
Cr6 O0 2.037321 1_556
Cr7 O13 2.029453 1_655
Cr7 O11 2.029453 1_565
Cr7 O9 2.035678 1_554
Cr7 O3 2.037327 1_555
Cr7 O5 2.037327 1_555
Cr7 O1 2.041817 1_555
Fe0 O1 1.975587 1_555
Fe0 O2 2.027581 1_555
Fe0 O4 2.027581 1_555
Fe0 O6 2.027581 1_555
