# generated using pymatgen
data_ZrSiNi
_symmetry_space_group_name_H-M   'P 1'
_cell_length_a   3.79803846
_cell_length_b   6.46622311
_cell_length_c   7.25348711
_cell_angle_alpha   90.00000000
_cell_angle_beta   90.00000000
_cell_angle_gamma   90.00000000
_symmetry_Int_Tables_number   1
_chemical_formula_structural   ZrSiNi
_chemical_formula_sum   'Zr4 Si4 Ni4'
_cell_volume   178.13812926
_cell_formula_units_Z   4
loop_
 _symmetry_equiv_pos_site_id
 _symmetry_equiv_pos_as_xyz
  1  'x, y, z'
loop_
 _atom_site_type_symbol
 _atom_site_label
 _atom_site_symmetry_multiplicity
 _atom_site_fract_x
 _atom_site_fract_y
 _atom_site_fract_z
 _atom_site_occupancy
  Zr  Zr0  1  0.25000000  0.01531224  0.81325009  1
  Zr  Zr1  1  0.25000000  0.51531224  0.68674991  1
  Zr  Zr2  1  0.75000000  0.98468776  0.18674991  1
  Zr  Zr3  1  0.75000000  0.48468776  0.31325009  1
  Si  Si0  1  0.25000000  0.77438083  0.38796826  1
  Si  Si1  1  0.25000000  0.27438083  0.11203174  1
  Si  Si2  1  0.75000000  0.22561917  0.61203174  1
  Si  Si3  1  0.75000000  0.72561917  0.88796826  1
  Ni  Ni0  1  0.25000000  0.13941274  0.43887072  1
  Ni  Ni1  1  0.25000000  0.63941274  0.06112928  1
  Ni  Ni2  1  0.75000000  0.86058726  0.56112928  1
  Ni  Ni3  1  0.75000000  0.36058726  0.93887072  1
loop_
_geom_bond_atom_site_label_1
_geom_bond_atom_site_label_2
_geom_bond_distance
_geom_bond_site_symmetry_2
Si0 Zr3 2.721940 1_555
Si0 Zr3 2.721940 1_455
Si0 Zr1 2.739174 1_555
Si0 Zr2 2.754237 1_555
Si0 Zr2 2.754237 1_455
Si1 Zr2 2.721940 1_445
Si1 Zr2 2.721940 1_545
Si1 Zr0 2.739174 1_554
Si1 Zr3 2.754237 1_555
Si1 Zr3 2.754237 1_455
Si2 Zr1 2.721940 1_655
Si2 Zr1 2.721940 1_555
Si2 Zr3 2.739174 1_555
Si2 Zr0 2.754237 1_555
Si2 Zr0 2.754237 1_655
Si3 Zr0 2.721940 1_565
Si3 Zr0 2.721940 1_665
Si3 Zr2 2.739174 1_556
Si3 Zr1 2.754237 1_655
Si3 Zr1 2.754237 1_555
Ni0 Si2 2.344055 1_455
Ni0 Si2 2.344055 1_555
Ni0 Si0 2.389081 1_545
Ni0 Si1 2.526260 1_555
Ni0 Ni2 2.764654 1_545
Ni0 Ni2 2.764654 1_445
Ni0 Zr2 2.819857 1_445
Ni0 Zr2 2.819857 1_545
Ni0 Zr0 2.831641 1_555
Ni0 Zr1 3.023379 1_555
Ni0 Zr3 3.069390 1_555
Ni0 Zr3 3.069390 1_455
Ni1 Si3 2.344055 1_454
Ni1 Si3 2.344055 1_554
Ni1 Si1 2.389081 1_555
Ni1 Si0 2.526260 1_555
Ni1 Ni3 2.764654 1_454
Ni1 Ni3 2.764654 1_554
Ni1 Zr3 2.819857 1_455
Ni1 Zr3 2.819857 1_555
Ni1 Zr1 2.831641 1_554
Ni1 Zr0 3.023379 1_564
Ni1 Zr2 3.069390 1_555
Ni1 Zr2 3.069390 1_455
Ni2 Si0 2.344055 1_655
Ni2 Si0 2.344055 1_555
Ni2 Si2 2.389081 1_565
Ni2 Si3 2.526260 1_555
Ni2 Zr0 2.819857 1_565
Ni2 Zr0 2.819857 1_665
Ni2 Zr2 2.831641 1_555
Ni2 Zr3 3.023379 1_555
Ni2 Zr1 3.069390 1_655
Ni2 Zr1 3.069390 1_555
Ni3 Si1 2.344055 1_656
Ni3 Si1 2.344055 1_556
Ni3 Si3 2.389081 1_555
Ni3 Si2 2.526260 1_555
Ni3 Zr1 2.819857 1_655
Ni3 Zr1 2.819857 1_555
Ni3 Zr3 2.831641 1_556
Ni3 Zr2 3.023379 1_546
Ni3 Zr0 3.069390 1_655
Ni3 Zr0 3.069390 1_555
