# generated using pymatgen
data_Co3TeO8
_symmetry_space_group_name_H-M   'P 1'
_cell_length_a   5.98281831
_cell_length_b   6.07411533
_cell_length_c   10.40765923
_cell_angle_alpha   105.69600257
_cell_angle_beta   106.71216103
_cell_angle_gamma   60.31390019
_symmetry_Int_Tables_number   1
_chemical_formula_structural   Co3TeO8
_chemical_formula_sum   'Co6 Te2 O16'
_cell_volume   310.94571721
_cell_formula_units_Z   2
loop_
 _symmetry_equiv_pos_site_id
 _symmetry_equiv_pos_as_xyz
  1  'x, y, z'
loop_
 _atom_site_type_symbol
 _atom_site_label
 _atom_site_symmetry_multiplicity
 _atom_site_fract_x
 _atom_site_fract_y
 _atom_site_fract_z
 _atom_site_occupancy
  Co  Co0  1  0.99999900  0.50000000  0.50000000  1
  Co  Co1  1  0.50000000  0.99999900  0.50000000  1
  Co  Co2  1  0.99999900  0.99999900  0.49999900  1
  Co  Co3  1  0.50000100  0.00000000  0.00000100  1
  Co  Co4  1  0.00000000  0.50000000  0.00000100  1
  Co  Co5  1  0.50000100  0.50000000  0.00000100  1
  Te  Te0  1  0.00000000  0.00000000  0.99999900  1
  Te  Te1  1  0.50000000  0.50000000  0.50000000  1
  O  O0  1  0.12539200  0.13025900  0.41128900  1
  O  O1  1  0.62535600  0.63032900  0.91129800  1
  O  O2  1  0.37464500  0.36967100  0.08870300  1
  O  O3  1  0.87460600  0.86974100  0.58871100  1
  O  O4  1  0.62425300  0.63240900  0.39816600  1
  O  O5  1  0.12417900  0.13254800  0.89820500  1
  O  O6  1  0.14761800  0.61653300  0.39154200  1
  O  O7  1  0.64778500  0.11615200  0.89142300  1
  O  O8  1  0.64228700  0.14189800  0.39860400  1
  O  O9  1  0.14265100  0.64180600  0.89867800  1
  O  O10  1  0.85734900  0.35819400  0.10132200  1
  O  O11  1  0.35771300  0.85810300  0.60139600  1
  O  O12  1  0.35221600  0.88385000  0.10857700  1
  O  O13  1  0.85238200  0.38346600  0.60845800  1
  O  O14  1  0.87582200  0.86745200  0.10179600  1
  O  O15  1  0.37574600  0.36759000  0.60183300  1
loop_
_geom_bond_atom_site_label_1
_geom_bond_atom_site_label_2
_geom_bond_distance
_geom_bond_site_symmetry_2
Co0 O3 2.016603 1_555
Co0 O0 2.016603 1_655
Co0 O4 2.030721 1_555
Co0 O15 2.030723 1_655
Co0 O13 2.044520 1_555
Co0 O6 2.044525 1_655
Co1 O3 1.987509 1_555
Co1 O0 1.987518 1_565
Co1 O4 2.046932 1_555
Co1 O15 2.046933 1_565
Co1 O11 2.077669 1_555
Co1 O8 2.077683 1_565
Co2 O0 1.850074 1_665
Co2 O3 1.850080 1_555
Co2 O8 1.950084 1_565
Co2 O11 1.950099 1_655
Co2 O6 2.143044 1_655
Co2 O13 2.143055 1_565
Co3 O2 2.016246 1_555
Co3 O1 2.016249 1_544
Co3 O14 2.030927 1_545
Co3 O5 2.030935 1_554
Co3 O12 2.044578 1_545
Co3 O7 2.044598 1_554
Co4 O1 1.987655 1_454
Co4 O2 1.987657 1_555
Co4 O14 2.046166 1_455
Co4 O5 2.046169 1_554
Co4 O10 2.078339 1_455
Co4 O9 2.078354 1_554
Co5 O2 1.850165 1_555
Co5 O1 1.850168 1_554
Co5 O10 1.948219 1_555
Co5 O9 1.948235 1_554
Co5 O7 2.145229 1_554
Co5 O12 2.145230 1_555
O4 Te1 1.956857 1_555
O5 Te0 1.956842 1_555
O6 Te1 1.950747 1_555
O7 Te0 1.950500 1_655
O8 Te1 2.002558 1_555
O9 Te0 2.002775 1_565
O10 Te0 2.002782 1_654
O11 Te1 2.002562 1_555
O12 Te0 1.950512 1_564
O13 Te1 1.950747 1_555
O14 Te0 1.956862 1_664
O15 Te1 1.956858 1_555
