# generated using pymatgen
data_Ba3Co3N5
_symmetry_space_group_name_H-M   'P 1'
_cell_length_a   6.36702221
_cell_length_b   7.83464062
_cell_length_c   8.83806990
_cell_angle_alpha   102.73102703
_cell_angle_beta   113.35234304
_cell_angle_gamma   100.88650060
_symmetry_Int_Tables_number   1
_chemical_formula_structural   Ba3Co3N5
_chemical_formula_sum   'Ba6 Co6 N10'
_cell_volume   375.55732287
_cell_formula_units_Z   2
loop_
 _symmetry_equiv_pos_site_id
 _symmetry_equiv_pos_as_xyz
  1  'x, y, z'
loop_
 _atom_site_type_symbol
 _atom_site_label
 _atom_site_symmetry_multiplicity
 _atom_site_fract_x
 _atom_site_fract_y
 _atom_site_fract_z
 _atom_site_occupancy
  Ba  Ba0  1  0.76118500  0.42365700  0.61229300  1
  Ba  Ba1  1  0.23881500  0.57634300  0.38770700  1
  Ba  Ba2  1  0.64875700  0.87589100  0.86038900  1
  Ba  Ba3  1  0.35124300  0.12410900  0.13961100  1
  Ba  Ba4  1  0.70150200  0.71550200  0.22881400  1
  Ba  Ba5  1  0.29849800  0.28449800  0.77118600  1
  Co  Co0  1  0.90337800  0.33066200  0.97336100  1
  Co  Co1  1  0.09662200  0.66933800  0.02663900  1
  Co  Co2  1  0.75390100  0.00411000  0.57613700  1
  Co  Co3  1  0.24609900  0.99589000  0.42386300  1
  Co  Co4  1  0.05015300  0.83282000  0.68278200  1
  Co  Co5  1  0.94984700  0.16718000  0.31721800  1
  N  N0  1  0.81832200  0.16100600  0.77453000  1
  N  N1  1  0.18167800  0.83899400  0.22547000  1
  N  N2  1  0.72255500  0.76093600  0.55477900  1
  N  N3  1  0.27744500  0.23906400  0.44522100  1
  N  N4  1  0.77330900  0.52800500  0.93539100  1
  N  N5  1  0.22669100  0.47199500  0.06460900  1
  N  N6  1  0.22843400  0.91273700  0.58854800  1
  N  N7  1  0.77156600  0.08726300  0.41145200  1
  N  N8  1  0.15518300  0.77102100  0.87242200  1
  N  N9  1  0.84481700  0.22897900  0.12757800  1
loop_
_geom_bond_atom_site_label_1
_geom_bond_atom_site_label_2
_geom_bond_distance
_geom_bond_site_symmetry_2
Ba0 N3 2.743906 1_555
Ba0 N0 2.755439 1_555
Ba0 N4 2.756997 1_555
Ba0 N2 2.835466 1_555
Ba0 N7 2.863226 1_555
Ba0 N8 3.012709 1_655
Ba1 N2 2.743906 1_555
Ba1 N1 2.755439 1_555
Ba1 N5 2.756997 1_555
Ba1 N3 2.835466 1_555
Ba1 N6 2.863226 1_555
Ba1 N9 3.012709 1_455
Ba2 N0 2.686406 1_565
Ba2 N9 2.875183 1_566
Ba2 N2 2.901920 1_555
Ba2 N6 2.918540 1_555
Ba2 N4 3.113354 1_555
Ba2 N8 3.144908 1_555
Ba3 N1 2.686406 1_545
Ba3 N8 2.875183 1_544
Ba3 N3 2.901920 1_555
Ba3 N7 2.918540 1_555
Ba3 N5 3.113354 1_555
Ba3 N9 3.144908 1_555
Ba4 N2 2.769137 1_555
Ba4 N5 2.829866 1_555
Ba4 N7 2.855531 1_565
Ba4 N4 2.933715 1_554
Ba4 N1 3.041531 1_655
Ba5 N3 2.769137 1_555
Ba5 N4 2.829866 1_555
Ba5 N6 2.855531 1_545
Ba5 N5 2.933715 1_556
Ba5 N0 3.041531 1_455
Co0 N0 1.758477 1_555
Co0 N9 1.844085 1_556
Co0 N5 1.882389 1_656
Co0 N4 1.918573 1_555
Co1 N1 1.758477 1_555
Co1 N8 1.844085 1_554
Co1 N4 1.882389 1_454
Co1 N5 1.918573 1_555
Co2 N0 1.744453 1_555
Co2 N7 1.753730 1_555
Co2 N2 1.836622 1_545
Co3 N1 1.744453 1_555
Co3 N6 1.753730 1_555
Co3 N3 1.836622 1_565
Co4 N8 1.755615 1_555
Co4 N6 1.756416 1_555
Co4 N2 1.830971 1_455
Co5 N9 1.755615 1_555
Co5 N7 1.756416 1_555
Co5 N3 1.830971 1_655
