# generated using pymatgen
data_Ta6Al8O27F
_symmetry_space_group_name_H-M   'P 1'
_cell_length_a   7.43601122
_cell_length_b   8.74112045
_cell_length_c   8.73841320
_cell_angle_alpha   63.37061014
_cell_angle_beta   115.16138988
_cell_angle_gamma   115.17274896
_symmetry_Int_Tables_number   1
_chemical_formula_structural   Ta6Al8O27F
_chemical_formula_sum   'Ta6 Al8 O27 F1'
_cell_volume   439.78848168
_cell_formula_units_Z   1
loop_
 _symmetry_equiv_pos_site_id
 _symmetry_equiv_pos_as_xyz
  1  'x, y, z'
loop_
 _atom_site_type_symbol
 _atom_site_label
 _atom_site_symmetry_multiplicity
 _atom_site_fract_x
 _atom_site_fract_y
 _atom_site_fract_z
 _atom_site_occupancy
  Ta  Ta0  1  0.28184300  0.07164700  0.81899100  1
  Ta  Ta1  1  0.28338000  0.56988800  0.32225500  1
  Ta  Ta2  1  0.11074800  0.81995400  0.56969200  1
  Ta  Ta3  1  0.10799700  0.32073700  0.07189200  1
  Ta  Ta4  1  0.60923600  0.98245100  0.73541400  1
  Ta  Ta5  1  0.60797100  0.48487400  0.23253900  1
  Al  Al0  1  0.00051800  0.87230200  0.12864300  1
  Al  Al1  1  0.99961600  0.37155000  0.62749300  1
  Al  Al2  1  0.87598900  0.16107600  0.41241000  1
  Al  Al3  1  0.88221200  0.65890100  0.92198800  1
  Al  Al4  1  0.42636600  0.02684800  0.27600700  1
  Al  Al5  1  0.41940300  0.51810900  0.78283000  1
  Al  Al6  1  0.69605200  0.93579600  0.18696600  1
  Al  Al7  1  0.69961600  0.42809100  0.69077800  1
  O  O0  1  0.33322900  0.05013900  0.61580300  1
  O  O1  1  0.33330600  0.55207600  0.11517200  1
  O  O2  1  0.62185500  0.02229200  0.50373100  1
  O  O3  1  0.62703300  0.52652100  0.99942900  1
  O  O4  1  0.47380800  0.80712800  0.28901200  1
  O  O5  1  0.47400100  0.31420000  0.78658200  1
  O  O6  1  0.90448300  0.94766800  0.43040800  1
  O  O7  1  0.89878400  0.45047000  0.92302200  1
  O  O8  1  0.04783400  0.16866700  0.64134000  1
  O  O9  1  0.04853600  0.66748300  0.14671700  1
  O  O10  1  0.19013500  0.88166400  0.35526200  1
  O  O11  1  0.18548300  0.37848300  0.85657100  1
  O  O12  1  0.76504100  0.23640800  0.71493600  1
  O  O13  1  0.76266300  0.73948800  0.21268000  1
  O  O14  1  0.82248100  0.37056200  0.39323700  1
  O  O15  1  0.82329400  0.86717400  0.89314900  1
  O  O16  1  0.23625100  0.01795700  0.04061200  1
  O  O17  1  0.23943800  0.51885400  0.54422500  1
  O  O18  1  0.93999100  0.07648800  0.10040000  1
  O  O19  1  0.93826200  0.57625000  0.60113100  1
  O  O20  1  0.08195400  0.81838300  0.79553600  1
  O  O21  1  0.08500000  0.31979500  0.29547300  1
  O  O22  1  0.38679500  0.74415500  0.72418000  1
  O  O23  1  0.38404300  0.24845600  0.22133100  1
  O  O24  1  0.52886800  0.96998200  0.94461000  1
  O  O25  1  0.53281100  0.46995100  0.44808300  1
  O  O26  1  0.66702800  0.12959000  0.20374300  1
  F  F0  1  0.66664400  0.63949200  0.69372700  1
loop_
_geom_bond_atom_site_label_1
_geom_bond_atom_site_label_2
_geom_bond_distance
_geom_bond_site_symmetry_2
Al0 O10 1.894500 1_555
Al0 O9 1.897412 1_555
Al0 O13 1.899673 1_455
Al0 O18 1.908688 1_465
Al0 O16 1.911946 1_565
Al0 O15 1.923494 1_454
Al1 O12 1.895582 1_555
Al1 O8 1.897342 1_655
Al1 O11 1.898920 1_655
Al1 O14 1.907551 1_555
Al1 O17 1.917744 1_655
Al1 O19 1.923127 1_555
Al2 O26 1.868641 1_555
Al2 O8 1.874129 1_655
Al2 O6 1.895875 1_545
Al2 O21 1.905209 1_655
Al2 O14 1.956417 1_555
Al2 O2 2.035656 1_555
Al3 O9 1.838351 1_656
Al3 O7 1.873486 1_555
Al3 O20 1.903613 1_655
Al3 O15 1.934730 1_555
Al3 O3 1.979784 1_555
Al3 F0 1.982436 1_555
Al4 O26 1.869007 1_555
Al4 O10 1.877780 1_545
Al4 O2 1.895528 1_555
Al4 O23 1.908082 1_555
Al4 O16 1.952651 1_555
Al4 O4 2.042721 1_545
Al5 O11 1.836448 1_555
Al5 O3 1.874795 1_555
Al5 O22 1.902560 1_555
Al5 O17 1.939285 1_555
Al5 O5 1.973504 1_555
Al5 F0 1.982242 1_555
Al6 O26 1.870340 1_565
Al6 O13 1.876989 1_555
Al6 O4 1.887886 1_555
Al6 O24 1.905212 1_554
Al6 O18 1.951952 1_565
Al6 O6 2.048357 1_555
Al7 O12 1.837842 1_555
Al7 O5 1.879604 1_555
Al7 O25 1.903595 1_555
Al7 O19 1.938445 1_555
Al7 O7 1.975836 1_555
Al7 F0 1.977100 1_555
O0 Ta0 2.066677 1_555
O0 Ta2 2.067836 1_545
O0 Ta4 2.075904 1_545
O1 Ta5 2.065847 1_555
O1 Ta3 2.074562 1_555
O1 Ta1 2.075967 1_555
O2 Ta4 1.931466 1_545
O3 Ta5 1.959312 1_556
O4 Ta1 1.923964 1_555
O5 Ta0 1.961061 1_555
O6 Ta2 1.931665 1_655
O7 Ta3 1.963660 1_656
O8 Ta0 1.983741 1_555
O9 Ta1 1.986639 1_555
O10 Ta2 1.978416 1_555
O11 Ta3 1.987495 1_556
O12 Ta4 1.983540 1_545
O13 Ta5 1.988033 1_555
O14 Ta5 1.925629 1_555
O15 Ta4 1.924217 1_555
O16 Ta0 1.921943 1_554
O17 Ta1 1.925447 1_555
O18 Ta3 1.923511 1_655
O19 Ta2 1.925922 1_655
O20 Ta2 2.067203 1_555
O20 Ta0 2.121488 1_565
O21 Ta3 2.028523 1_555
O21 Ta1 2.105129 1_555
O22 Ta4 2.049053 1_555
O22 Ta2 2.115130 1_555
O23 Ta5 2.041654 1_555
O23 Ta3 2.098163 1_555
O24 Ta0 2.041671 1_565
O24 Ta4 2.098978 1_555
O25 Ta1 2.048269 1_555
O25 Ta5 2.118929 1_555
