# generated using pymatgen
data_RbMnN
_symmetry_space_group_name_H-M   'P 1'
_cell_length_a   10.77227200
_cell_length_b   3.61421900
_cell_length_c   6.92465800
_cell_angle_alpha   90.00000000
_cell_angle_beta   90.00000000
_cell_angle_gamma   90.00000000
_symmetry_Int_Tables_number   1
_chemical_formula_structural   RbMnN
_chemical_formula_sum   'Rb4 Mn4 N4'
_cell_volume   269.60013448
_cell_formula_units_Z   4
loop_
 _symmetry_equiv_pos_site_id
 _symmetry_equiv_pos_as_xyz
  1  'x, y, z'
loop_
 _atom_site_type_symbol
 _atom_site_label
 _atom_site_symmetry_multiplicity
 _atom_site_fract_x
 _atom_site_fract_y
 _atom_site_fract_z
 _atom_site_occupancy
  Rb  Rb0  1  0.67251600  0.25000000  0.06365800  1
  Rb  Rb1  1  0.17251600  0.25000000  0.43634200  1
  Rb  Rb2  1  0.32748400  0.75000000  0.93634200  1
  Rb  Rb3  1  0.82748400  0.75000000  0.56365800  1
  Mn  Mn0  1  0.53104500  0.25000000  0.59910200  1
  Mn  Mn1  1  0.03104500  0.25000000  0.90089800  1
  Mn  Mn2  1  0.46895500  0.75000000  0.40089800  1
  Mn  Mn3  1  0.96895500  0.75000000  0.09910200  1
  N  N0  1  0.95430000  0.25000000  0.14800100  1
  N  N1  1  0.45430000  0.25000000  0.35199900  1
  N  N2  1  0.04570000  0.75000000  0.85199900  1
  N  N3  1  0.54570000  0.75000000  0.64800100  1
loop_
_geom_bond_atom_site_label_1
_geom_bond_atom_site_label_2
_geom_bond_distance
_geom_bond_site_symmetry_2
Mn0 N3 1.845325 1_545
Mn0 N3 1.845325 1_555
Mn0 N1 1.900352 1_555
Mn1 N2 1.845325 1_555
Mn1 N2 1.845325 1_545
Mn1 N0 1.900352 1_456
Mn2 N1 1.845325 1_565
Mn2 N1 1.845325 1_555
Mn2 N3 1.900352 1_555
Mn3 N0 1.845325 1_565
Mn3 N0 1.845325 1_555
Mn3 N2 1.900352 1_654
N0 Rb1 3.084213 1_655
N0 Rb0 3.091131 1_555
N1 Rb0 3.084213 1_555
N1 Rb1 3.091131 1_555
N2 Rb3 3.084213 1_455
N2 Rb2 3.091131 1_555
N3 Rb2 3.084213 1_555
N3 Rb3 3.091131 1_555
