# generated using pymatgen
data_LaFeSbO6
_symmetry_space_group_name_H-M   'P 1'
_cell_length_a   5.62067800
_cell_length_b   5.60015300
_cell_length_c   9.66787174
_cell_angle_alpha   54.72248146
_cell_angle_beta   90.00000000
_cell_angle_gamma   90.00000000
_symmetry_Int_Tables_number   1
_chemical_formula_structural   LaFeSbO6
_chemical_formula_sum   'La2 Fe2 Sb2 O12'
_cell_volume   248.42967089
_cell_formula_units_Z   2
loop_
 _symmetry_equiv_pos_site_id
 _symmetry_equiv_pos_as_xyz
  1  'x, y, z'
loop_
 _atom_site_type_symbol
 _atom_site_label
 _atom_site_symmetry_multiplicity
 _atom_site_fract_x
 _atom_site_fract_y
 _atom_site_fract_z
 _atom_site_occupancy
  La  La0  1  0.21263200  0.74138100  0.24998200  1
  La  La1  1  0.78736800  0.74138100  0.74998200  1
  Fe  Fe0  1  0.73620000  0.00106400  0.99720600  1
  Fe  Fe1  1  0.26380000  0.00106400  0.49720600  1
  Sb  Sb0  1  0.73778700  0.49400400  0.50277300  1
  Sb  Sb1  1  0.26221300  0.49400400  0.00277300  1
  O  O0  1  0.23220600  0.79263700  0.75152500  1
  O  O1  1  0.02008600  0.26012600  0.97398900  1
  O  O2  1  0.01188700  0.70525900  0.52512100  1
  O  O3  1  0.98811300  0.70525900  0.02512100  1
  O  O4  1  0.97991400  0.26012600  0.47398900  1
  O  O5  1  0.76779400  0.79263700  0.25152500  1
  O  O6  1  0.74444800  0.17275500  0.74915600  1
  O  O7  1  0.53677600  0.74527000  0.53927200  1
  O  O8  1  0.53903200  0.32691800  0.96116300  1
  O  O9  1  0.46096800  0.32691800  0.46116300  1
  O  O10  1  0.46322400  0.74527000  0.03927200  1
  O  O11  1  0.25555200  0.17275500  0.24915600  1
loop_
_geom_bond_atom_site_label_1
_geom_bond_atom_site_label_2
_geom_bond_distance
_geom_bond_site_symmetry_2
La0 O11 2.423195 1_565
La0 O9 2.455671 1_555
La0 O10 2.466361 1_555
La0 O5 2.517740 1_455
La0 O3 2.620563 1_455
La0 O4 2.631126 1_455
La0 O2 2.787139 1_555
La0 O1 2.788674 1_564
La1 O6 2.423195 1_565
La1 O8 2.455671 1_555
La1 O7 2.466361 1_555
La1 O0 2.517740 1_655
La1 O2 2.620563 1_655
La1 O1 2.631126 1_655
La1 O3 2.787139 1_556
La1 O4 2.788674 1_565
Fe0 O10 1.974487 1_546
Fe0 O8 1.986226 1_555
Fe0 O6 2.003556 1_555
Fe0 O5 2.030847 1_546
Fe0 O3 2.074956 1_546
Fe0 O1 2.079679 1_655
Fe1 O7 1.974487 1_545
Fe1 O9 1.986226 1_555
Fe1 O11 2.003556 1_555
Fe1 O0 2.030847 1_545
Fe1 O2 2.074956 1_545
Fe1 O4 2.079679 1_455
O0 Sb1 2.008305 1_556
O1 Sb1 2.016430 1_556
O2 Sb0 2.028570 1_455
O3 Sb1 2.028570 1_655
O4 Sb0 2.016430 1_555
O5 Sb0 2.008305 1_555
O6 Sb0 1.990481 1_555
O7 Sb0 1.988603 1_555
O8 Sb1 1.973075 1_556
O9 Sb0 1.973075 1_555
O10 Sb1 1.988603 1_555
O11 Sb1 1.990481 1_555
