# generated using pymatgen
data_BaSrPrZrO6
_symmetry_space_group_name_H-M   'P 1'
_cell_length_a   8.78903349
_cell_length_b   8.76980706
_cell_length_c   8.74232936
_cell_angle_alpha   90.00000000
_cell_angle_beta   90.00000000
_cell_angle_gamma   90.00000000
_symmetry_Int_Tables_number   1
_chemical_formula_structural   BaSrPrZrO6
_chemical_formula_sum   'Ba4 Sr4 Pr4 Zr4 O24'
_cell_volume   673.84238100
_cell_formula_units_Z   4
loop_
 _symmetry_equiv_pos_site_id
 _symmetry_equiv_pos_as_xyz
  1  'x, y, z'
loop_
 _atom_site_type_symbol
 _atom_site_label
 _atom_site_symmetry_multiplicity
 _atom_site_fract_x
 _atom_site_fract_y
 _atom_site_fract_z
 _atom_site_occupancy
  Ba  Ba0  1  0.00000000  0.00000000  0.00000000  1
  Ba  Ba1  1  0.50000000  0.50000000  0.50000000  1
  Ba  Ba2  1  0.50000000  0.00000000  -0.00000000  1
  Ba  Ba3  1  -0.00000000  0.00000000  0.50000000  1
  Sr  Sr0  1  -0.00000000  0.50000000  0.50000000  1
  Sr  Sr1  1  0.50000000  0.00000000  0.50000000  1
  Sr  Sr2  1  0.50000000  0.50000000  0.00000000  1
  Sr  Sr3  1  -0.00000000  0.50000000  0.00000000  1
  Pr  Pr0  1  0.74777213  0.74619962  0.74955563  1
  Pr  Pr1  1  0.25222787  0.25380038  0.74955563  1
  Pr  Pr2  1  0.25222787  0.74619962  0.25044437  1
  Pr  Pr3  1  0.74777213  0.25380038  0.25044437  1
  Zr  Zr0  1  0.25319928  0.25562149  0.24970417  1
  Zr  Zr1  1  0.74680072  0.74437851  0.24970417  1
  Zr  Zr2  1  0.74680072  0.25562149  0.75029583  1
  Zr  Zr3  1  0.25319928  0.74437851  0.75029583  1
  O  O0  1  0.01429336  0.21502872  0.28127027  1
  O  O1  1  0.98570664  0.78497128  0.28127027  1
  O  O2  1  0.98570664  0.21502872  0.71872973  1
  O  O3  1  0.01429336  0.78497128  0.71872973  1
  O  O4  1  0.27865870  0.01448717  0.21625400  1
  O  O5  1  0.27865870  0.98551283  0.78374600  1
  O  O6  1  0.72134130  0.98551283  0.21625400  1
  O  O7  1  0.72134130  0.01448717  0.78374600  1
  O  O8  1  0.20470509  0.28944532  0.01342889  1
  O  O9  1  0.79529491  0.28944532  0.98657111  1
  O  O10  1  0.20470509  0.71055468  0.98657111  1
  O  O11  1  0.79529491  0.71055468  0.01342889  1
  O  O12  1  0.48545512  0.29834524  0.20723367  1
  O  O13  1  0.51454488  0.70165476  0.20723367  1
  O  O14  1  0.51454488  0.29834524  0.79276633  1
  O  O15  1  0.48545512  0.70165476  0.79276633  1
  O  O16  1  0.20793153  0.48642527  0.30017681  1
  O  O17  1  0.20793153  0.51357473  0.69982319  1
  O  O18  1  0.79206847  0.51357473  0.30017681  1
  O  O19  1  0.79206847  0.48642527  0.69982319  1
  O  O20  1  0.29752743  0.21050896  0.48568174  1
  O  O21  1  0.70247257  0.21050896  0.51431826  1
  O  O22  1  0.29752743  0.78949104  0.51431826  1
  O  O23  1  0.70247257  0.78949104  0.48568174  1
loop_
_geom_bond_atom_site_label_1
_geom_bond_atom_site_label_2
_geom_bond_distance
_geom_bond_site_symmetry_2
Ba0 O4 3.096557 1_555
Ba0 O6 3.096557 1_445
Ba0 O5 3.096557 1_544
Ba0 O7 3.096557 1_454
Ba0 O3 3.101346 1_544
Ba0 O0 3.101346 1_555
Ba0 O2 3.101346 1_454
Ba0 O1 3.101346 1_445
Ba0 O10 3.113540 1_544
Ba0 O8 3.113540 1_555
Ba0 O9 3.113540 1_454
Ba0 O11 3.113540 1_445
Ba1 O22 3.102875 1_555
Ba1 O20 3.102875 1_555
Ba1 O23 3.102875 1_555
Ba1 O21 3.102875 1_555
Ba1 O19 3.107312 1_555
Ba1 O16 3.107312 1_555
Ba1 O17 3.107312 1_555
Ba1 O18 3.107312 1_555
Ba1 O12 3.113627 1_555
Ba1 O14 3.113627 1_555
Ba1 O15 3.113627 1_555
Ba1 O13 3.113627 1_555
Ba2 O6 2.715670 1_545
Ba2 O4 2.715670 1_555
Ba2 O7 2.715670 1_554
Ba2 O5 2.715670 1_544
Ba2 O13 3.185016 1_545
Ba2 O15 3.185016 1_544
Ba2 O12 3.185016 1_555
Ba2 O14 3.185016 1_554
Ba3 O1 2.688570 1_445
Ba3 O3 2.688570 1_545
Ba3 O0 2.688570 1_555
Ba3 O2 2.688570 1_455
Ba3 O20 3.203428 1_555
Ba3 O22 3.203428 1_545
Ba3 O21 3.203428 1_455
Ba3 O23 3.203428 1_445
O0 Zr0 2.147520 1_555
O0 Pr3 2.382305 1_455
O0 Sr0 3.149291 1_555
O1 Zr1 2.147520 1_555
O1 Pr2 2.382305 1_655
O1 Sr0 3.149291 1_655
O2 Zr2 2.147520 1_555
O2 Pr1 2.382305 1_655
O2 Sr0 3.149291 1_655
O3 Zr3 2.147520 1_555
O3 Pr0 2.382305 1_455
O3 Sr0 3.149291 1_555
O4 Zr0 2.146520 1_555
O4 Pr2 2.383090 1_545
O4 Sr1 3.154998 1_555
O5 Zr3 2.146520 1_555
O5 Pr1 2.383090 1_565
O5 Sr1 3.154998 1_565
O6 Zr1 2.146520 1_555
O6 Pr3 2.383090 1_565
O6 Sr1 3.154998 1_565
O7 Zr2 2.146520 1_555
O7 Pr0 2.383090 1_545
O7 Sr1 3.154998 1_555
O8 Zr0 2.129868 1_555
O8 Pr1 2.365124 1_554
O8 Sr3 2.580777 1_555
O9 Zr2 2.129868 1_555
O9 Pr3 2.365124 1_556
O9 Sr3 2.580777 1_656
O10 Zr3 2.129868 1_555
O10 Pr2 2.365124 1_556
O10 Sr3 2.580777 1_556
O11 Zr1 2.129868 1_555
O11 Pr0 2.365124 1_554
O11 Sr3 2.580777 1_655
O12 Zr0 2.108356 1_555
O12 Pr3 2.368692 1_555
O12 Sr2 2.534978 1_555
O13 Zr1 2.108356 1_555
O13 Pr2 2.368692 1_555
O13 Sr2 2.534978 1_555
O14 Zr2 2.108356 1_555
O14 Pr1 2.368692 1_555
O14 Sr2 2.534978 1_556
O15 Zr3 2.108356 1_555
O15 Pr0 2.368692 1_555
O15 Sr2 2.534978 1_556
O16 Zr0 2.109500 1_555
O16 Pr2 2.351737 1_555
O16 Sr0 2.530953 1_555
O17 Zr3 2.109500 1_555
O17 Pr1 2.351737 1_555
O17 Sr0 2.530953 1_555
O18 Zr1 2.109500 1_555
O18 Pr3 2.351737 1_555
O18 Sr0 2.530953 1_655
O19 Zr2 2.109500 1_555
O19 Pr0 2.351737 1_555
O19 Sr0 2.530953 1_655
O20 Zr0 2.136411 1_555
O20 Pr1 2.371564 1_555
O20 Sr1 2.567215 1_555
O21 Zr2 2.136411 1_555
O21 Pr3 2.371564 1_555
O21 Sr1 2.567215 1_555
O22 Zr3 2.136411 1_555
O22 Pr2 2.371564 1_555
O22 Sr1 2.567215 1_565
O23 Zr1 2.136411 1_555
O23 Pr0 2.371564 1_555
O23 Sr1 2.567215 1_565
