# generated using pymatgen
data_ZnCrSF5
_symmetry_space_group_name_H-M   'P 1'
_cell_length_a   6.01328200
_cell_length_b   6.17909339
_cell_length_c   7.34068705
_cell_angle_alpha   78.70673392
_cell_angle_beta   73.52247257
_cell_angle_gamma   73.78530409
_symmetry_Int_Tables_number   1
_chemical_formula_structural   ZnCrSF5
_chemical_formula_sum   'Zn2 Cr2 S2 F10'
_cell_volume   249.12662890
_cell_formula_units_Z   2
loop_
 _symmetry_equiv_pos_site_id
 _symmetry_equiv_pos_as_xyz
  1  'x, y, z'
loop_
 _atom_site_type_symbol
 _atom_site_label
 _atom_site_symmetry_multiplicity
 _atom_site_fract_x
 _atom_site_fract_y
 _atom_site_fract_z
 _atom_site_occupancy
  Zn  Zn0  1  0.54629100  0.32464100  0.84323500  1
  Zn  Zn1  1  0.25994600  0.00015000  0.32923300  1
  Cr  Cr0  1  0.00705600  0.48781700  0.48924200  1
  Cr  Cr1  1  0.98407900  0.48611300  0.00103300  1
  S  S0  1  0.47141200  0.03797300  0.70605700  1
  S  S1  1  0.56661500  0.09679400  0.43222300  1
  F  F0  1  0.21867100  0.16857300  0.07694100  1
  F  F1  1  0.01699600  0.16820200  0.54389100  1
  F  F2  1  0.77627200  0.77065200  0.97184700  1
  F  F3  1  0.04402600  0.79823300  0.39253300  1
  F  F4  1  0.34026100  0.39891500  0.34247600  1
  F  F5  1  0.75475700  0.31025000  0.00808500  1
  F  F6  1  0.68041700  0.55180700  0.63578900  1
  F  F7  1  0.27872300  0.57694800  0.96513500  1
  F  F8  1  0.87581300  0.49440800  0.27544400  1
  F  F9  1  0.11068100  0.47776000  0.71970300  1
loop_
_geom_bond_atom_site_label_1
_geom_bond_atom_site_label_2
_geom_bond_distance
_geom_bond_site_symmetry_2
Cr0 F1 1.924118 1_555
Cr0 F6 1.925042 1_455
Cr0 F8 1.935777 1_455
Cr0 F9 1.946624 1_555
Cr0 F3 1.961571 1_555
Cr0 F4 1.967142 1_555
Cr1 F2 1.864402 1_554
Cr1 F7 1.938108 1_654
Cr1 F8 1.939588 1_555
Cr1 F5 1.964553 1_555
Cr1 F9 1.993748 1_654
Cr1 F0 2.149942 1_655
S0 S1 1.917736 1_555
S0 Zn0 2.399100 1_555
S1 Zn1 2.431368 1_555
F0 Zn1 1.983980 1_555
F1 Zn1 2.045308 1_555
F3 Zn1 1.947763 1_565
F4 S1 2.092767 1_555
F5 Zn0 1.949318 1_554
F6 Zn0 2.009497 1_555
F7 Zn0 2.036864 1_555
