# generated using pymatgen
data_Ca3RhN3
_symmetry_space_group_name_H-M   'P 1'
_cell_length_a   7.29271414
_cell_length_b   7.29724511
_cell_length_c   4.95551802
_cell_angle_alpha   90.00000000
_cell_angle_beta   90.00000000
_cell_angle_gamma   119.77866698
_symmetry_Int_Tables_number   1
_chemical_formula_structural   Ca3RhN3
_chemical_formula_sum   'Ca6 Rh2 N6'
_cell_volume   228.89278741
_cell_formula_units_Z   2
loop_
 _symmetry_equiv_pos_site_id
 _symmetry_equiv_pos_as_xyz
  1  'x, y, z'
loop_
 _atom_site_type_symbol
 _atom_site_label
 _atom_site_symmetry_multiplicity
 _atom_site_fract_x
 _atom_site_fract_y
 _atom_site_fract_z
 _atom_site_occupancy
  Ca  Ca0  1  0.90387045  0.63482886  0.25000000  1
  Ca  Ca1  1  0.73553140  0.09579234  0.25000000  1
  Ca  Ca2  1  0.36179933  0.26677176  0.25000000  1
  Ca  Ca3  1  0.09612955  0.36517114  0.75000000  1
  Ca  Ca4  1  0.26446860  0.90420766  0.75000000  1
  Ca  Ca5  1  0.63820067  0.73322824  0.75000000  1
  Rh  Rh0  1  0.66571588  0.33172907  0.75000000  1
  Rh  Rh1  1  0.33428412  0.66827093  0.25000000  1
  N  N0  1  0.89975693  0.61134398  0.75000000  1
  N  N1  1  0.71541551  0.09988162  0.75000000  1
  N  N2  1  0.38533791  0.28564971  0.75000000  1
  N  N3  1  0.10024307  0.38865602  0.25000000  1
  N  N4  1  0.28458449  0.90011838  0.25000000  1
  N  N5  1  0.61466209  0.71435029  0.25000000  1
loop_
_geom_bond_atom_site_label_1
_geom_bond_atom_site_label_2
_geom_bond_distance
_geom_bond_site_symmetry_2
Ca0 N5 2.449651 1_555
Ca0 N4 2.473337 1_655
Ca0 N0 2.482832 1_555
Ca0 N0 2.482832 1_554
Ca0 N3 2.798790 1_655
Ca1 N3 2.448540 1_655
Ca1 N5 2.467310 1_545
Ca1 N1 2.483153 1_554
Ca1 N1 2.483153 1_555
Ca1 N4 2.861747 1_545
Ca2 N4 2.445235 1_545
Ca2 N3 2.472775 1_555
Ca2 N2 2.482790 1_554
Ca2 N2 2.482790 1_555
Ca2 N5 2.843480 1_555
Ca3 N2 2.449651 1_555
Ca3 N1 2.473337 1_455
Ca3 N3 2.482832 1_556
Ca3 N3 2.482832 1_555
Ca3 N0 2.798790 1_455
Ca4 N0 2.448540 1_455
Ca4 N2 2.467310 1_565
Ca4 N4 2.483153 1_555
Ca4 N4 2.483153 1_556
Ca4 N1 2.861747 1_565
Ca5 N1 2.445235 1_565
Ca5 N0 2.472775 1_555
Ca5 N5 2.482790 1_555
Ca5 N5 2.482790 1_556
Ca5 N2 2.843480 1_555
N0 Rh0 1.901896 1_555
N1 Rh0 1.898107 1_555
N2 Rh0 1.900262 1_555
N3 Rh1 1.901896 1_555
N4 Rh1 1.898107 1_555
N5 Rh1 1.900262 1_555
