# generated using pymatgen
data_SmPu
_symmetry_space_group_name_H-M   'P 1'
_cell_length_a   7.23776891
_cell_length_b   7.23776891
_cell_length_c   11.83204400
_cell_angle_alpha   90.00000000
_cell_angle_beta   90.00000000
_cell_angle_gamma   120.00000827
_symmetry_Int_Tables_number   1
_chemical_formula_structural   SmPu
_chemical_formula_sum   'Sm8 Pu8'
_cell_volume   536.78428925
_cell_formula_units_Z   8
loop_
 _symmetry_equiv_pos_site_id
 _symmetry_equiv_pos_as_xyz
  1  'x, y, z'
loop_
 _atom_site_type_symbol
 _atom_site_label
 _atom_site_symmetry_multiplicity
 _atom_site_fract_x
 _atom_site_fract_y
 _atom_site_fract_z
 _atom_site_occupancy
  Sm  Sm0_0  1  0.33333350  0.16666650  0.00000000  1
  Sm  Sm0_1  1  0.33333350  0.16666650  0.50000000  1
  Sm  Sm0_2  1  0.33333350  0.66666650  0.00000000  1
  Sm  Sm0_3  1  0.33333350  0.66666650  0.50000000  1
  Sm  Sm0_4  1  0.83333350  0.16666650  0.00000000  1
  Sm  Sm0_5  1  0.83333350  0.16666650  0.50000000  1
  Sm  Sm0_6  1  0.83333350  0.66666650  0.00000000  1
  Sm  Sm0_7  1  0.83333350  0.66666650  0.50000000  1
  Pu  Pu0_0  1  0.00000000  0.00000000  0.25000000  1
  Pu  Pu0_1  1  0.00000000  0.00000000  0.75000000  1
  Pu  Pu0_2  1  0.00000000  0.50000000  0.25000000  1
  Pu  Pu0_3  1  0.00000000  0.50000000  0.75000000  1
  Pu  Pu0_4  1  0.50000000  0.00000000  0.25000000  1
  Pu  Pu0_5  1  0.50000000  0.00000000  0.75000000  1
  Pu  Pu0_6  1  0.50000000  0.50000000  0.25000000  1
  Pu  Pu0_7  1  0.50000000  0.50000000  0.75000000  1
loop_
_geom_bond_atom_site_label_1
_geom_bond_atom_site_label_2
_geom_bond_distance
_geom_bond_site_symmetry_2
Sm0_0 Sm0_6 3.618884 1_445
Sm0_0 Sm0_6 3.618884 1_555
Sm0_0 Sm0_4 3.618884 1_455
Sm0_0 Sm0_2 3.618884 1_555
Sm0_0 Sm0_2 3.618884 1_545
Sm0_0 Sm0_4 3.618884 1_555
Sm0_1 Sm0_7 3.618884 1_445
Sm0_1 Sm0_7 3.618884 1_555
Sm0_1 Sm0_5 3.618884 1_455
Sm0_1 Sm0_3 3.618884 1_555
Sm0_1 Sm0_5 3.618884 1_555
Sm0_1 Sm0_3 3.618884 1_545
Sm0_2 Sm0_4 3.618884 1_455
Sm0_2 Sm0_4 3.618884 1_565
Sm0_2 Sm0_6 3.618884 1_455
Sm0_2 Sm0_6 3.618884 1_555
Sm0_3 Sm0_5 3.618884 1_455
Sm0_3 Sm0_5 3.618884 1_565
Sm0_3 Sm0_7 3.618884 1_455
Sm0_3 Sm0_7 3.618884 1_555
Sm0_4 Sm0_6 3.618884 1_555
Sm0_4 Sm0_6 3.618884 1_545
Sm0_5 Sm0_7 3.618884 1_545
Sm0_5 Sm0_7 3.618884 1_555
Pu0_0 Pu0_6 3.618884 1_445
Pu0_0 Pu0_6 3.618884 1_555
Pu0_0 Pu0_2 3.618884 1_555
Pu0_0 Pu0_2 3.618884 1_545
Pu0_0 Pu0_4 3.618884 1_455
Pu0_0 Pu0_4 3.618884 1_555
Pu0_0 Sm0_4 3.621500 1_455
Pu0_0 Sm0_5 3.621500 1_455
Pu0_0 Sm0_6 3.621502 1_445
Pu0_0 Sm0_0 3.621502 1_555
Pu0_0 Sm0_7 3.621502 1_445
Pu0_0 Sm0_1 3.621502 1_555
Pu0_1 Pu0_7 3.618884 1_555
Pu0_1 Pu0_7 3.618884 1_445
Pu0_1 Pu0_5 3.618884 1_555
Pu0_1 Pu0_3 3.618884 1_545
Pu0_1 Pu0_3 3.618884 1_555
Pu0_1 Pu0_5 3.618884 1_455
Pu0_1 Sm0_4 3.621500 1_456
Pu0_1 Sm0_5 3.621500 1_455
Pu0_1 Sm0_0 3.621502 1_556
Pu0_1 Sm0_6 3.621502 1_446
Pu0_1 Sm0_1 3.621502 1_555
Pu0_1 Sm0_7 3.621502 1_445
Pu0_2 Pu0_4 3.618884 1_565
Pu0_2 Pu0_4 3.618884 1_455
Pu0_2 Pu0_6 3.618884 1_455
Pu0_2 Pu0_6 3.618884 1_555
Pu0_2 Sm0_6 3.621500 1_455
Pu0_2 Sm0_7 3.621500 1_455
Pu0_2 Sm0_4 3.621502 1_455
Pu0_2 Sm0_5 3.621502 1_455
Pu0_2 Sm0_2 3.621502 1_555
Pu0_2 Sm0_3 3.621502 1_555
Pu0_3 Pu0_5 3.618884 1_455
Pu0_3 Pu0_5 3.618884 1_565
Pu0_3 Pu0_7 3.618884 1_455
Pu0_3 Pu0_7 3.618884 1_555
Pu0_3 Sm0_6 3.621500 1_456
Pu0_3 Sm0_7 3.621500 1_455
Pu0_3 Sm0_4 3.621502 1_456
Pu0_3 Sm0_2 3.621502 1_556
Pu0_3 Sm0_5 3.621502 1_455
Pu0_3 Sm0_3 3.621502 1_555
Pu0_4 Pu0_6 3.618884 1_555
Pu0_4 Pu0_6 3.618884 1_545
Pu0_4 Sm0_1 3.621500 1_555
Pu0_4 Sm0_0 3.621500 1_555
Pu0_4 Sm0_4 3.621502 1_555
Pu0_4 Sm0_5 3.621502 1_555
Pu0_4 Sm0_3 3.621502 1_545
Pu0_4 Sm0_2 3.621502 1_545
Pu0_5 Pu0_7 3.618884 1_545
Pu0_5 Pu0_7 3.618884 1_555
Pu0_5 Sm0_1 3.621500 1_555
Pu0_5 Sm0_0 3.621500 1_556
Pu0_5 Sm0_2 3.621502 1_546
Pu0_5 Sm0_4 3.621502 1_556
Pu0_5 Sm0_5 3.621502 1_555
Pu0_5 Sm0_3 3.621502 1_545
Pu0_6 Sm0_2 3.621500 1_555
Pu0_6 Sm0_3 3.621500 1_555
Pu0_6 Sm0_7 3.621502 1_555
Pu0_6 Sm0_1 3.621502 1_555
Pu0_6 Sm0_6 3.621502 1_555
Pu0_6 Sm0_0 3.621502 1_555
Pu0_7 Sm0_2 3.621500 1_556
Pu0_7 Sm0_3 3.621500 1_555
Pu0_7 Sm0_0 3.621502 1_556
Pu0_7 Sm0_6 3.621502 1_556
Pu0_7 Sm0_1 3.621502 1_555
Pu0_7 Sm0_7 3.621502 1_555
