# generated using pymatgen
data_TiCrCuS4
_symmetry_space_group_name_H-M   'P 1'
_cell_length_a   6.28727185
_cell_length_b   7.23860519
_cell_length_c   12.18977825
_cell_angle_alpha   81.51732843
_cell_angle_beta   84.97342570
_cell_angle_gamma   89.95094145
_symmetry_Int_Tables_number   1
_chemical_formula_structural   TiCrCuS4
_chemical_formula_sum   'Ti4 Cr4 Cu4 S16'
_cell_volume   546.54984467
_cell_formula_units_Z   4
loop_
 _symmetry_equiv_pos_site_id
 _symmetry_equiv_pos_as_xyz
  1  'x, y, z'
loop_
 _atom_site_type_symbol
 _atom_site_label
 _atom_site_symmetry_multiplicity
 _atom_site_fract_x
 _atom_site_fract_y
 _atom_site_fract_z
 _atom_site_occupancy
  Ti  Ti0  1  0.13898300  0.70191400  0.70137700  1
  Ti  Ti1  1  0.86101700  0.29808600  0.29862300  1
  Ti  Ti2  1  0.23732100  0.88489600  0.00065600  1
  Ti  Ti3  1  0.76267900  0.11510400  0.99934400  1
  Cr  Cr0  1  0.36800500  0.55681500  0.29516100  1
  Cr  Cr1  1  0.63199500  0.44318500  0.70483900  1
  Cr  Cr2  1  0.36704900  0.04509300  0.29873000  1
  Cr  Cr3  1  0.63295100  0.95490700  0.70127000  1
  Cu  Cu0  1  0.12805000  0.19942400  0.70128700  1
  Cu  Cu1  1  0.87195000  0.80057600  0.29871300  1
  Cu  Cu2  1  0.25345800  0.37471600  0.99795300  1
  Cu  Cu3  1  0.74654100  0.62528400  0.00204700  1
  S  S0  1  0.10538200  0.65199300  0.89048200  1
  S  S1  1  0.89461800  0.34800700  0.10951800  1
  S  S2  1  0.10000900  0.14996000  0.89181700  1
  S  S3  1  0.89999100  0.85004000  0.10818300  1
  S  S4  1  0.19290800  0.78054500  0.36788400  1
  S  S5  1  0.80709200  0.21945500  0.63211600  1
  S  S6  1  0.19288200  0.28543000  0.36959800  1
  S  S7  1  0.80711800  0.71457000  0.63040200  1
  S  S8  1  0.31408500  0.97107400  0.62754300  1
  S  S9  1  0.68591500  0.02892600  0.37245700  1
  S  S10  1  0.31612900  0.46245800  0.63157300  1
  S  S11  1  0.68387100  0.53754200  0.36842700  1
  S  S12  1  0.40458100  0.09480100  0.10944300  1
  S  S13  1  0.59541900  0.90519900  0.89055700  1
  S  S14  1  0.39445300  0.60154300  0.11071900  1
  S  S15  1  0.60554700  0.39845700  0.88928100  1
loop_
_geom_bond_atom_site_label_1
_geom_bond_atom_site_label_2
_geom_bond_distance
_geom_bond_site_symmetry_2
Cr0 S4 2.206812 1_555
Cr0 S14 2.215217 1_555
Cr0 S11 2.243790 1_555
Cr0 S6 2.279791 1_555
Cr1 S5 2.206812 1_555
Cr1 S15 2.215217 1_555
Cr1 S10 2.243790 1_555
Cr1 S7 2.279791 1_555
Cr2 S4 2.223068 1_545
Cr2 S9 2.263823 1_555
Cr2 S12 2.273520 1_555
Cr2 S6 2.290477 1_555
Cr3 S5 2.223068 1_565
Cr3 S8 2.263823 1_555
Cr3 S13 2.273520 1_555
Cr3 S7 2.290477 1_555
Cu0 S5 2.250709 1_455
Cu0 S10 2.257455 1_555
Cu0 S8 2.271376 1_545
Cu0 S2 2.288318 1_555
Cu1 S4 2.250709 1_655
Cu1 S11 2.257455 1_555
Cu1 S9 2.271376 1_565
Cu1 S3 2.288318 1_555
Cu2 S0 2.458906 1_555
Cu2 S2 2.468584 1_555
Cu2 S15 2.470694 1_555
Cu2 S14 2.500617 1_556
Cu2 S12 2.503164 1_556
Cu2 S1 2.522393 1_456
Cu3 S1 2.458909 1_555
Cu3 S3 2.468587 1_555
Cu3 S14 2.470689 1_555
Cu3 S15 2.500615 1_554
Cu3 S13 2.503161 1_554
Cu3 S0 2.522398 1_654
S0 Ti0 2.271115 1_555
S0 Ti2 2.489898 1_556
S1 Ti1 2.271115 1_555
S1 Ti3 2.489898 1_554
S2 Ti2 2.373558 1_546
S2 Ti3 2.386638 1_455
S3 Ti3 2.373558 1_564
S3 Ti2 2.386638 1_655
S6 Ti1 2.324462 1_455
S7 Ti0 2.324462 1_655
S8 Ti0 2.265126 1_555
S9 Ti1 2.265126 1_555
S10 Ti0 2.287939 1_555
S11 Ti1 2.287939 1_555
S12 Ti2 2.452462 1_545
S12 Ti3 2.510922 1_554
S13 Ti3 2.452462 1_565
S13 Ti2 2.510922 1_556
S14 Ti2 2.529802 1_555
S15 Ti3 2.529802 1_555
