# generated using pymatgen
data_Er5Ir3
_symmetry_space_group_name_H-M   'P 1'
_cell_length_a   6.29610718
_cell_length_b   10.71740512
_cell_length_c   10.71740308
_cell_angle_alpha   90.00002181
_cell_angle_beta   90.00000000
_cell_angle_gamma   90.00000000
_symmetry_Int_Tables_number   1
_chemical_formula_structural   Er5Ir3
_chemical_formula_sum   'Er20 Ir12'
_cell_volume   723.18818904
_cell_formula_units_Z   4
loop_
 _symmetry_equiv_pos_site_id
 _symmetry_equiv_pos_as_xyz
  1  'x, y, z'
loop_
 _atom_site_type_symbol
 _atom_site_label
 _atom_site_symmetry_multiplicity
 _atom_site_fract_x
 _atom_site_fract_y
 _atom_site_fract_z
 _atom_site_occupancy
  Er  Er0  1  0.50000000  0.50000000  0.50000000  1
  Er  Er1  1  -0.00000000  0.50000000  0.50000000  1
  Er  Er2  1  0.49999900  0.00000000  -0.00000000  1
  Er  Er3  1  -0.00000000  0.00000000  -0.00000000  1
  Er  Er4  1  0.38162095  0.58765512  0.79164634  1
  Er  Er5  1  0.88162095  0.58765512  0.20835266  1
  Er  Er6  1  0.61838006  0.91234134  0.70834605  1
  Er  Er7  1  0.11838106  0.08765966  0.70834605  1
  Er  Er8  1  0.38162095  0.41234488  0.20835366  1
  Er  Er9  1  0.88162095  0.41234488  0.79164734  1
  Er  Er10  1  0.61838006  0.08765866  0.29165395  1
  Er  Er11  1  0.11838106  0.91234034  0.29165395  1
  Er  Er12  1  0.61837905  0.79164734  0.41234388  1
  Er  Er13  1  0.11837805  0.20835366  0.41234488  1
  Er  Er14  1  0.38161994  0.29165295  0.91233934  1
  Er  Er15  1  0.88161994  0.70834705  0.91234034  1
  Er  Er16  1  0.61837905  0.20835266  0.58765612  1
  Er  Er17  1  0.11837805  0.79164634  0.58765512  1
  Er  Er18  1  0.38161994  0.70834705  0.08766066  1
  Er  Er19  1  0.88161994  0.29165295  0.08765966  1
  Ir  Ir0  1  0.37209482  0.00000000  0.50000000  1
  Ir  Ir1  1  0.87209482  0.00000000  0.50000000  1
  Ir  Ir2  1  0.62790518  0.50000000  -0.00000000  1
  Ir  Ir3  1  0.12790518  0.50000000  -0.00000000  1
  Ir  Ir4  1  0.75000000  0.65357939  0.65357939  1
  Ir  Ir5  1  0.25000000  0.65357939  0.34642061  1
  Ir  Ir6  1  0.25000000  0.84641157  0.84641157  1
  Ir  Ir7  1  0.75000000  0.15358843  0.84641157  1
  Ir  Ir8  1  0.75000000  0.34642061  0.34642061  1
  Ir  Ir9  1  0.25000000  0.34642061  0.65357939  1
  Ir  Ir10  1  0.25000000  0.15358843  0.15358843  1
  Ir  Ir11  1  0.75000000  0.84641157  0.15358843  1
loop_
_geom_bond_atom_site_label_1
_geom_bond_atom_site_label_2
_geom_bond_distance
_geom_bond_site_symmetry_2
Er0 Ir4 2.809984 1_555
Er0 Ir8 2.809984 1_555
Er0 Ir9 2.809984 1_555
Er0 Ir5 2.809984 1_555
Er0 Er1 3.148054 1_655
Er0 Er1 3.148054 1_555
Er0 Er8 3.347835 1_555
Er0 Er4 3.347835 1_555
Er0 Er12 3.347849 1_555
Er0 Er16 3.347849 1_555
Er1 Ir4 2.809984 1_455
Er1 Ir8 2.809984 1_455
Er1 Ir9 2.809984 1_555
Er1 Ir5 2.809984 1_555
Er1 Er17 3.347834 1_555
Er1 Er13 3.347834 1_555
Er1 Er9 3.347845 1_455
Er1 Er5 3.347845 1_455
Er2 Ir6 2.810094 1_544
Er2 Ir10 2.810094 1_555
Er2 Ir11 2.810101 1_545
Er2 Ir7 2.810101 1_554
Er2 Er3 3.148047 1_555
Er2 Er3 3.148060 1_655
Er2 Er6 3.347924 1_544
Er3 Ir6 2.810097 1_544
Er3 Ir10 2.810097 1_555
Er3 Ir7 2.810098 1_454
Er3 Ir11 2.810098 1_445
Er3 Er7 3.347928 1_554
Er4 Ir4 2.840452 1_555
Er4 Ir2 2.876340 1_556
Er4 Ir3 2.901832 1_556
Er4 Ir6 2.953281 1_555
Er4 Ir9 3.092029 1_555
Er5 Ir5 2.840457 1_655
Er5 Ir3 2.876332 1_655
Er5 Ir2 2.901824 1_555
Er5 Ir11 2.953279 1_555
Er5 Ir8 3.092035 1_555
Er6 Ir6 2.840464 1_555
Er6 Ir0 2.876293 1_565
Er6 Ir1 2.901778 1_565
Er6 Ir4 2.953337 1_555
Er6 Ir7 3.092133 1_565
Er7 Ir7 2.840466 1_455
Er7 Ir1 2.876299 1_455
Er7 Ir0 2.901778 1_555
Er7 Ir9 2.953326 1_555
Er7 Ir6 3.092141 1_545
Er8 Ir8 2.840452 1_555
Er8 Ir2 2.876340 1_555
Er8 Ir3 2.901832 1_555
Er8 Ir10 2.953281 1_555
Er8 Ir5 3.092029 1_555
Er9 Ir9 2.840457 1_655
Er9 Ir3 2.876332 1_656
Er9 Ir2 2.901824 1_556
Er9 Ir7 2.953279 1_555
Er9 Ir4 3.092035 1_555
Er10 Ir10 2.840464 1_555
Er10 Ir0 2.876293 1_555
Er10 Ir1 2.901778 1_555
Er10 Ir8 2.953337 1_555
Er10 Ir11 3.092133 1_545
Er10 Er2 3.347924 1_555
Er11 Ir11 2.840466 1_455
Er11 Ir1 2.876299 1_465
Er11 Ir0 2.901778 1_565
Er11 Ir5 2.953326 1_555
Er11 Ir10 3.092141 1_565
Er11 Er3 3.347928 1_565
Er12 Ir5 2.840455 1_555
Er12 Ir0 2.876335 1_565
Er12 Ir1 2.901827 1_565
Er12 Ir11 2.953268 1_555
Er12 Ir4 3.092044 1_555
Er13 Ir8 2.840447 1_455
Er13 Ir1 2.876337 1_455
Er13 Ir0 2.901836 1_555
Er13 Ir10 2.953282 1_555
Er13 Ir9 3.092030 1_555
Er14 Ir7 2.840453 1_555
Er14 Ir2 2.876308 1_556
Er14 Ir3 2.901793 1_556
Er14 Ir9 2.953319 1_555
Er14 Ir10 3.092146 1_556
Er14 Er2 3.347919 1_556
Er15 Ir6 2.840456 1_655
Er15 Ir3 2.876305 1_656
Er15 Ir2 2.901790 1_556
Er15 Ir4 2.953329 1_555
Er15 Ir11 3.092136 1_556
Er15 Er3 3.347916 1_666
Er16 Ir9 2.840455 1_555
Er16 Ir0 2.876335 1_555
Er16 Ir1 2.901827 1_555
Er16 Ir7 2.953268 1_555
Er16 Ir8 3.092044 1_555
Er17 Ir4 2.840447 1_455
Er17 Ir1 2.876337 1_465
Er17 Ir0 2.901836 1_565
Er17 Ir6 2.953282 1_555
Er17 Ir5 3.092030 1_555
Er18 Ir11 2.840453 1_555
Er18 Ir2 2.876308 1_555
Er18 Ir3 2.901793 1_555
Er18 Ir5 2.953319 1_555
Er18 Ir6 3.092146 1_554
Er18 Er2 3.347919 1_565
Er19 Ir10 2.840456 1_655
Er19 Ir3 2.876305 1_655
Er19 Ir2 2.901790 1_555
Er19 Ir8 2.953329 1_555
Er19 Ir7 3.092136 1_554
Er19 Er3 3.347916 1_655
Ir0 Ir1 3.148054 1_455
Ir0 Ir1 3.148054 1_555
Ir2 Ir3 3.148054 1_655
Ir2 Ir3 3.148054 1_555
