# generated using pymatgen
data_Li4Mn3(FeO4)3
_symmetry_space_group_name_H-M   'P 1'
_cell_length_a   5.13378200
_cell_length_b   6.00692906
_cell_length_c   7.94440924
_cell_angle_alpha   78.70390960
_cell_angle_beta   78.15957972
_cell_angle_gamma   73.05872918
_symmetry_Int_Tables_number   1
_chemical_formula_structural   Li4Mn3(FeO4)3
_chemical_formula_sum   'Li4 Mn3 Fe3 O12'
_cell_volume   226.93752112
_cell_formula_units_Z   1
loop_
 _symmetry_equiv_pos_site_id
 _symmetry_equiv_pos_as_xyz
  1  'x, y, z'
loop_
 _atom_site_type_symbol
 _atom_site_label
 _atom_site_symmetry_multiplicity
 _atom_site_fract_x
 _atom_site_fract_y
 _atom_site_fract_z
 _atom_site_occupancy
  Li  Li0  1  0.49999800  0.83431300  0.16756100  1
  Li  Li1  1  0.50000200  0.16568700  0.83243900  1
  Li  Li2  1  0.00327200  0.66749000  0.33470200  1
  Li  Li3  1  0.99672800  0.33251000  0.66529800  1
  Mn  Mn0  1  0.00364900  0.82999800  0.66959600  1
  Mn  Mn1  1  0.00000000  0.50000000  0.00000000  1
  Mn  Mn2  1  0.99635100  0.17000200  0.33040400  1
  Fe  Fe0  1  0.49811200  0.66671600  0.83276600  1
  Fe  Fe1  1  0.50188800  0.33328400  0.16723400  1
  Fe  Fe2  1  0.50000000  0.00000000  0.50000000  1
  O  O0  1  0.75800800  0.80211500  0.91582500  1
  O  O1  1  0.26155100  0.97603000  0.73198100  1
  O  O2  1  0.76069300  0.68716300  0.59648100  1
  O  O3  1  0.74797200  0.36096000  0.92511500  1
  O  O4  1  0.22997800  0.86723200  0.41434100  1
  O  O5  1  0.22463100  0.51533400  0.77184500  1
  O  O6  1  0.77536900  0.48466600  0.22815500  1
  O  O7  1  0.77002200  0.13276800  0.58565900  1
  O  O8  1  0.25202800  0.63904000  0.07488500  1
  O  O9  1  0.23930700  0.31283700  0.40351900  1
  O  O10  1  0.73844900  0.02397000  0.26801900  1
  O  O11  1  0.24199200  0.19788500  0.08417500  1
loop_
_geom_bond_atom_site_label_1
_geom_bond_atom_site_label_2
_geom_bond_distance
_geom_bond_site_symmetry_2
Li0 O4 2.163610 1_555
Li0 O0 2.169474 1_554
Li0 O6 2.189597 1_555
Li0 O10 2.236800 1_565
Li0 O11 2.251748 1_565
Li0 O8 2.265341 1_555
Li1 O7 2.163610 1_555
Li1 O11 2.169474 1_556
Li1 O5 2.189597 1_555
Li1 O1 2.236800 1_545
Li1 O0 2.251748 1_545
Li1 O3 2.265341 1_555
Li2 O4 2.146592 1_555
Li2 O9 2.148691 1_555
Li2 O6 2.193370 1_455
Li2 O2 2.199455 1_455
Li2 O8 2.202234 1_555
Li2 O10 2.206559 1_465
Li3 O7 2.146592 1_555
Li3 O2 2.148691 1_555
Li3 O5 2.193370 1_655
Li3 O9 2.199455 1_655
Li3 O3 2.202234 1_555
Li3 O1 2.206559 1_645
Mn0 O2 1.935330 1_455
Mn0 O7 1.942364 1_465
Mn0 O1 1.970937 1_555
Mn0 O5 2.011612 1_555
Mn0 O0 2.104106 1_455
Mn0 O4 2.125821 1_555
Mn1 O5 1.939703 1_554
Mn1 O6 1.939703 1_455
Mn1 O0 1.958467 1_454
Mn1 O11 1.958467 1_555
Mn1 O3 1.966181 1_454
Mn1 O8 1.966181 1_555
Mn2 O9 1.935330 1_655
Mn2 O4 1.942364 1_645
Mn2 O10 1.970937 1_555
Mn2 O6 2.011612 1_555
Mn2 O11 2.104106 1_655
Mn2 O7 2.125821 1_555
Fe0 O3 2.010537 1_555
Fe0 O1 2.017284 1_555
Fe0 O0 2.020177 1_555
Fe0 O5 2.056123 1_555
Fe0 O8 2.079279 1_556
Fe0 O2 2.079349 1_555
Fe1 O8 2.010537 1_555
Fe1 O10 2.017284 1_555
Fe1 O11 2.020177 1_555
Fe1 O6 2.056123 1_555
Fe1 O3 2.079279 1_554
Fe1 O9 2.079349 1_555
Fe2 O1 1.997168 1_545
Fe2 O10 1.997168 1_555
Fe2 O7 2.065147 1_555
Fe2 O4 2.065147 1_545
Fe2 O9 2.073886 1_555
Fe2 O2 2.073886 1_545
