# generated using pymatgen
data_K7NbAs4
_symmetry_space_group_name_H-M   'P 1'
_cell_length_a   8.33512370
_cell_length_b   9.15761332
_cell_length_c   10.26483126
_cell_angle_alpha   90.00000000
_cell_angle_beta   90.00000000
_cell_angle_gamma   90.00000000
_symmetry_Int_Tables_number   1
_chemical_formula_structural   K7NbAs4
_chemical_formula_sum   'K14 Nb2 As8'
_cell_volume   783.51292584
_cell_formula_units_Z   2
loop_
 _symmetry_equiv_pos_site_id
 _symmetry_equiv_pos_as_xyz
  1  'x, y, z'
loop_
 _atom_site_type_symbol
 _atom_site_label
 _atom_site_symmetry_multiplicity
 _atom_site_fract_x
 _atom_site_fract_y
 _atom_site_fract_z
 _atom_site_occupancy
  K  K0  1  0.70721813  0.83572533  0.71671388  1
  K  K1  1  0.20721813  0.16427467  0.78328612  1
  K  K2  1  0.20721813  0.16427467  0.21671388  1
  K  K3  1  0.70721813  0.83572533  0.28328612  1
  K  K4  1  0.87299687  0.46722980  0.71099176  1
  K  K5  1  0.37299687  0.53277020  0.78900824  1
  K  K6  1  0.37299687  0.53277020  0.21099176  1
  K  K7  1  0.87299687  0.46722980  0.28900824  1
  K  K8  1  0.16265398  0.66149593  0.50000000  1
  K  K9  1  0.66265398  0.33850407  0.00000000  1
  K  K10  1  0.87406392  0.03833595  0.00000000  1
  K  K11  1  0.37406392  0.96166405  0.50000000  1
  K  K12  1  0.39189444  0.89945951  0.00000000  1
  K  K13  1  0.89189444  0.10054049  0.50000000  1
  Nb  Nb0  1  0.99853620  0.67496397  0.00000000  1
  Nb  Nb1  1  0.49853620  0.32503603  0.50000000  1
  As  As0  1  0.69952418  0.68297659  0.00000000  1
  As  As1  1  0.19952418  0.31702341  0.50000000  1
  As  As2  1  0.09359830  0.80839276  0.79646292  1
  As  As3  1  0.59359830  0.19160724  0.70353708  1
  As  As4  1  0.59359830  0.19160724  0.29646292  1
  As  As5  1  0.09359830  0.80839276  0.20353708  1
  As  As6  1  0.57831269  0.58978039  0.50000000  1
  As  As7  1  0.07831269  0.41021961  0.00000000  1
loop_
_geom_bond_atom_site_label_1
_geom_bond_atom_site_label_2
_geom_bond_distance
_geom_bond_site_symmetry_2
K10 K9 3.265138 1_555
K10 Nb0 3.485605 1_545
K11 K8 3.265138 1_555
K11 Nb1 3.485605 1_565
As0 Nb0 2.493382 1_555
As0 K9 3.169480 1_555
As0 K0 3.227473 1_554
As0 K3 3.227473 1_555
As0 K12 3.241134 1_555
As0 K10 3.564628 1_565
As0 K5 3.740336 1_554
As0 K6 3.740336 1_555
As1 Nb1 2.493382 1_555
As1 K8 3.169480 1_555
As1 K1 3.227473 1_555
As1 K2 3.227473 1_555
As1 K13 3.241134 1_455
As1 K11 3.564628 1_545
As1 K7 3.740336 1_455
As1 K4 3.740336 1_455
As2 Nb0 2.546744 1_456
As2 K0 3.332351 1_455
As2 K12 3.352970 1_556
As2 K8 3.376632 1_555
As2 K1 3.396534 1_565
As2 K5 3.435123 1_555
As2 K10 3.485327 1_466
As2 K4 3.729822 1_455
As3 Nb1 2.546744 1_555
As3 K1 3.332351 1_555
As3 K13 3.352970 1_555
As3 K9 3.376632 1_556
As3 K0 3.396534 1_545
As3 K4 3.435123 1_555
As3 K11 3.485327 1_545
As3 K5 3.729822 1_555
As4 Nb1 2.546744 1_555
As4 K2 3.332351 1_555
As4 K13 3.352970 1_555
As4 K9 3.376632 1_555
As4 K3 3.396534 1_545
As4 K7 3.435123 1_555
As4 K11 3.485327 1_545
As4 K6 3.729822 1_555
As5 Nb0 2.546744 1_455
As5 K3 3.332351 1_455
As5 K12 3.352970 1_555
As5 K8 3.376632 1_555
As5 K2 3.396534 1_565
As5 K6 3.435123 1_555
As5 K10 3.485327 1_465
As5 K7 3.729822 1_455
As6 Nb1 2.513961 1_555
As6 K3 3.343005 1_555
As6 K0 3.343005 1_555
As6 K4 3.461679 1_555
As6 K7 3.461679 1_555
As6 K6 3.464399 1_555
As6 K5 3.464399 1_555
As6 K8 3.526264 1_555
As6 K11 3.807385 1_555
As7 Nb0 2.513961 1_455
As7 K2 3.343005 1_555
As7 K1 3.343005 1_554
As7 K5 3.461679 1_554
As7 K6 3.461679 1_555
As7 K7 3.464399 1_455
As7 K4 3.464399 1_454
As7 K9 3.526264 1_455
As7 K10 3.807385 1_455
