# generated using pymatgen
data_CaMg
_symmetry_space_group_name_H-M   'P 1'
_cell_length_a   7.15597400
_cell_length_b   11.45914000
_cell_length_c   11.98878800
_cell_angle_alpha   90.00000000
_cell_angle_beta   90.00000000
_cell_angle_gamma   90.00000000
_symmetry_Int_Tables_number   1
_chemical_formula_structural   CaMg
_chemical_formula_sum   'Ca16 Mg16'
_cell_volume   983.09629616
_cell_formula_units_Z   16
loop_
 _symmetry_equiv_pos_site_id
 _symmetry_equiv_pos_as_xyz
  1  'x, y, z'
loop_
 _atom_site_type_symbol
 _atom_site_label
 _atom_site_symmetry_multiplicity
 _atom_site_fract_x
 _atom_site_fract_y
 _atom_site_fract_z
 _atom_site_occupancy
  Ca  Ca0_0  1  0.25000000  0.37500000  0.15461700  1
  Ca  Ca0_1  1  0.25000000  0.37500000  0.65461700  1
  Ca  Ca0_2  1  0.25000000  0.87500000  0.15461700  1
  Ca  Ca0_3  1  0.25000000  0.87500000  0.65461700  1
  Ca  Ca0_4  1  0.75000000  0.37500000  0.15461700  1
  Ca  Ca0_5  1  0.75000000  0.37500000  0.65461700  1
  Ca  Ca0_6  1  0.75000000  0.87500000  0.15461700  1
  Ca  Ca0_7  1  0.75000000  0.87500000  0.65461700  1
  Ca  Ca1_0  1  0.25000000  0.12500000  0.34538300  1
  Ca  Ca1_1  1  0.25000000  0.12500000  0.84538300  1
  Ca  Ca1_2  1  0.25000000  0.62500000  0.34538300  1
  Ca  Ca1_3  1  0.25000000  0.62500000  0.84538300  1
  Ca  Ca1_4  1  0.75000000  0.12500000  0.34538300  1
  Ca  Ca1_5  1  0.75000000  0.12500000  0.84538300  1
  Ca  Ca1_6  1  0.75000000  0.62500000  0.34538300  1
  Ca  Ca1_7  1  0.75000000  0.62500000  0.84538300  1
  Mg  Mg0_0  1  0.00000000  0.37500000  0.41245200  1
  Mg  Mg0_1  1  0.00000000  0.37500000  0.91245200  1
  Mg  Mg0_2  1  0.00000000  0.87500000  0.41245200  1
  Mg  Mg0_3  1  0.00000000  0.87500000  0.91245200  1
  Mg  Mg0_4  1  0.50000000  0.37500000  0.41245200  1
  Mg  Mg0_5  1  0.50000000  0.37500000  0.91245200  1
  Mg  Mg0_6  1  0.50000000  0.87500000  0.41245200  1
  Mg  Mg0_7  1  0.50000000  0.87500000  0.91245200  1
  Mg  Mg1_0  1  0.00000000  0.12500000  0.08754800  1
  Mg  Mg1_1  1  0.00000000  0.12500000  0.58754800  1
  Mg  Mg1_2  1  0.00000000  0.62500000  0.08754800  1
  Mg  Mg1_3  1  0.00000000  0.62500000  0.58754800  1
  Mg  Mg1_4  1  0.50000000  0.12500000  0.08754800  1
  Mg  Mg1_5  1  0.50000000  0.12500000  0.58754800  1
  Mg  Mg1_6  1  0.50000000  0.62500000  0.08754800  1
  Mg  Mg1_7  1  0.50000000  0.62500000  0.58754800  1
loop_
_geom_bond_atom_site_label_1
_geom_bond_atom_site_label_2
_geom_bond_distance
_geom_bond_site_symmetry_2
Ca0_0 Mg0_5 3.410197 1_554
Ca0_0 Mg0_1 3.410197 1_554
Ca0_0 Mg1_2 3.471891 1_555
Ca0_0 Mg1_6 3.471891 1_555
Ca0_0 Mg1_0 3.471891 1_555
Ca0_0 Mg1_4 3.471891 1_555
Ca0_0 Mg0_0 3.571495 1_555
Ca0_0 Mg0_4 3.571495 1_555
Ca0_0 Ca0_4 3.577987 1_455
Ca0_0 Ca0_4 3.577987 1_555
Ca0_0 Ca1_2 3.665734 1_555
Ca0_0 Ca1_0 3.665734 1_555
Ca0_1 Mg0_0 3.410197 1_555
Ca0_1 Mg0_4 3.410197 1_555
Ca0_1 Mg1_7 3.471891 1_555
Ca0_1 Mg1_3 3.471891 1_555
Ca0_1 Mg1_1 3.471891 1_555
Ca0_1 Mg1_5 3.471891 1_555
Ca0_1 Mg0_5 3.571495 1_555
Ca0_1 Mg0_1 3.571495 1_555
Ca0_1 Ca0_5 3.577987 1_455
Ca0_1 Ca0_5 3.577987 1_555
Ca0_1 Ca1_3 3.665734 1_555
Ca0_1 Ca1_1 3.665734 1_555
Ca0_2 Mg0_3 3.410197 1_554
Ca0_2 Mg0_7 3.410197 1_554
Ca0_2 Mg1_2 3.471891 1_555
Ca0_2 Mg1_6 3.471891 1_555
Ca0_2 Mg1_0 3.471891 1_565
Ca0_2 Mg1_4 3.471891 1_565
Ca0_2 Mg0_2 3.571495 1_555
Ca0_2 Mg0_6 3.571495 1_555
Ca0_2 Ca0_6 3.577987 1_455
Ca0_2 Ca0_6 3.577987 1_555
Ca0_2 Ca1_2 3.665734 1_555
Ca0_2 Ca1_0 3.665734 1_565
Ca0_3 Mg0_2 3.410197 1_555
Ca0_3 Mg0_6 3.410197 1_555
Ca0_3 Mg1_3 3.471891 1_555
Ca0_3 Mg1_7 3.471891 1_555
Ca0_3 Mg1_5 3.471891 1_565
Ca0_3 Mg1_1 3.471891 1_565
Ca0_3 Mg0_3 3.571495 1_555
Ca0_3 Mg0_7 3.571495 1_555
Ca0_3 Ca0_7 3.577987 1_455
Ca0_3 Ca0_7 3.577987 1_555
Ca0_3 Ca1_3 3.665734 1_555
Ca0_3 Ca1_1 3.665734 1_565
Ca0_4 Mg0_1 3.410197 1_654
Ca0_4 Mg0_5 3.410197 1_554
Ca0_4 Mg1_2 3.471891 1_655
Ca0_4 Mg1_6 3.471891 1_555
Ca0_4 Mg1_0 3.471891 1_655
Ca0_4 Mg1_4 3.471891 1_555
Ca0_4 Mg0_0 3.571495 1_655
Ca0_4 Mg0_4 3.571495 1_555
Ca0_4 Ca1_6 3.665734 1_555
Ca0_4 Ca1_4 3.665734 1_555
Ca0_5 Mg0_0 3.410197 1_655
Ca0_5 Mg0_4 3.410197 1_555
Ca0_5 Mg1_3 3.471891 1_655
Ca0_5 Mg1_7 3.471891 1_555
Ca0_5 Mg1_1 3.471891 1_655
Ca0_5 Mg1_5 3.471891 1_555
Ca0_5 Mg0_1 3.571495 1_655
Ca0_5 Mg0_5 3.571495 1_555
Ca0_5 Ca1_7 3.665734 1_555
Ca0_5 Ca1_5 3.665734 1_555
Ca0_6 Mg0_3 3.410197 1_654
Ca0_6 Mg0_7 3.410197 1_554
Ca0_6 Mg1_2 3.471891 1_655
Ca0_6 Mg1_6 3.471891 1_555
Ca0_6 Mg1_0 3.471891 1_665
Ca0_6 Mg1_4 3.471891 1_565
Ca0_6 Mg0_2 3.571495 1_655
Ca0_6 Mg0_6 3.571495 1_555
Ca0_6 Ca1_6 3.665734 1_555
Ca0_6 Ca1_4 3.665734 1_565
Ca0_7 Mg0_2 3.410197 1_655
Ca0_7 Mg0_6 3.410197 1_555
Ca0_7 Mg1_3 3.471891 1_655
Ca0_7 Mg1_7 3.471891 1_555
Ca0_7 Mg1_1 3.471891 1_665
Ca0_7 Mg1_5 3.471891 1_565
Ca0_7 Mg0_3 3.571495 1_655
Ca0_7 Mg0_7 3.571495 1_555
Ca0_7 Ca1_7 3.665734 1_555
Ca0_7 Ca1_5 3.665734 1_565
Ca1_0 Mg1_1 3.410197 1_555
Ca1_0 Mg1_5 3.410197 1_555
Ca1_0 Mg0_0 3.471891 1_555
Ca1_0 Mg0_4 3.471891 1_555
Ca1_0 Mg0_2 3.471891 1_545
Ca1_0 Mg0_6 3.471891 1_545
Ca1_0 Mg1_0 3.571495 1_555
Ca1_0 Mg1_4 3.571495 1_555
Ca1_0 Ca1_4 3.577987 1_455
Ca1_0 Ca1_4 3.577987 1_555
Ca1_1 Mg1_0 3.410197 1_556
Ca1_1 Mg1_4 3.410197 1_556
Ca1_1 Mg0_5 3.471891 1_555
Ca1_1 Mg0_1 3.471891 1_555
Ca1_1 Mg0_3 3.471891 1_545
Ca1_1 Mg0_7 3.471891 1_545
Ca1_1 Mg1_1 3.571495 1_555
Ca1_1 Mg1_5 3.571495 1_555
Ca1_1 Ca1_5 3.577987 1_455
Ca1_1 Ca1_5 3.577987 1_555
Ca1_2 Mg1_3 3.410197 1_555
Ca1_2 Mg1_7 3.410197 1_555
Ca1_2 Mg0_0 3.471891 1_555
Ca1_2 Mg0_4 3.471891 1_555
Ca1_2 Mg0_2 3.471891 1_555
Ca1_2 Mg0_6 3.471891 1_555
Ca1_2 Mg1_2 3.571495 1_555
Ca1_2 Mg1_6 3.571495 1_555
Ca1_2 Ca1_6 3.577987 1_455
Ca1_2 Ca1_6 3.577987 1_555
Ca1_3 Mg1_6 3.410197 1_556
Ca1_3 Mg1_2 3.410197 1_556
Ca1_3 Mg0_1 3.471891 1_555
Ca1_3 Mg0_5 3.471891 1_555
Ca1_3 Mg0_3 3.471891 1_555
Ca1_3 Mg0_7 3.471891 1_555
Ca1_3 Mg1_3 3.571495 1_555
Ca1_3 Mg1_7 3.571495 1_555
Ca1_3 Ca1_7 3.577987 1_455
Ca1_3 Ca1_7 3.577987 1_555
Ca1_4 Mg1_1 3.410197 1_655
Ca1_4 Mg1_5 3.410197 1_555
Ca1_4 Mg0_0 3.471891 1_655
Ca1_4 Mg0_4 3.471891 1_555
Ca1_4 Mg0_2 3.471891 1_645
Ca1_4 Mg0_6 3.471891 1_545
Ca1_4 Mg1_0 3.571495 1_655
Ca1_4 Mg1_4 3.571495 1_555
Ca1_5 Mg1_0 3.410197 1_656
Ca1_5 Mg1_4 3.410197 1_556
Ca1_5 Mg0_1 3.471891 1_655
Ca1_5 Mg0_5 3.471891 1_555
Ca1_5 Mg0_3 3.471891 1_645
Ca1_5 Mg0_7 3.471891 1_545
Ca1_5 Mg1_1 3.571495 1_655
Ca1_5 Mg1_5 3.571495 1_555
Ca1_6 Mg1_3 3.410197 1_655
Ca1_6 Mg1_7 3.410197 1_555
Ca1_6 Mg0_0 3.471891 1_655
Ca1_6 Mg0_4 3.471891 1_555
Ca1_6 Mg0_2 3.471891 1_655
Ca1_6 Mg0_6 3.471891 1_555
Ca1_6 Mg1_2 3.571495 1_655
Ca1_6 Mg1_6 3.571495 1_555
Ca1_7 Mg1_2 3.410197 1_656
Ca1_7 Mg1_6 3.410197 1_556
Ca1_7 Mg0_1 3.471891 1_655
Ca1_7 Mg0_5 3.471891 1_555
Ca1_7 Mg0_3 3.471891 1_655
Ca1_7 Mg0_7 3.471891 1_555
Ca1_7 Mg1_3 3.571495 1_655
Ca1_7 Mg1_7 3.571495 1_555
Mg0_0 Mg1_3 3.551561 1_555
Mg0_0 Mg1_1 3.551561 1_555
Mg0_0 Mg0_4 3.577987 1_455
Mg0_0 Mg0_4 3.577987 1_555
Mg0_1 Mg1_2 3.551561 1_556
Mg0_1 Mg1_0 3.551561 1_556
Mg0_1 Mg0_5 3.577987 1_455
Mg0_1 Mg0_5 3.577987 1_555
Mg0_2 Mg1_3 3.551561 1_555
Mg0_2 Mg1_1 3.551561 1_565
Mg0_2 Mg0_6 3.577987 1_455
Mg0_2 Mg0_6 3.577987 1_555
Mg0_3 Mg1_2 3.551561 1_556
Mg0_3 Mg1_0 3.551561 1_566
Mg0_3 Mg0_7 3.577987 1_555
Mg0_3 Mg0_7 3.577987 1_455
Mg0_4 Mg1_7 3.551561 1_555
Mg0_4 Mg1_5 3.551561 1_555
Mg0_5 Mg1_6 3.551561 1_556
Mg0_5 Mg1_4 3.551561 1_556
Mg0_6 Mg1_7 3.551561 1_555
Mg0_6 Mg1_5 3.551561 1_565
Mg0_7 Mg1_6 3.551561 1_556
Mg0_7 Mg1_4 3.551561 1_566
Mg1_0 Mg1_4 3.577987 1_455
Mg1_0 Mg1_4 3.577987 1_555
Mg1_1 Mg1_5 3.577987 1_455
Mg1_1 Mg1_5 3.577987 1_555
Mg1_2 Mg1_6 3.577987 1_455
Mg1_2 Mg1_6 3.577987 1_555
Mg1_3 Mg1_7 3.577987 1_555
Mg1_3 Mg1_7 3.577987 1_455
