# generated using pymatgen
data_Sr19Cu19O41
_symmetry_space_group_name_H-M   'P 1'
_cell_length_a   3.56948900
_cell_length_b   74.88210781
_cell_length_c   5.56880800
_cell_angle_alpha   45.04663688
_cell_angle_beta   90.00000000
_cell_angle_gamma   90.00000000
_symmetry_Int_Tables_number   1
_chemical_formula_structural   Sr19Cu19O41
_chemical_formula_sum   'Sr19 Cu19 O41'
_cell_volume   1053.37878954
_cell_formula_units_Z   1
loop_
 _symmetry_equiv_pos_site_id
 _symmetry_equiv_pos_as_xyz
  1  'x, y, z'
loop_
 _atom_site_type_symbol
 _atom_site_label
 _atom_site_symmetry_multiplicity
 _atom_site_fract_x
 _atom_site_fract_y
 _atom_site_fract_z
 _atom_site_occupancy
  Sr  Sr0  1  0.50000000  0.05230300  0.50311300  1
  Sr  Sr1  1  0.50000000  0.10520900  0.50049600  1
  Sr  Sr2  1  0.50000000  0.15784000  0.50051700  1
  Sr  Sr3  1  0.50000000  0.21049000  0.50035100  1
  Sr  Sr4  1  0.50000000  0.26319700  0.49966700  1
  Sr  Sr5  1  0.50000000  0.31575900  0.50030200  1
  Sr  Sr6  1  0.50000000  0.36846200  0.49960800  1
  Sr  Sr7  1  0.50000000  0.42108700  0.49965800  1
  Sr  Sr8  1  0.50000000  0.47374800  0.49936700  1
  Sr  Sr9  1  0.50000000  0.52664900  0.49683800  1
  Sr  Sr10  1  0.50000000  0.58095600  0.48093500  1
  Sr  Sr11  1  0.50000000  0.63170200  0.49884800  1
  Sr  Sr12  1  0.50000000  0.68245900  0.51662400  1
  Sr  Sr13  1  0.50000000  0.73892900  0.48018600  1
  Sr  Sr14  1  0.50000000  0.78949900  0.49974500  1
  Sr  Sr15  1  0.50000000  0.84005300  0.51949200  1
  Sr  Sr16  1  0.50000000  0.89658600  0.48243000  1
  Sr  Sr17  1  0.50000000  0.94722400  0.50137000  1
  Sr  Sr18  1  0.50000000  0.99785600  0.52037400  1
  Cu  Cu0  1  0.00000000  0.00109400  0.98962400  1
  Cu  Cu1  1  0.00000000  0.05249200  0.00127900  1
  Cu  Cu2  1  0.00000000  0.10508800  0.00164200  1
  Cu  Cu3  1  0.00000000  0.21053400  0.99995200  1
  Cu  Cu4  1  0.00000000  0.36842200  0.99994200  1
  Cu  Cu5  1  0.00000000  0.42110300  0.99949200  1
  Cu  Cu6  1  0.00000000  0.47383900  0.99850000  1
  Cu  Cu7  1  0.00000000  0.57786200  0.01032200  1
  Cu  Cu8  1  0.00000000  0.68556300  0.98714200  1
  Cu  Cu9  1  0.00000000  0.73548700  0.01284400  1
  Cu  Cu10  1  0.00000000  0.78948100  0.99985300  1
  Cu  Cu11  1  0.00000000  0.84344900  0.98723400  1
  Cu  Cu12  1  0.00000000  0.94740100  0.99971800  1
  Cu  Cu13  1  0.00000000  0.15786700  0.00024300  1
  Cu  Cu14  1  0.00000000  0.26313600  0.00026900  1
  Cu  Cu15  1  0.00000000  0.31581600  0.99977300  1
  Cu  Cu16  1  0.00000000  0.52643100  0.99891900  1
  Cu  Cu17  1  0.00000000  0.63152200  0.00061100  1
  Cu  Cu18  1  0.00000000  0.89337200  0.01293100  1
  O  O0  1  0.00000000  0.02683400  0.99500200  1
  O  O1  1  0.00000000  0.07886300  0.50333300  1
  O  O2  1  0.00000000  0.18419800  0.00030700  1
  O  O3  1  0.00000000  0.18419900  0.49995100  1
  O  O4  1  0.00000000  0.23687300  0.99970900  1
  O  O5  1  0.00000000  0.28946800  0.00005100  1
  O  O6  1  0.00000000  0.28947000  0.50017000  1
  O  O7  1  0.00000000  0.34209100  0.00018200  1
  O  O8  1  0.00000000  0.34208900  0.50006400  1
  O  O9  1  0.00000000  0.39475300  0.99973900  1
  O  O10  1  0.00000000  0.55208900  0.00509400  1
  O  O11  1  0.00000000  0.60307300  0.00345200  1
  O  O12  1  0.00000000  0.55208800  0.50528500  1
  O  O13  1  0.00000000  0.66022900  0.99787000  1
  O  O14  1  0.00000000  0.71055900  0.99943500  1
  O  O15  1  0.00000000  0.71055500  0.49987300  1
  O  O16  1  0.00000000  0.81813300  0.99782800  1
  O  O17  1  0.00000000  0.91869700  0.00220300  1
  O  O18  1  0.00000000  0.97590500  0.99669100  1
  O  O19  1  0.00000000  0.97590400  0.46115000  1
  O  O20  1  0.50000000  0.63165500  0.99926300  1
  O  O21  1  0.50000000  0.78947100  0.00014000  1
  O  O22  1  0.50000000  0.94730500  0.00057300  1
  O  O23  1  0.00000000  0.02683800  0.49518400  1
  O  O24  1  0.00000000  0.07886300  0.99819900  1
  O  O25  1  0.00000000  0.13159400  0.99951600  1
  O  O26  1  0.00000000  0.13159500  0.50019300  1
  O  O27  1  0.00000000  0.23687100  0.49975600  1
  O  O28  1  0.00000000  0.39475600  0.49991500  1
  O  O29  1  0.00000000  0.44736100  0.00055000  1
  O  O30  1  0.00000000  0.44736100  0.49952900  1
  O  O31  1  0.00000000  0.50006700  0.00174300  1
  O  O32  1  0.00000000  0.50006600  0.49699000  1
  O  O33  1  0.00000000  0.60307000  0.53822300  1
  O  O34  1  0.00000000  0.66023200  0.45774600  1
  O  O35  1  0.00000000  0.76081500  0.00207300  1
  O  O36  1  0.00000000  0.76081500  0.54241600  1
  O  O37  1  0.00000000  0.81813200  0.45767700  1
  O  O38  1  0.00000000  0.86841100  0.00030800  1
  O  O39  1  0.00000000  0.86841100  0.49986600  1
  O  O40  1  0.00000000  0.91869700  0.54253500  1
loop_
_geom_bond_atom_site_label_1
_geom_bond_atom_site_label_2
_geom_bond_distance
_geom_bond_site_symmetry_2
Cu0 O19 1.858518 1_546
Cu0 O18 1.858609 1_545
Cu0 O23 1.948641 1_555
Cu0 O0 1.948741 1_555
Cu1 O0 1.946179 1_554
Cu1 O23 1.946580 1_555
Cu1 O1 1.962440 1_554
Cu1 O24 1.962635 1_554
Cu2 O26 1.976219 1_554
Cu2 O25 1.976478 1_554
Cu2 O1 1.977163 1_555
Cu2 O24 1.977376 1_554
Cu3 O3 1.970475 1_556
Cu3 O2 1.970699 1_556
Cu3 O27 1.971250 1_555
Cu3 O4 1.971364 1_555
Cu4 O28 1.970585 1_555
Cu4 O7 1.970777 1_556
Cu4 O9 1.970922 1_555
Cu4 O8 1.970958 1_556
Cu5 O30 1.970327 1_555
Cu5 O29 1.970422 1_556
Cu5 O28 1.972144 1_556
Cu5 O9 1.972172 1_555
Cu6 O30 1.974561 1_556
Cu6 O29 1.974679 1_556
Cu6 O32 1.976445 1_555
Cu6 O31 1.976809 1_556
Cu7 O33 1.860761 1_554
Cu7 O11 1.861020 1_555
Cu7 O10 1.950615 1_555
Cu7 O12 1.950700 1_555
Cu8 O34 1.855176 1_556
Cu8 O13 1.855335 1_555
Cu8 O14 1.920731 1_555
Cu8 O15 1.920845 1_555
Cu9 O36 1.854494 1_554
Cu9 O35 1.854721 1_555
Cu9 O15 1.919987 1_555
Cu9 O14 1.920147 1_554
Cu10 O21 1.784745 1_456
Cu10 O21 1.784745 1_556
Cu10 O37 2.136721 1_555
Cu10 O16 2.137570 1_555
Cu10 O35 2.137854 1_556
Cu10 O36 2.138244 1_556
Cu11 O16 1.854503 1_555
Cu11 O37 1.854532 1_556
Cu11 O39 1.921300 1_555
Cu11 O38 1.921338 1_556
Cu12 O22 1.784752 1_456
Cu12 O22 1.784752 1_556
Cu12 O19 2.122523 1_555
Cu12 O18 2.122563 1_555
Cu12 O40 2.139256 1_556
Cu12 O17 2.139661 1_556
Cu13 O25 1.970240 1_554
Cu13 O26 1.970276 1_555
Cu13 O3 1.971627 1_554
Cu13 O2 1.971973 1_555
Cu14 O27 1.968452 1_555
Cu14 O4 1.968833 1_554
Cu14 O6 1.970868 1_554
Cu14 O5 1.970938 1_555
Cu15 O7 1.969137 1_556
Cu15 O8 1.969326 1_555
Cu15 O5 1.971900 1_556
Cu15 O6 1.972042 1_556
Cu16 O12 1.945498 1_555
Cu16 O10 1.945773 1_556
Cu16 O32 1.962925 1_556
Cu16 O31 1.963112 1_556
Cu17 O20 1.784758 1_454
Cu17 O20 1.784758 1_554
Cu17 O33 2.118755 1_555
Cu17 O11 2.119173 1_555
Cu17 O13 2.138883 1_554
Cu17 O34 2.139447 1_554
Cu18 O40 1.854366 1_554
Cu18 O17 1.854662 1_555
Cu18 O38 1.919443 1_555
Cu18 O39 1.919553 1_555
O0 Sr0 2.635132 1_455
O0 Sr0 2.635132 1_555
O0 Sr18 2.735453 1_446
O0 Sr18 2.735453 1_546
O1 Sr1 2.652100 1_455
O1 Sr1 2.652100 1_555
O1 Sr0 2.672893 1_455
O1 Sr0 2.672893 1_555
O2 Sr3 2.658457 1_554
O2 Sr3 2.658457 1_454
O2 Sr2 2.659205 1_555
O2 Sr2 2.659205 1_455
O3 Sr3 2.658457 1_555
O3 Sr3 2.658457 1_455
O3 Sr2 2.659415 1_555
O3 Sr2 2.659415 1_455
O4 Sr4 2.658711 1_455
O4 Sr4 2.658711 1_555
O4 Sr3 2.660468 1_456
O4 Sr3 2.660468 1_556
O5 Sr4 2.657464 1_555
O5 Sr4 2.657464 1_455
O5 Sr5 2.657853 1_554
O5 Sr5 2.657853 1_454
O6 Sr5 2.657564 1_455
O6 Sr5 2.657564 1_555
O6 Sr4 2.657759 1_455
O6 Sr4 2.657759 1_555
O7 Sr5 2.658939 1_455
O7 Sr5 2.658939 1_555
O7 Sr6 2.660268 1_454
O7 Sr6 2.660268 1_554
O8 Sr5 2.658761 1_555
O8 Sr5 2.658761 1_455
O8 Sr6 2.660513 1_555
O8 Sr6 2.660513 1_455
O9 Sr6 2.658204 1_556
O9 Sr6 2.658204 1_456
O9 Sr7 2.658826 1_455
O9 Sr7 2.658826 1_555
O10 Sr9 2.634729 1_455
O10 Sr9 2.634729 1_555
O10 Sr10 2.731706 1_454
O10 Sr10 2.731706 1_554
O11 Sr10 2.603027 1_555
O11 Sr10 2.603027 1_455
O11 Sr11 2.676753 1_554
O11 Sr11 2.676753 1_454
O12 Sr9 2.634936 1_455
O12 Sr9 2.634936 1_555
O12 Sr10 2.731744 1_455
O12 Sr10 2.731744 1_555
O13 Sr12 2.614315 1_455
O13 Sr12 2.614315 1_555
O13 Sr11 2.666556 1_456
O13 Sr11 2.666556 1_556
O14 Sr12 2.710061 1_456
O14 Sr12 2.710061 1_556
O14 Sr13 2.716508 1_555
O14 Sr13 2.716508 1_455
O15 Sr12 2.709803 1_455
O15 Sr12 2.709803 1_555
O15 Sr13 2.717084 1_555
O15 Sr13 2.717084 1_455
O16 Sr15 2.607067 1_455
O16 Sr15 2.607067 1_555
O16 Sr14 2.669568 1_556
O16 Sr14 2.669568 1_456
O17 Sr16 2.611837 1_455
O17 Sr16 2.611837 1_555
O17 Sr17 2.666168 1_454
O17 Sr17 2.666168 1_554
O18 Sr18 2.600390 1_555
O18 Sr18 2.600390 1_455
O18 Sr17 2.677188 1_456
O18 Sr17 2.677188 1_556
O19 Sr18 2.600439 1_555
O19 Sr18 2.600439 1_455
O19 Sr17 2.677319 1_555
O19 Sr17 2.677319 1_455
O20 Sr10 2.686678 1_556
O20 Sr12 2.692243 1_555
O20 Sr11 2.784230 1_555
O20 Sr11 2.784581 1_556
O21 Sr13 2.678359 1_555
O21 Sr15 2.680478 1_554
O21 Sr14 2.783686 1_555
O21 Sr14 2.785123 1_554
O22 Sr18 2.678835 1_554
O22 Sr16 2.687738 1_555
O22 Sr17 2.784254 1_554
O22 Sr17 2.784560 1_555
O23 Sr0 2.634844 1_455
O23 Sr0 2.634844 1_555
O23 Sr18 2.735821 1_445
O23 Sr18 2.735821 1_545
O24 Sr1 2.651923 1_455
O24 Sr1 2.651923 1_555
O24 Sr0 2.672971 1_556
O24 Sr0 2.672971 1_456
O25 Sr2 2.655664 1_455
O25 Sr2 2.655664 1_555
O25 Sr1 2.661453 1_456
O25 Sr1 2.661453 1_556
O26 Sr2 2.655684 1_455
O26 Sr2 2.655684 1_555
O26 Sr1 2.661681 1_455
O26 Sr1 2.661681 1_555
O27 Sr4 2.658973 1_455
O27 Sr4 2.658973 1_555
O27 Sr3 2.660552 1_455
O27 Sr3 2.660552 1_555
O28 Sr6 2.658352 1_455
O28 Sr6 2.658352 1_555
O28 Sr7 2.658761 1_455
O28 Sr7 2.658761 1_555
O29 Sr7 2.655984 1_455
O29 Sr7 2.655984 1_555
O29 Sr8 2.662046 1_454
O29 Sr8 2.662046 1_554
O30 Sr7 2.655972 1_455
O30 Sr7 2.655972 1_555
O30 Sr8 2.662148 1_455
O30 Sr8 2.662148 1_555
O31 Sr8 2.651684 1_455
O31 Sr8 2.651684 1_555
O31 Sr9 2.672947 1_554
O31 Sr9 2.672947 1_454
O32 Sr8 2.651881 1_455
O32 Sr8 2.651881 1_555
O32 Sr9 2.673085 1_455
O32 Sr9 2.673085 1_555
O33 Sr10 2.603026 1_455
O33 Sr10 2.603026 1_555
O33 Sr11 2.676924 1_455
O33 Sr11 2.676924 1_555
O34 Sr12 2.614231 1_455
O34 Sr12 2.614231 1_555
O34 Sr11 2.666621 1_555
O34 Sr11 2.666621 1_455
O35 Sr13 2.606586 1_455
O35 Sr13 2.606586 1_555
O35 Sr14 2.670904 1_454
O35 Sr14 2.670904 1_554
O36 Sr13 2.606500 1_455
O36 Sr13 2.606500 1_555
O36 Sr14 2.670974 1_555
O36 Sr14 2.670974 1_455
O37 Sr15 2.607061 1_455
O37 Sr15 2.607061 1_555
O37 Sr14 2.669753 1_555
O37 Sr14 2.669753 1_455
O38 Sr16 2.712179 1_454
O38 Sr16 2.712179 1_554
O38 Sr15 2.716296 1_555
O38 Sr15 2.716296 1_455
O39 Sr16 2.712293 1_455
O39 Sr16 2.712293 1_555
O39 Sr15 2.716356 1_455
O39 Sr15 2.716356 1_555
O40 Sr16 2.611868 1_455
O40 Sr16 2.611868 1_555
O40 Sr17 2.666287 1_455
O40 Sr17 2.666287 1_555
