# generated using pymatgen
data_Te2Ru
_symmetry_space_group_name_H-M   'P 1'
_cell_length_a   6.43879219
_cell_length_b   6.43879219
_cell_length_c   6.43879219
_cell_angle_alpha   90.00000000
_cell_angle_beta   90.00000000
_cell_angle_gamma   90.00000000
_symmetry_Int_Tables_number   1
_chemical_formula_structural   Te2Ru
_chemical_formula_sum   'Te8 Ru4'
_cell_volume   266.93973550
_cell_formula_units_Z   4
loop_
 _symmetry_equiv_pos_site_id
 _symmetry_equiv_pos_as_xyz
  1  'x, y, z'
loop_
 _atom_site_type_symbol
 _atom_site_label
 _atom_site_symmetry_multiplicity
 _atom_site_fract_x
 _atom_site_fract_y
 _atom_site_fract_z
 _atom_site_occupancy
  Te  Te0  1  0.37323024  0.37323024  0.37323024  1
  Te  Te1  1  0.12676976  0.62676976  0.87323024  1
  Te  Te2  1  0.87323024  0.12676976  0.62676976  1
  Te  Te3  1  0.62676976  0.87323024  0.12676976  1
  Te  Te4  1  0.62676976  0.62676976  0.62676976  1
  Te  Te5  1  0.87323024  0.37323024  0.12676976  1
  Te  Te6  1  0.12676976  0.87323024  0.37323024  1
  Te  Te7  1  0.37323024  0.12676976  0.87323024  1
  Ru  Ru0  1  -0.00000000  0.00000000  0.00000000  1
  Ru  Ru1  1  0.50000000  0.00000000  0.50000000  1
  Ru  Ru2  1  0.50000000  0.50000000  0.00000000  1
  Ru  Ru3  1  -0.00000000  0.50000000  0.50000000  1
loop_
_geom_bond_atom_site_label_1
_geom_bond_atom_site_label_2
_geom_bond_distance
_geom_bond_site_symmetry_2
Te0 Te4 2.827553 1_555
Te1 Te5 2.827553 1_456
Te2 Te6 2.827553 1_645
Te3 Te7 2.827553 1_564
Ru0 Te2 2.666017 1_454
Ru0 Te3 2.666017 1_445
Ru0 Te5 2.666017 1_455
Ru0 Te1 2.666017 1_544
Ru0 Te6 2.666017 1_545
Ru0 Te7 2.666017 1_554
Ru1 Te4 2.666017 1_545
Ru1 Te0 2.666017 1_555
Ru1 Te3 2.666017 1_545
Ru1 Te6 2.666017 1_545
Ru1 Te7 2.666017 1_555
Ru1 Te2 2.666017 1_555
Ru2 Te4 2.666017 1_554
Ru2 Te0 2.666017 1_555
Ru2 Te5 2.666017 1_555
Ru2 Te1 2.666017 1_554
Ru2 Te7 2.666017 1_554
Ru2 Te3 2.666017 1_555
Ru3 Te4 2.666017 1_455
Ru3 Te0 2.666017 1_555
Ru3 Te2 2.666017 1_455
Ru3 Te6 2.666017 1_555
Ru3 Te5 2.666017 1_455
Ru3 Te1 2.666017 1_555
