# generated using pymatgen
data_NbCr3(AgS4)2
_symmetry_space_group_name_H-M   'P 1'
_cell_length_a   11.71954349
_cell_length_b   7.27871531
_cell_length_c   12.34041000
_cell_angle_alpha   90.00000000
_cell_angle_beta   90.00000000
_cell_angle_gamma   83.76091084
_symmetry_Int_Tables_number   1
_chemical_formula_structural   NbCr3(AgS4)2
_chemical_formula_sum   'Nb4 Cr12 Ag8 S32'
_cell_volume   1046.44176711
_cell_formula_units_Z   4
loop_
 _symmetry_equiv_pos_site_id
 _symmetry_equiv_pos_as_xyz
  1  'x, y, z'
loop_
 _atom_site_type_symbol
 _atom_site_label
 _atom_site_symmetry_multiplicity
 _atom_site_fract_x
 _atom_site_fract_y
 _atom_site_fract_z
 _atom_site_occupancy
  Nb  Nb0  1  0.09068900  0.96215500  0.67615200  1
  Nb  Nb1  1  0.90931100  0.03784500  0.17615200  1
  Nb  Nb2  1  0.40777000  0.47576400  0.85133300  1
  Nb  Nb3  1  0.59223000  0.52423600  0.35133300  1
  Cr  Cr0  1  0.37147000  0.82690700  0.19955400  1
  Cr  Cr1  1  0.62853000  0.17309300  0.69955400  1
  Cr  Cr2  1  0.12053900  0.33403100  0.32942600  1
  Cr  Cr3  1  0.87946100  0.66596900  0.82942600  1
  Cr  Cr4  1  0.15905000  0.66469500  0.95606200  1
  Cr  Cr5  1  0.84095000  0.33530500  0.45606200  1
  Cr  Cr6  1  0.33160000  0.58792800  0.44933500  1
  Cr  Cr7  1  0.66840000  0.41207200  0.94933500  1
  Cr  Cr8  1  0.14189600  0.16957400  0.97270400  1
  Cr  Cr9  1  0.85810500  0.83042600  0.47270400  1
  Cr  Cr10  1  0.35491500  0.08718600  0.47199800  1
  Cr  Cr11  1  0.64508500  0.91281400  0.97199800  1
  Ag  Ag0  1  0.11436500  0.42024700  0.68064300  1
  Ag  Ag1  1  0.88563400  0.57975300  0.18064300  1
  Ag  Ag2  1  0.41496200  0.28448400  0.15505800  1
  Ag  Ag3  1  0.58503800  0.71551600  0.65505800  1
  Ag  Ag4  1  0.12440500  0.85562500  0.31026600  1
  Ag  Ag5  1  0.87559500  0.14437500  0.81026600  1
  Ag  Ag6  1  0.39260500  0.88398300  0.79890900  1
  Ag  Ag7  1  0.60739500  0.11601700  0.29890900  1
  S  S0  1  0.02205600  0.89069900  0.87104000  1
  S  S1  1  0.97794400  0.10930100  0.37104000  1
  S  S2  1  0.45646900  0.80882100  0.38212200  1
  S  S3  1  0.54353100  0.19117900  0.88212200  1
  S  S4  1  0.04075400  0.26946400  0.14341800  1
  S  S5  1  0.95924600  0.73053600  0.64341800  1
  S  S6  1  0.48209000  0.43226600  0.67298600  1
  S  S7  1  0.51791000  0.56773400  0.17298600  1
  S  S8  1  0.03683500  0.44671400  0.88720600  1
  S  S9  1  0.96316500  0.55328600  0.38720600  1
  S  S10  1  0.47353500  0.33262700  0.43420700  1
  S  S11  1  0.52646500  0.66737300  0.93420700  1
  S  S12  1  0.03188400  0.78912900  0.11868800  1
  S  S13  1  0.96811600  0.21087100  0.61868800  1
  S  S14  1  0.47256300  0.02235600  0.62903600  1
  S  S15  1  0.52743700  0.97764400  0.12903600  1
  S  S16  1  0.22709300  0.86883600  0.53275200  1
  S  S17  1  0.77290700  0.13116400  0.03275200  1
  S  S18  1  0.27032400  0.89155100  0.02624100  1
  S  S19  1  0.72967600  0.10844900  0.52624100  1
  S  S20  1  0.21933300  0.35284000  0.50062200  1
  S  S21  1  0.78066700  0.64716000  0.00062200  1
  S  S22  1  0.28037700  0.38309000  0.00075100  1
  S  S23  1  0.71962300  0.61691000  0.50075100  1
  S  S24  1  0.21597400  0.11990300  0.79339400  1
  S  S25  1  0.78402600  0.88009700  0.29339400  1
  S  S26  1  0.28178300  0.11027400  0.28969500  1
  S  S27  1  0.71821700  0.88972600  0.78969500  1
  S  S28  1  0.24136200  0.64246200  0.78052900  1
  S  S29  1  0.75863800  0.35753800  0.28052900  1
  S  S30  1  0.25440900  0.57153800  0.27987400  1
  S  S31  1  0.74559100  0.42846200  0.77987400  1
loop_
_geom_bond_atom_site_label_1
_geom_bond_atom_site_label_2
_geom_bond_distance
_geom_bond_site_symmetry_2
Nb0 S13 2.297490 1_465
Nb0 S16 2.431541 1_555
Nb0 S24 2.435966 1_565
Nb0 S5 2.437800 1_455
Nb0 S0 2.606229 1_555
Nb0 S28 3.049395 1_555
Nb1 S12 2.297490 1_645
Nb1 S17 2.431541 1_555
Nb1 S25 2.435966 1_545
Nb1 S4 2.437800 1_655
Nb1 S1 2.606229 1_555
Nb1 S29 3.049395 1_555
Nb2 S11 2.312513 1_555
Nb2 S28 2.350469 1_555
Nb2 S6 2.375455 1_555
Nb2 S3 2.500046 1_555
Nb2 S22 2.510541 1_556
Nb3 S10 2.312513 1_555
Nb3 S29 2.350469 1_555
Nb3 S7 2.375455 1_555
Nb3 S2 2.500046 1_555
Nb3 S23 2.510541 1_555
Cr0 S15 2.395423 1_555
Cr0 S7 2.430608 1_555
Cr0 S2 2.461095 1_555
Cr0 S18 2.465678 1_555
Cr0 S26 2.474887 1_565
Cr0 S30 2.621793 1_555
Cr1 S14 2.395423 1_555
Cr1 S6 2.430608 1_555
Cr1 S3 2.461095 1_555
Cr1 S19 2.465678 1_555
Cr1 S27 2.474887 1_545
Cr1 S31 2.621793 1_555
Cr2 S26 2.407275 1_555
Cr2 S9 2.411879 1_455
Cr2 S20 2.420113 1_555
Cr2 S1 2.515209 1_455
Cr2 S30 2.532476 1_555
Cr2 S4 2.541578 1_555
Cr3 S27 2.407275 1_555
Cr3 S8 2.411879 1_655
Cr3 S21 2.420113 1_556
Cr3 S0 2.515209 1_655
Cr3 S31 2.532476 1_555
Cr3 S5 2.541578 1_555
Cr4 S28 2.369605 1_555
Cr4 S18 2.375965 1_556
Cr4 S8 2.405165 1_555
Cr4 S0 2.410502 1_555
Cr4 S22 2.427716 1_556
Cr4 S12 2.602988 1_556
Cr5 S29 2.369605 1_555
Cr5 S19 2.375965 1_555
Cr5 S9 2.405165 1_555
Cr5 S1 2.410502 1_555
Cr5 S23 2.427716 1_555
Cr5 S13 2.602988 1_555
Cr6 S30 2.286758 1_555
Cr6 S20 2.355636 1_555
Cr6 S10 2.362854 1_555
Cr6 S2 2.434341 1_555
Cr6 S16 2.489180 1_555
Cr7 S31 2.286758 1_555
Cr7 S21 2.355636 1_556
Cr7 S11 2.362854 1_555
Cr7 S3 2.434341 1_555
Cr7 S17 2.489180 1_556
Cr8 S24 2.390082 1_555
Cr8 S22 2.391072 1_556
Cr8 S18 2.476892 1_546
Cr8 S8 2.481642 1_555
Cr8 S4 2.486853 1_556
Cr8 S0 2.878618 1_545
Cr9 S25 2.390086 1_555
Cr9 S23 2.391081 1_555
Cr9 S19 2.476898 1_565
Cr9 S9 2.481638 1_555
Cr9 S5 2.486848 1_555
Cr9 S1 2.878612 1_565
Cr10 S20 2.391786 1_555
Cr10 S14 2.395370 1_555
Cr10 S26 2.406789 1_555
Cr10 S16 2.418579 1_545
Cr10 S10 2.425168 1_555
Cr10 S2 2.495539 1_545
Cr11 S21 2.391786 1_556
Cr11 S15 2.395370 1_556
Cr11 S27 2.406789 1_555
Cr11 S17 2.418579 1_566
Cr11 S11 2.425168 1_555
Cr11 S3 2.495539 1_565
Ag0 S13 2.532296 1_455
Ag0 S20 2.560875 1_555
Ag0 S28 2.621815 1_555
Ag0 S8 2.705997 1_555
Ag0 S24 2.750871 1_555
Ag0 S5 2.779263 1_455
Ag1 S12 2.532305 1_655
Ag1 S21 2.560869 1_555
Ag1 S29 2.621808 1_555
Ag1 S9 2.706001 1_555
Ag1 S25 2.750867 1_555
Ag1 S4 2.779269 1_655
Ag2 S15 2.487739 1_545
Ag2 S7 2.509153 1_555
Ag2 S22 2.526438 1_555
Ag2 S26 2.689731 1_555
Ag2 S30 3.069842 1_555
Ag3 S14 2.487739 1_565
Ag3 S6 2.509153 1_555
Ag3 S23 2.526438 1_555
Ag3 S27 2.689731 1_555
Ag3 S31 3.069842 1_555
Ag4 S30 2.460277 1_555
Ag4 S1 2.495825 1_465
Ag4 S12 2.667069 1_555
Ag4 S26 2.764929 1_565
Ag4 S16 3.003474 1_555
Ag5 S31 2.460277 1_555
Ag5 S0 2.495825 1_645
Ag5 S13 2.667069 1_555
Ag5 S27 2.764929 1_545
Ag5 S17 3.003474 1_556
Ag6 S24 2.542796 1_565
Ag6 S14 2.547966 1_565
Ag6 S28 2.638353 1_555
Ag6 S11 2.682710 1_555
Ag7 S25 2.542796 1_545
Ag7 S15 2.547966 1_545
Ag7 S29 2.638353 1_555
Ag7 S10 2.682710 1_555
