# generated using pymatgen
data_Sr7PtN6
_symmetry_space_group_name_H-M   'P 1'
_cell_length_a   6.74291100
_cell_length_b   9.67632661
_cell_length_c   9.67632661
_cell_angle_alpha   80.89601564
_cell_angle_beta   69.60910935
_cell_angle_gamma   69.60910935
_symmetry_Int_Tables_number   1
_chemical_formula_structural   Sr7PtN6
_chemical_formula_sum   'Sr14 Pt2 N12'
_cell_volume   554.21526981
_cell_formula_units_Z   2
loop_
 _symmetry_equiv_pos_site_id
 _symmetry_equiv_pos_as_xyz
  1  'x, y, z'
loop_
 _atom_site_type_symbol
 _atom_site_label
 _atom_site_symmetry_multiplicity
 _atom_site_fract_x
 _atom_site_fract_y
 _atom_site_fract_z
 _atom_site_occupancy
  Sr  Sr0  1  0.26946900  0.95381500  0.04618500  1
  Sr  Sr1  1  0.73053100  0.04618500  0.95381500  1
  Sr  Sr2  1  0.23053100  0.45381500  0.54618500  1
  Sr  Sr3  1  0.76946900  0.54618500  0.45381500  1
  Sr  Sr4  1  0.77015000  0.15087200  0.58678200  1
  Sr  Sr5  1  0.49219600  0.58678200  0.15087200  1
  Sr  Sr6  1  0.72985000  0.91321800  0.34912800  1
  Sr  Sr7  1  0.00780400  0.34912800  0.91321800  1
  Sr  Sr8  1  0.22985000  0.84912800  0.41321800  1
  Sr  Sr9  1  0.50780400  0.41321800  0.84912800  1
  Sr  Sr10  1  0.27015000  0.08678200  0.65087200  1
  Sr  Sr11  1  0.99219600  0.65087200  0.08678200  1
  Sr  Sr12  1  0.25000000  0.25000000  0.25000000  1
  Sr  Sr13  1  0.75000000  0.75000000  0.75000000  1
  Pt  Pt0  1  0.75000000  0.25000000  0.25000000  1
  Pt  Pt1  1  0.25000000  0.75000000  0.75000000  1
  N  N0  1  0.99038000  0.07821400  0.31432800  1
  N  N1  1  0.61707700  0.31432800  0.07821400  1
  N  N2  1  0.50962000  0.18567200  0.42178600  1
  N  N3  1  0.88292300  0.42178600  0.18567200  1
  N  N4  1  0.00962000  0.92178600  0.68567200  1
  N  N5  1  0.38292300  0.68567200  0.92178600  1
  N  N6  1  0.49038000  0.81432800  0.57821400  1
  N  N7  1  0.11707700  0.57821400  0.81432800  1
  N  N8  1  0.89898100  0.35520500  0.64479500  1
  N  N9  1  0.10101900  0.64479500  0.35520500  1
  N  N10  1  0.60101900  0.85520500  0.14479500  1
  N  N11  1  0.39898100  0.14479500  0.85520500  1
loop_
_geom_bond_atom_site_label_1
_geom_bond_atom_site_label_2
_geom_bond_distance
_geom_bond_site_symmetry_2
N0 Pt0 2.067818 1_555
N0 Sr8 2.519518 1_645
N0 Sr4 2.603987 1_555
N0 Sr6 2.668442 1_545
N0 Sr12 2.675098 1_655
N0 Sr0 2.780257 1_645
N1 Pt0 2.067822 1_555
N1 Sr9 2.519515 1_554
N1 Sr5 2.603988 1_555
N1 Sr7 2.668448 1_654
N1 Sr12 2.675093 1_555
N1 Sr1 2.780255 1_554
N2 Pt0 2.067818 1_555
N2 Sr10 2.519518 1_555
N2 Sr6 2.603987 1_545
N2 Sr4 2.668442 1_555
N2 Sr12 2.675098 1_555
N2 Sr2 2.780257 1_555
N3 Pt0 2.067822 1_555
N3 Sr11 2.519515 1_555
N3 Sr7 2.603988 1_654
N3 Sr5 2.668448 1_555
N3 Sr12 2.675093 1_655
N3 Sr3 2.780255 1_555
N4 Pt1 2.067818 1_555
N4 Sr4 2.519518 1_465
N4 Sr8 2.603987 1_555
N4 Sr10 2.668442 1_565
N4 Sr13 2.675098 1_455
N4 Sr1 2.780257 1_465
N5 Pt1 2.067822 1_555
N5 Sr5 2.519515 1_556
N5 Sr9 2.603988 1_555
N5 Sr11 2.668448 1_456
N5 Sr13 2.675093 1_555
N5 Sr0 2.780255 1_556
N6 Pt1 2.067818 1_555
N6 Sr6 2.519518 1_555
N6 Sr10 2.603987 1_565
N6 Sr8 2.668442 1_555
N6 Sr13 2.675098 1_555
N6 Sr3 2.780257 1_555
N7 Pt1 2.067822 1_555
N7 Sr7 2.519515 1_555
N7 Sr11 2.603988 1_456
N7 Sr9 2.668448 1_555
N7 Sr13 2.675093 1_455
N7 Sr2 2.780255 1_555
N8 Sr3 2.551867 1_555
N8 Sr2 2.555537 1_655
N8 Sr4 2.620491 1_555
N8 Sr9 2.620492 1_555
N8 Sr7 2.921956 1_655
N8 Sr10 2.921957 1_655
N9 Sr2 2.551867 1_555
N9 Sr3 2.555537 1_455
N9 Sr8 2.620491 1_555
N9 Sr5 2.620492 1_555
N9 Sr11 2.921956 1_455
N9 Sr6 2.921957 1_455
N10 Sr1 2.551867 1_564
N10 Sr0 2.555537 1_555
N10 Sr6 2.620491 1_555
N10 Sr11 2.620492 1_555
N10 Sr5 2.921956 1_555
N10 Sr8 2.921957 1_555
N11 Sr0 2.551867 1_546
N11 Sr1 2.555537 1_555
N11 Sr10 2.620491 1_555
N11 Sr7 2.620492 1_555
N11 Sr9 2.921956 1_555
N11 Sr4 2.921957 1_555
