# generated using pymatgen
data_Ba2MgFe2B2(P2O9)2
_symmetry_space_group_name_H-M   'P 1'
_cell_length_a   5.41202508
_cell_length_b   8.35136535
_cell_length_c   8.21099216
_cell_angle_alpha   89.72750986
_cell_angle_beta   80.57362009
_cell_angle_gamma   87.64467481
_symmetry_Int_Tables_number   1
_chemical_formula_structural   Ba2MgFe2B2(P2O9)2
_chemical_formula_sum   'Ba2 Mg1 Fe2 B2 P4 O18'
_cell_volume   365.79747192
_cell_formula_units_Z   1
loop_
 _symmetry_equiv_pos_site_id
 _symmetry_equiv_pos_as_xyz
  1  'x, y, z'
loop_
 _atom_site_type_symbol
 _atom_site_label
 _atom_site_symmetry_multiplicity
 _atom_site_fract_x
 _atom_site_fract_y
 _atom_site_fract_z
 _atom_site_occupancy
  Ba  Ba0  1  0.28564000  0.69120100  0.88009600  1
  Ba  Ba1  1  0.72563800  0.31471900  0.11777400  1
  Mg  Mg0  1  0.51771200  0.00882500  0.49813300  1
  Fe  Fe0  1  0.74431100  0.79306000  0.19918200  1
  Fe  Fe1  1  0.26618100  0.21145600  0.80143900  1
  B  B0  1  0.89115700  0.74271400  0.54204500  1
  B  B1  1  0.12053800  0.26197300  0.45808900  1
  P  P0  1  0.80443800  0.43830700  0.70291100  1
  P  P1  1  0.20576400  0.56664600  0.29694400  1
  P  P2  1  0.78499900  0.94402800  0.81064200  1
  P  P3  1  0.22687400  0.06082000  0.19025300  1
  O  O0  1  0.55895700  0.38851700  0.80884600  1
  O  O1  1  0.45193900  0.61607900  0.19184000  1
  O  O2  1  0.99207100  0.57199700  0.19312000  1
  O  O3  1  0.01837200  0.43390300  0.80639300  1
  O  O4  1  0.87374900  0.33159800  0.54430300  1
  O  O5  1  0.13674900  0.67120500  0.45684800  1
  O  O6  1  0.74404400  0.61348700  0.64562300  1
  O  O7  1  0.26406900  0.39052300  0.35241400  1
  O  O8  1  0.90613600  0.09072900  0.86474700  1
  O  O9  1  0.10907500  0.91268400  0.13642600  1
  O  O10  1  0.53570800  0.98455000  0.74407400  1
  O  O11  1  0.47894700  0.02375800  0.25508400  1
  O  O12  1  0.73079700  0.81658300  0.94918000  1
  O  O13  1  0.27654000  0.18903700  0.05201200  1
  O  O14  1  0.97602200  0.85640400  0.66642500  1
  O  O15  1  0.03415700  0.14629800  0.33543200  1
  O  O16  1  0.73753300  0.81923100  0.44206400  1
  O  O17  1  0.27688300  0.18779200  0.55766100  1
loop_
_geom_bond_atom_site_label_1
_geom_bond_atom_site_label_2
_geom_bond_distance
_geom_bond_site_symmetry_2
Ba0 O3 2.762309 1_555
Ba0 O12 2.807687 1_555
Ba0 O9 2.827946 1_556
Ba0 O0 2.888505 1_555
Ba0 O1 2.906677 1_556
Ba0 O14 2.922220 1_455
Ba0 O6 2.932178 1_555
Ba0 O10 2.971908 1_555
Ba0 O2 2.981528 1_456
Ba0 O12 3.102326 1_455
Ba1 O2 2.763698 1_555
Ba1 O13 2.818813 1_555
Ba1 O8 2.826994 1_554
Ba1 O1 2.882912 1_555
Ba1 O0 2.883908 1_554
Ba1 O7 2.942437 1_555
Ba1 O11 2.950539 1_555
Ba1 O15 2.953113 1_655
Ba1 O3 2.969211 1_654
Ba1 O13 3.082759 1_655
Mg0 O16 1.951163 1_545
Mg0 O17 1.951853 1_555
Mg0 O11 2.043259 1_555
Mg0 O10 2.046350 1_545
Fe0 O16 2.001470 1_555
Fe0 O12 2.074113 1_554
Fe0 O1 2.217270 1_555
Fe0 O2 2.232568 1_555
Fe0 O9 2.232641 1_655
Fe0 O11 2.355896 1_565
Fe1 O17 2.003471 1_555
Fe1 O13 2.074745 1_556
Fe1 O8 2.215489 1_455
Fe1 O0 2.219444 1_555
Fe1 O3 2.242673 1_555
Fe1 O10 2.344525 1_545
B0 O16 1.395875 1_555
B0 O5 1.498940 1_655
B0 O14 1.534330 1_555
B0 O6 1.536889 1_555
B1 O17 1.395314 1_555
B1 O4 1.501168 1_455
B1 O7 1.532239 1_555
B1 O15 1.538414 1_555
O0 P0 1.535573 1_555
O1 P1 1.534746 1_555
O2 P1 1.544218 1_655
O3 P0 1.543475 1_455
O4 P0 1.566681 1_555
O5 P1 1.565042 1_555
O6 P0 1.572565 1_555
O7 P1 1.572586 1_555
O8 P2 1.514850 1_545
O9 P3 1.514801 1_565
O10 P2 1.560708 1_555
O11 P3 1.562655 1_555
O12 P2 1.554894 1_555
O13 P3 1.555452 1_555
O14 P2 1.597370 1_555
O15 P3 1.599398 1_555
