# generated using pymatgen
data_Ce2Gd2O7
_symmetry_space_group_name_H-M   'P 1'
_cell_length_a   9.53943707
_cell_length_b   9.53943707
_cell_length_c   11.02551916
_cell_angle_alpha   54.81287516
_cell_angle_beta   54.81287516
_cell_angle_gamma   70.60052338
_symmetry_Int_Tables_number   1
_chemical_formula_structural   Ce2Gd2O7
_chemical_formula_sum   'Ce8 Gd8 O28'
_cell_volume   670.16283605
_cell_formula_units_Z   4
loop_
 _symmetry_equiv_pos_site_id
 _symmetry_equiv_pos_as_xyz
  1  'x, y, z'
loop_
 _atom_site_type_symbol
 _atom_site_label
 _atom_site_symmetry_multiplicity
 _atom_site_fract_x
 _atom_site_fract_y
 _atom_site_fract_z
 _atom_site_occupancy
  Ce  Ce0  1  0.74709200  0.75070800  0.22788600  1
  Ce  Ce1  1  0.02393100  0.52237700  0.47597900  1
  Ce  Ce2  1  0.77191900  0.22808100  0.50000000  1
  Ce  Ce3  1  0.24929200  0.25290800  0.77211400  1
  Ce  Ce4  1  0.47762300  0.97606900  0.52402100  1
  Ce  Ce5  1  0.72566800  0.27433200  0.00000000  1
  Ce  Ce6  1  0.02453900  0.99950900  0.25002500  1
  Ce  Ce7  1  0.00049100  0.97546100  0.74997500  1
  Gd  Gd0  1  0.74567100  0.74864900  0.75372500  1
  Gd  Gd1  1  0.50019600  0.99886300  0.00103700  1
  Gd  Gd2  1  0.25191700  0.74808300  0.50000000  1
  Gd  Gd3  1  0.25135100  0.25432900  0.24627500  1
  Gd  Gd4  1  0.00113700  0.49980400  0.99896300  1
  Gd  Gd5  1  0.25322400  0.74677600  0.00000000  1
  Gd  Gd6  1  0.47599600  0.49925900  0.77425600  1
  Gd  Gd7  1  0.50074100  0.52400400  0.22574400  1
  O  O0  1  0.49215700  0.74894500  0.75039500  1
  O  O1  1  0.49842900  0.25842200  0.00085500  1
  O  O2  1  0.24923500  0.49409400  0.75759200  1
  O  O3  1  0.25105500  0.50784300  0.24960500  1
  O  O4  1  0.74157800  0.50157100  0.99914500  1
  O  O5  1  0.50590600  0.75076500  0.24240800  1
  O  O6  1  0.00985900  0.75690200  0.48743700  1
  O  O7  1  0.00303300  0.23765400  0.25526400  1
  O  O8  1  0.24595700  0.00655200  0.00708900  1
  O  O9  1  0.24309800  0.99014100  0.51256300  1
  O  O10  1  0.76234600  0.99696700  0.74473600  1
  O  O11  1  0.99344800  0.75404300  0.99291100  1
  O  O12  1  0.51924100  0.26337000  0.71003600  1
  O  O13  1  0.53804300  0.75674700  0.47543700  1
  O  O14  1  0.77673300  0.47982100  0.72899500  1
  O  O15  1  0.73663000  0.48075900  0.28996400  1
  O  O16  1  0.24325300  0.46195700  0.52456300  1
  O  O17  1  0.52017900  0.22326700  0.27100500  1
  O  O18  1  0.98226600  0.23169500  0.99846400  1
  O  O19  1  0.96034100  0.74801000  0.26993000  1
  O  O20  1  0.73050300  0.02055800  0.48266800  1
  O  O21  1  0.76830500  0.01773400  0.00153600  1
  O  O22  1  0.25199000  0.03965900  0.73007000  1
  O  O23  1  0.97944200  0.26949700  0.51733200  1
  O  O24  1  0.23985800  0.50022300  0.00908500  1
  O  O25  1  0.49977700  0.76014200  0.99091500  1
  O  O26  1  0.25397100  0.99996900  0.25096000  1
  O  O27  1  0.00003100  0.74602900  0.74904000  1
loop_
_geom_bond_atom_site_label_1
_geom_bond_atom_site_label_2
_geom_bond_distance
_geom_bond_site_symmetry_2
Ce0 O5 2.212222 1_555
Ce0 O15 2.273884 1_555
Ce0 O11 2.274547 1_554
Ce0 O21 2.278516 1_565
Ce0 O13 2.293819 1_555
Ce0 O19 2.322090 1_555
Ce1 O3 2.215834 1_555
Ce1 O16 2.265215 1_555
Ce1 O6 2.268455 1_555
Ce1 O19 2.290693 1_455
Ce1 O14 2.292794 1_455
Ce1 O23 2.323111 1_455
Ce2 O10 2.267949 1_545
Ce2 O7 2.267949 1_655
Ce2 O20 2.270289 1_555
Ce2 O23 2.270289 1_555
Ce2 O15 2.283064 1_555
Ce2 O12 2.283064 1_555
Ce3 O2 2.212222 1_555
Ce3 O12 2.273884 1_555
Ce3 O8 2.274547 1_556
Ce3 O18 2.278516 1_455
Ce3 O16 2.293819 1_555
Ce3 O22 2.322090 1_555
Ce4 O0 2.215834 1_555
Ce4 O13 2.265215 1_555
Ce4 O9 2.268455 1_555
Ce4 O22 2.290693 1_565
Ce4 O17 2.292794 1_565
Ce4 O20 2.323111 1_565
Ce5 O4 2.217103 1_554
Ce5 O1 2.217103 1_555
Ce5 O17 2.283488 1_555
Ce5 O14 2.283488 1_554
Ce5 O21 2.335857 1_555
Ce5 O18 2.335857 1_554
Ce6 O26 2.196078 1_555
Ce6 O8 2.237597 1_565
Ce6 O7 2.243731 1_565
Ce6 O6 2.244674 1_555
Ce6 O18 2.525248 1_464
Ce6 O19 2.528538 1_455
Ce6 O20 2.532754 1_465
Ce7 O27 2.196078 1_555
Ce7 O11 2.237597 1_455
Ce7 O10 2.243731 1_455
Ce7 O9 2.244674 1_555
Ce7 O21 2.525248 1_466
Ce7 O22 2.528538 1_565
Ce7 O23 2.532754 1_465
Gd0 O25 2.333039 1_555
Gd0 O4 2.338325 1_555
Gd0 O10 2.368117 1_555
Gd0 O27 2.389081 1_655
Gd0 O0 2.438770 1_555
Gd0 O6 2.513032 1_655
Gd0 O14 2.635639 1_555
Gd0 O20 2.644897 1_565
Gd1 O25 2.344752 1_554
Gd1 O5 2.347136 1_555
Gd1 O8 2.364921 1_565
Gd1 O26 2.380726 1_555
Gd1 O1 2.469349 1_565
Gd1 O10 2.474669 1_554
Gd1 O21 2.626217 1_565
Gd1 O12 2.645059 1_564
Gd2 O9 2.363119 1_555
Gd2 O6 2.363119 1_555
Gd2 O26 2.383037 1_555
Gd2 O27 2.383037 1_555
Gd2 O5 2.442135 1_555
Gd2 O2 2.442135 1_555
Gd2 O13 2.608138 1_555
Gd2 O16 2.608138 1_555
Gd3 O24 2.333039 1_555
Gd3 O1 2.338325 1_555
Gd3 O7 2.368117 1_555
Gd3 O26 2.389081 1_545
Gd3 O3 2.438770 1_555
Gd3 O9 2.513032 1_545
Gd3 O17 2.635639 1_555
Gd3 O23 2.644897 1_455
Gd4 O24 2.344752 1_556
Gd4 O2 2.347136 1_555
Gd4 O11 2.364921 1_455
Gd4 O27 2.380726 1_555
Gd4 O4 2.469349 1_455
Gd4 O7 2.474669 1_556
Gd4 O18 2.626217 1_455
Gd4 O15 2.645059 1_456
Gd5 O24 2.339031 1_555
Gd5 O25 2.339031 1_554
Gd5 O3 2.346423 1_555
Gd5 O0 2.346423 1_554
Gd5 O8 2.500967 1_565
Gd5 O11 2.500967 1_454
Gd5 O22 2.664380 1_564
Gd5 O19 2.664380 1_455
Gd6 O24 2.251638 1_556
Gd6 O1 2.289171 1_556
Gd6 O0 2.289382 1_555
Gd6 O2 2.292331 1_555
Gd6 O14 2.572368 1_555
Gd6 O12 2.572570 1_555
Gd6 O13 2.574878 1_555
Gd7 O25 2.251638 1_554
Gd7 O4 2.289171 1_554
Gd7 O3 2.289382 1_555
Gd7 O5 2.292331 1_555
Gd7 O17 2.572368 1_555
Gd7 O15 2.572570 1_555
Gd7 O16 2.574878 1_555
