# generated using pymatgen
data_Pr2Mg
_symmetry_space_group_name_H-M   'P 1'
_cell_length_a   18.11080473
_cell_length_b   18.11080473
_cell_length_c   11.33167744
_cell_angle_alpha   90.00000000
_cell_angle_beta   90.00000000
_cell_angle_gamma   155.09730284
_symmetry_Int_Tables_number   1
_chemical_formula_structural   Pr2Mg
_chemical_formula_sum   'Pr32 Mg16'
_cell_volume   1565.06643945
_cell_formula_units_Z   16
loop_
 _symmetry_equiv_pos_site_id
 _symmetry_equiv_pos_as_xyz
  1  'x, y, z'
loop_
 _atom_site_type_symbol
 _atom_site_label
 _atom_site_symmetry_multiplicity
 _atom_site_fract_x
 _atom_site_fract_y
 _atom_site_fract_z
 _atom_site_occupancy
  Pr  Pr0_0  1  0.04304330  0.45695670  0.12500000  1
  Pr  Pr0_1  1  0.04304330  0.45695670  0.62500000  1
  Pr  Pr0_2  1  0.04304330  0.95695670  0.12500000  1
  Pr  Pr0_3  1  0.04304330  0.95695670  0.62500000  1
  Pr  Pr0_4  1  0.54304330  0.45695670  0.12500000  1
  Pr  Pr0_5  1  0.54304330  0.45695670  0.62500000  1
  Pr  Pr0_6  1  0.54304330  0.95695670  0.12500000  1
  Pr  Pr0_7  1  0.54304330  0.95695670  0.62500000  1
  Pr  Pr1_0  1  0.38606620  0.11393379  0.12500000  1
  Pr  Pr1_1  1  0.38606620  0.11393379  0.62500000  1
  Pr  Pr1_2  1  0.38606620  0.61393380  0.12500000  1
  Pr  Pr1_3  1  0.38606620  0.61393380  0.62500000  1
  Pr  Pr1_4  1  0.88606620  0.11393379  0.12500000  1
  Pr  Pr1_5  1  0.88606620  0.11393379  0.62500000  1
  Pr  Pr1_6  1  0.88606620  0.61393380  0.12500000  1
  Pr  Pr1_7  1  0.88606620  0.61393380  0.62500000  1
  Pr  Pr2_0  1  0.45695620  0.04304380  0.37500000  1
  Pr  Pr2_1  1  0.45695620  0.04304380  0.87500000  1
  Pr  Pr2_2  1  0.45695620  0.54304380  0.37500000  1
  Pr  Pr2_3  1  0.45695620  0.54304380  0.87500000  1
  Pr  Pr2_4  1  0.95695620  0.04304380  0.37500000  1
  Pr  Pr2_5  1  0.95695620  0.04304380  0.87500000  1
  Pr  Pr2_6  1  0.95695620  0.54304380  0.37500000  1
  Pr  Pr2_7  1  0.95695620  0.54304380  0.87500000  1
  Pr  Pr3_0  1  0.11393380  0.38606620  0.37500000  1
  Pr  Pr3_1  1  0.11393380  0.38606620  0.87500000  1
  Pr  Pr3_2  1  0.11393379  0.88606620  0.37500000  1
  Pr  Pr3_3  1  0.11393379  0.88606620  0.87500000  1
  Pr  Pr3_4  1  0.61393380  0.38606620  0.37500000  1
  Pr  Pr3_5  1  0.61393380  0.38606620  0.87500000  1
  Pr  Pr3_6  1  0.61393380  0.88606620  0.37500000  1
  Pr  Pr3_7  1  0.61393380  0.88606620  0.87500000  1
  Mg  Mg0_0  1  0.21499745  0.28500255  0.12500000  1
  Mg  Mg0_1  1  0.21499745  0.28500255  0.62500000  1
  Mg  Mg0_2  1  0.21499745  0.78500255  0.12500000  1
  Mg  Mg0_3  1  0.21499745  0.78500255  0.62500000  1
  Mg  Mg0_4  1  0.71499745  0.28500255  0.12500000  1
  Mg  Mg0_5  1  0.71499745  0.28500255  0.62500000  1
  Mg  Mg0_6  1  0.71499745  0.78500255  0.12500000  1
  Mg  Mg0_7  1  0.71499745  0.78500255  0.62500000  1
  Mg  Mg1_0  1  0.28500255  0.21499745  0.37500000  1
  Mg  Mg1_1  1  0.28500255  0.21499745  0.87500000  1
  Mg  Mg1_2  1  0.28500255  0.71499745  0.37500000  1
  Mg  Mg1_3  1  0.28500255  0.71499745  0.87500000  1
  Mg  Mg1_4  1  0.78500255  0.21499745  0.37500000  1
  Mg  Mg1_5  1  0.78500255  0.21499745  0.87500000  1
  Mg  Mg1_6  1  0.78500255  0.71499745  0.37500000  1
  Mg  Mg1_7  1  0.78500255  0.71499745  0.87500000  1
loop_
_geom_bond_atom_site_label_1
_geom_bond_atom_site_label_2
_geom_bond_distance
_geom_bond_site_symmetry_2
Pr0_0 Pr3_1 3.783167 1_554
Pr0_0 Pr3_0 3.783167 1_555
Pr0_0 Pr1_2 3.825880 1_555
Pr0_0 Pr1_4 3.825880 1_455
Pr0_0 Pr0_6 3.904880 1_445
Pr0_0 Pr0_6 3.904880 1_555
Pr0_1 Pr3_0 3.783167 1_555
Pr0_1 Pr3_1 3.783167 1_555
Pr0_1 Pr1_3 3.825880 1_555
Pr0_1 Pr1_5 3.825880 1_455
Pr0_1 Pr0_7 3.904880 1_555
Pr0_1 Pr0_7 3.904880 1_445
Pr0_2 Pr3_3 3.783167 1_554
Pr0_2 Pr3_2 3.783167 1_555
Pr0_2 Pr1_6 3.825880 1_455
Pr0_2 Pr1_0 3.825880 1_565
Pr0_2 Pr0_4 3.904880 1_455
Pr0_2 Pr0_4 3.904880 1_565
Pr0_3 Pr3_3 3.783167 1_555
Pr0_3 Pr3_2 3.783167 1_555
Pr0_3 Pr1_7 3.825880 1_455
Pr0_3 Pr1_1 3.825880 1_565
Pr0_3 Pr0_5 3.904880 1_455
Pr0_3 Pr0_5 3.904880 1_565
Pr0_4 Pr3_4 3.783167 1_555
Pr0_4 Pr3_5 3.783167 1_554
Pr0_4 Pr1_6 3.825880 1_555
Pr0_4 Pr1_0 3.825880 1_555
Pr0_5 Pr3_4 3.783167 1_555
Pr0_5 Pr3_5 3.783167 1_555
Pr0_5 Pr1_7 3.825880 1_555
Pr0_5 Pr1_1 3.825880 1_555
Pr0_6 Pr3_6 3.783167 1_555
Pr0_6 Pr3_7 3.783167 1_554
Pr0_6 Pr1_2 3.825880 1_555
Pr0_6 Pr1_4 3.825880 1_565
Pr0_7 Pr3_6 3.783167 1_555
Pr0_7 Pr3_7 3.783167 1_555
Pr0_7 Pr1_3 3.825880 1_555
Pr0_7 Pr1_5 3.825880 1_565
Pr1_0 Pr3_4 3.528492 1_555
Pr1_0 Pr3_3 3.528492 1_544
Pr1_0 Pr3_5 3.528492 1_554
Pr1_0 Pr3_2 3.528492 1_545
Pr1_0 Pr2_0 3.783155 1_555
Pr1_0 Pr2_1 3.783155 1_554
Pr1_0 Pr1_6 3.904880 1_445
Pr1_0 Pr1_6 3.904880 1_555
Pr1_1 Pr3_4 3.528492 1_555
Pr1_1 Pr3_5 3.528492 1_555
Pr1_1 Pr3_3 3.528492 1_545
Pr1_1 Pr3_2 3.528492 1_545
Pr1_1 Pr2_0 3.783155 1_555
Pr1_1 Pr2_1 3.783155 1_555
Pr1_1 Pr1_7 3.904880 1_555
Pr1_1 Pr1_7 3.904880 1_445
Pr1_2 Pr3_1 3.528492 1_554
Pr1_2 Pr3_0 3.528492 1_555
Pr1_2 Pr3_7 3.528492 1_554
Pr1_2 Pr3_6 3.528492 1_555
Pr1_2 Pr2_2 3.783155 1_555
Pr1_2 Pr2_3 3.783155 1_554
Pr1_2 Pr1_4 3.904880 1_565
Pr1_2 Pr1_4 3.904880 1_455
Pr1_3 Pr3_1 3.528492 1_555
Pr1_3 Pr3_7 3.528492 1_555
Pr1_3 Pr3_0 3.528492 1_555
Pr1_3 Pr3_6 3.528492 1_555
Pr1_3 Pr2_2 3.783155 1_555
Pr1_3 Pr2_3 3.783155 1_555
Pr1_3 Pr1_5 3.904880 1_565
Pr1_3 Pr1_5 3.904880 1_455
Pr1_4 Pr3_7 3.528492 1_544
Pr1_4 Pr3_1 3.528492 1_654
Pr1_4 Pr3_0 3.528492 1_655
Pr1_4 Pr3_6 3.528492 1_545
Pr1_4 Pr2_4 3.783155 1_555
Pr1_4 Pr2_5 3.783155 1_554
Pr1_5 Pr3_7 3.528492 1_545
Pr1_5 Pr3_1 3.528492 1_655
Pr1_5 Pr3_0 3.528492 1_655
Pr1_5 Pr3_6 3.528492 1_545
Pr1_5 Pr2_4 3.783155 1_555
Pr1_5 Pr2_5 3.783155 1_555
Pr1_6 Pr3_4 3.528492 1_555
Pr1_6 Pr3_3 3.528492 1_654
Pr1_6 Pr3_2 3.528492 1_655
Pr1_6 Pr3_5 3.528492 1_554
Pr1_6 Pr2_6 3.783155 1_555
Pr1_6 Pr2_7 3.783155 1_554
Pr1_7 Pr3_4 3.528492 1_555
Pr1_7 Pr3_5 3.528492 1_555
Pr1_7 Pr3_2 3.528492 1_655
Pr1_7 Pr3_3 3.528492 1_655
Pr1_7 Pr2_6 3.783155 1_555
Pr1_7 Pr2_7 3.783155 1_555
Pr2_0 Pr3_2 3.825865 1_545
Pr2_0 Pr3_4 3.825865 1_555
Pr2_0 Pr2_6 3.904880 1_445
Pr2_0 Pr2_6 3.904880 1_555
Pr2_1 Pr3_3 3.825865 1_545
Pr2_1 Pr3_5 3.825865 1_555
Pr2_1 Pr2_7 3.904880 1_445
Pr2_1 Pr2_7 3.904880 1_555
Pr2_2 Pr3_0 3.825865 1_555
Pr2_2 Pr3_6 3.825865 1_555
Pr2_2 Pr2_4 3.904880 1_455
Pr2_2 Pr2_4 3.904880 1_565
Pr2_3 Pr3_1 3.825865 1_555
Pr2_3 Pr3_7 3.825865 1_555
Pr2_3 Pr2_5 3.904880 1_455
Pr2_3 Pr2_5 3.904880 1_565
Pr2_4 Pr3_6 3.825865 1_545
Pr2_4 Pr3_0 3.825865 1_655
Pr2_5 Pr3_7 3.825865 1_545
Pr2_5 Pr3_1 3.825865 1_655
Pr2_6 Pr3_4 3.825865 1_555
Pr2_6 Pr3_2 3.825865 1_655
Pr2_7 Pr3_5 3.825865 1_555
Pr2_7 Pr3_3 3.825865 1_655
Pr3_0 Pr3_6 3.904880 1_445
Pr3_0 Pr3_6 3.904880 1_555
Pr3_1 Pr3_7 3.904880 1_555
Pr3_1 Pr3_7 3.904880 1_445
Pr3_2 Pr3_4 3.904880 1_455
Pr3_2 Pr3_4 3.904880 1_565
Pr3_3 Pr3_5 3.904880 1_455
Pr3_3 Pr3_5 3.904880 1_565
Mg0_0 Pr0_2 3.381144 1_545
Mg0_0 Pr0_4 3.381144 1_555
Mg0_0 Pr1_4 3.406759 1_455
Mg0_0 Pr1_2 3.406759 1_555
Mg0_0 Pr2_4 3.452296 1_455
Mg0_0 Pr2_5 3.452296 1_454
Mg0_0 Pr2_3 3.452296 1_554
Mg0_0 Pr2_2 3.452296 1_555
Mg0_1 Pr0_3 3.381144 1_545
Mg0_1 Pr0_5 3.381144 1_555
Mg0_1 Pr1_5 3.406759 1_455
Mg0_1 Pr1_3 3.406759 1_555
Mg0_1 Pr2_5 3.452296 1_455
Mg0_1 Pr2_4 3.452296 1_455
Mg0_1 Pr2_2 3.452296 1_555
Mg0_1 Pr2_3 3.452296 1_555
Mg0_2 Pr0_0 3.381144 1_555
Mg0_2 Pr0_6 3.381144 1_555
Mg0_2 Pr1_6 3.406759 1_455
Mg0_2 Pr1_0 3.406759 1_565
Mg0_2 Pr2_6 3.452296 1_455
Mg0_2 Pr2_7 3.452296 1_454
Mg0_2 Pr2_0 3.452296 1_565
Mg0_2 Pr2_1 3.452296 1_564
Mg0_3 Pr0_1 3.381144 1_555
Mg0_3 Pr0_7 3.381144 1_555
Mg0_3 Pr1_7 3.406759 1_455
Mg0_3 Pr1_1 3.406759 1_565
Mg0_3 Pr2_6 3.452296 1_455
Mg0_3 Pr2_7 3.452296 1_455
Mg0_3 Pr2_0 3.452296 1_565
Mg0_3 Pr2_1 3.452296 1_565
Mg0_4 Pr0_6 3.381144 1_545
Mg0_4 Pr0_0 3.381144 1_655
Mg0_4 Pr1_0 3.406759 1_555
Mg0_4 Pr1_6 3.406759 1_555
Mg0_4 Pr2_0 3.452296 1_555
Mg0_4 Pr2_1 3.452296 1_554
Mg0_4 Pr2_6 3.452296 1_555
Mg0_4 Pr2_7 3.452296 1_554
Mg0_5 Pr0_7 3.381144 1_545
Mg0_5 Pr0_1 3.381144 1_655
Mg0_5 Pr1_1 3.406759 1_555
Mg0_5 Pr1_7 3.406759 1_555
Mg0_5 Pr2_1 3.452296 1_555
Mg0_5 Pr2_0 3.452296 1_555
Mg0_5 Pr2_6 3.452296 1_555
Mg0_5 Pr2_7 3.452296 1_555
Mg0_6 Pr0_4 3.381144 1_555
Mg0_6 Pr0_2 3.381144 1_655
Mg0_6 Pr1_2 3.406759 1_555
Mg0_6 Pr1_4 3.406759 1_565
Mg0_6 Pr2_3 3.452296 1_554
Mg0_6 Pr2_2 3.452296 1_555
Mg0_6 Pr2_4 3.452296 1_565
Mg0_6 Pr2_5 3.452296 1_564
Mg0_7 Pr0_5 3.381144 1_555
Mg0_7 Pr0_3 3.381144 1_655
Mg0_7 Pr1_3 3.406759 1_555
Mg0_7 Pr1_5 3.406759 1_565
Mg0_7 Pr2_3 3.452296 1_555
Mg0_7 Pr2_2 3.452296 1_555
Mg0_7 Pr2_4 3.452296 1_565
Mg0_7 Pr2_5 3.452296 1_565
Mg1_0 Pr2_4 3.381158 1_455
Mg1_0 Pr2_2 3.381158 1_555
Mg1_0 Pr3_2 3.406759 1_545
Mg1_0 Pr3_4 3.406759 1_555
Mg1_0 Pr0_2 3.452294 1_545
Mg1_0 Pr0_3 3.452294 1_545
Mg1_0 Pr0_5 3.452294 1_555
Mg1_0 Pr0_4 3.452294 1_555
Mg1_1 Pr2_5 3.381158 1_455
Mg1_1 Pr2_3 3.381158 1_555
Mg1_1 Pr3_3 3.406759 1_545
Mg1_1 Pr3_5 3.406759 1_555
Mg1_1 Pr0_2 3.452294 1_546
Mg1_1 Pr0_3 3.452294 1_545
Mg1_1 Pr0_5 3.452294 1_555
Mg1_1 Pr0_4 3.452294 1_556
Mg1_2 Pr2_6 3.381158 1_455
Mg1_2 Pr2_0 3.381158 1_565
Mg1_2 Pr3_0 3.406759 1_555
Mg1_2 Pr3_6 3.406759 1_555
Mg1_2 Pr0_1 3.452294 1_555
Mg1_2 Pr0_0 3.452294 1_555
Mg1_2 Pr0_6 3.452294 1_555
Mg1_2 Pr0_7 3.452294 1_555
Mg1_3 Pr2_7 3.381158 1_455
Mg1_3 Pr2_1 3.381158 1_565
Mg1_3 Pr3_1 3.406759 1_555
Mg1_3 Pr3_7 3.406759 1_555
Mg1_3 Pr0_0 3.452294 1_556
Mg1_3 Pr0_1 3.452294 1_555
Mg1_3 Pr0_7 3.452294 1_555
Mg1_3 Pr0_6 3.452294 1_556
Mg1_4 Pr2_0 3.381158 1_555
Mg1_4 Pr2_6 3.381158 1_555
Mg1_4 Pr3_6 3.406759 1_545
Mg1_4 Pr3_0 3.406759 1_655
Mg1_4 Pr0_6 3.452294 1_545
Mg1_4 Pr0_7 3.452294 1_545
Mg1_4 Pr0_1 3.452294 1_655
Mg1_4 Pr0_0 3.452294 1_655
Mg1_5 Pr2_1 3.381158 1_555
Mg1_5 Pr2_7 3.381158 1_555
Mg1_5 Pr3_7 3.406759 1_545
Mg1_5 Pr3_1 3.406759 1_655
Mg1_5 Pr0_7 3.452294 1_545
Mg1_5 Pr0_6 3.452294 1_546
Mg1_5 Pr0_1 3.452294 1_655
Mg1_5 Pr0_0 3.452294 1_656
Mg1_6 Pr2_2 3.381158 1_555
Mg1_6 Pr2_4 3.381158 1_565
Mg1_6 Pr3_4 3.406759 1_555
Mg1_6 Pr3_2 3.406759 1_655
Mg1_6 Pr0_5 3.452294 1_555
Mg1_6 Pr0_4 3.452294 1_555
Mg1_6 Pr0_2 3.452294 1_655
Mg1_6 Pr0_3 3.452294 1_655
Mg1_7 Pr2_3 3.381158 1_555
Mg1_7 Pr2_5 3.381158 1_565
Mg1_7 Pr3_5 3.406759 1_555
Mg1_7 Pr3_3 3.406759 1_655
Mg1_7 Pr0_5 3.452294 1_555
Mg1_7 Pr0_4 3.452294 1_556
Mg1_7 Pr0_2 3.452294 1_656
Mg1_7 Pr0_3 3.452294 1_655
