# generated using pymatgen
data_BaSrI4
_symmetry_space_group_name_H-M   'P 1'
_cell_length_a   10.37191500
_cell_length_b   10.77772400
_cell_length_c   10.95993700
_cell_angle_alpha   90.00000000
_cell_angle_beta   90.00000000
_cell_angle_gamma   90.00000000
_symmetry_Int_Tables_number   1
_chemical_formula_structural   BaSrI4
_chemical_formula_sum   'Ba4 Sr4 I16'
_cell_volume   1225.16354145
_cell_formula_units_Z   4
loop_
 _symmetry_equiv_pos_site_id
 _symmetry_equiv_pos_as_xyz
  1  'x, y, z'
loop_
 _atom_site_type_symbol
 _atom_site_label
 _atom_site_symmetry_multiplicity
 _atom_site_fract_x
 _atom_site_fract_y
 _atom_site_fract_z
 _atom_site_occupancy
  Ba  Ba0  1  0.75000000  0.19677100  0.75000000  1
  Ba  Ba1  1  0.25000000  0.30322900  0.75000000  1
  Ba  Ba2  1  0.75000000  0.69677100  0.25000000  1
  Ba  Ba3  1  0.25000000  0.80322900  0.25000000  1
  Sr  Sr0  1  0.00000000  0.25000000  0.26442700  1
  Sr  Sr1  1  0.50000000  0.25000000  0.23557300  1
  Sr  Sr2  1  0.00000000  0.75000000  0.73557300  1
  Sr  Sr3  1  0.50000000  0.75000000  0.76442700  1
  I  I0  1  0.03867300  0.05034400  0.72829000  1
  I  I1  1  0.46132700  0.05034400  0.77171000  1
  I  I2  1  0.23622200  0.20816800  0.06075600  1
  I  I3  1  0.26377800  0.20816800  0.43924400  1
  I  I4  1  0.76377800  0.29183200  0.06075600  1
  I  I5  1  0.73622200  0.29183200  0.43924400  1
  I  I6  1  0.53867300  0.44965600  0.77171000  1
  I  I7  1  0.96132700  0.44965600  0.72829000  1
  I  I8  1  0.03867300  0.55034400  0.27171000  1
  I  I9  1  0.46132700  0.55034400  0.22829000  1
  I  I10  1  0.26377800  0.70816800  0.56075600  1
  I  I11  1  0.23622200  0.70816800  0.93924400  1
  I  I12  1  0.73622200  0.79183200  0.56075600  1
  I  I13  1  0.76377800  0.79183200  0.93924400  1
  I  I14  1  0.53867300  0.94965600  0.22829000  1
  I  I15  1  0.96132700  0.94965600  0.27171000  1
loop_
_geom_bond_atom_site_label_1
_geom_bond_atom_site_label_2
_geom_bond_distance
_geom_bond_site_symmetry_2
Ba0 I0 3.392898 1_655
Ba0 I1 3.392898 1_555
Ba0 I7 3.505621 1_555
Ba0 I6 3.505621 1_555
Ba0 I4 3.559499 1_556
Ba0 I5 3.559499 1_555
Ba1 I6 3.392898 1_555
Ba1 I7 3.392898 1_455
Ba1 I1 3.505621 1_555
Ba1 I0 3.505621 1_555
Ba1 I2 3.559499 1_556
Ba1 I3 3.559499 1_555
Ba2 I8 3.392898 1_655
Ba2 I9 3.392898 1_555
Ba2 I15 3.505621 1_555
Ba2 I14 3.505621 1_555
Ba2 I12 3.559499 1_555
Ba2 I13 3.559499 1_554
Ba3 I14 3.392898 1_555
Ba3 I15 3.392898 1_455
Ba3 I9 3.505621 1_555
Ba3 I8 3.505621 1_555
Ba3 I10 3.559499 1_555
Ba3 I11 3.559499 1_554
I0 Sr2 3.262758 1_545
I1 Sr3 3.262758 1_545
I2 Sr0 3.344988 1_555
I2 Sr1 3.370359 1_555
I3 Sr1 3.344988 1_555
I3 Sr0 3.370359 1_555
I4 Sr0 3.344988 1_655
I4 Sr1 3.370359 1_555
I5 Sr1 3.344988 1_555
I5 Sr0 3.370359 1_655
I6 Sr3 3.262758 1_555
I7 Sr2 3.262758 1_655
I8 Sr0 3.262758 1_555
I9 Sr1 3.262758 1_555
I10 Sr3 3.344988 1_555
I10 Sr2 3.370359 1_555
I11 Sr2 3.344988 1_555
I11 Sr3 3.370359 1_555
I12 Sr3 3.344988 1_555
I12 Sr2 3.370359 1_655
I13 Sr2 3.344988 1_655
I13 Sr3 3.370359 1_555
I14 Sr1 3.262758 1_565
I15 Sr0 3.262758 1_665
