# generated using pymatgen
data_ErAlPt
_symmetry_space_group_name_H-M   'P 1'
_cell_length_a   4.37059208
_cell_length_b   6.83121641
_cell_length_c   7.68336352
_cell_angle_alpha   90.01871933
_cell_angle_beta   90.00000000
_cell_angle_gamma   90.00000000
_symmetry_Int_Tables_number   1
_chemical_formula_structural   ErAlPt
_chemical_formula_sum   'Er4 Al4 Pt4'
_cell_volume   229.39802607
_cell_formula_units_Z   4
loop_
 _symmetry_equiv_pos_site_id
 _symmetry_equiv_pos_as_xyz
  1  'x, y, z'
loop_
 _atom_site_type_symbol
 _atom_site_label
 _atom_site_symmetry_multiplicity
 _atom_site_fract_x
 _atom_site_fract_y
 _atom_site_fract_z
 _atom_site_occupancy
  Er  Er0  1  0.25000000  0.47198108  0.18118006  1
  Er  Er1  1  0.75000000  0.52801892  0.81881994  1
  Er  Er2  1  0.75000000  0.02798545  0.68116823  1
  Er  Er3  1  0.25000000  0.97201455  0.31883177  1
  Al  Al0  1  0.25000000  0.85594584  0.93612960  1
  Al  Al1  1  0.75000000  0.14405416  0.06387040  1
  Al  Al2  1  0.75000000  0.64409166  0.43604826  1
  Al  Al3  1  0.25000000  0.35590834  0.56395174  1
  Pt  Pt0  1  0.25000000  0.72881271  0.61693460  1
  Pt  Pt1  1  0.75000000  0.27118729  0.38306540  1
  Pt  Pt2  1  0.75000000  0.77123112  0.11704776  1
  Pt  Pt3  1  0.25000000  0.22876888  0.88295224  1
loop_
_geom_bond_atom_site_label_1
_geom_bond_atom_site_label_2
_geom_bond_distance
_geom_bond_site_symmetry_2
Er0 Pt3 2.829905 1_554
Er0 Pt1 3.010726 1_555
Er0 Pt1 3.010726 1_455
Er0 Pt2 3.032805 1_555
Er0 Pt2 3.032805 1_455
Er0 Er1 3.560087 1_454
Er0 Er1 3.560087 1_554
Er0 Er3 3.575494 1_555
Er0 Er3 3.575717 1_545
Er1 Pt2 2.829905 1_556
Er1 Pt0 3.010726 1_655
Er1 Pt0 3.010726 1_555
Er1 Pt3 3.032805 1_555
Er1 Pt3 3.032805 1_655
Er1 Er2 3.575494 1_555
Er1 Er2 3.575717 1_565
Er2 Pt1 2.829964 1_555
Er2 Pt3 3.009831 1_655
Er2 Pt3 3.009831 1_555
Er2 Pt0 3.032358 1_545
Er2 Pt0 3.032358 1_645
Er2 Er3 3.559700 1_645
Er2 Er3 3.559700 1_545
Er3 Pt0 2.829964 1_555
Er3 Pt2 3.009831 1_455
Er3 Pt2 3.009831 1_555
Er3 Pt1 3.032358 1_465
Er3 Pt1 3.032358 1_565
Al0 Pt3 2.579532 1_565
Al0 Pt0 2.601455 1_555
Al0 Pt2 2.653905 1_556
Al0 Pt2 2.653905 1_456
Al0 Er3 3.045216 1_556
Al0 Er2 3.161604 1_565
Al0 Er2 3.161604 1_465
Al0 Er0 3.229250 1_556
Al0 Er1 3.256505 1_455
Al0 Er1 3.256505 1_555
Al1 Pt2 2.579532 1_545
Al1 Pt1 2.601455 1_555
Al1 Pt3 2.653905 1_554
Al1 Pt3 2.653905 1_654
Al1 Er2 3.045216 1_554
Al1 Er3 3.161604 1_545
Al1 Er3 3.161604 1_645
Al1 Er1 3.229250 1_554
Al1 Er0 3.256505 1_555
Al1 Er0 3.256505 1_655
Al2 Pt1 2.579581 1_555
Al2 Pt2 2.600596 1_555
Al2 Pt0 2.653588 1_655
Al2 Pt0 2.653588 1_555
Al2 Er1 3.046239 1_555
Al2 Er0 3.160865 1_655
Al2 Er0 3.160865 1_555
Al2 Er2 3.228168 1_565
Al2 Er3 3.256693 1_655
Al2 Er3 3.256693 1_555
Al3 Pt0 2.579581 1_555
Al3 Pt3 2.600596 1_555
Al3 Pt1 2.653588 1_455
Al3 Pt1 2.653588 1_555
Al3 Er0 3.046239 1_555
Al3 Er1 3.160865 1_455
Al3 Er1 3.160865 1_555
Al3 Er3 3.228168 1_545
Al3 Er2 3.256693 1_455
Al3 Er2 3.256693 1_555
