# generated using pymatgen
data_Rb7NaGe8
_symmetry_space_group_name_H-M   'P 1'
_cell_length_a   13.36431300
_cell_length_b   13.36431300
_cell_length_c   13.36431300
_cell_angle_alpha   90.00000000
_cell_angle_beta   90.00000000
_cell_angle_gamma   90.00000000
_symmetry_Int_Tables_number   1
_chemical_formula_structural   Rb7NaGe8
_chemical_formula_sum   'Rb28 Na4 Ge32'
_cell_volume   2386.93127858
_cell_formula_units_Z   4
loop_
 _symmetry_equiv_pos_site_id
 _symmetry_equiv_pos_as_xyz
  1  'x, y, z'
loop_
 _atom_site_type_symbol
 _atom_site_label
 _atom_site_symmetry_multiplicity
 _atom_site_fract_x
 _atom_site_fract_y
 _atom_site_fract_z
 _atom_site_occupancy
  Rb  Rb0  1  0.81324400  0.45853000  0.77290500  1
  Rb  Rb1  1  0.77290500  0.81324400  0.45853000  1
  Rb  Rb2  1  0.18675600  0.95853000  0.72709500  1
  Rb  Rb3  1  0.68675600  0.54147000  0.27290500  1
  Rb  Rb4  1  0.72709500  0.18675600  0.95853000  1
  Rb  Rb5  1  0.54147000  0.27290500  0.68675600  1
  Rb  Rb6  1  0.95853000  0.72709500  0.18675600  1
  Rb  Rb7  1  0.45853000  0.77290500  0.81324400  1
  Rb  Rb8  1  0.95853000  0.77290500  0.68675600  1
  Rb  Rb9  1  0.68675600  0.95853000  0.77290500  1
  Rb  Rb10  1  0.77290500  0.68675600  0.95853000  1
  Rb  Rb11  1  0.72709500  0.31324400  0.45853000  1
  Rb  Rb12  1  0.27290500  0.68675600  0.54147000  1
  Rb  Rb13  1  0.22709500  0.18675600  0.54147000  1
  Rb  Rb14  1  0.81324400  0.04147000  0.27290500  1
  Rb  Rb15  1  0.31324400  0.45853000  0.72709500  1
  Rb  Rb16  1  0.27290500  0.81324400  0.04147000  1
  Rb  Rb17  1  0.45853000  0.72709500  0.31324400  1
  Rb  Rb18  1  0.04147000  0.27290500  0.81324400  1
  Rb  Rb19  1  0.54147000  0.22709500  0.18675600  1
  Rb  Rb20  1  0.00000000  0.00000000  0.00000000  1
  Rb  Rb21  1  0.50000000  0.00000000  0.50000000  1
  Rb  Rb22  1  0.50000000  0.50000000  0.00000000  1
  Rb  Rb23  1  0.00000000  0.50000000  0.50000000  1
  Rb  Rb24  1  0.22709500  0.31324400  0.04147000  1
  Rb  Rb25  1  0.31324400  0.04147000  0.22709500  1
  Rb  Rb26  1  0.04147000  0.22709500  0.31324400  1
  Rb  Rb27  1  0.18675600  0.54147000  0.22709500  1
  Na  Na0  1  0.50000000  0.00000000  0.00000000  1
  Na  Na1  1  0.00000000  0.50000000  0.00000000  1
  Na  Na2  1  0.00000000  0.00000000  0.50000000  1
  Na  Na3  1  0.50000000  0.50000000  0.50000000  1
  Ge  Ge0  1  0.70138000  0.70138000  0.70138000  1
  Ge  Ge1  1  0.79862000  0.29862000  0.20138000  1
  Ge  Ge2  1  0.20138000  0.79862000  0.29862000  1
  Ge  Ge3  1  0.29862000  0.20138000  0.79862000  1
  Ge  Ge4  1  0.20537900  0.92572000  0.44324000  1
  Ge  Ge5  1  0.44324000  0.20537900  0.92572000  1
  Ge  Ge6  1  0.92572000  0.44324000  0.20537900  1
  Ge  Ge7  1  0.57428000  0.55676000  0.70537900  1
  Ge  Ge8  1  0.94324000  0.29462100  0.07428000  1
  Ge  Ge9  1  0.07428000  0.94324000  0.29462100  1
  Ge  Ge10  1  0.05676000  0.79462100  0.42572000  1
  Ge  Ge11  1  0.55676000  0.70537900  0.57428000  1
  Ge  Ge12  1  0.42572000  0.05676000  0.79462100  1
  Ge  Ge13  1  0.70138000  0.79862000  0.20138000  1
  Ge  Ge14  1  0.79462100  0.42572000  0.05676000  1
  Ge  Ge15  1  0.29462100  0.07428000  0.94324000  1
  Ge  Ge16  1  0.79462100  0.07428000  0.55676000  1
  Ge  Ge17  1  0.55676000  0.79462100  0.07428000  1
  Ge  Ge18  1  0.07428000  0.55676000  0.79462100  1
  Ge  Ge19  1  0.42572000  0.44324000  0.29462100  1
  Ge  Ge20  1  0.05676000  0.70537900  0.92572000  1
  Ge  Ge21  1  0.92572000  0.05676000  0.70537900  1
  Ge  Ge22  1  0.94324000  0.20537900  0.57428000  1
  Ge  Ge23  1  0.44324000  0.29462100  0.42572000  1
  Ge  Ge24  1  0.57428000  0.94324000  0.20537900  1
  Ge  Ge25  1  0.29462100  0.42572000  0.44324000  1
  Ge  Ge26  1  0.20537900  0.57428000  0.94324000  1
  Ge  Ge27  1  0.70537900  0.92572000  0.05676000  1
  Ge  Ge28  1  0.79862000  0.20138000  0.70138000  1
  Ge  Ge29  1  0.20138000  0.70138000  0.79862000  1
  Ge  Ge30  1  0.70537900  0.57428000  0.55676000  1
  Ge  Ge31  1  0.29862000  0.29862000  0.29862000  1
loop_
_geom_bond_atom_site_label_1
_geom_bond_atom_site_label_2
_geom_bond_distance
_geom_bond_site_symmetry_2
Ge0 Ge11 2.573640 1_555
Ge0 Ge7 2.573640 1_555
Ge0 Ge30 2.573640 1_555
Ge0 Rb9 3.572444 1_555
Ge0 Rb8 3.572444 1_555
Ge0 Rb10 3.572444 1_555
Ge0 Rb1 3.698934 1_555
Ge0 Rb7 3.698934 1_555
Ge0 Rb0 3.698934 1_555
Ge1 Ge6 2.573640 1_555
Ge1 Ge8 2.573640 1_555
Ge1 Ge14 2.573640 1_555
Ge1 Rb14 3.572444 1_555
Ge1 Rb19 3.572444 1_555
Ge1 Rb11 3.572444 1_555
Ge1 Rb26 3.698934 1_655
Ge1 Rb4 3.698934 1_554
Ge1 Rb3 3.698934 1_555
Ge2 Ge4 2.573640 1_555
Ge2 Ge9 2.573640 1_555
Ge2 Rb16 3.572444 1_555
Ge2 Rb27 3.572444 1_555
Ge2 Rb17 3.572444 1_555
Ge2 Rb25 3.698934 1_565
Ge2 Rb6 3.698934 1_455
Ge2 Rb12 3.698934 1_555
Ge3 Ge5 2.573640 1_555
Ge3 Rb18 3.572444 1_555
Ge3 Rb13 3.572444 1_555
Ge3 Rb15 3.572444 1_555
Ge3 Rb24 3.698934 1_556
Ge3 Rb2 3.698934 1_545
Ge3 Rb5 3.698934 1_555
Ge4 Ge9 2.658844 1_555
Ge4 Na2 3.015711 1_565
Ge4 Rb12 3.568864 1_555
Ge4 Rb25 3.579830 1_565
Ge4 Rb13 3.738677 1_565
Ge4 Rb2 3.826886 1_555
Ge4 Rb21 4.130865 1_565
Ge5 Na0 3.015711 1_556
Ge5 Rb5 3.568864 1_555
Ge5 Rb24 3.579830 1_556
Ge5 Rb19 3.738677 1_556
Ge5 Rb4 3.826886 1_555
Ge5 Rb22 4.130865 1_556
Ge6 Ge8 2.658844 1_555
Ge6 Na1 3.015711 1_655
Ge6 Rb3 3.568864 1_555
Ge6 Rb26 3.579830 1_655
Ge6 Rb27 3.738677 1_655
Ge6 Rb6 3.826886 1_555
Ge6 Rb23 4.130865 1_655
Ge7 Na3 3.015711 1_555
Ge7 Rb0 3.568864 1_555
Ge7 Rb7 3.579830 1_555
Ge7 Rb15 3.738677 1_555
Ge7 Rb5 3.826886 1_555
Ge7 Rb22 4.130865 1_556
Ge8 Na1 3.015711 1_655
Ge8 Rb26 3.568864 1_655
Ge8 Rb4 3.579830 1_554
Ge8 Rb18 3.738677 1_654
Ge8 Rb24 3.826886 1_655
Ge8 Rb20 4.130865 1_655
Ge9 Na2 3.015711 1_565
Ge9 Rb25 3.568864 1_565
Ge9 Rb6 3.579830 1_455
Ge9 Rb14 3.738677 1_465
Ge9 Rb26 3.826886 1_565
Ge9 Rb20 4.130865 1_565
Ge10 Ge2 2.573640 1_555
Ge10 Ge4 2.658844 1_555
Ge10 Ge9 2.658844 1_555
Ge10 Na2 3.015711 1_565
Ge10 Rb6 3.568864 1_455
Ge10 Rb12 3.579830 1_555
Ge10 Rb8 3.738677 1_455
Ge10 Rb1 3.826886 1_455
Ge10 Rb23 4.130865 1_555
Ge11 Ge7 2.658844 1_555
Ge11 Ge30 2.658844 1_555
Ge11 Na3 3.015711 1_555
Ge11 Rb7 3.568864 1_555
Ge11 Rb1 3.579830 1_555
Ge11 Rb17 3.738677 1_555
Ge11 Rb12 3.826886 1_555
Ge11 Rb21 4.130865 1_565
Ge12 Ge3 2.573640 1_555
Ge12 Ge5 2.658844 1_555
Ge12 Ge15 2.658844 1_555
Ge12 Na0 3.015711 1_556
Ge12 Rb2 3.568864 1_545
Ge12 Rb5 3.579830 1_555
Ge12 Rb9 3.738677 1_545
Ge12 Rb7 3.826886 1_545
Ge12 Rb21 4.130865 1_555
Ge13 Ge24 2.573640 1_555
Ge13 Ge17 2.573640 1_555
Ge13 Ge27 2.573640 1_555
Ge13 Rb1 3.572444 1_555
Ge13 Rb3 3.572444 1_555
Ge13 Rb6 3.572444 1_555
Ge13 Rb14 3.698934 1_565
Ge13 Rb17 3.698934 1_555
Ge13 Rb10 3.698934 1_554
Ge14 Ge6 2.658844 1_555
Ge14 Ge8 2.658844 1_555
Ge14 Na1 3.015711 1_655
Ge14 Rb4 3.568864 1_554
Ge14 Rb3 3.579830 1_555
Ge14 Rb10 3.738677 1_554
Ge14 Rb0 3.826886 1_554
Ge14 Rb22 4.130865 1_555
Ge15 Ge3 2.573640 1_555
Ge15 Ge5 2.658844 1_555
Ge15 Na0 3.015711 1_556
Ge15 Rb24 3.568864 1_556
Ge15 Rb2 3.579830 1_545
Ge15 Rb16 3.738677 1_546
Ge15 Rb25 3.826886 1_556
Ge15 Rb20 4.130865 1_556
Ge16 Ge28 2.573640 1_555
Ge16 Ge22 2.658844 1_555
Ge16 Ge21 2.658844 1_555
Ge16 Na2 3.015711 1_655
Ge16 Rb11 3.568864 1_555
Ge16 Rb9 3.579830 1_545
Ge16 Rb1 3.738677 1_545
Ge16 Rb14 3.826886 1_555
Ge16 Rb21 4.130865 1_555
Ge17 Ge24 2.658844 1_555
Ge17 Ge27 2.658844 1_555
Ge17 Na0 3.015711 1_565
Ge17 Rb17 3.568864 1_555
Ge17 Rb10 3.579830 1_554
Ge17 Rb7 3.738677 1_554
Ge17 Rb16 3.826886 1_555
Ge17 Rb22 4.130865 1_555
Ge18 Ge29 2.573640 1_555
Ge18 Ge26 2.658844 1_555
Ge18 Ge20 2.658844 1_555
Ge18 Na1 3.015711 1_556
Ge18 Rb15 3.568864 1_555
Ge18 Rb8 3.579830 1_455
Ge18 Rb0 3.738677 1_455
Ge18 Rb18 3.826886 1_555
Ge18 Rb23 4.130865 1_555
Ge19 Ge31 2.573640 1_555
Ge19 Ge23 2.658844 1_555
Ge19 Ge25 2.658844 1_555
Ge19 Na3 3.015711 1_555
Ge19 Rb27 3.568864 1_555
Ge19 Rb19 3.579830 1_555
Ge19 Rb3 3.738677 1_555
Ge19 Rb17 3.826886 1_555
Ge19 Rb22 4.130865 1_555
Ge20 Ge29 2.573640 1_555
Ge20 Ge26 2.658844 1_555
Ge20 Na1 3.015711 1_556
Ge20 Rb8 3.568864 1_455
Ge20 Rb16 3.579830 1_556
Ge20 Rb6 3.738677 1_456
Ge20 Rb10 3.826886 1_455
Ge20 Rb20 4.130865 1_566
Ge21 Ge28 2.573640 1_555
Ge21 Ge22 2.658844 1_555
Ge21 Na2 3.015711 1_655
Ge21 Rb9 3.568864 1_545
Ge21 Rb18 3.579830 1_655
Ge21 Rb2 3.738677 1_645
Ge21 Rb8 3.826886 1_545
Ge21 Rb20 4.130865 1_656
Ge22 Ge28 2.573640 1_555
Ge22 Na2 3.015711 1_655
Ge22 Rb18 3.568864 1_655
Ge22 Rb11 3.579830 1_555
Ge22 Rb26 3.738677 1_655
Ge22 Rb13 3.826886 1_655
Ge22 Rb23 4.130865 1_655
Ge23 Ge31 2.573640 1_555
Ge23 Ge25 2.658844 1_555
Ge23 Na3 3.015711 1_555
Ge23 Rb19 3.568864 1_555
Ge23 Rb13 3.579830 1_555
Ge23 Rb5 3.738677 1_555
Ge23 Rb11 3.826886 1_555
Ge23 Rb21 4.130865 1_555
Ge24 Ge27 2.658844 1_555
Ge24 Na0 3.015711 1_565
Ge24 Rb14 3.568864 1_565
Ge24 Rb17 3.579830 1_555
Ge24 Rb25 3.738677 1_565
Ge24 Rb19 3.826886 1_565
Ge24 Rb21 4.130865 1_565
Ge25 Ge31 2.573640 1_555
Ge25 Na3 3.015711 1_555
Ge25 Rb13 3.568864 1_555
Ge25 Rb27 3.579830 1_555
Ge25 Rb12 3.738677 1_555
Ge25 Rb15 3.826886 1_555
Ge25 Rb23 4.130865 1_555
Ge26 Ge29 2.573640 1_555
Ge26 Na1 3.015711 1_556
Ge26 Rb16 3.568864 1_556
Ge26 Rb15 3.579830 1_555
Ge26 Rb24 3.738677 1_556
Ge26 Rb27 3.826886 1_556
Ge26 Rb22 4.130865 1_556
Ge27 Na0 3.015711 1_565
Ge27 Rb10 3.568864 1_554
Ge27 Rb14 3.579830 1_565
Ge27 Rb4 3.738677 1_564
Ge27 Rb9 3.826886 1_554
Ge27 Rb20 4.130865 1_665
Ge28 Rb0 3.572444 1_555
Ge28 Rb5 3.572444 1_555
Ge28 Rb4 3.572444 1_555
Ge28 Rb18 3.698934 1_655
Ge28 Rb11 3.698934 1_555
Ge28 Rb9 3.698934 1_545
Ge29 Rb7 3.572444 1_555
Ge29 Rb12 3.572444 1_555
Ge29 Rb2 3.572444 1_555
Ge29 Rb16 3.698934 1_556
Ge29 Rb15 3.698934 1_555
Ge29 Rb8 3.698934 1_455
Ge30 Ge7 2.658844 1_555
Ge30 Na3 3.015711 1_555
Ge30 Rb1 3.568864 1_555
Ge30 Rb0 3.579830 1_555
Ge30 Rb11 3.738677 1_555
Ge30 Rb3 3.826886 1_555
Ge30 Rb23 4.130865 1_655
Ge31 Rb24 3.572444 1_555
Ge31 Rb26 3.572444 1_555
Ge31 Rb25 3.572444 1_555
Ge31 Rb19 3.698934 1_555
Ge31 Rb13 3.698934 1_555
Ge31 Rb27 3.698934 1_555
