# generated using pymatgen
data_Hf4Co7Ge6
_symmetry_space_group_name_H-M   'P 1'
_cell_length_a   6.78372421
_cell_length_b   6.78372421
_cell_length_c   6.78372421
_cell_angle_alpha   109.47122063
_cell_angle_beta   109.47122063
_cell_angle_gamma   109.47122063
_symmetry_Int_Tables_number   1
_chemical_formula_structural   Hf4Co7Ge6
_chemical_formula_sum   'Hf4 Co7 Ge6'
_cell_volume   240.31598536
_cell_formula_units_Z   1
loop_
 _symmetry_equiv_pos_site_id
 _symmetry_equiv_pos_as_xyz
  1  'x, y, z'
loop_
 _atom_site_type_symbol
 _atom_site_label
 _atom_site_symmetry_multiplicity
 _atom_site_fract_x
 _atom_site_fract_y
 _atom_site_fract_z
 _atom_site_occupancy
  Hf  Hf0  1  0.50000000  0.50000000  0.50000000  1
  Hf  Hf1  1  0.00000000  0.00000000  0.50000000  1
  Hf  Hf2  1  0.00000000  0.50000000  0.00000000  1
  Hf  Hf3  1  0.50000000  0.00000000  0.00000000  1
  Co  Co0  1  0.50000000  0.75000000  0.25000000  1
  Co  Co1  1  0.25000000  0.50000000  0.75000000  1
  Co  Co2  1  0.75000000  0.25000000  0.50000000  1
  Co  Co3  1  0.75000000  0.50000000  0.25000000  1
  Co  Co4  1  0.50000000  0.25000000  0.75000000  1
  Co  Co5  1  0.25000000  0.75000000  0.50000000  1
  Co  Co6  1  0.00000000  0.00000000  0.00000000  1
  Ge  Ge0  1  0.00000000  0.31662900  0.31662900  1
  Ge  Ge1  1  0.31662900  0.00000000  0.31662900  1
  Ge  Ge2  1  0.31662900  0.31662900  0.00000000  1
  Ge  Ge3  1  0.00000000  0.68337100  0.68337100  1
  Ge  Ge4  1  0.68337100  0.00000000  0.68337100  1
  Ge  Ge5  1  0.68337100  0.68337100  0.00000000  1
loop_
_geom_bond_atom_site_label_1
_geom_bond_atom_site_label_2
_geom_bond_distance
_geom_bond_site_symmetry_2
Co0 Ge5 2.428598 1_555
Co0 Ge4 2.428598 1_565
Co0 Ge2 2.428598 1_555
Co0 Ge1 2.428598 1_565
Co0 Hf1 2.769444 1_665
Co0 Hf0 2.769444 1_555
Co0 Hf2 2.769444 1_555
Co0 Hf3 2.769444 1_565
Co1 Ge5 2.428598 1_556
Co1 Ge3 2.428598 1_555
Co1 Ge2 2.428598 1_556
Co1 Ge0 2.428598 1_555
Co1 Hf1 2.769444 1_555
Co1 Hf2 2.769444 1_556
Co1 Hf0 2.769444 1_555
Co1 Hf3 2.769444 1_566
Co2 Ge4 2.428598 1_555
Co2 Ge3 2.428598 1_655
Co2 Ge1 2.428598 1_555
Co2 Ge0 2.428598 1_655
Co2 Hf3 2.769444 1_555
Co2 Hf0 2.769444 1_555
Co2 Hf2 2.769444 1_656
Co2 Hf1 2.769444 1_655
Co3 Ge5 2.428598 1_555
Co3 Ge3 2.428598 1_655
Co3 Ge2 2.428598 1_555
Co3 Ge0 2.428598 1_655
Co3 Hf3 2.769444 1_555
Co3 Hf1 2.769444 1_665
Co3 Hf0 2.769444 1_555
Co3 Hf2 2.769444 1_655
Co4 Ge4 2.428598 1_555
Co4 Ge5 2.428598 1_556
Co4 Ge1 2.428598 1_555
Co4 Ge2 2.428598 1_556
Co4 Hf1 2.769444 1_555
Co4 Hf0 2.769444 1_555
Co4 Hf3 2.769444 1_556
Co4 Hf2 2.769444 1_656
Co5 Ge3 2.428598 1_555
Co5 Ge0 2.428598 1_555
Co5 Ge4 2.428598 1_565
Co5 Ge1 2.428598 1_565
Co5 Hf1 2.769444 1_565
Co5 Hf0 2.769444 1_555
Co5 Hf2 2.769444 1_555
Co5 Hf3 2.769444 1_566
Co6 Ge0 2.480209 1_555
Co6 Ge2 2.480209 1_555
Co6 Ge1 2.480209 1_555
Co6 Ge3 2.480209 1_544
Co6 Ge4 2.480209 1_454
Co6 Ge5 2.480209 1_445
Ge0 Hf0 2.818194 1_555
Ge0 Hf1 2.818194 1_555
Ge0 Hf3 2.818194 1_455
Ge0 Hf2 2.818194 1_555
Ge1 Hf2 2.818194 1_545
Ge1 Hf1 2.818194 1_555
Ge1 Hf3 2.818194 1_555
Ge1 Hf0 2.818194 1_555
Ge2 Hf1 2.818194 1_554
Ge2 Hf3 2.818194 1_555
Ge2 Hf0 2.818194 1_555
Ge2 Hf2 2.818194 1_555
Ge3 Hf3 2.818194 1_566
Ge3 Hf2 2.818194 1_556
Ge3 Hf0 2.818194 1_455
Ge3 Hf1 2.818194 1_565
Ge4 Hf2 2.818194 1_656
Ge4 Hf1 2.818194 1_655
Ge4 Hf0 2.818194 1_545
Ge4 Hf3 2.818194 1_556
Ge5 Hf3 2.818194 1_565
Ge5 Hf1 2.818194 1_665
Ge5 Hf0 2.818194 1_554
Ge5 Hf2 2.818194 1_655
