# generated using pymatgen
data_BaV10O15
_symmetry_space_group_name_H-M   'P 1'
_cell_length_a   7.64389987
_cell_length_b   7.64389987
_cell_length_c   9.53851025
_cell_angle_alpha   90.00000000
_cell_angle_beta   90.00000000
_cell_angle_gamma   97.07415836
_symmetry_Int_Tables_number   1
_chemical_formula_structural   BaV10O15
_chemical_formula_sum   'Ba2 V20 O30'
_cell_volume   553.08496309
_cell_formula_units_Z   2
loop_
 _symmetry_equiv_pos_site_id
 _symmetry_equiv_pos_as_xyz
  1  'x, y, z'
loop_
 _atom_site_type_symbol
 _atom_site_label
 _atom_site_symmetry_multiplicity
 _atom_site_fract_x
 _atom_site_fract_y
 _atom_site_fract_z
 _atom_site_occupancy
  Ba  Ba0  1  -0.00000000  -0.00000000  0.50000000  1
  Ba  Ba1  1  0.50000000  0.50000000  -0.00000000  1
  V  V0  1  0.42293108  0.91430522  0.11578635  1
  V  V1  1  0.07706892  0.58569478  0.61578635  1
  V  V2  1  0.41430522  0.92293108  0.38421365  1
  V  V3  1  0.08569478  0.57706892  0.88421365  1
  V  V4  1  0.57706892  0.08569478  0.88421365  1
  V  V5  1  0.92293108  0.41430522  0.38421365  1
  V  V6  1  0.58569478  0.07706892  0.61578635  1
  V  V7  1  0.91430522  0.42293108  0.11578635  1
  V  V8  1  0.78648523  0.03936067  0.13971472  1
  V  V9  1  0.71351477  0.46063933  0.63971472  1
  V  V10  1  0.53936067  0.28648523  0.36028528  1
  V  V11  1  0.96063933  0.21351477  0.86028528  1
  V  V12  1  0.21351477  0.96063933  0.86028528  1
  V  V13  1  0.28648523  0.53936067  0.36028528  1
  V  V14  1  0.46063933  0.71351477  0.63971472  1
  V  V15  1  0.03936067  0.78648523  0.13971472  1
  V  V16  1  0.81697064  0.81697064  0.86204937  1
  V  V17  1  0.68302936  0.68302936  0.36204937  1
  V  V18  1  0.31697064  0.31697064  0.63795063  1
  V  V19  1  0.18302936  0.18302936  0.13795063  1
  O  O0  1  0.50000000  0.50000000  0.50000000  1
  O  O1  1  -0.00000000  -0.00000000  -0.00000000  1
  O  O2  1  0.16159024  0.16159024  0.74640177  1
  O  O3  1  0.33840976  0.33840976  0.24640177  1
  O  O4  1  0.66159024  0.66159024  0.75359823  1
  O  O5  1  0.83840976  0.83840976  0.25359823  1
  O  O6  1  0.21856650  0.95851274  0.24522675  1
  O  O7  1  0.28143350  0.54148726  0.74522675  1
  O  O8  1  0.45851274  0.71856650  0.25477325  1
  O  O9  1  0.04148726  0.78143350  0.75477325  1
  O  O10  1  0.78143350  0.04148726  0.75477325  1
  O  O11  1  0.71856650  0.45851274  0.25477325  1
  O  O12  1  0.54148726  0.28143350  0.74522675  1
  O  O13  1  0.95851274  0.21856650  0.24522675  1
  O  O14  1  0.57722199  0.07722199  0.25000000  1
  O  O15  1  0.92277801  0.42277801  0.75000000  1
  O  O16  1  0.42277801  0.92277801  0.75000000  1
  O  O17  1  0.07722199  0.57722199  0.25000000  1
  O  O18  1  0.36707587  0.12150274  -0.00064293  1
  O  O19  1  0.13292413  0.37849726  0.49935707  1
  O  O20  1  0.62150274  0.86707587  0.50064293  1
  O  O21  1  0.87849726  0.63292413  0.00064293  1
  O  O22  1  0.75785345  0.24214655  -0.00000000  1
  O  O23  1  0.74214655  0.25785345  0.50000000  1
  O  O24  1  0.24214655  0.75785345  -0.00000000  1
  O  O25  1  0.25785345  0.74214655  0.50000000  1
  O  O26  1  0.12150274  0.36707587  -0.00064293  1
  O  O27  1  0.37849726  0.13292413  0.49935707  1
  O  O28  1  0.86707587  0.62150274  0.50064293  1
  O  O29  1  0.63292413  0.87849726  0.00064293  1
loop_
_geom_bond_atom_site_label_1
_geom_bond_atom_site_label_2
_geom_bond_distance
_geom_bond_site_symmetry_2
Ba0 O2 2.863475 1_555
Ba0 O5 2.863475 1_445
Ba0 O28 2.946003 1_445
Ba0 O20 2.946003 1_445
Ba0 O27 2.946003 1_555
Ba0 O19 2.946003 1_555
Ba0 O23 2.954082 1_455
Ba0 O25 2.954082 1_545
Ba0 O6 2.987971 1_545
Ba0 O13 2.987971 1_455
Ba0 O10 2.987971 1_455
Ba0 O9 2.987971 1_545
Ba1 O3 2.863475 1_555
Ba1 O4 2.863475 1_554
Ba1 O21 2.946003 1_555
Ba1 O18 2.946003 1_555
Ba1 O26 2.946003 1_555
Ba1 O29 2.946003 1_555
Ba1 O22 2.954082 1_555
Ba1 O24 2.954082 1_555
Ba1 O12 2.987971 1_554
Ba1 O8 2.987971 1_555
Ba1 O7 2.987971 1_554
Ba1 O11 2.987971 1_555
O0 V14 2.156660 1_555
O0 V9 2.156660 1_555
O0 V10 2.156660 1_555
O0 V13 2.156660 1_555
O0 V18 2.272456 1_555
O0 V17 2.272456 1_555
O1 V11 2.156660 1_454
O1 V12 2.156660 1_544
O1 V8 2.156660 1_455
O1 V15 2.156660 1_545
O1 V16 2.272456 1_444
O1 V19 2.272456 1_555
O2 V18 1.882545 1_555
O2 V11 1.961415 1_455
O2 V12 1.961415 1_545
O3 V19 1.882545 1_555
O3 V13 1.961415 1_555
O3 V10 1.961415 1_555
O4 V16 1.882545 1_555
O4 V9 1.961415 1_555
O4 V14 1.961415 1_555
O5 V17 1.882545 1_555
O5 V15 1.961415 1_655
O5 V8 1.961415 1_565
O6 V2 2.042155 1_555
O6 V15 2.043230 1_555
O6 V19 2.044737 1_565
O6 V0 2.051561 1_555
O7 V3 2.042155 1_555
O7 V14 2.043230 1_555
O7 V18 2.044737 1_555
O7 V1 2.051561 1_555
O8 V0 2.042155 1_555
O8 V13 2.043230 1_555
O8 V17 2.044737 1_555
O8 V2 2.051561 1_555
O9 V1 2.042155 1_555
O9 V12 2.043230 1_555
O9 V16 2.044737 1_455
O9 V3 2.051561 1_555
O10 V6 2.042155 1_555
O10 V11 2.043230 1_555
O10 V16 2.044737 1_545
O10 V4 2.051561 1_555
O11 V7 2.042155 1_555
O11 V10 2.043230 1_555
O11 V17 2.044737 1_555
O11 V5 2.051561 1_555
O12 V4 2.042155 1_555
O12 V9 2.043230 1_555
O12 V18 2.044737 1_555
O12 V6 2.051561 1_555
O13 V5 2.042155 1_555
O13 V8 2.043230 1_555
O13 V19 2.044737 1_655
O13 V7 2.051561 1_555
O14 V10 1.965471 1_555
O14 V8 1.965471 1_555
O14 V0 2.054001 1_545
O14 V2 2.054001 1_545
O15 V11 1.965471 1_555
O15 V9 1.965471 1_555
O15 V1 2.054001 1_655
O15 V3 2.054001 1_655
O16 V12 1.965471 1_555
O16 V14 1.965471 1_555
O16 V6 2.054001 1_565
O16 V4 2.054001 1_565
O17 V13 1.965471 1_555
O17 V15 1.965471 1_555
O17 V5 2.054001 1_455
O17 V7 2.054001 1_455
O18 V4 1.991469 1_554
O18 V0 2.022524 1_545
O18 V19 2.027548 1_555
O18 V12 2.072195 1_544
O19 V5 1.991469 1_455
O19 V1 2.022524 1_555
O19 V18 2.027548 1_555
O19 V13 2.072195 1_555
O20 V6 1.991469 1_565
O20 V2 2.022524 1_555
O20 V17 2.027548 1_555
O20 V14 2.072195 1_555
O21 V7 1.991469 1_555
O21 V3 2.022524 1_654
O21 V16 2.027548 1_554
O21 V15 2.072195 1_655
O22 V7 2.037778 1_555
O22 V4 2.037778 1_554
O22 V11 2.076102 1_554
O22 V8 2.076102 1_555
O23 V6 2.037778 1_555
O23 V5 2.037778 1_555
O23 V9 2.076102 1_555
O23 V10 2.076102 1_555
O24 V0 2.037778 1_555
O24 V3 2.037778 1_554
O24 V12 2.076102 1_554
O24 V15 2.076102 1_555
O25 V1 2.037778 1_555
O25 V2 2.037778 1_555
O25 V14 2.076102 1_555
O25 V13 2.076102 1_555
O26 V3 1.991469 1_554
O26 V7 2.022524 1_455
O26 V19 2.027548 1_555
O26 V11 2.072195 1_454
O27 V2 1.991469 1_545
O27 V6 2.022524 1_555
O27 V18 2.027548 1_555
O27 V10 2.072195 1_555
O28 V1 1.991469 1_655
O28 V5 2.022524 1_555
O28 V17 2.027548 1_555
O28 V9 2.072195 1_555
O29 V0 1.991469 1_555
O29 V4 2.022524 1_564
O29 V16 2.027548 1_554
O29 V8 2.072195 1_565
