# generated using pymatgen
data_Ba3Sc2N4
_symmetry_space_group_name_H-M   'P 1'
_cell_length_a   7.64519564
_cell_length_b   9.88611356
_cell_length_c   6.57229264
_cell_angle_alpha   90.00000011
_cell_angle_beta   92.77231840
_cell_angle_gamma   130.28253700
_symmetry_Int_Tables_number   1
_chemical_formula_structural   Ba3Sc2N4
_chemical_formula_sum   'Ba6 Sc4 N8'
_cell_volume   378.18506440
_cell_formula_units_Z   2
loop_
 _symmetry_equiv_pos_site_id
 _symmetry_equiv_pos_as_xyz
  1  'x, y, z'
loop_
 _atom_site_type_symbol
 _atom_site_label
 _atom_site_symmetry_multiplicity
 _atom_site_fract_x
 _atom_site_fract_y
 _atom_site_fract_z
 _atom_site_occupancy
  Ba  Ba0  1  0.22790100  0.94835200  0.08018300  1
  Ba  Ba1  1  0.77209900  0.72045100  0.41981700  1
  Ba  Ba2  1  0.77209900  0.05164800  0.91981700  1
  Ba  Ba3  1  0.22790100  0.27954900  0.58018300  1
  Ba  Ba4  1  0.00000000  0.58534200  0.75000000  1
  Ba  Ba5  1  0.00000000  0.41465800  0.25000000  1
  Sc  Sc0  1  0.54560100  0.16138800  0.57484000  1
  Sc  Sc1  1  0.45439900  0.61578700  0.92516000  1
  Sc  Sc2  1  0.45439900  0.83861200  0.42516000  1
  Sc  Sc3  1  0.54560100  0.38421300  0.07484000  1
  N  N0  1  0.24049900  0.89638500  0.49955000  1
  N  N1  1  0.75950100  0.65588600  0.00045000  1
  N  N2  1  0.75950100  0.10361500  0.50045000  1
  N  N3  1  0.24049900  0.34411400  0.99955000  1
  N  N4  1  0.61647900  0.24482700  0.89195900  1
  N  N5  1  0.38352100  0.62834900  0.60804100  1
  N  N6  1  0.38352100  0.75517300  0.10804100  1
  N  N7  1  0.61647900  0.37165100  0.39195900  1
loop_
_geom_bond_atom_site_label_1
_geom_bond_atom_site_label_2
_geom_bond_distance
_geom_bond_site_symmetry_2
Ba0 N1 2.808517 1_455
Ba0 N0 2.812148 1_555
Ba0 N6 2.830796 1_555
Ba0 N4 2.835917 1_564
Ba1 N0 2.808517 1_655
Ba1 N1 2.812148 1_555
Ba1 N7 2.830806 1_555
Ba1 N5 2.835921 1_555
Ba2 N3 2.808517 1_655
Ba2 N2 2.812148 1_555
Ba2 N4 2.830796 1_555
Ba2 N6 2.835917 1_546
Ba3 N2 2.808517 1_455
Ba3 N3 2.812148 1_555
Ba3 N5 2.830806 1_555
Ba3 N7 2.835921 1_555
Ba4 N5 2.881145 1_555
Ba4 N4 2.881150 1_455
Ba4 N0 2.920169 1_555
Ba4 N1 2.920169 1_456
Ba4 N6 3.149623 1_556
Ba4 N7 3.149623 1_455
Ba5 N7 2.881145 1_455
Ba5 N6 2.881150 1_555
Ba5 N2 2.920169 1_455
Ba5 N3 2.920169 1_554
Ba5 N4 3.149623 1_454
Ba5 N5 3.149623 1_555
N0 Sc2 2.127110 1_555
N0 Sc0 2.129669 1_565
N1 Sc3 2.127110 1_555
N1 Sc1 2.129669 1_554
N2 Sc0 2.127110 1_555
N2 Sc2 2.129669 1_545
N3 Sc1 2.127110 1_555
N3 Sc3 2.129669 1_556
N4 Sc0 2.151906 1_555
N4 Sc3 2.160028 1_556
N5 Sc1 2.151908 1_555
N5 Sc2 2.160020 1_555
N6 Sc2 2.151906 1_555
N6 Sc1 2.160028 1_554
N7 Sc3 2.151908 1_555
N7 Sc0 2.160020 1_555
