# generated using pymatgen
data_Sr2InBr5
_symmetry_space_group_name_H-M   'P 1'
_cell_length_a   8.35778427
_cell_length_b   9.35957820
_cell_length_c   13.37000592
_cell_angle_alpha   89.85577816
_cell_angle_beta   90.00000000
_cell_angle_gamma   90.00000000
_symmetry_Int_Tables_number   1
_chemical_formula_structural   Sr2InBr5
_chemical_formula_sum   'Sr8 In4 Br20'
_cell_volume   1045.86988449
_cell_formula_units_Z   4
loop_
 _symmetry_equiv_pos_site_id
 _symmetry_equiv_pos_as_xyz
  1  'x, y, z'
loop_
 _atom_site_type_symbol
 _atom_site_label
 _atom_site_symmetry_multiplicity
 _atom_site_fract_x
 _atom_site_fract_y
 _atom_site_fract_z
 _atom_site_occupancy
  Sr  Sr0  1  0.02820276  0.49878630  0.82129024  1
  Sr  Sr1  1  0.97179724  0.50121370  0.17870976  1
  Sr  Sr2  1  0.52820276  0.50121370  0.67870976  1
  Sr  Sr3  1  0.47179724  0.49878630  0.32129024  1
  Sr  Sr4  1  0.07348666  0.74884335  0.50554798  1
  Sr  Sr5  1  0.92651334  0.25115665  0.49445202  1
  Sr  Sr6  1  0.57348666  0.25115665  0.99445202  1
  Sr  Sr7  1  0.42651334  0.74884335  0.00554798  1
  In  In0  1  0.01053582  0.99482991  0.82835955  1
  In  In1  1  0.98946418  0.00517009  0.17164045  1
  In  In2  1  0.51053582  0.00517009  0.67164045  1
  In  In3  1  0.48946418  0.99482991  0.32835955  1
  Br  Br0  1  0.16311515  0.03620662  0.59406040  1
  Br  Br1  1  0.83688485  0.96379338  0.40593960  1
  Br  Br2  1  0.66311515  0.96379338  0.90593960  1
  Br  Br3  1  0.33688485  0.03620662  0.09406040  1
  Br  Br4  1  0.83820172  0.71973020  0.68549719  1
  Br  Br5  1  0.16179828  0.28026980  0.31450281  1
  Br  Br6  1  0.33820172  0.28026980  0.81450281  1
  Br  Br7  1  0.66179828  0.71973020  0.18549719  1
  Br  Br8  1  0.30940086  0.72887954  0.78159085  1
  Br  Br9  1  0.69059914  0.27112046  0.21840915  1
  Br  Br10  1  0.80940086  0.27112046  0.71840915  1
  Br  Br11  1  0.19059914  0.72887954  0.28159085  1
  Br  Br12  1  0.45649594  0.71919037  0.50105259  1
  Br  Br13  1  0.54350406  0.28080963  0.49894741  1
  Br  Br14  1  0.95649594  0.28080963  0.99894741  1
  Br  Br15  1  0.04350406  0.71919037  0.00105259  1
  Br  Br16  1  0.66372426  0.54197722  0.90225553  1
  Br  Br17  1  0.33627574  0.45802278  0.09774447  1
  Br  Br18  1  0.16372426  0.45802278  0.59774447  1
  Br  Br19  1  0.83627574  0.54197722  0.40225553  1
loop_
_geom_bond_atom_site_label_1
_geom_bond_atom_site_label_2
_geom_bond_distance
_geom_bond_site_symmetry_2
Br0 Sr4 3.035057 1_545
Br0 In2 3.096777 1_555
Br0 Sr5 3.117369 1_455
Br1 Sr5 3.035057 1_565
Br1 In3 3.096777 1_555
Br1 Sr4 3.117369 1_655
Br2 Sr6 3.035057 1_565
Br2 In0 3.096777 1_655
Br2 Sr7 3.117369 1_556
Br3 Sr7 3.035057 1_545
Br3 In1 3.096777 1_455
Br3 Sr6 3.117369 1_554
Br4 Sr4 3.118714 1_655
Br4 Sr0 3.174181 1_655
Br4 Sr2 3.302255 1_555
Br5 Sr5 3.118714 1_455
Br5 Sr1 3.174181 1_455
Br5 Sr3 3.302255 1_555
Br6 Sr6 3.118714 1_555
Br6 Sr2 3.174181 1_555
Br6 Sr0 3.302255 1_555
Br7 Sr7 3.118714 1_555
Br7 Sr3 3.174181 1_555
Br7 Sr1 3.302255 1_555
Br8 Sr2 3.129138 1_555
Br8 Sr7 3.156210 1_556
Br8 Sr0 3.230676 1_555
Br9 Sr3 3.129138 1_555
Br9 Sr6 3.156210 1_554
Br9 Sr1 3.230676 1_555
Br10 Sr0 3.129138 1_655
Br10 Sr5 3.156210 1_555
Br10 Sr2 3.230676 1_555
Br11 Sr1 3.129138 1_455
Br11 Sr4 3.156210 1_555
Br11 Sr3 3.230676 1_555
Br12 Sr3 3.173842 1_555
Br12 Sr2 3.184181 1_555
Br12 Sr4 3.213693 1_555
Br13 Sr2 3.173842 1_555
Br13 Sr3 3.184181 1_555
Br13 Sr5 3.213693 1_555
Br14 Sr1 3.173842 1_556
Br14 Sr0 3.184181 1_655
Br14 Sr6 3.213693 1_555
Br15 Sr0 3.173842 1_554
Br15 Sr1 3.184181 1_455
Br15 Sr7 3.213693 1_555
Br16 Sr6 3.079031 1_555
Br16 Sr7 3.098388 1_556
Br16 Sr2 3.219813 1_555
Br16 Sr0 3.258370 1_655
Br17 Sr7 3.079031 1_555
Br17 Sr6 3.098388 1_554
Br17 Sr3 3.219813 1_555
Br17 Sr1 3.258370 1_455
Br18 Sr4 3.079031 1_555
Br18 Sr5 3.098388 1_455
Br18 Sr0 3.219813 1_555
Br18 Sr2 3.258370 1_555
Br19 Sr5 3.079031 1_555
Br19 Sr4 3.098388 1_655
Br19 Sr1 3.219813 1_555
Br19 Sr3 3.258370 1_555
