# generated using pymatgen
data_Lu3Ge13Ir4
_symmetry_space_group_name_H-M   'P 1'
_cell_length_a   9.00944300
_cell_length_b   9.00944300
_cell_length_c   9.00944300
_cell_angle_alpha   90.00000000
_cell_angle_beta   90.00000000
_cell_angle_gamma   90.00000000
_symmetry_Int_Tables_number   1
_chemical_formula_structural   Lu3Ge13Ir4
_chemical_formula_sum   'Lu6 Ge26 Ir8'
_cell_volume   731.29705744
_cell_formula_units_Z   2
loop_
 _symmetry_equiv_pos_site_id
 _symmetry_equiv_pos_as_xyz
  1  'x, y, z'
loop_
 _atom_site_type_symbol
 _atom_site_label
 _atom_site_symmetry_multiplicity
 _atom_site_fract_x
 _atom_site_fract_y
 _atom_site_fract_z
 _atom_site_occupancy
  Lu  Lu0  1  0.00000000  0.50000000  0.75000000  1
  Lu  Lu1  1  0.50000000  0.25000000  0.00000000  1
  Lu  Lu2  1  0.75000000  0.00000000  0.50000000  1
  Lu  Lu3  1  0.00000000  0.50000000  0.25000000  1
  Lu  Lu4  1  0.50000000  0.75000000  0.00000000  1
  Lu  Lu5  1  0.25000000  0.00000000  0.50000000  1
  Ge  Ge0  1  0.50000000  0.50000000  0.50000000  1
  Ge  Ge1  1  0.00000000  0.00000000  0.00000000  1
  Ge  Ge2  1  0.80988400  0.35493200  0.50000000  1
  Ge  Ge3  1  0.64506800  0.50000000  0.80988400  1
  Ge  Ge4  1  0.50000000  0.19011600  0.64506800  1
  Ge  Ge5  1  0.19011600  0.64506800  0.50000000  1
  Ge  Ge6  1  0.35493200  0.50000000  0.19011600  1
  Ge  Ge7  1  0.50000000  0.80988400  0.35493200  1
  Ge  Ge8  1  0.80988400  0.64506800  0.50000000  1
  Ge  Ge9  1  0.64506800  0.50000000  0.19011600  1
  Ge  Ge10  1  0.19011600  0.35493200  0.50000000  1
  Ge  Ge11  1  0.35493200  0.50000000  0.80988400  1
  Ge  Ge12  1  0.50000000  0.80988400  0.64506800  1
  Ge  Ge13  1  0.50000000  0.19011600  0.35493200  1
  Ge  Ge14  1  0.30988400  0.00000000  0.85493200  1
  Ge  Ge15  1  0.14506800  0.30988400  0.00000000  1
  Ge  Ge16  1  0.00000000  0.14506800  0.69011600  1
  Ge  Ge17  1  0.69011600  0.00000000  0.14506800  1
  Ge  Ge18  1  0.85493200  0.69011600  0.00000000  1
  Ge  Ge19  1  0.00000000  0.85493200  0.30988400  1
  Ge  Ge20  1  0.30988400  0.00000000  0.14506800  1
  Ge  Ge21  1  0.14506800  0.69011600  0.00000000  1
  Ge  Ge22  1  0.69011600  0.00000000  0.85493200  1
  Ge  Ge23  1  0.85493200  0.30988400  0.00000000  1
  Ge  Ge24  1  0.00000000  0.14506800  0.30988400  1
  Ge  Ge25  1  0.00000000  0.85493200  0.69011600  1
  Ir  Ir0  1  0.75000000  0.25000000  0.75000000  1
  Ir  Ir1  1  0.25000000  0.75000000  0.25000000  1
  Ir  Ir2  1  0.75000000  0.75000000  0.25000000  1
  Ir  Ir3  1  0.25000000  0.25000000  0.75000000  1
  Ir  Ir4  1  0.25000000  0.75000000  0.75000000  1
  Ir  Ir5  1  0.75000000  0.25000000  0.25000000  1
  Ir  Ir6  1  0.25000000  0.25000000  0.25000000  1
  Ir  Ir7  1  0.75000000  0.75000000  0.75000000  1
loop_
_geom_bond_atom_site_label_1
_geom_bond_atom_site_label_2
_geom_bond_distance
_geom_bond_site_symmetry_2
Ge0 Ge6 3.082662 1_555
Ge0 Ge13 3.082662 1_555
Ge0 Ge10 3.082662 1_555
Ge0 Ge4 3.082662 1_555
Ge0 Ge9 3.082662 1_555
Ge0 Ge5 3.082662 1_555
Ge0 Ge11 3.082662 1_555
Ge0 Ge3 3.082662 1_555
Ge0 Ge8 3.082662 1_555
Ge0 Ge7 3.082662 1_555
Ge0 Ge2 3.082662 1_555
Ge0 Ge12 3.082662 1_555
Ge1 Ge23 3.082662 1_455
Ge1 Ge20 3.082662 1_555
Ge1 Ge14 3.082662 1_554
Ge1 Ge19 3.082662 1_545
Ge1 Ge24 3.082662 1_555
Ge1 Ge15 3.082662 1_555
Ge1 Ge16 3.082662 1_554
Ge1 Ge17 3.082662 1_455
Ge1 Ge18 3.082662 1_445
Ge1 Ge21 3.082662 1_545
Ge1 Ge22 3.082662 1_454
Ge1 Ge25 3.082662 1_544
Ge2 Ir0 2.501590 1_555
Ge2 Ir5 2.501590 1_555
Ge2 Ge8 2.613964 1_555
Ge2 Lu0 3.116913 1_655
Ge2 Lu3 3.116913 1_655
Ge2 Lu2 3.242934 1_555
Ge3 Ir7 2.501590 1_555
Ge3 Ir0 2.501590 1_555
Ge3 Lu4 3.116913 1_556
Ge3 Lu1 3.116913 1_556
Ge3 Lu0 3.242934 1_655
Ge4 Ir3 2.501590 1_555
Ge4 Ir0 2.501590 1_555
Ge4 Lu5 3.116913 1_555
Ge4 Lu2 3.116913 1_555
Ge4 Lu1 3.242934 1_556
Ge5 Ir4 2.501590 1_555
Ge5 Ir1 2.501590 1_555
Ge5 Lu3 3.116913 1_555
Ge5 Lu0 3.116913 1_555
Ge5 Lu5 3.242934 1_565
Ge6 Ir6 2.501590 1_555
Ge6 Ir1 2.501590 1_555
Ge6 Ge9 2.613964 1_555
Ge6 Lu4 3.116913 1_555
Ge6 Lu1 3.116913 1_555
Ge6 Lu3 3.242934 1_555
Ge7 Ir2 2.501590 1_555
Ge7 Ir1 2.501590 1_555
Ge7 Lu2 3.116913 1_565
Ge7 Lu5 3.116913 1_565
Ge7 Lu4 3.242934 1_555
Ge8 Ir2 2.501590 1_555
Ge8 Ir7 2.501590 1_555
Ge8 Lu0 3.116913 1_655
Ge8 Lu3 3.116913 1_655
Ge8 Lu2 3.242934 1_565
Ge9 Ir2 2.501590 1_555
Ge9 Ir5 2.501590 1_555
Ge9 Lu4 3.116913 1_555
Ge9 Lu1 3.116913 1_555
Ge9 Lu3 3.242934 1_655
Ge10 Ir3 2.501590 1_555
Ge10 Ir6 2.501590 1_555
Ge10 Ge5 2.613964 1_555
Ge10 Lu3 3.116913 1_555
Ge10 Lu0 3.116913 1_555
Ge10 Lu5 3.242934 1_555
Ge11 Ir3 2.501590 1_555
Ge11 Ir4 2.501590 1_555
Ge11 Ge3 2.613964 1_555
Ge11 Lu4 3.116913 1_556
Ge11 Lu1 3.116913 1_556
Ge11 Lu0 3.242934 1_555
Ge12 Ir7 2.501590 1_555
Ge12 Ir4 2.501590 1_555
Ge12 Ge7 2.613964 1_555
Ge12 Lu2 3.116913 1_565
Ge12 Lu5 3.116913 1_565
Ge12 Lu4 3.242934 1_556
Ge13 Ir6 2.501590 1_555
Ge13 Ir5 2.501590 1_555
Ge13 Ge4 2.613964 1_555
Ge13 Lu5 3.116913 1_555
Ge13 Lu2 3.116913 1_555
Ge13 Lu1 3.242934 1_555
Ge14 Ir3 2.501590 1_555
Ge14 Ir4 2.501590 1_545
Ge14 Ge20 2.613964 1_556
Ge14 Lu4 3.116913 1_546
Ge14 Lu1 3.116913 1_556
Ge14 Lu5 3.242934 1_555
Ge15 Ir6 2.501590 1_555
Ge15 Ir3 2.501590 1_554
Ge15 Ge23 2.613964 1_455
Ge15 Lu3 3.116913 1_555
Ge15 Lu0 3.116913 1_554
Ge15 Lu1 3.242934 1_555
Ge16 Ir3 2.501590 1_555
Ge16 Ir0 2.501590 1_455
Ge16 Ge25 2.613964 1_545
Ge16 Lu5 3.116913 1_555
Ge16 Lu2 3.116913 1_455
Ge16 Lu0 3.242934 1_555
Ge17 Ir2 2.501590 1_545
Ge17 Ir5 2.501590 1_555
Ge17 Ge22 2.613964 1_554
Ge17 Lu4 3.116913 1_545
Ge17 Lu1 3.116913 1_555
Ge17 Lu2 3.242934 1_555
Ge18 Ir2 2.501590 1_555
Ge18 Ir7 2.501590 1_554
Ge18 Ge21 2.613964 1_655
Ge18 Lu0 3.116913 1_654
Ge18 Lu3 3.116913 1_655
Ge18 Lu4 3.242934 1_555
Ge19 Ir2 2.501590 1_455
Ge19 Ir1 2.501590 1_555
Ge19 Ge24 2.613964 1_565
Ge19 Lu2 3.116913 1_465
Ge19 Lu5 3.116913 1_565
Ge19 Lu3 3.242934 1_555
Ge20 Ir6 2.501590 1_555
Ge20 Ir1 2.501590 1_545
Ge20 Lu4 3.116913 1_545
Ge20 Lu1 3.116913 1_555
Ge20 Lu5 3.242934 1_555
Ge21 Ir4 2.501590 1_554
Ge21 Ir1 2.501590 1_555
Ge21 Lu3 3.116913 1_555
Ge21 Lu0 3.116913 1_554
Ge21 Lu4 3.242934 1_555
Ge22 Ir7 2.501590 1_545
Ge22 Ir0 2.501590 1_555
Ge22 Lu4 3.116913 1_546
Ge22 Lu1 3.116913 1_556
Ge22 Lu2 3.242934 1_555
Ge23 Ir0 2.501590 1_554
Ge23 Ir5 2.501590 1_555
Ge23 Lu0 3.116913 1_654
Ge23 Lu3 3.116913 1_655
Ge23 Lu1 3.242934 1_555
Ge24 Ir5 2.501590 1_455
Ge24 Ir6 2.501590 1_555
Ge24 Lu5 3.116913 1_555
Ge24 Lu2 3.116913 1_455
Ge24 Lu3 3.242934 1_555
Ge25 Ir7 2.501590 1_455
Ge25 Ir4 2.501590 1_555
Ge25 Lu2 3.116913 1_465
Ge25 Lu5 3.116913 1_565
Ge25 Lu0 3.242934 1_555
Ir0 Lu0 3.185319 1_655
Ir0 Lu1 3.185319 1_556
Ir0 Lu2 3.185319 1_555
Ir1 Lu4 3.185319 1_555
Ir1 Lu5 3.185319 1_565
Ir1 Lu3 3.185319 1_555
Ir2 Lu4 3.185319 1_555
Ir2 Lu3 3.185319 1_655
Ir2 Lu2 3.185319 1_565
Ir3 Lu0 3.185319 1_555
Ir3 Lu1 3.185319 1_556
Ir3 Lu5 3.185319 1_555
Ir4 Lu0 3.185319 1_555
Ir4 Lu4 3.185319 1_556
Ir4 Lu5 3.185319 1_565
Ir5 Lu1 3.185319 1_555
Ir5 Lu3 3.185319 1_655
Ir5 Lu2 3.185319 1_555
Ir6 Lu1 3.185319 1_555
Ir6 Lu5 3.185319 1_555
Ir6 Lu3 3.185319 1_555
Ir7 Lu0 3.185319 1_655
Ir7 Lu4 3.185319 1_556
Ir7 Lu2 3.185319 1_565
