# generated using pymatgen
data_YbP2H4NO7
_symmetry_space_group_name_H-M   'P 1'
_cell_length_a   11.28475400
_cell_length_b   7.71560000
_cell_length_c   8.79053210
_cell_angle_alpha   75.01907608
_cell_angle_beta   90.00000000
_cell_angle_gamma   90.00000000
_symmetry_Int_Tables_number   1
_chemical_formula_structural   YbP2H4NO7
_chemical_formula_sum   'Yb4 P8 H16 N4 O28'
_cell_volume   739.36597495
_cell_formula_units_Z   4
loop_
 _symmetry_equiv_pos_site_id
 _symmetry_equiv_pos_as_xyz
  1  'x, y, z'
loop_
 _atom_site_type_symbol
 _atom_site_label
 _atom_site_symmetry_multiplicity
 _atom_site_fract_x
 _atom_site_fract_y
 _atom_site_fract_z
 _atom_site_occupancy
  Yb  Yb0  1  0.10208800  0.26776700  0.75161800  1
  Yb  Yb1  1  0.60208800  0.73223300  0.74838200  1
  Yb  Yb2  1  0.89791200  0.73223300  0.24838200  1
  Yb  Yb3  1  0.39791200  0.26776700  0.25161800  1
  P  P0  1  0.40311300  0.36721900  0.81141400  1
  P  P1  1  0.90311300  0.63278100  0.68858600  1
  P  P2  1  0.59688700  0.63278100  0.18858600  1
  P  P3  1  0.09688700  0.36721900  0.31141400  1
  P  P4  1  0.36189100  0.05817000  0.68716000  1
  P  P5  1  0.86189100  0.94183000  0.81284000  1
  P  P6  1  0.63810900  0.94183000  0.31284000  1
  P  P7  1  0.13810900  0.05817000  0.18716000  1
  H  H0  1  0.36625600  0.73275700  0.53795100  1
  H  H1  1  0.86625600  0.26724300  0.96204900  1
  H  H2  1  0.63374400  0.26724300  0.46204900  1
  H  H3  1  0.13374400  0.73275700  0.03795100  1
  H  H4  1  0.38969700  0.62651500  0.39413300  1
  H  H5  1  0.88969700  0.37348500  0.10586700  1
  H  H6  1  0.61030300  0.37348500  0.60586700  1
  H  H7  1  0.11030300  0.62651500  0.89413300  1
  H  H8  1  0.29853800  0.81008800  0.36184800  1
  H  H9  1  0.79853800  0.18991200  0.13815200  1
  H  H10  1  0.70146200  0.18991200  0.63815200  1
  H  H11  1  0.20146200  0.81008800  0.86184800  1
  H  H12  1  0.25803700  0.61045900  0.48839900  1
  H  H13  1  0.75803700  0.38954100  0.01160100  1
  H  H14  1  0.74196300  0.38954100  0.51160200  1
  H  H15  1  0.24196300  0.61045900  0.98839800  1
  N  N0  1  0.32731100  0.69499300  0.44505700  1
  N  N1  1  0.82731100  0.30500700  0.05494300  1
  N  N2  1  0.67268900  0.30500700  0.55494300  1
  N  N3  1  0.17268900  0.69499300  0.94505700  1
  O  O0  1  0.27911300  0.42231600  0.74587100  1
  O  O1  1  0.77911300  0.57768400  0.75412900  1
  O  O2  1  0.72088700  0.57768400  0.25412900  1
  O  O3  1  0.22088700  0.42231600  0.24587100  1
  O  O4  1  0.40891900  0.36964300  0.98415200  1
  O  O5  1  0.90891900  0.63035700  0.51584800  1
  O  O6  1  0.59108100  0.63035700  0.01584800  1
  O  O7  1  0.09108100  0.36964300  0.48415200  1
  O  O8  1  0.42663800  0.16050100  0.80586100  1
  O  O9  1  0.92663800  0.83949900  0.69413900  1
  O  O10  1  0.57336200  0.83949900  0.19413900  1
  O  O11  1  0.07336200  0.16050100  0.30586100  1
  O  O12  1  0.50244100  0.47844800  0.71428000  1
  O  O13  1  0.00244100  0.52155200  0.78572000  1
  O  O14  1  0.49755900  0.52155200  0.28572000  1
  O  O15  1  0.99755900  0.47844800  0.21428000  1
  O  O16  1  0.23098000  0.03711400  0.73338100  1
  O  O17  1  0.73098000  0.96288600  0.76661900  1
  O  O18  1  0.76902000  0.96288600  0.26661900  1
  O  O19  1  0.26902000  0.03711400  0.23338100  1
  O  O20  1  0.38225800  0.17136700  0.51930400  1
  O  O21  1  0.88225800  0.82863300  0.98069600  1
  O  O22  1  0.61774200  0.82863300  0.48069600  1
  O  O23  1  0.11774200  0.17136700  0.01930400  1
  O  O24  1  0.42409200  0.87663300  0.71692900  1
  O  O25  1  0.92409200  0.12336700  0.78307100  1
  O  O26  1  0.57590800  0.12336700  0.28307100  1
  O  O27  1  0.07590800  0.87663300  0.21692900  1
loop_
_geom_bond_atom_site_label_1
_geom_bond_atom_site_label_2
_geom_bond_distance
_geom_bond_site_symmetry_2
H0 N0 1.033377 1_555
H1 N1 1.033377 1_556
H2 N2 1.033377 1_555
H3 N3 1.033377 1_554
H4 N0 1.047593 1_555
H5 N1 1.047593 1_555
H6 N2 1.047593 1_555
H7 N3 1.047593 1_555
H8 N0 1.045575 1_555
H9 N1 1.045575 1_555
H10 N2 1.045575 1_555
H11 N3 1.045575 1_555
H12 N0 1.026260 1_555
H13 N1 1.026260 1_555
H14 N2 1.026258 1_555
H15 N3 1.026258 1_555
O0 P0 1.531050 1_555
O0 Yb0 2.320357 1_555
O1 P1 1.531050 1_555
O1 Yb1 2.320357 1_555
O2 P2 1.531050 1_555
O2 Yb2 2.320357 1_555
O3 P3 1.531050 1_555
O3 Yb3 2.320357 1_555
O4 P0 1.524809 1_555
O4 Yb3 2.281625 1_556
O5 P1 1.524809 1_555
O5 Yb2 2.281625 1_555
O6 P2 1.524809 1_555
O6 Yb1 2.281625 1_554
O7 P3 1.524809 1_555
O7 Yb0 2.281625 1_555
O8 P0 1.630027 1_555
O8 P4 1.634607 1_555
O9 P1 1.630027 1_555
O9 P5 1.634607 1_555
O10 P2 1.630027 1_555
O10 P6 1.634607 1_555
O11 P3 1.630027 1_555
O11 P7 1.634607 1_555
O12 P0 1.530730 1_555
O12 Yb1 2.343499 1_555
O13 P1 1.530730 1_455
O13 Yb0 2.343499 1_555
O14 P2 1.530730 1_555
O14 Yb3 2.343499 1_555
O15 P3 1.530730 1_655
O15 Yb2 2.343499 1_555
O16 P4 1.529628 1_555
O16 Yb0 2.335782 1_555
O17 P5 1.529628 1_555
O17 Yb1 2.335782 1_555
O18 P6 1.529628 1_555
O18 Yb2 2.335782 1_555
O19 P7 1.529628 1_555
O19 Yb3 2.335782 1_555
O20 P4 1.525317 1_555
O20 Yb3 2.284002 1_555
O21 P5 1.525317 1_555
O21 Yb2 2.284002 1_556
O22 P6 1.525317 1_555
O22 Yb1 2.284002 1_555
O23 P7 1.525317 1_555
O23 Yb0 2.284002 1_554
O24 P4 1.527595 1_565
O24 Yb1 2.278842 1_555
O25 P5 1.527595 1_545
O25 Yb0 2.278842 1_655
O26 P6 1.527595 1_545
O26 Yb3 2.278842 1_555
O27 P7 1.527595 1_565
O27 Yb2 2.278842 1_455
