# generated using pymatgen
data_BaLa4(CoO3)5
_symmetry_space_group_name_H-M   'P 1'
_cell_length_a   9.57793478
_cell_length_b   9.57793478
_cell_length_c   13.49348484
_cell_angle_alpha   62.65363002
_cell_angle_beta   62.65363002
_cell_angle_gamma   33.82226239
_symmetry_Int_Tables_number   1
_chemical_formula_structural   BaLa4(CoO3)5
_chemical_formula_sum   'Ba2 La8 Co10 O30'
_cell_volume   604.39736516
_cell_formula_units_Z   2
loop_
 _symmetry_equiv_pos_site_id
 _symmetry_equiv_pos_as_xyz
  1  'x, y, z'
loop_
 _atom_site_type_symbol
 _atom_site_label
 _atom_site_symmetry_multiplicity
 _atom_site_fract_x
 _atom_site_fract_y
 _atom_site_fract_z
 _atom_site_occupancy
  Ba  Ba0  1  0.99915100  0.00084900  0.75000000  1
  Ba  Ba1  1  0.00084900  0.99915100  0.25000000  1
  La  La0  1  0.19738200  0.20745600  0.94688000  1
  La  La1  1  0.39762000  0.39789800  0.14945200  1
  La  La2  1  0.60210200  0.60238000  0.35054800  1
  La  La3  1  0.79254400  0.80261800  0.55312000  1
  La  La4  1  0.80261800  0.79254400  0.05312000  1
  La  La5  1  0.20745600  0.19738200  0.44688000  1
  La  La6  1  0.39789800  0.39762000  0.64945200  1
  La  La7  1  0.60238000  0.60210200  0.85054800  1
  Co  Co0  1  0.19771600  0.20317400  0.69957100  1
  Co  Co1  1  0.39788400  0.39958300  0.90005000  1
  Co  Co2  1  0.60211600  0.60041700  0.09995000  1
  Co  Co3  1  0.80228400  0.79682600  0.30042900  1
  Co  Co4  1  0.00000000  0.00000000  0.50000000  1
  Co  Co5  1  0.60041700  0.60211600  0.59995000  1
  Co  Co6  1  0.79682600  0.80228400  0.80042900  1
  Co  Co7  1  0.00000000  0.00000000  0.00000000  1
  Co  Co8  1  0.20317400  0.19771600  0.19957100  1
  Co  Co9  1  0.39958300  0.39788400  0.40005000  1
  O  O0  1  0.21310900  0.71192300  0.44513000  1
  O  O1  1  0.41411500  0.92306400  0.62602000  1
  O  O2  1  0.58206100  0.12731400  0.84199200  1
  O  O3  1  0.80540700  0.33076700  0.02886000  1
  O  O4  1  0.01400300  0.51716800  0.22877400  1
  O  O5  1  0.66923300  0.19459300  0.47114000  1
  O  O6  1  0.87268600  0.41793900  0.65800800  1
  O  O7  1  0.07693600  0.58588500  0.87398000  1
  O  O8  1  0.28807700  0.78689100  0.05487000  1
  O  O9  1  0.48283200  0.98599700  0.27122600  1
  O  O10  1  0.78689100  0.28807700  0.55487000  1
  O  O11  1  0.98599700  0.48283200  0.77122600  1
  O  O12  1  0.19459300  0.66923300  0.97114000  1
  O  O13  1  0.41793900  0.87268600  0.15800800  1
  O  O14  1  0.58588500  0.07693600  0.37398000  1
  O  O15  1  0.33076700  0.80540700  0.52886000  1
  O  O16  1  0.51716800  0.01400300  0.72877400  1
  O  O17  1  0.71192300  0.21310900  0.94513000  1
  O  O18  1  0.92306400  0.41411500  0.12602000  1
  O  O19  1  0.12731400  0.58206100  0.34199200  1
  O  O20  1  0.17061300  0.04396600  0.84685100  1
  O  O21  1  0.36348300  0.23318400  0.05659000  1
  O  O22  1  0.52902600  0.47097400  0.25000000  1
  O  O23  1  0.76681600  0.63651700  0.44341000  1
  O  O24  1  0.95603400  0.82938700  0.65314900  1
  O  O25  1  0.63651700  0.76681600  0.94341000  1
  O  O26  1  0.82938700  0.95603400  0.15314900  1
  O  O27  1  0.04396600  0.17061300  0.34685100  1
  O  O28  1  0.23318400  0.36348300  0.55659000  1
  O  O29  1  0.47097400  0.52902600  0.75000000  1
loop_
_geom_bond_atom_site_label_1
_geom_bond_atom_site_label_2
_geom_bond_distance
_geom_bond_site_symmetry_2
Ba0 O29 2.629099 1_645
Ba0 O10 2.757577 1_555
Ba0 O17 2.757577 1_555
Ba0 O2 2.784328 1_555
Ba0 O6 2.784328 1_555
Ba0 O20 2.858303 1_655
Ba0 O24 2.858303 1_545
Ba0 O29 2.943115 1_555
Ba0 O15 3.006965 1_645
Ba0 O12 3.006965 1_645
Ba0 O1 3.044140 1_645
Ba0 O7 3.044140 1_645
Ba1 O22 2.629099 1_465
Ba1 O8 2.757577 1_555
Ba1 O0 2.757577 1_555
Ba1 O19 2.784328 1_555
Ba1 O13 2.784328 1_555
Ba1 O27 2.858303 1_565
Ba1 O26 2.858303 1_455
Ba1 O22 2.943115 1_555
Ba1 O5 3.006965 1_465
Ba1 O3 3.006965 1_465
Ba1 O18 3.044140 1_465
Ba1 O14 3.044140 1_465
La0 O25 2.451760 1_545
La0 O7 2.501068 1_555
La0 O11 2.542870 1_455
La0 O18 2.565926 1_456
La0 O3 2.594387 1_456
La0 O20 2.695623 1_555
La0 O2 2.770470 1_555
La0 O21 2.816641 1_556
La0 O13 2.956691 1_546
La0 O16 2.962192 1_555
La0 O8 3.010013 1_546
La0 O25 3.121548 1_455
La1 O26 2.435388 1_545
La1 O12 2.545850 1_554
La1 O4 2.546961 1_555
La1 O8 2.641488 1_555
La1 O19 2.647039 1_555
La1 O21 2.686169 1_555
La1 O17 2.793058 1_554
La1 O22 2.796363 1_555
La1 O9 2.976039 1_545
La1 O14 3.022041 1_555
La1 O3 3.043970 1_555
La1 O26 3.139239 1_455
La2 O27 2.435388 1_655
La2 O15 2.545850 1_555
La2 O9 2.546961 1_555
La2 O0 2.641488 1_555
La2 O13 2.647039 1_555
La2 O23 2.686169 1_555
La2 O10 2.793058 1_555
La2 O22 2.796363 1_555
La2 O4 2.976039 1_655
La2 O18 3.022041 1_555
La2 O5 3.043970 1_555
La2 O27 3.139239 1_565
La3 O28 2.451760 1_655
La3 O1 2.501068 1_555
La3 O16 2.542870 1_565
La3 O14 2.565926 1_565
La3 O5 2.594387 1_565
La3 O24 2.695623 1_555
La3 O6 2.770470 1_555
La3 O23 2.816641 1_555
La3 O19 2.956691 1_655
La3 O11 2.962192 1_555
La3 O0 3.010013 1_655
La3 O28 3.121548 1_565
La4 O21 2.451760 1_565
La4 O18 2.501068 1_555
La4 O4 2.542870 1_655
La4 O7 2.565926 1_654
La4 O12 2.594387 1_654
La4 O26 2.695623 1_555
La4 O13 2.770470 1_555
La4 O25 2.816641 1_554
La4 O2 2.956691 1_564
La4 O9 2.962192 1_555
La4 O17 3.010013 1_564
La4 O21 3.121548 1_655
La5 O23 2.451760 1_455
La5 O14 2.501068 1_555
La5 O9 2.542870 1_545
La5 O1 2.565926 1_545
La5 O15 2.594387 1_545
La5 O27 2.695623 1_555
La5 O19 2.770470 1_555
La5 O28 2.816641 1_555
La5 O6 2.956691 1_455
La5 O4 2.962192 1_555
La5 O10 3.010013 1_455
La5 O23 3.121548 1_545
La6 O24 2.435388 1_455
La6 O5 2.545850 1_555
La6 O16 2.546961 1_555
La6 O10 2.641488 1_555
La6 O2 2.647039 1_555
La6 O28 2.686169 1_555
La6 O0 2.793058 1_555
La6 O29 2.796363 1_555
La6 O11 2.976039 1_455
La6 O7 3.022041 1_555
La6 O15 3.043970 1_555
La6 O24 3.139239 1_545
La7 O20 2.435388 1_565
La7 O3 2.545850 1_556
La7 O11 2.546961 1_555
La7 O17 2.641488 1_555
La7 O6 2.647039 1_555
La7 O25 2.686169 1_555
La7 O8 2.793058 1_556
La7 O29 2.796363 1_555
La7 O16 2.976039 1_565
La7 O1 3.022041 1_555
La7 O12 3.043970 1_555
La7 O20 3.139239 1_655
Co0 O28 1.933419 1_555
Co0 O20 1.934341 1_555
Co0 O11 1.942865 1_455
Co0 O1 1.948290 1_545
Co0 O16 2.010085 1_555
Co0 O6 2.035064 1_455
Co1 O2 1.868127 1_555
Co1 O12 1.893759 1_555
Co1 O29 1.990028 1_555
Co1 O7 2.015004 1_555
Co1 O21 2.061683 1_556
Co1 O17 2.088998 1_555
Co2 O13 1.868127 1_555
Co2 O3 1.893759 1_555
Co2 O22 1.990028 1_555
Co2 O18 2.015004 1_555
Co2 O25 2.061683 1_554
Co2 O8 2.088998 1_555
Co3 O23 1.933419 1_555
Co3 O26 1.934341 1_555
Co3 O4 1.942865 1_655
Co3 O14 1.948290 1_565
Co3 O9 2.010085 1_555
Co3 O19 2.035064 1_655
Co4 O0 1.859669 1_545
Co4 O10 1.859669 1_455
Co4 O15 2.077955 1_545
Co4 O5 2.077955 1_455
Co4 O24 2.087942 1_445
Co4 O27 2.087942 1_555
Co5 O6 1.868127 1_555
Co5 O15 1.893759 1_555
Co5 O29 1.990028 1_555
Co5 O1 2.015004 1_555
Co5 O23 2.061683 1_555
Co5 O10 2.088998 1_555
Co6 O25 1.933419 1_555
Co6 O24 1.934341 1_555
Co6 O16 1.942865 1_565
Co6 O7 1.948290 1_655
Co6 O11 2.010085 1_555
Co6 O2 2.035064 1_565
Co7 O17 1.859669 1_454
Co7 O8 1.859669 1_545
Co7 O3 2.077955 1_455
Co7 O12 2.077955 1_544
Co7 O20 2.087942 1_554
Co7 O26 2.087942 1_445
Co8 O21 1.933419 1_555
Co8 O27 1.934341 1_555
Co8 O9 1.942865 1_545
Co8 O18 1.948290 1_455
Co8 O4 2.010085 1_555
Co8 O13 2.035064 1_545
Co9 O19 1.868127 1_555
Co9 O5 1.893759 1_555
Co9 O22 1.990028 1_555
Co9 O14 2.015004 1_555
Co9 O28 2.061683 1_555
Co9 O0 2.088998 1_555
