# generated using pymatgen
data_TaCr3(CuS4)2
_symmetry_space_group_name_H-M   'P 1'
_cell_length_a   11.45253800
_cell_length_b   3.41429800
_cell_length_c   11.97126100
_cell_angle_alpha   90.00000000
_cell_angle_beta   90.00000000
_cell_angle_gamma   90.00000000
_symmetry_Int_Tables_number   1
_chemical_formula_structural   TaCr3(CuS4)2
_chemical_formula_sum   'Ta2 Cr6 Cu4 S16'
_cell_volume   468.10476783
_cell_formula_units_Z   2
loop_
 _symmetry_equiv_pos_site_id
 _symmetry_equiv_pos_as_xyz
  1  'x, y, z'
loop_
 _atom_site_type_symbol
 _atom_site_label
 _atom_site_symmetry_multiplicity
 _atom_site_fract_x
 _atom_site_fract_y
 _atom_site_fract_z
 _atom_site_occupancy
  Ta  Ta0  1  0.85141900  0.75000000  0.29194400  1
  Ta  Ta1  1  0.64858100  0.25000000  0.79194400  1
  Cr  Cr0  1  0.11503900  0.25000000  0.07361000  1
  Cr  Cr1  1  0.89165700  0.75000000  0.92606300  1
  Cr  Cr2  1  0.38496100  0.75000000  0.57361000  1
  Cr  Cr3  1  0.60834300  0.25000000  0.42606300  1
  Cr  Cr4  1  0.14786900  0.25000000  0.70356200  1
  Cr  Cr5  1  0.35213100  0.75000000  0.20356200  1
  Cu  Cu0  1  0.13326500  0.75000000  0.43140300  1
  Cu  Cu1  1  0.88382800  0.25000000  0.57395900  1
  Cu  Cu2  1  0.36673500  0.25000000  0.93140300  1
  Cu  Cu3  1  0.61617200  0.75000000  0.07395900  1
  S  S0  1  0.03443700  0.75000000  0.60893600  1
  S  S1  1  0.97096300  0.25000000  0.38316800  1
  S  S2  1  0.46556300  0.25000000  0.10893600  1
  S  S3  1  0.52903700  0.75000000  0.88316800  1
  S  S4  1  0.03116900  0.25000000  0.88277900  1
  S  S5  1  0.96887500  0.75000000  0.11980300  1
  S  S6  1  0.46883100  0.75000000  0.38277900  1
  S  S7  1  0.53112500  0.25000000  0.61980300  1
  S  S8  1  0.21496900  0.25000000  0.25198800  1
  S  S9  1  0.79643700  0.75000000  0.74485900  1
  S  S10  1  0.28503100  0.75000000  0.75198800  1
  S  S11  1  0.70356300  0.25000000  0.24485900  1
  S  S12  1  0.24734500  0.75000000  0.03064900  1
  S  S13  1  0.75270500  0.25000000  0.97727600  1
  S  S14  1  0.25265500  0.25000000  0.53064900  1
  S  S15  1  0.74729500  0.75000000  0.47727600  1
loop_
_geom_bond_atom_site_label_1
_geom_bond_atom_site_label_2
_geom_bond_distance
_geom_bond_site_symmetry_2
Cr0 S12 2.339831 1_555
Cr0 S12 2.339831 1_545
Cr0 S8 2.422756 1_555
Cr0 S5 2.454029 1_455
Cr0 S5 2.454029 1_445
Cr0 S4 2.478203 1_554
Cr1 S4 2.394934 1_655
Cr1 S4 2.394934 1_665
Cr1 S13 2.413014 1_555
Cr1 S13 2.413014 1_565
Cr1 S9 2.427924 1_555
Cr1 S5 2.482190 1_556
Cr2 S14 2.339831 1_565
Cr2 S14 2.339831 1_555
Cr2 S10 2.422756 1_555
Cr2 S7 2.454029 1_565
Cr2 S7 2.454029 1_555
Cr2 S6 2.478203 1_555
Cr3 S6 2.394934 1_555
Cr3 S6 2.394934 1_545
Cr3 S15 2.413014 1_545
Cr3 S15 2.413014 1_555
Cr3 S11 2.427924 1_555
Cr3 S7 2.482190 1_555
Cr4 S10 2.391237 1_555
Cr4 S10 2.391237 1_545
Cr4 S14 2.392698 1_555
Cr4 S0 2.425942 1_545
Cr4 S0 2.425942 1_555
Cr4 S4 2.527693 1_555
Cr5 S8 2.391237 1_555
Cr5 S8 2.391237 1_565
Cr5 S12 2.392698 1_555
Cr5 S2 2.425942 1_555
Cr5 S2 2.425942 1_565
Cr5 S6 2.527693 1_555
Cu0 S0 2.407886 1_555
Cu0 S14 2.489076 1_555
Cu0 S14 2.489076 1_565
Cu0 S1 2.588979 1_465
Cu0 S1 2.588979 1_455
Cu0 S8 2.898805 1_555
Cu0 S8 2.898805 1_565
Cu1 S0 2.462683 1_645
Cu1 S0 2.462683 1_655
Cu1 S1 2.492496 1_555
Cu1 S15 2.588237 1_545
Cu1 S15 2.588237 1_555
Cu1 S9 2.846351 1_555
Cu1 S9 2.846351 1_545
Cu2 S2 2.407886 1_556
Cu2 S12 2.489076 1_556
Cu2 S12 2.489076 1_546
Cu2 S3 2.588979 1_555
Cu2 S3 2.588979 1_545
Cu2 S10 2.898805 1_545
Cu2 S10 2.898805 1_555
Cu3 S2 2.462683 1_565
Cu3 S2 2.462683 1_555
Cu3 S3 2.492496 1_554
Cu3 S13 2.588237 1_564
Cu3 S13 2.588237 1_554
Cu3 S11 2.846351 1_555
Cu3 S11 2.846351 1_565
S1 Ta0 2.445680 1_545
S1 Ta0 2.445680 1_555
S3 Ta1 2.445680 1_565
S3 Ta1 2.445680 1_555
S5 Ta0 2.460925 1_555
S7 Ta1 2.460925 1_555
S9 Ta1 2.469703 1_565
S9 Ta1 2.469703 1_555
S11 Ta0 2.469703 1_555
S11 Ta0 2.469703 1_545
S13 Ta1 2.518821 1_555
S15 Ta0 2.518821 1_555
