# generated using pymatgen
data_Mg6TiW
_symmetry_space_group_name_H-M   'P 1'
_cell_length_a   4.80940000
_cell_length_b   6.00312200
_cell_length_c   11.04101100
_cell_angle_alpha   90.00000000
_cell_angle_beta   90.00000000
_cell_angle_gamma   90.00000000
_symmetry_Int_Tables_number   1
_chemical_formula_structural   Mg6TiW
_chemical_formula_sum   'Mg12 Ti2 W2'
_cell_volume   318.76961001
_cell_formula_units_Z   2
loop_
 _symmetry_equiv_pos_site_id
 _symmetry_equiv_pos_as_xyz
  1  'x, y, z'
loop_
 _atom_site_type_symbol
 _atom_site_label
 _atom_site_symmetry_multiplicity
 _atom_site_fract_x
 _atom_site_fract_y
 _atom_site_fract_z
 _atom_site_occupancy
  Mg  Mg0  1  0.00000000  0.25947700  0.07527000  1
  Mg  Mg1  1  0.00000000  0.74052300  0.07527000  1
  Mg  Mg2  1  0.00000000  0.00000000  0.32820500  1
  Mg  Mg3  1  0.50000000  0.74379300  0.42512900  1
  Mg  Mg4  1  0.50000000  0.25620700  0.42512900  1
  Mg  Mg5  1  0.50000000  0.00000000  0.17306900  1
  Mg  Mg6  1  0.00000000  0.75947700  0.57527000  1
  Mg  Mg7  1  0.00000000  0.24052300  0.57527000  1
  Mg  Mg8  1  0.00000000  0.50000000  0.82820500  1
  Mg  Mg9  1  0.50000000  0.24379300  0.92512900  1
  Mg  Mg10  1  0.50000000  0.75620700  0.92512900  1
  Mg  Mg11  1  0.50000000  0.50000000  0.67306900  1
  Ti  Ti0  1  0.00000000  0.50000000  0.30011300  1
  Ti  Ti1  1  0.00000000  0.00000000  0.80011300  1
  W  W0  1  0.50000000  0.50000000  0.19781500  1
  W  W1  1  0.50000000  0.00000000  0.69781500  1
loop_
_geom_bond_atom_site_label_1
_geom_bond_atom_site_label_2
_geom_bond_distance
_geom_bond_site_symmetry_2
Mg0 Ti0 2.871862 1_555
Mg0 Mg1 2.887778 1_555
Mg0 Mg9 2.922233 1_454
Mg0 Mg9 2.922233 1_554
Mg0 Mg5 3.061845 1_555
Mg0 Mg5 3.061845 1_455
Mg0 Mg8 3.086416 1_554
Mg0 W0 3.114171 1_455
Mg0 W0 3.114171 1_555
Mg0 Mg1 3.115344 1_545
Mg0 Mg2 3.197699 1_555
Mg0 Ti1 3.414067 1_554
Mg1 Ti0 2.871862 1_555
Mg1 Mg10 2.922233 1_454
Mg1 Mg10 2.922233 1_554
Mg1 Mg5 3.061845 1_565
Mg1 Mg5 3.061845 1_465
Mg1 Mg8 3.086416 1_554
Mg1 W0 3.114171 1_455
Mg1 W0 3.114171 1_555
Mg1 Mg2 3.197699 1_565
Mg1 Ti1 3.414067 1_564
Mg2 Mg5 2.952366 1_455
Mg2 Mg5 2.952366 1_555
Mg2 Ti0 3.017544 1_555
Mg2 Ti0 3.017544 1_545
Mg2 Mg4 3.048500 1_455
Mg2 Mg4 3.048500 1_555
Mg2 Mg3 3.048500 1_545
Mg2 Mg3 3.048500 1_445
Mg2 Mg7 3.086416 1_555
Mg2 Mg6 3.086416 1_545
Mg3 W0 2.905317 1_555
Mg3 Mg6 2.922233 1_555
Mg3 Mg6 2.922233 1_655
Mg3 Mg4 2.927038 1_555
Mg3 Mg4 3.076084 1_565
Mg3 Ti0 3.135236 1_555
Mg3 Ti0 3.135236 1_655
Mg3 Mg5 3.179724 1_565
Mg3 W1 3.380838 1_565
Mg4 W0 2.905317 1_555
Mg4 Mg7 2.922233 1_555
Mg4 Mg7 2.922233 1_655
Mg4 Ti0 3.135236 1_555
Mg4 Ti0 3.135236 1_655
Mg4 Mg5 3.179724 1_555
Mg4 W1 3.380838 1_555
Mg5 W0 3.013970 1_545
Mg5 W0 3.013970 1_555
Mg5 Mg9 3.104165 1_554
Mg6 Ti1 2.871862 1_565
Mg6 Mg7 2.887778 1_565
Mg6 W1 3.114171 1_465
Mg6 W1 3.114171 1_565
Mg6 Mg7 3.115344 1_555
Mg6 Mg8 3.197699 1_555
Mg6 Ti0 3.414067 1_555
Mg7 Ti1 2.871862 1_555
Mg7 W1 3.114171 1_455
Mg7 W1 3.114171 1_555
Mg7 Mg8 3.197699 1_555
Mg7 Ti0 3.414067 1_555
Mg8 Ti1 3.017544 1_555
Mg8 Ti1 3.017544 1_565
Mg8 Mg9 3.048500 1_455
Mg8 Mg9 3.048500 1_555
Mg9 W1 2.905317 1_555
Mg9 Ti1 3.135236 1_555
Mg9 Ti1 3.135236 1_655
Mg9 W0 3.380838 1_556
Mg10 W1 2.905317 1_565
Mg10 Mg9 2.927038 1_565
Mg10 Mg8 3.048500 1_555
Mg10 Mg8 3.048500 1_655
Mg10 Mg9 3.076084 1_555
Mg10 Mg5 3.104165 1_566
Mg10 Ti1 3.135236 1_565
Mg10 Ti1 3.135236 1_665
Mg10 Mg11 3.179724 1_555
Mg10 W0 3.380838 1_556
Mg11 Mg8 2.952366 1_555
Mg11 Mg8 2.952366 1_655
Mg11 W1 3.013970 1_565
Mg11 W1 3.013970 1_555
Mg11 Mg6 3.061845 1_655
Mg11 Mg7 3.061845 1_655
Mg11 Mg6 3.061845 1_555
Mg11 Mg7 3.061845 1_555
Mg11 Mg3 3.104165 1_555
Mg11 Mg4 3.104165 1_555
Mg11 Mg9 3.179724 1_555
Ti0 W0 2.656745 1_455
Ti0 W0 2.656745 1_555
Ti1 W1 2.656745 1_555
Ti1 W1 2.656745 1_455
