# generated using pymatgen
data_Mg14MnZn
_symmetry_space_group_name_H-M   'P 1'
_cell_length_a   6.25904499
_cell_length_b   6.25904450
_cell_length_c   10.14168390
_cell_angle_alpha   90.00000000
_cell_angle_beta   90.00000000
_cell_angle_gamma   120.00000255
_symmetry_Int_Tables_number   1
_chemical_formula_structural   Mg14MnZn
_chemical_formula_sum   'Mg14 Mn1 Zn1'
_cell_volume   344.07791918
_cell_formula_units_Z   1
loop_
 _symmetry_equiv_pos_site_id
 _symmetry_equiv_pos_as_xyz
  1  'x, y, z'
loop_
 _atom_site_type_symbol
 _atom_site_label
 _atom_site_symmetry_multiplicity
 _atom_site_fract_x
 _atom_site_fract_y
 _atom_site_fract_z
 _atom_site_occupancy
  Mg  Mg0  1  0.16753806  0.83376853  0.12500000  1
  Mg  Mg1  1  0.16513379  0.83256640  0.62500000  1
  Mg  Mg2  1  0.66623147  0.33246194  0.12500000  1
  Mg  Mg3  1  0.66743360  0.33486621  0.62500000  1
  Mg  Mg4  1  0.66623147  0.83376853  0.12500000  1
  Mg  Mg5  1  0.66743360  0.83256640  0.62500000  1
  Mg  Mg6  1  0.32990451  0.17009549  0.37469481  1
  Mg  Mg7  1  0.32990451  0.17009549  0.87530519  1
  Mg  Mg8  1  0.32990451  0.65981001  0.37469481  1
  Mg  Mg9  1  0.32990451  0.65981001  0.87530519  1
  Mg  Mg10  1  0.84018999  0.17009549  0.37469481  1
  Mg  Mg11  1  0.84018999  0.17009549  0.87530519  1
  Mg  Mg12  1  0.83333300  0.66666700  0.37510411  1
  Mg  Mg13  1  0.83333300  0.66666700  0.87489589  1
  Mn  Mn0  1  0.16666700  0.33333300  0.12500000  1
  Zn  Zn0  1  0.16666700  0.33333300  0.62500000  1
loop_
_geom_bond_atom_site_label_1
_geom_bond_atom_site_label_2
_geom_bond_distance
_geom_bond_site_symmetry_2
Mg0 Mg12 3.116962 1_455
Mg0 Mg13 3.116962 1_454
Mg0 Mg8 3.120495 1_555
Mg0 Mg9 3.120495 1_554
Mg0 Mg6 3.120501 1_565
Mg0 Mg7 3.120501 1_564
Mg0 Mg2 3.121344 1_565
Mg0 Mg4 3.121344 1_555
Mg0 Mn0 3.129526 1_555
Mg0 Mn0 3.129526 1_565
Mg0 Mg2 3.137700 1_455
Mg0 Mg4 3.137701 1_455
Mg1 Mg12 3.107683 1_455
Mg1 Mg13 3.107683 1_455
Mg1 Mg3 3.115128 1_455
Mg1 Mg5 3.115128 1_455
Mg1 Mg9 3.129215 1_555
Mg1 Mg8 3.129215 1_555
Mg1 Mg7 3.129222 1_565
Mg1 Mg6 3.129222 1_565
Mg1 Zn0 3.129533 1_565
Mg1 Zn0 3.129533 1_555
Mg1 Mg3 3.143917 1_565
Mg1 Mg5 3.143917 1_555
Mg2 Mg6 3.120501 1_555
Mg2 Mg7 3.120501 1_554
Mg2 Mg4 3.121344 1_545
Mg2 Mn0 3.129526 1_555
Mg2 Mn0 3.129526 1_655
Mg2 Mg4 3.137700 1_555
Mg3 Mg5 3.115128 1_555
Mg3 Mg7 3.129222 1_555
Mg3 Mg6 3.129222 1_555
Mg3 Zn0 3.129533 1_555
Mg3 Zn0 3.129534 1_655
Mg3 Mg5 3.143917 1_545
Mg4 Mg8 3.120501 1_555
Mg4 Mg9 3.120501 1_554
Mg4 Mn0 3.129526 1_555
Mg4 Mn0 3.129526 1_665
Mg5 Mg9 3.129222 1_555
Mg5 Mg8 3.129222 1_555
Mg5 Zn0 3.129533 1_665
Mg5 Zn0 3.129533 1_555
Mg6 Mg8 3.065145 1_555
Mg6 Mn0 3.089394 1_555
Mg6 Zn0 3.094470 1_555
Mg6 Mg8 3.193900 1_545
Mg7 Mg9 3.065145 1_555
Mg7 Mn0 3.089394 1_556
Mg7 Zn0 3.094470 1_555
Mg7 Mg9 3.193900 1_545
Mg8 Mn0 3.089400 1_555
Mg8 Zn0 3.094476 1_555
Mg9 Mn0 3.089400 1_556
Mg9 Zn0 3.094476 1_555
Mg10 Mg8 3.065145 1_655
Mg10 Mg6 3.065145 1_655
Mg10 Mn0 3.089400 1_655
Mg10 Zn0 3.094476 1_655
Mg10 Mg2 3.120495 1_555
Mg10 Mg4 3.120501 1_545
Mg10 Mg3 3.129215 1_555
Mg10 Mg5 3.129222 1_545
Mg10 Mg12 3.129746 1_545
Mg10 Mg12 3.129746 1_555
Mg10 Mg8 3.193900 1_545
Mg10 Mg6 3.193900 1_555
Mg11 Mg9 3.065145 1_655
Mg11 Mg7 3.065145 1_655
Mg11 Mn0 3.089400 1_656
Mg11 Zn0 3.094476 1_655
Mg11 Mg2 3.120495 1_556
Mg11 Mg4 3.120501 1_546
Mg11 Mg3 3.129215 1_555
Mg11 Mg5 3.129222 1_545
Mg11 Mg13 3.129746 1_545
Mg11 Mg13 3.129746 1_555
Mg11 Mg9 3.193900 1_545
Mg11 Mg7 3.193900 1_555
Mg12 Mg5 3.107677 1_555
Mg12 Mg3 3.107683 1_555
Mg12 Mg4 3.116955 1_555
Mg12 Mg2 3.116961 1_555
Mg12 Mg6 3.129746 1_665
Mg12 Mg6 3.129746 1_555
Mg12 Mg8 3.129746 1_555
Mg12 Mg8 3.129746 1_655
Mg13 Mg5 3.107677 1_555
Mg13 Mg3 3.107683 1_555
Mg13 Mg4 3.116955 1_556
Mg13 Mg2 3.116961 1_556
Mg13 Mg7 3.129746 1_665
Mg13 Mg7 3.129746 1_555
Mg13 Mg9 3.129746 1_555
Mg13 Mg9 3.129746 1_655
