# generated using pymatgen
data_Pr2FeSn4
_symmetry_space_group_name_H-M   'P 1'
_cell_length_a   8.70137517
_cell_length_b   8.70137517
_cell_length_c   4.62107900
_cell_angle_alpha   90.00000000
_cell_angle_beta   90.00000000
_cell_angle_gamma   148.97699018
_symmetry_Int_Tables_number   1
_chemical_formula_structural   Pr2FeSn4
_chemical_formula_sum   'Pr2 Fe1 Sn4'
_cell_volume   180.32197461
_cell_formula_units_Z   1
loop_
 _symmetry_equiv_pos_site_id
 _symmetry_equiv_pos_as_xyz
  1  'x, y, z'
loop_
 _atom_site_type_symbol
 _atom_site_label
 _atom_site_symmetry_multiplicity
 _atom_site_fract_x
 _atom_site_fract_y
 _atom_site_fract_z
 _atom_site_occupancy
  Pr  Pr0  1  0.10075200  0.89924800  0.50000000  1
  Pr  Pr1  1  0.89833300  0.10166700  0.00000000  1
  Fe  Fe0  1  0.29997200  0.70002800  0.50000000  1
  Sn  Sn0  1  0.74172500  0.25827500  0.50000000  1
  Sn  Sn1  1  0.24433800  0.75566200  0.00000000  1
  Sn  Sn2  1  0.44905200  0.55094800  0.50000000  1
  Sn  Sn3  1  0.56882800  0.43117200  0.00000000  1
loop_
_geom_bond_atom_site_label_1
_geom_bond_atom_site_label_2
_geom_bond_distance
_geom_bond_site_symmetry_2
Pr0 Sn0 3.317130 1_455
Pr0 Sn0 3.317130 1_565
Pr0 Sn3 3.322682 1_455
Pr0 Sn3 3.322682 1_456
Pr0 Sn3 3.322682 1_565
Pr0 Sn3 3.322682 1_566
Pr0 Sn1 3.337062 1_556
Pr0 Sn1 3.337062 1_555
Pr0 Sn2 3.447632 1_455
Pr0 Sn2 3.447632 1_565
Pr0 Pr1 4.106111 1_465
Pr0 Pr1 4.106111 1_466
Pr1 Sn2 3.387771 1_544
Pr1 Sn2 3.387771 1_545
Pr1 Sn2 3.387771 1_654
Pr1 Sn2 3.387771 1_655
Pr1 Sn1 3.476125 1_545
Pr1 Sn1 3.476125 1_655
Pr1 Sn0 3.497887 1_554
Pr1 Sn0 3.497887 1_555
Pr1 Sn3 3.686325 1_545
Pr1 Sn3 3.686325 1_655
Fe0 Sn1 2.491773 1_555
Fe0 Sn1 2.491773 1_556
Fe0 Sn2 2.499906 1_555
Fe0 Sn0 2.523700 1_455
Fe0 Sn0 2.523700 1_565
Fe0 Pr0 3.340697 1_555
Fe0 Pr1 3.670718 1_455
Fe0 Pr1 3.670718 1_566
Fe0 Pr1 3.670718 1_565
Fe0 Pr1 3.670718 1_456
Sn2 Sn3 3.061487 1_555
Sn2 Sn3 3.061487 1_556
