# generated using pymatgen
data_Nb4NiP
_symmetry_space_group_name_H-M   'P 1'
_cell_length_a   6.16434900
_cell_length_b   6.16434900
_cell_length_c   4.99120500
_cell_angle_alpha   90.00000000
_cell_angle_beta   90.00000000
_cell_angle_gamma   90.00000000
_symmetry_Int_Tables_number   1
_chemical_formula_structural   Nb4NiP
_chemical_formula_sum   'Nb8 Ni2 P2'
_cell_volume   189.66179002
_cell_formula_units_Z   2
loop_
 _symmetry_equiv_pos_site_id
 _symmetry_equiv_pos_as_xyz
  1  'x, y, z'
loop_
 _atom_site_type_symbol
 _atom_site_label
 _atom_site_symmetry_multiplicity
 _atom_site_fract_x
 _atom_site_fract_y
 _atom_site_fract_z
 _atom_site_occupancy
  Nb  Nb0  1  0.66042800  0.16426800  0.50000000  1
  Nb  Nb1  1  0.33957200  0.83573200  0.50000000  1
  Nb  Nb2  1  0.83573200  0.66042800  0.50000000  1
  Nb  Nb3  1  0.16426800  0.33957200  0.50000000  1
  Nb  Nb4  1  0.33957200  0.16426800  0.00000000  1
  Nb  Nb5  1  0.66042800  0.83573200  0.00000000  1
  Nb  Nb6  1  0.16426800  0.66042800  0.00000000  1
  Nb  Nb7  1  0.83573200  0.33957200  0.00000000  1
  Ni  Ni0  1  0.00000000  0.00000000  0.25000000  1
  Ni  Ni1  1  0.00000000  0.00000000  0.75000000  1
  P  P0  1  0.50000000  0.50000000  0.25000000  1
  P  P1  1  0.50000000  0.50000000  0.75000000  1
loop_
_geom_bond_atom_site_label_1
_geom_bond_atom_site_label_2
_geom_bond_distance
_geom_bond_site_symmetry_2
Nb0 P1 2.611152 1_555
Nb0 P0 2.611152 1_555
Nb0 Ni0 2.638945 1_655
Nb0 Ni1 2.638945 1_655
Nb1 P1 2.611152 1_555
Nb1 P0 2.611152 1_555
Nb1 Ni1 2.638945 1_565
Nb1 Ni0 2.638945 1_565
Nb2 P1 2.611152 1_555
Nb2 P0 2.611152 1_555
Nb2 Ni0 2.638945 1_665
Nb2 Ni1 2.638945 1_665
Nb3 P1 2.611152 1_555
Nb3 P0 2.611152 1_555
Nb3 Ni1 2.638945 1_555
Nb3 Ni0 2.638945 1_555
Nb4 P1 2.611152 1_554
Nb4 P0 2.611152 1_555
Nb4 Ni0 2.638945 1_555
Nb4 Ni1 2.638945 1_554
Nb5 P1 2.611152 1_554
Nb5 P0 2.611152 1_555
Nb5 Ni1 2.638945 1_664
Nb5 Ni0 2.638945 1_665
Nb6 P1 2.611152 1_554
Nb6 P0 2.611152 1_555
Nb6 Ni1 2.638945 1_564
Nb6 Ni0 2.638945 1_565
Nb7 P1 2.611152 1_554
Nb7 P0 2.611152 1_555
Nb7 Ni0 2.638945 1_655
Nb7 Ni1 2.638945 1_654
Ni0 Ni1 2.495602 1_554
Ni0 Ni1 2.495602 1_555
P0 P1 2.495602 1_554
P0 P1 2.495602 1_555
