# generated using pymatgen
data_H5CN3
_symmetry_space_group_name_H-M   'P 1'
_cell_length_a   8.50407700
_cell_length_b   9.20820500
_cell_length_c   16.85279000
_cell_angle_alpha   90.00000000
_cell_angle_beta   90.00000000
_cell_angle_gamma   90.00000000
_symmetry_Int_Tables_number   1
_chemical_formula_structural   H5CN3
_chemical_formula_sum   'H80 C16 N48'
_cell_volume   1319.69621865
_cell_formula_units_Z   16
loop_
 _symmetry_equiv_pos_site_id
 _symmetry_equiv_pos_as_xyz
  1  'x, y, z'
loop_
 _atom_site_type_symbol
 _atom_site_label
 _atom_site_symmetry_multiplicity
 _atom_site_fract_x
 _atom_site_fract_y
 _atom_site_fract_z
 _atom_site_occupancy
  H  H0  1  0.64658000  0.60322400  0.14027400  1
  H  H1  1  0.14658000  0.89677600  0.85972600  1
  H  H2  1  0.35342000  0.10322400  0.35972600  1
  H  H3  1  0.85342000  0.39677600  0.64027400  1
  H  H4  1  0.35342000  0.39677600  0.85972600  1
  H  H5  1  0.85342000  0.10322400  0.14027400  1
  H  H6  1  0.64658000  0.89677600  0.64027400  1
  H  H7  1  0.14658000  0.60322400  0.35972600  1
  H  H8  1  0.38434500  0.69582500  0.13771800  1
  H  H9  1  0.88434500  0.80417500  0.86228200  1
  H  H10  1  0.61565500  0.19582500  0.36228200  1
  H  H11  1  0.11565500  0.30417500  0.63771800  1
  H  H12  1  0.61565500  0.30417500  0.86228200  1
  H  H13  1  0.11565500  0.19582500  0.13771800  1
  H  H14  1  0.38434500  0.80417500  0.63771800  1
  H  H15  1  0.88434500  0.69582500  0.36228200  1
  H  H16  1  0.25976400  0.62093600  0.20601300  1
  H  H17  1  0.75976400  0.87906400  0.79398700  1
  H  H18  1  0.74023600  0.12093600  0.29398700  1
  H  H19  1  0.24023600  0.37906400  0.70601300  1
  H  H20  1  0.74023600  0.37906400  0.79398700  1
  H  H21  1  0.24023600  0.12093600  0.20601300  1
  H  H22  1  0.25976400  0.87906400  0.70601300  1
  H  H23  1  0.75976400  0.62093600  0.29398700  1
  H  H24  1  0.30973600  0.42794500  0.27497400  1
  H  H25  1  0.80973600  0.07205500  0.72502600  1
  H  H26  1  0.69026400  0.92794500  0.22502600  1
  H  H27  1  0.19026400  0.57205500  0.77497400  1
  H  H28  1  0.69026400  0.57205500  0.72502600  1
  H  H29  1  0.19026400  0.92794500  0.27497400  1
  H  H30  1  0.30973600  0.07205500  0.77497400  1
  H  H31  1  0.80973600  0.42794500  0.22502600  1
  H  H32  1  0.48851000  0.33383000  0.26636800  1
  H  H33  1  0.98851000  0.16617000  0.73363200  1
  H  H34  1  0.51149000  0.83383000  0.23363200  1
  H  H35  1  0.01149000  0.66617000  0.76636800  1
  H  H36  1  0.51149000  0.66617000  0.73363200  1
  H  H37  1  0.01149000  0.83383000  0.26636800  1
  H  H38  1  0.48851000  0.16617000  0.76636800  1
  H  H39  1  0.98851000  0.33383000  0.23363200  1
  H  H40  1  0.47891600  0.28386100  0.61526300  1
  H  H41  1  0.97891600  0.21613900  0.38473700  1
  H  H42  1  0.52108400  0.78386100  0.88473700  1
  H  H43  1  0.02108400  0.71613900  0.11526300  1
  H  H44  1  0.52108400  0.71613900  0.38473700  1
  H  H45  1  0.02108400  0.78386100  0.61526300  1
  H  H46  1  0.47891600  0.21613900  0.11526300  1
  H  H47  1  0.97891600  0.28386100  0.88473700  1
  H  H48  1  0.69901300  0.14176700  0.59959100  1
  H  H49  1  0.19901300  0.35823300  0.40040900  1
  H  H50  1  0.30098700  0.64176700  0.90040900  1
  H  H51  1  0.80098700  0.85823300  0.09959100  1
  H  H52  1  0.30098700  0.85823300  0.40040900  1
  H  H53  1  0.80098700  0.64176700  0.59959100  1
  H  H54  1  0.69901300  0.35823300  0.09959100  1
  H  H55  1  0.19901300  0.14176700  0.90040900  1
  H  H56  1  0.82444300  0.18496600  0.51971700  1
  H  H57  1  0.32444300  0.31503400  0.48028300  1
  H  H58  1  0.17555700  0.68496600  0.98028300  1
  H  H59  1  0.67555700  0.81503400  0.01971700  1
  H  H60  1  0.17555700  0.81503400  0.48028300  1
  H  H61  1  0.67555700  0.68496600  0.51971700  1
  H  H62  1  0.82444300  0.31503400  0.01971700  1
  H  H63  1  0.32444300  0.18496600  0.98028300  1
  H  H64  1  0.77167700  0.36879500  0.44020400  1
  H  H65  1  0.27167700  0.13120500  0.55979600  1
  H  H66  1  0.22832300  0.86879500  0.05979600  1
  H  H67  1  0.72832300  0.63120500  0.94020400  1
  H  H68  1  0.22832300  0.63120500  0.55979600  1
  H  H69  1  0.72832300  0.86879500  0.44020400  1
  H  H70  1  0.77167700  0.13120500  0.94020400  1
  H  H71  1  0.27167700  0.36879500  0.05979600  1
  H  H72  1  0.60165000  0.46873000  0.44412400  1
  H  H73  1  0.10165000  0.03127000  0.55587600  1
  H  H74  1  0.39835000  0.96873000  0.05587600  1
  H  H75  1  0.89835000  0.53127000  0.94412400  1
  H  H76  1  0.39835000  0.53127000  0.55587600  1
  H  H77  1  0.89835000  0.96873000  0.44412400  1
  H  H78  1  0.60165000  0.03127000  0.94412400  1
  H  H79  1  0.10165000  0.46873000  0.05587600  1
  C  C0  1  0.47408000  0.51911700  0.19993000  1
  C  C1  1  0.97408000  0.98088300  0.80007000  1
  C  C2  1  0.52592000  0.01911700  0.30007000  1
  C  C3  1  0.02592000  0.48088300  0.69993000  1
  C  C4  1  0.52592000  0.48088300  0.80007000  1
  C  C5  1  0.02592000  0.01911700  0.19993000  1
  C  C6  1  0.47408000  0.98088300  0.69993000  1
  C  C7  1  0.97408000  0.51911700  0.30007000  1
  C  C8  1  0.62291600  0.30698700  0.52781900  1
  C  C9  1  0.12291600  0.19301300  0.47218100  1
  C  C10  1  0.37708400  0.80698700  0.97218100  1
  C  C11  1  0.87708400  0.69301300  0.02781900  1
  C  C12  1  0.37708400  0.69301300  0.47218100  1
  C  C13  1  0.87708400  0.80698700  0.52781900  1
  C  C14  1  0.62291600  0.19301300  0.02781900  1
  C  C15  1  0.12291600  0.30698700  0.97218100  1
  N  N0  1  0.61862900  0.51274800  0.17296400  1
  N  N1  1  0.11862900  0.98725200  0.82703600  1
  N  N2  1  0.38137100  0.01274800  0.32703600  1
  N  N3  1  0.88137100  0.48725200  0.67296400  1
  N  N4  1  0.38137100  0.48725200  0.82703600  1
  N  N5  1  0.88137100  0.01274800  0.17296400  1
  N  N6  1  0.61862900  0.98725200  0.67296400  1
  N  N7  1  0.11862900  0.51274800  0.32703600  1
  N  N8  1  0.37290000  0.63503700  0.18812800  1
  N  N9  1  0.87290000  0.86496300  0.81187200  1
  N  N10  1  0.62710000  0.13503700  0.31187200  1
  N  N11  1  0.12710000  0.36496300  0.68812800  1
  N  N12  1  0.62710000  0.36496300  0.81187200  1
  N  N13  1  0.12710000  0.13503700  0.18812800  1
  N  N14  1  0.37290000  0.86496300  0.68812800  1
  N  N15  1  0.87290000  0.63503700  0.31187200  1
  N  N16  1  0.41199600  0.40818800  0.24369100  1
  N  N17  1  0.91199600  0.09181200  0.75630900  1
  N  N18  1  0.58800400  0.90818800  0.25630900  1
  N  N19  1  0.08800400  0.59181200  0.74369100  1
  N  N20  1  0.58800400  0.59181200  0.75630900  1
  N  N21  1  0.08800400  0.90818800  0.24369100  1
  N  N22  1  0.41199600  0.09181200  0.74369100  1
  N  N23  1  0.91199600  0.40818800  0.25630900  1
  N  N24  1  0.48743400  0.33687200  0.56209300  1
  N  N25  1  0.98743400  0.16312800  0.43790700  1
  N  N26  1  0.51256600  0.83687200  0.93790700  1
  N  N27  1  0.01256600  0.66312800  0.06209300  1
  N  N28  1  0.51256600  0.66312800  0.43790700  1
  N  N29  1  0.01256600  0.83687200  0.56209300  1
  N  N30  1  0.48743400  0.16312800  0.06209300  1
  N  N31  1  0.98743400  0.33687200  0.93790700  1
  N  N32  1  0.73509500  0.21639800  0.55776100  1
  N  N33  1  0.23509500  0.28360200  0.44223900  1
  N  N34  1  0.26490500  0.71639800  0.94223900  1
  N  N35  1  0.76490500  0.78360200  0.05776100  1
  N  N36  1  0.26490500  0.78360200  0.44223900  1
  N  N37  1  0.76490500  0.71639800  0.55776100  1
  N  N38  1  0.73509500  0.28360200  0.05776100  1
  N  N39  1  0.23509500  0.21639800  0.94223900  1
  N  N40  1  0.65592600  0.36988700  0.45516500  1
  N  N41  1  0.15592600  0.13011300  0.54483500  1
  N  N42  1  0.34407400  0.86988700  0.04483500  1
  N  N43  1  0.84407400  0.63011300  0.95516500  1
  N  N44  1  0.34407400  0.63011300  0.54483500  1
  N  N45  1  0.84407400  0.86988700  0.45516500  1
  N  N46  1  0.65592600  0.13011300  0.95516500  1
  N  N47  1  0.15592600  0.36988700  0.04483500  1
loop_
_geom_bond_atom_site_label_1
_geom_bond_atom_site_label_2
_geom_bond_distance
_geom_bond_site_symmetry_2
H0 N0 1.026695 1_555
H1 N1 1.026695 1_555
H2 N2 1.026695 1_555
H3 N3 1.026695 1_555
H4 N4 1.026695 1_555
H5 N5 1.026695 1_555
H6 N6 1.026695 1_555
H7 N7 1.026695 1_555
H8 N8 1.022020 1_555
H9 N9 1.022020 1_555
H10 N10 1.022020 1_555
H11 N11 1.022020 1_555
H12 N12 1.022020 1_555
H13 N13 1.022020 1_555
H14 N14 1.022020 1_555
H15 N15 1.022020 1_555
H16 N8 1.016552 1_555
H17 N9 1.016552 1_555
H18 N10 1.016552 1_555
H19 N11 1.016552 1_555
H20 N12 1.016552 1_555
H21 N13 1.016552 1_555
H22 N14 1.016552 1_555
H23 N15 1.016552 1_555
H24 N16 1.033099 1_555
H25 N17 1.033099 1_555
H26 N18 1.033099 1_555
H27 N19 1.033099 1_555
H28 N20 1.033099 1_555
H29 N21 1.033099 1_555
H30 N22 1.033099 1_555
H31 N23 1.033099 1_555
H32 N16 1.018950 1_555
H33 N17 1.018950 1_555
H34 N18 1.018950 1_555
H35 N19 1.018950 1_555
H36 N20 1.018950 1_555
H37 N21 1.018950 1_555
H38 N22 1.018950 1_555
H39 N23 1.018950 1_555
H40 N24 1.022963 1_555
H41 N25 1.022963 1_555
H42 N26 1.022963 1_555
H43 N27 1.022963 1_555
H44 N28 1.022963 1_555
H45 N29 1.022963 1_555
H46 N30 1.022963 1_555
H47 N31 1.022963 1_555
H48 N32 1.031203 1_555
H49 N33 1.031203 1_555
H50 N34 1.031203 1_555
H51 N35 1.031203 1_555
H52 N36 1.031203 1_555
H53 N37 1.031203 1_555
H54 N38 1.031203 1_555
H55 N39 1.031203 1_555
H56 N32 1.035457 1_555
H57 N33 1.035457 1_555
H58 N34 1.035457 1_555
H59 N35 1.035457 1_555
H60 N36 1.035457 1_555
H61 N37 1.035457 1_555
H62 N38 1.035457 1_555
H63 N39 1.035457 1_555
H64 N40 1.016183 1_555
H65 N41 1.016183 1_555
H66 N42 1.016183 1_555
H67 N43 1.016183 1_555
H68 N44 1.016183 1_555
H69 N45 1.016183 1_555
H70 N46 1.016183 1_555
H71 N47 1.016183 1_555
H72 N40 1.037338 1_555
H73 N41 1.037338 1_555
H74 N42 1.037338 1_555
H75 N43 1.037338 1_555
H76 N44 1.037338 1_555
H77 N45 1.037338 1_555
H78 N46 1.037338 1_555
H79 N47 1.037338 1_555
C0 N0 1.311883 1_555
C0 N16 1.366024 1_555
C0 N8 1.385387 1_555
C1 N1 1.311883 1_655
C1 N17 1.366024 1_565
C1 N9 1.385387 1_555
C2 N2 1.311883 1_555
C2 N18 1.366024 1_545
C2 N10 1.385387 1_555
C3 N3 1.311883 1_455
C3 N19 1.366024 1_555
C3 N11 1.385387 1_555
C4 N4 1.311883 1_555
C4 N20 1.366024 1_555
C4 N12 1.385387 1_555
C5 N5 1.311883 1_455
C5 N21 1.366024 1_545
C5 N13 1.385387 1_555
C6 N6 1.311883 1_555
C6 N22 1.366024 1_565
C6 N14 1.385387 1_555
C7 N7 1.311883 1_655
C7 N23 1.366024 1_555
C7 N15 1.385387 1_555
C8 N24 1.317882 1_555
C8 N32 1.364012 1_555
C8 N40 1.383287 1_555
C9 N25 1.317882 1_455
C9 N33 1.364012 1_555
C9 N41 1.383287 1_555
C10 N26 1.317882 1_555
C10 N34 1.364012 1_555
C10 N42 1.383287 1_556
C11 N27 1.317882 1_655
C11 N35 1.364012 1_555
C11 N43 1.383287 1_554
C12 N28 1.317882 1_555
C12 N36 1.364012 1_555
C12 N44 1.383287 1_555
C13 N29 1.317882 1_655
C13 N37 1.364012 1_555
C13 N45 1.383287 1_555
C14 N30 1.317882 1_555
C14 N38 1.364012 1_555
C14 N46 1.383287 1_554
C15 N31 1.317882 1_455
C15 N39 1.364012 1_555
C15 N47 1.383287 1_556
