# generated using pymatgen
data_Li3AuN2
_symmetry_space_group_name_H-M   'P 1'
_cell_length_a   8.88798300
_cell_length_b   10.26295897
_cell_length_c   10.26295920
_cell_angle_alpha   89.99999651
_cell_angle_beta   125.26438791
_cell_angle_gamma   54.73561118
_symmetry_Int_Tables_number   1
_chemical_formula_structural   Li3AuN2
_chemical_formula_sum   'Li24 Au8 N16'
_cell_volume   540.49015154
_cell_formula_units_Z   8
loop_
 _symmetry_equiv_pos_site_id
 _symmetry_equiv_pos_as_xyz
  1  'x, y, z'
loop_
 _atom_site_type_symbol
 _atom_site_label
 _atom_site_symmetry_multiplicity
 _atom_site_fract_x
 _atom_site_fract_y
 _atom_site_fract_z
 _atom_site_occupancy
  Li  Li0  1  0.29569400  0.94472100  0.05591300  1
  Li  Li1  1  0.70430600  0.74041500  0.44408700  1
  Li  Li2  1  0.70430600  0.55527900  0.76021900  1
  Li  Li3  1  0.29569400  0.75958500  0.73978100  1
  Li  Li4  1  0.18386800  0.76021900  0.18450200  1
  Li  Li5  1  0.81613200  0.73978100  0.00063400  1
  Li  Li6  1  0.18386800  0.05591300  0.49936600  1
  Li  Li7  1  0.81613200  0.44408700  0.31549800  1
  Li  Li8  1  0.81486400  0.00063400  0.75958500  1
  Li  Li9  1  0.81486400  0.18450200  0.55527900  1
  Li  Li10  1  0.18513600  0.31549800  0.74041500  1
  Li  Li11  1  0.18513600  0.49936600  0.94472100  1
  Li  Li12  1  0.70430600  0.05527900  0.94408700  1
  Li  Li13  1  0.29569400  0.25958500  0.55591300  1
  Li  Li14  1  0.29569400  0.44472100  0.23978100  1
  Li  Li15  1  0.70430600  0.24041500  0.26021900  1
  Li  Li16  1  0.81613200  0.23978100  0.81549800  1
  Li  Li17  1  0.18386800  0.26021900  0.99936600  1
  Li  Li18  1  0.81613200  0.94408700  0.50063400  1
  Li  Li19  1  0.18386800  0.55591300  0.68450200  1
  Li  Li20  1  0.18513600  0.99936600  0.24041500  1
  Li  Li21  1  0.18513600  0.81549800  0.44472100  1
  Li  Li22  1  0.81486400  0.68450200  0.25958500  1
  Li  Li23  1  0.81486400  0.50063400  0.05527900  1
  Au  Au0  1  0.32030800  0.00000000  0.82030800  1
  Au  Au1  1  0.67969200  0.82030800  0.67969200  1
  Au  Au2  1  0.67969200  0.50000000  0.50000000  1
  Au  Au3  1  0.32030800  0.67969200  0.00000000  1
  Au  Au4  1  0.67969200  0.00000000  0.17969200  1
  Au  Au5  1  0.32030800  0.17969200  0.32030800  1
  Au  Au6  1  0.32030800  0.50000000  0.50000000  1
  Au  Au7  1  0.67969200  0.32030800  0.00000000  1
  N  N0  1  0.00000000  0.00000000  0.50000000  1
  N  N1  1  0.00000000  0.50000000  0.00000000  1
  N  N2  1  0.00000000  0.50000000  0.50000000  1
  N  N3  1  0.00000000  0.00000000  0.00000000  1
  N  N4  1  0.50000000  0.00622400  0.75000000  1
  N  N5  1  0.50000000  0.49377600  0.25000000  1
  N  N6  1  0.00000000  0.25000000  0.75622400  1
  N  N7  1  0.00000000  0.75000000  0.74377600  1
  N  N8  1  0.48755300  0.75622400  0.49377600  1
  N  N9  1  0.51244700  0.74377600  0.00622400  1
  N  N10  1  0.50000000  0.99377600  0.25000000  1
  N  N11  1  0.50000000  0.50622400  0.75000000  1
  N  N12  1  0.00000000  0.75000000  0.24377600  1
  N  N13  1  0.00000000  0.25000000  0.25622400  1
  N  N14  1  0.51244700  0.24377600  0.50622400  1
  N  N15  1  0.48755300  0.25622400  0.99377600  1
loop_
_geom_bond_atom_site_label_1
_geom_bond_atom_site_label_2
_geom_bond_distance
_geom_bond_site_symmetry_2
Li0 N3 2.023637 1_565
Li0 N10 2.097036 1_555
Li0 N9 2.184326 1_555
Li1 N2 2.023637 1_655
Li1 N10 2.097036 1_555
Li1 N8 2.184321 1_555
Li2 N1 2.023637 1_656
Li2 N11 2.097036 1_555
Li2 N8 2.184333 1_555
Li3 N0 2.023637 1_565
Li3 N11 2.097036 1_555
Li3 N9 2.184329 1_556
Li4 N3 2.023637 1_565
Li4 N12 2.097036 1_555
Li4 N5 2.184330 1_555
Li5 N1 2.023637 1_655
Li5 N12 2.097036 1_655
Li5 N4 2.184330 1_564
Li6 N0 2.023637 1_555
Li6 N13 2.097036 1_555
Li6 N4 2.184330 1_555
Li7 N2 2.023637 1_655
Li7 N13 2.097036 1_655
Li7 N5 2.184330 1_555
Li8 N3 2.023637 1_656
Li8 N14 2.097034 1_555
Li8 N7 2.184330 1_645
Li9 N0 2.023637 1_655
Li9 N14 2.097044 1_555
Li9 N6 2.184330 1_655
Li10 N2 2.023637 1_555
Li10 N15 2.097039 1_555
Li10 N6 2.184330 1_555
Li11 N1 2.023637 1_556
Li11 N15 2.097040 1_555
Li11 N7 2.184330 1_555
Li12 N3 2.023637 1_656
Li12 N4 2.097036 1_555
Li12 N15 2.184326 1_555
Li13 N2 2.023637 1_555
Li13 N4 2.097036 1_555
Li13 N14 2.184321 1_555
Li14 N1 2.023637 1_555
Li14 N5 2.097036 1_555
Li14 N14 2.184333 1_555
Li15 N0 2.023637 1_655
Li15 N5 2.097036 1_555
Li15 N15 2.184329 1_554
Li16 N3 2.023637 1_656
Li16 N6 2.097036 1_655
Li16 N11 2.184330 1_555
Li17 N1 2.023637 1_556
Li17 N6 2.097036 1_555
Li17 N10 2.184330 1_546
Li18 N0 2.023637 1_665
Li18 N7 2.097036 1_655
Li18 N10 2.184330 1_555
Li19 N2 2.023637 1_555
Li19 N7 2.097036 1_555
Li19 N11 2.184330 1_555
Li20 N3 2.023637 1_565
Li20 N8 2.097034 1_555
Li20 N13 2.184330 1_565
Li21 N0 2.023637 1_565
Li21 N8 2.097044 1_555
Li21 N12 2.184330 1_555
Li22 N2 2.023637 1_655
Li22 N9 2.097039 1_555
Li22 N12 2.184330 1_655
Li23 N1 2.023637 1_655
Li23 N9 2.097040 1_555
Li23 N13 2.184330 1_655
Au0 N4 2.126961 1_555
Au0 N6 2.126961 1_555
Au0 N9 2.126965 1_546
Au0 Li5 2.640189 1_546
Au0 Li10 2.640189 1_555
Au0 Li0 2.640189 1_546
Au0 Li9 2.689480 1_455
Au0 Li3 2.689480 1_545
Au0 Li6 2.689480 1_555
Au1 N8 2.126957 1_555
Au1 N7 2.126961 1_655
Au1 N4 2.126961 1_565
Au1 Li6 2.640189 1_565
Au1 Li8 2.640189 1_565
Au1 Li1 2.640189 1_555
Au1 Li11 2.689480 1_655
Au1 Li2 2.689480 1_555
Au1 Li5 2.689480 1_556
Au2 N8 2.126960 1_555
Au2 N6 2.126961 1_655
Au2 N5 2.126961 1_555
Au2 Li4 2.640189 1_555
Au2 Li9 2.640189 1_555
Au2 Li2 2.640189 1_555
Au2 Li1 2.689480 1_555
Au2 Li10 2.689480 1_655
Au2 Li7 2.689480 1_555
Au3 N9 2.126952 1_555
Au3 N5 2.126961 1_555
Au3 N7 2.126961 1_554
Au3 Li7 2.640189 1_555
Au3 Li11 2.640189 1_554
Au3 Li3 2.640189 1_554
Au3 Li8 2.689480 1_464
Au3 Li0 2.689480 1_555
Au3 Li4 2.689480 1_555
Au4 N10 2.126961 1_545
Au4 N12 2.126961 1_645
Au4 N15 2.126965 1_554
Au4 Li17 2.640189 1_554
Au4 Li22 2.640189 1_545
Au4 Li12 2.640189 1_554
Au4 Li21 2.689480 1_645
Au4 Li15 2.689480 1_555
Au4 Li18 2.689480 1_545
Au5 N14 2.126957 1_555
Au5 N13 2.126961 1_555
Au5 N10 2.126961 1_545
Au5 Li18 2.640189 1_545
Au5 Li20 2.640189 1_545
Au5 Li13 2.640189 1_555
Au5 Li23 2.689480 1_455
Au5 Li14 2.689480 1_555
Au5 Li17 2.689480 1_554
Au6 N14 2.126960 1_555
Au6 N12 2.126961 1_555
Au6 N11 2.126961 1_555
Au6 Li16 2.640189 1_555
Au6 Li21 2.640189 1_555
Au6 Li14 2.640189 1_555
Au6 Li13 2.689480 1_555
Au6 Li22 2.689480 1_455
Au6 Li19 2.689480 1_555
Au7 N15 2.126952 1_554
Au7 N11 2.126961 1_554
Au7 N13 2.126961 1_655
Au7 Li19 2.640189 1_554
Au7 Li23 2.640189 1_555
Au7 Li15 2.640189 1_555
Au7 Li20 2.689480 1_645
Au7 Li12 2.689480 1_554
Au7 Li16 2.689480 1_554
