# generated using pymatgen
data_Tm4Zn5Ge6
_symmetry_space_group_name_H-M   'P 1'
_cell_length_a   9.39054174
_cell_length_b   9.39054174
_cell_length_c   15.09661528
_cell_angle_alpha   90.00000000
_cell_angle_beta   90.00000000
_cell_angle_gamma   154.35033566
_symmetry_Int_Tables_number   1
_chemical_formula_structural   Tm4Zn5Ge6
_chemical_formula_sum   'Tm8 Zn10 Ge12'
_cell_volume   576.25626827
_cell_formula_units_Z   2
loop_
 _symmetry_equiv_pos_site_id
 _symmetry_equiv_pos_as_xyz
  1  'x, y, z'
loop_
 _atom_site_type_symbol
 _atom_site_label
 _atom_site_symmetry_multiplicity
 _atom_site_fract_x
 _atom_site_fract_y
 _atom_site_fract_z
 _atom_site_occupancy
  Tm  Tm0  1  0.03221889  0.96778111  0.73699738  1
  Tm  Tm1  1  0.96778111  0.03221889  0.23699738  1
  Tm  Tm2  1  0.83188614  0.16811386  0.69633630  1
  Tm  Tm3  1  0.16811386  0.83188614  0.19633630  1
  Tm  Tm4  1  0.17516127  0.82483873  0.55520269  1
  Tm  Tm5  1  0.82483873  0.17516127  0.05520269  1
  Tm  Tm6  1  0.98300380  0.01699620  0.49969654  1
  Tm  Tm7  1  0.01699620  0.98300380  -0.00030346  1
  Zn  Zn0  1  0.56511810  0.43488190  0.31496989  1
  Zn  Zn1  1  0.43488190  0.56511810  0.81496989  1
  Zn  Zn2  1  0.84851333  0.15148667  0.37317503  1
  Zn  Zn3  1  0.15148667  0.84851333  0.87317503  1
  Zn  Zn4  1  0.34983642  0.65016358  0.51870324  1
  Zn  Zn5  1  0.65016358  0.34983642  0.01870324  1
  Zn  Zn6  1  0.69931351  0.30068649  0.37520991  1
  Zn  Zn7  1  0.30068649  0.69931351  0.87520991  1
  Zn  Zn8  1  0.65470944  0.34529056  0.72717213  1
  Zn  Zn9  1  0.34529056  0.65470944  0.22717213  1
  Ge  Ge0  1  0.22789954  0.77210046  0.73444134  1
  Ge  Ge1  1  0.56884077  0.43115923  0.59376495  1
  Ge  Ge2  1  0.22340018  0.77659982  0.01392411  1
  Ge  Ge3  1  0.77659982  0.22340018  0.51392411  1
  Ge  Ge4  1  0.56030760  0.43969240  0.14574960  1
  Ge  Ge5  1  0.43969240  0.56030760  0.64574960  1
  Ge  Ge6  1  0.56670688  0.43329312  0.87089572  1
  Ge  Ge7  1  0.43329312  0.56670688  0.37089572  1
  Ge  Ge8  1  0.88690505  0.11309495  0.88242018  1
  Ge  Ge9  1  0.11309495  0.88690505  0.38242018  1
  Ge  Ge10  1  0.43115923  0.56884077  0.09376495  1
  Ge  Ge11  1  0.77210046  0.22789954  0.23444134  1
loop_
_geom_bond_atom_site_label_1
_geom_bond_atom_site_label_2
_geom_bond_distance
_geom_bond_site_symmetry_2
Tm0 Zn1 2.984581 1_565
Tm0 Zn1 2.984581 1_455
Tm0 Zn3 2.999448 1_555
Tm0 Zn8 3.065683 1_455
Tm0 Zn8 3.065683 1_565
Tm1 Zn0 2.984581 1_655
Tm1 Zn0 2.984581 1_545
Tm1 Zn2 2.999448 1_555
Tm1 Zn9 3.065683 1_545
Tm1 Zn9 3.065683 1_655
Tm6 Zn2 3.116726 1_555
Tm6 Zn4 3.220888 1_545
Tm6 Zn4 3.220888 1_655
Tm7 Zn3 3.116726 1_554
Tm7 Zn5 3.220888 1_455
Tm7 Zn5 3.220888 1_565
Ge0 Zn8 2.480582 1_565
Ge0 Zn8 2.480582 1_455
Ge0 Zn7 2.508553 1_555
Ge0 Zn3 2.518855 1_555
Ge0 Tm4 2.873081 1_555
Ge0 Tm2 2.881314 1_565
Ge0 Tm2 2.881314 1_455
Ge1 Ge5 2.491846 1_555
Ge1 Zn8 2.555164 1_555
Ge1 Tm4 2.911110 1_655
Ge1 Tm4 2.911110 1_545
Ge1 Tm6 2.971939 1_565
Ge1 Tm6 2.971939 1_455
Ge1 Tm0 3.077377 1_655
Ge1 Tm0 3.077377 1_545
Ge2 Zn5 2.479664 1_565
Ge2 Zn5 2.479664 1_455
Ge2 Zn3 2.499840 1_554
Ge2 Zn7 2.527532 1_554
Ge2 Tm5 2.860744 1_565
Ge2 Tm5 2.860744 1_455
Ge2 Tm3 2.934020 1_555
Ge3 Zn4 2.479664 1_655
Ge3 Zn4 2.479664 1_545
Ge3 Zn2 2.499840 1_555
Ge3 Zn6 2.527532 1_555
Ge3 Tm4 2.860744 1_655
Ge3 Tm4 2.860744 1_545
Ge3 Tm2 2.934020 1_555
Ge4 Zn5 2.527104 1_555
Ge4 Zn0 2.556172 1_555
Ge4 Tm3 2.970785 1_545
Ge4 Tm3 2.970785 1_655
Ge4 Tm1 3.018844 1_565
Ge4 Tm1 3.018844 1_455
Ge4 Tm7 3.136165 1_655
Ge4 Tm7 3.136165 1_545
Ge5 Zn4 2.527104 1_555
Ge5 Zn1 2.556172 1_555
Ge5 Tm2 2.970785 1_455
Ge5 Tm2 2.970785 1_565
Ge5 Tm0 3.018844 1_545
Ge5 Tm0 3.018844 1_655
Ge5 Tm6 3.136165 1_455
Ge5 Tm6 3.136165 1_565
Ge6 Zn1 2.557435 1_555
Ge6 Zn3 2.599306 1_655
Ge6 Zn3 2.599306 1_545
Ge6 Zn8 2.702752 1_555
Ge6 Zn5 2.704595 1_556
Ge6 Tm0 2.971502 1_655
Ge6 Tm0 2.971502 1_545
Ge6 Tm7 2.992400 1_546
Ge6 Tm7 2.992400 1_656
Ge7 Zn0 2.557435 1_555
Ge7 Zn2 2.599306 1_565
Ge7 Zn2 2.599306 1_455
Ge7 Zn9 2.702752 1_555
Ge7 Zn4 2.704595 1_555
Ge7 Tm1 2.971502 1_565
Ge7 Tm1 2.971502 1_455
Ge7 Tm6 2.992400 1_455
Ge7 Tm6 2.992400 1_565
Ge8 Zn1 2.480649 1_655
Ge8 Zn1 2.480649 1_545
Ge8 Zn7 2.617167 1_545
Ge8 Zn7 2.617167 1_655
Ge8 Tm5 2.845304 1_556
Ge8 Tm7 2.968155 1_646
Ge8 Tm2 2.984450 1_555
Ge9 Zn0 2.480649 1_565
Ge9 Zn0 2.480649 1_455
Ge9 Zn6 2.617167 1_455
Ge9 Zn6 2.617167 1_565
Ge9 Tm4 2.845304 1_555
Ge9 Tm6 2.968155 1_465
Ge9 Tm3 2.984450 1_555
Ge10 Ge4 2.491846 1_555
Ge10 Zn9 2.555164 1_555
Ge10 Tm5 2.911110 1_565
Ge10 Tm5 2.911110 1_455
Ge10 Tm7 2.971939 1_655
Ge10 Tm7 2.971939 1_545
Ge10 Tm1 3.077377 1_565
Ge10 Tm1 3.077377 1_455
Ge11 Zn9 2.480582 1_545
Ge11 Zn9 2.480582 1_655
Ge11 Zn6 2.508553 1_555
Ge11 Zn2 2.518855 1_555
Ge11 Tm5 2.873081 1_555
Ge11 Tm3 2.881314 1_655
Ge11 Tm3 2.881314 1_545
