# generated using pymatgen
data_Pr3InFeS7
_symmetry_space_group_name_H-M   'P 1'
_cell_length_a   10.06903243
_cell_length_b   10.06903243
_cell_length_c   6.42295200
_cell_angle_alpha   90.00000000
_cell_angle_beta   90.00000000
_cell_angle_gamma   120.00000283
_symmetry_Int_Tables_number   1
_chemical_formula_structural   Pr3InFeS7
_chemical_formula_sum   'Pr6 In2 Fe2 S14'
_cell_volume   563.95022599
_cell_formula_units_Z   2
loop_
 _symmetry_equiv_pos_site_id
 _symmetry_equiv_pos_as_xyz
  1  'x, y, z'
loop_
 _atom_site_type_symbol
 _atom_site_label
 _atom_site_symmetry_multiplicity
 _atom_site_fract_x
 _atom_site_fract_y
 _atom_site_fract_z
 _atom_site_occupancy
  Pr  Pr0  1  0.84565700  0.22013500  0.31887200  1
  Pr  Pr1  1  0.77986500  0.62552100  0.31887200  1
  Pr  Pr2  1  0.37447900  0.15434300  0.31887200  1
  Pr  Pr3  1  0.15434300  0.77986500  0.81887200  1
  Pr  Pr4  1  0.22013500  0.37447900  0.81887200  1
  Pr  Pr5  1  0.62552100  0.84565700  0.81887200  1
  In  In0  1  0.33333300  0.66666700  0.39033000  1
  In  In1  1  0.66666700  0.33333300  0.89033000  1
  Fe  Fe0  1  0.00000000  0.00000000  0.47734900  1
  Fe  Fe1  1  0.00000000  0.00000000  0.97734900  1
  S  S0  1  0.12825700  0.22410300  0.21919800  1
  S  S1  1  0.77589700  0.90415400  0.21919800  1
  S  S2  1  0.09584600  0.87174300  0.21919800  1
  S  S3  1  0.87174300  0.77589700  0.71919800  1
  S  S4  1  0.22410300  0.09584600  0.71919800  1
  S  S5  1  0.90415400  0.12825700  0.71919800  1
  S  S6  1  0.56593200  0.08057500  0.05867200  1
  S  S7  1  0.91942500  0.48535700  0.05867200  1
  S  S8  1  0.51464300  0.43406800  0.05867200  1
  S  S9  1  0.43406800  0.91942500  0.55867200  1
  S  S10  1  0.08057500  0.51464300  0.55867200  1
  S  S11  1  0.48535700  0.56593200  0.55867200  1
  S  S12  1  0.33333300  0.66666700  0.01175200  1
  S  S13  1  0.66666700  0.33333300  0.51175200  1
loop_
_geom_bond_atom_site_label_1
_geom_bond_atom_site_label_2
_geom_bond_distance
_geom_bond_site_symmetry_2
Pr0 S13 2.852408 1_555
Pr0 S5 2.891218 1_555
Pr0 S0 2.897358 1_655
Pr0 S7 2.914262 1_555
Pr0 S6 2.956831 1_555
Pr0 S1 2.964987 1_545
Pr0 S10 3.121967 1_655
Pr1 S13 2.852408 1_555
Pr1 S3 2.891221 1_555
Pr1 S1 2.897368 1_555
Pr1 S8 2.914260 1_555
Pr1 S7 2.956824 1_555
Pr1 S2 2.964990 1_655
Pr1 S11 3.121970 1_555
Pr2 S13 2.852408 1_555
Pr2 S4 2.891222 1_555
Pr2 S2 2.897363 1_545
Pr2 S6 2.914254 1_555
Pr2 S8 2.956831 1_555
Pr2 S0 2.964997 1_555
Pr2 S9 3.121961 1_545
Pr3 S12 2.852408 1_556
Pr3 S2 2.891218 1_556
Pr3 S3 2.897358 1_455
Pr3 S10 2.914262 1_555
Pr3 S9 2.956831 1_555
Pr3 S4 2.964987 1_565
Pr3 S7 3.121967 1_456
Pr4 S12 2.852408 1_556
Pr4 S0 2.891221 1_556
Pr4 S4 2.897368 1_555
Pr4 S11 2.914260 1_555
Pr4 S10 2.956824 1_555
Pr4 S5 2.964990 1_455
Pr4 S8 3.121970 1_556
Pr5 S12 2.852408 1_556
Pr5 S1 2.891222 1_556
Pr5 S5 2.897363 1_565
Pr5 S9 2.914254 1_555
Pr5 S11 2.956831 1_555
Pr5 S3 2.964997 1_555
Pr5 S6 3.121961 1_566
In0 S12 2.431588 1_555
In0 S9 2.468533 1_555
In0 S10 2.468534 1_555
In0 S11 2.468542 1_555
In1 S13 2.431588 1_555
In1 S6 2.468533 1_556
In1 S7 2.468534 1_556
In1 S8 2.468542 1_556
Fe0 S3 2.501694 1_445
Fe0 S4 2.501694 1_555
Fe0 S5 2.501694 1_455
Fe0 S0 2.568022 1_555
Fe0 S1 2.568022 1_445
Fe0 S2 2.568022 1_545
Fe1 S0 2.501694 1_556
Fe1 S1 2.501694 1_446
Fe1 S2 2.501694 1_546
Fe1 S3 2.568022 1_445
Fe1 S4 2.568022 1_555
Fe1 S5 2.568022 1_455
