# generated using pymatgen
data_Ca5MnN4
_symmetry_space_group_name_H-M   'P 1'
_cell_length_a   7.99645700
_cell_length_b   7.33757500
_cell_length_c   5.83294500
_cell_angle_alpha   90.00000000
_cell_angle_beta   90.00000000
_cell_angle_gamma   90.00000000
_symmetry_Int_Tables_number   1
_chemical_formula_structural   Ca5MnN4
_chemical_formula_sum   'Ca10 Mn2 N8'
_cell_volume   342.24573203
_cell_formula_units_Z   2
loop_
 _symmetry_equiv_pos_site_id
 _symmetry_equiv_pos_as_xyz
  1  'x, y, z'
loop_
 _atom_site_type_symbol
 _atom_site_label
 _atom_site_symmetry_multiplicity
 _atom_site_fract_x
 _atom_site_fract_y
 _atom_site_fract_z
 _atom_site_occupancy
  Ca  Ca0  1  0.55568100  0.50999700  0.24142200  1
  Ca  Ca1  1  0.94431900  0.50999700  0.24142200  1
  Ca  Ca2  1  0.55568100  0.99000300  0.24142200  1
  Ca  Ca3  1  0.94431900  0.99000300  0.24142200  1
  Ca  Ca4  1  0.44431900  0.49000300  0.75857800  1
  Ca  Ca5  1  0.05568100  0.49000300  0.75857800  1
  Ca  Ca6  1  0.44431900  0.00999700  0.75857800  1
  Ca  Ca7  1  0.05568100  0.00999700  0.75857800  1
  Ca  Ca8  1  0.75000000  0.75000000  0.67965200  1
  Ca  Ca9  1  0.25000000  0.25000000  0.32034800  1
  Mn  Mn0  1  0.75000000  0.25000000  0.68145400  1
  Mn  Mn1  1  0.25000000  0.75000000  0.31854600  1
  N  N0  1  0.75000000  0.03574700  0.86974400  1
  N  N1  1  0.75000000  0.46425300  0.86974400  1
  N  N2  1  0.25000000  0.96425300  0.13025600  1
  N  N3  1  0.25000000  0.53574700  0.13025600  1
  N  N4  1  0.46454500  0.75000000  0.49280800  1
  N  N5  1  0.03545500  0.75000000  0.49280800  1
  N  N6  1  0.53545500  0.25000000  0.50719200  1
  N  N7  1  0.96454500  0.25000000  0.50719200  1
loop_
_geom_bond_atom_site_label_1
_geom_bond_atom_site_label_2
_geom_bond_distance
_geom_bond_site_symmetry_2
Ca0 N4 2.404674 1_555
Ca0 N6 2.463503 1_555
Ca0 N3 2.535956 1_555
Ca0 N1 2.688360 1_554
Ca1 N5 2.404674 1_655
Ca1 N7 2.463503 1_555
Ca1 N3 2.535956 1_655
Ca1 N1 2.688360 1_554
Ca2 N4 2.404674 1_555
Ca2 N6 2.463503 1_565
Ca2 N2 2.535956 1_555
Ca2 N0 2.688360 1_564
Ca3 N5 2.404674 1_655
Ca3 N7 2.463503 1_565
Ca3 N2 2.535956 1_655
Ca3 N0 2.688360 1_564
Ca4 N6 2.404674 1_555
Ca4 N4 2.463503 1_555
Ca4 N1 2.535956 1_555
Ca4 N3 2.688360 1_556
Ca5 N7 2.404674 1_455
Ca5 N5 2.463503 1_555
Ca5 N1 2.535956 1_455
Ca5 N3 2.688360 1_556
Ca6 N6 2.404674 1_555
Ca6 N4 2.463503 1_545
Ca6 N0 2.535956 1_555
Ca6 N2 2.688360 1_546
Ca7 N7 2.404674 1_455
Ca7 N5 2.463503 1_545
Ca7 N0 2.535956 1_455
Ca7 N2 2.688360 1_546
Ca8 N0 2.371822 1_565
Ca8 N1 2.371822 1_555
Ca8 N5 2.529460 1_655
Ca8 N4 2.529460 1_555
Ca9 N3 2.371822 1_555
Ca9 N2 2.371822 1_545
Ca9 N7 2.529460 1_455
Ca9 N6 2.529460 1_555
Mn0 N0 1.917738 1_555
Mn0 N1 1.917738 1_555
Mn0 N6 1.994110 1_555
Mn0 N7 1.994110 1_555
Mn1 N2 1.917738 1_555
Mn1 N3 1.917738 1_555
Mn1 N5 1.994110 1_555
Mn1 N4 1.994110 1_555
