# generated using pymatgen
data_KPH3O4
_symmetry_space_group_name_H-M   'P 1'
_cell_length_a   9.03976500
_cell_length_b   6.81473700
_cell_length_c   14.47789166
_cell_angle_alpha   80.46703719
_cell_angle_beta   90.00000000
_cell_angle_gamma   90.00000000
_symmetry_Int_Tables_number   1
_chemical_formula_structural   KPH3O4
_chemical_formula_sum   'K8 P8 H24 O32'
_cell_volume   879.57397513
_cell_formula_units_Z   8
loop_
 _symmetry_equiv_pos_site_id
 _symmetry_equiv_pos_as_xyz
  1  'x, y, z'
loop_
 _atom_site_type_symbol
 _atom_site_label
 _atom_site_symmetry_multiplicity
 _atom_site_fract_x
 _atom_site_fract_y
 _atom_site_fract_z
 _atom_site_occupancy
  K  K0  1  0.61980200  0.58681900  0.32186800  1
  K  K1  1  0.11980200  0.91318100  0.67813200  1
  K  K2  1  0.38019800  0.41318100  0.67813200  1
  K  K3  1  0.88019800  0.08681900  0.32186800  1
  K  K4  1  0.33776100  0.88274400  0.12745100  1
  K  K5  1  0.83776100  0.61725600  0.87254900  1
  K  K6  1  0.66223900  0.11725600  0.87254900  1
  K  K7  1  0.16223900  0.38274400  0.12745100  1
  P  P0  1  0.55251300  0.85150100  0.51290900  1
  P  P1  1  0.05251300  0.64849900  0.48709100  1
  P  P2  1  0.44748700  0.14849900  0.48709100  1
  P  P3  1  0.94748700  0.35150100  0.51290900  1
  P  P4  1  0.56665700  0.43093500  0.06077100  1
  P  P5  1  0.06665700  0.06906500  0.93922900  1
  P  P6  1  0.43334300  0.56906500  0.93922900  1
  P  P7  1  0.93334300  0.93093500  0.06077100  1
  H  H0  1  0.34068500  0.69162600  0.48998100  1
  H  H1  1  0.84068500  0.80837400  0.51001900  1
  H  H2  1  0.65931500  0.30837400  0.51001900  1
  H  H3  1  0.15931500  0.19162600  0.48998100  1
  H  H4  1  0.67683600  0.71200000  0.08092500  1
  H  H5  1  0.17683600  0.78800000  0.91907500  1
  H  H6  1  0.32316400  0.28800000  0.91907500  1
  H  H7  1  0.82316400  0.21200000  0.08092500  1
  H  H8  1  0.56576100  0.10319200  0.20153000  1
  H  H9  1  0.06576100  0.39680800  0.79847000  1
  H  H10  1  0.43423900  0.89680800  0.79847000  1
  H  H11  1  0.93423900  0.60319200  0.20153000  1
  H  H12  1  0.54716700  0.04735000  0.30819800  1
  H  H13  1  0.04716700  0.45265000  0.69180200  1
  H  H14  1  0.45283300  0.95265000  0.69180200  1
  H  H15  1  0.95283300  0.54735000  0.30819800  1
  H  H16  1  0.33239400  0.43396300  0.31525800  1
  H  H17  1  0.83239400  0.06603700  0.68474200  1
  H  H18  1  0.66760600  0.56603700  0.68474200  1
  H  H19  1  0.16760600  0.93396300  0.31525800  1
  H  H20  1  0.21632100  0.60422500  0.31465500  1
  H  H21  1  0.71632100  0.89577500  0.68534500  1
  H  H22  1  0.78367900  0.39577500  0.68534500  1
  H  H23  1  0.28367900  0.10422500  0.31465500  1
  O  O0  1  0.70010500  0.86186800  0.46077400  1
  O  O1  1  0.20010500  0.63813200  0.53922600  1
  O  O2  1  0.29989500  0.13813200  0.53922600  1
  O  O3  1  0.79989500  0.36186800  0.46077400  1
  O  O4  1  0.55908100  0.77891700  0.61886800  1
  O  O5  1  0.05908100  0.72108300  0.38113200  1
  O  O6  1  0.44091900  0.22108300  0.38113200  1
  O  O7  1  0.94091900  0.27891700  0.61886800  1
  O  O8  1  0.44561500  0.72129100  0.46036700  1
  O  O9  1  0.94561500  0.77870900  0.53963300  1
  O  O10  1  0.55438500  0.27870900  0.53963300  1
  O  O11  1  0.05438500  0.22129100  0.46036700  1
  O  O12  1  0.47302400  0.27840400  0.12295700  1
  O  O13  1  0.97302400  0.22159600  0.87704300  1
  O  O14  1  0.52697600  0.72159600  0.87704300  1
  O  O15  1  0.02697600  0.77840400  0.12295700  1
  O  O16  1  0.71107300  0.35682700  0.02314700  1
  O  O17  1  0.21107300  0.14317300  0.97685300  1
  O  O18  1  0.28892700  0.64317300  0.97685300  1
  O  O19  1  0.78892700  0.85682700  0.02314700  1
  O  O20  1  0.59825200  0.61605900  0.11491700  1
  O  O21  1  0.09825200  0.88394100  0.88508300  1
  O  O22  1  0.40174800  0.38394100  0.88508300  1
  O  O23  1  0.90174800  0.11605900  0.11491700  1
  O  O24  1  0.59763900  0.00077100  0.25541000  1
  O  O25  1  0.09763900  0.49922900  0.74459000  1
  O  O26  1  0.40236100  0.99922900  0.74459000  1
  O  O27  1  0.90236100  0.50077100  0.25541000  1
  O  O28  1  0.29051200  0.55199400  0.27497200  1
  O  O29  1  0.79051200  0.94800600  0.72502800  1
  O  O30  1  0.70948800  0.44800600  0.72502800  1
  O  O31  1  0.20948800  0.05199400  0.27497200  1
loop_
_geom_bond_atom_site_label_1
_geom_bond_atom_site_label_2
_geom_bond_distance
_geom_bond_site_symmetry_2
K0 O8 2.819314 1_555
K0 O27 2.825030 1_555
K0 O3 2.832603 1_555
K0 O24 2.832801 1_565
K0 O6 2.975696 1_555
K0 O20 2.976105 1_555
K0 O0 3.055037 1_555
K1 O9 2.819314 1_455
K1 O26 2.825030 1_555
K1 O2 2.832603 1_565
K1 O25 2.832801 1_555
K1 O7 2.975696 1_465
K1 O21 2.976105 1_555
K1 O1 3.055037 1_555
K2 O10 2.819314 1_555
K2 O25 2.825030 1_555
K2 O1 2.832603 1_555
K2 O26 2.832801 1_545
K2 O4 2.975696 1_555
K2 O22 2.976105 1_555
K2 O2 3.055037 1_555
K3 O11 2.819314 1_655
K3 O24 2.825030 1_555
K3 O0 2.832603 1_545
K3 O27 2.832801 1_555
K3 O5 2.975696 1_645
K3 O23 2.976105 1_555
K3 O3 3.055037 1_555
K4 O17 2.816643 1_564
K4 O31 2.837686 1_565
K4 O28 2.868779 1_555
K4 O15 2.901380 1_555
K4 O12 2.951503 1_565
K4 O18 2.965343 1_554
K4 O20 2.998340 1_555
K5 O16 2.816643 1_556
K5 O30 2.837686 1_555
K5 O29 2.868779 1_555
K5 O14 2.901380 1_555
K5 O13 2.951503 1_555
K5 O19 2.965343 1_556
K5 O21 2.998340 1_655
K6 O19 2.816643 1_546
K6 O29 2.837686 1_545
K6 O30 2.868779 1_555
K6 O13 2.901380 1_555
K6 O14 2.951503 1_545
K6 O16 2.965343 1_556
K6 O22 2.998340 1_555
K7 O18 2.816643 1_554
K7 O28 2.837686 1_555
K7 O31 2.868779 1_555
K7 O12 2.901380 1_555
K7 O15 2.951503 1_555
K7 O17 2.965343 1_554
K7 O23 2.998340 1_455
H0 O8 1.046765 1_555
H0 O1 1.473119 1_555
H1 O9 1.046765 1_555
H1 O0 1.473119 1_555
H2 O10 1.046765 1_555
H2 O3 1.473119 1_555
H3 O11 1.046765 1_555
H3 O2 1.473119 1_555
H4 O20 1.033310 1_555
H4 O19 1.557913 1_555
H5 O21 1.033310 1_555
H5 O18 1.557913 1_555
H6 O22 1.033310 1_555
H6 O17 1.557913 1_555
H7 O23 1.033310 1_555
H7 O16 1.557913 1_555
H8 O24 0.999185 1_555
H8 K4 2.861616 1_545
H9 O25 0.999185 1_555
H9 K5 2.861616 1_455
H10 O26 0.999185 1_555
H10 K6 2.861616 1_565
H11 O27 0.999185 1_555
H11 K7 2.861616 1_655
H12 O24 0.986596 1_555
H13 O25 0.986596 1_555
H14 O26 0.986596 1_555
H15 O27 0.986596 1_555
H16 O28 0.987478 1_555
H16 K0 2.806669 1_555
H17 O29 0.987478 1_545
H17 K1 2.806669 1_645
H18 O30 0.987478 1_555
H18 K2 2.806669 1_555
H19 O31 0.987478 1_565
H19 K3 2.806669 1_465
H20 O28 0.987070 1_555
H21 O29 0.987070 1_555
H22 O30 0.987070 1_555
H23 O31 0.987070 1_555
O0 P0 1.528771 1_555
O1 P1 1.528771 1_555
O2 P2 1.528771 1_555
O3 P3 1.528771 1_555
O4 P0 1.533037 1_555
O5 P1 1.533037 1_555
O6 P2 1.533037 1_555
O7 P3 1.533037 1_555
O8 P0 1.588529 1_555
O9 P1 1.588529 1_655
O10 P2 1.588529 1_555
O11 P3 1.588529 1_455
O12 P4 1.515751 1_555
O13 P5 1.515751 1_655
O14 P6 1.515751 1_555
O15 P7 1.515751 1_455
O16 P4 1.532052 1_555
O17 P5 1.532052 1_555
O18 P6 1.532052 1_555
O19 P7 1.532052 1_555
O20 P4 1.617171 1_555
O21 P5 1.617171 1_565
O22 P6 1.617171 1_555
O23 P7 1.617171 1_545
