# generated using pymatgen
data_ZnP14Pb
_symmetry_space_group_name_H-M   'P 1'
_cell_length_a   9.71192500
_cell_length_b   11.98427000
_cell_length_c   14.90336900
_cell_angle_alpha   90.00000000
_cell_angle_beta   90.00000000
_cell_angle_gamma   90.00000000
_symmetry_Int_Tables_number   1
_chemical_formula_structural   ZnP14Pb
_chemical_formula_sum   'Zn4 P56 Pb4'
_cell_volume   1734.60805718
_cell_formula_units_Z   4
loop_
 _symmetry_equiv_pos_site_id
 _symmetry_equiv_pos_as_xyz
  1  'x, y, z'
loop_
 _atom_site_type_symbol
 _atom_site_label
 _atom_site_symmetry_multiplicity
 _atom_site_fract_x
 _atom_site_fract_y
 _atom_site_fract_z
 _atom_site_occupancy
  Zn  Zn0  1  0.25000000  0.83888000  0.88518500  1
  Zn  Zn1  1  0.25000000  0.66112000  0.38518500  1
  Zn  Zn2  1  0.75000000  0.16112000  0.11481500  1
  Zn  Zn3  1  0.75000000  0.33888000  0.61481500  1
  P  P0  1  0.25000000  0.68163600  0.54309800  1
  P  P1  1  0.25000000  0.81836400  0.04309800  1
  P  P2  1  0.75000000  0.31836400  0.45690200  1
  P  P3  1  0.75000000  0.18163600  0.95690200  1
  P  P4  1  0.25000000  0.26260000  0.96514000  1
  P  P5  1  0.25000000  0.23740000  0.46514000  1
  P  P6  1  0.75000000  0.73740000  0.03486000  1
  P  P7  1  0.75000000  0.76260000  0.53486000  1
  P  P8  1  0.25000000  0.12645800  0.58773000  1
  P  P9  1  0.25000000  0.37354200  0.08773000  1
  P  P10  1  0.75000000  0.87354200  0.41227000  1
  P  P11  1  0.75000000  0.62645800  0.91227000  1
  P  P12  1  0.25000000  0.64854600  0.84998800  1
  P  P13  1  0.25000000  0.85145400  0.34998800  1
  P  P14  1  0.75000000  0.35145400  0.15001200  1
  P  P15  1  0.75000000  0.14854600  0.65001200  1
  P  P16  1  0.06678000  0.15594500  0.98283000  1
  P  P17  1  0.43322000  0.34405500  0.48283000  1
  P  P18  1  0.56678000  0.84405500  0.01717000  1
  P  P19  1  0.93322000  0.65594500  0.51717000  1
  P  P20  1  0.93322000  0.84405500  0.01717000  1
  P  P21  1  0.56678000  0.65594500  0.51717000  1
  P  P22  1  0.43322000  0.15594500  0.98283000  1
  P  P23  1  0.06678000  0.34405500  0.48283000  1
  P  P24  1  0.07204500  0.79417500  0.56035400  1
  P  P25  1  0.42795500  0.70582500  0.06035400  1
  P  P26  1  0.57204500  0.20582500  0.43964600  1
  P  P27  1  0.92795500  0.29417500  0.93964600  1
  P  P28  1  0.92795500  0.20582500  0.43964600  1
  P  P29  1  0.57204500  0.29417500  0.93964600  1
  P  P30  1  0.42795500  0.79417500  0.56035400  1
  P  P31  1  0.07204500  0.70582500  0.06035400  1
  P  P32  1  0.07475400  0.59194400  0.93193100  1
  P  P33  1  0.42524600  0.90805600  0.43193100  1
  P  P34  1  0.57475400  0.40805600  0.06806900  1
  P  P35  1  0.92524600  0.09194400  0.56806900  1
  P  P36  1  0.92524600  0.40805600  0.06806900  1
  P  P37  1  0.57475400  0.09194400  0.56806900  1
  P  P38  1  0.42524600  0.59194400  0.93193100  1
  P  P39  1  0.07475400  0.90805600  0.43193100  1
  P  P40  1  0.06570800  0.18031500  0.66364500  1
  P  P41  1  0.43429200  0.31968500  0.16364500  1
  P  P42  1  0.56570800  0.81968500  0.33635500  1
  P  P43  1  0.93429200  0.68031500  0.83635500  1
  P  P44  1  0.93429200  0.81968500  0.33635500  1
  P  P45  1  0.56570800  0.68031500  0.83635500  1
  P  P46  1  0.43429200  0.18031500  0.66364500  1
  P  P47  1  0.06570800  0.31968500  0.16364500  1
  P  P48  1  0.01979700  0.35607100  0.62818200  1
  P  P49  1  0.48020300  0.14392900  0.12818200  1
  P  P50  1  0.51979700  0.64392900  0.37181800  1
  P  P51  1  0.98020300  0.85607100  0.87181800  1
  P  P52  1  0.98020300  0.64392900  0.37181800  1
  P  P53  1  0.51979700  0.85607100  0.87181800  1
  P  P54  1  0.48020300  0.35607100  0.62818200  1
  P  P55  1  0.01979700  0.14392900  0.12818200  1
  Pb  Pb0  1  0.25000000  0.50466300  0.68207500  1
  Pb  Pb1  1  0.25000000  0.99533700  0.18207500  1
  Pb  Pb2  1  0.75000000  0.49533700  0.31792500  1
  Pb  Pb3  1  0.75000000  0.00466300  0.81792500  1
loop_
_geom_bond_atom_site_label_1
_geom_bond_atom_site_label_2
_geom_bond_distance
_geom_bond_site_symmetry_2
P0 P30 2.207282 1_555
P0 P24 2.207282 1_555
P0 Zn1 2.366244 1_555
P0 Pb0 2.964483 1_555
P1 P25 2.207282 1_555
P1 P31 2.207282 1_555
P1 Zn0 2.366244 1_554
P1 Pb1 2.964483 1_555
P2 P28 2.207282 1_555
P2 P26 2.207282 1_555
P2 Zn3 2.366244 1_555
P2 Pb2 2.964483 1_555
P3 Zn2 2.366244 1_556
P3 Pb3 2.964483 1_555
P4 P9 2.259573 1_556
P5 P8 2.259573 1_555
P10 P42 2.213622 1_555
P10 P44 2.213622 1_555
P10 P7 2.259573 1_555
P11 P45 2.213622 1_555
P11 P43 2.213622 1_555
P11 P6 2.259573 1_556
P12 P38 2.201875 1_555
P12 P32 2.201875 1_555
P12 Zn0 2.340552 1_555
P12 Pb0 3.039026 1_555
P13 P33 2.201875 1_555
P13 P39 2.201875 1_555
P13 Zn1 2.340552 1_555
P13 Pb1 3.039026 1_555
P14 P34 2.201875 1_555
P14 P36 2.201875 1_555
P14 Zn2 2.340552 1_555
P14 Pb2 3.039026 1_555
P15 P35 2.201875 1_555
P15 P37 2.201875 1_555
P15 Zn3 2.340552 1_555
P15 Pb3 3.039026 1_555
P16 P4 2.206714 1_555
P16 P55 2.218449 1_556
P16 P27 2.230758 1_455
P17 P5 2.206714 1_555
P17 P54 2.218449 1_555
P17 P26 2.230758 1_555
P18 P6 2.206714 1_555
P18 P53 2.218449 1_554
P18 P25 2.230758 1_555
P19 P7 2.206714 1_555
P19 P52 2.218449 1_555
P19 P24 2.230758 1_655
P20 P6 2.206714 1_555
P20 P51 2.218449 1_554
P20 P31 2.230758 1_655
P21 P7 2.206714 1_555
P21 P50 2.218449 1_555
P21 P30 2.230758 1_555
P22 P4 2.206714 1_555
P22 P49 2.218449 1_556
P22 P29 2.230758 1_555
P23 P5 2.206714 1_555
P23 P48 2.218449 1_555
P23 P28 2.230758 1_455
P24 P39 2.350844 1_555
P25 P38 2.350844 1_554
P26 P37 2.350844 1_555
P27 P3 2.207282 1_555
P27 P36 2.350844 1_556
P28 P35 2.350844 1_555
P29 P3 2.207282 1_555
P29 P34 2.350844 1_556
P30 P33 2.350844 1_555
P31 P32 2.350844 1_554
P32 P43 2.238630 1_455
P33 P42 2.238630 1_555
P34 P41 2.238630 1_555
P35 P40 2.238630 1_655
P36 P47 2.238630 1_655
P37 P46 2.238630 1_555
P38 P45 2.238630 1_555
P39 P44 2.238630 1_455
P40 P8 2.213622 1_555
P40 P48 2.216907 1_555
P41 P9 2.213622 1_555
P41 P49 2.216907 1_555
P42 P50 2.216907 1_555
P43 P51 2.216907 1_555
P44 P52 2.216907 1_555
P45 P53 2.216907 1_555
P46 P8 2.213622 1_555
P46 P54 2.216907 1_555
P47 P9 2.213622 1_555
P47 P55 2.216907 1_555
P48 Zn3 2.635874 1_455
P48 Pb0 2.968949 1_555
P49 Zn2 2.635874 1_555
P49 Pb1 2.968949 1_545
P50 Zn1 2.635874 1_555
P50 Pb2 2.968949 1_555
P51 Zn0 2.635874 1_655
P51 Pb3 2.968949 1_565
P52 Zn1 2.635874 1_655
P52 Pb2 2.968949 1_555
P53 Zn0 2.635874 1_555
P53 Pb3 2.968949 1_565
P54 Zn3 2.635874 1_555
P54 Pb0 2.968949 1_555
P55 Zn2 2.635874 1_455
P55 Pb1 2.968949 1_545
