# generated using pymatgen
data_CaSi(HO2)2
_symmetry_space_group_name_H-M   'P 1'
_cell_length_a   6.05410600
_cell_length_b   6.39945599
_cell_length_c   10.41650042
_cell_angle_alpha   82.09912771
_cell_angle_beta   73.10601610
_cell_angle_gamma   61.76966906
_symmetry_Int_Tables_number   1
_chemical_formula_structural   CaSi(HO2)2
_chemical_formula_sum   'Ca4 Si4 H8 O16'
_cell_volume   340.21872827
_cell_formula_units_Z   4
loop_
 _symmetry_equiv_pos_site_id
 _symmetry_equiv_pos_as_xyz
  1  'x, y, z'
loop_
 _atom_site_type_symbol
 _atom_site_label
 _atom_site_symmetry_multiplicity
 _atom_site_fract_x
 _atom_site_fract_y
 _atom_site_fract_z
 _atom_site_occupancy
  Ca  Ca0  1  0.66827600  0.82461800  0.34556400  1
  Ca  Ca1  1  0.83845800  0.17538200  0.65443600  1
  Ca  Ca2  1  0.76384000  0.32461800  0.15443600  1
  Ca  Ca3  1  0.24289400  0.67538200  0.84556400  1
  Si  Si0  1  0.27748000  0.82093200  0.13208500  1
  Si  Si1  1  0.23049700  0.17906800  0.86791500  1
  Si  Si2  1  0.15956500  0.32093200  0.36791500  1
  Si  Si3  1  0.84841200  0.67906800  0.63208500  1
  H  H0  1  0.65620700  0.09488800  0.94214600  1
  H  H1  1  0.69324000  0.90511200  0.05785400  1
  H  H2  1  0.34835200  0.59488800  0.55785400  1
  H  H3  1  0.50109500  0.40511200  0.44214600  1
  H  H4  1  0.19539300  0.50758200  0.13445600  1
  H  H5  1  0.83743100  0.49241800  0.86554400  1
  H  H6  1  0.07984900  0.00758200  0.36554400  1
  H  H7  1  0.45297500  0.99241800  0.63445600  1
  O  O0  1  0.25930200  0.00000000  0.00000000  1
  O  O1  1  0.00930200  0.50000000  0.50000000  1
  O  O2  1  0.53763500  0.75569700  0.17593300  1
  O  O3  1  0.46926500  0.24430300  0.82406700  1
  O  O4  1  0.46356800  0.25569700  0.32406700  1
  O  O5  1  0.04333200  0.74430300  0.67593300  1
  O  O6  1  0.00822900  0.93517800  0.24876000  1
  O  O7  1  0.19216600  0.06482200  0.75124000  1
  O  O8  1  0.00698900  0.43517800  0.25124000  1
  O  O9  1  0.69340700  0.56482200  0.74876000  1
  O  O10  1  0.31497200  0.57196300  0.07104500  1
  O  O11  1  0.95798000  0.42803700  0.92895500  1
  O  O12  1  0.13601700  0.07196300  0.42895500  1
  O  O13  1  0.63693400  0.92803700  0.57104500  1
  O  O14  1  0.77686900  0.00000000  0.00000000  1
  O  O15  1  0.52686900  0.50000000  0.50000000  1
loop_
_geom_bond_atom_site_label_1
_geom_bond_atom_site_label_2
_geom_bond_distance
_geom_bond_site_symmetry_2
Ca0 O2 2.301898 1_555
Ca0 O6 2.393421 1_655
Ca0 O4 2.439962 1_565
Ca0 O13 2.457649 1_555
Ca0 O8 2.459446 1_655
Ca0 O12 2.751260 1_565
Ca0 O15 2.756729 1_555
Ca0 O1 2.849573 1_655
Ca1 O3 2.301898 1_555
Ca1 O7 2.393415 1_655
Ca1 O5 2.439962 1_645
Ca1 O12 2.457651 1_655
Ca1 O9 2.459446 1_555
Ca1 O13 2.751265 1_545
Ca1 O15 2.756729 1_555
Ca1 O1 2.849573 1_655
Ca2 O4 2.301898 1_555
Ca2 O8 2.393421 1_655
Ca2 O2 2.439962 1_555
Ca2 O11 2.457651 1_554
Ca2 O6 2.459446 1_645
Ca2 O10 2.751260 1_555
Ca2 O14 2.756729 1_555
Ca2 O0 2.849573 1_655
Ca3 O5 2.301898 1_555
Ca3 O9 2.393421 1_555
Ca3 O3 2.439962 1_555
Ca3 O10 2.457651 1_556
Ca3 O7 2.459445 1_565
Ca3 O11 2.751260 1_455
Ca3 O14 2.756729 1_466
Ca3 O0 2.849573 1_566
H0 O14 1.000572 1_556
H0 O3 1.780438 1_555
H1 O14 1.000576 1_565
H1 O2 1.780435 1_555
H2 O15 1.000576 1_555
H2 O5 1.780435 1_555
H3 O15 1.000572 1_555
H3 O4 1.780438 1_555
H4 O10 1.029352 1_555
H4 O8 1.591886 1_555
H5 O11 1.029352 1_555
H5 O9 1.591886 1_555
H6 O12 1.029352 1_555
H6 O6 1.591886 1_545
H7 O13 1.029347 1_555
H7 O7 1.591890 1_565
O0 Si0 1.659376 1_545
O0 Si1 1.659376 1_554
O1 Si3 1.659376 1_455
O1 Si2 1.659376 1_555
O2 Si0 1.614679 1_555
O3 Si1 1.614679 1_555
O4 Si2 1.614679 1_555
O5 Si3 1.614679 1_455
O6 Si0 1.623002 1_555
O7 Si1 1.623005 1_555
O8 Si2 1.623002 1_555
O9 Si3 1.623002 1_555
O10 Si0 1.687243 1_555
O11 Si1 1.687243 1_655
O12 Si2 1.687243 1_555
O13 Si3 1.687245 1_555
