# generated using pymatgen
data_Mg14CuNi
_symmetry_space_group_name_H-M   'P 1'
_cell_length_a   6.25965090
_cell_length_b   6.25965042
_cell_length_c   9.63245086
_cell_angle_alpha   90.00000000
_cell_angle_beta   90.00000000
_cell_angle_gamma   120.00000255
_symmetry_Int_Tables_number   1
_chemical_formula_structural   Mg14CuNi
_chemical_formula_sum   'Mg14 Cu1 Ni1'
_cell_volume   326.86439490
_cell_formula_units_Z   1
loop_
 _symmetry_equiv_pos_site_id
 _symmetry_equiv_pos_as_xyz
  1  'x, y, z'
loop_
 _atom_site_type_symbol
 _atom_site_label
 _atom_site_symmetry_multiplicity
 _atom_site_fract_x
 _atom_site_fract_y
 _atom_site_fract_z
 _atom_site_occupancy
  Mg  Mg0  1  0.16545429  0.83272664  0.12500000  1
  Mg  Mg1  1  0.16554410  0.83277155  0.62500000  1
  Mg  Mg2  1  0.66727336  0.33454571  0.12500000  1
  Mg  Mg3  1  0.66722845  0.33445590  0.62500000  1
  Mg  Mg4  1  0.66727336  0.83272664  0.12500000  1
  Mg  Mg5  1  0.66722845  0.83277155  0.62500000  1
  Mg  Mg6  1  0.32451180  0.17548820  0.37662528  1
  Mg  Mg7  1  0.32451180  0.17548820  0.87337472  1
  Mg  Mg8  1  0.32451180  0.64902459  0.37662528  1
  Mg  Mg9  1  0.32451180  0.64902459  0.87337472  1
  Mg  Mg10  1  0.85097541  0.17548820  0.37662528  1
  Mg  Mg11  1  0.85097541  0.17548820  0.87337472  1
  Mg  Mg12  1  0.83333300  0.66666700  0.37348644  1
  Mg  Mg13  1  0.83333300  0.66666700  0.87651356  1
  Cu  Cu0  1  0.16666700  0.33333300  0.12500000  1
  Ni  Ni0  1  0.16666700  0.33333300  0.62500000  1
loop_
_geom_bond_atom_site_label_1
_geom_bond_atom_site_label_2
_geom_bond_distance
_geom_bond_site_symmetry_2
Mg0 Mg13 2.995091 1_454
Mg0 Mg12 2.995091 1_455
Mg0 Mg9 3.055022 1_554
Mg0 Mg8 3.055022 1_555
Mg0 Mg6 3.055028 1_565
Mg0 Mg7 3.055028 1_564
Mg0 Mg2 3.118438 1_455
Mg0 Mg4 3.118439 1_455
Mg0 Mg2 3.141212 1_565
Mg0 Mg4 3.141212 1_555
Mg1 Mg12 3.018734 1_455
Mg1 Mg13 3.018734 1_455
Mg1 Mg8 3.030102 1_555
Mg1 Mg9 3.030102 1_555
Mg1 Mg6 3.030109 1_565
Mg1 Mg7 3.030109 1_565
Mg1 Mg3 3.119282 1_455
Mg1 Mg5 3.119282 1_455
Mg1 Ni0 3.129831 1_565
Mg1 Ni0 3.129831 1_555
Mg1 Mg3 3.140369 1_565
Mg1 Mg5 3.140369 1_555
Mg2 Mg7 3.055028 1_554
Mg2 Mg6 3.055028 1_555
Mg2 Mg4 3.118438 1_555
Mg2 Mg4 3.141212 1_545
Mg3 Mg6 3.030109 1_555
Mg3 Mg7 3.030109 1_555
Mg3 Mg5 3.119282 1_555
Mg3 Ni0 3.129831 1_655
Mg3 Ni0 3.129831 1_555
Mg3 Mg5 3.140369 1_545
Mg4 Mg9 3.055028 1_554
Mg4 Mg8 3.055028 1_555
Mg5 Mg8 3.030108 1_555
Mg5 Mg9 3.030108 1_555
Mg5 Ni0 3.129831 1_665
Mg5 Ni0 3.129831 1_555
Mg6 Ni0 2.941530 1_555
Mg7 Ni0 2.941530 1_555
Mg8 Ni0 2.941536 1_555
Mg9 Ni0 2.941536 1_555
Mg10 Ni0 2.941536 1_655
Mg10 Mg3 3.030102 1_555
Mg10 Mg5 3.030108 1_545
Mg10 Mg2 3.055022 1_555
Mg10 Mg4 3.055028 1_545
Mg10 Mg12 3.131432 1_545
Mg10 Mg12 3.131432 1_555
Mg11 Ni0 2.941536 1_655
Mg11 Mg3 3.030102 1_555
Mg11 Mg5 3.030108 1_545
Mg11 Mg2 3.055022 1_556
Mg11 Mg4 3.055028 1_546
Mg11 Mg13 3.131432 1_545
Mg11 Mg13 3.131432 1_555
Mg12 Mg4 2.995084 1_555
Mg12 Mg2 2.995091 1_555
Mg12 Mg5 3.018728 1_555
Mg12 Mg3 3.018734 1_555
Mg12 Mg6 3.131432 1_665
Mg12 Mg6 3.131432 1_555
Mg12 Mg8 3.131432 1_555
Mg12 Mg8 3.131432 1_655
Mg13 Mg4 2.995084 1_556
Mg13 Mg2 2.995091 1_556
Mg13 Mg5 3.018728 1_555
Mg13 Mg3 3.018734 1_555
Mg13 Mg7 3.131432 1_665
Mg13 Mg7 3.131432 1_555
Mg13 Mg9 3.131432 1_555
Mg13 Mg9 3.131432 1_655
Cu0 Mg7 2.967052 1_554
Cu0 Mg6 2.967052 1_555
Cu0 Mg9 2.967059 1_554
Cu0 Mg8 2.967059 1_555
Cu0 Mg11 2.967059 1_454
Cu0 Mg10 2.967059 1_455
Cu0 Mg0 3.129832 1_555
Cu0 Mg4 3.129832 1_445
Cu0 Mg4 3.129832 1_555
Cu0 Mg0 3.129832 1_545
Cu0 Mg2 3.129832 1_455
Cu0 Mg2 3.129832 1_555
