# generated using pymatgen
data_Li2TiCr3O8
_symmetry_space_group_name_H-M   'P 1'
_cell_length_a   5.96175270
_cell_length_b   10.28233932
_cell_length_c   5.96116906
_cell_angle_alpha   106.82616744
_cell_angle_beta   59.47603901
_cell_angle_gamma   90.24400983
_symmetry_Int_Tables_number   1
_chemical_formula_structural   Li2TiCr3O8
_chemical_formula_sum   'Li4 Ti2 Cr6 O16'
_cell_volume   296.75524293
_cell_formula_units_Z   2
loop_
 _symmetry_equiv_pos_site_id
 _symmetry_equiv_pos_as_xyz
  1  'x, y, z'
loop_
 _atom_site_type_symbol
 _atom_site_label
 _atom_site_symmetry_multiplicity
 _atom_site_fract_x
 _atom_site_fract_y
 _atom_site_fract_z
 _atom_site_occupancy
  Li  Li0  1  0.93641600  0.18770900  0.12318900  1
  Li  Li1  1  0.43540600  0.68766800  0.12421300  1
  Li  Li2  1  0.56458100  0.31233100  0.87581700  1
  Li  Li3  1  0.06358400  0.81229100  0.87680800  1
  Ti  Ti0  1  0.75438600  0.74999500  0.49565500  1
  Ti  Ti1  1  0.24557700  0.24999100  0.50446900  1
  Cr  Cr0  1  0.50002700  0.00001400  0.49998200  1
  Cr  Cr1  1  0.00000400  0.49999400  0.00001800  1
  Cr  Cr2  1  0.49999500  0.00002400  0.00000300  1
  Cr  Cr3  1  0.50000800  0.50001000  0.49996500  1
  Cr  Cr4  1  0.00004800  0.99994000  0.49989400  1
  Cr  Cr5  1  0.99997500  0.50000100  0.50001400  1
  O  O0  1  0.85650500  0.39559800  0.27102100  1
  O  O1  1  0.37548000  0.89565300  0.25200800  1
  O  O2  1  0.62455500  0.10435900  0.74798300  1
  O  O3  1  0.14348500  0.60439800  0.72894000  1
  O  O4  1  0.63622200  0.61894900  0.71286000  1
  O  O5  1  0.14310700  0.12360400  0.71300800  1
  O  O6  1  0.63442200  0.61962500  0.27227400  1
  O  O7  1  0.15260700  0.11968800  0.25414300  1
  O  O8  1  0.08938300  0.62365400  0.26671100  1
  O  O9  1  0.59384900  0.11904300  0.25527600  1
  O  O10  1  0.40615100  0.88098500  0.74472900  1
  O  O11  1  0.91059600  0.37634600  0.73330500  1
  O  O12  1  0.84735700  0.88032000  0.74588000  1
  O  O13  1  0.36556700  0.38038100  0.72773900  1
  O  O14  1  0.85693700  0.87638700  0.28696900  1
  O  O15  1  0.36376900  0.38104000  0.28712900  1
loop_
_geom_bond_atom_site_label_1
_geom_bond_atom_site_label_2
_geom_bond_distance
_geom_bond_site_symmetry_2
Li0 O5 1.986178 1_654
Li0 O9 1.991370 1_555
Li0 O0 2.016053 1_555
Li0 O7 2.026228 1_655
Li1 O8 1.985572 1_555
Li1 O4 1.991880 1_554
Li1 O1 2.017009 1_555
Li1 O6 2.025977 1_555
Li2 O11 1.985537 1_555
Li2 O15 1.991680 1_556
Li2 O2 2.016875 1_555
Li2 O13 2.026086 1_555
Li3 O14 1.986083 1_456
Li3 O10 1.991505 1_555
Li3 O3 2.016093 1_555
Li3 O12 2.026319 1_455
Cr0 O2 2.019335 1_555
Cr0 O1 2.019348 1_545
Cr0 O5 2.024668 1_555
Cr0 O14 2.024802 1_545
Cr0 O9 2.034119 1_555
Cr0 O10 2.034273 1_545
Cr1 O0 2.021437 1_455
Cr1 O3 2.021828 1_554
Cr1 O8 2.027955 1_555
Cr1 O11 2.028108 1_454
Cr1 O13 2.042240 1_554
Cr1 O6 2.042374 1_455
Cr2 O2 1.937116 1_554
Cr2 O1 1.937341 1_545
Cr2 O7 1.963083 1_555
Cr2 O12 1.963142 1_544
Cr2 O9 1.976697 1_555
Cr2 O10 1.976743 1_544
Cr3 O0 1.938310 1_555
Cr3 O3 1.938335 1_555
Cr3 O6 1.962233 1_555
Cr3 O13 1.962690 1_555
Cr3 O4 1.976263 1_555
Cr3 O15 1.976274 1_555
Cr4 O1 2.021518 1_555
Cr4 O2 2.022245 1_465
Cr4 O14 2.027372 1_455
Cr4 O5 2.028392 1_565
Cr4 O12 2.042160 1_455
Cr4 O7 2.042230 1_565
Cr5 O3 2.019086 1_655
Cr5 O0 2.019219 1_555
Cr5 O11 2.024780 1_555
Cr5 O8 2.024800 1_655
Cr5 O4 2.034152 1_555
Cr5 O15 2.034371 1_655
O4 Ti0 2.015898 1_555
O5 Ti1 1.940238 1_555
O6 Ti0 2.001868 1_555
O7 Ti1 2.001359 1_555
O8 Ti0 1.940575 1_455
O9 Ti1 2.015806 1_555
O10 Ti0 2.015844 1_555
O11 Ti1 1.940587 1_655
O12 Ti0 2.001049 1_555
O13 Ti1 2.001641 1_555
O14 Ti0 1.940867 1_555
O15 Ti1 2.016458 1_555
