# generated using pymatgen
data_SrB12(H3O2)4
_symmetry_space_group_name_H-M   'P 1'
_cell_length_a   7.29300318
_cell_length_b   7.29300318
_cell_length_c   7.29300378
_cell_angle_alpha   87.20992616
_cell_angle_beta   87.20992616
_cell_angle_gamma   87.20992638
_symmetry_Int_Tables_number   1
_chemical_formula_structural   SrB12(H3O2)4
_chemical_formula_sum   'Sr1 B12 H12 O8'
_cell_volume   386.56331120
_cell_formula_units_Z   1
loop_
 _symmetry_equiv_pos_site_id
 _symmetry_equiv_pos_as_xyz
  1  'x, y, z'
loop_
 _atom_site_type_symbol
 _atom_site_label
 _atom_site_symmetry_multiplicity
 _atom_site_fract_x
 _atom_site_fract_y
 _atom_site_fract_z
 _atom_site_occupancy
  Sr  Sr0  1  0.00000000  0.00000000  0.00000000  1
  B  B0  1  0.71674100  0.51609300  0.56888300  1
  B  B1  1  0.56888300  0.71674100  0.51609300  1
  B  B2  1  0.51609300  0.56888300  0.71674100  1
  B  B3  1  0.28325900  0.48390700  0.43111700  1
  B  B4  1  0.43111700  0.28325900  0.48390700  1
  B  B5  1  0.48390700  0.43111700  0.28325900  1
  B  B6  1  0.65948200  0.34034000  0.42139500  1
  B  B7  1  0.42139500  0.65948200  0.34034000  1
  B  B8  1  0.34034000  0.42139500  0.65948200  1
  B  B9  1  0.34051800  0.65966000  0.57860500  1
  B  B10  1  0.57860500  0.34051800  0.65966000  1
  B  B11  1  0.65966000  0.57860500  0.34051800  1
  H  H0  1  0.87136400  0.51794600  0.61619100  1
  H  H1  1  0.61619100  0.87136400  0.51794600  1
  H  H2  1  0.51794600  0.61619100  0.87136400  1
  H  H3  1  0.12863600  0.48205400  0.38380900  1
  H  H4  1  0.38380900  0.12863600  0.48205400  1
  H  H5  1  0.48205400  0.38380900  0.12863600  1
  H  H6  1  0.77121600  0.22916300  0.36338000  1
  H  H7  1  0.36338000  0.77121600  0.22916300  1
  H  H8  1  0.22916300  0.36338000  0.77121600  1
  H  H9  1  0.22878400  0.77083700  0.63662000  1
  H  H10  1  0.63662000  0.22878400  0.77083700  1
  H  H11  1  0.77083700  0.63662000  0.22878400  1
  O  O0  1  0.81936200  0.81936200  0.81936200  1
  O  O1  1  0.18063800  0.18063800  0.18063800  1
  O  O2  1  0.98529500  0.02619600  0.57744300  1
  O  O3  1  0.57744300  0.98529500  0.02619600  1
  O  O4  1  0.02619600  0.57744300  0.98529500  1
  O  O5  1  0.01470500  0.97380400  0.42255700  1
  O  O6  1  0.42255700  0.01470500  0.97380400  1
  O  O7  1  0.97380400  0.42255700  0.01470500  1
loop_
_geom_bond_atom_site_label_1
_geom_bond_atom_site_label_2
_geom_bond_distance
_geom_bond_site_symmetry_2
B0 H0 1.196104 1_555
B1 H1 1.196104 1_555
B2 H2 1.196104 1_555
B3 H3 1.196104 1_555
B4 H4 1.196104 1_555
B5 H5 1.196104 1_555
B6 H6 1.198320 1_555
B7 H7 1.198320 1_555
B8 H8 1.198320 1_555
B9 H9 1.198320 1_555
B10 H10 1.198320 1_555
B11 H11 1.198320 1_555
O0 Sr0 2.390284 1_666
O1 Sr0 2.390284 1_555
O2 O5 1.215901 1_645
O2 Sr0 3.085093 1_656
O3 O6 1.215901 1_564
O3 Sr0 3.085093 1_665
O4 O7 1.215901 1_456
O4 Sr0 3.085093 1_566
O5 Sr0 3.085093 1_565
O6 Sr0 3.085093 1_556
O7 Sr0 3.085093 1_655
