# generated using pymatgen
data_GdAlNi4
_symmetry_space_group_name_H-M   'P 1'
_cell_length_a   4.88264659
_cell_length_b   4.88294319
_cell_length_c   3.98583324
_cell_angle_alpha   90.00000000
_cell_angle_beta   90.00000000
_cell_angle_gamma   118.44349138
_symmetry_Int_Tables_number   1
_chemical_formula_structural   GdAlNi4
_chemical_formula_sum   'Gd1 Al1 Ni4'
_cell_volume   83.55777798
_cell_formula_units_Z   1
loop_
 _symmetry_equiv_pos_site_id
 _symmetry_equiv_pos_as_xyz
  1  'x, y, z'
loop_
 _atom_site_type_symbol
 _atom_site_label
 _atom_site_symmetry_multiplicity
 _atom_site_fract_x
 _atom_site_fract_y
 _atom_site_fract_z
 _atom_site_occupancy
  Gd  Gd0  1  0.50000000  0.50000000  0.00000000  1
  Al  Al0  1  0.00000000  -0.00000000  0.50000000  1
  Ni  Ni0  1  0.16849606  0.83186348  -0.00000000  1
  Ni  Ni1  1  0.83150394  0.16813652  -0.00000000  1
  Ni  Ni2  1  0.00000000  0.50000000  0.50000000  1
  Ni  Ni3  1  0.50000000  -0.00000000  0.50000000  1
loop_
_geom_bond_atom_site_label_1
_geom_bond_atom_site_label_2
_geom_bond_distance
_geom_bond_site_symmetry_2
Gd0 Ni0 2.782875 1_555
Gd0 Ni1 2.782875 1_555
Gd0 Ni1 2.869381 1_565
Gd0 Ni0 2.869381 1_545
Gd0 Ni1 2.870775 1_455
Gd0 Ni0 2.870775 1_655
Gd0 Ni2 3.151472 1_655
Gd0 Ni2 3.151472 1_555
Gd0 Ni2 3.151472 1_654
Gd0 Ni2 3.151472 1_554
Gd0 Ni3 3.151587 1_565
Gd0 Ni3 3.151587 1_555
Gd0 Ni3 3.151587 1_564
Gd0 Ni3 3.151587 1_554
Al0 Ni3 2.441323 1_455
Al0 Ni3 2.441323 1_555
Al0 Ni2 2.441472 1_555
Al0 Ni2 2.441472 1_545
Al0 Ni1 2.442544 1_456
Al0 Ni0 2.442544 1_546
Al0 Ni1 2.442544 1_455
Al0 Ni0 2.442544 1_545
Al0 Gd0 3.196054 1_445
Al0 Gd0 3.196054 1_446
Al0 Gd0 3.196054 1_555
Al0 Gd0 3.196054 1_556
Ni0 Ni3 2.449450 1_564
Ni0 Ni3 2.449450 1_565
Ni0 Ni2 2.450414 1_554
Ni0 Ni2 2.450414 1_555
Ni0 Ni1 2.824397 1_465
Ni0 Ni1 2.848219 1_565
Ni0 Ni1 2.851535 1_455
Ni1 Ni3 2.449450 1_555
Ni1 Ni3 2.449450 1_554
Ni1 Ni2 2.450414 1_654
Ni1 Ni2 2.450414 1_655
Ni2 Ni3 2.498608 1_455
Ni2 Ni3 2.498608 1_565
