# generated using pymatgen
data_Pm2Mg
_symmetry_space_group_name_H-M   'P 1'
_cell_length_a   17.86057980
_cell_length_b   17.86057980
_cell_length_c   11.13958450
_cell_angle_alpha   90.00000000
_cell_angle_beta   90.00000000
_cell_angle_gamma   155.19900731
_symmetry_Int_Tables_number   1
_chemical_formula_structural   Pm2Mg
_chemical_formula_sum   'Pm32 Mg16'
_cell_volume   1490.59183237
_cell_formula_units_Z   16
loop_
 _symmetry_equiv_pos_site_id
 _symmetry_equiv_pos_as_xyz
  1  'x, y, z'
loop_
 _atom_site_type_symbol
 _atom_site_label
 _atom_site_symmetry_multiplicity
 _atom_site_fract_x
 _atom_site_fract_y
 _atom_site_fract_z
 _atom_site_occupancy
  Pm  Pm0_0  1  0.04368699  0.45631301  0.12500000  1
  Pm  Pm0_1  1  0.04368699  0.45631301  0.62500000  1
  Pm  Pm0_2  1  0.04368699  0.95631301  0.12500000  1
  Pm  Pm0_3  1  0.04368699  0.95631301  0.62500000  1
  Pm  Pm0_4  1  0.54368699  0.45631301  0.12500000  1
  Pm  Pm0_5  1  0.54368699  0.45631301  0.62500000  1
  Pm  Pm0_6  1  0.54368699  0.95631301  0.12500000  1
  Pm  Pm0_7  1  0.54368699  0.95631301  0.62500000  1
  Pm  Pm1_0  1  0.38622533  0.11377467  0.12500000  1
  Pm  Pm1_1  1  0.38622533  0.11377467  0.62500000  1
  Pm  Pm1_2  1  0.38622533  0.61377468  0.12500000  1
  Pm  Pm1_3  1  0.38622533  0.61377468  0.62500000  1
  Pm  Pm1_4  1  0.88622533  0.11377467  0.12500000  1
  Pm  Pm1_5  1  0.88622533  0.11377467  0.62500000  1
  Pm  Pm1_6  1  0.88622533  0.61377467  0.12500000  1
  Pm  Pm1_7  1  0.88622533  0.61377467  0.62500000  1
  Pm  Pm2_0  1  0.45631301  0.04368699  0.37500000  1
  Pm  Pm2_1  1  0.45631301  0.04368699  0.87500000  1
  Pm  Pm2_2  1  0.45631301  0.54368699  0.37500000  1
  Pm  Pm2_3  1  0.45631301  0.54368699  0.87500000  1
  Pm  Pm2_4  1  0.95631301  0.04368699  0.37500000  1
  Pm  Pm2_5  1  0.95631301  0.04368699  0.87500000  1
  Pm  Pm2_6  1  0.95631301  0.54368699  0.37500000  1
  Pm  Pm2_7  1  0.95631301  0.54368699  0.87500000  1
  Pm  Pm3_0  1  0.11377467  0.38622533  0.37500000  1
  Pm  Pm3_1  1  0.11377467  0.38622533  0.87500000  1
  Pm  Pm3_2  1  0.11377467  0.88622533  0.37500000  1
  Pm  Pm3_3  1  0.11377467  0.88622533  0.87500000  1
  Pm  Pm3_4  1  0.61377468  0.38622533  0.37500000  1
  Pm  Pm3_5  1  0.61377468  0.38622533  0.87500000  1
  Pm  Pm3_6  1  0.61377467  0.88622533  0.37500000  1
  Pm  Pm3_7  1  0.61377467  0.88622533  0.87500000  1
  Mg  Mg0_0  1  0.21555753  0.28444246  0.12500000  1
  Mg  Mg0_1  1  0.21555753  0.28444246  0.62500000  1
  Mg  Mg0_2  1  0.21555753  0.78444246  0.12500000  1
  Mg  Mg0_3  1  0.21555753  0.78444246  0.62500000  1
  Mg  Mg0_4  1  0.71555753  0.28444246  0.12500000  1
  Mg  Mg0_5  1  0.71555753  0.28444246  0.62500000  1
  Mg  Mg0_6  1  0.71555753  0.78444246  0.12500000  1
  Mg  Mg0_7  1  0.71555753  0.78444246  0.62500000  1
  Mg  Mg1_0  1  0.28444246  0.21555753  0.37500000  1
  Mg  Mg1_1  1  0.28444246  0.21555753  0.87500000  1
  Mg  Mg1_2  1  0.28444246  0.71555754  0.37500000  1
  Mg  Mg1_3  1  0.28444246  0.71555754  0.87500000  1
  Mg  Mg1_4  1  0.78444247  0.21555753  0.37500000  1
  Mg  Mg1_5  1  0.78444247  0.21555753  0.87500000  1
  Mg  Mg1_6  1  0.78444247  0.71555753  0.37500000  1
  Mg  Mg1_7  1  0.78444247  0.71555753  0.87500000  1
loop_
_geom_bond_atom_site_label_1
_geom_bond_atom_site_label_2
_geom_bond_distance
_geom_bond_site_symmetry_2
Pm0_0 Pm3_1 3.706032 1_554
Pm0_0 Pm3_0 3.706032 1_555
Pm0_0 Pm1_2 3.755078 1_555
Pm0_0 Pm1_4 3.755078 1_455
Pm0_1 Pm3_0 3.706032 1_555
Pm0_1 Pm3_1 3.706032 1_555
Pm0_1 Pm1_3 3.755078 1_555
Pm0_1 Pm1_5 3.755078 1_455
Pm0_2 Pm3_3 3.706032 1_554
Pm0_2 Pm3_2 3.706032 1_555
Pm0_2 Pm1_0 3.755078 1_565
Pm0_2 Pm1_6 3.755078 1_455
Pm0_3 Pm3_2 3.706032 1_555
Pm0_3 Pm3_3 3.706032 1_555
Pm0_3 Pm1_1 3.755078 1_565
Pm0_3 Pm1_7 3.755078 1_455
Pm0_4 Pm3_5 3.706032 1_554
Pm0_4 Pm3_4 3.706032 1_555
Pm0_4 Pm1_0 3.755078 1_555
Pm0_4 Pm1_6 3.755078 1_555
Pm0_5 Pm3_4 3.706032 1_555
Pm0_5 Pm3_5 3.706032 1_555
Pm0_5 Pm1_1 3.755078 1_555
Pm0_5 Pm1_7 3.755078 1_555
Pm0_6 Pm3_7 3.706032 1_554
Pm0_6 Pm3_6 3.706032 1_555
Pm0_6 Pm1_2 3.755078 1_555
Pm0_6 Pm1_4 3.755078 1_565
Pm0_7 Pm3_6 3.706032 1_555
Pm0_7 Pm3_7 3.706032 1_555
Pm0_7 Pm1_3 3.755078 1_555
Pm0_7 Pm1_5 3.755078 1_565
Pm1_0 Pm3_3 3.470850 1_544
Pm1_0 Pm3_5 3.470850 1_554
Pm1_0 Pm3_4 3.470850 1_555
Pm1_0 Pm3_2 3.470850 1_545
Pm1_0 Pm2_1 3.706032 1_554
Pm1_0 Pm2_0 3.706032 1_555
Pm1_0 Pm1_6 3.835449 1_445
Pm1_0 Pm1_6 3.835449 1_555
Pm1_1 Pm3_2 3.470850 1_545
Pm1_1 Pm3_4 3.470850 1_555
Pm1_1 Pm3_3 3.470850 1_545
Pm1_1 Pm3_5 3.470850 1_555
Pm1_1 Pm2_0 3.706032 1_555
Pm1_1 Pm2_1 3.706032 1_555
Pm1_1 Pm1_7 3.835449 1_445
Pm1_1 Pm1_7 3.835449 1_555
Pm1_2 Pm3_1 3.470850 1_554
Pm1_2 Pm3_7 3.470850 1_554
Pm1_2 Pm3_0 3.470850 1_555
Pm1_2 Pm3_6 3.470850 1_555
Pm1_2 Pm2_3 3.706032 1_554
Pm1_2 Pm2_2 3.706032 1_555
Pm1_2 Pm1_4 3.835449 1_565
Pm1_2 Pm1_4 3.835449 1_455
Pm1_3 Pm3_0 3.470850 1_555
Pm1_3 Pm3_6 3.470850 1_555
Pm1_3 Pm3_1 3.470850 1_555
Pm1_3 Pm3_7 3.470850 1_555
Pm1_3 Pm2_2 3.706032 1_555
Pm1_3 Pm2_3 3.706032 1_555
Pm1_3 Pm1_5 3.835449 1_565
Pm1_3 Pm1_5 3.835449 1_455
Pm1_4 Pm3_1 3.470850 1_654
Pm1_4 Pm3_7 3.470850 1_544
Pm1_4 Pm3_0 3.470850 1_655
Pm1_4 Pm3_6 3.470850 1_545
Pm1_4 Pm2_5 3.706032 1_554
Pm1_4 Pm2_4 3.706032 1_555
Pm1_5 Pm3_0 3.470850 1_655
Pm1_5 Pm3_6 3.470850 1_545
Pm1_5 Pm3_1 3.470850 1_655
Pm1_5 Pm3_7 3.470850 1_545
Pm1_5 Pm2_4 3.706032 1_555
Pm1_5 Pm2_5 3.706032 1_555
Pm1_6 Pm3_5 3.470850 1_554
Pm1_6 Pm3_3 3.470850 1_654
Pm1_6 Pm3_4 3.470850 1_555
Pm1_6 Pm3_2 3.470850 1_655
Pm1_6 Pm2_7 3.706032 1_554
Pm1_6 Pm2_6 3.706032 1_555
Pm1_7 Pm3_4 3.470850 1_555
Pm1_7 Pm3_2 3.470850 1_655
Pm1_7 Pm3_5 3.470850 1_555
Pm1_7 Pm3_3 3.470850 1_655
Pm1_7 Pm2_6 3.706032 1_555
Pm1_7 Pm2_7 3.706032 1_555
Pm2_0 Pm3_4 3.755078 1_555
Pm2_0 Pm3_2 3.755078 1_545
Pm2_1 Pm3_5 3.755078 1_555
Pm2_1 Pm3_3 3.755078 1_545
Pm2_2 Pm3_0 3.755078 1_555
Pm2_2 Pm3_6 3.755078 1_555
Pm2_3 Pm3_1 3.755078 1_555
Pm2_3 Pm3_7 3.755078 1_555
Pm2_4 Pm3_0 3.755078 1_655
Pm2_4 Pm3_6 3.755078 1_545
Pm2_5 Pm3_1 3.755078 1_655
Pm2_5 Pm3_7 3.755078 1_545
Pm2_6 Pm3_4 3.755078 1_555
Pm2_6 Pm3_2 3.755078 1_655
Pm2_7 Pm3_5 3.755078 1_555
Pm2_7 Pm3_3 3.755078 1_655
Pm3_0 Pm3_6 3.835449 1_555
Pm3_0 Pm3_6 3.835449 1_445
Pm3_1 Pm3_7 3.835449 1_555
Pm3_1 Pm3_7 3.835449 1_445
Pm3_2 Pm3_4 3.835449 1_455
Pm3_2 Pm3_4 3.835449 1_565
Pm3_3 Pm3_5 3.835449 1_455
Pm3_3 Pm3_5 3.835449 1_565
Mg0_0 Pm0_2 3.332786 1_545
Mg0_0 Pm0_4 3.332786 1_555
Mg0_0 Pm1_4 3.367191 1_455
Mg0_0 Pm1_2 3.367191 1_555
Mg0_0 Pm2_5 3.396665 1_454
Mg0_0 Pm2_3 3.396665 1_554
Mg0_0 Pm2_4 3.396665 1_455
Mg0_0 Pm2_2 3.396665 1_555
Mg0_1 Pm0_3 3.332786 1_545
Mg0_1 Pm0_5 3.332786 1_555
Mg0_1 Pm1_5 3.367191 1_455
Mg0_1 Pm1_3 3.367191 1_555
Mg0_1 Pm2_4 3.396665 1_455
Mg0_1 Pm2_2 3.396665 1_555
Mg0_1 Pm2_5 3.396665 1_455
Mg0_1 Pm2_3 3.396665 1_555
Mg0_2 Pm0_6 3.332786 1_555
Mg0_2 Pm0_0 3.332786 1_555
Mg0_2 Pm1_6 3.367191 1_455
Mg0_2 Pm1_0 3.367191 1_565
Mg0_2 Pm2_7 3.396665 1_454
Mg0_2 Pm2_1 3.396665 1_564
Mg0_2 Pm2_6 3.396665 1_455
Mg0_2 Pm2_0 3.396665 1_565
Mg0_3 Pm0_7 3.332786 1_555
Mg0_3 Pm0_1 3.332786 1_555
Mg0_3 Pm1_7 3.367191 1_455
Mg0_3 Pm1_1 3.367191 1_565
Mg0_3 Pm2_6 3.396665 1_455
Mg0_3 Pm2_0 3.396665 1_565
Mg0_3 Pm2_7 3.396665 1_455
Mg0_3 Pm2_1 3.396665 1_565
Mg0_4 Pm0_6 3.332786 1_545
Mg0_4 Pm0_0 3.332786 1_655
Mg0_4 Pm1_6 3.367191 1_555
Mg0_4 Pm1_0 3.367191 1_555
Mg0_4 Pm2_1 3.396665 1_554
Mg0_4 Pm2_7 3.396665 1_554
Mg0_4 Pm2_0 3.396665 1_555
Mg0_4 Pm2_6 3.396665 1_555
Mg0_5 Pm0_7 3.332786 1_545
Mg0_5 Pm0_1 3.332786 1_655
Mg0_5 Pm1_7 3.367191 1_555
Mg0_5 Pm1_1 3.367191 1_555
Mg0_5 Pm2_0 3.396665 1_555
Mg0_5 Pm2_6 3.396665 1_555
Mg0_5 Pm2_1 3.396665 1_555
Mg0_5 Pm2_7 3.396665 1_555
Mg0_6 Pm0_4 3.332786 1_555
Mg0_6 Pm0_2 3.332786 1_655
Mg0_6 Pm1_4 3.367191 1_565
Mg0_6 Pm1_2 3.367191 1_555
Mg0_6 Pm2_3 3.396665 1_554
Mg0_6 Pm2_2 3.396665 1_555
Mg0_6 Pm2_5 3.396665 1_564
Mg0_6 Pm2_4 3.396665 1_565
Mg0_7 Pm0_5 3.332786 1_555
Mg0_7 Pm0_3 3.332786 1_655
Mg0_7 Pm1_5 3.367191 1_565
Mg0_7 Pm1_3 3.367191 1_555
Mg0_7 Pm2_2 3.396665 1_555
Mg0_7 Pm2_3 3.396665 1_555
Mg0_7 Pm2_4 3.396665 1_565
Mg0_7 Pm2_5 3.396665 1_565
Mg1_0 Pm2_4 3.332786 1_455
Mg1_0 Pm2_2 3.332786 1_555
Mg1_0 Pm3_2 3.367191 1_545
Mg1_0 Pm3_4 3.367191 1_555
Mg1_0 Pm0_3 3.396665 1_545
Mg1_0 Pm0_5 3.396665 1_555
Mg1_0 Pm0_4 3.396665 1_555
Mg1_0 Pm0_2 3.396665 1_545
Mg1_1 Pm2_5 3.332786 1_455
Mg1_1 Pm2_3 3.332786 1_555
Mg1_1 Pm3_3 3.367191 1_545
Mg1_1 Pm3_5 3.367191 1_555
Mg1_1 Pm0_2 3.396665 1_546
Mg1_1 Pm0_4 3.396665 1_556
Mg1_1 Pm0_3 3.396665 1_545
Mg1_1 Pm0_5 3.396665 1_555
Mg1_2 Pm2_6 3.332786 1_455
Mg1_2 Pm2_0 3.332786 1_565
Mg1_2 Pm3_6 3.367191 1_555
Mg1_2 Pm3_0 3.367191 1_555
Mg1_2 Pm0_1 3.396665 1_555
Mg1_2 Pm0_7 3.396665 1_555
Mg1_2 Pm0_0 3.396665 1_555
Mg1_2 Pm0_6 3.396665 1_555
Mg1_3 Pm2_7 3.332786 1_455
Mg1_3 Pm2_1 3.332786 1_565
Mg1_3 Pm3_7 3.367191 1_555
Mg1_3 Pm3_1 3.367191 1_555
Mg1_3 Pm0_6 3.396665 1_556
Mg1_3 Pm0_0 3.396665 1_556
Mg1_3 Pm0_7 3.396665 1_555
Mg1_3 Pm0_1 3.396665 1_555
Mg1_4 Pm2_0 3.332786 1_555
Mg1_4 Pm2_6 3.332786 1_555
Mg1_4 Pm3_6 3.367191 1_545
Mg1_4 Pm3_0 3.367191 1_655
Mg1_4 Pm0_7 3.396665 1_545
Mg1_4 Pm0_1 3.396665 1_655
Mg1_4 Pm0_6 3.396665 1_545
Mg1_4 Pm0_0 3.396665 1_655
Mg1_5 Pm2_1 3.332786 1_555
Mg1_5 Pm2_7 3.332786 1_555
Mg1_5 Pm3_7 3.367191 1_545
Mg1_5 Pm3_1 3.367191 1_655
Mg1_5 Pm0_6 3.396665 1_546
Mg1_5 Pm0_0 3.396665 1_656
Mg1_5 Pm0_7 3.396665 1_545
Mg1_5 Pm0_1 3.396665 1_655
Mg1_6 Pm2_2 3.332786 1_555
Mg1_6 Pm2_4 3.332786 1_565
Mg1_6 Pm3_2 3.367191 1_655
Mg1_6 Pm3_4 3.367191 1_555
Mg1_6 Pm0_5 3.396665 1_555
Mg1_6 Pm0_3 3.396665 1_655
Mg1_6 Pm0_4 3.396665 1_555
Mg1_6 Pm0_2 3.396665 1_655
Mg1_7 Pm2_3 3.332786 1_555
Mg1_7 Pm2_5 3.332786 1_565
Mg1_7 Pm3_3 3.367191 1_655
Mg1_7 Pm3_5 3.367191 1_555
Mg1_7 Pm0_4 3.396665 1_556
Mg1_7 Pm0_2 3.396665 1_656
Mg1_7 Pm0_3 3.396665 1_655
Mg1_7 Pm0_5 3.396665 1_555
