# generated using pymatgen
data_KRb2SiF7
_symmetry_space_group_name_H-M   'P 1'
_cell_length_a   7.97987350
_cell_length_b   7.97987350
_cell_length_c   5.81458100
_cell_angle_alpha   90.00000000
_cell_angle_beta   90.00000000
_cell_angle_gamma   90.51127101
_symmetry_Int_Tables_number   1
_chemical_formula_structural   KRb2SiF7
_chemical_formula_sum   'K2 Rb4 Si2 F14'
_cell_volume   370.24836316
_cell_formula_units_Z   2
loop_
 _symmetry_equiv_pos_site_id
 _symmetry_equiv_pos_as_xyz
  1  'x, y, z'
loop_
 _atom_site_type_symbol
 _atom_site_label
 _atom_site_symmetry_multiplicity
 _atom_site_fract_x
 _atom_site_fract_y
 _atom_site_fract_z
 _atom_site_occupancy
  K  K0  1  0.19498000  0.19498000  0.50000000  1
  K  K1  1  0.80502000  0.80502000  0.50000000  1
  Rb  Rb0  1  0.00000000  0.50000000  0.00000000  1
  Rb  Rb1  1  0.50000000  0.00000000  0.00000000  1
  Rb  Rb2  1  0.69386100  0.30613900  0.50000000  1
  Rb  Rb3  1  0.30613900  0.69386100  0.50000000  1
  Si  Si0  1  0.00000000  0.00000000  0.00000000  1
  Si  Si1  1  0.50000000  0.50000000  0.00000000  1
  F  F0  1  0.89365700  0.10634300  0.78827200  1
  F  F1  1  0.10634300  0.89365700  0.78827200  1
  F  F2  1  0.39194500  0.39194500  0.78879200  1
  F  F3  1  0.60805500  0.60805500  0.78879200  1
  F  F4  1  0.10634300  0.89365700  0.21172800  1
  F  F5  1  0.89365700  0.10634300  0.21172800  1
  F  F6  1  0.60805500  0.60805500  0.21120800  1
  F  F7  1  0.39194500  0.39194500  0.21120800  1
  F  F8  1  0.65162900  0.34837100  0.00000000  1
  F  F9  1  0.34837100  0.65162900  0.00000000  1
  F  F10  1  0.15294700  0.15294700  0.00000000  1
  F  F11  1  0.84705300  0.84705300  0.00000000  1
  F  F12  1  0.00000000  0.50000000  0.50000000  1
  F  F13  1  0.50000000  0.00000000  0.50000000  1
loop_
_geom_bond_atom_site_label_1
_geom_bond_atom_site_label_2
_geom_bond_distance
_geom_bond_site_symmetry_2
F0 Si0 1.723003 1_656
F0 Rb2 2.817593 1_555
F0 K1 3.010188 1_545
F0 K0 3.010188 1_655
F1 Si0 1.723003 1_566
F1 Rb3 2.817593 1_555
F1 K1 3.010188 1_455
F1 K0 3.010188 1_565
F2 Si1 1.726826 1_556
F2 K0 2.777854 1_555
F2 Rb2 3.020348 1_555
F2 Rb3 3.020348 1_555
F3 Si1 1.726826 1_556
F3 K1 2.777854 1_555
F3 Rb2 3.020348 1_555
F3 Rb3 3.020348 1_555
F4 Si0 1.723003 1_565
F4 Rb3 2.817593 1_555
F4 K1 3.010188 1_455
F4 K0 3.010188 1_565
F5 Si0 1.723003 1_655
F5 Rb2 2.817593 1_555
F5 K1 3.010188 1_545
F5 K0 3.010188 1_655
F6 Si1 1.726826 1_555
F6 K1 2.777854 1_555
F6 Rb3 3.020348 1_555
F6 Rb2 3.020348 1_555
F7 Si1 1.726826 1_555
F7 K0 2.777854 1_555
F7 Rb3 3.020348 1_555
F7 Rb2 3.020348 1_555
F8 Si1 1.718788 1_555
F8 Rb2 2.946440 1_555
F8 Rb2 2.946440 1_554
F8 Rb0 3.021950 1_655
F8 Rb1 3.021950 1_555
F9 Si1 1.718788 1_555
F9 Rb3 2.946440 1_554
F9 Rb3 2.946440 1_555
F9 Rb1 3.021950 1_565
F9 Rb0 3.021950 1_555
F10 Si0 1.718326 1_555
F10 K0 2.945393 1_554
F10 K0 2.945393 1_555
F10 Rb1 3.036401 1_555
F10 Rb0 3.036401 1_555
F11 Si0 1.718326 1_665
F11 K1 2.945393 1_555
F11 K1 2.945393 1_554
F11 Rb1 3.036401 1_565
F11 Rb0 3.036401 1_655
F12 Rb3 2.879883 1_555
F12 Rb2 2.879883 1_455
F12 K0 2.900503 1_555
F12 K1 2.900503 1_455
F12 Rb0 2.907291 1_555
F12 Rb0 2.907291 1_556
F13 Rb2 2.879883 1_555
F13 Rb3 2.879883 1_545
F13 K0 2.900503 1_555
F13 K1 2.900503 1_545
F13 Rb1 2.907291 1_556
F13 Rb1 2.907291 1_555
