# generated using pymatgen
data_TiO2
_symmetry_space_group_name_H-M   'P 1'
_cell_length_a   10.26961661
_cell_length_b   10.58039382
_cell_length_c   10.56895445
_cell_angle_alpha   90.47826511
_cell_angle_beta   89.63334857
_cell_angle_gamma   88.99971131
_symmetry_Int_Tables_number   1
_chemical_formula_structural   TiO2
_chemical_formula_sum   'Ti30 O60'
_cell_volume   1148.14692130
_cell_formula_units_Z   30
loop_
 _symmetry_equiv_pos_site_id
 _symmetry_equiv_pos_as_xyz
  1  'x, y, z'
loop_
 _atom_site_type_symbol
 _atom_site_label
 _atom_site_symmetry_multiplicity
 _atom_site_fract_x
 _atom_site_fract_y
 _atom_site_fract_z
 _atom_site_occupancy
  Ti  Ti0  1  0.20267200  0.34491800  0.36639600  1
  Ti  Ti1  1  0.82301600  0.07104500  0.55917900  1
  Ti  Ti2  1  0.52972500  0.77640800  0.41836200  1
  Ti  Ti3  1  0.75683100  0.68276100  0.17853700  1
  Ti  Ti4  1  0.34681900  0.37366900  0.10638800  1
  Ti  Ti5  1  0.44647900  0.01863200  0.21096200  1
  Ti  Ti6  1  0.02760700  0.59142700  0.40264400  1
  Ti  Ti7  1  0.69338800  0.52221100  0.89652600  1
  Ti  Ti8  1  0.77376400  0.58133500  0.57661600  1
  Ti  Ti9  1  0.64104200  0.34987500  0.65132400  1
  Ti  Ti10  1  0.22912400  0.08703500  0.93844200  1
  Ti  Ti11  1  0.96283400  0.31773300  0.57665100  1
  Ti  Ti12  1  0.14698500  0.42420800  0.83648500  1
  Ti  Ti13  1  0.30185000  0.87122200  0.67534100  1
  Ti  Ti14  1  0.93440900  0.25700600  0.02283500  1
  Ti  Ti15  1  0.43227500  0.71398800  0.03179100  1
  Ti  Ti16  1  0.82198400  0.32675500  0.32843000  1
  Ti  Ti17  1  0.29669300  0.25892700  0.65757900  1
  Ti  Ti18  1  0.54515100  0.08903400  0.70095900  1
  Ti  Ti19  1  0.51694700  0.49117800  0.35076300  1
  Ti  Ti20  1  0.67895800  0.94620500  0.03722200  1
  Ti  Ti21  1  0.01224500  0.85025500  0.54714000  1
  Ti  Ti22  1  0.89258800  0.98222300  0.84990700  1
  Ti  Ti23  1  0.31121000  0.03523100  0.45336600  1
  Ti  Ti24  1  0.13043100  0.76132900  0.87815800  1
  Ti  Ti25  1  0.63584100  0.21684600  0.99100000  1
  Ti  Ti26  1  0.19403800  0.79806800  0.23675100  1
  Ti  Ti27  1  0.31642500  0.55550500  0.57189300  1
  Ti  Ti28  1  0.99615100  0.58113200  0.07248600  1
  Ti  Ti29  1  0.65657900  0.82139600  0.71068500  1
  O  O0  1  0.23472000  0.94255600  0.83859300  1
  O  O1  1  0.09828600  0.75979900  0.38017600  1
  O  O2  1  0.52644900  0.86182200  0.03054200  1
  O  O3  1  0.79031000  0.21668400  0.45696100  1
  O  O4  1  0.30537000  0.71879000  0.91965700  1
  O  O5  1  0.48380400  0.25644600  0.63386200  1
  O  O6  1  0.61042100  0.08896600  0.12446100  1
  O  O7  1  0.25084400  0.43723600  0.97911400  1
  O  O8  1  0.81982600  0.60700600  0.02263600  1
  O  O9  1  0.43976800  0.11201100  0.35283300  1
  O  O10  1  0.49909100  0.87283000  0.75147600  1
  O  O11  1  0.31390500  0.44065400  0.70741400  1
  O  O12  1  0.58825700  0.42669900  0.79517500  1
  O  O13  1  0.03058100  0.29671800  0.40897700  1
  O  O14  1  0.62962400  0.64376800  0.29618200  1
  O  O15  1  0.06862100  0.13352500  0.00617800  1
  O  O16  1  0.82440900  0.42209100  0.66249200  1
  O  O17  1  0.99680700  0.87854200  0.92900500  1
  O  O18  1  0.91336900  0.95935200  0.45144500  1
  O  O19  1  0.73745700  0.89076300  0.86838800  1
  O  O20  1  0.36283200  0.41453400  0.44236600  1
  O  O21  1  0.24197000  0.19926100  0.49461200  1
  O  O22  1  0.17486300  0.93654200  0.54916000  1
  O  O23  1  0.10284900  0.73663800  0.10081300  1
  O  O24  1  0.70675400  0.18746500  0.68701700  1
  O  O25  1  0.06488900  0.58978600  0.89236100  1
  O  O26  1  0.53912000  0.88831300  0.28527900  1
  O  O27  1  0.11273200  0.34621800  0.65898000  1
  O  O28  1  0.25277500  0.27532200  0.21871300  1
  O  O29  1  0.56750300  0.59715600  0.99233100  1
  O  O30  1  0.99760900  0.41859200  0.09928300  1
  O  O31  1  0.81019000  0.10568600  0.96327400  1
  O  O32  1  0.00869900  0.33536500  0.87633500  1
  O  O33  1  0.34586700  0.70352700  0.65735700  1
  O  O34  1  0.11570300  0.77792000  0.71028200  1
  O  O35  1  0.91544400  0.69297800  0.53932800  1
  O  O36  1  0.75336100  0.35342900  0.96894300  1
  O  O37  1  0.86219900  0.23896300  0.18600300  1
  O  O38  1  0.25691600  0.22205900  0.82615400  1
  O  O39  1  0.77436600  0.85116200  0.14448300  1
  O  O40  1  0.65683700  0.38553800  0.29727700  1
  O  O41  1  0.36484900  0.06300700  0.64729800  1
  O  O42  1  0.91091500  0.63645300  0.24331800  1
  O  O43  1  0.62131700  0.48456000  0.53003400  1
  O  O44  1  0.87811400  0.47919100  0.43769500  1
  O  O45  1  0.55725800  0.11278800  0.87089400  1
  O  O46  1  0.90307200  0.92998400  0.68305100  1
  O  O47  1  0.33988500  0.06225100  0.06635300  1
  O  O48  1  0.72771700  0.64189200  0.75504200  1
  O  O49  1  0.42495500  0.49129800  0.20244800  1
  O  O50  1  0.41402100  0.88614300  0.50430100  1
  O  O51  1  0.65584600  0.73742300  0.54583100  1
  O  O52  1  0.14547400  0.56003900  0.53609400  1
  O  O53  1  0.34915300  0.72846700  0.18523100  1
  O  O54  1  0.49061900  0.30002300  0.03796100  1
  O  O55  1  0.66548300  0.97693300  0.61011800  1
  O  O56  1  0.95252400  0.15841800  0.64202000  1
  O  O57  1  0.26410300  0.95545100  0.28847900  1
  O  O58  1  0.42322600  0.63827800  0.43113500  1
  O  O59  1  0.13858000  0.50217800  0.29860500  1
loop_
_geom_bond_atom_site_label_1
_geom_bond_atom_site_label_2
_geom_bond_distance
_geom_bond_site_symmetry_2
O0 Ti10 1.850119 1_565
O0 Ti13 1.991681 1_555
O0 Ti24 2.253419 1_555
O1 Ti26 1.853045 1_555
O1 Ti6 1.951097 1_555
O1 Ti21 2.175543 1_555
O2 Ti20 1.817768 1_555
O2 Ti15 1.853390 1_555
O3 Ti16 1.827956 1_555
O3 Ti1 1.915394 1_555
O3 Ti11 2.440213 1_555
O4 Ti15 1.767512 1_556
O4 Ti24 1.899396 1_555
O5 Ti9 1.917086 1_555
O5 Ti17 1.935942 1_555
O5 Ti18 2.006234 1_555
O6 Ti20 1.886364 1_545
O6 Ti25 1.981900 1_554
O6 Ti5 2.063872 1_555
O7 Ti4 1.800601 1_556
O7 Ti12 1.857750 1_555
O8 Ti28 1.904940 1_555
O8 Ti3 1.929277 1_555
O8 Ti7 2.076121 1_554
O9 Ti5 1.789056 1_555
O9 Ti23 1.888343 1_555
O10 Ti29 1.747636 1_555
O10 Ti13 2.184634 1_555
O10 Ti18 2.407594 1_565
O11 Ti27 1.886402 1_555
O11 Ti17 2.000438 1_555
O11 Ti12 2.194109 1_555
O12 Ti9 1.794285 1_555
O12 Ti7 1.835515 1_555
O13 Ti0 1.900291 1_555
O13 Ti11 1.909503 1_455
O13 Ti16 2.327845 1_455
O14 Ti3 1.851864 1_555
O14 Ti19 2.085782 1_555
O14 Ti2 2.142900 1_555
O15 Ti10 1.849886 1_554
O15 Ti14 1.888858 1_455
O16 Ti8 1.983438 1_555
O16 Ti11 1.993760 1_555
O16 Ti9 2.048271 1_555
O17 Ti22 1.741704 1_555
O17 Ti24 1.905237 1_655
O18 Ti21 1.837958 1_655
O18 Ti1 1.865408 1_565
O19 Ti22 1.888291 1_555
O19 Ti20 1.961018 1_556
O19 Ti29 2.006286 1_555
O20 Ti0 1.985409 1_555
O20 Ti19 2.034247 1_555
O20 Ti27 2.063637 1_555
O21 Ti23 1.909956 1_555
O21 Ti17 1.920314 1_555
O21 Ti0 2.096272 1_555
O22 Ti21 1.917363 1_555
O22 Ti13 1.990729 1_555
O22 Ti23 2.031386 1_565
O23 Ti26 1.840239 1_555
O23 Ti28 2.014020 1_455
O23 Ti24 2.385475 1_554
O24 Ti9 1.877251 1_555
O24 Ti18 1.979990 1_555
O24 Ti1 2.160681 1_555
O25 Ti24 1.953380 1_555
O25 Ti12 2.013313 1_555
O25 Ti28 2.029498 1_456
O26 Ti5 1.845286 1_565
O26 Ti2 1.849214 1_555
O27 Ti11 1.801849 1_455
O27 Ti12 2.077717 1_555
O27 Ti17 2.088255 1_555
O28 Ti0 1.789005 1_555
O28 Ti4 1.861689 1_555
O29 Ti7 1.805381 1_555
O29 Ti15 1.885361 1_556
O30 Ti28 1.745055 1_555
O30 Ti14 2.004832 1_555
O31 Ti22 1.944311 1_545
O31 Ti25 2.142197 1_555
O31 Ti14 2.156774 1_556
O31 Ti20 2.315661 1_546
O32 Ti12 1.767300 1_555
O32 Ti14 1.922292 1_456
O33 Ti13 1.831338 1_555
O33 Ti27 1.832072 1_555
O34 Ti24 1.791493 1_555
O34 Ti21 2.169026 1_555
O34 Ti13 2.197330 1_555
O35 Ti8 1.930821 1_555
O35 Ti21 1.954650 1_655
O35 Ti6 2.116062 1_655
O36 Ti25 1.913675 1_555
O36 Ti7 2.035826 1_555
O36 Ti14 2.186142 1_556
O37 Ti16 1.804056 1_555
O37 Ti14 1.885310 1_555
O38 Ti17 1.871149 1_555
O38 Ti10 1.889180 1_555
O38 Ti12 2.402332 1_555
O39 Ti20 1.804220 1_555
O39 Ti3 1.832396 1_555
O40 Ti16 1.829035 1_555
O40 Ti19 1.885656 1_555
O41 Ti18 1.963328 1_555
O41 Ti23 2.144983 1_555
O41 Ti13 2.162715 1_545
O41 Ti17 2.177908 1_555
O42 Ti3 1.790297 1_555
O42 Ti28 2.076764 1_555
O42 Ti6 2.125537 1_655
O43 Ti9 1.933584 1_555
O43 Ti8 1.949160 1_555
O43 Ti19 2.183860 1_555
O44 Ti6 1.991999 1_655
O44 Ti16 2.068089 1_555
O44 Ti8 2.094053 1_555
O44 Ti11 2.416281 1_555
O45 Ti18 1.816805 1_555
O45 Ti25 1.869649 1_555
O46 Ti22 1.845592 1_555
O46 Ti21 1.989498 1_655
O46 Ti1 2.149645 1_565
O47 Ti10 1.790359 1_554
O47 Ti5 1.939784 1_555
O48 Ti7 2.001055 1_555
O48 Ti8 2.036695 1_555
O48 Ti29 2.081189 1_555
O49 Ti4 1.802155 1_555
O49 Ti19 1.835378 1_555
O50 Ti2 1.872248 1_555
O50 Ti23 1.963695 1_565
O50 Ti13 2.145743 1_555
O51 Ti2 1.917201 1_555
O51 Ti29 1.949287 1_555
O51 Ti8 2.060065 1_555
O52 Ti27 1.798181 1_555
O52 Ti6 1.892198 1_555
O53 Ti26 1.821426 1_555
O53 Ti15 1.831839 1_555
O54 Ti25 1.783936 1_554
O54 Ti4 1.802159 1_555
O55 Ti18 1.941724 1_565
O55 Ti29 1.969630 1_555
O55 Ti1 1.988135 1_565
O56 Ti11 1.831547 1_555
O56 Ti1 1.853208 1_555
O57 Ti26 1.902921 1_555
O57 Ti23 1.995991 1_565
O57 Ti5 2.158510 1_565
O58 Ti2 1.845947 1_555
O58 Ti19 1.996346 1_555
O58 Ti27 2.053657 1_555
O59 Ti6 1.824451 1_555
O59 Ti0 1.924251 1_555
