# generated using pymatgen
data_Zr6C(I7O5)2
_symmetry_space_group_name_H-M   'P 1'
_cell_length_a   10.54296200
_cell_length_b   10.71734777
_cell_length_c   11.24286062
_cell_angle_alpha   117.61683799
_cell_angle_beta   95.28214002
_cell_angle_gamma   95.70901376
_symmetry_Int_Tables_number   1
_chemical_formula_structural   Zr6C(I7O5)2
_chemical_formula_sum   'Zr6 C1 I14 O10'
_cell_volume   1106.20160543
_cell_formula_units_Z   1
loop_
 _symmetry_equiv_pos_site_id
 _symmetry_equiv_pos_as_xyz
  1  'x, y, z'
loop_
 _atom_site_type_symbol
 _atom_site_label
 _atom_site_symmetry_multiplicity
 _atom_site_fract_x
 _atom_site_fract_y
 _atom_site_fract_z
 _atom_site_occupancy
  Zr  Zr0  1  0.16044300  0.75599500  0.28179700  1
  Zr  Zr1  1  0.83955700  0.24400500  0.71820300  1
  Zr  Zr2  1  0.15403200  0.92045700  0.81501600  1
  Zr  Zr3  1  0.84596800  0.07954300  0.18498400  1
  Zr  Zr4  1  0.23011900  0.23360900  0.99744500  1
  Zr  Zr5  1  0.76988100  0.76639100  0.00255500  1
  C  C0  1  0.00000000  0.00000000  0.00000000  1
  I  I0  1  0.34729100  0.98994200  0.25112000  1
  I  I1  1  0.65270900  0.01005800  0.74888000  1
  I  I2  1  0.93135800  0.72334200  0.83895900  1
  I  I3  1  0.06864200  0.27665800  0.16104100  1
  I  I4  1  0.27633300  0.71010800  0.08813100  1
  I  I5  1  0.72366700  0.28989200  0.91186900  1
  I  I6  1  0.33776800  0.13779900  0.83467600  1
  I  I7  1  0.66223200  0.86220100  0.16532400  1
  I  I8  1  0.93980800  0.57657200  0.25229000  1
  I  I9  1  0.06019200  0.42342800  0.74771000  1
  I  I10  1  0.00710500  0.85219900  0.41484800  1
  I  I11  1  0.99289500  0.14780100  0.58515200  1
  I  I12  1  0.46713100  0.64935200  0.69240800  1
  I  I13  1  0.53286900  0.35064800  0.30759200  1
  O  O0  1  0.24720300  0.62228800  0.43336600  1
  O  O1  1  0.75279700  0.37771200  0.56663400  1
  O  O2  1  0.35125100  0.36335900  0.99119500  1
  O  O3  1  0.64874900  0.63664100  0.00880500  1
  O  O4  1  0.23761200  0.87222400  0.72138000  1
  O  O5  1  0.76238800  0.12777600  0.27862000  1
  O  O6  1  0.68344500  0.78271500  0.51925000  1
  O  O7  1  0.31655500  0.21728500  0.48075000  1
  O  O8  1  0.60397800  0.68066500  0.54951800  1
  O  O9  1  0.39602200  0.31933500  0.45048200  1
loop_
_geom_bond_atom_site_label_1
_geom_bond_atom_site_label_2
_geom_bond_distance
_geom_bond_site_symmetry_2
C0 Zr3 2.634932 1_455
C0 Zr2 2.634932 1_544
C0 I3 2.635918 1_555
C0 I2 2.635918 1_444
I0 I4 2.667984 1_555
I0 O7 2.680677 1_565
I0 Zr0 3.198477 1_555
I1 I5 2.667984 1_555
I1 O6 2.680677 1_545
I1 Zr1 3.198477 1_555
I2 Zr5 2.537759 1_556
I2 Zr2 3.115065 1_655
I3 Zr4 2.537759 1_554
I3 Zr3 3.115065 1_455
I4 Zr0 2.468243 1_555
I5 Zr1 2.468243 1_555
I6 Zr4 2.136226 1_555
I6 O2 2.214125 1_555
I6 O4 2.575242 1_545
I6 Zr2 2.788044 1_545
I7 Zr5 2.136226 1_555
I7 O3 2.214125 1_555
I7 O5 2.575242 1_565
I7 Zr3 2.788044 1_565
I8 Zr0 2.755952 1_655
I9 Zr1 2.755952 1_455
I10 Zr0 2.293728 1_555
I11 Zr1 2.293728 1_555
I12 O8 2.367549 1_555
I13 O9 2.367549 1_555
O0 Zr0 2.834024 1_555
O1 Zr1 2.834024 1_555
O2 Zr4 1.823018 1_555
O3 Zr5 1.823018 1_555
O4 Zr2 1.381611 1_555
O5 Zr3 1.381611 1_555
O6 O8 1.493044 1_555
O7 O9 1.493044 1_555
