# generated using pymatgen
data_InGa4Sb5
_symmetry_space_group_name_H-M   'P 1'
_cell_length_a   18.36346527
_cell_length_b   18.36346527
_cell_length_c   18.36346538
_cell_angle_alpha   14.00511007
_cell_angle_beta   14.00511007
_cell_angle_gamma   14.00510853
_symmetry_Int_Tables_number   1
_chemical_formula_structural   InGa4Sb5
_chemical_formula_sum   'In1 Ga4 Sb5'
_cell_volume   315.65478961
_cell_formula_units_Z   1
loop_
 _symmetry_equiv_pos_site_id
 _symmetry_equiv_pos_as_xyz
  1  'x, y, z'
loop_
 _atom_site_type_symbol
 _atom_site_label
 _atom_site_symmetry_multiplicity
 _atom_site_fract_x
 _atom_site_fract_y
 _atom_site_fract_z
 _atom_site_occupancy
  In  In0  1  0.60046300  0.60046300  0.60046300  1
  Ga  Ga0  1  0.00118900  0.00118900  0.00118900  1
  Ga  Ga1  1  0.40016800  0.40016800  0.40016800  1
  Ga  Ga2  1  0.79974400  0.79974400  0.79974400  1
  Ga  Ga3  1  0.19850700  0.19850700  0.19850700  1
  Sb  Sb0  1  0.05060900  0.05060900  0.05060900  1
  Sb  Sb1  1  0.45001100  0.45001100  0.45001100  1
  Sb  Sb2  1  0.84932600  0.84932600  0.84932600  1
  Sb  Sb3  1  0.24750000  0.24750000  0.24750000  1
  Sb  Sb4  1  0.65248200  0.65248200  0.65248200  1
loop_
_geom_bond_atom_site_label_1
_geom_bond_atom_site_label_2
_geom_bond_distance
_geom_bond_site_symmetry_2
In0 Sb3 2.798030 1_565
In0 Sb3 2.798030 1_655
In0 Sb3 2.798030 1_556
In0 Sb4 2.837210 1_555
Ga0 Sb0 2.695455 1_555
Ga0 Sb4 2.717683 1_544
Ga0 Sb4 2.717683 1_454
Ga0 Sb4 2.717683 1_445
Ga1 Sb1 2.718527 1_555
Ga1 Sb0 2.732378 1_565
Ga1 Sb0 2.732378 1_655
Ga1 Sb0 2.732378 1_556
Ga2 Sb2 2.704291 1_555
Ga2 Sb1 2.735466 1_565
Ga2 Sb1 2.735466 1_655
Ga2 Sb1 2.735467 1_556
Ga3 Sb3 2.672166 1_555
Ga3 Sb2 2.725770 1_544
Ga3 Sb2 2.725770 1_454
Ga3 Sb2 2.725771 1_445
