# generated using pymatgen
data_PaHgTe2
_symmetry_space_group_name_H-M   'P 1'
_cell_length_a   5.41833394
_cell_length_b   5.41833394
_cell_length_c   5.41833394
_cell_angle_alpha   60.00000000
_cell_angle_beta   60.00000000
_cell_angle_gamma   60.00000000
_symmetry_Int_Tables_number   1
_chemical_formula_structural   PaHgTe2
_chemical_formula_sum   'Pa1 Hg1 Te2'
_cell_volume   112.48181223
_cell_formula_units_Z   1
loop_
 _symmetry_equiv_pos_site_id
 _symmetry_equiv_pos_as_xyz
  1  'x, y, z'
loop_
 _atom_site_type_symbol
 _atom_site_label
 _atom_site_symmetry_multiplicity
 _atom_site_fract_x
 _atom_site_fract_y
 _atom_site_fract_z
 _atom_site_occupancy
  Pa  Pa0  1  -0.00000000  -0.00000000  -0.00000000  1
  Hg  Hg0  1  0.50000000  0.50000000  0.50000000  1
  Te  Te0  1  0.25000000  0.25000000  0.25000000  1
  Te  Te1  1  0.75000000  0.75000000  0.75000000  1
loop_
_geom_bond_atom_site_label_1
_geom_bond_atom_site_label_2
_geom_bond_distance
_geom_bond_site_symmetry_2
Pa0 Te0 3.318038 1_554
Pa0 Te0 3.318038 1_555
Pa0 Te1 3.318038 1_445
Pa0 Te1 3.318038 1_444
Pa0 Te1 3.318038 1_454
Pa0 Te1 3.318038 1_544
Pa0 Te0 3.318038 1_455
Pa0 Te0 3.318038 1_545
Hg0 Te1 3.318038 1_555
Hg0 Te1 3.318038 1_554
Hg0 Te0 3.318038 1_555
Hg0 Te0 3.318038 1_556
Hg0 Te0 3.318038 1_565
Hg0 Te1 3.318038 1_545
Hg0 Te0 3.318038 1_655
Hg0 Te1 3.318038 1_455
Hg0 Pa0 3.831341 1_656
Hg0 Pa0 3.831341 1_655
Hg0 Pa0 3.831341 1_566
Hg0 Pa0 3.831341 1_565
Hg0 Pa0 3.831341 1_665
Hg0 Pa0 3.831341 1_556
