# generated using pymatgen
data_Np2Re3Si5
_symmetry_space_group_name_H-M   'P 1'
_cell_length_a   11.00387700
_cell_length_b   11.00387700
_cell_length_c   5.49446400
_cell_angle_alpha   90.00000000
_cell_angle_beta   90.00000000
_cell_angle_gamma   90.00000000
_symmetry_Int_Tables_number   1
_chemical_formula_structural   Np2Re3Si5
_chemical_formula_sum   'Np8 Re12 Si20'
_cell_volume   665.29887140
_cell_formula_units_Z   4
loop_
 _symmetry_equiv_pos_site_id
 _symmetry_equiv_pos_as_xyz
  1  'x, y, z'
loop_
 _atom_site_type_symbol
 _atom_site_label
 _atom_site_symmetry_multiplicity
 _atom_site_fract_x
 _atom_site_fract_y
 _atom_site_fract_z
 _atom_site_occupancy
  Np  Np0  1  0.57454100  0.73553100  0.50000000  1
  Np  Np1  1  0.42545900  0.26446900  0.50000000  1
  Np  Np2  1  0.07454100  0.76446900  0.00000000  1
  Np  Np3  1  0.92545900  0.23553100  0.00000000  1
  Np  Np4  1  0.26446900  0.57454100  0.50000000  1
  Np  Np5  1  0.73553100  0.42545900  0.50000000  1
  Np  Np6  1  0.23553100  0.07454100  0.00000000  1
  Np  Np7  1  0.76446900  0.92545900  0.00000000  1
  Re  Re0  1  0.87729000  0.85815000  0.50000000  1
  Re  Re1  1  0.12271000  0.14185000  0.50000000  1
  Re  Re2  1  0.37729000  0.64185000  0.00000000  1
  Re  Re3  1  0.62271000  0.35815000  0.00000000  1
  Re  Re4  1  0.14185000  0.87729000  0.50000000  1
  Re  Re5  1  0.85815000  0.12271000  0.50000000  1
  Re  Re6  1  0.35815000  0.37729000  0.00000000  1
  Re  Re7  1  0.64185000  0.62271000  0.00000000  1
  Re  Re8  1  0.50000000  0.00000000  0.25000000  1
  Re  Re9  1  0.00000000  0.50000000  0.75000000  1
  Re  Re10  1  0.00000000  0.50000000  0.25000000  1
  Re  Re11  1  0.50000000  0.00000000  0.75000000  1
  Si  Si0  1  0.67461500  0.17461500  0.25000000  1
  Si  Si1  1  0.32538500  0.82538500  0.25000000  1
  Si  Si2  1  0.17461500  0.32538500  0.75000000  1
  Si  Si3  1  0.82538500  0.67461500  0.75000000  1
  Si  Si4  1  0.82538500  0.67461500  0.25000000  1
  Si  Si5  1  0.17461500  0.32538500  0.25000000  1
  Si  Si6  1  0.67461500  0.17461500  0.75000000  1
  Si  Si7  1  0.32538500  0.82538500  0.75000000  1
  Si  Si8  1  0.50000000  0.50000000  0.26996300  1
  Si  Si9  1  0.00000000  0.00000000  0.76996300  1
  Si  Si10  1  0.50000000  0.50000000  0.73003700  1
  Si  Si11  1  0.00000000  0.00000000  0.23003700  1
  Si  Si12  1  0.68543300  0.97342000  0.50000000  1
  Si  Si13  1  0.31456700  0.02658000  0.50000000  1
  Si  Si14  1  0.18543300  0.52658000  0.00000000  1
  Si  Si15  1  0.81456700  0.47342000  0.00000000  1
  Si  Si16  1  0.02658000  0.68543300  0.50000000  1
  Si  Si17  1  0.97342000  0.31456700  0.50000000  1
  Si  Si18  1  0.47342000  0.18543300  0.00000000  1
  Si  Si19  1  0.52658000  0.81456700  0.00000000  1
loop_
_geom_bond_atom_site_label_1
_geom_bond_atom_site_label_2
_geom_bond_distance
_geom_bond_site_symmetry_2
Np0 Si12 2.888140 1_555
Np0 Si19 2.929538 1_556
Np0 Si19 2.929538 1_555
Np0 Si10 2.997916 1_555
Np0 Si8 2.997916 1_555
Np0 Re7 3.104369 1_555
Np0 Re7 3.104369 1_556
Np0 Si3 3.155179 1_555
Np0 Si4 3.155179 1_555
Np0 Si1 3.221995 1_555
Np0 Si7 3.221995 1_555
Np0 Re11 3.320962 1_565
Np0 Re8 3.320962 1_565
Np1 Si13 2.888140 1_555
Np1 Si18 2.929538 1_555
Np1 Si18 2.929538 1_556
Np1 Si10 2.997916 1_555
Np1 Si8 2.997916 1_555
Np1 Re6 3.104369 1_556
Np1 Re6 3.104369 1_555
Np1 Si5 3.155179 1_555
Np1 Si2 3.155179 1_555
Np1 Si0 3.221995 1_555
Np1 Si6 3.221995 1_555
Np1 Re11 3.320962 1_555
Np1 Re8 3.320962 1_555
Np2 Si14 2.888140 1_555
Np2 Si16 2.929538 1_555
Np2 Si16 2.929538 1_554
Np2 Si9 2.997916 1_564
Np2 Si11 2.997916 1_565
Np2 Re4 3.104369 1_554
Np2 Re4 3.104369 1_555
Np2 Si1 3.155179 1_555
Np2 Si7 3.155179 1_554
Np2 Si3 3.221995 1_454
Np2 Si4 3.221995 1_455
Np2 Re10 3.320962 1_555
Np2 Re9 3.320962 1_554
Np3 Si15 2.888140 1_555
Np3 Si17 2.929538 1_554
Np3 Si17 2.929538 1_555
Np3 Si9 2.997916 1_654
Np3 Si11 2.997916 1_655
Np3 Re5 3.104369 1_555
Np3 Re5 3.104369 1_554
Np3 Si6 3.155179 1_554
Np3 Si0 3.155179 1_555
Np3 Si2 3.221995 1_654
Np3 Si5 3.221995 1_655
Np3 Re9 3.320962 1_654
Np3 Re10 3.320962 1_655
Np4 Si16 2.888140 1_555
Np4 Si14 2.929538 1_555
Np4 Si14 2.929538 1_556
Np4 Si10 2.997916 1_555
Np4 Si8 2.997916 1_555
Np4 Re2 3.104369 1_556
Np4 Re2 3.104369 1_555
Np4 Si1 3.155179 1_555
Np4 Si7 3.155179 1_555
Np4 Si5 3.221995 1_555
Np4 Si2 3.221995 1_555
Np4 Re9 3.320962 1_555
Np4 Re10 3.320962 1_555
Np5 Si17 2.888140 1_555
Np5 Si15 2.929538 1_555
Np5 Si15 2.929538 1_556
Np5 Si10 2.997916 1_555
Np5 Si8 2.997916 1_555
Np5 Re3 3.104369 1_555
Np5 Re3 3.104369 1_556
Np5 Si6 3.155179 1_555
Np5 Si0 3.155179 1_555
Np5 Si4 3.221995 1_555
Np5 Si3 3.221995 1_555
Np5 Re9 3.320962 1_655
Np5 Re10 3.320962 1_655
Np6 Si18 2.888140 1_555
Np6 Si13 2.929538 1_555
Np6 Si13 2.929538 1_554
Np6 Si11 2.997916 1_555
Np6 Si9 2.997916 1_554
Np6 Re1 3.104369 1_555
Np6 Re1 3.104369 1_554
Np6 Si5 3.155179 1_555
Np6 Si2 3.155179 1_554
Np6 Si7 3.221995 1_544
Np6 Si1 3.221995 1_545
Np6 Re11 3.320962 1_554
Np6 Re8 3.320962 1_555
Np7 Si19 2.888140 1_555
Np7 Si12 2.929538 1_554
Np7 Si12 2.929538 1_555
Np7 Si11 2.997916 1_665
Np7 Si9 2.997916 1_664
Np7 Re0 3.104369 1_554
Np7 Re0 3.104369 1_555
Np7 Si3 3.155179 1_554
Np7 Si4 3.155179 1_555
Np7 Si6 3.221995 1_564
Np7 Si0 3.221995 1_565
Np7 Re8 3.320962 1_565
Np7 Re11 3.320962 1_564
Re0 Si12 2.462910 1_555
Re0 Si4 2.508348 1_555
Re0 Si3 2.508348 1_555
Re0 Si16 2.512132 1_655
Re0 Si9 2.541626 1_665
Re0 Si11 2.541626 1_665
Re1 Si13 2.462910 1_555
Re1 Si2 2.508348 1_555
Re1 Si5 2.508348 1_555
Re1 Si17 2.512132 1_455
Re1 Si9 2.541626 1_555
Re1 Si11 2.541626 1_555
Re2 Si14 2.462910 1_555
Re2 Si1 2.508348 1_555
Re2 Si7 2.508348 1_554
Re2 Si19 2.512132 1_555
Re2 Si8 2.541626 1_555
Re2 Si10 2.541626 1_554
Re3 Si15 2.462910 1_555
Re3 Si6 2.508348 1_554
Re3 Si0 2.508348 1_555
Re3 Si18 2.512132 1_555
Re3 Si8 2.541626 1_555
Re3 Si10 2.541626 1_554
Re4 Si16 2.462910 1_555
Re4 Si7 2.508348 1_555
Re4 Si1 2.508348 1_555
Re4 Si13 2.512132 1_565
Re4 Si9 2.541626 1_565
Re4 Si11 2.541626 1_565
Re5 Si17 2.462910 1_555
Re5 Si6 2.508348 1_555
Re5 Si0 2.508348 1_555
Re5 Si12 2.512132 1_545
Re5 Si9 2.541626 1_655
Re5 Si11 2.541626 1_655
Re6 Si18 2.462910 1_555
Re6 Si5 2.508348 1_555
Re6 Si2 2.508348 1_554
Re6 Si14 2.512132 1_555
Re6 Si8 2.541626 1_555
Re6 Si10 2.541626 1_554
Re7 Si19 2.462910 1_555
Re7 Si4 2.508348 1_555
Re7 Si3 2.508348 1_554
Re7 Si15 2.512132 1_555
Re7 Si8 2.541626 1_555
Re7 Si10 2.541626 1_554
Re8 Si12 2.477082 1_545
Re8 Si18 2.477082 1_555
Re8 Si13 2.477082 1_555
Re8 Si19 2.477082 1_545
Re8 Si0 2.717329 1_555
Re8 Si1 2.717329 1_545
Re9 Si16 2.477082 1_555
Re9 Si17 2.477082 1_455
Re9 Si14 2.477082 1_556
Re9 Si15 2.477082 1_456
Re9 Si2 2.717329 1_555
Re9 Si3 2.717329 1_455
Re10 Si16 2.477082 1_555
Re10 Si17 2.477082 1_455
Re10 Si14 2.477082 1_555
Re10 Si15 2.477082 1_455
Re10 Si5 2.717329 1_555
Re10 Si4 2.717329 1_455
Re10 Re9 2.747232 1_554
Re10 Re9 2.747232 1_555
Re11 Si12 2.477082 1_545
Re11 Si13 2.477082 1_555
Re11 Si18 2.477082 1_556
Re11 Si19 2.477082 1_546
Re11 Si6 2.717329 1_555
Re11 Si7 2.717329 1_545
Re11 Re8 2.747232 1_556
Re11 Re8 2.747232 1_555
Si0 Si18 2.608152 1_555
Si0 Si12 2.608152 1_545
Si0 Si6 2.747232 1_555
Si0 Si6 2.747232 1_554
Si1 Si19 2.608152 1_555
Si1 Si13 2.608152 1_565
Si1 Si7 2.747232 1_555
Si1 Si7 2.747232 1_554
Si2 Si5 2.747232 1_556
Si2 Si5 2.747232 1_555
Si3 Si4 2.747232 1_555
Si3 Si4 2.747232 1_556
Si10 Si8 2.527860 1_555
Si11 Si9 2.527860 1_554
Si12 Si6 2.608152 1_565
Si13 Si7 2.608152 1_545
Si14 Si2 2.608152 1_554
Si14 Si5 2.608152 1_555
Si15 Si3 2.608152 1_554
Si15 Si4 2.608152 1_555
Si16 Si3 2.608152 1_455
Si16 Si4 2.608152 1_455
Si17 Si5 2.608152 1_655
Si17 Si2 2.608152 1_655
Si18 Si6 2.608152 1_554
Si19 Si7 2.608152 1_554
