# generated using pymatgen
data_SrNd3
_symmetry_space_group_name_H-M   'P 1'
_cell_length_a   7.66149226
_cell_length_b   7.66149226
_cell_length_c   6.08282400
_cell_angle_alpha   90.00000000
_cell_angle_beta   90.00000000
_cell_angle_gamma   120.00000222
_symmetry_Int_Tables_number   1
_chemical_formula_structural   SrNd3
_chemical_formula_sum   'Sr2 Nd6'
_cell_volume   309.21646205
_cell_formula_units_Z   2
loop_
 _symmetry_equiv_pos_site_id
 _symmetry_equiv_pos_as_xyz
  1  'x, y, z'
loop_
 _atom_site_type_symbol
 _atom_site_label
 _atom_site_symmetry_multiplicity
 _atom_site_fract_x
 _atom_site_fract_y
 _atom_site_fract_z
 _atom_site_occupancy
  Sr  Sr0  1  0.33333300  0.66666700  0.75000000  1
  Sr  Sr1  1  0.66666700  0.33333300  0.25000000  1
  Nd  Nd0  1  0.15993900  0.31987900  0.25000000  1
  Nd  Nd1  1  0.68012100  0.84006100  0.25000000  1
  Nd  Nd2  1  0.15993900  0.84006100  0.25000000  1
  Nd  Nd3  1  0.84006100  0.68012100  0.75000000  1
  Nd  Nd4  1  0.31987900  0.15993900  0.75000000  1
  Nd  Nd5  1  0.84006100  0.15993900  0.75000000  1
loop_
_geom_bond_atom_site_label_1
_geom_bond_atom_site_label_2
_geom_bond_distance
_geom_bond_site_symmetry_2
Nd0 Nd1 3.676122 1_445
Nd0 Nd2 3.676122 1_545
Nd0 Nd5 3.708745 1_454
Nd0 Nd5 3.708745 1_455
Nd0 Nd4 3.708753 1_555
Nd0 Nd4 3.708753 1_554
Nd0 Sr0 3.813736 1_554
Nd0 Sr0 3.813736 1_555
Nd0 Sr1 3.831778 1_455
Nd0 Sr1 3.831794 1_555
Nd0 Nd1 3.985370 1_555
Nd0 Nd2 3.985370 1_555
Nd1 Nd2 3.676122 1_655
Nd1 Nd5 3.708745 1_565
Nd1 Nd5 3.708745 1_564
Nd1 Nd3 3.708753 1_554
Nd1 Nd3 3.708753 1_555
Nd1 Sr0 3.813736 1_555
Nd1 Sr0 3.813736 1_554
Nd1 Sr1 3.831778 1_565
Nd1 Sr1 3.831794 1_555
Nd1 Nd2 3.985370 1_555
Nd2 Nd3 3.708745 1_455
Nd2 Nd3 3.708745 1_454
Nd2 Nd4 3.708745 1_565
Nd2 Nd4 3.708745 1_564
Nd2 Sr0 3.813736 1_555
Nd2 Sr0 3.813736 1_554
Nd2 Sr1 3.831786 1_455
Nd2 Sr1 3.831786 1_565
Nd3 Nd4 3.676122 1_665
Nd3 Nd5 3.676122 1_565
Nd3 Sr1 3.813736 1_555
Nd3 Sr1 3.813736 1_556
Nd3 Sr0 3.831778 1_655
Nd3 Sr0 3.831794 1_555
Nd3 Nd4 3.985370 1_555
Nd3 Nd5 3.985370 1_555
Nd4 Nd5 3.676122 1_455
Nd4 Sr1 3.813736 1_555
Nd4 Sr1 3.813736 1_556
Nd4 Sr0 3.831778 1_545
Nd4 Sr0 3.831794 1_555
Nd4 Nd5 3.985370 1_555
Nd5 Sr1 3.813736 1_555
Nd5 Sr1 3.813736 1_556
Nd5 Sr0 3.831786 1_545
Nd5 Sr0 3.831786 1_655
