# generated using pymatgen
data_BaGdAuSe3
_symmetry_space_group_name_H-M   'P 1'
_cell_length_a   7.49363218
_cell_length_b   7.49363218
_cell_length_c   10.84506800
_cell_angle_alpha   90.00000000
_cell_angle_beta   90.00000000
_cell_angle_gamma   146.81103471
_symmetry_Int_Tables_number   1
_chemical_formula_structural   BaGdAuSe3
_chemical_formula_sum   'Ba2 Gd2 Au2 Se6'
_cell_volume   333.36764736
_cell_formula_units_Z   2
loop_
 _symmetry_equiv_pos_site_id
 _symmetry_equiv_pos_as_xyz
  1  'x, y, z'
loop_
 _atom_site_type_symbol
 _atom_site_label
 _atom_site_symmetry_multiplicity
 _atom_site_fract_x
 _atom_site_fract_y
 _atom_site_fract_z
 _atom_site_occupancy
  Ba  Ba0  1  0.75217500  0.24782500  0.25000000  1
  Ba  Ba1  1  0.24782500  0.75217500  0.75000000  1
  Gd  Gd0  1  0.00000000  0.00000000  0.50000000  1
  Gd  Gd1  1  0.00000000  0.00000000  0.00000000  1
  Au  Au0  1  0.53525800  0.46474200  0.75000000  1
  Au  Au1  1  0.46474200  0.53525800  0.25000000  1
  Se  Se0  1  0.07894500  0.92105500  0.25000000  1
  Se  Se1  1  0.92105500  0.07894500  0.75000000  1
  Se  Se2  1  0.63793000  0.36207000  0.55090300  1
  Se  Se3  1  0.63793000  0.36207000  0.94909700  1
  Se  Se4  1  0.36207000  0.63793000  0.05090300  1
  Se  Se5  1  0.36207000  0.63793000  0.44909700  1
loop_
_geom_bond_atom_site_label_1
_geom_bond_atom_site_label_2
_geom_bond_distance
_geom_bond_site_symmetry_2
Ba0 Se0 3.281912 1_545
Ba0 Se0 3.281912 1_655
Ba0 Se4 3.425480 1_545
Ba0 Se4 3.425480 1_655
Ba0 Se5 3.425480 1_545
Ba0 Se5 3.425480 1_655
Ba0 Se3 3.652641 1_554
Ba0 Se2 3.652641 1_555
Ba1 Se1 3.281912 1_565
Ba1 Se1 3.281912 1_455
Ba1 Se2 3.425480 1_455
Ba1 Se3 3.425480 1_455
Ba1 Se3 3.425480 1_565
Ba1 Se2 3.425480 1_565
Ba1 Se4 3.652641 1_556
Ba1 Se5 3.652641 1_555
Gd0 Se1 2.938822 1_455
Gd0 Se0 2.938822 1_545
Gd0 Se5 2.968121 1_445
Gd0 Se5 2.968121 1_555
Gd0 Se2 2.968121 1_445
Gd0 Se2 2.968121 1_555
Gd1 Se1 2.938822 1_454
Gd1 Se0 2.938822 1_545
Gd1 Se4 2.968121 1_445
Gd1 Se3 2.968121 1_554
Gd1 Se4 2.968121 1_555
Gd1 Se3 2.968121 1_444
Au0 Se2 2.614751 1_555
Au0 Se3 2.614751 1_555
Au0 Se1 2.696450 1_455
Au0 Se1 2.696450 1_565
Au0 Gd0 3.491085 1_555
Au0 Gd0 3.491085 1_665
Au0 Gd1 3.491085 1_556
Au0 Gd1 3.491085 1_666
Au0 Ba1 3.728502 1_655
Au0 Ba1 3.728502 1_545
Au1 Se4 2.614751 1_555
Au1 Se5 2.614751 1_555
Au1 Se0 2.696450 1_545
Au1 Se0 2.696450 1_655
Au1 Gd0 3.491085 1_555
Au1 Gd0 3.491085 1_665
Au1 Gd1 3.491085 1_665
Au1 Gd1 3.491085 1_555
Au1 Ba0 3.728502 1_455
Au1 Ba0 3.728502 1_565
