# generated using pymatgen
data_TiVO4
_symmetry_space_group_name_H-M   'P 1'
_cell_length_a   3.72492246
_cell_length_b   19.46999593
_cell_length_c   3.87022436
_cell_angle_alpha   89.97807246
_cell_angle_beta   90.01701324
_cell_angle_gamma   90.21984409
_symmetry_Int_Tables_number   1
_chemical_formula_structural   TiVO4
_chemical_formula_sum   'Ti4 V4 O16'
_cell_volume   280.68292375
_cell_formula_units_Z   4
loop_
 _symmetry_equiv_pos_site_id
 _symmetry_equiv_pos_as_xyz
  1  'x, y, z'
loop_
 _atom_site_type_symbol
 _atom_site_label
 _atom_site_symmetry_multiplicity
 _atom_site_fract_x
 _atom_site_fract_y
 _atom_site_fract_z
 _atom_site_occupancy
  Ti  Ti0  1  0.01220800  0.37885300  0.50083700  1
  Ti  Ti1  1  0.49432000  0.62879800  0.00023600  1
  Ti  Ti2  1  0.00669800  0.87902600  0.50037400  1
  Ti  Ti3  1  0.51079800  0.12906900  0.99972100  1
  V  V0  1  0.96845900  0.49764400  0.00022700  1
  V  V1  1  0.53063000  0.74771100  0.49988700  1
  V  V2  1  0.97071200  0.99789900  0.99983500  1
  V  V3  1  0.47221700  0.24778600  0.49995200  1
  O  O0  1  0.00730500  0.47785000  0.50018900  1
  O  O1  1  0.49170100  0.72775100  0.99967700  1
  O  O2  1  0.00872300  0.97792700  0.49991200  1
  O  O3  1  0.51034700  0.22792600  0.99989600  1
  O  O4  1  0.00316300  0.26886000  0.49889100  1
  O  O5  1  0.49911500  0.51871800  0.99993300  1
  O  O6  1  0.00042900  0.76879100  0.49939500  1
  O  O7  1  0.50198900  0.01900900  0.99964900  1
  O  O8  1  0.50485000  0.64834600  0.50013400  1
  O  O9  1  0.99648200  0.89859300  0.00012100  1
  O  O10  1  0.50093200  0.14850300  0.50046900  1
  O  O11  1  0.99979000  0.39846200  0.00020000  1
  O  O12  1  0.00389100  0.10326500  0.99970800  1
  O  O13  1  0.50423200  0.35304100  0.50002200  1
  O  O14  1  0.99945800  0.60303900  0.00038200  1
  O  O15  1  0.50155000  0.85313300  0.50035100  1
loop_
_geom_bond_atom_site_label_1
_geom_bond_atom_site_label_2
_geom_bond_distance
_geom_bond_site_symmetry_2
O0 Ti0 1.927628 1_555
O0 V0 1.978192 1_455
O0 V0 1.978852 1_456
O1 Ti1 1.926677 1_556
O1 V1 1.978061 1_555
O1 V1 1.979857 1_556
O2 Ti2 1.925588 1_555
O2 V2 1.978869 1_455
O2 V2 1.979078 1_454
O3 Ti3 1.924753 1_555
O3 V3 1.978180 1_555
O3 V3 1.978976 1_556
O4 V3 1.796257 1_555
O4 V3 2.018310 1_455
O4 Ti0 2.141715 1_555
O5 V0 1.797306 1_556
O5 V0 2.017248 1_456
O5 Ti1 2.143401 1_556
O6 V1 1.795918 1_455
O6 V1 2.018695 1_555
O6 Ti2 2.146317 1_555
O7 V2 1.795216 1_545
O7 V2 2.019652 1_445
O7 Ti3 2.142993 1_555
O8 V1 1.936650 1_555
O8 Ti1 1.972291 1_555
O8 Ti1 1.972802 1_556
O9 V2 1.936236 1_554
O9 Ti2 1.971846 1_654
O9 Ti2 1.973458 1_655
O10 V3 1.936407 1_555
O10 Ti3 1.969134 1_555
O10 Ti3 1.975121 1_554
O11 V0 1.935043 1_555
O11 Ti0 1.970730 1_654
O11 Ti0 1.975253 1_655
O12 Ti3 1.906064 1_455
O12 Ti3 1.952022 1_555
O12 V2 2.054721 1_445
O13 Ti0 1.902269 1_555
O13 Ti0 1.955911 1_655
O13 V3 2.052325 1_555
O14 Ti1 1.908474 1_655
O14 Ti1 1.949151 1_555
O14 V0 2.054844 1_555
O15 Ti2 1.912848 1_555
O15 Ti2 1.946133 1_655
O15 V1 2.055839 1_555
