# generated using pymatgen
data_Mg6TiAl
_symmetry_space_group_name_H-M   'P 1'
_cell_length_a   4.85689200
_cell_length_b   6.30473700
_cell_length_c   10.88557500
_cell_angle_alpha   90.00000000
_cell_angle_beta   90.00000000
_cell_angle_gamma   90.00000000
_symmetry_Int_Tables_number   1
_chemical_formula_structural   Mg6TiAl
_chemical_formula_sum   'Mg12 Ti2 Al2'
_cell_volume   333.33183692
_cell_formula_units_Z   2
loop_
 _symmetry_equiv_pos_site_id
 _symmetry_equiv_pos_as_xyz
  1  'x, y, z'
loop_
 _atom_site_type_symbol
 _atom_site_label
 _atom_site_symmetry_multiplicity
 _atom_site_fract_x
 _atom_site_fract_y
 _atom_site_fract_z
 _atom_site_occupancy
  Mg  Mg0  1  0.00000000  0.25579900  0.08566000  1
  Mg  Mg1  1  0.00000000  0.74420100  0.08566000  1
  Mg  Mg2  1  0.00000000  0.50000000  0.83275000  1
  Mg  Mg3  1  0.50000000  0.24554300  0.91715600  1
  Mg  Mg4  1  0.50000000  0.75445700  0.91715600  1
  Mg  Mg5  1  0.50000000  0.50000000  0.66649700  1
  Mg  Mg6  1  0.00000000  0.75579900  0.58566000  1
  Mg  Mg7  1  0.00000000  0.24420100  0.58566000  1
  Mg  Mg8  1  0.00000000  0.00000000  0.33275000  1
  Mg  Mg9  1  0.50000000  0.74554300  0.41715600  1
  Mg  Mg10  1  0.50000000  0.25445700  0.41715600  1
  Mg  Mg11  1  0.50000000  0.00000000  0.16649700  1
  Ti  Ti0  1  0.50000000  0.50000000  0.17548100  1
  Ti  Ti1  1  0.50000000  0.00000000  0.67548100  1
  Al  Al0  1  0.00000000  0.50000000  0.31963900  1
  Al  Al1  1  0.00000000  0.00000000  0.81963900  1
loop_
_geom_bond_atom_site_label_1
_geom_bond_atom_site_label_2
_geom_bond_distance
_geom_bond_site_symmetry_2
Mg0 Ti0 3.037069 1_555
Mg0 Ti0 3.037069 1_455
Mg0 Mg3 3.044019 1_454
Mg0 Mg3 3.044019 1_554
Mg0 Mg11 3.045098 1_555
Mg0 Mg11 3.045098 1_455
Mg0 Mg1 3.079246 1_555
Mg0 Mg8 3.136164 1_555
Mg0 Mg2 3.154336 1_554
Mg0 Mg1 3.225491 1_545
Mg1 Ti0 3.037069 1_555
Mg1 Ti0 3.037069 1_455
Mg1 Mg4 3.044019 1_554
Mg1 Mg4 3.044019 1_454
Mg1 Mg11 3.045098 1_565
Mg1 Mg11 3.045098 1_465
Mg1 Mg8 3.136164 1_565
Mg1 Mg2 3.154336 1_554
Mg2 Mg5 3.028627 1_455
Mg2 Mg5 3.028627 1_555
Mg2 Mg4 3.052095 1_555
Mg2 Mg4 3.052095 1_455
Mg2 Mg3 3.052095 1_455
Mg2 Mg3 3.052095 1_555
Mg2 Mg6 3.136164 1_555
Mg2 Mg7 3.136164 1_555
Mg3 Ti1 3.052462 1_555
Mg3 Mg4 3.096168 1_545
Mg3 Mg5 3.165250 1_555
Mg3 Mg4 3.208569 1_555
Mg3 Ti0 3.237463 1_556
Mg4 Ti1 3.052462 1_565
Mg4 Mg5 3.165250 1_555
Mg4 Ti0 3.237463 1_556
Mg5 Mg7 3.045098 1_555
Mg5 Mg6 3.045098 1_655
Mg5 Mg7 3.045098 1_655
Mg5 Mg6 3.045098 1_555
Mg5 Mg9 3.124669 1_555
Mg5 Ti1 3.153885 1_555
Mg5 Ti1 3.153885 1_565
Mg6 Ti1 3.037069 1_465
Mg6 Ti1 3.037069 1_565
Mg6 Mg9 3.044019 1_555
Mg6 Mg9 3.044019 1_455
Mg6 Mg7 3.079246 1_565
Mg6 Mg8 3.154336 1_565
Mg6 Mg7 3.225491 1_555
Mg7 Ti1 3.037069 1_455
Mg7 Ti1 3.037069 1_555
Mg7 Mg8 3.154336 1_555
Mg8 Mg9 3.052095 1_545
Mg8 Mg9 3.052095 1_445
Mg9 Ti0 3.052462 1_555
Mg9 Ti1 3.237463 1_565
Mg10 Mg7 3.044019 1_555
Mg10 Mg7 3.044019 1_655
Mg10 Mg8 3.052095 1_555
Mg10 Mg8 3.052095 1_655
Mg10 Ti0 3.052462 1_555
Mg10 Mg9 3.096168 1_555
Mg10 Mg5 3.124669 1_555
Mg10 Mg11 3.165250 1_555
Mg10 Mg9 3.208569 1_545
Mg10 Ti1 3.237463 1_555
Mg11 Mg8 3.028627 1_655
Mg11 Mg8 3.028627 1_555
Mg11 Mg3 3.124669 1_554
Mg11 Mg4 3.124669 1_544
Mg11 Ti0 3.153885 1_545
Mg11 Ti0 3.153885 1_555
Mg11 Mg9 3.165250 1_545
Al0 Ti0 2.891344 1_455
Al0 Ti0 2.891344 1_555
Al0 Mg1 2.976177 1_555
Al0 Mg0 2.976177 1_555
Al0 Mg10 3.069325 1_555
Al0 Mg9 3.069325 1_455
Al0 Mg9 3.069325 1_555
Al0 Mg10 3.069325 1_455
Al0 Mg8 3.155598 1_565
Al0 Mg8 3.155598 1_555
Al0 Mg6 3.314597 1_555
Al0 Mg7 3.314597 1_555
Al1 Ti1 2.891344 1_455
Al1 Ti1 2.891344 1_555
Al1 Mg6 2.976177 1_545
Al1 Mg7 2.976177 1_555
Al1 Mg3 3.069325 1_455
Al1 Mg3 3.069325 1_555
Al1 Mg4 3.069325 1_445
Al1 Mg4 3.069325 1_545
Al1 Mg2 3.155598 1_545
Al1 Mg2 3.155598 1_555
Al1 Mg1 3.314597 1_546
Al1 Mg0 3.314597 1_556
