# generated using pymatgen
data_CuH9C4(NO2)3
_symmetry_space_group_name_H-M   'P 1'
_cell_length_a   8.44967649
_cell_length_b   9.01434917
_cell_length_c   11.20193878
_cell_angle_alpha   90.00000000
_cell_angle_beta   90.00000000
_cell_angle_gamma   90.00000000
_symmetry_Int_Tables_number   1
_chemical_formula_structural   CuH9C4(NO2)3
_chemical_formula_sum   'Cu4 H36 C16 N12 O24'
_cell_volume   853.23301716
_cell_formula_units_Z   4
loop_
 _symmetry_equiv_pos_site_id
 _symmetry_equiv_pos_as_xyz
  1  'x, y, z'
loop_
 _atom_site_type_symbol
 _atom_site_label
 _atom_site_symmetry_multiplicity
 _atom_site_fract_x
 _atom_site_fract_y
 _atom_site_fract_z
 _atom_site_occupancy
  Cu  Cu0  1  0.98460365  0.00134261  0.49770901  1
  Cu  Cu1  1  0.01539633  0.99865741  0.99770800  1
  Cu  Cu2  1  0.48460368  0.49865738  0.49770901  1
  Cu  Cu3  1  0.51539635  0.50134259  0.99770800  1
  H  H0  1  0.66863157  0.83513777  0.46196412  1
  H  H1  1  0.33136840  0.16486223  0.96196412  1
  H  H2  1  0.16863158  0.66486223  0.46196412  1
  H  H3  1  0.83136843  0.33513777  0.96196412  1
  H  H4  1  0.03576479  0.92983524  0.74415651  1
  H  H5  1  0.96423519  0.07016476  0.24415654  1
  H  H6  1  0.53576481  0.57016476  0.74415651  1
  H  H7  1  0.46423522  0.42983524  0.24415654  1
  H  H8  1  0.10604528  0.31710008  0.51416213  1
  H  H9  1  0.89395475  0.68289989  0.01416216  1
  H  H10  1  0.60604525  0.18289992  0.51416213  1
  H  H11  1  0.39395472  0.81710011  0.01416216  1
  H  H12  1  0.08821692  0.70613490  0.80505752  1
  H  H13  1  0.91178310  0.29386507  0.30505752  1
  H  H14  1  0.58821690  0.79386510  0.80505752  1
  H  H15  1  0.41178307  0.20613492  0.30505752  1
  H  H16  1  0.95447385  0.71110079  0.68445997  1
  H  H17  1  0.04552614  0.28889918  0.18445997  1
  H  H18  1  0.45447385  0.78889921  0.68445997  1
  H  H19  1  0.54552615  0.21110082  0.18445997  1
  H  H20  1  0.18581656  0.48104633  0.86875648  1
  H  H21  1  0.81418343  0.51895367  0.36875645  1
  H  H22  1  0.68581657  0.01895368  0.86875648  1
  H  H23  1  0.31418343  0.98104734  0.36875645  1
  H  H24  1  0.08061618  0.31694884  0.83304624  1
  H  H25  1  0.91938379  0.68305119  0.33304624  1
  H  H26  1  0.58061621  0.18305117  0.83304624  1
  H  H27  1  0.41938382  0.81694881  0.33304624  1
  H  H28  1  0.82896292  0.49734534  0.62730705  1
  H  H29  1  0.17103707  0.50265463  0.12730606  1
  H  H30  1  0.32896295  0.00265466  0.62730705  1
  H  H31  1  0.67103708  0.99734537  0.12730606  1
  H  H32  1  0.91052745  0.32297144  0.66864612  1
  H  H33  1  0.08947252  0.67702856  0.16864611  1
  H  H34  1  0.41052748  0.17702856  0.66864612  1
  H  H35  1  0.58947255  0.82297144  0.16864611  1
  C  C0  1  0.74034706  0.77714159  0.52988138  1
  C  C1  1  0.25965294  0.22285839  0.02988137  1
  C  C2  1  0.24034706  0.72285841  0.52988138  1
  C  C3  1  0.75965294  0.27714162  0.02988137  1
  C  C4  1  0.01462489  0.04923202  0.74645991  1
  C  C5  1  0.98537509  0.95076796  0.24645988  1
  C  C6  1  0.51462491  0.45076799  0.74645991  1
  C  C7  1  0.48537512  0.54923204  0.24645988  1
  C  C8  1  0.18962082  0.25705341  0.45621527  1
  C  C9  1  0.81037920  0.74294656  0.95621628  1
  C  C10  1  0.68962080  0.24294659  0.45621527  1
  C  C11  1  0.31037920  0.75705344  0.95621628  1
  C  C12  1  0.00726648  0.50466658  0.74832329  1
  C  C13  1  0.99273351  0.49533342  0.24832331  1
  C  C14  1  0.50726649  0.99533342  0.74832329  1
  C  C15  1  0.49273351  0.00466657  0.24832331  1
  N  N0  1  0.01868004  0.65137676  0.74461964  1
  N  N1  1  0.98131995  0.34862324  0.24461962  1
  N  N2  1  0.51868005  0.84862324  0.74461964  1
  N  N3  1  0.48131995  0.15137675  0.24461962  1
  N  N4  1  0.09992378  0.42740872  0.82207541  1
  N  N5  1  0.90007620  0.57259128  0.32207544  1
  N  N6  1  0.59992380  0.07259127  0.82207541  1
  N  N7  1  0.40007623  0.92740872  0.32207544  1
  N  N8  1  0.90257183  0.43464317  0.67878815  1
  N  N9  1  0.09742818  0.56535683  0.17878817  1
  N  N10  1  0.40257183  0.06535683  0.67878815  1
  N  N11  1  0.59742817  0.93464317  0.17878817  1
  O  O0  1  0.85834627  0.84709492  0.57373566  1
  O  O1  1  0.14165373  0.15290506  0.07373568  1
  O  O2  1  0.35834627  0.65290508  0.57373566  1
  O  O3  1  0.64165373  0.34709492  0.07373568  1
  O  O4  1  0.70403769  0.64840323  0.56004509  1
  O  O5  1  0.29596231  0.35159677  0.06004511  1
  O  O6  1  0.20403771  0.85159677  0.56004509  1
  O  O7  1  0.79596231  0.14840323  0.06004511  1
  O  O8  1  0.98895192  0.11638115  0.64915841  1
  O  O9  1  0.01104806  0.88361883  0.14915840  1
  O  O10  1  0.48895195  0.38361886  0.64915841  1
  O  O11  1  0.51104808  0.61638117  0.14915840  1
  O  O12  1  0.01836269  0.11511929  0.84617326  1
  O  O13  1  0.98163732  0.88488071  0.34617326  1
  O  O14  1  0.51836268  0.38488071  0.84617326  1
  O  O15  1  0.48163732  0.61511929  0.34617326  1
  O  O16  1  0.15745007  0.12195534  0.43141748  1
  O  O17  1  0.84254990  0.87804463  0.93141748  1
  O  O18  1  0.65745010  0.37804466  0.43141748  1
  O  O19  1  0.34254993  0.62195537  0.93141748  1
  O  O20  1  0.31024123  0.32221165  0.41844083  1
  O  O21  1  0.68975880  0.67778835  0.91844083  1
  O  O22  1  0.81024120  0.17778835  0.41844083  1
  O  O23  1  0.18975879  0.82221165  0.91844083  1
loop_
_geom_bond_atom_site_label_1
_geom_bond_atom_site_label_2
_geom_bond_distance
_geom_bond_site_symmetry_2
Cu0 O0 1.948529 1_545
Cu0 O16 1.966367 1_655
Cu0 O8 1.988697 1_555
Cu0 O13 1.996060 1_545
Cu0 O22 2.342846 1_555
Cu0 O6 2.397413 1_645
Cu1 O1 1.948534 1_566
Cu1 O17 1.966362 1_455
Cu1 O9 1.988707 1_556
Cu1 O12 1.996050 1_565
Cu1 O23 2.342842 1_555
Cu1 O7 2.397416 1_466
Cu2 O2 1.948529 1_555
Cu2 O18 1.966366 1_555
Cu2 O10 1.988697 1_555
Cu2 O15 1.996060 1_555
Cu2 O20 2.342846 1_555
Cu2 O4 2.397412 1_555
Cu3 O3 1.948534 1_556
Cu3 O19 1.966362 1_555
Cu3 O11 1.988707 1_556
Cu3 O14 1.996050 1_555
Cu3 O21 2.342842 1_555
Cu3 O5 2.397416 1_556
H12 N0 1.023347 1_555
H13 N1 1.023347 1_555
H14 N2 1.023347 1_555
H15 N3 1.023348 1_555
H16 N0 1.018981 1_655
H17 N1 1.018981 1_455
H18 N2 1.018981 1_555
H19 N3 1.018982 1_555
H20 N4 1.016838 1_555
H21 N5 1.016838 1_555
H22 N6 1.016838 1_555
H23 N7 1.016843 1_555
H24 N4 1.016457 1_555
H25 N5 1.016457 1_555
H26 N6 1.016457 1_555
H27 N7 1.016457 1_555
H28 N8 1.019260 1_555
H29 N9 1.019266 1_555
H30 N10 1.019260 1_555
H31 N11 1.019266 1_555
H32 N8 1.015267 1_555
H33 N9 1.015267 1_555
H34 N10 1.015267 1_555
H35 N11 1.015267 1_555
C0 H0 1.104240 1_555
C0 O4 1.247013 1_555
C0 O0 1.277922 1_555
C1 H1 1.104239 1_554
C1 O5 1.247013 1_555
C1 O1 1.277922 1_555
C2 H2 1.104239 1_555
C2 O6 1.247013 1_555
C2 O2 1.277922 1_555
C3 H3 1.104239 1_554
C3 O7 1.247013 1_555
C3 O3 1.277922 1_555
C4 H4 1.091311 1_545
C4 O12 1.265465 1_555
C4 O8 1.265495 1_455
C5 H5 1.091312 1_565
C5 O13 1.265465 1_555
C5 O9 1.265495 1_655
C6 H6 1.091311 1_555
C6 O14 1.265465 1_555
C6 O10 1.265495 1_555
C7 H7 1.091312 1_555
C7 O15 1.265465 1_555
C7 O11 1.265495 1_555
C8 H8 1.101380 1_555
C8 O20 1.250128 1_555
C8 O16 1.278337 1_555
C9 H9 1.101374 1_556
C9 O21 1.250132 1_555
C9 O17 1.278339 1_555
C10 H10 1.101380 1_555
C10 O22 1.250128 1_555
C10 O18 1.278337 1_555
C11 H11 1.101373 1_556
C11 O23 1.250132 1_555
C11 O19 1.278339 1_555
C12 N0 1.326657 1_555
C12 N4 1.334367 1_555
C12 N8 1.337065 1_455
C13 N1 1.326657 1_555
C13 N5 1.334367 1_555
C13 N9 1.337065 1_655
C14 N2 1.326657 1_555
C14 N6 1.334367 1_565
C14 N10 1.337065 1_565
C15 N3 1.326657 1_555
C15 N7 1.334367 1_545
C15 N11 1.337065 1_545
