# generated using pymatgen
data_Li2Ti3(GaO4)3
_symmetry_space_group_name_H-M   'P 1'
_cell_length_a   10.41016427
_cell_length_b   10.41016427
_cell_length_c   5.99711093
_cell_angle_alpha   73.28860245
_cell_angle_beta   73.28860245
_cell_angle_gamma   120.78856750
_symmetry_Int_Tables_number   1
_chemical_formula_structural   Li2Ti3(GaO4)3
_chemical_formula_sum   'Li4 Ti6 Ga6 O24'
_cell_volume   453.99674313
_cell_formula_units_Z   2
loop_
 _symmetry_equiv_pos_site_id
 _symmetry_equiv_pos_as_xyz
  1  'x, y, z'
loop_
 _atom_site_type_symbol
 _atom_site_label
 _atom_site_symmetry_multiplicity
 _atom_site_fract_x
 _atom_site_fract_y
 _atom_site_fract_z
 _atom_site_occupancy
  Li  Li0  1  0.00000000  0.50000000  0.50000000  1
  Li  Li1  1  0.50000000  0.00000000  0.50000000  1
  Li  Li2  1  0.00000000  0.00000000  0.50000000  1
  Li  Li3  1  0.00000000  0.00000000  0.00000000  1
  Ti  Ti0  1  0.33490200  0.66509800  0.50000000  1
  Ti  Ti1  1  0.66509800  0.33490200  0.50000000  1
  Ti  Ti2  1  0.84000600  0.67664800  0.49446300  1
  Ti  Ti3  1  0.15999400  0.32335200  0.50553700  1
  Ti  Ti4  1  0.32335200  0.15999400  0.50553700  1
  Ti  Ti5  1  0.67664800  0.84000600  0.49446300  1
  Ga  Ga0  1  0.29708300  0.96410000  0.12310100  1
  Ga  Ga1  1  0.70291700  0.03590000  0.87689900  1
  Ga  Ga2  1  0.03590000  0.70291700  0.87689900  1
  Ga  Ga3  1  0.96410000  0.29708300  0.12310100  1
  Ga  Ga4  1  0.67369900  0.32630100  0.00000000  1
  Ga  Ga5  1  0.32630100  0.67369900  0.00000000  1
  O  O0  1  0.07369200  0.89509100  0.26706500  1
  O  O1  1  0.92630800  0.10490900  0.73293500  1
  O  O2  1  0.10490900  0.92630800  0.73293500  1
  O  O3  1  0.89509100  0.07369200  0.26706500  1
  O  O4  1  0.73647100  0.24527000  0.75410600  1
  O  O5  1  0.26352900  0.75473000  0.24589400  1
  O  O6  1  0.75473000  0.26352900  0.24589400  1
  O  O7  1  0.24527000  0.73647100  0.75410600  1
  O  O8  1  0.23627200  0.23627200  0.30928500  1
  O  O9  1  0.76128500  0.76128500  0.28743700  1
  O  O10  1  0.76372800  0.76372800  0.69071500  1
  O  O11  1  0.23871600  0.23871600  0.71256300  1
  O  O12  1  0.62738200  0.42332500  0.72124700  1
  O  O13  1  0.37261800  0.57667500  0.27875300  1
  O  O14  1  0.57667500  0.37261800  0.27875300  1
  O  O15  1  0.42332500  0.62738200  0.72124700  1
  O  O16  1  0.09646900  0.42418600  0.24864400  1
  O  O17  1  0.90290900  0.57846100  0.26287800  1
  O  O18  1  0.57846100  0.90290900  0.26287800  1
  O  O19  1  0.42418600  0.09646900  0.24864400  1
  O  O20  1  0.90353100  0.57581400  0.75135600  1
  O  O21  1  0.09709100  0.42153900  0.73712200  1
  O  O22  1  0.42153900  0.09709100  0.73712200  1
  O  O23  1  0.57581400  0.90353100  0.75135600  1
loop_
_geom_bond_atom_site_label_1
_geom_bond_atom_site_label_2
_geom_bond_distance
_geom_bond_site_symmetry_2
Li0 O16 2.128079 1_555
Li0 O20 2.128079 1_455
Li0 O4 2.168979 1_455
Li0 O5 2.168979 1_555
Li0 O17 2.171340 1_455
Li0 O21 2.171340 1_555
Li1 O19 2.128079 1_555
Li1 O23 2.128079 1_545
Li1 O7 2.168979 1_545
Li1 O6 2.168979 1_555
Li1 O22 2.171340 1_555
Li1 O18 2.171340 1_545
Li2 O8 1.994632 1_555
Li2 O10 1.994632 1_445
Li2 O1 2.202602 1_455
Li2 O2 2.202602 1_545
Li2 O0 2.202602 1_545
Li2 O3 2.202602 1_455
Li3 O9 2.018218 1_445
Li3 O11 2.018225 1_554
Li3 O1 2.214677 1_454
Li3 O0 2.214677 1_545
Li3 O3 2.214677 1_455
Li3 O2 2.214677 1_544
Ga0 O0 1.856855 1_555
Ga0 O19 1.876016 1_565
Ga0 O22 1.883976 1_564
Ga0 O5 1.887975 1_555
Ga1 O1 1.856855 1_555
Ga1 O23 1.876016 1_545
Ga1 O18 1.883976 1_546
Ga1 O4 1.887975 1_555
Ga2 O2 1.856855 1_555
Ga2 O20 1.876016 1_455
Ga2 O17 1.883976 1_456
Ga2 O7 1.887975 1_555
Ga3 O3 1.856855 1_555
Ga3 O16 1.876016 1_655
Ga3 O21 1.883976 1_654
Ga3 O6 1.887975 1_555
Ga4 O14 2.009566 1_555
Ga4 O12 2.009566 1_554
Ga4 O6 2.009654 1_555
Ga4 O4 2.009654 1_554
Ga4 O20 2.013290 1_554
Ga4 O19 2.013290 1_555
Ga5 O13 2.009566 1_555
Ga5 O15 2.009566 1_554
Ga5 O5 2.009654 1_555
Ga5 O7 2.009654 1_554
Ga5 O23 2.013290 1_554
Ga5 O16 2.013290 1_555
O0 Ti2 1.895844 1_455
O1 Ti3 1.895844 1_655
O2 Ti4 1.895844 1_565
O3 Ti5 1.895844 1_545
O4 Ti1 2.070782 1_555
O5 Ti0 2.070782 1_555
O6 Ti1 2.070782 1_555
O7 Ti0 2.070782 1_555
O8 Ti4 1.910642 1_555
O8 Ti3 1.910642 1_555
O9 Ti2 1.919524 1_555
O9 Ti5 1.919524 1_555
O10 Ti5 1.910642 1_555
O10 Ti2 1.910642 1_555
O11 Ti4 1.919528 1_555
O11 Ti3 1.919528 1_555
O12 Ti1 1.880102 1_555
O12 Ti2 1.983393 1_555
O13 Ti0 1.880102 1_555
O13 Ti3 1.983393 1_555
O14 Ti1 1.880102 1_555
O14 Ti4 1.983393 1_555
O15 Ti0 1.880102 1_555
O15 Ti5 1.983393 1_555
O16 Ti3 2.068628 1_555
O17 Ti1 2.013835 1_555
O17 Ti2 2.093099 1_555
O18 Ti0 2.013835 1_555
O18 Ti5 2.093099 1_555
O19 Ti4 2.068628 1_555
O20 Ti2 2.068628 1_555
O21 Ti0 2.013835 1_555
O21 Ti3 2.093099 1_555
O22 Ti1 2.013835 1_555
O22 Ti4 2.093099 1_555
O23 Ti5 2.068628 1_555
