# generated using pymatgen
data_Ca(CuO2)2
_symmetry_space_group_name_H-M   'P 1'
_cell_length_a   6.20142703
_cell_length_b   6.20142703
_cell_length_c   6.20142703
_cell_angle_alpha   125.17888830
_cell_angle_beta   125.17888830
_cell_angle_gamma   81.24194299
_symmetry_Int_Tables_number   1
_chemical_formula_structural   Ca(CuO2)2
_chemical_formula_sum   'Ca2 Cu4 O8'
_cell_volume   153.46066196
_cell_formula_units_Z   2
loop_
 _symmetry_equiv_pos_site_id
 _symmetry_equiv_pos_as_xyz
  1  'x, y, z'
loop_
 _atom_site_type_symbol
 _atom_site_label
 _atom_site_symmetry_multiplicity
 _atom_site_fract_x
 _atom_site_fract_y
 _atom_site_fract_z
 _atom_site_occupancy
  Ca  Ca0  1  0.75000000  0.25000000  0.50000000  1
  Ca  Ca1  1  -0.00000000  -0.00000000  -0.00000000  1
  Cu  Cu0  1  0.87500000  0.62500000  0.25000000  1
  Cu  Cu1  1  0.37500000  0.62500000  0.75000000  1
  Cu  Cu2  1  0.37500000  0.12500000  0.75000000  1
  Cu  Cu3  1  0.37500000  0.62500000  0.25000000  1
  O  O0  1  0.02391412  0.94189968  0.36764403  1
  O  O1  1  0.05810032  0.42574336  0.08201344  1
  O  O2  1  0.34372992  0.97608588  0.91798656  1
  O  O3  1  0.17574336  0.59372992  0.86764403  1
  O  O4  1  0.40627008  0.27391412  0.58201344  1
  O  O5  1  0.69189968  0.82425664  0.41798656  1
  O  O6  1  0.57425664  0.65627008  0.63235597  1
  O  O7  1  0.72608588  0.30810032  0.13235597  1
loop_
_geom_bond_atom_site_label_1
_geom_bond_atom_site_label_2
_geom_bond_distance
_geom_bond_site_symmetry_2
Ca0 O4 2.427033 1_555
Ca0 O3 2.427033 1_655
Ca0 O5 2.427035 1_545
Ca0 O7 2.427038 1_555
Ca0 O1 2.453752 1_656
Ca0 O6 2.453752 1_555
Ca0 O2 2.453752 1_544
Ca0 O0 2.453755 1_645
Ca1 O2 2.427033 1_544
Ca1 O6 2.427033 1_444
Ca1 O1 2.427035 1_555
Ca1 O0 2.427038 1_545
Ca1 O5 2.453752 1_444
Ca1 O3 2.453752 1_544
Ca1 O4 2.453752 1_555
Ca1 O7 2.453755 1_455
Cu0 O5 1.831374 1_555
Cu0 O1 1.831374 1_655
Cu0 O0 1.836162 1_655
Cu0 O7 1.836162 1_555
Cu1 O2 1.831368 1_555
Cu1 O4 1.831368 1_555
Cu1 O6 1.836167 1_555
Cu1 O3 1.836167 1_555
Cu2 O7 1.831369 1_556
Cu2 O0 1.831369 1_545
Cu2 O4 1.836167 1_555
Cu2 O2 1.836167 1_545
Cu3 O3 1.831368 1_554
Cu3 O6 1.831368 1_555
Cu3 O1 1.836162 1_555
Cu3 O5 1.836162 1_555
