# generated using pymatgen
data_ScInP2
_symmetry_space_group_name_H-M   'P 1'
_cell_length_a   4.20996500
_cell_length_b   4.20996500
_cell_length_c   5.95887200
_cell_angle_alpha   90.00000000
_cell_angle_beta   90.00000000
_cell_angle_gamma   90.00000000
_symmetry_Int_Tables_number   1
_chemical_formula_structural   ScInP2
_chemical_formula_sum   'Sc1 In1 P2'
_cell_volume   105.61388714
_cell_formula_units_Z   1
loop_
 _symmetry_equiv_pos_site_id
 _symmetry_equiv_pos_as_xyz
  1  'x, y, z'
loop_
 _atom_site_type_symbol
 _atom_site_label
 _atom_site_symmetry_multiplicity
 _atom_site_fract_x
 _atom_site_fract_y
 _atom_site_fract_z
 _atom_site_occupancy
  Sc  Sc0  1  0.00000000  0.00000000  0.00000000  1
  In  In0  1  0.50000000  0.50000000  0.50000000  1
  P  P0  1  0.00000000  0.50000000  0.24734200  1
  P  P1  1  0.50000000  0.00000000  0.75265800  1
loop_
_geom_bond_atom_site_label_1
_geom_bond_atom_site_label_2
_geom_bond_distance
_geom_bond_site_symmetry_2
In0 P1 2.587982 1_555
In0 P1 2.587982 1_565
In0 P0 2.587982 1_655
In0 P0 2.587982 1_555
P0 Sc0 2.569683 1_555
P0 Sc0 2.569683 1_565
P1 Sc0 2.569683 1_556
P1 Sc0 2.569683 1_656
