# generated using pymatgen
data_Ba10Ru3W(Cl2O9)2
_symmetry_space_group_name_H-M   'P 1'
_cell_length_a   5.96276031
_cell_length_b   5.96276031
_cell_length_c   25.11016000
_cell_angle_alpha   90.00000000
_cell_angle_beta   90.00000000
_cell_angle_gamma   120.00000349
_symmetry_Int_Tables_number   1
_chemical_formula_structural   Ba10Ru3W(Cl2O9)2
_chemical_formula_sum   'Ba10 Ru3 W1 Cl4 O18'
_cell_volume   773.16965573
_cell_formula_units_Z   1
loop_
 _symmetry_equiv_pos_site_id
 _symmetry_equiv_pos_as_xyz
  1  'x, y, z'
loop_
 _atom_site_type_symbol
 _atom_site_label
 _atom_site_symmetry_multiplicity
 _atom_site_fract_x
 _atom_site_fract_y
 _atom_site_fract_z
 _atom_site_occupancy
  Ba  Ba0  1  0.33333300  0.66666700  0.32982800  1
  Ba  Ba1  1  0.66666700  0.33333300  0.67150300  1
  Ba  Ba2  1  0.66666700  0.33333300  0.82889000  1
  Ba  Ba3  1  0.33333300  0.66666700  0.16911200  1
  Ba  Ba4  1  0.66666700  0.33333300  0.24400500  1
  Ba  Ba5  1  0.33333300  0.66666700  0.75031900  1
  Ba  Ba6  1  0.66666700  0.33333300  0.41783400  1
  Ba  Ba7  1  0.33333300  0.66666700  0.58299600  1
  Ba  Ba8  1  0.33333300  0.66666700  0.91830200  1
  Ba  Ba9  1  0.66666700  0.33333300  0.08277500  1
  Ru  Ru0  1  0.00000000  0.00000000  0.69334400  1
  Ru  Ru1  1  0.00000000  0.00000000  0.80685900  1
  Ru  Ru2  1  0.00000000  0.00000000  0.19596600  1
  W  W0  1  0.00000000  0.00000000  0.30391200  1
  Cl  Cl0  1  0.33333300  0.66666700  0.45343400  1
  Cl  Cl1  1  0.66666700  0.33333300  0.54503100  1
  Cl  Cl2  1  0.66666700  0.33333300  0.95368500  1
  Cl  Cl3  1  0.33333300  0.66666700  0.04534900  1
  O  O0  1  0.31426700  0.15713400  0.34370800  1
  O  O1  1  0.84286600  0.15713400  0.34370800  1
  O  O2  1  0.84286600  0.68573300  0.34370800  1
  O  O3  1  0.68155200  0.84077600  0.65485200  1
  O  O4  1  0.15922400  0.84077600  0.65485200  1
  O  O5  1  0.15922400  0.31844800  0.65485200  1
  O  O6  1  0.68109100  0.84054500  0.84488200  1
  O  O7  1  0.15945500  0.84054500  0.84488200  1
  O  O8  1  0.15945500  0.31890900  0.84488200  1
  O  O9  1  0.31925900  0.15962900  0.15627900  1
  O  O10  1  0.84037100  0.15962900  0.15627900  1
  O  O11  1  0.84037100  0.68074100  0.15627900  1
  O  O12  1  0.15672000  0.31344000  0.25270400  1
  O  O13  1  0.68656000  0.84328000  0.25270400  1
  O  O14  1  0.15672000  0.84328000  0.25270400  1
  O  O15  1  0.84962100  0.69924200  0.74985800  1
  O  O16  1  0.30075800  0.15037900  0.74985800  1
  O  O17  1  0.84962100  0.15037900  0.74985800  1
loop_
_geom_bond_atom_site_label_1
_geom_bond_atom_site_label_2
_geom_bond_distance
_geom_bond_site_symmetry_2
Ba0 O14 2.660351 1_555
Ba0 O13 2.660355 1_555
Ba0 O12 2.660355 1_555
Ba0 O1 3.003297 1_455
Ba0 O1 3.003297 1_565
Ba0 O0 3.003297 1_555
Ba0 O2 3.003297 1_555
Ba0 O2 3.003297 1_455
Ba0 O0 3.003297 1_565
Ba0 Cl0 3.103766 1_555
Ba1 O17 2.727882 1_555
Ba1 O16 2.727886 1_555
Ba1 O15 2.727886 1_555
Ba1 O3 3.011533 1_545
Ba1 O5 3.011533 1_655
Ba1 O4 3.011536 1_655
Ba1 O4 3.011536 1_545
Ba1 O5 3.011539 1_555
Ba1 O3 3.011539 1_555
Ba1 Cl1 3.175732 1_555
Ba2 O17 2.740169 1_555
Ba2 O16 2.740172 1_555
Ba2 O15 2.740172 1_555
Ba2 O7 3.009224 1_655
Ba2 O7 3.009224 1_545
Ba2 O8 3.009224 1_555
Ba2 O6 3.009224 1_555
Ba2 O8 3.009224 1_655
Ba2 O6 3.009224 1_545
Ba2 Cl2 3.133622 1_555
Ba3 O14 2.780810 1_555
Ba3 O13 2.780813 1_555
Ba3 O12 2.780813 1_555
Ba3 O9 2.999619 1_565
Ba3 O11 2.999619 1_455
Ba3 O10 2.999625 1_455
Ba3 O10 2.999625 1_565
Ba3 O9 2.999630 1_555
Ba3 O11 2.999630 1_555
Ba3 Cl3 3.107709 1_555
Ba4 O11 2.840908 1_555
Ba4 O9 2.840908 1_555
Ba4 O10 2.840908 1_555
Ba4 O13 2.991133 1_545
Ba4 O12 2.991133 1_655
Ba4 O14 2.991136 1_545
Ba4 O14 2.991136 1_655
Ba4 O12 2.991139 1_555
Ba4 O13 2.991139 1_555
Ba4 O1 3.095043 1_555
Ba4 O0 3.095049 1_555
Ba4 O2 3.095049 1_555
Ba5 O7 2.977084 1_555
Ba5 O8 2.977090 1_555
Ba5 O6 2.977090 1_555
Ba5 O16 2.986141 1_565
Ba5 O15 2.986141 1_455
Ba5 O17 2.986144 1_565
Ba5 O17 2.986144 1_455
Ba5 O15 2.986147 1_555
Ba5 O16 2.986147 1_555
Ba5 O4 2.996651 1_555
Ba5 O3 2.996655 1_555
Ba5 O5 2.996655 1_555
Ba6 O1 2.603072 1_555
Ba6 O0 2.603079 1_555
Ba6 O2 2.603079 1_555
Ba6 Cl1 3.193937 1_555
Ba6 Cl0 3.556765 1_545
Ba6 Cl0 3.556765 1_655
Ba6 Cl0 3.556775 1_555
Ba7 O4 2.547341 1_555
Ba7 O5 2.547345 1_555
Ba7 O3 2.547345 1_555
Ba7 Cl0 3.253323 1_555
Ba7 Cl1 3.572153 1_455
Ba7 Cl1 3.572153 1_565
Ba7 Cl1 3.572163 1_555
Ba8 O7 2.573642 1_555
Ba8 O8 2.573649 1_555
Ba8 O6 2.573649 1_555
Ba8 Cl3 3.190170 1_556
Ba8 Cl2 3.555399 1_455
Ba8 Cl2 3.555399 1_565
Ba8 Cl2 3.555409 1_555
Ba9 O9 2.573901 1_555
Ba9 O11 2.573901 1_555
Ba9 O10 2.573901 1_555
Ba9 Cl2 3.241471 1_554
Ba9 Cl3 3.568564 1_545
Ba9 Cl3 3.568564 1_655
Ba9 Cl3 3.568575 1_555
O0 W0 1.905831 1_555
O1 W0 1.905835 1_655
O2 W0 1.905831 1_665
O3 Ru0 1.907450 1_665
O4 Ru0 1.907450 1_565
O5 Ru0 1.907450 1_555
O6 Ru1 1.903568 1_665
O7 Ru1 1.903573 1_565
O8 Ru1 1.903568 1_555
O9 Ru2 1.926411 1_555
O10 Ru2 1.926407 1_655
O11 Ru2 1.926411 1_665
O12 W0 2.067164 1_555
O12 Ru2 2.156282 1_555
O13 W0 2.067164 1_665
O13 Ru2 2.156282 1_665
O14 W0 2.067164 1_565
O14 Ru2 2.156282 1_565
O15 Ru0 2.103770 1_665
O15 Ru1 2.112038 1_665
O16 Ru0 2.103770 1_555
O16 Ru1 2.112038 1_555
O17 Ru0 2.103770 1_655
O17 Ru1 2.112038 1_655
