# generated using pymatgen
data_YNiB4
_symmetry_space_group_name_H-M   'P 1'
_cell_length_a   6.83040204
_cell_length_b   6.83040204
_cell_length_c   6.83040204
_cell_angle_alpha   112.96252512
_cell_angle_beta   112.96252512
_cell_angle_gamma   102.69388228
_symmetry_Int_Tables_number   1
_chemical_formula_structural   YNiB4
_chemical_formula_sum   'Y4 Ni4 B16'
_cell_volume   242.77887847
_cell_formula_units_Z   4
loop_
 _symmetry_equiv_pos_site_id
 _symmetry_equiv_pos_as_xyz
  1  'x, y, z'
loop_
 _atom_site_type_symbol
 _atom_site_label
 _atom_site_symmetry_multiplicity
 _atom_site_fract_x
 _atom_site_fract_y
 _atom_site_fract_z
 _atom_site_occupancy
  Y  Y0  1  0.79765100  0.79765100  0.00000000  1
  Y  Y1  1  0.20234900  0.20234900  0.00000000  1
  Y  Y2  1  0.75000000  0.25000000  0.50000000  1
  Y  Y3  1  0.25000000  0.75000000  0.50000000  1
  Ni  Ni0  1  0.27128000  0.50000000  0.77128000  1
  Ni  Ni1  1  0.72872000  0.50000000  0.22872000  1
  Ni  Ni2  1  0.50000000  0.72872000  0.22872000  1
  Ni  Ni3  1  0.50000000  0.27128000  0.77128000  1
  B  B0  1  0.27530100  0.11176000  0.38706100  1
  B  B1  1  0.72469900  0.88824000  0.61293900  1
  B  B2  1  0.27530100  0.88824000  0.16354100  1
  B  B3  1  0.72469900  0.11176000  0.83645900  1
  B  B4  1  0.11176000  0.72469900  0.83645900  1
  B  B5  1  0.88824000  0.27530100  0.16354100  1
  B  B6  1  0.11176000  0.27530100  0.38706100  1
  B  B7  1  0.88824000  0.72469900  0.61293900  1
  B  B8  1  0.11389500  0.11389500  0.53347100  1
  B  B9  1  0.58042400  0.58042400  0.46652900  1
  B  B10  1  0.11389500  0.58042400  0.00000000  1
  B  B11  1  0.58042400  0.11389500  0.00000000  1
  B  B12  1  0.88610500  0.88610500  0.46652900  1
  B  B13  1  0.41957600  0.41957600  0.53347100  1
  B  B14  1  0.88610500  0.41957600  0.00000000  1
  B  B15  1  0.41957600  0.88610500  0.00000000  1
loop_
_geom_bond_atom_site_label_1
_geom_bond_atom_site_label_2
_geom_bond_distance
_geom_bond_site_symmetry_2
Ni0 Y2 2.956046 1_455
Ni0 Y3 2.956046 1_555
Ni0 Y1 3.070369 1_556
Ni0 Y0 3.070369 1_556
Ni1 Y3 2.956046 1_655
Ni1 Y2 2.956046 1_555
Ni1 Y0 3.070369 1_555
Ni1 Y1 3.070369 1_555
Ni2 Y3 2.956046 1_555
Ni2 Y2 2.956046 1_565
Ni2 Y0 3.070369 1_555
Ni2 Y1 3.070369 1_555
Ni3 Y3 2.956046 1_545
Ni3 Y2 2.956046 1_555
Ni3 Y1 3.070369 1_556
Ni3 Y0 3.070369 1_556
B0 B2 1.686152 1_545
B0 B6 1.744705 1_555
B0 B8 1.752614 1_555
B0 B13 1.752614 1_555
B0 Ni3 2.078763 1_555
B0 Y0 2.829267 1_445
B0 Y1 2.829267 1_555
B0 Y3 2.852063 1_545
B0 Y2 2.852063 1_555
B1 B3 1.686152 1_565
B1 B7 1.744705 1_555
B1 B12 1.752614 1_555
B1 B9 1.752614 1_555
B1 Ni2 2.078763 1_555
B1 Y1 2.829267 1_666
B1 Y0 2.829267 1_556
B1 Y3 2.852063 1_555
B1 Y2 2.852063 1_565
B2 B4 1.744705 1_554
B2 Ni2 2.078763 1_555
B2 Y0 2.829267 1_455
B2 Y1 2.829267 1_565
B2 Y3 2.852063 1_555
B2 Y2 2.852063 1_565
B3 B5 1.744705 1_556
B3 Ni3 2.078763 1_555
B3 Y1 2.829267 1_656
B3 Y0 2.829267 1_546
B3 Y2 2.852063 1_555
B3 Y3 2.852063 1_545
B4 B7 1.686152 1_455
B4 Ni0 2.078763 1_555
B4 Y1 2.829267 1_566
B4 Y0 2.829267 1_456
B4 Y3 2.852063 1_555
B4 Y2 2.852063 1_455
B5 B6 1.686152 1_655
B5 Ni1 2.078763 1_555
B5 Y0 2.829267 1_545
B5 Y1 2.829267 1_655
B5 Y2 2.852063 1_555
B5 Y3 2.852063 1_655
B6 B8 1.752614 1_555
B6 Ni0 2.078763 1_555
B6 Y0 2.829267 1_445
B6 Y1 2.829267 1_555
B6 Y2 2.852063 1_455
B6 Y3 2.852063 1_555
B7 B9 1.752614 1_555
B7 Ni1 2.078763 1_555
B7 Y1 2.829267 1_666
B7 Y0 2.829267 1_556
B7 Y3 2.852063 1_655
B7 Y2 2.852063 1_555
B8 Ni3 2.190507 1_555
B8 Ni0 2.190507 1_555
B8 Y1 2.778405 1_556
B8 Y2 2.798650 1_455
B8 Y3 2.798650 1_545
B8 Y0 2.876799 1_445
B9 Ni1 2.190507 1_555
B9 Ni2 2.190507 1_555
B9 Y1 2.778405 1_555
B9 Y2 2.798650 1_555
B9 Y3 2.798650 1_555
B9 Y0 2.876799 1_556
B10 B14 1.696057 1_455
B10 B2 1.752614 1_555
B10 B4 1.752614 1_554
B10 Ni0 2.190507 1_554
B10 Ni2 2.190507 1_555
B10 Y1 2.778405 1_555
B10 Y2 2.798650 1_454
B10 Y3 2.798650 1_555
B10 Y0 2.876799 1_455
B11 B15 1.696057 1_545
B11 B5 1.752614 1_555
B11 B3 1.752614 1_554
B11 Ni3 2.190507 1_554
B11 Ni1 2.190507 1_555
B11 Y1 2.778405 1_555
B11 Y3 2.798650 1_544
B11 Y2 2.798650 1_555
B11 Y0 2.876799 1_545
B12 B8 1.696057 1_665
B12 B7 1.752614 1_555
B12 Ni1 2.190507 1_555
B12 Ni2 2.190507 1_555
B12 Y0 2.778405 1_555
B12 Y3 2.798650 1_655
B12 Y2 2.798650 1_565
B12 Y1 2.876799 1_666
B13 B9 1.696057 1_555
B13 B6 1.752614 1_555
B13 Ni3 2.190507 1_555
B13 Ni0 2.190507 1_555
B13 Y0 2.778405 1_556
B13 Y2 2.798650 1_555
B13 Y3 2.798650 1_555
B13 Y1 2.876799 1_555
B14 B3 1.752614 1_554
B14 B5 1.752614 1_555
B14 Ni1 2.190507 1_555
B14 Ni3 2.190507 1_554
B14 Y0 2.778405 1_555
B14 Y2 2.798650 1_554
B14 Y3 2.798650 1_655
B14 Y1 2.876799 1_655
B15 B4 1.752614 1_554
B15 B2 1.752614 1_555
B15 Ni2 2.190507 1_555
B15 Ni0 2.190507 1_554
B15 Y0 2.778405 1_555
B15 Y2 2.798650 1_565
B15 Y3 2.798650 1_554
B15 Y1 2.876799 1_565
