# generated using pymatgen
data_KMnGa2P3(H2O7)2
_symmetry_space_group_name_H-M   'P 1'
_cell_length_a   8.56878999
_cell_length_b   8.56878999
_cell_length_c   8.98610772
_cell_angle_alpha   75.48925359
_cell_angle_beta   75.48925359
_cell_angle_gamma   73.19980443
_symmetry_Int_Tables_number   1
_chemical_formula_structural   KMnGa2P3(H2O7)2
_chemical_formula_sum   'K2 Mn2 Ga4 P6 H8 O28'
_cell_volume   600.08508914
_cell_formula_units_Z   2
loop_
 _symmetry_equiv_pos_site_id
 _symmetry_equiv_pos_as_xyz
  1  'x, y, z'
loop_
 _atom_site_type_symbol
 _atom_site_label
 _atom_site_symmetry_multiplicity
 _atom_site_fract_x
 _atom_site_fract_y
 _atom_site_fract_z
 _atom_site_occupancy
  K  K0  1  0.13901600  0.86098400  0.25000000  1
  K  K1  1  0.86098400  0.13901600  0.75000000  1
  Mn  Mn0  1  0.78141000  0.21859000  0.25000000  1
  Mn  Mn1  1  0.21859000  0.78141000  0.75000000  1
  Ga  Ga0  1  0.74462500  0.59642600  0.43186000  1
  Ga  Ga1  1  0.40357400  0.25537500  0.06814000  1
  Ga  Ga2  1  0.25537500  0.40357400  0.56814000  1
  Ga  Ga3  1  0.59642600  0.74462500  0.93186000  1
  P  P0  1  0.49624100  0.50375900  0.25000000  1
  P  P1  1  0.50375900  0.49624100  0.75000000  1
  P  P2  1  0.91551100  0.66377500  0.67924200  1
  P  P3  1  0.33622500  0.08448900  0.82075800  1
  P  P4  1  0.08448900  0.33622500  0.32075800  1
  P  P5  1  0.66377500  0.91551100  0.17924200  1
  H  H0  1  0.58134400  0.12310900  0.55350200  1
  H  H1  1  0.87689100  0.41865600  0.94649800  1
  H  H2  1  0.41865600  0.87689100  0.44649800  1
  H  H3  1  0.12310900  0.58134400  0.05350200  1
  H  H4  1  0.72725500  0.96984400  0.50661100  1
  H  H5  1  0.03015600  0.27274500  0.99338900  1
  H  H6  1  0.27274500  0.03015600  0.49338900  1
  H  H7  1  0.96984400  0.72725500  0.00661100  1
  O  O0  1  0.66135000  0.47698300  0.30606700  1
  O  O1  1  0.52301700  0.33865000  0.19393300  1
  O  O2  1  0.33865000  0.52301700  0.69393300  1
  O  O3  1  0.47698300  0.66135000  0.80606700  1
  O  O4  1  0.65794800  0.46334700  0.61782800  1
  O  O5  1  0.53665300  0.34205200  0.88217200  1
  O  O6  1  0.34205200  0.53665300  0.38217200  1
  O  O7  1  0.46334700  0.65794800  0.11782800  1
  O  O8  1  0.81730100  0.72798500  0.54286800  1
  O  O9  1  0.27201500  0.18269900  0.95713200  1
  O  O10  1  0.18269900  0.27201500  0.45713200  1
  O  O11  1  0.72798500  0.81730100  0.04286800  1
  O  O12  1  0.61494000  0.79742800  0.33951700  1
  O  O13  1  0.20257200  0.38506000  0.16048300  1
  O  O14  1  0.38506000  0.20257200  0.66048300  1
  O  O15  1  0.79742800  0.61494000  0.83951700  1
  O  O16  1  0.96068500  0.50671100  0.33730400  1
  O  O17  1  0.49328900  0.03931500  0.16269600  1
  O  O18  1  0.03931500  0.49328900  0.66269600  1
  O  O19  1  0.50671100  0.96068500  0.83730400  1
  O  O20  1  0.00749700  0.19892000  0.31551800  1
  O  O21  1  0.80108000  0.99250300  0.18448200  1
  O  O22  1  0.99250300  0.80108000  0.68448200  1
  O  O23  1  0.19892000  0.00749700  0.81551800  1
  O  O24  1  0.69744800  0.09183000  0.49549100  1
  O  O25  1  0.90817000  0.30255200  0.00450900  1
  O  O26  1  0.30255200  0.90817000  0.50450900  1
  O  O27  1  0.09183000  0.69744800  0.99549100  1
loop_
_geom_bond_atom_site_label_1
_geom_bond_atom_site_label_2
_geom_bond_distance
_geom_bond_site_symmetry_2
K0 O20 2.938906 1_565
K0 O21 2.938906 1_455
K0 O6 2.957599 1_555
K0 O7 2.957599 1_555
K0 O26 3.123245 1_555
K0 O27 3.123245 1_554
K1 O22 2.938906 1_545
K1 O23 2.938906 1_655
K1 O5 2.957599 1_555
K1 O4 2.957599 1_555
K1 O24 3.123245 1_555
K1 O25 3.123245 1_556
Mn0 O21 2.112162 1_545
Mn0 O20 2.112162 1_655
Mn0 O25 2.240427 1_555
Mn0 O24 2.240427 1_555
Mn0 O0 2.279704 1_555
Mn0 O1 2.279704 1_555
Mn1 O22 2.112162 1_455
Mn1 O23 2.112162 1_565
Mn1 O26 2.240427 1_555
Mn1 O27 2.240427 1_555
Mn1 O3 2.279704 1_555
Mn1 O2 2.279704 1_555
Ga0 O16 1.859251 1_555
Ga0 O12 1.878669 1_555
Ga0 O4 1.886079 1_555
Ga0 O8 1.983514 1_555
Ga0 O0 2.059278 1_555
Ga1 O17 1.859251 1_555
Ga1 O13 1.878669 1_555
Ga1 O5 1.886079 1_554
Ga1 O9 1.983514 1_554
Ga1 O1 2.059278 1_555
Ga2 O18 1.859251 1_555
Ga2 O14 1.878669 1_555
Ga2 O6 1.886079 1_555
Ga2 O10 1.983514 1_555
Ga2 O2 2.059278 1_555
Ga3 O19 1.859251 1_555
Ga3 O15 1.878669 1_555
Ga3 O7 1.886079 1_556
Ga3 O11 1.983514 1_556
Ga3 O3 2.059278 1_555
H0 O24 0.994652 1_555
H1 O25 0.994652 1_556
H2 O26 0.994652 1_555
H3 O27 0.994652 1_554
H4 O24 0.986880 1_565
H5 O25 0.986880 1_456
H6 O26 0.986880 1_545
H7 O27 0.986880 1_654
O0 P0 1.555546 1_555
O1 P0 1.555546 1_555
O2 P1 1.555546 1_555
O3 P1 1.555546 1_555
O4 P1 1.549782 1_555
O5 P1 1.549782 1_555
O6 P0 1.549782 1_555
O7 P0 1.549782 1_555
O8 P2 1.556905 1_555
O9 P3 1.556905 1_555
O10 P4 1.556905 1_555
O11 P5 1.556905 1_555
O12 P5 1.576604 1_555
O13 P4 1.576604 1_555
O14 P3 1.576604 1_555
O15 P2 1.576604 1_555
O16 P4 1.554206 1_655
O17 P5 1.554206 1_545
O18 P2 1.554206 1_455
O19 P3 1.554206 1_565
O20 P4 1.521093 1_555
O21 P5 1.521093 1_555
O22 P2 1.521093 1_555
O23 P3 1.521093 1_555
