# generated using pymatgen
data_GaN
_symmetry_space_group_name_H-M   'P 1'
_cell_length_a   11.39369178
_cell_length_b   10.83226973
_cell_length_c   11.66126335
_cell_angle_alpha   86.54573846
_cell_angle_beta   91.72013784
_cell_angle_gamma   90.50367573
_symmetry_Int_Tables_number   1
_chemical_formula_structural   GaN
_chemical_formula_sum   'Ga50 N50'
_cell_volume   1435.93048046
_cell_formula_units_Z   50
loop_
 _symmetry_equiv_pos_site_id
 _symmetry_equiv_pos_as_xyz
  1  'x, y, z'
loop_
 _atom_site_type_symbol
 _atom_site_label
 _atom_site_symmetry_multiplicity
 _atom_site_fract_x
 _atom_site_fract_y
 _atom_site_fract_z
 _atom_site_occupancy
  Ga  Ga0  1  0.35636215  0.52529021  0.26078557  1
  Ga  Ga1  1  0.16957198  0.39915004  0.42545951  1
  Ga  Ga2  1  0.81418549  0.87991915  0.04443006  1
  Ga  Ga3  1  0.12367538  0.62162367  0.88241743  1
  Ga  Ga4  1  0.21480866  0.24499827  0.18605747  1
  Ga  Ga5  1  0.41029752  0.14233650  0.71295475  1
  Ga  Ga6  1  0.64128948  0.92607592  0.70597227  1
  Ga  Ga7  1  0.91000933  0.32897097  0.42131440  1
  Ga  Ga8  1  0.43784560  0.24729324  0.49561776  1
  Ga  Ga9  1  0.65547330  0.99190063  0.17993286  1
  Ga  Ga10  1  0.12553384  0.69971685  0.37586239  1
  Ga  Ga11  1  0.15478974  0.98998913  0.29123198  1
  Ga  Ga12  1  0.49674782  0.30080616  0.24989231  1
  Ga  Ga13  1  0.66853303  0.49413463  0.32634886  1
  Ga  Ga14  1  0.03510718  0.36779873  0.71090072  1
  Ga  Ga15  1  0.63191222  0.11490637  0.91382089  1
  Ga  Ga16  1  0.18580067  0.16497485  0.56020938  1
  Ga  Ga17  1  0.33504616  0.32932561  0.83893216  1
  Ga  Ga18  1  0.05614560  0.72441207  0.62860230  1
  Ga  Ga19  1  0.34449415  0.45719282  0.03405997  1
  Ga  Ga20  1  0.70761605  0.19313115  0.38122135  1
  Ga  Ga21  1  0.31566822  0.40518961  0.63362085  1
  Ga  Ga22  1  0.93481560  0.60123274  0.38710613  1
  Ga  Ga23  1  0.93763426  0.17601317  0.91603824  1
  Ga  Ga24  1  0.48499423  0.51860502  0.49565508  1
  Ga  Ga25  1  0.18314853  0.69120242  0.09291832  1
  Ga  Ga26  1  0.77609897  0.60000747  0.09507514  1
  Ga  Ga27  1  0.42219556  0.73280253  0.12351470  1
  Ga  Ga28  1  0.60697341  0.82381585  0.91243091  1
  Ga  Ga29  1  0.90861335  0.11362416  0.19033084  1
  Ga  Ga30  1  0.83680265  0.36112399  0.96378159  1
  Ga  Ga31  1  0.84320441  0.12609267  0.62706530  1
  Ga  Ga32  1  0.06837516  0.96230654  0.56960059  1
  Ga  Ga33  1  0.63791663  0.69426500  0.52835477  1
  Ga  Ga34  1  0.87845110  0.84260497  0.33914574  1
  Ga  Ga35  1  0.12995634  0.37575117  0.93787618  1
  Ga  Ga36  1  0.78339130  0.37590998  0.71240854  1
  Ga  Ga37  1  0.82431954  0.84479614  0.55377724  1
  Ga  Ga38  1  0.82686903  0.65192759  0.81439783  1
  Ga  Ga39  1  0.65878322  0.71937341  0.28114793  1
  Ga  Ga40  1  0.87241680  0.54774366  0.58774275  1
  Ga  Ga41  1  0.97948332  0.41587339  0.17625888  1
  Ga  Ga42  1  0.09806414  0.02165035  0.07877221  1
  Ga  Ga43  1  0.54611467  0.99091143  0.42722404  1
  Ga  Ga44  1  0.60529226  0.42908130  0.90862184  1
  Ga  Ga45  1  0.26532410  0.64363817  0.62843325  1
  Ga  Ga46  1  0.36610771  0.64401704  0.87268313  1
  Ga  Ga47  1  0.36637190  0.78901290  0.37700891  1
  Ga  Ga48  1  0.62900009  0.22737133  0.63590965  1
  Ga  Ga49  1  0.68093004  0.29293822  0.13879462  1
  N  N0  1  0.50449326  0.66695009  0.73424585  1
  N  N1  1  0.27689673  0.90248957  0.86479113  1
  N  N2  1  0.52154668  0.93992779  0.27219522  1
  N  N3  1  0.80402627  0.96333411  0.66240414  1
  N  N4  1  0.60733310  0.87066167  0.54082095  1
  N  N5  1  0.77847911  0.68470431  0.64040782  1
  N  N6  1  0.91029162  0.22866602  0.74340895  1
  N  N7  1  0.21569783  0.82989633  0.31475472  1
  N  N8  1  0.25394048  0.21960551  0.41000141  1
  N  N9  1  0.41076930  0.11004075  0.03740699  1
  N  N10  1  0.74531257  0.14106523  0.22236383  1
  N  N11  1  0.76297170  0.47884646  0.84867874  1
  N  N12  1  0.25340924  0.56311042  0.39241136  1
  N  N13  1  0.01967788  0.43052782  0.34338422  1
  N  N14  1  0.14018373  0.15472926  0.82986172  1
  N  N15  1  0.89331737  0.14784479  0.45937084  1
  N  N16  1  0.97690655  0.00892921  0.32767648  1
  N  N17  1  0.39734308  0.99362437  0.54569140  1
  N  N18  1  0.49919575  0.45633692  0.34203588  1
  N  N19  1  0.77015792  0.72696497  0.96215403  1
  N  N20  1  0.94014495  0.66761906  0.16192653  1
  N  N21  1  0.02481235  0.59898241  0.14459820  1
  N  N22  1  0.21079318  0.90421732  0.93488803  1
  N  N23  1  0.45607084  0.75883930  0.96315333  1
  N  N24  1  0.50799068  0.56604272  0.08910737  1
  N  N25  1  0.44047071  0.45133004  0.89438938  1
  N  N26  1  0.99796665  0.65301922  0.77342069  1
  N  N27  1  0.65766092  0.96941342  0.00985820  1
  N  N28  1  0.60348854  0.53447227  0.06097392  1
  N  N29  1  0.03745344  0.24836697  0.15794848  1
  N  N30  1  0.33104501  0.91453144  0.52136627  1
  N  N31  1  0.15417164  0.34006253  0.58800949  1
  N  N32  1  0.24708934  0.14082240  0.31965392  1
  N  N33  1  0.34093376  0.62890002  0.46675268  1
  N  N34  1  0.53405787  0.17082897  0.38261471  1
  N  N35  1  0.76200624  0.84816752  0.21206020  1
  N  N36  1  0.37309579  0.02816331  0.08688686  1
  N  N37  1  0.10594573  0.21904711  0.05054502  1
  N  N38  1  0.00180253  0.94689177  0.82804340  1
  N  N39  1  0.81828836  0.42235344  0.11701639  1
  N  N40  1  0.75209936  0.36151192  0.39616241  1
  N  N41  1  0.55275190  0.57886387  0.71424647  1
  N  N42  1  0.50012573  0.80787035  0.26710549  1
  N  N43  1  0.18330220  0.09397034  0.76679347  1
  N  N44  1  0.96830796  0.05292113  0.43887573  1
  N  N45  1  0.92740106  0.02442566  0.04377543  1
  N  N46  1  0.57595106  0.09679153  0.75788445  1
  N  N47  1  0.92321152  0.88440369  0.82952479  1
  N  N48  1  0.34057429  0.36162858  0.18245265  1
  N  N49  1  0.66751638  0.27025589  0.97125374  1
loop_
_geom_bond_atom_site_label_1
_geom_bond_atom_site_label_2
_geom_bond_distance
_geom_bond_site_symmetry_2
Ga0 N18 1.986849 1_555
Ga0 N12 2.022895 1_555
Ga0 N48 2.046792 1_555
Ga1 N13 1.954785 1_555
Ga1 N31 1.976187 1_555
Ga1 N12 2.031047 1_555
Ga1 N8 2.196495 1_555
Ga2 N19 2.016269 1_554
Ga2 N45 2.019389 1_565
Ga2 N27 2.054980 1_555
Ga2 N35 2.068348 1_555
Ga3 N26 1.905210 1_455
Ga4 N32 1.896526 1_555
Ga4 N48 1.901727 1_555
Ga4 N37 2.011069 1_555
Ga4 N29 2.037699 1_555
Ga5 N46 2.001515 1_555
Ga5 N17 2.603531 1_545
Ga6 N3 1.969176 1_555
Ga6 N4 2.075927 1_555
Ga6 N46 2.127557 1_565
Ga7 N40 1.847790 1_555
Ga7 N13 1.876409 1_655
Ga7 N15 1.994034 1_555
Ga8 N34 1.964290 1_555
Ga8 N8 2.318774 1_555
Ga9 N2 1.952792 1_555
Ga9 N10 1.984999 1_565
Ga9 N35 1.993345 1_555
Ga9 N27 2.013620 1_555
Ga10 N7 1.857153 1_555
Ga10 N12 2.082380 1_555
Ga11 N7 1.875255 1_555
Ga11 N32 1.974696 1_565
Ga11 N16 2.097603 1_465
Ga12 N48 2.023105 1_555
Ga12 N18 2.051647 1_555
Ga12 N34 2.065641 1_555
Ga13 N40 1.862724 1_555
Ga13 N18 1.980371 1_555
Ga14 N31 2.039615 1_555
Ga14 N6 2.088866 1_455
Ga15 N49 1.884778 1_555
Ga15 N27 1.897322 1_546
Ga15 N46 1.929474 1_555
Ga16 N31 1.981203 1_555
Ga16 N8 1.992422 1_555
Ga16 N43 2.485211 1_555
Ga17 N25 1.906850 1_555
Ga18 N26 1.946846 1_455
Ga19 N48 1.963670 1_555
Ga19 N25 1.993295 1_554
Ga19 N24 2.291998 1_555
Ga20 N40 1.905453 1_555
Ga20 N34 1.990494 1_555
Ga20 N10 2.027847 1_555
Ga20 N15 2.323032 1_555
Ga21 N31 2.032238 1_555
Ga22 N13 2.188315 1_655
Ga23 N6 2.074112 1_555
Ga23 N45 2.154306 1_556
Ga23 N37 2.499379 1_656
Ga23 N14 2.562307 1_655
Ga24 N18 1.963455 1_555
Ga24 N33 2.046432 1_555
Ga25 N21 2.139316 1_555
Ga26 N39 1.987304 1_555
Ga26 N19 2.009207 1_554
Ga26 N28 2.119528 1_555
Ga26 N20 2.143566 1_555
Ga27 N23 1.924405 1_554
Ga27 N42 2.077382 1_555
Ga27 N24 2.126383 1_555
Ga28 N23 1.947045 1_555
Ga28 N27 2.066939 1_556
Ga28 N19 2.188611 1_555
Ga29 N10 1.937666 1_555
Ga29 N45 2.030947 1_555
Ga29 N16 2.044167 1_555
Ga29 N29 2.087356 1_655
Ga30 N39 1.960960 1_556
Ga30 N11 1.969824 1_555
Ga30 N49 2.159417 1_555
Ga31 N3 1.840398 1_545
Ga31 N6 1.940089 1_555
Ga31 N15 2.052989 1_555
Ga32 N44 2.079000 1_465
Ga33 N4 1.960062 1_555
Ga33 N5 2.035681 1_555
Ga34 N35 1.957734 1_555
Ga34 N16 2.113458 1_565
Ga35 N37 2.104069 1_556
Ga36 N11 2.015661 1_555
Ga36 N6 2.169071 1_555
Ga37 N3 1.877660 1_555
Ga37 N5 2.026150 1_555
Ga37 N4 2.489605 1_555
Ga38 N26 2.020793 1_555
Ga38 N11 2.026843 1_555
Ga38 N19 2.071677 1_555
Ga38 N5 2.096693 1_555
Ga39 N35 1.967549 1_555
Ga39 N42 2.051173 1_555
Ga40 N5 1.975078 1_555
Ga41 N39 1.943080 1_555
Ga41 N29 1.962240 1_655
Ga41 N13 2.003879 1_655
Ga41 N21 2.059722 1_655
Ga42 N45 1.974937 1_455
Ga42 N37 2.145258 1_555
Ga42 N22 2.549194 1_544
Ga43 N4 1.921088 1_555
Ga43 N2 1.933604 1_555
Ga43 N34 1.991481 1_565
Ga43 N17 2.220117 1_555
Ga44 N25 1.896486 1_555
Ga44 N49 1.958294 1_555
Ga44 N11 2.004936 1_555
Ga44 N28 2.169587 1_556
Ga45 N33 2.111529 1_555
Ga46 N23 1.944597 1_555
Ga46 N25 2.256778 1_555
Ga46 N0 2.291616 1_555
Ga47 N7 1.889478 1_555
Ga47 N33 1.994483 1_555
Ga47 N42 2.021612 1_555
Ga47 N30 2.273888 1_555
Ga48 N46 2.045330 1_555
Ga49 N49 1.984963 1_554
Ga49 N10 1.994832 1_555
Ga49 N39 2.102708 1_555
N0 N41 1.144948 1_555
N1 N22 1.129084 1_555
N2 N42 1.453476 1_555
N12 N33 1.504635 1_555
N14 N43 1.140669 1_555
N15 N44 1.379039 1_555
N16 N44 1.414597 1_555
N17 N30 1.179041 1_555
N20 N21 1.251648 1_655
N24 N28 1.204150 1_555
N29 N37 1.545797 1_555
N32 N8 1.395214 1_555
N36 N9 1.118171 1_555
N38 N47 1.117656 1_455
