# generated using pymatgen
data_Er7Co6Sn23
_symmetry_space_group_name_H-M   'P 1'
_cell_length_a   10.06936844
_cell_length_b   10.06936844
_cell_length_c   10.96631800
_cell_angle_alpha   90.00000000
_cell_angle_beta   90.00000000
_cell_angle_gamma   120.00000291
_symmetry_Int_Tables_number   1
_chemical_formula_structural   Er7Co6Sn23
_chemical_formula_sum   'Er7 Co6 Sn23'
_cell_volume   962.93266375
_cell_formula_units_Z   1
loop_
 _symmetry_equiv_pos_site_id
 _symmetry_equiv_pos_as_xyz
  1  'x, y, z'
loop_
 _atom_site_type_symbol
 _atom_site_label
 _atom_site_symmetry_multiplicity
 _atom_site_fract_x
 _atom_site_fract_y
 _atom_site_fract_z
 _atom_site_occupancy
  Er  Er0  1  0.00000000  0.00000000  0.50000000  1
  Er  Er1  1  0.95125800  0.47562900  0.21102600  1
  Er  Er2  1  0.52437100  0.04874200  0.21102600  1
  Er  Er3  1  0.52437100  0.47562900  0.21102600  1
  Er  Er4  1  0.04874200  0.52437100  0.78897400  1
  Er  Er5  1  0.47562900  0.95125800  0.78897400  1
  Er  Er6  1  0.47562900  0.52437100  0.78897400  1
  Co  Co0  1  0.38712600  0.19356300  0.35036000  1
  Co  Co1  1  0.80643700  0.61287400  0.35036000  1
  Co  Co2  1  0.80643700  0.19356300  0.35036000  1
  Co  Co3  1  0.61287400  0.80643700  0.64964000  1
  Co  Co4  1  0.19356300  0.38712600  0.64964000  1
  Co  Co5  1  0.19356300  0.80643700  0.64964000  1
  Sn  Sn0  1  0.66666700  0.33333300  0.70124700  1
  Sn  Sn1  1  0.33333300  0.66666700  0.29875300  1
  Sn  Sn2  1  0.45621300  0.22810700  0.94322300  1
  Sn  Sn3  1  0.77189300  0.54378700  0.94322300  1
  Sn  Sn4  1  0.77189300  0.22810700  0.94322300  1
  Sn  Sn5  1  0.54378700  0.77189300  0.05677700  1
  Sn  Sn6  1  0.22810700  0.45621300  0.05677700  1
  Sn  Sn7  1  0.22810700  0.77189300  0.05677700  1
  Sn  Sn8  1  0.23331200  0.11665600  0.17703800  1
  Sn  Sn9  1  0.88334400  0.76668800  0.17703800  1
  Sn  Sn10  1  0.88334400  0.11665600  0.17703800  1
  Sn  Sn11  1  0.76668800  0.88334400  0.82296200  1
  Sn  Sn12  1  0.11665600  0.23331200  0.82296200  1
  Sn  Sn13  1  0.11665600  0.88334400  0.82296200  1
  Sn  Sn14  1  0.00000000  0.00000000  0.00000000  1
  Sn  Sn15  1  0.34766900  0.00000000  0.50000000  1
  Sn  Sn16  1  0.65233100  0.65233100  0.50000000  1
  Sn  Sn17  1  0.00000000  0.34766900  0.50000000  1
  Sn  Sn18  1  0.34766900  0.34766900  0.50000000  1
  Sn  Sn19  1  0.00000000  0.65233100  0.50000000  1
  Sn  Sn20  1  0.65233100  0.00000000  0.50000000  1
  Sn  Sn21  1  0.66666700  0.33333300  0.39099900  1
  Sn  Sn22  1  0.33333300  0.66666700  0.60900100  1
loop_
_geom_bond_atom_site_label_1
_geom_bond_atom_site_label_2
_geom_bond_distance
_geom_bond_site_symmetry_2
Er0 Sn18 3.500807 1_555
Er0 Sn16 3.500807 1_445
Er0 Sn15 3.500807 1_555
Er0 Sn19 3.500807 1_545
Er0 Sn20 3.500807 1_455
Er0 Sn17 3.500807 1_555
Er1 Sn21 3.170840 1_555
Er1 Sn10 3.346680 1_555
Er1 Sn9 3.346680 1_555
Er1 Sn7 3.348995 1_655
Er1 Sn6 3.348999 1_655
Er1 Sn1 3.467931 1_655
Er1 Sn19 3.546249 1_655
Er1 Sn17 3.546249 1_655
Er1 Sn4 3.687460 1_554
Er1 Sn3 3.687464 1_554
Er2 Sn21 3.170840 1_555
Er2 Sn10 3.346680 1_555
Er2 Sn8 3.346680 1_555
Er2 Sn7 3.348995 1_545
Er2 Sn5 3.348999 1_545
Er2 Sn1 3.467931 1_545
Er2 Sn15 3.546249 1_555
Er2 Sn20 3.546249 1_555
Er2 Sn4 3.687460 1_554
Er2 Sn2 3.687464 1_554
Er3 Sn21 3.170847 1_555
Er3 Sn8 3.346680 1_555
Er3 Sn9 3.346680 1_555
Er3 Sn5 3.348991 1_555
Er3 Sn6 3.348991 1_555
Er3 Sn1 3.467940 1_555
Er3 Sn16 3.546249 1_555
Er3 Sn18 3.546249 1_555
Er3 Sn2 3.687458 1_554
Er3 Sn3 3.687458 1_554
Er4 Sn22 3.170840 1_555
Er4 Sn13 3.346680 1_555
Er4 Sn12 3.346680 1_555
Er4 Sn4 3.348995 1_455
Er4 Sn3 3.348999 1_455
Er4 Sn0 3.467931 1_455
Er4 Sn17 3.546249 1_555
Er4 Sn19 3.546249 1_555
Er4 Sn7 3.687460 1_556
Er4 Sn6 3.687464 1_556
Er5 Sn22 3.170840 1_555
Er5 Sn13 3.346680 1_555
Er5 Sn11 3.346680 1_555
Er5 Sn4 3.348995 1_565
Er5 Sn2 3.348999 1_565
Er5 Sn0 3.467931 1_565
Er5 Sn20 3.546249 1_565
Er5 Sn15 3.546249 1_565
Er5 Sn7 3.687460 1_556
Er5 Sn5 3.687464 1_556
Er6 Sn22 3.170847 1_555
Er6 Sn11 3.346680 1_555
Er6 Sn12 3.346680 1_555
Er6 Sn2 3.348991 1_555
Er6 Sn3 3.348991 1_555
Er6 Sn0 3.467940 1_555
Er6 Sn16 3.546249 1_555
Er6 Sn18 3.546249 1_555
Er6 Sn5 3.687458 1_556
Er6 Sn6 3.687458 1_556
Co0 Sn8 2.326324 1_555
Co0 Sn15 2.423878 1_555
Co0 Sn18 2.423878 1_555
Co0 Sn21 2.478093 1_555
Co0 Er3 2.895919 1_555
Co0 Er2 2.895919 1_555
Co1 Sn9 2.326324 1_555
Co1 Sn19 2.423878 1_655
Co1 Sn16 2.423878 1_555
Co1 Sn21 2.478093 1_555
Co1 Er3 2.895919 1_555
Co1 Er1 2.895919 1_555
Co2 Sn10 2.326324 1_555
Co2 Sn17 2.423878 1_655
Co2 Sn20 2.423878 1_555
Co2 Sn21 2.478084 1_555
Co2 Er2 2.895919 1_555
Co2 Er1 2.895919 1_555
Co3 Sn11 2.326324 1_555
Co3 Sn20 2.423878 1_565
Co3 Sn16 2.423878 1_555
Co3 Sn22 2.478093 1_555
Co3 Er6 2.895919 1_555
Co3 Er5 2.895919 1_555
Co4 Sn12 2.326324 1_555
Co4 Sn17 2.423878 1_555
Co4 Sn18 2.423878 1_555
Co4 Sn22 2.478093 1_555
Co4 Er6 2.895919 1_555
Co4 Er4 2.895919 1_555
Co5 Sn13 2.326324 1_555
Co5 Sn19 2.423878 1_555
Co5 Sn15 2.423878 1_565
Co5 Sn22 2.478084 1_555
Co5 Er4 2.895919 1_555
Co5 Er5 2.895919 1_555
Sn0 Sn4 3.226378 1_555
Sn0 Sn2 3.226388 1_555
Sn0 Sn3 3.226388 1_555
Sn0 Sn21 3.402278 1_555
Sn1 Sn7 3.226378 1_555
Sn1 Sn5 3.226388 1_555
Sn1 Sn6 3.226388 1_555
Sn1 Sn22 3.402278 1_555
Sn2 Sn3 3.178698 1_555
Sn2 Sn4 3.178698 1_555
Sn2 Sn8 3.217576 1_556
Sn3 Sn4 3.178698 1_555
Sn3 Sn9 3.217576 1_556
Sn5 Sn6 3.178698 1_555
Sn5 Sn7 3.178698 1_555
Sn6 Sn7 3.178698 1_555
Sn10 Sn14 2.812236 1_655
Sn10 Sn4 3.217582 1_554
Sn11 Sn14 2.812236 1_666
Sn11 Sn5 3.217576 1_556
Sn12 Sn14 2.812236 1_556
Sn12 Sn6 3.217576 1_556
Sn13 Sn14 2.812236 1_566
Sn13 Sn7 3.217582 1_556
Sn14 Sn8 2.812236 1_555
Sn14 Sn9 2.812236 1_445
