# generated using pymatgen
data_Sr2EuVO6
_symmetry_space_group_name_H-M   'P 1'
_cell_length_a   5.86478997
_cell_length_b   5.86478997
_cell_length_c   5.86478997
_cell_angle_alpha   60.00000000
_cell_angle_beta   60.00000000
_cell_angle_gamma   60.00000000
_symmetry_Int_Tables_number   1
_chemical_formula_structural   Sr2EuVO6
_chemical_formula_sum   'Sr2 Eu1 V1 O6'
_cell_volume   142.64034943
_cell_formula_units_Z   1
loop_
 _symmetry_equiv_pos_site_id
 _symmetry_equiv_pos_as_xyz
  1  'x, y, z'
loop_
 _atom_site_type_symbol
 _atom_site_label
 _atom_site_symmetry_multiplicity
 _atom_site_fract_x
 _atom_site_fract_y
 _atom_site_fract_z
 _atom_site_occupancy
  Sr  Sr0  1  0.25000000  0.25000000  0.25000000  1
  Sr  Sr1  1  0.75000000  0.75000000  0.75000000  1
  Eu  Eu0  1  0.00000000  0.00000000  0.00000000  1
  V  V0  1  0.50000000  0.50000000  0.50000000  1
  O  O0  1  0.72877308  0.27122692  0.27122692  1
  O  O1  1  0.27122692  0.72877308  0.72877308  1
  O  O2  1  0.72877308  0.27122692  0.72877308  1
  O  O3  1  0.27122692  0.72877308  0.27122692  1
  O  O4  1  0.72877308  0.72877308  0.27122692  1
  O  O5  1  0.27122692  0.27122692  0.72877308  1
loop_
_geom_bond_atom_site_label_1
_geom_bond_atom_site_label_2
_geom_bond_distance
_geom_bond_site_symmetry_2
Eu0 O3 2.249574 1_545
Eu0 O5 2.249574 1_554
Eu0 O0 2.249574 1_455
Eu0 O4 2.249574 1_445
Eu0 O2 2.249574 1_454
Eu0 O1 2.249574 1_544
O0 V0 1.897459 1_555
O0 Sr0 2.937675 1_655
O0 Sr1 2.937675 1_545
O0 Sr0 2.937675 1_555
O0 Sr1 2.937675 1_554
O1 V0 1.897459 1_555
O1 Sr1 2.937675 1_455
O1 Sr0 2.937675 1_565
O1 Sr0 2.937675 1_556
O1 Sr1 2.937675 1_555
O2 V0 1.897459 1_555
O2 Sr1 2.937675 1_545
O2 Sr0 2.937675 1_655
O2 Sr0 2.937675 1_556
O2 Sr1 2.937675 1_555
O3 V0 1.897459 1_555
O3 Sr0 2.937675 1_555
O3 Sr1 2.937675 1_455
O3 Sr1 2.937675 1_554
O3 Sr0 2.937675 1_565
O4 V0 1.897459 1_555
O4 Sr1 2.937675 1_554
O4 Sr0 2.937675 1_565
O4 Sr0 2.937675 1_655
O4 Sr1 2.937675 1_555
O5 V0 1.897459 1_555
O5 Sr0 2.937675 1_555
O5 Sr1 2.937675 1_545
O5 Sr1 2.937675 1_455
O5 Sr0 2.937675 1_556
