# generated using pymatgen
data_CrSnSbO6
_symmetry_space_group_name_H-M   'P 1'
_cell_length_a   4.72465000
_cell_length_b   9.44230600
_cell_length_c   9.46722000
_cell_angle_alpha   89.99913948
_cell_angle_beta   90.00002424
_cell_angle_gamma   90.00337862
_symmetry_Int_Tables_number   1
_chemical_formula_structural   CrSnSbO6
_chemical_formula_sum   'Cr4 Sn4 Sb4 O24'
_cell_volume   422.34774656
_cell_formula_units_Z   4
loop_
 _symmetry_equiv_pos_site_id
 _symmetry_equiv_pos_as_xyz
  1  'x, y, z'
loop_
 _atom_site_type_symbol
 _atom_site_label
 _atom_site_symmetry_multiplicity
 _atom_site_fract_x
 _atom_site_fract_y
 _atom_site_fract_z
 _atom_site_occupancy
  Cr  Cr0  1  0.50003500  0.75004700  0.16716300  1
  Cr  Cr1  1  0.00004300  0.49993100  0.66710800  1
  Cr  Cr2  1  0.50000800  0.25001200  0.16710000  1
  Cr  Cr3  1  0.00001700  0.99996800  0.66707000  1
  Sn  Sn0  1  0.50001300  0.24996100  0.49935400  1
  Sn  Sn1  1  0.49996300  0.75001200  0.49942000  1
  Sn  Sn2  1  0.00001000  0.00003100  0.99930600  1
  Sn  Sn3  1  0.99994100  0.50000300  0.99932200  1
  Sb  Sb0  1  0.50000200  0.24997200  0.83302400  1
  Sb  Sb1  1  0.50002100  0.75002100  0.83299400  1
  Sb  Sb2  1  0.99998000  0.00004000  0.33294100  1
  Sb  Sb3  1  0.00001700  0.49997700  0.33291500  1
  O  O0  1  0.19588000  0.40203500  0.17144100  1
  O  O1  1  0.19588600  0.90209000  0.17146100  1
  O  O2  1  0.80405500  0.09798600  0.17142600  1
  O  O3  1  0.80410000  0.59791800  0.17146100  1
  O  O4  1  0.30419200  0.15216500  0.67138300  1
  O  O5  1  0.30421800  0.65218500  0.67138500  1
  O  O6  1  0.69572900  0.34781600  0.67134500  1
  O  O7  1  0.69579900  0.84782800  0.67136200  1
  O  O8  1  0.18792500  0.40613400  0.49890500  1
  O  O9  1  0.18792200  0.90613300  0.49892100  1
  O  O10  1  0.81208500  0.09386200  0.49894300  1
  O  O11  1  0.81214500  0.59385400  0.49890600  1
  O  O12  1  0.31198400  0.15609200  0.99888900  1
  O  O13  1  0.31197800  0.65611200  0.99887000  1
  O  O14  1  0.68806300  0.34388600  0.99888300  1
  O  O15  1  0.68803300  0.84389900  0.99888100  1
  O  O16  1  0.19730400  0.40142800  0.83004500  1
  O  O17  1  0.19738400  0.90141800  0.82992300  1
  O  O18  1  0.80271500  0.09857300  0.82993400  1
  O  O19  1  0.80254200  0.59861900  0.82992800  1
  O  O20  1  0.30272900  0.15173200  0.32999200  1
  O  O21  1  0.30268500  0.65169900  0.32999600  1
  O  O22  1  0.69731300  0.34826500  0.32997500  1
  O  O23  1  0.69728600  0.84829700  0.33003300  1
loop_
_geom_bond_atom_site_label_1
_geom_bond_atom_site_label_2
_geom_bond_distance
_geom_bond_site_symmetry_2
Cr0 O23 2.026482 1_555
Cr0 O21 2.026834 1_555
Cr0 O15 2.027878 1_554
Cr0 O13 2.028445 1_554
Cr0 O1 2.031727 1_555
Cr0 O3 2.032020 1_555
Cr1 O8 2.026890 1_555
Cr1 O11 2.027415 1_455
Cr1 O16 2.028110 1_555
Cr1 O19 2.028613 1_455
Cr1 O6 2.032627 1_455
Cr1 O5 2.033098 1_555
Cr2 O22 2.026649 1_555
Cr2 O20 2.026811 1_555
Cr2 O14 2.027604 1_554
Cr2 O12 2.027705 1_554
Cr2 O2 2.031277 1_555
Cr2 O0 2.031532 1_555
Cr3 O9 2.026693 1_555
Cr3 O10 2.026808 1_465
Cr3 O17 2.027940 1_555
Cr3 O18 2.028138 1_465
Cr3 O7 2.032483 1_455
Cr3 O4 2.032725 1_565
O0 Sb3 2.012135 1_555
O0 Sn3 2.089975 1_454
O1 Sb2 2.012306 1_465
O1 Sn2 2.089996 1_564
O2 Sb2 2.012560 1_555
O2 Sn2 2.089983 1_654
O3 Sb3 2.012082 1_655
O3 Sn3 2.089718 1_554
O4 Sb0 2.012585 1_555
O4 Sn0 2.088297 1_555
O5 Sb1 2.012465 1_555
O5 Sn1 2.087795 1_555
O6 Sb0 2.012818 1_555
O6 Sn0 2.088064 1_555
O7 Sb1 2.012430 1_555
O7 Sn1 2.087791 1_555
O8 Sb3 2.010696 1_555
O8 Sn0 2.085423 1_555
O9 Sb2 2.010960 1_465
O9 Sn1 2.084919 1_555
O10 Sb2 2.010692 1_555
O10 Sn0 2.084874 1_555
O11 Sb3 2.010791 1_655
O11 Sn1 2.085638 1_555
O12 Sb0 2.010110 1_555
O12 Sn2 2.084170 1_555
O13 Sb1 2.010364 1_555
O13 Sn3 2.084702 1_455
O14 Sb0 2.010317 1_555
O14 Sn3 2.084224 1_555
O15 Sb1 2.010272 1_555
O15 Sn2 2.084655 1_665
O16 Sb0 2.022748 1_555
O16 Sn3 2.074672 1_455
O17 Sb1 2.022163 1_555
O17 Sn2 2.075632 1_565
O18 Sb0 2.022433 1_555
O18 Sn2 2.075061 1_655
O19 Sb1 2.021809 1_555
O19 Sn3 2.075756 1_555
O20 Sb2 2.024371 1_455
O20 Sn0 2.073613 1_555
O21 Sb3 2.024298 1_555
O21 Sn1 2.074409 1_555
O22 Sb3 2.024354 1_655
O22 Sn0 2.074067 1_555
O23 Sb2 2.024524 1_565
O23 Sn1 2.074094 1_555
