# generated using pymatgen
data_Sm3Sc2(FeO4)3
_symmetry_space_group_name_H-M   'P 1'
_cell_length_a   11.08289926
_cell_length_b   11.08289926
_cell_length_c   11.08289926
_cell_angle_alpha   109.47122063
_cell_angle_beta   109.47122063
_cell_angle_gamma   109.47122063
_symmetry_Int_Tables_number   1
_chemical_formula_structural   Sm3Sc2(FeO4)3
_chemical_formula_sum   'Sm12 Sc8 Fe12 O48'
_cell_volume   1047.94445973
_cell_formula_units_Z   4
loop_
 _symmetry_equiv_pos_site_id
 _symmetry_equiv_pos_as_xyz
  1  'x, y, z'
loop_
 _atom_site_type_symbol
 _atom_site_label
 _atom_site_symmetry_multiplicity
 _atom_site_fract_x
 _atom_site_fract_y
 _atom_site_fract_z
 _atom_site_occupancy
  Sm  Sm0  1  0.87500000  0.62500000  0.75000000  1
  Sm  Sm1  1  0.12500000  0.37500000  0.25000000  1
  Sm  Sm2  1  0.62500000  0.87500000  0.25000000  1
  Sm  Sm3  1  0.62500000  0.75000000  0.87500000  1
  Sm  Sm4  1  0.87500000  0.25000000  0.62500000  1
  Sm  Sm5  1  0.37500000  0.12500000  0.75000000  1
  Sm  Sm6  1  0.37500000  0.25000000  0.12500000  1
  Sm  Sm7  1  0.12500000  0.75000000  0.37500000  1
  Sm  Sm8  1  0.75000000  0.87500000  0.62500000  1
  Sm  Sm9  1  0.25000000  0.12500000  0.37500000  1
  Sm  Sm10  1  0.25000000  0.62500000  0.87500000  1
  Sm  Sm11  1  0.75000000  0.37500000  0.12500000  1
  Sc  Sc0  1  -0.00000000  -0.00000000  -0.00000000  1
  Sc  Sc1  1  0.50000000  -0.00000000  0.50000000  1
  Sc  Sc2  1  0.50000000  0.50000000  -0.00000000  1
  Sc  Sc3  1  -0.00000000  -0.00000000  0.50000000  1
  Sc  Sc4  1  -0.00000000  0.50000000  0.50000000  1
  Sc  Sc5  1  0.50000000  0.50000000  0.50000000  1
  Sc  Sc6  1  0.50000000  -0.00000000  -0.00000000  1
  Sc  Sc7  1  -0.00000000  0.50000000  -0.00000000  1
  Fe  Fe0  1  0.62500000  0.37500000  0.75000000  1
  Fe  Fe1  1  0.37500000  0.62500000  0.25000000  1
  Fe  Fe2  1  0.87500000  0.12500000  0.25000000  1
  Fe  Fe3  1  0.37500000  0.75000000  0.62500000  1
  Fe  Fe4  1  0.62500000  0.25000000  0.37500000  1
  Fe  Fe5  1  0.12500000  0.87500000  0.75000000  1
  Fe  Fe6  1  0.12500000  0.25000000  0.87500000  1
  Fe  Fe7  1  0.87500000  0.75000000  0.12500000  1
  Fe  Fe8  1  0.75000000  0.62500000  0.37500000  1
  Fe  Fe9  1  0.25000000  0.37500000  0.62500000  1
  Fe  Fe10  1  0.25000000  0.87500000  0.12500000  1
  Fe  Fe11  1  0.75000000  0.12500000  0.87500000  1
  O  O0  1  0.71003277  0.62533496  0.52924401  1
  O  O1  1  0.28996723  0.37466504  0.47075599  1
  O  O2  1  0.78996723  0.81921124  0.41530219  1
  O  O3  1  0.40390906  0.87466504  0.08469781  1
  O  O4  1  0.62533496  0.52924401  0.71003277  1
  O  O5  1  0.71003277  0.08469781  0.68078876  1
  O  O6  1  0.21003277  0.18078876  0.58469781  1
  O  O7  1  0.59609094  0.12533496  0.91530219  1
  O  O8  1  0.37466504  0.47075599  0.28996723  1
  O  O9  1  0.28996723  0.91530219  0.31921124  1
  O  O10  1  0.09609094  0.68078876  0.97075599  1
  O  O11  1  0.81921124  0.41530219  0.78996723  1
  O  O12  1  0.78996723  0.97075599  0.87466504  1
  O  O13  1  0.90390906  0.31921124  0.02924401  1
  O  O14  1  0.18078876  0.58469781  0.21003277  1
  O  O15  1  0.21003277  0.02924401  0.12533496  1
  O  O16  1  0.87466504  0.08469781  0.40390906  1
  O  O17  1  0.40390906  0.52924401  0.81921124  1
  O  O18  1  0.12533496  0.91530219  0.59609094  1
  O  O19  1  0.59609094  0.47075599  0.18078876  1
  O  O20  1  0.68078876  0.97075599  0.09609094  1
  O  O21  1  0.09609094  0.41530219  0.62533496  1
  O  O22  1  0.31921124  0.02924401  0.90390906  1
  O  O23  1  0.90390906  0.58469781  0.37466504  1
  O  O24  1  0.52924401  0.71003277  0.62533496  1
  O  O25  1  0.62533496  0.09609094  0.41530219  1
  O  O26  1  0.47075599  0.28996723  0.37466504  1
  O  O27  1  0.37466504  0.90390906  0.58469781  1
  O  O28  1  0.08469781  0.40390906  0.87466504  1
  O  O29  1  0.87466504  0.78996723  0.97075599  1
  O  O30  1  0.91530219  0.59609094  0.12533496  1
  O  O31  1  0.12533496  0.21003277  0.02924401  1
  O  O32  1  0.97075599  0.09609094  0.68078876  1
  O  O33  1  0.68078876  0.71003277  0.08469781  1
  O  O34  1  0.02924401  0.90390906  0.31921124  1
  O  O35  1  0.31921124  0.28996723  0.91530219  1
  O  O36  1  0.41530219  0.78996723  0.81921124  1
  O  O37  1  0.81921124  0.40390906  0.52924401  1
  O  O38  1  0.58469781  0.21003277  0.18078876  1
  O  O39  1  0.18078876  0.59609094  0.47075599  1
  O  O40  1  0.08469781  0.68078876  0.71003277  1
  O  O41  1  0.91530219  0.31921124  0.28996723  1
  O  O42  1  0.97075599  0.87466504  0.78996723  1
  O  O43  1  0.02924401  0.12533496  0.21003277  1
  O  O44  1  0.41530219  0.62533496  0.09609094  1
  O  O45  1  0.58469781  0.37466504  0.90390906  1
  O  O46  1  0.52924401  0.81921124  0.40390906  1
  O  O47  1  0.47075599  0.18078876  0.59609094  1
loop_
_geom_bond_atom_site_label_1
_geom_bond_atom_site_label_2
_geom_bond_distance
_geom_bond_site_symmetry_2
Fe0 O11 1.902679 1_555
Fe0 O4 1.902679 1_555
Fe0 O47 1.902679 1_555
Fe0 O45 1.902679 1_555
Fe1 O14 1.902679 1_555
Fe1 O8 1.902679 1_555
Fe1 O46 1.902679 1_555
Fe1 O44 1.902679 1_555
Fe2 O43 1.902679 1_655
Fe2 O41 1.902679 1_555
Fe2 O20 1.902679 1_545
Fe2 O16 1.902679 1_555
Fe3 O36 1.902679 1_555
Fe3 O24 1.902679 1_555
Fe3 O39 1.902679 1_555
Fe3 O27 1.902679 1_555
Fe4 O38 1.902679 1_555
Fe4 O26 1.902679 1_555
Fe4 O37 1.902679 1_555
Fe4 O25 1.902679 1_555
Fe5 O42 1.902679 1_455
Fe5 O40 1.902679 1_555
Fe5 O22 1.902679 1_565
Fe5 O18 1.902679 1_555
Fe6 O31 1.902679 1_556
Fe6 O35 1.902679 1_555
Fe6 O32 1.902679 1_455
Fe6 O28 1.902679 1_555
Fe7 O29 1.902679 1_554
Fe7 O33 1.902679 1_555
Fe7 O34 1.902679 1_655
Fe7 O30 1.902679 1_555
Fe8 O0 1.902679 1_555
Fe8 O2 1.902679 1_555
Fe8 O19 1.902679 1_555
Fe8 O23 1.902679 1_555
Fe9 O1 1.902679 1_555
Fe9 O6 1.902679 1_555
Fe9 O17 1.902679 1_555
Fe9 O21 1.902679 1_555
Fe10 O9 1.902679 1_555
Fe10 O15 1.902679 1_565
Fe10 O10 1.902679 1_554
Fe10 O3 1.902679 1_555
Fe11 O5 1.902679 1_555
Fe11 O12 1.902679 1_545
Fe11 O13 1.902679 1_556
Fe11 O7 1.902679 1_555
O0 Sc5 2.119990 1_555
O0 Sm8 2.427069 1_555
O0 Sm0 2.521337 1_555
O1 Sc5 2.119990 1_555
O1 Sm9 2.427069 1_555
O1 Sm1 2.521337 1_555
O2 Sc3 2.119990 1_665
O2 Sm8 2.427069 1_555
O2 Sm2 2.521337 1_555
O3 Sc6 2.119990 1_565
O3 Sm10 2.427069 1_554
O3 Sm2 2.521336 1_555
O4 Sc5 2.119990 1_555
O4 Sm0 2.427069 1_555
O4 Sm3 2.521337 1_555
O5 Sc1 2.119990 1_555
O5 Sm8 2.427069 1_545
O5 Sm4 2.521337 1_555
O6 Sc3 2.119990 1_555
O6 Sm9 2.427069 1_555
O6 Sm5 2.521337 1_555
O7 Sc6 2.119990 1_556
O7 Sm11 2.427069 1_556
O7 Sm5 2.521336 1_555
O8 Sc5 2.119990 1_555
O8 Sm1 2.427069 1_555
O8 Sm6 2.521337 1_555
O9 Sc1 2.119990 1_565
O9 Sm9 2.427069 1_565
O9 Sm7 2.521337 1_555
O10 Sc7 2.119990 1_556
O10 Sm10 2.427069 1_555
O10 Sm0 2.521336 1_455
O11 Sc7 2.119990 1_656
O11 Sm0 2.427069 1_555
O11 Sm4 2.521337 1_555
O12 Sc0 2.119990 1_666
O12 Sm8 2.427069 1_555
O12 Sm3 2.521337 1_555
O13 Sc7 2.119990 1_655
O13 Sm11 2.427069 1_555
O13 Sm1 2.521336 1_655
O14 Sc7 2.119990 1_555
O14 Sm1 2.427069 1_555
O14 Sm7 2.521337 1_555
O15 Sc0 2.119990 1_555
O15 Sm9 2.427069 1_555
O15 Sm6 2.521337 1_555
O16 Sc3 2.119990 1_655
O16 Sm2 2.427069 1_545
O16 Sm4 2.521336 1_555
O17 Sc2 2.119990 1_556
O17 Sm10 2.427069 1_555
O17 Sm3 2.521336 1_555
O18 Sc3 2.119990 1_565
O18 Sm5 2.427069 1_565
O18 Sm7 2.521336 1_555
O19 Sc2 2.119990 1_555
O19 Sm11 2.427069 1_555
O19 Sm6 2.521336 1_555
O20 Sc6 2.119990 1_565
O20 Sm2 2.427069 1_555
O20 Sm3 2.521336 1_554
O21 Sc4 2.119990 1_555
O21 Sm10 2.427069 1_555
O21 Sm4 2.521336 1_455
O22 Sc6 2.119990 1_556
O22 Sm5 2.427069 1_555
O22 Sm6 2.521336 1_556
O23 Sc4 2.119990 1_655
O23 Sm11 2.427069 1_555
O23 Sm7 2.521336 1_655
O24 Sc5 2.119990 1_555
O24 Sm3 2.427069 1_555
O24 Sm8 2.521337 1_555
O25 Sc1 2.119990 1_555
O25 Sm4 2.427069 1_555
O25 Sm2 2.521336 1_545
O26 Sc5 2.119990 1_555
O26 Sm6 2.427069 1_555
O26 Sm9 2.521337 1_555
O27 Sc1 2.119990 1_565
O27 Sm7 2.427069 1_555
O27 Sm5 2.521336 1_565
O28 Sc7 2.119990 1_556
O28 Sm4 2.427069 1_455
O28 Sm10 2.521336 1_555
O29 Sc0 2.119990 1_666
O29 Sm3 2.427069 1_555
O29 Sm0 2.521337 1_555
O30 Sc7 2.119990 1_655
O30 Sm7 2.427069 1_655
O30 Sm11 2.521336 1_555
O31 Sc0 2.119990 1_555
O31 Sm6 2.427069 1_555
O31 Sm1 2.521337 1_555
O32 Sc3 2.119990 1_655
O32 Sm4 2.427069 1_555
O32 Sm8 2.521336 1_545
O33 Sc2 2.119990 1_555
O33 Sm3 2.427069 1_554
O33 Sm2 2.521337 1_555
O34 Sc3 2.119990 1_565
O34 Sm7 2.427069 1_555
O34 Sm9 2.521336 1_565
O35 Sc2 2.119990 1_556
O35 Sm6 2.427069 1_556
O35 Sm5 2.521337 1_555
O36 Sc6 2.119990 1_566
O36 Sm3 2.427069 1_555
O36 Sm10 2.521337 1_555
O37 Sc4 2.119990 1_655
O37 Sm4 2.427069 1_555
O37 Sm0 2.521336 1_555
O38 Sc6 2.119990 1_555
O38 Sm6 2.427069 1_555
O38 Sm11 2.521337 1_555
O39 Sc4 2.119990 1_555
O39 Sm7 2.427069 1_555
O39 Sm1 2.521336 1_555
O40 Sc4 2.119990 1_555
O40 Sm0 2.427069 1_455
O40 Sm10 2.521337 1_555
O41 Sc4 2.119990 1_655
O41 Sm1 2.427069 1_655
O41 Sm11 2.521337 1_555
O42 Sc0 2.119990 1_666
O42 Sm0 2.427069 1_555
O42 Sm8 2.521337 1_555
O43 Sc0 2.119990 1_555
O43 Sm1 2.427069 1_555
O43 Sm9 2.521337 1_555
O44 Sc2 2.119990 1_555
O44 Sm2 2.427069 1_555
O44 Sm10 2.521336 1_554
O45 Sc2 2.119990 1_556
O45 Sm5 2.427069 1_555
O45 Sm11 2.521336 1_556
O46 Sc1 2.119990 1_565
O46 Sm2 2.427069 1_555
O46 Sm8 2.521336 1_555
O47 Sc1 2.119990 1_555
O47 Sm5 2.427069 1_555
O47 Sm9 2.521336 1_555
