# generated using pymatgen
data_USiH2PbO7
_symmetry_space_group_name_H-M   'P 1'
_cell_length_a   6.94512900
_cell_length_b   6.86996000
_cell_length_c   13.39132725
_cell_angle_alpha   76.77458521
_cell_angle_beta   90.00000000
_cell_angle_gamma   90.00000000
_symmetry_Int_Tables_number   1
_chemical_formula_structural   USiH2PbO7
_chemical_formula_sum   'U4 Si4 H8 Pb4 O28'
_cell_volume   621.99096202
_cell_formula_units_Z   4
loop_
 _symmetry_equiv_pos_site_id
 _symmetry_equiv_pos_as_xyz
  1  'x, y, z'
loop_
 _atom_site_type_symbol
 _atom_site_label
 _atom_site_symmetry_multiplicity
 _atom_site_fract_x
 _atom_site_fract_y
 _atom_site_fract_z
 _atom_site_occupancy
  U  U0  1  0.72842800  0.96881800  0.32632200  1
  U  U1  1  0.22842800  0.03118200  0.17367800  1
  U  U2  1  0.27157200  0.03118200  0.67367800  1
  U  U3  1  0.77157200  0.96881800  0.82632200  1
  Si  Si0  1  0.78892900  0.09617500  0.57406400  1
  Si  Si1  1  0.28892900  0.90382500  0.92593600  1
  Si  Si2  1  0.21107100  0.90382500  0.42593600  1
  Si  Si3  1  0.71107100  0.09617500  0.07406400  1
  H  H0  1  0.53005400  0.35488300  0.37940500  1
  H  H1  1  0.03005400  0.64511700  0.12059500  1
  H  H2  1  0.46994600  0.64511700  0.62059500  1
  H  H3  1  0.96994600  0.35488300  0.87940500  1
  H  H4  1  0.48981500  0.55397500  0.41485100  1
  H  H5  1  0.98981500  0.44602500  0.08514900  1
  H  H6  1  0.51018500  0.44602500  0.58514900  1
  H  H7  1  0.01018500  0.55397500  0.91485100  1
  Pb  Pb0  1  0.07038400  0.42739500  0.37986400  1
  Pb  Pb1  1  0.57038400  0.57260500  0.12013600  1
  Pb  Pb2  1  0.92961600  0.57260500  0.62013600  1
  Pb  Pb3  1  0.42961600  0.42739500  0.87986400  1
  O  O0  1  0.58577900  0.09085800  0.63875200  1
  O  O1  1  0.08577900  0.90914200  0.86124800  1
  O  O2  1  0.41422100  0.90914200  0.36124800  1
  O  O3  1  0.91422100  0.09085800  0.13875200  1
  O  O4  1  0.69317300  0.24437000  0.30733000  1
  O  O5  1  0.19317300  0.75563000  0.19267000  1
  O  O6  1  0.30682700  0.75563000  0.69267000  1
  O  O7  1  0.80682700  0.24437000  0.80733000  1
  O  O8  1  0.93453800  0.98275100  0.66938900  1
  O  O9  1  0.43453800  0.01724900  0.83061100  1
  O  O10  1  0.06546200  0.01724900  0.33061100  1
  O  O11  1  0.56546200  0.98275100  0.16938900  1
  O  O12  1  0.86693500  0.32278600  0.52568000  1
  O  O13  1  0.36693500  0.67721400  0.97432000  1
  O  O14  1  0.13306500  0.67721400  0.47432000  1
  O  O15  1  0.63306500  0.32278600  0.02568000  1
  O  O16  1  0.77727600  0.95450200  0.49072700  1
  O  O17  1  0.27727600  0.04549800  0.00927300  1
  O  O18  1  0.22272400  0.04549800  0.50927300  1
  O  O19  1  0.72272400  0.95450200  0.99072700  1
  O  O20  1  0.77632300  0.69943700  0.33473200  1
  O  O21  1  0.27632300  0.30056300  0.16526800  1
  O  O22  1  0.22367700  0.30056300  0.66526800  1
  O  O23  1  0.72367700  0.69943700  0.83473200  1
  O  O24  1  0.43322700  0.42391600  0.41327400  1
  O  O25  1  0.93322700  0.57608400  0.08672600  1
  O  O26  1  0.56677300  0.57608400  0.58672600  1
  O  O27  1  0.06677300  0.42391600  0.91327400  1
loop_
_geom_bond_atom_site_label_1
_geom_bond_atom_site_label_2
_geom_bond_distance
_geom_bond_site_symmetry_2
H0 O24 0.990591 1_555
H1 O25 0.990591 1_455
H2 O26 0.990591 1_555
H3 O27 0.990591 1_655
H4 O24 0.980755 1_555
H5 O25 0.980755 1_555
H6 O26 0.980755 1_555
H7 O27 0.980755 1_555
O0 Si0 1.651637 1_555
O0 U2 2.249694 1_555
O0 U3 2.777327 1_545
O1 Si1 1.651637 1_555
O1 U3 2.249694 1_455
O1 U2 2.777327 1_565
O2 Si2 1.651637 1_555
O2 U0 2.249694 1_555
O2 U1 2.777327 1_565
O3 Si3 1.651637 1_555
O3 U1 2.249694 1_655
O3 U0 2.777327 1_545
O4 U0 1.867594 1_545
O5 U1 1.867594 1_565
O6 U2 1.867594 1_565
O7 U3 1.867594 1_545
O8 Si0 1.674587 1_565
O8 U2 2.366819 1_665
O8 U3 2.369517 1_555
O9 Si1 1.674587 1_545
O9 U3 2.366819 1_545
O9 U2 2.369517 1_555
O10 Si2 1.674587 1_545
O10 U0 2.366819 1_445
O10 U1 2.369517 1_555
O11 Si3 1.674587 1_565
O11 U1 2.366819 1_565
O11 U0 2.369517 1_555
O12 Si0 1.635672 1_555
O12 Pb0 2.384072 1_655
O12 Pb2 2.393381 1_555
O13 Si1 1.635672 1_555
O13 Pb1 2.384072 1_556
O13 Pb3 2.393381 1_555
O14 Si2 1.635672 1_555
O14 Pb2 2.384072 1_455
O14 Pb0 2.393381 1_555
O15 Si3 1.635672 1_555
O15 Pb3 2.384072 1_554
O15 Pb1 2.393381 1_555
O16 Si0 1.642035 1_565
O16 U0 2.207428 1_555
O17 Si1 1.642035 1_544
O17 U1 2.207428 1_555
O18 Si2 1.642035 1_545
O18 U2 2.207428 1_555
O19 Si3 1.642035 1_566
O19 U3 2.207428 1_555
O20 U0 1.858177 1_555
O20 Pb0 2.740848 1_655
O21 U1 1.858177 1_555
O21 Pb1 2.740848 1_555
O22 U2 1.858177 1_555
O22 Pb2 2.740848 1_455
O23 U3 1.858177 1_555
O23 Pb3 2.740848 1_555
O24 Pb0 2.558555 1_555
O25 Pb1 2.558555 1_555
O26 Pb2 2.558555 1_555
O27 Pb3 2.558555 1_555
