# generated using pymatgen
data_Zr3ZnF6
_symmetry_space_group_name_H-M   'P 1'
_cell_length_a   6.14763932
_cell_length_b   5.63268664
_cell_length_c   16.07112298
_cell_angle_alpha   115.60732590
_cell_angle_beta   43.42650242
_cell_angle_gamma   123.10218374
_symmetry_Int_Tables_number   1
_chemical_formula_structural   Zr3ZnF6
_chemical_formula_sum   'Zr3 Zn1 F6'
_cell_volume   319.85417536
_cell_formula_units_Z   1
loop_
 _symmetry_equiv_pos_site_id
 _symmetry_equiv_pos_as_xyz
  1  'x, y, z'
loop_
 _atom_site_type_symbol
 _atom_site_label
 _atom_site_symmetry_multiplicity
 _atom_site_fract_x
 _atom_site_fract_y
 _atom_site_fract_z
 _atom_site_occupancy
  Zr  Zr0  1  0.00000000  0.00000000  0.50000000  1
  Zr  Zr1  1  0.50000000  0.50000000  0.00000000  1
  Zr  Zr2  1  0.00000000  0.50000000  0.00000000  1
  Zn  Zn0  1  0.00000000  0.00000000  0.00000000  1
  F  F0  1  0.90286600  0.34214600  0.87742100  1
  F  F1  1  0.09713400  0.65785400  0.12257900  1
  F  F2  1  0.94605600  0.95070500  0.62900700  1
  F  F3  1  0.05394400  0.04929500  0.37099300  1
  F  F4  1  0.54307700  0.63536900  0.88075100  1
  F  F5  1  0.45692300  0.36463100  0.11924900  1
loop_
_geom_bond_atom_site_label_1
_geom_bond_atom_site_label_2
_geom_bond_distance
_geom_bond_site_symmetry_2
Zn0 Zr1 2.815043 1_445
Zn0 Zr1 2.815043 1_555
Zn0 Zr2 2.816343 1_545
Zn0 Zr2 2.816343 1_555
F0 Zr1 2.147026 1_556
F0 Zr2 2.154682 1_656
F1 Zr1 2.147026 1_555
F1 Zr2 2.154682 1_555
F2 Zr0 1.970772 1_665
F3 Zr0 1.970772 1_555
F4 Zr2 2.142331 1_556
F4 Zr1 2.151689 1_556
F5 Zr2 2.142331 1_655
F5 Zr1 2.151689 1_555
