# generated using pymatgen
data_TbMgPd
_symmetry_space_group_name_H-M   'P 1'
_cell_length_a   7.43447604
_cell_length_b   7.43447604
_cell_length_c   4.06723982
_cell_angle_alpha   90.00000000
_cell_angle_beta   90.00000000
_cell_angle_gamma   119.99999914
_symmetry_Int_Tables_number   1
_chemical_formula_structural   TbMgPd
_chemical_formula_sum   'Tb3 Mg3 Pd3'
_cell_volume   194.68439819
_cell_formula_units_Z   3
loop_
 _symmetry_equiv_pos_site_id
 _symmetry_equiv_pos_as_xyz
  1  'x, y, z'
loop_
 _atom_site_type_symbol
 _atom_site_label
 _atom_site_symmetry_multiplicity
 _atom_site_fract_x
 _atom_site_fract_y
 _atom_site_fract_z
 _atom_site_occupancy
  Tb  Tb0  1  0.58797785  -0.00000000  -0.00000000  1
  Tb  Tb1  1  -0.00000000  0.58797785  0.00000000  1
  Tb  Tb2  1  0.41202215  0.41202215  0.00000000  1
  Mg  Mg0  1  0.24247535  -0.00000000  0.50000000  1
  Mg  Mg1  1  -0.00000000  0.24247535  0.50000000  1
  Mg  Mg2  1  0.75752465  0.75752465  0.50000000  1
  Pd  Pd0  1  0.33333300  0.66666700  0.50000000  1
  Pd  Pd1  1  0.66666700  0.33333300  0.50000000  1
  Pd  Pd2  1  0.00000000  -0.00000000  0.00000000  1
loop_
_geom_bond_atom_site_label_1
_geom_bond_atom_site_label_2
_geom_bond_distance
_geom_bond_site_symmetry_2
Mg0 Pd2 2.717583 1_556
Mg0 Pd2 2.717583 1_555
Mg0 Pd0 2.876017 1_545
Mg0 Pd1 2.876022 1_555
Mg0 Mg1 3.122328 1_555
Mg0 Mg2 3.122328 1_445
Mg0 Tb0 3.276198 1_555
Mg0 Tb0 3.276198 1_556
Mg0 Tb2 3.353558 1_555
Mg0 Tb2 3.353558 1_556
Mg0 Tb1 3.353558 1_546
Mg0 Tb1 3.353558 1_545
Mg1 Pd2 2.717583 1_556
Mg1 Pd2 2.717583 1_555
Mg1 Pd1 2.876017 1_455
Mg1 Pd0 2.876022 1_555
Mg1 Mg2 3.122328 1_445
Mg1 Tb1 3.276198 1_555
Mg1 Tb1 3.276198 1_556
Mg1 Tb2 3.353558 1_555
Mg1 Tb2 3.353558 1_556
Mg1 Tb0 3.353558 1_456
Mg1 Tb0 3.353558 1_455
Mg2 Pd2 2.717583 1_665
Mg2 Pd2 2.717583 1_666
Mg2 Pd1 2.876024 1_555
Mg2 Pd0 2.876024 1_555
Mg2 Tb2 3.276198 1_555
Mg2 Tb2 3.276198 1_556
Mg2 Tb1 3.353558 1_656
Mg2 Tb1 3.353558 1_655
Mg2 Tb0 3.353558 1_565
Mg2 Tb0 3.353558 1_566
Pd0 Tb1 3.028094 1_555
Pd0 Tb1 3.028094 1_556
Pd0 Tb0 3.028096 1_566
Pd0 Tb0 3.028096 1_565
Pd0 Tb2 3.028100 1_555
Pd0 Tb2 3.028100 1_556
Pd1 Tb0 3.028094 1_555
Pd1 Tb0 3.028094 1_556
Pd1 Tb1 3.028096 1_655
Pd1 Tb1 3.028096 1_656
Pd1 Tb2 3.028100 1_555
Pd1 Tb2 3.028100 1_556
Pd2 Tb1 3.063169 1_545
Pd2 Tb0 3.063169 1_455
Pd2 Tb2 3.063169 1_555
