# generated using pymatgen
data_CaRhO3
_symmetry_space_group_name_H-M   'P 1'
_cell_length_a   5.30813379
_cell_length_b   5.58872343
_cell_length_c   7.62858879
_cell_angle_alpha   90.00000000
_cell_angle_beta   90.00000000
_cell_angle_gamma   90.00000000
_symmetry_Int_Tables_number   1
_chemical_formula_structural   CaRhO3
_chemical_formula_sum   'Ca4 Rh4 O12'
_cell_volume   226.30736301
_cell_formula_units_Z   4
loop_
 _symmetry_equiv_pos_site_id
 _symmetry_equiv_pos_as_xyz
  1  'x, y, z'
loop_
 _atom_site_type_symbol
 _atom_site_label
 _atom_site_symmetry_multiplicity
 _atom_site_fract_x
 _atom_site_fract_y
 _atom_site_fract_z
 _atom_site_occupancy
  Ca  Ca0  1  0.51839054  0.56420498  0.25000000  1
  Ca  Ca1  1  0.98160946  0.06420498  0.25000000  1
  Ca  Ca2  1  0.48160946  0.43579502  0.75000000  1
  Ca  Ca3  1  0.01839054  0.93579502  0.75000000  1
  Rh  Rh0  1  0.50000000  -0.00000000  -0.00000000  1
  Rh  Rh1  1  0.00000000  0.50000000  0.50000000  1
  Rh  Rh2  1  0.50000000  -0.00000000  0.50000000  1
  Rh  Rh3  1  0.00000000  0.50000000  0.00000000  1
  O  O0  1  0.39747409  0.96587668  0.25000000  1
  O  O1  1  0.10252591  0.46587668  0.25000000  1
  O  O2  1  0.60252591  0.03412332  0.75000000  1
  O  O3  1  0.89747409  0.53412332  0.75000000  1
  O  O4  1  0.80757889  0.80216072  0.05120724  1
  O  O5  1  0.69242111  0.30216072  0.44879276  1
  O  O6  1  0.19242111  0.19783928  0.55120724  1
  O  O7  1  0.30757889  0.69783928  0.94879276  1
  O  O8  1  0.19242111  0.19783928  0.94879276  1
  O  O9  1  0.30757889  0.69783928  0.55120724  1
  O  O10  1  0.80757889  0.80216072  0.44879276  1
  O  O11  1  0.69242111  0.30216072  0.05120724  1
loop_
_geom_bond_atom_site_label_1
_geom_bond_atom_site_label_2
_geom_bond_distance
_geom_bond_site_symmetry_2
Ca0 O1 2.274837 1_555
Ca0 O11 2.301717 1_555
Ca0 O5 2.301717 1_555
Ca0 O0 2.334787 1_555
Ca0 O10 2.534705 1_555
Ca0 O4 2.534705 1_555
Ca0 O9 2.662667 1_555
Ca0 O7 2.662667 1_554
Ca1 O0 2.274837 1_645
Ca1 O10 2.301717 1_545
Ca1 O4 2.301717 1_545
Ca1 O1 2.334787 1_655
Ca1 O11 2.534705 1_555
Ca1 O5 2.534705 1_555
Ca1 O8 2.662667 1_654
Ca1 O6 2.662667 1_655
Ca2 O3 2.274837 1_555
Ca2 O9 2.301717 1_555
Ca2 O7 2.301717 1_555
Ca2 O2 2.334787 1_555
Ca2 O8 2.534705 1_555
Ca2 O6 2.534705 1_555
Ca2 O5 2.662667 1_555
Ca2 O11 2.662667 1_556
Ca3 O2 2.274837 1_465
Ca3 O8 2.301717 1_565
Ca3 O6 2.301717 1_565
Ca3 O3 2.334787 1_455
Ca3 O9 2.534705 1_555
Ca3 O7 2.534705 1_555
Ca3 O10 2.662667 1_455
Ca3 O4 2.662667 1_456
O0 Rh0 1.992425 1_565
O0 Rh2 1.992425 1_565
O1 Rh3 1.992425 1_555
O1 Rh1 1.992425 1_555
O2 Rh0 1.992425 1_556
O2 Rh2 1.992425 1_555
O3 Rh1 1.992425 1_655
O3 Rh3 1.992425 1_656
O4 Rh0 2.010153 1_565
O4 Rh3 2.011848 1_655
O5 Rh1 2.010153 1_655
O5 Rh2 2.011848 1_555
O6 Rh2 2.010153 1_555
O6 Rh1 2.011848 1_555
O7 Rh3 2.010153 1_556
O7 Rh0 2.011848 1_566
O8 Rh0 2.010153 1_556
O8 Rh3 2.011848 1_556
O9 Rh1 2.010153 1_555
O9 Rh2 2.011848 1_565
O10 Rh2 2.010153 1_565
O10 Rh1 2.011848 1_655
O11 Rh3 2.010153 1_655
O11 Rh0 2.011848 1_555
