# generated using pymatgen
data_ErZr
_symmetry_space_group_name_H-M   'P 1'
_cell_length_a   6.79731298
_cell_length_b   6.79731298
_cell_length_c   10.67770000
_cell_angle_alpha   90.00000000
_cell_angle_beta   90.00000000
_cell_angle_gamma   120.00000953
_symmetry_Int_Tables_number   1
_chemical_formula_structural   ErZr
_chemical_formula_sum   'Er8 Zr8'
_cell_volume   427.25075546
_cell_formula_units_Z   8
loop_
 _symmetry_equiv_pos_site_id
 _symmetry_equiv_pos_as_xyz
  1  'x, y, z'
loop_
 _atom_site_type_symbol
 _atom_site_label
 _atom_site_symmetry_multiplicity
 _atom_site_fract_x
 _atom_site_fract_y
 _atom_site_fract_z
 _atom_site_occupancy
  Er  Er0_0  1  0.33333350  0.16666650  0.25000000  1
  Er  Er0_1  1  0.33333350  0.16666650  0.75000000  1
  Er  Er0_2  1  0.33333350  0.66666650  0.25000000  1
  Er  Er0_3  1  0.33333350  0.66666650  0.75000000  1
  Er  Er0_4  1  0.83333350  0.16666650  0.25000000  1
  Er  Er0_5  1  0.83333350  0.16666650  0.75000000  1
  Er  Er0_6  1  0.83333350  0.66666650  0.25000000  1
  Er  Er0_7  1  0.83333350  0.66666650  0.75000000  1
  Zr  Zr0_0  1  0.16666650  0.33333350  0.00000000  1
  Zr  Zr0_1  1  0.16666650  0.33333350  0.50000000  1
  Zr  Zr0_2  1  0.16666650  0.83333350  0.00000000  1
  Zr  Zr0_3  1  0.16666650  0.83333350  0.50000000  1
  Zr  Zr0_4  1  0.66666650  0.33333350  0.00000000  1
  Zr  Zr0_5  1  0.66666650  0.33333350  0.50000000  1
  Zr  Zr0_6  1  0.66666650  0.83333350  0.00000000  1
  Zr  Zr0_7  1  0.66666650  0.83333350  0.50000000  1
loop_
_geom_bond_atom_site_label_1
_geom_bond_atom_site_label_2
_geom_bond_distance
_geom_bond_site_symmetry_2
Er0_0 Zr0_4 3.313021 1_555
Er0_0 Zr0_3 3.313021 1_545
Er0_0 Zr0_5 3.313021 1_555
Er0_0 Zr0_2 3.313021 1_545
Er0_0 Zr0_0 3.313025 1_555
Er0_0 Zr0_1 3.313025 1_555
Er0_0 Er0_6 3.398656 1_445
Er0_0 Er0_6 3.398656 1_555
Er0_0 Er0_4 3.398656 1_555
Er0_0 Er0_2 3.398656 1_545
Er0_0 Er0_2 3.398656 1_555
Er0_0 Er0_4 3.398656 1_455
Er0_1 Zr0_3 3.313021 1_545
Er0_1 Zr0_4 3.313021 1_556
Er0_1 Zr0_5 3.313021 1_555
Er0_1 Zr0_2 3.313021 1_546
Er0_1 Zr0_1 3.313025 1_555
Er0_1 Zr0_0 3.313025 1_556
Er0_1 Er0_7 3.398656 1_445
Er0_1 Er0_7 3.398656 1_555
Er0_1 Er0_5 3.398656 1_455
Er0_1 Er0_5 3.398656 1_555
Er0_1 Er0_3 3.398656 1_555
Er0_1 Er0_3 3.398656 1_545
Er0_2 Zr0_0 3.313021 1_555
Er0_2 Zr0_1 3.313021 1_555
Er0_2 Zr0_6 3.313021 1_555
Er0_2 Zr0_7 3.313021 1_555
Er0_2 Zr0_2 3.313025 1_555
Er0_2 Zr0_3 3.313025 1_555
Er0_2 Er0_4 3.398656 1_455
Er0_2 Er0_4 3.398656 1_565
Er0_2 Er0_6 3.398656 1_455
Er0_2 Er0_6 3.398656 1_555
Er0_3 Zr0_0 3.313021 1_556
Er0_3 Zr0_1 3.313021 1_555
Er0_3 Zr0_6 3.313021 1_556
Er0_3 Zr0_7 3.313021 1_555
Er0_3 Zr0_2 3.313025 1_556
Er0_3 Zr0_3 3.313025 1_555
Er0_3 Er0_5 3.398656 1_565
Er0_3 Er0_5 3.398656 1_455
Er0_3 Er0_7 3.398656 1_455
Er0_3 Er0_7 3.398656 1_555
Er0_4 Zr0_6 3.313021 1_545
Er0_4 Zr0_0 3.313021 1_655
Er0_4 Zr0_1 3.313021 1_655
Er0_4 Zr0_7 3.313021 1_545
Er0_4 Zr0_4 3.313025 1_555
Er0_4 Zr0_5 3.313025 1_555
Er0_4 Er0_6 3.398656 1_545
Er0_4 Er0_6 3.398656 1_555
Er0_5 Zr0_0 3.313021 1_656
Er0_5 Zr0_6 3.313021 1_546
Er0_5 Zr0_1 3.313021 1_655
Er0_5 Zr0_7 3.313021 1_545
Er0_5 Zr0_4 3.313025 1_556
Er0_5 Zr0_5 3.313025 1_555
Er0_5 Er0_7 3.398656 1_545
Er0_5 Er0_7 3.398656 1_555
Er0_6 Zr0_2 3.313021 1_655
Er0_6 Zr0_4 3.313021 1_555
Er0_6 Zr0_5 3.313021 1_555
Er0_6 Zr0_3 3.313021 1_655
Er0_6 Zr0_6 3.313025 1_555
Er0_6 Zr0_7 3.313025 1_555
Er0_7 Zr0_4 3.313021 1_556
Er0_7 Zr0_5 3.313021 1_555
Er0_7 Zr0_2 3.313021 1_656
Er0_7 Zr0_3 3.313021 1_655
Er0_7 Zr0_6 3.313025 1_556
Er0_7 Zr0_7 3.313025 1_555
Zr0_0 Zr0_6 3.398656 1_445
Zr0_0 Zr0_6 3.398656 1_555
Zr0_0 Zr0_2 3.398656 1_555
Zr0_0 Zr0_4 3.398656 1_455
Zr0_0 Zr0_2 3.398656 1_545
Zr0_0 Zr0_4 3.398656 1_555
Zr0_1 Zr0_7 3.398656 1_445
Zr0_1 Zr0_7 3.398656 1_555
Zr0_1 Zr0_5 3.398656 1_455
Zr0_1 Zr0_3 3.398656 1_545
Zr0_1 Zr0_5 3.398656 1_555
Zr0_1 Zr0_3 3.398656 1_555
Zr0_2 Zr0_4 3.398656 1_455
Zr0_2 Zr0_4 3.398656 1_565
Zr0_2 Zr0_6 3.398656 1_455
Zr0_2 Zr0_6 3.398656 1_555
Zr0_3 Zr0_5 3.398656 1_565
Zr0_3 Zr0_5 3.398656 1_455
Zr0_3 Zr0_7 3.398656 1_455
Zr0_3 Zr0_7 3.398656 1_555
Zr0_4 Zr0_6 3.398656 1_555
Zr0_4 Zr0_6 3.398656 1_545
Zr0_5 Zr0_7 3.398656 1_555
Zr0_5 Zr0_7 3.398656 1_545
