# generated using pymatgen
data_Sr2CaCu2Bi2IO8
_symmetry_space_group_name_H-M   'P 1'
_cell_length_a   5.21493000
_cell_length_b   5.48161500
_cell_length_c   19.12035300
_cell_angle_alpha   90.00000000
_cell_angle_beta   90.00000000
_cell_angle_gamma   90.00000000
_symmetry_Int_Tables_number   1
_chemical_formula_structural   Sr2CaCu2Bi2IO8
_chemical_formula_sum   'Sr4 Ca2 Cu4 Bi4 I2 O16'
_cell_volume   546.57897129
_cell_formula_units_Z   2
loop_
 _symmetry_equiv_pos_site_id
 _symmetry_equiv_pos_as_xyz
  1  'x, y, z'
loop_
 _atom_site_type_symbol
 _atom_site_label
 _atom_site_symmetry_multiplicity
 _atom_site_fract_x
 _atom_site_fract_y
 _atom_site_fract_z
 _atom_site_occupancy
  Sr  Sr0  1  0.00000000  0.49614400  0.68212200  1
  Sr  Sr1  1  0.50000000  0.00385600  0.68212200  1
  Sr  Sr2  1  0.00000000  0.50385600  0.31787800  1
  Sr  Sr3  1  0.50000000  0.99614400  0.31787800  1
  Ca  Ca0  1  0.00000000  0.50000000  0.50000000  1
  Ca  Ca1  1  0.50000000  0.00000000  0.50000000  1
  Cu  Cu0  1  0.00000000  0.99986400  0.58360600  1
  Cu  Cu1  1  0.50000000  0.50013600  0.58360600  1
  Cu  Cu2  1  0.00000000  0.00013600  0.41639400  1
  Cu  Cu3  1  0.50000000  0.49986400  0.41639400  1
  Bi  Bi0  1  0.00000000  0.03276500  0.16950900  1
  Bi  Bi1  1  0.50000000  0.46723500  0.16950900  1
  Bi  Bi2  1  0.00000000  0.96723500  0.83049100  1
  Bi  Bi3  1  0.50000000  0.53276500  0.83049100  1
  I  I0  1  0.00000000  0.50000000  0.00000000  1
  I  I1  1  0.50000000  0.00000000  0.00000000  1
  O  O0  1  0.75000000  0.75000000  0.58421900  1
  O  O1  1  0.25000000  0.75000000  0.58421900  1
  O  O2  1  0.00000000  0.42029700  0.18357600  1
  O  O3  1  0.50000000  0.07970300  0.18357600  1
  O  O4  1  0.00000000  0.98027100  0.27799800  1
  O  O5  1  0.50000000  0.51972900  0.27799800  1
  O  O6  1  0.75000000  0.25000000  0.41578100  1
  O  O7  1  0.25000000  0.25000000  0.41578100  1
  O  O8  1  0.00000000  0.57970300  0.81642400  1
  O  O9  1  0.50000000  0.92029700  0.81642400  1
  O  O10  1  0.00000000  0.01972900  0.72200200  1
  O  O11  1  0.50000000  0.48027100  0.72200200  1
  O  O12  1  0.75000000  0.25000000  0.58280600  1
  O  O13  1  0.25000000  0.25000000  0.58280600  1
  O  O14  1  0.75000000  0.75000000  0.41719400  1
  O  O15  1  0.25000000  0.75000000  0.41719400  1
loop_
_geom_bond_atom_site_label_1
_geom_bond_atom_site_label_2
_geom_bond_distance
_geom_bond_site_symmetry_2
Ca0 O13 2.466678 1_555
Ca0 O12 2.466678 1_455
Ca0 O14 2.466678 1_455
Ca0 O15 2.466678 1_555
Ca0 O1 2.484106 1_555
Ca0 O0 2.484106 1_455
Ca0 O6 2.484106 1_455
Ca0 O7 2.484106 1_555
Ca1 O13 2.466678 1_555
Ca1 O12 2.466678 1_555
Ca1 O15 2.466678 1_545
Ca1 O14 2.466678 1_545
Ca1 O1 2.484106 1_545
Ca1 O0 2.484106 1_545
Ca1 O6 2.484106 1_555
Ca1 O7 2.484106 1_555
Cu0 O1 1.890984 1_555
Cu0 O0 1.890984 1_455
Cu0 O13 1.892089 1_565
Cu0 O12 1.892089 1_465
Cu0 O10 2.648420 1_565
Cu1 O0 1.890984 1_555
Cu1 O1 1.890984 1_555
Cu1 O13 1.892089 1_555
Cu1 O12 1.892089 1_555
Cu1 O11 2.648420 1_555
Cu2 O6 1.890984 1_455
Cu2 O7 1.890984 1_555
Cu2 O14 1.892089 1_445
Cu2 O15 1.892089 1_545
Cu2 O4 2.648420 1_545
Cu3 O6 1.890984 1_555
Cu3 O7 1.890984 1_555
Cu3 O14 1.892089 1_555
Cu3 O15 1.892089 1_555
Cu3 O5 2.648420 1_555
Bi0 O4 2.094211 1_545
Bi0 O2 2.141261 1_555
Bi0 O3 2.633898 1_555
Bi0 O3 2.633898 1_455
Bi1 O5 2.094211 1_555
Bi1 O3 2.141261 1_555
Bi1 O2 2.633898 1_555
Bi1 O2 2.633898 1_655
Bi2 O10 2.094211 1_565
Bi2 O8 2.141261 1_555
Bi2 O9 2.633898 1_455
Bi2 O9 2.633898 1_555
Bi3 O11 2.094211 1_555
Bi3 O9 2.141261 1_555
Bi3 O8 2.633898 1_655
Bi3 O8 2.633898 1_555
O0 Sr1 2.672127 1_565
O0 Sr0 2.672127 1_655
O1 Sr1 2.672127 1_565
O1 Sr0 2.672127 1_555
O2 Sr2 2.608432 1_555
O3 Sr3 2.608432 1_545
O4 Sr3 2.718066 1_455
O4 Sr3 2.718066 1_555
O4 Sr2 2.720568 1_555
O4 Sr2 2.969657 1_565
O5 Sr2 2.718066 1_555
O5 Sr2 2.718066 1_655
O5 Sr3 2.720568 1_555
O5 Sr3 2.969657 1_545
O6 Sr2 2.672127 1_655
O6 Sr3 2.672127 1_545
O7 Sr2 2.672127 1_555
O7 Sr3 2.672127 1_545
O8 Sr0 2.608432 1_555
O9 Sr1 2.608432 1_565
O10 Sr1 2.718066 1_455
O10 Sr1 2.718066 1_555
O10 Sr0 2.720568 1_555
O10 Sr0 2.969657 1_545
O11 Sr0 2.718066 1_555
O11 Sr0 2.718066 1_655
O11 Sr1 2.720568 1_555
O11 Sr1 2.969657 1_565
O12 Sr0 2.669509 1_655
O12 Sr1 2.669509 1_555
O13 Sr0 2.669509 1_555
O13 Sr1 2.669509 1_555
O14 Sr3 2.669509 1_555
O14 Sr2 2.669509 1_655
O15 Sr3 2.669509 1_555
O15 Sr2 2.669509 1_555
