# generated using pymatgen
data_MgAl2SiO7
_symmetry_space_group_name_H-M   'P 1'
_cell_length_a   5.53156200
_cell_length_b   5.57970412
_cell_length_c   8.95157994
_cell_angle_alpha   82.85753851
_cell_angle_beta   76.63805357
_cell_angle_gamma   60.37517816
_symmetry_Int_Tables_number   1
_chemical_formula_structural   MgAl2SiO7
_chemical_formula_sum   'Mg2 Al4 Si2 O14'
_cell_volume   233.65184273
_cell_formula_units_Z   2
loop_
 _symmetry_equiv_pos_site_id
 _symmetry_equiv_pos_as_xyz
  1  'x, y, z'
loop_
 _atom_site_type_symbol
 _atom_site_label
 _atom_site_symmetry_multiplicity
 _atom_site_fract_x
 _atom_site_fract_y
 _atom_site_fract_z
 _atom_site_occupancy
  Mg  Mg0  1  0.16198800  0.17518000  0.49792200  1
  Mg  Mg1  1  0.83801200  0.82482000  0.50207800  1
  Al  Al0  1  0.50000000  0.00000000  0.00000000  1
  Al  Al1  1  0.00000000  0.00000000  0.00000000  1
  Al  Al2  1  0.50000000  0.50000000  0.50000000  1
  Al  Al3  1  0.50000000  0.50000000  0.00000000  1
  Si  Si0  1  0.06804400  0.50011600  0.81183100  1
  Si  Si1  1  0.93195600  0.49988400  0.18816900  1
  O  O0  1  0.13313100  0.50083300  0.62141400  1
  O  O1  1  0.86686900  0.49916700  0.37858600  1
  O  O2  1  0.21013200  0.66297200  0.87179100  1
  O  O3  1  0.78986800  0.33702800  0.12820900  1
  O  O4  1  0.75906700  0.19059600  0.59666600  1
  O  O5  1  0.24093300  0.80940400  0.40333400  1
  O  O6  1  0.55196600  0.18948500  0.40976200  1
  O  O7  1  0.44803400  0.81051500  0.59023800  1
  O  O8  1  0.70144000  0.16938900  0.90331200  1
  O  O9  1  0.29856000  0.83061100  0.09668800  1
  O  O10  1  0.20661100  0.17714700  0.87452500  1
  O  O11  1  0.79338900  0.82285300  0.12547500  1
  O  O12  1  0.72132400  0.66390200  0.87362500  1
  O  O13  1  0.27867600  0.33609800  0.12637500  1
loop_
_geom_bond_atom_site_label_1
_geom_bond_atom_site_label_2
_geom_bond_distance
_geom_bond_site_symmetry_2
Mg0 O7 2.080844 1_545
Mg0 O5 2.109665 1_545
Mg0 O1 2.117147 1_455
Mg0 O6 2.156462 1_555
Mg0 O4 2.162171 1_455
Mg0 O0 2.163411 1_555
Mg1 O6 2.080844 1_565
Mg1 O4 2.109665 1_565
Mg1 O0 2.117147 1_655
Mg1 O7 2.156462 1_555
Mg1 O5 2.162171 1_655
Mg1 O1 2.163411 1_555
Al0 O8 1.809977 1_554
Al0 O9 1.809977 1_545
Al0 O11 1.962886 1_545
Al0 O10 1.962886 1_554
Al0 O13 1.978138 1_555
Al0 O12 1.978138 1_544
Al1 O8 1.812165 1_454
Al1 O9 1.812165 1_545
Al1 O10 1.947348 1_554
Al1 O11 1.947348 1_445
Al1 O3 1.990901 1_455
Al1 O2 1.990901 1_544
Al2 O7 1.866894 1_555
Al2 O6 1.866894 1_555
Al2 O4 1.881110 1_555
Al2 O5 1.881110 1_555
Al2 O1 2.066893 1_555
Al2 O0 2.066893 1_555
Al3 O9 1.820109 1_555
Al3 O8 1.820109 1_554
Al3 O13 1.955614 1_555
Al3 O12 1.955614 1_554
Al3 O3 1.965848 1_555
Al3 O2 1.965848 1_554
O0 Si0 1.658660 1_555
O1 Si1 1.658660 1_555
O2 Si0 1.659488 1_555
O3 Si1 1.659488 1_555
O10 Si0 1.652779 1_555
O11 Si1 1.652779 1_555
O12 Si0 1.649864 1_655
O13 Si1 1.649864 1_455
