# generated using pymatgen
data_YAgTe2
_symmetry_space_group_name_H-M   'P 1'
_cell_length_a   4.67484568
_cell_length_b   7.15729248
_cell_length_c   7.15729248
_cell_angle_alpha   90.00000000
_cell_angle_beta   90.00000000
_cell_angle_gamma   90.00000000
_symmetry_Int_Tables_number   1
_chemical_formula_structural   YAgTe2
_chemical_formula_sum   'Y2 Ag2 Te4'
_cell_volume   239.47755131
_cell_formula_units_Z   2
loop_
 _symmetry_equiv_pos_site_id
 _symmetry_equiv_pos_as_xyz
  1  'x, y, z'
loop_
 _atom_site_type_symbol
 _atom_site_label
 _atom_site_symmetry_multiplicity
 _atom_site_fract_x
 _atom_site_fract_y
 _atom_site_fract_z
 _atom_site_occupancy
  Y  Y0  1  0.79353907  -0.00000000  0.50000000  1
  Y  Y1  1  0.20646093  0.50000000  -0.00000000  1
  Ag  Ag0  1  -0.00000000  -0.00000000  -0.00000000  1
  Ag  Ag1  1  -0.00000000  0.50000000  0.50000000  1
  Te  Te0  1  0.28132163  0.79864068  0.29864068  1
  Te  Te1  1  0.71867837  0.29864068  0.20135932  1
  Te  Te2  1  0.71867837  0.70135932  0.79864068  1
  Te  Te3  1  0.28132163  0.20135932  0.70135932  1
loop_
_geom_bond_atom_site_label_1
_geom_bond_atom_site_label_2
_geom_bond_distance
_geom_bond_site_symmetry_2
Ag0 Te0 2.894017 1_545
Ag0 Te2 2.894017 1_444
Ag0 Te3 2.894017 1_554
Ag0 Te1 2.894017 1_455
Ag1 Te0 2.894017 1_555
Ag1 Te2 2.894017 1_455
Ag1 Te3 2.894017 1_555
Ag1 Te1 2.894017 1_455
Te0 Y1 3.043014 1_555
Te0 Y0 3.058406 1_465
Te0 Y0 3.144496 1_565
Te1 Y0 3.043014 1_555
Te1 Y1 3.058406 1_655
Te1 Y1 3.144496 1_555
Te2 Y0 3.043014 1_565
Te2 Y1 3.058406 1_656
Te2 Y1 3.144496 1_556
Te3 Y1 3.043014 1_556
Te3 Y0 3.058406 1_455
Te3 Y0 3.144496 1_555
