# generated using pymatgen
data_SrCaMg14
_symmetry_space_group_name_H-M   'P 1'
_cell_length_a   6.71453357
_cell_length_b   6.71453296
_cell_length_c   10.57883018
_cell_angle_alpha   90.00000000
_cell_angle_beta   90.00000000
_cell_angle_gamma   120.00000293
_symmetry_Int_Tables_number   1
_chemical_formula_structural   SrCaMg14
_chemical_formula_sum   'Sr1 Ca1 Mg14'
_cell_volume   413.04742987
_cell_formula_units_Z   1
loop_
 _symmetry_equiv_pos_site_id
 _symmetry_equiv_pos_as_xyz
  1  'x, y, z'
loop_
 _atom_site_type_symbol
 _atom_site_label
 _atom_site_symmetry_multiplicity
 _atom_site_fract_x
 _atom_site_fract_y
 _atom_site_fract_z
 _atom_site_occupancy
  Sr  Sr0  1  0.16666700  0.33333300  0.62500000  1
  Ca  Ca0  1  0.16666700  0.33333300  0.12500000  1
  Mg  Mg0  1  0.17227562  0.83613731  0.12500000  1
  Mg  Mg1  1  0.17464520  0.83732210  0.62500000  1
  Mg  Mg2  1  0.66386269  0.32772438  0.12500000  1
  Mg  Mg3  1  0.66267790  0.32535480  0.62500000  1
  Mg  Mg4  1  0.66386269  0.83613731  0.12500000  1
  Mg  Mg5  1  0.66267790  0.83732210  0.62500000  1
  Mg  Mg6  1  0.33993189  0.16006811  0.37203903  1
  Mg  Mg7  1  0.33993189  0.16006811  0.87796097  1
  Mg  Mg8  1  0.33993189  0.67986478  0.37203903  1
  Mg  Mg9  1  0.33993189  0.67986478  0.87796097  1
  Mg  Mg10  1  0.82013522  0.16006811  0.37203903  1
  Mg  Mg11  1  0.82013522  0.16006811  0.87796097  1
  Mg  Mg12  1  0.83333300  0.66666700  0.37577627  1
  Mg  Mg13  1  0.83333300  0.66666700  0.87422373  1
loop_
_geom_bond_atom_site_label_1
_geom_bond_atom_site_label_2
_geom_bond_distance
_geom_bond_site_symmetry_2
Ca0 Mg7 3.300034 1_554
Ca0 Mg6 3.300034 1_555
Ca0 Mg8 3.300041 1_555
Ca0 Mg9 3.300041 1_554
Ca0 Mg10 3.300041 1_455
Ca0 Mg11 3.300041 1_454
Ca0 Mg0 3.357425 1_555
Ca0 Mg4 3.357425 1_555
Ca0 Mg0 3.357425 1_545
Ca0 Mg4 3.357425 1_445
Ca0 Mg2 3.357425 1_555
Ca0 Mg2 3.357425 1_455
Mg0 Mg8 3.221693 1_555
Mg0 Mg9 3.221693 1_554
Mg0 Mg7 3.221700 1_564
Mg0 Mg6 3.221700 1_565
Mg0 Mg2 3.300778 1_565
Mg0 Mg4 3.300778 1_555
Mg0 Mg12 3.304932 1_455
Mg0 Mg13 3.304932 1_454
Mg0 Mg2 3.413755 1_455
Mg0 Mg4 3.413756 1_455
Mg1 Mg9 3.268638 1_555
Mg1 Mg8 3.268638 1_555
Mg1 Mg7 3.268645 1_565
Mg1 Mg6 3.268645 1_565
Mg1 Mg3 3.276912 1_565
Mg1 Mg5 3.276912 1_555
Mg1 Mg12 3.300031 1_455
Mg1 Mg13 3.300031 1_455
Mg1 Sr0 3.357587 1_555
Mg1 Sr0 3.357587 1_565
Mg1 Mg3 3.437621 1_455
Mg1 Mg5 3.437622 1_455
Mg2 Mg6 3.221700 1_555
Mg2 Mg7 3.221700 1_554
Mg2 Mg4 3.300778 1_545
Mg2 Mg4 3.413755 1_555
Mg3 Mg7 3.268645 1_555
Mg3 Mg6 3.268645 1_555
Mg3 Mg5 3.276912 1_545
Mg3 Sr0 3.357587 1_555
Mg3 Sr0 3.357587 1_655
Mg3 Mg5 3.437621 1_555
Mg4 Mg8 3.221700 1_555
Mg4 Mg9 3.221700 1_554
Mg5 Mg9 3.268645 1_555
Mg5 Mg8 3.268645 1_555
Mg5 Sr0 3.357587 1_555
Mg5 Sr0 3.357587 1_665
Mg6 Mg8 3.224341 1_545
Mg6 Sr0 3.349864 1_555
Mg6 Mg8 3.490192 1_555
Mg7 Mg9 3.224341 1_545
Mg7 Sr0 3.349864 1_555
Mg7 Mg9 3.490192 1_555
Mg8 Sr0 3.349871 1_555
Mg9 Sr0 3.349871 1_555
Mg10 Mg2 3.221693 1_555
Mg10 Mg4 3.221700 1_545
Mg10 Mg8 3.224341 1_545
Mg10 Mg6 3.224341 1_555
Mg10 Mg3 3.268638 1_555
Mg10 Mg5 3.268645 1_545
Mg10 Sr0 3.349871 1_655
Mg10 Mg12 3.358376 1_555
Mg10 Mg12 3.358376 1_545
Mg10 Mg8 3.490192 1_655
Mg10 Mg6 3.490192 1_655
Mg11 Mg2 3.221693 1_556
Mg11 Mg4 3.221700 1_546
Mg11 Mg9 3.224341 1_545
Mg11 Mg7 3.224341 1_555
Mg11 Mg3 3.268638 1_555
Mg11 Mg5 3.268645 1_545
Mg11 Sr0 3.349871 1_655
Mg11 Mg13 3.358376 1_555
Mg11 Mg13 3.358376 1_545
Mg11 Mg9 3.490192 1_655
Mg11 Mg7 3.490192 1_655
Mg12 Mg5 3.300024 1_555
Mg12 Mg3 3.300031 1_555
Mg12 Mg4 3.304925 1_555
Mg12 Mg2 3.304932 1_555
Mg12 Mg6 3.358376 1_555
Mg12 Mg6 3.358376 1_665
Mg12 Mg8 3.358377 1_555
Mg12 Mg8 3.358377 1_655
Mg13 Mg5 3.300024 1_555
Mg13 Mg3 3.300031 1_555
Mg13 Mg4 3.304925 1_556
Mg13 Mg2 3.304932 1_556
Mg13 Mg7 3.358376 1_555
Mg13 Mg7 3.358376 1_665
Mg13 Mg9 3.358377 1_555
Mg13 Mg9 3.358377 1_655
