# generated using pymatgen
data_CoSe2O5
_symmetry_space_group_name_H-M   'P 1'
_cell_length_a   6.03250795
_cell_length_b   6.85454364
_cell_length_c   10.32688205
_cell_angle_alpha   90.00041396
_cell_angle_beta   89.99939194
_cell_angle_gamma   89.99181073
_symmetry_Int_Tables_number   1
_chemical_formula_structural   CoSe2O5
_chemical_formula_sum   'Co4 Se8 O20'
_cell_volume   427.01748716
_cell_formula_units_Z   4
loop_
 _symmetry_equiv_pos_site_id
 _symmetry_equiv_pos_as_xyz
  1  'x, y, z'
loop_
 _atom_site_type_symbol
 _atom_site_label
 _atom_site_symmetry_multiplicity
 _atom_site_fract_x
 _atom_site_fract_y
 _atom_site_fract_z
 _atom_site_occupancy
  Co  Co0  1  0.75000761  -0.00000175  0.06243308  1
  Co  Co1  1  0.25001691  0.49998508  0.43743851  1
  Co  Co2  1  0.24999765  -0.00000238  0.93753982  1
  Co  Co3  1  0.74999626  0.50001299  0.56252288  1
  Se  Se0  1  0.46815023  0.63289579  0.15391005  1
  Se  Se1  1  0.96818993  0.86703895  0.34615719  1
  Se  Se2  1  0.53178682  0.13296499  0.34614416  1
  Se  Se3  1  0.03183448  0.36711051  0.15391155  1
  Se  Se4  1  0.96816077  0.63290443  0.84610891  1
  Se  Se5  1  0.46815729  0.86704188  0.65388399  1
  Se  Se6  1  0.03182783  0.13293716  0.65389357  1
  Se  Se7  1  0.53183293  0.36707885  0.84609664  1
  O  O0  1  0.75001210  -0.00000491  0.43406224  1
  O  O1  1  0.24999635  0.50001477  0.06603752  1
  O  O2  1  0.24997450  -0.00000750  0.56598058  1
  O  O3  1  0.75000651  0.50001157  0.93402415  1
  O  O4  1  0.05092850  0.15716464  0.06643771  1
  O  O5  1  0.55106149  0.34314881  0.43365097  1
  O  O6  1  0.94895358  0.65684063  0.43366630  1
  O  O7  1  0.44906629  0.84285335  0.06642899  1
  O  O8  1  0.94882476  0.84301809  0.93348841  1
  O  O9  1  0.44906841  0.65692492  0.56637710  1
  O  O10  1  0.05091256  0.34305067  0.56638905  1
  O  O11  1  0.55118719  0.15700052  0.93348384  1
  O  O12  1  0.66653772  0.19346982  0.20913967  1
  O  O13  1  0.16666823  0.30631982  0.29084720  1
  O  O14  1  0.33332657  0.69370262  0.29084010  1
  O  O15  1  0.83347911  0.80650857  0.20914249  1
  O  O16  1  0.33336539  0.80634047  0.79085110  1
  O  O17  1  0.83344633  0.69356240  0.70912802  1
  O  O18  1  0.66659291  0.30647361  0.70912347  1
  O  O19  1  0.16663279  0.19363963  0.79085976  1
loop_
_geom_bond_atom_site_label_1
_geom_bond_atom_site_label_2
_geom_bond_distance
_geom_bond_site_symmetry_2
Co0 O12 2.075403 1_555
Co0 O15 2.075528 1_545
Co0 O8 2.090225 1_544
Co0 O11 2.090370 1_554
Co0 O4 2.111444 1_655
Co0 O7 2.111473 1_545
Co1 O13 2.075306 1_555
Co1 O14 2.075538 1_555
Co1 O9 2.091047 1_555
Co1 O10 2.091283 1_555
Co1 O5 2.110624 1_555
Co1 O6 2.110787 1_455
Co2 O19 2.075818 1_555
Co2 O16 2.075932 1_545
Co2 O7 2.091336 1_546
Co2 O4 2.091449 1_556
Co2 O8 2.112108 1_445
Co2 O11 2.112276 1_555
Co3 O18 2.074910 1_555
Co3 O17 2.075050 1_555
Co3 O6 2.089779 1_555
Co3 O5 2.089937 1_555
Co3 O9 2.110295 1_555
Co3 O10 2.110415 1_655
O0 Se1 1.840254 1_545
O0 Se2 1.840592 1_555
O1 Se0 1.839930 1_555
O1 Se3 1.840044 1_555
O2 Se6 1.840121 1_555
O2 Se5 1.840269 1_545
O3 Se4 1.840182 1_555
O3 Se7 1.840471 1_555
O4 Se3 1.702988 1_555
O5 Se2 1.704650 1_555
O6 Se1 1.704741 1_555
O7 Se0 1.703103 1_555
O8 Se4 1.703543 1_555
O9 Se5 1.704187 1_555
O10 Se6 1.704162 1_555
O11 Se7 1.703400 1_555
O12 Se2 1.683630 1_555
O13 Se3 1.683715 1_555
O14 Se0 1.683645 1_555
O15 Se1 1.683654 1_555
O16 Se5 1.683757 1_555
O17 Se4 1.683535 1_555
O18 Se7 1.683492 1_555
O19 Se6 1.683799 1_555
