# generated using pymatgen
data_Sr8Ni3N8
_symmetry_space_group_name_H-M   'P 1'
_cell_length_a   9.59790823
_cell_length_b   5.32310616
_cell_length_c   7.45628360
_cell_angle_alpha   90.00000779
_cell_angle_beta   75.40580572
_cell_angle_gamma   73.90054547
_symmetry_Int_Tables_number   1
_chemical_formula_structural   Sr8Ni3N8
_chemical_formula_sum   'Sr8 Ni3 N8'
_cell_volume   353.19569283
_cell_formula_units_Z   1
loop_
 _symmetry_equiv_pos_site_id
 _symmetry_equiv_pos_as_xyz
  1  'x, y, z'
loop_
 _atom_site_type_symbol
 _atom_site_label
 _atom_site_symmetry_multiplicity
 _atom_site_fract_x
 _atom_site_fract_y
 _atom_site_fract_z
 _atom_site_occupancy
  Sr  Sr0  1  0.06077000  0.96961500  0.73970000  1
  Sr  Sr1  1  0.93923000  0.03038500  0.26030000  1
  Sr  Sr2  1  0.66080500  0.66959700  0.47989900  1
  Sr  Sr3  1  0.33919500  0.33040300  0.52010100  1
  Sr  Sr4  1  0.80553700  0.59723200  0.96049600  1
  Sr  Sr5  1  0.19446300  0.40276800  0.03950400  1
  Sr  Sr6  1  0.59751800  0.20124100  0.81465500  1
  Sr  Sr7  1  0.40248200  0.79875900  0.18534500  1
  Ni  Ni0  1  0.00000000  0.50000000  0.50000000  1
  Ni  Ni1  1  0.37355100  0.81322500  0.79357200  1
  Ni  Ni2  1  0.62644900  0.18677500  0.20642800  1
  N  N0  1  0.20653700  0.89673200  0.99557300  1
  N  N1  1  0.79346300  0.10326800  0.00442700  1
  N  N2  1  0.35362300  0.82318800  0.56039400  1
  N  N3  1  0.64637700  0.17681200  0.43960600  1
  N  N4  1  0.55992100  0.72004000  0.83492200  1
  N  N5  1  0.44007900  0.27996000  0.16507800  1
  N  N6  1  0.05181800  0.47409000  0.71226400  1
  N  N7  1  0.94818200  0.52591000  0.28773600  1
loop_
_geom_bond_atom_site_label_1
_geom_bond_atom_site_label_2
_geom_bond_distance
_geom_bond_site_symmetry_2
N0 Ni1 1.850358 1_555
N0 Sr7 2.570636 1_556
N0 Sr0 2.606129 1_555
N0 Sr5 2.680373 1_566
N0 Sr5 2.680384 1_556
N0 Sr1 2.724010 1_466
N1 Ni2 1.850358 1_555
N1 Sr6 2.570636 1_554
N1 Sr1 2.606129 1_555
N1 Sr4 2.680373 1_544
N1 Sr4 2.680384 1_554
N1 Sr0 2.724010 1_644
N2 Ni1 1.795613 1_555
N2 Sr0 2.680788 1_555
N2 Sr3 2.685659 1_555
N2 Sr3 2.685670 1_565
N2 Sr7 2.713372 1_555
N2 Sr2 2.737250 1_555
N3 Ni2 1.795613 1_555
N3 Sr1 2.680788 1_555
N3 Sr2 2.685659 1_555
N3 Sr2 2.685670 1_545
N3 Sr6 2.713372 1_555
N3 Sr3 2.737250 1_555
N4 Ni1 1.823899 1_555
N4 Sr2 2.565382 1_555
N4 Sr7 2.635356 1_556
N4 Sr4 2.668147 1_555
N4 Sr6 2.683171 1_565
N4 Sr6 2.683176 1_555
N5 Ni2 1.823899 1_555
N5 Sr3 2.565382 1_555
N5 Sr6 2.635356 1_554
N5 Sr5 2.668147 1_555
N5 Sr7 2.683171 1_545
N5 Sr7 2.683176 1_555
N6 Ni0 1.769166 1_555
N6 Sr4 2.525627 1_455
N6 Sr3 2.661601 1_555
N6 Sr0 2.672332 1_545
N6 Sr0 2.672342 1_555
N6 Sr5 3.060606 1_556
N7 Ni0 1.769166 1_655
N7 Sr5 2.525627 1_655
N7 Sr2 2.661601 1_555
N7 Sr1 2.672332 1_565
N7 Sr1 2.672342 1_555
N7 Sr4 3.060606 1_554
