# generated using pymatgen
data_K4Mo2S4BrO20
_symmetry_space_group_name_H-M   'P 1'
_cell_length_a   12.14651500
_cell_length_b   12.14651500
_cell_length_c   8.14943300
_cell_angle_alpha   90.00000000
_cell_angle_beta   90.00000000
_cell_angle_gamma   90.00000000
_symmetry_Int_Tables_number   1
_chemical_formula_structural   K4Mo2S4BrO20
_chemical_formula_sum   'K8 Mo4 S8 Br2 O40'
_cell_volume   1202.34963321
_cell_formula_units_Z   2
loop_
 _symmetry_equiv_pos_site_id
 _symmetry_equiv_pos_as_xyz
  1  'x, y, z'
loop_
 _atom_site_type_symbol
 _atom_site_label
 _atom_site_symmetry_multiplicity
 _atom_site_fract_x
 _atom_site_fract_y
 _atom_site_fract_z
 _atom_site_occupancy
  K  K0  1  0.83247700  0.66752300  0.75000000  1
  K  K1  1  0.16752300  0.33247700  0.75000000  1
  K  K2  1  0.33247700  0.83247700  0.25000000  1
  K  K3  1  0.66752300  0.16752300  0.25000000  1
  K  K4  1  0.33247700  0.83247700  0.75000000  1
  K  K5  1  0.66752300  0.16752300  0.75000000  1
  K  K6  1  0.16752300  0.33247700  0.25000000  1
  K  K7  1  0.83247700  0.66752300  0.25000000  1
  Mo  Mo0  1  0.50000000  0.50000000  0.13858400  1
  Mo  Mo1  1  0.00000000  0.00000000  0.63858400  1
  Mo  Mo2  1  0.50000000  0.50000000  0.86141600  1
  Mo  Mo3  1  0.00000000  0.00000000  0.36141600  1
  S  S0  1  0.77201700  0.91027200  0.50000000  1
  S  S1  1  0.22798300  0.08972800  0.50000000  1
  S  S2  1  0.27201700  0.58972800  0.00000000  1
  S  S3  1  0.72798300  0.41027200  0.00000000  1
  S  S4  1  0.08972800  0.77201700  0.50000000  1
  S  S5  1  0.91027200  0.22798300  0.50000000  1
  S  S6  1  0.41027200  0.27201700  0.00000000  1
  S  S7  1  0.58972800  0.72798300  0.00000000  1
  Br  Br0  1  0.50000000  0.50000000  0.50000000  1
  Br  Br1  1  0.00000000  0.00000000  0.00000000  1
  O  O0  1  0.84873100  0.92735000  0.34880200  1
  O  O1  1  0.15126900  0.07265000  0.34880200  1
  O  O2  1  0.34873100  0.57265000  0.84880200  1
  O  O3  1  0.65126900  0.42735000  0.84880200  1
  O  O4  1  0.07265000  0.84873100  0.34880200  1
  O  O5  1  0.92735000  0.15126900  0.34880200  1
  O  O6  1  0.42735000  0.34873100  0.84880200  1
  O  O7  1  0.57265000  0.65126900  0.84880200  1
  O  O8  1  0.15126900  0.07265000  0.65119800  1
  O  O9  1  0.84873100  0.92735000  0.65119800  1
  O  O10  1  0.65126900  0.42735000  0.15119800  1
  O  O11  1  0.34873100  0.57265000  0.15119800  1
  O  O12  1  0.92735000  0.15126900  0.65119800  1
  O  O13  1  0.07265000  0.84873100  0.65119800  1
  O  O14  1  0.57265000  0.65126900  0.15119800  1
  O  O15  1  0.42735000  0.34873100  0.15119800  1
  O  O16  1  0.97789300  0.73650200  0.00000000  1
  O  O17  1  0.02210700  0.26349800  0.00000000  1
  O  O18  1  0.47789300  0.76349800  0.50000000  1
  O  O19  1  0.52210700  0.23650200  0.50000000  1
  O  O20  1  0.26349800  0.97789300  0.00000000  1
  O  O21  1  0.73650200  0.02210700  0.00000000  1
  O  O22  1  0.23650200  0.47789300  0.50000000  1
  O  O23  1  0.76349800  0.52210700  0.50000000  1
  O  O24  1  0.73465200  0.79739700  0.50000000  1
  O  O25  1  0.26534800  0.20260300  0.50000000  1
  O  O26  1  0.23465200  0.70260300  0.00000000  1
  O  O27  1  0.76534800  0.29739700  0.00000000  1
  O  O28  1  0.20260300  0.73465200  0.50000000  1
  O  O29  1  0.79739700  0.26534800  0.50000000  1
  O  O30  1  0.29739700  0.23465200  0.00000000  1
  O  O31  1  0.70260300  0.76534800  0.00000000  1
  O  O32  1  0.68831300  0.99593300  0.50000000  1
  O  O33  1  0.31168700  0.00406700  0.50000000  1
  O  O34  1  0.18831300  0.50406700  0.00000000  1
  O  O35  1  0.81168700  0.49593300  0.00000000  1
  O  O36  1  0.00406700  0.68831300  0.50000000  1
  O  O37  1  0.99593300  0.31168700  0.50000000  1
  O  O38  1  0.49593300  0.18831300  0.00000000  1
  O  O39  1  0.50406700  0.81168700  0.00000000  1
loop_
_geom_bond_atom_site_label_1
_geom_bond_atom_site_label_2
_geom_bond_distance
_geom_bond_site_symmetry_2
K0 O23 2.823586 1_555
K0 O16 2.823586 1_556
K0 O24 2.837478 1_555
K0 O31 2.837478 1_556
K0 O36 2.925504 1_655
K0 O35 2.925504 1_556
K0 O7 3.263063 1_555
K0 O9 3.263063 1_555
K1 O22 2.823586 1_555
K1 O17 2.823586 1_556
K1 O30 2.837478 1_556
K1 O25 2.837478 1_555
K1 O37 2.925504 1_455
K1 O34 2.925504 1_556
K1 O8 3.263063 1_555
K1 O6 3.263063 1_555
K2 O18 2.823586 1_555
K2 O20 2.823586 1_555
K2 O26 2.837478 1_555
K2 O28 2.837478 1_555
K2 O33 2.925504 1_565
K2 O39 2.925504 1_555
K2 O11 3.263063 1_555
K2 O4 3.263063 1_555
K3 O19 2.823586 1_555
K3 O21 2.823586 1_555
K3 O27 2.837478 1_555
K3 O29 2.837478 1_555
K3 O32 2.925504 1_545
K3 O38 2.925504 1_555
K3 O10 3.263063 1_555
K3 O5 3.263063 1_555
K4 O18 2.823586 1_555
K4 O20 2.823586 1_556
K4 O26 2.837478 1_556
K4 O28 2.837478 1_555
K4 O33 2.925504 1_565
K4 O39 2.925504 1_556
K4 O2 3.263063 1_555
K4 O13 3.263063 1_555
K5 O19 2.823586 1_555
K5 O21 2.823586 1_556
K5 O27 2.837478 1_556
K5 O29 2.837478 1_555
K5 O32 2.925504 1_545
K5 O38 2.925504 1_556
K5 O3 3.263063 1_555
K5 O12 3.263063 1_555
K6 O22 2.823586 1_555
K6 O17 2.823586 1_555
K6 O30 2.837478 1_555
K6 O25 2.837478 1_555
K6 O37 2.925504 1_455
K6 O34 2.925504 1_555
K6 O1 3.263063 1_555
K6 O15 3.263063 1_555
K7 O23 2.823586 1_555
K7 O16 2.823586 1_555
K7 O24 2.837478 1_555
K7 O31 2.837478 1_555
K7 O36 2.925504 1_655
K7 O35 2.925504 1_555
K7 O14 3.263063 1_555
K7 O0 3.263063 1_555
Mo0 O10 2.040902 1_555
Mo0 O14 2.040902 1_555
Mo0 O11 2.040902 1_555
Mo0 O15 2.040902 1_555
Mo1 O9 2.040902 1_445
Mo1 O12 2.040902 1_455
Mo1 O13 2.040902 1_545
Mo1 O8 2.040902 1_555
Mo2 O3 2.040902 1_555
Mo2 O7 2.040902 1_555
Mo2 O6 2.040902 1_555
Mo2 O2 2.040902 1_555
Mo3 O0 2.040902 1_445
Mo3 O5 2.040902 1_455
Mo3 O1 2.040902 1_555
Mo3 O4 2.040902 1_545
Br0 Mo2 2.945335 1_555
Br0 Mo0 2.945335 1_555
Br1 Mo3 2.945335 1_555
Br1 Mo1 2.945335 1_554
O0 S0 1.558704 1_555
O1 S1 1.558704 1_555
O2 S2 1.558704 1_556
O3 S3 1.558704 1_556
O4 S4 1.558704 1_555
O5 S5 1.558704 1_555
O6 S6 1.558704 1_556
O7 S7 1.558704 1_556
O8 S1 1.558704 1_555
O9 S0 1.558704 1_555
O10 S3 1.558704 1_555
O11 S2 1.558704 1_555
O12 S5 1.558704 1_555
O13 S4 1.558704 1_555
O14 S7 1.558704 1_555
O15 S6 1.558704 1_555
O24 S0 1.444205 1_555
O25 S1 1.444205 1_555
O26 S2 1.444205 1_555
O27 S3 1.444205 1_555
O28 S4 1.444205 1_555
O29 S5 1.444205 1_555
O30 S6 1.444205 1_555
O31 S7 1.444205 1_555
O32 S0 1.454753 1_555
O33 S1 1.454753 1_555
O34 S2 1.454753 1_555
O35 S3 1.454753 1_555
O36 S4 1.454753 1_555
O37 S5 1.454753 1_555
O38 S6 1.454753 1_555
O39 S7 1.454753 1_555
