# generated using pymatgen
data_La3Rh2
_symmetry_space_group_name_H-M   'P 1'
_cell_length_a   7.71602115
_cell_length_b   7.71577106
_cell_length_c   7.71609342
_cell_angle_alpha   70.92115367
_cell_angle_beta   70.92018379
_cell_angle_gamma   70.92186523
_symmetry_Int_Tables_number   1
_chemical_formula_structural   La3Rh2
_chemical_formula_sum   'La9 Rh6'
_cell_volume   397.65149571
_cell_formula_units_Z   3
loop_
 _symmetry_equiv_pos_site_id
 _symmetry_equiv_pos_as_xyz
  1  'x, y, z'
loop_
 _atom_site_type_symbol
 _atom_site_label
 _atom_site_symmetry_multiplicity
 _atom_site_fract_x
 _atom_site_fract_y
 _atom_site_fract_z
 _atom_site_occupancy
  La  La0  1  0.00000000  -0.00000000  0.00000000  1
  La  La1  1  0.79733778  0.79733404  0.79734973  1
  La  La2  1  0.20266222  0.20266596  0.20265027  1
  La  La3  1  0.38846986  0.16162519  0.67120215  1
  La  La4  1  0.16160808  0.67119955  0.38848134  1
  La  La5  1  0.67120669  0.38848765  0.16161606  1
  La  La6  1  0.61153014  0.83837481  0.32879785  1
  La  La7  1  0.83839192  0.32880045  0.61151866  1
  La  La8  1  0.32879331  0.61151235  0.83838394  1
  Rh  Rh0  1  0.16540261  0.95653533  0.59043901  1
  Rh  Rh1  1  0.95654163  0.59044747  0.16538685  1
  Rh  Rh2  1  0.59043817  0.16540172  0.95654243  1
  Rh  Rh3  1  0.83459739  0.04346367  0.40956099  1
  Rh  Rh4  1  0.04345837  0.40955253  0.83461315  1
  Rh  Rh5  1  0.40956183  0.83459828  0.04345757  1
loop_
_geom_bond_atom_site_label_1
_geom_bond_atom_site_label_2
_geom_bond_distance
_geom_bond_site_symmetry_2
La0 Rh1 3.082746 1_445
La0 Rh4 3.082746 1_554
La0 Rh3 3.082929 1_455
La0 Rh0 3.082932 1_544
La0 Rh2 3.082936 1_454
La0 Rh5 3.082936 1_545
La1 Rh5 2.953184 1_556
La1 Rh4 2.953222 1_655
La1 Rh3 2.953333 1_565
La1 Rh1 3.186998 1_556
La1 Rh2 3.187055 1_565
La1 Rh0 3.187088 1_655
La2 Rh2 2.953184 1_554
La2 Rh1 2.953222 1_455
La2 Rh0 2.953336 1_545
La2 Rh4 3.186998 1_554
La2 Rh5 3.187055 1_545
La2 Rh3 3.187092 1_455
La3 Rh4 2.896449 1_555
La3 Rh0 2.996886 1_545
La3 Rh2 3.097058 1_555
La3 Rh5 3.153228 1_546
La3 Rh3 3.371178 1_555
La4 Rh5 2.896558 1_555
La4 Rh1 2.996921 1_455
La4 Rh0 3.096936 1_555
La4 Rh3 3.153184 1_465
La4 Rh4 3.371205 1_555
La5 Rh3 2.896529 1_555
La5 Rh2 2.996938 1_554
La5 Rh1 3.096870 1_555
La5 Rh4 3.153091 1_654
La5 Rh5 3.371060 1_555
La6 Rh1 2.896449 1_555
La6 Rh3 2.996880 1_565
La6 Rh5 3.097058 1_555
La6 Rh2 3.153228 1_564
La6 Rh0 3.371177 1_555
La7 Rh2 2.896558 1_555
La7 Rh4 2.996921 1_655
La7 Rh3 3.096943 1_555
La7 Rh0 3.153190 1_645
La7 Rh1 3.371205 1_555
La8 Rh0 2.896524 1_555
La8 Rh5 2.996938 1_556
La8 Rh4 3.096870 1_555
La8 Rh1 3.153091 1_456
La8 Rh2 3.371060 1_555
