# generated using pymatgen
data_MgTi2
_symmetry_space_group_name_H-M   'P 1'
_cell_length_a   4.70332000
_cell_length_b   7.97441100
_cell_length_c   12.11125560
_cell_angle_alpha   79.15676279
_cell_angle_beta   90.00000000
_cell_angle_gamma   90.00000000
_symmetry_Int_Tables_number   1
_chemical_formula_structural   MgTi2
_chemical_formula_sum   'Mg8 Ti16'
_cell_volume   446.13692933
_cell_formula_units_Z   8
loop_
 _symmetry_equiv_pos_site_id
 _symmetry_equiv_pos_as_xyz
  1  'x, y, z'
loop_
 _atom_site_type_symbol
 _atom_site_label
 _atom_site_symmetry_multiplicity
 _atom_site_fract_x
 _atom_site_fract_y
 _atom_site_fract_z
 _atom_site_occupancy
  Mg  Mg0  1  0.25000000  0.27413800  0.90662200  1
  Mg  Mg1  1  0.25000000  0.27156200  0.65007400  1
  Mg  Mg2  1  0.75000000  0.72586200  0.09337800  1
  Mg  Mg3  1  0.75000000  0.72843800  0.34992600  1
  Mg  Mg4  1  0.25000000  0.62099000  0.73408900  1
  Mg  Mg5  1  0.25000000  0.60855800  0.23627900  1
  Mg  Mg6  1  0.75000000  0.37901000  0.26591100  1
  Mg  Mg7  1  0.75000000  0.39144200  0.76372100  1
  Ti  Ti0  1  0.25000000  0.26310300  0.40894600  1
  Ti  Ti1  1  0.25000000  0.25975100  0.15136200  1
  Ti  Ti2  1  0.75000000  0.05454900  0.43498300  1
  Ti  Ti3  1  0.75000000  0.06379900  0.17922200  1
  Ti  Ti4  1  0.75000000  0.04236200  0.67899600  1
  Ti  Ti5  1  0.75000000  0.04649400  0.93086400  1
  Ti  Ti6  1  0.25000000  0.94545100  0.56501700  1
  Ti  Ti7  1  0.25000000  0.95763800  0.32100400  1
  Ti  Ti8  1  0.25000000  0.93620100  0.82077800  1
  Ti  Ti9  1  0.25000000  0.95350600  0.06913600  1
  Ti  Ti10  1  0.75000000  0.74024900  0.84863800  1
  Ti  Ti11  1  0.75000000  0.73689700  0.59105400  1
  Ti  Ti12  1  0.25000000  0.61371500  0.98267200  1
  Ti  Ti13  1  0.25000000  0.60963000  0.48874600  1
  Ti  Ti14  1  0.75000000  0.38628500  0.01732800  1
  Ti  Ti15  1  0.75000000  0.39037000  0.51125400  1
loop_
_geom_bond_atom_site_label_1
_geom_bond_atom_site_label_2
_geom_bond_distance
_geom_bond_site_symmetry_2
Mg0 Ti9 2.918567 1_546
Mg0 Ti14 2.928984 1_456
Mg0 Ti14 2.928984 1_556
Mg0 Ti1 2.944682 1_556
Mg0 Ti5 2.951506 1_455
Mg0 Ti5 2.951506 1_555
Mg0 Mg7 2.965058 1_455
Mg0 Mg7 2.965058 1_555
Mg0 Ti12 3.019874 1_555
Mg0 Ti8 3.065501 1_545
Mg0 Mg1 3.111048 1_555
Mg0 Mg4 3.137234 1_555
Mg1 Ti0 2.933801 1_555
Mg1 Ti15 2.941992 1_555
Mg1 Ti15 2.941992 1_455
Mg1 Ti4 2.958502 1_555
Mg1 Ti4 2.958502 1_455
Mg1 Ti6 2.971862 1_545
Mg1 Mg7 2.972163 1_555
Mg1 Mg7 2.972163 1_455
Mg1 Ti13 3.017225 1_555
Mg1 Ti8 3.057119 1_545
Mg1 Mg4 3.141118 1_555
Mg2 Ti5 2.918567 1_564
Mg2 Ti12 2.928984 1_654
Mg2 Ti12 2.928984 1_554
Mg2 Ti10 2.944682 1_554
Mg2 Ti9 2.951506 1_655
Mg2 Ti9 2.951506 1_555
Mg2 Mg5 2.965058 1_655
Mg2 Mg5 2.965058 1_555
Mg2 Ti14 3.019874 1_555
Mg2 Ti3 3.065501 1_565
Mg2 Mg3 3.111048 1_555
Mg2 Mg6 3.137234 1_555
Mg3 Ti11 2.933801 1_555
Mg3 Ti13 2.941992 1_655
Mg3 Ti13 2.941992 1_555
Mg3 Ti7 2.958502 1_555
Mg3 Ti7 2.958502 1_655
Mg3 Ti2 2.971862 1_565
Mg3 Mg5 2.972163 1_655
Mg3 Mg5 2.972163 1_555
Mg3 Ti15 3.017225 1_555
Mg3 Ti3 3.057119 1_565
Mg3 Mg6 3.141118 1_555
Mg4 Ti8 2.900613 1_555
Mg4 Mg7 2.960186 1_555
Mg4 Mg7 2.960186 1_455
Mg4 Ti11 2.963640 1_455
Mg4 Ti11 2.963640 1_555
Mg4 Ti10 2.975877 1_555
Mg4 Ti10 2.975877 1_455
Mg4 Ti6 2.982305 1_555
Mg4 Ti13 2.989778 1_555
Mg4 Ti12 3.000280 1_555
Mg5 Mg6 2.960186 1_455
Mg5 Mg6 2.960186 1_555
Mg5 Ti13 3.059312 1_555
Mg5 Ti12 3.064029 1_554
Mg5 Ti9 3.093448 1_555
Mg5 Ti0 3.129632 1_555
Mg5 Ti1 3.141805 1_555
Mg5 Ti7 3.142719 1_555
Mg6 Ti3 2.900613 1_555
Mg6 Ti0 2.963640 1_555
Mg6 Ti0 2.963640 1_655
Mg6 Ti1 2.975877 1_655
Mg6 Ti1 2.975877 1_555
Mg6 Ti2 2.982305 1_555
Mg6 Ti15 2.989778 1_555
Mg6 Ti14 3.000280 1_555
Mg7 Ti15 3.059312 1_555
Mg7 Ti14 3.064029 1_556
Mg7 Ti5 3.093448 1_555
Mg7 Ti11 3.129632 1_555
Mg7 Ti10 3.141805 1_555
Mg7 Ti4 3.142719 1_555
Ti0 Ti7 2.836228 1_545
Ti0 Ti6 2.861461 1_545
Ti0 Ti2 2.863269 1_455
Ti0 Ti2 2.863269 1_555
Ti0 Ti15 2.927240 1_455
Ti0 Ti15 2.927240 1_555
Ti0 Ti13 3.094353 1_555
Ti0 Ti1 3.124805 1_555
Ti1 Ti9 2.805483 1_545
Ti1 Ti3 2.808470 1_555
Ti1 Ti3 2.808470 1_455
Ti1 Ti7 2.857106 1_545
Ti1 Ti14 2.927002 1_555
Ti1 Ti14 2.927002 1_455
Ti1 Ti12 3.157798 1_554
Ti2 Ti6 2.872615 1_645
Ti2 Ti6 2.872615 1_545
Ti2 Ti7 2.904221 1_545
Ti2 Ti7 2.904221 1_645
Ti2 Ti4 2.938572 1_555
Ti2 Ti3 3.084561 1_555
Ti3 Ti9 2.919367 1_645
Ti3 Ti9 2.919367 1_545
Ti3 Ti7 2.940863 1_645
Ti3 Ti7 2.940863 1_545
Ti3 Ti5 3.036913 1_554
Ti4 Ti6 2.904221 1_645
Ti4 Ti6 2.904221 1_545
Ti4 Ti8 2.940863 1_645
Ti4 Ti8 2.940863 1_545
Ti4 Ti5 3.056808 1_555
Ti5 Ti9 2.901274 1_546
Ti5 Ti9 2.901274 1_646
Ti5 Ti8 2.919367 1_645
Ti5 Ti8 2.919367 1_545
Ti6 Ti7 2.938572 1_555
Ti6 Ti8 3.084561 1_555
Ti7 Ti9 3.056808 1_555
Ti8 Ti9 3.036913 1_556
Ti10 Ti5 2.805483 1_565
Ti10 Ti8 2.808470 1_555
Ti10 Ti8 2.808470 1_655
Ti10 Ti4 2.857106 1_565
Ti10 Ti12 2.927002 1_555
Ti10 Ti12 2.927002 1_655
Ti10 Ti11 3.124805 1_555
Ti10 Ti14 3.157798 1_556
Ti11 Ti4 2.836228 1_565
Ti11 Ti2 2.861461 1_565
Ti11 Ti6 2.863269 1_555
Ti11 Ti6 2.863269 1_655
Ti11 Ti13 2.927240 1_555
Ti11 Ti13 2.927240 1_655
Ti11 Ti15 3.094353 1_555
Ti12 Ti8 2.925862 1_555
Ti12 Ti14 2.951150 1_456
Ti12 Ti14 2.951150 1_556
Ti12 Ti9 3.083230 1_556
Ti13 Ti15 2.912461 1_455
Ti13 Ti15 2.912461 1_555
Ti13 Ti6 2.992587 1_555
Ti13 Ti7 3.115691 1_555
Ti14 Ti3 2.925862 1_555
Ti14 Ti5 3.083230 1_554
Ti15 Ti2 2.992587 1_555
Ti15 Ti4 3.115691 1_555
