# generated using pymatgen
data_YZnCuAs2
_symmetry_space_group_name_H-M   'P 1'
_cell_length_a   4.11815625
_cell_length_b   4.11815625
_cell_length_c   6.73600100
_cell_angle_alpha   90.00000000
_cell_angle_beta   90.00000000
_cell_angle_gamma   120.00000400
_symmetry_Int_Tables_number   1
_chemical_formula_structural   YZnCuAs2
_chemical_formula_sum   'Y1 Zn1 Cu1 As2'
_cell_volume   98.93236654
_cell_formula_units_Z   1
loop_
 _symmetry_equiv_pos_site_id
 _symmetry_equiv_pos_as_xyz
  1  'x, y, z'
loop_
 _atom_site_type_symbol
 _atom_site_label
 _atom_site_symmetry_multiplicity
 _atom_site_fract_x
 _atom_site_fract_y
 _atom_site_fract_z
 _atom_site_occupancy
  Y  Y0  1  0.00000000  0.00000000  0.98347700  1
  Zn  Zn0  1  0.66666700  0.33333300  0.37734000  1
  Cu  Cu0  1  0.33333300  0.66666700  0.63972900  1
  As  As0  1  0.33333300  0.66666700  0.25144100  1
  As  As1  1  0.66666700  0.33333300  0.74801300  1
loop_
_geom_bond_atom_site_label_1
_geom_bond_atom_site_label_2
_geom_bond_distance
_geom_bond_site_symmetry_2
As0 Zn0 2.524333 1_455
As0 Zn0 2.524333 1_565
As0 Zn0 2.524340 1_555
As0 Cu0 2.615508 1_555
As0 Y0 2.985147 1_564
As0 Y0 2.985150 1_554
As0 Y0 2.985150 1_664
As1 Cu0 2.486983 1_545
As1 Cu0 2.486983 1_655
As1 Cu0 2.486990 1_555
As1 Zn0 2.496854 1_555
As1 Y0 2.858099 1_655
As1 Y0 2.858101 1_555
As1 Y0 2.858101 1_665
