# generated using pymatgen
data_Rb3FeCl5
_symmetry_space_group_name_H-M   'P 1'
_cell_length_a   8.85905589
_cell_length_b   8.85905589
_cell_length_c   9.41472916
_cell_angle_alpha   118.06604962
_cell_angle_beta   118.06604962
_cell_angle_gamma   90.00000000
_symmetry_Int_Tables_number   1
_chemical_formula_structural   Rb3FeCl5
_chemical_formula_sum   'Rb6 Fe2 Cl10'
_cell_volume   551.59389344
_cell_formula_units_Z   2
loop_
 _symmetry_equiv_pos_site_id
 _symmetry_equiv_pos_as_xyz
  1  'x, y, z'
loop_
 _atom_site_type_symbol
 _atom_site_label
 _atom_site_symmetry_multiplicity
 _atom_site_fract_x
 _atom_site_fract_y
 _atom_site_fract_z
 _atom_site_occupancy
  Rb  Rb0  1  0.25000000  0.25000000  0.50000000  1
  Rb  Rb1  1  0.75000000  0.75000000  0.50000000  1
  Rb  Rb2  1  0.66076376  0.16076376  0.00000000  1
  Rb  Rb3  1  0.33923624  0.83923624  -0.00000000  1
  Rb  Rb4  1  0.83923624  0.66076376  -0.00000000  1
  Rb  Rb5  1  0.16076376  0.33923624  -0.00000000  1
  Fe  Fe0  1  0.25000000  0.75000000  0.50000000  1
  Fe  Fe1  1  0.75000000  0.25000000  0.50000000  1
  Cl  Cl0  1  0.30147315  0.80147315  0.30860242  1
  Cl  Cl1  1  0.69852685  0.19852685  0.69139758  1
  Cl  Cl2  1  0.00712927  0.50712927  0.30860242  1
  Cl  Cl3  1  0.50712927  0.30147315  0.30860242  1
  Cl  Cl4  1  0.19852685  0.99287073  0.69139758  1
  Cl  Cl5  1  0.99287073  0.49287073  0.69139758  1
  Cl  Cl6  1  0.49287073  0.69852685  0.69139758  1
  Cl  Cl7  1  0.80147315  0.00712927  0.30860242  1
  Cl  Cl8  1  -0.00000000  0.00000000  -0.00000000  1
  Cl  Cl9  1  0.50000000  0.50000000  -0.00000000  1
loop_
_geom_bond_atom_site_label_1
_geom_bond_atom_site_label_2
_geom_bond_distance
_geom_bond_site_symmetry_2
Cl0 Fe0 2.282395 1_555
Cl0 Rb3 3.239519 1_555
Cl0 Rb5 3.487236 1_555
Cl0 Rb4 3.487236 1_455
Cl0 Rb1 3.644114 1_555
Cl0 Rb0 3.644114 1_565
Cl1 Fe1 2.282395 1_555
Cl1 Rb2 3.239519 1_556
Cl1 Rb5 3.487236 1_656
Cl1 Rb4 3.487236 1_556
Cl1 Rb0 3.644114 1_555
Cl1 Rb1 3.644114 1_545
Cl2 Fe0 2.282395 1_555
Cl2 Rb2 3.239519 1_455
Cl2 Rb5 3.487235 1_555
Cl2 Rb4 3.487235 1_455
Cl2 Rb0 3.644114 1_555
Cl2 Rb1 3.644114 1_455
Cl3 Fe1 2.282395 1_555
Cl3 Rb5 3.239519 1_555
Cl3 Rb2 3.487235 1_555
Cl3 Rb3 3.487236 1_545
Cl3 Rb0 3.644114 1_555
Cl3 Rb1 3.644114 1_555
Cl4 Fe0 2.282395 1_555
Cl4 Rb5 3.239519 1_566
Cl4 Rb3 3.487235 1_556
Cl4 Rb2 3.487236 1_566
Cl4 Rb0 3.644114 1_565
Cl4 Rb1 3.644114 1_455
Cl5 Fe1 2.282395 1_555
Cl5 Rb3 3.239519 1_656
Cl5 Rb4 3.487235 1_556
Cl5 Rb5 3.487235 1_656
Cl5 Rb0 3.644114 1_655
Cl5 Rb1 3.644114 1_555
Cl6 Fe0 2.282395 1_555
Cl6 Rb4 3.239519 1_556
Cl6 Rb3 3.487235 1_556
Cl6 Rb2 3.487236 1_566
Cl6 Rb1 3.644114 1_555
Cl6 Rb0 3.644114 1_555
Cl7 Fe1 2.282395 1_555
Cl7 Rb4 3.239519 1_545
Cl7 Rb2 3.487235 1_555
Cl7 Rb3 3.487236 1_545
Cl7 Rb1 3.644114 1_545
Cl7 Rb0 3.644114 1_655
Cl8 Rb2 3.325702 1_455
Cl8 Rb4 3.325702 1_445
Cl8 Rb5 3.325702 1_555
Cl8 Rb3 3.325702 1_545
Cl8 Rb0 3.514104 1_555
Cl8 Rb1 3.514104 1_444
Cl9 Rb2 3.325702 1_555
Cl9 Rb4 3.325702 1_555
Cl9 Rb3 3.325702 1_555
Cl9 Rb5 3.325702 1_555
Cl9 Rb0 3.514104 1_554
Cl9 Rb1 3.514104 1_555
