# generated using pymatgen
data_Li32Mn13Cr3O48
_symmetry_space_group_name_H-M   'P 1'
_cell_length_a   5.00619000
_cell_length_b   8.69457052
_cell_length_c   19.42995975
_cell_angle_alpha   98.44501824
_cell_angle_beta   94.69589344
_cell_angle_gamma   89.98010529
_symmetry_Int_Tables_number   1
_chemical_formula_structural   Li32Mn13Cr3O48
_chemical_formula_sum   'Li32 Mn13 Cr3 O48'
_cell_volume   833.68497174
_cell_formula_units_Z   1
loop_
 _symmetry_equiv_pos_site_id
 _symmetry_equiv_pos_as_xyz
  1  'x, y, z'
loop_
 _atom_site_type_symbol
 _atom_site_label
 _atom_site_symmetry_multiplicity
 _atom_site_fract_x
 _atom_site_fract_y
 _atom_site_fract_z
 _atom_site_occupancy
  Li  Li0  1  0.99239500  0.16827300  0.24973900  1
  Li  Li1  1  0.87271100  0.37430200  0.37516400  1
  Li  Li2  1  0.75171900  0.24836100  0.00011500  1
  Li  Li3  1  0.74212300  0.92049400  0.00001800  1
  Li  Li4  1  0.99070100  0.16922500  0.75046000  1
  Li  Li5  1  0.75653500  0.58023600  0.50004700  1
  Li  Li6  1  0.87794300  0.37550000  0.87477900  1
  Li  Li7  1  0.74917300  0.25102500  0.49979000  1
  Li  Li8  1  0.74385400  0.91924000  0.50017800  1
  Li  Li9  1  0.62491300  0.12492800  0.12494200  1
  Li  Li10  1  0.75650800  0.58075900  0.99983300  1
  Li  Li11  1  0.50927200  0.33072500  0.24944400  1
  Li  Li12  1  0.62738600  0.12429500  0.62474600  1
  Li  Li13  1  0.50001100  0.99977600  0.24989200  1
  Li  Li14  1  0.48983700  0.66905000  0.24977000  1
  Li  Li15  1  0.50776400  0.33393400  0.74996300  1
  Li  Li16  1  0.37471000  0.87386800  0.37479200  1
  Li  Li17  1  0.49841200  0.99888800  0.74977900  1
  Li  Li18  1  0.25011300  0.74991700  0.00003900  1
  Li  Li19  1  0.49063900  0.66722000  0.74930300  1
  Li  Li20  1  0.24122100  0.42000500  0.00073200  1
  Li  Li21  1  0.37599000  0.87543900  0.87527300  1
  Li  Li22  1  0.25528100  0.07899900  0.49949000  1
  Li  Li23  1  0.25255500  0.75088200  0.50023500  1
  Li  Li24  1  0.12481200  0.62518300  0.12504400  1
  Li  Li25  1  0.24200600  0.42015200  0.50038300  1
  Li  Li26  1  0.00903100  0.83052300  0.25042400  1
  Li  Li27  1  0.25832500  0.08028900  0.99973500  1
  Li  Li28  1  0.12549900  0.62430100  0.62527200  1
  Li  Li29  1  0.99873600  0.50184700  0.24978700  1
  Li  Li30  1  0.00834400  0.83208400  0.75038000  1
  Li  Li31  1  0.00312300  0.49937300  0.75024000  1
  Mn  Mn0  1  0.87298500  0.70983000  0.37449900  1
  Mn  Mn1  1  0.87566700  0.04146700  0.37497200  1
  Mn  Mn2  1  0.87355600  0.70856900  0.87507700  1
  Mn  Mn3  1  0.87695300  0.04036200  0.87569400  1
  Mn  Mn4  1  0.62550900  0.79146900  0.12484600  1
  Mn  Mn5  1  0.62457800  0.45852600  0.12483600  1
  Mn  Mn6  1  0.62492500  0.79149500  0.62518100  1
  Mn  Mn7  1  0.62657100  0.46019000  0.62577000  1
  Mn  Mn8  1  0.37628700  0.20718400  0.37559200  1
  Mn  Mn9  1  0.37327100  0.54247100  0.87428400  1
  Mn  Mn10  1  0.12469000  0.95837000  0.12492100  1
  Mn  Mn11  1  0.12549800  0.29133500  0.12490700  1
  Mn  Mn12  1  0.12275800  0.95693300  0.62452200  1
  Cr  Cr0  1  0.37061800  0.53932800  0.37503800  1
  Cr  Cr1  1  0.37971600  0.21024800  0.87480500  1
  Cr  Cr2  1  0.13141200  0.28945300  0.62507300  1
  O  O0  1  0.96454500  0.10641800  0.06932700  1
  O  O1  1  0.92841700  0.78526700  0.06903700  1
  O  O2  1  0.92804500  0.42734500  0.06813100  1
  O  O3  1  0.96197500  0.10202200  0.56852800  1
  O  O4  1  0.82187500  0.96455000  0.18080800  1
  O  O5  1  0.82210700  0.32273300  0.18173100  1
  O  O6  1  0.92842500  0.78403300  0.56928600  1
  O  O7  1  0.92777600  0.42654300  0.56835000  1
  O  O8  1  0.78520800  0.64345500  0.18049500  1
  O  O9  1  0.71247800  0.85757800  0.31922000  1
  O  O10  1  0.82071300  0.96496300  0.68094900  1
  O  O11  1  0.82184500  0.32345300  0.68171800  1
  O  O12  1  0.67703000  0.53652100  0.31919900  1
  O  O13  1  0.67834800  0.17766400  0.31827800  1
  O  O14  1  0.78764800  0.64463300  0.68089500  1
  O  O15  1  0.71445100  0.85652600  0.81942800  1
  O  O16  1  0.46391400  0.60628400  0.06905000  1
  O  O17  1  0.57274100  0.71426300  0.43102700  1
  O  O18  1  0.57172600  0.07142300  0.43167900  1
  O  O19  1  0.67799600  0.53516600  0.81942500  1
  O  O20  1  0.67459100  0.17603400  0.81819700  1
  O  O21  1  0.42799500  0.92745000  0.06828700  1
  O  O22  1  0.42817400  0.28519800  0.06905300  1
  O  O23  1  0.53776600  0.38983300  0.43148900  1
  O  O24  1  0.46417700  0.60707000  0.56934500  1
  O  O25  1  0.57150000  0.71452700  0.93084100  1
  O  O26  1  0.57724200  0.07025500  0.93260600  1
  O  O27  1  0.32222100  0.82255700  0.18155500  1
  O  O28  1  0.32189600  0.46457400  0.18080400  1
  O  O29  1  0.42778600  0.92782800  0.56851400  1
  O  O30  1  0.42456700  0.28717200  0.56950700  1
  O  O31  1  0.53120600  0.39234900  0.93061200  1
  O  O32  1  0.28597100  0.14363000  0.18077600  1
  O  O33  1  0.21798600  0.35693700  0.31950000  1
  O  O34  1  0.32220900  0.82224700  0.68182800  1
  O  O35  1  0.32719800  0.46798300  0.68161000  1
  O  O36  1  0.17304800  0.67974900  0.31749200  1
  O  O37  1  0.17783900  0.03502900  0.31911300  1
  O  O38  1  0.28133900  0.14401500  0.68069500  1
  O  O39  1  0.21137200  0.36015300  0.81807900  1
  O  O40  1  0.07603700  0.57479600  0.43157100  1
  O  O41  1  0.07173300  0.21500400  0.43082400  1
  O  O42  1  0.17787500  0.67880900  0.81839300  1
  O  O43  1  0.17783200  0.03632900  0.81902100  1
  O  O44  1  0.03621800  0.89391800  0.43054800  1
  O  O45  1  0.07132800  0.57226100  0.93171900  1
  O  O46  1  0.07158500  0.21424600  0.93078900  1
  O  O47  1  0.03741400  0.89288300  0.93086200  1
loop_
_geom_bond_atom_site_label_1
_geom_bond_atom_site_label_2
_geom_bond_distance
_geom_bond_site_symmetry_2
Li0 O32 2.058951 1_655
Li0 O37 2.067351 1_655
Li0 O13 2.136035 1_555
Li0 O5 2.147643 1_555
Li0 O4 2.185639 1_545
Li0 O33 2.213826 1_655
Li1 O23 2.069899 1_555
Li1 O41 2.084023 1_655
Li1 O13 2.088414 1_555
Li1 O12 2.099162 1_555
Li1 O33 2.106716 1_655
Li1 O40 2.129195 1_655
Li2 O26 2.024412 1_554
Li2 O2 2.037965 1_555
Li2 O46 2.168426 1_654
Li2 O0 2.172251 1_555
Li2 O22 2.179248 1_555
Li2 O31 2.204804 1_554
Li3 O47 2.068507 1_654
Li3 O1 2.075597 1_555
Li3 O26 2.101332 1_564
Li3 O21 2.134034 1_555
Li3 O0 2.186976 1_565
Li3 O25 2.202105 1_554
Li4 O43 2.057754 1_655
Li4 O38 2.058626 1_655
Li4 O20 2.134969 1_555
Li4 O11 2.153392 1_555
Li4 O10 2.193332 1_545
Li4 O39 2.196659 1_655
Li5 O24 2.059045 1_555
Li5 O17 2.063783 1_555
Li5 O7 2.148409 1_555
Li5 O40 2.158865 1_655
Li5 O6 2.191213 1_555
Li5 O23 2.197534 1_555
Li6 O39 2.067734 1_655
Li6 O19 2.084991 1_555
Li6 O45 2.087531 1_655
Li6 O46 2.089083 1_655
Li6 O31 2.114924 1_555
Li6 O20 2.123833 1_555
Li7 O7 2.027722 1_555
Li7 O18 2.044619 1_555
Li7 O23 2.139480 1_555
Li7 O41 2.175304 1_655
Li7 O30 2.193055 1_555
Li7 O3 2.207112 1_555
Li8 O44 2.063384 1_655
Li8 O6 2.073280 1_555
Li8 O29 2.141726 1_555
Li8 O18 2.143214 1_565
Li8 O3 2.150698 1_565
Li8 O17 2.196484 1_555
Li9 O32 2.081321 1_555
Li9 O0 2.081836 1_555
Li9 O22 2.087929 1_555
Li9 O4 2.088848 1_545
Li9 O21 2.097612 1_545
Li9 O5 2.101264 1_555
Li10 O16 2.058690 1_556
Li10 O25 2.064314 1_555
Li10 O45 2.133924 1_655
Li10 O2 2.147133 1_556
Li10 O1 2.195378 1_556
Li10 O31 2.206891 1_555
Li11 O28 2.064756 1_555
Li11 O33 2.065154 1_555
Li11 O5 2.121070 1_555
Li11 O13 2.147758 1_555
Li11 O32 2.189877 1_555
Li11 O12 2.201418 1_555
Li12 O3 2.067256 1_555
Li12 O10 2.078146 1_545
Li12 O29 2.093894 1_545
Li12 O11 2.105517 1_555
Li12 O30 2.110774 1_555
Li12 O38 2.113217 1_555
Li13 O27 2.033698 1_555
Li13 O13 2.039085 1_565
Li13 O4 2.173692 1_555
Li13 O9 2.174417 1_555
Li13 O37 2.176676 1_565
Li13 O32 2.184670 1_565
Li14 O12 2.067509 1_555
Li14 O8 2.070132 1_555
Li14 O36 2.135603 1_555
Li14 O27 2.139841 1_555
Li14 O28 2.186320 1_555
Li14 O9 2.203499 1_555
Li15 O35 2.048584 1_555
Li15 O39 2.058623 1_555
Li15 O11 2.131816 1_555
Li15 O20 2.166219 1_555
Li15 O19 2.174425 1_555
Li15 O38 2.218486 1_555
Li16 O9 2.073416 1_555
Li16 O44 2.078564 1_555
Li16 O17 2.090323 1_555
Li16 O36 2.091067 1_555
Li16 O37 2.091622 1_565
Li16 O18 2.099971 1_565
Li17 O34 2.023529 1_555
Li17 O20 2.030989 1_565
Li17 O10 2.171646 1_555
Li17 O43 2.171675 1_565
Li17 O15 2.187370 1_555
Li17 O38 2.198313 1_565
Li18 O21 2.034810 1_555
Li18 O45 2.037966 1_554
Li18 O1 2.171982 1_455
Li18 O25 2.173332 1_554
Li18 O47 2.177393 1_554
Li18 O16 2.181527 1_555
Li19 O14 2.064652 1_555
Li19 O19 2.074560 1_555
Li19 O35 2.134426 1_555
Li19 O42 2.137320 1_555
Li19 O34 2.140995 1_555
Li19 O15 2.216661 1_555
Li20 O31 2.061286 1_554
Li20 O22 2.065127 1_555
Li20 O2 2.118639 1_455
Li20 O45 2.146570 1_554
Li20 O16 2.180721 1_555
Li20 O46 2.206017 1_554
Li21 O47 2.077018 1_555
Li21 O15 2.079382 1_555
Li21 O25 2.085848 1_555
Li21 O26 2.094830 1_565
Li21 O42 2.096331 1_555
Li21 O43 2.099074 1_565
Li22 O3 2.058860 1_455
Li22 O41 2.069926 1_555
Li22 O18 2.136855 1_555
Li22 O29 2.144603 1_545
Li22 O44 2.171206 1_545
Li22 O30 2.221270 1_555
Li23 O29 2.026661 1_555
Li23 O40 2.027985 1_555
Li23 O17 2.169274 1_555
Li23 O24 2.179052 1_555
Li23 O6 2.181441 1_455
Li23 O44 2.192370 1_555
Li24 O8 2.079885 1_455
Li24 O16 2.083804 1_555
Li24 O1 2.087319 1_455
Li24 O28 2.089413 1_555
Li24 O27 2.096970 1_555
Li24 O2 2.101449 1_455
Li25 O30 2.056778 1_555
Li25 O23 2.067421 1_555
Li25 O7 2.130779 1_455
Li25 O40 2.152013 1_555
Li25 O24 2.188899 1_555
Li25 O41 2.199794 1_555
Li26 O9 2.068448 1_455
Li26 O4 2.078492 1_455
Li26 O36 2.101586 1_555
Li26 O27 2.137724 1_555
Li26 O37 2.185486 1_565
Li26 O8 2.202260 1_455
Li27 O46 2.068218 1_555
Li27 O0 2.068366 1_456
Li27 O26 2.136654 1_555
Li27 O21 2.143679 1_546
Li27 O47 2.187994 1_545
Li27 O22 2.195411 1_556
Li28 O14 2.074343 1_455
Li28 O35 2.078481 1_555
Li28 O24 2.081254 1_555
Li28 O6 2.086268 1_455
Li28 O34 2.099485 1_555
Li28 O7 2.103041 1_455
Li29 O36 2.024821 1_655
Li29 O5 2.039687 1_555
Li29 O8 2.172911 1_555
Li29 O12 2.177031 1_555
Li29 O28 2.178508 1_655
Li29 O33 2.209925 1_655
Li30 O15 2.061301 1_455
Li30 O10 2.070401 1_455
Li30 O34 2.135285 1_555
Li30 O42 2.139034 1_555
Li30 O43 2.184566 1_565
Li30 O14 2.193266 1_455
Li31 O11 2.034863 1_455
Li31 O42 2.038949 1_555
Li31 O39 2.128910 1_555
Li31 O35 2.175268 1_555
Li31 O19 2.188183 1_455
Li31 O14 2.198869 1_455
Mn0 O9 1.926844 1_555
Mn0 O17 1.930002 1_555
Mn0 O36 1.933616 1_655
Mn0 O12 1.933989 1_555
Mn0 O44 1.938762 1_655
Mn0 O40 1.959187 1_655
Mn1 O37 1.928825 1_655
Mn1 O44 1.929223 1_645
Mn1 O9 1.935055 1_545
Mn1 O41 1.939935 1_655
Mn1 O18 1.946020 1_555
Mn1 O13 1.948243 1_555
Mn2 O25 1.927423 1_555
Mn2 O15 1.930092 1_555
Mn2 O19 1.936391 1_555
Mn2 O47 1.939327 1_655
Mn2 O42 1.947230 1_655
Mn2 O45 1.949336 1_655
Mn3 O47 1.923669 1_645
Mn3 O26 1.930944 1_555
Mn3 O46 1.932848 1_655
Mn3 O43 1.934626 1_655
Mn3 O15 1.937480 1_545
Mn3 O20 1.966409 1_555
Mn4 O1 1.931393 1_555
Mn4 O8 1.931555 1_555
Mn4 O4 1.938737 1_555
Mn4 O16 1.940821 1_555
Mn4 O27 1.943859 1_555
Mn4 O21 1.945789 1_555
Mn5 O28 1.932449 1_555
Mn5 O16 1.933334 1_555
Mn5 O8 1.936294 1_555
Mn5 O22 1.938910 1_555
Mn5 O2 1.944598 1_555
Mn5 O5 1.948702 1_555
Mn6 O14 1.930500 1_555
Mn6 O6 1.934325 1_555
Mn6 O24 1.934625 1_555
Mn6 O10 1.938218 1_555
Mn6 O34 1.940594 1_555
Mn6 O29 1.948324 1_555
Mn7 O35 1.916372 1_555
Mn7 O14 1.929802 1_555
Mn7 O11 1.937932 1_555
Mn7 O24 1.938643 1_555
Mn7 O7 1.945073 1_555
Mn7 O30 1.953899 1_555
Mn8 O23 1.924974 1_555
Mn8 O41 1.930610 1_555
Mn8 O18 1.934068 1_555
Mn8 O37 1.942100 1_555
Mn8 O13 1.945296 1_555
Mn8 O33 1.945716 1_555
Mn9 O39 1.926083 1_555
Mn9 O19 1.927088 1_555
Mn9 O42 1.935125 1_555
Mn9 O25 1.941620 1_555
Mn9 O45 1.946373 1_555
Mn9 O31 1.950336 1_555
Mn10 O0 1.931933 1_465
Mn10 O4 1.931959 1_455
Mn10 O1 1.938041 1_455
Mn10 O32 1.941187 1_565
Mn10 O21 1.942959 1_555
Mn10 O27 1.945714 1_555
Mn11 O22 1.931003 1_555
Mn11 O32 1.933644 1_555
Mn11 O0 1.936197 1_455
Mn11 O28 1.939253 1_555
Mn11 O5 1.945801 1_455
Mn11 O2 1.948408 1_455
Mn12 O3 1.918832 1_465
Mn12 O6 1.927268 1_455
Mn12 O10 1.934484 1_455
Mn12 O29 1.941916 1_555
Mn12 O38 1.950612 1_565
Mn12 O34 1.951466 1_555
Cr0 O33 1.904290 1_555
Cr0 O40 1.908377 1_555
Cr0 O12 1.948186 1_555
Cr0 O17 1.963556 1_555
Cr0 O23 1.964799 1_555
Cr0 O36 1.984464 1_555
Cr1 O31 1.902539 1_555
Cr1 O20 1.909676 1_555
Cr1 O43 1.955287 1_555
Cr1 O46 1.956409 1_555
Cr1 O39 1.973042 1_555
Cr1 O26 1.984813 1_555
Cr2 O30 1.890230 1_555
Cr2 O38 1.896911 1_555
Cr2 O7 1.968680 1_455
Cr2 O11 1.970750 1_455
Cr2 O35 1.975041 1_555
Cr2 O3 1.976046 1_455
