# generated using pymatgen
data_DyN7O15
_symmetry_space_group_name_H-M   'P 1'
_cell_length_a   11.28827842
_cell_length_b   11.28827842
_cell_length_c   9.42772400
_cell_angle_alpha   90.00000000
_cell_angle_beta   90.00000000
_cell_angle_gamma   120.00000247
_symmetry_Int_Tables_number   1
_chemical_formula_structural   DyN7O15
_chemical_formula_sum   'Dy3 N21 O45'
_cell_volume   1040.38218279
_cell_formula_units_Z   3
loop_
 _symmetry_equiv_pos_site_id
 _symmetry_equiv_pos_as_xyz
  1  'x, y, z'
loop_
 _atom_site_type_symbol
 _atom_site_label
 _atom_site_symmetry_multiplicity
 _atom_site_fract_x
 _atom_site_fract_y
 _atom_site_fract_z
 _atom_site_occupancy
  Dy  Dy0  1  0.33174200  0.00000000  0.33333300  1
  Dy  Dy1  1  0.00000000  0.33174200  0.66666700  1
  Dy  Dy2  1  0.66825800  0.66825800  0.00000000  1
  N  N0  1  0.10079600  0.35999100  0.37432400  1
  N  N1  1  0.64000900  0.74080500  0.70765800  1
  N  N2  1  0.25919500  0.89920400  0.04099100  1
  N  N3  1  0.07907900  0.00000000  0.33333300  1
  N  N4  1  0.00000000  0.07907900  0.66666700  1
  N  N5  1  0.92092100  0.92092100  0.00000000  1
  N  N6  1  0.25087600  0.58384600  0.72871900  1
  N  N7  1  0.41615400  0.66703000  0.06205200  1
  N  N8  1  0.33297000  0.74912400  0.39538500  1
  N  N9  1  0.45350900  0.45350900  0.50000000  1
  N  N10  1  0.54649100  0.00000000  0.83333300  1
  N  N11  1  0.00000000  0.54649100  0.16666700  1
  N  N12  1  0.58384600  0.25087600  0.27128100  1
  N  N13  1  0.74912400  0.33297000  0.60461500  1
  N  N14  1  0.66703000  0.41615400  0.93794800  1
  N  N15  1  0.35999100  0.10079600  0.62567600  1
  N  N16  1  0.89920400  0.25919500  0.95900900  1
  N  N17  1  0.74080500  0.64000900  0.29234200  1
  N  N18  1  0.72822700  0.00000000  0.33333300  1
  N  N19  1  0.00000000  0.72822700  0.66666700  1
  N  N20  1  0.27177300  0.27177300  0.00000000  1
  O  O0  1  0.33455700  0.15527200  0.52287900  1
  O  O1  1  0.84472800  0.17928500  0.85621200  1
  O  O2  1  0.82071500  0.66544300  0.18954500  1
  O  O3  1  0.37364800  0.14098600  0.74936500  1
  O  O4  1  0.85901400  0.23266200  0.08269900  1
  O  O5  1  0.76733800  0.62635200  0.41603200  1
  O  O6  1  0.57681700  0.13762400  0.30888900  1
  O  O7  1  0.86237600  0.43919300  0.64222200  1
  O  O8  1  0.56080700  0.42318300  0.97555500  1
  O  O9  1  0.00185100  0.37534700  0.92642200  1
  O  O10  1  0.62465300  0.62650400  0.25975500  1
  O  O11  1  0.37349600  0.99814900  0.59308900  1
  O  O12  1  0.47015900  0.24664400  0.25543400  1
  O  O13  1  0.75335600  0.22351500  0.58876700  1
  O  O14  1  0.77648500  0.52984100  0.92210100  1
  O  O15  1  0.08462900  0.17992200  0.73879700  1
  O  O16  1  0.82007800  0.90470800  0.07213000  1
  O  O17  1  0.09529200  0.91537100  0.40546400  1
  O  O18  1  0.14098600  0.37364800  0.25063500  1
  O  O19  1  0.62635200  0.76733800  0.58396800  1
  O  O20  1  0.23266200  0.85901400  0.91730100  1
  O  O21  1  0.15527200  0.33455700  0.47712100  1
  O  O22  1  0.66544300  0.82071500  0.81045500  1
  O  O23  1  0.17928500  0.84472800  0.14378800  1
  O  O24  1  0.64241500  0.33737500  0.58312900  1
  O  O25  1  0.66262500  0.30504000  0.91646300  1
  O  O26  1  0.69496000  0.35758500  0.24979600  1
  O  O27  1  0.13762400  0.57681700  0.69111100  1
  O  O28  1  0.42318300  0.56080700  0.02444500  1
  O  O29  1  0.43919300  0.86237600  0.35777800  1
  O  O30  1  0.02824400  0.02824400  0.00000000  1
  O  O31  1  0.97175600  0.00000000  0.33333300  1
  O  O32  1  0.00000000  0.97175600  0.66666700  1
  O  O33  1  0.99814900  0.37349600  0.40691100  1
  O  O34  1  0.62650400  0.62465300  0.74024500  1
  O  O35  1  0.37534700  0.00185100  0.07357800  1
  O  O36  1  0.33737500  0.64241500  0.41687100  1
  O  O37  1  0.35758500  0.69496000  0.75020400  1
  O  O38  1  0.30504000  0.66262500  0.08353700  1
  O  O39  1  0.17992200  0.08462900  0.26120300  1
  O  O40  1  0.91537100  0.09529200  0.59453600  1
  O  O41  1  0.90470800  0.82007800  0.92787000  1
  O  O42  1  0.24664400  0.47015900  0.74456600  1
  O  O43  1  0.52984100  0.77648500  0.07789900  1
  O  O44  1  0.22351500  0.75335600  0.41123300  1
loop_
_geom_bond_atom_site_label_1
_geom_bond_atom_site_label_2
_geom_bond_distance
_geom_bond_site_symmetry_2
Dy0 O6 2.412913 1_555
Dy0 O29 2.412914 1_545
Dy0 O39 2.439125 1_555
Dy0 O17 2.439137 1_545
Dy0 O23 2.492137 1_545
Dy0 O0 2.492144 1_555
Dy0 O35 2.495905 1_555
Dy0 O11 2.495914 1_545
Dy0 O12 2.526294 1_555
Dy0 O44 2.526297 1_545
Dy1 O27 2.412913 1_555
Dy1 O7 2.412914 1_455
Dy1 O15 2.439125 1_555
Dy1 O40 2.439137 1_455
Dy1 O1 2.492137 1_455
Dy1 O21 2.492144 1_555
Dy1 O9 2.495905 1_555
Dy1 O33 2.495914 1_455
Dy1 O42 2.526294 1_555
Dy1 O13 2.526297 1_455
Dy2 O28 2.412913 1_555
Dy2 O8 2.412913 1_554
Dy2 O41 2.439133 1_554
Dy2 O16 2.439133 1_555
Dy2 O22 2.492137 1_554
Dy2 O2 2.492137 1_555
Dy2 O34 2.495905 1_554
Dy2 O10 2.495905 1_555
Dy2 O43 2.526294 1_555
Dy2 O14 2.526294 1_554
N0 O18 1.232660 1_555
N0 O21 1.255536 1_555
N0 O33 1.279403 1_455
N1 O19 1.232669 1_555
N1 O22 1.255536 1_555
N1 O34 1.279403 1_555
N2 O20 1.232669 1_554
N2 O23 1.255536 1_555
N2 O35 1.279403 1_565
N3 O31 1.211492 1_455
N3 O17 1.258334 1_545
N3 O39 1.258335 1_555
N4 O32 1.211492 1_545
N4 O40 1.258334 1_455
N4 O15 1.258335 1_555
N5 O30 1.211492 1_665
N5 O16 1.258338 1_555
N5 O41 1.258338 1_554
N6 O37 1.246742 1_555
N6 O42 1.268949 1_555
N6 O27 1.290321 1_555
N7 O38 1.246742 1_555
N7 O43 1.268949 1_555
N7 O28 1.290318 1_555
N8 O36 1.246743 1_555
N8 O44 1.268951 1_555
N8 O29 1.290318 1_555
N12 O26 1.246742 1_555
N12 O12 1.268949 1_555
N12 O6 1.290321 1_555
N13 O24 1.246743 1_555
N13 O13 1.268951 1_555
N13 O7 1.290318 1_555
N14 O25 1.246742 1_555
N14 O14 1.268949 1_555
N14 O8 1.290318 1_555
N15 O3 1.232660 1_555
N15 O0 1.255536 1_555
N15 O11 1.279403 1_545
N16 O4 1.232669 1_556
N16 O1 1.255536 1_555
N16 O9 1.279403 1_655
N17 O5 1.232669 1_555
N17 O2 1.255536 1_555
N17 O10 1.279403 1_555
