# generated using pymatgen
data_K2BaLiCo(NO2)6
_symmetry_space_group_name_H-M   'P 1'
_cell_length_a   7.75180252
_cell_length_b   7.93029316
_cell_length_c   7.84490516
_cell_angle_alpha   122.95323028
_cell_angle_beta   118.16115582
_cell_angle_gamma   88.81405438
_symmetry_Int_Tables_number   1
_chemical_formula_structural   K2BaLiCo(NO2)6
_chemical_formula_sum   'K2 Ba1 Li1 Co1 N6 O12'
_cell_volume   338.12196457
_cell_formula_units_Z   1
loop_
 _symmetry_equiv_pos_site_id
 _symmetry_equiv_pos_as_xyz
  1  'x, y, z'
loop_
 _atom_site_type_symbol
 _atom_site_label
 _atom_site_symmetry_multiplicity
 _atom_site_fract_x
 _atom_site_fract_y
 _atom_site_fract_z
 _atom_site_occupancy
  K  K0  1  0.19486100  0.71576400  0.49173900  1
  K  K1  1  0.77053700  0.31193000  0.49002700  1
  Ba  Ba0  1  0.49801300  0.48782100  0.98080500  1
  Li  Li0  1  0.57413300  0.92301100  0.48277800  1
  Co  Co0  1  0.00560400  0.99741600  0.99805200  1
  N  N0  1  0.19772100  0.80864400  0.99868700  1
  N  N1  1  0.81324900  0.18688300  0.99567500  1
  N  N2  1  0.18848400  0.19628100  0.37852500  1
  N  N3  1  0.82361700  0.80200300  0.62363600  1
  N  N4  1  0.20170300  0.19574400  0.00221400  1
  N  N5  1  0.81140100  0.80877800  0.00451000  1
  O  O0  1  0.65921400  0.15304600  0.80183100  1
  O  O1  1  0.84389000  0.35145900  0.19126200  1
  O  O2  1  0.16902100  0.64612000  0.80323900  1
  O  O3  1  0.34850400  0.84200500  0.19246800  1
  O  O4  1  0.34633300  0.14391300  0.97019300  1
  O  O5  1  0.63643100  0.68769100  0.51337400  1
  O  O6  1  0.83361300  0.63534400  0.97072000  1
  O  O7  1  0.67131400  0.86369700  0.04236800  1
  O  O8  1  0.83888800  0.86644100  0.50883100  1
  O  O9  1  0.35827300  0.33808700  0.49819100  1
  O  O10  1  0.14896600  0.16753900  0.50240500  1
  O  O11  1  0.18230300  0.37038700  0.04180300  1
loop_
_geom_bond_atom_site_label_1
_geom_bond_atom_site_label_2
_geom_bond_distance
_geom_bond_site_symmetry_2
K0 O1 2.858004 1_455
K0 O2 2.872571 1_555
K0 O8 3.016407 1_455
K0 O4 3.022553 1_565
K0 O11 3.023123 1_555
K0 O9 3.244241 1_555
K0 O5 3.355032 1_555
K0 O6 3.374779 1_454
K1 O1 2.824812 1_555
K1 O2 2.948414 1_655
K1 O6 2.971034 1_555
K1 O5 3.074368 1_555
K1 O7 3.089149 1_545
K1 O10 3.104690 1_655
K1 O9 3.226686 1_555
K1 O4 3.291086 1_554
Ba0 O0 2.836309 1_555
Ba0 O10 2.861190 1_555
Ba0 O9 2.865108 1_555
Ba0 O2 2.904640 1_555
Ba0 O6 2.926381 1_555
Ba0 O3 2.932142 1_556
Ba0 O4 2.936133 1_555
Ba0 O1 2.954304 1_556
Ba0 O11 2.961458 1_556
Ba0 O7 2.985024 1_556
Ba0 O8 3.101976 1_556
Ba0 O5 3.123069 1_556
Li0 O3 1.831269 1_555
Li0 O0 1.884630 1_565
Li0 O5 2.028286 1_555
Li0 O8 2.029972 1_555
Co0 N3 2.060692 1_455
Co0 N0 2.089925 1_555
Co0 N2 2.093632 1_566
Co0 N1 2.095903 1_465
Co0 N5 2.180461 1_456
Co0 N4 2.186729 1_566
N0 O2 1.265532 1_555
N0 O3 1.282667 1_556
N1 O1 1.266610 1_556
N1 O0 1.290605 1_555
N2 O10 1.270875 1_555
N2 O9 1.274646 1_555
N3 O8 1.300047 1_555
N3 O5 1.300823 1_555
N4 O11 1.266780 1_555
N4 O4 1.274144 1_554
N5 O7 1.265404 1_555
N5 O6 1.276023 1_554
