# generated using pymatgen
data_KHgC3(NO)3
_symmetry_space_group_name_H-M   'P 1'
_cell_length_a   4.10312200
_cell_length_b   10.57210700
_cell_length_c   17.93094000
_cell_angle_alpha   90.00000000
_cell_angle_beta   90.00000000
_cell_angle_gamma   90.00000000
_symmetry_Int_Tables_number   1
_chemical_formula_structural   KHgC3(NO)3
_chemical_formula_sum   'K4 Hg4 C12 N12 O12'
_cell_volume   777.81987751
_cell_formula_units_Z   4
loop_
 _symmetry_equiv_pos_site_id
 _symmetry_equiv_pos_as_xyz
  1  'x, y, z'
loop_
 _atom_site_type_symbol
 _atom_site_label
 _atom_site_symmetry_multiplicity
 _atom_site_fract_x
 _atom_site_fract_y
 _atom_site_fract_z
 _atom_site_occupancy
  K  K0  1  0.75000000  0.91627600  0.66221000  1
  K  K1  1  0.25000000  0.08372400  0.33779000  1
  K  K2  1  0.75000000  0.41627600  0.83779000  1
  K  K3  1  0.25000000  0.58372400  0.16221000  1
  Hg  Hg0  1  0.75000000  0.34331000  0.46318000  1
  Hg  Hg1  1  0.25000000  0.65669000  0.53682000  1
  Hg  Hg2  1  0.75000000  0.84331000  0.03682000  1
  Hg  Hg3  1  0.25000000  0.15669000  0.96318000  1
  C  C0  1  0.25000000  0.12256100  0.53310600  1
  C  C1  1  0.75000000  0.37743900  0.03310600  1
  C  C2  1  0.25000000  0.62256100  0.96689400  1
  C  C3  1  0.75000000  0.87743900  0.46689400  1
  C  C4  1  0.25000000  0.62417200  0.37251300  1
  C  C5  1  0.75000000  0.37582800  0.62748700  1
  C  C6  1  0.25000000  0.12417200  0.12748700  1
  C  C7  1  0.75000000  0.87582800  0.87251300  1
  C  C8  1  0.25000000  0.12639600  0.79914100  1
  C  C9  1  0.75000000  0.87360400  0.20085900  1
  C  C10  1  0.25000000  0.62639600  0.70085900  1
  C  C11  1  0.75000000  0.37360400  0.29914100  1
  N  N0  1  0.25000000  0.20630500  0.84770900  1
  N  N1  1  0.75000000  0.79369500  0.15229100  1
  N  N2  1  0.25000000  0.70630500  0.65229100  1
  N  N3  1  0.75000000  0.29369500  0.34770900  1
  N  N4  1  0.75000000  0.79416800  0.51289800  1
  N  N5  1  0.25000000  0.20583200  0.48710200  1
  N  N6  1  0.75000000  0.93348200  0.93108500  1
  N  N7  1  0.25000000  0.06651800  0.06891500  1
  N  N8  1  0.75000000  0.29416800  0.98710200  1
  N  N9  1  0.25000000  0.70583200  0.01289800  1
  N  N10  1  0.75000000  0.43348200  0.56891500  1
  N  N11  1  0.25000000  0.56651800  0.43108500  1
  O  O0  1  0.25000000  0.05250300  0.74841000  1
  O  O1  1  0.75000000  0.94749700  0.25159000  1
  O  O2  1  0.75000000  0.44749700  0.24841000  1
  O  O3  1  0.75000000  0.82596300  0.81244800  1
  O  O4  1  0.75000000  0.46221000  0.07862200  1
  O  O5  1  0.25000000  0.53779000  0.92137800  1
  O  O6  1  0.75000000  0.96221000  0.42137800  1
  O  O7  1  0.25000000  0.03779000  0.57862200  1
  O  O8  1  0.25000000  0.17403700  0.18755200  1
  O  O9  1  0.75000000  0.32596300  0.68755200  1
  O  O10  1  0.25000000  0.67403700  0.31244800  1
  O  O11  1  0.25000000  0.55250300  0.75159000  1
loop_
_geom_bond_atom_site_label_1
_geom_bond_atom_site_label_2
_geom_bond_distance
_geom_bond_site_symmetry_2
K0 O7 2.847049 1_665
K0 O7 2.847049 1_565
K0 O3 2.858108 1_555
K0 O0 2.944847 1_665
K0 O0 2.944847 1_565
K0 N4 2.972286 1_555
K0 N2 3.027905 1_655
K0 N2 3.027905 1_555
K1 O6 2.847049 1_445
K1 O6 2.847049 1_545
K1 O8 2.858108 1_555
K1 O1 2.944847 1_445
K1 O1 2.944847 1_545
K1 N5 2.972286 1_555
K1 N3 3.027905 1_455
K1 N3 3.027905 1_555
K2 O5 2.847049 1_655
K2 O5 2.847049 1_555
K2 O9 2.858108 1_555
K2 O11 2.944847 1_655
K2 O11 2.944847 1_555
K2 N8 2.972286 1_555
K2 N0 3.027905 1_655
K2 N0 3.027905 1_555
K3 O4 2.847049 1_455
K3 O4 2.847049 1_555
K3 O10 2.858108 1_555
K3 O2 2.944847 1_455
K3 O2 2.944847 1_555
K3 N9 2.972286 1_555
K3 N1 3.027905 1_555
K3 N1 3.027905 1_455
Hg0 N10 2.122107 1_555
Hg0 N3 2.135912 1_555
Hg0 N5 2.550561 1_555
Hg0 N5 2.550561 1_655
Hg1 N11 2.122107 1_555
Hg1 N2 2.135912 1_555
Hg1 N4 2.550561 1_555
Hg1 N4 2.550561 1_455
Hg2 N6 2.122107 1_554
Hg2 N1 2.135912 1_555
Hg2 N9 2.550561 1_655
Hg2 N9 2.550561 1_555
Hg3 N7 2.122107 1_556
Hg3 N0 2.135912 1_555
Hg3 N8 2.550561 1_555
Hg3 N8 2.550561 1_455
C0 N5 1.206428 1_555
C0 O7 1.212139 1_555
C1 N8 1.206428 1_554
C1 O4 1.212139 1_555
C2 N9 1.206428 1_556
C2 O5 1.212139 1_555
C3 N4 1.206428 1_555
C3 O6 1.212139 1_555
C4 O10 1.199122 1_555
C4 N11 1.214309 1_555
C5 O9 1.199122 1_555
C5 N10 1.214309 1_555
C6 O8 1.199122 1_555
C6 N7 1.214309 1_555
C7 O3 1.199122 1_555
C7 N6 1.214309 1_555
C8 O0 1.199063 1_555
C8 N0 1.213306 1_555
C9 O1 1.199063 1_555
C9 N1 1.213306 1_555
C10 O11 1.199063 1_555
C10 N2 1.213306 1_555
C11 O2 1.199063 1_555
C11 N3 1.213306 1_555
