# generated using pymatgen
data_Pr5Mg41
_symmetry_space_group_name_H-M   'P 1'
_cell_length_a   11.66140461
_cell_length_b   11.66140461
_cell_length_c   11.66140461
_cell_angle_alpha   101.64925990
_cell_angle_beta   101.64925990
_cell_angle_gamma   126.59536526
_symmetry_Int_Tables_number   1
_chemical_formula_structural   Pr5Mg41
_chemical_formula_sum   'Pr5 Mg41'
_cell_volume   1137.41434808
_cell_formula_units_Z   1
loop_
 _symmetry_equiv_pos_site_id
 _symmetry_equiv_pos_as_xyz
  1  'x, y, z'
loop_
 _atom_site_type_symbol
 _atom_site_label
 _atom_site_symmetry_multiplicity
 _atom_site_fract_x
 _atom_site_fract_y
 _atom_site_fract_z
 _atom_site_occupancy
  Pr  Pr0  1  0.00000000  0.00000000  0.00000000  1
  Pr  Pr1  1  0.76375400  0.42927500  0.19302900  1
  Pr  Pr2  1  0.23624600  0.57072500  0.80697100  1
  Pr  Pr3  1  0.42927500  0.23624600  0.66552100  1
  Pr  Pr4  1  0.57072500  0.76375400  0.33447900  1
  Mg  Mg0  1  0.50000000  0.50000000  0.00000000  1
  Mg  Mg1  1  0.50000000  0.00000000  0.00000000  1
  Mg  Mg2  1  0.00000000  0.50000000  0.00000000  1
  Mg  Mg3  1  0.00000000  0.00000000  0.50000000  1
  Mg  Mg4  1  0.50000000  0.50000000  0.50000000  1
  Mg  Mg5  1  0.00956200  0.40258300  0.41214500  1
  Mg  Mg6  1  0.99043800  0.59741700  0.58785500  1
  Mg  Mg7  1  0.40258300  0.99043800  0.39302200  1
  Mg  Mg8  1  0.59741700  0.00956200  0.60697800  1
  Mg  Mg9  1  0.87795100  0.22143500  0.09938600  1
  Mg  Mg10  1  0.12204900  0.77856500  0.90061400  1
  Mg  Mg11  1  0.22143500  0.12204900  0.34348300  1
  Mg  Mg12  1  0.77856500  0.87795100  0.65651700  1
  Mg  Mg13  1  0.65906900  0.21720400  0.87627300  1
  Mg  Mg14  1  0.34093100  0.78279600  0.12372700  1
  Mg  Mg15  1  0.21720400  0.34093100  0.55813500  1
  Mg  Mg16  1  0.78279600  0.65906900  0.44186500  1
  Mg  Mg17  1  0.62653700  0.91406600  0.83432200  1
  Mg  Mg18  1  0.07974400  0.79221500  0.16567800  1
  Mg  Mg19  1  0.91406600  0.07974400  0.28752900  1
  Mg  Mg20  1  0.79221500  0.62653700  0.71247100  1
  Mg  Mg21  1  0.37346300  0.08593400  0.16567800  1
  Mg  Mg22  1  0.92025600  0.20778500  0.83432200  1
  Mg  Mg23  1  0.08593400  0.92025600  0.71247100  1
  Mg  Mg24  1  0.20778500  0.37346300  0.28752900  1
  Mg  Mg25  1  0.38655400  0.17383300  0.94076100  1
  Mg  Mg26  1  0.23307200  0.44579300  0.05923900  1
  Mg  Mg27  1  0.17383300  0.23307200  0.78727900  1
  Mg  Mg28  1  0.44579300  0.38655400  0.21272100  1
  Mg  Mg29  1  0.61344600  0.82616700  0.05923900  1
  Mg  Mg30  1  0.76692800  0.55420700  0.94076100  1
  Mg  Mg31  1  0.82616700  0.76692800  0.21272100  1
  Mg  Mg32  1  0.55420700  0.61344600  0.78727900  1
  Mg  Mg33  1  0.66499100  0.10843300  0.29030500  1
  Mg  Mg34  1  0.81812800  0.37468600  0.70969500  1
  Mg  Mg35  1  0.10843300  0.81812800  0.44344100  1
  Mg  Mg36  1  0.37468600  0.66499100  0.55655900  1
  Mg  Mg37  1  0.33500900  0.89156700  0.70969500  1
  Mg  Mg38  1  0.18187200  0.62531400  0.29030500  1
  Mg  Mg39  1  0.89156700  0.18187200  0.55655900  1
  Mg  Mg40  1  0.62531400  0.33500900  0.44344100  1
loop_
_geom_bond_atom_site_label_1
_geom_bond_atom_site_label_2
_geom_bond_distance
_geom_bond_site_symmetry_2
Mg0 Mg29 3.043797 1_555
Mg0 Mg31 3.043797 1_555
Mg0 Mg28 3.043797 1_555
Mg0 Mg27 3.043797 1_554
Mg0 Mg25 3.043797 1_554
Mg0 Mg26 3.043797 1_555
Mg0 Mg30 3.043797 1_554
Mg0 Mg32 3.043797 1_554
Mg1 Mg14 2.982097 1_545
Mg1 Mg13 2.982097 1_554
Mg1 Mg17 3.007810 1_544
Mg1 Mg21 3.007810 1_555
Mg1 Mg33 3.082456 1_555
Mg1 Mg37 3.082456 1_544
Mg1 Mg25 3.119402 1_554
Mg1 Mg29 3.119402 1_545
Mg1 Mg10 3.255055 1_544
Mg1 Mg9 3.255055 1_555
Mg1 Pr2 3.725847 1_544
Mg1 Pr1 3.725847 1_555
Mg2 Mg22 3.007810 1_454
Mg2 Mg38 3.082456 1_555
Mg2 Mg34 3.082456 1_454
Mg2 Mg30 3.119402 1_454
Mg2 Mg26 3.119402 1_555
Mg2 Mg9 3.255055 1_455
Mg2 Pr1 3.725847 1_455
Mg2 Pr2 3.725847 1_554
Mg3 Mg39 3.082458 1_455
Mg3 Mg35 3.082458 1_545
Mg3 Mg31 3.119402 1_445
Mg3 Pr4 3.725847 1_445
Mg3 Pr3 3.725847 1_555
Mg4 Mg40 3.082458 1_555
Mg4 Pr4 3.725847 1_555
Mg4 Pr3 3.725847 1_555
Mg5 Mg6 2.884270 1_455
Mg5 Mg9 3.298862 1_455
Mg5 Pr1 3.642760 1_455
Mg6 Pr2 3.642760 1_655
Mg7 Mg8 2.884254 1_565
Mg7 Pr3 3.642752 1_565
Mg8 Pr4 3.642752 1_545
Mg9 Pr1 3.493861 1_555
Mg9 Pr0 3.725113 1_655
Mg10 Mg20 3.105118 1_455
Mg10 Mg23 3.105118 1_555
Mg10 Mg21 3.214633 1_566
Mg10 Mg18 3.214633 1_556
Mg10 Mg14 3.225375 1_556
Mg10 Mg2 3.255055 1_556
Mg10 Mg6 3.298862 1_455
Mg10 Pr2 3.493861 1_555
Mg10 Mg34 3.518003 1_455
Mg10 Mg37 3.518003 1_555
Mg10 Mg30 3.545856 1_455
Mg10 Mg25 3.545856 1_565
Mg10 Pr0 3.725113 1_566
Mg11 Mg21 3.105109 1_555
Mg11 Mg18 3.105115 1_545
Mg11 Mg24 3.214629 1_555
Mg11 Mg19 3.214634 1_455
Mg11 Mg15 3.225382 1_555
Mg11 Mg4 3.255056 1_555
Mg11 Mg3 3.255064 1_555
Mg11 Mg7 3.298865 1_545
Mg11 Pr3 3.493871 1_555
Mg11 Mg35 3.518003 1_545
Mg11 Mg40 3.518003 1_555
Mg11 Mg28 3.545847 1_555
Mg11 Mg31 3.545856 1_445
Mg11 Pr0 3.725103 1_555
Mg12 Mg17 3.105109 1_555
Mg12 Mg22 3.105115 1_565
Mg12 Mg20 3.214629 1_555
Mg12 Mg23 3.214634 1_655
Mg12 Mg16 3.225382 1_555
Mg12 Mg4 3.255056 1_555
Mg12 Mg3 3.255064 1_665
Mg12 Mg8 3.298865 1_565
Mg12 Pr4 3.493871 1_555
Mg12 Mg36 3.518003 1_555
Mg12 Mg39 3.518003 1_565
Mg12 Mg32 3.545847 1_555
Mg12 Mg27 3.545856 1_665
Mg12 Pr0 3.725103 1_666
Mg13 Mg2 2.982097 1_656
Mg13 Mg37 3.069326 1_545
Mg13 Mg34 3.069326 1_555
Mg13 Mg30 3.181628 1_555
Mg13 Mg25 3.181628 1_555
Mg13 Mg8 3.191182 1_555
Mg13 Mg9 3.225375 1_556
Mg13 Mg22 3.241489 1_555
Mg13 Mg17 3.241489 1_545
Mg13 Pr3 3.397142 1_555
Mg13 Pr1 3.484363 1_556
Mg14 Mg2 2.982097 1_555
Mg14 Mg38 3.069326 1_555
Mg14 Mg33 3.069326 1_565
Mg14 Mg26 3.181628 1_555
Mg14 Mg29 3.181628 1_555
Mg14 Mg7 3.191182 1_555
Mg14 Mg21 3.241489 1_565
Mg14 Mg18 3.241489 1_555
Mg14 Pr4 3.397142 1_555
Mg14 Pr2 3.484363 1_554
Mg15 Mg3 2.982097 1_555
Mg15 Mg4 2.982097 1_555
Mg15 Mg36 3.069321 1_555
Mg15 Mg39 3.069330 1_455
Mg15 Mg27 3.181628 1_555
Mg15 Mg32 3.181628 1_555
Mg15 Mg5 3.191173 1_555
Mg15 Mg24 3.241489 1_555
Mg15 Mg19 3.241489 1_455
Mg15 Pr2 3.397142 1_555
Mg15 Pr3 3.484363 1_555
Mg16 Mg4 2.982097 1_555
Mg16 Mg3 2.982097 1_665
Mg16 Mg40 3.069321 1_555
Mg16 Mg35 3.069330 1_655
Mg16 Mg31 3.181628 1_555
Mg16 Mg28 3.181628 1_555
Mg16 Mg6 3.191173 1_555
Mg16 Mg23 3.241489 1_655
Mg16 Mg20 3.241489 1_555
Mg16 Pr1 3.397142 1_555
Mg16 Pr4 3.484363 1_555
Mg17 Mg32 2.968651 1_555
Mg17 Mg29 3.002359 1_556
Mg17 Mg22 3.078241 1_565
Mg17 Mg8 3.108643 1_565
Mg17 Mg36 3.121159 1_555
Mg17 Mg9 3.214633 1_566
Mg17 Mg37 3.244331 1_555
Mg17 Pr2 3.744030 1_555
Mg17 Pr0 3.784230 1_666
Mg18 Mg31 2.968651 1_455
Mg18 Mg30 3.002359 1_454
Mg18 Mg2 3.007810 1_555
Mg18 Mg21 3.078241 1_565
Mg18 Mg7 3.108638 1_555
Mg18 Mg35 3.121155 1_555
Mg18 Mg38 3.244331 1_555
Mg18 Pr1 3.744030 1_455
Mg18 Pr0 3.784230 1_565
Mg19 Mg29 2.968651 1_545
Mg19 Mg31 3.002359 1_545
Mg19 Mg3 3.007810 1_655
Mg19 Mg24 3.078241 1_655
Mg19 Mg9 3.105118 1_555
Mg19 Mg5 3.108633 1_655
Mg19 Mg33 3.121167 1_555
Mg19 Mg39 3.244342 1_555
Mg19 Pr4 3.744030 1_545
Mg19 Pr0 3.784230 1_655
Mg20 Mg30 2.968651 1_555
Mg20 Mg32 3.002359 1_555
Mg20 Mg4 3.007810 1_555
Mg20 Mg23 3.078241 1_655
Mg20 Mg6 3.108633 1_555
Mg20 Mg34 3.121167 1_555
Mg20 Mg40 3.244338 1_555
Mg20 Pr3 3.744030 1_555
Mg20 Pr0 3.784230 1_666
Mg21 Mg28 2.968651 1_555
Mg21 Mg25 3.002359 1_554
Mg21 Mg7 3.108643 1_545
Mg21 Mg40 3.121159 1_555
Mg21 Mg33 3.244331 1_555
Mg21 Pr1 3.744030 1_555
Mg21 Pr0 3.784230 1_555
Mg22 Mg27 2.968651 1_655
Mg22 Mg26 3.002359 1_656
Mg22 Mg8 3.108638 1_555
Mg22 Mg39 3.121155 1_555
Mg22 Mg9 3.214633 1_556
Mg22 Mg34 3.244331 1_555
Mg22 Pr2 3.744030 1_655
Mg22 Pr0 3.784230 1_656
Mg23 Mg25 2.968651 1_565
Mg23 Mg27 3.002359 1_565
Mg23 Mg3 3.007810 1_565
Mg23 Mg6 3.108633 1_455
Mg23 Mg37 3.121167 1_555
Mg23 Mg35 3.244342 1_555
Mg23 Pr3 3.744030 1_565
Mg23 Pr0 3.784230 1_566
Mg24 Mg26 2.968651 1_555
Mg24 Mg28 3.002359 1_555
Mg24 Mg4 3.007810 1_555
Mg24 Mg9 3.105118 1_455
Mg24 Mg5 3.108633 1_555
Mg24 Mg38 3.121167 1_555
Mg24 Mg36 3.244338 1_555
Mg24 Pr4 3.744030 1_555
Mg24 Pr0 3.784230 1_555
Mg25 Mg28 3.253259 1_556
Mg25 Mg27 3.253259 1_555
Mg25 Mg37 3.444081 1_545
Mg25 Pr3 3.498117 1_555
Mg25 Pr1 3.533913 1_556
Mg25 Pr0 3.979230 1_556
Mg26 Mg28 3.253259 1_555
Mg26 Mg27 3.253259 1_554
Mg26 Mg38 3.444081 1_555
Mg26 Pr4 3.498117 1_555
Mg26 Pr2 3.533913 1_554
Mg26 Mg9 3.545856 1_455
Mg26 Pr0 3.979230 1_555
Mg27 Mg3 3.119402 1_555
Mg27 Mg39 3.444074 1_455
Mg27 Pr2 3.498117 1_555
Mg27 Pr3 3.533913 1_555
Mg27 Pr0 3.979230 1_556
Mg28 Mg4 3.119402 1_555
Mg28 Mg40 3.444073 1_555
Mg28 Pr1 3.498117 1_555
Mg28 Pr4 3.533913 1_555
Mg28 Pr0 3.979230 1_555
Mg29 Mg31 3.253259 1_555
Mg29 Mg32 3.253259 1_554
Mg29 Mg33 3.444081 1_565
Mg29 Pr4 3.498117 1_555
Mg29 Pr2 3.533913 1_554
Mg29 Mg9 3.545856 1_565
Mg29 Pr0 3.979230 1_665
Mg30 Mg31 3.253259 1_556
Mg30 Mg32 3.253259 1_555
Mg30 Mg34 3.444081 1_555
Mg30 Pr3 3.498117 1_555
Mg30 Pr1 3.533913 1_556
Mg30 Pr0 3.979230 1_666
Mg31 Mg35 3.444074 1_655
Mg31 Pr1 3.498117 1_555
Mg31 Pr4 3.533913 1_555
Mg31 Pr0 3.979230 1_665
Mg32 Mg4 3.119402 1_555
Mg32 Mg36 3.444073 1_555
Mg32 Pr2 3.498117 1_555
Mg32 Pr3 3.533913 1_555
Mg32 Pr0 3.979230 1_666
Mg33 Mg5 3.036953 1_655
Mg33 Mg7 3.133286 1_545
Mg33 Mg40 3.204703 1_555
Mg33 Mg39 3.204717 1_555
Mg33 Mg9 3.518003 1_555
Mg33 Pr4 3.664191 1_545
Mg33 Pr1 3.703458 1_555
Mg34 Mg6 3.036953 1_555
Mg34 Mg8 3.133278 1_555
Mg34 Mg39 3.204703 1_555
Mg34 Mg40 3.204717 1_555
Mg34 Pr3 3.664191 1_555
Mg34 Pr2 3.703458 1_655
Mg35 Mg7 3.036940 1_555
Mg35 Mg6 3.133288 1_455
Mg35 Mg38 3.204703 1_555
Mg35 Mg37 3.204717 1_555
Mg35 Pr1 3.664187 1_455
Mg35 Pr3 3.703461 1_565
Mg36 Mg8 3.036959 1_565
Mg36 Mg4 3.082458 1_555
Mg36 Mg5 3.133279 1_555
Mg36 Mg37 3.204703 1_555
Mg36 Mg38 3.204717 1_555
Mg36 Pr2 3.664180 1_555
Mg36 Pr4 3.703469 1_555
Mg37 Mg6 3.036953 1_455
Mg37 Mg8 3.133286 1_565
Mg37 Pr3 3.664191 1_565
Mg37 Pr2 3.703458 1_555
Mg38 Mg5 3.036953 1_555
Mg38 Mg7 3.133278 1_555
Mg38 Mg9 3.518003 1_455
Mg38 Pr4 3.664191 1_555
Mg38 Pr1 3.703458 1_455
Mg39 Mg8 3.036940 1_555
Mg39 Mg5 3.133288 1_655
Mg39 Pr2 3.664187 1_655
Mg39 Pr4 3.703461 1_545
Mg40 Mg7 3.036959 1_545
Mg40 Mg6 3.133279 1_555
Mg40 Pr1 3.664180 1_555
Mg40 Pr3 3.703469 1_555
