# generated using pymatgen
data_NaV4Cd3O12
_symmetry_space_group_name_H-M   'P 1'
_cell_length_a   7.64675600
_cell_length_b   5.34815700
_cell_length_c   5.38745333
_cell_angle_alpha   89.54172062
_cell_angle_beta   90.00000000
_cell_angle_gamma   90.00000000
_symmetry_Int_Tables_number   1
_chemical_formula_structural   NaV4Cd3O12
_chemical_formula_sum   'Na1 V4 Cd3 O12'
_cell_volume   220.31852191
_cell_formula_units_Z   1
loop_
 _symmetry_equiv_pos_site_id
 _symmetry_equiv_pos_as_xyz
  1  'x, y, z'
loop_
 _atom_site_type_symbol
 _atom_site_label
 _atom_site_symmetry_multiplicity
 _atom_site_fract_x
 _atom_site_fract_y
 _atom_site_fract_z
 _atom_site_occupancy
  Na  Na0  1  0.50000000  0.49356800  0.53401100  1
  V  V0  1  0.25533700  0.00085800  0.50247900  1
  V  V1  1  0.74677600  0.49850900  0.00348200  1
  V  V2  1  0.74466300  0.00085800  0.50247900  1
  V  V3  1  0.25322400  0.49850900  0.00348200  1
  Cd  Cd0  1  0.50000000  0.00576300  0.03325900  1
  Cd  Cd1  1  0.00000000  0.50566800  0.46887100  1
  Cd  Cd2  1  0.00000000  0.99297100  0.96582400  1
  O  O0  1  0.29369100  0.19394400  0.78711900  1
  O  O1  1  0.71215800  0.29376500  0.28506300  1
  O  O2  1  0.79157400  0.80308100  0.21227500  1
  O  O3  1  0.20807100  0.70141000  0.70701300  1
  O  O4  1  0.20842600  0.80308100  0.21227500  1
  O  O5  1  0.79192900  0.70141000  0.70701300  1
  O  O6  1  0.70630900  0.19394400  0.78711900  1
  O  O7  1  0.28784200  0.29376500  0.28506300  1
  O  O8  1  0.50000000  0.58848800  0.97838300  1
  O  O9  1  0.50000000  0.93084500  0.47867900  1
  O  O10  1  0.00000000  0.41482100  0.02302000  1
  O  O11  1  0.00000000  0.08474200  0.52309200  1
loop_
_geom_bond_atom_site_label_1
_geom_bond_atom_site_label_2
_geom_bond_distance
_geom_bond_site_symmetry_2
Na0 O9 2.355182 1_555
Na0 O1 2.365484 1_555
Na0 O7 2.365484 1_555
Na0 O8 2.451233 1_555
Na0 O6 2.623181 1_555
Na0 O0 2.623181 1_555
Na0 O5 2.665346 1_555
Na0 O3 2.665346 1_555
Cd0 O8 2.253493 1_544
Cd0 O6 2.288842 1_554
Cd0 O0 2.288842 1_554
Cd0 O9 2.429737 1_545
Cd0 O1 2.622618 1_555
Cd0 O7 2.622618 1_555
Cd0 O4 2.656975 1_545
Cd0 O2 2.656975 1_545
Cd1 O11 2.267733 1_555
Cd1 O3 2.301072 1_555
Cd1 O5 2.301072 1_455
Cd1 O10 2.454454 1_555
Cd1 O4 2.635534 1_555
Cd1 O2 2.635534 1_455
Cd1 O7 2.669750 1_555
Cd1 O1 2.669750 1_455
Cd2 O10 2.279506 1_566
Cd2 O4 2.304960 1_556
Cd2 O2 2.304960 1_456
Cd2 O11 2.431323 1_565
Cd2 O3 2.634749 1_555
Cd2 O5 2.634749 1_455
Cd2 O0 2.666304 1_565
Cd2 O6 2.666304 1_465
O0 V0 1.878642 1_555
O0 V3 2.034219 1_556
O1 V1 1.882508 1_555
O1 V2 1.964275 1_555
O2 V2 1.928305 1_565
O2 V1 2.016255 1_555
O3 V3 1.954513 1_556
O3 V0 1.970130 1_565
O4 V0 1.928305 1_565
O4 V3 2.016255 1_555
O5 V1 1.954513 1_556
O5 V2 1.970130 1_565
O6 V2 1.878642 1_555
O6 V1 2.034219 1_556
O7 V3 1.882508 1_555
O7 V0 1.964275 1_555
O8 V1 1.951851 1_556
O8 V3 1.951851 1_556
O9 V2 1.912485 1_565
O9 V0 1.912485 1_565
O10 V3 1.989993 1_555
O10 V1 1.989993 1_455
O11 V0 2.006651 1_555
O11 V2 2.006651 1_455
