# generated using pymatgen
data_Na4ZrC8O19
_symmetry_space_group_name_H-M   'P 1'
_cell_length_a   10.70034583
_cell_length_b   10.70034583
_cell_length_c   12.27366200
_cell_angle_alpha   90.00000000
_cell_angle_beta   90.00000000
_cell_angle_gamma   137.93351781
_symmetry_Int_Tables_number   1
_chemical_formula_structural   Na4ZrC8O19
_chemical_formula_sum   'Na8 Zr2 C16 O38'
_cell_volume   941.54199854
_cell_formula_units_Z   2
loop_
 _symmetry_equiv_pos_site_id
 _symmetry_equiv_pos_as_xyz
  1  'x, y, z'
loop_
 _atom_site_type_symbol
 _atom_site_label
 _atom_site_symmetry_multiplicity
 _atom_site_fract_x
 _atom_site_fract_y
 _atom_site_fract_z
 _atom_site_occupancy
  Na  Na0  1  0.44375500  0.92028300  0.84180600  1
  Na  Na1  1  0.92028300  0.44375500  0.15819400  1
  Na  Na2  1  0.55624500  0.07971700  0.34180600  1
  Na  Na3  1  0.07971700  0.55624500  0.65819400  1
  Na  Na4  1  0.36864600  0.36864600  0.50000000  1
  Na  Na5  1  0.63135400  0.63135400  0.00000000  1
  Na  Na6  1  0.92549000  0.07451000  0.75000000  1
  Na  Na7  1  0.07451000  0.92549000  0.25000000  1
  Zr  Zr0  1  0.10948200  0.89051800  0.75000000  1
  Zr  Zr1  1  0.89051800  0.10948200  0.25000000  1
  C  C0  1  0.32635700  0.28014800  0.84092100  1
  C  C1  1  0.28014800  0.32635700  0.15907900  1
  C  C2  1  0.67364300  0.71985200  0.34092100  1
  C  C3  1  0.71985200  0.67364300  0.65907900  1
  C  C4  1  0.27611100  0.01927100  0.51628200  1
  C  C5  1  0.01927100  0.27611100  0.48371800  1
  C  C6  1  0.72388900  0.98072900  0.01628200  1
  C  C7  1  0.98072900  0.72388900  0.98371800  1
  C  C8  1  0.46045700  0.26624900  0.85990900  1
  C  C9  1  0.26624900  0.46045700  0.14009100  1
  C  C10  1  0.53954300  0.73375100  0.35990900  1
  C  C11  1  0.73375100  0.53954300  0.64009100  1
  C  C12  1  0.35358900  0.95380700  0.56527100  1
  C  C13  1  0.95380700  0.35358900  0.43472900  1
  C  C14  1  0.64641100  0.04619300  0.06527100  1
  C  C15  1  0.04619300  0.64641100  0.93472900  1
  O  O0  1  0.17694700  0.13803100  0.78763200  1
  O  O1  1  0.13803100  0.17694700  0.21236800  1
  O  O2  1  0.82305300  0.86196900  0.28763200  1
  O  O3  1  0.86196900  0.82305300  0.71236800  1
  O  O4  1  0.18191400  0.01664900  0.58466300  1
  O  O5  1  0.01664900  0.18191400  0.41533700  1
  O  O6  1  0.81808600  0.98335100  0.08466300  1
  O  O7  1  0.98335100  0.81808600  0.91533700  1
  O  O8  1  0.38964800  0.10823200  0.82736800  1
  O  O9  1  0.10823200  0.38964800  0.17263200  1
  O  O10  1  0.61035200  0.89176800  0.32736800  1
  O  O11  1  0.89176800  0.61035200  0.67263200  1
  O  O12  1  0.28587000  0.87869700  0.66160000  1
  O  O13  1  0.87869700  0.28587000  0.33840000  1
  O  O14  1  0.71413000  0.12130300  0.16160000  1
  O  O15  1  0.12130300  0.71413000  0.83840000  1
  O  O16  1  0.36660300  0.41525900  0.87432100  1
  O  O17  1  0.41525900  0.36660300  0.12567900  1
  O  O18  1  0.63339700  0.58474100  0.37432100  1
  O  O19  1  0.58474100  0.63339700  0.62567900  1
  O  O20  1  0.30743900  0.06984700  0.41927700  1
  O  O21  1  0.06984700  0.30743900  0.58072300  1
  O  O22  1  0.69256100  0.93015300  0.91927700  1
  O  O23  1  0.93015300  0.69256100  0.08072300  1
  O  O24  1  0.61504100  0.39969800  0.90052400  1
  O  O25  1  0.39969800  0.61504100  0.09947600  1
  O  O26  1  0.38495900  0.60030200  0.40052400  1
  O  O27  1  0.60030200  0.38495900  0.59947600  1
  O  O28  1  0.46536200  0.97048100  0.51523400  1
  O  O29  1  0.97048100  0.46536200  0.48476600  1
  O  O30  1  0.53463800  0.02951900  0.01523400  1
  O  O31  1  0.02951900  0.53463800  0.98476600  1
  O  O32  1  0.78258700  0.21741300  0.75000000  1
  O  O33  1  0.21741300  0.78258700  0.25000000  1
  O  O34  1  0.68714700  0.05178000  0.70968500  1
  O  O35  1  0.05178000  0.68714700  0.29031500  1
  O  O36  1  0.31285300  0.94822000  0.20968500  1
  O  O37  1  0.94822000  0.31285300  0.79031500  1
loop_
_geom_bond_atom_site_label_1
_geom_bond_atom_site_label_2
_geom_bond_distance
_geom_bond_site_symmetry_2
Na0 O30 2.270504 1_566
Na0 O15 2.339259 1_555
Na0 O34 2.439544 1_565
Na0 O8 2.477898 1_565
Na0 O12 2.613043 1_555
Na0 O32 2.721833 1_565
Na0 O22 2.754216 1_555
Na1 O31 2.270504 1_654
Na1 O14 2.339259 1_555
Na1 O35 2.439544 1_655
Na1 O9 2.477898 1_655
Na1 O13 2.613043 1_555
Na1 O33 2.721833 1_655
Na1 O23 2.754216 1_555
Na2 O28 2.270504 1_545
Na2 O13 2.339259 1_555
Na2 O36 2.439544 1_545
Na2 O10 2.477898 1_545
Na2 O14 2.613043 1_555
Na2 O33 2.721833 1_545
Na2 O20 2.754216 1_555
Na3 O29 2.270504 1_455
Na3 O12 2.339259 1_555
Na3 O37 2.439544 1_455
Na3 O11 2.477898 1_455
Na3 O15 2.613043 1_555
Na3 O32 2.721833 1_455
Na3 O21 2.754216 1_555
Na4 O19 2.454743 1_555
Na4 O18 2.454743 1_555
Na4 O26 2.650127 1_555
Na4 O27 2.650127 1_555
Na4 O5 2.843374 1_555
Na4 O4 2.843374 1_555
Na4 O20 2.919581 1_555
Na4 O21 2.919581 1_555
Na5 O16 2.454743 1_554
Na5 O17 2.454743 1_555
Na5 O25 2.650127 1_555
Na5 O24 2.650127 1_554
Na5 O6 2.843374 1_555
Na5 O7 2.843374 1_554
Na5 O23 2.919581 1_555
Na5 O22 2.919581 1_554
Na6 O0 2.280288 1_655
Na6 O3 2.280288 1_545
Na6 O34 2.426380 1_555
Na6 O37 2.426380 1_555
Na6 O21 2.683022 1_655
Na6 O22 2.683022 1_545
Na7 O1 2.280288 1_565
Na7 O2 2.280288 1_455
Na7 O35 2.426380 1_555
Na7 O36 2.426380 1_555
Na7 O23 2.683022 1_455
Na7 O20 2.683022 1_565
C0 O16 1.232582 1_555
C0 O0 1.298686 1_555
C1 O17 1.232582 1_555
C1 O1 1.298686 1_555
C2 O18 1.232582 1_555
C2 O2 1.298686 1_555
C3 O19 1.232582 1_555
C3 O3 1.298686 1_555
C4 O20 1.246371 1_555
C4 O4 1.295818 1_555
C5 O21 1.246371 1_555
C5 O5 1.295818 1_555
C6 O22 1.246371 1_554
C6 O6 1.295818 1_555
C7 O23 1.246371 1_556
C7 O7 1.295818 1_555
C8 O24 1.231537 1_555
C8 O8 1.300158 1_555
C9 O25 1.231537 1_555
C9 O9 1.300158 1_555
C10 O26 1.231537 1_555
C10 O10 1.300158 1_555
C11 O27 1.231537 1_555
C11 O11 1.300158 1_555
C12 O28 1.233941 1_555
C12 O12 1.305446 1_555
C13 O29 1.233941 1_555
C13 O13 1.305446 1_555
C14 O30 1.233941 1_555
C14 O14 1.305446 1_555
C15 O31 1.233941 1_555
C15 O15 1.305446 1_555
O0 Zr0 2.215892 1_545
O1 Zr1 2.215892 1_455
O2 Zr1 2.215892 1_565
O3 Zr0 2.215892 1_655
O4 Zr0 2.233197 1_545
O5 Zr1 2.233197 1_455
O6 Zr1 2.233197 1_565
O7 Zr0 2.233197 1_655
O8 Zr0 2.224148 1_545
O9 Zr1 2.224148 1_455
O10 Zr1 2.224148 1_565
O11 Zr0 2.224148 1_655
O12 Zr0 2.260529 1_555
O13 Zr1 2.260529 1_555
O14 Zr1 2.260529 1_555
O15 Zr0 2.260529 1_555
O32 O37 1.319693 1_555
O32 O34 1.319693 1_555
O33 O36 1.319693 1_555
O33 O35 1.319693 1_555
