# generated using pymatgen
data_Sr3Cr2S2O5
_symmetry_space_group_name_H-M   'P 1'
_cell_length_a   4.02065700
_cell_length_b   4.02065700
_cell_length_c   11.73205249
_cell_angle_alpha   99.86652742
_cell_angle_beta   99.86652742
_cell_angle_gamma   90.00000000
_symmetry_Int_Tables_number   1
_chemical_formula_structural   Sr3Cr2S2O5
_chemical_formula_sum   'Sr3 Cr2 S2 O5'
_cell_volume   184.00368493
_cell_formula_units_Z   1
loop_
 _symmetry_equiv_pos_site_id
 _symmetry_equiv_pos_as_xyz
  1  'x, y, z'
loop_
 _atom_site_type_symbol
 _atom_site_label
 _atom_site_symmetry_multiplicity
 _atom_site_fract_x
 _atom_site_fract_y
 _atom_site_fract_z
 _atom_site_occupancy
  Sr  Sr0  1  0.50000000  0.50000000  0.00000000  1
  Sr  Sr1  1  0.66141900  0.66141900  0.32283700  1
  Sr  Sr2  1  0.33858100  0.33858100  0.67716300  1
  Cr  Cr0  1  0.08432500  0.08432500  0.16865000  1
  Cr  Cr1  1  0.91567500  0.91567500  0.83135000  1
  S  S0  1  0.19394700  0.19394700  0.38789300  1
  S  S1  1  0.80605300  0.80605300  0.61210700  1
  O  O0  1  0.08501600  0.58501600  0.17003300  1
  O  O1  1  0.58501600  0.08501600  0.17003300  1
  O  O2  1  0.91498400  0.41498400  0.82996700  1
  O  O3  1  0.41498400  0.91498400  0.82996700  1
  O  O4  1  0.00000000  0.00000000  0.00000000  1
loop_
_geom_bond_atom_site_label_1
_geom_bond_atom_site_label_2
_geom_bond_distance
_geom_bond_site_symmetry_2
Cr0 O4 1.919636 1_555
Cr0 O0 2.010388 1_555
Cr0 O1 2.010388 1_555
Cr0 O1 2.010392 1_455
Cr0 O0 2.010392 1_545
Cr0 S0 2.495504 1_555
Cr1 O4 1.919636 1_666
Cr1 O2 2.010388 1_555
Cr1 O3 2.010388 1_555
Cr1 O3 2.010392 1_655
Cr1 O2 2.010392 1_565
Cr1 S1 2.495504 1_555
S0 Sr1 2.937885 1_445
S0 Sr1 2.937885 1_545
S0 Sr1 2.937885 1_455
S0 Sr1 2.937885 1_555
S0 Sr2 3.292576 1_555
S1 Sr2 2.937885 1_665
S1 Sr2 2.937885 1_655
S1 Sr2 2.937885 1_565
S1 Sr2 2.937885 1_555
S1 Sr1 3.292576 1_555
O0 Sr1 2.658283 1_455
O0 Sr1 2.658289 1_555
O0 Sr0 2.790537 1_455
O0 Sr0 2.790540 1_555
O1 Sr1 2.658283 1_545
O1 Sr1 2.658289 1_555
O1 Sr0 2.790537 1_545
O1 Sr0 2.790540 1_555
O2 Sr2 2.658283 1_655
O2 Sr2 2.658289 1_555
O2 Sr0 2.790537 1_656
O2 Sr0 2.790540 1_556
O3 Sr2 2.658283 1_565
O3 Sr2 2.658289 1_555
O3 Sr0 2.790537 1_566
O3 Sr0 2.790540 1_556
O4 Sr0 2.843034 1_455
O4 Sr0 2.843034 1_555
O4 Sr0 2.843034 1_445
O4 Sr0 2.843034 1_545
