# generated using pymatgen
data_MgH30C2(SO9)2
_symmetry_space_group_name_H-M   'P 1'
_cell_length_a   8.97935041
_cell_length_b   8.97935041
_cell_length_c   8.97935015
_cell_angle_alpha   63.26554358
_cell_angle_beta   63.26554358
_cell_angle_gamma   63.26554761
_symmetry_Int_Tables_number   1
_chemical_formula_structural   MgH30C2(SO9)2
_chemical_formula_sum   'Mg1 H30 C2 S2 O18'
_cell_volume   548.97798138
_cell_formula_units_Z   1
loop_
 _symmetry_equiv_pos_site_id
 _symmetry_equiv_pos_as_xyz
  1  'x, y, z'
loop_
 _atom_site_type_symbol
 _atom_site_label
 _atom_site_symmetry_multiplicity
 _atom_site_fract_x
 _atom_site_fract_y
 _atom_site_fract_z
 _atom_site_occupancy
  Mg  Mg0  1  0.00000000  0.00000000  0.00000000  1
  H  H0  1  0.12348600  0.07668800  0.64275000  1
  H  H1  1  0.64275000  0.12348600  0.07668800  1
  H  H2  1  0.07668800  0.64275000  0.12348600  1
  H  H3  1  0.87651400  0.92331200  0.35725000  1
  H  H4  1  0.35725000  0.87651400  0.92331200  1
  H  H5  1  0.92331200  0.35725000  0.87651400  1
  H  H6  1  0.11800600  0.88029700  0.71928500  1
  H  H7  1  0.71928500  0.11800600  0.88029700  1
  H  H8  1  0.88029700  0.71928500  0.11800600  1
  H  H9  1  0.88199400  0.11970300  0.28071500  1
  H  H10  1  0.28071500  0.88199400  0.11970300  1
  H  H11  1  0.11970300  0.28071500  0.88199400  1
  H  H12  1  0.27564200  0.49560700  0.40441600  1
  H  H13  1  0.40441600  0.27564200  0.49560700  1
  H  H14  1  0.49560700  0.40441600  0.27564200  1
  H  H15  1  0.72435800  0.50439300  0.59558400  1
  H  H16  1  0.59558400  0.72435800  0.50439300  1
  H  H17  1  0.50439300  0.59558400  0.72435800  1
  H  H18  1  0.05784500  0.71875600  0.61399700  1
  H  H19  1  0.61399700  0.05784500  0.71875600  1
  H  H20  1  0.71875600  0.61399700  0.05784500  1
  H  H21  1  0.94215500  0.28124400  0.38600300  1
  H  H22  1  0.38600300  0.94215500  0.28124400  1
  H  H23  1  0.28124400  0.38600300  0.94215500  1
  H  H24  1  0.21166000  0.59321800  0.69781500  1
  H  H25  1  0.69781500  0.21166000  0.59321800  1
  H  H26  1  0.59321800  0.69781500  0.21166000  1
  H  H27  1  0.78834000  0.40678200  0.30218500  1
  H  H28  1  0.30218500  0.78834000  0.40678200  1
  H  H29  1  0.40678200  0.30218500  0.78834000  1
  C  C0  1  0.37591700  0.37591700  0.37591700  1
  C  C1  1  0.62408300  0.62408300  0.62408300  1
  S  S0  1  0.29300200  0.29300200  0.29300200  1
  S  S1  1  0.70699800  0.70699800  0.70699800  1
  O  O0  1  0.10690300  0.97733500  0.75115300  1
  O  O1  1  0.75115300  0.10690300  0.97733500  1
  O  O2  1  0.97733500  0.75115300  0.10690300  1
  O  O3  1  0.89309700  0.02266500  0.24884700  1
  O  O4  1  0.24884700  0.89309700  0.02266500  1
  O  O5  1  0.02266500  0.24884700  0.89309700  1
  O  O6  1  0.13154500  0.25678900  0.43141300  1
  O  O7  1  0.43141300  0.13154500  0.25678900  1
  O  O8  1  0.25678900  0.43141300  0.13154500  1
  O  O9  1  0.86845500  0.74321100  0.56858700  1
  O  O10  1  0.56858700  0.86845500  0.74321100  1
  O  O11  1  0.74321100  0.56858700  0.86845500  1
  O  O12  1  0.16447100  0.71536800  0.62458900  1
  O  O13  1  0.62458900  0.16447100  0.71536800  1
  O  O14  1  0.71536800  0.62458900  0.16447100  1
  O  O15  1  0.83552900  0.28463200  0.37541100  1
  O  O16  1  0.37541100  0.83552900  0.28463200  1
  O  O17  1  0.28463200  0.37541100  0.83552900  1
loop_
_geom_bond_atom_site_label_1
_geom_bond_atom_site_label_2
_geom_bond_distance
_geom_bond_site_symmetry_2
Mg0 O3 2.063819 1_455
Mg0 O0 2.063819 1_544
Mg0 O5 2.063819 1_554
Mg0 O2 2.063819 1_445
Mg0 O4 2.063820 1_545
Mg0 O1 2.063820 1_454
H0 O0 0.986591 1_545
H1 O1 0.986591 1_554
H2 O2 0.986591 1_455
H3 O3 0.986591 1_565
H4 O4 0.986591 1_556
H5 O5 0.986591 1_655
H6 O0 0.985677 1_555
H7 O1 0.985677 1_555
H8 O2 0.985677 1_555
H9 O3 0.985677 1_555
H10 O4 0.985677 1_555
H11 O5 0.985677 1_555
H18 O12 0.989832 1_555
H19 O13 0.989832 1_555
H20 O14 0.989832 1_555
H21 O15 0.989832 1_555
H22 O16 0.989832 1_555
H23 O17 0.989832 1_555
H24 O12 0.999285 1_555
H25 O13 0.999285 1_555
H26 O14 0.999285 1_555
H27 O15 0.999285 1_555
H28 O16 0.999285 1_555
H29 O17 0.999285 1_555
C0 H14 1.095794 1_555
C0 H13 1.095794 1_555
C0 H12 1.095794 1_555
C1 H17 1.095794 1_555
C1 H16 1.095794 1_555
C1 H15 1.095794 1_555
O6 S0 1.480421 1_555
O7 S0 1.480421 1_555
O8 S0 1.480421 1_555
O9 S1 1.480421 1_555
O10 S1 1.480421 1_555
O11 S1 1.480421 1_555
