# generated using pymatgen
data_Mo3Pt
_symmetry_space_group_name_H-M   'P 1'
_cell_length_a   4.99117629
_cell_length_b   4.99117629
_cell_length_c   4.99117629
_cell_angle_alpha   90.00000000
_cell_angle_beta   90.00000000
_cell_angle_gamma   90.00000000
_symmetry_Int_Tables_number   1
_chemical_formula_structural   Mo3Pt
_chemical_formula_sum   'Mo6 Pt2'
_cell_volume   124.33938893
_cell_formula_units_Z   2
loop_
 _symmetry_equiv_pos_site_id
 _symmetry_equiv_pos_as_xyz
  1  'x, y, z'
loop_
 _atom_site_type_symbol
 _atom_site_label
 _atom_site_symmetry_multiplicity
 _atom_site_fract_x
 _atom_site_fract_y
 _atom_site_fract_z
 _atom_site_occupancy
  Mo  Mo0  1  0.25000000  -0.00000000  0.50000000  1
  Mo  Mo1  1  0.75000000  -0.00000000  0.50000000  1
  Mo  Mo2  1  0.00000000  0.50000000  0.25000000  1
  Mo  Mo3  1  0.00000000  0.50000000  0.75000000  1
  Mo  Mo4  1  0.50000000  0.75000000  -0.00000000  1
  Mo  Mo5  1  0.50000000  0.25000000  -0.00000000  1
  Pt  Pt0  1  0.00000000  -0.00000000  -0.00000000  1
  Pt  Pt1  1  0.50000000  0.50000000  0.50000000  1
loop_
_geom_bond_atom_site_label_1
_geom_bond_atom_site_label_2
_geom_bond_distance
_geom_bond_site_symmetry_2
Mo0 Mo1 2.495588 1_555
Mo0 Mo1 2.495588 1_455
Mo0 Pt1 2.790152 1_555
Mo0 Pt1 2.790152 1_545
Mo0 Pt0 2.790152 1_556
Mo0 Pt0 2.790152 1_555
Mo1 Pt0 2.790152 1_656
Mo1 Pt0 2.790152 1_655
Mo1 Pt1 2.790152 1_555
Mo1 Pt1 2.790152 1_545
Mo2 Mo3 2.495588 1_554
Mo2 Mo3 2.495588 1_555
Mo2 Pt1 2.790152 1_455
Mo2 Pt1 2.790152 1_555
Mo2 Pt0 2.790152 1_555
Mo2 Pt0 2.790152 1_565
Mo3 Pt1 2.790152 1_455
Mo3 Pt1 2.790152 1_555
Mo3 Pt0 2.790152 1_556
Mo3 Pt0 2.790152 1_566
Mo4 Mo5 2.495588 1_565
Mo4 Mo5 2.495588 1_555
Mo4 Pt0 2.790152 1_665
Mo4 Pt1 2.790152 1_555
Mo4 Pt1 2.790152 1_554
Mo4 Pt0 2.790152 1_565
Mo5 Pt0 2.790152 1_655
Mo5 Pt1 2.790152 1_555
Mo5 Pt1 2.790152 1_554
Mo5 Pt0 2.790152 1_555
