# generated using pymatgen
data_Lu(FeO2)2
_symmetry_space_group_name_H-M   'P 1'
_cell_length_a   6.02878712
_cell_length_b   6.02878712
_cell_length_c   16.98519055
_cell_angle_alpha   86.46767783
_cell_angle_beta   86.46767783
_cell_angle_gamma   120.13928842
_symmetry_Int_Tables_number   1
_chemical_formula_structural   Lu(FeO2)2
_chemical_formula_sum   'Lu6 Fe12 O24'
_cell_volume   529.80138616
_cell_formula_units_Z   6
loop_
 _symmetry_equiv_pos_site_id
 _symmetry_equiv_pos_as_xyz
  1  'x, y, z'
loop_
 _atom_site_type_symbol
 _atom_site_label
 _atom_site_symmetry_multiplicity
 _atom_site_fract_x
 _atom_site_fract_y
 _atom_site_fract_z
 _atom_site_occupancy
  Lu  Lu0  1  0.74200000  0.74200000  0.75486700  1
  Lu  Lu1  1  0.25800000  0.25800000  0.24513300  1
  Lu  Lu2  1  0.92252800  0.58698000  0.25214200  1
  Lu  Lu3  1  0.58698000  0.92252800  0.25214200  1
  Lu  Lu4  1  0.07747200  0.41302000  0.74785800  1
  Lu  Lu5  1  0.41302000  0.07747200  0.74785800  1
  Fe  Fe0  1  0.64609100  0.64609100  0.07099800  1
  Fe  Fe1  1  0.35390900  0.35390900  0.92900200  1
  Fe  Fe2  1  0.80589900  0.47262500  0.57154600  1
  Fe  Fe3  1  0.47262500  0.80589900  0.57154600  1
  Fe  Fe4  1  0.19410100  0.52737500  0.42845400  1
  Fe  Fe5  1  0.52737500  0.19410100  0.42845400  1
  Fe  Fe6  1  0.02344100  0.68857400  0.92817300  1
  Fe  Fe7  1  0.68857400  0.02344100  0.92817300  1
  Fe  Fe8  1  0.97655900  0.31142600  0.07182700  1
  Fe  Fe9  1  0.31142600  0.97655900  0.07182700  1
  Fe  Fe10  1  0.86559000  0.86559000  0.42831300  1
  Fe  Fe11  1  0.13441000  0.13441000  0.57168700  1
  O  O0  1  0.81979100  0.81979100  0.55681700  1
  O  O1  1  0.18020900  0.18020900  0.44318300  1
  O  O2  1  0.67782300  0.67782300  0.93803400  1
  O  O3  1  0.32217700  0.32217700  0.06196600  1
  O  O4  1  0.96661600  0.64492400  0.05536800  1
  O  O5  1  0.64492400  0.96661600  0.05536800  1
  O  O6  1  0.03338400  0.35507600  0.94463200  1
  O  O7  1  0.35507600  0.03338400  0.94463200  1
  O  O8  1  0.85578200  0.53518700  0.44184300  1
  O  O9  1  0.53518700  0.85578200  0.44184300  1
  O  O10  1  0.14421800  0.46481300  0.55815700  1
  O  O11  1  0.46481300  0.14421800  0.55815700  1
  O  O12  1  0.90558000  0.90558000  0.31082900  1
  O  O13  1  0.09442000  0.09442000  0.68917100  1
  O  O14  1  0.61699100  0.61699100  0.18879100  1
  O  O15  1  0.38300900  0.38300900  0.81120900  1
  O  O16  1  0.06199000  0.72414300  0.80983100  1
  O  O17  1  0.72414300  0.06199000  0.80983100  1
  O  O18  1  0.93801000  0.27585700  0.19016900  1
  O  O19  1  0.27585700  0.93801000  0.19016900  1
  O  O20  1  0.76627700  0.43734100  0.69087800  1
  O  O21  1  0.43734100  0.76627700  0.69087800  1
  O  O22  1  0.23372300  0.56265900  0.30912200  1
  O  O23  1  0.56265900  0.23372300  0.30912200  1
loop_
_geom_bond_atom_site_label_1
_geom_bond_atom_site_label_2
_geom_bond_distance
_geom_bond_site_symmetry_2
Lu0 O16 2.241177 1_655
Lu0 O17 2.241177 1_565
Lu0 O15 2.251616 1_555
Lu0 O21 2.252242 1_555
Lu0 O20 2.252242 1_555
Lu0 O13 2.270698 1_665
Lu1 O19 2.241177 1_545
Lu1 O18 2.241177 1_455
Lu1 O14 2.251616 1_555
Lu1 O23 2.252242 1_555
Lu1 O22 2.252242 1_555
Lu1 O12 2.270698 1_445
Lu2 O22 2.227224 1_655
Lu2 O23 2.242021 1_555
Lu2 O18 2.245429 1_555
Lu2 O19 2.246428 1_655
Lu2 O12 2.261392 1_555
Lu2 O14 2.266832 1_555
Lu3 O23 2.227224 1_565
Lu3 O22 2.242021 1_555
Lu3 O19 2.245429 1_555
Lu3 O18 2.246428 1_565
Lu3 O12 2.261392 1_555
Lu3 O14 2.266832 1_555
Lu4 O20 2.227224 1_455
Lu4 O21 2.242021 1_555
Lu4 O16 2.245429 1_555
Lu4 O17 2.246428 1_455
Lu4 O13 2.261392 1_555
Lu4 O15 2.266832 1_555
Lu5 O21 2.227224 1_545
Lu5 O20 2.242021 1_555
Lu5 O17 2.245429 1_555
Lu5 O16 2.246428 1_545
Lu5 O13 2.261392 1_555
Lu5 O15 2.266832 1_555
Fe0 O4 1.937854 1_555
Fe0 O5 1.937854 1_555
Fe0 O3 1.973520 1_555
Fe0 O14 1.986729 1_555
Fe0 O2 2.242860 1_554
Fe1 O6 1.937854 1_555
Fe1 O7 1.937854 1_555
Fe1 O2 1.973520 1_555
Fe1 O15 1.986729 1_555
Fe1 O3 2.242860 1_556
Fe2 O20 2.011647 1_555
Fe2 O0 2.051116 1_555
Fe2 O11 2.055448 1_555
Fe2 O10 2.062704 1_655
Fe2 O8 2.188175 1_555
Fe3 O21 2.011647 1_555
Fe3 O0 2.051116 1_555
Fe3 O10 2.055448 1_555
Fe3 O11 2.062704 1_565
Fe3 O9 2.188175 1_555
Fe4 O22 2.011647 1_555
Fe4 O1 2.051116 1_555
Fe4 O9 2.055448 1_555
Fe4 O8 2.062704 1_455
Fe4 O10 2.188175 1_555
Fe5 O23 2.011647 1_555
Fe5 O1 2.051116 1_555
Fe5 O8 2.055448 1_555
Fe5 O9 2.062704 1_545
Fe5 O11 2.188175 1_555
Fe6 O16 1.994898 1_555
Fe6 O6 2.044027 1_555
Fe6 O2 2.047906 1_455
Fe6 O7 2.088946 1_565
Fe6 O4 2.145295 1_456
Fe7 O17 1.994898 1_555
Fe7 O7 2.044027 1_555
Fe7 O2 2.047906 1_545
Fe7 O6 2.088946 1_655
Fe7 O5 2.145295 1_546
Fe8 O18 1.994898 1_555
Fe8 O4 2.044027 1_555
Fe8 O3 2.047906 1_655
Fe8 O5 2.088946 1_545
Fe8 O6 2.145295 1_654
Fe9 O19 1.994898 1_555
Fe9 O5 2.044027 1_555
Fe9 O3 2.047906 1_565
Fe9 O4 2.088946 1_455
Fe9 O7 2.145295 1_564
Fe10 O1 1.940221 1_665
Fe10 O8 1.961563 1_555
Fe10 O9 1.961563 1_555
Fe10 O12 1.980225 1_555
Fe10 O0 2.165969 1_555
Fe11 O0 1.940221 1_445
Fe11 O10 1.961563 1_555
Fe11 O11 1.961563 1_555
Fe11 O13 1.980225 1_555
Fe11 O1 2.165969 1_555
