# generated using pymatgen
data_CsTl3O5
_symmetry_space_group_name_H-M   'P 1'
_cell_length_a   3.52364642
_cell_length_b   10.26332711
_cell_length_c   17.34012571
_cell_angle_alpha   90.00152751
_cell_angle_beta   89.99999891
_cell_angle_gamma   89.99999814
_symmetry_Int_Tables_number   1
_chemical_formula_structural   CsTl3O5
_chemical_formula_sum   'Cs4 Tl12 O20'
_cell_volume   627.09412937
_cell_formula_units_Z   4
loop_
 _symmetry_equiv_pos_site_id
 _symmetry_equiv_pos_as_xyz
  1  'x, y, z'
loop_
 _atom_site_type_symbol
 _atom_site_label
 _atom_site_symmetry_multiplicity
 _atom_site_fract_x
 _atom_site_fract_y
 _atom_site_fract_z
 _atom_site_occupancy
  Cs  Cs0  1  0.75000081  0.47639176  0.37586544  1
  Cs  Cs1  1  0.25000161  0.52356149  0.62413197  1
  Cs  Cs2  1  0.25000057  0.02363990  0.87605069  1
  Cs  Cs3  1  0.74999976  -0.02358248  0.12398553  1
  Tl  Tl0  1  0.74999987  0.82767895  0.31865986  1
  Tl  Tl1  1  0.24999993  0.17228977  0.68134020  1
  Tl  Tl2  1  0.24999993  0.67239564  0.81872069  1
  Tl  Tl3  1  0.74999992  0.32760940  0.18127569  1
  Tl  Tl4  1  0.74999993  0.64804634  0.98784696  1
  Tl  Tl5  1  0.24999990  0.35206650  0.01214085  1
  Tl  Tl6  1  0.24999995  0.85191959  0.48784214  1
  Tl  Tl7  1  0.74999992  0.14802954  0.51216933  1
  Tl  Tl8  1  0.74999997  0.87830031  0.66036050  1
  Tl  Tl9  1  0.24999995  0.12163982  0.33964234  1
  Tl  Tl10  1  0.24999996  0.62166023  0.16034936  1
  Tl  Tl11  1  0.74999993  0.37835233  0.83963880  1
  O  O0  1  0.74999992  0.98009144  0.42507103  1
  O  O1  1  0.24999986  0.01986184  0.57493386  1
  O  O2  1  0.24999986  0.51997333  0.92507655  1
  O  O3  1  0.74999986  0.48008050  0.07492663  1
  O  O4  1  0.74999992  0.76465818  0.55340857  1
  O  O5  1  0.24999994  0.23531078  0.44660546  1
  O  O6  1  0.24999991  0.73532258  0.05341658  1
  O  O7  1  0.74999990  0.26472727  0.94659726  1
  O  O8  1  0.74999990  0.71522988  0.21131937  1
  O  O9  1  0.24999993  0.28478786  0.78866523  1
  O  O10  1  0.24999993  0.78475497  0.71132611  1
  O  O11  1  0.74999992  0.21521540  0.28865856  1
  O  O12  1  0.74999995  0.76924202  0.88380087  1
  O  O13  1  0.24999978  0.23080478  0.11618711  1
  O  O14  1  0.24999995  0.73085961  0.38377387  1
  O  O15  1  0.74999995  0.26909471  0.61620927  1
  O  O16  1  0.74999995  0.55305696  0.77157923  1
  O  O17  1  0.24999992  0.44694575  0.22841764  1
  O  O18  1  0.24999986  0.94705441  0.27152599  1
  O  O19  1  0.74999988  0.05292963  0.72848245  1
loop_
_geom_bond_atom_site_label_1
_geom_bond_atom_site_label_2
_geom_bond_distance
_geom_bond_site_symmetry_2
Cs0 O11 3.077621 1_555
Cs0 O17 3.119670 1_655
Cs0 O17 3.119674 1_555
Cs0 O14 3.153364 1_655
Cs0 O14 3.153367 1_555
Cs0 O5 3.275812 1_655
Cs0 O5 3.275816 1_555
Cs1 O10 3.077666 1_555
Cs1 O16 3.119710 1_555
Cs1 O16 3.119717 1_455
Cs1 O15 3.153364 1_555
Cs1 O15 3.153371 1_455
Cs1 O4 3.275825 1_555
Cs1 O4 3.275831 1_455
Cs2 O9 3.078961 1_555
Cs2 O19 3.121241 1_555
Cs2 O19 3.121243 1_455
Cs2 O12 3.152658 1_545
Cs2 O12 3.152660 1_445
Cs2 O7 3.274558 1_555
Cs2 O7 3.274561 1_455
Cs3 O8 3.078875 1_545
Cs3 O18 3.120919 1_545
Cs3 O18 3.120920 1_645
Cs3 O13 3.152604 1_555
Cs3 O13 3.152604 1_655
Cs3 O6 3.274763 1_545
Cs3 O6 3.274763 1_645
O0 Tl7 2.291651 1_565
O0 Tl0 2.418978 1_555
O0 Tl6 2.453426 1_555
O0 Tl6 2.453426 1_655
O0 Tl9 2.721951 1_565
O0 Tl9 2.721952 1_665
O1 Tl6 2.291608 1_545
O1 Tl1 2.419016 1_555
O1 Tl7 2.453353 1_455
O1 Tl7 2.453353 1_555
O1 Tl8 2.722004 1_445
O1 Tl8 2.722004 1_545
O2 Tl5 2.291081 1_556
O2 Tl2 2.418375 1_555
O2 Tl4 2.452846 1_455
O2 Tl4 2.452846 1_555
O2 Tl11 2.722393 1_455
O2 Tl11 2.722393 1_555
O3 Tl4 2.291713 1_554
O3 Tl3 2.418609 1_555
O3 Tl5 2.452640 1_555
O3 Tl5 2.452640 1_655
O3 Tl10 2.722025 1_555
O3 Tl10 2.722025 1_655
O4 Tl8 2.190808 1_555
O4 Tl6 2.280081 1_555
O4 Tl6 2.280081 1_655
O5 Tl9 2.191130 1_555
O5 Tl7 2.280139 1_555
O5 Tl7 2.280139 1_455
O6 Tl10 2.190690 1_555
O6 Tl4 2.280145 1_454
O6 Tl4 2.280145 1_554
O7 Tl11 2.190864 1_555
O7 Tl5 2.280174 1_556
O7 Tl5 2.280174 1_656
O8 Tl0 2.190038 1_555
O8 Tl10 2.192571 1_555
O8 Tl10 2.192572 1_655
O9 Tl1 2.190075 1_555
O9 Tl11 2.192573 1_455
O9 Tl11 2.192573 1_555
O10 Tl2 2.190402 1_555
O10 Tl8 2.192452 1_455
O10 Tl8 2.192452 1_555
O11 Tl3 2.190417 1_555
O11 Tl9 2.192715 1_555
O11 Tl9 2.192715 1_655
O12 Tl4 2.191432 1_555
O12 Tl2 2.316342 1_655
O12 Tl2 2.316342 1_555
O13 Tl5 2.191819 1_555
O13 Tl3 2.316228 1_455
O13 Tl3 2.316229 1_555
O14 Tl6 2.190903 1_555
O14 Tl0 2.316534 1_555
O14 Tl0 2.316534 1_455
O15 Tl7 2.190529 1_555
O15 Tl1 2.316614 1_655
O15 Tl1 2.316614 1_555
O16 Tl11 2.146608 1_555
O16 Tl2 2.296157 1_655
O16 Tl2 2.296157 1_555
O17 Tl10 2.146775 1_555
O17 Tl3 2.296147 1_555
O17 Tl3 2.296148 1_455
O18 Tl9 2.146075 1_565
O18 Tl0 2.296335 1_455
O18 Tl0 2.296335 1_555
O19 Tl8 2.146505 1_545
O19 Tl1 2.296303 1_555
O19 Tl1 2.296303 1_655
