# generated using pymatgen
data_YFe(WO4)2
_symmetry_space_group_name_H-M   'P 1'
_cell_length_a   5.23184132
_cell_length_b   5.85307739
_cell_length_c   10.04767936
_cell_angle_alpha   89.67946671
_cell_angle_beta   93.72360202
_cell_angle_gamma   91.10928325
_symmetry_Int_Tables_number   1
_chemical_formula_structural   YFe(WO4)2
_chemical_formula_sum   'Y2 Fe2 W4 O16'
_cell_volume   306.97379864
_cell_formula_units_Z   2
loop_
 _symmetry_equiv_pos_site_id
 _symmetry_equiv_pos_as_xyz
  1  'x, y, z'
loop_
 _atom_site_type_symbol
 _atom_site_label
 _atom_site_symmetry_multiplicity
 _atom_site_fract_x
 _atom_site_fract_y
 _atom_site_fract_z
 _atom_site_occupancy
  Y  Y0  1  0.25146500  0.67252400  0.25947100  1
  Y  Y1  1  0.74690300  0.32096000  0.74052200  1
  Fe  Fe0  1  0.25019200  0.68915600  0.73724500  1
  Fe  Fe1  1  0.74449000  0.31263500  0.26361400  1
  W  W0  1  0.25987200  0.16498200  0.49577300  1
  W  W1  1  0.74673000  0.83673900  0.50441800  1
  W  W2  1  0.24854800  0.16789900  0.00541000  1
  W  W3  1  0.74590200  0.83114400  0.99476600  1
  O  O0  1  0.40466000  0.36281500  0.12876700  1
  O  O1  1  0.58907000  0.63926100  0.86864300  1
  O  O2  1  0.10108900  0.36320800  0.35699700  1
  O  O3  1  0.90407600  0.63281400  0.64348200  1
  O  O4  1  0.45615000  0.91429400  0.61618900  1
  O  O5  1  0.55751800  0.09245700  0.38538200  1
  O  O6  1  0.04325300  0.90220700  0.89407400  1
  O  O7  1  0.94918200  0.09683700  0.10596300  1
  O  O8  1  0.88003800  0.62438800  0.11748400  1
  O  O9  1  0.11201200  0.37275300  0.88312300  1
  O  O10  1  0.62523900  0.61732600  0.37734600  1
  O  O11  1  0.38053300  0.38728200  0.62061700  1
  O  O12  1  0.44079400  0.88741700  0.09719500  1
  O  O13  1  0.55342900  0.11096400  0.90282700  1
  O  O14  1  0.07844200  0.88621500  0.40516400  1
  O  O15  1  0.93041200  0.11372200  0.59552600  1
loop_
_geom_bond_atom_site_label_1
_geom_bond_atom_site_label_2
_geom_bond_distance
_geom_bond_site_symmetry_2
Fe0 O3 2.008521 1_455
Fe0 O4 2.115265 1_555
Fe0 O1 2.164119 1_555
Fe0 O11 2.265778 1_555
Fe0 O6 2.346506 1_555
Fe0 O9 2.481147 1_555
Fe1 O2 2.050139 1_655
Fe1 O5 2.050269 1_555
Fe1 O0 2.187682 1_555
Fe1 O10 2.243668 1_555
Fe1 O7 2.355095 1_555
Fe1 O8 2.458347 1_555
O0 W2 1.831158 1_555
O0 Y0 2.423375 1_555
O1 W3 1.840031 1_555
O1 Y1 2.456513 1_555
O2 W0 1.961963 1_555
O2 Y0 2.209537 1_555
O3 W1 1.981079 1_555
O3 Y1 2.232647 1_555
O4 W1 2.008152 1_555
O4 W0 2.132706 1_565
O5 W0 2.022537 1_555
O5 W1 2.129374 1_545
O6 W3 1.947161 1_455
O6 W2 2.149921 1_566
O7 W2 1.955110 1_655
O7 W3 2.144495 1_544
O8 W3 1.838787 1_554
O8 Y0 2.348213 1_655
O9 W2 1.833118 1_556
O9 Y1 2.328223 1_455
O10 W1 1.888064 1_555
O10 Y0 2.247343 1_555
O11 W0 1.883768 1_555
O11 Y1 2.236038 1_555
O12 W3 1.988295 1_554
O12 W2 2.117492 1_565
O12 Y0 2.315233 1_555
O13 W2 1.988898 1_556
O13 W3 2.115633 1_545
O13 Y1 2.310546 1_555
O14 W0 2.058282 1_565
O14 W1 2.071801 1_455
O14 Y0 2.182474 1_555
O15 W1 2.057141 1_545
O15 W0 2.065595 1_655
O15 Y1 2.182227 1_555
