# generated using pymatgen
data_Sr2YNbO6
_symmetry_space_group_name_H-M   'P 1'
_cell_length_a   8.36970220
_cell_length_b   8.36970220
_cell_length_c   8.36970220
_cell_angle_alpha   90.00000000
_cell_angle_beta   90.00000000
_cell_angle_gamma   90.00000000
_symmetry_Int_Tables_number   1
_chemical_formula_structural   Sr2YNbO6
_chemical_formula_sum   'Sr8 Y4 Nb4 O24'
_cell_volume   586.31366639
_cell_formula_units_Z   4
loop_
 _symmetry_equiv_pos_site_id
 _symmetry_equiv_pos_as_xyz
  1  'x, y, z'
loop_
 _atom_site_type_symbol
 _atom_site_label
 _atom_site_symmetry_multiplicity
 _atom_site_fract_x
 _atom_site_fract_y
 _atom_site_fract_z
 _atom_site_occupancy
  Sr  Sr0  1  0.50000000  0.50000000  0.50000000  1
  Sr  Sr1  1  -0.00000000  0.00000000  0.00000000  1
  Sr  Sr2  1  -0.00000000  0.00000000  0.50000000  1
  Sr  Sr3  1  -0.00000000  0.50000000  0.00000000  1
  Sr  Sr4  1  0.50000000  0.00000000  0.00000000  1
  Sr  Sr5  1  0.50000000  0.50000000  0.00000000  1
  Sr  Sr6  1  0.50000000  0.00000000  0.50000000  1
  Sr  Sr7  1  -0.00000000  0.50000000  0.50000000  1
  Y  Y0  1  0.25000000  0.25000000  0.25000000  1
  Y  Y1  1  0.25000000  0.75000000  0.75000000  1
  Y  Y2  1  0.75000000  0.25000000  0.75000000  1
  Y  Y3  1  0.75000000  0.75000000  0.25000000  1
  Nb  Nb0  1  0.75000000  0.75000000  0.75000000  1
  Nb  Nb1  1  0.75000000  0.25000000  0.25000000  1
  Nb  Nb2  1  0.25000000  0.75000000  0.25000000  1
  Nb  Nb3  1  0.25000000  0.25000000  0.75000000  1
  O  O0  1  0.21671035  0.29037123  0.51375378  1
  O  O1  1  0.21671035  0.70962877  0.48624622  1
  O  O2  1  0.78328965  0.29037123  0.48624622  1
  O  O3  1  0.78328965  0.70962877  0.51375378  1
  O  O4  1  0.29037123  0.51375378  0.21671035  1
  O  O5  1  0.70962877  0.48624622  0.21671035  1
  O  O6  1  0.29037123  0.48624622  0.78328965  1
  O  O7  1  0.70962877  0.51375378  0.78328965  1
  O  O8  1  0.51375378  0.21671035  0.29037123  1
  O  O9  1  0.48624622  0.21671035  0.70962877  1
  O  O10  1  0.48624622  0.78328965  0.29037123  1
  O  O11  1  0.51375378  0.78328965  0.70962877  1
  O  O12  1  0.28328965  0.20962877  0.98624622  1
  O  O13  1  0.28328965  0.79037123  0.01375378  1
  O  O14  1  0.71671035  0.20962877  0.01375378  1
  O  O15  1  0.71671035  0.79037123  0.98624622  1
  O  O16  1  0.20962877  0.98624622  0.28328965  1
  O  O17  1  0.79037123  0.01375378  0.28328965  1
  O  O18  1  0.20962877  0.01375378  0.71671035  1
  O  O19  1  0.79037123  0.98624622  0.71671035  1
  O  O20  1  0.98624622  0.28328965  0.20962877  1
  O  O21  1  0.01375378  0.28328965  0.79037123  1
  O  O22  1  0.01375378  0.71671035  0.20962877  1
  O  O23  1  0.98624622  0.71671035  0.79037123  1
loop_
_geom_bond_atom_site_label_1
_geom_bond_atom_site_label_2
_geom_bond_distance
_geom_bond_site_symmetry_2
Nb0 O19 2.025231 1_555
Nb0 O3 2.025231 1_555
Nb0 O11 2.025231 1_555
Nb0 O23 2.025231 1_555
Nb0 O15 2.025231 1_555
Nb0 O7 2.025231 1_555
Nb1 O20 2.025231 1_555
Nb1 O8 2.025231 1_555
Nb1 O14 2.025231 1_555
Nb1 O2 2.025231 1_555
Nb1 O17 2.025231 1_555
Nb1 O5 2.025231 1_555
Nb2 O4 2.025231 1_555
Nb2 O1 2.025231 1_555
Nb2 O22 2.025231 1_555
Nb2 O10 2.025231 1_555
Nb2 O16 2.025231 1_555
Nb2 O13 2.025231 1_555
Nb3 O0 2.025231 1_555
Nb3 O21 2.025231 1_555
Nb3 O18 2.025231 1_555
Nb3 O6 2.025231 1_555
Nb3 O12 2.025231 1_555
Nb3 O9 2.025231 1_555
O0 Y0 2.250564 1_555
O0 Sr7 2.526164 1_555
O0 Sr0 2.951865 1_555
O0 Sr2 3.034730 1_555
O1 Y1 2.250564 1_555
O1 Sr7 2.526164 1_555
O1 Sr0 2.951865 1_555
O1 Sr2 3.034730 1_565
O2 Y2 2.250564 1_555
O2 Sr7 2.526164 1_655
O2 Sr0 2.951865 1_555
O2 Sr2 3.034730 1_655
O3 Y3 2.250564 1_555
O3 Sr7 2.526164 1_655
O3 Sr0 2.951865 1_555
O3 Sr2 3.034730 1_665
O4 Y0 2.250564 1_555
O4 Sr5 2.526164 1_555
O4 Sr0 2.951865 1_555
O4 Sr3 3.034730 1_555
O5 Y3 2.250564 1_555
O5 Sr5 2.526164 1_555
O5 Sr0 2.951865 1_555
O5 Sr3 3.034730 1_655
O6 Y1 2.250564 1_555
O6 Sr5 2.526164 1_556
O6 Sr0 2.951865 1_555
O6 Sr3 3.034730 1_556
O7 Y2 2.250564 1_555
O7 Sr5 2.526164 1_556
O7 Sr0 2.951865 1_555
O7 Sr3 3.034730 1_656
O8 Y0 2.250564 1_555
O8 Sr6 2.526164 1_555
O8 Sr0 2.951865 1_555
O8 Sr4 3.034730 1_555
O9 Y2 2.250564 1_555
O9 Sr6 2.526164 1_555
O9 Sr0 2.951865 1_555
O9 Sr4 3.034730 1_556
O10 Y3 2.250564 1_555
O10 Sr6 2.526164 1_565
O10 Sr0 2.951865 1_555
O10 Sr4 3.034730 1_565
O11 Y1 2.250564 1_555
O11 Sr6 2.526164 1_565
O11 Sr0 2.951865 1_555
O11 Sr4 3.034730 1_566
O12 Y0 2.250564 1_556
O12 Sr4 2.526164 1_556
O12 Sr1 2.951865 1_556
O12 Sr5 3.034730 1_556
O13 Y1 2.250564 1_554
O13 Sr4 2.526164 1_565
O13 Sr1 2.951865 1_565
O13 Sr5 3.034730 1_555
O14 Y2 2.250564 1_554
O14 Sr4 2.526164 1_555
O14 Sr1 2.951865 1_655
O14 Sr5 3.034730 1_555
O15 Y3 2.250564 1_556
O15 Sr4 2.526164 1_566
O15 Sr1 2.951865 1_666
O15 Sr5 3.034730 1_556
O16 Y0 2.250564 1_565
O16 Sr2 2.526164 1_565
O16 Sr1 2.951865 1_565
O16 Sr6 3.034730 1_565
O17 Y3 2.250564 1_545
O17 Sr2 2.526164 1_655
O17 Sr1 2.951865 1_655
O17 Sr6 3.034730 1_555
O18 Y1 2.250564 1_545
O18 Sr2 2.526164 1_555
O18 Sr1 2.951865 1_556
O18 Sr6 3.034730 1_555
O19 Y2 2.250564 1_565
O19 Sr2 2.526164 1_665
O19 Sr1 2.951865 1_666
O19 Sr6 3.034730 1_565
O20 Y0 2.250564 1_655
O20 Sr3 2.526164 1_655
O20 Sr1 2.951865 1_655
O20 Sr7 3.034730 1_655
O21 Y2 2.250564 1_455
O21 Sr3 2.526164 1_556
O21 Sr1 2.951865 1_556
O21 Sr7 3.034730 1_555
O22 Y3 2.250564 1_455
O22 Sr3 2.526164 1_555
O22 Sr1 2.951865 1_565
O22 Sr7 3.034730 1_555
O23 Y1 2.250564 1_655
O23 Sr3 2.526164 1_656
O23 Sr1 2.951865 1_666
O23 Sr7 3.034730 1_655
