# generated using pymatgen
data_SrCeMg14
_symmetry_space_group_name_H-M   'P 1'
_cell_length_a   6.71844027
_cell_length_b   6.71843966
_cell_length_c   10.51672924
_cell_angle_alpha   90.00000000
_cell_angle_beta   90.00000000
_cell_angle_gamma   120.00000294
_symmetry_Int_Tables_number   1
_chemical_formula_structural   SrCeMg14
_chemical_formula_sum   'Sr1 Ce1 Mg14'
_cell_volume   411.10067833
_cell_formula_units_Z   1
loop_
 _symmetry_equiv_pos_site_id
 _symmetry_equiv_pos_as_xyz
  1  'x, y, z'
loop_
 _atom_site_type_symbol
 _atom_site_label
 _atom_site_symmetry_multiplicity
 _atom_site_fract_x
 _atom_site_fract_y
 _atom_site_fract_z
 _atom_site_occupancy
  Sr  Sr0  1  0.16666700  0.33333300  0.62500000  1
  Ce  Ce0  1  0.16666700  0.33333300  0.12500000  1
  Mg  Mg0  1  0.17639421  0.83819661  0.12500000  1
  Mg  Mg1  1  0.17717874  0.83858887  0.62500000  1
  Mg  Mg2  1  0.66180339  0.32360579  0.12500000  1
  Mg  Mg3  1  0.66141113  0.32282126  0.62500000  1
  Mg  Mg4  1  0.66180339  0.83819661  0.12500000  1
  Mg  Mg5  1  0.66141113  0.83858887  0.62500000  1
  Mg  Mg6  1  0.34091378  0.15908622  0.37040126  1
  Mg  Mg7  1  0.34091378  0.15908622  0.87959874  1
  Mg  Mg8  1  0.34091378  0.68182855  0.37040126  1
  Mg  Mg9  1  0.34091378  0.68182855  0.87959874  1
  Mg  Mg10  1  0.81817145  0.15908622  0.37040126  1
  Mg  Mg11  1  0.81817145  0.15908622  0.87959874  1
  Mg  Mg12  1  0.83333300  0.66666700  0.37257804  1
  Mg  Mg13  1  0.83333300  0.66666700  0.87742196  1
loop_
_geom_bond_atom_site_label_1
_geom_bond_atom_site_label_2
_geom_bond_distance
_geom_bond_site_symmetry_2
Ce0 Mg7 3.282073 1_554
Ce0 Mg6 3.282073 1_555
Ce0 Mg9 3.282080 1_554
Ce0 Mg8 3.282080 1_555
Ce0 Mg11 3.282080 1_454
Ce0 Mg10 3.282080 1_455
Ce0 Mg0 3.359697 1_545
Ce0 Mg4 3.359697 1_555
Ce0 Mg4 3.359697 1_445
Ce0 Mg0 3.359697 1_555
Ce0 Mg2 3.359697 1_555
Ce0 Mg2 3.359697 1_455
Mg0 Mg9 3.185465 1_554
Mg0 Mg8 3.185465 1_555
Mg0 Mg7 3.185472 1_564
Mg0 Mg6 3.185472 1_565
Mg0 Mg2 3.261192 1_565
Mg0 Mg4 3.261193 1_555
Mg0 Mg13 3.280780 1_454
Mg0 Mg12 3.280780 1_455
Mg0 Mg2 3.457247 1_455
Mg0 Mg4 3.457248 1_455
Mg1 Mg3 3.253286 1_565
Mg1 Mg5 3.253286 1_555
Mg1 Mg8 3.262989 1_555
Mg1 Mg9 3.262989 1_555
Mg1 Mg6 3.262996 1_565
Mg1 Mg7 3.262996 1_565
Mg1 Mg12 3.324098 1_455
Mg1 Mg13 3.324098 1_455
Mg1 Sr0 3.359777 1_555
Mg1 Sr0 3.359777 1_565
Mg1 Mg3 3.465154 1_455
Mg1 Mg5 3.465154 1_455
Mg2 Mg7 3.185472 1_554
Mg2 Mg6 3.185472 1_555
Mg2 Mg4 3.261192 1_545
Mg2 Mg4 3.457247 1_555
Mg3 Mg5 3.253286 1_545
Mg3 Mg6 3.262996 1_555
Mg3 Mg7 3.262996 1_555
Mg3 Sr0 3.359777 1_555
Mg3 Sr0 3.359777 1_655
Mg3 Mg5 3.465154 1_555
Mg4 Mg9 3.185472 1_554
Mg4 Mg8 3.185472 1_555
Mg5 Mg8 3.262996 1_555
Mg5 Mg9 3.262996 1_555
Mg5 Sr0 3.359777 1_555
Mg5 Sr0 3.359777 1_665
Mg6 Mg8 3.206427 1_545
Mg6 Sr0 3.358665 1_555
Mg6 Mg8 3.512013 1_555
Mg7 Mg9 3.206427 1_545
Mg7 Sr0 3.358665 1_555
Mg7 Mg9 3.512013 1_555
Mg8 Sr0 3.358672 1_555
Mg9 Sr0 3.358672 1_555
Mg10 Mg2 3.185465 1_555
Mg10 Mg4 3.185472 1_545
Mg10 Mg8 3.206427 1_545
Mg10 Mg6 3.206427 1_555
Mg10 Mg3 3.262989 1_555
Mg10 Mg5 3.262996 1_545
Mg10 Sr0 3.358672 1_655
Mg10 Mg12 3.360456 1_545
Mg10 Mg12 3.360456 1_555
Mg10 Mg8 3.512013 1_655
Mg10 Mg6 3.512013 1_655
Mg11 Mg2 3.185465 1_556
Mg11 Mg4 3.185472 1_546
Mg11 Mg9 3.206427 1_545
Mg11 Mg7 3.206427 1_555
Mg11 Mg3 3.262989 1_555
Mg11 Mg5 3.262996 1_545
Mg11 Sr0 3.358672 1_655
Mg11 Mg13 3.360456 1_545
Mg11 Mg13 3.360456 1_555
Mg11 Mg9 3.512013 1_655
Mg11 Mg7 3.512013 1_655
Mg12 Mg4 3.280773 1_555
Mg12 Mg2 3.280779 1_555
Mg12 Mg5 3.324091 1_555
Mg12 Mg3 3.324098 1_555
Mg12 Mg6 3.360456 1_555
Mg12 Mg6 3.360456 1_665
Mg12 Mg8 3.360456 1_555
Mg12 Mg8 3.360456 1_655
Mg13 Mg4 3.280773 1_556
Mg13 Mg2 3.280779 1_556
Mg13 Mg5 3.324091 1_555
Mg13 Mg3 3.324098 1_555
Mg13 Mg7 3.360456 1_555
Mg13 Mg7 3.360456 1_665
Mg13 Mg9 3.360456 1_555
Mg13 Mg9 3.360456 1_655
