# generated using pymatgen
data_NaSm2IrO6
_symmetry_space_group_name_H-M   'P 1'
_cell_length_a   5.93747600
_cell_length_b   5.50502400
_cell_length_c   9.59390285
_cell_angle_alpha   56.25371218
_cell_angle_beta   90.00000000
_cell_angle_gamma   90.00000000
_symmetry_Int_Tables_number   1
_chemical_formula_structural   NaSm2IrO6
_chemical_formula_sum   'Na2 Sm4 Ir2 O12'
_cell_volume   260.74835764
_cell_formula_units_Z   2
loop_
 _symmetry_equiv_pos_site_id
 _symmetry_equiv_pos_as_xyz
  1  'x, y, z'
loop_
 _atom_site_type_symbol
 _atom_site_label
 _atom_site_symmetry_multiplicity
 _atom_site_fract_x
 _atom_site_fract_y
 _atom_site_fract_z
 _atom_site_occupancy
  Na  Na0  1  0.50000000  0.00000000  0.50000000  1
  Na  Na1  1  0.00000000  0.00000000  0.00000000  1
  Sm  Sm0  1  0.07474500  0.77834700  0.74489200  1
  Sm  Sm1  1  0.57474500  0.22165300  0.75510800  1
  Sm  Sm2  1  0.42525500  0.77834700  0.24489200  1
  Sm  Sm3  1  0.92525500  0.22165300  0.25510800  1
  Ir  Ir0  1  0.50000000  0.50000000  0.00000000  1
  Ir  Ir1  1  0.00000000  0.50000000  0.50000000  1
  O  O0  1  0.71731000  0.73414000  0.42617500  1
  O  O1  1  0.21731000  0.26586000  0.07382500  1
  O  O2  1  0.28269000  0.26586000  0.57382500  1
  O  O3  1  0.78269000  0.73414000  0.92617500  1
  O  O4  1  0.05699800  0.60177900  0.26795000  1
  O  O5  1  0.55699800  0.39822100  0.23205000  1
  O  O6  1  0.94300200  0.39822100  0.73205000  1
  O  O7  1  0.44300200  0.60177900  0.76795000  1
  O  O8  1  0.32656700  0.85373800  0.94489400  1
  O  O9  1  0.82656700  0.14626200  0.55510600  1
  O  O10  1  0.67343300  0.14626200  0.05510600  1
  O  O11  1  0.17343300  0.85373800  0.44489400  1
loop_
_geom_bond_atom_site_label_1
_geom_bond_atom_site_label_2
_geom_bond_distance
_geom_bond_site_symmetry_2
Na0 O9 2.271655 1_555
Na0 O11 2.271655 1_545
Na0 O5 2.295113 1_555
Na0 O7 2.295113 1_545
Na0 O2 2.336701 1_555
Na0 O0 2.336701 1_545
Na1 O10 2.271655 1_455
Na1 O8 2.271655 1_544
Na1 O6 2.295113 1_454
Na1 O4 2.295113 1_545
Na1 O3 2.336701 1_444
Na1 O1 2.336701 1_555
Ir0 O1 1.991479 1_555
Ir0 O3 1.991479 1_554
Ir0 O8 1.997044 1_554
Ir0 O10 1.997044 1_555
Ir0 O7 1.999713 1_554
Ir0 O5 1.999713 1_555
Ir1 O2 1.991479 1_555
Ir1 O0 1.991479 1_455
Ir1 O11 1.997044 1_555
Ir1 O9 1.997044 1_455
Ir1 O4 1.999713 1_555
Ir1 O6 1.999713 1_455
O0 Sm2 2.370828 1_555
O0 Sm3 2.554782 1_565
O0 Sm1 2.956863 1_555
O1 Sm3 2.370828 1_455
O1 Sm2 2.554782 1_545
O1 Sm0 2.956863 1_554
O2 Sm1 2.370828 1_555
O2 Sm0 2.554782 1_545
O2 Sm2 2.956863 1_555
O3 Sm0 2.370828 1_655
O3 Sm1 2.554782 1_565
O3 Sm3 2.956863 1_556
O4 Sm3 2.300539 1_455
O4 Sm2 2.352807 1_555
O5 Sm2 2.300539 1_555
O5 Sm3 2.352807 1_555
O6 Sm0 2.300539 1_655
O6 Sm1 2.352807 1_555
O7 Sm1 2.300539 1_555
O7 Sm0 2.352807 1_555
O8 Sm1 2.343402 1_565
O8 Sm0 2.640910 1_555
O8 Sm2 2.733533 1_556
O9 Sm0 2.343402 1_645
O9 Sm1 2.640910 1_555
O9 Sm3 2.733533 1_555
O10 Sm2 2.343402 1_545
O10 Sm3 2.640910 1_555
O10 Sm1 2.733533 1_554
O11 Sm3 2.343402 1_465
O11 Sm2 2.640910 1_555
O11 Sm0 2.733533 1_555
