# generated using pymatgen
data_Ca2SiO5
_symmetry_space_group_name_H-M   'P 1'
_cell_length_a   9.59766800
_cell_length_b   9.67859400
_cell_length_c   10.37764100
_cell_angle_alpha   90.00000000
_cell_angle_beta   90.00000000
_cell_angle_gamma   90.00000000
_symmetry_Int_Tables_number   1
_chemical_formula_structural   Ca2SiO5
_chemical_formula_sum   'Ca16 Si8 O40'
_cell_volume   963.99912125
_cell_formula_units_Z   8
loop_
 _symmetry_equiv_pos_site_id
 _symmetry_equiv_pos_as_xyz
  1  'x, y, z'
loop_
 _atom_site_type_symbol
 _atom_site_label
 _atom_site_symmetry_multiplicity
 _atom_site_fract_x
 _atom_site_fract_y
 _atom_site_fract_z
 _atom_site_occupancy
  Ca  Ca0  1  0.30443600  0.47025400  0.92223400  1
  Ca  Ca1  1  0.69556400  0.02974600  0.42223400  1
  Ca  Ca2  1  0.19556400  0.97025400  0.07776600  1
  Ca  Ca3  1  0.80443600  0.52974600  0.57776600  1
  Ca  Ca4  1  0.69556400  0.52974600  0.07776600  1
  Ca  Ca5  1  0.30443600  0.97025400  0.57776600  1
  Ca  Ca6  1  0.80443600  0.02974600  0.92223400  1
  Ca  Ca7  1  0.19556400  0.47025400  0.42223400  1
  Ca  Ca8  1  0.48793700  0.33933900  0.60236400  1
  Ca  Ca9  1  0.51206300  0.16066100  0.10236400  1
  Ca  Ca10  1  0.01206300  0.83933900  0.39763600  1
  Ca  Ca11  1  0.98793700  0.66066100  0.89763600  1
  Ca  Ca12  1  0.51206300  0.66066100  0.39763600  1
  Ca  Ca13  1  0.48793700  0.83933900  0.89763600  1
  Ca  Ca14  1  0.98793700  0.16066100  0.60236400  1
  Ca  Ca15  1  0.01206300  0.33933900  0.10236400  1
  Si  Si0  1  0.27231900  0.16460000  0.84820400  1
  Si  Si1  1  0.72768100  0.33540000  0.34820400  1
  Si  Si2  1  0.22768100  0.66460000  0.15179600  1
  Si  Si3  1  0.77231900  0.83540000  0.65179600  1
  Si  Si4  1  0.72768100  0.83540000  0.15179600  1
  Si  Si5  1  0.27231900  0.66460000  0.65179600  1
  Si  Si6  1  0.77231900  0.33540000  0.84820400  1
  Si  Si7  1  0.22768100  0.16460000  0.34820400  1
  O  O0  1  0.36418900  0.04812100  0.92791600  1
  O  O1  1  0.63581100  0.45187900  0.42791600  1
  O  O2  1  0.13581100  0.54812100  0.07208400  1
  O  O3  1  0.86418900  0.95187900  0.57208400  1
  O  O4  1  0.63581100  0.95187900  0.07208400  1
  O  O5  1  0.36418900  0.54812100  0.57208400  1
  O  O6  1  0.86418900  0.45187900  0.92791600  1
  O  O7  1  0.13581100  0.04812100  0.42791600  1
  O  O8  1  0.17422000  0.24456100  0.95740100  1
  O  O9  1  0.82578000  0.25543900  0.45740100  1
  O  O10  1  0.32578000  0.74456100  0.04259900  1
  O  O11  1  0.67422000  0.75543900  0.54259900  1
  O  O12  1  0.82578000  0.75543900  0.04259900  1
  O  O13  1  0.17422000  0.74456100  0.54259900  1
  O  O14  1  0.67422000  0.25543900  0.95740100  1
  O  O15  1  0.32578000  0.24456100  0.45740100  1
  O  O16  1  0.37045100  0.28882300  0.79056500  1
  O  O17  1  0.62954900  0.21117700  0.29056500  1
  O  O18  1  0.12954900  0.78882300  0.20943500  1
  O  O19  1  0.87045100  0.71117700  0.70943500  1
  O  O20  1  0.62954900  0.71117700  0.20943500  1
  O  O21  1  0.37045100  0.78882300  0.70943500  1
  O  O22  1  0.87045100  0.21117700  0.79056500  1
  O  O23  1  0.12954900  0.28882300  0.29056500  1
  O  O24  1  0.18525000  0.09923800  0.72741800  1
  O  O25  1  0.81475000  0.40076200  0.22741800  1
  O  O26  1  0.31475000  0.59923800  0.27258200  1
  O  O27  1  0.68525000  0.90076200  0.77258200  1
  O  O28  1  0.81475000  0.90076200  0.27258200  1
  O  O29  1  0.18525000  0.59923800  0.77258200  1
  O  O30  1  0.68525000  0.40076200  0.72741800  1
  O  O31  1  0.31475000  0.09923800  0.22741800  1
  O  O32  1  0.01119300  0.40751700  0.56527900  1
  O  O33  1  0.98880700  0.09248300  0.06527900  1
  O  O34  1  0.48880700  0.90751700  0.43472100  1
  O  O35  1  0.51119300  0.59248300  0.93472100  1
  O  O36  1  0.98880700  0.59248300  0.43472100  1
  O  O37  1  0.01119300  0.90751700  0.93472100  1
  O  O38  1  0.51119300  0.09248300  0.56527900  1
  O  O39  1  0.48880700  0.40751700  0.06527900  1
loop_
_geom_bond_atom_site_label_1
_geom_bond_atom_site_label_2
_geom_bond_distance
_geom_bond_site_symmetry_2
Ca0 O29 2.297586 1_555
Ca0 O16 2.313449 1_555
Ca0 O35 2.313888 1_555
Ca0 O2 2.367598 1_556
Ca0 O39 2.388219 1_556
Ca0 O8 2.542966 1_555
Ca1 O28 2.297586 1_545
Ca1 O17 2.313449 1_555
Ca1 O34 2.313888 1_545
Ca1 O3 2.367598 1_545
Ca1 O38 2.388219 1_555
Ca1 O9 2.542966 1_555
Ca2 O31 2.297586 1_565
Ca2 O18 2.313449 1_555
Ca2 O33 2.313888 1_465
Ca2 O0 2.367598 1_564
Ca2 O37 2.388219 1_554
Ca2 O10 2.542966 1_555
Ca3 O30 2.297586 1_555
Ca3 O19 2.313449 1_555
Ca3 O32 2.313888 1_655
Ca3 O1 2.367598 1_555
Ca3 O36 2.388219 1_555
Ca3 O11 2.542966 1_555
Ca4 O25 2.297586 1_555
Ca4 O20 2.313449 1_555
Ca4 O39 2.313888 1_555
Ca4 O6 2.367598 1_554
Ca4 O35 2.388219 1_554
Ca4 O12 2.542966 1_555
Ca5 O24 2.297586 1_565
Ca5 O21 2.313449 1_555
Ca5 O38 2.313888 1_565
Ca5 O7 2.367598 1_565
Ca5 O34 2.388219 1_555
Ca5 O13 2.542966 1_555
Ca6 O27 2.297586 1_545
Ca6 O22 2.313449 1_555
Ca6 O37 2.313888 1_645
Ca6 O4 2.367598 1_546
Ca6 O33 2.388219 1_556
Ca6 O14 2.542966 1_555
Ca7 O26 2.297586 1_555
Ca7 O23 2.313449 1_555
Ca7 O36 2.313888 1_455
Ca7 O5 2.367598 1_555
Ca7 O32 2.388219 1_555
Ca7 O15 2.542966 1_555
Ca8 O16 2.307605 1_555
Ca8 O15 2.350909 1_555
Ca8 O5 2.364879 1_555
Ca8 O30 2.371472 1_555
Ca8 O38 2.430288 1_555
Ca8 O1 2.545207 1_555
Ca9 O17 2.307605 1_555
Ca9 O14 2.350909 1_554
Ca9 O4 2.364879 1_545
Ca9 O31 2.371472 1_555
Ca9 O39 2.430288 1_555
Ca9 O0 2.545207 1_554
Ca10 O18 2.307605 1_555
Ca10 O13 2.350909 1_555
Ca10 O7 2.364879 1_565
Ca10 O28 2.371472 1_455
Ca10 O36 2.430288 1_455
Ca10 O3 2.545207 1_455
Ca11 O19 2.307605 1_555
Ca11 O12 2.350909 1_556
Ca11 O6 2.364879 1_555
Ca11 O29 2.371472 1_655
Ca11 O37 2.430288 1_655
Ca11 O2 2.545207 1_656
Ca12 O20 2.307605 1_555
Ca12 O11 2.350909 1_555
Ca12 O1 2.364879 1_555
Ca12 O26 2.371472 1_555
Ca12 O34 2.430288 1_555
Ca12 O5 2.545207 1_555
Ca13 O21 2.307605 1_555
Ca13 O10 2.350909 1_556
Ca13 O0 2.364879 1_565
Ca13 O27 2.371472 1_555
Ca13 O35 2.430288 1_555
Ca13 O4 2.545207 1_556
Ca14 O22 2.307605 1_555
Ca14 O9 2.350909 1_555
Ca14 O3 2.364879 1_545
Ca14 O24 2.371472 1_655
Ca14 O32 2.430288 1_655
Ca14 O7 2.545207 1_655
Ca15 O23 2.307605 1_555
Ca15 O8 2.350909 1_554
Ca15 O2 2.364879 1_555
Ca15 O25 2.371472 1_455
Ca15 O33 2.430288 1_455
Ca15 O6 2.545207 1_454
O0 Si0 1.653083 1_555
O1 Si1 1.653083 1_555
O2 Si2 1.653083 1_555
O3 Si3 1.653083 1_555
O4 Si4 1.653083 1_555
O5 Si5 1.653083 1_555
O6 Si6 1.653083 1_555
O7 Si7 1.653083 1_555
O8 Si0 1.664199 1_555
O9 Si1 1.664199 1_555
O10 Si2 1.664199 1_555
O11 Si3 1.664199 1_555
O12 Si4 1.664199 1_555
O13 Si5 1.664199 1_555
O14 Si6 1.664199 1_555
O15 Si7 1.664199 1_555
O16 Si0 1.640240 1_555
O17 Si1 1.640240 1_555
O18 Si2 1.640240 1_555
O19 Si3 1.640240 1_555
O20 Si4 1.640240 1_555
O21 Si5 1.640240 1_555
O22 Si6 1.640240 1_555
O23 Si7 1.640240 1_555
O24 Si0 1.633928 1_555
O25 Si1 1.633928 1_555
O26 Si2 1.633928 1_555
O27 Si3 1.633928 1_555
O28 Si4 1.633928 1_555
O29 Si5 1.633928 1_555
O30 Si6 1.633928 1_555
O31 Si7 1.633928 1_555
