# generated using pymatgen
data_Ag2Te
_symmetry_space_group_name_H-M   'P 1'
_cell_length_a   4.50535051
_cell_length_b   8.35313798
_cell_length_c   7.95701872
_cell_angle_alpha   112.56029724
_cell_angle_beta   90.00000000
_cell_angle_gamma   90.00000000
_symmetry_Int_Tables_number   1
_chemical_formula_structural   Ag2Te
_chemical_formula_sum   'Ag8 Te4'
_cell_volume   276.53771439
_cell_formula_units_Z   4
loop_
 _symmetry_equiv_pos_site_id
 _symmetry_equiv_pos_as_xyz
  1  'x, y, z'
loop_
 _atom_site_type_symbol
 _atom_site_label
 _atom_site_symmetry_multiplicity
 _atom_site_fract_x
 _atom_site_fract_y
 _atom_site_fract_z
 _atom_site_occupancy
  Ag  Ag0  1  0.11261704  0.34009418  0.37484830  1
  Ag  Ag1  1  0.61261704  0.15990582  0.12515170  1
  Ag  Ag2  1  0.88738296  0.65990582  0.62515170  1
  Ag  Ag3  1  0.38738296  0.84009418  0.87484830  1
  Ag  Ag4  1  0.86077432  0.65305538  0.98830639  1
  Ag  Ag5  1  0.36077432  0.84694462  0.51169361  1
  Ag  Ag6  1  0.13922568  0.34694462  0.01169361  1
  Ag  Ag7  1  0.63922568  0.15305538  0.48830639  1
  Te  Te0  1  0.14522795  0.96955575  0.24156334  1
  Te  Te1  1  0.64522795  0.53044425  0.25843666  1
  Te  Te2  1  0.85477205  0.03044425  0.75843666  1
  Te  Te3  1  0.35477205  0.46955575  0.74156334  1
loop_
_geom_bond_atom_site_label_1
_geom_bond_atom_site_label_2
_geom_bond_distance
_geom_bond_site_symmetry_2
Ag0 Ag2 2.837334 1_455
Ag0 Te0 2.864892 1_545
Ag0 Te3 2.907394 1_555
Ag0 Ag6 2.914529 1_555
Ag0 Ag7 2.981122 1_455
Ag0 Te1 2.991735 1_455
Ag0 Ag1 2.998817 1_555
Ag0 Ag1 2.998817 1_455
Ag0 Ag7 3.157103 1_555
Ag0 Te1 3.205365 1_555
Ag1 Ag3 2.837334 1_544
Ag1 Te1 2.864892 1_555
Ag1 Te2 2.907394 1_554
Ag1 Ag7 2.914529 1_555
Ag1 Ag6 2.981122 1_555
Ag1 Te0 2.991735 1_545
Ag1 Ag6 3.157103 1_655
Ag1 Te0 3.205365 1_645
Ag2 Te2 2.864892 1_565
Ag2 Te1 2.907394 1_555
Ag2 Ag4 2.914529 1_555
Ag2 Ag5 2.981122 1_655
Ag2 Te3 2.991735 1_655
Ag2 Ag3 2.998817 1_555
Ag2 Ag3 2.998817 1_655
Ag2 Ag5 3.157103 1_555
Ag2 Te3 3.205365 1_555
Ag3 Te3 2.864892 1_555
Ag3 Te0 2.907394 1_556
Ag3 Ag5 2.914529 1_555
Ag3 Ag4 2.981122 1_555
Ag3 Te2 2.991735 1_565
Ag3 Ag4 3.157103 1_455
Ag3 Te2 3.205365 1_465
Ag4 Te1 2.881189 1_556
Ag4 Ag6 2.917489 1_656
Ag4 Te0 2.933407 1_656
Ag4 Te3 2.974637 1_655
Ag4 Te3 3.015317 1_555
Ag5 Te0 2.881189 1_555
Ag5 Ag7 2.917489 1_565
Ag5 Te1 2.933407 1_555
Ag5 Te2 2.974637 1_565
Ag5 Te2 3.015317 1_465
Ag6 Te3 2.881189 1_554
Ag6 Te2 2.933407 1_454
Ag6 Te1 2.974637 1_455
Ag6 Te1 3.015317 1_555
Ag7 Te2 2.881189 1_555
Ag7 Te3 2.933407 1_555
Ag7 Te0 2.974637 1_545
Ag7 Te0 3.015317 1_645
