# generated using pymatgen
data_LaCoSi
_symmetry_space_group_name_H-M   'P 1'
_cell_length_a   4.06113066
_cell_length_b   4.06113066
_cell_length_c   7.30427839
_cell_angle_alpha   90.00000000
_cell_angle_beta   90.00000000
_cell_angle_gamma   90.00000000
_symmetry_Int_Tables_number   1
_chemical_formula_structural   LaCoSi
_chemical_formula_sum   'La2 Co2 Si2'
_cell_volume   120.46787289
_cell_formula_units_Z   2
loop_
 _symmetry_equiv_pos_site_id
 _symmetry_equiv_pos_as_xyz
  1  'x, y, z'
loop_
 _atom_site_type_symbol
 _atom_site_label
 _atom_site_symmetry_multiplicity
 _atom_site_fract_x
 _atom_site_fract_y
 _atom_site_fract_z
 _atom_site_occupancy
  La  La0  1  0.75000000  0.75000000  0.30481981  1
  La  La1  1  0.25000000  0.25000000  0.69518019  1
  Co  Co0  1  0.75000000  0.25000000  -0.00000000  1
  Co  Co1  1  0.25000000  0.75000000  -0.00000000  1
  Si  Si0  1  0.75000000  0.75000000  0.84599804  1
  Si  Si1  1  0.25000000  0.25000000  0.15400196  1
loop_
_geom_bond_atom_site_label_1
_geom_bond_atom_site_label_2
_geom_bond_distance
_geom_bond_site_symmetry_2
La0 Si1 3.075703 1_565
La0 Si1 3.075703 1_665
La0 Si1 3.075703 1_555
La0 Si1 3.075703 1_655
La1 Si0 3.075703 1_545
La1 Si0 3.075703 1_555
La1 Si0 3.075703 1_445
La1 Si0 3.075703 1_455
Co0 Si1 2.321322 1_555
Co0 Si0 2.321322 1_554
Co0 Si0 2.321322 1_544
Co0 Si1 2.321322 1_655
Co0 La1 3.013378 1_654
Co0 La1 3.013378 1_554
Co0 La0 3.013378 1_545
Co0 La0 3.013378 1_555
Co1 Si1 2.321322 1_565
Co1 Si1 2.321322 1_555
Co1 Si0 2.321322 1_554
Co1 Si0 2.321322 1_454
Co1 La1 3.013378 1_564
Co1 La0 3.013378 1_455
Co1 La1 3.013378 1_554
Co1 La0 3.013378 1_555
