# generated using pymatgen
data_Li5Mn3O8
_symmetry_space_group_name_H-M   'P 1'
_cell_length_a   5.00375621
_cell_length_b   7.89473051
_cell_length_c   7.72893574
_cell_angle_alpha   81.31818101
_cell_angle_beta   76.91670659
_cell_angle_gamma   100.90131198
_symmetry_Int_Tables_number   1
_chemical_formula_structural   Li5Mn3O8
_chemical_formula_sum   'Li10 Mn6 O16'
_cell_volume   285.97167967
_cell_formula_units_Z   2
loop_
 _symmetry_equiv_pos_site_id
 _symmetry_equiv_pos_as_xyz
  1  'x, y, z'
loop_
 _atom_site_type_symbol
 _atom_site_label
 _atom_site_symmetry_multiplicity
 _atom_site_fract_x
 _atom_site_fract_y
 _atom_site_fract_z
 _atom_site_occupancy
  Li  Li0  1  0.01637000  0.38699400  0.87557100  1
  Li  Li1  1  0.01708800  0.88737800  0.37552600  1
  Li  Li2  1  0.99276300  0.62435100  0.12549400  1
  Li  Li3  1  0.99271800  0.12434400  0.62544400  1
  Li  Li4  1  0.50246600  0.12833700  0.12111700  1
  Li  Li5  1  0.50275000  0.62829300  0.62116700  1
  Li  Li6  1  0.50215000  0.49471000  0.99210000  1
  Li  Li7  1  0.50245100  0.99453900  0.49231600  1
  Li  Li8  1  0.50177500  0.25923000  0.76024200  1
  Li  Li9  1  0.50242100  0.75946700  0.26045700  1
  Mn  Mn0  1  0.49805700  0.86929900  0.87636300  1
  Mn  Mn1  1  0.00304000  0.00406500  0.00268100  1
  Mn  Mn2  1  0.00209800  0.74776100  0.74464900  1
  Mn  Mn3  1  0.49764900  0.36902600  0.37615000  1
  Mn  Mn4  1  0.00323000  0.50403900  0.50271800  1
  Mn  Mn5  1  0.00125700  0.24761000  0.24465400  1
  O  O0  1  0.23490600  0.25987300  0.01173900  1
  O  O1  1  0.23525500  0.75990800  0.51166600  1
  O  O2  1  0.78722500  0.51686100  0.74256400  1
  O  O3  1  0.78700800  0.01674200  0.24256900  1
  O  O4  1  0.23667100  0.47753700  0.26612700  1
  O  O5  1  0.23708000  0.97774900  0.76609700  1
  O  O6  1  0.73560800  0.74582800  0.98116200  1
  O  O7  1  0.73467500  0.24526600  0.48102200  1
  O  O8  1  0.73566000  0.59302600  0.38024400  1
  O  O9  1  0.73572400  0.09319600  0.88025500  1
  O  O10  1  0.75075600  0.36648900  0.14552200  1
  O  O11  1  0.75101200  0.86656100  0.64567400  1
  O  O12  1  0.24830800  0.64906400  0.86761100  1
  O  O13  1  0.24793600  0.14900000  0.36755500  1
  O  O14  1  0.25194000  0.87676300  0.10678400  1
  O  O15  1  0.25195500  0.37669200  0.60676100  1
loop_
_geom_bond_atom_site_label_1
_geom_bond_atom_site_label_2
_geom_bond_distance
_geom_bond_site_symmetry_2
Li0 O0 1.981866 1_556
Li0 O2 2.020569 1_455
Li0 O12 2.156936 1_555
Li0 O15 2.165911 1_555
Li0 O10 2.169574 1_456
Li0 O9 2.464316 1_455
Li1 O1 1.981787 1_555
Li1 O3 2.021866 1_465
Li1 O13 2.151990 1_565
Li1 O14 2.164951 1_555
Li1 O11 2.171232 1_455
Li1 O8 2.469405 1_455
Li2 O8 2.044217 1_555
Li2 O12 2.068860 1_654
Li2 O10 2.126549 1_555
Li2 O14 2.127049 1_655
Li2 O6 2.147902 1_554
Li2 O4 2.183956 1_655
Li3 O9 2.044585 1_555
Li3 O13 2.068349 1_655
Li3 O11 2.125154 1_545
Li3 O15 2.126809 1_655
Li3 O7 2.149768 1_555
Li3 O5 2.184825 1_645
Li4 O9 2.049271 1_554
Li4 O13 2.085833 1_555
Li4 O0 2.087737 1_555
Li4 O10 2.108008 1_555
Li4 O3 2.124696 1_555
Li4 O14 2.171619 1_545
Li5 O8 2.049349 1_555
Li5 O12 2.085968 1_555
Li5 O1 2.088268 1_555
Li5 O11 2.108955 1_555
Li5 O2 2.123575 1_555
Li5 O15 2.172533 1_555
Li6 O0 2.033191 1_556
Li6 O6 2.081067 1_555
Li6 O2 2.084062 1_555
Li6 O10 2.181733 1_556
Li6 O12 2.192894 1_555
Li6 O4 2.200025 1_556
Li7 O1 2.032291 1_555
Li7 O7 2.075549 1_565
Li7 O3 2.084035 1_565
Li7 O11 2.180320 1_555
Li7 O13 2.197062 1_565
Li7 O5 2.198871 1_555
Li8 O0 2.095699 1_556
Li8 O15 2.146487 1_555
Li8 O9 2.157278 1_555
Li8 O2 2.219137 1_555
Li8 O7 2.238155 1_555
Li8 O5 2.350271 1_545
Li9 O1 2.094173 1_555
Li9 O14 2.149417 1_555
Li9 O8 2.155870 1_555
Li9 O3 2.214599 1_565
Li9 O6 2.238347 1_554
Li9 O4 2.355604 1_555
Mn0 O6 1.911781 1_555
Mn0 O14 1.938534 1_556
Mn0 O9 1.943390 1_565
Mn0 O11 1.944689 1_555
Mn0 O12 1.959920 1_555
Mn0 O5 1.967512 1_555
Mn1 O3 1.950818 1_455
Mn1 O14 1.972698 1_545
Mn1 O9 1.976767 1_454
Mn1 O5 1.998849 1_544
Mn1 O0 2.150050 1_555
Mn1 O6 2.268467 1_444
Mn2 O1 1.888727 1_555
Mn2 O12 1.922937 1_555
Mn2 O11 1.925490 1_455
Mn2 O2 1.937677 1_455
Mn2 O6 2.000052 1_455
Mn2 O5 2.019488 1_555
Mn3 O7 1.911206 1_555
Mn3 O15 1.939226 1_555
Mn3 O10 1.944232 1_555
Mn3 O8 1.945256 1_555
Mn3 O13 1.958182 1_555
Mn3 O4 1.966784 1_555
Mn4 O2 1.950843 1_455
Mn4 O15 1.971962 1_555
Mn4 O8 1.977598 1_455
Mn4 O4 1.998219 1_555
Mn4 O1 2.150497 1_555
Mn4 O7 2.274768 1_455
Mn5 O0 1.889079 1_555
Mn5 O10 1.923964 1_455
Mn5 O13 1.924301 1_555
Mn5 O3 1.936285 1_455
Mn5 O7 1.998580 1_455
Mn5 O4 2.020102 1_555
