# generated using pymatgen
data_Li7Mn4CoO12
_symmetry_space_group_name_H-M   'P 1'
_cell_length_a   5.95863200
_cell_length_b   5.99040318
_cell_length_c   6.47717505
_cell_angle_alpha   103.27169945
_cell_angle_beta   102.93980466
_cell_angle_gamma   92.89481789
_symmetry_Int_Tables_number   1
_chemical_formula_structural   Li7Mn4CoO12
_chemical_formula_sum   'Li7 Mn4 Co1 O12'
_cell_volume   218.04176690
_cell_formula_units_Z   1
loop_
 _symmetry_equiv_pos_site_id
 _symmetry_equiv_pos_as_xyz
  1  'x, y, z'
loop_
 _atom_site_type_symbol
 _atom_site_label
 _atom_site_symmetry_multiplicity
 _atom_site_fract_x
 _atom_site_fract_y
 _atom_site_fract_z
 _atom_site_occupancy
  Li  Li0  1  0.50079900  0.00010800  0.00385200  1
  Li  Li1  1  0.16459300  0.66210400  0.67000100  1
  Li  Li2  1  0.83761000  0.82377900  0.32620000  1
  Li  Li3  1  0.49823000  0.50370200  0.00272900  1
  Li  Li4  1  0.83481500  0.33812900  0.32652800  1
  Li  Li5  1  0.16329600  0.17384400  0.67107000  1
  Li  Li6  1  0.00097300  0.50075300  0.99966300  1
  Mn  Mn0  1  0.00144300  0.99948000  0.00172900  1
  Mn  Mn1  1  0.67190500  0.16627600  0.66901400  1
  Mn  Mn2  1  0.67409100  0.65982100  0.66702000  1
  Mn  Mn3  1  0.32491200  0.34123500  0.33217600  1
  Co  Co0  1  0.32739700  0.83440200  0.33109700  1
  O  O0  1  0.24498300  0.24143600  0.01886300  1
  O  O1  1  0.92732300  0.90533100  0.68368900  1
  O  O2  1  0.55387300  0.08583300  0.34577000  1
  O  O3  1  0.23229700  0.77835700  0.02048900  1
  O  O4  1  0.58514700  0.57316800  0.34569800  1
  O  O5  1  0.89136800  0.41073300  0.66433700  1
  O  O6  1  0.75567800  0.75771500  0.98195900  1
  O  O7  1  0.41149800  0.42506000  0.65342000  1
  O  O8  1  0.11316500  0.59068900  0.33275500  1
  O  O9  1  0.76958500  0.22036800  0.98538400  1
  O  O10  1  0.07631900  0.09714400  0.31778200  1
  O  O11  1  0.43869900  0.91053400  0.64877500  1
loop_
_geom_bond_atom_site_label_1
_geom_bond_atom_site_label_2
_geom_bond_distance
_geom_bond_site_symmetry_2
Li0 O3 2.064986 1_545
Li0 O9 2.065232 1_554
Li0 O2 2.101478 1_555
Li0 O0 2.155762 1_555
Li0 O6 2.158634 1_544
Li0 O11 2.178659 1_544
Li1 O8 2.075196 1_555
Li1 O1 2.081952 1_455
Li1 O7 2.098603 1_555
Li1 O5 2.149332 1_455
Li1 O3 2.153368 1_556
Li1 O11 2.202336 1_555
Li2 O6 2.110542 1_554
Li2 O4 2.115841 1_555
Li2 O10 2.132656 1_665
Li2 O1 2.187680 1_555
Li2 O8 2.207933 1_655
Li2 O2 2.368855 1_565
Li3 O4 2.101155 1_555
Li3 O7 2.137859 1_554
Li3 O6 2.153463 1_554
Li3 O0 2.159365 1_555
Li3 O3 2.342914 1_555
Li3 O9 2.403908 1_554
Li4 O5 2.075649 1_555
Li4 O10 2.089686 1_655
Li4 O9 2.098390 1_554
Li4 O4 2.103578 1_555
Li4 O8 2.174873 1_655
Li4 O2 2.241982 1_555
Li5 O7 2.096410 1_555
Li5 O1 2.110545 1_445
Li5 O0 2.132094 1_556
Li5 O10 2.162901 1_555
Li5 O5 2.206826 1_455
Li5 O11 2.337690 1_545
Li6 O8 2.043512 1_556
Li6 O5 2.055759 1_455
Li6 O3 2.065372 1_556
Li6 O9 2.090048 1_455
Li6 O6 2.179951 1_455
Li6 O0 2.185961 1_556
Mn0 O10 1.935659 1_565
Mn0 O1 1.946969 1_454
Mn0 O3 1.960781 1_555
Mn0 O9 1.963224 1_464
Mn0 O0 1.964833 1_565
Mn0 O6 1.968518 1_454
Mn1 O5 1.923574 1_555
Mn1 O9 1.945468 1_555
Mn1 O11 1.976447 1_545
Mn1 O2 1.988347 1_555
Mn1 O1 2.238874 1_545
Mn1 O7 2.250717 1_555
Mn2 O6 1.928551 1_555
Mn2 O4 1.965745 1_555
Mn2 O1 2.020257 1_555
Mn2 O7 2.023087 1_555
Mn2 O5 2.023920 1_555
Mn2 O11 2.111147 1_555
Mn3 O0 1.919366 1_555
Mn3 O7 1.964992 1_555
Mn3 O10 1.999423 1_555
Mn3 O4 2.002054 1_555
Mn3 O8 2.003738 1_555
Mn3 O2 2.104451 1_555
Co0 O8 1.893717 1_555
Co0 O3 1.908271 1_555
Co0 O2 1.941711 1_565
Co0 O11 1.951718 1_555
Co0 O10 2.228303 1_565
Co0 O4 2.249956 1_555
