# generated using pymatgen
data_Ti3Cr2Cu(PO4)6
_symmetry_space_group_name_H-M   'P 1'
_cell_length_a   8.58572021
_cell_length_b   8.58572055
_cell_length_c   8.58571921
_cell_angle_alpha   60.53790005
_cell_angle_beta   60.53790056
_cell_angle_gamma   60.53789895
_symmetry_Int_Tables_number   1
_chemical_formula_structural   Ti3Cr2Cu(PO4)6
_chemical_formula_sum   'Ti3 Cr2 Cu1 P6 O24'
_cell_volume   452.96175001
_cell_formula_units_Z   1
loop_
 _symmetry_equiv_pos_site_id
 _symmetry_equiv_pos_as_xyz
  1  'x, y, z'
loop_
 _atom_site_type_symbol
 _atom_site_label
 _atom_site_symmetry_multiplicity
 _atom_site_fract_x
 _atom_site_fract_y
 _atom_site_fract_z
 _atom_site_occupancy
  Ti  Ti0  1  0.14488700  0.14488700  0.14488700  1
  Ti  Ti1  1  0.35448500  0.35448500  0.35448500  1
  Ti  Ti2  1  0.64626200  0.64626200  0.64626200  1
  Cr  Cr0  1  0.99733200  0.99733200  0.99733200  1
  Cr  Cr1  1  0.49877700  0.49877700  0.49877700  1
  Cu  Cu0  1  0.85169600  0.85169600  0.85169600  1
  P  P0  1  0.04580600  0.75367400  0.45325100  1
  P  P1  1  0.45325100  0.04580600  0.75367400  1
  P  P2  1  0.25152100  0.54516400  0.95583400  1
  P  P3  1  0.54516400  0.95583400  0.25152100  1
  P  P4  1  0.95583400  0.25152100  0.54516400  1
  P  P5  1  0.75367400  0.45325100  0.04580600  1
  O  O0  1  0.11341600  0.32794500  0.48529900  1
  O  O1  1  0.32794500  0.48529900  0.11341600  1
  O  O2  1  0.05701900  0.91274000  0.25260500  1
  O  O3  1  0.48529900  0.11341600  0.32794500  1
  O  O4  1  0.01905100  0.81768200  0.60073900  1
  O  O5  1  0.23974000  0.58825500  0.42760700  1
  O  O6  1  0.25260500  0.05701900  0.91274000  1
  O  O7  1  0.42760700  0.23974000  0.58825500  1
  O  O8  1  0.18770200  0.38112300  0.00151400  1
  O  O9  1  0.58825500  0.42760700  0.23974000  1
  O  O10  1  0.09558300  0.73720000  0.95149700  1
  O  O11  1  0.38112300  0.00151400  0.18770200  1
  O  O12  1  0.60073900  0.01905100  0.81768200  1
  O  O13  1  0.91274000  0.25260500  0.05701900  1
  O  O14  1  0.41528700  0.55473000  0.76173300  1
  O  O15  1  0.81768200  0.60073900  0.01905100  1
  O  O16  1  0.55473000  0.76173300  0.41528700  1
  O  O17  1  0.73720000  0.95149700  0.09558300  1
  O  O18  1  0.76173300  0.41528700  0.55473000  1
  O  O19  1  0.00151400  0.18770200  0.38112300  1
  O  O20  1  0.50217300  0.87940800  0.69126500  1
  O  O21  1  0.95149700  0.09558300  0.73720000  1
  O  O22  1  0.69126500  0.50217300  0.87940800  1
  O  O23  1  0.87940800  0.69126500  0.50217300  1
loop_
_geom_bond_atom_site_label_1
_geom_bond_atom_site_label_2
_geom_bond_distance
_geom_bond_site_symmetry_2
Cr0 O21 2.130575 1_565
Cr0 O17 2.130575 1_556
Cr0 O10 2.130575 1_655
Cr0 O2 2.183239 1_656
Cr0 O13 2.183239 1_566
Cr0 O6 2.183239 1_665
Cr1 O14 2.231112 1_555
Cr1 O18 2.231112 1_555
Cr1 O16 2.231113 1_555
Cr1 O9 2.259239 1_555
Cr1 O5 2.259239 1_555
Cr1 O7 2.259239 1_555
Cu0 O4 1.988242 1_655
Cu0 O12 1.988242 1_565
Cu0 O15 1.988242 1_556
Cu0 O17 2.235330 1_556
Cu0 O10 2.235331 1_655
Cu0 O21 2.235331 1_565
O0 P4 1.543589 1_455
O0 Ti1 1.876886 1_555
O1 P2 1.543589 1_554
O1 Ti1 1.876885 1_555
O2 P0 1.579220 1_555
O2 Ti0 2.092038 1_565
O3 P3 1.543589 1_545
O3 Ti1 1.876886 1_555
O4 P0 1.494155 1_555
O5 P0 1.568036 1_555
O5 Ti1 2.019680 1_555
O6 P1 1.579220 1_555
O6 Ti0 2.092038 1_556
O7 P1 1.568036 1_555
O7 Ti1 2.019680 1_555
O8 P2 1.562702 1_554
O8 Ti0 1.896451 1_555
O9 P5 1.568036 1_555
O9 Ti1 2.019680 1_555
O10 P2 1.526275 1_555
O11 P3 1.562702 1_545
O11 Ti0 1.896451 1_555
O12 P1 1.494156 1_555
O13 P5 1.579220 1_555
O13 Ti0 2.092038 1_655
O14 P2 1.560422 1_555
O14 Ti2 2.089437 1_555
O15 P5 1.494156 1_555
O16 P3 1.560422 1_555
O16 Ti2 2.089436 1_555
O17 P3 1.526275 1_555
O18 P4 1.560422 1_555
O18 Ti2 2.089437 1_555
O19 P4 1.562702 1_455
O19 Ti0 1.896450 1_555
O20 P1 1.563939 1_565
O20 Ti2 1.881829 1_555
O21 P4 1.526275 1_555
O22 P5 1.563939 1_556
O22 Ti2 1.881828 1_555
O23 P0 1.563940 1_655
O23 Ti2 1.881829 1_555
