# generated using pymatgen
data_MgAu5
_symmetry_space_group_name_H-M   'P 1'
_cell_length_a   5.02602261
_cell_length_b   5.02602261
_cell_length_c   4.78337415
_cell_angle_alpha   90.00000000
_cell_angle_beta   90.00000000
_cell_angle_gamma   119.99999243
_symmetry_Int_Tables_number   1
_chemical_formula_structural   MgAu5
_chemical_formula_sum   'Mg1 Au5'
_cell_volume   104.64389398
_cell_formula_units_Z   1
loop_
 _symmetry_equiv_pos_site_id
 _symmetry_equiv_pos_as_xyz
  1  'x, y, z'
loop_
 _atom_site_type_symbol
 _atom_site_label
 _atom_site_symmetry_multiplicity
 _atom_site_fract_x
 _atom_site_fract_y
 _atom_site_fract_z
 _atom_site_occupancy
  Mg  Mg0  1  -0.00000000  0.00000000  0.50000000  1
  Au  Au0  1  0.33333300  0.66666700  0.50000000  1
  Au  Au1  1  0.00000000  0.67079445  -0.00000000  1
  Au  Au2  1  0.67079445  0.00000000  0.00000000  1
  Au  Au3  1  0.32920555  0.32920555  -0.00000000  1
  Au  Au4  1  0.66666700  0.33333300  0.50000000  1
loop_
_geom_bond_atom_site_label_1
_geom_bond_atom_site_label_2
_geom_bond_distance
_geom_bond_site_symmetry_2
Au0 Mg0 2.901772 1_565
Au0 Au4 2.901773 1_455
Au0 Au4 2.901773 1_565
Au0 Mg0 2.901777 1_555
Au0 Mg0 2.901777 1_665
Au0 Au4 2.901781 1_555
Au0 Au1 2.926109 1_556
Au0 Au1 2.926109 1_555
Au0 Au2 2.926110 1_566
Au0 Au2 2.926110 1_565
Au0 Au3 2.926112 1_556
Au0 Au3 2.926112 1_555
Au1 Au2 2.865842 1_465
Au1 Au3 2.865842 1_565
Au1 Mg0 2.908238 1_565
Au1 Mg0 2.908238 1_564
Au1 Au3 2.919908 1_555
Au1 Au2 2.919908 1_455
Au1 Au2 2.919908 1_565
Au1 Au3 2.919908 1_455
Au1 Au4 2.926110 1_455
Au1 Au4 2.926110 1_454
Au2 Au3 2.865842 1_655
Au2 Mg0 2.908238 1_654
Au2 Mg0 2.908238 1_655
Au2 Au3 2.919908 1_555
Au2 Au3 2.919908 1_545
Au2 Au4 2.926109 1_555
Au2 Au4 2.926109 1_554
Au3 Mg0 2.908238 1_554
Au3 Mg0 2.908238 1_555
Au3 Au4 2.926112 1_554
Au3 Au4 2.926112 1_555
Au4 Mg0 2.901772 1_655
Au4 Mg0 2.901777 1_665
Au4 Mg0 2.901777 1_555
