# generated using pymatgen
data_U3Sb4Ir3
_symmetry_space_group_name_H-M   'P 1'
_cell_length_a   8.32412533
_cell_length_b   8.32412533
_cell_length_c   8.32412533
_cell_angle_alpha   109.47122063
_cell_angle_beta   109.47122063
_cell_angle_gamma   109.47122063
_symmetry_Int_Tables_number   1
_chemical_formula_structural   U3Sb4Ir3
_chemical_formula_sum   'U6 Sb8 Ir6'
_cell_volume   444.01121572
_cell_formula_units_Z   2
loop_
 _symmetry_equiv_pos_site_id
 _symmetry_equiv_pos_as_xyz
  1  'x, y, z'
loop_
 _atom_site_type_symbol
 _atom_site_label
 _atom_site_symmetry_multiplicity
 _atom_site_fract_x
 _atom_site_fract_y
 _atom_site_fract_z
 _atom_site_occupancy
  U  U0  1  0.87500000  0.25000000  0.12500000  1
  U  U1  1  0.62500000  0.75000000  0.37500000  1
  U  U2  1  0.25000000  0.12500000  0.87500000  1
  U  U3  1  0.75000000  0.37500000  0.62500000  1
  U  U4  1  0.12500000  0.87500000  0.25000000  1
  U  U5  1  0.37500000  0.62500000  0.75000000  1
  Sb  Sb0  1  0.67572200  0.50000000  0.00000000  1
  Sb  Sb1  1  0.50000000  0.00000000  0.67572200  1
  Sb  Sb2  1  0.00000000  0.67572200  0.50000000  1
  Sb  Sb3  1  0.82427800  0.82427800  0.82427800  1
  Sb  Sb4  1  0.50000000  0.00000000  0.17572200  1
  Sb  Sb5  1  0.17572200  0.50000000  0.00000000  1
  Sb  Sb6  1  0.00000000  0.17572200  0.50000000  1
  Sb  Sb7  1  0.32427800  0.32427800  0.32427800  1
  Ir  Ir0  1  0.37500000  0.25000000  0.62500000  1
  Ir  Ir1  1  0.12500000  0.75000000  0.87500000  1
  Ir  Ir2  1  0.25000000  0.62500000  0.37500000  1
  Ir  Ir3  1  0.75000000  0.87500000  0.12500000  1
  Ir  Ir4  1  0.62500000  0.37500000  0.25000000  1
  Ir  Ir5  1  0.87500000  0.12500000  0.75000000  1
loop_
_geom_bond_atom_site_label_1
_geom_bond_atom_site_label_2
_geom_bond_distance
_geom_bond_site_symmetry_2
Sb0 U0 3.280134 1_555
Sb0 U4 3.280134 1_655
Sb0 U3 3.280134 1_554
Sb0 U5 3.374423 1_554
Sb0 U2 3.374423 1_554
Sb0 U1 3.374423 1_555
Sb1 U0 3.280134 1_556
Sb1 U2 3.280134 1_555
Sb1 U5 3.280134 1_545
Sb1 U3 3.374423 1_555
Sb1 U4 3.374423 1_545
Sb1 U1 3.374423 1_545
Sb2 U2 3.280134 1_565
Sb2 U1 3.280134 1_455
Sb2 U4 3.280134 1_555
Sb2 U5 3.374423 1_555
Sb2 U3 3.374423 1_455
Sb2 U0 3.374423 1_455
Sb3 U1 3.280134 1_555
Sb3 U3 3.280134 1_555
Sb3 U5 3.280134 1_555
Sb3 U0 3.374423 1_566
Sb3 U4 3.374423 1_656
Sb3 U2 3.374423 1_665
Sb4 U3 3.280134 1_555
Sb4 U4 3.280134 1_545
Sb4 U1 3.280134 1_545
Sb4 U5 3.374423 1_544
Sb4 U2 3.374423 1_554
Sb4 U0 3.374423 1_555
Sb5 U1 3.280134 1_555
Sb5 U5 3.280134 1_554
Sb5 U2 3.280134 1_554
Sb5 U4 3.374423 1_555
Sb5 U0 3.374423 1_455
Sb5 U3 3.374423 1_454
Sb6 U3 3.280134 1_455
Sb6 U0 3.280134 1_455
Sb6 U5 3.280134 1_555
Sb6 U2 3.374423 1_555
Sb6 U4 3.374423 1_545
Sb6 U1 3.374423 1_445
Sb7 U0 3.280134 1_455
Sb7 U2 3.280134 1_554
Sb7 U4 3.280134 1_545
Sb7 U3 3.374423 1_555
Sb7 U1 3.374423 1_555
Sb7 U5 3.374423 1_555
Ir0 Sb0 2.707042 1_556
Ir0 Sb7 2.707042 1_555
Ir0 Sb1 2.707042 1_555
Ir0 Sb6 2.707042 1_555
Ir0 U4 2.943023 1_545
Ir0 U2 2.943023 1_555
Ir0 U5 2.943023 1_555
Ir0 U3 2.943023 1_555
Ir1 Sb4 2.707042 1_566
Ir1 Sb2 2.707042 1_555
Ir1 Sb3 2.707042 1_455
Ir1 Sb5 2.707042 1_556
Ir1 U2 2.943023 1_565
Ir1 U4 2.943023 1_556
Ir1 U5 2.943023 1_555
Ir1 U3 2.943023 1_455
Ir2 Sb7 2.707042 1_555
Ir2 Sb2 2.707042 1_555
Ir2 Sb5 2.707042 1_555
Ir2 Sb1 2.707042 1_565
Ir2 U5 2.943023 1_555
Ir2 U4 2.943023 1_555
Ir2 U1 2.943023 1_555
Ir2 U0 2.943023 1_455
Ir3 Sb6 2.707042 1_665
Ir3 Sb4 2.707042 1_565
Ir3 Sb3 2.707042 1_554
Ir3 Sb0 2.707042 1_555
Ir3 U1 2.943023 1_555
Ir3 U0 2.943023 1_565
Ir3 U5 2.943023 1_554
Ir3 U4 2.943023 1_655
Ir4 Sb2 2.707042 1_655
Ir4 Sb7 2.707042 1_555
Ir4 Sb4 2.707042 1_555
Ir4 Sb0 2.707042 1_555
Ir4 U3 2.943023 1_555
Ir4 U2 2.943023 1_554
Ir4 U0 2.943023 1_555
Ir4 U1 2.943023 1_555
Ir5 Sb6 2.707042 1_655
Ir5 Sb3 2.707042 1_545
Ir5 Sb5 2.707042 1_656
Ir5 Sb1 2.707042 1_555
Ir5 U0 2.943023 1_556
Ir5 U1 2.943023 1_545
Ir5 U2 2.943023 1_655
Ir5 U3 2.943023 1_555
