# generated using pymatgen
data_Fe4(AsO7)3
_symmetry_space_group_name_H-M   'P 1'
_cell_length_a   8.34348804
_cell_length_b   8.34348804
_cell_length_c   7.86664500
_cell_angle_alpha   90.00000000
_cell_angle_beta   90.00000000
_cell_angle_gamma   92.15525337
_symmetry_Int_Tables_number   1
_chemical_formula_structural   Fe4(AsO7)3
_chemical_formula_sum   'Fe4 As3 O21'
_cell_volume   547.23959838
_cell_formula_units_Z   1
loop_
 _symmetry_equiv_pos_site_id
 _symmetry_equiv_pos_as_xyz
  1  'x, y, z'
loop_
 _atom_site_type_symbol
 _atom_site_label
 _atom_site_symmetry_multiplicity
 _atom_site_fract_x
 _atom_site_fract_y
 _atom_site_fract_z
 _atom_site_occupancy
  Fe  Fe0  1  0.86464200  0.13535800  0.83877700  1
  Fe  Fe1  1  0.80976700  0.80976700  0.13332200  1
  Fe  Fe2  1  0.19023300  0.19023300  0.13332200  1
  Fe  Fe3  1  0.13535800  0.86464200  0.83877700  1
  As  As0  1  0.00000000  0.00000000  0.47351400  1
  As  As1  1  0.00000000  0.50000000  0.98360100  1
  As  As2  1  0.50000000  0.00000000  0.98360100  1
  O  O0  1  0.19377400  0.80622600  0.19633600  1
  O  O1  1  0.09140700  0.09140700  0.93870700  1
  O  O2  1  0.90859300  0.90859300  0.93870700  1
  O  O3  1  0.80622600  0.19377400  0.19633600  1
  O  O4  1  0.63623500  0.10634600  0.86230000  1
  O  O5  1  0.88382400  0.11617600  0.59876200  1
  O  O6  1  0.89365400  0.36376500  0.86230000  1
  O  O7  1  0.59353300  0.86466500  0.11266800  1
  O  O8  1  0.87826200  0.87826200  0.35008500  1
  O  O9  1  0.86466500  0.59353300  0.11266800  1
  O  O10  1  0.40646700  0.13533500  0.11266800  1
  O  O11  1  0.12173800  0.12173800  0.35008500  1
  O  O12  1  0.13533500  0.40646700  0.11266800  1
  O  O13  1  0.36376500  0.89365400  0.86230000  1
  O  O14  1  0.11617600  0.88382400  0.59876200  1
  O  O15  1  0.10634600  0.63623500  0.86230000  1
  O  O16  1  0.28413300  0.71586700  0.27055700  1
  O  O17  1  0.40496300  0.40496300  0.78474000  1
  O  O18  1  0.59503700  0.59503700  0.78474000  1
  O  O19  1  0.71586700  0.28413300  0.27055700  1
  O  O20  1  0.50000000  0.50000000  0.86883600  1
loop_
_geom_bond_atom_site_label_1
_geom_bond_atom_site_label_2
_geom_bond_distance
_geom_bond_site_symmetry_2
Fe0 O5 1.902137 1_555
Fe0 O4 1.920905 1_555
Fe0 O6 1.920905 1_555
Fe0 O2 2.093881 1_545
Fe0 O1 2.093881 1_655
Fe1 O8 1.880513 1_555
Fe1 O9 1.885019 1_555
Fe1 O7 1.885019 1_555
Fe1 O2 1.911151 1_554
Fe2 O11 1.880513 1_555
Fe2 O12 1.885019 1_555
Fe2 O10 1.885019 1_555
Fe2 O1 1.911151 1_554
Fe3 O14 1.902137 1_555
Fe3 O15 1.920905 1_555
Fe3 O13 1.920905 1_555
Fe3 O2 2.093881 1_455
Fe3 O1 2.093881 1_565
As0 O5 1.708972 1_455
As0 O14 1.708972 1_545
As0 O8 1.711304 1_445
As0 O11 1.711304 1_555
As1 O15 1.707051 1_555
As1 O6 1.707051 1_455
As1 O12 1.726612 1_556
As1 O9 1.726612 1_456
As2 O4 1.707051 1_555
As2 O13 1.707051 1_545
As2 O10 1.726612 1_556
As2 O7 1.726612 1_546
O0 O16 1.233050 1_555
O17 O20 1.283694 1_555
O18 O20 1.283694 1_555
O19 O3 1.233050 1_555
