# generated using pymatgen
data_NpAl4
_symmetry_space_group_name_H-M   'P 1'
_cell_length_a   7.86106050
_cell_length_b   7.85885743
_cell_length_c   7.86119514
_cell_angle_alpha   147.34996802
_cell_angle_beta   133.28371770
_cell_angle_gamma   58.15342344
_symmetry_Int_Tables_number   1
_chemical_formula_structural   NpAl4
_chemical_formula_sum   'Np2 Al8'
_cell_volume   189.20939369
_cell_formula_units_Z   2
loop_
 _symmetry_equiv_pos_site_id
 _symmetry_equiv_pos_as_xyz
  1  'x, y, z'
loop_
 _atom_site_type_symbol
 _atom_site_label
 _atom_site_symmetry_multiplicity
 _atom_site_fract_x
 _atom_site_fract_y
 _atom_site_fract_z
 _atom_site_occupancy
  Np  Np0  1  0.13873802  0.88873724  0.24990266  1
  Np  Np1  1  0.86126858  0.11127118  0.75009807  1
  Al  Al0  1  0.00001210  0.49999298  0.50001681  1
  Al  Al1  1  0.49997008  0.49999235  -0.00002312  1
  Al  Al2  1  0.36403580  0.11405084  0.24987124  1
  Al  Al3  1  0.63594899  0.88594147  0.75013678  1
  Al  Al4  1  0.23003603  0.69903073  0.53186777  1
  Al  Al5  1  0.76998649  0.30097792  0.46814312  1
  Al  Al6  1  0.33286947  0.30197252  0.03203712  1
  Al  Al7  1  0.66713344  0.69803375  0.96795055  1
loop_
_geom_bond_atom_site_label_1
_geom_bond_atom_site_label_2
_geom_bond_distance
_geom_bond_site_symmetry_2
Al0 Al5 2.735333 1_455
Al0 Al4 2.735622 1_555
Al0 Np0 3.104506 1_545
Al0 Np1 3.104759 1_465
Al0 Np0 3.105934 1_556
Al0 Np1 3.106165 1_454
Al0 Al2 3.124804 1_566
Al0 Al3 3.124910 1_444
Al0 Al2 3.125418 1_555
Al0 Al3 3.125586 1_455
Al1 Al6 2.735418 1_555
Al1 Al7 2.735747 1_554
Al1 Np0 3.105594 1_555
Al1 Np0 3.105659 1_544
Al1 Np1 3.105873 1_554
Al1 Np1 3.105952 1_565
Al1 Al2 3.124374 1_565
Al1 Al3 3.124496 1_544
Al1 Al2 3.126471 1_554
Al1 Al3 3.126646 1_555
Al2 Al7 2.841754 1_555
Al2 Al4 2.842215 1_544
Al2 Al4 2.844039 1_555
Al2 Al7 2.845415 1_544
Al2 Al6 2.911217 1_555
Al2 Al5 2.912062 1_555
Al2 Np0 3.095631 1_545
Al2 Np1 3.116269 1_454
Al2 Np1 3.117754 1_555
Al3 Al6 2.841673 1_555
Al3 Al5 2.842076 1_566
Al3 Al5 2.843964 1_555
Al3 Al6 2.845250 1_566
Al3 Al7 2.910875 1_555
Al3 Al4 2.911716 1_555
Al3 Np1 3.095941 1_565
Al3 Np0 3.116268 1_656
Al3 Np0 3.117763 1_555
Al4 Al6 2.622193 1_566
Al4 Al6 2.622238 1_555
Al4 Al7 2.724601 1_555
Al4 Np1 3.064589 1_465
Al4 Np1 3.067079 1_454
Al4 Np0 3.147284 1_555
Al5 Al7 2.622200 1_544
Al5 Al7 2.622222 1_555
Al5 Al6 2.724728 1_555
Al5 Np0 3.064518 1_645
Al5 Np0 3.067026 1_656
Al5 Np1 3.147273 1_555
Al6 Np0 3.063412 1_555
Al6 Np0 3.068987 1_544
Al6 Np1 3.147237 1_454
Al7 Np1 3.063439 1_555
Al7 Np1 3.069051 1_566
Al7 Np0 3.147222 1_656
