# generated using pymatgen
data_Na3Tl
_symmetry_space_group_name_H-M   'P 1'
_cell_length_a   6.94570499
_cell_length_b   6.94570878
_cell_length_c   5.71381116
_cell_angle_alpha   90.00000000
_cell_angle_beta   90.00000000
_cell_angle_gamma   120.00001730
_symmetry_Int_Tables_number   1
_chemical_formula_structural   Na3Tl
_chemical_formula_sum   'Na6 Tl2'
_cell_volume   238.72029507
_cell_formula_units_Z   2
loop_
 _symmetry_equiv_pos_site_id
 _symmetry_equiv_pos_as_xyz
  1  'x, y, z'
loop_
 _atom_site_type_symbol
 _atom_site_label
 _atom_site_symmetry_multiplicity
 _atom_site_fract_x
 _atom_site_fract_y
 _atom_site_fract_z
 _atom_site_occupancy
  Na  Na0  1  0.17535195  0.35070291  0.25000000  1
  Na  Na1  1  0.64929709  0.82464905  0.25000000  1
  Na  Na2  1  0.17535195  0.82464905  0.25000000  1
  Na  Na3  1  0.82464805  0.64929709  0.75000000  1
  Na  Na4  1  0.35070291  0.17535095  0.75000000  1
  Na  Na5  1  0.82464805  0.17535095  0.75000000  1
  Tl  Tl0  1  0.33333300  0.66666700  0.75000000  1
  Tl  Tl1  1  0.66666700  0.33333300  0.25000000  1
loop_
_geom_bond_atom_site_label_1
_geom_bond_atom_site_label_2
_geom_bond_distance
_geom_bond_site_symmetry_2
Na0 Na1 3.291887 1_555
Na0 Na2 3.291892 1_555
Na0 Tl0 3.431340 1_555
Na0 Tl0 3.431340 1_554
Na0 Tl1 3.474424 1_455
Na0 Tl1 3.474424 1_555
Na0 Na4 3.551344 1_554
Na0 Na4 3.551344 1_555
Na0 Na5 3.551347 1_455
Na0 Na5 3.551347 1_454
Na0 Na2 3.653817 1_545
Na0 Na1 3.653818 1_445
Na1 Na2 3.291883 1_555
Na1 Tl0 3.431339 1_554
Na1 Tl0 3.431339 1_555
Na1 Tl1 3.474419 1_565
Na1 Tl1 3.474433 1_555
Na1 Na5 3.551340 1_565
Na1 Na5 3.551340 1_564
Na1 Na3 3.551344 1_555
Na1 Na3 3.551344 1_554
Na1 Na2 3.653822 1_655
Na2 Tl0 3.431336 1_555
Na2 Tl0 3.431336 1_554
Na2 Tl1 3.474420 1_565
Na2 Tl1 3.474427 1_455
Na2 Na4 3.551340 1_564
Na2 Na4 3.551340 1_565
Na2 Na3 3.551347 1_455
Na2 Na3 3.551347 1_454
Na3 Na4 3.291887 1_555
Na3 Na5 3.291892 1_555
Na3 Tl1 3.431340 1_556
Na3 Tl1 3.431340 1_555
Na3 Tl0 3.474424 1_655
Na3 Tl0 3.474424 1_555
Na3 Na5 3.653817 1_565
Na3 Na4 3.653818 1_665
Na4 Na5 3.291883 1_555
Na4 Tl1 3.431339 1_555
Na4 Tl1 3.431339 1_556
Na4 Tl0 3.474419 1_545
Na4 Tl0 3.474433 1_555
Na4 Na5 3.653822 1_455
Na5 Tl1 3.431336 1_556
Na5 Tl1 3.431336 1_555
Na5 Tl0 3.474420 1_545
Na5 Tl0 3.474427 1_655
