# generated using pymatgen
data_LaSiRh
_symmetry_space_group_name_H-M   'P 1'
_cell_length_a   6.39128308
_cell_length_b   6.39128308
_cell_length_c   6.39128308
_cell_angle_alpha   90.00000000
_cell_angle_beta   90.00000000
_cell_angle_gamma   90.00000000
_symmetry_Int_Tables_number   1
_chemical_formula_structural   LaSiRh
_chemical_formula_sum   'La4 Si4 Rh4'
_cell_volume   261.07432311
_cell_formula_units_Z   4
loop_
 _symmetry_equiv_pos_site_id
 _symmetry_equiv_pos_as_xyz
  1  'x, y, z'
loop_
 _atom_site_type_symbol
 _atom_site_label
 _atom_site_symmetry_multiplicity
 _atom_site_fract_x
 _atom_site_fract_y
 _atom_site_fract_z
 _atom_site_occupancy
  La  La0  1  0.36278626  0.86278626  0.63721374  1
  La  La1  1  0.86278626  0.63721374  0.36278626  1
  La  La2  1  0.63721374  0.36278626  0.86278626  1
  La  La3  1  0.13721374  0.13721374  0.13721374  1
  Si  Si0  1  0.65944472  0.15944472  0.34055528  1
  Si  Si1  1  0.15944472  0.34055528  0.65944472  1
  Si  Si2  1  0.34055528  0.65944472  0.15944472  1
  Si  Si3  1  0.84055528  0.84055528  0.84055528  1
  Rh  Rh0  1  0.07730946  0.57730946  0.92269054  1
  Rh  Rh1  1  0.57730946  0.92269054  0.07730946  1
  Rh  Rh2  1  0.92269054  0.07730946  0.57730946  1
  Rh  Rh3  1  0.42269054  0.42269054  0.42269054  1
loop_
_geom_bond_atom_site_label_1
_geom_bond_atom_site_label_2
_geom_bond_distance
_geom_bond_site_symmetry_2
La0 Rh3 3.152484 1_555
La0 Rh1 3.152484 1_556
La0 Rh2 3.152484 1_465
La0 Rh0 3.160236 1_555
La0 Si0 3.284017 1_565
La0 Si3 3.321655 1_555
La0 Si1 3.321655 1_565
La0 Si2 3.321655 1_555
La1 Rh0 3.152484 1_654
La1 Rh2 3.152484 1_565
La1 Rh3 3.152484 1_555
La1 Rh1 3.160236 1_555
La1 Si1 3.284017 1_655
La1 Si0 3.321655 1_555
La1 Si2 3.321655 1_655
La1 Si3 3.321655 1_555
La2 Rh3 3.152484 1_555
La2 Rh1 3.152484 1_546
La2 Rh0 3.152484 1_655
La2 Rh2 3.160236 1_555
La2 Si2 3.284017 1_556
La2 Si3 3.321655 1_555
La2 Si1 3.321655 1_555
La2 Si0 3.321655 1_556
La3 Rh2 3.152484 1_455
La3 Rh1 3.152484 1_545
La3 Rh0 3.152484 1_554
La3 Rh3 3.160236 1_555
La3 Si3 3.284017 1_444
La3 Si0 3.321655 1_455
La3 Si1 3.321655 1_554
La3 Si2 3.321655 1_545
Rh0 Si3 2.322922 1_455
Rh0 Si1 2.322922 1_555
Rh0 Si2 2.322922 1_556
Rh1 Si3 2.322922 1_554
Rh1 Si2 2.322922 1_555
Rh1 Si0 2.322922 1_565
Rh2 Si3 2.322922 1_545
Rh2 Si1 2.322922 1_655
Rh2 Si0 2.322922 1_555
Rh3 Si2 2.322922 1_555
Rh3 Si0 2.322922 1_555
Rh3 Si1 2.322922 1_555
