# generated using pymatgen
data_U(Fe5Mo)2
_symmetry_space_group_name_H-M   'P 1'
_cell_length_a   4.66345500
_cell_length_b   6.50753154
_cell_length_c   6.50753154
_cell_angle_alpha   96.72706968
_cell_angle_beta   110.99656968
_cell_angle_gamma   69.00343032
_symmetry_Int_Tables_number   1
_chemical_formula_structural   U(Fe5Mo)2
_chemical_formula_sum   'U1 Fe10 Mo2'
_cell_volume   172.11852930
_cell_formula_units_Z   1
loop_
 _symmetry_equiv_pos_site_id
 _symmetry_equiv_pos_as_xyz
  1  'x, y, z'
loop_
 _atom_site_type_symbol
 _atom_site_label
 _atom_site_symmetry_multiplicity
 _atom_site_fract_x
 _atom_site_fract_y
 _atom_site_fract_z
 _atom_site_occupancy
  U  U0  1  0.00000000  0.00000000  0.00000000  1
  Fe  Fe0  1  0.50000000  0.00000000  0.50000000  1
  Fe  Fe1  1  0.00000000  0.00000000  0.50000000  1
  Fe  Fe2  1  0.50000000  0.50000000  0.00000000  1
  Fe  Fe3  1  0.00000000  0.50000000  0.00000000  1
  Fe  Fe4  1  0.71234000  0.78766000  0.21234000  1
  Fe  Fe5  1  0.28766000  0.21234000  0.78766000  1
  Fe  Fe6  1  0.50000000  0.77542000  0.77542000  1
  Fe  Fe7  1  0.50000000  0.22458000  0.22458000  1
  Fe  Fe8  1  0.64643900  0.35356100  0.64643900  1
  Fe  Fe9  1  0.35356100  0.64643900  0.35356100  1
  Mo  Mo0  1  0.00000000  0.35673200  0.35673200  1
  Mo  Mo1  1  0.00000000  0.64326800  0.64326800  1
loop_
_geom_bond_atom_site_label_1
_geom_bond_atom_site_label_2
_geom_bond_distance
_geom_bond_site_symmetry_2
Fe0 Fe1 2.331727 1_555
Fe0 Fe1 2.331727 1_655
Fe0 Fe7 2.441699 1_555
Fe0 Fe6 2.441699 1_545
Fe0 Fe4 2.477096 1_545
Fe0 Fe5 2.477096 1_555
Fe0 Mo0 2.601036 1_555
Fe0 Mo1 2.601036 1_645
Fe0 Fe9 2.610396 1_545
Fe0 Fe8 2.610396 1_555
Fe0 U0 3.253766 1_555
Fe0 U0 3.253766 1_656
Fe1 Fe7 2.441699 1_455
Fe1 Fe6 2.441699 1_545
Fe1 Fe5 2.477096 1_555
Fe1 Fe4 2.477096 1_445
Fe1 Mo1 2.601036 1_545
Fe1 Mo0 2.601036 1_555
Fe1 Fe9 2.610397 1_545
Fe1 Fe8 2.610397 1_455
Fe1 U0 3.253766 1_555
Fe1 U0 3.253766 1_556
Fe2 Fe3 2.331727 1_655
Fe2 Fe3 2.331727 1_555
Fe2 Fe6 2.441699 1_554
Fe2 Fe7 2.441699 1_555
Fe2 Fe4 2.477096 1_555
Fe2 Fe5 2.477096 1_554
Fe2 Mo0 2.601036 1_655
Fe2 Mo1 2.601036 1_554
Fe2 Fe9 2.610396 1_555
Fe2 Fe8 2.610396 1_554
Fe2 U0 3.253766 1_655
Fe2 U0 3.253766 1_565
Fe3 Fe6 2.441699 1_454
Fe3 Fe7 2.441699 1_555
Fe3 Fe4 2.477096 1_455
Fe3 Fe5 2.477096 1_554
Fe3 Mo1 2.601036 1_554
Fe3 Mo0 2.601036 1_555
Fe3 Fe8 2.610397 1_454
Fe3 Fe9 2.610397 1_555
Fe3 U0 3.253766 1_555
Fe3 U0 3.253766 1_565
Fe4 Fe9 2.624922 1_555
Fe4 Fe9 2.624922 1_655
Fe4 Fe7 2.656483 1_565
Fe4 Fe6 2.656483 1_554
Fe4 Mo1 2.750386 1_655
Fe4 Mo0 2.750386 1_655
Fe4 U0 2.953389 1_665
Fe4 U0 2.953390 1_565
Fe5 Fe8 2.624922 1_555
Fe5 Fe8 2.624922 1_455
Fe5 Fe6 2.656483 1_545
Fe5 Fe7 2.656483 1_556
Fe5 Mo1 2.750386 1_555
Fe5 Mo0 2.750386 1_555
Fe5 U0 2.953389 1_556
Fe5 U0 2.953390 1_656
Fe6 Mo1 2.596696 1_555
Fe6 Mo1 2.596696 1_655
Fe6 Fe9 2.689751 1_555
Fe6 Fe8 2.689751 1_555
Fe6 U0 3.034518 1_666
Fe6 U0 3.034518 1_566
Fe7 Mo0 2.596696 1_655
Fe7 Mo0 2.596696 1_555
Fe7 Fe9 2.689751 1_555
Fe7 Fe8 2.689751 1_555
Fe7 U0 3.034518 1_655
Fe7 U0 3.034518 1_555
Fe8 Fe9 2.500111 1_555
Fe8 Mo1 2.921369 1_655
Fe8 Mo0 2.921369 1_655
Fe8 Mo0 2.921369 1_555
Fe8 Mo1 2.921369 1_555
Fe8 U0 3.018123 1_656
Fe9 Mo1 2.921369 1_555
Fe9 Mo0 2.921369 1_555
Fe9 Mo1 2.921369 1_655
Fe9 Mo0 2.921369 1_655
Fe9 U0 3.018123 1_565
Mo0 Mo1 2.477744 1_555
Mo0 U0 3.084745 1_555
Mo1 U0 3.084745 1_566
