# generated using pymatgen
data_UB12O13
_symmetry_space_group_name_H-M   'P 1'
_cell_length_a   6.92014781
_cell_length_b   6.92014781
_cell_length_c   9.84374674
_cell_angle_alpha   66.11438954
_cell_angle_beta   66.11438954
_cell_angle_gamma   82.36993124
_symmetry_Int_Tables_number   1
_chemical_formula_structural   UB12O13
_chemical_formula_sum   'U1 B12 O13'
_cell_volume   393.83954525
_cell_formula_units_Z   1
loop_
 _symmetry_equiv_pos_site_id
 _symmetry_equiv_pos_as_xyz
  1  'x, y, z'
loop_
 _atom_site_type_symbol
 _atom_site_label
 _atom_site_symmetry_multiplicity
 _atom_site_fract_x
 _atom_site_fract_y
 _atom_site_fract_z
 _atom_site_occupancy
  U  U0  1  0.46804700  0.46804700  0.93207300  1
  B  B0  1  0.78263700  0.78263700  0.53809700  1
  B  B1  1  0.83721600  0.83721600  0.66818400  1
  B  B2  1  0.00137500  0.66231200  0.73720700  1
  B  B3  1  0.66231200  0.00137500  0.73720700  1
  B  B4  1  0.99199400  0.25261100  0.46426700  1
  B  B5  1  0.25261100  0.99199400  0.46426700  1
  B  B6  1  0.94148700  0.64248800  0.42639400  1
  B  B7  1  0.64248800  0.94148700  0.42639400  1
  B  B8  1  0.09005200  0.09005200  0.28865300  1
  B  B9  1  0.04941200  0.85705200  0.46470900  1
  B  B10  1  0.85705200  0.04941200  0.46470900  1
  B  B11  1  0.86730900  0.86730900  0.21728400  1
  O  O0  1  0.57980600  0.57980600  0.03413700  1
  O  O1  1  0.18724200  0.18724200  0.14166300  1
  O  O2  1  0.92733700  0.42759800  0.49469400  1
  O  O3  1  0.42759800  0.92733700  0.49469400  1
  O  O4  1  0.20343700  0.20343700  0.43549900  1
  O  O5  1  0.99745500  0.72234900  0.24655900  1
  O  O6  1  0.72234900  0.99745500  0.24655900  1
  O  O7  1  0.26320300  0.66374800  0.93149900  1
  O  O8  1  0.66374800  0.26320300  0.93149900  1
  O  O9  1  0.12220500  0.52031400  0.76633600  1
  O  O10  1  0.52031400  0.12220500  0.76633600  1
  O  O11  1  0.43484800  0.43484800  0.47370300  1
  O  O12  1  0.56501700  0.56501700  0.35217600  1
loop_
_geom_bond_atom_site_label_1
_geom_bond_atom_site_label_2
_geom_bond_distance
_geom_bond_site_symmetry_2
B0 B1 1.657206 1_555
B0 B7 1.720382 1_555
B0 B6 1.720382 1_555
B0 B10 1.751112 1_565
B0 B9 1.751112 1_655
B1 B3 1.676629 1_565
B1 B2 1.676629 1_655
B1 B9 1.906824 1_655
B1 B10 1.906824 1_565
B2 O9 1.222609 1_555
B3 O10 1.222609 1_555
B4 O2 1.340740 1_555
B4 O4 1.395439 1_655
B5 O3 1.340740 1_555
B5 O4 1.395439 1_565
B5 B9 1.786000 1_555
B6 O2 1.359663 1_555
B6 O5 1.516094 1_555
B6 B9 1.969984 1_655
B7 O3 1.359663 1_555
B7 O6 1.516094 1_555
B8 O1 1.241875 1_555
B8 B9 1.773456 1_545
B10 B9 1.753116 1_645
B10 B8 1.773456 1_655
B10 B4 1.786000 1_555
B10 B7 1.969984 1_545
B11 O5 1.279311 1_555
B11 O6 1.279311 1_555
O0 U0 1.903417 1_554
O1 U0 2.513581 1_554
O7 U0 1.825937 1_555
O8 U0 1.825937 1_555
O11 O12 1.234535 1_555
