# generated using pymatgen
data_CdFe3(SnS4)2
_symmetry_space_group_name_H-M   'P 1'
_cell_length_a   7.27210070
_cell_length_b   7.27210070
_cell_length_c   7.27210070
_cell_angle_alpha   121.25238300
_cell_angle_beta   118.75586454
_cell_angle_gamma   90.00645616
_symmetry_Int_Tables_number   1
_chemical_formula_structural   CdFe3(SnS4)2
_chemical_formula_sum   'Cd1 Fe3 Sn2 S8'
_cell_volume   271.75643906
_cell_formula_units_Z   1
loop_
 _symmetry_equiv_pos_site_id
 _symmetry_equiv_pos_as_xyz
  1  'x, y, z'
loop_
 _atom_site_type_symbol
 _atom_site_label
 _atom_site_symmetry_multiplicity
 _atom_site_fract_x
 _atom_site_fract_y
 _atom_site_fract_z
 _atom_site_occupancy
  Cd  Cd0  1  0.22455800  0.72455800  0.50000000  1
  Fe  Fe0  1  0.00394800  0.00394800  0.00000000  1
  Fe  Fe1  1  0.62812000  0.37825000  0.75012900  1
  Fe  Fe2  1  0.62812000  0.87799100  0.24987100  1
  Sn  Sn0  1  0.61950600  0.37356600  0.24594000  1
  Sn  Sn1  1  0.12762500  0.37356600  0.75406000  1
  S  S0  1  0.85547000  0.09755200  0.24208200  1
  S  S1  1  0.85547000  0.61338700  0.75791800  1
  S  S2  1  0.84104600  0.12541300  0.71563300  1
  S  S3  1  0.40978000  0.12541300  0.28436700  1
  S  S4  1  0.40629400  0.65900800  0.25271400  1
  S  S5  1  0.40629400  0.15358000  0.74728600  1
  S  S6  1  0.42827600  0.62188400  0.80639200  1
  S  S7  1  0.81549100  0.62188400  0.19360800  1
loop_
_geom_bond_atom_site_label_1
_geom_bond_atom_site_label_2
_geom_bond_distance
_geom_bond_site_symmetry_2
Cd0 S6 2.503443 1_555
Cd0 S7 2.503448 1_455
Cd0 S5 2.570032 1_565
Cd0 S4 2.570032 1_555
Fe0 S0 2.305217 1_455
Fe0 S1 2.305223 1_444
Fe0 S3 2.449186 1_555
Fe0 S2 2.449186 1_454
Fe1 S5 2.281293 1_555
Fe1 S6 2.288884 1_555
Fe1 S7 2.288889 1_556
Fe1 S1 2.338654 1_555
Fe1 S3 2.395193 1_555
Fe1 S2 2.395198 1_555
Fe2 S4 2.281288 1_555
Fe2 S7 2.288884 1_555
Fe2 S6 2.288889 1_554
Fe2 S0 2.338665 1_565
Fe2 S2 2.395192 1_565
Fe2 S3 2.395192 1_565
S0 Sn1 2.638713 1_655
S0 Sn0 2.638713 1_555
S1 Sn1 2.638703 1_655
S1 Sn0 2.638714 1_555
S2 Sn1 2.567761 1_655
S3 Sn0 2.567767 1_555
S4 Sn0 2.585223 1_555
S4 Sn1 2.585224 1_554
S5 Sn0 2.585223 1_556
S5 Sn1 2.585229 1_555
S6 Sn1 2.582902 1_555
S7 Sn0 2.582892 1_555
