# generated using pymatgen
data_HCN
_symmetry_space_group_name_H-M   'P 1'
_cell_length_a   4.02722100
_cell_length_b   4.02722100
_cell_length_c   4.02722100
_cell_angle_alpha   90.00000000
_cell_angle_beta   90.00000000
_cell_angle_gamma   90.00000000
_symmetry_Int_Tables_number   1
_chemical_formula_structural   HCN
_chemical_formula_sum   'H4 C4 N4'
_cell_volume   65.31551996
_cell_formula_units_Z   4
loop_
 _symmetry_equiv_pos_site_id
 _symmetry_equiv_pos_as_xyz
  1  'x, y, z'
loop_
 _atom_site_type_symbol
 _atom_site_label
 _atom_site_symmetry_multiplicity
 _atom_site_fract_x
 _atom_site_fract_y
 _atom_site_fract_z
 _atom_site_occupancy
  H  H0  1  0.08226000  0.58226000  0.91774000  1
  H  H1  1  0.58226000  0.91774000  0.08226000  1
  H  H2  1  0.91774000  0.08226000  0.58226000  1
  H  H3  1  0.41774000  0.41774000  0.41774000  1
  C  C0  1  0.92520900  0.42520900  0.07479100  1
  C  C1  1  0.42520900  0.07479100  0.92520900  1
  C  C2  1  0.07479100  0.92520900  0.42520900  1
  C  C3  1  0.57479100  0.57479100  0.57479100  1
  N  N0  1  0.38817300  0.88817300  0.61182700  1
  N  N1  1  0.88817300  0.61182700  0.38817300  1
  N  N2  1  0.61182700  0.38817300  0.88817300  1
  N  N3  1  0.11182700  0.11182700  0.11182700  1
loop_
_geom_bond_atom_site_label_1
_geom_bond_atom_site_label_2
_geom_bond_distance
_geom_bond_site_symmetry_2
C0 H0 1.095486 1_654
C0 N1 1.476438 1_555
C0 N3 1.476438 1_655
C0 N2 1.476438 1_554
C1 H1 1.095486 1_546
C1 N3 1.476438 1_556
C1 N2 1.476438 1_555
C1 N0 1.476438 1_545
C2 H2 1.095486 1_465
C2 N3 1.476438 1_565
C2 N1 1.476438 1_455
C2 N0 1.476438 1_555
C3 H3 1.095486 1_555
C3 N1 1.476438 1_555
C3 N0 1.476438 1_555
C3 N2 1.476438 1_555
