# generated using pymatgen
data_MgFe3Ni2Sb(PO4)6
_symmetry_space_group_name_H-M   'P 1'
_cell_length_a   8.69023833
_cell_length_b   8.69024197
_cell_length_c   8.69023871
_cell_angle_alpha   60.56148765
_cell_angle_beta   60.56150352
_cell_angle_gamma   60.56149357
_symmetry_Int_Tables_number   1
_chemical_formula_structural   MgFe3Ni2Sb(PO4)6
_chemical_formula_sum   'Mg1 Fe3 Ni2 Sb1 P6 O24'
_cell_volume   469.95305522
_cell_formula_units_Z   1
loop_
 _symmetry_equiv_pos_site_id
 _symmetry_equiv_pos_as_xyz
  1  'x, y, z'
loop_
 _atom_site_type_symbol
 _atom_site_label
 _atom_site_symmetry_multiplicity
 _atom_site_fract_x
 _atom_site_fract_y
 _atom_site_fract_z
 _atom_site_occupancy
  Mg  Mg0  1  0.12423800  0.12423800  0.12423800  1
  Fe  Fe0  1  0.24570800  0.24570800  0.24570700  1
  Fe  Fe1  1  0.36327300  0.36327300  0.36327300  1
  Fe  Fe2  1  0.64322400  0.64322500  0.64322400  1
  Ni  Ni0  1  0.99395700  0.99396100  0.99396100  1
  Ni  Ni1  1  0.50004800  0.50004600  0.50004700  1
  Sb  Sb0  1  0.84603500  0.84603500  0.84603500  1
  P  P0  1  0.04463300  0.74372600  0.44098900  1
  P  P1  1  0.44099000  0.04463300  0.74372600  1
  P  P2  1  0.74372600  0.44099000  0.04463300  1
  P  P3  1  0.25051700  0.54461000  0.94046900  1
  P  P4  1  0.54461000  0.94046900  0.25051700  1
  P  P5  1  0.94047000  0.25051700  0.54461000  1
  O  O0  1  0.10704700  0.30931700  0.49468300  1
  O  O1  1  0.30931700  0.49468200  0.10704700  1
  O  O2  1  0.04812100  0.89269400  0.24607100  1
  O  O3  1  0.49468300  0.10704700  0.30931700  1
  O  O4  1  0.01413100  0.82926400  0.57894800  1
  O  O5  1  0.24438800  0.59193000  0.43050400  1
  O  O6  1  0.24607100  0.04812100  0.89269400  1
  O  O7  1  0.43050400  0.24438800  0.59193100  1
  O  O8  1  0.19082500  0.37977700  0.99300100  1
  O  O9  1  0.59193100  0.43050300  0.24438900  1
  O  O10  1  0.08779800  0.73876900  0.93275500  1
  O  O11  1  0.37977700  0.99300000  0.19082500  1
  O  O12  1  0.57894900  0.01413100  0.82926400  1
  O  O13  1  0.89269400  0.24607200  0.04812100  1
  O  O14  1  0.40590900  0.56497900  0.74747400  1
  O  O15  1  0.82926300  0.57894900  0.01413100  1
  O  O16  1  0.56497900  0.74747400  0.40590900  1
  O  O17  1  0.73876900  0.93275500  0.08779800  1
  O  O18  1  0.74747400  0.40590900  0.56497800  1
  O  O19  1  0.99300100  0.19082500  0.37977700  1
  O  O20  1  0.51466200  0.89326600  0.66038400  1
  O  O21  1  0.93275500  0.08779800  0.73876900  1
  O  O22  1  0.66038400  0.51466300  0.89326600  1
  O  O23  1  0.89326600  0.66038500  0.51466300  1
loop_
_geom_bond_atom_site_label_1
_geom_bond_atom_site_label_2
_geom_bond_distance
_geom_bond_site_symmetry_2
Mg0 O13 2.033011 1_455
Mg0 O6 2.033013 1_554
Mg0 O2 2.033013 1_545
Mg0 O11 2.166081 1_545
Mg0 O19 2.166082 1_455
Mg0 O8 2.166082 1_554
Fe0 O8 2.091875 1_554
Fe0 O19 2.091882 1_455
Fe0 O11 2.091887 1_545
Fe0 O1 2.096910 1_555
Fe0 O3 2.096920 1_555
Fe0 O0 2.096924 1_555
Fe1 O5 1.971574 1_555
Fe1 O9 1.971577 1_555
Fe1 O7 1.971580 1_555
Fe1 O0 2.117175 1_555
Fe1 O1 2.117175 1_555
Fe1 O3 2.117176 1_555
Fe2 O20 1.939183 1_555
Fe2 O22 1.939190 1_555
Fe2 O23 1.939190 1_555
Fe2 O16 2.114861 1_555
Fe2 O14 2.114864 1_555
Fe2 O18 2.114873 1_555
Ni0 O13 2.123042 1_566
Ni0 O2 2.123044 1_656
Ni0 O6 2.123058 1_665
Ni0 O17 2.195753 1_556
Ni0 O21 2.195766 1_565
Ni0 O10 2.195778 1_655
Ni1 O18 2.149596 1_555
Ni1 O14 2.149610 1_555
Ni1 O16 2.149611 1_555
Ni1 O9 2.245120 1_555
Ni1 O7 2.245123 1_555
Ni1 O5 2.245133 1_555
O0 P5 1.560985 1_455
O1 P3 1.560990 1_554
O2 P0 1.542287 1_555
O3 P4 1.560994 1_545
O4 P0 1.558890 1_555
O4 Sb0 2.081541 1_455
O5 P0 1.572762 1_555
O6 P1 1.542293 1_555
O7 P1 1.572758 1_555
O8 P3 1.544088 1_555
O9 P2 1.572763 1_555
O10 P3 1.577242 1_555
O10 Sb0 2.188995 1_455
O11 P4 1.544090 1_555
O12 P1 1.558889 1_555
O12 Sb0 2.081534 1_545
O13 P2 1.542287 1_555
O14 P3 1.544232 1_555
O15 P2 1.558883 1_555
O15 Sb0 2.081537 1_554
O16 P4 1.544232 1_555
O17 P4 1.577242 1_555
O17 Sb0 2.188996 1_554
O18 P5 1.544238 1_555
O19 P5 1.544090 1_555
O20 P1 1.522375 1_565
O21 P5 1.577241 1_555
O21 Sb0 2.188996 1_545
O22 P2 1.522372 1_556
O23 P0 1.522364 1_655
