# generated using pymatgen
data_Li5Mn2CoO8
_symmetry_space_group_name_H-M   'P 1'
_cell_length_a   3.01284054
_cell_length_b   3.01284054
_cell_length_c   20.04784260
_cell_angle_alpha   83.60796321
_cell_angle_beta   83.60796321
_cell_angle_gamma   57.10089663
_symmetry_Int_Tables_number   1
_chemical_formula_structural   Li5Mn2CoO8
_chemical_formula_sum   'Li5 Mn2 Co1 O8'
_cell_volume   151.56205925
_cell_formula_units_Z   1
loop_
 _symmetry_equiv_pos_site_id
 _symmetry_equiv_pos_as_xyz
  1  'x, y, z'
loop_
 _atom_site_type_symbol
 _atom_site_label
 _atom_site_symmetry_multiplicity
 _atom_site_fract_x
 _atom_site_fract_y
 _atom_site_fract_z
 _atom_site_occupancy
  Li  Li0  1  0.75048200  0.75048200  0.87706400  1
  Li  Li1  1  0.26748300  0.26748300  0.61632200  1
  Li  Li2  1  0.73708500  0.73708500  0.37645700  1
  Li  Li3  1  0.24315900  0.24315900  0.12933600  1
  Li  Li4  1  0.99850100  0.99850100  0.49938200  1
  Mn  Mn0  1  0.99650800  0.99650800  0.00128300  1
  Mn  Mn1  1  0.50296600  0.50296600  0.75128600  1
  Co  Co0  1  0.50144100  0.50144100  0.24920900  1
  O  O0  1  0.39538700  0.39538700  0.94274900  1
  O  O1  1  0.88224400  0.88224400  0.69803400  1
  O  O2  1  0.37724500  0.37724500  0.43448100  1
  O  O3  1  0.87136000  0.87136000  0.19207300  1
  O  O4  1  0.11336800  0.11336800  0.80869300  1
  O  O5  1  0.62301400  0.62301400  0.56348800  1
  O  O6  1  0.13677500  0.13677500  0.30218600  1
  O  O7  1  0.60298300  0.60298300  0.05795700  1
loop_
_geom_bond_atom_site_label_1
_geom_bond_atom_site_label_2
_geom_bond_distance
_geom_bond_site_symmetry_2
Li0 O0 2.153880 1_555
Li0 O0 2.156791 1_565
Li0 O0 2.156791 1_655
Li0 O4 2.175099 1_565
Li0 O4 2.175099 1_655
Li0 O4 2.213741 1_665
Li1 O5 1.996335 1_455
Li1 O5 1.996335 1_545
Li1 O5 2.039081 1_555
Li1 O1 2.319081 1_545
Li1 O1 2.319081 1_455
Li1 O1 2.448373 1_445
Li2 O2 2.048336 1_565
Li2 O2 2.048336 1_655
Li2 O2 2.102164 1_555
Li2 O6 2.184659 1_655
Li2 O6 2.184659 1_565
Li2 O6 2.427767 1_665
Li3 O3 2.081371 1_545
Li3 O3 2.081371 1_455
Li3 O3 2.197082 1_445
Li3 O7 2.222783 1_545
Li3 O7 2.222783 1_455
Li3 O7 2.232515 1_555
Li4 O5 2.091447 1_565
Li4 O5 2.091447 1_655
Li4 O2 2.095214 1_655
Li4 O2 2.095214 1_565
Li4 O5 2.225786 1_555
Li4 O2 2.247320 1_665
Mn0 O7 1.960678 1_655
Mn0 O7 1.960678 1_565
Mn0 O0 1.973865 1_564
Mn0 O0 1.973865 1_654
Mn0 O7 2.242660 1_555
Mn0 O0 2.281751 1_664
Mn1 O1 1.947912 1_545
Mn1 O1 1.947912 1_455
Mn1 O4 1.977344 1_655
Mn1 O4 1.977344 1_565
Mn1 O1 2.150933 1_555
Mn1 O4 2.230534 1_555
Co0 O6 1.976706 1_655
Co0 O6 1.976706 1_565
Co0 O3 2.014804 1_545
Co0 O3 2.014804 1_455
Co0 O6 2.081792 1_555
Co0 O3 2.139429 1_555
