# generated using pymatgen
data_BaSrCaWO6
_symmetry_space_group_name_H-M   'P 1'
_cell_length_a   8.45449419
_cell_length_b   8.42584908
_cell_length_c   8.43294732
_cell_angle_alpha   90.00000000
_cell_angle_beta   90.00000000
_cell_angle_gamma   90.00000000
_symmetry_Int_Tables_number   1
_chemical_formula_structural   BaSrCaWO6
_chemical_formula_sum   'Ba4 Sr4 Ca4 W4 O24'
_cell_volume   600.73189849
_cell_formula_units_Z   4
loop_
 _symmetry_equiv_pos_site_id
 _symmetry_equiv_pos_as_xyz
  1  'x, y, z'
loop_
 _atom_site_type_symbol
 _atom_site_label
 _atom_site_symmetry_multiplicity
 _atom_site_fract_x
 _atom_site_fract_y
 _atom_site_fract_z
 _atom_site_occupancy
  Ba  Ba0  1  0.00000000  0.00000000  0.00000000  1
  Ba  Ba1  1  0.50000000  0.50000000  0.50000000  1
  Ba  Ba2  1  0.50000000  0.00000000  -0.00000000  1
  Ba  Ba3  1  0.00000000  0.50000000  -0.00000000  1
  Sr  Sr0  1  0.00000000  0.50000000  0.50000000  1
  Sr  Sr1  1  0.50000000  0.00000000  0.50000000  1
  Sr  Sr2  1  0.50000000  0.50000000  0.00000000  1
  Sr  Sr3  1  0.00000000  0.00000000  0.50000000  1
  Ca  Ca0  1  0.74971274  0.74901464  0.74795593  1
  Ca  Ca1  1  0.25028726  0.25098536  0.74795593  1
  Ca  Ca2  1  0.25028726  0.74901464  0.25204407  1
  Ca  Ca3  1  0.74971274  0.25098536  0.25204407  1
  W  W0  1  0.25066769  0.24917052  0.25391342  1
  W  W1  1  0.74933231  0.75082948  0.25391342  1
  W  W2  1  0.74933231  0.24917052  0.74608658  1
  W  W3  1  0.25066769  0.75082948  0.74608658  1
  O  O0  1  0.02135400  0.21864485  0.28298544  1
  O  O1  1  0.97864600  0.78135515  0.28298544  1
  O  O2  1  0.97864600  0.21864485  0.71701456  1
  O  O3  1  0.02135400  0.78135515  0.71701456  1
  O  O4  1  0.27484255  0.01986085  0.22778658  1
  O  O5  1  0.27484255  0.98013915  0.77221342  1
  O  O6  1  0.72515745  0.98013915  0.22778658  1
  O  O7  1  0.72515745  0.01986085  0.77221342  1
  O  O8  1  0.22468652  0.27162640  0.02320260  1
  O  O9  1  0.77531348  0.27162640  0.97679740  1
  O  O10  1  0.22468652  0.72837360  0.97679740  1
  O  O11  1  0.77531348  0.72837360  0.02320260  1
  O  O12  1  0.47788020  0.28701765  0.22124152  1
  O  O13  1  0.52211980  0.71298235  0.22124152  1
  O  O14  1  0.52211980  0.28701765  0.77875848  1
  O  O15  1  0.47788020  0.71298235  0.77875848  1
  O  O16  1  0.21656315  0.47715594  0.28719473  1
  O  O17  1  0.21656315  0.52284406  0.71280527  1
  O  O18  1  0.78343685  0.52284406  0.28719473  1
  O  O19  1  0.78343685  0.47715594  0.71280527  1
  O  O20  1  0.28860606  0.21832276  0.48038429  1
  O  O21  1  0.71139394  0.21832276  0.51961571  1
  O  O22  1  0.28860606  0.78167724  0.51961571  1
  O  O23  1  0.71139394  0.78167724  0.48038429  1
loop_
_geom_bond_atom_site_label_1
_geom_bond_atom_site_label_2
_geom_bond_distance
_geom_bond_site_symmetry_2
Ba0 O8 2.980751 1_555
Ba0 O9 2.980751 1_454
Ba0 O11 2.980751 1_445
Ba0 O10 2.980751 1_544
Ba0 O4 3.019483 1_555
Ba0 O5 3.019483 1_544
Ba0 O7 3.019483 1_454
Ba0 O6 3.019483 1_445
Ba0 O1 3.020175 1_445
Ba0 O0 3.020175 1_555
Ba0 O2 3.020175 1_454
Ba0 O3 3.020175 1_544
Ba1 O14 2.963353 1_555
Ba1 O12 2.963353 1_555
Ba1 O13 2.963353 1_555
Ba1 O15 2.963353 1_555
Ba1 O20 2.975640 1_555
Ba1 O21 2.975640 1_555
Ba1 O22 2.975640 1_555
Ba1 O23 2.975640 1_555
Ba1 O18 2.999980 1_555
Ba1 O16 2.999980 1_555
Ba1 O19 2.999980 1_555
Ba1 O17 2.999980 1_555
Ba2 O7 2.709534 1_554
Ba2 O5 2.709534 1_544
Ba2 O4 2.709534 1_555
Ba2 O6 2.709534 1_545
Ba2 O15 3.060127 1_544
Ba2 O14 3.060127 1_554
Ba2 O12 3.060127 1_555
Ba2 O13 3.060127 1_545
Ba2 O11 3.270206 1_545
Ba2 O8 3.270206 1_555
Ba2 O10 3.270206 1_544
Ba2 O9 3.270206 1_554
Ba3 O10 2.710998 1_554
Ba3 O11 2.710998 1_455
Ba3 O9 2.710998 1_454
Ba3 O8 2.710998 1_555
Ba3 O17 3.042195 1_554
Ba3 O19 3.042195 1_454
Ba3 O16 3.042195 1_555
Ba3 O18 3.042195 1_455
Ca0 O23 2.296109 1_555
Ca0 O7 2.300645 1_565
Ca0 O19 2.327272 1_555
Ca0 O3 2.327372 1_655
Ca0 O15 2.332681 1_555
Ca0 O11 2.337689 1_556
Ca1 O20 2.296109 1_555
Ca1 O5 2.300645 1_545
Ca1 O17 2.327272 1_555
Ca1 O2 2.327372 1_455
Ca1 O14 2.332681 1_555
Ca1 O8 2.337689 1_556
Ca2 O22 2.296109 1_555
Ca2 O4 2.300645 1_565
Ca2 O16 2.327272 1_555
Ca2 O1 2.327372 1_455
Ca2 O13 2.332681 1_555
Ca2 O10 2.337689 1_554
Ca3 O21 2.296109 1_555
Ca3 O6 2.300645 1_545
Ca3 O18 2.327272 1_555
Ca3 O0 2.327372 1_655
Ca3 O12 2.332681 1_555
Ca3 O9 2.337689 1_554
O0 W0 1.971025 1_555
O0 Sr3 2.603020 1_555
O0 Sr0 3.000295 1_555
O1 W1 1.971025 1_555
O1 Sr3 2.603020 1_665
O1 Sr0 3.000295 1_655
O2 W2 1.971025 1_555
O2 Sr3 2.603020 1_655
O2 Sr0 3.000295 1_655
O3 W3 1.971025 1_555
O3 Sr3 2.603020 1_565
O3 Sr0 3.000295 1_555
O4 W0 1.955361 1_555
O4 Sr1 2.986850 1_555
O5 W3 1.955361 1_555
O5 Sr1 2.986850 1_565
O6 W1 1.955361 1_555
O6 Sr1 2.986850 1_565
O7 W2 1.955361 1_555
O7 Sr1 2.986850 1_555
O8 W0 1.967054 1_555
O8 Sr2 3.026364 1_555
O9 W2 1.967054 1_555
O9 Sr2 3.026364 1_556
O10 W3 1.967054 1_555
O10 Sr2 3.026364 1_556
O11 W1 1.967054 1_555
O11 Sr2 3.026364 1_555
O12 W0 1.966652 1_555
O12 Sr2 2.595441 1_555
O13 W1 1.966652 1_555
O13 Sr2 2.595441 1_555
O14 W2 1.966652 1_555
O14 Sr2 2.595441 1_556
O15 W3 1.966652 1_555
O15 Sr2 2.595441 1_556
O16 W0 1.962661 1_555
O16 Sr0 2.570965 1_555
O17 W3 1.962661 1_555
O17 Sr0 2.570965 1_555
O18 W1 1.962661 1_555
O18 Sr0 2.570965 1_655
O19 W2 1.962661 1_555
O19 Sr0 2.570965 1_655
O20 W0 1.953929 1_555
O20 Sr1 2.570119 1_555
O20 Sr3 3.060231 1_555
O21 W2 1.953929 1_555
O21 Sr1 2.570119 1_555
O21 Sr3 3.060231 1_655
O22 W3 1.953929 1_555
O22 Sr1 2.570119 1_565
O22 Sr3 3.060231 1_565
O23 W1 1.953929 1_555
O23 Sr1 2.570119 1_565
O23 Sr3 3.060231 1_665
