# generated using pymatgen
data_La2ThTa(ClO2)3
_symmetry_space_group_name_H-M   'P 1'
_cell_length_a   5.48368000
_cell_length_b   9.40433400
_cell_length_c   9.43555586
_cell_angle_alpha   60.55230582
_cell_angle_beta   90.00000000
_cell_angle_gamma   90.00000000
_symmetry_Int_Tables_number   1
_chemical_formula_structural   La2ThTa(ClO2)3
_chemical_formula_sum   'La4 Th2 Ta2 Cl6 O12'
_cell_volume   423.72929269
_cell_formula_units_Z   2
loop_
 _symmetry_equiv_pos_site_id
 _symmetry_equiv_pos_as_xyz
  1  'x, y, z'
loop_
 _atom_site_type_symbol
 _atom_site_label
 _atom_site_symmetry_multiplicity
 _atom_site_fract_x
 _atom_site_fract_y
 _atom_site_fract_z
 _atom_site_occupancy
  La  La0  1  0.00000000  0.32151600  0.08324100  1
  La  La1  1  0.50000000  0.40771200  0.68953600  1
  La  La2  1  0.50000000  0.90836800  0.40576300  1
  La  La3  1  0.50000000  0.68274000  0.91123600  1
  Th  Th0  1  0.00000000  0.58503800  0.32573600  1
  Th  Th1  1  0.00000000  0.08346700  0.58605000  1
  Ta  Ta0  1  0.50000000  0.33497900  0.33300600  1
  Ta  Ta1  1  0.00000000  0.66652700  0.66566100  1
  Cl  Cl0  1  0.00000000  0.94634000  0.23852600  1
  Cl  Cl1  1  0.00000000  0.81248400  0.95197200  1
  Cl  Cl2  1  0.00000000  0.23463500  0.80742800  1
  Cl  Cl3  1  0.50000000  0.05348600  0.75621500  1
  Cl  Cl4  1  0.50000000  0.18900700  0.05416400  1
  Cl  Cl5  1  0.50000000  0.75851900  0.19096800  1
  O  O0  1  0.23135400  0.63496100  0.51728200  1
  O  O1  1  0.23085100  0.84754600  0.63409700  1
  O  O2  1  0.23606100  0.52391700  0.83799300  1
  O  O3  1  0.74085300  0.36569100  0.47714700  1
  O  O4  1  0.73792900  0.15574700  0.37042600  1
  O  O5  1  0.73901800  0.47972900  0.16330400  1
  O  O6  1  0.25914700  0.36569100  0.47714700  1
  O  O7  1  0.26207100  0.15574700  0.37042600  1
  O  O8  1  0.26098200  0.47972900  0.16330400  1
  O  O9  1  0.76864600  0.63496100  0.51728200  1
  O  O10  1  0.76914900  0.84754600  0.63409700  1
  O  O11  1  0.76393900  0.52391700  0.83799300  1
loop_
_geom_bond_atom_site_label_1
_geom_bond_atom_site_label_2
_geom_bond_distance
_geom_bond_site_symmetry_2
La0 O8 2.436771 1_555
La0 O5 2.436771 1_455
La0 O11 2.514498 1_454
La0 O2 2.514498 1_554
La0 O4 2.772134 1_455
La0 O7 2.772134 1_555
La1 O0 2.442095 1_555
La1 O9 2.442095 1_555
La1 O6 2.587530 1_555
La1 O3 2.587530 1_555
La1 O11 2.599321 1_555
La1 O2 2.599321 1_555
La2 O10 2.436294 1_555
La2 O1 2.436294 1_555
La2 O7 2.542259 1_565
La2 O4 2.542259 1_565
La2 O0 2.688554 1_555
La2 O9 2.688554 1_555
La3 O11 2.412116 1_555
La3 O2 2.412116 1_555
La3 O5 2.560259 1_556
La3 O8 2.560259 1_556
La3 O10 2.726443 1_555
La3 O1 2.726443 1_555
Cl0 Th0 3.077831 1_555
Cl0 La0 3.084232 1_565
Cl0 La2 3.095343 1_555
Cl0 La2 3.095343 1_455
Cl1 Th0 3.097654 1_556
Cl1 La3 3.100861 1_555
Cl1 La3 3.100861 1_455
Cl1 Th1 3.124717 1_565
Cl2 Th1 3.050256 1_555
Cl2 La0 3.087244 1_556
Cl2 La1 3.102276 1_555
Cl2 La1 3.102276 1_455
Cl3 La3 3.046556 1_545
Cl3 La1 3.071212 1_555
Cl3 Th1 3.119297 1_555
Cl3 Th1 3.119297 1_655
Cl4 La1 3.018170 1_554
Cl4 La2 3.059804 1_545
Cl4 La0 3.079292 1_555
Cl4 La0 3.079292 1_655
Cl5 La2 2.983583 1_555
Cl5 La3 3.053513 1_554
Cl5 Th0 3.123543 1_655
Cl5 Th0 3.123543 1_555
O0 Ta1 2.016535 1_555
O0 Th0 2.435316 1_555
O1 Ta1 2.022563 1_555
O1 Th1 2.396164 1_565
O2 Ta1 1.993525 1_555
O3 Ta0 2.015889 1_555
O3 Th0 2.327660 1_655
O3 Th1 2.727293 1_655
O4 Ta0 2.020621 1_555
O4 Th1 2.303663 1_655
O5 Ta0 1.997930 1_555
O5 Th0 2.621146 1_655
O6 Ta0 2.015889 1_555
O6 Th0 2.327660 1_555
O6 Th1 2.727293 1_555
O7 Ta0 2.020621 1_555
O7 Th1 2.303663 1_555
O8 Ta0 1.997930 1_555
O8 Th0 2.621146 1_555
O9 Ta1 2.016535 1_655
O9 Th0 2.435316 1_655
O10 Ta1 2.022563 1_655
O10 Th1 2.396164 1_665
O11 Ta1 1.993525 1_655
