# generated using pymatgen
data_Dy5Rh3
_symmetry_space_group_name_H-M   'P 1'
_cell_length_a   6.28115100
_cell_length_b   8.29559747
_cell_length_c   8.29234156
_cell_angle_alpha   120.01298410
_cell_angle_beta   90.00000000
_cell_angle_gamma   90.00000000
_symmetry_Int_Tables_number   1
_chemical_formula_structural   Dy5Rh3
_chemical_formula_sum   'Dy10 Rh6'
_cell_volume   374.14322230
_cell_formula_units_Z   2
loop_
 _symmetry_equiv_pos_site_id
 _symmetry_equiv_pos_as_xyz
  1  'x, y, z'
loop_
 _atom_site_type_symbol
 _atom_site_label
 _atom_site_symmetry_multiplicity
 _atom_site_fract_x
 _atom_site_fract_y
 _atom_site_fract_z
 _atom_site_occupancy
  Dy  Dy0  1  0.49999900  0.33333800  0.66669600  1
  Dy  Dy1  1  0.49999900  0.66664200  0.33330400  1
  Dy  Dy2  1  0.99999900  0.66666200  0.33330400  1
  Dy  Dy3  1  0.99999900  0.33335800  0.66669600  1
  Dy  Dy4  1  0.75001900  0.25549100  0.00000000  1
  Dy  Dy5  1  0.74998800  0.74451100  0.74452800  1
  Dy  Dy6  1  0.74998800  0.99998200  0.25547200  1
  Dy  Dy7  1  0.25001900  0.74450900  0.00000000  1
  Dy  Dy8  1  0.24998800  0.25548900  0.25547200  1
  Dy  Dy9  1  0.24998800  0.00001800  0.74452800  1
  Rh  Rh0  1  0.75000000  0.60729400  0.00000000  1
  Rh  Rh1  1  0.75000400  0.39279000  0.39281000  1
  Rh  Rh2  1  0.75000400  0.99998000  0.60719000  1
  Rh  Rh3  1  0.25000000  0.39270600  0.00000000  1
  Rh  Rh4  1  0.25000400  0.60720900  0.60719000  1
  Rh  Rh5  1  0.25000400  0.00002000  0.39281000  1
loop_
_geom_bond_atom_site_label_1
_geom_bond_atom_site_label_2
_geom_bond_distance
_geom_bond_site_symmetry_2
Dy0 Rh3 2.997598 1_556
Dy0 Rh0 2.997654 1_556
Dy0 Rh5 2.997850 1_555
Dy0 Rh1 2.997973 1_555
Dy0 Rh2 2.998623 1_545
Dy0 Rh4 2.998722 1_555
Dy0 Dy3 3.140576 1_455
Dy0 Dy3 3.140576 1_555
Dy0 Dy6 3.508193 1_545
Dy0 Dy7 3.508230 1_556
Dy0 Dy4 3.508247 1_556
Dy0 Dy8 3.508303 1_555
Dy0 Dy9 3.509074 1_555
Dy0 Dy5 3.509166 1_555
Dy1 Rh3 2.997598 1_555
Dy1 Rh0 2.997654 1_555
Dy1 Rh4 2.997854 1_555
Dy1 Rh2 2.997973 1_555
Dy1 Rh1 2.998623 1_555
Dy1 Rh5 2.998729 1_565
Dy1 Dy2 3.140576 1_455
Dy1 Dy2 3.140576 1_555
Dy1 Dy5 3.508191 1_555
Dy1 Dy7 3.508230 1_555
Dy1 Dy4 3.508247 1_555
Dy1 Dy9 3.508305 1_565
Dy1 Dy8 3.509082 1_555
Dy1 Dy6 3.509159 1_555
Dy2 Rh0 2.997598 1_555
Dy2 Rh3 2.997654 1_655
Dy2 Rh2 2.997850 1_555
Dy2 Rh4 2.997977 1_655
Dy2 Rh5 2.998623 1_665
Dy2 Rh1 2.998729 1_555
Dy2 Dy9 3.508193 1_665
Dy2 Dy4 3.508230 1_555
Dy2 Dy7 3.508247 1_655
Dy2 Dy5 3.508303 1_555
Dy2 Dy6 3.509074 1_555
Dy2 Dy8 3.509166 1_655
Dy3 Rh0 2.997598 1_556
Dy3 Rh3 2.997654 1_656
Dy3 Rh1 2.997850 1_555
Dy3 Rh5 2.997973 1_655
Dy3 Rh4 2.998616 1_655
Dy3 Rh2 2.998729 1_545
Dy3 Dy8 3.508191 1_655
Dy3 Dy4 3.508230 1_556
Dy3 Dy7 3.508247 1_656
Dy3 Dy6 3.508305 1_545
Dy3 Dy5 3.509082 1_555
Dy3 Dy9 3.509159 1_655
Dy4 Rh1 2.862849 1_555
Dy4 Rh2 2.862849 1_544
Dy4 Rh0 2.918416 1_555
Dy4 Rh3 3.340381 1_655
Dy4 Rh3 3.340606 1_555
Dy5 Rh0 2.862863 1_556
Dy5 Rh2 2.864047 1_555
Dy5 Rh1 2.916578 1_555
Dy5 Rh4 3.340543 1_555
Dy5 Rh4 3.340732 1_655
Dy6 Rh0 2.862856 1_555
Dy6 Rh1 2.864055 1_565
Dy6 Rh2 2.916574 1_555
Dy6 Rh5 3.340541 1_565
Dy6 Rh5 3.340730 1_665
Dy7 Rh4 2.862848 1_554
Dy7 Rh5 2.862849 1_565
Dy7 Rh3 2.918416 1_555
Dy7 Rh0 3.340381 1_555
Dy7 Rh0 3.340606 1_455
Dy8 Rh3 2.862863 1_555
Dy8 Rh5 2.864047 1_555
Dy8 Rh4 2.916574 1_555
Dy8 Rh1 3.340542 1_455
Dy8 Rh1 3.340731 1_555
Dy9 Rh3 2.862856 1_556
Dy9 Rh4 2.864063 1_545
Dy9 Rh5 2.916574 1_555
Dy9 Rh2 3.340541 1_445
Dy9 Rh2 3.340730 1_545
