# generated using pymatgen
data_Er2InCu2
_symmetry_space_group_name_H-M   'P 1'
_cell_length_a   7.38707525
_cell_length_b   7.38707525
_cell_length_c   3.72271692
_cell_angle_alpha   90.00000000
_cell_angle_beta   90.00000000
_cell_angle_gamma   90.00000000
_symmetry_Int_Tables_number   1
_chemical_formula_structural   Er2InCu2
_chemical_formula_sum   'Er4 In2 Cu4'
_cell_volume   203.14449567
_cell_formula_units_Z   2
loop_
 _symmetry_equiv_pos_site_id
 _symmetry_equiv_pos_as_xyz
  1  'x, y, z'
loop_
 _atom_site_type_symbol
 _atom_site_label
 _atom_site_symmetry_multiplicity
 _atom_site_fract_x
 _atom_site_fract_y
 _atom_site_fract_z
 _atom_site_occupancy
  Er  Er0  1  0.67143249  0.17143249  0.50000000  1
  Er  Er1  1  0.32856751  0.82856751  0.50000000  1
  Er  Er2  1  0.17143249  0.32856751  0.50000000  1
  Er  Er3  1  0.82856751  0.67143249  0.50000000  1
  In  In0  1  0.50000000  0.50000000  -0.00000000  1
  In  In1  1  -0.00000000  0.00000000  -0.00000000  1
  Cu  Cu0  1  0.12046622  0.62046622  0.00000000  1
  Cu  Cu1  1  0.87953378  0.37953378  -0.00000000  1
  Cu  Cu2  1  0.62046622  0.87953378  0.00000000  1
  Cu  Cu3  1  0.37953378  0.12046622  -0.00000000  1
loop_
_geom_bond_atom_site_label_1
_geom_bond_atom_site_label_2
_geom_bond_distance
_geom_bond_site_symmetry_2
Er0 In1 3.310507 1_656
Er0 In1 3.310507 1_655
Er0 In0 3.310507 1_556
Er0 In0 3.310507 1_555
Er1 In0 3.310507 1_555
Er1 In0 3.310507 1_556
Er1 In1 3.310507 1_566
Er1 In1 3.310507 1_565
Er2 In0 3.310507 1_556
Er2 In0 3.310507 1_555
Er2 In1 3.310507 1_556
Er2 In1 3.310507 1_555
Er3 In1 3.310507 1_665
Er3 In0 3.310507 1_555
Er3 In0 3.310507 1_556
Er3 In1 3.310507 1_666
Cu0 Cu1 2.516998 1_455
Cu0 Er1 2.861991 1_554
Cu0 Er1 2.861991 1_555
Cu0 Er2 2.873314 1_555
Cu0 Er2 2.873314 1_554
Cu0 Er3 2.873314 1_455
Cu0 Er3 2.873314 1_454
Cu0 In0 2.941485 1_555
Cu0 In1 2.941485 1_565
Cu1 Er0 2.861991 1_555
Cu1 Er0 2.861991 1_554
Cu1 Er2 2.873314 1_655
Cu1 Er2 2.873314 1_654
Cu1 Er3 2.873314 1_554
Cu1 Er3 2.873314 1_555
Cu1 In1 2.941485 1_655
Cu1 In0 2.941485 1_555
Cu2 Cu3 2.516998 1_565
Cu2 Er3 2.861991 1_555
Cu2 Er3 2.861991 1_554
Cu2 Er1 2.873314 1_555
Cu2 Er0 2.873314 1_564
Cu2 Er1 2.873314 1_554
Cu2 Er0 2.873314 1_565
Cu2 In1 2.941485 1_665
Cu2 In0 2.941485 1_555
Cu3 Er2 2.861991 1_555
Cu3 Er2 2.861991 1_554
Cu3 Er1 2.873314 1_544
Cu3 Er0 2.873314 1_555
Cu3 Er1 2.873314 1_545
Cu3 Er0 2.873314 1_554
Cu3 In0 2.941485 1_555
Cu3 In1 2.941485 1_555
