# generated using pymatgen
data_V(BO)6
_symmetry_space_group_name_H-M   'P 1'
_cell_length_a   8.99108568
_cell_length_b   6.01799130
_cell_length_c   11.23247003
_cell_angle_alpha   73.02502350
_cell_angle_beta   66.99406259
_cell_angle_gamma   41.66735203
_symmetry_Int_Tables_number   1
_chemical_formula_structural   V(BO)6
_chemical_formula_sum   'V1 B6 O6'
_cell_volume   371.91190852
_cell_formula_units_Z   1
loop_
 _symmetry_equiv_pos_site_id
 _symmetry_equiv_pos_as_xyz
  1  'x, y, z'
loop_
 _atom_site_type_symbol
 _atom_site_label
 _atom_site_symmetry_multiplicity
 _atom_site_fract_x
 _atom_site_fract_y
 _atom_site_fract_z
 _atom_site_occupancy
  V  V0  1  0.00000000  0.00000000  0.00000000  1
  B  B0  1  0.63955500  0.00000000  0.50665200  1
  B  B1  1  0.36044500  0.00000000  0.49334800  1
  B  B2  1  0.63526600  0.33091700  0.99982600  1
  B  B3  1  0.36473400  0.66908300  0.00017400  1
  B  B4  1  0.96618300  0.66908300  0.99982600  1
  B  B5  1  0.03381700  0.33091700  0.00017400  1
  O  O0  1  0.47130800  0.31647500  0.50640700  1
  O  O1  1  0.52869200  0.68352500  0.49359300  1
  O  O2  1  0.76005200  0.00000000  0.00080000  1
  O  O3  1  0.21221700  0.31647500  0.49359300  1
  O  O4  1  0.23994800  0.00000000  0.99920000  1
  O  O5  1  0.78778300  0.68352500  0.50640700  1
loop_
_geom_bond_atom_site_label_1
_geom_bond_atom_site_label_2
_geom_bond_distance
_geom_bond_site_symmetry_2
B0 O5 1.269423 1_545
B0 O0 1.269423 1_555
B1 O3 1.269423 1_555
B1 O1 1.269423 1_545
B2 O2 1.372410 1_556
B2 V0 2.228392 1_656
B3 O4 1.372410 1_564
B3 V0 2.228392 1_565
B4 O2 1.372410 1_566
B4 V0 2.228392 1_666
B5 O4 1.372410 1_554
B5 V0 2.228392 1_555
O2 V0 2.153897 1_655
O4 V0 2.153897 1_556
