# generated using pymatgen
data_MgSi2
_symmetry_space_group_name_H-M   'P 1'
_cell_length_a   5.78277423
_cell_length_b   5.78277423
_cell_length_c   11.54308991
_cell_angle_alpha   71.28960330
_cell_angle_beta   71.28960330
_cell_angle_gamma   37.89153712
_symmetry_Int_Tables_number   1
_chemical_formula_structural   MgSi2
_chemical_formula_sum   'Mg4 Si8'
_cell_volume   223.02156860
_cell_formula_units_Z   4
loop_
 _symmetry_equiv_pos_site_id
 _symmetry_equiv_pos_as_xyz
  1  'x, y, z'
loop_
 _atom_site_type_symbol
 _atom_site_label
 _atom_site_symmetry_multiplicity
 _atom_site_fract_x
 _atom_site_fract_y
 _atom_site_fract_z
 _atom_site_occupancy
  Mg  Mg0  1  0.22513800  0.22513800  0.17419200  1
  Mg  Mg1  1  0.15258400  0.15258400  0.83871700  1
  Mg  Mg2  1  0.77486400  0.77486400  0.58574900  1
  Mg  Mg3  1  0.51471200  0.51471200  0.37288000  1
  Si  Si0  1  0.80694900  0.80694900  0.96424300  1
  Si  Si1  1  0.58026500  0.58026500  0.10074300  1
  Si  Si2  1  0.84094100  0.84094100  0.32646900  1
  Si  Si3  1  0.07319700  0.07319700  0.62856300  1
  Si  Si4  1  0.94305100  0.94305100  0.10146400  1
  Si  Si5  1  0.42430200  0.42430200  0.85168500  1
  Si  Si6  1  0.42984100  0.42984100  0.64309500  1
  Si  Si7  1  0.19900500  0.19900500  0.41205900  1
loop_
_geom_bond_atom_site_label_1
_geom_bond_atom_site_label_2
_geom_bond_distance
_geom_bond_site_symmetry_2
Mg0 Si7 2.662382 1_555
Mg0 Si1 2.768887 1_455
Mg0 Si1 2.768887 1_545
Mg0 Si4 2.924834 1_545
Mg0 Si4 2.924834 1_455
Mg0 Si0 2.954311 1_454
Mg0 Si0 2.954311 1_544
Mg0 Si2 3.119264 1_455
Mg0 Si2 3.119264 1_545
Mg1 Si3 2.840376 1_555
Mg1 Si5 3.026370 1_555
Mg1 Si5 3.087036 1_455
Mg1 Si5 3.087036 1_545
Mg1 Si6 3.106768 1_555
Mg1 Si4 3.120377 1_446
Mg1 Si0 3.183636 1_545
Mg1 Si0 3.183636 1_455
Mg2 Si6 2.756529 1_655
Mg2 Si6 2.756529 1_565
Mg2 Si3 2.810045 1_565
Mg2 Si3 2.810045 1_655
Mg2 Si2 2.830629 1_555
Mg2 Si7 3.059720 1_565
Mg2 Si7 3.059720 1_655
Mg3 Si2 2.848888 1_545
Mg3 Si2 2.848888 1_455
Mg3 Si7 2.900378 1_655
Mg3 Si7 2.900378 1_565
Mg3 Si6 2.937099 1_555
Mg3 Si1 2.975572 1_555
Si0 Si5 2.393685 1_565
Si0 Si5 2.393685 1_655
Si0 Si1 2.445663 1_556
Si0 Si4 2.514979 1_556
Si1 Si4 2.401998 1_545
Si1 Si4 2.401998 1_455
Si2 Si7 2.423078 1_655
Si2 Si7 2.423078 1_565
Si2 Si4 2.454693 1_555
Si3 Si7 2.409696 1_555
Si3 Si6 2.415350 1_545
Si3 Si6 2.415350 1_455
Si5 Si6 2.387904 1_555
