# generated using pymatgen
data_Nd(NO3)3
_symmetry_space_group_name_H-M   'P 1'
_cell_length_a   10.87934572
_cell_length_b   10.87934572
_cell_length_c   13.05398020
_cell_angle_alpha   81.38533490
_cell_angle_beta   81.38533490
_cell_angle_gamma   102.07902255
_symmetry_Int_Tables_number   1
_chemical_formula_structural   Nd(NO3)3
_chemical_formula_sum   'Nd8 N24 O72'
_cell_volume   1467.36765743
_cell_formula_units_Z   8
loop_
 _symmetry_equiv_pos_site_id
 _symmetry_equiv_pos_as_xyz
  1  'x, y, z'
loop_
 _atom_site_type_symbol
 _atom_site_label
 _atom_site_symmetry_multiplicity
 _atom_site_fract_x
 _atom_site_fract_y
 _atom_site_fract_z
 _atom_site_occupancy
  Nd  Nd0  1  0.00000000  0.50000000  0.50000000  1
  Nd  Nd1  1  0.50000000  0.00000000  0.00000000  1
  Nd  Nd2  1  0.72388900  0.27611100  0.25000000  1
  Nd  Nd3  1  0.27611100  0.72388900  0.75000000  1
  Nd  Nd4  1  0.76188700  0.78371700  0.24917900  1
  Nd  Nd5  1  0.21628300  0.23811300  0.25082100  1
  Nd  Nd6  1  0.23811300  0.21628300  0.75082100  1
  Nd  Nd7  1  0.78371700  0.76188700  0.74917900  1
  N  N0  1  0.65110100  0.50469500  0.34362500  1
  N  N1  1  0.49530500  0.34889900  0.15637500  1
  N  N2  1  0.34889900  0.49530500  0.65637500  1
  N  N3  1  0.50469500  0.65110100  0.84362500  1
  N  N4  1  0.73728900  0.17094500  0.04824200  1
  N  N5  1  0.82905500  0.26271100  0.45175800  1
  N  N6  1  0.26271100  0.82905500  0.95175800  1
  N  N7  1  0.17094500  0.73728900  0.54824200  1
  N  N8  1  0.75999500  0.54159500  0.62771800  1
  N  N9  1  0.45840500  0.24000500  0.87228200  1
  N  N10  1  0.24000500  0.45840500  0.37228200  1
  N  N11  1  0.54159500  0.75999500  0.12771800  1
  N  N12  1  0.99298300  0.67831100  0.30036900  1
  N  N13  1  0.32168900  0.00701700  0.19963100  1
  N  N14  1  0.00701700  0.32168900  0.69963100  1
  N  N15  1  0.67831100  0.99298300  0.80036900  1
  N  N16  1  0.83370600  0.86326100  0.52052400  1
  N  N17  1  0.13673900  0.16629400  0.97947600  1
  N  N18  1  0.16629400  0.13673900  0.47947600  1
  N  N19  1  0.86326100  0.83370600  0.02052400  1
  N  N20  1  0.62037000  0.97845200  0.31947700  1
  N  N21  1  0.02154800  0.37963000  0.18052300  1
  N  N22  1  0.37963000  0.02154800  0.68052300  1
  N  N23  1  0.97845200  0.62037000  0.81947700  1
  O  O0  1  0.73982700  0.53726800  0.26007500  1
  O  O1  1  0.46273200  0.26017300  0.23992500  1
  O  O2  1  0.26017300  0.46273200  0.73992500  1
  O  O3  1  0.53726800  0.73982700  0.76007500  1
  O  O4  1  0.59990300  0.38755800  0.37602100  1
  O  O5  1  0.61244200  0.40009700  0.12397900  1
  O  O6  1  0.40009700  0.61244200  0.62397900  1
  O  O7  1  0.38755800  0.59990300  0.87602100  1
  O  O8  1  0.62007200  0.59075800  0.38835300  1
  O  O9  1  0.40924200  0.37992800  0.11164700  1
  O  O10  1  0.37992800  0.40924200  0.61164700  1
  O  O11  1  0.59075800  0.62007200  0.88835300  1
  O  O12  1  0.62770400  0.14465000  0.11264300  1
  O  O13  1  0.85535000  0.37229600  0.38735700  1
  O  O14  1  0.37229600  0.85535000  0.88735700  1
  O  O15  1  0.14465000  0.62770400  0.61264300  1
  O  O16  1  0.74418000  0.12170200  0.96828200  1
  O  O17  1  0.87829800  0.25582000  0.53171800  1
  O  O18  1  0.25582000  0.87829800  0.03171800  1
  O  O19  1  0.12170200  0.74418000  0.46828200  1
  O  O20  1  0.82999300  0.24456500  0.07135400  1
  O  O21  1  0.75543500  0.17000700  0.42864600  1
  O  O22  1  0.17000700  0.75543500  0.92864600  1
  O  O23  1  0.24456500  0.82999300  0.57135400  1
  O  O24  1  0.75203700  0.45771400  0.57168700  1
  O  O25  1  0.54228600  0.24796300  0.92831300  1
  O  O26  1  0.24796300  0.54228600  0.42831300  1
  O  O27  1  0.45771400  0.75203700  0.07168700  1
  O  O28  1  0.87093700  0.62083000  0.61832800  1
  O  O29  1  0.37917000  0.12906300  0.88167200  1
  O  O30  1  0.12906300  0.37917000  0.38167200  1
  O  O31  1  0.62083000  0.87093700  0.11832800  1
  O  O32  1  0.66908000  0.55458800  0.69224000  1
  O  O33  1  0.44541200  0.33092000  0.80776000  1
  O  O34  1  0.33092000  0.44541200  0.30776000  1
  O  O35  1  0.55458800  0.66908000  0.19224000  1
  O  O36  1  0.07938100  0.61877900  0.30466800  1
  O  O37  1  0.38122100  0.92061900  0.19533200  1
  O  O38  1  0.92061900  0.38122100  0.69533200  1
  O  O39  1  0.61877900  0.07938100  0.80466800  1
  O  O40  1  0.99112500  0.75831900  0.22079500  1
  O  O41  1  0.24168100  0.00887500  0.27920500  1
  O  O42  1  0.00887500  0.24168100  0.77920500  1
  O  O43  1  0.75831900  0.99112500  0.72079500  1
  O  O44  1  0.90119300  0.65545700  0.38085300  1
  O  O45  1  0.34454300  0.09880700  0.11914700  1
  O  O46  1  0.09880700  0.34454300  0.61914700  1
  O  O47  1  0.65545700  0.90119300  0.88085300  1
  O  O48  1  0.72136000  0.80565800  0.57298600  1
  O  O49  1  0.19434200  0.27864000  0.92701400  1
  O  O50  1  0.27864000  0.19434200  0.42701400  1
  O  O51  1  0.80565800  0.72136000  0.07298600  1
  O  O52  1  0.85482400  0.89109500  0.42253100  1
  O  O53  1  0.10890500  0.14517600  0.07746900  1
  O  O54  1  0.14517600  0.10890500  0.57746900  1
  O  O55  1  0.89109500  0.85482400  0.92253100  1
  O  O56  1  0.92160700  0.88778700  0.57449300  1
  O  O57  1  0.11221300  0.07839300  0.92550700  1
  O  O58  1  0.07839300  0.11221300  0.42550700  1
  O  O59  1  0.88778700  0.92160700  0.07449300  1
  O  O60  1  0.57675600  0.85921200  0.34611600  1
  O  O61  1  0.14078800  0.42324400  0.15388400  1
  O  O62  1  0.42324400  0.14078800  0.65388400  1
  O  O63  1  0.85921200  0.57675600  0.84611600  1
  O  O64  1  0.55700200  0.05758300  0.34111800  1
  O  O65  1  0.94241700  0.44299800  0.15888200  1
  O  O66  1  0.44299800  0.94241700  0.65888200  1
  O  O67  1  0.05758300  0.55700200  0.84111800  1
  O  O68  1  0.73615800  0.02040600  0.26550700  1
  O  O69  1  0.97959400  0.26384200  0.23449300  1
  O  O70  1  0.26384200  0.97959400  0.73449300  1
  O  O71  1  0.02040600  0.73615800  0.76550700  1
loop_
_geom_bond_atom_site_label_1
_geom_bond_atom_site_label_2
_geom_bond_distance
_geom_bond_site_symmetry_2
Nd0 O38 2.608374 1_455
Nd0 O36 2.608374 1_555
Nd0 O30 2.610862 1_555
Nd0 O28 2.610862 1_455
Nd0 O44 2.628447 1_455
Nd0 O46 2.628447 1_555
Nd0 O13 2.638022 1_455
Nd0 O15 2.638022 1_555
Nd0 O26 2.638212 1_555
Nd0 O24 2.638212 1_455
Nd0 O19 2.648732 1_555
Nd0 O17 2.648732 1_455
Nd1 O39 2.608374 1_554
Nd1 O37 2.608374 1_545
Nd1 O29 2.610862 1_554
Nd1 O31 2.610862 1_545
Nd1 O47 2.628447 1_544
Nd1 O45 2.628447 1_555
Nd1 O12 2.638022 1_555
Nd1 O14 2.638022 1_544
Nd1 O25 2.638212 1_554
Nd1 O27 2.638212 1_545
Nd1 O16 2.648732 1_554
Nd1 O18 2.648732 1_545
Nd2 O21 2.547122 1_555
Nd2 O20 2.547122 1_555
Nd2 O5 2.571597 1_555
Nd2 O4 2.571597 1_555
Nd2 O12 2.656980 1_555
Nd2 O13 2.656980 1_555
Nd2 O65 2.657597 1_555
Nd2 O64 2.657597 1_555
Nd2 O69 2.791519 1_555
Nd2 O68 2.791519 1_555
Nd2 O0 2.834161 1_555
Nd2 O1 2.834161 1_555
Nd3 O22 2.547122 1_555
Nd3 O23 2.547122 1_555
Nd3 O6 2.571597 1_555
Nd3 O7 2.571597 1_555
Nd3 O15 2.656980 1_555
Nd3 O14 2.656980 1_555
Nd3 O66 2.657597 1_555
Nd3 O67 2.657597 1_555
Nd3 O70 2.791519 1_555
Nd3 O71 2.791519 1_555
Nd3 O3 2.834161 1_555
Nd3 O2 2.834161 1_555
Nd4 O51 2.500324 1_555
Nd4 O40 2.544744 1_555
Nd4 O59 2.550699 1_555
Nd4 O60 2.563719 1_555
Nd4 O8 2.598112 1_555
Nd4 O35 2.607085 1_555
Nd4 O0 2.621621 1_555
Nd4 O31 2.661256 1_555
Nd4 O68 2.683791 1_565
Nd4 O44 2.854031 1_555
Nd4 O52 2.913920 1_555
Nd5 O50 2.500324 1_555
Nd5 O41 2.544744 1_555
Nd5 O58 2.550699 1_555
Nd5 O61 2.563719 1_555
Nd5 O9 2.598112 1_555
Nd5 O34 2.607085 1_555
Nd5 O1 2.621621 1_555
Nd5 O30 2.661256 1_555
Nd5 O69 2.683791 1_455
Nd5 O45 2.854031 1_555
Nd5 O53 2.913920 1_555
Nd6 O49 2.500324 1_555
Nd6 O42 2.544744 1_555
Nd6 O57 2.550699 1_555
Nd6 O62 2.563719 1_555
Nd6 O10 2.598112 1_555
Nd6 O33 2.607085 1_555
Nd6 O2 2.621621 1_555
Nd6 O29 2.661256 1_555
Nd6 O70 2.683791 1_545
Nd6 O46 2.854031 1_555
Nd6 O54 2.913920 1_555
Nd7 O48 2.500324 1_555
Nd7 O43 2.544744 1_555
Nd7 O56 2.550699 1_555
Nd7 O63 2.563719 1_555
Nd7 O11 2.598112 1_555
Nd7 O32 2.607085 1_555
Nd7 O3 2.621621 1_555
Nd7 O28 2.661256 1_555
Nd7 O71 2.683791 1_655
Nd7 O47 2.854031 1_555
Nd7 O55 2.913920 1_555
N0 O8 1.252421 1_555
N0 O4 1.258581 1_555
N0 O0 1.293269 1_555
N1 O9 1.252421 1_555
N1 O5 1.258581 1_555
N1 O1 1.293269 1_555
N2 O10 1.252421 1_555
N2 O6 1.258581 1_555
N2 O2 1.293269 1_555
N3 O11 1.252421 1_555
N3 O7 1.258581 1_555
N3 O3 1.293269 1_555
N4 O16 1.242187 1_554
N4 O20 1.255065 1_555
N4 O12 1.301891 1_555
N5 O17 1.242187 1_555
N5 O21 1.255065 1_555
N5 O13 1.301891 1_555
N6 O18 1.242187 1_556
N6 O22 1.255065 1_555
N6 O14 1.301891 1_555
N7 O19 1.242187 1_555
N7 O23 1.255065 1_555
N7 O15 1.301891 1_555
N8 O32 1.245921 1_555
N8 O24 1.249453 1_555
N8 O28 1.305174 1_555
N9 O33 1.245921 1_555
N9 O25 1.249453 1_555
N9 O29 1.305174 1_555
N10 O34 1.245921 1_555
N10 O26 1.249453 1_555
N10 O30 1.305174 1_555
N11 O35 1.245921 1_555
N11 O27 1.249453 1_555
N11 O31 1.305174 1_555
N12 O36 1.251335 1_655
N12 O40 1.256928 1_555
N12 O44 1.290893 1_555
N13 O37 1.251335 1_545
N13 O41 1.256928 1_555
N13 O45 1.290893 1_555
N14 O38 1.251335 1_455
N14 O42 1.256928 1_555
N14 O46 1.290893 1_555
N15 O39 1.251335 1_565
N15 O43 1.256928 1_555
N15 O47 1.290893 1_555
N16 O52 1.244036 1_555
N16 O56 1.278048 1_555
N16 O48 1.286752 1_555
N17 O53 1.244036 1_556
N17 O57 1.278048 1_555
N17 O49 1.286752 1_555
N18 O54 1.244036 1_555
N18 O58 1.278048 1_555
N18 O50 1.286752 1_555
N19 O55 1.244036 1_554
N19 O59 1.278048 1_555
N19 O51 1.286752 1_555
N20 O64 1.248650 1_565
N20 O60 1.259661 1_555
N20 O68 1.299493 1_565
N21 O65 1.248650 1_455
N21 O61 1.259661 1_555
N21 O69 1.299493 1_455
N22 O66 1.248650 1_545
N22 O62 1.259661 1_555
N22 O70 1.299493 1_545
N23 O67 1.248650 1_655
N23 O63 1.259661 1_555
N23 O71 1.299493 1_655
