# generated using pymatgen
data_ThCuO3
_symmetry_space_group_name_H-M   'P 1'
_cell_length_a   3.86827900
_cell_length_b   3.86827900
_cell_length_c   3.86827900
_cell_angle_alpha   90.00000000
_cell_angle_beta   90.00000000
_cell_angle_gamma   90.00000000
_symmetry_Int_Tables_number   1
_chemical_formula_structural   ThCuO3
_chemical_formula_sum   'Th1 Cu1 O3'
_cell_volume   57.88331165
_cell_formula_units_Z   1
loop_
 _symmetry_equiv_pos_site_id
 _symmetry_equiv_pos_as_xyz
  1  'x, y, z'
loop_
 _atom_site_type_symbol
 _atom_site_label
 _atom_site_symmetry_multiplicity
 _atom_site_fract_x
 _atom_site_fract_y
 _atom_site_fract_z
 _atom_site_occupancy
  Th  Th0  1  0.00000000  0.00000000  0.00000000  1
  Cu  Cu0  1  0.50000000  0.50000000  0.50000000  1
  O  O0  1  0.50000000  0.50000000  0.00000000  1
  O  O1  1  0.50000000  0.00000000  0.50000000  1
  O  O2  1  0.00000000  0.50000000  0.50000000  1
loop_
_geom_bond_atom_site_label_1
_geom_bond_atom_site_label_2
_geom_bond_distance
_geom_bond_site_symmetry_2
Cu0 O1 1.934139 1_565
Cu0 O2 1.934139 1_655
Cu0 O0 1.934139 1_556
Cu0 O1 1.934139 1_555
Cu0 O0 1.934139 1_555
Cu0 O2 1.934139 1_555
O0 Th0 2.735286 1_555
O0 Th0 2.735286 1_655
O0 Th0 2.735286 1_665
O0 Th0 2.735286 1_565
O1 Th0 2.735286 1_555
O1 Th0 2.735286 1_656
O1 Th0 2.735286 1_556
O1 Th0 2.735286 1_655
O2 Th0 2.735286 1_555
O2 Th0 2.735286 1_556
O2 Th0 2.735286 1_566
O2 Th0 2.735286 1_565
