# generated using pymatgen
data_C
_symmetry_space_group_name_H-M   'P 1'
_cell_length_a   7.76268106
_cell_length_b   7.76268106
_cell_length_c   7.76268106
_cell_angle_alpha   109.47122063
_cell_angle_beta   109.47122063
_cell_angle_gamma   109.47122063
_symmetry_Int_Tables_number   1
_chemical_formula_structural   C
_chemical_formula_sum   C29
_cell_volume   360.09188832
_cell_formula_units_Z   29
loop_
 _symmetry_equiv_pos_site_id
 _symmetry_equiv_pos_as_xyz
  1  'x, y, z'
loop_
 _atom_site_type_symbol
 _atom_site_label
 _atom_site_symmetry_multiplicity
 _atom_site_fract_x
 _atom_site_fract_y
 _atom_site_fract_z
 _atom_site_occupancy
  C  C0  1  0.00000000  0.00000000  0.00000000  1
  C  C1  1  0.37693900  0.27712400  0.00000000  1
  C  C2  1  0.09981500  0.72287600  0.72287600  1
  C  C3  1  0.37693900  0.00000000  0.27712400  1
  C  C4  1  0.27712400  0.37693900  0.00000000  1
  C  C5  1  0.00000000  0.37693900  0.27712400  1
  C  C6  1  0.72287600  0.09981500  0.72287600  1
  C  C7  1  0.72287600  0.72287600  0.09981500  1
  C  C8  1  0.00000000  0.27712400  0.37693900  1
  C  C9  1  0.27712400  0.00000000  0.37693900  1
  C  C10  1  0.62306100  0.62306100  0.90018500  1
  C  C11  1  0.90018500  0.62306100  0.62306100  1
  C  C12  1  0.62306100  0.90018500  0.62306100  1
  C  C13  1  0.80928100  0.00000000  0.00000000  1
  C  C14  1  0.00000000  0.80928100  0.00000000  1
  C  C15  1  0.00000000  0.00000000  0.80928100  1
  C  C16  1  0.19071900  0.19071900  0.19071900  1
  C  C17  1  0.41039800  0.11423200  0.00000000  1
  C  C18  1  0.29616600  0.88576800  0.88576800  1
  C  C19  1  0.41039800  0.00000000  0.11423200  1
  C  C20  1  0.11423200  0.41039800  0.00000000  1
  C  C21  1  0.00000000  0.41039800  0.11423200  1
  C  C22  1  0.88576800  0.29616600  0.88576800  1
  C  C23  1  0.88576800  0.88576800  0.29616600  1
  C  C24  1  0.00000000  0.11423200  0.41039800  1
  C  C25  1  0.11423200  0.00000000  0.41039800  1
  C  C26  1  0.58960200  0.58960200  0.70383400  1
  C  C27  1  0.70383400  0.58960200  0.58960200  1
  C  C28  1  0.58960200  0.70383400  0.58960200  1
loop_
_geom_bond_atom_site_label_1
_geom_bond_atom_site_label_2
_geom_bond_distance
_geom_bond_site_symmetry_2
C0 C16 1.480491 1_555
C0 C13 1.480491 1_455
C0 C14 1.480491 1_545
C0 C15 1.480491 1_554
C1 C4 1.265295 1_555
C1 C17 1.373068 1_555
C3 C9 1.265295 1_555
C5 C8 1.265295 1_555
C10 C7 1.265295 1_556
C10 C26 1.373068 1_555
C11 C2 1.265295 1_655
C11 C27 1.373068 1_555
C12 C6 1.265295 1_565
C12 C28 1.373068 1_555
C17 C18 1.448051 1_544
C17 C19 1.448051 1_555
C18 C2 1.373068 1_555
C18 C19 1.448051 1_566
C19 C3 1.373068 1_555
C20 C4 1.373068 1_555
C20 C22 1.448051 1_454
C20 C21 1.448051 1_555
C21 C5 1.373068 1_555
C21 C22 1.448051 1_454
C22 C6 1.373068 1_555
C23 C7 1.373068 1_555
C23 C25 1.448051 1_665
C23 C24 1.448051 1_665
C24 C8 1.373068 1_555
C24 C25 1.448051 1_555
C25 C9 1.373068 1_555
C26 C28 1.448051 1_555
C26 C27 1.448051 1_555
C27 C28 1.448051 1_555
