# generated using pymatgen
data_ScV(SeO4)2
_symmetry_space_group_name_H-M   'P 1'
_cell_length_a   16.23768400
_cell_length_b   6.72698200
_cell_length_c   6.80377633
_cell_angle_alpha   86.82215702
_cell_angle_beta   90.00000000
_cell_angle_gamma   90.00000000
_symmetry_Int_Tables_number   1
_chemical_formula_structural   ScV(SeO4)2
_chemical_formula_sum   'Sc4 V4 Se8 O32'
_cell_volume   742.03781848
_cell_formula_units_Z   4
loop_
 _symmetry_equiv_pos_site_id
 _symmetry_equiv_pos_as_xyz
  1  'x, y, z'
loop_
 _atom_site_type_symbol
 _atom_site_label
 _atom_site_symmetry_multiplicity
 _atom_site_fract_x
 _atom_site_fract_y
 _atom_site_fract_z
 _atom_site_occupancy
  Sc  Sc0  1  0.19694900  0.55773200  0.14328200  1
  Sc  Sc1  1  0.69694900  0.44226800  0.35671800  1
  Sc  Sc2  1  0.80305100  0.44226800  0.85671800  1
  Sc  Sc3  1  0.30305100  0.55773200  0.64328200  1
  V  V0  1  0.01595900  0.83087400  0.18513000  1
  V  V1  1  0.51595900  0.16912600  0.31487000  1
  V  V2  1  0.98404100  0.16912600  0.81487000  1
  V  V3  1  0.48404100  0.83087400  0.68513000  1
  Se  Se0  1  0.18308500  0.06566800  0.97542400  1
  Se  Se1  1  0.68308500  0.93433200  0.52457600  1
  Se  Se2  1  0.81691500  0.93433200  0.02457600  1
  Se  Se3  1  0.31691500  0.06566800  0.47542400  1
  Se  Se4  1  0.39357300  0.54003100  0.14712600  1
  Se  Se5  1  0.89357300  0.45996900  0.35287400  1
  Se  Se6  1  0.60642700  0.45996900  0.85287400  1
  Se  Se7  1  0.10642700  0.54003100  0.64712600  1
  O  O0  1  0.07125700  0.00595600  0.97227400  1
  O  O1  1  0.57125700  0.99404400  0.52772600  1
  O  O2  1  0.92874300  0.99404400  0.02772600  1
  O  O3  1  0.42874300  0.00595600  0.47227400  1
  O  O4  1  0.06992000  0.62023800  0.13402100  1
  O  O5  1  0.56992000  0.37976200  0.36597900  1
  O  O6  1  0.93008000  0.37976200  0.86597900  1
  O  O7  1  0.43008000  0.62023800  0.63402100  1
  O  O8  1  0.06039900  0.92612100  0.37133000  1
  O  O9  1  0.56039900  0.07387900  0.12867000  1
  O  O10  1  0.93960100  0.07387900  0.62867000  1
  O  O11  1  0.43960100  0.92612100  0.87133000  1
  O  O12  1  0.41862900  0.28886600  0.19033900  1
  O  O13  1  0.91862900  0.71113400  0.30966100  1
  O  O14  1  0.58137100  0.71113400  0.80966100  1
  O  O15  1  0.08137100  0.28886600  0.69033900  1
  O  O16  1  0.18448700  0.24937400  0.13717100  1
  O  O17  1  0.68448700  0.75062600  0.36282900  1
  O  O18  1  0.81551300  0.75062600  0.86282900  1
  O  O19  1  0.31551300  0.24937400  0.63717100  1
  O  O20  1  0.21572300  0.86815000  0.12008600  1
  O  O21  1  0.71572300  0.13185000  0.37991400  1
  O  O22  1  0.78427700  0.13185000  0.87991400  1
  O  O23  1  0.28427700  0.86815000  0.62008600  1
  O  O24  1  0.32161700  0.52421900  0.96321100  1
  O  O25  1  0.82161700  0.47578100  0.53678900  1
  O  O26  1  0.67838300  0.47578100  0.03678900  1
  O  O27  1  0.17838300  0.52421900  0.46321100  1
  O  O28  1  0.31719700  0.56730600  0.32105700  1
  O  O29  1  0.81719700  0.43269400  0.17894300  1
  O  O30  1  0.68280300  0.43269400  0.67894300  1
  O  O31  1  0.18280300  0.56730600  0.82105700  1
loop_
_geom_bond_atom_site_label_1
_geom_bond_atom_site_label_2
_geom_bond_distance
_geom_bond_site_symmetry_2
O0 Se0 1.860105 1_555
O0 V0 2.025251 1_546
O0 V2 2.055963 1_455
O1 Se1 1.860105 1_555
O1 V1 2.025251 1_565
O1 V3 2.055963 1_555
O2 Se2 1.860105 1_555
O2 V2 2.025251 1_564
O2 V0 2.055963 1_655
O3 Se3 1.860105 1_555
O3 V3 2.025251 1_545
O3 V1 2.055963 1_555
O4 V0 1.717850 1_555
O4 Sc0 2.105323 1_555
O5 V1 1.717850 1_555
O5 Sc1 2.105323 1_555
O6 V2 1.717850 1_555
O6 Sc2 2.105323 1_555
O7 V3 1.717850 1_555
O7 Sc3 2.105323 1_555
O8 V0 1.620548 1_555
O9 V1 1.620548 1_555
O10 V2 1.620548 1_555
O11 V3 1.620548 1_555
O12 Se4 1.746878 1_555
O12 V1 1.946468 1_555
O13 Se5 1.746878 1_555
O13 V0 1.946468 1_655
O14 Se6 1.746878 1_555
O14 V3 1.946468 1_555
O15 Se7 1.746878 1_555
O15 V2 1.946468 1_455
O16 Se0 1.699867 1_554
O16 Sc0 2.086872 1_555
O17 Se1 1.699867 1_555
O17 Sc1 2.086872 1_555
O18 Se2 1.699867 1_556
O18 Sc2 2.086872 1_555
O19 Se3 1.699867 1_555
O19 Sc3 2.086872 1_555
O20 Se0 1.694124 1_564
O20 Sc0 2.107553 1_555
O21 Se1 1.694124 1_545
O21 Sc1 2.107553 1_555
O22 Se2 1.694124 1_546
O22 Sc2 2.107553 1_555
O23 Se3 1.694124 1_565
O23 Sc3 2.107553 1_555
O24 Se4 1.719599 1_556
O24 Sc3 2.196687 1_555
O24 Sc0 2.383346 1_556
O25 Se5 1.719599 1_555
O25 Sc2 2.196687 1_555
O25 Sc1 2.383346 1_555
O26 Se6 1.719599 1_554
O26 Sc1 2.196687 1_555
O26 Sc2 2.383346 1_554
O27 Se7 1.719599 1_555
O27 Sc0 2.196687 1_555
O27 Sc3 2.383346 1_555
O28 Se4 1.730943 1_555
O28 Sc3 2.201736 1_555
O28 Sc0 2.299614 1_555
O29 Se5 1.730943 1_555
O29 Sc2 2.201736 1_554
O29 Sc1 2.299614 1_555
O30 Se6 1.730943 1_555
O30 Sc1 2.201736 1_555
O30 Sc2 2.299614 1_555
O31 Se7 1.730943 1_555
O31 Sc0 2.201736 1_556
O31 Sc3 2.299614 1_555
