# generated using pymatgen
data_YbSiPd
_symmetry_space_group_name_H-M   'P 1'
_cell_length_a   4.42087600
_cell_length_b   7.10476200
_cell_length_c   7.19473900
_cell_angle_alpha   90.00000000
_cell_angle_beta   90.00000000
_cell_angle_gamma   90.00000000
_symmetry_Int_Tables_number   1
_chemical_formula_structural   YbSiPd
_chemical_formula_sum   'Yb4 Si4 Pd4'
_cell_volume   225.98151286
_cell_formula_units_Z   4
loop_
 _symmetry_equiv_pos_site_id
 _symmetry_equiv_pos_as_xyz
  1  'x, y, z'
loop_
 _atom_site_type_symbol
 _atom_site_label
 _atom_site_symmetry_multiplicity
 _atom_site_fract_x
 _atom_site_fract_y
 _atom_site_fract_z
 _atom_site_occupancy
  Yb  Yb0  1  0.25000000  0.49388700  0.18420800  1
  Yb  Yb1  1  0.75000000  0.50611300  0.81579200  1
  Yb  Yb2  1  0.75000000  0.00611300  0.68420800  1
  Yb  Yb3  1  0.25000000  0.99388700  0.31579200  1
  Si  Si0  1  0.25000000  0.80557900  0.89647100  1
  Si  Si1  1  0.75000000  0.19442100  0.10352900  1
  Si  Si2  1  0.75000000  0.69442100  0.39647100  1
  Si  Si3  1  0.25000000  0.30557900  0.60352900  1
  Pd  Pd0  1  0.25000000  0.65944700  0.57573400  1
  Pd  Pd1  1  0.75000000  0.34055300  0.42426600  1
  Pd  Pd2  1  0.75000000  0.84055300  0.07573400  1
  Pd  Pd3  1  0.25000000  0.15944700  0.92426600  1
loop_
_geom_bond_atom_site_label_1
_geom_bond_atom_site_label_2
_geom_bond_distance
_geom_bond_site_symmetry_2
Si0 Yb0 3.031451 1_556
Si0 Yb2 3.041087 1_465
Si0 Yb2 3.041087 1_565
Si0 Yb1 3.122468 1_455
Si0 Yb1 3.122468 1_555
Si0 Yb3 3.300250 1_556
Si1 Yb1 3.031451 1_554
Si1 Yb3 3.041087 1_645
Si1 Yb3 3.041087 1_545
Si1 Yb0 3.122468 1_555
Si1 Yb0 3.122468 1_655
Si1 Yb2 3.300250 1_554
Si2 Yb2 3.031451 1_565
Si2 Yb0 3.041087 1_555
Si2 Yb0 3.041087 1_655
Si2 Yb3 3.122468 1_555
Si2 Yb3 3.122468 1_655
Si2 Yb1 3.300250 1_555
Si3 Yb3 3.031451 1_545
Si3 Yb1 3.041087 1_455
Si3 Yb1 3.041087 1_555
Si3 Yb2 3.122468 1_455
Si3 Yb2 3.122468 1_555
Si3 Yb0 3.300250 1_555
Pd0 Si3 2.522089 1_555
Pd0 Si0 2.530422 1_555
Pd0 Si2 2.571232 1_455
Pd0 Si2 2.571232 1_555
Pd0 Yb1 3.009301 1_455
Pd0 Yb1 3.009301 1_555
Pd0 Yb3 3.023844 1_555
Pd0 Yb0 3.052651 1_555
Pd0 Yb2 3.400205 1_465
Pd0 Yb2 3.400205 1_565
Pd1 Si2 2.522089 1_555
Pd1 Si1 2.530422 1_555
Pd1 Si3 2.571232 1_555
Pd1 Si3 2.571232 1_655
Pd1 Yb0 3.009301 1_555
Pd1 Yb0 3.009301 1_655
Pd1 Yb2 3.023844 1_555
Pd1 Yb1 3.052651 1_555
Pd1 Yb3 3.400205 1_645
Pd1 Yb3 3.400205 1_545
Pd2 Si1 2.522089 1_565
Pd2 Si2 2.530422 1_555
Pd2 Si0 2.571232 1_554
Pd2 Si0 2.571232 1_654
Pd2 Yb3 3.009301 1_555
Pd2 Yb3 3.009301 1_655
Pd2 Yb1 3.023844 1_554
Pd2 Yb2 3.052651 1_564
Pd2 Yb0 3.400205 1_555
Pd2 Yb0 3.400205 1_655
Pd3 Si0 2.522089 1_545
Pd3 Si3 2.530422 1_555
Pd3 Si1 2.571232 1_456
Pd3 Si1 2.571232 1_556
Pd3 Yb2 3.009301 1_455
Pd3 Yb2 3.009301 1_555
Pd3 Yb0 3.023844 1_556
Pd3 Yb3 3.052651 1_546
Pd3 Yb1 3.400205 1_555
Pd3 Yb1 3.400205 1_455
