# generated using pymatgen
data_TbZrO14
_symmetry_space_group_name_H-M   'P 1'
_cell_length_a   7.64378612
_cell_length_b   7.64378612
_cell_length_c   7.64378612
_cell_angle_alpha   60.00000000
_cell_angle_beta   60.00000000
_cell_angle_gamma   60.00000000
_symmetry_Int_Tables_number   1
_chemical_formula_structural   TbZrO14
_chemical_formula_sum   'Tb2 Zr2 O28'
_cell_volume   315.79887760
_cell_formula_units_Z   2
loop_
 _symmetry_equiv_pos_site_id
 _symmetry_equiv_pos_as_xyz
  1  'x, y, z'
loop_
 _atom_site_type_symbol
 _atom_site_label
 _atom_site_symmetry_multiplicity
 _atom_site_fract_x
 _atom_site_fract_y
 _atom_site_fract_z
 _atom_site_occupancy
  Tb  Tb0  1  0.00000000  0.00000000  0.00000000  1
  Tb  Tb1  1  0.75000000  0.75000000  0.75000000  1
  Zr  Zr0  1  0.50000000  0.50000000  0.50000000  1
  Zr  Zr1  1  0.25000000  0.25000000  0.25000000  1
  O  O0  1  0.87500000  0.87500000  0.87500000  1
  O  O1  1  0.37500000  0.87500000  0.87500000  1
  O  O2  1  0.87500000  0.37500000  0.87500000  1
  O  O3  1  0.87500000  0.87500000  0.37500000  1
  O  O4  1  0.50651300  0.50651300  0.18146700  1
  O  O5  1  0.80550800  0.18146700  0.50651300  1
  O  O6  1  0.18146700  0.80550800  0.50651300  1
  O  O7  1  0.50651300  0.18146700  0.50651300  1
  O  O8  1  0.94449200  0.24348700  0.56853300  1
  O  O9  1  0.24348700  0.24348700  0.56853300  1
  O  O10  1  0.50651300  0.50651300  0.80550800  1
  O  O11  1  0.18146700  0.50651300  0.80550800  1
  O  O12  1  0.24348700  0.56853300  0.24348700  1
  O  O13  1  0.94449200  0.56853300  0.24348700  1
  O  O14  1  0.80550800  0.50651300  0.18146700  1
  O  O15  1  0.24348700  0.94449200  0.24348700  1
  O  O16  1  0.56853300  0.94449200  0.24348700  1
  O  O17  1  0.50651300  0.80550800  0.50651300  1
  O  O18  1  0.56853300  0.24348700  0.94449200  1
  O  O19  1  0.24348700  0.24348700  0.94449200  1
  O  O20  1  0.18146700  0.50651300  0.50651300  1
  O  O21  1  0.50651300  0.18146700  0.80550800  1
  O  O22  1  0.80550800  0.50651300  0.50651300  1
  O  O23  1  0.50651300  0.80550800  0.18146700  1
  O  O24  1  0.24348700  0.56853300  0.94449200  1
  O  O25  1  0.56853300  0.24348700  0.24348700  1
  O  O26  1  0.24348700  0.94449200  0.56853300  1
  O  O27  1  0.94449200  0.24348700  0.24348700  1
loop_
_geom_bond_atom_site_label_1
_geom_bond_atom_site_label_2
_geom_bond_distance
_geom_bond_site_symmetry_2
O0 Tb0 2.340422 1_666
O0 Tb1 2.340422 1_555
O1 Tb1 2.340422 1_555
O1 Tb0 2.340422 1_566
O2 Tb1 2.340422 1_555
O2 Tb0 2.340422 1_656
O3 Tb1 2.340422 1_555
O3 Tb0 2.340422 1_665
O4 Zr0 2.386053 1_555
O5 O8 1.676336 1_555
O5 Zr0 2.386057 1_555
O6 Zr0 2.386057 1_555
O7 O9 1.676350 1_555
O7 Zr0 2.386053 1_555
O8 Zr1 2.386057 1_655
O9 Zr1 2.386053 1_555
O10 O24 1.676347 1_555
O10 O18 1.676347 1_555
O10 Zr0 2.386061 1_555
O11 O24 1.676336 1_555
O11 O19 1.676347 1_555
O11 Zr0 2.386057 1_555
O12 O4 1.676350 1_555
O12 O20 1.676350 1_555
O12 Zr1 2.386053 1_555
O13 O14 1.676336 1_555
O13 O22 1.676347 1_555
O13 Zr1 2.386057 1_655
O14 O27 1.676347 1_555
O14 Zr0 2.386057 1_555
O15 O23 1.676347 1_555
O15 O6 1.676347 1_555
O15 Zr1 2.386061 1_565
O16 O23 1.676336 1_555
O16 O17 1.676347 1_555
O16 Zr1 2.386057 1_565
O17 O26 1.676347 1_555
O17 Zr0 2.386061 1_555
O18 O21 1.676336 1_555
O18 Zr1 2.386057 1_556
O19 O21 1.676347 1_555
O19 Zr1 2.386061 1_556
O20 O9 1.676350 1_555
O20 Zr0 2.386053 1_555
O21 Zr0 2.386057 1_555
O22 O8 1.676347 1_555
O22 Zr0 2.386061 1_555
O23 Zr0 2.386057 1_555
O24 Zr1 2.386057 1_556
O25 O4 1.676350 1_555
O25 O7 1.676350 1_555
O25 Zr1 2.386053 1_555
O26 O6 1.676336 1_555
O26 Zr1 2.386057 1_565
O27 O5 1.676347 1_555
O27 Zr1 2.386061 1_655
