# generated using pymatgen
data_CaV4O6
_symmetry_space_group_name_H-M   'P 1'
_cell_length_a   3.07854600
_cell_length_b   5.30709467
_cell_length_c   15.52465975
_cell_angle_alpha   89.32278337
_cell_angle_beta   90.00020641
_cell_angle_gamma   73.13797805
_symmetry_Int_Tables_number   1
_chemical_formula_structural   CaV4O6
_chemical_formula_sum   'Ca2 V8 O12'
_cell_volume   242.72031778
_cell_formula_units_Z   2
loop_
 _symmetry_equiv_pos_site_id
 _symmetry_equiv_pos_as_xyz
  1  'x, y, z'
loop_
 _atom_site_type_symbol
 _atom_site_label
 _atom_site_symmetry_multiplicity
 _atom_site_fract_x
 _atom_site_fract_y
 _atom_site_fract_z
 _atom_site_occupancy
  Ca  Ca0  1  0.34996200  0.29981800  0.74803400  1
  Ca  Ca1  1  0.64991000  0.70035700  0.25174900  1
  V  V0  1  0.86177200  0.27642700  0.54192300  1
  V  V1  1  0.40251200  0.19507500  0.36583700  1
  V  V2  1  0.40046400  0.19920600  0.13453300  1
  V  V3  1  0.59861100  0.80259700  0.86962500  1
  V  V4  1  0.13549200  0.72915200  0.04459400  1
  V  V5  1  0.86500000  0.26999400  0.95508000  1
  V  V6  1  0.13794400  0.72429600  0.45687900  1
  V  V7  1  0.60054400  0.79864300  0.63629200  1
  O  O0  1  0.49685100  0.00638800  0.49710500  1
  O  O1  1  0.49479800  0.01047600  0.00392700  1
  O  O2  1  0.68144600  0.63678700  0.74798900  1
  O  O3  1  0.32073200  0.35886900  0.24909100  1
  O  O4  1  0.96725200  0.06517900  0.84115800  1
  O  O5  1  0.02857700  0.94299400  0.15946900  1
  O  O6  1  0.02949700  0.94114800  0.34062600  1
  O  O7  1  0.97108500  0.05736600  0.65672700  1
  O  O8  1  0.22953300  0.54088600  0.91726900  1
  O  O9  1  0.77688100  0.44648100  0.08459400  1
  O  O10  1  0.77674100  0.44673800  0.41106500  1
  O  O11  1  0.22438800  0.55112200  0.58643700  1
loop_
_geom_bond_atom_site_label_1
_geom_bond_atom_site_label_2
_geom_bond_distance
_geom_bond_site_symmetry_2
Ca0 O2 2.301784 1_555
Ca0 O2 2.301848 1_455
Ca0 O4 2.415923 1_555
Ca0 O4 2.416088 1_455
Ca0 O7 2.436612 1_555
Ca0 O7 2.437051 1_455
Ca0 O11 2.800669 1_555
Ca0 O8 2.912271 1_555
Ca1 O3 2.319560 1_555
Ca1 O3 2.319813 1_655
Ca1 O6 2.410479 1_655
Ca1 O6 2.410509 1_555
Ca1 O5 2.428327 1_655
Ca1 O5 2.428332 1_555
Ca1 O10 2.774504 1_555
Ca1 O9 2.911942 1_555
O0 V0 2.181199 1_555
O0 V0 2.181406 1_455
O0 V6 2.198597 1_545
O0 V6 2.198745 1_645
O0 V1 2.241238 1_555
O0 V7 2.392937 1_545
O1 V5 2.157963 1_554
O1 V5 2.158077 1_454
O1 V4 2.187929 1_545
O1 V4 2.188007 1_645
O1 V2 2.253450 1_555
O1 V3 2.348679 1_544
O2 V7 1.909847 1_555
O2 V3 2.077106 1_555
O3 V2 1.963716 1_555
O3 V1 1.984881 1_555
O4 V5 2.062885 1_555
O4 V3 2.080425 1_545
O4 V3 2.080676 1_645
O5 V2 2.049405 1_465
O5 V2 2.049430 1_565
O5 V4 2.099507 1_555
O6 V1 2.048948 1_565
O6 V1 2.048994 1_465
O6 V6 2.102661 1_555
O7 V7 2.050897 1_545
O7 V7 2.051293 1_645
O7 V0 2.089366 1_555
O8 V5 2.141692 1_455
O8 V5 2.141726 1_555
O8 V3 2.158347 1_555
O8 V3 2.158581 1_455
O8 V4 2.206409 1_556
O9 V2 2.126735 1_655
O9 V2 2.127034 1_555
O9 V4 2.189456 1_655
O9 V4 2.189627 1_555
O9 V5 2.211503 1_554
O10 V1 2.125465 1_655
O10 V1 2.125784 1_555
O10 V0 2.198160 1_555
O10 V6 2.210699 1_655
O10 V6 2.210723 1_555
O11 V7 2.138260 1_555
O11 V7 2.138583 1_455
O11 V6 2.185266 1_555
O11 V0 2.194761 1_455
O11 V0 2.194866 1_555
