# generated using pymatgen
data_Sm11(In3Ge2)2
_symmetry_space_group_name_H-M   'P 1'
_cell_length_a   11.75326623
_cell_length_b   11.75326623
_cell_length_c   11.75326623
_cell_angle_alpha   119.63850181
_cell_angle_beta   119.63850181
_cell_angle_gamma   90.62728202
_symmetry_Int_Tables_number   1
_chemical_formula_structural   Sm11(In3Ge2)2
_chemical_formula_sum   'Sm22 In12 Ge8'
_cell_volume   1154.24788320
_cell_formula_units_Z   2
loop_
 _symmetry_equiv_pos_site_id
 _symmetry_equiv_pos_as_xyz
  1  'x, y, z'
loop_
 _atom_site_type_symbol
 _atom_site_label
 _atom_site_symmetry_multiplicity
 _atom_site_fract_x
 _atom_site_fract_y
 _atom_site_fract_z
 _atom_site_occupancy
  Sm  Sm0  1  0.16419900  0.16419900  0.00000000  1
  Sm  Sm1  1  0.83580100  0.83580100  0.00000000  1
  Sm  Sm2  1  0.56382500  0.31292000  0.25090500  1
  Sm  Sm3  1  0.43617500  0.68708000  0.74909500  1
  Sm  Sm4  1  0.06201500  0.31292000  0.74909500  1
  Sm  Sm5  1  0.31292000  0.06201500  0.74909500  1
  Sm  Sm6  1  0.93798500  0.68708000  0.25090500  1
  Sm  Sm7  1  0.68708000  0.93798500  0.25090500  1
  Sm  Sm8  1  0.31292000  0.56382500  0.25090500  1
  Sm  Sm9  1  0.68708000  0.43617500  0.74909500  1
  Sm  Sm10  1  0.44469700  0.09946700  0.34523000  1
  Sm  Sm11  1  0.55530300  0.90053300  0.65477000  1
  Sm  Sm12  1  0.75423700  0.09946700  0.65477000  1
  Sm  Sm13  1  0.09946700  0.75423700  0.65477000  1
  Sm  Sm14  1  0.24576300  0.90053300  0.34523000  1
  Sm  Sm15  1  0.90053300  0.24576300  0.34523000  1
  Sm  Sm16  1  0.09946700  0.44469700  0.34523000  1
  Sm  Sm17  1  0.90053300  0.55530300  0.65477000  1
  Sm  Sm18  1  0.33173800  0.33173800  0.66347500  1
  Sm  Sm19  1  0.66826200  0.66826200  0.33652500  1
  Sm  Sm20  1  0.33173800  0.66826200  0.00000000  1
  Sm  Sm21  1  0.66826200  0.33173800  0.00000000  1
  In  In0  1  0.37785700  0.37785700  0.41382900  1
  In  In1  1  0.62214300  0.62214300  0.58617100  1
  In  In2  1  0.96402700  0.96402700  0.58617100  1
  In  In3  1  0.37785700  0.96402700  0.00000000  1
  In  In4  1  0.03597300  0.62214300  0.00000000  1
  In  In5  1  0.03597300  0.03597300  0.41382900  1
  In  In6  1  0.62214300  0.03597300  0.00000000  1
  In  In7  1  0.96402700  0.37785700  0.00000000  1
  In  In8  1  0.12872500  0.12872500  0.25744900  1
  In  In9  1  0.87127500  0.87127500  0.74255100  1
  In  In10  1  0.12872500  0.87127500  0.00000000  1
  In  In11  1  0.87127500  0.12872500  0.00000000  1
  Ge  Ge0  1  0.50000000  0.15398500  0.65398500  1
  Ge  Ge1  1  0.50000000  0.84601500  0.34601500  1
  Ge  Ge2  1  0.15398500  0.50000000  0.65398500  1
  Ge  Ge3  1  0.84601500  0.50000000  0.34601500  1
  Ge  Ge4  1  0.37920300  0.37920300  0.00000000  1
  Ge  Ge5  1  0.62079700  0.62079700  0.00000000  1
  Ge  Ge6  1  0.75000000  0.25000000  0.50000000  1
  Ge  Ge7  1  0.25000000  0.75000000  0.50000000  1
loop_
_geom_bond_atom_site_label_1
_geom_bond_atom_site_label_2
_geom_bond_distance
_geom_bond_site_symmetry_2
In0 In1 2.984190 1_555
In0 In8 3.113257 1_555
In0 Sm10 3.169649 1_555
In0 Sm16 3.169649 1_555
In0 Sm8 3.428904 1_555
In0 Sm2 3.428904 1_555
In0 Sm0 3.459827 1_555
In0 Sm9 3.509356 1_555
In0 Sm3 3.509356 1_555
In0 Sm18 3.512344 1_555
In1 In9 3.113257 1_555
In1 Sm17 3.169649 1_555
In1 Sm11 3.169649 1_555
In1 Sm3 3.428904 1_555
In1 Sm9 3.428904 1_555
In1 Sm1 3.459827 1_556
In1 Sm8 3.509356 1_555
In1 Sm2 3.509356 1_555
In1 Sm19 3.512344 1_555
In2 In5 2.984219 1_665
In2 In9 3.113257 1_555
In2 Sm13 3.169643 1_655
In2 Sm12 3.169643 1_565
In2 Sm5 3.428915 1_665
In2 Sm4 3.428915 1_665
In2 Sm0 3.459827 1_666
In2 Sm7 3.509357 1_555
In2 Sm6 3.509357 1_555
In2 Sm19 3.512344 1_555
In3 In6 2.984197 1_565
In3 Sm13 3.169647 1_554
In3 Sm10 3.169647 1_565
In3 Sm5 3.428913 1_564
In3 Sm2 3.428913 1_565
In3 Sm0 3.459835 1_565
In3 Sm3 3.509350 1_554
In3 Sm7 3.509350 1_555
In3 Sm20 3.512344 1_555
In4 In7 2.984197 1_455
In4 Sm17 3.169647 1_454
In4 Sm14 3.169647 1_555
In4 Sm9 3.428913 1_454
In4 Sm6 3.428913 1_455
In4 Sm1 3.459835 1_455
In4 Sm8 3.509350 1_555
In4 Sm4 3.509350 1_554
In4 Sm20 3.512344 1_555
In5 In8 3.113257 1_555
In5 Sm14 3.169643 1_545
In5 Sm15 3.169643 1_455
In5 Sm7 3.428915 1_445
In5 Sm6 3.428915 1_445
In5 Sm1 3.459827 1_445
In5 Sm5 3.509357 1_555
In5 Sm4 3.509357 1_555
In5 Sm18 3.512344 1_555
In6 Sm15 3.169647 1_555
In6 Sm11 3.169647 1_544
In6 Sm3 3.428913 1_544
In6 Sm7 3.428913 1_545
In6 Sm1 3.459835 1_545
In6 Sm2 3.509350 1_555
In6 Sm5 3.509350 1_554
In6 Sm21 3.512344 1_555
In7 Sm16 3.169647 1_655
In7 Sm12 3.169647 1_554
In7 Sm4 3.428913 1_654
In7 Sm8 3.428913 1_655
In7 Sm0 3.459835 1_655
In7 Sm9 3.509350 1_554
In7 Sm6 3.509350 1_555
In7 Sm21 3.512344 1_555
In8 Sm18 3.392828 1_555
In8 Sm16 3.400530 1_555
In8 Sm10 3.400530 1_555
In8 Sm14 3.400538 1_545
In8 Sm15 3.400538 1_455
In8 Sm0 3.463422 1_555
In8 Sm1 3.463435 1_445
In9 Sm19 3.392828 1_555
In9 Sm17 3.400530 1_555
In9 Sm11 3.400530 1_555
In9 Sm12 3.400538 1_565
In9 Sm13 3.400538 1_655
In9 Sm1 3.463422 1_556
In9 Sm0 3.463435 1_666
In10 In8 3.042391 1_565
In10 In9 3.042391 1_454
In10 In3 3.113257 1_555
In10 In4 3.113257 1_555
In10 Sm20 3.392828 1_555
In10 Sm10 3.400532 1_565
In10 Sm14 3.400532 1_555
In10 Sm17 3.400532 1_454
In10 Sm13 3.400532 1_554
In10 Sm1 3.463434 1_455
In10 Sm0 3.463434 1_565
In11 In8 3.042391 1_655
In11 In9 3.042391 1_544
In11 In7 3.113257 1_555
In11 In6 3.113257 1_555
In11 Sm21 3.392828 1_555
In11 Sm15 3.400532 1_555
In11 Sm11 3.400532 1_544
In11 Sm16 3.400532 1_655
In11 Sm12 3.400532 1_554
In11 Sm0 3.463434 1_655
In11 Sm1 3.463434 1_545
Ge0 Sm18 2.892452 1_555
Ge0 Sm21 2.892452 1_556
Ge0 Sm11 3.059412 1_545
Ge0 Sm14 3.059412 1_545
Ge0 Sm10 3.059412 1_555
Ge0 Sm12 3.059412 1_555
Ge0 Sm5 3.290421 1_555
Ge0 Sm9 3.290421 1_555
Ge1 Sm19 2.892452 1_555
Ge1 Sm20 2.892452 1_555
Ge1 Sm11 3.059412 1_555
Ge1 Sm14 3.059412 1_555
Ge1 Sm12 3.059412 1_565
Ge1 Sm10 3.059412 1_565
Ge1 Sm8 3.290421 1_555
Ge1 Sm7 3.290421 1_555
Ge2 Sm18 2.892452 1_555
Ge2 Sm20 2.892452 1_556
Ge2 Sm17 3.059412 1_455
Ge2 Sm16 3.059412 1_555
Ge2 Sm15 3.059412 1_455
Ge2 Sm13 3.059412 1_555
Ge2 Sm3 3.290421 1_555
Ge2 Sm4 3.290421 1_555
Ge3 Sm19 2.892452 1_555
Ge3 Sm21 2.892452 1_555
Ge3 Sm17 3.059412 1_555
Ge3 Sm13 3.059412 1_655
Ge3 Sm15 3.059412 1_555
Ge3 Sm16 3.059412 1_655
Ge3 Sm2 3.290421 1_555
Ge3 Sm6 3.290421 1_555
Ge4 Sm4 3.161021 1_554
Ge4 Sm8 3.161021 1_555
Ge4 Sm5 3.161021 1_554
Ge4 Sm2 3.161021 1_555
Ge4 Sm20 3.448907 1_555
Ge4 Sm21 3.448907 1_555
Ge4 Sm19 3.448909 1_555
Ge4 Sm18 3.448918 1_554
Ge4 Sm0 3.554100 1_555
Ge5 Sm6 3.161021 1_555
Ge5 Sm7 3.161021 1_555
Ge5 Sm3 3.161021 1_554
Ge5 Sm9 3.161021 1_554
Ge5 Sm20 3.448907 1_555
Ge5 Sm21 3.448907 1_555
Ge5 Sm18 3.448909 1_554
Ge5 Sm19 3.448918 1_555
Ge5 Sm1 3.554100 1_555
Ge6 Sm10 3.088230 1_555
Ge6 Sm12 3.088230 1_555
Ge6 Sm17 3.088230 1_555
Ge6 Sm15 3.088230 1_555
Ge6 Sm4 3.122009 1_655
Ge6 Sm9 3.122009 1_555
Ge6 Sm7 3.122009 1_545
Ge6 Sm2 3.122009 1_555
Ge7 Sm13 3.088230 1_555
Ge7 Sm16 3.088230 1_555
Ge7 Sm11 3.088230 1_555
Ge7 Sm14 3.088230 1_555
Ge7 Sm5 3.122009 1_565
Ge7 Sm3 3.122009 1_555
Ge7 Sm6 3.122009 1_455
Ge7 Sm8 3.122009 1_555
