# generated using pymatgen
data_Mg14MnCdO16
_symmetry_space_group_name_H-M   'P 1'
_cell_length_a   4.33207700
_cell_length_b   8.64550200
_cell_length_c   8.65153300
_cell_angle_alpha   90.00000000
_cell_angle_beta   90.00000000
_cell_angle_gamma   90.00000000
_symmetry_Int_Tables_number   1
_chemical_formula_structural   Mg14MnCdO16
_chemical_formula_sum   'Mg14 Mn1 Cd1 O16'
_cell_volume   324.02569560
_cell_formula_units_Z   1
loop_
 _symmetry_equiv_pos_site_id
 _symmetry_equiv_pos_as_xyz
  1  'x, y, z'
loop_
 _atom_site_type_symbol
 _atom_site_label
 _atom_site_symmetry_multiplicity
 _atom_site_fract_x
 _atom_site_fract_y
 _atom_site_fract_z
 _atom_site_occupancy
  Mg  Mg0  1  0.00000000  0.50000000  0.00000000  1
  Mg  Mg1  1  0.00000000  0.50000000  0.50000000  1
  Mg  Mg2  1  0.50000000  0.00000000  0.24685600  1
  Mg  Mg3  1  0.50000000  0.00000000  0.75314400  1
  Mg  Mg4  1  0.50000000  0.50000000  0.24962300  1
  Mg  Mg5  1  0.50000000  0.50000000  0.75037700  1
  Mg  Mg6  1  0.50000000  0.25219700  0.00000000  1
  Mg  Mg7  1  0.50000000  0.25514900  0.50000000  1
  Mg  Mg8  1  0.50000000  0.74780300  0.00000000  1
  Mg  Mg9  1  0.50000000  0.74485100  0.50000000  1
  Mg  Mg10  1  0.00000000  0.25363500  0.24852400  1
  Mg  Mg11  1  0.00000000  0.25363500  0.75147600  1
  Mg  Mg12  1  0.00000000  0.74636500  0.24852400  1
  Mg  Mg13  1  0.00000000  0.74636500  0.75147600  1
  Mn  Mn0  1  0.00000000  0.00000000  0.00000000  1
  Cd  Cd0  1  0.00000000  0.00000000  0.50000000  1
  O  O0  1  0.00000000  0.25943900  0.00000000  1
  O  O1  1  0.00000000  0.26619200  0.50000000  1
  O  O2  1  0.00000000  0.74056100  0.00000000  1
  O  O3  1  0.00000000  0.73380800  0.50000000  1
  O  O4  1  0.50000000  0.24878200  0.25028100  1
  O  O5  1  0.50000000  0.24878200  0.74971900  1
  O  O6  1  0.50000000  0.75121800  0.25028100  1
  O  O7  1  0.50000000  0.75121800  0.74971900  1
  O  O8  1  0.50000000  0.00000000  0.00000000  1
  O  O9  1  0.50000000  0.00000000  0.50000000  1
  O  O10  1  0.50000000  0.50000000  0.00000000  1
  O  O11  1  0.50000000  0.50000000  0.50000000  1
  O  O12  1  0.00000000  0.00000000  0.24107200  1
  O  O13  1  0.00000000  0.00000000  0.75892800  1
  O  O14  1  0.00000000  0.50000000  0.24858000  1
  O  O15  1  0.00000000  0.50000000  0.75142000  1
loop_
_geom_bond_atom_site_label_1
_geom_bond_atom_site_label_2
_geom_bond_distance
_geom_bond_site_symmetry_2
Mg0 O0 2.079771 1_555
Mg0 O2 2.079771 1_555
Mg0 O15 2.150598 1_554
Mg0 O14 2.150598 1_555
Mg0 O10 2.166038 1_455
Mg0 O10 2.166038 1_555
Mg1 O1 2.021388 1_555
Mg1 O3 2.021388 1_555
Mg1 O11 2.166038 1_455
Mg1 O11 2.166038 1_555
Mg1 O14 2.175168 1_555
Mg1 O15 2.175168 1_555
Mg2 O8 2.135683 1_555
Mg2 O6 2.151049 1_545
Mg2 O4 2.151049 1_555
Mg2 O12 2.166616 1_655
Mg2 O12 2.166616 1_555
Mg2 O9 2.190084 1_555
Mg3 O8 2.135683 1_556
Mg3 O7 2.151049 1_545
Mg3 O5 2.151049 1_555
Mg3 O13 2.166616 1_555
Mg3 O13 2.166616 1_655
Mg3 O9 2.190084 1_555
Mg4 O10 2.159622 1_555
Mg4 O14 2.166057 1_655
Mg4 O14 2.166057 1_555
Mg4 O11 2.166145 1_555
Mg4 O4 2.171913 1_555
Mg4 O6 2.171913 1_555
Mg5 O10 2.159622 1_556
Mg5 O15 2.166057 1_555
Mg5 O15 2.166057 1_655
Mg5 O11 2.166145 1_555
Mg5 O5 2.171913 1_555
Mg5 O7 2.171913 1_555
Mg6 O10 2.142381 1_555
Mg6 O4 2.165516 1_555
Mg6 O5 2.165516 1_554
Mg6 O0 2.166943 1_555
Mg6 O0 2.166943 1_655
Mg6 O8 2.180370 1_555
Mg7 O11 2.116860 1_555
Mg7 O4 2.161153 1_555
Mg7 O5 2.161153 1_555
Mg7 O1 2.168142 1_655
Mg7 O1 2.168142 1_555
Mg7 O9 2.205891 1_555
Mg8 O10 2.142381 1_555
Mg8 O7 2.165516 1_554
Mg8 O6 2.165516 1_555
Mg8 O2 2.166943 1_655
Mg8 O2 2.166943 1_555
Mg8 O8 2.180370 1_565
Mg9 O11 2.116860 1_555
Mg9 O7 2.161153 1_555
Mg9 O6 2.161153 1_555
Mg9 O3 2.168142 1_655
Mg9 O3 2.168142 1_555
Mg9 O9 2.205891 1_565
Mg10 O14 2.129949 1_555
Mg10 O0 2.150699 1_555
Mg10 O4 2.166498 1_555
Mg10 O4 2.166498 1_455
Mg10 O1 2.178360 1_555
Mg10 O12 2.193749 1_555
Mg11 O15 2.129949 1_555
Mg11 O0 2.150699 1_556
Mg11 O5 2.166498 1_455
Mg11 O5 2.166498 1_555
Mg11 O1 2.178360 1_555
Mg11 O13 2.193749 1_555
Mg12 O14 2.129949 1_555
Mg12 O2 2.150699 1_555
Mg12 O6 2.166498 1_455
Mg12 O6 2.166498 1_555
Mg12 O3 2.178360 1_555
Mg12 O12 2.193749 1_565
Mg13 O15 2.129949 1_555
Mg13 O2 2.150699 1_556
Mg13 O7 2.166498 1_555
Mg13 O7 2.166498 1_455
Mg13 O3 2.178360 1_555
Mg13 O13 2.193749 1_565
Mn0 O13 2.085642 1_554
Mn0 O12 2.085642 1_555
Mn0 O8 2.166038 1_455
Mn0 O8 2.166038 1_555
Mn0 O0 2.242980 1_555
Mn0 O2 2.242980 1_545
Cd0 O9 2.166038 1_555
Cd0 O9 2.166038 1_455
Cd0 O12 2.240124 1_555
Cd0 O13 2.240124 1_555
Cd0 O1 2.301363 1_555
Cd0 O3 2.301363 1_545
