# generated using pymatgen
data_Sc2Te(SeO5)2
_symmetry_space_group_name_H-M   'P 1'
_cell_length_a   11.22117200
_cell_length_b   6.63295100
_cell_length_c   12.86464861
_cell_angle_alpha   78.23463544
_cell_angle_beta   90.00000000
_cell_angle_gamma   90.00000000
_symmetry_Int_Tables_number   1
_chemical_formula_structural   Sc2Te(SeO5)2
_chemical_formula_sum   'Sc8 Te4 Se8 O40'
_cell_volume   937.39268418
_cell_formula_units_Z   4
loop_
 _symmetry_equiv_pos_site_id
 _symmetry_equiv_pos_as_xyz
  1  'x, y, z'
loop_
 _atom_site_type_symbol
 _atom_site_label
 _atom_site_symmetry_multiplicity
 _atom_site_fract_x
 _atom_site_fract_y
 _atom_site_fract_z
 _atom_site_occupancy
  Sc  Sc0  1  0.84111900  0.19790300  0.58986700  1
  Sc  Sc1  1  0.34111900  0.80209700  0.91013300  1
  Sc  Sc2  1  0.15888100  0.80209700  0.41013300  1
  Sc  Sc3  1  0.65888100  0.19790300  0.08986700  1
  Sc  Sc4  1  0.70218500  0.74368800  0.53343600  1
  Sc  Sc5  1  0.20218500  0.25631200  0.96656400  1
  Sc  Sc6  1  0.29781500  0.25631200  0.46656400  1
  Sc  Sc7  1  0.79781500  0.74368800  0.03343600  1
  Te  Te0  1  0.97643800  0.67898800  0.66472100  1
  Te  Te1  1  0.47643800  0.32101200  0.83527900  1
  Te  Te2  1  0.02356200  0.32101200  0.33527900  1
  Te  Te3  1  0.52356200  0.67898800  0.16472100  1
  Se  Se0  1  0.60641600  0.29233500  0.45514000  1
  Se  Se1  1  0.10641600  0.70766500  0.04486000  1
  Se  Se2  1  0.39358400  0.70766500  0.54486000  1
  Se  Se3  1  0.89358400  0.29233500  0.95514000  1
  Se  Se4  1  0.65083300  0.86885700  0.78060500  1
  Se  Se5  1  0.15083300  0.13114300  0.71939500  1
  Se  Se6  1  0.34916700  0.13114300  0.21939500  1
  Se  Se7  1  0.84916700  0.86885700  0.28060500  1
  O  O0  1  0.85726200  0.86640300  0.59333000  1
  O  O1  1  0.35726200  0.13359700  0.90667000  1
  O  O2  1  0.14273800  0.13359700  0.40667000  1
  O  O3  1  0.64273800  0.86640300  0.09333000  1
  O  O4  1  0.08026800  0.69879400  0.55014500  1
  O  O5  1  0.58026800  0.30120600  0.94985500  1
  O  O6  1  0.91973200  0.30120600  0.44985500  1
  O  O7  1  0.41973200  0.69879400  0.05014500  1
  O  O8  1  0.87945700  0.45610800  0.64674700  1
  O  O9  1  0.37945700  0.54389200  0.85325300  1
  O  O10  1  0.12054300  0.54389200  0.35325300  1
  O  O11  1  0.62054300  0.45610800  0.14674700  1
  O  O12  1  0.68544800  0.42084000  0.53956200  1
  O  O13  1  0.18544800  0.57916000  0.96043800  1
  O  O14  1  0.31455200  0.57916000  0.46043800  1
  O  O15  1  0.81455200  0.42084000  0.03956200  1
  O  O16  1  0.69145400  0.07196600  0.49803300  1
  O  O17  1  0.19145400  0.92803400  0.00196700  1
  O  O18  1  0.30854600  0.92803400  0.50196700  1
  O  O19  1  0.80854600  0.07196600  0.99803300  1
  O  O20  1  0.47538300  0.24100100  0.52196700  1
  O  O21  1  0.97538300  0.75899900  0.97803300  1
  O  O22  1  0.52461700  0.75899900  0.47803300  1
  O  O23  1  0.02461700  0.24100100  0.02196700  1
  O  O24  1  0.62864500  0.71727300  0.69179300  1
  O  O25  1  0.12864500  0.28272700  0.80820700  1
  O  O26  1  0.37135500  0.28272700  0.30820700  1
  O  O27  1  0.87135500  0.71727300  0.19179300  1
  O  O28  1  0.72198600  0.08753900  0.73059100  1
  O  O29  1  0.22198600  0.91246100  0.76940900  1
  O  O30  1  0.27801400  0.91246100  0.26940900  1
  O  O31  1  0.77801400  0.08753900  0.23059100  1
  O  O32  1  0.73016300  0.72985400  0.87978100  1
  O  O33  1  0.23016300  0.27014600  0.62021900  1
  O  O34  1  0.26983700  0.27014600  0.12021900  1
  O  O35  1  0.76983700  0.72985400  0.37978100  1
  O  O36  1  0.51740400  0.92918400  0.82361000  1
  O  O37  1  0.01740400  0.07081600  0.67639000  1
  O  O38  1  0.48259600  0.07081600  0.17639000  1
  O  O39  1  0.98259600  0.92918400  0.32361000  1
loop_
_geom_bond_atom_site_label_1
_geom_bond_atom_site_label_2
_geom_bond_distance
_geom_bond_site_symmetry_2
O0 Te0 1.926549 1_555
O0 Sc4 2.130751 1_555
O0 Sc0 2.197652 1_565
O1 Te1 1.926549 1_555
O1 Sc5 2.130751 1_555
O1 Sc1 2.197652 1_545
O2 Te2 1.926549 1_555
O2 Sc6 2.130751 1_555
O2 Sc2 2.197652 1_545
O3 Te3 1.926549 1_555
O3 Sc7 2.130751 1_555
O3 Sc3 2.197652 1_565
O4 Te0 1.862351 1_455
O4 Sc2 1.997169 1_555
O5 Te1 1.862351 1_555
O5 Sc3 1.997169 1_556
O6 Te2 1.862351 1_655
O6 Sc0 1.997169 1_555
O7 Te3 1.862351 1_555
O7 Sc1 1.997169 1_554
O8 Te0 1.887502 1_555
O8 Sc0 2.040784 1_555
O9 Te1 1.887502 1_555
O9 Sc1 2.040784 1_555
O10 Te2 1.887502 1_555
O10 Sc2 2.040784 1_555
O11 Te3 1.887502 1_555
O11 Sc3 2.040784 1_555
O12 Se0 1.752154 1_555
O12 Sc4 2.135042 1_555
O12 Sc0 2.294895 1_555
O13 Se1 1.752154 1_556
O13 Sc5 2.135042 1_555
O13 Sc1 2.294895 1_555
O14 Se2 1.752154 1_555
O14 Sc6 2.135042 1_555
O14 Sc2 2.294895 1_555
O15 Se3 1.752154 1_554
O15 Sc7 2.135042 1_555
O15 Sc3 2.294895 1_555
O16 Se0 1.738582 1_555
O16 Sc4 2.135134 1_545
O16 Sc0 2.305735 1_555
O17 Se1 1.738582 1_555
O17 Sc5 2.135134 1_564
O17 Sc1 2.305735 1_554
O18 Se2 1.738582 1_555
O18 Sc6 2.135134 1_565
O18 Sc2 2.305735 1_555
O19 Se3 1.738582 1_555
O19 Sc7 2.135134 1_546
O19 Sc3 2.305735 1_556
O20 Se0 1.702224 1_555
O20 Sc6 2.111619 1_555
O21 Se1 1.702224 1_656
O21 Sc7 2.111619 1_556
O22 Se2 1.702224 1_555
O22 Sc4 2.111619 1_555
O23 Se3 1.702224 1_454
O23 Sc5 2.111619 1_554
O24 Se4 1.687240 1_555
O24 Sc4 2.171707 1_555
O25 Se5 1.687240 1_555
O25 Sc5 2.171707 1_555
O26 Se6 1.687240 1_555
O26 Sc6 2.171707 1_555
O27 Se7 1.687240 1_555
O27 Sc7 2.171707 1_555
O28 Se4 1.665781 1_545
O28 Sc0 2.249426 1_555
O29 Se5 1.665781 1_565
O29 Sc1 2.249426 1_555
O30 Se6 1.665781 1_565
O30 Sc2 2.249426 1_555
O31 Se7 1.665781 1_545
O31 Sc3 2.249426 1_555
O32 Se4 1.670510 1_555
O32 Sc7 2.136841 1_556
O33 Se5 1.670510 1_555
O33 Sc6 2.136841 1_555
O34 Se6 1.670510 1_555
O34 Sc5 2.136841 1_554
O35 Se7 1.670510 1_555
O35 Sc4 2.136841 1_555
O36 Se4 1.672774 1_555
O36 Sc1 2.340915 1_555
O37 Se5 1.672774 1_555
O37 Sc0 2.340915 1_455
O38 Se6 1.672774 1_555
O38 Sc3 2.340915 1_555
O39 Se7 1.672774 1_555
O39 Sc2 2.340915 1_655
