# generated using pymatgen
data_Sr6La14Mn17(SnO20)3
_symmetry_space_group_name_H-M   'P 1'
_cell_length_a   5.59241709
_cell_length_b   5.57028426
_cell_length_c   55.96387204
_cell_angle_alpha   61.06860112
_cell_angle_beta   60.64900189
_cell_angle_gamma   60.67033218
_symmetry_Int_Tables_number   1
_chemical_formula_structural   Sr6La14Mn17(SnO20)3
_chemical_formula_sum   'Sr6 La14 Mn17 Sn3 O60'
_cell_volume   1254.82544235
_cell_formula_units_Z   1
loop_
 _symmetry_equiv_pos_site_id
 _symmetry_equiv_pos_as_xyz
  1  'x, y, z'
loop_
 _atom_site_type_symbol
 _atom_site_label
 _atom_site_symmetry_multiplicity
 _atom_site_fract_x
 _atom_site_fract_y
 _atom_site_fract_z
 _atom_site_occupancy
  Sr  Sr0  1  0.26206115  0.25764955  0.02238628  1
  Sr  Sr1  1  0.24510869  0.25274410  0.12364993  1
  Sr  Sr2  1  0.24716631  0.24386804  0.62702729  1
  Sr  Sr3  1  0.25030306  0.24868013  0.72527204  1
  Sr  Sr4  1  0.25287169  0.25250510  0.82389824  1
  Sr  Sr5  1  0.26348412  0.26582995  0.92050450  1
  La  La0  1  0.24670881  0.23087020  0.22839854  1
  La  La1  1  0.74213536  0.75824459  0.07227731  1
  La  La2  1  0.24344121  0.24492072  0.32720631  1
  La  La3  1  0.75269841  0.75371583  0.17370474  1
  La  La4  1  0.24679799  0.24696666  0.42666958  1
  La  La5  1  0.74288913  0.73465774  0.27888534  1
  La  La6  1  0.24114223  0.24494677  0.52790819  1
  La  La7  1  0.74731933  0.74822645  0.37668325  1
  La  La8  1  0.74456712  0.74791786  0.47687398  1
  La  La9  1  0.74147521  0.74311603  0.57852818  1
  La  La10  1  0.74843440  0.74917883  0.67649806  1
  La  La11  1  0.75067717  0.75206705  0.77460735  1
  La  La12  1  0.75655651  0.75514703  0.87195090  1
  La  La13  1  0.76552631  0.76981888  0.96880562  1
  Mn  Mn0  1  0.50230933  0.50776399  0.04807269  1
  Mn  Mn1  1  0.49349628  0.50395720  0.15001389  1
  Mn  Mn2  1  0.49599381  0.49078997  0.25207735  1
  Mn  Mn3  1  0.99607214  0.99706601  0.40112027  1
  Mn  Mn4  1  0.49381937  0.49585080  0.35158748  1
  Mn  Mn5  1  0.99411633  0.99931078  0.50076491  1
  Mn  Mn6  1  0.49655101  0.49704040  0.45097878  1
  Mn  Mn7  1  0.99164688  0.99548872  0.30173478  1
  Mn  Mn8  1  0.50055647  0.49475116  0.55076132  1
  Mn  Mn9  1  0.49857747  0.49658845  0.65080822  1
  Mn  Mn10  1  0.00217263  0.00282079  0.79922754  1
  Mn  Mn11  1  0.50053812  0.49915649  0.75000927  1
  Mn  Mn12  1  0.99467013  0.99861841  0.60098468  1
  Mn  Mn13  1  0.00924949  0.00796445  0.89755034  1
  Mn  Mn14  1  0.50432265  0.50489476  0.84860133  1
  Mn  Mn15  1  0.99972033  0.99868418  0.70029013  1
  Mn  Mn16  1  0.51175737  0.51246791  0.94694144  1
  Sn  Sn0  1  0.01286487  0.00823978  0.99772187  1
  Sn  Sn1  1  0.99173188  0.00437964  0.09897820  1
  Sn  Sn2  1  0.00387172  0.98979332  0.20095515  1
  O  O0  1  0.15672981  0.33485534  0.07472113  1
  O  O1  1  0.35500448  0.76037655  0.01460178  1
  O  O2  1  0.24972288  0.80878993  0.06685444  1
  O  O3  1  0.74726702  0.19654879  0.03136167  1
  O  O4  1  0.17320338  0.32871304  0.17608697  1
  O  O5  1  0.67139502  0.24702668  0.08072095  1
  O  O6  1  0.31958747  0.75859551  0.11608503  1
  O  O7  1  0.82594770  0.69815339  0.02678958  1
  O  O8  1  0.25026795  0.81126796  0.16776238  1
  O  O9  1  0.73573909  0.18753077  0.13341299  1
  O  O10  1  0.17096313  0.30950496  0.27639224  1
  O  O11  1  0.66704138  0.23289343  0.18530532  1
  O  O12  1  0.34455869  0.74942187  0.21678426  1
  O  O13  1  0.80105704  0.68333584  0.12829258  1
  O  O14  1  0.23541650  0.81413091  0.27011254  1
  O  O15  1  0.75917318  0.14834602  0.23546513  1
  O  O16  1  0.17303559  0.31745814  0.37572983  1
  O  O17  1  0.67476243  0.23677767  0.28516687  1
  O  O18  1  0.30790510  0.75152576  0.31905877  1
  O  O19  1  0.83818889  0.65344989  0.22708403  1
  O  O20  1  0.24379461  0.82003918  0.36900270  1
  O  O21  1  0.74617202  0.17305312  0.33354173  1
  O  O22  1  0.17472369  0.31912655  0.47468630  1
  O  O23  1  0.67985038  0.24025876  0.38371885  1
  O  O24  1  0.31699841  0.75250528  0.41803735  1
  O  O25  1  0.81755031  0.67401684  0.32568239  1
  O  O26  1  0.24604889  0.82174032  0.46833263  1
  O  O27  1  0.74767901  0.17305877  0.43317274  1
  O  O28  1  0.18626115  0.31494650  0.57376346  1
  O  O29  1  0.67669738  0.24624810  0.48319911  1
  O  O30  1  0.31362327  0.75067620  0.51832383  1
  O  O31  1  0.82096713  0.67542275  0.42488633  1
  O  O32  1  0.25454553  0.81107893  0.56884119  1
  O  O33  1  0.74500831  0.17379828  0.53275539  1
  O  O34  1  0.18633691  0.31146185  0.67536822  1
  O  O35  1  0.70626232  0.25044553  0.57969928  1
  O  O36  1  0.30806280  0.74511332  0.61958262  1
  O  O37  1  0.81721194  0.67908581  0.52354350  1
  O  O38  1  0.25196869  0.79555675  0.67067561  1
  O  O39  1  0.74724263  0.18535752  0.63162783  1
  O  O40  1  0.18799555  0.31221666  0.77489742  1
  O  O41  1  0.70525848  0.24949329  0.67941838  1
  O  O42  1  0.30726591  0.75006912  0.71923654  1
  O  O43  1  0.79713395  0.70027588  0.62353068  1
  O  O44  1  0.25325358  0.79613296  0.77023930  1
  O  O45  1  0.74710662  0.18868149  0.73116950  1
  O  O46  1  0.19744487  0.31918776  0.87319804  1
  O  O47  1  0.70919325  0.24690077  0.77925146  1
  O  O48  1  0.31467177  0.75480375  0.81807613  1
  O  O49  1  0.79436049  0.70476987  0.72437038  1
  O  O50  1  0.26101856  0.79417994  0.86918140  1
  O  O51  1  0.75480250  0.19079898  0.82987175  1
  O  O52  1  0.18652157  0.33812970  0.97333490  1
  O  O53  1  0.71183609  0.25704671  0.87720345  1
  O  O54  1  0.32002925  0.75480099  0.91736524  1
  O  O55  1  0.80126422  0.70629854  0.82461066  1
  O  O56  1  0.26957308  0.81463389  0.96602961  1
  O  O57  1  0.75011384  0.20802739  0.92904500  1
  O  O58  1  0.69783969  0.25751291  0.97829745  1
  O  O59  1  0.80394212  0.70764786  0.92452788  1
loop_
_geom_bond_atom_site_label_1
_geom_bond_atom_site_label_2
_geom_bond_distance
_geom_bond_site_symmetry_2
La0 O19 2.344035 1_455
La0 O14 2.366093 1_545
La0 O11 2.405021 1_555
La0 O10 2.725172 1_555
La0 O15 2.792211 1_455
La0 O12 2.795377 1_545
La0 O15 2.868056 1_555
La0 O12 2.906642 1_555
La0 O4 2.907429 1_555
La1 O0 2.366095 1_655
La1 O3 2.408340 1_565
La1 O6 2.432159 1_555
La1 O7 2.512606 1_555
La1 O2 2.780593 1_555
La1 O5 2.792662 1_565
La1 O2 2.843419 1_655
La1 O5 2.847325 1_555
La2 O20 2.390909 1_545
La2 O17 2.405898 1_555
La2 O25 2.412021 1_455
La2 O16 2.747753 1_555
La2 O18 2.809228 1_555
La2 O21 2.815608 1_555
La2 O18 2.823466 1_545
La2 O21 2.829541 1_455
La2 O10 2.894465 1_555
La3 O12 2.371899 1_555
La3 O9 2.376142 1_565
La3 O4 2.387558 1_655
La3 O13 2.621465 1_555
La3 O8 2.796413 1_655
La3 O11 2.809704 1_565
La3 O8 2.835272 1_555
La3 O11 2.881286 1_555
La3 O19 2.998134 1_555
La4 O26 2.388232 1_545
La4 O31 2.410735 1_455
La4 O23 2.436356 1_555
La4 O22 2.714700 1_555
La4 O27 2.805882 1_555
La4 O24 2.810382 1_555
La4 O24 2.831209 1_545
La4 O27 2.842205 1_455
La4 O16 2.891789 1_555
La5 O18 2.366448 1_555
La5 O15 2.407090 1_565
La5 O10 2.407717 1_655
La5 O25 2.687973 1_555
La5 O14 2.771717 1_655
La5 O17 2.804946 1_565
La5 O17 2.814370 1_555
La5 O19 2.900145 1_555
La5 O14 2.901048 1_555
La6 O32 2.393408 1_545
La6 O37 2.430621 1_455
La6 O29 2.493746 1_555
La6 O28 2.628798 1_555
La6 O33 2.778865 1_555
La6 O30 2.798464 1_555
La6 O30 2.855631 1_545
La6 O33 2.857340 1_455
La6 O35 2.974279 1_455
La6 O22 2.987244 1_555
La7 O24 2.384407 1_555
La7 O16 2.414826 1_655
La7 O21 2.429315 1_565
La7 O31 2.734670 1_555
La7 O23 2.773900 1_565
La7 O20 2.793828 1_655
La7 O23 2.850608 1_555
La7 O20 2.861968 1_555
La7 O25 2.890526 1_555
La8 O30 2.388963 1_555
La8 O22 2.423241 1_655
La8 O27 2.446392 1_565
La8 O37 2.655616 1_555
La8 O29 2.785940 1_565
La8 O26 2.808596 1_655
La8 O29 2.833478 1_555
La8 O26 2.857134 1_555
La8 O31 2.925660 1_555
La9 O36 2.385976 1_555
La9 O28 2.469795 1_655
La9 O33 2.523612 1_565
La9 O43 2.571186 1_555
La9 O35 2.765960 1_565
La9 O35 2.813735 1_555
La9 O32 2.830337 1_655
La9 O32 2.844514 1_555
La10 O42 2.454062 1_555
La10 O34 2.468580 1_655
La10 O39 2.511266 1_565
La10 O49 2.697396 1_555
La10 O41 2.755820 1_565
La10 O38 2.798990 1_655
La10 O38 2.825653 1_555
La10 O41 2.830525 1_555
La10 O43 2.975292 1_555
La10 O45 3.141206 1_555
La10 O34 3.170675 1_565
La10 O36 3.188861 1_655
La11 O48 2.459298 1_555
La11 O45 2.470758 1_565
La11 O40 2.472784 1_655
La11 O47 2.779652 1_565
La11 O44 2.792501 1_555
La11 O47 2.812891 1_555
La11 O44 2.822029 1_655
La11 O55 2.826858 1_555
La11 O49 2.830841 1_555
La12 O51 2.429988 1_565
La12 O46 2.473923 1_655
La12 O54 2.517267 1_555
La12 O55 2.671523 1_555
La12 O50 2.747604 1_555
La12 O53 2.768712 1_555
La12 O53 2.828975 1_565
La12 O50 2.858306 1_655
La12 O59 2.956431 1_555
La12 O48 3.099487 1_655
La12 O46 3.166546 1_565
La12 O57 3.173608 1_555
La13 O57 2.375664 1_565
La13 O52 2.416322 1_655
La13 O1 2.462074 1_556
La13 O59 2.557703 1_555
La13 O56 2.736014 1_555
La13 O58 2.821965 1_555
La13 O58 2.827898 1_565
La13 O56 2.873125 1_655
La13 O54 3.022938 1_655
Mn0 O3 1.934585 1_555
Mn0 O2 1.959873 1_555
Mn0 O1 1.998576 1_555
Mn0 O5 2.030448 1_555
Mn0 O7 2.089056 1_555
Mn0 O0 2.120177 1_555
Mn1 O8 1.951047 1_555
Mn1 O9 1.953553 1_555
Mn1 O13 1.973146 1_555
Mn1 O4 2.015712 1_555
Mn1 O6 2.101497 1_555
Mn1 O11 2.163510 1_555
Mn2 O14 2.032719 1_555
Mn2 O10 2.054117 1_555
Mn2 O19 2.070765 1_555
Mn2 O15 2.071986 1_555
Mn2 O17 2.079604 1_555
Mn2 O12 2.094116 1_555
Mn3 O23 1.993956 1_565
Mn3 O24 1.998977 1_655
Mn3 O27 2.008208 1_565
Mn3 O20 2.014400 1_655
Mn3 O31 2.018507 1_555
Mn3 O16 2.020329 1_665
Mn4 O20 2.014752 1_555
Mn4 O16 2.025464 1_555
Mn4 O21 2.029388 1_555
Mn4 O25 2.039491 1_555
Mn4 O23 2.061247 1_555
Mn4 O18 2.078383 1_555
Mn5 O33 2.000679 1_565
Mn5 O29 2.004964 1_565
Mn5 O30 2.014108 1_655
Mn5 O37 2.019407 1_555
Mn5 O26 2.030415 1_655
Mn5 O22 2.031238 1_665
Mn6 O26 2.015075 1_555
Mn6 O27 2.026632 1_555
Mn6 O22 2.028798 1_555
Mn6 O31 2.043605 1_555
Mn6 O29 2.045200 1_555
Mn6 O24 2.075705 1_555
Mn7 O17 1.969348 1_565
Mn7 O18 1.991591 1_655
Mn7 O10 2.000154 1_665
Mn7 O21 2.002272 1_565
Mn7 O14 2.006569 1_655
Mn7 O25 2.014334 1_555
Mn8 O35 1.989578 1_555
Mn8 O32 2.001688 1_555
Mn8 O28 2.002186 1_555
Mn8 O33 2.019590 1_555
Mn8 O37 2.033289 1_555
Mn8 O30 2.077766 1_555
Mn9 O41 1.979277 1_555
Mn9 O38 1.987417 1_555
Mn9 O34 2.010373 1_555
Mn9 O39 2.016652 1_555
Mn9 O43 2.021599 1_555
Mn9 O36 2.035933 1_555
Mn10 O44 1.979709 1_545
Mn10 O47 1.981302 1_455
Mn10 O51 1.985911 1_455
Mn10 O55 1.997944 1_445
Mn10 O40 2.000279 1_555
Mn10 O48 2.026676 1_545
Mn11 O44 1.991671 1_555
Mn11 O45 2.001676 1_555
Mn11 O49 2.003247 1_555
Mn11 O47 2.013723 1_555
Mn11 O40 2.018063 1_555
Mn11 O42 2.025719 1_555
Mn12 O39 1.981710 1_565
Mn12 O43 1.994366 1_555
Mn12 O35 2.009583 1_565
Mn12 O36 2.022545 1_655
Mn12 O32 2.051175 1_655
Mn12 O28 2.055690 1_665
Mn13 O50 1.978982 1_545
Mn13 O53 2.013800 1_455
Mn13 O46 2.016396 1_555
Mn13 O59 2.033426 1_445
Mn13 O54 2.052876 1_545
Mn13 O57 2.064690 1_455
Mn14 O50 1.971265 1_555
Mn14 O53 1.981993 1_555
Mn14 O46 1.988925 1_555
Mn14 O55 2.000249 1_555
Mn14 O48 2.002491 1_555
Mn14 O51 2.013944 1_555
Mn15 O38 1.993923 1_655
Mn15 O49 2.001387 1_555
Mn15 O45 2.003445 1_565
Mn15 O42 2.008452 1_655
Mn15 O34 2.018225 1_665
Mn15 O41 2.020125 1_565
Mn16 O57 1.943127 1_555
Mn16 O59 1.958850 1_555
Mn16 O54 1.967646 1_555
Mn16 O56 1.973959 1_555
Mn16 O58 2.027394 1_555
Mn16 O52 2.035170 1_555
O0 Sn1 2.025163 1_455
O0 Sr0 2.896438 1_555
O1 Sn0 2.093244 1_564
O1 Sr0 2.769055 1_565
O1 Sr0 2.885385 1_555
O2 Sn1 2.076766 1_465
O2 Sr0 2.535716 1_565
O3 Sn0 2.119838 1_654
O3 Sr0 2.827909 1_555
O3 Sr0 2.834317 1_655
O4 Sn2 2.077282 1_545
O5 Sn1 2.041139 1_555
O5 Sr1 2.416849 1_555
O6 Sn1 2.036205 1_465
O6 Sr1 2.785800 1_565
O6 Sr1 2.848699 1_555
O7 Sn0 2.026256 1_664
O7 Sr0 2.482527 1_655
O8 Sn2 2.067334 1_555
O8 Sr1 2.503858 1_565
O9 Sn1 2.137954 1_555
O9 Sr1 2.800174 1_655
O9 Sr1 2.874049 1_555
O11 Sn2 2.029776 1_645
O12 Sn2 2.053132 1_555
O13 Sn1 2.083554 1_565
O13 Sr1 2.474373 1_655
O15 Sn2 2.063502 1_645
O19 Sn2 2.056373 1_655
O28 Sr2 2.979860 1_555
O32 Sr2 3.260310 1_555
O34 Sr2 2.744856 1_555
O34 Sr3 2.821690 1_555
O35 Sr2 2.634458 1_555
O36 Sr2 2.784279 1_555
O36 Sr2 2.839347 1_565
O38 Sr2 2.510067 1_565
O38 Sr3 3.099994 1_555
O39 Sr2 2.779462 1_555
O39 Sr2 2.845127 1_655
O40 Sr4 2.781543 1_555
O40 Sr3 2.800208 1_555
O41 Sr3 2.580331 1_555
O41 Sr2 3.011166 1_655
O42 Sr3 2.804450 1_565
O42 Sr3 2.805202 1_555
O43 Sr2 2.562994 1_655
O43 Sr2 3.086444 1_565
O44 Sr3 2.559298 1_565
O44 Sr4 3.064223 1_555
O45 Sr3 2.796837 1_555
O45 Sr3 2.836169 1_655
O46 Sr5 2.706178 1_555
O46 Sr4 2.808297 1_555
O47 Sr4 2.550106 1_555
O47 Sr3 3.053203 1_655
O48 Sr4 2.781434 1_565
O48 Sr4 2.830021 1_555
O49 Sr3 2.571845 1_655
O49 Sr3 3.066889 1_565
O50 Sr4 2.584889 1_565
O50 Sr5 2.954991 1_555
O51 Sr4 2.811110 1_655
O51 Sr4 2.823600 1_555
O52 Sn0 2.050610 1_555
O52 Sr0 2.770503 1_556
O52 Sr5 2.970459 1_555
O53 Sr5 2.489917 1_555
O53 Sr4 3.033858 1_655
O54 Sr5 2.789517 1_565
O54 Sr5 2.806385 1_555
O55 Sr4 2.552301 1_655
O55 Sr4 3.086315 1_565
O56 Sn0 2.051223 1_565
O56 Sr5 2.571919 1_565
O57 Sr5 2.825976 1_655
O57 Sr5 2.829513 1_555
O58 Sn0 2.057676 1_655
O58 Sr0 2.476373 1_556
O58 Sr5 3.230843 1_655
O59 Sr5 2.546529 1_655
O59 Sr5 3.104296 1_565
