# generated using pymatgen
data_Ce2Ga7Pd
_symmetry_space_group_name_H-M   'P 1'
_cell_length_a   4.32857424
_cell_length_b   4.32858651
_cell_length_c   10.51895882
_cell_angle_alpha   90.00000000
_cell_angle_beta   90.00000000
_cell_angle_gamma   90.00000000
_symmetry_Int_Tables_number   1
_chemical_formula_structural   Ce2Ga7Pd
_chemical_formula_sum   'Ce2 Ga7 Pd1'
_cell_volume   197.08960864
_cell_formula_units_Z   1
loop_
 _symmetry_equiv_pos_site_id
 _symmetry_equiv_pos_as_xyz
  1  'x, y, z'
loop_
 _atom_site_type_symbol
 _atom_site_label
 _atom_site_symmetry_multiplicity
 _atom_site_fract_x
 _atom_site_fract_y
 _atom_site_fract_z
 _atom_site_occupancy
  Ce  Ce0  1  -0.00000000  0.00000000  0.99336525  1
  Ce  Ce1  1  0.50000000  0.50000000  0.48601640  1
  Ga  Ga0  1  -0.00000000  0.50000000  0.24578064  1
  Ga  Ga1  1  0.50000000  0.00000000  0.75040456  1
  Ga  Ga2  1  0.50000000  0.00000000  0.24577964  1
  Ga  Ga3  1  0.00000000  0.50000000  0.75040356  1
  Ga  Ga4  1  -0.00000000  0.00000000  0.61923014  1
  Ga  Ga5  1  -0.00000000  -0.00000000  0.38612780  1
  Ga  Ga6  1  0.50000000  0.50000000  0.89509811  1
  Pd  Pd0  1  0.50000000  0.50000000  0.12779191  1
loop_
_geom_bond_atom_site_label_1
_geom_bond_atom_site_label_2
_geom_bond_distance
_geom_bond_site_symmetry_2
Ce0 Ga6 3.230600 1_445
Ce0 Ga6 3.230600 1_555
Ce0 Ga6 3.230600 1_545
Ce0 Ga6 3.230600 1_455
Ce0 Ga1 3.348986 1_555
Ce0 Ga1 3.348986 1_455
Ce0 Ga3 3.348998 1_545
Ce0 Ga3 3.348998 1_555
Ce0 Pd0 3.371614 1_446
Ce0 Pd0 3.371614 1_546
Ce0 Pd0 3.371614 1_456
Ce0 Pd0 3.371614 1_556
Ce0 Ga2 3.425476 1_456
Ce0 Ga2 3.425476 1_556
Ce0 Ga0 3.425488 1_556
Ce0 Ga0 3.425488 1_546
Ce1 Ga5 3.236097 1_655
Ce1 Ga5 3.236097 1_565
Ce1 Ga5 3.236097 1_665
Ce1 Ga5 3.236097 1_555
Ce1 Ga0 3.327164 1_655
Ce1 Ga0 3.327164 1_555
Ce1 Ga2 3.327176 1_565
Ce1 Ga2 3.327176 1_555
Ce1 Ga4 3.366283 1_555
Ce1 Ga4 3.366283 1_565
Ce1 Ga4 3.366283 1_665
Ce1 Ga4 3.366283 1_655
Ce1 Ga3 3.523994 1_655
Ce1 Ga3 3.523994 1_555
Ce1 Ga1 3.524006 1_555
Ce1 Ga1 3.524006 1_565
Ga0 Pd0 2.494898 1_455
Ga0 Pd0 2.494898 1_555
Ga0 Ga5 2.619856 1_565
Ga0 Ga5 2.619856 1_555
Ga1 Ga4 2.566717 1_655
Ga1 Ga4 2.566717 1_555
Ga1 Ga6 2.645889 1_555
Ga1 Ga6 2.645889 1_545
Ga1 Ga3 3.060769 1_645
Ga1 Ga3 3.060769 1_655
Ga1 Ga3 3.060769 1_545
Ga1 Ga3 3.060769 1_555
Ga2 Pd0 2.494898 1_545
Ga2 Pd0 2.494898 1_555
Ga2 Ga5 2.619857 1_555
Ga2 Ga5 2.619857 1_655
Ga3 Ga4 2.566717 1_565
Ga3 Ga4 2.566717 1_555
Ga3 Ga6 2.645890 1_455
Ga3 Ga6 2.645890 1_555
Ga4 Ga5 2.451994 1_555
Ga6 Pd0 2.447696 1_556
