# generated using pymatgen
data_SrMg14V
_symmetry_space_group_name_H-M   'P 1'
_cell_length_a   6.54088868
_cell_length_b   6.49797523
_cell_length_c   10.43156874
_cell_angle_alpha   90.00000000
_cell_angle_beta   90.00000000
_cell_angle_gamma   119.78321244
_symmetry_Int_Tables_number   1
_chemical_formula_structural   SrMg14V
_chemical_formula_sum   'Sr1 Mg14 V1'
_cell_volume   384.80405553
_cell_formula_units_Z   1
loop_
 _symmetry_equiv_pos_site_id
 _symmetry_equiv_pos_as_xyz
  1  'x, y, z'
loop_
 _atom_site_type_symbol
 _atom_site_label
 _atom_site_symmetry_multiplicity
 _atom_site_fract_x
 _atom_site_fract_y
 _atom_site_fract_z
 _atom_site_occupancy
  Sr  Sr0  1  0.16435276  0.83217588  0.12500000  1
  Mg  Mg0  1  0.16530916  0.33265408  0.62500000  1
  Mg  Mg1  1  0.16796005  0.83397953  0.62500000  1
  Mg  Mg2  1  0.66021688  0.33622800  0.12500000  1
  Mg  Mg3  1  0.66612750  0.33069382  0.62500000  1
  Mg  Mg4  1  0.66021688  0.82398788  0.12500000  1
  Mg  Mg5  1  0.66612750  0.83543268  0.62500000  1
  Mg  Mg6  1  0.33620787  0.17899047  0.38148291  1
  Mg  Mg7  1  0.33620787  0.17899047  0.86851709  1
  Mg  Mg8  1  0.33620787  0.65721841  0.38148291  1
  Mg  Mg9  1  0.33620787  0.65721841  0.86851709  1
  Mg  Mg10  1  0.84089752  0.17044926  0.36505204  1
  Mg  Mg11  1  0.84089752  0.17044926  0.88494796  1
  Mg  Mg12  1  0.82540752  0.66270426  0.38774106  1
  Mg  Mg13  1  0.82540752  0.66270426  0.86225894  1
  V  V0  1  0.17224770  0.33612335  0.12500000  1
loop_
_geom_bond_atom_site_label_1
_geom_bond_atom_site_label_2
_geom_bond_distance
_geom_bond_site_symmetry_2
Sr0 V0 3.249297 1_565
Sr0 V0 3.249297 1_555
Mg0 Mg6 3.131825 1_555
Mg0 Mg7 3.131825 1_555
Mg0 Mg8 3.131832 1_555
Mg0 Mg9 3.131832 1_555
Mg0 Mg1 3.249022 1_545
Mg0 Mg1 3.249022 1_555
Mg0 Mg5 3.258783 1_445
Mg0 Mg3 3.258783 1_455
Mg0 Mg10 3.277930 1_455
Mg0 Mg11 3.277930 1_455
Mg0 Mg5 3.282142 1_555
Mg0 Mg3 3.282143 1_555
Mg1 Mg12 3.147565 1_455
Mg1 Mg13 3.147565 1_455
Mg1 Mg8 3.199844 1_555
Mg1 Mg9 3.199844 1_555
Mg1 Mg7 3.199851 1_565
Mg1 Mg6 3.199851 1_565
Mg1 Mg3 3.253778 1_565
Mg1 Mg5 3.253778 1_555
Mg1 Mg3 3.287131 1_455
Mg1 Mg5 3.287131 1_455
Mg2 Mg4 3.169452 1_555
Mg2 V0 3.191414 1_555
Mg2 Mg6 3.246944 1_555
Mg2 Mg7 3.246944 1_554
Mg2 Sr0 3.270146 1_545
Mg2 Sr0 3.271394 1_655
Mg2 Mg4 3.328524 1_545
Mg2 V0 3.349474 1_655
Mg3 Mg7 3.157247 1_555
Mg3 Mg6 3.157247 1_555
Mg3 Mg5 3.218195 1_545
Mg3 Mg5 3.279781 1_555
Mg4 V0 3.191414 1_555
Mg4 Mg9 3.246944 1_554
Mg4 Mg8 3.246944 1_555
Mg4 Sr0 3.270146 1_555
Mg4 Sr0 3.271394 1_655
Mg4 V0 3.349474 1_665
Mg5 Mg9 3.157247 1_555
Mg5 Mg8 3.157247 1_555
Mg6 Mg8 3.107513 1_555
Mg6 V0 3.230930 1_555
Mg6 Sr0 3.314218 1_545
Mg6 Mg8 3.390462 1_545
Mg7 Mg9 3.107513 1_555
Mg7 V0 3.230930 1_556
Mg7 Sr0 3.314218 1_546
Mg7 Mg9 3.390462 1_545
Mg8 V0 3.230936 1_555
Mg8 Sr0 3.314211 1_555
Mg9 V0 3.230936 1_556
Mg9 Sr0 3.314211 1_556
Mg10 V0 3.131923 1_655
Mg10 Mg2 3.176859 1_555
Mg10 Mg4 3.176866 1_545
Mg10 Mg8 3.217132 1_655
Mg10 Mg6 3.217132 1_655
Mg10 Mg12 3.258784 1_545
Mg10 Mg12 3.258784 1_555
Mg10 Mg3 3.305551 1_555
Mg10 Mg5 3.305558 1_545
Mg10 Mg8 3.333445 1_545
Mg10 Mg6 3.333445 1_555
Mg11 V0 3.131923 1_656
Mg11 Mg2 3.176859 1_556
Mg11 Mg4 3.176866 1_546
Mg11 Mg9 3.217132 1_655
Mg11 Mg7 3.217132 1_655
Mg11 Mg13 3.258784 1_545
Mg11 Mg13 3.258784 1_555
Mg11 Mg3 3.305551 1_555
Mg11 Mg5 3.305558 1_545
Mg11 Mg9 3.333445 1_545
Mg11 Mg7 3.333445 1_555
Mg12 Mg5 3.103606 1_555
Mg12 Mg3 3.103613 1_555
Mg12 Mg6 3.182914 1_555
Mg12 Mg8 3.182914 1_555
Mg12 Mg4 3.301930 1_555
Mg12 Mg2 3.301937 1_555
Mg12 Sr0 3.348789 1_655
Mg12 Mg6 3.359571 1_665
Mg12 Mg8 3.359572 1_655
Mg13 Mg5 3.103606 1_555
Mg13 Mg3 3.103613 1_555
Mg13 Mg7 3.182914 1_555
Mg13 Mg9 3.182914 1_555
Mg13 Mg4 3.301930 1_556
Mg13 Mg2 3.301937 1_556
Mg13 Sr0 3.348789 1_656
Mg13 Mg7 3.359571 1_665
Mg13 Mg9 3.359572 1_655
