# generated using pymatgen
data_Eu2Ni12P7
_symmetry_space_group_name_H-M   'P 1'
_cell_length_a   3.70589500
_cell_length_b   9.10735372
_cell_length_c   9.12950917
_cell_angle_alpha   120.03444406
_cell_angle_beta   90.00000000
_cell_angle_gamma   90.00000000
_symmetry_Int_Tables_number   1
_chemical_formula_structural   Eu2Ni12P7
_chemical_formula_sum   'Eu2 Ni12 P7'
_cell_volume   266.75497955
_cell_formula_units_Z   1
loop_
 _symmetry_equiv_pos_site_id
 _symmetry_equiv_pos_as_xyz
  1  'x, y, z'
loop_
 _atom_site_type_symbol
 _atom_site_label
 _atom_site_symmetry_multiplicity
 _atom_site_fract_x
 _atom_site_fract_y
 _atom_site_fract_z
 _atom_site_occupancy
  Eu  Eu0  1  0.00000000  0.66651200  0.33293900  1
  Eu  Eu1  1  0.50000000  0.33328200  0.66697200  1
  Ni  Ni0  1  0.00000000  0.37651500  0.94308900  1
  Ni  Ni1  1  0.00000000  0.05694200  0.43340400  1
  Ni  Ni2  1  0.00000000  0.56657900  0.62345400  1
  Ni  Ni3  1  0.00000000  0.87691700  0.72775100  1
  Ni  Ni4  1  0.00000000  0.27256500  0.14924300  1
  Ni  Ni5  1  0.00000000  0.85068600  0.12296200  1
  Ni  Ni6  1  0.50000000  0.95178800  0.57463300  1
  Ni  Ni7  1  0.50000000  0.42534300  0.37720300  1
  Ni  Ni8  1  0.50000000  0.62270900  0.04817600  1
  Ni  Ni9  1  0.50000000  0.12015700  0.90582800  1
  Ni  Ni10  1  0.50000000  0.09438800  0.21428100  1
  Ni  Ni11  1  0.50000000  0.78576000  0.88016800  1
  P  P0  1  0.00000000  0.10971400  0.70621000  1
  P  P1  1  0.00000000  0.29398800  0.40367000  1
  P  P2  1  0.00000000  0.59615300  0.89008900  1
  P  P3  1  0.50000000  0.70319600  0.59845300  1
  P  P4  1  0.50000000  0.40162100  0.10471500  1
  P  P5  1  0.50000000  0.89507300  0.29665300  1
  P  P6  1  0.00000000  0.00011100  0.00010700  1
loop_
_geom_bond_atom_site_label_1
_geom_bond_atom_site_label_2
_geom_bond_distance
_geom_bond_site_symmetry_2
Eu0 P4 2.926239 1_555
Eu0 P4 2.926239 1_455
Eu0 P5 2.926850 1_455
Eu0 P5 2.926850 1_555
Eu0 P3 2.934311 1_555
Eu0 P3 2.934311 1_455
Eu0 Ni7 3.051140 1_455
Eu0 Ni7 3.051140 1_555
Eu0 Ni8 3.051728 1_555
Eu0 Ni8 3.051728 1_455
Eu0 Ni6 3.051822 1_455
Eu0 Ni6 3.051822 1_555
Eu0 Ni4 3.108328 1_555
Eu0 Ni5 3.115619 1_555
Eu0 Ni3 3.122467 1_555
Eu0 Ni1 3.196890 1_565
Eu0 Ni0 3.198916 1_554
Eu0 Ni2 3.206120 1_555
Eu1 P2 2.903867 1_555
Eu1 P2 2.903867 1_655
Eu1 P0 2.904761 1_555
Eu1 P0 2.904761 1_655
Eu1 P1 2.911818 1_655
Eu1 P1 2.911818 1_555
Eu1 Ni1 2.990340 1_655
Eu1 Ni1 2.990340 1_555
Eu1 Ni0 2.991549 1_655
Eu1 Ni0 2.991549 1_555
Eu1 Ni2 2.991774 1_655
Eu1 Ni2 2.991774 1_555
Eu1 Ni6 3.138491 1_545
Eu1 Ni8 3.142738 1_556
Eu1 Ni7 3.149874 1_555
Ni0 P2 2.281293 1_555
Ni0 P0 2.306670 1_555
Ni0 P4 2.307651 1_456
Ni0 P4 2.307651 1_556
Ni1 P0 2.288176 1_555
Ni1 P1 2.306734 1_555
Ni1 P5 2.307150 1_445
Ni1 P5 2.307150 1_545
Ni2 P1 2.280965 1_555
Ni2 P3 2.306052 1_555
Ni2 P3 2.306052 1_455
Ni2 P2 2.311228 1_555
Ni3 P6 2.156090 1_566
Ni3 P0 2.225119 1_565
Ni3 P3 2.336759 1_555
Ni3 P3 2.336759 1_455
Ni4 P6 2.151479 1_555
Ni4 P1 2.231540 1_555
Ni4 P4 2.336331 1_555
Ni4 P4 2.336331 1_455
Ni5 P6 2.153579 1_565
Ni5 P2 2.227137 1_554
Ni5 P5 2.338724 1_455
Ni5 P5 2.338724 1_555
Ni6 P0 2.283754 1_565
Ni6 P0 2.283754 1_665
Ni6 P5 2.322740 1_555
Ni6 P3 2.380318 1_555
Ni7 P1 2.283044 1_555
Ni7 P1 2.283044 1_655
Ni7 P3 2.316629 1_555
Ni7 P4 2.386886 1_555
Ni8 P2 2.285930 1_554
Ni8 P2 2.285930 1_654
Ni8 P4 2.315413 1_555
Ni8 P5 2.380354 1_555
Ni9 P4 2.282234 1_556
Ni9 P6 2.512284 1_656
Ni9 P6 2.512284 1_556
Ni9 P0 2.567128 1_555
Ni9 P0 2.567128 1_655
Ni10 P5 2.286285 1_545
Ni10 P6 2.512617 1_655
Ni10 P6 2.512617 1_555
Ni10 P1 2.565366 1_555
Ni10 P1 2.565366 1_655
Ni11 P3 2.290031 1_555
Ni11 P6 2.510688 1_566
Ni11 P6 2.510688 1_666
Ni11 P2 2.565168 1_555
Ni11 P2 2.565168 1_655
