# generated using pymatgen
data_La4Bi4S8O3F
_symmetry_space_group_name_H-M   'P 1'
_cell_length_a   14.32659595
_cell_length_b   14.32659595
_cell_length_c   14.32659595
_cell_angle_alpha   156.74899831
_cell_angle_beta   156.74899831
_cell_angle_gamma   33.11574474
_symmetry_Int_Tables_number   1
_chemical_formula_structural   La4Bi4S8O3F
_chemical_formula_sum   'La4 Bi4 S8 O3 F1'
_cell_volume   457.83159854
_cell_formula_units_Z   1
loop_
 _symmetry_equiv_pos_site_id
 _symmetry_equiv_pos_as_xyz
  1  'x, y, z'
loop_
 _atom_site_type_symbol
 _atom_site_label
 _atom_site_symmetry_multiplicity
 _atom_site_fract_x
 _atom_site_fract_y
 _atom_site_fract_z
 _atom_site_occupancy
  La  La0  1  0.28750000  0.80913800  0.00000000  1
  La  La1  1  0.80913800  0.28750000  0.00000000  1
  La  La2  1  0.19086200  0.19086200  0.47836200  1
  La  La3  1  0.71250000  0.71250000  0.52163800  1
  Bi  Bi0  1  0.43800900  0.43800900  0.50038700  1
  Bi  Bi1  1  0.93762300  0.93762300  0.49961300  1
  Bi  Bi2  1  0.06237700  0.56199100  0.00000000  1
  Bi  Bi3  1  0.56199100  0.06237700  0.00000000  1
  S  S0  1  0.44046000  0.94124600  0.00000000  1
  S  S1  1  0.94124600  0.44046000  0.00000000  1
  S  S2  1  0.05875400  0.05875400  0.49921400  1
  S  S3  1  0.55954000  0.55954000  0.50078600  1
  S  S4  1  0.34494600  0.34494600  0.50253200  1
  S  S5  1  0.84241400  0.84241400  0.49746800  1
  S  S6  1  0.15758600  0.65505400  0.00000000  1
  S  S7  1  0.65505400  0.15758600  0.00000000  1
  O  O0  1  0.00000000  0.00000000  0.00000000  1
  O  O1  1  0.00000000  0.50000000  0.50000000  1
  O  O2  1  0.50000000  0.00000000  0.50000000  1
  F  F0  1  0.50000000  0.50000000  0.00000000  1
loop_
_geom_bond_atom_site_label_1
_geom_bond_atom_site_label_2
_geom_bond_distance
_geom_bond_site_symmetry_2
La0 O0 2.361284 1_565
La0 O1 2.436464 1_554
La0 O2 2.436464 1_565
La0 S4 3.094569 1_565
La0 S5 3.094569 1_454
La0 S4 3.195831 1_554
La0 S5 3.195831 1_555
La1 O0 2.361284 1_655
La1 O2 2.436464 1_554
La1 O1 2.436464 1_655
La1 S4 3.094569 1_655
La1 S5 3.094569 1_544
La1 S4 3.195831 1_554
La1 S5 3.195831 1_555
La2 O0 2.361284 1_555
La2 O2 2.436464 1_555
La2 O1 2.436464 1_555
La2 S7 3.094569 1_455
La2 S6 3.094569 1_545
La2 S7 3.195831 1_556
La2 S6 3.195831 1_556
La3 O0 2.361284 1_666
La3 O1 2.436464 1_655
La3 O2 2.436464 1_565
La3 S7 3.094569 1_566
La3 S6 3.094569 1_656
La3 S7 3.195831 1_555
La3 S6 3.195831 1_555
Bi0 S4 2.585447 1_555
Bi0 S1 2.887064 1_455
Bi0 S0 2.887064 1_545
Bi0 S0 2.889367 1_556
Bi0 S1 2.889367 1_556
Bi1 S5 2.585475 1_555
Bi1 S1 2.887063 1_566
Bi1 S0 2.887063 1_656
Bi1 S1 2.889366 1_555
Bi1 S0 2.889366 1_555
Bi2 S6 2.585461 1_555
Bi2 S2 2.887060 1_565
Bi2 S3 2.887060 1_454
Bi2 S3 2.889369 1_555
Bi2 S2 2.889369 1_554
Bi3 S7 2.585461 1_555
Bi3 S3 2.887060 1_544
Bi3 S2 2.887060 1_655
Bi3 S3 2.889369 1_555
Bi3 S2 2.889369 1_554
F0 La0 2.509394 1_555
F0 La3 2.509394 1_555
F0 La1 2.509394 1_555
F0 La2 2.509394 1_554
