# generated using pymatgen
data_Rb3BiF6
_symmetry_space_group_name_H-M   'P 1'
_cell_length_a   9.12802713
_cell_length_b   7.31655097
_cell_length_c   7.31291915
_cell_angle_alpha   75.48950384
_cell_angle_beta   111.71785302
_cell_angle_gamma   128.61156764
_symmetry_Int_Tables_number   1
_chemical_formula_structural   Rb3BiF6
_chemical_formula_sum   'Rb3 Bi1 F6'
_cell_volume   354.41266727
_cell_formula_units_Z   1
loop_
 _symmetry_equiv_pos_site_id
 _symmetry_equiv_pos_as_xyz
  1  'x, y, z'
loop_
 _atom_site_type_symbol
 _atom_site_label
 _atom_site_symmetry_multiplicity
 _atom_site_fract_x
 _atom_site_fract_y
 _atom_site_fract_z
 _atom_site_occupancy
  Rb  Rb0  1  0.00000000  0.00000000  0.50000000  1
  Rb  Rb1  1  0.50000000  0.50000000  0.00000000  1
  Rb  Rb2  1  0.00000000  0.50000000  0.00000000  1
  Bi  Bi0  1  0.00000000  0.00000000  0.00000000  1
  F  F0  1  0.07136700  0.30133900  0.77406300  1
  F  F1  1  0.92863300  0.69866200  0.22593700  1
  F  F2  1  0.78277600  0.71073900  0.77512100  1
  F  F3  1  0.21722400  0.28926100  0.22487900  1
  F  F4  1  0.77195700  0.99518300  0.06486700  1
  F  F5  1  0.22804300  0.00481700  0.93513300  1
loop_
_geom_bond_atom_site_label_1
_geom_bond_atom_site_label_2
_geom_bond_distance
_geom_bond_site_symmetry_2
Bi0 F4 2.278176 1_445
Bi0 F5 2.278176 1_554
Bi0 F1 2.278994 1_445
Bi0 F0 2.278998 1_554
Bi0 F3 2.282231 1_555
Bi0 F2 2.282231 1_444
F0 Rb2 2.906691 1_556
F0 Rb0 2.959335 1_555
F0 Rb1 3.077714 1_556
F1 Rb2 2.906696 1_655
F1 Rb0 2.959330 1_665
F1 Rb1 3.077713 1_555
F2 Rb0 2.835447 1_665
F2 Rb1 2.940748 1_556
F2 Rb2 3.024118 1_656
F3 Rb0 2.835447 1_555
F3 Rb1 2.940748 1_555
F3 Rb2 3.024118 1_555
F4 Rb1 2.877238 1_555
F4 Rb2 2.908130 1_665
F4 Rb0 3.085854 1_665
F5 Rb1 2.877238 1_556
F5 Rb2 2.908130 1_546
F5 Rb0 3.085854 1_555
