# generated using pymatgen
data_RuW
_symmetry_space_group_name_H-M   'P 1'
_cell_length_a   5.53361718
_cell_length_b   5.53361718
_cell_length_c   8.92447988
_cell_angle_alpha   90.00000000
_cell_angle_beta   90.00000000
_cell_angle_gamma   120.00000786
_symmetry_Int_Tables_number   1
_chemical_formula_structural   RuW
_chemical_formula_sum   'Ru8 W8'
_cell_volume   236.66374560
_cell_formula_units_Z   8
loop_
 _symmetry_equiv_pos_site_id
 _symmetry_equiv_pos_as_xyz
  1  'x, y, z'
loop_
 _atom_site_type_symbol
 _atom_site_label
 _atom_site_symmetry_multiplicity
 _atom_site_fract_x
 _atom_site_fract_y
 _atom_site_fract_z
 _atom_site_occupancy
  Ru  Ru0_0  1  0.16666650  0.33333350  0.25000000  1
  Ru  Ru0_1  1  0.16666650  0.33333350  0.75000000  1
  Ru  Ru0_2  1  0.16666650  0.83333350  0.25000000  1
  Ru  Ru0_3  1  0.16666650  0.83333350  0.75000000  1
  Ru  Ru0_4  1  0.66666650  0.33333350  0.25000000  1
  Ru  Ru0_5  1  0.66666650  0.33333350  0.75000000  1
  Ru  Ru0_6  1  0.66666650  0.83333350  0.25000000  1
  Ru  Ru0_7  1  0.66666650  0.83333350  0.75000000  1
  W  W0_0  1  0.00000000  0.00000000  0.00000000  1
  W  W0_1  1  0.00000000  0.00000000  0.50000000  1
  W  W0_2  1  0.00000000  0.50000000  0.00000000  1
  W  W0_3  1  0.00000000  0.50000000  0.50000000  1
  W  W0_4  1  0.50000000  0.00000000  0.00000000  1
  W  W0_5  1  0.50000000  0.00000000  0.50000000  1
  W  W0_6  1  0.50000000  0.50000000  0.00000000  1
  W  W0_7  1  0.50000000  0.50000000  0.50000000  1
loop_
_geom_bond_atom_site_label_1
_geom_bond_atom_site_label_2
_geom_bond_distance
_geom_bond_site_symmetry_2
Ru0_0 W0_2 2.744018 1_555
Ru0_0 W0_3 2.744018 1_555
Ru0_0 W0_6 2.744019 1_555
Ru0_0 W0_0 2.744019 1_555
Ru0_0 W0_7 2.744019 1_555
Ru0_0 W0_1 2.744019 1_555
Ru0_0 Ru0_6 2.766808 1_445
Ru0_0 Ru0_6 2.766808 1_555
Ru0_0 Ru0_4 2.766809 1_455
Ru0_0 Ru0_2 2.766809 1_555
Ru0_0 Ru0_2 2.766809 1_545
Ru0_0 Ru0_4 2.766809 1_555
Ru0_1 W0_2 2.744018 1_556
Ru0_1 W0_3 2.744018 1_555
Ru0_1 W0_0 2.744019 1_556
Ru0_1 W0_6 2.744019 1_556
Ru0_1 W0_7 2.744019 1_555
Ru0_1 W0_1 2.744019 1_555
Ru0_1 Ru0_7 2.766808 1_445
Ru0_1 Ru0_7 2.766808 1_555
Ru0_1 Ru0_3 2.766809 1_555
Ru0_1 Ru0_5 2.766809 1_455
Ru0_1 Ru0_3 2.766809 1_545
Ru0_1 Ru0_5 2.766809 1_555
Ru0_2 W0_0 2.744018 1_565
Ru0_2 W0_1 2.744018 1_565
Ru0_2 W0_5 2.744019 1_565
Ru0_2 W0_2 2.744019 1_555
Ru0_2 W0_3 2.744019 1_555
Ru0_2 W0_4 2.744019 1_565
Ru0_2 Ru0_4 2.766808 1_565
Ru0_2 Ru0_4 2.766808 1_455
Ru0_2 Ru0_6 2.766809 1_555
Ru0_2 Ru0_6 2.766809 1_455
Ru0_3 W0_0 2.744018 1_566
Ru0_3 W0_1 2.744018 1_565
Ru0_3 W0_5 2.744019 1_565
Ru0_3 W0_3 2.744019 1_555
Ru0_3 W0_4 2.744019 1_566
Ru0_3 W0_2 2.744019 1_556
Ru0_3 Ru0_5 2.766808 1_455
Ru0_3 Ru0_5 2.766808 1_565
Ru0_3 Ru0_7 2.766809 1_555
Ru0_3 Ru0_7 2.766809 1_455
Ru0_4 W0_7 2.744018 1_555
Ru0_4 W0_6 2.744018 1_555
Ru0_4 W0_5 2.744019 1_555
Ru0_4 W0_2 2.744019 1_655
Ru0_4 W0_4 2.744019 1_555
Ru0_4 W0_3 2.744019 1_655
Ru0_4 Ru0_6 2.766809 1_545
Ru0_4 Ru0_6 2.766809 1_555
Ru0_5 W0_7 2.744018 1_555
Ru0_5 W0_6 2.744018 1_556
Ru0_5 W0_2 2.744019 1_656
Ru0_5 W0_4 2.744019 1_556
Ru0_5 W0_5 2.744019 1_555
Ru0_5 W0_3 2.744019 1_655
Ru0_5 Ru0_7 2.766809 1_545
Ru0_5 Ru0_7 2.766809 1_555
Ru0_6 W0_4 2.744018 1_565
Ru0_6 W0_5 2.744018 1_565
Ru0_6 W0_1 2.744019 1_665
Ru0_6 W0_0 2.744019 1_665
Ru0_6 W0_7 2.744019 1_555
Ru0_6 W0_6 2.744019 1_555
Ru0_7 W0_4 2.744018 1_566
Ru0_7 W0_5 2.744018 1_565
Ru0_7 W0_1 2.744019 1_665
Ru0_7 W0_0 2.744019 1_666
Ru0_7 W0_6 2.744019 1_556
Ru0_7 W0_7 2.744019 1_555
W0_0 W0_6 2.766808 1_555
W0_0 W0_6 2.766808 1_445
W0_0 W0_4 2.766809 1_555
W0_0 W0_2 2.766809 1_545
W0_0 W0_4 2.766809 1_455
W0_0 W0_2 2.766809 1_555
W0_1 W0_7 2.766808 1_555
W0_1 W0_7 2.766808 1_445
W0_1 W0_5 2.766809 1_555
W0_1 W0_3 2.766809 1_555
W0_1 W0_5 2.766809 1_455
W0_1 W0_3 2.766809 1_545
W0_2 W0_4 2.766808 1_565
W0_2 W0_4 2.766808 1_455
W0_2 W0_6 2.766809 1_455
W0_2 W0_6 2.766809 1_555
W0_3 W0_5 2.766808 1_565
W0_3 W0_5 2.766808 1_455
W0_3 W0_7 2.766809 1_555
W0_3 W0_7 2.766809 1_455
W0_4 W0_6 2.766809 1_555
W0_4 W0_6 2.766809 1_545
W0_5 W0_7 2.766809 1_555
W0_5 W0_7 2.766809 1_545
