# generated using pymatgen
data_Na3SbS4
_symmetry_space_group_name_H-M   'P 1'
_cell_length_a   6.20680090
_cell_length_b   6.20680099
_cell_length_c   6.20680118
_cell_angle_alpha   109.47122785
_cell_angle_beta   109.47122813
_cell_angle_gamma   109.47120815
_symmetry_Int_Tables_number   1
_chemical_formula_structural   Na3SbS4
_chemical_formula_sum   'Na3 Sb1 S4'
_cell_volume   184.06938723
_cell_formula_units_Z   1
loop_
 _symmetry_equiv_pos_site_id
 _symmetry_equiv_pos_as_xyz
  1  'x, y, z'
loop_
 _atom_site_type_symbol
 _atom_site_label
 _atom_site_symmetry_multiplicity
 _atom_site_fract_x
 _atom_site_fract_y
 _atom_site_fract_z
 _atom_site_occupancy
  Na  Na0  1  0.50000000  0.50000000  0.00000000  1
  Na  Na1  1  0.00000000  0.50000000  0.50000000  1
  Na  Na2  1  0.50000000  0.00000000  0.50000000  1
  Sb  Sb0  1  0.00000000  0.00000000  0.00000000  1
  S  S0  1  0.00000000  0.00000000  0.62188529  1
  S  S1  1  0.37811471  0.37811471  0.37811471  1
  S  S2  1  0.62188529  -0.00000000  0.00000000  1
  S  S3  1  -0.00000000  0.62188529  0.00000000  1
loop_
_geom_bond_atom_site_label_1
_geom_bond_atom_site_label_2
_geom_bond_distance
_geom_bond_site_symmetry_2
Na0 S0 2.939086 1_554
Na0 S3 2.939086 1_655
Na0 S2 2.939087 1_565
Na0 S1 2.939087 1_555
Na1 S2 2.939086 1_455
Na1 S0 2.939086 1_565
Na1 S1 2.939086 1_555
Na1 S3 2.939086 1_556
Na2 S3 2.939086 1_545
Na2 S0 2.939086 1_655
Na2 S1 2.939086 1_555
Na2 S2 2.939086 1_556
S0 Sb0 2.346883 1_556
S1 Sb0 2.346883 1_555
S2 Sb0 2.346883 1_655
S3 Sb0 2.346883 1_565
