# generated using pymatgen
data_YbAgSn
_symmetry_space_group_name_H-M   'P 1'
_cell_length_a   4.71984715
_cell_length_b   4.71984715
_cell_length_c   7.44648057
_cell_angle_alpha   90.00122735
_cell_angle_beta   89.99877265
_cell_angle_gamma   119.98764546
_symmetry_Int_Tables_number   1
_chemical_formula_structural   YbAgSn
_chemical_formula_sum   'Yb2 Ag2 Sn2'
_cell_volume   143.67844348
_cell_formula_units_Z   2
loop_
 _symmetry_equiv_pos_site_id
 _symmetry_equiv_pos_as_xyz
  1  'x, y, z'
loop_
 _atom_site_type_symbol
 _atom_site_label
 _atom_site_symmetry_multiplicity
 _atom_site_fract_x
 _atom_site_fract_y
 _atom_site_fract_z
 _atom_site_occupancy
  Yb  Yb0  1  0.00002223  0.99997777  0.28295946  1
  Yb  Yb1  1  0.99997777  0.00002223  0.71704054  1
  Ag  Ag0  1  0.66667776  0.33332224  0.47859469  1
  Ag  Ag1  1  0.33332224  0.66667776  0.52140531  1
  Sn  Sn0  1  0.33332803  0.66667197  0.92616789  1
  Sn  Sn1  1  0.66667197  0.33332803  0.07383211  1
loop_
_geom_bond_atom_site_label_1
_geom_bond_atom_site_label_2
_geom_bond_distance
_geom_bond_site_symmetry_2
Yb0 Yb1 3.232376 1_465
Ag0 Ag1 2.743592 1_555
Ag0 Ag1 2.743839 1_655
Ag0 Ag1 2.743839 1_545
Ag0 Sn1 3.014057 1_555
Ag0 Yb0 3.089867 1_645
Ag0 Yb0 3.090243 1_545
Ag0 Yb0 3.090243 1_655
Ag0 Yb1 3.252103 1_555
Ag0 Yb1 3.252817 1_455
Ag0 Yb1 3.252817 1_565
Ag1 Sn0 3.014057 1_555
Ag1 Yb1 3.089867 1_465
Ag1 Yb1 3.090243 1_455
Ag1 Yb1 3.090243 1_565
Ag1 Yb0 3.252103 1_555
Ag1 Yb0 3.252817 1_545
Ag1 Yb0 3.252817 1_655
Sn0 Sn1 2.938439 1_556
Sn0 Sn1 2.938752 1_456
Sn0 Sn1 2.938752 1_566
Sn0 Yb1 3.138592 1_465
Sn0 Yb1 3.138803 1_455
Sn0 Yb1 3.138803 1_565
Sn1 Yb0 3.138592 1_645
Sn1 Yb0 3.138803 1_545
Sn1 Yb0 3.138803 1_655
