# generated using pymatgen
data_CsPO4
_symmetry_space_group_name_H-M   'P 1'
_cell_length_a   9.34528108
_cell_length_b   9.34528108
_cell_length_c   5.86549700
_cell_angle_alpha   90.00000000
_cell_angle_beta   90.00000000
_cell_angle_gamma   144.47509355
_symmetry_Int_Tables_number   1
_chemical_formula_structural   CsPO4
_chemical_formula_sum   'Cs2 P2 O8'
_cell_volume   297.65154358
_cell_formula_units_Z   2
loop_
 _symmetry_equiv_pos_site_id
 _symmetry_equiv_pos_as_xyz
  1  'x, y, z'
loop_
 _atom_site_type_symbol
 _atom_site_label
 _atom_site_symmetry_multiplicity
 _atom_site_fract_x
 _atom_site_fract_y
 _atom_site_fract_z
 _atom_site_occupancy
  Cs  Cs0  1  0.06642700  0.81034300  0.50000000  1
  Cs  Cs1  1  0.81034300  0.06642700  0.50000000  1
  P  P0  1  0.48129800  0.21973000  0.00000000  1
  P  P1  1  0.21973000  0.48129800  0.00000000  1
  O  O0  1  0.19522800  0.98933800  0.00000000  1
  O  O1  1  0.98933800  0.19522800  0.00000000  1
  O  O2  1  0.53260900  0.09719400  0.00000000  1
  O  O3  1  0.09719400  0.53260900  0.00000000  1
  O  O4  1  0.59160000  0.37831600  0.21568100  1
  O  O5  1  0.37831600  0.59160000  0.78431900  1
  O  O6  1  0.59160000  0.37831600  0.78431900  1
  O  O7  1  0.37831600  0.59160000  0.21568100  1
loop_
_geom_bond_atom_site_label_1
_geom_bond_atom_site_label_2
_geom_bond_distance
_geom_bond_site_symmetry_2
Cs0 O0 3.093640 1_555
Cs0 O0 3.093640 1_556
Cs0 O6 3.100100 1_455
Cs0 O4 3.100100 1_455
Cs0 O6 3.555138 1_565
Cs0 O4 3.555138 1_565
Cs1 O1 3.093640 1_555
Cs1 O1 3.093640 1_556
Cs1 O5 3.100100 1_545
Cs1 O7 3.100100 1_545
Cs1 O7 3.555138 1_655
Cs1 O5 3.555138 1_655
O0 P0 1.553566 1_565
O1 P1 1.553566 1_655
O2 P0 1.560470 1_555
O3 P1 1.560470 1_555
O4 P0 1.540370 1_555
O5 P1 1.540370 1_556
O6 P0 1.540370 1_556
O7 P1 1.540370 1_555
