# generated using pymatgen
data_Ca2Gd3Si3O13
_symmetry_space_group_name_H-M   'P 1'
_cell_length_a   6.95682400
_cell_length_b   9.51670450
_cell_length_c   9.51670450
_cell_angle_alpha   120.00000347
_cell_angle_beta   90.00000000
_cell_angle_gamma   90.00000000
_symmetry_Int_Tables_number   1
_chemical_formula_structural   Ca2Gd3Si3O13
_chemical_formula_sum   'Ca4 Gd6 Si6 O26'
_cell_volume   545.65080656
_cell_formula_units_Z   2
loop_
 _symmetry_equiv_pos_site_id
 _symmetry_equiv_pos_as_xyz
  1  'x, y, z'
loop_
 _atom_site_type_symbol
 _atom_site_label
 _atom_site_symmetry_multiplicity
 _atom_site_fract_x
 _atom_site_fract_y
 _atom_site_fract_z
 _atom_site_occupancy
  Ca  Ca0  1  0.00375600  0.66666700  0.33333300  1
  Ca  Ca1  1  0.99624400  0.33333300  0.66666700  1
  Ca  Ca2  1  0.50375600  0.33333300  0.66666700  1
  Ca  Ca3  1  0.49624400  0.66666700  0.33333300  1
  Gd  Gd0  1  0.75000000  0.75192400  0.99319300  1
  Gd  Gd1  1  0.25000000  0.24807600  0.00680700  1
  Gd  Gd2  1  0.75000000  0.24126900  0.24807600  1
  Gd  Gd3  1  0.25000000  0.75873100  0.75192400  1
  Gd  Gd4  1  0.75000000  0.00680700  0.75873100  1
  Gd  Gd5  1  0.25000000  0.99319300  0.24126900  1
  Si  Si0  1  0.75000000  0.97417400  0.36934700  1
  Si  Si1  1  0.25000000  0.02582600  0.63065300  1
  Si  Si2  1  0.75000000  0.39517400  0.02582600  1
  Si  Si3  1  0.25000000  0.60482600  0.97417400  1
  Si  Si4  1  0.75000000  0.63065300  0.60482600  1
  Si  Si5  1  0.25000000  0.36934700  0.39517400  1
  O  O0  1  0.75000000  0.87997600  0.47355800  1
  O  O1  1  0.25000000  0.12002400  0.52644200  1
  O  O2  1  0.75000000  0.59358200  0.12002400  1
  O  O3  1  0.25000000  0.40641800  0.87997600  1
  O  O4  1  0.75000000  0.52644200  0.40641800  1
  O  O5  1  0.25000000  0.47355800  0.59358200  1
  O  O6  1  0.93494400  0.90979500  0.24366200  1
  O  O7  1  0.06505600  0.09020500  0.75633800  1
  O  O8  1  0.93494400  0.33386700  0.09020500  1
  O  O9  1  0.43494400  0.09020500  0.75633800  1
  O  O10  1  0.06505600  0.66613300  0.90979500  1
  O  O11  1  0.56505600  0.90979500  0.24366200  1
  O  O12  1  0.93494400  0.75633800  0.66613300  1
  O  O13  1  0.43494400  0.66613300  0.90979500  1
  O  O14  1  0.06505600  0.24366200  0.33386700  1
  O  O15  1  0.56505600  0.33386700  0.09020500  1
  O  O16  1  0.43494400  0.24366200  0.33386700  1
  O  O17  1  0.56505600  0.75633800  0.66613300  1
  O  O18  1  0.75000000  0.52069200  0.69139400  1
  O  O19  1  0.25000000  0.47930800  0.30860600  1
  O  O20  1  0.75000000  0.17070200  0.47930800  1
  O  O21  1  0.25000000  0.82929800  0.52069200  1
  O  O22  1  0.75000000  0.30860600  0.82929800  1
  O  O23  1  0.25000000  0.69139400  0.17070200  1
  O  O24  1  0.75000000  0.00000000  0.00000000  1
  O  O25  1  0.25000000  0.00000000  0.00000000  1
loop_
_geom_bond_atom_site_label_1
_geom_bond_atom_site_label_2
_geom_bond_distance
_geom_bond_site_symmetry_2
Ca0 O23 2.397837 1_555
Ca0 O21 2.397841 1_555
Ca0 O19 2.397844 1_555
Ca0 O2 2.511801 1_455
Ca0 O0 2.511802 1_455
Ca0 O4 2.511807 1_455
Ca0 O6 2.878453 1_455
Ca0 O8 2.878459 1_455
Ca0 O12 2.878462 1_455
Ca1 O22 2.397837 1_555
Ca1 O20 2.397841 1_555
Ca1 O18 2.397844 1_555
Ca1 O3 2.511801 1_655
Ca1 O1 2.511802 1_655
Ca1 O5 2.511807 1_655
Ca1 O7 2.878453 1_655
Ca1 O10 2.878459 1_655
Ca1 O14 2.878462 1_655
Ca2 O22 2.397837 1_555
Ca2 O20 2.397841 1_555
Ca2 O18 2.397844 1_555
Ca2 O3 2.511801 1_555
Ca2 O1 2.511802 1_555
Ca2 O5 2.511807 1_555
Ca2 O9 2.878453 1_555
Ca2 O13 2.878459 1_555
Ca2 O16 2.878462 1_555
Ca3 O23 2.397837 1_555
Ca3 O21 2.397841 1_555
Ca3 O19 2.397844 1_555
Ca3 O2 2.511801 1_555
Ca3 O0 2.511802 1_555
Ca3 O4 2.511807 1_555
Ca3 O11 2.878453 1_555
Ca3 O15 2.878459 1_555
Ca3 O17 2.878462 1_555
Gd0 O24 2.329152 1_566
Gd0 O10 2.335049 1_655
Gd0 O13 2.335049 1_555
Gd0 O2 2.355091 1_556
Gd0 O6 2.452176 1_556
Gd0 O11 2.452176 1_556
Gd0 O18 2.602175 1_555
Gd1 O25 2.329152 1_555
Gd1 O8 2.335049 1_455
Gd1 O15 2.335049 1_555
Gd1 O3 2.355091 1_554
Gd1 O9 2.452176 1_554
Gd1 O7 2.452176 1_554
Gd1 O19 2.602175 1_555
Gd2 O24 2.329152 1_555
Gd2 O14 2.335049 1_655
Gd2 O16 2.335049 1_555
Gd2 O4 2.355090 1_555
Gd2 O8 2.452176 1_555
Gd2 O15 2.452176 1_555
Gd2 O20 2.602176 1_555
Gd3 O25 2.329152 1_566
Gd3 O17 2.335049 1_555
Gd3 O12 2.335049 1_455
Gd3 O5 2.355090 1_555
Gd3 O13 2.452176 1_555
Gd3 O10 2.452176 1_555
Gd3 O21 2.602176 1_555
Gd4 O24 2.329152 1_556
Gd4 O7 2.335049 1_655
Gd4 O9 2.335049 1_555
Gd4 O0 2.355090 1_545
Gd4 O17 2.452176 1_545
Gd4 O12 2.452176 1_545
Gd4 O22 2.602175 1_555
Gd5 O25 2.329152 1_565
Gd5 O11 2.335049 1_555
Gd5 O6 2.335049 1_455
Gd5 O1 2.355090 1_565
Gd5 O16 2.452176 1_565
Gd5 O14 2.452176 1_565
Gd5 O23 2.602175 1_555
O0 Si0 1.635923 1_555
O1 Si1 1.635923 1_555
O2 Si2 1.635915 1_555
O3 Si3 1.635915 1_555
O4 Si4 1.635915 1_555
O5 Si5 1.635915 1_555
O6 Si0 1.651852 1_555
O7 Si1 1.651852 1_555
O8 Si2 1.651857 1_555
O9 Si1 1.651852 1_555
O10 Si3 1.651857 1_555
O11 Si0 1.651852 1_555
O12 Si4 1.651852 1_555
O13 Si3 1.651857 1_555
O14 Si5 1.651852 1_555
O15 Si2 1.651857 1_555
O16 Si5 1.651852 1_555
O17 Si4 1.651852 1_555
O18 Si4 1.623555 1_555
O19 Si5 1.623555 1_555
O20 Si0 1.623547 1_545
O21 Si1 1.623547 1_565
O22 Si2 1.623546 1_556
O23 Si3 1.623546 1_554
