# generated using pymatgen
data_Mg14CrSn
_symmetry_space_group_name_H-M   'P 1'
_cell_length_a   6.30225705
_cell_length_b   6.30225655
_cell_length_c   10.41622171
_cell_angle_alpha   90.00000000
_cell_angle_beta   90.00000000
_cell_angle_gamma   120.00000266
_symmetry_Int_Tables_number   1
_chemical_formula_structural   Mg14CrSn
_chemical_formula_sum   'Mg14 Cr1 Sn1'
_cell_volume   358.28863021
_cell_formula_units_Z   1
loop_
 _symmetry_equiv_pos_site_id
 _symmetry_equiv_pos_as_xyz
  1  'x, y, z'
loop_
 _atom_site_type_symbol
 _atom_site_label
 _atom_site_symmetry_multiplicity
 _atom_site_fract_x
 _atom_site_fract_y
 _atom_site_fract_z
 _atom_site_occupancy
  Mg  Mg0  1  0.16596108  0.83298004  0.12500000  1
  Mg  Mg1  1  0.16682905  0.83341402  0.62500000  1
  Mg  Mg2  1  0.66701996  0.33403892  0.12500000  1
  Mg  Mg3  1  0.66658598  0.33317095  0.62500000  1
  Mg  Mg4  1  0.66701996  0.83298004  0.12500000  1
  Mg  Mg5  1  0.66658598  0.83341402  0.62500000  1
  Mg  Mg6  1  0.33203371  0.16796629  0.38006945  1
  Mg  Mg7  1  0.33203371  0.16796629  0.86993055  1
  Mg  Mg8  1  0.33203371  0.66406842  0.38006945  1
  Mg  Mg9  1  0.33203371  0.66406842  0.86993055  1
  Mg  Mg10  1  0.83593158  0.16796629  0.38006945  1
  Mg  Mg11  1  0.83593158  0.16796629  0.86993055  1
  Mg  Mg12  1  0.83333300  0.66666700  0.37613299  1
  Mg  Mg13  1  0.83333300  0.66666700  0.87386701  1
  Cr  Cr0  1  0.16666700  0.33333300  0.62500000  1
  Sn  Sn0  1  0.16666700  0.33333300  0.12500000  1
loop_
_geom_bond_atom_site_label_1
_geom_bond_atom_site_label_2
_geom_bond_distance
_geom_bond_site_symmetry_2
Mg0 Mg2 3.144455 1_455
Mg0 Mg4 3.144455 1_455
Mg0 Sn0 3.151131 1_565
Mg0 Sn0 3.151131 1_555
Mg0 Mg2 3.157802 1_565
Mg0 Mg4 3.157802 1_555
Mg0 Mg12 3.184115 1_455
Mg0 Mg13 3.184115 1_454
Mg0 Mg8 3.225170 1_555
Mg0 Mg9 3.225170 1_554
Mg0 Mg6 3.225176 1_565
Mg0 Mg7 3.225176 1_564
Mg1 Mg9 3.137377 1_555
Mg1 Mg8 3.137377 1_555
Mg1 Mg7 3.137383 1_565
Mg1 Mg6 3.137383 1_565
Mg1 Mg3 3.149596 1_565
Mg1 Mg5 3.149597 1_555
Mg1 Mg3 3.152660 1_455
Mg1 Mg5 3.152660 1_455
Mg1 Mg12 3.167473 1_455
Mg1 Mg13 3.167473 1_455
Mg2 Mg4 3.144455 1_555
Mg2 Sn0 3.151131 1_555
Mg2 Sn0 3.151131 1_655
Mg2 Mg4 3.157802 1_545
Mg2 Mg6 3.225176 1_555
Mg2 Mg7 3.225176 1_554
Mg3 Mg7 3.137383 1_555
Mg3 Mg6 3.137383 1_555
Mg3 Mg5 3.149596 1_545
Mg3 Mg5 3.152660 1_555
Mg4 Sn0 3.151131 1_665
Mg4 Sn0 3.151131 1_555
Mg4 Mg8 3.225176 1_555
Mg4 Mg9 3.225176 1_554
Mg5 Mg9 3.137383 1_555
Mg5 Mg8 3.137383 1_555
Mg6 Mg8 3.126563 1_555
Mg6 Mg8 3.175694 1_545
Mg6 Sn0 3.212062 1_555
Mg7 Mg9 3.126563 1_555
Mg7 Mg9 3.175694 1_545
Mg7 Sn0 3.212062 1_556
Mg8 Sn0 3.212068 1_555
Mg9 Sn0 3.212068 1_556
Mg10 Mg8 3.126563 1_655
Mg10 Mg6 3.126563 1_655
Mg10 Mg3 3.137377 1_555
Mg10 Mg5 3.137383 1_545
Mg10 Mg12 3.151427 1_545
Mg10 Mg12 3.151427 1_555
Mg10 Mg8 3.175694 1_545
Mg10 Mg6 3.175694 1_555
Mg10 Sn0 3.212068 1_655
Mg10 Mg2 3.225170 1_555
Mg10 Mg4 3.225176 1_545
Mg11 Mg9 3.126563 1_655
Mg11 Mg7 3.126563 1_655
Mg11 Mg3 3.137377 1_555
Mg11 Mg5 3.137383 1_545
Mg11 Mg13 3.151427 1_545
Mg11 Mg13 3.151427 1_555
Mg11 Mg9 3.175694 1_545
Mg11 Mg7 3.175694 1_555
Mg11 Sn0 3.212068 1_656
Mg11 Mg2 3.225170 1_556
Mg11 Mg4 3.225176 1_546
Mg12 Mg6 3.151427 1_665
Mg12 Mg6 3.151427 1_555
Mg12 Mg8 3.151427 1_555
Mg12 Mg8 3.151427 1_655
Mg12 Mg5 3.167466 1_555
Mg12 Mg3 3.167473 1_555
Mg12 Mg4 3.184108 1_555
Mg12 Mg2 3.184115 1_555
Mg13 Mg7 3.151427 1_665
Mg13 Mg7 3.151427 1_555
Mg13 Mg9 3.151427 1_555
Mg13 Mg9 3.151427 1_655
Mg13 Mg5 3.167466 1_555
Mg13 Mg3 3.167473 1_555
Mg13 Mg4 3.184108 1_556
Mg13 Mg2 3.184115 1_556
Cr0 Mg7 3.125271 1_555
Cr0 Mg6 3.125271 1_555
Cr0 Mg9 3.125277 1_555
Cr0 Mg8 3.125277 1_555
Cr0 Mg11 3.125278 1_455
Cr0 Mg10 3.125278 1_455
Cr0 Mg1 3.151128 1_555
Cr0 Mg5 3.151128 1_555
Cr0 Mg5 3.151128 1_445
Cr0 Mg1 3.151128 1_545
Cr0 Mg3 3.151129 1_455
Cr0 Mg3 3.151129 1_555
