# generated using pymatgen
data_MnBi12W2(ClO8)3
_symmetry_space_group_name_H-M   'P 1'
_cell_length_a   8.90509868
_cell_length_b   8.90509868
_cell_length_c   15.50481931
_cell_angle_alpha   69.74619177
_cell_angle_beta   69.74619177
_cell_angle_gamma   36.04557534
_symmetry_Int_Tables_number   1
_chemical_formula_structural   MnBi12W2(ClO8)3
_chemical_formula_sum   'Mn1 Bi12 W2 Cl3 O24'
_cell_volume   673.85444990
_cell_formula_units_Z   1
loop_
 _symmetry_equiv_pos_site_id
 _symmetry_equiv_pos_as_xyz
  1  'x, y, z'
loop_
 _atom_site_type_symbol
 _atom_site_label
 _atom_site_symmetry_multiplicity
 _atom_site_fract_x
 _atom_site_fract_y
 _atom_site_fract_z
 _atom_site_occupancy
  Mn  Mn0  1  0.33045900  0.33045900  0.99999100  1
  Bi  Bi0  1  0.79187300  0.79187300  0.64137200  1
  Bi  Bi1  1  0.45773800  0.45773800  0.64124600  1
  Bi  Bi2  1  0.12681200  0.12681200  0.63856900  1
  Bi  Bi3  1  0.88578800  0.88578800  0.36144400  1
  Bi  Bi4  1  0.55293500  0.55293500  0.35870600  1
  Bi  Bi5  1  0.21856600  0.21856600  0.35866000  1
  Bi  Bi6  1  0.25920900  0.25920900  0.82532600  1
  Bi  Bi7  1  0.92249300  0.92249300  0.82084500  1
  Bi  Bi8  1  0.58546600  0.58546600  0.81375400  1
  Bi  Bi9  1  0.46129100  0.46129100  0.18636700  1
  Bi  Bi10  1  0.14278100  0.14278100  0.17458700  1
  Bi  Bi11  1  0.80315500  0.80315500  0.17909900  1
  W  W0  1  0.99257300  0.99257300  0.99999600  1
  W  W1  1  0.66319600  0.66319600  0.00000800  1
  Cl  Cl0  1  0.00156000  0.00156000  0.49949000  1
  Cl  Cl1  1  0.66824100  0.66824100  0.49884700  1
  Cl  Cl2  1  0.33372900  0.33372900  0.50168300  1
  O  O0  1  0.82293900  0.32513600  0.99996700  1
  O  O1  1  0.48547600  0.98662700  0.00000900  1
  O  O2  1  0.15098800  0.67503300  0.00000800  1
  O  O3  1  0.32513600  0.82293900  0.99996700  1
  O  O4  1  0.98662700  0.48547600  0.00000900  1
  O  O5  1  0.67503300  0.15098800  0.00000800  1
  O  O6  1  0.59618400  0.09943000  0.71801900  1
  O  O7  1  0.26251100  0.76782900  0.71497500  1
  O  O8  1  0.92570900  0.43636200  0.71289100  1
  O  O9  1  0.24489600  0.73427600  0.28725400  1
  O  O10  1  0.91145000  0.40811900  0.28192800  1
  O  O11  1  0.57783900  0.07260100  0.28498000  1
  O  O12  1  0.73427600  0.24489600  0.28725400  1
  O  O13  1  0.40811900  0.91145000  0.28192800  1
  O  O14  1  0.07260100  0.57783900  0.28498000  1
  O  O15  1  0.09943000  0.59618400  0.71801900  1
  O  O16  1  0.76782900  0.26251100  0.71497500  1
  O  O17  1  0.43636200  0.92570900  0.71289100  1
  O  O18  1  0.03719200  0.03719200  0.86114700  1
  O  O19  1  0.69552700  0.69552700  0.86485800  1
  O  O20  1  0.37001700  0.37001700  0.86592900  1
  O  O21  1  0.28066200  0.28066200  0.13405900  1
  O  O22  1  0.94469300  0.94469300  0.13882800  1
  O  O23  1  0.60543100  0.60543100  0.13512500  1
loop_
_geom_bond_atom_site_label_1
_geom_bond_atom_site_label_2
_geom_bond_distance
_geom_bond_site_symmetry_2
Mn0 O20 1.937920 1_555
Mn0 O21 1.938003 1_556
Mn0 O2 2.009899 1_556
Mn0 O5 2.009899 1_556
Mn0 O1 2.108377 1_546
Mn0 O4 2.108377 1_456
Bi0 O6 2.247634 1_565
Bi0 O15 2.247634 1_655
Bi0 O17 2.248474 1_555
Bi0 O8 2.248474 1_555
Bi1 O16 2.236260 1_555
Bi1 O7 2.236260 1_555
Bi1 O6 2.267807 1_555
Bi1 O15 2.267807 1_555
Bi2 O17 2.218394 1_545
Bi2 O8 2.218394 1_455
Bi2 O16 2.281513 1_455
Bi2 O7 2.281513 1_545
Bi3 O9 2.218228 1_655
Bi3 O12 2.218228 1_565
Bi3 O14 2.280678 1_655
Bi3 O11 2.280678 1_565
Bi4 O10 2.246460 1_555
Bi4 O13 2.246460 1_555
Bi4 O9 2.249859 1_555
Bi4 O12 2.249859 1_555
Bi5 O11 2.236783 1_555
Bi5 O14 2.236783 1_555
Bi5 O10 2.267477 1_455
Bi5 O13 2.267477 1_545
Bi6 O20 2.185964 1_555
Bi6 O6 2.252831 1_555
Bi6 O15 2.252831 1_555
Bi7 O18 2.246748 1_665
Bi7 O16 2.267131 1_565
Bi7 O7 2.267131 1_655
Bi7 O6 2.744549 1_565
Bi7 O15 2.744549 1_655
Bi8 O8 2.245065 1_555
Bi8 O17 2.245065 1_555
Bi8 O19 2.275477 1_555
Bi8 O16 2.651228 1_555
Bi8 O7 2.651228 1_555
Bi9 O9 2.245053 1_555
Bi9 O12 2.245053 1_555
Bi9 O23 2.275642 1_555
Bi9 O14 2.649709 1_555
Bi9 O11 2.649709 1_555
Bi10 O21 2.186234 1_555
Bi10 O10 2.252635 1_455
Bi10 O13 2.252635 1_545
Bi11 O22 2.246408 1_555
Bi11 O14 2.267071 1_655
Bi11 O11 2.267071 1_565
Bi11 O13 2.746347 1_555
Bi11 O10 2.746347 1_555
O0 W0 1.953876 1_545
O0 W1 2.040094 1_556
O1 W1 1.851771 1_555
O2 W0 1.880212 1_454
O3 W0 1.953876 1_455
O3 W1 2.040094 1_556
O4 W1 1.851771 1_555
O5 W0 1.880212 1_544
O18 W0 2.005303 1_445
O19 W1 1.963527 1_556
O22 W0 2.005047 1_554
O23 W1 1.963097 1_555
