# generated using pymatgen
data_Rb2NaTaF6
_symmetry_space_group_name_H-M   'P 1'
_cell_length_a   6.23707213
_cell_length_b   6.23707213
_cell_length_c   6.23707213
_cell_angle_alpha   60.00000000
_cell_angle_beta   60.00000000
_cell_angle_gamma   60.00000000
_symmetry_Int_Tables_number   1
_chemical_formula_structural   Rb2NaTaF6
_chemical_formula_sum   'Rb2 Na1 Ta1 F6'
_cell_volume   171.56445007
_cell_formula_units_Z   1
loop_
 _symmetry_equiv_pos_site_id
 _symmetry_equiv_pos_as_xyz
  1  'x, y, z'
loop_
 _atom_site_type_symbol
 _atom_site_label
 _atom_site_symmetry_multiplicity
 _atom_site_fract_x
 _atom_site_fract_y
 _atom_site_fract_z
 _atom_site_occupancy
  Rb  Rb0  1  0.75000000  0.75000000  0.75000000  1
  Rb  Rb1  1  0.25000000  0.25000000  0.25000000  1
  Na  Na0  1  0.50000000  0.50000000  0.50000000  1
  Ta  Ta0  1  0.00000000  0.00000000  0.00000000  1
  F  F0  1  0.76176500  0.23823500  0.23823500  1
  F  F1  1  0.23823500  0.23823500  0.76176500  1
  F  F2  1  0.23823500  0.76176500  0.76176500  1
  F  F3  1  0.23823500  0.76176500  0.23823500  1
  F  F4  1  0.76176500  0.23823500  0.76176500  1
  F  F5  1  0.76176500  0.76176500  0.23823500  1
loop_
_geom_bond_atom_site_label_1
_geom_bond_atom_site_label_2
_geom_bond_distance
_geom_bond_site_symmetry_2
F0 Ta0 2.101364 1_655
F0 Na0 2.308912 1_555
F0 Rb0 3.120262 1_545
F0 Rb1 3.120262 1_655
F0 Rb0 3.120262 1_554
F0 Rb1 3.120262 1_555
F1 Ta0 2.101364 1_556
F1 Na0 2.308912 1_555
F1 Rb0 3.120262 1_545
F1 Rb1 3.120262 1_556
F1 Rb0 3.120262 1_455
F1 Rb1 3.120262 1_555
F2 Ta0 2.101364 1_566
F2 Na0 2.308912 1_555
F2 Rb1 3.120262 1_565
F2 Rb1 3.120262 1_556
F2 Rb0 3.120262 1_455
F2 Rb0 3.120262 1_555
F3 Ta0 2.101364 1_565
F3 Na0 2.308912 1_555
F3 Rb1 3.120262 1_565
F3 Rb0 3.120262 1_455
F3 Rb0 3.120262 1_554
F3 Rb1 3.120262 1_555
F4 Ta0 2.101364 1_656
F4 Na0 2.308912 1_555
F4 Rb0 3.120262 1_545
F4 Rb1 3.120262 1_556
F4 Rb1 3.120262 1_655
F4 Rb0 3.120262 1_555
F5 Ta0 2.101364 1_665
F5 Na0 2.308912 1_555
F5 Rb1 3.120262 1_565
F5 Rb1 3.120262 1_655
F5 Rb0 3.120262 1_555
F5 Rb0 3.120262 1_554
