# generated using pymatgen
data_Ba3InSe4Cl
_symmetry_space_group_name_H-M   'P 1'
_cell_length_a   8.71001000
_cell_length_b   8.71001000
_cell_length_c   9.83850373
_cell_angle_alpha   116.27302785
_cell_angle_beta   116.27302785
_cell_angle_gamma   90.00000000
_symmetry_Int_Tables_number   1
_chemical_formula_structural   Ba3InSe4Cl
_chemical_formula_sum   'Ba6 In2 Se8 Cl2'
_cell_volume   582.05263644
_cell_formula_units_Z   2
loop_
 _symmetry_equiv_pos_site_id
 _symmetry_equiv_pos_as_xyz
  1  'x, y, z'
loop_
 _atom_site_type_symbol
 _atom_site_label
 _atom_site_symmetry_multiplicity
 _atom_site_fract_x
 _atom_site_fract_y
 _atom_site_fract_z
 _atom_site_occupancy
  Ba  Ba0  1  0.65454000  0.15454000  0.00000000  1
  Ba  Ba1  1  0.34546000  0.84546000  0.00000000  1
  Ba  Ba2  1  0.84546000  0.65454000  0.00000000  1
  Ba  Ba3  1  0.15454000  0.34546000  0.00000000  1
  Ba  Ba4  1  0.75000000  0.75000000  0.50000000  1
  Ba  Ba5  1  0.25000000  0.25000000  0.50000000  1
  In  In0  1  0.75000000  0.25000000  0.50000000  1
  In  In1  1  0.25000000  0.75000000  0.50000000  1
  Se  Se0  1  0.69722500  0.19722500  0.71584900  1
  Se  Se1  1  0.01862400  0.51862400  0.71584900  1
  Se  Se2  1  0.51862400  0.69722500  0.71584900  1
  Se  Se3  1  0.19722500  0.01862400  0.71584900  1
  Se  Se4  1  0.30277500  0.80277500  0.28415100  1
  Se  Se5  1  0.98137600  0.48137600  0.28415100  1
  Se  Se6  1  0.48137600  0.30277500  0.28415100  1
  Se  Se7  1  0.80277500  0.98137600  0.28415100  1
  Cl  Cl0  1  0.00000000  0.00000000  0.00000000  1
  Cl  Cl1  1  0.50000000  0.50000000  0.00000000  1
loop_
_geom_bond_atom_site_label_1
_geom_bond_atom_site_label_2
_geom_bond_distance
_geom_bond_site_symmetry_2
Ba0 Se5 3.151549 1_555
Ba0 Se0 3.151549 1_554
Ba0 Cl0 3.296313 1_655
Ba0 Cl1 3.296313 1_555
Ba0 Se6 3.506387 1_555
Ba0 Se7 3.506387 1_545
Ba0 Se2 3.506387 1_544
Ba0 Se3 3.506387 1_554
Ba1 Se4 3.151549 1_555
Ba1 Se1 3.151549 1_554
Ba1 Cl0 3.296313 1_565
Ba1 Cl1 3.296313 1_555
Ba1 Se3 3.506387 1_564
Ba1 Se2 3.506387 1_554
Ba1 Se7 3.506387 1_555
Ba1 Se6 3.506387 1_565
Ba2 Se7 3.151549 1_555
Ba2 Se2 3.151549 1_554
Ba2 Cl1 3.296313 1_555
Ba2 Cl0 3.296313 1_665
Ba2 Se5 3.506387 1_555
Ba2 Se1 3.506387 1_654
Ba2 Se0 3.506387 1_554
Ba2 Se4 3.506387 1_655
Ba3 Se6 3.151549 1_555
Ba3 Se3 3.151549 1_554
Ba3 Cl0 3.296313 1_555
Ba3 Cl1 3.296313 1_555
Ba3 Se5 3.506387 1_455
Ba3 Se1 3.506387 1_554
Ba3 Se0 3.506387 1_454
Ba3 Se4 3.506387 1_555
Ba4 Se2 3.665450 1_555
Ba4 Se4 3.665450 1_555
Ba4 Se6 3.665450 1_555
Ba4 Se1 3.665450 1_655
Ba4 Se5 3.665450 1_555
Ba4 Se3 3.665450 1_665
Ba4 Se7 3.665450 1_555
Ba4 Se0 3.665450 1_565
Ba4 Cl0 3.836145 1_666
Ba4 Cl1 3.836145 1_555
Ba5 Se1 3.665450 1_555
Ba5 Se3 3.665450 1_555
Ba5 Se7 3.665450 1_445
Ba5 Se4 3.665450 1_545
Ba5 Se0 3.665450 1_555
Ba5 Se5 3.665450 1_455
Ba5 Se2 3.665450 1_555
Ba5 Se6 3.665450 1_555
Ba5 Cl1 3.836145 1_556
Ba5 Cl0 3.836145 1_555
In0 Se0 2.580854 1_555
In0 Se6 2.580854 1_555
In0 Se7 2.580854 1_545
In0 Se1 2.580854 1_655
In1 Se3 2.580854 1_565
In1 Se5 2.580854 1_455
In1 Se2 2.580854 1_555
In1 Se4 2.580854 1_555
