# generated using pymatgen
data_Sr2V2O7
_symmetry_space_group_name_H-M   'P 1'
_cell_length_a   7.05737949
_cell_length_b   7.10315981
_cell_length_c   13.00697710
_cell_angle_alpha   99.30802613
_cell_angle_beta   93.63681183
_cell_angle_gamma   90.90526712
_symmetry_Int_Tables_number   1
_chemical_formula_structural   Sr2V2O7
_chemical_formula_sum   'Sr8 V8 O28'
_cell_volume   641.92985089
_cell_formula_units_Z   4
loop_
 _symmetry_equiv_pos_site_id
 _symmetry_equiv_pos_as_xyz
  1  'x, y, z'
loop_
 _atom_site_type_symbol
 _atom_site_label
 _atom_site_symmetry_multiplicity
 _atom_site_fract_x
 _atom_site_fract_y
 _atom_site_fract_z
 _atom_site_occupancy
  Sr  Sr0  1  0.75187192  0.26583232  0.34622009  1
  Sr  Sr1  1  0.24812952  0.73415959  0.65377837  1
  Sr  Sr2  1  0.07505579  0.34189382  0.84438284  1
  Sr  Sr3  1  0.92494384  0.65811720  0.15561521  1
  Sr  Sr4  1  0.67215514  0.71445146  0.86077533  1
  Sr  Sr5  1  0.32784401  0.28555791  0.13922310  1
  Sr  Sr6  1  0.63357743  0.12776394  0.63816639  1
  Sr  Sr7  1  0.36642617  0.87222947  0.36183365  1
  V  V0  1  0.83580169  0.80408023  0.41112899  1
  V  V1  1  0.16420105  0.19591298  0.58887383  1
  V  V2  1  0.84134232  0.18058095  0.08226759  1
  V  V3  1  0.15865656  0.81943476  0.91773471  1
  V  V4  1  0.55341351  0.19859648  0.88676680  1
  V  V5  1  0.44658148  0.80140791  0.11322976  1
  V  V6  1  0.78043400  0.60241026  0.60908200  1
  V  V7  1  0.21957094  0.39758119  0.39091790  1
  O  O0  1  0.68564341  0.39717014  0.54195921  1
  O  O1  1  0.31436139  0.60281737  0.45803996  1
  O  O2  1  0.92672892  0.56603621  0.71188032  1
  O  O3  1  0.07326750  0.43395817  0.28811975  1
  O  O4  1  0.69439188  0.06276272  0.96897816  1
  O  O5  1  0.30560626  0.93725213  0.03102244  1
  O  O6  1  0.45484528  0.03478661  0.78920849  1
  O  O7  1  0.54515755  0.96521058  0.21079263  1
  O  O8  1  0.99163366  0.67246099  0.95501155  1
  O  O9  1  0.00836408  0.32754873  0.04498973  1
  O  O10  1  0.60966531  0.75038053  0.65978715  1
  O  O11  1  0.39033622  0.24961054  0.34020892  1
  O  O12  1  0.30268516  0.36394170  0.66505508  1
  O  O13  1  0.69731152  0.63605129  0.33495125  1
  O  O14  1  0.04765365  0.97226055  0.85110806  1
  O  O15  1  0.95234168  0.02774781  0.14889304  1
  O  O16  1  0.00818224  0.87221563  0.33999121  1
  O  O17  1  0.99181679  0.12777286  0.66000618  1
  O  O18  1  0.30255503  0.65762473  0.17068142  1
  O  O19  1  0.69743834  0.34237786  0.82931519  1
  O  O20  1  0.92914982  0.71733739  0.52777381  1
  O  O21  1  0.07085647  0.28265794  0.47222968  1
  O  O22  1  0.30876199  0.00858256  0.55261758  1
  O  O23  1  0.61687300  0.67969550  0.04835704  1
  O  O24  1  0.69825738  0.32498808  0.15949626  1
  O  O25  1  0.30174370  0.67502121  0.84050450  1
  O  O26  1  0.69124595  0.99141002  0.44738490  1
  O  O27  1  0.38311945  0.32031071  0.95163992  1
loop_
_geom_bond_atom_site_label_1
_geom_bond_atom_site_label_2
_geom_bond_distance
_geom_bond_site_symmetry_2
O0 V6 1.678827 1_555
O0 Sr6 2.484689 1_555
O0 Sr0 2.639543 1_555
O1 V7 1.678802 1_555
O1 Sr7 2.484716 1_555
O1 Sr1 2.639547 1_555
O2 V6 1.692808 1_555
O2 Sr2 2.704135 1_655
O2 Sr1 2.750640 1_655
O2 Sr4 2.816159 1_555
O3 V7 1.692846 1_555
O3 Sr3 2.704228 1_455
O3 Sr0 2.750610 1_455
O3 Sr5 2.816158 1_555
O4 V4 1.814771 1_555
O4 V2 1.824023 1_556
O4 Sr4 2.638168 1_545
O5 V5 1.814773 1_555
O5 V3 1.824003 1_554
O5 Sr5 2.638124 1_565
O6 V4 1.683098 1_555
O6 Sr6 2.568012 1_555
O6 Sr1 2.854818 1_545
O6 Sr4 3.001715 1_545
O7 V5 1.683125 1_555
O7 Sr7 2.568007 1_555
O7 Sr0 2.854773 1_565
O7 Sr5 3.001813 1_565
O8 V3 1.706394 1_655
O8 Sr4 2.542414 1_555
O8 Sr2 2.643635 1_655
O8 Sr3 2.698212 1_556
O9 V2 1.706366 1_455
O9 Sr5 2.542407 1_555
O9 Sr3 2.643621 1_455
O9 Sr2 2.698258 1_554
O10 V6 1.705512 1_555
O10 Sr1 2.547943 1_555
O10 Sr4 2.677132 1_555
O10 Sr6 2.743874 1_565
O11 V7 1.705512 1_555
O11 Sr0 2.547941 1_555
O11 Sr5 2.677137 1_555
O11 Sr7 2.743870 1_545
O12 V1 1.679071 1_555
O12 Sr1 2.689752 1_555
O12 Sr6 2.903034 1_555
O12 Sr2 2.937935 1_555
O13 V0 1.679075 1_555
O13 Sr0 2.689744 1_555
O13 Sr7 2.902989 1_555
O13 Sr3 2.938060 1_555
O14 V3 1.669786 1_555
O14 Sr2 2.645569 1_565
O14 Sr4 3.217985 1_455
O15 V2 1.669804 1_555
O15 Sr3 2.645540 1_545
O15 Sr5 3.218017 1_655
O16 V0 1.685069 1_455
O16 Sr7 2.526201 1_555
O16 Sr3 2.649974 1_455
O17 V1 1.685056 1_655
O17 Sr6 2.526168 1_555
O17 Sr2 2.650049 1_655
O18 V5 1.716133 1_555
O18 Sr5 2.618834 1_555
O18 Sr3 2.659814 1_455
O18 Sr7 2.705315 1_555
O19 V4 1.716117 1_555
O19 Sr4 2.618877 1_555
O19 Sr2 2.659857 1_655
O19 Sr6 2.705298 1_555
O20 V6 1.810924 1_555
O20 V0 1.817678 1_555
O20 Sr1 2.688533 1_655
O21 V7 1.810936 1_555
O21 V1 1.817670 1_555
O21 Sr0 2.688594 1_455
O22 V1 1.713121 1_555
O22 Sr6 2.553439 1_555
O22 Sr1 2.566873 1_545
O22 Sr7 2.573854 1_545
O23 V5 1.682047 1_555
O23 Sr3 2.528188 1_555
O23 Sr4 2.545330 1_554
O24 V2 1.705582 1_555
O24 Sr0 2.537113 1_555
O24 Sr5 2.616729 1_555
O24 Sr3 2.844371 1_555
O25 V3 1.705626 1_555
O25 Sr1 2.537102 1_555
O25 Sr4 2.616715 1_555
O25 Sr2 2.844360 1_555
O26 V0 1.713094 1_555
O26 Sr7 2.553474 1_555
O26 Sr0 2.566894 1_565
O26 Sr6 2.573834 1_565
O27 V4 1.682068 1_555
O27 Sr2 2.528145 1_555
O27 Sr5 2.545333 1_556
