# generated using pymatgen
data_SrCa3Zr16(PO4)24
_symmetry_space_group_name_H-M   'P 1'
_cell_length_a   12.87652259
_cell_length_b   12.87652255
_cell_length_c   12.87652259
_cell_angle_alpha   92.14873749
_cell_angle_beta   92.14873721
_cell_angle_gamma   87.85126251
_symmetry_Int_Tables_number   1
_chemical_formula_structural   SrCa3Zr16(PO4)24
_chemical_formula_sum   'Sr1 Ca3 Zr16 P24 O96'
_cell_volume   2130.59569929
_cell_formula_units_Z   1
loop_
 _symmetry_equiv_pos_site_id
 _symmetry_equiv_pos_as_xyz
  1  'x, y, z'
loop_
 _atom_site_type_symbol
 _atom_site_label
 _atom_site_symmetry_multiplicity
 _atom_site_fract_x
 _atom_site_fract_y
 _atom_site_fract_z
 _atom_site_occupancy
  Sr  Sr0  1  0.50000000  -0.00000000  0.00000000  1
  Ca  Ca0  1  0.50000000  0.50000000  0.50000000  1
  Ca  Ca1  1  -0.00000000  0.50000000  0.00000000  1
  Ca  Ca2  1  -0.00000000  -0.00000000  0.50000000  1
  Zr  Zr0  1  0.64135595  0.14130121  0.35865408  1
  Zr  Zr1  1  0.14134592  0.14135595  0.85869879  1
  Zr  Zr2  1  0.14125949  0.64125949  0.35874051  1
  Zr  Zr3  1  0.64130121  0.64134592  0.85864405  1
  Zr  Zr4  1  0.35864405  0.85869879  0.64134592  1
  Zr  Zr5  1  0.85865408  0.85864405  0.14130121  1
  Zr  Zr6  1  0.85874051  0.35874051  0.64125949  1
  Zr  Zr7  1  0.35869879  0.35865408  0.14135595  1
  Zr  Zr8  1  0.64909265  0.64858049  0.35179320  1
  Zr  Zr9  1  0.14858049  0.64820680  0.85090735  1
  Zr  Zr10  1  0.14820680  0.14909265  0.35141951  1
  Zr  Zr11  1  0.64982858  0.14982858  0.85017142  1
  Zr  Zr12  1  0.35090735  0.35141951  0.64820680  1
  Zr  Zr13  1  0.85141951  0.35179320  0.14909265  1
  Zr  Zr14  1  0.85179320  0.85090735  0.64858049  1
  Zr  Zr15  1  0.35017142  0.85017142  0.14982858  1
  P  P0  1  0.74375017  0.60556154  0.60626374  1
  P  P1  1  0.24339912  0.60520098  0.10616146  1
  P  P2  1  0.24365023  0.10557475  0.60616842  1
  P  P3  1  0.74511952  0.10626234  0.10614146  1
  P  P4  1  0.60557475  0.39383158  0.25634977  1
  P  P5  1  0.10556154  0.39373626  0.75624983  1
  P  P6  1  0.10520098  0.89383854  0.25660088  1
  P  P7  1  0.60626234  0.89385854  0.75488048  1
  P  P8  1  0.39383854  0.74339912  0.39479902  1
  P  P9  1  0.89383158  0.74365023  0.89442525  1
  P  P10  1  0.89373626  0.24375017  0.39443846  1
  P  P11  1  0.39385854  0.24511952  0.89373766  1
  P  P12  1  0.25624983  0.39443846  0.39373626  1
  P  P13  1  0.75660088  0.39479902  0.89383854  1
  P  P14  1  0.75634977  0.89442525  0.39383158  1
  P  P15  1  0.25488048  0.89373766  0.89385854  1
  P  P16  1  0.39442525  0.60616842  0.74365023  1
  P  P17  1  0.89443846  0.60626374  0.24375017  1
  P  P18  1  0.89479902  0.10616146  0.74339912  1
  P  P19  1  0.39373766  0.10614146  0.24511952  1
  P  P20  1  0.60616146  0.25660088  0.60520098  1
  P  P21  1  0.10616842  0.25634977  0.10557475  1
  P  P22  1  0.10626374  0.75624983  0.60556154  1
  P  P23  1  0.60614146  0.75488048  0.10626234  1
  O  O0  1  0.67376948  0.61252660  0.70027449  1
  O  O1  1  0.17358744  0.61214765  0.20029161  1
  O  O2  1  0.17383293  0.11245342  0.70029080  1
  O  O3  1  0.67347887  0.11221316  0.19906228  1
  O  O4  1  0.61245342  0.29970920  0.32616707  1
  O  O5  1  0.11252660  0.29972551  0.82623052  1
  O  O6  1  0.11214765  0.79970839  0.32641256  1
  O  O7  1  0.61221316  0.80093772  0.82652113  1
  O  O8  1  0.29970839  0.67358744  0.38785235  1
  O  O9  1  0.79970920  0.67383293  0.88754658  1
  O  O10  1  0.79972551  0.17376948  0.38747340  1
  O  O11  1  0.30093772  0.17347887  0.88778684  1
  O  O12  1  0.32623052  0.38747340  0.29972551  1
  O  O13  1  0.82641256  0.38785235  0.79970839  1
  O  O14  1  0.82616707  0.88754658  0.29970920  1
  O  O15  1  0.32652113  0.88778684  0.80093772  1
  O  O16  1  0.38754658  0.70029080  0.67383293  1
  O  O17  1  0.88747340  0.70027449  0.17376948  1
  O  O18  1  0.88785235  0.20029161  0.67358744  1
  O  O19  1  0.38778684  0.19906228  0.17347887  1
  O  O20  1  0.70029161  0.32641256  0.61214765  1
  O  O21  1  0.20029080  0.32616707  0.11245342  1
  O  O22  1  0.20027449  0.82623052  0.61252660  1
  O  O23  1  0.69906228  0.82652113  0.11221316  1
  O  O24  1  0.17735376  0.48641521  0.38679367  1
  O  O25  1  0.67748436  0.48668964  0.88680324  1
  O  O26  1  0.67740387  0.98643410  0.38674306  1
  O  O27  1  0.17679420  0.98639338  0.88633976  1
  O  O28  1  0.48643410  0.61325694  0.82259613  1
  O  O29  1  0.98641521  0.61320633  0.32264624  1
  O  O30  1  0.98668964  0.11319676  0.82251564  1
  O  O31  1  0.48639338  0.11366024  0.32320580  1
  O  O32  1  0.61319676  0.17748436  0.51331036  1
  O  O33  1  0.11325694  0.17740387  0.01356590  1
  O  O34  1  0.11320633  0.67735376  0.51358479  1
  O  O35  1  0.61366024  0.67679420  0.01360662  1
  O  O36  1  0.82264624  0.51358479  0.61320633  1
  O  O37  1  0.32251564  0.51331036  0.11319676  1
  O  O38  1  0.32259613  0.01356590  0.61325694  1
  O  O39  1  0.82320580  0.01360662  0.11366024  1
  O  O40  1  0.51356590  0.38674306  0.17740387  1
  O  O41  1  0.01358479  0.38679367  0.67735376  1
  O  O42  1  0.01331036  0.88680324  0.17748436  1
  O  O43  1  0.51360662  0.88633976  0.67679420  1
  O  O44  1  0.38680324  0.82251564  0.48668964  1
  O  O45  1  0.88674306  0.82259613  0.98643410  1
  O  O46  1  0.88679367  0.32264624  0.48641521  1
  O  O47  1  0.38633976  0.32320580  0.98639338  1
  O  O48  1  0.49267647  0.67040158  0.41089888  1
  O  O49  1  0.99252655  0.67049728  0.91061104  1
  O  O50  1  0.99240759  0.17059134  0.41074330  1
  O  O51  1  0.49442834  0.17494671  0.90794882  1
  O  O52  1  0.67059134  0.58925670  0.50759241  1
  O  O53  1  0.17040158  0.58910112  0.00732353  1
  O  O54  1  0.17049728  0.08938896  0.50747345  1
  O  O55  1  0.67494671  0.09205118  0.00557166  1
  O  O56  1  0.58938896  0.49252655  0.32950272  1
  O  O57  1  0.08925670  0.49240759  0.82940866  1
  O  O58  1  0.08910112  0.99267647  0.32959842  1
  O  O59  1  0.59205118  0.99442834  0.82505329  1
  O  O60  1  0.50732353  0.32959842  0.58910112  1
  O  O61  1  0.00747345  0.32950272  0.08938896  1
  O  O62  1  0.00759241  0.82940866  0.58925670  1
  O  O63  1  0.50557166  0.82505329  0.09205118  1
  O  O64  1  0.32940866  0.41074330  0.49240759  1
  O  O65  1  0.82959842  0.41089888  0.99267647  1
  O  O66  1  0.82950272  0.91061104  0.49252655  1
  O  O67  1  0.32505329  0.90794882  0.99442834  1
  O  O68  1  0.41061104  0.50747345  0.67049728  1
  O  O69  1  0.91074330  0.50759241  0.17059134  1
  O  O70  1  0.91089888  0.00732353  0.67040158  1
  O  O71  1  0.40794882  0.00557166  0.17494671  1
  O  O72  1  0.09819112  0.69614646  0.70675405  1
  O  O73  1  0.59979650  0.69457864  0.20743546  1
  O  O74  1  0.59826359  0.19669521  0.70627940  1
  O  O75  1  0.09824045  0.19629283  0.20687664  1
  O  O76  1  0.19457864  0.79256454  0.90020350  1
  O  O77  1  0.69629283  0.79312336  0.40175955  1
  O  O78  1  0.69669521  0.29372060  0.90173641  1
  O  O79  1  0.19614646  0.29324595  0.40180888  1
  O  O80  1  0.29312336  0.59824045  0.80370717  1
  O  O81  1  0.79324595  0.59819112  0.30385354  1
  O  O82  1  0.79372060  0.09826359  0.80330479  1
  O  O83  1  0.29256454  0.09979650  0.30542136  1
  O  O84  1  0.90180888  0.30385354  0.29324595  1
  O  O85  1  0.40020350  0.30542136  0.79256454  1
  O  O86  1  0.40173641  0.80330479  0.29372060  1
  O  O87  1  0.90175955  0.80370717  0.79312336  1
  O  O88  1  0.80542136  0.20743546  0.09979650  1
  O  O89  1  0.30370717  0.20687664  0.59824045  1
  O  O90  1  0.30330479  0.70627940  0.09826359  1
  O  O91  1  0.80385354  0.70675405  0.59819112  1
  O  O92  1  0.70687664  0.40175955  0.19629283  1
  O  O93  1  0.20675405  0.40180888  0.69614646  1
  O  O94  1  0.20627940  0.90173641  0.19669521  1
  O  O95  1  0.70743546  0.90020350  0.69457864  1
loop_
_geom_bond_atom_site_label_1
_geom_bond_atom_site_label_2
_geom_bond_distance
_geom_bond_site_symmetry_2
Ca0 O60 2.510934 1_555
Ca0 O48 2.510934 1_555
Ca0 O56 2.513818 1_555
Ca0 O68 2.513818 1_555
Ca0 O52 2.514045 1_555
Ca0 O64 2.514045 1_555
Ca1 O53 2.510934 1_555
Ca1 O65 2.510934 1_454
Ca1 O49 2.513818 1_454
Ca1 O61 2.513818 1_555
Ca1 O57 2.514045 1_554
Ca1 O69 2.514045 1_455
Ca2 O58 2.510934 1_545
Ca2 O70 2.510934 1_455
Ca2 O66 2.513818 1_445
Ca2 O54 2.513818 1_555
Ca2 O62 2.514045 1_545
Ca2 O50 2.514045 1_455
O0 P0 1.533956 1_555
O0 Zr3 2.113430 1_555
O1 P1 1.533863 1_555
O1 Zr2 2.114507 1_555
O2 P2 1.533820 1_555
O2 Zr1 2.114105 1_555
O3 P3 1.535917 1_555
O3 Zr0 2.128088 1_555
O4 P4 1.533820 1_555
O4 Zr0 2.114105 1_555
O5 P5 1.533956 1_555
O5 Zr1 2.113430 1_555
O6 P6 1.533863 1_555
O6 Zr2 2.114507 1_555
O7 P7 1.535917 1_555
O7 Zr3 2.128088 1_555
O8 P8 1.533863 1_555
O8 Zr2 2.114507 1_555
O9 P9 1.533820 1_555
O9 Zr3 2.114105 1_555
O10 P10 1.533956 1_555
O10 Zr0 2.113430 1_555
O11 P11 1.535917 1_555
O11 Zr1 2.128088 1_555
O12 P12 1.533956 1_555
O12 Zr7 2.113430 1_555
O13 P13 1.533863 1_555
O13 Zr6 2.114507 1_555
O14 P14 1.533820 1_555
O14 Zr5 2.114105 1_555
O15 P15 1.535917 1_555
O15 Zr4 2.128088 1_555
O16 P16 1.533820 1_555
O16 Zr4 2.114105 1_555
O17 P17 1.533956 1_555
O17 Zr5 2.113430 1_555
O18 P18 1.533863 1_555
O18 Zr6 2.114507 1_555
O19 P19 1.535917 1_555
O19 Zr7 2.128088 1_555
O20 P20 1.533863 1_555
O20 Zr6 2.114507 1_555
O21 P21 1.533820 1_555
O21 Zr7 2.114105 1_555
O22 P22 1.533956 1_555
O22 Zr4 2.113430 1_555
O23 P23 1.535917 1_555
O23 Zr5 2.128088 1_555
O24 P12 1.534154 1_555
O24 Zr2 2.072169 1_555
O25 P13 1.535191 1_555
O25 Zr3 2.070330 1_555
O26 P14 1.534987 1_555
O26 Zr0 2.072437 1_565
O27 P15 1.534671 1_555
O27 Zr1 2.071072 1_565
O28 P16 1.534987 1_555
O28 Zr3 2.072437 1_555
O29 P17 1.534154 1_555
O29 Zr2 2.072169 1_655
O30 P18 1.535192 1_555
O30 Zr1 2.070330 1_655
O31 P19 1.534671 1_555
O31 Zr0 2.071072 1_555
O32 P20 1.535191 1_555
O32 Zr0 2.070330 1_555
O33 P21 1.534987 1_555
O33 Zr1 2.072437 1_554
O34 P22 1.534154 1_555
O34 Zr2 2.072169 1_555
O35 P23 1.534671 1_555
O35 Zr3 2.071072 1_554
O36 P0 1.534154 1_555
O36 Zr6 2.072169 1_555
O37 P1 1.535191 1_555
O37 Zr7 2.070330 1_555
O38 P2 1.534987 1_555
O38 Zr4 2.072437 1_545
O39 P3 1.534671 1_555
O39 Zr5 2.071072 1_545
O40 P4 1.534987 1_555
O40 Zr7 2.072437 1_555
O41 P5 1.534154 1_555
O41 Zr6 2.072169 1_455
O42 P6 1.535192 1_555
O42 Zr5 2.070330 1_455
O43 P7 1.534671 1_555
O43 Zr4 2.071072 1_555
O44 P8 1.535191 1_555
O44 Zr4 2.070330 1_555
O45 P9 1.534987 1_555
O45 Zr5 2.072437 1_556
O46 P10 1.534154 1_555
O46 Zr6 2.072169 1_555
O47 P11 1.534671 1_555
O47 Zr7 2.071072 1_556
O48 P8 1.565679 1_555
O48 Zr8 2.184318 1_555
O49 P9 1.565524 1_555
O49 Zr9 2.183406 1_655
O50 P10 1.565522 1_555
O50 Zr10 2.177662 1_655
O51 P11 1.560073 1_555
O51 Zr11 2.169613 1_555
O51 Sr0 2.581955 1_556
O52 P0 1.565522 1_555
O52 Zr8 2.177662 1_555
O53 P1 1.565679 1_555
O53 Zr9 2.184318 1_554
O54 P2 1.565524 1_555
O54 Zr10 2.183406 1_555
O55 P3 1.560073 1_555
O55 Zr11 2.169613 1_554
O55 Sr0 2.581955 1_555
O56 P4 1.565524 1_555
O56 Zr8 2.183406 1_555
O57 P5 1.565522 1_555
O57 Zr9 2.177662 1_555
O58 P6 1.565679 1_555
O58 Zr10 2.184318 1_565
O59 P7 1.560073 1_555
O59 Zr11 2.169613 1_565
O59 Sr0 2.581955 1_566
O60 P20 1.565679 1_555
O60 Zr12 2.184318 1_555
O61 P21 1.565524 1_555
O61 Zr13 2.183406 1_455
O62 P22 1.565522 1_555
O62 Zr14 2.177662 1_455
O63 P23 1.560073 1_555
O63 Zr15 2.169613 1_555
O63 Sr0 2.581955 1_565
O64 P12 1.565522 1_555
O64 Zr12 2.177662 1_555
O65 P13 1.565679 1_555
O65 Zr13 2.184318 1_556
O66 P14 1.565524 1_555
O66 Zr14 2.183406 1_555
O67 P15 1.560073 1_555
O67 Zr15 2.169613 1_556
O67 Sr0 2.581955 1_566
O68 P16 1.565524 1_555
O68 Zr12 2.183406 1_555
O69 P17 1.565522 1_555
O69 Zr13 2.177662 1_555
O70 P18 1.565679 1_555
O70 Zr14 2.184318 1_545
O71 P19 1.560073 1_555
O71 Zr15 2.169613 1_545
O71 Sr0 2.581955 1_555
O72 P22 1.548999 1_555
O72 Zr9 2.052578 1_555
O73 P23 1.547697 1_555
O73 Zr8 2.043247 1_555
O74 P20 1.546111 1_555
O74 Zr11 2.049287 1_555
O75 P21 1.549678 1_555
O75 Zr10 2.052596 1_555
O76 P15 1.547697 1_555
O76 Zr9 2.043247 1_555
O77 P14 1.549678 1_555
O77 Zr8 2.052596 1_555
O78 P13 1.546111 1_555
O78 Zr11 2.049287 1_555
O79 P12 1.548999 1_555
O79 Zr10 2.052578 1_555
O80 P16 1.549678 1_555
O80 Zr9 2.052596 1_555
O81 P17 1.548999 1_555
O81 Zr8 2.052578 1_555
O82 P18 1.546111 1_555
O82 Zr11 2.049287 1_555
O83 P19 1.547697 1_555
O83 Zr10 2.043247 1_555
O84 P10 1.548999 1_555
O84 Zr13 2.052578 1_555
O85 P11 1.547697 1_555
O85 Zr12 2.043247 1_555
O86 P8 1.546111 1_555
O86 Zr15 2.049287 1_555
O87 P9 1.549678 1_555
O87 Zr14 2.052596 1_555
O88 P3 1.547697 1_555
O88 Zr13 2.043247 1_555
O89 P2 1.549678 1_555
O89 Zr12 2.052596 1_555
O90 P1 1.546111 1_555
O90 Zr15 2.049287 1_555
O91 P0 1.548999 1_555
O91 Zr14 2.052578 1_555
O92 P4 1.549678 1_555
O92 Zr13 2.052596 1_555
O93 P5 1.548999 1_555
O93 Zr12 2.052578 1_555
O94 P6 1.546111 1_555
O94 Zr15 2.049287 1_555
O95 P7 1.547697 1_555
O95 Zr14 2.043247 1_555
