# generated using pymatgen
data_Er2(B2Rh3)3
_symmetry_space_group_name_H-M   'P 1'
_cell_length_a   5.55166479
_cell_length_b   5.55166479
_cell_length_c   8.52525015
_cell_angle_alpha   90.00000000
_cell_angle_beta   90.00000000
_cell_angle_gamma   120.00001321
_symmetry_Int_Tables_number   1
_chemical_formula_structural   Er2(B2Rh3)3
_chemical_formula_sum   'Er2 B6 Rh9'
_cell_volume   227.55384366
_cell_formula_units_Z   1
loop_
 _symmetry_equiv_pos_site_id
 _symmetry_equiv_pos_as_xyz
  1  'x, y, z'
loop_
 _atom_site_type_symbol
 _atom_site_label
 _atom_site_symmetry_multiplicity
 _atom_site_fract_x
 _atom_site_fract_y
 _atom_site_fract_z
 _atom_site_occupancy
  Er  Er0  1  -0.00000000  -0.00000000  0.70534876  1
  Er  Er1  1  0.00000000  0.00000000  0.29465124  1
  B  B0  1  0.66666700  0.33333300  0.00000000  1
  B  B1  1  0.33333300  0.66666700  0.00000000  1
  B  B2  1  0.66666700  0.33333300  0.66769928  1
  B  B3  1  0.33333300  0.66666700  0.66769928  1
  B  B4  1  0.33333300  0.66666700  0.33230072  1
  B  B5  1  0.66666700  0.33333300  0.33230072  1
  Rh  Rh0  1  0.50000000  0.50000000  0.83563660  1
  Rh  Rh1  1  0.50000000  -0.00000000  0.83563660  1
  Rh  Rh2  1  0.00000000  0.50000000  0.83563660  1
  Rh  Rh3  1  0.50000000  0.50000000  0.16436340  1
  Rh  Rh4  1  0.50000000  -0.00000000  0.16436340  1
  Rh  Rh5  1  -0.00000000  0.50000000  0.16436340  1
  Rh  Rh6  1  0.50000000  0.50000000  0.50000000  1
  Rh  Rh7  1  0.50000000  -0.00000000  0.50000000  1
  Rh  Rh8  1  -0.00000000  0.50000000  0.50000000  1
loop_
_geom_bond_atom_site_label_1
_geom_bond_atom_site_label_2
_geom_bond_distance
_geom_bond_site_symmetry_2
Er0 Rh0 2.989812 1_445
Er0 Rh0 2.989812 1_555
Er0 Rh2 2.989813 1_555
Er0 Rh1 2.989813 1_555
Er0 Rh1 2.989813 1_455
Er0 Rh2 2.989813 1_545
Er1 Rh3 2.989812 1_445
Er1 Rh3 2.989812 1_555
Er1 Rh5 2.989813 1_545
Er1 Rh5 2.989813 1_555
Er1 Rh4 2.989813 1_555
Er1 Rh4 2.989813 1_455
B0 Rh1 2.128821 1_554
B0 Rh4 2.128821 1_555
B0 Rh2 2.128821 1_654
B0 Rh5 2.128821 1_655
B0 Rh3 2.128825 1_555
B0 Rh0 2.128825 1_554
B1 Rh5 2.128821 1_555
B1 Rh4 2.128821 1_565
B1 Rh2 2.128821 1_554
B1 Rh1 2.128821 1_564
B1 Rh3 2.128825 1_555
B1 Rh0 2.128825 1_554
B2 Rh7 2.147647 1_555
B2 Rh8 2.147647 1_655
B2 Rh6 2.147651 1_555
B2 Rh2 2.148999 1_655
B2 Rh1 2.148999 1_555
B2 Rh0 2.149003 1_555
B3 Rh7 2.147647 1_565
B3 Rh8 2.147647 1_555
B3 Rh6 2.147651 1_555
B3 Rh2 2.148999 1_555
B3 Rh1 2.148999 1_565
B3 Rh0 2.149003 1_555
B4 Rh7 2.147647 1_565
B4 Rh8 2.147647 1_555
B4 Rh6 2.147651 1_555
B4 Rh4 2.148999 1_565
B4 Rh5 2.148999 1_555
B4 Rh3 2.149003 1_555
B5 Rh7 2.147647 1_555
B5 Rh8 2.147647 1_655
B5 Rh6 2.147651 1_555
B5 Rh4 2.148999 1_555
B5 Rh5 2.148999 1_655
B5 Rh3 2.149003 1_555
