# generated using pymatgen
data_Ni6SbTe2
_symmetry_space_group_name_H-M   'P 1'
_cell_length_a   9.99097379
_cell_length_b   9.99097379
_cell_length_c   9.99097379
_cell_angle_alpha   158.02547882
_cell_angle_beta   158.02547882
_cell_angle_gamma   31.27331566
_symmetry_Int_Tables_number   1
_chemical_formula_structural   Ni6SbTe2
_chemical_formula_sum   'Ni6 Sb1 Te2'
_cell_volume   139.54327848
_cell_formula_units_Z   1
loop_
 _symmetry_equiv_pos_site_id
 _symmetry_equiv_pos_as_xyz
  1  'x, y, z'
loop_
 _atom_site_type_symbol
 _atom_site_label
 _atom_site_symmetry_multiplicity
 _atom_site_fract_x
 _atom_site_fract_y
 _atom_site_fract_z
 _atom_site_occupancy
  Ni  Ni0  1  0.90541800  0.40541800  0.50000000  1
  Ni  Ni1  1  0.40541800  0.90541800  0.50000000  1
  Ni  Ni2  1  0.09286000  0.59286000  0.50000000  1
  Ni  Ni3  1  0.59286000  0.09286000  0.50000000  1
  Ni  Ni4  1  0.99896400  0.99896400  0.00000000  1
  Ni  Ni5  1  0.69022300  0.69022300  0.00000000  1
  Sb  Sb0  1  0.49980500  0.49980500  0.00000000  1
  Te  Te0  1  0.82080000  0.82080000  0.00000000  1
  Te  Te1  1  0.18385200  0.18385200  0.00000000  1
loop_
_geom_bond_atom_site_label_1
_geom_bond_atom_site_label_2
_geom_bond_distance
_geom_bond_site_symmetry_2
Ni0 Te0 2.505423 1_556
Ni0 Te0 2.505423 1_545
Ni0 Ni4 2.620327 1_556
Ni0 Ni4 2.620327 1_545
Ni0 Sb0 2.631470 1_555
Ni0 Sb0 2.631470 1_656
Ni0 Ni1 2.692927 1_555
Ni0 Ni1 2.692927 1_645
Ni0 Ni1 2.692927 1_656
Ni0 Ni1 2.692927 1_544
Ni1 Te0 2.505423 1_556
Ni1 Te0 2.505423 1_455
Ni1 Ni4 2.620327 1_556
Ni1 Ni4 2.620327 1_455
Ni1 Sb0 2.631470 1_555
Ni1 Sb0 2.631470 1_566
Ni2 Te1 2.586813 1_566
Ni2 Te1 2.586813 1_555
Ni2 Sb0 2.613846 1_455
Ni2 Sb0 2.613846 1_556
Ni2 Ni4 2.624958 1_456
Ni2 Ni4 2.624958 1_445
Ni2 Ni5 2.671316 1_455
Ni2 Ni5 2.671316 1_556
Ni2 Ni3 2.692927 1_465
Ni2 Ni3 2.692927 1_454
Ni2 Ni3 2.692927 1_566
Ni2 Ni3 2.692927 1_555
Ni3 Te1 2.586813 1_656
Ni3 Te1 2.586813 1_555
Ni3 Sb0 2.613846 1_545
Ni3 Sb0 2.613846 1_556
Ni3 Ni4 2.624958 1_546
Ni3 Ni4 2.624958 1_445
Ni3 Ni5 2.671316 1_545
Ni3 Ni5 2.671316 1_556
Ni4 Sb0 2.692976 1_554
Ni4 Sb0 2.692976 1_655
Ni4 Sb0 2.692976 1_666
Ni4 Sb0 2.692976 1_565
Ni5 Te0 2.512618 1_555
Ni5 Te1 2.695716 1_655
Ni5 Te1 2.695716 1_554
Ni5 Te1 2.695716 1_565
Ni5 Te1 2.695716 1_666
