# generated using pymatgen
data_SmHSO5
_symmetry_space_group_name_H-M   'P 1'
_cell_length_a   12.34664300
_cell_length_b   4.49364800
_cell_length_c   7.04976113
_cell_angle_alpha   68.79930120
_cell_angle_beta   90.00000000
_cell_angle_gamma   90.00000000
_symmetry_Int_Tables_number   1
_chemical_formula_structural   SmHSO5
_chemical_formula_sum   'Sm4 H4 S4 O20'
_cell_volume   364.65910307
_cell_formula_units_Z   4
loop_
 _symmetry_equiv_pos_site_id
 _symmetry_equiv_pos_as_xyz
  1  'x, y, z'
loop_
 _atom_site_type_symbol
 _atom_site_label
 _atom_site_symmetry_multiplicity
 _atom_site_fract_x
 _atom_site_fract_y
 _atom_site_fract_z
 _atom_site_occupancy
  Sm  Sm0  1  0.56317900  0.33960200  0.80210800  1
  Sm  Sm1  1  0.06317900  0.66039800  0.69789200  1
  Sm  Sm2  1  0.43682100  0.66039800  0.19789200  1
  Sm  Sm3  1  0.93682100  0.33960200  0.30210800  1
  H  H0  1  0.34214700  0.28810700  0.98408900  1
  H  H1  1  0.15785300  0.28810700  0.48408900  1
  H  H2  1  0.65785300  0.71189300  0.01591100  1
  H  H3  1  0.84214700  0.71189300  0.51591100  1
  S  S0  1  0.85348600  0.09554100  0.88602900  1
  S  S1  1  0.35348600  0.90445900  0.61397100  1
  S  S2  1  0.14651400  0.90445900  0.11397100  1
  S  S3  1  0.64651400  0.09554100  0.38602900  1
  O  O0  1  0.58522300  0.73842300  0.95463200  1
  O  O1  1  0.08522300  0.26157700  0.54536800  1
  O  O2  1  0.41477700  0.26157700  0.04536800  1
  O  O3  1  0.91477700  0.73842300  0.45463200  1
  O  O4  1  0.90171800  0.03480700  0.71049900  1
  O  O5  1  0.40171800  0.96519300  0.78950100  1
  O  O6  1  0.09828200  0.96519300  0.28950100  1
  O  O7  1  0.59828200  0.03480700  0.21049900  1
  O  O8  1  0.75257100  0.28098100  0.82179800  1
  O  O9  1  0.25257100  0.71901900  0.67820200  1
  O  O10  1  0.24742900  0.71901900  0.17820200  1
  O  O11  1  0.74742900  0.28098100  0.32179800  1
  O  O12  1  0.93347300  0.29612800  0.95220500  1
  O  O13  1  0.43347300  0.70387200  0.54779500  1
  O  O14  1  0.06652700  0.70387200  0.04779500  1
  O  O15  1  0.56652700  0.29612800  0.45220500  1
  O  O16  1  0.83185500  0.79699000  0.05647900  1
  O  O17  1  0.33185500  0.20301000  0.44352100  1
  O  O18  1  0.16814500  0.20301000  0.94352100  1
  O  O19  1  0.66814500  0.79699000  0.55647900  1
loop_
_geom_bond_atom_site_label_1
_geom_bond_atom_site_label_2
_geom_bond_distance
_geom_bond_site_symmetry_2
H0 O2 0.983730 1_556
H1 O1 0.983730 1_555
H2 O0 0.983730 1_554
H3 O3 0.983730 1_555
O0 Sm0 2.415754 1_555
O0 Sm2 2.446673 1_556
O0 Sm0 2.535218 1_565
O1 Sm1 2.415754 1_555
O1 Sm3 2.446673 1_455
O1 Sm1 2.535218 1_545
O2 Sm2 2.415754 1_555
O2 Sm0 2.446673 1_554
O2 Sm2 2.535218 1_545
O3 Sm3 2.415754 1_555
O3 Sm1 2.446673 1_655
O3 Sm3 2.535218 1_565
O4 S0 1.484803 1_555
O4 Sm1 2.630737 1_645
O4 Sm3 2.738736 1_555
O5 S1 1.484803 1_555
O5 Sm0 2.630737 1_565
O5 Sm2 2.738736 1_556
O6 S2 1.484803 1_555
O6 Sm3 2.630737 1_465
O6 Sm1 2.738736 1_555
O7 S3 1.484803 1_555
O7 Sm2 2.630737 1_545
O7 Sm0 2.738736 1_554
O8 S0 1.476123 1_555
O8 Sm0 2.351620 1_555
O9 S1 1.476123 1_555
O9 Sm1 2.351620 1_555
O10 S2 1.476123 1_555
O10 Sm2 2.351620 1_555
O11 S3 1.476123 1_555
O11 Sm3 2.351620 1_555
O12 S0 1.519720 1_555
O12 Sm1 2.517089 1_655
O12 Sm3 2.544245 1_556
O13 S1 1.519720 1_555
O13 Sm0 2.517089 1_555
O13 Sm2 2.544245 1_555
O14 S2 1.519720 1_555
O14 Sm3 2.517089 1_455
O14 Sm1 2.544245 1_554
O15 S3 1.519720 1_555
O15 Sm2 2.517089 1_555
O15 Sm0 2.544245 1_555
O16 S0 1.465985 1_564
O16 Sm3 2.515617 1_555
O17 S1 1.465985 1_545
O17 Sm2 2.515617 1_555
O18 S2 1.465985 1_546
O18 Sm1 2.515617 1_555
O19 S3 1.465985 1_565
O19 Sm0 2.515617 1_555
