# generated using pymatgen
data_MgTi3
_symmetry_space_group_name_H-M   'P 1'
_cell_length_a   4.77662600
_cell_length_b   5.17873100
_cell_length_c   5.84377200
_cell_angle_alpha   90.00000000
_cell_angle_beta   90.00000000
_cell_angle_gamma   90.00000000
_symmetry_Int_Tables_number   1
_chemical_formula_structural   MgTi3
_chemical_formula_sum   'Mg2 Ti6'
_cell_volume   144.55657651
_cell_formula_units_Z   2
loop_
 _symmetry_equiv_pos_site_id
 _symmetry_equiv_pos_as_xyz
  1  'x, y, z'
loop_
 _atom_site_type_symbol
 _atom_site_label
 _atom_site_symmetry_multiplicity
 _atom_site_fract_x
 _atom_site_fract_y
 _atom_site_fract_z
 _atom_site_occupancy
  Mg  Mg0  1  0.00000000  0.16073500  0.00000000  1
  Mg  Mg1  1  0.50000000  0.83926500  0.50000000  1
  Ti  Ti0  1  0.00000000  0.65625900  0.25215600  1
  Ti  Ti1  1  0.00000000  0.16691200  0.50000000  1
  Ti  Ti2  1  0.00000000  0.65625900  0.74784400  1
  Ti  Ti3  1  0.50000000  0.83308800  0.00000000  1
  Ti  Ti4  1  0.50000000  0.34374100  0.24784400  1
  Ti  Ti5  1  0.50000000  0.34374100  0.75215600  1
loop_
_geom_bond_atom_site_label_1
_geom_bond_atom_site_label_2
_geom_bond_distance
_geom_bond_site_symmetry_2
Mg0 Ti1 2.922061 1_555
Mg0 Ti1 2.922061 1_554
Mg0 Ti3 2.929702 1_545
Mg0 Ti3 2.929702 1_445
Mg0 Ti4 2.949567 1_555
Mg0 Ti5 2.949567 1_454
Mg0 Ti4 2.949567 1_455
Mg0 Ti5 2.949567 1_554
Mg0 Ti2 2.959161 1_554
Mg0 Ti0 2.959161 1_555
Mg0 Ti0 2.999453 1_545
Mg0 Ti2 2.999453 1_544
Mg1 Ti3 2.922061 1_555
Mg1 Ti3 2.922061 1_556
Mg1 Ti1 2.929702 1_565
Mg1 Ti1 2.929702 1_665
Mg1 Ti2 2.949567 1_655
Mg1 Ti2 2.949567 1_555
Mg1 Ti0 2.949567 1_655
Mg1 Ti0 2.949567 1_555
Mg1 Ti4 2.959161 1_555
Mg1 Ti5 2.959161 1_555
Mg1 Ti4 2.999453 1_565
Mg1 Ti5 2.999453 1_565
Ti0 Ti4 2.885142 1_555
Ti0 Ti4 2.885142 1_455
Ti0 Ti2 2.896688 1_555
Ti0 Ti1 2.918878 1_555
Ti0 Ti2 2.947084 1_554
Ti0 Ti3 2.951942 1_455
Ti0 Ti3 2.951942 1_555
Ti0 Ti1 3.015172 1_565
Ti1 Ti2 2.918878 1_555
Ti1 Ti4 2.951942 1_555
Ti1 Ti5 2.951942 1_555
Ti1 Ti4 2.951942 1_455
Ti1 Ti5 2.951942 1_455
Ti1 Ti2 3.015172 1_545
Ti2 Ti5 2.885142 1_455
Ti2 Ti5 2.885142 1_555
Ti2 Ti3 2.951942 1_456
Ti2 Ti3 2.951942 1_556
Ti3 Ti5 2.918878 1_554
Ti3 Ti4 2.918878 1_555
Ti3 Ti5 3.015172 1_564
Ti3 Ti4 3.015172 1_565
Ti4 Ti5 2.896688 1_554
Ti4 Ti5 2.947084 1_555
