# generated using pymatgen
data_Mn6Ga29
_symmetry_space_group_name_H-M   'P 1'
_cell_length_a   6.30805200
_cell_length_b   9.94309095
_cell_length_c   18.91275586
_cell_angle_alpha   90.54833838
_cell_angle_beta   91.03770751
_cell_angle_gamma   90.42918541
_symmetry_Int_Tables_number   1
_chemical_formula_structural   Mn6Ga29
_chemical_formula_sum   'Mn12 Ga58'
_cell_volume   1185.95336320
_cell_formula_units_Z   2
loop_
 _symmetry_equiv_pos_site_id
 _symmetry_equiv_pos_as_xyz
  1  'x, y, z'
loop_
 _atom_site_type_symbol
 _atom_site_label
 _atom_site_symmetry_multiplicity
 _atom_site_fract_x
 _atom_site_fract_y
 _atom_site_fract_z
 _atom_site_occupancy
  Mn  Mn0  1  0.99815600  0.15897900  0.66463800  1
  Mn  Mn1  1  0.00184400  0.84102100  0.33536200  1
  Mn  Mn2  1  0.99619700  0.84611100  0.99489300  1
  Mn  Mn3  1  0.00380300  0.15388900  0.00510700  1
  Mn  Mn4  1  0.50521800  0.65392500  0.50393300  1
  Mn  Mn5  1  0.49478200  0.34607500  0.49606700  1
  Mn  Mn6  1  0.50136800  0.33754500  0.83492200  1
  Mn  Mn7  1  0.49863200  0.66245500  0.16507800  1
  Mn  Mn8  1  0.49033500  0.64715800  0.82732500  1
  Mn  Mn9  1  0.50966500  0.35284200  0.17267500  1
  Mn  Mn10  1  0.01314400  0.85010900  0.67166800  1
  Mn  Mn11  1  0.98685600  0.14989100  0.32833200  1
  Ga  Ga0  1  0.97492500  0.42548400  0.66313100  1
  Ga  Ga1  1  0.02507500  0.57451600  0.33686900  1
  Ga  Ga2  1  0.96968600  0.98675600  0.22773000  1
  Ga  Ga3  1  0.03031400  0.01324400  0.77227000  1
  Ga  Ga4  1  0.95390700  0.99284000  0.56222800  1
  Ga  Ga5  1  0.04609300  0.00716000  0.43777200  1
  Ga  Ga6  1  0.94436800  0.60674500  0.97843700  1
  Ga  Ga7  1  0.05563200  0.39325500  0.02156300  1
  Ga  Ga8  1  0.93671100  0.01261000  0.89602500  1
  Ga  Ga9  1  0.06328900  0.98739000  0.10397500  1
  Ga  Ga10  1  0.81673300  0.49143500  0.51927600  1
  Ga  Ga11  1  0.18326700  0.50856500  0.48072400  1
  Ga  Ga12  1  0.81518700  0.51578100  0.17200600  1
  Ga  Ga13  1  0.18481300  0.48421900  0.82799400  1
  Ga  Ga14  1  0.80830600  0.50089900  0.84778900  1
  Ga  Ga15  1  0.19169400  0.49910100  0.15221100  1
  Ga  Ga16  1  0.77788800  0.71334700  0.59847700  1
  Ga  Ga17  1  0.22211200  0.28665300  0.40152300  1
  Ga  Ga18  1  0.76473700  0.74443100  0.42122300  1
  Ga  Ga19  1  0.23526300  0.25556900  0.57877700  1
  Ga  Ga20  1  0.76359800  0.74617700  0.75223100  1
  Ga  Ga21  1  0.23640200  0.25382300  0.24776900  1
  Ga  Ga22  1  0.75546900  0.24673000  0.75217400  1
  Ga  Ga23  1  0.24453100  0.75327000  0.24782600  1
  Ga  Ga24  1  0.75145800  0.75611100  0.08312000  1
  Ga  Ga25  1  0.24854200  0.24388900  0.91688000  1
  Ga  Ga26  1  0.74910200  0.25932100  0.92552300  1
  Ga  Ga27  1  0.25089800  0.74067900  0.07447700  1
  Ga  Ga28  1  0.74071100  0.74926300  0.25427300  1
  Ga  Ga29  1  0.25928900  0.25073700  0.74572700  1
  Ga  Ga30  1  0.73270300  0.23933500  0.58064700  1
  Ga  Ga31  1  0.26729700  0.76066500  0.41935300  1
  Ga  Ga32  1  0.70785100  0.78577800  0.90572500  1
  Ga  Ga33  1  0.29214900  0.21422200  0.09427500  1
  Ga  Ga34  1  0.69149100  0.99553200  0.67679300  1
  Ga  Ga35  1  0.30850900  0.00446800  0.32320700  1
  Ga  Ga36  1  0.68775800  0.99265500  0.35119200  1
  Ga  Ga37  1  0.31224200  0.00734500  0.64880800  1
  Ga  Ga38  1  0.55043000  0.48983400  0.72836300  1
  Ga  Ga39  1  0.44957000  0.51016600  0.27163700  1
  Ga  Ga40  1  0.55240000  0.89393300  0.52381400  1
  Ga  Ga41  1  0.44760000  0.10606700  0.47618600  1
  Ga  Ga42  1  0.48718700  0.92583200  0.16044600  1
  Ga  Ga43  1  0.51281300  0.07416800  0.83955400  1
  Ga  Ga44  1  0.47526100  0.50489100  0.93662600  1
  Ga  Ga45  1  0.52473900  0.49510900  0.06337400  1
  Ga  Ga46  1  0.45384000  0.49450300  0.60323800  1
  Ga  Ga47  1  0.54616000  0.50549700  0.39676200  1
  Ga  Ga48  1  0.36355400  0.85963100  0.77277600  1
  Ga  Ga49  1  0.63644600  0.14036900  0.22722400  1
  Ga  Ga50  1  0.31241800  0.99681400  0.98142600  1
  Ga  Ga51  1  0.68758200  0.00318600  0.01857400  1
  Ga  Ga52  1  0.24548700  0.75643100  0.90705600  1
  Ga  Ga53  1  0.75451300  0.24356900  0.09294400  1
  Ga  Ga54  1  0.23939500  0.74348500  0.58522600  1
  Ga  Ga55  1  0.76060500  0.25651500  0.41477400  1
  Ga  Ga56  1  0.17009200  0.63930800  0.71889100  1
  Ga  Ga57  1  0.82990800  0.36069200  0.28110900  1
loop_
_geom_bond_atom_site_label_1
_geom_bond_atom_site_label_2
_geom_bond_distance
_geom_bond_site_symmetry_2
Ga0 Ga56 2.649306 1_655
Ga0 Mn0 2.655425 1_555
Ga0 Ga30 2.830208 1_555
Ga0 Ga22 2.831311 1_555
Ga0 Ga19 2.860300 1_655
Ga0 Ga29 2.945168 1_655
Ga0 Ga10 2.962023 1_555
Ga0 Ga38 3.038411 1_555
Ga1 Ga57 2.649306 1_455
Ga1 Mn1 2.655425 1_555
Ga1 Ga31 2.830208 1_555
Ga1 Ga23 2.831311 1_555
Ga1 Ga18 2.860300 1_455
Ga1 Ga28 2.945168 1_455
Ga1 Ga11 2.962023 1_555
Ga1 Ga39 3.038411 1_555
Ga2 Ga9 2.424278 1_655
Ga2 Mn11 2.488731 1_565
Ga2 Mn1 2.516060 1_655
Ga2 Ga49 2.607578 1_565
Ga2 Ga35 2.776379 1_665
Ga2 Ga28 2.812897 1_555
Ga2 Ga23 2.931436 1_655
Ga2 Ga36 2.961049 1_555
Ga2 Ga21 3.149054 1_665
Ga3 Ga8 2.424278 1_455
Ga3 Mn10 2.488731 1_545
Ga3 Mn0 2.516060 1_455
Ga3 Ga48 2.607578 1_545
Ga3 Ga34 2.776379 1_445
Ga3 Ga37 2.961049 1_555
Ga4 Ga5 2.439997 1_665
Ga4 Mn0 2.543714 1_565
Ga4 Mn10 2.544405 1_655
Ga4 Ga40 2.791424 1_555
Ga4 Ga54 3.104628 1_655
Ga5 Mn1 2.543714 1_545
Ga5 Mn11 2.544405 1_455
Ga5 Ga55 3.104628 1_455
Ga6 Ga7 2.387186 1_656
Ga6 Mn2 2.416363 1_555
Ga7 Mn3 2.416363 1_555
Ga8 Mn3 2.512484 1_656
Ga8 Mn2 2.533985 1_545
Ga9 Mn2 2.512484 1_454
Ga9 Mn3 2.533985 1_565
Ga10 Ga11 2.442141 1_655
Ga10 Mn5 2.513509 1_555
Ga10 Mn4 2.567460 1_555
Ga10 Ga16 2.670302 1_555
Ga10 Ga46 2.809716 1_555
Ga10 Ga30 2.823041 1_555
Ga10 Ga47 2.857981 1_555
Ga10 Ga55 3.059674 1_555
Ga10 Ga18 3.155035 1_555
Ga11 Mn4 2.513509 1_555
Ga11 Mn5 2.567460 1_555
Ga11 Ga17 2.670302 1_555
Ga11 Ga47 2.809716 1_555
Ga11 Ga31 2.823041 1_555
Ga11 Ga46 2.857981 1_555
Ga11 Ga54 3.059674 1_555
Ga11 Ga19 3.155035 1_555
Ga12 Ga15 2.417712 1_655
Ga12 Mn7 2.483803 1_555
Ga12 Mn9 2.508730 1_555
Ga12 Ga57 2.588527 1_555
Ga12 Ga45 2.733146 1_555
Ga12 Ga28 2.829261 1_555
Ga12 Ga24 2.960530 1_555
Ga12 Ga39 3.005054 1_555
Ga12 Ga53 3.097495 1_555
Ga13 Ga14 2.417712 1_455
Ga13 Mn6 2.483803 1_555
Ga13 Mn8 2.508730 1_555
Ga13 Ga56 2.588527 1_555
Ga13 Ga44 2.733146 1_555
Ga13 Ga29 2.829261 1_555
Ga13 Ga25 2.960530 1_555
Ga13 Ga38 3.005054 1_555
Ga13 Ga52 3.097495 1_555
Ga14 Mn8 2.512804 1_555
Ga14 Mn6 2.524765 1_555
Ga14 Ga44 2.714028 1_555
Ga14 Ga38 2.760314 1_555
Ga14 Ga6 2.794561 1_555
Ga14 Ga26 2.853884 1_555
Ga14 Ga20 3.061013 1_555
Ga14 Ga32 3.101338 1_555
Ga14 Ga22 3.105823 1_555
Ga15 Mn9 2.512804 1_555
Ga15 Mn7 2.524765 1_555
Ga15 Ga45 2.714028 1_555
Ga15 Ga39 2.760314 1_555
Ga15 Ga7 2.794561 1_555
Ga15 Ga27 2.853884 1_555
Ga15 Ga21 3.061013 1_555
Ga15 Ga33 3.101338 1_555
Ga15 Ga23 3.105823 1_555
Ga16 Mn10 2.413897 1_655
Ga16 Mn4 2.521499 1_555
Ga16 Ga40 2.693572 1_555
Ga16 Ga20 2.926158 1_555
Ga16 Ga54 2.939821 1_655
Ga16 Ga46 2.977448 1_555
Ga16 Ga4 3.073051 1_555
Ga17 Mn11 2.413897 1_455
Ga17 Mn5 2.521499 1_555
Ga17 Ga41 2.693572 1_555
Ga17 Ga21 2.926158 1_555
Ga17 Ga55 2.939821 1_455
Ga17 Ga47 2.977448 1_555
Ga17 Ga5 3.073051 1_555
Ga18 Mn1 2.427487 1_655
Ga18 Mn4 2.456498 1_555
Ga18 Ga47 2.768761 1_555
Ga18 Ga40 2.799506 1_555
Ga18 Ga36 2.852868 1_555
Ga19 Mn0 2.427487 1_455
Ga19 Mn5 2.456498 1_555
Ga19 Ga46 2.768761 1_555
Ga19 Ga41 2.799506 1_555
Ga19 Ga37 2.852868 1_555
Ga20 Mn10 2.441327 1_655
Ga20 Mn8 2.459221 1_555
Ga20 Ga48 2.803814 1_555
Ga20 Ga56 2.861527 1_655
Ga20 Ga38 2.900545 1_555
Ga20 Ga34 2.907026 1_555
Ga20 Ga32 2.953516 1_555
Ga20 Ga3 3.149054 1_665
Ga21 Mn11 2.441327 1_455
Ga21 Mn9 2.459221 1_555
Ga21 Ga49 2.803814 1_555
Ga21 Ga57 2.861527 1_455
Ga21 Ga39 2.900545 1_555
Ga21 Ga35 2.907026 1_555
Ga21 Ga33 2.953516 1_555
Ga22 Mn6 2.432962 1_555
Ga22 Mn0 2.435135 1_555
Ga22 Ga38 2.786598 1_555
Ga22 Ga43 2.850368 1_555
Ga22 Ga3 2.931436 1_655
Ga23 Mn7 2.432962 1_555
Ga23 Mn1 2.435135 1_555
Ga23 Ga39 2.786598 1_555
Ga23 Ga42 2.850368 1_555
Ga24 Mn7 2.430696 1_555
Ga24 Mn2 2.463671 1_554
Ga24 Ga6 2.768457 1_554
Ga24 Ga51 2.782500 1_565
Ga24 Ga42 2.801571 1_555
Ga24 Ga45 2.970892 1_555
Ga24 Ga9 3.033134 1_655
Ga25 Mn6 2.430696 1_555
Ga25 Mn3 2.463671 1_556
Ga25 Ga7 2.768457 1_556
Ga25 Ga50 2.782500 1_545
Ga25 Ga43 2.801571 1_555
Ga25 Ga44 2.970892 1_555
Ga25 Ga8 3.033134 1_455
Ga26 Mn3 2.431806 1_656
Ga26 Mn6 2.435140 1_555
Ga26 Ga8 2.787571 1_555
Ga26 Ga43 2.840479 1_555
Ga26 Ga7 2.932484 1_656
Ga26 Ga44 3.009410 1_555
Ga26 Ga51 3.135195 1_556
Ga27 Mn2 2.431806 1_454
Ga27 Mn7 2.435140 1_555
Ga27 Ga9 2.787571 1_555
Ga27 Ga42 2.840479 1_555
Ga27 Ga6 2.932484 1_454
Ga27 Ga45 3.009410 1_555
Ga27 Ga50 3.135195 1_554
Ga28 Mn1 2.399371 1_655
Ga28 Mn7 2.404511 1_555
Ga28 Ga42 2.964406 1_555
Ga28 Ga39 3.017273 1_555
Ga28 Ga36 3.045915 1_555
Ga29 Mn0 2.399371 1_455
Ga29 Mn6 2.404511 1_555
Ga29 Ga3 2.812897 1_555
Ga29 Ga43 2.964406 1_555
Ga29 Ga38 3.017273 1_555
Ga29 Ga37 3.045915 1_555
Ga30 Mn5 2.430456 1_555
Ga30 Mn0 2.431795 1_555
Ga30 Ga4 2.850950 1_545
Ga30 Ga41 2.946006 1_555
Ga30 Ga55 3.151422 1_555
Ga31 Mn4 2.430456 1_555
Ga31 Mn1 2.431795 1_555
Ga31 Ga5 2.850950 1_565
Ga31 Ga40 2.946006 1_555
Ga31 Ga54 3.151422 1_555
Ga32 Mn8 2.416577 1_555
Ga32 Mn2 2.522985 1_555
Ga32 Ga8 2.678325 1_565
Ga32 Ga6 2.701539 1_555
Ga32 Ga52 2.929587 1_555
Ga32 Ga51 3.028237 1_566
Ga33 Mn9 2.416577 1_555
Ga33 Mn3 2.522985 1_555
Ga33 Ga9 2.678325 1_545
Ga33 Ga7 2.701539 1_555
Ga33 Ga53 2.929587 1_555
Ga33 Ga50 3.028237 1_544
Ga34 Ga37 2.444723 1_565
Ga34 Mn10 2.503084 1_655
Ga34 Mn0 2.532254 1_565
Ga34 Ga4 2.750468 1_555
Ga34 Ga48 3.088956 1_555
Ga35 Ga36 2.444723 1_545
Ga35 Mn11 2.503084 1_455
Ga35 Mn1 2.532254 1_545
Ga35 Ga5 2.750468 1_555
Ga35 Ga49 3.088956 1_555
Ga36 Mn11 2.487812 1_565
Ga36 Mn1 2.519098 1_655
Ga36 Ga5 2.769118 1_665
Ga36 Ga49 2.793659 1_565
Ga36 Ga55 2.905499 1_565
Ga36 Ga41 3.042915 1_565
Ga37 Mn10 2.487812 1_545
Ga37 Mn0 2.519098 1_455
Ga37 Ga4 2.769118 1_445
Ga37 Ga48 2.793659 1_545
Ga37 Ga54 2.905499 1_545
Ga37 Ga40 3.042915 1_545
Ga38 Ga46 2.433890 1_555
Ga38 Mn8 2.464202 1_555
Ga38 Mn6 2.554245 1_555
Ga38 Ga56 2.835498 1_555
Ga39 Ga47 2.433890 1_555
Ga39 Mn9 2.464202 1_555
Ga39 Mn7 2.554245 1_555
Ga39 Ga57 2.835498 1_555
Ga40 Ga41 2.394395 1_565
Ga40 Mn4 2.427571 1_555
Ga40 Ga54 2.749057 1_555
Ga41 Mn5 2.427571 1_555
Ga41 Ga55 2.749057 1_555
Ga41 Ga5 2.791424 1_555
Ga42 Mn7 2.622575 1_555
Ga42 Ga49 2.628154 1_565
Ga42 Ga9 2.932408 1_555
Ga42 Ga51 3.088176 1_565
Ga43 Mn6 2.622575 1_555
Ga43 Ga48 2.628154 1_545
Ga43 Ga8 2.932408 1_555
Ga43 Ga50 3.088176 1_545
Ga44 Ga45 2.414754 1_556
Ga44 Mn8 2.518805 1_555
Ga44 Mn6 2.539683 1_555
Ga44 Ga52 2.953091 1_555
Ga45 Mn9 2.518805 1_555
Ga45 Mn7 2.539683 1_555
Ga45 Ga53 2.953091 1_555
Ga46 Mn4 2.493279 1_555
Ga46 Mn5 2.514064 1_555
Ga46 Ga54 2.850332 1_555
Ga47 Mn5 2.493279 1_555
Ga47 Mn4 2.514064 1_555
Ga47 Ga55 2.850332 1_555
Ga48 Mn8 2.490847 1_555
Ga48 Ga56 2.683131 1_555
Ga48 Ga52 2.857299 1_555
Ga48 Mn10 2.896857 1_555
Ga49 Mn9 2.490847 1_555
Ga49 Ga57 2.683131 1_555
Ga49 Ga53 2.857299 1_555
Ga49 Mn11 2.896857 1_555
Ga50 Ga51 2.456599 1_566
Ga50 Mn2 2.504026 1_455
Ga50 Mn3 2.548227 1_566
Ga50 Ga52 2.787195 1_555
Ga50 Ga9 2.825641 1_556
Ga50 Ga8 2.849916 1_465
Ga51 Mn3 2.504026 1_655
Ga51 Mn2 2.548227 1_544
Ga51 Ga53 2.787195 1_555
Ga51 Ga8 2.825641 1_554
Ga51 Ga9 2.849916 1_645
Ga52 Mn8 2.432701 1_555
Ga52 Mn2 2.472849 1_455
Ga52 Ga6 2.781129 1_455
Ga53 Mn9 2.432701 1_555
Ga53 Mn3 2.472849 1_655
Ga53 Ga7 2.781129 1_655
Ga54 Mn10 2.430563 1_555
Ga54 Mn4 2.461323 1_555
Ga54 Ga56 2.781744 1_555
Ga55 Mn11 2.430563 1_555
Ga55 Mn5 2.461323 1_555
Ga55 Ga57 2.781744 1_555
Ga56 Mn10 2.491183 1_555
Ga56 Mn8 2.852573 1_555
Ga57 Mn11 2.491183 1_555
Ga57 Mn9 2.852573 1_555
