# generated using pymatgen
data_Rh2S3
_symmetry_space_group_name_H-M   'P 1'
_cell_length_a   6.00682589
_cell_length_b   6.16210308
_cell_length_c   8.51038418
_cell_angle_alpha   90.00000000
_cell_angle_beta   90.00000000
_cell_angle_gamma   90.00000000
_symmetry_Int_Tables_number   1
_chemical_formula_structural   Rh2S3
_chemical_formula_sum   'Rh8 S12'
_cell_volume   315.00914980
_cell_formula_units_Z   4
loop_
 _symmetry_equiv_pos_site_id
 _symmetry_equiv_pos_as_xyz
  1  'x, y, z'
loop_
 _atom_site_type_symbol
 _atom_site_label
 _atom_site_symmetry_multiplicity
 _atom_site_fract_x
 _atom_site_fract_y
 _atom_site_fract_z
 _atom_site_occupancy
  Rh  Rh0  1  0.75129516  0.03240269  0.39357304  1
  Rh  Rh1  1  0.75129516  0.46759731  0.60642696  1
  Rh  Rh2  1  0.74870484  0.53240269  0.10642696  1
  Rh  Rh3  1  0.74870484  0.96759731  0.89357304  1
  Rh  Rh4  1  0.24870484  0.96759731  0.60642696  1
  Rh  Rh5  1  0.24870484  0.53240269  0.39357304  1
  Rh  Rh6  1  0.25129516  0.46759731  0.89357304  1
  Rh  Rh7  1  0.25129516  0.03240269  0.10642696  1
  S  S0  1  0.45223603  0.25000000  0.50000000  1
  S  S1  1  0.04776397  0.75000000  0.00000000  1
  S  S2  1  0.54776397  0.75000000  0.50000000  1
  S  S3  1  0.95223603  0.25000000  0.00000000  1
  S  S4  1  0.89086029  0.39332716  0.34865387  1
  S  S5  1  0.89086029  0.10667284  0.65134613  1
  S  S6  1  0.60913971  0.89332716  0.15134613  1
  S  S7  1  0.60913971  0.60667284  0.84865387  1
  S  S8  1  0.39086029  0.39332716  0.15134613  1
  S  S9  1  0.39086029  0.10667284  0.84865387  1
  S  S10  1  0.10913971  0.89332716  0.34865387  1
  S  S11  1  0.10913971  0.60667284  0.65134613  1
loop_
_geom_bond_atom_site_label_1
_geom_bond_atom_site_label_2
_geom_bond_distance
_geom_bond_site_symmetry_2
Rh0 S2 2.311563 1_545
Rh0 S10 2.345416 1_645
Rh0 S6 2.390219 1_545
Rh0 S5 2.392656 1_555
Rh0 S4 2.407358 1_555
Rh0 S0 2.417704 1_555
Rh1 S2 2.311563 1_555
Rh1 S11 2.345416 1_655
Rh1 S7 2.390219 1_555
Rh1 S4 2.392656 1_555
Rh1 S5 2.407358 1_555
Rh1 S0 2.417704 1_555
Rh2 S3 2.311563 1_555
Rh2 S8 2.345416 1_555
Rh2 S4 2.390219 1_555
Rh2 S7 2.392656 1_554
Rh2 S6 2.407358 1_555
Rh2 S1 2.417704 1_655
Rh3 S3 2.311563 1_566
Rh3 S9 2.345416 1_565
Rh3 S5 2.390219 1_565
Rh3 S6 2.392656 1_556
Rh3 S7 2.407358 1_555
Rh3 S1 2.417704 1_656
Rh4 S0 2.311563 1_565
Rh4 S5 2.345416 1_465
Rh4 S9 2.390219 1_565
Rh4 S10 2.392656 1_555
Rh4 S11 2.407358 1_555
Rh4 S2 2.417704 1_555
Rh5 S0 2.311563 1_555
Rh5 S4 2.345416 1_455
Rh5 S8 2.390219 1_555
Rh5 S11 2.392656 1_555
Rh5 S10 2.407358 1_555
Rh5 S2 2.417704 1_555
Rh6 S1 2.311563 1_556
Rh6 S7 2.345416 1_555
Rh6 S11 2.390219 1_555
Rh6 S8 2.392656 1_556
Rh6 S9 2.407358 1_555
Rh6 S3 2.417704 1_456
Rh7 S1 2.311563 1_545
Rh7 S6 2.345416 1_545
Rh7 S10 2.390219 1_545
Rh7 S9 2.392656 1_554
Rh7 S8 2.407358 1_555
Rh7 S3 2.417704 1_455
