# generated using pymatgen
data_FeHO2
_symmetry_space_group_name_H-M   'P 1'
_cell_length_a   3.09328700
_cell_length_b   7.40775347
_cell_length_c   7.87949341
_cell_angle_alpha   89.13405872
_cell_angle_beta   101.15598470
_cell_angle_gamma   101.65005094
_symmetry_Int_Tables_number   1
_chemical_formula_structural   FeHO2
_chemical_formula_sum   'Fe4 H4 O8'
_cell_volume   173.43823503
_cell_formula_units_Z   4
loop_
 _symmetry_equiv_pos_site_id
 _symmetry_equiv_pos_as_xyz
  1  'x, y, z'
loop_
 _atom_site_type_symbol
 _atom_site_label
 _atom_site_symmetry_multiplicity
 _atom_site_fract_x
 _atom_site_fract_y
 _atom_site_fract_z
 _atom_site_occupancy
  Fe  Fe0  1  0.82220000  0.47212800  0.19316200  1
  Fe  Fe1  1  0.15927400  0.49852000  0.84912900  1
  Fe  Fe2  1  0.36969900  0.22372100  0.52680300  1
  Fe  Fe3  1  0.63625200  0.81685000  0.46345000  1
  H  H0  1  0.79628700  0.76335500  0.03236600  1
  H  H1  1  0.13556700  0.02041200  0.24321400  1
  H  H2  1  0.90329700  0.05282800  0.75997000  1
  H  H3  1  0.05355000  0.57178600  0.53354000  1
  O  O0  1  0.77437600  0.65741600  0.95777400  1
  O  O1  1  0.19553200  0.35548800  0.05986800  1
  O  O2  1  0.16840100  0.98077200  0.36247200  1
  O  O3  1  0.84023400  0.05329500  0.63429500  1
  O  O4  1  0.85914300  0.32570200  0.40497800  1
  O  O5  1  0.13905200  0.69506700  0.59248000  1
  O  O6  1  0.54789800  0.38931800  0.72793900  1
  O  O7  1  0.45232800  0.63989900  0.28054200  1
loop_
_geom_bond_atom_site_label_1
_geom_bond_atom_site_label_2
_geom_bond_distance
_geom_bond_site_symmetry_2
Fe0 O4 1.974010 1_555
Fe0 O1 2.020655 1_655
Fe0 O1 2.042173 1_555
Fe0 O7 2.057323 1_555
Fe0 O7 2.084724 1_655
Fe0 O0 2.290145 1_554
Fe1 O1 1.953274 1_556
Fe1 O6 1.961995 1_455
Fe1 O6 1.967651 1_555
Fe1 O0 2.057721 1_555
Fe1 O0 2.127604 1_455
Fe1 O5 2.472277 1_555
Fe2 O6 1.941138 1_555
Fe2 O4 1.964592 1_455
Fe2 O4 1.965414 1_555
Fe2 O2 2.146892 1_545
Fe2 O3 2.159272 1_555
Fe2 O3 2.159391 1_455
Fe3 O7 1.886173 1_555
Fe3 O5 2.047814 1_655
Fe3 O5 2.056672 1_555
Fe3 O2 2.106396 1_555
Fe3 O2 2.118380 1_655
Fe3 O3 2.138783 1_565
H0 O0 0.971056 1_554
H1 O2 0.972799 1_545
H2 O3 0.971643 1_555
H3 O5 0.993667 1_555
