# generated using pymatgen
data_CaMg6Cr
_symmetry_space_group_name_H-M   'P 1'
_cell_length_a   5.17236700
_cell_length_b   6.52642000
_cell_length_c   11.28766800
_cell_angle_alpha   90.00000000
_cell_angle_beta   90.00000000
_cell_angle_gamma   90.00000000
_symmetry_Int_Tables_number   1
_chemical_formula_structural   CaMg6Cr
_chemical_formula_sum   'Ca2 Mg12 Cr2'
_cell_volume   381.03825382
_cell_formula_units_Z   2
loop_
 _symmetry_equiv_pos_site_id
 _symmetry_equiv_pos_as_xyz
  1  'x, y, z'
loop_
 _atom_site_type_symbol
 _atom_site_label
 _atom_site_symmetry_multiplicity
 _atom_site_fract_x
 _atom_site_fract_y
 _atom_site_fract_z
 _atom_site_occupancy
  Ca  Ca0  1  0.00000000  0.50000000  0.32965100  1
  Ca  Ca1  1  0.00000000  0.00000000  0.82965100  1
  Mg  Mg0  1  0.00000000  0.25801700  0.08340300  1
  Mg  Mg1  1  0.00000000  0.74198300  0.08340300  1
  Mg  Mg2  1  0.00000000  0.50000000  0.83559400  1
  Mg  Mg3  1  0.50000000  0.25588400  0.91935100  1
  Mg  Mg4  1  0.50000000  0.74411600  0.91935100  1
  Mg  Mg5  1  0.50000000  0.50000000  0.66633800  1
  Mg  Mg6  1  0.00000000  0.75801700  0.58340300  1
  Mg  Mg7  1  0.00000000  0.24198300  0.58340300  1
  Mg  Mg8  1  0.00000000  0.00000000  0.33559400  1
  Mg  Mg9  1  0.50000000  0.75588400  0.41935100  1
  Mg  Mg10  1  0.50000000  0.24411600  0.41935100  1
  Mg  Mg11  1  0.50000000  0.00000000  0.16633800  1
  Cr  Cr0  1  0.50000000  0.50000000  0.16290900  1
  Cr  Cr1  1  0.50000000  0.00000000  0.66290900  1
loop_
_geom_bond_atom_site_label_1
_geom_bond_atom_site_label_2
_geom_bond_distance
_geom_bond_site_symmetry_2
Ca0 Mg0 3.196892 1_555
Ca0 Mg1 3.196892 1_555
Ca0 Cr0 3.198555 1_455
Ca0 Cr0 3.198555 1_555
Ca0 Mg9 3.240745 1_555
Ca0 Mg10 3.240745 1_555
Ca0 Mg10 3.240745 1_455
Ca0 Mg9 3.240745 1_455
Ca0 Mg8 3.263899 1_555
Ca0 Mg8 3.263899 1_565
Ca0 Mg7 3.322596 1_555
Ca0 Mg6 3.322596 1_555
Ca1 Mg6 3.196892 1_545
Ca1 Mg7 3.196892 1_555
Ca1 Cr1 3.198555 1_455
Ca1 Cr1 3.198555 1_555
Ca1 Mg3 3.240745 1_455
Ca1 Mg4 3.240745 1_445
Ca1 Mg3 3.240745 1_555
Ca1 Mg4 3.240745 1_545
Ca1 Mg2 3.263899 1_545
Ca1 Mg2 3.263899 1_555
Ca1 Mg0 3.322596 1_556
Ca1 Mg1 3.322596 1_546
Mg0 Mg1 3.158565 1_555
Mg0 Mg3 3.180813 1_554
Mg0 Mg3 3.180813 1_454
Mg0 Mg2 3.212224 1_554
Mg0 Mg11 3.224953 1_455
Mg0 Mg11 3.224953 1_555
Mg0 Mg8 3.307419 1_555
Mg0 Mg1 3.367855 1_545
Mg1 Mg4 3.180813 1_554
Mg1 Mg4 3.180813 1_454
Mg1 Mg2 3.212224 1_554
Mg1 Mg11 3.224953 1_465
Mg1 Mg11 3.224953 1_565
Mg1 Mg8 3.307419 1_565
Mg2 Mg3 3.181268 1_555
Mg2 Mg4 3.181268 1_555
Mg2 Mg3 3.181268 1_455
Mg2 Mg4 3.181268 1_455
Mg2 Mg5 3.215335 1_455
Mg2 Mg5 3.215335 1_555
Mg2 Mg7 3.307419 1_555
Mg2 Mg6 3.307419 1_555
Mg3 Mg4 3.186407 1_555
Mg3 Mg5 3.270262 1_555
Mg3 Mg4 3.340013 1_545
Mg4 Mg5 3.270262 1_555
Mg5 Mg6 3.224953 1_655
Mg5 Mg7 3.224953 1_655
Mg5 Mg6 3.224953 1_555
Mg5 Mg7 3.224953 1_555
Mg5 Mg9 3.249823 1_555
Mg6 Mg7 3.158565 1_565
Mg6 Mg9 3.180813 1_555
Mg6 Mg9 3.180813 1_455
Mg6 Mg8 3.212224 1_565
Mg6 Mg7 3.367855 1_555
Mg7 Mg8 3.212224 1_555
Mg8 Mg9 3.181268 1_445
Mg8 Mg9 3.181268 1_545
Mg10 Mg7 3.180813 1_655
Mg10 Mg7 3.180813 1_555
Mg10 Mg8 3.181268 1_555
Mg10 Mg8 3.181268 1_655
Mg10 Mg9 3.186407 1_545
Mg10 Mg5 3.249823 1_555
Mg10 Mg11 3.270262 1_555
Mg10 Mg9 3.340013 1_555
Mg11 Mg8 3.215335 1_555
Mg11 Mg8 3.215335 1_655
Mg11 Mg4 3.249823 1_544
Mg11 Mg3 3.249823 1_554
Mg11 Mg9 3.270262 1_545
Cr0 Mg1 3.160360 1_555
Cr0 Mg1 3.160360 1_655
Cr0 Mg0 3.160360 1_655
Cr0 Mg0 3.160360 1_555
Cr0 Mg3 3.177485 1_554
Cr0 Mg4 3.177485 1_554
Cr0 Mg11 3.263440 1_565
Cr0 Mg11 3.263440 1_555
Cr0 Mg9 3.341828 1_555
Cr0 Mg10 3.341828 1_555
Cr1 Mg6 3.160360 1_645
Cr1 Mg6 3.160360 1_545
Cr1 Mg7 3.160360 1_655
Cr1 Mg7 3.160360 1_555
Cr1 Mg9 3.177485 1_545
Cr1 Mg10 3.177485 1_555
Cr1 Mg5 3.263440 1_555
Cr1 Mg5 3.263440 1_545
Cr1 Mg4 3.341828 1_545
Cr1 Mg3 3.341828 1_555
