# generated using pymatgen
data_Ba4Sr(SnO3)5
_symmetry_space_group_name_H-M   'P 1'
_cell_length_a   12.52515227
_cell_length_b   12.52515227
_cell_length_c   12.52515255
_cell_angle_alpha   27.27175396
_cell_angle_beta   27.27175396
_cell_angle_gamma   27.27175226
_symmetry_Int_Tables_number   1
_chemical_formula_structural   Ba4Sr(SnO3)5
_chemical_formula_sum   'Ba4 Sr1 Sn5 O15'
_cell_volume   364.02109837
_cell_formula_units_Z   1
loop_
 _symmetry_equiv_pos_site_id
 _symmetry_equiv_pos_as_xyz
  1  'x, y, z'
loop_
 _atom_site_type_symbol
 _atom_site_label
 _atom_site_symmetry_multiplicity
 _atom_site_fract_x
 _atom_site_fract_y
 _atom_site_fract_z
 _atom_site_occupancy
  Ba  Ba0  1  0.39986100  0.39986100  0.39986100  1
  Ba  Ba1  1  0.80000600  0.80000600  0.80000600  1
  Ba  Ba2  1  0.19999400  0.19999400  0.19999400  1
  Ba  Ba3  1  0.60013900  0.60013900  0.60013900  1
  Sr  Sr0  1  0.00000000  0.00000000  0.00000000  1
  Sn  Sn0  1  0.30014300  0.30014300  0.30014300  1
  Sn  Sn1  1  0.50000000  0.50000000  0.50000000  1
  Sn  Sn2  1  0.90017300  0.90017300  0.90017300  1
  Sn  Sn3  1  0.69985700  0.69985700  0.69985700  1
  Sn  Sn4  1  0.09982700  0.09982700  0.09982700  1
  O  O0  1  0.50000000  0.50000000  0.00000000  1
  O  O1  1  0.70010000  0.70010000  0.19982700  1
  O  O2  1  0.09958000  0.09958000  0.60213000  1
  O  O3  1  0.90042000  0.90042000  0.39787000  1
  O  O4  1  0.29990000  0.29990000  0.80017300  1
  O  O5  1  0.60213000  0.09958000  0.09958000  1
  O  O6  1  0.80017300  0.29990000  0.29990000  1
  O  O7  1  0.19982700  0.70010000  0.70010000  1
  O  O8  1  0.00000000  0.50000000  0.50000000  1
  O  O9  1  0.39787000  0.90042000  0.90042000  1
  O  O10  1  0.09958000  0.60213000  0.09958000  1
  O  O11  1  0.29990000  0.80017300  0.29990000  1
  O  O12  1  0.70010000  0.19982700  0.70010000  1
  O  O13  1  0.50000000  0.00000000  0.50000000  1
  O  O14  1  0.90042000  0.39787000  0.90042000  1
loop_
_geom_bond_atom_site_label_1
_geom_bond_atom_site_label_2
_geom_bond_distance
_geom_bond_site_symmetry_2
Ba0 O8 2.948275 1_555
Ba0 O13 2.948275 1_555
Ba0 O0 2.948275 1_555
Ba0 O3 2.952845 1_545
Ba0 O3 2.952845 1_455
Ba0 O14 2.952845 1_554
Ba0 O9 2.952845 1_554
Ba0 O9 2.952845 1_545
Ba0 O14 2.952845 1_455
Ba0 O11 2.956752 1_555
Ba0 O6 2.956752 1_555
Ba0 O4 2.956752 1_555
Ba1 O12 2.951928 1_565
Ba1 O7 2.951928 1_655
Ba1 O1 2.951928 1_556
Ba1 O4 2.952813 1_565
Ba1 O4 2.952813 1_655
Ba1 O11 2.952813 1_556
Ba1 O6 2.952813 1_556
Ba1 O6 2.952813 1_565
Ba1 O11 2.952813 1_655
Ba1 O14 2.970268 1_555
Ba1 O9 2.970268 1_555
Ba1 O3 2.970268 1_555
Ba2 O11 2.951928 1_545
Ba2 O6 2.951928 1_455
Ba2 O4 2.951928 1_554
Ba2 O1 2.952813 1_545
Ba2 O1 2.952813 1_455
Ba2 O12 2.952813 1_554
Ba2 O7 2.952813 1_554
Ba2 O12 2.952813 1_455
Ba2 O7 2.952813 1_545
Ba2 O10 2.970268 1_555
Ba2 O5 2.970268 1_555
Ba2 O2 2.970268 1_555
Ba3 O8 2.948275 1_655
Ba3 O13 2.948275 1_565
Ba3 O0 2.948275 1_556
Ba3 O2 2.952845 1_655
Ba3 O2 2.952845 1_565
Ba3 O5 2.952845 1_556
Ba3 O10 2.952845 1_556
Ba3 O5 2.952845 1_565
Ba3 O10 2.952845 1_655
Ba3 O7 2.956752 1_555
Ba3 O12 2.956752 1_555
Ba3 O1 2.956752 1_555
O0 Sn3 2.084819 1_554
O0 Sn0 2.084819 1_555
O0 Sr0 2.952813 1_565
O0 Sr0 2.952813 1_655
O1 Sn1 2.088748 1_555
O1 Sn2 2.090470 1_554
O2 Sn2 2.086102 1_445
O2 Sn0 2.088953 1_555
O2 Sr0 2.934663 1_556
O3 Sn4 2.086102 1_665
O3 Sn3 2.088953 1_555
O3 Sr0 2.934663 1_665
O4 Sn1 2.088748 1_555
O4 Sn4 2.090470 1_556
O5 Sn2 2.086102 1_544
O5 Sn0 2.088953 1_555
O5 Sr0 2.934663 1_655
O6 Sn1 2.088748 1_555
O6 Sn4 2.090470 1_655
O7 Sn1 2.088748 1_555
O7 Sn2 2.090470 1_455
O8 Sn3 2.084819 1_455
O8 Sn0 2.084819 1_555
O8 Sr0 2.952813 1_565
O8 Sr0 2.952813 1_556
O9 Sn4 2.086102 1_566
O9 Sn3 2.088953 1_555
O9 Sr0 2.934663 1_566
O10 Sn2 2.086102 1_454
O10 Sn0 2.088953 1_555
O10 Sr0 2.934663 1_565
O11 Sn1 2.088748 1_555
O11 Sn4 2.090470 1_565
O12 Sn1 2.088748 1_555
O12 Sn2 2.090470 1_545
O13 Sn3 2.084819 1_545
O13 Sn0 2.084819 1_555
O13 Sr0 2.952813 1_655
O13 Sr0 2.952813 1_556
O14 Sn4 2.086102 1_656
O14 Sn3 2.088953 1_555
O14 Sr0 2.934663 1_656
