# generated using pymatgen
data_K2AlSO4F3
_symmetry_space_group_name_H-M   'P 1'
_cell_length_a   6.82505741
_cell_length_b   8.30933606
_cell_length_c   10.80894183
_cell_angle_alpha   90.00000000
_cell_angle_beta   90.00000000
_cell_angle_gamma   90.00000000
_symmetry_Int_Tables_number   1
_chemical_formula_structural   K2AlSO4F3
_chemical_formula_sum   'K8 Al4 S4 O16 F12'
_cell_volume   612.99341935
_cell_formula_units_Z   4
loop_
 _symmetry_equiv_pos_site_id
 _symmetry_equiv_pos_as_xyz
  1  'x, y, z'
loop_
 _atom_site_type_symbol
 _atom_site_label
 _atom_site_symmetry_multiplicity
 _atom_site_fract_x
 _atom_site_fract_y
 _atom_site_fract_z
 _atom_site_occupancy
  K  K0  1  0.69868965  0.17911820  0.19677030  1
  K  K1  1  0.19868965  0.32088180  0.30322970  1
  K  K2  1  0.30131035  0.32088180  0.69677030  1
  K  K3  1  0.80131035  0.17911820  0.80322970  1
  K  K4  1  0.30131035  0.82088180  0.80322970  1
  K  K5  1  0.80131035  0.67911820  0.69677030  1
  K  K6  1  0.69868965  0.67911820  0.30322970  1
  K  K7  1  0.19868965  0.82088180  0.19677030  1
  Al  Al0  1  0.50000000  0.50000000  0.00000000  1
  Al  Al1  1  -0.00000000  -0.00000000  0.50000000  1
  Al  Al2  1  0.50000000  -0.00000000  0.50000000  1
  Al  Al3  1  -0.00000000  0.50000000  0.00000000  1
  S  S0  1  0.75000000  0.31050179  0.50000000  1
  S  S1  1  0.25000000  0.18949821  0.00000000  1
  S  S2  1  0.25000000  0.68949821  0.50000000  1
  S  S3  1  0.75000000  0.81050179  0.00000000  1
  O  O0  1  0.83067800  0.40531703  0.39961047  1
  O  O1  1  0.33067800  0.09468297  0.10038953  1
  O  O2  1  0.16932200  0.09468297  0.89961047  1
  O  O3  1  0.66932200  0.40531703  0.60038953  1
  O  O4  1  0.16932200  0.59468297  0.60038953  1
  O  O5  1  0.66932200  0.90531703  0.89961047  1
  O  O6  1  0.83067800  0.90531703  0.10038953  1
  O  O7  1  0.33067800  0.59468297  0.39961047  1
  O  O8  1  0.59376997  0.20342612  0.44649868  1
  O  O9  1  0.09376997  0.29657388  0.05350132  1
  O  O10  1  0.40623003  0.29657388  0.94649868  1
  O  O11  1  0.90623003  0.20342612  0.55350132  1
  O  O12  1  0.40623003  0.79657388  0.55350132  1
  O  O13  1  0.90623003  0.70342612  0.94649868  1
  O  O14  1  0.59376997  0.70342612  0.05350132  1
  O  O15  1  0.09376997  0.79657388  0.44649868  1
  F  F0  1  0.97600198  0.05437866  0.34272734  1
  F  F1  1  0.47600198  0.44562134  0.15727266  1
  F  F2  1  0.02399802  0.44562134  0.84272734  1
  F  F3  1  0.52399802  0.05437866  0.65727266  1
  F  F4  1  0.02399802  0.94562134  0.65727266  1
  F  F5  1  0.52399802  0.55437866  0.84272734  1
  F  F6  1  0.97600198  0.55437866  0.15727266  1
  F  F7  1  0.47600198  0.94562134  0.34272734  1
  F  F8  1  0.75000000  0.41418109  0.00000000  1
  F  F9  1  0.25000000  0.08581891  0.50000000  1
  F  F10  1  0.25000000  0.58581891  0.00000000  1
  F  F11  1  0.75000000  0.91418109  0.50000000  1
loop_
_geom_bond_atom_site_label_1
_geom_bond_atom_site_label_2
_geom_bond_distance
_geom_bond_site_symmetry_2
K0 O6 2.659491 1_545
K0 O8 2.799962 1_555
K0 O1 2.808234 1_555
K0 O0 3.025103 1_555
K0 O9 3.259060 1_655
K1 O7 2.659491 1_555
K1 O9 2.799962 1_555
K1 O0 2.808234 1_455
K1 O1 3.025103 1_555
K1 O8 3.259060 1_555
K2 O4 2.659491 1_555
K2 O10 2.799962 1_555
K2 O3 2.808234 1_555
K2 O2 3.025103 1_555
K2 O11 3.259060 1_455
K3 O5 2.659491 1_545
K3 O11 2.799962 1_555
K3 O2 2.808234 1_655
K3 O3 3.025103 1_555
K3 O10 3.259060 1_555
K4 O2 2.659491 1_565
K4 O12 2.799962 1_555
K4 O5 2.808234 1_555
K4 O4 3.025103 1_555
K4 O13 3.259060 1_455
K5 O3 2.659491 1_555
K5 O13 2.799962 1_555
K5 O4 2.808234 1_655
K5 O5 3.025103 1_555
K5 O12 3.259060 1_555
K6 O0 2.659491 1_555
K6 O14 2.799962 1_555
K6 O7 2.808234 1_555
K6 O6 3.025103 1_555
K6 O15 3.259060 1_655
K7 O1 2.659491 1_565
K7 O15 2.799962 1_555
K7 O6 2.808234 1_455
K7 O7 3.025103 1_555
K7 O14 3.259060 1_555
Al0 F5 1.766587 1_554
Al0 F1 1.766587 1_555
Al0 F10 1.849283 1_555
Al0 F8 1.849283 1_555
Al0 O10 1.897693 1_554
Al0 O14 1.897693 1_555
Al1 F4 1.766587 1_545
Al1 F0 1.766587 1_455
Al1 F11 1.849283 1_445
Al1 F9 1.849283 1_555
Al1 O11 1.897693 1_455
Al1 O15 1.897693 1_545
Al2 F3 1.766587 1_555
Al2 F7 1.766587 1_545
Al2 F11 1.849283 1_545
Al2 F9 1.849283 1_555
Al2 O12 1.897693 1_545
Al2 O8 1.897693 1_555
Al3 F2 1.766587 1_554
Al3 F6 1.766587 1_455
Al3 F8 1.849283 1_455
Al3 F10 1.849283 1_555
Al3 O9 1.897693 1_555
Al3 O13 1.897693 1_454
O0 S0 1.449606 1_555
O1 S1 1.449606 1_555
O2 S1 1.449606 1_556
O3 S0 1.449606 1_555
O4 S2 1.449606 1_555
O5 S3 1.449606 1_556
O6 S3 1.449606 1_555
O7 S2 1.449606 1_555
O8 S0 1.504323 1_555
O9 S1 1.504323 1_555
O10 S1 1.504323 1_556
O11 S0 1.504323 1_555
O12 S2 1.504323 1_555
O13 S3 1.504323 1_556
O14 S3 1.504323 1_555
O15 S2 1.504323 1_555
F0 K0 2.673107 1_555
F0 K1 2.719574 1_655
F0 K7 2.926313 1_645
F1 K1 2.673107 1_555
F1 K0 2.719574 1_555
F1 K6 2.926313 1_555
F2 K2 2.673107 1_555
F2 K3 2.719574 1_455
F2 K5 2.926313 1_455
F3 K3 2.673107 1_555
F3 K2 2.719574 1_555
F3 K4 2.926313 1_545
F4 K4 2.673107 1_555
F4 K5 2.719574 1_455
F4 K3 2.926313 1_465
F5 K5 2.673107 1_555
F5 K4 2.719574 1_555
F5 K2 2.926313 1_555
F6 K6 2.673107 1_555
F6 K7 2.719574 1_655
F6 K1 2.926313 1_655
F7 K7 2.673107 1_555
F7 K6 2.719574 1_555
F7 K0 2.926313 1_565
F8 K3 2.908832 1_554
F8 K0 2.908832 1_555
F9 K2 2.908832 1_555
F9 K1 2.908832 1_555
F10 K4 2.908832 1_554
F10 K7 2.908832 1_555
F11 K5 2.908832 1_555
F11 K6 2.908832 1_555
