# generated using pymatgen
data_K3P2H10O7
_symmetry_space_group_name_H-M   'P 1'
_cell_length_a   9.80025000
_cell_length_b   6.63639500
_cell_length_c   18.01363502
_cell_angle_alpha   88.07849702
_cell_angle_beta   90.00000000
_cell_angle_gamma   90.00000000
_symmetry_Int_Tables_number   1
_chemical_formula_structural   K3P2H10O7
_chemical_formula_sum   'K12 P8 H40 O28'
_cell_volume   1170.91796616
_cell_formula_units_Z   4
loop_
 _symmetry_equiv_pos_site_id
 _symmetry_equiv_pos_as_xyz
  1  'x, y, z'
loop_
 _atom_site_type_symbol
 _atom_site_label
 _atom_site_symmetry_multiplicity
 _atom_site_fract_x
 _atom_site_fract_y
 _atom_site_fract_z
 _atom_site_occupancy
  K  K0  1  0.64530800  0.40137400  0.11429400  1
  K  K1  1  0.35469200  0.59862600  0.88570600  1
  K  K2  1  0.14530800  0.59862600  0.38570600  1
  K  K3  1  0.85469200  0.40137400  0.61429400  1
  K  K4  1  0.98339600  0.32660400  0.20713600  1
  K  K5  1  0.01660400  0.67339600  0.79286400  1
  K  K6  1  0.48339600  0.67339600  0.29286400  1
  K  K7  1  0.51660400  0.32660400  0.70713600  1
  K  K8  1  0.38152800  0.83251200  0.56413900  1
  K  K9  1  0.61847200  0.16748800  0.43586100  1
  K  K10  1  0.88152800  0.16748800  0.93586100  1
  K  K11  1  0.11847200  0.83251200  0.06413900  1
  P  P0  1  0.81242900  0.86771000  0.15247700  1
  P  P1  1  0.18757100  0.13229000  0.84752300  1
  P  P2  1  0.31242900  0.13229000  0.34752300  1
  P  P3  1  0.68757100  0.86771000  0.65247700  1
  P  P4  1  0.86007300  0.83279100  0.31824500  1
  P  P5  1  0.13992700  0.16720900  0.68175500  1
  P  P6  1  0.36007300  0.16720900  0.18175500  1
  P  P7  1  0.63992700  0.83279100  0.81824500  1
  H  H0  1  0.66772100  0.28424800  0.27105800  1
  H  H1  1  0.33227900  0.71575200  0.72894200  1
  H  H2  1  0.16772100  0.71575200  0.22894200  1
  H  H3  1  0.83227900  0.28424800  0.77105800  1
  H  H4  1  0.87449700  0.54583700  0.00750500  1
  H  H5  1  0.12550300  0.45416300  0.99249500  1
  H  H6  1  0.37449700  0.45416300  0.49249500  1
  H  H7  1  0.62550300  0.54583700  0.50750500  1
  H  H8  1  0.84576200  0.53759200  0.42646500  1
  H  H9  1  0.15423800  0.46240800  0.57353500  1
  H  H10  1  0.34576200  0.46240800  0.07353500  1
  H  H11  1  0.65423800  0.53759200  0.92646500  1
  H  H12  1  0.64921700  0.73869100  0.42460300  1
  H  H13  1  0.35078300  0.26130900  0.57539700  1
  H  H14  1  0.14921700  0.26130900  0.07539700  1
  H  H15  1  0.85078300  0.73869100  0.92460300  1
  H  H16  1  0.73079100  0.50054300  0.28992400  1
  H  H17  1  0.26920900  0.49945700  0.71007600  1
  H  H18  1  0.23079100  0.49945700  0.21007600  1
  H  H19  1  0.76920900  0.50054300  0.78992400  1
  H  H20  1  0.62959400  0.65537300  0.46235100  1
  H  H21  1  0.37040600  0.34462700  0.53764900  1
  H  H22  1  0.12959400  0.34462700  0.03764900  1
  H  H23  1  0.87040600  0.65537300  0.96235100  1
  H  H24  1  0.39530700  0.71654500  0.05487000  1
  H  H25  1  0.60469300  0.28345500  0.94513000  1
  H  H26  1  0.89530700  0.28345500  0.44513000  1
  H  H27  1  0.10469300  0.71654500  0.55487000  1
  H  H28  1  0.41580900  0.82635000  0.05975800  1
  H  H29  1  0.58419100  0.17365000  0.94024200  1
  H  H30  1  0.91580900  0.17365000  0.44024200  1
  H  H31  1  0.08419100  0.82635000  0.55975800  1
  H  H32  1  0.14806000  0.82647800  0.23546000  1
  H  H33  1  0.85194000  0.17352200  0.76454000  1
  H  H34  1  0.64806000  0.17352200  0.26454000  1
  H  H35  1  0.35194000  0.82647800  0.73546000  1
  H  H36  1  0.58238000  0.92531800  0.15592500  1
  H  H37  1  0.41762000  0.07468200  0.84407500  1
  H  H38  1  0.08238000  0.07468200  0.34407500  1
  H  H39  1  0.91762000  0.92531800  0.65592500  1
  O  O0  1  0.88653800  0.67771100  0.13198400  1
  O  O1  1  0.11346200  0.32228900  0.86801600  1
  O  O2  1  0.38653800  0.32228900  0.36801600  1
  O  O3  1  0.61346200  0.67771100  0.63198400  1
  O  O4  1  0.88862400  0.60479000  0.31176500  1
  O  O5  1  0.11137600  0.39521000  0.68823500  1
  O  O6  1  0.38862400  0.39521000  0.18823500  1
  O  O7  1  0.61137600  0.60479000  0.81176500  1
  O  O8  1  0.65569800  0.80957800  0.16494700  1
  O  O9  1  0.34430200  0.19042200  0.83505300  1
  O  O10  1  0.15569800  0.19042200  0.33505300  1
  O  O11  1  0.84430200  0.80957800  0.66494700  1
  O  O12  1  0.33127300  0.94443500  0.39704500  1
  O  O13  1  0.66872700  0.05556500  0.60295500  1
  O  O14  1  0.83127300  0.05556500  0.10295500  1
  O  O15  1  0.16872700  0.94443500  0.89704500  1
  O  O16  1  0.97782500  0.93082700  0.35988600  1
  O  O17  1  0.02217500  0.06917300  0.64011400  1
  O  O18  1  0.47782500  0.06917300  0.14011400  1
  O  O19  1  0.52217500  0.93082700  0.85988600  1
  O  O20  1  0.86854200  0.93724500  0.23354900  1
  O  O21  1  0.13145800  0.06275500  0.76645100  1
  O  O22  1  0.36854200  0.06275500  0.26645100  1
  O  O23  1  0.63145800  0.93724500  0.73354900  1
  O  O24  1  0.71790800  0.88493300  0.34701100  1
  O  O25  1  0.28209200  0.11506700  0.65298900  1
  O  O26  1  0.21790800  0.11506700  0.15298900  1
  O  O27  1  0.78209200  0.88493300  0.84701100  1
loop_
_geom_bond_atom_site_label_1
_geom_bond_atom_site_label_2
_geom_bond_distance
_geom_bond_site_symmetry_2
K0 O18 2.775250 1_555
K0 O6 2.846081 1_555
K0 O8 2.889184 1_555
K0 O14 2.943018 1_555
K0 O0 3.015442 1_555
K1 O19 2.775250 1_555
K1 O7 2.846081 1_555
K1 O9 2.889184 1_555
K1 O15 2.943018 1_555
K1 O1 3.015442 1_555
K2 O16 2.775250 1_455
K2 O4 2.846081 1_455
K2 O10 2.889184 1_555
K2 O12 2.943018 1_555
K2 O2 3.015442 1_555
K3 O17 2.775250 1_655
K3 O5 2.846081 1_655
K3 O11 2.889184 1_555
K3 O13 2.943018 1_555
K3 O3 3.015442 1_555
K4 O0 2.819835 1_555
K4 O4 2.838405 1_555
K4 O20 2.843880 1_545
K4 O26 2.880286 1_655
K4 O10 2.972890 1_655
K4 O14 3.034190 1_555
K5 O1 2.819835 1_555
K5 O5 2.838405 1_555
K5 O21 2.843880 1_565
K5 O27 2.880286 1_455
K5 O11 2.972890 1_455
K5 O15 3.034190 1_555
K6 O2 2.819835 1_555
K6 O6 2.838405 1_555
K6 O22 2.843880 1_565
K6 O24 2.880286 1_555
K6 O8 2.972890 1_555
K6 O12 3.034190 1_555
K7 O3 2.819835 1_555
K7 O7 2.838405 1_555
K7 O23 2.843880 1_545
K7 O25 2.880286 1_555
K7 O9 2.972890 1_555
K7 O13 3.034190 1_555
K8 O25 2.688628 1_565
K8 O3 2.762496 1_555
K8 O12 3.115166 1_555
K8 O13 3.266742 1_565
K9 O24 2.688628 1_545
K9 O2 2.762496 1_555
K9 O13 3.115166 1_555
K9 O12 3.266742 1_545
K10 O27 2.688628 1_545
K10 O1 2.762496 1_655
K10 O14 3.115166 1_556
K10 O15 3.266742 1_645
K11 O26 2.688628 1_565
K11 O0 2.762496 1_455
K11 O15 3.115166 1_554
K11 O14 3.266742 1_465
H0 H34 0.772438 1_555
H0 K0 2.911973 1_555
H1 H35 0.772438 1_555
H1 K1 2.911973 1_555
H2 H32 0.772438 1_555
H2 K2 2.911973 1_555
H3 H33 0.772438 1_555
H3 K3 2.911973 1_555
H4 K10 2.862186 1_554
H5 K11 2.862186 1_556
H6 K8 2.862186 1_555
H7 K9 2.862186 1_555
H12 H20 0.883105 1_555
H12 K9 2.875488 1_565
H12 K6 2.920485 1_555
H13 H21 0.883105 1_555
H13 K8 2.875488 1_545
H13 K7 2.920485 1_555
H14 H22 0.883105 1_555
H14 K11 2.875488 1_545
H14 K4 2.920485 1_455
H15 H23 0.883105 1_555
H15 K10 2.875488 1_565
H15 K5 2.920485 1_655
H16 K6 2.683491 1_555
H17 K7 2.683491 1_555
H18 K4 2.683491 1_455
H19 K5 2.683491 1_655
H20 H7 1.073301 1_555
H21 H6 1.073301 1_555
H22 H5 1.073301 1_554
H23 H4 1.073301 1_556
H24 H28 0.763835 1_555
H24 K11 2.826559 1_555
H25 H29 0.763835 1_555
H25 K10 2.826559 1_555
H26 H30 0.763835 1_555
H26 K9 2.826559 1_555
H27 H31 0.763835 1_555
H27 K8 2.826559 1_555
H28 K11 2.915369 1_555
H29 K10 2.915369 1_555
H30 K9 2.915369 1_555
H31 K8 2.915369 1_555
H36 O8 1.060333 1_555
H36 O18 1.422756 1_565
H37 O9 1.060333 1_555
H37 O19 1.422756 1_545
H38 O10 1.060333 1_555
H38 O16 1.422756 1_445
H39 O11 1.060333 1_555
H39 O17 1.422756 1_665
O0 P0 1.511579 1_555
O1 P1 1.511579 1_555
O2 P2 1.511579 1_555
O3 P3 1.511579 1_555
O4 P4 1.547012 1_555
O5 P5 1.547012 1_555
O6 P6 1.547012 1_555
O7 P7 1.547012 1_555
O8 P0 1.597743 1_555
O9 P1 1.597743 1_555
O10 P2 1.597743 1_555
O11 P3 1.597743 1_555
O12 P2 1.519713 1_565
O13 P3 1.519713 1_545
O14 P0 1.519713 1_545
O15 P1 1.519713 1_565
O16 P4 1.533097 1_555
O17 P5 1.533097 1_555
O18 P6 1.533097 1_555
O19 P7 1.533097 1_555
O20 P0 1.641136 1_555
O20 P4 1.656562 1_555
O21 P1 1.641136 1_555
O21 P5 1.656562 1_555
O22 P2 1.641136 1_555
O22 P6 1.656562 1_555
O23 P3 1.641136 1_555
O23 P7 1.656562 1_555
O24 P4 1.530173 1_555
O25 P5 1.530173 1_555
O26 P6 1.530173 1_555
O27 P7 1.530173 1_555
