# generated using pymatgen
data_Mg6ZrNi
_symmetry_space_group_name_H-M   'P 1'
_cell_length_a   4.87918700
_cell_length_b   5.88491100
_cell_length_c   11.37276400
_cell_angle_alpha   90.00000000
_cell_angle_beta   90.00000000
_cell_angle_gamma   90.00000000
_symmetry_Int_Tables_number   1
_chemical_formula_structural   Mg6ZrNi
_chemical_formula_sum   'Mg12 Zr2 Ni2'
_cell_volume   326.55278312
_cell_formula_units_Z   2
loop_
 _symmetry_equiv_pos_site_id
 _symmetry_equiv_pos_as_xyz
  1  'x, y, z'
loop_
 _atom_site_type_symbol
 _atom_site_label
 _atom_site_symmetry_multiplicity
 _atom_site_fract_x
 _atom_site_fract_y
 _atom_site_fract_z
 _atom_site_occupancy
  Mg  Mg0  1  0.50000000  0.74599800  0.93117000  1
  Mg  Mg1  1  0.50000000  0.25400200  0.93117000  1
  Mg  Mg2  1  0.00000000  0.24734800  0.58236400  1
  Mg  Mg3  1  0.00000000  0.75265200  0.58236400  1
  Mg  Mg4  1  0.00000000  0.50000000  0.83416600  1
  Mg  Mg5  1  0.00000000  0.00000000  0.80466300  1
  Mg  Mg6  1  0.50000000  0.24599800  0.43117000  1
  Mg  Mg7  1  0.50000000  0.75400200  0.43117000  1
  Mg  Mg8  1  0.00000000  0.74734800  0.08236400  1
  Mg  Mg9  1  0.00000000  0.25265200  0.08236400  1
  Mg  Mg10  1  0.00000000  0.00000000  0.33416600  1
  Mg  Mg11  1  0.00000000  0.50000000  0.30466300  1
  Zr  Zr0  1  0.50000000  0.50000000  0.68291400  1
  Zr  Zr1  1  0.50000000  0.00000000  0.18291400  1
  Ni  Ni0  1  0.50000000  0.00000000  0.65118600  1
  Ni  Ni1  1  0.50000000  0.50000000  0.15118600  1
loop_
_geom_bond_atom_site_label_1
_geom_bond_atom_site_label_2
_geom_bond_distance
_geom_bond_site_symmetry_2
Mg0 Ni1 2.890800 1_556
Mg0 Mg4 3.043754 1_555
Mg0 Mg4 3.043754 1_655
Mg0 Zr0 3.172871 1_555
Mg0 Zr1 3.229749 1_566
Mg1 Ni1 2.890800 1_556
Mg1 Mg4 3.043754 1_655
Mg1 Mg4 3.043754 1_555
Mg1 Zr0 3.172871 1_555
Mg1 Zr1 3.229749 1_556
Mg2 Ni0 2.946704 1_555
Mg2 Ni0 2.946704 1_455
Mg2 Zr0 3.077330 1_555
Mg2 Zr0 3.077330 1_455
Mg2 Mg4 3.226665 1_555
Mg3 Ni0 2.946704 1_565
Mg3 Ni0 2.946704 1_465
Mg3 Zr0 3.077330 1_555
Mg3 Zr0 3.077330 1_455
Mg3 Mg4 3.226665 1_555
Mg4 Mg5 2.961524 1_555
Mg4 Mg5 2.961524 1_565
Mg4 Zr0 2.985053 1_455
Mg4 Zr0 2.985053 1_555
Mg4 Mg8 3.175918 1_556
Mg4 Mg9 3.175918 1_556
Mg5 Ni0 2.999706 1_455
Mg5 Ni0 2.999706 1_555
Mg6 Ni0 2.890800 1_555
Mg6 Zr1 3.172871 1_555
Mg6 Zr0 3.229749 1_555
Mg7 Ni0 2.890800 1_565
Mg7 Zr1 3.172871 1_565
Mg7 Zr0 3.229749 1_555
Mg8 Ni1 2.946704 1_555
Mg8 Ni1 2.946704 1_455
Mg8 Zr1 3.077330 1_565
Mg8 Zr1 3.077330 1_465
Mg9 Ni1 2.946704 1_555
Mg9 Ni1 2.946704 1_455
Mg9 Zr1 3.077330 1_555
Mg9 Zr1 3.077330 1_455
Mg10 Mg11 2.961524 1_555
Mg10 Mg11 2.961524 1_545
Mg10 Zr1 2.985053 1_455
Mg10 Zr1 2.985053 1_555
Mg10 Mg6 3.043754 1_455
Mg10 Mg6 3.043754 1_555
Mg10 Mg7 3.043754 1_545
Mg10 Mg7 3.043754 1_445
Mg10 Mg2 3.175918 1_555
Mg10 Mg3 3.175918 1_545
Mg10 Mg8 3.226665 1_545
Mg10 Mg9 3.226665 1_555
Mg11 Ni1 2.999706 1_555
Mg11 Ni1 2.999706 1_455
Ni0 Zr0 2.964498 1_545
Ni0 Zr0 2.964498 1_555
Ni1 Zr1 2.964498 1_565
Ni1 Zr1 2.964498 1_555
