# generated using pymatgen
data_Mg14MnBO16
_symmetry_space_group_name_H-M   'P 1'
_cell_length_a   4.24300100
_cell_length_b   8.48502600
_cell_length_c   8.56609300
_cell_angle_alpha   90.00000000
_cell_angle_beta   90.00000000
_cell_angle_gamma   90.00000000
_symmetry_Int_Tables_number   1
_chemical_formula_structural   Mg14MnBO16
_chemical_formula_sum   'Mg14 Mn1 B1 O16'
_cell_volume   308.39625578
_cell_formula_units_Z   1
loop_
 _symmetry_equiv_pos_site_id
 _symmetry_equiv_pos_as_xyz
  1  'x, y, z'
loop_
 _atom_site_type_symbol
 _atom_site_label
 _atom_site_symmetry_multiplicity
 _atom_site_fract_x
 _atom_site_fract_y
 _atom_site_fract_z
 _atom_site_occupancy
  Mg  Mg0  1  0.00000000  0.00000000  0.50000000  1
  Mg  Mg1  1  0.00000000  0.50000000  0.50000000  1
  Mg  Mg2  1  0.50000000  0.74297700  0.00000000  1
  Mg  Mg3  1  0.50000000  0.25702300  0.00000000  1
  Mg  Mg4  1  0.50000000  0.74881600  0.50000000  1
  Mg  Mg5  1  0.50000000  0.25118400  0.50000000  1
  Mg  Mg6  1  0.50000000  0.00000000  0.74791300  1
  Mg  Mg7  1  0.50000000  0.50000000  0.75361100  1
  Mg  Mg8  1  0.50000000  0.00000000  0.25208700  1
  Mg  Mg9  1  0.50000000  0.50000000  0.24638900  1
  Mg  Mg10  1  0.00000000  0.74597300  0.75061800  1
  Mg  Mg11  1  0.00000000  0.25402700  0.75061800  1
  Mg  Mg12  1  0.00000000  0.74597300  0.24938200  1
  Mg  Mg13  1  0.00000000  0.25402700  0.24938200  1
  Mn  Mn0  1  0.00000000  0.00000000  0.00000000  1
  B  B0  1  0.00000000  0.50000000  0.00000000  1
  O  O0  1  0.00000000  0.00000000  0.74442500  1
  O  O1  1  0.00000000  0.50000000  0.74931900  1
  O  O2  1  0.00000000  0.00000000  0.25557500  1
  O  O3  1  0.00000000  0.50000000  0.25068100  1
  O  O4  1  0.50000000  0.74991000  0.75173100  1
  O  O5  1  0.50000000  0.25009000  0.75173100  1
  O  O6  1  0.50000000  0.74991000  0.24826900  1
  O  O7  1  0.50000000  0.25009000  0.24826900  1
  O  O8  1  0.50000000  0.00000000  0.00000000  1
  O  O9  1  0.50000000  0.50000000  0.00000000  1
  O  O10  1  0.50000000  0.00000000  0.50000000  1
  O  O11  1  0.50000000  0.50000000  0.50000000  1
  O  O12  1  0.00000000  0.73377700  0.00000000  1
  O  O13  1  0.00000000  0.26622300  0.00000000  1
  O  O14  1  0.00000000  0.74860400  0.50000000  1
  O  O15  1  0.00000000  0.25139600  0.50000000  1
loop_
_geom_bond_atom_site_label_1
_geom_bond_atom_site_label_2
_geom_bond_distance
_geom_bond_site_symmetry_2
Mg0 O0 2.093767 1_555
Mg0 O2 2.093767 1_555
Mg0 O10 2.121500 1_455
Mg0 O10 2.121500 1_555
Mg0 O15 2.133102 1_555
Mg0 O14 2.133102 1_545
Mg1 O14 2.109411 1_555
Mg1 O15 2.109411 1_555
Mg1 O11 2.121500 1_455
Mg1 O11 2.121500 1_555
Mg1 O1 2.135690 1_555
Mg1 O3 2.135690 1_555
Mg2 O9 2.061666 1_555
Mg2 O12 2.122936 1_655
Mg2 O12 2.122936 1_555
Mg2 O6 2.127509 1_555
Mg2 O4 2.127509 1_554
Mg2 O8 2.180847 1_565
Mg3 O9 2.061666 1_555
Mg3 O13 2.122936 1_555
Mg3 O13 2.122936 1_655
Mg3 O7 2.127509 1_555
Mg3 O5 2.127509 1_554
Mg3 O8 2.180847 1_555
Mg4 O11 2.111210 1_555
Mg4 O14 2.121501 1_555
Mg4 O14 2.121501 1_655
Mg4 O10 2.131303 1_565
Mg4 O4 2.156371 1_555
Mg4 O6 2.156371 1_555
Mg5 O11 2.111210 1_555
Mg5 O15 2.121501 1_555
Mg5 O15 2.121501 1_655
Mg5 O10 2.131303 1_555
Mg5 O5 2.156371 1_555
Mg5 O7 2.156371 1_555
Mg6 O0 2.121711 1_555
Mg6 O0 2.121711 1_655
Mg6 O4 2.122272 1_545
Mg6 O5 2.122272 1_555
Mg6 O10 2.123646 1_555
Mg6 O8 2.159401 1_556
Mg7 O9 2.110591 1_556
Mg7 O5 2.120554 1_555
Mg7 O4 2.120554 1_555
Mg7 O1 2.121819 1_655
Mg7 O1 2.121819 1_555
Mg7 O11 2.172455 1_555
Mg8 O2 2.121711 1_555
Mg8 O2 2.121711 1_655
Mg8 O6 2.122272 1_545
Mg8 O7 2.122272 1_555
Mg8 O10 2.123646 1_555
Mg8 O8 2.159401 1_555
Mg9 O9 2.110591 1_555
Mg9 O7 2.120554 1_555
Mg9 O6 2.120554 1_555
Mg9 O3 2.121819 1_655
Mg9 O3 2.121819 1_555
Mg9 O11 2.172455 1_555
Mg10 O1 2.087117 1_555
Mg10 O4 2.121785 1_555
Mg10 O4 2.121785 1_455
Mg10 O12 2.138734 1_556
Mg10 O14 2.146933 1_555
Mg10 O0 2.156078 1_565
Mg11 O1 2.087117 1_555
Mg11 O5 2.121785 1_455
Mg11 O5 2.121785 1_555
Mg11 O13 2.138734 1_556
Mg11 O15 2.146933 1_555
Mg11 O0 2.156078 1_555
Mg12 O3 2.087117 1_555
Mg12 O6 2.121785 1_455
Mg12 O6 2.121785 1_555
Mg12 O12 2.138734 1_555
Mg12 O14 2.146933 1_555
Mg12 O2 2.156078 1_565
Mg13 O3 2.087117 1_555
Mg13 O7 2.121785 1_555
Mg13 O7 2.121785 1_455
Mg13 O13 2.138734 1_555
Mg13 O15 2.146933 1_555
Mg13 O2 2.156078 1_555
Mn0 O8 2.121500 1_555
Mn0 O8 2.121500 1_455
Mn0 O0 2.189279 1_554
Mn0 O2 2.189279 1_555
Mn0 O12 2.258909 1_545
Mn0 O13 2.258909 1_555
B0 O12 1.983604 1_555
B0 O13 1.983604 1_555
B0 O9 2.121500 1_555
B0 O9 2.121500 1_455
B0 O3 2.147357 1_555
B0 O1 2.147357 1_554
