# generated using pymatgen
data_Pt2W
_symmetry_space_group_name_H-M   'P 1'
_cell_length_a   5.54546500
_cell_length_b   7.92881196
_cell_length_c   9.61264602
_cell_angle_alpha   65.64330510
_cell_angle_beta   73.23502430
_cell_angle_gamma   90.00000000
_symmetry_Int_Tables_number   1
_chemical_formula_structural   Pt2W
_chemical_formula_sum   'Pt16 W8'
_cell_volume   365.22920271
_cell_formula_units_Z   8
loop_
 _symmetry_equiv_pos_site_id
 _symmetry_equiv_pos_as_xyz
  1  'x, y, z'
loop_
 _atom_site_type_symbol
 _atom_site_label
 _atom_site_symmetry_multiplicity
 _atom_site_fract_x
 _atom_site_fract_y
 _atom_site_fract_z
 _atom_site_occupancy
  Pt  Pt0_0  1  0.16838765  0.16838765  0.16322470  1
  Pt  Pt0_1  1  0.16838766  0.16838766  0.66322469  1
  Pt  Pt0_2  1  0.16838765  0.66838765  0.16322469  1
  Pt  Pt0_3  1  0.16838765  0.66838766  0.66322470  1
  Pt  Pt0_4  1  0.66838766  0.16838765  0.16322470  1
  Pt  Pt0_5  1  0.66838766  0.16838766  0.66322469  1
  Pt  Pt0_6  1  0.66838766  0.66838765  0.16322469  1
  Pt  Pt0_7  1  0.66838766  0.66838766  0.66322470  1
  Pt  Pt1_0  1  0.33161234  0.33161235  0.33677531  1
  Pt  Pt1_1  1  0.33161234  0.33161235  0.83677530  1
  Pt  Pt1_2  1  0.33161234  0.83161234  0.33677531  1
  Pt  Pt1_3  1  0.33161234  0.83161235  0.83677530  1
  Pt  Pt1_4  1  0.83161234  0.33161235  0.33677531  1
  Pt  Pt1_5  1  0.83161235  0.33161235  0.83677530  1
  Pt  Pt1_6  1  0.83161234  0.83161234  0.33677531  1
  Pt  Pt1_7  1  0.83161235  0.83161235  0.83677530  1
  W  W0_0  1  0.00000000  0.00000000  0.00000000  1
  W  W0_1  1  0.00000000  0.00000000  0.50000000  1
  W  W0_2  1  0.00000000  0.50000000  0.00000000  1
  W  W0_3  1  0.00000000  0.50000000  0.50000000  1
  W  W0_4  1  0.50000000  0.00000000  0.00000000  1
  W  W0_5  1  0.50000000  0.00000000  0.50000000  1
  W  W0_6  1  0.50000000  0.50000000  0.00000000  1
  W  W0_7  1  0.50000000  0.50000000  0.50000000  1
loop_
_geom_bond_atom_site_label_1
_geom_bond_atom_site_label_2
_geom_bond_distance
_geom_bond_site_symmetry_2
Pt0_0 Pt1_1 2.711660 1_554
Pt0_0 Pt0_4 2.772732 1_455
Pt0_0 Pt0_4 2.772733 1_555
Pt0_0 W0_6 2.772979 1_555
Pt0_0 W0_2 2.772979 1_555
Pt0_0 W0_4 2.772980 1_555
Pt0_0 W0_0 2.772980 1_555
Pt0_0 W0_1 2.797433 1_555
Pt0_0 Pt1_6 2.815911 1_445
Pt0_0 Pt1_2 2.815911 1_545
Pt0_0 Pt1_4 2.815912 1_455
Pt0_0 Pt1_0 2.815912 1_555
Pt0_1 Pt1_0 2.711660 1_555
Pt0_1 Pt0_5 2.772732 1_455
Pt0_1 Pt0_5 2.772733 1_555
Pt0_1 W0_7 2.772979 1_555
Pt0_1 W0_3 2.772979 1_555
Pt0_1 W0_5 2.772980 1_555
Pt0_1 W0_1 2.772980 1_555
Pt0_1 W0_0 2.797433 1_556
Pt0_1 Pt1_7 2.815911 1_445
Pt0_1 Pt1_3 2.815911 1_545
Pt0_1 Pt1_5 2.815912 1_455
Pt0_1 Pt1_1 2.815912 1_555
Pt0_2 Pt1_3 2.711660 1_554
Pt0_2 Pt0_6 2.772732 1_455
Pt0_2 Pt0_6 2.772733 1_555
Pt0_2 W0_4 2.772979 1_565
Pt0_2 W0_0 2.772979 1_565
Pt0_2 W0_6 2.772980 1_555
Pt0_2 W0_2 2.772980 1_555
Pt0_2 W0_3 2.797433 1_555
Pt0_2 Pt1_4 2.815911 1_455
Pt0_2 Pt1_0 2.815911 1_555
Pt0_2 Pt1_6 2.815912 1_455
Pt0_2 Pt1_2 2.815912 1_555
Pt0_3 Pt1_2 2.711660 1_555
Pt0_3 Pt0_7 2.772732 1_455
Pt0_3 Pt0_7 2.772733 1_555
Pt0_3 W0_5 2.772979 1_565
Pt0_3 W0_1 2.772979 1_565
Pt0_3 W0_7 2.772980 1_555
Pt0_3 W0_3 2.772980 1_555
Pt0_3 W0_2 2.797433 1_556
Pt0_3 Pt1_5 2.815911 1_455
Pt0_3 Pt1_1 2.815911 1_555
Pt0_3 Pt1_7 2.815912 1_455
Pt0_3 Pt1_3 2.815912 1_555
Pt0_4 Pt1_5 2.711660 1_554
Pt0_4 W0_2 2.772979 1_655
Pt0_4 W0_6 2.772979 1_555
Pt0_4 W0_0 2.772980 1_655
Pt0_4 W0_4 2.772980 1_555
Pt0_4 W0_5 2.797433 1_555
Pt0_4 Pt1_2 2.815911 1_545
Pt0_4 Pt1_6 2.815911 1_545
Pt0_4 Pt1_0 2.815912 1_555
Pt0_4 Pt1_4 2.815912 1_555
Pt0_5 Pt1_4 2.711660 1_555
Pt0_5 W0_3 2.772979 1_655
Pt0_5 W0_7 2.772979 1_555
Pt0_5 W0_1 2.772980 1_655
Pt0_5 W0_5 2.772980 1_555
Pt0_5 W0_4 2.797433 1_556
Pt0_5 Pt1_3 2.815911 1_545
Pt0_5 Pt1_7 2.815911 1_545
Pt0_5 Pt1_1 2.815912 1_555
Pt0_5 Pt1_5 2.815912 1_555
Pt0_6 Pt1_7 2.711660 1_554
Pt0_6 W0_0 2.772979 1_665
Pt0_6 W0_4 2.772979 1_565
Pt0_6 W0_2 2.772980 1_655
Pt0_6 W0_6 2.772980 1_555
Pt0_6 W0_7 2.797433 1_555
Pt0_6 Pt1_0 2.815911 1_555
Pt0_6 Pt1_4 2.815911 1_555
Pt0_6 Pt1_2 2.815912 1_555
Pt0_6 Pt1_6 2.815912 1_555
Pt0_7 Pt1_6 2.711660 1_555
Pt0_7 W0_1 2.772979 1_665
Pt0_7 W0_5 2.772979 1_565
Pt0_7 W0_3 2.772980 1_655
Pt0_7 W0_7 2.772980 1_555
Pt0_7 W0_6 2.797433 1_556
Pt0_7 Pt1_1 2.815911 1_555
Pt0_7 Pt1_5 2.815911 1_555
Pt0_7 Pt1_3 2.815912 1_555
Pt0_7 Pt1_7 2.815912 1_555
Pt1_0 Pt1_4 2.772732 1_555
Pt1_0 Pt1_4 2.772733 1_455
Pt1_0 W0_1 2.772979 1_555
Pt1_0 W0_5 2.772979 1_555
Pt1_0 W0_3 2.772980 1_555
Pt1_0 W0_7 2.772980 1_555
Pt1_0 W0_6 2.797433 1_555
Pt1_1 Pt1_5 2.772732 1_455
Pt1_1 Pt1_5 2.772733 1_555
Pt1_1 W0_0 2.772979 1_556
Pt1_1 W0_4 2.772979 1_556
Pt1_1 W0_2 2.772980 1_556
Pt1_1 W0_6 2.772980 1_556
Pt1_1 W0_7 2.797433 1_555
Pt1_2 Pt1_6 2.772732 1_555
Pt1_2 Pt1_6 2.772733 1_455
Pt1_2 W0_3 2.772979 1_555
Pt1_2 W0_7 2.772979 1_555
Pt1_2 W0_1 2.772980 1_565
Pt1_2 W0_5 2.772980 1_565
Pt1_2 W0_4 2.797433 1_565
Pt1_3 Pt1_7 2.772732 1_455
Pt1_3 Pt1_7 2.772733 1_555
Pt1_3 W0_2 2.772979 1_556
Pt1_3 W0_6 2.772979 1_556
Pt1_3 W0_0 2.772980 1_566
Pt1_3 W0_4 2.772980 1_566
Pt1_3 W0_5 2.797433 1_565
Pt1_4 W0_5 2.772979 1_555
Pt1_4 W0_1 2.772979 1_655
Pt1_4 W0_7 2.772980 1_555
Pt1_4 W0_3 2.772980 1_655
Pt1_4 W0_2 2.797433 1_655
Pt1_5 W0_4 2.772979 1_556
Pt1_5 W0_0 2.772979 1_656
Pt1_5 W0_6 2.772980 1_556
Pt1_5 W0_2 2.772980 1_656
Pt1_5 W0_3 2.797433 1_655
Pt1_6 W0_7 2.772979 1_555
Pt1_6 W0_3 2.772979 1_655
Pt1_6 W0_5 2.772980 1_565
Pt1_6 W0_1 2.772980 1_665
Pt1_6 W0_0 2.797433 1_665
Pt1_7 W0_6 2.772979 1_556
Pt1_7 W0_2 2.772979 1_656
Pt1_7 W0_4 2.772980 1_566
Pt1_7 W0_0 2.772980 1_666
Pt1_7 W0_1 2.797433 1_665
W0_0 W0_4 2.772733 1_555
W0_0 W0_4 2.772733 1_455
W0_1 W0_5 2.772733 1_555
W0_1 W0_5 2.772733 1_455
W0_2 W0_6 2.772733 1_455
W0_2 W0_6 2.772733 1_555
W0_3 W0_7 2.772733 1_555
W0_3 W0_7 2.772733 1_455
