# generated using pymatgen
data_P2H16PbC6(NO3)2
_symmetry_space_group_name_H-M   'P 1'
_cell_length_a   8.57471400
_cell_length_b   8.57471400
_cell_length_c   21.87707900
_cell_angle_alpha   90.00000000
_cell_angle_beta   90.00000000
_cell_angle_gamma   90.00000000
_symmetry_Int_Tables_number   1
_chemical_formula_structural   P2H16PbC6(NO3)2
_chemical_formula_sum   'P8 H64 Pb4 C24 N8 O24'
_cell_volume   1608.52798895
_cell_formula_units_Z   4
loop_
 _symmetry_equiv_pos_site_id
 _symmetry_equiv_pos_as_xyz
  1  'x, y, z'
loop_
 _atom_site_type_symbol
 _atom_site_label
 _atom_site_symmetry_multiplicity
 _atom_site_fract_x
 _atom_site_fract_y
 _atom_site_fract_z
 _atom_site_occupancy
  P  P0  1  0.84052600  0.90016200  0.78162100  1
  P  P1  1  0.15947400  0.09983800  0.28162100  1
  P  P2  1  0.40016200  0.65947400  0.53162100  1
  P  P3  1  0.59983800  0.34052600  0.03162100  1
  P  P4  1  0.09983800  0.15947400  0.71837900  1
  P  P5  1  0.90016200  0.84052600  0.21837900  1
  P  P6  1  0.65947400  0.40016200  0.46837900  1
  P  P7  1  0.34052600  0.59983800  0.96837900  1
  H  H0  1  0.58585600  0.78963300  0.77343400  1
  H  H1  1  0.41414400  0.21036700  0.27343400  1
  H  H2  1  0.28963300  0.91414400  0.52343400  1
  H  H3  1  0.71036700  0.08585600  0.02343400  1
  H  H4  1  0.21036700  0.41414400  0.72656600  1
  H  H5  1  0.78963300  0.58585600  0.22656600  1
  H  H6  1  0.91414400  0.28963300  0.47656600  1
  H  H7  1  0.08585600  0.71036700  0.97656600  1
  H  H8  1  0.73220600  0.63861800  0.77328500  1
  H  H9  1  0.26779400  0.36138200  0.27328500  1
  H  H10  1  0.13861800  0.76779400  0.52328500  1
  H  H11  1  0.86138200  0.23220600  0.02328500  1
  H  H12  1  0.36138200  0.26779400  0.72671500  1
  H  H13  1  0.63861800  0.73220600  0.22671500  1
  H  H14  1  0.76779400  0.13861800  0.47671500  1
  H  H15  1  0.23220600  0.86138200  0.97671500  1
  H  H16  1  0.69633800  0.75004500  0.70575700  1
  H  H17  1  0.30366200  0.24995500  0.20575700  1
  H  H18  1  0.25004500  0.80366200  0.45575700  1
  H  H19  1  0.74995500  0.19633800  0.95575700  1
  H  H20  1  0.24995500  0.30366200  0.79424300  1
  H  H21  1  0.75004500  0.69633800  0.29424300  1
  H  H22  1  0.80366200  0.25004500  0.54424300  1
  H  H23  1  0.19633800  0.74995500  0.04424300  1
  H  H24  1  0.89484300  0.73420600  0.86881300  1
  H  H25  1  0.10515700  0.26579400  0.36881300  1
  H  H26  1  0.23420600  0.60515700  0.61881300  1
  H  H27  1  0.76579400  0.39484300  0.11881300  1
  H  H28  1  0.26579400  0.10515700  0.63118700  1
  H  H29  1  0.73420600  0.89484300  0.13118700  1
  H  H30  1  0.60515700  0.23420600  0.38118700  1
  H  H31  1  0.39484300  0.76579400  0.88118700  1
  H  H32  1  0.74935000  0.88029200  0.88491000  1
  H  H33  1  0.25065000  0.11970800  0.38491000  1
  H  H34  1  0.38029200  0.75065000  0.63491000  1
  H  H35  1  0.61970800  0.24935000  0.13491000  1
  H  H36  1  0.11970800  0.25065000  0.61509000  1
  H  H37  1  0.88029200  0.74935000  0.11509000  1
  H  H38  1  0.75065000  0.38029200  0.36509000  1
  H  H39  1  0.24935000  0.61970800  0.86509000  1
  H  H40  1  0.94966800  0.93463000  0.88286200  1
  H  H41  1  0.05033200  0.06537000  0.38286200  1
  H  H42  1  0.43463000  0.55033200  0.63286200  1
  H  H43  1  0.56537000  0.44966800  0.13286200  1
  H  H44  1  0.06537000  0.05033200  0.61713800  1
  H  H45  1  0.93463000  0.94966800  0.11713800  1
  H  H46  1  0.55033200  0.43463000  0.36713800  1
  H  H47  1  0.44966800  0.56537000  0.86713800  1
  H  H48  1  0.06858900  0.73559500  0.76756400  1
  H  H49  1  0.93141100  0.26440500  0.26756400  1
  H  H50  1  0.23559500  0.43141100  0.51756400  1
  H  H51  1  0.76440500  0.56858900  0.01756400  1
  H  H52  1  0.26440500  0.93141100  0.73243600  1
  H  H53  1  0.73559500  0.06858900  0.23243600  1
  H  H54  1  0.43141100  0.23559500  0.48243600  1
  H  H55  1  0.56858900  0.76440500  0.98243600  1
  H  H56  1  0.00263400  0.82144400  0.69850700  1
  H  H57  1  0.99736600  0.17855600  0.19850700  1
  H  H58  1  0.32144400  0.49736600  0.44850700  1
  H  H59  1  0.67855600  0.50263400  0.94850700  1
  H  H60  1  0.17855600  0.99736600  0.80149300  1
  H  H61  1  0.82144400  0.00263400  0.30149300  1
  H  H62  1  0.49736600  0.32144400  0.55149300  1
  H  H63  1  0.50263400  0.67855600  0.05149300  1
  Pb  Pb0  1  0.78427700  0.21572300  0.75000000  1
  Pb  Pb1  1  0.21572300  0.78427700  0.25000000  1
  Pb  Pb2  1  0.71572300  0.71572300  0.50000000  1
  Pb  Pb3  1  0.28427700  0.28427700  0.00000000  1
  C  C0  1  0.02850600  0.84552800  0.74683900  1
  C  C1  1  0.97149400  0.15447200  0.24683900  1
  C  C2  1  0.34552800  0.47149400  0.49683900  1
  C  C3  1  0.65447200  0.52850600  0.99683900  1
  C  C4  1  0.15447200  0.97149400  0.75316100  1
  C  C5  1  0.84552800  0.02850600  0.25316100  1
  C  C6  1  0.47149400  0.34552800  0.50316100  1
  C  C7  1  0.52850600  0.65447200  0.00316100  1
  C  C8  1  0.70049300  0.75449100  0.75580900  1
  C  C9  1  0.29950700  0.24550900  0.25580900  1
  C  C10  1  0.25449100  0.79950700  0.50580900  1
  C  C11  1  0.74550900  0.20049300  0.00580900  1
  C  C12  1  0.24550900  0.29950700  0.74419100  1
  C  C13  1  0.75449100  0.70049300  0.24419100  1
  C  C14  1  0.79950700  0.25449100  0.49419100  1
  C  C15  1  0.20049300  0.74550900  0.99419100  1
  C  C16  1  0.86187600  0.85718200  0.86275800  1
  C  C17  1  0.13812400  0.14281800  0.36275800  1
  C  C18  1  0.35718200  0.63812400  0.61275800  1
  C  C19  1  0.64281800  0.36187600  0.11275800  1
  C  C20  1  0.14281800  0.13812400  0.63724200  1
  C  C21  1  0.85718200  0.86187600  0.13724200  1
  C  C22  1  0.63812400  0.35718200  0.38724200  1
  C  C23  1  0.36187600  0.64281800  0.88724200  1
  N  N0  1  0.96343000  0.37500900  0.86432600  1
  N  N1  1  0.03657000  0.62499100  0.36432600  1
  N  N2  1  0.87500900  0.53657000  0.61432600  1
  N  N3  1  0.12499100  0.46343000  0.11432600  1
  N  N4  1  0.62499100  0.03657000  0.63567400  1
  N  N5  1  0.37500900  0.96343000  0.13567400  1
  N  N6  1  0.53657000  0.87500900  0.38567400  1
  N  N7  1  0.46343000  0.12499100  0.88567400  1
  O  O0  1  0.93271400  0.22907000  0.85607000  1
  O  O1  1  0.06728600  0.77093000  0.35607000  1
  O  O2  1  0.72907000  0.56728600  0.60607000  1
  O  O3  1  0.27093000  0.43271400  0.10607000  1
  O  O4  1  0.77093000  0.06728600  0.64393000  1
  O  O5  1  0.22907000  0.93271400  0.14393000  1
  O  O6  1  0.56728600  0.72907000  0.39393000  1
  O  O7  1  0.43271400  0.27093000  0.89393000  1
  O  O8  1  0.02067200  0.41956700  0.91432000  1
  O  O9  1  0.97932800  0.58043300  0.41432000  1
  O  O10  1  0.91956700  0.47932800  0.66432000  1
  O  O11  1  0.08043300  0.52067200  0.16432000  1
  O  O12  1  0.58043300  0.97932800  0.58568000  1
  O  O13  1  0.41956700  0.02067200  0.08568000  1
  O  O14  1  0.47932800  0.91956700  0.33568000  1
  O  O15  1  0.52067200  0.08043300  0.83568000  1
  O  O16  1  0.93432400  0.47024800  0.82153700  1
  O  O17  1  0.06567600  0.52975200  0.32153700  1
  O  O18  1  0.97024800  0.56567600  0.57153700  1
  O  O19  1  0.02975200  0.43432400  0.07153700  1
  O  O20  1  0.52975200  0.06567600  0.67846300  1
  O  O21  1  0.47024800  0.93432400  0.17846300  1
  O  O22  1  0.56567600  0.97024800  0.42846300  1
  O  O23  1  0.43432400  0.02975200  0.92846300  1
loop_
_geom_bond_atom_site_label_1
_geom_bond_atom_site_label_2
_geom_bond_distance
_geom_bond_site_symmetry_2
P0 Pb0 2.834217 1_565
P1 Pb1 2.834217 1_545
P2 Pb2 2.834217 1_555
P3 Pb3 2.834217 1_555
P4 Pb0 2.834217 1_455
P5 Pb1 2.834217 1_655
P6 Pb2 2.834217 1_555
P7 Pb3 2.834217 1_556
C0 H56 1.099945 1_555
C0 H48 1.101037 1_555
C0 P0 1.842991 1_455
C1 H57 1.099945 1_555
C1 H49 1.101037 1_555
C1 P1 1.842991 1_655
C2 H58 1.099945 1_555
C2 H50 1.101037 1_555
C2 P2 1.842991 1_555
C3 H59 1.099945 1_555
C3 H51 1.101037 1_556
C3 P3 1.842991 1_556
C4 H60 1.099945 1_555
C4 H52 1.101037 1_555
C4 P4 1.842991 1_565
C5 H61 1.099945 1_555
C5 H53 1.101037 1_555
C5 P5 1.842991 1_545
C6 H62 1.099945 1_555
C6 H54 1.101037 1_555
C6 P6 1.842991 1_555
C7 H63 1.099945 1_555
C7 H55 1.101037 1_554
C7 P7 1.842991 1_554
C8 H16 1.096234 1_555
C8 H0 1.098055 1_555
C8 H8 1.098779 1_555
C8 P0 1.822328 1_555
C9 H17 1.096234 1_555
C9 H1 1.098055 1_555
C9 H9 1.098779 1_555
C9 P1 1.822328 1_555
C10 H18 1.096234 1_555
C10 H2 1.098055 1_555
C10 H10 1.098779 1_555
C10 P2 1.822328 1_555
C11 H19 1.096234 1_554
C11 H3 1.098055 1_555
C11 H11 1.098779 1_555
C11 P3 1.822328 1_555
C12 H20 1.096234 1_555
C12 H4 1.098055 1_555
C12 H12 1.098779 1_555
C12 P4 1.822328 1_555
C13 H21 1.096234 1_555
C13 H5 1.098055 1_555
C13 H13 1.098779 1_555
C13 P5 1.822328 1_555
C14 H22 1.096234 1_555
C14 H6 1.098055 1_555
C14 H14 1.098779 1_555
C14 P6 1.822328 1_555
C15 H23 1.096234 1_556
C15 H7 1.098055 1_555
C15 H15 1.098779 1_555
C15 P7 1.822328 1_555
C16 H40 1.095972 1_555
C16 H32 1.097778 1_555
C16 H24 1.099724 1_555
C16 P0 1.822116 1_555
C17 H41 1.095972 1_555
C17 H33 1.097778 1_555
C17 H25 1.099724 1_555
C17 P1 1.822116 1_555
C18 H42 1.095972 1_555
C18 H34 1.097778 1_555
C18 H26 1.099724 1_555
C18 P2 1.822116 1_555
C19 H43 1.095972 1_555
C19 H35 1.097778 1_555
C19 H27 1.099724 1_555
C19 P3 1.822116 1_555
C20 H44 1.095972 1_555
C20 H36 1.097778 1_555
C20 H28 1.099724 1_555
C20 P4 1.822116 1_555
C21 H45 1.095972 1_555
C21 H37 1.097778 1_555
C21 H29 1.099724 1_555
C21 P5 1.822116 1_555
C22 H46 1.095972 1_555
C22 H38 1.097778 1_555
C22 H30 1.099724 1_555
C22 P6 1.822116 1_555
C23 H47 1.095972 1_555
C23 H39 1.097778 1_555
C23 H31 1.099724 1_555
C23 P7 1.822116 1_555
N0 O8 1.258223 1_655
N0 O16 1.267076 1_555
N0 O0 1.291494 1_555
N1 O9 1.258223 1_455
N1 O17 1.267076 1_555
N1 O1 1.291494 1_555
N2 O10 1.258223 1_555
N2 O18 1.267076 1_555
N2 O2 1.291494 1_555
N3 O11 1.258223 1_555
N3 O19 1.267076 1_555
N3 O3 1.291494 1_555
N4 O12 1.258223 1_545
N4 O20 1.267076 1_555
N4 O4 1.291494 1_555
N5 O13 1.258223 1_565
N5 O21 1.267076 1_555
N5 O5 1.291494 1_555
N6 O14 1.258223 1_555
N6 O22 1.267076 1_555
N6 O6 1.291494 1_555
N7 O15 1.258223 1_555
N7 O23 1.267076 1_555
N7 O7 1.291494 1_555
O0 Pb0 2.649124 1_555
O1 Pb1 2.649124 1_555
O2 Pb2 2.649124 1_555
O3 Pb3 2.649124 1_555
O4 Pb0 2.649124 1_555
O5 Pb1 2.649124 1_555
O6 Pb2 2.649124 1_555
O7 Pb3 2.649124 1_556
