# generated using pymatgen
data_Li7V3P8O29
_symmetry_space_group_name_H-M   'P 1'
_cell_length_a   9.87167080
_cell_length_b   9.86816511
_cell_length_c   13.91880192
_cell_angle_alpha   90.00302147
_cell_angle_beta   90.00578612
_cell_angle_gamma   59.87606669
_symmetry_Int_Tables_number   1
_chemical_formula_structural   Li7V3P8O29
_chemical_formula_sum   'Li14 V6 P16 O58'
_cell_volume   1172.77807416
_cell_formula_units_Z   2
loop_
 _symmetry_equiv_pos_site_id
 _symmetry_equiv_pos_as_xyz
  1  'x, y, z'
loop_
 _atom_site_type_symbol
 _atom_site_label
 _atom_site_symmetry_multiplicity
 _atom_site_fract_x
 _atom_site_fract_y
 _atom_site_fract_z
 _atom_site_occupancy
  Li  Li0  1  0.90102724  0.76265889  0.06423300  1
  Li  Li1  1  0.77235196  0.90578116  0.56012750  1
  Li  Li2  1  0.90990956  0.31426816  0.55736889  1
  Li  Li3  1  0.66553650  0.66569321  0.88471160  1
  Li  Li4  1  0.76417601  0.32743878  0.06506412  1
  Li  Li5  1  0.32475086  0.90436395  0.06492389  1
  Li  Li6  1  0.68503117  0.22415192  0.43526231  1
  Li  Li7  1  0.31847005  0.77449752  0.55886803  1
  Li  Li8  1  0.23216956  0.66902546  0.94017090  1
  Li  Li9  1  0.33641237  0.33232925  0.61463189  1
  Li  Li10  1  0.09077260  0.68839562  0.43606074  1
  Li  Li11  1  0.22879452  0.08972479  0.43563288  1
  Li  Li12  1  0.09874299  0.23484776  0.94228929  1
  Li  Li13  1  0.95193558  0.01386417  -0.00008262  1
  V  V0  1  0.56705054  0.43266680  0.24914330  1
  V  V1  1  0.43425949  0.56587457  0.75069745  1
  V  V2  1  0.56589266  0.00413895  0.75429618  1
  V  V3  1  0.43674346  0.99894090  0.24774783  1
  V  V4  1  -0.00002041  0.56741459  0.25101973  1
  V  V5  1  0.00103667  0.43400735  0.74892071  1
  P  P0  1  0.91069563  0.77245898  0.84177523  1
  P  P1  1  0.76636931  0.91160296  0.34342999  1
  P  P2  1  0.91461471  0.31931770  0.34207648  1
  P  P3  1  0.66812499  0.66703081  0.12516797  1
  P  P4  1  0.66748716  0.67176517  0.62758718  1
  P  P5  1  0.77672379  0.31556222  0.84561641  1
  P  P6  1  0.68005398  0.23006234  0.65898504  1
  P  P7  1  0.31686096  0.91264887  0.84335175  1
  P  P8  1  0.69174258  0.08196363  0.15726683  1
  P  P9  1  0.32085847  0.77034532  0.34052318  1
  P  P10  1  0.22576190  0.68586932  0.15814972  1
  P  P11  1  0.33285907  0.33187230  0.37309506  1
  P  P12  1  0.32814706  0.33320463  0.87439498  1
  P  P13  1  0.09035080  0.67830048  0.65577653  1
  P  P14  1  0.23205909  0.08974149  0.65625495  1
  P  P15  1  0.08903916  0.22876031  0.15798100  1
  O  O0  1  0.99386198  0.75274963  0.56744121  1
  O  O1  1  0.91659948  0.74823150  0.34253334  1
  O  O2  1  0.79695494  0.98546046  0.07599491  1
  O  O3  1  0.74690121  0.91600514  0.84019707  1
  O  O4  1  0.89779923  0.62243352  0.83174368  1
  O  O5  1  0.81102755  0.67815975  0.16471606  1
  O  O6  1  0.90246915  0.47960865  0.32095232  1
  O  O7  1  0.00085325  0.22382221  0.06971946  1
  O  O8  1  0.92539229  0.33056436  0.83954826  1
  O  O9  1  0.66341118  0.82150815  0.67289687  1
  O  O10  1  0.62108157  0.89668330  0.32355361  1
  O  O11  1  0.81940438  0.52299875  0.67273097  1
  O  O12  1  0.66692061  0.67630757  0.01630977  1
  O  O13  1  0.68302878  0.67018997  0.52132465  1
  O  O14  1  0.67899057  0.51185749  0.15882753  1
  O  O15  1  0.48235214  0.89217498  0.83086965  1
  O  O16  1  0.51126790  0.81099918  0.16434208  1
  O  O17  1  0.75425437  0.33208439  0.34402427  1
  O  O18  1  0.78415945  0.21603961  0.75155006  1
  O  O19  1  0.75844878  0.24461422  0.56988424  1
  O  O20  1  0.78589791  0.22522851  0.93472137  1
  O  O21  1  0.63077949  0.48016560  0.83544259  1
  O  O22  1  0.52066119  0.66834831  0.66451516  1
  O  O23  1  0.66740152  0.24773645  0.15653152  1
  O  O24  1  0.47989948  0.62578604  0.32464500  1
  O  O25  1  0.33426438  0.92088225  0.33788293  1
  O  O26  1  0.78671087  0.00580777  0.25654801  1
  O  O27  1  0.75388739  0.99935368  0.43489958  1
  O  O28  1  0.24591866  0.99700102  0.56740512  1
  O  O29  1  0.67170880  0.07793395  0.65920520  1
  O  O30  1  0.51233188  0.36982427  0.67342334  1
  O  O31  1  0.32986197  0.75092640  0.84433626  1
  O  O32  1  0.48582942  0.32593629  0.33983238  1
  O  O33  1  0.37513925  0.52932728  0.16622573  1
  O  O34  1  0.21366523  0.78032908  0.06871723  1
  O  O35  1  0.23792226  0.76647431  0.43087386  1
  O  O36  1  0.20655841  0.79275679  0.25054458  1
  O  O37  1  0.24955729  0.67030537  0.65406387  1
  O  O38  1  0.47409720  0.18557921  0.82660835  1
  O  O39  1  0.53670837  0.08073374  0.16703055  1
  O  O40  1  0.32700981  0.48313679  0.83950261  1
  O  O41  1  0.31881609  0.31986714  0.98012951  1
  O  O42  1  0.32263679  0.33096598  0.48163915  1
  O  O43  1  0.18545564  0.48701238  0.33442159  1
  O  O44  1  0.37476747  0.11220524  0.67145074  1
  O  O45  1  0.32687311  0.18628561  0.33109651  1
  O  O46  1  0.07874206  0.66531764  0.16286159  1
  O  O47  1  0.00068275  0.78394252  0.74839873  1
  O  O48  1  0.00102739  0.77039763  0.93035843  1
  O  O49  1  0.11713538  0.51097495  0.67342014  1
  O  O50  1  0.18016092  0.33249470  0.82760265  1
  O  O51  1  0.09307476  0.38016086  0.16990839  1
  O  O52  1  0.25516368  0.08235062  0.15842938  1
  O  O53  1  0.23152897  0.00629652  0.93132608  1
  O  O54  1  0.21609112  0.00052069  0.74901070  1
  O  O55  1  0.08061925  0.25140205  0.65559870  1
  O  O56  1  0.00826591  0.24602252  0.43199228  1
  O  O57  1  0.00475911  0.20798870  0.25161425  1
loop_
_geom_bond_atom_site_label_1
_geom_bond_atom_site_label_2
_geom_bond_distance
_geom_bond_site_symmetry_2
Li0 O2 1.910246 1_555
Li0 O5 2.045659 1_555
Li0 O46 2.047717 1_655
Li0 O48 2.128039 1_654
Li1 O27 1.937824 1_555
Li1 O0 1.938518 1_555
Li1 O29 2.020088 1_565
Li1 O9 2.282542 1_555
Li2 O19 1.941641 1_555
Li2 O56 1.945637 1_655
Li2 O55 2.011054 1_655
Li2 O11 2.402498 1_555
Li3 O12 1.835117 1_556
Li3 O21 2.137810 1_555
Li3 O15 2.184024 1_555
Li3 O4 2.236215 1_555
Li4 O23 1.976518 1_555
Li4 O7 2.027444 1_655
Li4 O20 2.034080 1_554
Li4 O14 2.046016 1_555
Li5 O52 2.009869 1_565
Li5 O34 2.012652 1_555
Li5 O53 2.094567 1_564
Li5 O16 2.109676 1_555
Li6 O27 1.967130 1_545
Li6 O17 1.986196 1_555
Li6 O19 2.055154 1_555
Li6 O32 2.158049 1_555
Li7 O28 1.941573 1_555
Li7 O35 1.968563 1_555
Li7 O37 1.994495 1_555
Li7 O22 2.268130 1_555
Li8 O48 1.983589 1_555
Li8 O31 2.035993 1_555
Li8 O34 2.059008 1_556
Li8 O40 2.116825 1_555
Li9 O42 1.856617 1_555
Li9 O30 2.113534 1_555
Li9 O49 2.152415 1_555
Li9 O44 2.159148 1_555
Li10 O35 1.957652 1_555
Li10 O1 1.995034 1_455
Li10 O0 2.013187 1_455
Li10 O43 2.227067 1_555
Li11 O56 1.936605 1_555
Li11 O25 1.992501 1_545
Li11 O28 2.018576 1_545
Li11 O45 2.211094 1_555
Li12 O53 1.964896 1_555
Li12 O7 2.048772 1_556
Li12 O8 2.059807 1_455
Li12 O50 2.213700 1_555
Li13 O2 1.992809 1_545
Li13 O20 2.104483 1_554
Li13 O48 2.403272 1_644
Li13 O7 2.544377 1_655
Li13 O34 2.631863 1_645
O0 P13 1.502064 1_655
O1 P1 1.548800 1_555
O1 V4 2.002395 1_655
O2 P8 1.507511 1_565
O3 P0 1.523972 1_555
O3 V2 1.954127 1_565
O4 P0 1.554565 1_555
O4 V5 1.980640 1_655
O5 P3 1.568582 1_555
O5 V4 2.017459 1_655
O6 P2 1.553231 1_555
O6 V4 1.860728 1_655
O7 P15 1.520453 1_555
O8 P5 1.549525 1_555
O8 V5 1.989038 1_655
O9 P4 1.588438 1_555
O9 V2 1.927945 1_565
O10 P1 1.538540 1_555
O10 V3 1.897244 1_555
O11 P4 1.609064 1_555
O11 V5 1.878810 1_655
O12 P3 1.517629 1_555
O13 P4 1.486274 1_555
O14 P3 1.552742 1_555
O14 V0 2.068629 1_555
O15 P7 1.551982 1_555
O15 V2 1.987890 1_565
O16 P3 1.582830 1_555
O16 V3 1.989733 1_555
O17 P2 1.523942 1_555
O17 V0 2.074345 1_555
O18 P6 1.610054 1_555
O18 P5 1.616071 1_555
O19 P6 1.506426 1_555
O20 P5 1.503359 1_555
O21 P5 1.544406 1_555
O21 V1 2.054972 1_555
O22 P4 1.554138 1_555
O22 V1 2.013720 1_555
O23 P8 1.529502 1_555
O23 V0 2.039301 1_555
O24 P9 1.516818 1_555
O24 V0 1.957201 1_555
O25 P9 1.556592 1_555
O25 V3 1.993304 1_555
O26 P1 1.598269 1_545
O26 P8 1.626629 1_555
O27 P1 1.509554 1_555
O28 P14 1.503293 1_565
O29 P6 1.544221 1_555
O29 V2 2.034002 1_555
O30 P6 1.546563 1_555
O30 V1 1.999258 1_555
O31 P7 1.535573 1_555
O31 V1 2.050980 1_555
O32 P11 1.552240 1_555
O32 V0 2.047804 1_555
O33 P10 1.512270 1_555
O33 V0 2.004179 1_555
O34 P10 1.523492 1_555
O35 P9 1.511574 1_555
O36 P10 1.612938 1_555
O36 P9 1.624748 1_555
O37 P13 1.533745 1_555
O37 V1 2.075863 1_555
O38 P12 1.591790 1_555
O38 V2 1.847011 1_555
O39 P8 1.542585 1_555
O39 V3 1.920243 1_545
O40 P12 1.551927 1_555
O40 V1 2.045341 1_555
O41 P12 1.484560 1_555
O42 P11 1.514506 1_555
O43 P11 1.585813 1_555
O43 V4 1.967490 1_555
O44 P14 1.546578 1_555
O44 V2 2.001689 1_555
O45 P11 1.579355 1_555
O45 V3 1.981782 1_545
O46 P10 1.564372 1_555
O46 V4 1.948820 1_555
O47 P0 1.610107 1_455
O47 P13 1.614367 1_555
O48 P0 1.515712 1_455
O49 P13 1.555144 1_555
O49 V5 1.966932 1_555
O50 P12 1.602640 1_555
O50 V5 1.884501 1_555
O51 P15 1.523495 1_555
O51 V4 1.956821 1_555
O52 P15 1.548742 1_555
O52 V3 1.988674 1_545
O53 P7 1.510534 1_545
O54 P7 1.612384 1_545
O54 P14 1.614405 1_555
O55 P14 1.544709 1_555
O55 V5 2.032373 1_555
O56 P2 1.507588 1_455
O57 P2 1.613387 1_455
O57 P15 1.613732 1_555
