# generated using pymatgen
data_Mg149Os
_symmetry_space_group_name_H-M   'P 1'
_cell_length_a   15.90160904
_cell_length_b   15.90161412
_cell_length_c   15.63249819
_cell_angle_alpha   90.00000000
_cell_angle_beta   90.00000000
_cell_angle_gamma   120.00001057
_symmetry_Int_Tables_number   1
_chemical_formula_structural   Mg149Os
_chemical_formula_sum   'Mg149 Os1'
_cell_volume   3423.27079001
_cell_formula_units_Z   1
loop_
 _symmetry_equiv_pos_site_id
 _symmetry_equiv_pos_as_xyz
  1  'x, y, z'
loop_
 _atom_site_type_symbol
 _atom_site_label
 _atom_site_symmetry_multiplicity
 _atom_site_fract_x
 _atom_site_fract_y
 _atom_site_fract_z
 _atom_site_occupancy
  Mg  Mg0  1  0.60327485  0.00041492  -0.00000000  1
  Mg  Mg1  1  0.39713907  0.00041492  -0.00000000  1
  Mg  Mg2  1  0.18865063  0.00215403  0.00000000  1
  Mg  Mg3  1  0.81350440  0.00215503  0.00000000  1
  Mg  Mg4  1  0.18865063  0.18649660  0.00000000  1
  Mg  Mg5  1  0.99784597  0.18649660  0.00000000  1
  Mg  Mg6  1  0.80133045  0.19866955  -0.00000000  1
  Mg  Mg7  1  0.39733911  0.19866955  0.00000000  1
  Mg  Mg8  1  0.59967268  0.19934636  -0.00000000  1
  Mg  Mg9  1  0.19795371  0.39590642  -0.00000000  1
  Mg  Mg10  1  0.39713907  0.39672415  -0.00000000  1
  Mg  Mg11  1  0.99958508  0.39672415  -0.00000000  1
  Mg  Mg12  1  0.80065364  0.40032632  -0.00000000  1
  Mg  Mg13  1  0.59967268  0.40032632  -0.00000000  1
  Mg  Mg14  1  0.19957529  0.59978815  0.00000000  1
  Mg  Mg15  1  0.40021185  0.59978815  -0.00000000  1
  Mg  Mg16  1  0.80133045  0.60266089  -0.00000000  1
  Mg  Mg17  1  0.99958508  0.60285993  0.00000000  1
  Mg  Mg18  1  0.60327485  0.60286093  -0.00000000  1
  Mg  Mg19  1  0.40021185  0.80042371  0.00000000  1
  Mg  Mg20  1  0.60409358  0.80204629  -0.00000000  1
  Mg  Mg21  1  0.19795371  0.80204729  -0.00000000  1
  Mg  Mg22  1  0.81350440  0.81134937  -0.00000000  1
  Mg  Mg23  1  0.99784597  0.81134937  -0.00000000  1
  Mg  Mg24  1  0.06276784  0.12553569  0.15501480  1
  Mg  Mg25  1  0.87446431  0.93723216  0.15501480  1
  Mg  Mg26  1  0.06276784  0.93723216  0.15501480  1
  Mg  Mg27  1  0.26457773  0.33045956  0.16505348  1
  Mg  Mg28  1  0.06588283  0.33045956  0.16505348  1
  Mg  Mg29  1  0.66954044  0.73542227  0.16505348  1
  Mg  Mg30  1  0.06588283  0.73542227  0.16505348  1
  Mg  Mg31  1  0.26457773  0.93411717  0.16505348  1
  Mg  Mg32  1  0.66954044  0.93411717  0.16505348  1
  Mg  Mg33  1  0.06641353  0.53320677  0.16583818  1
  Mg  Mg34  1  0.46679323  0.53320677  0.16583818  1
  Mg  Mg35  1  0.46679323  0.93358647  0.16583818  1
  Mg  Mg36  1  0.26631693  0.53263286  0.16587139  1
  Mg  Mg37  1  0.46736714  0.73368307  0.16587139  1
  Mg  Mg38  1  0.26631693  0.73368307  0.16587139  1
  Mg  Mg39  1  0.46750401  0.13385835  0.16668208  1
  Mg  Mg40  1  0.66635434  0.13385835  0.16668208  1
  Mg  Mg41  1  0.46750401  0.33364566  0.16668208  1
  Mg  Mg42  1  0.86614165  0.33364566  0.16668208  1
  Mg  Mg43  1  0.66635434  0.53249599  0.16668208  1
  Mg  Mg44  1  0.86614165  0.53249599  0.16668208  1
  Mg  Mg45  1  0.66666600  0.33333300  0.16668937  1
  Mg  Mg46  1  0.26950104  0.13475002  0.16714827  1
  Mg  Mg47  1  0.86524898  0.13475002  0.16714827  1
  Mg  Mg48  1  0.86524898  0.73049896  0.16714827  1
  Mg  Mg49  1  0.19843452  0.19875283  0.33073720  1
  Mg  Mg50  1  0.00031831  0.19875283  0.33073720  1
  Mg  Mg51  1  0.00031831  0.80156548  0.33073720  1
  Mg  Mg52  1  0.80124817  0.80156548  0.33073720  1
  Mg  Mg53  1  0.19843452  0.99968169  0.33073720  1
  Mg  Mg54  1  0.80124817  0.99968169  0.33073720  1
  Mg  Mg55  1  -0.00000000  -0.00000000  0.33185151  1
  Mg  Mg56  1  0.00033370  0.39932282  0.33243873  1
  Mg  Mg57  1  0.39899013  0.39932282  0.33243873  1
  Mg  Mg58  1  0.60067718  0.60100987  0.33243873  1
  Mg  Mg59  1  0.00033370  0.60100987  0.33243873  1
  Mg  Mg60  1  0.60067718  0.99966630  0.33243873  1
  Mg  Mg61  1  0.39899013  0.99966630  0.33243873  1
  Mg  Mg62  1  0.19992203  0.39984405  0.33276050  1
  Mg  Mg63  1  0.60015595  0.80007797  0.33276050  1
  Mg  Mg64  1  0.19992203  0.80007797  0.33276050  1
  Mg  Mg65  1  0.40000197  0.59999803  0.33300762  1
  Mg  Mg66  1  0.19999706  0.59999803  0.33300762  1
  Mg  Mg67  1  0.40000197  0.80000294  0.33300762  1
  Mg  Mg68  1  0.59963165  0.19926430  0.33353413  1
  Mg  Mg69  1  0.59963165  0.40036735  0.33353413  1
  Mg  Mg70  1  0.80073470  0.40036735  0.33353413  1
  Mg  Mg71  1  0.80016258  0.19983642  0.33376076  1
  Mg  Mg72  1  0.39967385  0.19983642  0.33376076  1
  Mg  Mg73  1  0.80016258  0.60032615  0.33376076  1
  Mg  Mg74  1  0.06661599  0.13323299  0.50000000  1
  Mg  Mg75  1  0.26595305  0.13297652  0.50000000  1
  Mg  Mg76  1  0.86702348  0.13297652  0.50000000  1
  Mg  Mg77  1  0.46688868  0.13337862  0.50000000  1
  Mg  Mg78  1  0.66648994  0.13337862  0.50000000  1
  Mg  Mg79  1  0.26634493  0.33251428  0.50000000  1
  Mg  Mg80  1  0.06617035  0.33251428  0.50000000  1
  Mg  Mg81  1  0.66666600  0.33333300  0.50000000  1
  Mg  Mg82  1  0.86662038  0.33351006  0.50000000  1
  Mg  Mg83  1  0.46688868  0.33351006  0.50000000  1
  Mg  Mg84  1  0.26632517  0.53265035  0.50000000  1
  Mg  Mg85  1  0.46703762  0.53296238  0.50000000  1
  Mg  Mg86  1  0.06592577  0.53296238  0.50000000  1
  Mg  Mg87  1  0.86662038  0.53311032  0.50000000  1
  Mg  Mg88  1  0.66648994  0.53311032  0.50000000  1
  Mg  Mg89  1  0.46734965  0.73367483  0.50000000  1
  Mg  Mg90  1  0.26632517  0.73367483  0.50000000  1
  Mg  Mg91  1  0.06617035  0.73365507  0.50000000  1
  Mg  Mg92  1  0.66748572  0.73365607  0.50000000  1
  Mg  Mg93  1  0.86702348  0.73404595  0.50000000  1
  Mg  Mg94  1  0.46703762  0.93407423  0.50000000  1
  Mg  Mg95  1  0.86676601  0.93338301  0.50000000  1
  Mg  Mg96  1  0.06661599  0.93338301  0.50000000  1
  Mg  Mg97  1  0.26634493  0.93382965  0.50000000  1
  Mg  Mg98  1  0.66748572  0.93382965  0.50000000  1
  Mg  Mg99  1  0.80016258  0.19983642  0.66623924  1
  Mg  Mg100  1  0.39967385  0.19983642  0.66623924  1
  Mg  Mg101  1  0.80016258  0.60032615  0.66623924  1
  Mg  Mg102  1  0.59963165  0.19926430  0.66646587  1
  Mg  Mg103  1  0.59963165  0.40036735  0.66646587  1
  Mg  Mg104  1  0.80073470  0.40036735  0.66646587  1
  Mg  Mg105  1  0.40000197  0.59999803  0.66699238  1
  Mg  Mg106  1  0.19999706  0.59999803  0.66699238  1
  Mg  Mg107  1  0.40000197  0.80000294  0.66699238  1
  Mg  Mg108  1  0.19992203  0.39984405  0.66723850  1
  Mg  Mg109  1  0.60015595  0.80007797  0.66723850  1
  Mg  Mg110  1  0.19992203  0.80007797  0.66723850  1
  Mg  Mg111  1  0.00033370  0.39932282  0.66756127  1
  Mg  Mg112  1  0.39899013  0.39932282  0.66756127  1
  Mg  Mg113  1  0.60067718  0.60100987  0.66756127  1
  Mg  Mg114  1  0.00033370  0.60100987  0.66756127  1
  Mg  Mg115  1  0.60067718  0.99966630  0.66756127  1
  Mg  Mg116  1  0.39899013  0.99966630  0.66756127  1
  Mg  Mg117  1  -0.00000000  -0.00000000  0.66814849  1
  Mg  Mg118  1  0.19843452  0.19875283  0.66926280  1
  Mg  Mg119  1  0.00031831  0.19875283  0.66926280  1
  Mg  Mg120  1  0.00031831  0.80156548  0.66926280  1
  Mg  Mg121  1  0.80124817  0.80156548  0.66926280  1
  Mg  Mg122  1  0.19843452  0.99968169  0.66926280  1
  Mg  Mg123  1  0.80124817  0.99968169  0.66926280  1
  Mg  Mg124  1  0.26950104  0.13475002  0.83285273  1
  Mg  Mg125  1  0.86524898  0.13475002  0.83285273  1
  Mg  Mg126  1  0.86524898  0.73049896  0.83285273  1
  Mg  Mg127  1  0.66666600  0.33333300  0.83331063  1
  Mg  Mg128  1  0.46750401  0.13385835  0.83331792  1
  Mg  Mg129  1  0.66635434  0.13385835  0.83331792  1
  Mg  Mg130  1  0.46750401  0.33364566  0.83331792  1
  Mg  Mg131  1  0.86614165  0.33364566  0.83331792  1
  Mg  Mg132  1  0.66635434  0.53249599  0.83331792  1
  Mg  Mg133  1  0.86614165  0.53249599  0.83331792  1
  Mg  Mg134  1  0.26631693  0.53263286  0.83412861  1
  Mg  Mg135  1  0.46736714  0.73368307  0.83412861  1
  Mg  Mg136  1  0.26631693  0.73368307  0.83412861  1
  Mg  Mg137  1  0.06641353  0.53320677  0.83416182  1
  Mg  Mg138  1  0.46679323  0.53320677  0.83416182  1
  Mg  Mg139  1  0.46679323  0.93358647  0.83416182  1
  Mg  Mg140  1  0.26457773  0.33045956  0.83494652  1
  Mg  Mg141  1  0.06588283  0.33045956  0.83494652  1
  Mg  Mg142  1  0.66954044  0.73542227  0.83494652  1
  Mg  Mg143  1  0.06588283  0.73542227  0.83494652  1
  Mg  Mg144  1  0.26457773  0.93411717  0.83494652  1
  Mg  Mg145  1  0.66954044  0.93411717  0.83494652  1
  Mg  Mg146  1  0.06276784  0.12553569  0.84498420  1
  Mg  Mg147  1  0.87446431  0.93723216  0.84498420  1
  Mg  Mg148  1  0.06276784  0.93723216  0.84498420  1
  Os  Os0  1  -0.00000000  -0.00000000  0.00000000  1
loop_
_geom_bond_atom_site_label_1
_geom_bond_atom_site_label_2
_geom_bond_distance
_geom_bond_site_symmetry_2
Mg0 Mg6 3.150986 1_555
Mg0 Mg145 3.160709 1_544
Mg0 Mg32 3.160709 1_545
Mg0 Mg20 3.160911 1_545
Mg0 Mg129 3.189022 1_554
Mg0 Mg40 3.189022 1_555
Mg0 Mg8 3.192357 1_555
Mg0 Mg139 3.202180 1_544
Mg0 Mg35 3.202180 1_545
Mg0 Mg19 3.204884 1_545
Mg0 Mg1 3.277891 1_555
Mg0 Mg3 3.329239 1_555
Mg1 Mg7 3.150979 1_555
Mg1 Mg144 3.160692 1_544
Mg1 Mg31 3.160692 1_545
Mg1 Mg21 3.160886 1_545
Mg1 Mg128 3.189022 1_554
Mg1 Mg39 3.189022 1_555
Mg1 Mg8 3.192356 1_555
Mg1 Mg139 3.202188 1_544
Mg1 Mg35 3.202188 1_545
Mg1 Mg19 3.204894 1_545
Mg1 Mg2 3.329215 1_555
Mg2 Os0 2.982870 1_555
Mg2 Mg46 3.196143 1_555
Mg2 Mg7 3.226056 1_555
Mg2 Mg31 3.254518 1_545
Mg2 Mg21 3.258507 1_545
Mg3 Os0 2.982862 1_655
Mg3 Mg47 3.196136 1_555
Mg3 Mg6 3.226050 1_555
Mg3 Mg32 3.254518 1_545
Mg4 Os0 2.982870 1_555
Mg4 Mg46 3.196150 1_555
Mg4 Mg7 3.226056 1_555
Mg4 Mg9 3.258507 1_555
Mg5 Os0 2.982871 1_655
Mg5 Mg6 3.226056 1_555
Mg5 Mg9 3.258513 1_655
Mg6 Mg8 3.212078 1_555
Mg7 Mg8 3.212062 1_555
Mg10 Mg7 3.150980 1_555
Mg10 Mg140 3.160692 1_554
Mg10 Mg27 3.160692 1_555
Mg10 Mg9 3.160886 1_555
Mg10 Mg130 3.189022 1_554
Mg10 Mg41 3.189022 1_555
Mg10 Mg13 3.192356 1_555
Mg10 Mg138 3.202188 1_554
Mg10 Mg34 3.202188 1_555
Mg10 Mg15 3.204894 1_555
Mg10 Mg18 3.277899 1_555
Mg10 Mg4 3.329215 1_555
Mg11 Mg6 3.150978 1_555
Mg11 Mg141 3.160701 1_654
Mg11 Mg28 3.160701 1_655
Mg11 Mg9 3.160902 1_655
Mg11 Mg131 3.189021 1_554
Mg11 Mg42 3.189021 1_555
Mg11 Mg12 3.192356 1_555
Mg11 Mg137 3.202188 1_654
Mg11 Mg33 3.202188 1_655
Mg11 Mg14 3.204885 1_655
Mg11 Mg17 3.277892 1_555
Mg11 Mg5 3.329216 1_555
Mg12 Mg131 3.178424 1_554
Mg12 Mg42 3.178424 1_555
Mg12 Mg133 3.178432 1_554
Mg12 Mg44 3.178432 1_555
Mg12 Mg17 3.192356 1_555
Mg12 Mg127 3.192913 1_554
Mg12 Mg45 3.192913 1_555
Mg12 Mg8 3.195913 1_555
Mg12 Mg13 3.195921 1_555
Mg12 Mg6 3.212063 1_555
Mg12 Mg16 3.212079 1_555
Mg13 Mg130 3.178424 1_554
Mg13 Mg41 3.178424 1_555
Mg13 Mg132 3.178432 1_554
Mg13 Mg43 3.178432 1_555
Mg13 Mg18 3.192372 1_555
Mg13 Mg45 3.192906 1_555
Mg13 Mg8 3.195906 1_555
Mg13 Mg7 3.212062 1_555
Mg13 Mg16 3.212078 1_555
Mg14 Mg33 3.175482 1_555
Mg14 Mg38 3.181748 1_555
Mg14 Mg36 3.181764 1_555
Mg14 Mg19 3.190436 1_555
Mg14 Mg15 3.190444 1_555
Mg14 Mg17 3.204868 1_455
Mg14 Mg21 3.229217 1_555
Mg14 Mg9 3.229233 1_555
Mg15 Mg34 3.175490 1_555
Mg15 Mg36 3.181748 1_555
Mg15 Mg37 3.181748 1_555
Mg15 Mg19 3.190429 1_555
Mg15 Mg18 3.204877 1_555
Mg15 Mg20 3.229216 1_555
Mg15 Mg9 3.229216 1_555
Mg16 Mg48 3.150680 1_555
Mg16 Mg17 3.150986 1_555
Mg16 Mg18 3.150994 1_555
Mg16 Mg43 3.200990 1_555
Mg16 Mg44 3.200990 1_555
Mg16 Mg22 3.226050 1_555
Mg16 Mg23 3.226056 1_555
Mg17 Mg30 3.160701 1_655
Mg17 Mg21 3.160910 1_655
Mg17 Mg44 3.189021 1_555
Mg17 Mg33 3.202180 1_655
Mg17 Mg23 3.329232 1_555
Mg18 Mg29 3.160693 1_555
Mg18 Mg20 3.160879 1_555
Mg18 Mg43 3.189030 1_555
Mg18 Mg34 3.202180 1_555
Mg18 Mg22 3.329231 1_555
Mg19 Mg35 3.175490 1_555
Mg19 Mg38 3.181748 1_555
Mg19 Mg37 3.181756 1_555
Mg19 Mg21 3.229216 1_555
Mg19 Mg20 3.229224 1_555
Mg20 Mg32 3.156810 1_555
Mg20 Mg29 3.156810 1_555
Mg20 Mg37 3.204501 1_555
Mg20 Mg22 3.258521 1_555
Mg20 Mg3 3.258529 1_565
Mg21 Mg31 3.156802 1_555
Mg21 Mg30 3.156810 1_555
Mg21 Mg38 3.204510 1_555
Mg21 Mg23 3.258513 1_455
Mg22 Os0 2.982862 1_665
Mg22 Mg48 3.196136 1_555
Mg22 Mg29 3.254518 1_555
Mg23 Os0 2.982871 1_665
Mg23 Mg48 3.196150 1_555
Mg23 Mg30 3.254518 1_655
Mg24 Os0 2.976727 1_555
Mg24 Mg47 3.222220 1_455
Mg24 Mg46 3.222220 1_555
Mg24 Mg28 3.237943 1_555
Mg24 Mg27 3.237950 1_555
Mg24 Mg55 3.260456 1_555
Mg24 Mg49 3.323213 1_555
Mg24 Mg50 3.323213 1_555
Mg25 Os0 2.976726 1_665
Mg25 Mg47 3.222214 1_565
Mg25 Mg48 3.222214 1_555
Mg25 Mg32 3.237942 1_555
Mg25 Mg29 3.237950 1_555
Mg25 Mg55 3.260456 1_665
Mg25 Mg54 3.323205 1_555
Mg25 Mg52 3.323213 1_555
Mg26 Os0 2.976726 1_565
Mg26 Mg46 3.222213 1_565
Mg26 Mg48 3.222221 1_455
Mg26 Mg31 3.237958 1_555
Mg26 Mg30 3.237959 1_555
Mg26 Mg55 3.260456 1_565
Mg26 Mg53 3.323213 1_555
Mg26 Mg51 3.323213 1_555
Mg27 Mg46 3.152141 1_555
Mg27 Mg9 3.156810 1_555
Mg27 Mg28 3.159569 1_555
Mg27 Mg49 3.161978 1_555
Mg27 Mg36 3.201169 1_555
Mg27 Mg41 3.201924 1_555
Mg27 Mg57 3.205280 1_555
Mg27 Mg62 3.206547 1_555
Mg27 Mg34 3.219811 1_555
Mg27 Mg4 3.254510 1_555
Mg28 Mg47 3.152148 1_455
Mg28 Mg9 3.156810 1_555
Mg28 Mg50 3.161978 1_555
Mg28 Mg36 3.201168 1_555
Mg28 Mg42 3.201940 1_455
Mg28 Mg56 3.205281 1_555
Mg28 Mg62 3.206539 1_555
Mg28 Mg33 3.219820 1_555
Mg28 Mg5 3.254510 1_455
Mg29 Mg48 3.152124 1_555
Mg29 Mg32 3.159570 1_555
Mg29 Mg52 3.161986 1_555
Mg29 Mg37 3.201168 1_555
Mg29 Mg43 3.201925 1_555
Mg29 Mg58 3.205281 1_555
Mg29 Mg63 3.206547 1_555
Mg29 Mg34 3.219811 1_555
Mg30 Mg48 3.152156 1_455
Mg30 Mg31 3.159569 1_555
Mg30 Mg51 3.161986 1_555
Mg30 Mg38 3.201168 1_555
Mg30 Mg44 3.201932 1_455
Mg30 Mg59 3.205281 1_555
Mg30 Mg64 3.206539 1_555
Mg30 Mg33 3.219804 1_555
Mg31 Mg46 3.152141 1_565
Mg31 Mg53 3.161986 1_555
Mg31 Mg38 3.201169 1_555
Mg31 Mg39 3.201932 1_565
Mg31 Mg61 3.205280 1_555
Mg31 Mg64 3.206539 1_555
Mg31 Mg35 3.219803 1_555
Mg32 Mg47 3.152133 1_565
Mg32 Mg54 3.161986 1_555
Mg32 Mg37 3.201168 1_555
Mg32 Mg40 3.201941 1_565
Mg32 Mg60 3.205281 1_555
Mg32 Mg63 3.206539 1_555
Mg32 Mg35 3.219819 1_555
Mg33 Mg44 3.179036 1_455
Mg33 Mg42 3.179036 1_455
Mg33 Mg38 3.183351 1_555
Mg33 Mg36 3.183359 1_555
Mg33 Mg59 3.190977 1_555
Mg33 Mg56 3.190985 1_555
Mg33 Mg66 3.195834 1_555
Mg34 Mg43 3.179036 1_555
Mg34 Mg41 3.179037 1_555
Mg34 Mg36 3.183343 1_555
Mg34 Mg37 3.183344 1_555
Mg34 Mg58 3.190985 1_555
Mg34 Mg57 3.190985 1_555
Mg34 Mg65 3.195827 1_555
Mg35 Mg40 3.179036 1_565
Mg35 Mg39 3.179037 1_565
Mg35 Mg38 3.183351 1_555
Mg35 Mg37 3.183360 1_555
Mg35 Mg61 3.190977 1_555
Mg35 Mg60 3.190985 1_555
Mg35 Mg67 3.195835 1_555
Mg36 Mg62 3.185958 1_555
Mg36 Mg65 3.196226 1_555
Mg36 Mg66 3.196226 1_555
Mg36 Mg37 3.197022 1_555
Mg36 Mg38 3.197023 1_555
Mg36 Mg9 3.204502 1_555
Mg37 Mg63 3.185958 1_555
Mg37 Mg65 3.196226 1_555
Mg37 Mg67 3.196226 1_555
Mg37 Mg38 3.197022 1_555
Mg38 Mg64 3.185966 1_555
Mg38 Mg67 3.196226 1_555
Mg38 Mg66 3.196226 1_555
Mg39 Mg46 3.155688 1_555
Mg39 Mg40 3.162040 1_555
Mg39 Mg45 3.169485 1_555
Mg39 Mg41 3.176941 1_555
Mg39 Mg8 3.178424 1_555
Mg39 Mg68 3.180282 1_555
Mg39 Mg61 3.182739 1_545
Mg39 Mg72 3.196491 1_555
Mg39 Mg7 3.200990 1_555
Mg40 Mg47 3.155688 1_555
Mg40 Mg45 3.169494 1_555
Mg40 Mg42 3.176940 1_555
Mg40 Mg8 3.178432 1_555
Mg40 Mg68 3.180291 1_555
Mg40 Mg60 3.182739 1_545
Mg40 Mg71 3.196491 1_555
Mg40 Mg6 3.200990 1_555
Mg41 Mg46 3.155696 1_555
Mg41 Mg43 3.162040 1_555
Mg41 Mg45 3.169485 1_555
Mg41 Mg69 3.180282 1_555
Mg41 Mg57 3.182731 1_555
Mg41 Mg72 3.196499 1_555
Mg41 Mg7 3.200990 1_555
Mg42 Mg47 3.155697 1_555
Mg42 Mg44 3.162041 1_555
Mg42 Mg45 3.169501 1_555
Mg42 Mg70 3.180291 1_555
Mg42 Mg56 3.182739 1_655
Mg42 Mg71 3.196499 1_555
Mg42 Mg6 3.200990 1_555
Mg43 Mg48 3.155688 1_555
Mg43 Mg45 3.169494 1_555
Mg43 Mg44 3.176940 1_555
Mg43 Mg69 3.180291 1_555
Mg43 Mg58 3.182731 1_555
Mg43 Mg73 3.196491 1_555
Mg44 Mg48 3.155697 1_555
Mg44 Mg45 3.169501 1_555
Mg44 Mg70 3.180291 1_555
Mg44 Mg59 3.182739 1_655
Mg44 Mg73 3.196499 1_555
Mg45 Mg8 3.192906 1_555
Mg45 Mg70 3.195541 1_555
Mg45 Mg68 3.195541 1_555
Mg45 Mg69 3.195541 1_555
Mg46 Mg7 3.150680 1_555
Mg46 Mg72 3.161854 1_555
Mg46 Mg53 3.162713 1_545
Mg46 Mg49 3.162721 1_555
Mg47 Mg6 3.150680 1_555
Mg47 Mg71 3.161855 1_555
Mg47 Mg54 3.162713 1_545
Mg47 Mg50 3.162721 1_655
Mg47 Mg5 3.196150 1_555
Mg48 Mg73 3.161855 1_555
Mg48 Mg52 3.162705 1_555
Mg48 Mg51 3.162721 1_655
Mg49 Mg50 3.150367 1_555
Mg49 Mg55 3.158010 1_555
Mg49 Mg53 3.165552 1_545
Mg49 Mg62 3.186071 1_555
Mg49 Mg57 3.189382 1_555
Mg49 Mg72 3.191799 1_555
Mg49 Mg74 3.208842 1_555
Mg49 Mg75 3.220411 1_555
Mg49 Mg79 3.224090 1_555
Mg50 Mg55 3.158011 1_555
Mg50 Mg54 3.165543 1_445
Mg50 Mg62 3.186070 1_555
Mg50 Mg56 3.189375 1_555
Mg50 Mg71 3.191798 1_455
Mg50 Mg74 3.208834 1_555
Mg50 Mg76 3.220411 1_455
Mg50 Mg80 3.224090 1_555
Mg51 Mg53 3.150367 1_555
Mg51 Mg55 3.158011 1_565
Mg51 Mg52 3.165536 1_455
Mg51 Mg64 3.186070 1_555
Mg51 Mg59 3.189391 1_555
Mg51 Mg73 3.191799 1_455
Mg51 Mg96 3.208834 1_555
Mg51 Mg93 3.220411 1_455
Mg51 Mg91 3.224098 1_555
Mg52 Mg54 3.150368 1_555
Mg52 Mg55 3.158002 1_665
Mg52 Mg63 3.186086 1_555
Mg52 Mg58 3.189390 1_555
Mg52 Mg73 3.191784 1_555
Mg52 Mg95 3.208834 1_555
Mg52 Mg93 3.220411 1_555
Mg52 Mg92 3.224097 1_555
Mg53 Mg55 3.158010 1_565
Mg53 Mg64 3.186071 1_555
Mg53 Mg61 3.189390 1_555
Mg53 Mg72 3.191791 1_565
Mg53 Mg96 3.208842 1_555
Mg53 Mg75 3.220411 1_565
Mg53 Mg97 3.224098 1_555
Mg54 Mg55 3.157994 1_665
Mg54 Mg63 3.186078 1_555
Mg54 Mg60 3.189390 1_555
Mg54 Mg71 3.191800 1_565
Mg54 Mg95 3.208827 1_555
Mg54 Mg76 3.220411 1_565
Mg54 Mg98 3.224097 1_555
Mg55 Mg96 3.205596 1_545
Mg55 Mg74 3.205596 1_555
Mg55 Mg95 3.205604 1_445
Mg56 Mg62 3.169644 1_555
Mg56 Mg71 3.177680 1_455
Mg56 Mg70 3.182329 1_455
Mg56 Mg66 3.183057 1_555
Mg56 Mg80 3.193446 1_555
Mg56 Mg86 3.201348 1_555
Mg56 Mg82 3.201916 1_455
Mg56 Mg59 3.207150 1_555
Mg57 Mg62 3.169659 1_555
Mg57 Mg72 3.177673 1_555
Mg57 Mg69 3.182297 1_555
Mg57 Mg65 3.183058 1_555
Mg57 Mg79 3.193445 1_555
Mg57 Mg85 3.201348 1_555
Mg57 Mg83 3.201900 1_555
Mg57 Mg58 3.207149 1_555
Mg58 Mg63 3.169660 1_555
Mg58 Mg73 3.177656 1_555
Mg58 Mg69 3.182306 1_555
Mg58 Mg65 3.183057 1_555
Mg58 Mg92 3.193454 1_555
Mg58 Mg85 3.201348 1_555
Mg58 Mg88 3.201908 1_555
Mg59 Mg64 3.169651 1_555
Mg59 Mg73 3.177688 1_455
Mg59 Mg70 3.182321 1_455
Mg59 Mg66 3.183057 1_555
Mg59 Mg91 3.193446 1_555
Mg59 Mg86 3.201348 1_555
Mg59 Mg87 3.201916 1_455
Mg60 Mg63 3.169645 1_555
Mg60 Mg71 3.177664 1_565
Mg60 Mg68 3.182322 1_565
Mg60 Mg67 3.183057 1_555
Mg60 Mg98 3.193446 1_555
Mg60 Mg94 3.201348 1_555
Mg60 Mg78 3.201908 1_565
Mg60 Mg61 3.207149 1_555
Mg61 Mg64 3.169651 1_555
Mg61 Mg72 3.177673 1_565
Mg61 Mg68 3.182305 1_565
Mg61 Mg67 3.183058 1_555
Mg61 Mg97 3.193445 1_555
Mg61 Mg94 3.201348 1_555
Mg61 Mg77 3.201908 1_565
Mg62 Mg66 3.182177 1_555
Mg62 Mg65 3.182184 1_555
Mg62 Mg84 3.190583 1_555
Mg62 Mg80 3.198071 1_555
Mg62 Mg79 3.198080 1_555
Mg63 Mg67 3.182176 1_555
Mg63 Mg65 3.182184 1_555
Mg63 Mg89 3.190583 1_555
Mg63 Mg92 3.198072 1_555
Mg63 Mg98 3.198072 1_555
Mg64 Mg67 3.182192 1_555
Mg64 Mg66 3.182193 1_555
Mg64 Mg90 3.190583 1_555
Mg64 Mg91 3.198071 1_555
Mg64 Mg97 3.198072 1_555
Mg65 Mg66 3.180400 1_555
Mg65 Mg67 3.180401 1_555
Mg65 Mg84 3.194322 1_555
Mg65 Mg89 3.194322 1_555
Mg65 Mg85 3.197446 1_555
Mg66 Mg67 3.180400 1_555
Mg66 Mg84 3.194314 1_555
Mg66 Mg90 3.194322 1_555
Mg66 Mg86 3.197445 1_555
Mg67 Mg89 3.194314 1_555
Mg67 Mg90 3.194322 1_555
Mg67 Mg94 3.197446 1_555
Mg68 Mg77 3.180189 1_555
Mg68 Mg78 3.180197 1_555
Mg68 Mg72 3.184211 1_555
Mg68 Mg71 3.184227 1_555
Mg68 Mg81 3.190709 1_555
Mg68 Mg70 3.197862 1_555
Mg68 Mg69 3.197863 1_555
Mg69 Mg83 3.180189 1_555
Mg69 Mg88 3.180189 1_555
Mg69 Mg72 3.184219 1_555
Mg69 Mg73 3.184227 1_555
Mg69 Mg81 3.190709 1_555
Mg69 Mg70 3.197862 1_555
Mg70 Mg82 3.180189 1_555
Mg70 Mg87 3.180189 1_555
Mg70 Mg73 3.184228 1_555
Mg70 Mg71 3.184228 1_555
Mg70 Mg81 3.190709 1_555
Mg71 Mg78 3.184670 1_555
Mg71 Mg82 3.184678 1_555
Mg71 Mg76 3.185048 1_555
Mg72 Mg77 3.184670 1_555
Mg72 Mg83 3.184678 1_555
Mg72 Mg75 3.185047 1_555
Mg73 Mg88 3.184670 1_555
Mg73 Mg87 3.184678 1_555
Mg73 Mg93 3.185040 1_555
Mg74 Mg76 3.171805 1_455
Mg74 Mg75 3.171821 1_555
Mg74 Mg80 3.172443 1_555
Mg74 Mg79 3.172458 1_555
Mg74 Mg95 3.177936 1_445
Mg74 Mg96 3.177937 1_545
Mg75 Mg79 3.169861 1_555
Mg75 Mg97 3.169877 1_545
Mg75 Mg96 3.171821 1_545
Mg75 Mg77 3.192008 1_555
Mg75 Mg83 3.192008 1_555
Mg76 Mg98 3.169868 1_545
Mg76 Mg80 3.169868 1_655
Mg76 Mg95 3.171814 1_545
Mg76 Mg99 3.185048 1_555
Mg76 Mg78 3.192008 1_555
Mg76 Mg82 3.192017 1_555
Mg77 Mg94 3.170446 1_545
Mg77 Mg78 3.173981 1_555
Mg77 Mg81 3.178190 1_555
Mg77 Mg97 3.181088 1_545
Mg77 Mg83 3.182413 1_555
Mg78 Mg94 3.170437 1_545
Mg78 Mg81 3.178198 1_555
Mg78 Mg98 3.181098 1_545
Mg78 Mg82 3.182404 1_555
Mg78 Mg99 3.184670 1_555
Mg79 Mg83 3.181081 1_555
Mg79 Mg84 3.182644 1_555
Mg79 Mg80 3.183098 1_555
Mg79 Mg85 3.189394 1_555
Mg80 Mg82 3.181112 1_455
Mg80 Mg84 3.182635 1_555
Mg80 Mg86 3.189395 1_555
Mg81 Mg88 3.178183 1_555
Mg81 Mg82 3.178190 1_555
Mg81 Mg87 3.178190 1_555
Mg81 Mg83 3.178190 1_555
Mg82 Mg86 3.170445 1_655
Mg82 Mg87 3.173966 1_555
Mg82 Mg99 3.184678 1_555
Mg83 Mg85 3.170430 1_555
Mg83 Mg88 3.173973 1_555
Mg84 Mg86 3.189157 1_555
Mg84 Mg85 3.189173 1_555
Mg84 Mg89 3.196613 1_555
Mg84 Mg90 3.196614 1_555
Mg85 Mg88 3.170437 1_555
Mg85 Mg89 3.189174 1_555
Mg85 Mg92 3.189402 1_555
Mg86 Mg87 3.170453 1_455
Mg86 Mg90 3.189165 1_555
Mg86 Mg91 3.189395 1_555
Mg87 Mg91 3.181104 1_655
Mg87 Mg88 3.182396 1_555
Mg87 Mg93 3.192001 1_555
Mg88 Mg92 3.181113 1_555
Mg88 Mg93 3.192008 1_555
Mg89 Mg98 3.182635 1_555
Mg89 Mg92 3.182635 1_555
Mg89 Mg94 3.189158 1_555
Mg89 Mg90 3.196613 1_555
Mg90 Mg91 3.182627 1_555
Mg90 Mg97 3.182628 1_555
Mg90 Mg94 3.189165 1_555
Mg91 Mg93 3.169868 1_455
Mg91 Mg96 3.172459 1_555
Mg91 Mg97 3.183098 1_555
Mg92 Mg93 3.169876 1_555
Mg92 Mg95 3.172434 1_555
Mg92 Mg98 3.183083 1_555
Mg93 Mg96 3.171813 1_655
Mg93 Mg95 3.171830 1_555
Mg94 Mg98 3.189394 1_555
Mg94 Mg97 3.189394 1_555
Mg95 Mg98 3.172434 1_555
Mg95 Mg96 3.177936 1_655
Mg96 Mg97 3.172466 1_555
Mg100 Mg124 3.161867 1_555
Mg100 Mg116 3.177673 1_545
Mg100 Mg112 3.177673 1_555
Mg100 Mg102 3.184211 1_555
Mg100 Mg103 3.184219 1_555
Mg100 Mg77 3.184670 1_555
Mg100 Mg83 3.184678 1_555
Mg100 Mg75 3.185047 1_555
Mg100 Mg122 3.191791 1_545
Mg100 Mg118 3.191799 1_555
Mg100 Mg128 3.196491 1_555
Mg100 Mg130 3.196499 1_555
Mg101 Mg126 3.161868 1_555
Mg101 Mg113 3.177656 1_555
Mg101 Mg114 3.177688 1_655
Mg101 Mg103 3.184227 1_555
Mg101 Mg104 3.184228 1_555
Mg101 Mg88 3.184670 1_555
Mg101 Mg87 3.184678 1_555
Mg101 Mg93 3.185040 1_555
Mg101 Mg121 3.191784 1_555
Mg101 Mg120 3.191799 1_655
Mg101 Mg132 3.196491 1_555
Mg101 Mg133 3.196499 1_555
Mg102 Mg77 3.180189 1_555
Mg102 Mg78 3.180197 1_555
Mg102 Mg128 3.180282 1_555
Mg102 Mg129 3.180291 1_555
Mg102 Mg116 3.182305 1_545
Mg102 Mg115 3.182322 1_545
Mg102 Mg99 3.184227 1_555
Mg102 Mg81 3.190709 1_555
Mg102 Mg127 3.195541 1_555
Mg102 Mg104 3.197862 1_555
Mg102 Mg103 3.197863 1_555
Mg103 Mg83 3.180189 1_555
Mg103 Mg88 3.180189 1_555
Mg103 Mg130 3.180282 1_555
Mg103 Mg132 3.180291 1_555
Mg103 Mg112 3.182297 1_555
Mg103 Mg113 3.182306 1_555
Mg103 Mg81 3.190709 1_555
Mg103 Mg127 3.195541 1_555
Mg103 Mg104 3.197862 1_555
Mg104 Mg82 3.180189 1_555
Mg104 Mg87 3.180189 1_555
Mg104 Mg131 3.180291 1_555
Mg104 Mg133 3.180291 1_555
Mg104 Mg114 3.182321 1_655
Mg104 Mg111 3.182329 1_655
Mg104 Mg99 3.184228 1_555
Mg104 Mg81 3.190709 1_555
Mg104 Mg127 3.195541 1_555
Mg105 Mg106 3.180400 1_555
Mg105 Mg107 3.180401 1_555
Mg105 Mg109 3.182184 1_555
Mg105 Mg108 3.182184 1_555
Mg105 Mg113 3.183057 1_555
Mg105 Mg112 3.183058 1_555
Mg105 Mg84 3.194322 1_555
Mg105 Mg89 3.194322 1_555
Mg105 Mg138 3.195827 1_555
Mg105 Mg134 3.196226 1_555
Mg105 Mg135 3.196226 1_555
Mg105 Mg85 3.197446 1_555
Mg106 Mg107 3.180400 1_555
Mg106 Mg108 3.182177 1_555
Mg106 Mg110 3.182193 1_555
Mg106 Mg114 3.183057 1_555
Mg106 Mg111 3.183057 1_555
Mg106 Mg84 3.194314 1_555
Mg106 Mg90 3.194322 1_555
Mg106 Mg137 3.195834 1_555
Mg106 Mg134 3.196226 1_555
Mg106 Mg136 3.196226 1_555
Mg106 Mg86 3.197445 1_555
Mg107 Mg109 3.182176 1_555
Mg107 Mg110 3.182192 1_555
Mg107 Mg115 3.183057 1_555
Mg107 Mg116 3.183058 1_555
Mg107 Mg89 3.194314 1_555
Mg107 Mg90 3.194322 1_555
Mg107 Mg139 3.195835 1_555
Mg107 Mg136 3.196226 1_555
Mg107 Mg135 3.196226 1_555
Mg107 Mg94 3.197446 1_555
Mg108 Mg111 3.169644 1_555
Mg108 Mg112 3.169659 1_555
Mg108 Mg134 3.185971 1_555
Mg108 Mg119 3.186070 1_555
Mg108 Mg118 3.186071 1_555
Mg108 Mg84 3.190570 1_555
Mg108 Mg80 3.198059 1_555
Mg108 Mg79 3.198067 1_555
Mg108 Mg141 3.206552 1_555
Mg108 Mg140 3.206560 1_555
Mg109 Mg115 3.169645 1_555
Mg109 Mg113 3.169660 1_555
Mg109 Mg135 3.185970 1_555
Mg109 Mg123 3.186078 1_555
Mg109 Mg121 3.186086 1_555
Mg109 Mg89 3.190570 1_555
Mg109 Mg92 3.198059 1_555
Mg109 Mg98 3.198059 1_555
Mg109 Mg145 3.206552 1_555
Mg109 Mg142 3.206560 1_555
Mg110 Mg114 3.169651 1_555
Mg110 Mg116 3.169651 1_555
Mg110 Mg136 3.185979 1_555
Mg110 Mg120 3.186070 1_555
Mg110 Mg122 3.186071 1_555
Mg110 Mg90 3.190570 1_555
Mg110 Mg91 3.198059 1_555
Mg110 Mg97 3.198059 1_555
Mg110 Mg143 3.206552 1_555
Mg110 Mg144 3.206552 1_555
Mg111 Mg99 3.177680 1_455
Mg111 Mg131 3.182739 1_455
Mg111 Mg119 3.189375 1_555
Mg111 Mg137 3.190985 1_555
Mg111 Mg80 3.193446 1_555
Mg111 Mg86 3.201348 1_555
Mg111 Mg82 3.201916 1_455
Mg111 Mg141 3.205281 1_555
Mg111 Mg114 3.207150 1_555
Mg112 Mg130 3.182731 1_555
Mg112 Mg118 3.189382 1_555
Mg112 Mg138 3.190985 1_555
Mg112 Mg79 3.193445 1_555
Mg112 Mg85 3.201348 1_555
Mg112 Mg83 3.201900 1_555
Mg112 Mg140 3.205280 1_555
Mg112 Mg113 3.207149 1_555
Mg113 Mg132 3.182731 1_555
Mg113 Mg121 3.189390 1_555
Mg113 Mg138 3.190985 1_555
Mg113 Mg92 3.193454 1_555
Mg113 Mg85 3.201348 1_555
Mg113 Mg88 3.201908 1_555
Mg113 Mg142 3.205281 1_555
Mg114 Mg133 3.182739 1_455
Mg114 Mg120 3.189391 1_555
Mg114 Mg137 3.190977 1_555
Mg114 Mg91 3.193446 1_555
Mg114 Mg86 3.201348 1_555
Mg114 Mg87 3.201916 1_455
Mg114 Mg143 3.205281 1_555
Mg115 Mg99 3.177664 1_565
Mg115 Mg129 3.182739 1_565
Mg115 Mg123 3.189390 1_555
Mg115 Mg139 3.190985 1_555
Mg115 Mg98 3.193446 1_555
Mg115 Mg94 3.201348 1_555
Mg115 Mg78 3.201908 1_565
Mg115 Mg145 3.205281 1_555
Mg115 Mg116 3.207149 1_555
Mg116 Mg128 3.182739 1_565
Mg116 Mg122 3.189390 1_555
Mg116 Mg139 3.190977 1_555
Mg116 Mg97 3.193445 1_555
Mg116 Mg94 3.201348 1_555
Mg116 Mg77 3.201908 1_565
Mg116 Mg144 3.205280 1_555
Mg117 Mg123 3.157994 1_445
Mg117 Mg121 3.158002 1_445
Mg117 Mg122 3.158010 1_545
Mg117 Mg118 3.158010 1_555
Mg117 Mg120 3.158011 1_545
Mg117 Mg119 3.158011 1_555
Mg117 Mg96 3.205596 1_545
Mg117 Mg74 3.205596 1_555
Mg117 Mg95 3.205604 1_445
Mg117 Mg147 3.260443 1_445
Mg117 Mg148 3.260443 1_545
Mg117 Mg146 3.260443 1_555
Mg118 Mg119 3.150367 1_555
Mg118 Mg140 3.161978 1_555
Mg118 Mg124 3.162734 1_555
Mg118 Mg122 3.165552 1_545
Mg118 Mg74 3.208842 1_555
Mg118 Mg75 3.220411 1_555
Mg118 Mg79 3.224090 1_555
Mg118 Mg146 3.323200 1_555
Mg119 Mg141 3.161978 1_555
Mg119 Mg125 3.162733 1_455
Mg119 Mg123 3.165543 1_445
Mg119 Mg99 3.191798 1_455
Mg119 Mg74 3.208834 1_555
Mg119 Mg76 3.220411 1_455
Mg119 Mg80 3.224090 1_555
Mg119 Mg146 3.323200 1_555
Mg120 Mg122 3.150367 1_555
Mg120 Mg143 3.161986 1_555
Mg120 Mg126 3.162733 1_455
Mg120 Mg121 3.165536 1_455
Mg120 Mg96 3.208834 1_555
Mg120 Mg93 3.220411 1_455
Mg120 Mg91 3.224098 1_555
Mg120 Mg148 3.323201 1_555
Mg121 Mg123 3.150368 1_555
Mg121 Mg142 3.161986 1_555
Mg121 Mg126 3.162718 1_555
Mg121 Mg95 3.208834 1_555
Mg121 Mg93 3.220411 1_555
Mg121 Mg92 3.224097 1_555
Mg121 Mg147 3.323200 1_555
Mg122 Mg144 3.161986 1_555
Mg122 Mg124 3.162726 1_565
Mg122 Mg96 3.208842 1_555
Mg122 Mg75 3.220411 1_565
Mg122 Mg97 3.224098 1_555
Mg122 Mg148 3.323200 1_555
Mg123 Mg145 3.161986 1_555
Mg123 Mg125 3.162726 1_565
Mg123 Mg99 3.191800 1_565
Mg123 Mg95 3.208827 1_555
Mg123 Mg76 3.220411 1_565
Mg123 Mg98 3.224097 1_555
Mg123 Mg147 3.323193 1_555
Mg124 Mg7 3.150667 1_556
Mg124 Mg144 3.152141 1_545
Mg124 Mg140 3.152141 1_555
Mg124 Mg128 3.155688 1_555
Mg124 Mg130 3.155696 1_555
Mg124 Mg2 3.196130 1_556
Mg124 Mg4 3.196137 1_556
Mg124 Mg148 3.222211 1_545
Mg124 Mg146 3.222219 1_555
Mg125 Mg6 3.150667 1_556
Mg125 Mg145 3.152132 1_545
Mg125 Mg141 3.152148 1_655
Mg125 Mg129 3.155688 1_555
Mg125 Mg131 3.155697 1_555
Mg125 Mg99 3.161868 1_555
Mg125 Mg3 3.196123 1_556
Mg125 Mg5 3.196137 1_556
Mg125 Mg147 3.222212 1_545
Mg125 Mg146 3.222219 1_655
Mg126 Mg16 3.150667 1_556
Mg126 Mg142 3.152124 1_555
Mg126 Mg143 3.152156 1_655
Mg126 Mg132 3.155688 1_555
Mg126 Mg133 3.155697 1_555
Mg126 Mg22 3.196123 1_556
Mg126 Mg23 3.196137 1_556
Mg126 Mg147 3.222212 1_555
Mg126 Mg148 3.222219 1_655
Mg127 Mg130 3.169485 1_555
Mg127 Mg128 3.169485 1_555
Mg127 Mg132 3.169494 1_555
Mg127 Mg129 3.169494 1_555
Mg127 Mg131 3.169501 1_555
Mg127 Mg133 3.169501 1_555
Mg127 Mg8 3.192906 1_556
Mg127 Mg13 3.192906 1_556
Mg128 Mg129 3.162040 1_555
Mg128 Mg130 3.176941 1_555
Mg128 Mg8 3.178424 1_556
Mg128 Mg139 3.179037 1_545
Mg128 Mg7 3.200990 1_556
Mg128 Mg144 3.201932 1_545
Mg129 Mg131 3.176940 1_555
Mg129 Mg8 3.178432 1_556
Mg129 Mg139 3.179036 1_545
Mg129 Mg99 3.196491 1_555
Mg129 Mg6 3.200990 1_556
Mg129 Mg145 3.201941 1_545
Mg130 Mg132 3.162040 1_555
Mg130 Mg138 3.179037 1_555
Mg130 Mg7 3.200990 1_556
Mg130 Mg140 3.201924 1_555
Mg131 Mg133 3.162041 1_555
Mg131 Mg137 3.179036 1_655
Mg131 Mg99 3.196499 1_555
Mg131 Mg6 3.200990 1_556
Mg131 Mg141 3.201940 1_655
Mg132 Mg133 3.176940 1_555
Mg132 Mg138 3.179036 1_555
Mg132 Mg18 3.189030 1_556
Mg132 Mg16 3.200990 1_556
Mg132 Mg142 3.201925 1_555
Mg133 Mg137 3.179036 1_655
Mg133 Mg17 3.189021 1_556
Mg133 Mg16 3.200990 1_556
Mg133 Mg143 3.201932 1_655
Mg134 Mg15 3.181748 1_556
Mg134 Mg14 3.181764 1_556
Mg134 Mg138 3.183343 1_555
Mg134 Mg137 3.183359 1_555
Mg134 Mg135 3.197022 1_555
Mg134 Mg136 3.197023 1_555
Mg134 Mg141 3.201168 1_555
Mg134 Mg140 3.201169 1_555
Mg134 Mg9 3.204502 1_556
Mg135 Mg15 3.181748 1_556
Mg135 Mg19 3.181756 1_556
Mg135 Mg138 3.183344 1_555
Mg135 Mg139 3.183360 1_555
Mg135 Mg136 3.197022 1_555
Mg135 Mg142 3.201168 1_555
Mg135 Mg145 3.201168 1_555
Mg135 Mg20 3.204501 1_556
Mg136 Mg19 3.181748 1_556
Mg136 Mg14 3.181748 1_556
Mg136 Mg139 3.183351 1_555
Mg136 Mg137 3.183351 1_555
Mg136 Mg143 3.201168 1_555
Mg136 Mg144 3.201169 1_555
Mg136 Mg21 3.204510 1_556
Mg137 Mg14 3.175482 1_556
Mg137 Mg17 3.202180 1_456
Mg137 Mg143 3.219804 1_555
Mg137 Mg141 3.219820 1_555
Mg138 Mg15 3.175490 1_556
Mg138 Mg18 3.202180 1_556
Mg138 Mg142 3.219811 1_555
Mg138 Mg140 3.219811 1_555
Mg139 Mg19 3.175490 1_556
Mg139 Mg144 3.219803 1_555
Mg139 Mg145 3.219819 1_555
Mg140 Mg9 3.156810 1_556
Mg140 Mg141 3.159569 1_555
Mg140 Mg146 3.237949 1_555
Mg140 Mg4 3.254510 1_556
Mg141 Mg9 3.156810 1_556
Mg141 Mg146 3.237942 1_555
Mg141 Mg5 3.254510 1_456
Mg142 Mg20 3.156810 1_556
Mg142 Mg145 3.159570 1_555
Mg142 Mg18 3.160693 1_556
Mg142 Mg147 3.237949 1_555
Mg142 Mg22 3.254518 1_556
Mg143 Mg21 3.156810 1_556
Mg143 Mg144 3.159569 1_555
Mg143 Mg17 3.160701 1_456
Mg143 Mg148 3.237959 1_555
Mg143 Mg23 3.254518 1_456
Mg144 Mg21 3.156802 1_556
Mg144 Mg148 3.237957 1_555
Mg144 Mg2 3.254518 1_566
Mg145 Mg20 3.156810 1_556
Mg145 Mg147 3.237941 1_555
Mg145 Mg3 3.254518 1_566
Mg146 Os0 2.976739 1_556
Mg147 Os0 2.976739 1_666
Mg148 Os0 2.976739 1_566
