# generated using pymatgen
data_Na4CO4
_symmetry_space_group_name_H-M   'P 1'
_cell_length_a   7.83226773
_cell_length_b   3.73171256
_cell_length_c   7.34071281
_cell_angle_alpha   101.50115200
_cell_angle_beta   116.49671872
_cell_angle_gamma   52.53656863
_symmetry_Int_Tables_number   1
_chemical_formula_structural   Na4CO4
_chemical_formula_sum   'Na4 C1 O4'
_cell_volume   151.62662908
_cell_formula_units_Z   1
loop_
 _symmetry_equiv_pos_site_id
 _symmetry_equiv_pos_as_xyz
  1  'x, y, z'
loop_
 _atom_site_type_symbol
 _atom_site_label
 _atom_site_symmetry_multiplicity
 _atom_site_fract_x
 _atom_site_fract_y
 _atom_site_fract_z
 _atom_site_occupancy
  Na  Na0  1  0.74923100  0.68333000  0.89203800  1
  Na  Na1  1  0.19088200  0.96109500  0.50617500  1
  Na  Na2  1  0.28762100  0.69148900  0.91448400  1
  Na  Na3  1  0.74121000  0.03111000  0.55182600  1
  C  C0  1  0.26157200  0.24110600  0.22198700  1
  O  O0  1  0.08547700  0.49469700  0.26211100  1
  O  O1  1  0.39805900  0.28921600  0.20565600  1
  O  O2  1  0.96485700  0.29693000  0.68701600  1
  O  O3  1  0.52997100  0.41546600  0.75870600  1
loop_
_geom_bond_atom_site_label_1
_geom_bond_atom_site_label_2
_geom_bond_distance
_geom_bond_site_symmetry_2
Na0 O3 2.259338 1_555
Na0 O3 2.287013 1_565
Na0 O2 2.374138 1_555
Na0 O0 2.633380 1_656
Na1 O3 2.273641 1_555
Na1 O2 2.280649 1_465
Na1 O0 2.441214 1_565
Na1 O0 2.470894 1_555
Na2 O3 2.249488 1_555
Na2 O2 2.252367 1_465
Na2 O1 2.370744 1_556
Na3 O2 2.281947 1_555
Na3 O2 2.292235 1_545
Na3 O3 2.363757 1_555
Na3 O1 2.518200 1_555
C0 O1 1.243293 1_555
C0 O0 1.244223 1_555
