# generated using pymatgen
data_Nb3Bi
_symmetry_space_group_name_H-M   'P 1'
_cell_length_a   6.21748728
_cell_length_b   6.21748728
_cell_length_c   18.16337200
_cell_angle_alpha   90.00000000
_cell_angle_beta   90.00000000
_cell_angle_gamma   110.36413718
_symmetry_Int_Tables_number   1
_chemical_formula_structural   Nb3Bi
_chemical_formula_sum   'Nb24 Bi8'
_cell_volume   658.26014175
_cell_formula_units_Z   8
loop_
 _symmetry_equiv_pos_site_id
 _symmetry_equiv_pos_as_xyz
  1  'x, y, z'
loop_
 _atom_site_type_symbol
 _atom_site_label
 _atom_site_symmetry_multiplicity
 _atom_site_fract_x
 _atom_site_fract_y
 _atom_site_fract_z
 _atom_site_occupancy
  Nb  Nb0_0  1  0.25000000  0.25000000  0.36740350  1
  Nb  Nb0_1  1  0.25000000  0.25000000  0.86740350  1
  Nb  Nb0_2  1  0.25000000  0.75000000  0.36740350  1
  Nb  Nb0_3  1  0.25000000  0.75000000  0.86740350  1
  Nb  Nb0_4  1  0.75000000  0.25000000  0.36740350  1
  Nb  Nb0_5  1  0.75000000  0.25000000  0.86740350  1
  Nb  Nb0_6  1  0.75000000  0.75000000  0.36740350  1
  Nb  Nb0_7  1  0.75000000  0.75000000  0.86740350  1
  Nb  Nb1_0  1  0.00000000  0.00000000  0.25000000  1
  Nb  Nb1_1  1  0.00000000  0.00000000  0.75000000  1
  Nb  Nb1_2  1  0.00000000  0.50000000  0.25000000  1
  Nb  Nb1_3  1  0.00000000  0.50000000  0.75000000  1
  Nb  Nb1_4  1  0.50000000  0.00000000  0.25000000  1
  Nb  Nb1_5  1  0.50000000  0.00000000  0.75000000  1
  Nb  Nb1_6  1  0.50000000  0.50000000  0.25000000  1
  Nb  Nb1_7  1  0.50000000  0.50000000  0.75000000  1
  Nb  Nb2_0  1  0.25000000  0.25000000  0.13259650  1
  Nb  Nb2_1  1  0.25000000  0.25000000  0.63259650  1
  Nb  Nb2_2  1  0.25000000  0.75000000  0.13259650  1
  Nb  Nb2_3  1  0.25000000  0.75000000  0.63259650  1
  Nb  Nb2_4  1  0.75000000  0.25000000  0.13259650  1
  Nb  Nb2_5  1  0.75000000  0.25000000  0.63259650  1
  Nb  Nb2_6  1  0.75000000  0.75000000  0.13259650  1
  Nb  Nb2_7  1  0.75000000  0.75000000  0.63259650  1
  Bi  Bi0_0  1  0.00000000  0.00000000  0.00000000  1
  Bi  Bi0_1  1  0.00000000  0.00000000  0.50000000  1
  Bi  Bi0_2  1  0.00000000  0.50000000  0.00000000  1
  Bi  Bi0_3  1  0.00000000  0.50000000  0.50000000  1
  Bi  Bi0_4  1  0.50000000  0.00000000  0.00000000  1
  Bi  Bi0_5  1  0.50000000  0.00000000  0.50000000  1
  Bi  Bi0_6  1  0.50000000  0.50000000  0.00000000  1
  Bi  Bi0_7  1  0.50000000  0.50000000  0.50000000  1
loop_
_geom_bond_atom_site_label_1
_geom_bond_atom_site_label_2
_geom_bond_distance
_geom_bond_site_symmetry_2
Nb0_0 Nb1_6 2.774517 1_555
Nb0_0 Nb1_0 2.774517 1_555
Nb0_1 Nb1_1 2.774517 1_555
Nb0_1 Nb1_7 2.774517 1_555
Nb0_2 Nb1_2 2.774517 1_555
Nb0_2 Nb1_4 2.774517 1_565
Nb0_3 Nb1_3 2.774517 1_555
Nb0_3 Nb1_5 2.774517 1_565
Nb0_4 Nb1_2 2.774517 1_655
Nb0_4 Nb1_4 2.774517 1_555
Nb0_5 Nb1_3 2.774517 1_655
Nb0_5 Nb1_5 2.774517 1_555
Nb0_6 Nb1_0 2.774517 1_665
Nb0_6 Nb1_6 2.774517 1_555
Nb0_7 Nb1_1 2.774517 1_665
Nb0_7 Nb1_7 2.774517 1_555
Nb1_0 Nb2_6 2.774517 1_445
Nb1_0 Nb2_0 2.774517 1_555
Nb1_0 Nb1_2 3.108744 1_555
Nb1_0 Nb1_4 3.108744 1_455
Nb1_0 Nb1_4 3.108744 1_555
Nb1_0 Nb1_2 3.108744 1_545
Nb1_1 Nb2_7 2.774517 1_445
Nb1_1 Nb2_1 2.774517 1_555
Nb1_1 Nb1_3 3.108744 1_555
Nb1_1 Nb1_5 3.108744 1_455
Nb1_1 Nb1_3 3.108744 1_545
Nb1_1 Nb1_5 3.108744 1_555
Nb1_2 Nb2_2 2.774517 1_555
Nb1_2 Nb2_4 2.774517 1_455
Nb1_2 Nb1_6 3.108744 1_455
Nb1_2 Nb1_6 3.108744 1_555
Nb1_3 Nb2_3 2.774517 1_555
Nb1_3 Nb2_5 2.774517 1_455
Nb1_3 Nb1_7 3.108744 1_555
Nb1_3 Nb1_7 3.108744 1_455
Nb1_4 Nb2_2 2.774517 1_545
Nb1_4 Nb2_4 2.774517 1_555
Nb1_4 Nb1_6 3.108744 1_555
Nb1_4 Nb1_6 3.108744 1_545
Nb1_5 Nb2_5 2.774517 1_555
Nb1_5 Nb2_3 2.774517 1_545
Nb1_5 Nb1_7 3.108744 1_555
Nb1_5 Nb1_7 3.108744 1_545
Nb1_6 Nb2_0 2.774517 1_555
Nb1_6 Nb2_6 2.774517 1_555
Nb1_7 Nb2_1 2.774517 1_555
Nb1_7 Nb2_7 2.774517 1_555
Bi0_0 Nb0_7 2.991825 1_444
Bi0_0 Nb0_1 2.991825 1_554
Bi0_0 Nb2_6 2.991825 1_445
Bi0_0 Nb2_0 2.991825 1_555
Bi0_1 Nb0_6 2.991825 1_445
Bi0_1 Nb0_0 2.991825 1_555
Bi0_1 Nb2_7 2.991825 1_445
Bi0_1 Nb2_1 2.991825 1_555
Bi0_2 Nb0_3 2.991825 1_554
Bi0_2 Nb0_5 2.991825 1_454
Bi0_2 Nb2_2 2.991825 1_555
Bi0_2 Nb2_4 2.991825 1_455
Bi0_3 Nb0_2 2.991825 1_555
Bi0_3 Nb0_4 2.991825 1_455
Bi0_3 Nb2_3 2.991825 1_555
Bi0_3 Nb2_5 2.991825 1_455
Bi0_4 Nb0_3 2.991825 1_544
Bi0_4 Nb0_5 2.991825 1_554
Bi0_4 Nb2_4 2.991825 1_555
Bi0_4 Nb2_2 2.991825 1_545
Bi0_5 Nb0_4 2.991825 1_555
Bi0_5 Nb0_2 2.991825 1_545
Bi0_5 Nb2_5 2.991825 1_555
Bi0_5 Nb2_3 2.991825 1_545
Bi0_6 Nb0_1 2.991825 1_554
Bi0_6 Nb0_7 2.991825 1_554
Bi0_6 Nb2_0 2.991825 1_555
Bi0_6 Nb2_6 2.991825 1_555
Bi0_7 Nb0_0 2.991825 1_555
Bi0_7 Nb0_6 2.991825 1_555
Bi0_7 Nb2_1 2.991825 1_555
Bi0_7 Nb2_7 2.991825 1_555
