# generated using pymatgen
data_CeSe2
_symmetry_space_group_name_H-M   'P 1'
_cell_length_a   13.66817953
_cell_length_b   13.66817953
_cell_length_c   23.50353644
_cell_angle_alpha   90.00000000
_cell_angle_beta   90.00000000
_cell_angle_gamma   101.38201519
_symmetry_Int_Tables_number   1
_chemical_formula_structural   CeSe2
_chemical_formula_sum   'Ce16 Se32'
_cell_volume   4304.55498398
_cell_formula_units_Z   16
loop_
 _symmetry_equiv_pos_site_id
 _symmetry_equiv_pos_as_xyz
  1  'x, y, z'
loop_
 _atom_site_type_symbol
 _atom_site_label
 _atom_site_symmetry_multiplicity
 _atom_site_fract_x
 _atom_site_fract_y
 _atom_site_fract_z
 _atom_site_occupancy
  Ce  Ce0  1  0.58705166  0.18795058  0.68088037  1
  Ce  Ce1  1  0.18795058  0.58705166  0.31911963  1
  Ce  Ce2  1  0.41294834  0.81204942  0.68088037  1
  Ce  Ce3  1  0.81204942  0.41294834  0.31911963  1
  Ce  Ce4  1  0.90961021  0.31202835  0.81619084  1
  Ce  Ce5  1  0.31202835  0.90961021  0.18380916  1
  Ce  Ce6  1  0.09038979  0.68797165  0.81619084  1
  Ce  Ce7  1  0.68797165  0.09038979  0.18380916  1
  Ce  Ce8  1  0.66156070  0.33843930  0.50000000  1
  Ce  Ce9  1  0.33843930  0.66156070  0.50000000  1
  Ce  Ce10  1  0.50000000  0.50000000  0.63429163  1
  Ce  Ce11  1  0.50000000  0.50000000  0.36570837  1
  Ce  Ce12  1  -0.00000000  0.00000000  0.86028403  1
  Ce  Ce13  1  -0.00000000  0.00000000  0.13971597  1
  Ce  Ce14  1  0.83971908  0.16028092  -0.00000000  1
  Ce  Ce15  1  0.16028092  0.83971908  -0.00000000  1
  Se  Se0  1  0.50000000  0.00000000  0.71479909  1
  Se  Se1  1  -0.00000000  0.50000000  0.28520091  1
  Se  Se2  1  0.74758168  0.25320309  0.74866277  1
  Se  Se3  1  0.25320309  0.74758168  0.25133723  1
  Se  Se4  1  0.25241832  0.74679691  0.74866277  1
  Se  Se5  1  0.74679691  0.25241832  0.25133723  1
  Se  Se6  1  0.64141258  0.17742015  0.57033829  1
  Se  Se7  1  0.17742015  0.64141258  0.42966171  1
  Se  Se8  1  0.35858742  0.82257985  0.57033829  1
  Se  Se9  1  0.82257985  0.35858742  0.42966171  1
  Se  Se10  1  0.46791693  0.32387358  0.69247125  1
  Se  Se11  1  0.32387358  0.46791693  0.30752875  1
  Se  Se12  1  0.53208307  0.67612642  0.69247125  1
  Se  Se13  1  0.67612642  0.53208307  0.30752875  1
  Se  Se14  1  0.85856257  0.31885817  0.92800832  1
  Se  Se15  1  0.31885817  0.85856257  0.07199168  1
  Se  Se16  1  0.14143743  0.68114183  0.92800832  1
  Se  Se17  1  0.68114183  0.14143743  0.07199168  1
  Se  Se18  1  0.02606020  0.17451254  0.80080450  1
  Se  Se19  1  0.17451254  0.02606020  0.19919550  1
  Se  Se20  1  0.97393980  0.82548746  0.80080450  1
  Se  Se21  1  0.82548746  0.97393980  0.19919550  1
  Se  Se22  1  0.66352911  0.49715243  0.56967210  1
  Se  Se23  1  0.49715243  0.66352911  0.43032790  1
  Se  Se24  1  0.33647089  0.50284757  0.56967210  1
  Se  Se25  1  0.50284757  0.33647089  0.43032790  1
  Se  Se26  1  -0.00000000  0.50000000  0.78305420  1
  Se  Se27  1  0.50000000  0.00000000  0.21694580  1
  Se  Se28  1  0.16192923  0.99322572  0.92619860  1
  Se  Se29  1  0.99322572  0.16192923  0.07380140  1
  Se  Se30  1  0.83807077  0.00677428  0.92619860  1
  Se  Se31  1  0.00677428  0.83807077  0.07380140  1
loop_
_geom_bond_atom_site_label_1
_geom_bond_atom_site_label_2
_geom_bond_distance
_geom_bond_site_symmetry_2
Ce0 Se6 2.713904 1_555
Ce0 Se10 2.715012 1_555
Ce0 Se2 2.715772 1_555
Ce0 Se0 2.728420 1_555
Ce1 Se7 2.713904 1_555
Ce1 Se11 2.715012 1_555
Ce1 Se3 2.715772 1_555
Ce1 Se1 2.728420 1_555
Ce2 Se8 2.713904 1_555
Ce2 Se12 2.715012 1_555
Ce2 Se4 2.715772 1_555
Ce2 Se0 2.728420 1_565
Ce3 Se9 2.713904 1_555
Ce3 Se13 2.715012 1_555
Ce3 Se5 2.715772 1_555
Ce3 Se1 2.728420 1_655
Ce4 Se2 2.714277 1_555
Ce4 Se18 2.716216 1_655
Ce4 Se14 2.725471 1_555
Ce4 Se26 2.735149 1_655
Ce5 Se3 2.714277 1_555
Ce5 Se19 2.716216 1_565
Ce5 Se15 2.725471 1_555
Ce5 Se27 2.735149 1_565
Ce6 Se4 2.714277 1_555
Ce6 Se20 2.716216 1_455
Ce6 Se16 2.725471 1_555
Ce6 Se26 2.735149 1_555
Ce7 Se5 2.714277 1_555
Ce7 Se21 2.716216 1_545
Ce7 Se17 2.725471 1_555
Ce7 Se27 2.735149 1_555
Ce8 Se22 2.713885 1_555
Ce8 Se25 2.713885 1_555
Ce8 Se9 2.722751 1_555
Ce8 Se6 2.722751 1_555
Ce9 Se23 2.713885 1_555
Ce9 Se24 2.713885 1_555
Ce9 Se7 2.722751 1_555
Ce9 Se8 2.722751 1_555
Ce10 Se24 2.708956 1_555
Ce10 Se22 2.708956 1_555
Ce10 Se10 2.727767 1_555
Ce10 Se12 2.727767 1_555
Ce11 Se25 2.708956 1_555
Ce11 Se23 2.708956 1_555
Ce11 Se11 2.727767 1_555
Ce11 Se13 2.727767 1_555
Ce12 Se28 2.718117 1_545
Ce12 Se30 2.718117 1_455
Ce12 Se18 2.726790 1_555
Ce12 Se20 2.726790 1_445
Ce13 Se29 2.718117 1_455
Ce13 Se31 2.718117 1_545
Ce13 Se19 2.726790 1_555
Ce13 Se21 2.726790 1_445
Ce14 Se29 2.718994 1_555
Ce14 Se30 2.718994 1_554
Ce14 Se14 2.721572 1_554
Ce14 Se17 2.721572 1_555
Ce15 Se31 2.718994 1_555
Ce15 Se28 2.718994 1_554
Ce15 Se16 2.721572 1_554
Ce15 Se15 2.721572 1_555
