# generated using pymatgen
data_BaNaNd(SiO3)3
_symmetry_space_group_name_H-M   'P 1'
_cell_length_a   5.73224300
_cell_length_b   11.69211500
_cell_length_c   12.76310000
_cell_angle_alpha   90.00000000
_cell_angle_beta   90.00000000
_cell_angle_gamma   90.00000000
_symmetry_Int_Tables_number   1
_chemical_formula_structural   BaNaNd(SiO3)3
_chemical_formula_sum   'Ba4 Na4 Nd4 Si12 O36'
_cell_volume   855.40905442
_cell_formula_units_Z   4
loop_
 _symmetry_equiv_pos_site_id
 _symmetry_equiv_pos_as_xyz
  1  'x, y, z'
loop_
 _atom_site_type_symbol
 _atom_site_label
 _atom_site_symmetry_multiplicity
 _atom_site_fract_x
 _atom_site_fract_y
 _atom_site_fract_z
 _atom_site_occupancy
  Ba  Ba0  1  0.10404700  0.61847400  0.07965500  1
  Ba  Ba1  1  0.60404700  0.88152600  0.92034500  1
  Ba  Ba2  1  0.89595300  0.11847400  0.42034500  1
  Ba  Ba3  1  0.39595300  0.38152600  0.57965500  1
  Na  Na0  1  0.06539100  0.28722100  0.10396400  1
  Na  Na1  1  0.56539100  0.21277900  0.89603600  1
  Na  Na2  1  0.43460900  0.71277900  0.60396400  1
  Na  Na3  1  0.93460900  0.78722100  0.39603600  1
  Nd  Nd0  1  0.38657300  0.02777500  0.63988500  1
  Nd  Nd1  1  0.88657300  0.47222500  0.36011500  1
  Nd  Nd2  1  0.61342700  0.52777500  0.86011500  1
  Nd  Nd3  1  0.11342700  0.97222500  0.13988500  1
  Si  Si0  1  0.10105900  0.08735100  0.87687800  1
  Si  Si1  1  0.60098800  0.80350200  0.18696500  1
  Si  Si2  1  0.89901200  0.19649800  0.68696500  1
  Si  Si3  1  0.10098800  0.69649800  0.81303500  1
  Si  Si4  1  0.40503600  0.65351900  0.35602600  1
  Si  Si5  1  0.90503600  0.84648100  0.64397400  1
  Si  Si6  1  0.59496400  0.15351900  0.14397400  1
  Si  Si7  1  0.09496400  0.34648100  0.85602600  1
  Si  Si8  1  0.39894100  0.91264800  0.37687800  1
  Si  Si9  1  0.89894100  0.58735200  0.62312200  1
  Si  Si10  1  0.39901200  0.30350200  0.31303500  1
  Si  Si11  1  0.60105900  0.41264800  0.12312200  1
  O  O0  1  0.14709600  0.94204000  0.32544400  1
  O  O1  1  0.64709600  0.55796000  0.67455600  1
  O  O2  1  0.85290400  0.44204000  0.17455600  1
  O  O3  1  0.35290400  0.05796000  0.82544400  1
  O  O4  1  0.34329800  0.68419400  0.87667900  1
  O  O5  1  0.84329800  0.81580600  0.12332100  1
  O  O6  1  0.65670200  0.18419400  0.62332100  1
  O  O7  1  0.15670200  0.31580600  0.37667900  1
  O  O8  1  0.50539800  0.50110600  0.03681500  1
  O  O9  1  0.00539800  0.99889400  0.96318500  1
  O  O10  1  0.49460200  0.00110600  0.46318500  1
  O  O11  1  0.99460200  0.49889400  0.53681500  1
  O  O12  1  0.39214400  0.77788100  0.42515000  1
  O  O13  1  0.89214400  0.72211900  0.57485000  1
  O  O14  1  0.08928300  0.81844600  0.74385200  1
  O  O15  1  0.60785600  0.27788100  0.07485000  1
  O  O16  1  0.37317400  0.81225900  0.11210700  1
  O  O17  1  0.87317400  0.68774100  0.88789300  1
  O  O18  1  0.62682600  0.31225900  0.38789300  1
  O  O19  1  0.12682600  0.18774100  0.61210700  1
  O  O20  1  0.09878000  0.59628100  0.71876700  1
  O  O21  1  0.59878000  0.90371900  0.28123300  1
  O  O22  1  0.90122000  0.09628100  0.78123300  1
  O  O23  1  0.40122000  0.40371900  0.21876700  1
  O  O24  1  0.35770600  0.37346300  0.81571900  1
  O  O25  1  0.85770600  0.12653700  0.18428100  1
  O  O26  1  0.64229400  0.87346300  0.68428100  1
  O  O27  1  0.14229400  0.62653700  0.31571900  1
  O  O28  1  0.96402400  0.43985100  0.92795900  1
  O  O29  1  0.46402400  0.06014900  0.07204100  1
  O  O30  1  0.03597600  0.93985100  0.57204100  1
  O  O31  1  0.53597600  0.56014900  0.42795900  1
  O  O32  1  0.41071700  0.18155400  0.24385200  1
  O  O33  1  0.91071700  0.31844600  0.75614800  1
  O  O34  1  0.58928300  0.68155400  0.25614800  1
  O  O35  1  0.10785600  0.22211900  0.92515000  1
loop_
_geom_bond_atom_site_label_1
_geom_bond_atom_site_label_2
_geom_bond_distance
_geom_bond_site_symmetry_2
Ba0 O8 2.734056 1_555
Ba0 O16 2.772207 1_555
Ba0 O2 2.791965 1_455
Ba0 O5 2.804988 1_455
Ba0 O17 2.897842 1_454
Ba0 O28 2.958804 1_454
Ba0 O27 3.022345 1_555
Ba0 O4 3.030269 1_554
Ba1 O9 2.734056 1_655
Ba1 O17 2.772207 1_555
Ba1 O3 2.791965 1_565
Ba1 O4 2.804988 1_555
Ba1 O16 2.897842 1_556
Ba1 O29 2.958804 1_566
Ba1 O26 3.022345 1_555
Ba1 O5 3.030269 1_556
Ba2 O10 2.734056 1_555
Ba2 O18 2.772207 1_555
Ba2 O0 2.791965 1_645
Ba2 O7 2.804988 1_655
Ba2 O19 2.897842 1_655
Ba2 O30 2.958804 1_645
Ba2 O25 3.022345 1_555
Ba2 O6 3.030269 1_555
Ba3 O11 2.734056 1_455
Ba3 O19 2.772207 1_555
Ba3 O1 2.791965 1_555
Ba3 O6 2.804988 1_555
Ba3 O18 2.897842 1_555
Ba3 O31 2.958804 1_555
Ba3 O24 3.022345 1_555
Ba3 O7 3.030269 1_555
Na0 O2 2.360514 1_455
Na0 O35 2.418094 1_554
Na0 O25 2.449032 1_455
Na0 O15 2.651144 1_455
Na0 O23 2.776347 1_555
Na0 O28 2.927198 1_454
Na0 O32 2.938103 1_555
Na1 O3 2.360514 1_555
Na1 O15 2.418094 1_556
Na1 O24 2.449032 1_555
Na1 O35 2.651144 1_555
Na1 O22 2.776347 1_555
Na1 O29 2.927198 1_556
Na1 O33 2.938103 1_555
Na2 O1 2.360514 1_555
Na2 O12 2.418094 1_555
Na2 O26 2.449032 1_555
Na2 O13 2.651144 1_555
Na2 O20 2.776347 1_555
Na2 O31 2.927198 1_555
Na2 O14 2.938103 1_555
Na3 O0 2.360514 1_655
Na3 O13 2.418094 1_555
Na3 O27 2.449032 1_655
Na3 O12 2.651144 1_655
Na3 O21 2.776347 1_555
Na3 O30 2.927198 1_655
Na3 O34 2.938103 1_555
Nd0 O10 2.359408 1_555
Nd0 O26 2.392710 1_545
Nd0 O3 2.402226 1_555
Nd0 O6 2.405647 1_555
Nd0 O19 2.416773 1_555
Nd0 O30 2.417752 1_545
Nd1 O11 2.359408 1_555
Nd1 O27 2.392710 1_655
Nd1 O2 2.402226 1_555
Nd1 O7 2.405647 1_655
Nd1 O18 2.416773 1_555
Nd1 O31 2.417752 1_555
Nd2 O8 2.359408 1_556
Nd2 O24 2.392710 1_555
Nd2 O1 2.402226 1_555
Nd2 O4 2.405647 1_555
Nd2 O17 2.416773 1_555
Nd2 O28 2.417752 1_555
Nd3 O9 2.359408 1_554
Nd3 O25 2.392710 1_465
Nd3 O0 2.402226 1_555
Nd3 O5 2.405647 1_455
Nd3 O16 2.416773 1_555
Nd3 O29 2.417752 1_565
O0 Si8 1.622690 1_555
O1 Si9 1.622690 1_555
O2 Si11 1.622690 1_555
O3 Si0 1.622687 1_555
O4 Si3 1.615482 1_555
O5 Si1 1.615482 1_555
O6 Si2 1.615482 1_555
O7 Si10 1.615482 1_555
O8 Si11 1.607416 1_555
O9 Si0 1.607409 1_565
O10 Si8 1.607416 1_545
O11 Si9 1.607416 1_555
O12 Si8 1.692325 1_555
O12 Si4 1.702374 1_555
O13 Si9 1.692325 1_555
O13 Si5 1.702374 1_555
O14 Si3 1.678441 1_555
O14 Si5 1.687569 1_455
O15 Si11 1.692325 1_555
O15 Si6 1.702374 1_555
O16 Si1 1.621310 1_555
O17 Si3 1.621310 1_655
O18 Si10 1.621310 1_555
O19 Si2 1.621310 1_455
O20 Si9 1.677290 1_455
O20 Si3 1.679503 1_555
O21 Si8 1.677290 1_555
O21 Si1 1.679503 1_555
O22 Si0 1.677291 1_655
O22 Si2 1.679503 1_555
O23 Si11 1.677290 1_555
O23 Si10 1.679503 1_555
O24 Si7 1.622503 1_555
O25 Si6 1.622503 1_555
O26 Si5 1.622503 1_555
O27 Si4 1.622503 1_555
O28 Si7 1.611846 1_655
O29 Si6 1.611846 1_555
O30 Si5 1.611846 1_455
O31 Si4 1.611846 1_555
O32 Si10 1.678441 1_555
O32 Si6 1.687569 1_555
O33 Si2 1.678441 1_555
O33 Si7 1.687569 1_655
O34 Si1 1.678441 1_555
O34 Si4 1.687569 1_555
O35 Si0 1.692336 1_555
O35 Si7 1.702374 1_555
