# generated using pymatgen
data_YbV4O8
_symmetry_space_group_name_H-M   'P 1'
_cell_length_a   5.68523821
_cell_length_b   9.05171382
_cell_length_c   9.66350900
_cell_angle_alpha   90.00000000
_cell_angle_beta   90.00000000
_cell_angle_gamma   101.28731738
_symmetry_Int_Tables_number   1
_chemical_formula_structural   YbV4O8
_chemical_formula_sum   'Yb2 V8 O16'
_cell_volume   487.67659750
_cell_formula_units_Z   2
loop_
 _symmetry_equiv_pos_site_id
 _symmetry_equiv_pos_as_xyz
  1  'x, y, z'
loop_
 _atom_site_type_symbol
 _atom_site_label
 _atom_site_symmetry_multiplicity
 _atom_site_fract_x
 _atom_site_fract_y
 _atom_site_fract_z
 _atom_site_occupancy
  Yb  Yb0  1  0.44404700  0.15697000  0.86545000  1
  Yb  Yb1  1  0.94404700  0.65697000  0.63455000  1
  V  V0  1  0.18875600  0.40346400  0.73327500  1
  V  V1  1  0.27364400  0.46037900  0.07696900  1
  V  V2  1  0.26983500  0.04776600  0.56392600  1
  V  V3  1  0.23445700  0.10817800  0.20757000  1
  V  V4  1  0.68875600  0.90346400  0.76672500  1
  V  V5  1  0.77364400  0.96037900  0.42303100  1
  V  V6  1  0.76983500  0.54776600  0.93607400  1
  V  V7  1  0.73445700  0.60817800  0.29243000  1
  O  O0  1  0.08046800  0.58376600  0.04497900  1
  O  O1  1  0.28103200  0.56306200  0.64136700  1
  O  O2  1  0.38222900  0.40715800  0.89800700  1
  O  O3  1  0.23525700  0.21814400  0.67232600  1
  O  O4  1  0.18298000  0.30658700  0.19049700  1
  O  O5  1  0.10842000  0.02250300  0.38166300  1
  O  O6  1  0.30687600  0.03505600  0.05353400  1
  O  O7  1  0.38574800  0.93776700  0.70987400  1
  O  O8  1  0.58046800  0.08376600  0.45502100  1
  O  O9  1  0.78103200  0.06306200  0.85863300  1
  O  O10  1  0.88222900  0.90715800  0.60199300  1
  O  O11  1  0.73525700  0.71814400  0.82767400  1
  O  O12  1  0.68298000  0.80658700  0.30950300  1
  O  O13  1  0.60842000  0.52250300  0.11833700  1
  O  O14  1  0.80687600  0.53505600  0.44646600  1
  O  O15  1  0.88574800  0.43776700  0.79012600  1
loop_
_geom_bond_atom_site_label_1
_geom_bond_atom_site_label_2
_geom_bond_distance
_geom_bond_site_symmetry_2
O0 V1 1.740479 1_555
O0 V6 2.026648 1_454
O1 V0 1.689476 1_555
O1 Yb1 2.243842 1_455
O2 V1 1.928838 1_556
O2 V0 1.931502 1_555
O2 V6 2.348039 1_555
O2 Yb0 2.379624 1_555
O3 V0 1.845067 1_555
O3 V2 1.906057 1_555
O3 Yb0 2.335775 1_555
O4 V1 1.768126 1_555
O4 V3 1.882558 1_555
O5 V5 1.918212 1_445
O5 V3 1.930705 1_555
O5 V2 1.978500 1_555
O6 V3 1.711721 1_555
O6 Yb0 2.189190 1_554
O7 V4 1.890825 1_555
O7 V2 1.916154 1_565
O7 Yb0 2.459586 1_565
O8 V5 1.740479 1_545
O8 V2 2.026648 1_555
O9 V4 1.689476 1_545
O9 Yb0 2.243842 1_555
O10 V5 1.928838 1_555
O10 V4 1.931502 1_555
O10 V2 2.348039 1_665
O10 Yb1 2.379624 1_555
O11 V4 1.845067 1_555
O11 V6 1.906057 1_555
O11 Yb1 2.335775 1_555
O12 V5 1.768126 1_555
O12 V7 1.882558 1_555
O13 V1 1.918212 1_555
O13 V7 1.930705 1_555
O13 V6 1.978500 1_554
O14 V7 1.711721 1_555
O14 Yb1 2.189190 1_555
O15 V0 1.890825 1_655
O15 V6 1.916154 1_555
O15 Yb1 2.459586 1_555
