# generated using pymatgen
data_Hf27(Si3P5)2
_symmetry_space_group_name_H-M   'P 1'
_cell_length_a   15.21754306
_cell_length_b   15.21754306
_cell_length_c   15.21754306
_cell_angle_alpha   166.75681343
_cell_angle_beta   101.84721094
_cell_angle_gamma   79.70542459
_symmetry_Int_Tables_number   1
_chemical_formula_structural   Hf27(Si3P5)2
_chemical_formula_sum   'Hf27 Si6 P10'
_cell_volume   786.57569900
_cell_formula_units_Z   1
loop_
 _symmetry_equiv_pos_site_id
 _symmetry_equiv_pos_as_xyz
  1  'x, y, z'
loop_
 _atom_site_type_symbol
 _atom_site_label
 _atom_site_symmetry_multiplicity
 _atom_site_fract_x
 _atom_site_fract_y
 _atom_site_fract_z
 _atom_site_occupancy
  Hf  Hf0  1  0.52187800  0.39154800  0.13033000  1
  Hf  Hf1  1  0.47812200  0.60845200  0.86967000  1
  Hf  Hf2  1  0.26121900  0.39154800  0.86967000  1
  Hf  Hf3  1  0.73878100  0.60845200  0.13033000  1
  Hf  Hf4  1  0.31478300  0.18257600  0.13220600  1
  Hf  Hf5  1  0.68521700  0.81742400  0.86779400  1
  Hf  Hf6  1  0.05037000  0.18257600  0.86779400  1
  Hf  Hf7  1  0.94963000  0.81742400  0.13220600  1
  Hf  Hf8  1  0.31593400  0.06914700  0.24678700  1
  Hf  Hf9  1  0.68406600  0.93085300  0.75321300  1
  Hf  Hf10  1  0.82236000  0.06914700  0.75321300  1
  Hf  Hf11  1  0.17764000  0.93085300  0.24678700  1
  Hf  Hf12  1  0.53281200  0.21612400  0.31668800  1
  Hf  Hf13  1  0.46718800  0.78387600  0.68331200  1
  Hf  Hf14  1  0.89943600  0.21612400  0.68331200  1
  Hf  Hf15  1  0.10056400  0.78387600  0.31668800  1
  Hf  Hf16  1  0.82663900  0.42056100  0.40607800  1
  Hf  Hf17  1  0.17336100  0.57943900  0.59392200  1
  Hf  Hf18  1  0.01448300  0.42056100  0.59392200  1
  Hf  Hf19  1  0.98551700  0.57943900  0.40607800  1
  Hf  Hf20  1  0.21929800  0.71929800  0.50000000  1
  Hf  Hf21  1  0.78070200  0.28070200  0.50000000  1
  Hf  Hf22  1  0.35179600  0.85179600  0.50000000  1
  Hf  Hf23  1  0.64820400  0.14820400  0.50000000  1
  Hf  Hf24  1  0.41823400  0.00000000  0.41823400  1
  Hf  Hf25  1  0.58176600  0.00000000  0.58176600  1
  Hf  Hf26  1  0.00000000  0.00000000  0.00000000  1
  Si  Si0  1  0.60974500  0.34234900  0.26739600  1
  Si  Si1  1  0.39025500  0.65765100  0.73260400  1
  Si  Si2  1  0.07495300  0.34234900  0.73260400  1
  Si  Si3  1  0.92504700  0.65765100  0.26739600  1
  Si  Si4  1  0.12620900  0.12620900  0.00000000  1
  Si  Si5  1  0.87379100  0.87379100  0.00000000  1
  P  P0  1  0.36090900  0.28570600  0.07520200  1
  P  P1  1  0.63909200  0.71429400  0.92479800  1
  P  P2  1  0.21050400  0.28570600  0.92479800  1
  P  P3  1  0.78949600  0.71429400  0.07520200  1
  P  P4  1  0.43868800  0.43868800  0.00000000  1
  P  P5  1  0.56131200  0.56131200  0.00000000  1
  P  P6  1  0.68808200  0.50000000  0.18808200  1
  P  P7  1  0.31191800  0.50000000  0.81191800  1
  P  P8  1  0.13968900  0.00000000  0.13968900  1
  P  P9  1  0.86031100  0.00000000  0.86031100  1
loop_
_geom_bond_atom_site_label_1
_geom_bond_atom_site_label_2
_geom_bond_distance
_geom_bond_site_symmetry_2
Hf0 P0 2.689635 1_555
Hf0 P4 2.732213 1_555
Hf0 P6 2.765604 1_555
Hf0 Si0 2.869882 1_555
Hf1 P1 2.689649 1_555
Hf1 P5 2.732213 1_556
Hf1 P7 2.765604 1_555
Hf1 Si1 2.869882 1_555
Hf2 P2 2.689656 1_555
Hf2 P4 2.732200 1_556
Hf2 P7 2.765597 1_555
Hf2 Si2 2.869896 1_555
Hf3 P3 2.689656 1_555
Hf3 P5 2.732200 1_555
Hf3 P6 2.765597 1_555
Hf3 Si3 2.869896 1_555
Hf4 P0 2.646177 1_555
Hf4 Si1 2.669883 1_544
Hf4 Si1 2.669885 1_555
Hf4 Si4 2.857924 1_555
Hf5 P1 2.646170 1_555
Hf5 Si0 2.669883 1_566
Hf5 Si0 2.669885 1_555
Hf5 Si5 2.857924 1_556
Hf6 P2 2.646177 1_555
Hf6 Si3 2.669888 1_445
Hf6 Si3 2.669888 1_456
Hf6 Si4 2.857910 1_556
Hf7 P3 2.646177 1_555
Hf7 Si2 2.669888 1_665
Hf7 Si2 2.669888 1_654
Hf7 Si5 2.857910 1_555
Hf8 P8 2.613782 1_555
Hf8 P7 2.692713 1_544
Hf8 P7 2.692713 1_555
Hf8 Si1 2.725683 1_544
Hf8 Si1 2.725683 1_555
Hf9 P9 2.613782 1_565
Hf9 P6 2.692713 1_566
Hf9 P6 2.692713 1_555
Hf9 Si0 2.725683 1_566
Hf9 Si0 2.725683 1_555
Hf10 P9 2.613782 1_555
Hf10 P6 2.692713 1_545
Hf10 P6 2.692713 1_556
Hf10 Si3 2.725683 1_545
Hf10 Si3 2.725683 1_556
Hf11 P8 2.613782 1_565
Hf11 P7 2.692713 1_554
Hf11 P7 2.692713 1_565
Hf11 Si2 2.725683 1_565
Hf11 Si2 2.725683 1_554
Hf12 P1 2.717136 1_555
Hf12 P1 2.717136 1_544
Hf12 Si1 2.747354 1_544
Hf12 Si1 2.747354 1_555
Hf12 Si0 3.097131 1_555
Hf13 P0 2.717128 1_566
Hf13 P0 2.717130 1_555
Hf13 Si0 2.747354 1_566
Hf13 Si0 2.747354 1_555
Hf13 Si1 3.097131 1_555
Hf14 P3 2.717136 1_556
Hf14 P3 2.717136 1_545
Hf14 Si3 2.747354 1_556
Hf14 Si3 2.747354 1_545
Hf14 Si2 3.097131 1_655
Hf15 P2 2.717136 1_565
Hf15 P2 2.717136 1_554
Hf15 Si2 2.747354 1_565
Hf15 Si2 2.747354 1_554
Hf15 Si3 3.097131 1_455
Hf16 P9 2.700955 1_554
Hf16 P9 2.700955 1_565
Hf16 Si5 2.742286 1_545
Hf16 Si5 2.742286 1_556
Hf16 Si0 3.227732 1_555
Hf17 P8 2.700955 1_566
Hf17 P8 2.700955 1_555
Hf17 Si4 2.742286 1_555
Hf17 Si4 2.742286 1_566
Hf17 Si1 3.227732 1_555
Hf18 P8 2.700955 1_555
Hf18 P8 2.700955 1_566
Hf18 Si5 2.742286 1_445
Hf18 Si5 2.742286 1_456
Hf18 Si2 3.227732 1_555
Hf19 P9 2.700955 1_554
Hf19 P9 2.700955 1_565
Hf19 Si4 2.742286 1_655
Hf19 Si4 2.742286 1_666
Hf19 Si3 3.227732 1_555
Hf20 P2 2.751035 1_565
Hf20 P2 2.751035 1_554
Hf20 P0 2.751045 1_566
Hf20 P0 2.751048 1_555
Hf20 Si4 2.794610 1_566
Hf20 Si4 2.794610 1_555
Hf21 P3 2.751035 1_545
Hf21 P1 2.751035 1_544
Hf21 P1 2.751035 1_555
Hf21 P3 2.751035 1_556
Hf21 Si5 2.794610 1_556
Hf21 Si5 2.794610 1_545
Hf22 P4 2.683460 1_566
Hf22 P4 2.683460 1_555
Hf22 P0 2.746848 1_566
Hf22 P0 2.746851 1_555
Hf22 P2 2.746851 1_554
Hf22 P2 2.746851 1_565
Hf23 P5 2.683460 1_556
Hf23 P5 2.683460 1_545
Hf23 P1 2.746851 1_544
Hf23 P1 2.746851 1_555
Hf23 P3 2.746851 1_545
Hf23 P3 2.746851 1_556
Hf24 P7 2.690616 1_544
Hf24 P7 2.690616 1_555
Hf24 P4 2.755377 1_556
Hf24 P5 2.755377 1_556
Hf24 P4 2.755377 1_545
Hf24 P5 2.755377 1_545
Hf25 P6 2.690616 1_545
Hf25 P6 2.690616 1_556
Hf25 P4 2.755377 1_556
Hf25 P5 2.755377 1_556
Hf25 P4 2.755377 1_545
Hf25 P5 2.755377 1_545
Hf26 P9 2.679925 1_454
Hf26 P8 2.679925 1_555
Hf26 Si4 2.948853 1_555
Hf26 Si5 2.948853 1_445
