# generated using pymatgen
data_Cd5Fe2(P2O7)4
_symmetry_space_group_name_H-M   'P 1'
_cell_length_a   6.73517884
_cell_length_b   6.73517884
_cell_length_c   24.48955200
_cell_angle_alpha   90.00000000
_cell_angle_beta   90.00000000
_cell_angle_gamma   97.20285061
_symmetry_Int_Tables_number   1
_chemical_formula_structural   Cd5Fe2(P2O7)4
_chemical_formula_sum   'Cd10 Fe4 P16 O56'
_cell_volume   1102.14379285
_cell_formula_units_Z   2
loop_
 _symmetry_equiv_pos_site_id
 _symmetry_equiv_pos_as_xyz
  1  'x, y, z'
loop_
 _atom_site_type_symbol
 _atom_site_label
 _atom_site_symmetry_multiplicity
 _atom_site_fract_x
 _atom_site_fract_y
 _atom_site_fract_z
 _atom_site_occupancy
  Cd  Cd0  1  0.69261600  0.69261600  0.50000000  1
  Cd  Cd1  1  0.30738400  0.30738400  0.00000000  1
  Cd  Cd2  1  0.08163300  0.08163300  0.50000000  1
  Cd  Cd3  1  0.91836700  0.91836700  0.00000000  1
  Cd  Cd4  1  0.70354400  0.29645600  0.75000000  1
  Cd  Cd5  1  0.29645600  0.70354400  0.25000000  1
  Cd  Cd6  1  0.03691600  0.33546600  0.63624600  1
  Cd  Cd7  1  0.96308400  0.66453400  0.13624600  1
  Cd  Cd8  1  0.66453400  0.96308400  0.86375400  1
  Cd  Cd9  1  0.33546600  0.03691600  0.36375400  1
  Fe  Fe0  1  0.26334200  0.58132900  0.87767900  1
  Fe  Fe1  1  0.73665800  0.41867100  0.37767900  1
  Fe  Fe2  1  0.41867100  0.73665800  0.62232100  1
  Fe  Fe3  1  0.58132900  0.26334200  0.12232100  1
  P  P0  1  0.20390300  0.30286600  0.76917800  1
  P  P1  1  0.79609700  0.69713400  0.26917800  1
  P  P2  1  0.69713400  0.79609700  0.73082200  1
  P  P3  1  0.30286600  0.20390300  0.23082200  1
  P  P4  1  0.74919400  0.47875400  0.88457400  1
  P  P5  1  0.25080600  0.52124600  0.38457400  1
  P  P6  1  0.52124600  0.25080600  0.61542600  1
  P  P7  1  0.47875400  0.74919400  0.11542600  1
  P  P8  1  0.19653600  0.60428500  0.50544200  1
  P  P9  1  0.80346400  0.39571500  0.00544200  1
  P  P10  1  0.39571500  0.80346400  0.99455800  1
  P  P11  1  0.60428500  0.19653600  0.49455800  1
  P  P12  1  0.92501600  0.82979800  0.62576700  1
  P  P13  1  0.07498400  0.17020200  0.12576700  1
  P  P14  1  0.17020200  0.07498400  0.87423300  1
  P  P15  1  0.82979800  0.92501600  0.37423300  1
  O  O0  1  0.24780200  0.49668300  0.80337700  1
  O  O1  1  0.75219800  0.50331700  0.30337700  1
  O  O2  1  0.50331700  0.75219800  0.69662300  1
  O  O3  1  0.49668300  0.24780200  0.19662300  1
  O  O4  1  0.00106400  0.02702100  0.59775500  1
  O  O5  1  0.99893600  0.97297900  0.09775500  1
  O  O6  1  0.97297900  0.99893600  0.90224500  1
  O  O7  1  0.02702100  0.00106400  0.40224500  1
  O  O8  1  0.03223500  0.31318400  0.72893600  1
  O  O9  1  0.96776500  0.68681600  0.22893600  1
  O  O10  1  0.68681600  0.96776500  0.77106400  1
  O  O11  1  0.31318400  0.03223500  0.27106400  1
  O  O12  1  0.76656400  0.61915300  0.75875300  1
  O  O13  1  0.23343600  0.38084700  0.25875300  1
  O  O14  1  0.38084700  0.23343600  0.74124700  1
  O  O15  1  0.61915300  0.76656400  0.24124700  1
  O  O16  1  0.69595500  0.39702000  0.94656300  1
  O  O17  1  0.30404500  0.60298000  0.44656300  1
  O  O18  1  0.60298000  0.30404500  0.55343700  1
  O  O19  1  0.39702000  0.69595500  0.05343700  1
  O  O20  1  0.38064500  0.69487100  0.53998500  1
  O  O21  1  0.61935500  0.30512900  0.03998500  1
  O  O22  1  0.30512900  0.61935500  0.96001500  1
  O  O23  1  0.69487100  0.38064500  0.46001500  1
  O  O24  1  0.09326200  0.68960800  0.62843500  1
  O  O25  1  0.90673800  0.31039200  0.12843500  1
  O  O26  1  0.31039200  0.90673800  0.87156500  1
  O  O27  1  0.68960800  0.09326200  0.37156500  1
  O  O28  1  0.72834500  0.72450000  0.59968100  1
  O  O29  1  0.27165500  0.27550000  0.09968100  1
  O  O30  1  0.27550000  0.27165500  0.90031900  1
  O  O31  1  0.72450000  0.72834500  0.40031900  1
  O  O32  1  0.96600000  0.57667300  0.88552800  1
  O  O33  1  0.03400000  0.42332700  0.38552800  1
  O  O34  1  0.42332700  0.03400000  0.61447200  1
  O  O35  1  0.57667300  0.96600000  0.11447200  1
  O  O36  1  0.37366500  0.40596800  0.62549800  1
  O  O37  1  0.62633500  0.59403200  0.12549800  1
  O  O38  1  0.59403200  0.62633500  0.87450200  1
  O  O39  1  0.40596800  0.37366500  0.37450200  1
  O  O40  1  0.03527100  0.74450300  0.50228400  1
  O  O41  1  0.96472900  0.25549700  0.00228400  1
  O  O42  1  0.25549700  0.96472900  0.99771600  1
  O  O43  1  0.74450300  0.03527100  0.49771600  1
  O  O44  1  0.10911500  0.39825200  0.52438900  1
  O  O45  1  0.89088500  0.60174800  0.02438900  1
  O  O46  1  0.60174800  0.89088500  0.97561100  1
  O  O47  1  0.39825200  0.10911500  0.47561100  1
  O  O48  1  0.11421100  0.12921400  0.81296700  1
  O  O49  1  0.88578900  0.87078600  0.31296700  1
  O  O50  1  0.87078600  0.88578900  0.68703300  1
  O  O51  1  0.12921400  0.11421100  0.18703300  1
  O  O52  1  0.70542100  0.29166100  0.65149200  1
  O  O53  1  0.29457900  0.70833900  0.15149200  1
  O  O54  1  0.70833900  0.29457900  0.84850800  1
  O  O55  1  0.29166100  0.70542100  0.34850800  1
loop_
_geom_bond_atom_site_label_1
_geom_bond_atom_site_label_2
_geom_bond_distance
_geom_bond_site_symmetry_2
Cd0 O43 2.291102 1_565
Cd0 O40 2.291102 1_655
Cd0 O20 2.319925 1_555
Cd0 O23 2.319925 1_555
Cd0 O31 2.459724 1_555
Cd0 O28 2.459724 1_555
Cd1 O41 2.291102 1_455
Cd1 O42 2.291102 1_544
Cd1 O21 2.319925 1_555
Cd1 O22 2.319925 1_554
Cd1 O29 2.459724 1_555
Cd1 O30 2.459724 1_554
Cd2 O47 2.199889 1_555
Cd2 O44 2.199889 1_555
Cd2 O40 2.253575 1_545
Cd2 O43 2.253575 1_455
Cd2 O4 2.472009 1_555
Cd2 O7 2.472009 1_555
Cd3 O45 2.199889 1_555
Cd3 O46 2.199889 1_554
Cd3 O41 2.253575 1_565
Cd3 O42 2.253575 1_654
Cd3 O5 2.472009 1_555
Cd3 O6 2.472009 1_554
Cd4 O12 2.172219 1_555
Cd4 O14 2.172219 1_555
Cd4 O10 2.262106 1_545
Cd4 O8 2.262106 1_655
Cd4 O54 2.412687 1_555
Cd4 O52 2.412687 1_555
Cd5 O15 2.172219 1_555
Cd5 O13 2.172219 1_555
Cd5 O11 2.262106 1_565
Cd5 O9 2.262106 1_455
Cd5 O55 2.412687 1_555
Cd5 O53 2.412687 1_555
Cd6 O52 2.246356 1_455
Cd6 O4 2.266448 1_555
Cd6 O36 2.273501 1_555
Cd6 O8 2.274850 1_555
Cd6 O24 2.375468 1_555
Cd7 O53 2.246356 1_655
Cd7 O5 2.266448 1_555
Cd7 O37 2.273501 1_555
Cd7 O9 2.274850 1_555
Cd7 O25 2.375468 1_555
Cd8 O54 2.246356 1_565
Cd8 O6 2.266448 1_555
Cd8 O38 2.273501 1_555
Cd8 O10 2.274850 1_555
Cd8 O26 2.375468 1_555
Cd9 O55 2.246356 1_545
Cd9 O7 2.266448 1_555
Cd9 O39 2.273501 1_555
Cd9 O11 2.274850 1_555
Cd9 O27 2.375468 1_555
Fe0 O0 1.905791 1_555
Fe0 O32 2.008182 1_455
Fe0 O22 2.047555 1_555
Fe0 O30 2.169591 1_555
Fe0 O26 2.179948 1_555
Fe0 O38 2.211178 1_555
Fe1 O1 1.905791 1_555
Fe1 O33 2.008182 1_655
Fe1 O23 2.047555 1_555
Fe1 O31 2.169591 1_555
Fe1 O27 2.179948 1_555
Fe1 O39 2.211178 1_555
Fe2 O2 1.905791 1_555
Fe2 O34 2.008182 1_565
Fe2 O20 2.047555 1_555
Fe2 O28 2.169591 1_555
Fe2 O24 2.179948 1_555
Fe2 O36 2.211178 1_555
Fe3 O3 1.905791 1_555
Fe3 O35 2.008182 1_545
Fe3 O21 2.047555 1_555
Fe3 O29 2.169591 1_555
Fe3 O25 2.179948 1_555
Fe3 O37 2.211178 1_555
O0 P0 1.547940 1_555
O1 P1 1.547940 1_555
O2 P2 1.547940 1_555
O3 P3 1.547940 1_555
O4 P12 1.525384 1_445
O5 P13 1.525384 1_665
O6 P14 1.525384 1_665
O7 P15 1.525384 1_445
O8 P0 1.527428 1_555
O9 P1 1.527428 1_555
O10 P2 1.527428 1_555
O11 P3 1.527428 1_555
O12 P2 1.498855 1_555
O13 P3 1.498855 1_555
O14 P0 1.498855 1_555
O15 P1 1.498855 1_555
O16 P9 1.614038 1_556
O16 P4 1.639114 1_555
O17 P8 1.614038 1_555
O17 P5 1.639114 1_555
O18 P11 1.614038 1_555
O18 P6 1.639114 1_555
O19 P10 1.614038 1_554
O19 P7 1.639114 1_555
O20 P8 1.560692 1_555
O21 P9 1.560692 1_555
O22 P10 1.560692 1_555
O23 P11 1.560692 1_555
O24 P12 1.564661 1_455
O25 P13 1.564661 1_655
O26 P14 1.564661 1_565
O27 P15 1.564661 1_545
O28 P12 1.558879 1_555
O29 P13 1.558879 1_555
O30 P14 1.558879 1_555
O31 P15 1.558879 1_555
O32 P4 1.525208 1_555
O33 P5 1.525208 1_555
O34 P6 1.525208 1_555
O35 P7 1.525208 1_555
O36 P6 1.549660 1_555
O37 P7 1.549660 1_555
O38 P4 1.549660 1_555
O39 P5 1.549660 1_555
O40 P8 1.528006 1_555
O41 P9 1.528006 1_555
O42 P10 1.528006 1_555
O43 P11 1.528006 1_555
O44 P8 1.510866 1_555
O45 P9 1.510866 1_555
O46 P10 1.510866 1_555
O47 P11 1.510866 1_555
O48 P14 1.600403 1_555
O48 P0 1.644885 1_555
O49 P15 1.600403 1_555
O49 P1 1.644885 1_555
O50 P12 1.600403 1_555
O50 P2 1.644885 1_555
O51 P13 1.600403 1_555
O51 P3 1.644885 1_555
O52 P6 1.519525 1_555
O53 P7 1.519525 1_555
O54 P4 1.519525 1_555
O55 P5 1.519525 1_555
