# generated using pymatgen
data_USi8H56(C4N)4
_symmetry_space_group_name_H-M   'P 1'
_cell_length_a   10.89134677
_cell_length_b   10.89134677
_cell_length_c   19.12379697
_cell_angle_alpha   78.10237394
_cell_angle_beta   78.10237394
_cell_angle_gamma   68.54766739
_symmetry_Int_Tables_number   1
_chemical_formula_structural   USi8H56(C4N)4
_chemical_formula_sum   'U2 Si16 H112 C32 N8'
_cell_volume   2044.57249982
_cell_formula_units_Z   2
loop_
 _symmetry_equiv_pos_site_id
 _symmetry_equiv_pos_as_xyz
  1  'x, y, z'
loop_
 _atom_site_type_symbol
 _atom_site_label
 _atom_site_symmetry_multiplicity
 _atom_site_fract_x
 _atom_site_fract_y
 _atom_site_fract_z
 _atom_site_occupancy
  U  U0  1  0.33494500  0.66505500  0.25000000  1
  U  U1  1  0.66505500  0.33494500  0.75000000  1
  Si  Si0  1  0.20053200  0.92354400  0.14008400  1
  Si  Si1  1  0.07645600  0.79946800  0.35991600  1
  Si  Si2  1  0.79946800  0.07645600  0.85991600  1
  Si  Si3  1  0.92354400  0.20053200  0.64008400  1
  Si  Si4  1  0.24476900  0.67353600  0.07483700  1
  Si  Si5  1  0.32646400  0.75523100  0.42516300  1
  Si  Si6  1  0.75523100  0.32646400  0.92516300  1
  Si  Si7  1  0.67353600  0.24476900  0.57483700  1
  Si  Si8  1  0.18526100  0.41294900  0.25962700  1
  Si  Si9  1  0.58705100  0.81473900  0.24037300  1
  Si  Si10  1  0.81473900  0.58705100  0.74037300  1
  Si  Si11  1  0.41294900  0.18526100  0.75962700  1
  Si  Si12  1  0.42419400  0.36735000  0.33617000  1
  Si  Si13  1  0.63265000  0.57580600  0.16383000  1
  Si  Si14  1  0.57580600  0.63265000  0.66383000  1
  Si  Si15  1  0.36735000  0.42419400  0.83617000  1
  H  H0  1  0.39839200  0.96046000  0.05726000  1
  H  H1  1  0.03954000  0.60160800  0.44274000  1
  H  H2  1  0.60160800  0.03954000  0.94274000  1
  H  H3  1  0.96046000  0.39839200  0.55726000  1
  H  H4  1  0.27370400  0.11322000  0.07843800  1
  H  H5  1  0.88678000  0.72629600  0.42156200  1
  H  H6  1  0.72629600  0.88678000  0.92156200  1
  H  H7  1  0.11322000  0.27370400  0.57843800  1
  H  H8  1  0.25340000  0.02850100  0.01395600  1
  H  H9  1  0.97149900  0.74660000  0.48604400  1
  H  H10  1  0.74660000  0.97149900  0.98604400  1
  H  H11  1  0.02850100  0.25340000  0.51395600  1
  H  H12  1  0.98363200  0.02294000  0.09084700  1
  H  H13  1  0.97706000  0.01636800  0.40915300  1
  H  H14  1  0.01636800  0.97706000  0.90915300  1
  H  H15  1  0.02294000  0.98363200  0.59084700  1
  H  H16  1  0.99520300  0.11910500  0.15208000  1
  H  H17  1  0.88089500  0.00479700  0.34792000  1
  H  H18  1  0.00479700  0.88089500  0.84792000  1
  H  H19  1  0.11910500  0.99520300  0.65208000  1
  H  H20  1  0.95644100  0.97010700  0.18532100  1
  H  H21  1  0.02989300  0.04355900  0.31467900  1
  H  H22  1  0.04355900  0.02989300  0.81467900  1
  H  H23  1  0.97010700  0.95644100  0.68532100  1
  H  H24  1  0.29262300  0.82745000  0.96248900  1
  H  H25  1  0.17255000  0.70737700  0.53751100  1
  H  H26  1  0.70737700  0.17255000  0.03751100  1
  H  H27  1  0.82745000  0.29262300  0.46248900  1
  H  H28  1  0.32384200  0.66383900  0.94582500  1
  H  H29  1  0.33616100  0.67615800  0.55417500  1
  H  H30  1  0.67615800  0.33616100  0.05417500  1
  H  H31  1  0.66383900  0.32384200  0.44582500  1
  H  H32  1  0.44161900  0.69717500  0.98404600  1
  H  H33  1  0.30282500  0.55838100  0.51595400  1
  H  H34  1  0.55838100  0.30282500  0.01595400  1
  H  H35  1  0.69717500  0.44161900  0.48404600  1
  H  H36  1  0.01112200  0.66973800  0.11026700  1
  H  H37  1  0.33026200  0.98887800  0.38973300  1
  H  H38  1  0.98887800  0.33026200  0.88973300  1
  H  H39  1  0.66973800  0.01112200  0.61026700  1
  H  H40  1  0.07503600  0.64123200  0.01922000  1
  H  H41  1  0.35876800  0.92496400  0.48078000  1
  H  H42  1  0.92496400  0.35876800  0.98078000  1
  H  H43  1  0.64123200  0.07503600  0.51922000  1
  H  H44  1  0.01718700  0.80582300  0.04108500  1
  H  H45  1  0.19417700  0.98281300  0.45891500  1
  H  H46  1  0.98281300  0.19417700  0.95891500  1
  H  H47  1  0.80582300  0.01718700  0.54108500  1
  H  H48  1  0.12899500  0.26667900  0.37254100  1
  H  H49  1  0.73332100  0.87100500  0.12745900  1
  H  H50  1  0.87100500  0.73332100  0.62745900  1
  H  H51  1  0.26667900  0.12899500  0.87254100  1
  H  H52  1  0.99682200  0.34078100  0.32000200  1
  H  H53  1  0.65921900  0.00317800  0.17999800  1
  H  H54  1  0.00317800  0.65921900  0.67999800  1
  H  H55  1  0.34078100  0.99682200  0.82000200  1
  H  H56  1  0.02550900  0.43591800  0.37614800  1
  H  H57  1  0.56408200  0.97449100  0.12385200  1
  H  H58  1  0.97449100  0.56408200  0.62385200  1
  H  H59  1  0.43591800  0.02550900  0.87614800  1
  H  H60  1  0.32437800  0.29100500  0.15644900  1
  H  H61  1  0.70899500  0.67562200  0.34355100  1
  H  H62  1  0.67562200  0.70899500  0.84355100  1
  H  H63  1  0.29100500  0.32437800  0.65644900  1
  H  H64  1  0.16659700  0.26823900  0.18237600  1
  H  H65  1  0.73176100  0.83340300  0.31762400  1
  H  H66  1  0.83340300  0.73176100  0.81762400  1
  H  H67  1  0.26823900  0.16659700  0.68237600  1
  H  H68  1  0.29734000  0.17697800  0.23446900  1
  H  H69  1  0.82302200  0.70266000  0.26553100  1
  H  H70  1  0.70266000  0.82302200  0.76553100  1
  H  H71  1  0.17697800  0.29734000  0.73446900  1
  H  H72  1  0.26995900  0.39624500  0.45319600  1
  H  H73  1  0.60375500  0.73004100  0.04680400  1
  H  H74  1  0.73004100  0.60375500  0.54680400  1
  H  H75  1  0.39624500  0.26995900  0.95319600  1
  H  H76  1  0.43526000  0.29258500  0.46676600  1
  H  H77  1  0.70741500  0.56474000  0.03323400  1
  H  H78  1  0.56474000  0.70741500  0.53323400  1
  H  H79  1  0.29258500  0.43526000  0.96676600  1
  H  H80  1  0.33026400  0.22734900  0.43722400  1
  H  H81  1  0.77265100  0.66973600  0.06277600  1
  H  H82  1  0.66973600  0.77265100  0.56277600  1
  H  H83  1  0.22734900  0.33026400  0.93722400  1
  H  H84  1  0.51046600  0.14083100  0.29927200  1
  H  H85  1  0.85916900  0.48953400  0.20072800  1
  H  H86  1  0.48953400  0.85916900  0.70072800  1
  H  H87  1  0.14083100  0.51046600  0.79927200  1
  H  H88  1  0.62876600  0.16936800  0.33983600  1
  H  H89  1  0.83063200  0.37123400  0.16016400  1
  H  H90  1  0.37123400  0.83063200  0.66016400  1
  H  H91  1  0.16936800  0.62876600  0.83983600  1
  H  H92  1  0.60721100  0.23861000  0.24815600  1
  H  H93  1  0.76139000  0.39278900  0.25184400  1
  H  H94  1  0.39278900  0.76139000  0.75184400  1
  H  H95  1  0.23861000  0.60721100  0.74815600  1
  H  H96  1  0.23848800  0.93099700  0.21134800  1
  H  H97  1  0.06900300  0.76151200  0.28865200  1
  H  H98  1  0.76151200  0.06900300  0.78865200  1
  H  H99  1  0.93099700  0.23848800  0.71134800  1
  H  H100  1  0.31184200  0.52691300  0.09564500  1
  H  H101  1  0.47308700  0.68815800  0.40435500  1
  H  H102  1  0.68815800  0.47308700  0.90435500  1
  H  H103  1  0.52691300  0.31184200  0.59564500  1
  H  H104  1  0.09636500  0.53291400  0.21779700  1
  H  H105  1  0.46708600  0.90363500  0.28220300  1
  H  H106  1  0.90363500  0.46708600  0.78220300  1
  H  H107  1  0.53291400  0.09636500  0.71779700  1
  H  H108  1  0.49278400  0.46744100  0.33639100  1
  H  H109  1  0.53255900  0.50721600  0.16360900  1
  H  H110  1  0.50721600  0.53255900  0.66360900  1
  H  H111  1  0.46744100  0.49278400  0.83639100  1
  C  C0  1  0.29050000  0.01405000  0.06535600  1
  C  C1  1  0.98595000  0.70950000  0.43464400  1
  C  C2  1  0.70950000  0.98595000  0.93464400  1
  C  C3  1  0.01405000  0.29050000  0.56535600  1
  C  C4  1  0.01668000  0.01637500  0.14241600  1
  C  C5  1  0.98362500  0.98332000  0.35758400  1
  C  C6  1  0.98332000  0.98362500  0.85758400  1
  C  C7  1  0.01637500  0.01668000  0.64241600  1
  C  C8  1  0.33455800  0.72136600  0.98388900  1
  C  C9  1  0.27863400  0.66544200  0.51611100  1
  C  C10  1  0.66544200  0.27863400  0.01611100  1
  C  C11  1  0.72136600  0.33455800  0.48388900  1
  C  C12  1  0.07011000  0.70066300  0.06047200  1
  C  C13  1  0.29933700  0.92989000  0.43952800  1
  C  C14  1  0.92989000  0.29933700  0.93952800  1
  C  C15  1  0.70066300  0.07011000  0.56047200  1
  C  C16  1  0.07493500  0.35960500  0.34034300  1
  C  C17  1  0.64039500  0.92506500  0.15965700  1
  C  C18  1  0.92506500  0.64039500  0.65965700  1
  C  C19  1  0.35960500  0.07493500  0.84034300  1
  C  C20  1  0.25121000  0.27427300  0.20293200  1
  C  C21  1  0.72572700  0.74879000  0.29706800  1
  C  C22  1  0.74879000  0.72572700  0.79706800  1
  C  C23  1  0.27427300  0.25121000  0.70293200  1
  C  C24  1  0.35780000  0.31674800  0.43224900  1
  C  C25  1  0.68325200  0.64220000  0.06775100  1
  C  C26  1  0.64220000  0.68325200  0.56775100  1
  C  C27  1  0.31674800  0.35780000  0.93224900  1
  C  C28  1  0.55491500  0.21527300  0.30206000  1
  C  C29  1  0.78472700  0.44508500  0.19794000  1
  C  C30  1  0.44508500  0.78472700  0.69794000  1
  C  C31  1  0.21527300  0.55491500  0.80206000  1
  N  N0  1  0.25123500  0.75302700  0.14311300  1
  N  N1  1  0.24697300  0.74876500  0.35688700  1
  N  N2  1  0.74876500  0.24697300  0.85688700  1
  N  N3  1  0.75302700  0.25123500  0.64311300  1
  N  N4  1  0.30682800  0.46134900  0.28042300  1
  N  N5  1  0.53865100  0.69317200  0.21957700  1
  N  N6  1  0.69317200  0.53865100  0.71957700  1
  N  N7  1  0.46134900  0.30682800  0.78042300  1
loop_
_geom_bond_atom_site_label_1
_geom_bond_atom_site_label_2
_geom_bond_distance
_geom_bond_site_symmetry_2
H96 Si0 1.528813 1_555
H96 U0 2.692809 1_555
H97 Si1 1.528813 1_555
H97 U0 2.692809 1_555
H98 Si2 1.528813 1_555
H98 U1 2.692809 1_555
H99 Si3 1.528813 1_555
H99 U1 2.692809 1_555
H100 Si4 1.498901 1_555
H101 Si5 1.498901 1_555
H102 Si6 1.498901 1_555
H103 Si7 1.498901 1_555
H104 Si8 1.499184 1_555
H105 Si9 1.499184 1_555
H106 Si10 1.499184 1_555
H107 Si11 1.499184 1_555
H108 Si12 1.531447 1_555
H108 U0 2.704741 1_555
H109 Si13 1.531447 1_555
H109 U0 2.704741 1_555
H110 Si14 1.531447 1_555
H110 U1 2.704741 1_555
H111 Si15 1.531447 1_555
H111 U1 2.704741 1_555
C0 H0 1.098199 1_545
C0 H8 1.098964 1_555
C0 H4 1.100310 1_555
C0 Si0 1.876798 1_545
C1 H1 1.098199 1_655
C1 H9 1.098964 1_555
C1 H5 1.100310 1_555
C1 Si1 1.876798 1_655
C2 H2 1.098199 1_565
C2 H10 1.098964 1_555
C2 H6 1.100310 1_555
C2 Si2 1.876798 1_565
C3 H3 1.098199 1_455
C3 H11 1.098964 1_555
C3 H7 1.100310 1_555
C3 Si3 1.876798 1_455
C4 H12 1.098049 1_455
C4 H20 1.098632 1_445
C4 H16 1.103059 1_455
C4 Si0 1.880087 1_545
C5 H13 1.098049 1_565
C5 H21 1.098632 1_665
C5 H17 1.103059 1_565
C5 Si1 1.880087 1_655
C6 H14 1.098049 1_655
C6 H22 1.098632 1_665
C6 H18 1.103059 1_655
C6 Si2 1.880087 1_565
C7 H15 1.098049 1_545
C7 H23 1.098632 1_445
C7 H19 1.103059 1_545
C7 Si3 1.880087 1_455
C8 H32 1.097940 1_555
C8 H24 1.098700 1_555
C8 H28 1.101197 1_555
C8 Si4 1.884275 1_556
C9 H33 1.097940 1_555
C9 H25 1.098700 1_555
C9 H29 1.101197 1_555
C9 Si5 1.884275 1_555
C10 H34 1.097940 1_555
C10 H26 1.098700 1_555
C10 H30 1.101197 1_555
C10 Si6 1.884275 1_554
C11 H35 1.097940 1_555
C11 H27 1.098700 1_555
C11 H31 1.101197 1_555
C11 Si7 1.884275 1_555
C12 H36 1.098538 1_555
C12 H44 1.100740 1_555
C12 H40 1.100866 1_555
C12 Si4 1.884757 1_555
C13 H37 1.098538 1_555
C13 H45 1.100740 1_555
C13 H41 1.100866 1_555
C13 Si5 1.884757 1_555
C14 H38 1.098538 1_555
C14 H46 1.100740 1_555
C14 H42 1.100866 1_555
C14 Si6 1.884757 1_555
C15 H39 1.098538 1_555
C15 H47 1.100740 1_555
C15 H43 1.100866 1_555
C15 Si7 1.884757 1_555
C16 H56 1.097660 1_555
C16 H48 1.098540 1_555
C16 H52 1.101843 1_455
C16 Si8 1.881531 1_555
C17 H57 1.097660 1_555
C17 H49 1.098540 1_555
C17 H53 1.101843 1_565
C17 Si9 1.881531 1_555
C18 H58 1.097660 1_555
C18 H50 1.098540 1_555
C18 H54 1.101843 1_655
C18 Si10 1.881531 1_555
C19 H59 1.097660 1_555
C19 H51 1.098540 1_555
C19 H55 1.101843 1_545
C19 Si11 1.881531 1_555
C20 H60 1.098087 1_555
C20 H68 1.100485 1_555
C20 H64 1.101105 1_555
C20 Si8 1.879696 1_555
C21 H61 1.098087 1_555
C21 H69 1.100485 1_555
C21 H65 1.101105 1_555
C21 Si9 1.879696 1_555
C22 H62 1.098087 1_555
C22 H70 1.100485 1_555
C22 H66 1.101105 1_555
C22 Si10 1.879696 1_555
C23 H63 1.098087 1_555
C23 H71 1.100485 1_555
C23 H67 1.101105 1_555
C23 Si11 1.879696 1_555
C24 H72 1.097502 1_555
C24 H80 1.100304 1_555
C24 H76 1.101051 1_555
C24 Si12 1.878507 1_555
C25 H73 1.097502 1_555
C25 H81 1.100304 1_555
C25 H77 1.101051 1_555
C25 Si13 1.878507 1_555
C26 H74 1.097502 1_555
C26 H82 1.100304 1_555
C26 H78 1.101051 1_555
C26 Si14 1.878507 1_555
C27 H75 1.097502 1_555
C27 H83 1.100304 1_555
C27 H79 1.101051 1_555
C27 Si15 1.878507 1_555
C28 H92 1.098831 1_555
C28 H84 1.100056 1_555
C28 H88 1.102421 1_555
C28 Si12 1.879787 1_555
C29 H93 1.098831 1_555
C29 H85 1.100056 1_555
C29 H89 1.102421 1_555
C29 Si13 1.879787 1_555
C30 H94 1.098831 1_555
C30 H86 1.100056 1_555
C30 H90 1.102421 1_555
C30 Si14 1.879787 1_555
C31 H95 1.098831 1_555
C31 H87 1.100056 1_555
C31 H91 1.102421 1_555
C31 Si15 1.879787 1_555
N0 Si0 1.725116 1_555
N0 Si4 1.734349 1_555
N0 U0 2.291167 1_555
N1 Si1 1.725116 1_555
N1 Si5 1.734349 1_555
N1 U0 2.291167 1_555
N2 Si2 1.725116 1_555
N2 Si6 1.734349 1_555
N2 U1 2.291167 1_555
N3 Si3 1.725116 1_555
N3 Si7 1.734349 1_555
N3 U1 2.291167 1_555
N4 Si12 1.724326 1_555
N4 Si8 1.732966 1_555
N4 U0 2.290386 1_555
N5 Si13 1.724326 1_555
N5 Si9 1.732966 1_555
N5 U0 2.290386 1_555
N6 Si14 1.724326 1_555
N6 Si10 1.732966 1_555
N6 U1 2.290386 1_555
N7 Si15 1.724326 1_555
N7 Si11 1.732966 1_555
N7 U1 2.290386 1_555
