# generated using pymatgen
data_La2Si2O7
_symmetry_space_group_name_H-M   'P 1'
_cell_length_a   6.87726800
_cell_length_b   6.95480156
_cell_length_c   12.64244183
_cell_angle_alpha   83.97707973
_cell_angle_beta   88.89607250
_cell_angle_gamma   88.52785056
_symmetry_Int_Tables_number   1
_chemical_formula_structural   La2Si2O7
_chemical_formula_sum   'La8 Si8 O28'
_cell_volume   601.06854836
_cell_formula_units_Z   4
loop_
 _symmetry_equiv_pos_site_id
 _symmetry_equiv_pos_as_xyz
  1  'x, y, z'
loop_
 _atom_site_type_symbol
 _atom_site_label
 _atom_site_symmetry_multiplicity
 _atom_site_fract_x
 _atom_site_fract_y
 _atom_site_fract_z
 _atom_site_occupancy
  La  La0  1  0.92368900  0.16665500  0.84566900  1
  La  La1  1  0.07631100  0.83334500  0.15433100  1
  La  La2  1  0.32367200  0.76046600  0.86376100  1
  La  La3  1  0.67632800  0.23953400  0.13623900  1
  La  La4  1  0.62866200  0.62872800  0.36172100  1
  La  La5  1  0.37133800  0.37127200  0.63827900  1
  La  La6  1  0.75658400  0.80376300  0.64211600  1
  La  La7  1  0.24341600  0.19623700  0.35788400  1
  Si  Si0  1  0.22524400  0.89262400  0.60904200  1
  Si  Si1  1  0.77475600  0.10737600  0.39095800  1
  Si  Si2  1  0.83985100  0.31148300  0.58933600  1
  Si  Si3  1  0.16014900  0.68851700  0.41066400  1
  Si  Si4  1  0.83761900  0.68449900  0.90801600  1
  Si  Si5  1  0.16238100  0.31550100  0.09198400  1
  Si  Si6  1  0.57436900  0.72078400  0.10236400  1
  Si  Si7  1  0.42563100  0.27921600  0.89763600  1
  O  O0  1  0.07173800  0.91099000  0.70865100  1
  O  O1  1  0.92826200  0.08901000  0.29134900  1
  O  O2  1  0.40306600  0.74868800  0.65465200  1
  O  O3  1  0.59693400  0.25131200  0.34534800  1
  O  O4  1  0.69483700  0.90764800  0.45260300  1
  O  O5  1  0.30516300  0.09235200  0.54739700  1
  O  O6  1  0.09318600  0.78242300  0.52316500  1
  O  O7  1  0.90681400  0.21757700  0.47683500  1
  O  O8  1  0.69627100  0.50126300  0.55471100  1
  O  O9  1  0.30372900  0.49873700  0.44528900  1
  O  O10  1  0.70385600  0.15762600  0.66355500  1
  O  O11  1  0.29614400  0.84237400  0.33644500  1
  O  O12  1  0.97337000  0.63635300  0.34466700  1
  O  O13  1  0.02663000  0.36364700  0.65533300  1
  O  O14  1  0.00395100  0.82696300  0.94807900  1
  O  O15  1  0.99604900  0.17303700  0.05192100  1
  O  O16  1  0.37678400  0.81335700  0.04761100  1
  O  O17  1  0.62321600  0.18664300  0.95238900  1
  O  O18  1  0.46842900  0.45741400  0.80574200  1
  O  O19  1  0.53157100  0.54258600  0.19425800  1
  O  O20  1  0.29098000  0.12686800  0.84268800  1
  O  O21  1  0.70902000  0.87313200  0.15731200  1
  O  O22  1  0.30113600  0.39641900  0.98737600  1
  O  O23  1  0.69886400  0.60358100  0.01262400  1
  O  O24  1  0.06122500  0.49240800  0.14706200  1
  O  O25  1  0.93877500  0.50759200  0.85293800  1
  O  O26  1  0.30916200  0.17653800  0.17128200  1
  O  O27  1  0.69083800  0.82346200  0.82871800  1
loop_
_geom_bond_atom_site_label_1
_geom_bond_atom_site_label_2
_geom_bond_distance
_geom_bond_site_symmetry_2
La0 O25 2.387529 1_555
La0 O17 2.454992 1_555
La0 O20 2.533982 1_655
La0 O14 2.623161 1_645
La0 O15 2.669128 1_556
La0 O13 2.731466 1_655
La0 O0 2.772068 1_645
La0 O10 2.785653 1_555
La0 O27 2.936716 1_545
La1 O24 2.387529 1_555
La1 O16 2.454992 1_555
La1 O21 2.533982 1_455
La1 O15 2.623161 1_465
La1 O14 2.669128 1_554
La1 O12 2.731466 1_455
La1 O1 2.772068 1_465
La1 O11 2.785653 1_555
La1 O26 2.936716 1_565
La2 O16 2.426973 1_556
La2 O14 2.479082 1_555
La2 O18 2.481904 1_555
La2 O20 2.538803 1_565
La2 O27 2.595642 1_555
La2 O2 2.698378 1_555
La2 O0 2.747764 1_555
La2 O22 2.838525 1_555
La3 O17 2.426973 1_554
La3 O15 2.479082 1_555
La3 O19 2.481904 1_555
La3 O21 2.538803 1_545
La3 O26 2.595642 1_555
La3 O3 2.698378 1_555
La3 O1 2.747764 1_555
La3 O23 2.838525 1_555
La4 O19 2.372395 1_555
La4 O12 2.377739 1_555
La4 O4 2.413180 1_555
La4 O8 2.554142 1_555
La4 O9 2.596072 1_555
La4 O3 2.669364 1_555
La4 O11 2.700622 1_555
La4 O21 2.990710 1_555
La5 O18 2.372395 1_555
La5 O13 2.377739 1_555
La5 O5 2.413180 1_555
La5 O9 2.554142 1_555
La5 O8 2.596072 1_555
La5 O2 2.669364 1_555
La5 O10 2.700622 1_555
La5 O20 2.990710 1_555
La6 O27 2.410836 1_555
La6 O4 2.470401 1_555
La6 O2 2.470428 1_555
La6 O0 2.499249 1_655
La6 O10 2.520328 1_565
La6 O8 2.523796 1_555
La6 O6 2.745424 1_655
La7 O26 2.410836 1_555
La7 O5 2.470401 1_555
La7 O3 2.470428 1_555
La7 O1 2.499249 1_455
La7 O11 2.520328 1_545
La7 O9 2.523796 1_555
La7 O7 2.745424 1_455
O0 Si0 1.640811 1_555
O1 Si1 1.640811 1_555
O2 Si0 1.635017 1_555
O3 Si1 1.635017 1_555
O4 Si1 1.623120 1_565
O5 Si0 1.623120 1_545
O6 Si3 1.678022 1_555
O6 Si0 1.685036 1_555
O7 Si2 1.678022 1_555
O7 Si1 1.685036 1_555
O8 Si2 1.654444 1_555
O9 Si3 1.654444 1_555
O10 Si2 1.645317 1_555
O11 Si3 1.645317 1_555
O12 Si3 1.614484 1_655
O13 Si2 1.614484 1_455
O14 Si4 1.653070 1_455
O15 Si5 1.653070 1_655
O16 Si6 1.624160 1_555
O17 Si7 1.624160 1_555
O18 Si7 1.635754 1_555
O19 Si6 1.635754 1_555
O20 Si7 1.640859 1_555
O21 Si6 1.640859 1_555
O22 Si5 1.673051 1_556
O22 Si7 1.674940 1_555
O23 Si4 1.673051 1_554
O23 Si6 1.674940 1_555
O24 Si5 1.612370 1_555
O25 Si4 1.612370 1_555
O26 Si5 1.656390 1_555
O27 Si4 1.656390 1_555
