# generated using pymatgen
data_Yb2Mn2Co15
_symmetry_space_group_name_H-M   'P 1'
_cell_length_a   8.15026000
_cell_length_b   8.27734013
_cell_length_c   8.27734013
_cell_angle_alpha   119.91887313
_cell_angle_beta   90.00000000
_cell_angle_gamma   90.00000000
_symmetry_Int_Tables_number   1
_chemical_formula_structural   Yb2Mn2Co15
_chemical_formula_sum   'Yb4 Mn4 Co30'
_cell_volume   483.99196171
_cell_formula_units_Z   2
loop_
 _symmetry_equiv_pos_site_id
 _symmetry_equiv_pos_as_xyz
  1  'x, y, z'
loop_
 _atom_site_type_symbol
 _atom_site_label
 _atom_site_symmetry_multiplicity
 _atom_site_fract_x
 _atom_site_fract_y
 _atom_site_fract_z
 _atom_site_occupancy
  Yb  Yb0  1  0.75000000  0.00011300  0.99988700  1
  Yb  Yb1  1  0.25000000  0.99988700  0.00011300  1
  Yb  Yb2  1  0.25000000  0.66671900  0.33328100  1
  Yb  Yb3  1  0.75000000  0.33328100  0.66671900  1
  Mn  Mn0  1  0.59386600  0.66671700  0.33328300  1
  Mn  Mn1  1  0.40613400  0.33328300  0.66671700  1
  Mn  Mn2  1  0.09386600  0.33328300  0.66671700  1
  Mn  Mn3  1  0.90613400  0.66671700  0.33328300  1
  Co  Co0  1  0.50000000  0.50000000  0.00000000  1
  Co  Co1  1  0.50000000  0.50000000  0.50000000  1
  Co  Co2  1  0.50000000  0.00000000  0.50000000  1
  Co  Co3  1  0.00000000  0.50000000  0.00000000  1
  Co  Co4  1  0.00000000  0.50000000  0.50000000  1
  Co  Co5  1  0.00000000  0.00000000  0.50000000  1
  Co  Co6  1  0.75000000  0.67210700  0.04590900  1
  Co  Co7  1  0.75000000  0.37363800  0.32786600  1
  Co  Co8  1  0.75000000  0.95397300  0.62606000  1
  Co  Co9  1  0.75000000  0.37394000  0.04602700  1
  Co  Co10  1  0.75000000  0.95409100  0.32789300  1
  Co  Co11  1  0.75000000  0.67213400  0.62636200  1
  Co  Co12  1  0.25000000  0.32789300  0.95409100  1
  Co  Co13  1  0.25000000  0.62636200  0.67213400  1
  Co  Co14  1  0.25000000  0.04602700  0.37394000  1
  Co  Co15  1  0.25000000  0.62606000  0.95397300  1
  Co  Co16  1  0.25000000  0.04590900  0.67210700  1
  Co  Co17  1  0.25000000  0.32786600  0.37363800  1
  Co  Co18  1  0.47786000  0.83684800  0.67389500  1
  Co  Co19  1  0.47772200  0.83679600  0.16320400  1
  Co  Co20  1  0.47786000  0.32610500  0.16315200  1
  Co  Co21  1  0.52214000  0.16315200  0.32610500  1
  Co  Co22  1  0.52227800  0.16320400  0.83679600  1
  Co  Co23  1  0.52214000  0.67389500  0.83684800  1
  Co  Co24  1  0.97786000  0.16315200  0.32610500  1
  Co  Co25  1  0.97772200  0.16320400  0.83679600  1
  Co  Co26  1  0.97786000  0.67389500  0.83684800  1
  Co  Co27  1  0.02214000  0.83684800  0.67389500  1
  Co  Co28  1  0.02227800  0.83679600  0.16320400  1
  Co  Co29  1  0.02214000  0.32610500  0.16315200  1
loop_
_geom_bond_atom_site_label_1
_geom_bond_atom_site_label_2
_geom_bond_distance
_geom_bond_site_symmetry_2
Mn0 Mn3 2.545065 1_555
Mn0 Yb2 2.802597 1_555
Mn1 Mn2 2.545065 1_555
Mn1 Yb3 2.802597 1_555
Mn2 Yb3 2.802597 1_455
Mn3 Yb2 2.802597 1_655
Co0 Co9 2.404609 1_555
Co0 Co15 2.404609 1_554
Co0 Co6 2.405308 1_555
Co0 Co12 2.405308 1_554
Co0 Co20 2.422236 1_555
Co0 Co23 2.422236 1_554
Co0 Co19 2.423391 1_555
Co0 Co22 2.423391 1_554
Co0 Mn0 2.510462 1_555
Co0 Mn1 2.510462 1_554
Co0 Yb3 3.141457 1_554
Co0 Yb2 3.141457 1_555
Co1 Co7 2.406063 1_555
Co1 Co13 2.406063 1_555
Co1 Co11 2.406063 1_555
Co1 Co17 2.406063 1_555
Co1 Co23 2.423845 1_555
Co1 Co20 2.423845 1_555
Co1 Co18 2.423845 1_555
Co1 Co21 2.423845 1_555
Co1 Mn0 2.508701 1_555
Co1 Mn1 2.508701 1_555
Co1 Yb3 3.140082 1_555
Co1 Yb2 3.140082 1_555
Co2 Co8 2.404609 1_545
Co2 Co21 2.422236 1_555
Co2 Co22 2.423391 1_555
Co2 Mn0 2.510462 1_545
Co2 Mn1 2.510462 1_555
Co2 Yb3 3.141457 1_555
Co2 Yb2 3.141457 1_545
Co3 Co9 2.404609 1_455
Co3 Co6 2.405308 1_455
Co3 Mn3 2.510462 1_455
Co3 Mn2 2.510462 1_554
Co3 Yb3 3.141457 1_454
Co3 Yb2 3.141457 1_555
Co4 Co7 2.406063 1_455
Co4 Mn2 2.508701 1_555
Co4 Mn3 2.508701 1_455
Co4 Yb3 3.140082 1_455
Co4 Yb2 3.140082 1_555
Co5 Co8 2.404609 1_445
Co5 Mn2 2.510462 1_555
Co5 Mn3 2.510462 1_445
Co5 Yb3 3.141457 1_455
Co5 Yb2 3.141457 1_545
Co6 Co9 2.468517 1_555
Co6 Mn0 2.717604 1_555
Co6 Mn3 2.717604 1_555
Co6 Yb0 2.923723 1_564
Co6 Yb3 2.989299 1_554
Co7 Co9 2.334125 1_555
Co7 Mn0 2.719909 1_555
Co7 Mn3 2.719909 1_555
Co7 Yb0 2.925116 1_554
Co7 Yb3 2.985488 1_555
Co8 Mn0 2.719882 1_555
Co8 Mn3 2.719882 1_555
Co8 Yb0 2.922610 1_565
Co8 Yb3 2.986081 1_565
Co9 Mn0 2.719882 1_555
Co9 Mn3 2.719882 1_555
Co9 Yb0 2.922610 1_554
Co9 Yb3 2.986081 1_554
Co10 Co6 2.336939 1_555
Co10 Co2 2.405308 1_565
Co10 Co5 2.405308 1_665
Co10 Co8 2.468517 1_555
Co10 Co19 2.530853 1_555
Co10 Co28 2.530853 1_655
Co10 Co21 2.543458 1_565
Co10 Co24 2.543458 1_565
Co10 Mn0 2.717604 1_555
Co10 Mn3 2.717604 1_555
Co10 Yb0 2.923723 1_564
Co10 Yb3 2.989299 1_565
Co11 Co8 2.334125 1_555
Co11 Co4 2.406063 1_655
Co11 Co7 2.473782 1_555
Co11 Co18 2.529449 1_555
Co11 Co27 2.529449 1_655
Co11 Co26 2.541506 1_555
Co11 Co23 2.541506 1_555
Co11 Mn0 2.719909 1_555
Co11 Mn3 2.719909 1_555
Co11 Yb0 2.925116 1_565
Co11 Yb3 2.985488 1_555
Co12 Co16 2.336939 1_555
Co12 Co3 2.405308 1_556
Co12 Co15 2.468517 1_555
Co12 Co25 2.530853 1_455
Co12 Co22 2.530853 1_555
Co12 Co29 2.543458 1_556
Co12 Co20 2.543458 1_556
Co12 Mn1 2.717604 1_555
Co12 Mn2 2.717604 1_555
Co12 Yb1 2.923723 1_546
Co12 Yb2 2.989299 1_556
Co13 Co15 2.334125 1_555
Co13 Co4 2.406063 1_555
Co13 Co17 2.473782 1_555
Co13 Co26 2.529449 1_455
Co13 Co23 2.529449 1_555
Co13 Co18 2.541506 1_555
Co13 Co27 2.541506 1_555
Co13 Mn1 2.719909 1_555
Co13 Mn2 2.719909 1_555
Co13 Yb1 2.925116 1_556
Co13 Yb2 2.985488 1_555
Co14 Co17 2.334125 1_555
Co14 Co5 2.404609 1_555
Co14 Co2 2.404609 1_555
Co14 Co16 2.468517 1_555
Co14 Co21 2.529658 1_555
Co14 Co24 2.529658 1_455
Co14 Co19 2.544258 1_545
Co14 Co28 2.544258 1_545
Co14 Mn1 2.719882 1_555
Co14 Mn2 2.719882 1_555
Co14 Yb1 2.922610 1_545
Co14 Yb2 2.986081 1_545
Co15 Co3 2.404609 1_556
Co15 Co26 2.529658 1_455
Co15 Co23 2.529658 1_555
Co15 Co19 2.544258 1_556
Co15 Co28 2.544258 1_556
Co15 Mn1 2.719882 1_555
Co15 Mn2 2.719882 1_555
Co15 Yb1 2.922610 1_556
Co15 Yb2 2.986081 1_556
Co16 Co5 2.405308 1_555
Co16 Co2 2.405308 1_555
Co16 Co25 2.530853 1_455
Co16 Co22 2.530853 1_555
Co16 Co27 2.543458 1_545
Co16 Co18 2.543458 1_545
Co16 Mn1 2.717604 1_555
Co16 Mn2 2.717604 1_555
Co16 Yb1 2.923723 1_546
Co16 Yb2 2.989299 1_545
Co17 Co4 2.406063 1_555
Co17 Co24 2.529449 1_455
Co17 Co21 2.529449 1_555
Co17 Co20 2.541506 1_555
Co17 Co29 2.541506 1_555
Co17 Mn1 2.719909 1_555
Co17 Mn2 2.719909 1_555
Co17 Yb1 2.925116 1_545
Co17 Yb2 2.985488 1_555
Co18 Co23 2.362987 1_555
Co18 Co22 2.369179 1_565
Co18 Co2 2.422236 1_565
Co18 Co8 2.529658 1_555
Co18 Mn0 2.620167 1_555
Co18 Yb1 2.987676 1_556
Co18 Yb2 3.069251 1_555
Co18 Yb0 3.223249 1_565
Co19 Co21 2.369179 1_565
Co19 Co23 2.369179 1_554
Co19 Co2 2.423391 1_565
Co19 Co6 2.530853 1_555
Co19 Mn0 2.614749 1_555
Co19 Yb1 2.984529 1_555
Co19 Yb2 3.063564 1_555
Co19 Yb0 3.225278 1_564
Co20 Co21 2.362987 1_555
Co20 Co22 2.369179 1_554
Co20 Co7 2.529449 1_555
Co20 Co9 2.529658 1_555
Co20 Mn0 2.620167 1_555
Co20 Yb1 2.987676 1_545
Co20 Yb2 3.069251 1_555
Co20 Yb0 3.223249 1_554
Co21 Co7 2.541506 1_555
Co21 Mn1 2.620167 1_555
Co21 Yb0 2.987676 1_554
Co21 Yb3 3.069251 1_555
Co21 Yb1 3.223249 1_545
Co22 Co9 2.544258 1_556
Co22 Co8 2.544258 1_545
Co22 Mn1 2.614749 1_555
Co22 Yb0 2.984529 1_555
Co22 Yb3 3.063564 1_555
Co22 Yb1 3.225278 1_546
Co23 Co6 2.543458 1_556
Co23 Mn1 2.620167 1_555
Co23 Yb0 2.987676 1_565
Co23 Yb3 3.069251 1_555
Co23 Yb1 3.223249 1_556
Co24 Co29 2.362987 1_655
Co24 Co28 2.369179 1_645
Co24 Co5 2.422236 1_655
Co24 Co4 2.423845 1_655
Co24 Co7 2.541506 1_555
Co24 Mn2 2.620167 1_655
Co24 Yb0 2.987676 1_554
Co24 Yb3 3.069251 1_555
Co24 Yb1 3.223249 1_645
Co25 Co27 2.369179 1_645
Co25 Co29 2.369179 1_656
Co25 Co3 2.423391 1_656
Co25 Co5 2.423391 1_655
Co25 Co9 2.544258 1_556
Co25 Co8 2.544258 1_545
Co25 Mn2 2.614749 1_655
Co25 Yb0 2.984529 1_555
Co25 Yb3 3.063564 1_555
Co25 Yb1 3.225278 1_646
Co26 Co27 2.362987 1_655
Co26 Co28 2.369179 1_656
Co26 Co3 2.422236 1_656
Co26 Co4 2.423845 1_655
Co26 Co6 2.543458 1_556
Co26 Mn2 2.620167 1_655
Co26 Yb0 2.987676 1_565
Co26 Yb3 3.069251 1_555
Co26 Yb1 3.223249 1_656
Co27 Co5 2.422236 1_565
Co27 Co4 2.423845 1_555
Co27 Co8 2.529658 1_455
Co27 Mn3 2.620167 1_455
Co27 Yb1 2.987676 1_556
Co27 Yb2 3.069251 1_555
Co27 Yb0 3.223249 1_465
Co28 Co3 2.423391 1_555
Co28 Co5 2.423391 1_565
Co28 Co6 2.530853 1_455
Co28 Mn3 2.614749 1_455
Co28 Yb1 2.984529 1_555
Co28 Yb2 3.063564 1_555
Co28 Yb0 3.225278 1_464
Co29 Co3 2.422236 1_555
Co29 Co4 2.423845 1_555
Co29 Co7 2.529449 1_455
Co29 Co9 2.529658 1_455
Co29 Mn3 2.620167 1_455
Co29 Yb1 2.987676 1_545
Co29 Yb2 3.069251 1_555
Co29 Yb0 3.223249 1_454
