# generated using pymatgen
data_MnZnF4
_symmetry_space_group_name_H-M   'P 1'
_cell_length_a   5.28853116
_cell_length_b   5.20248046
_cell_length_c   6.47402462
_cell_angle_alpha   115.01777986
_cell_angle_beta   114.86107121
_cell_angle_gamma   90.00414971
_symmetry_Int_Tables_number   1
_chemical_formula_structural   MnZnF4
_chemical_formula_sum   'Mn2 Zn2 F8'
_cell_volume   142.98488945
_cell_formula_units_Z   2
loop_
 _symmetry_equiv_pos_site_id
 _symmetry_equiv_pos_as_xyz
  1  'x, y, z'
loop_
 _atom_site_type_symbol
 _atom_site_label
 _atom_site_symmetry_multiplicity
 _atom_site_fract_x
 _atom_site_fract_y
 _atom_site_fract_z
 _atom_site_occupancy
  Mn  Mn0  1  0.00162200  0.50285400  0.00501900  1
  Mn  Mn1  1  0.50004000  0.99870800  0.99931700  1
  Zn  Zn0  1  0.24061000  0.24487700  0.50315600  1
  Zn  Zn1  1  0.76101500  0.75603500  0.50349300  1
  F  F0  1  0.93677500  0.35343800  0.25847600  1
  F  F1  1  0.67656300  0.08847900  0.75618300  1
  F  F2  1  0.07048800  0.64866100  0.75312700  1
  F  F3  1  0.16383900  0.13733300  0.73960800  1
  F  F4  1  0.32868100  0.91911500  0.25556100  1
  F  F5  1  0.43226100  0.41576500  0.24058000  1
  F  F6  1  0.82414100  0.84569900  0.24763900  1
  F  F7  1  0.56756800  0.58526900  0.74604900  1
loop_
_geom_bond_atom_site_label_1
_geom_bond_atom_site_label_2
_geom_bond_distance
_geom_bond_site_symmetry_2
F0 Zn0 2.006687 1_655
F0 Mn0 2.228527 1_655
F0 Mn1 2.382758 1_544
F0 Zn1 2.489393 1_555
F1 Zn1 2.021974 1_545
F1 Mn0 2.220661 1_656
F1 Mn1 2.329070 1_545
F2 Zn1 2.035248 1_455
F2 Mn0 2.216537 1_556
F2 Mn1 2.348907 1_555
F2 Zn0 2.488059 1_555
F3 Zn0 2.016972 1_555
F3 Mn1 2.240656 1_545
F3 Zn1 2.346611 1_445
F3 Mn0 2.404299 1_556
F4 Zn0 1.997189 1_565
F4 Mn0 2.232022 1_555
F4 Mn1 2.364283 1_554
F5 Zn1 2.004116 1_555
F5 Mn1 2.209153 1_544
F5 Mn0 2.319901 1_555
F6 Zn1 2.047242 1_555
F6 Mn1 2.218482 1_554
F6 Mn0 2.323760 1_655
F6 Zn0 2.435246 1_665
F7 Zn0 1.989127 1_555
F7 Mn1 2.225305 1_555
F7 Mn0 2.374069 1_656
