# generated using pymatgen
data_U2Nb6O21
_symmetry_space_group_name_H-M   'P 1'
_cell_length_a   7.48829883
_cell_length_b   7.48829883
_cell_length_c   16.48901364
_cell_angle_alpha   77.85010409
_cell_angle_beta   77.85010409
_cell_angle_gamma   91.46697771
_symmetry_Int_Tables_number   1
_chemical_formula_structural   U2Nb6O21
_chemical_formula_sum   'U4 Nb12 O42'
_cell_volume   881.29031877
_cell_formula_units_Z   2
loop_
 _symmetry_equiv_pos_site_id
 _symmetry_equiv_pos_as_xyz
  1  'x, y, z'
loop_
 _atom_site_type_symbol
 _atom_site_label
 _atom_site_symmetry_multiplicity
 _atom_site_fract_x
 _atom_site_fract_y
 _atom_site_fract_z
 _atom_site_occupancy
  U  U0  1  0.16213200  0.16581000  0.66884000  1
  U  U1  1  0.83786800  0.83419000  0.33116000  1
  U  U2  1  0.16581000  0.16213200  0.16884000  1
  U  U3  1  0.83419000  0.83786800  0.83116000  1
  Nb  Nb0  1  0.66191700  0.68178800  0.66854600  1
  Nb  Nb1  1  0.33808300  0.31821200  0.33145400  1
  Nb  Nb2  1  0.00000000  0.00000000  0.00000000  1
  Nb  Nb3  1  0.31821200  0.33808300  0.83145400  1
  Nb  Nb4  1  0.00000000  0.00000000  0.50000000  1
  Nb  Nb5  1  0.68178800  0.66191700  0.16854600  1
  Nb  Nb6  1  0.82290700  0.33399600  0.83352300  1
  Nb  Nb7  1  0.50000000  0.00000000  0.50000000  1
  Nb  Nb8  1  0.17709300  0.66600400  0.16647700  1
  Nb  Nb9  1  0.66600400  0.17709300  0.66647700  1
  Nb  Nb10  1  0.33399600  0.82290700  0.33352300  1
  Nb  Nb11  1  0.00000000  0.50000000  0.00000000  1
  O  O0  1  0.71164600  0.42876100  0.64956500  1
  O  O1  1  0.33427500  0.10492800  0.27436100  1
  O  O2  1  0.99268700  0.77272500  0.94694500  1
  O  O3  1  0.82359300  0.60144100  0.76947000  1
  O  O4  1  0.47694200  0.21630000  0.41097200  1
  O  O5  1  0.14285100  0.90585500  0.08981900  1
  O  O6  1  0.44529700  0.55470300  0.75000000  1
  O  O7  1  0.10949300  0.22062600  0.41528900  1
  O  O8  1  0.77937400  0.89050700  0.08471100  1
  O  O9  1  0.57123900  0.28835400  0.85043500  1
  O  O10  1  0.22727500  0.00731300  0.55305500  1
  O  O11  1  0.89507200  0.66572500  0.22563900  1
  O  O12  1  0.39855900  0.17640700  0.73053000  1
  O  O13  1  0.09414500  0.85714900  0.41018100  1
  O  O14  1  0.78370000  0.52305800  0.08902800  1
  O  O15  1  0.84785400  0.15214600  0.75000000  1
  O  O16  1  0.45528800  0.84385400  0.42356800  1
  O  O17  1  0.15614600  0.54471200  0.07643200  1
  O  O18  1  0.66572500  0.89507200  0.72563900  1
  O  O19  1  0.28835400  0.57123900  0.35043500  1
  O  O20  1  0.00731300  0.22727500  0.05305500  1
  O  O21  1  0.85714900  0.09414500  0.91018100  1
  O  O22  1  0.52305800  0.78370000  0.58902800  1
  O  O23  1  0.17640700  0.39855900  0.23053000  1
  O  O24  1  0.22062600  0.10949300  0.91528900  1
  O  O25  1  0.89050700  0.77937400  0.58471100  1
  O  O26  1  0.55470300  0.44529700  0.25000000  1
  O  O27  1  0.42876100  0.71164600  0.14956500  1
  O  O28  1  0.10492800  0.33427500  0.77436100  1
  O  O29  1  0.77272500  0.99268700  0.44694500  1
  O  O30  1  0.21630000  0.47694200  0.91097200  1
  O  O31  1  0.90585500  0.14285100  0.58981900  1
  O  O32  1  0.60144100  0.82359300  0.26947000  1
  O  O33  1  0.84385400  0.45528800  0.92356800  1
  O  O34  1  0.54471200  0.15614600  0.57643200  1
  O  O35  1  0.15214600  0.84785400  0.25000000  1
  O  O36  1  0.38567500  0.21529100  0.09638600  1
  O  O37  1  0.08639800  0.91360200  0.75000000  1
  O  O38  1  0.78470900  0.61432500  0.40361400  1
  O  O39  1  0.61432500  0.78470900  0.90361400  1
  O  O40  1  0.21529100  0.38567500  0.59638600  1
  O  O41  1  0.91360200  0.08639800  0.25000000  1
loop_
_geom_bond_atom_site_label_1
_geom_bond_atom_site_label_2
_geom_bond_distance
_geom_bond_site_symmetry_2
Nb0 O22 1.891064 1_555
Nb0 O6 1.951065 1_555
Nb0 O25 1.972229 1_555
Nb0 O0 2.015778 1_555
Nb0 O18 2.019845 1_555
Nb0 O3 2.249668 1_555
Nb1 O4 1.891064 1_555
Nb1 O26 1.951065 1_555
Nb1 O7 1.972229 1_555
Nb1 O19 2.015778 1_555
Nb1 O1 2.019845 1_555
Nb1 O23 2.249668 1_555
Nb2 O8 1.957028 1_445
Nb2 O24 1.957028 1_554
Nb2 O5 2.025023 1_545
Nb2 O21 2.025023 1_454
Nb2 O20 2.075309 1_555
Nb2 O2 2.075309 1_444
Nb3 O30 1.891064 1_555
Nb3 O6 1.951065 1_555
Nb3 O24 1.972229 1_555
Nb3 O9 2.015778 1_555
Nb3 O28 2.019845 1_555
Nb3 O12 2.249668 1_555
Nb4 O25 1.957028 1_445
Nb4 O7 1.957028 1_555
Nb4 O31 2.025023 1_455
Nb4 O13 2.025023 1_545
Nb4 O10 2.075309 1_555
Nb4 O29 2.075309 1_445
Nb5 O14 1.891064 1_555
Nb5 O26 1.951065 1_555
Nb5 O8 1.972229 1_555
Nb5 O27 2.015778 1_555
Nb5 O11 2.019845 1_555
Nb5 O32 2.249668 1_555
Nb6 O9 1.857915 1_555
Nb6 O33 1.926773 1_555
Nb6 O21 2.023298 1_555
Nb6 O3 2.057469 1_555
Nb6 O15 2.116632 1_555
Nb6 O28 2.131502 1_655
Nb7 O34 1.960994 1_555
Nb7 O16 1.960994 1_545
Nb7 O22 1.982023 1_545
Nb7 O4 1.982023 1_555
Nb7 O29 2.052541 1_545
Nb7 O10 2.052541 1_555
Nb8 O27 1.857915 1_555
Nb8 O17 1.926773 1_555
Nb8 O5 2.023298 1_555
Nb8 O23 2.057469 1_555
Nb8 O35 2.116632 1_555
Nb8 O11 2.131502 1_455
Nb9 O0 1.857915 1_555
Nb9 O34 1.926773 1_555
Nb9 O31 2.023298 1_555
Nb9 O12 2.057469 1_555
Nb9 O15 2.116632 1_555
Nb9 O18 2.131502 1_545
Nb10 O19 1.857915 1_555
Nb10 O16 1.926773 1_555
Nb10 O13 2.023298 1_555
Nb10 O32 2.057469 1_555
Nb10 O35 2.116632 1_555
Nb10 O1 2.131502 1_565
Nb11 O17 1.960994 1_555
Nb11 O33 1.960994 1_454
Nb11 O14 1.982023 1_455
Nb11 O30 1.982023 1_554
Nb11 O2 2.052541 1_454
Nb11 O20 2.052541 1_555
O1 U2 2.332419 1_555
O2 U3 2.425498 1_555
O3 U3 2.227175 1_555
O5 U2 2.557371 1_565
O10 U0 2.425498 1_555
O11 U1 2.332419 1_555
O12 U0 2.227175 1_555
O13 U1 2.557371 1_455
O15 U0 2.438075 1_655
O15 U3 2.438075 1_545
O18 U3 2.332419 1_555
O20 U2 2.425498 1_555
O21 U3 2.557371 1_545
O23 U2 2.227175 1_555
O28 U0 2.332419 1_555
O29 U1 2.425498 1_555
O31 U0 2.557371 1_655
O32 U1 2.227175 1_555
O35 U2 2.438075 1_565
O35 U1 2.438075 1_455
O36 U2 1.798533 1_555
O37 U3 2.059410 1_455
O37 U0 2.059410 1_565
O38 U1 1.798533 1_555
O39 U3 1.798533 1_555
O40 U0 1.798533 1_555
O41 U1 2.059410 1_545
O41 U2 2.059410 1_655
