# generated using pymatgen
data_BAsO4
_symmetry_space_group_name_H-M   'P 1'
_cell_length_a   4.54665104
_cell_length_b   4.54665060
_cell_length_c   10.36526952
_cell_angle_alpha   90.00000000
_cell_angle_beta   90.00000000
_cell_angle_gamma   120.00001004
_symmetry_Int_Tables_number   1
_chemical_formula_structural   BAsO4
_chemical_formula_sum   'B3 As3 O12'
_cell_volume   185.56428433
_cell_formula_units_Z   3
loop_
 _symmetry_equiv_pos_site_id
 _symmetry_equiv_pos_as_xyz
  1  'x, y, z'
loop_
 _atom_site_type_symbol
 _atom_site_label
 _atom_site_symmetry_multiplicity
 _atom_site_fract_x
 _atom_site_fract_y
 _atom_site_fract_z
 _atom_site_occupancy
  B  B0  1  0.54066608  -0.00000000  0.33333300  1
  B  B1  1  -0.00000000  0.54066608  0.66666700  1
  B  B2  1  0.45933392  0.45933392  -0.00000000  1
  As  As0  1  0.54449500  0.00000000  0.83333300  1
  As  As1  1  0.45550500  0.45550500  0.50000000  1
  As  As2  1  0.00000000  0.54449500  0.16666700  1
  O  O0  1  0.27876877  0.87617419  0.70467545  1
  O  O1  1  0.68728822  0.60674994  0.11117160  1
  O  O2  1  0.39325006  0.08053828  0.44450460  1
  O  O3  1  0.59740543  0.72123123  0.37134145  1
  O  O4  1  0.87617419  0.27876877  0.29532455  1
  O  O5  1  0.12382581  0.40259457  0.03800845  1
  O  O6  1  0.72123123  0.59740543  0.62865855  1
  O  O7  1  0.40259457  0.12382581  0.96199155  1
  O  O8  1  0.08053828  0.39325006  0.55549540  1
  O  O9  1  0.60674994  0.68728822  0.88882840  1
  O  O10  1  0.31271178  0.91946172  0.22216140  1
  O  O11  1  0.91946172  0.31271178  0.77783860  1
loop_
_geom_bond_atom_site_label_1
_geom_bond_atom_site_label_2
_geom_bond_distance
_geom_bond_site_symmetry_2
B0 O4 1.468060 1_555
B0 O3 1.468060 1_545
B0 O10 1.468538 1_545
B0 O2 1.468538 1_555
B1 O0 1.468060 1_555
B1 O6 1.468060 1_455
B1 O11 1.468537 1_455
B1 O8 1.468538 1_555
B2 O7 1.468060 1_554
B2 O5 1.468060 1_555
B2 O9 1.468537 1_554
B2 O1 1.468537 1_555
As0 O11 1.683722 1_555
As0 O9 1.683726 1_545
As0 O0 1.695536 1_545
As0 O7 1.695545 1_555
As1 O2 1.683726 1_555
As1 O8 1.683726 1_555
As1 O3 1.695544 1_555
As1 O6 1.695545 1_555
As2 O10 1.683722 1_555
As2 O1 1.683726 1_455
As2 O4 1.695536 1_455
As2 O5 1.695545 1_555
