# generated using pymatgen
data_Tm2B6Os
_symmetry_space_group_name_H-M   'P 1'
_cell_length_a   3.61183316
_cell_length_b   9.05426635
_cell_length_c   11.41713141
_cell_angle_alpha   90.00000214
_cell_angle_beta   90.00000165
_cell_angle_gamma   89.99999971
_symmetry_Int_Tables_number   1
_chemical_formula_structural   Tm2B6Os
_chemical_formula_sum   'Tm8 B24 Os4'
_cell_volume   373.36873357
_cell_formula_units_Z   4
loop_
 _symmetry_equiv_pos_site_id
 _symmetry_equiv_pos_as_xyz
  1  'x, y, z'
loop_
 _atom_site_type_symbol
 _atom_site_label
 _atom_site_symmetry_multiplicity
 _atom_site_fract_x
 _atom_site_fract_y
 _atom_site_fract_z
 _atom_site_occupancy
  Tm  Tm0  1  -0.00000043  0.32094114  0.41412208  1
  Tm  Tm1  1  -0.00000033  0.67905903  0.58587873  1
  Tm  Tm2  1  -0.00000001  0.82094216  0.08587974  1
  Tm  Tm3  1  -0.00000006  0.17905813  0.91411944  1
  Tm  Tm4  1  0.00000014  0.94415121  0.37352685  1
  Tm  Tm5  1  0.00000010  0.05584902  0.62647322  1
  Tm  Tm6  1  0.00000008  0.44415169  0.12647494  1
  Tm  Tm7  1  0.00000016  0.55584869  0.87352505  1
  B  B0  1  0.50000002  0.55349260  0.43350910  1
  B  B1  1  0.50000002  0.44650723  0.56649193  1
  B  B2  1  0.49999989  0.05349295  0.06649300  1
  B  B3  1  0.49999997  0.94650687  0.93350613  1
  B  B4  1  0.50000002  0.74840529  0.42045711  1
  B  B5  1  0.49999994  0.25159456  0.57954385  1
  B  B6  1  0.49999989  0.24840438  0.07954488  1
  B  B7  1  0.49999988  0.75159561  0.92045429  1
  B  B8  1  0.49999999  0.79142227  0.26624206  1
  B  B9  1  0.49999996  0.20857748  0.73375825  1
  B  B10  1  0.49999995  0.29142277  0.23376103  1
  B  B11  1  0.49999992  0.70857706  0.76623877  1
  B  B12  1  0.50000014  0.63147176  0.18489864  1
  B  B13  1  0.49999994  0.36852848  0.81510151  1
  B  B14  1  0.50000008  0.13147167  0.31510424  1
  B  B15  1  0.50000000  0.86852866  0.68489579  1
  B  B16  1  0.50000002  0.98220679  0.21314465  1
  B  B17  1  0.50000004  0.01779309  0.78685509  1
  B  B18  1  0.50000011  0.48220707  0.28685811  1
  B  B19  1  0.50000008  0.51779284  0.71314237  1
  B  B20  1  0.50000009  0.60855090  0.03007775  1
  B  B21  1  0.50000005  0.39144951  0.96992166  1
  B  B22  1  0.50000012  0.10855114  0.46992248  1
  B  B23  1  0.50000011  0.89144894  0.53007824  1
  Os  Os0  1  0.00000001  0.63731350  0.32137011  1
  Os  Os1  1  0.00000006  0.36268646  0.67863035  1
  Os  Os2  1  0.00000005  0.13731486  0.17863221  1
  Os  Os3  1  -0.00000001  0.86268518  0.82136734  1
loop_
_geom_bond_atom_site_label_1
_geom_bond_atom_site_label_2
_geom_bond_distance
_geom_bond_site_symmetry_2
B0 B4 1.771072 1_555
B0 B18 1.794431 1_555
B0 B1 1.800975 1_555
B0 Os0 2.340193 1_555
B0 Os0 2.340193 1_655
B0 Tm1 2.753215 1_655
B0 Tm1 2.753216 1_555
B0 Tm0 2.782769 1_655
B0 Tm0 2.782771 1_555
B1 B5 1.771071 1_555
B1 B19 1.794426 1_555
B1 Os1 2.340189 1_555
B1 Os1 2.340189 1_655
B1 Tm0 2.753215 1_655
B1 Tm0 2.753217 1_555
B1 Tm1 2.782771 1_655
B1 Tm1 2.782773 1_555
B2 B6 1.771060 1_555
B2 B3 1.801017 1_544
B2 Os2 2.340197 1_555
B2 Os2 2.340197 1_655
B2 Tm3 2.753239 1_554
B2 Tm3 2.753239 1_654
B2 Tm2 2.782765 1_545
B2 Tm2 2.782765 1_645
B3 B7 1.771059 1_555
B3 Os3 2.340194 1_555
B3 Os3 2.340194 1_655
B3 Tm2 2.753238 1_556
B3 Tm2 2.753238 1_656
B3 Tm3 2.782768 1_665
B3 Tm3 2.782768 1_565
B4 B8 1.803259 1_555
B4 Os0 2.356458 1_655
B4 Os0 2.356458 1_555
B4 Tm4 2.586426 1_555
B4 Tm4 2.586426 1_655
B4 Tm1 2.687476 1_655
B4 Tm1 2.687477 1_555
B5 B9 1.803252 1_555
B5 Os1 2.356455 1_555
B5 Os1 2.356456 1_655
B5 Tm5 2.586421 1_555
B5 Tm5 2.586422 1_655
B5 Tm0 2.687478 1_655
B5 Tm0 2.687479 1_555
B6 Os2 2.356451 1_555
B6 Os2 2.356451 1_655
B6 Tm6 2.586434 1_555
B6 Tm6 2.586435 1_655
B6 Tm3 2.687507 1_554
B6 Tm3 2.687507 1_654
B7 Os3 2.356449 1_555
B7 Os3 2.356449 1_655
B7 Tm7 2.586429 1_555
B7 Tm7 2.586431 1_655
B7 Tm2 2.687508 1_556
B7 Tm2 2.687508 1_656
B8 Os0 2.367375 1_555
B8 Os0 2.367375 1_655
B8 Tm4 2.583398 1_555
B8 Tm4 2.583399 1_655
B8 Tm2 2.751938 1_555
B8 Tm2 2.751938 1_655
B9 Os1 2.367375 1_555
B9 Os1 2.367376 1_655
B9 Tm5 2.583397 1_555
B9 Tm5 2.583398 1_655
B9 Tm3 2.751928 1_655
B9 Tm3 2.751928 1_555
B10 B14 1.720434 1_555
B10 B6 1.803274 1_555
B10 B18 1.830697 1_555
B10 Os2 2.367372 1_555
B10 Os2 2.367373 1_655
B10 Tm6 2.583405 1_555
B10 Tm6 2.583406 1_655
B10 Tm0 2.751925 1_655
B10 Tm0 2.751927 1_555
B11 B15 1.720437 1_555
B11 B7 1.803267 1_555
B11 B19 1.830693 1_555
B11 Os3 2.367373 1_555
B11 Os3 2.367373 1_655
B11 Tm7 2.583403 1_555
B11 Tm7 2.583404 1_655
B11 Tm1 2.751916 1_655
B11 Tm1 2.751917 1_555
B12 B8 1.720431 1_555
B12 B20 1.779752 1_555
B12 B18 1.783703 1_555
B12 Os0 2.385759 1_655
B12 Os0 2.385760 1_555
B12 Tm6 2.565704 1_655
B12 Tm6 2.565704 1_555
B12 Tm2 2.735395 1_655
B12 Tm2 2.735395 1_555
B13 B9 1.720434 1_555
B13 B21 1.779743 1_555
B13 B19 1.783699 1_555
B13 Os1 2.385757 1_555
B13 Os1 2.385757 1_655
B13 Tm7 2.565704 1_555
B13 Tm7 2.565705 1_655
B13 Tm3 2.735390 1_655
B13 Tm3 2.735390 1_555
B14 B22 1.779721 1_555
B14 B16 1.783705 1_545
B14 Os2 2.385764 1_655
B14 Os2 2.385764 1_555
B14 Tm4 2.565703 1_545
B14 Tm4 2.565703 1_645
B14 Tm0 2.735383 1_655
B14 Tm0 2.735386 1_555
B15 B23 1.779713 1_555
B15 B17 1.783700 1_565
B15 Os3 2.385760 1_655
B15 Os3 2.385760 1_555
B15 Tm5 2.565702 1_565
B15 Tm5 2.565703 1_665
B15 Tm1 2.735381 1_655
B15 Tm1 2.735383 1_555
B16 B2 1.794440 1_565
B16 B8 1.830700 1_555
B16 Os2 2.321402 1_565
B16 Os2 2.321402 1_665
B16 Tm4 2.594803 1_555
B16 Tm4 2.594804 1_655
B16 Tm2 2.739440 1_655
B16 Tm2 2.739440 1_555
B17 B3 1.794434 1_545
B17 B9 1.830696 1_555
B17 Os3 2.321401 1_645
B17 Os3 2.321401 1_545
B17 Tm5 2.594801 1_555
B17 Tm5 2.594801 1_655
B17 Tm3 2.739438 1_655
B17 Tm3 2.739439 1_555
B18 Os0 2.321392 1_655
B18 Os0 2.321392 1_555
B18 Tm6 2.594811 1_655
B18 Tm6 2.594811 1_555
B18 Tm0 2.739439 1_655
B18 Tm0 2.739442 1_555
B19 Os1 2.321392 1_655
B19 Os1 2.321392 1_555
B19 Tm7 2.594807 1_555
B19 Tm7 2.594808 1_655
B19 Tm1 2.739439 1_655
B19 Tm1 2.739441 1_555
B20 B7 1.801088 1_554
B20 B21 2.082225 1_554
B20 Tm7 2.585299 1_554
B20 Tm7 2.585299 1_654
B20 Tm6 2.586172 1_655
B20 Tm6 2.586172 1_555
B20 Tm2 2.713916 1_655
B20 Tm2 2.713916 1_555
B21 B6 1.801089 1_556
B21 Tm6 2.585304 1_556
B21 Tm6 2.585304 1_656
B21 Tm7 2.586168 1_555
B21 Tm7 2.586169 1_655
B21 Tm3 2.713917 1_655
B21 Tm3 2.713917 1_555
B22 B5 1.801063 1_555
B22 B23 2.082231 1_545
B22 Tm5 2.585284 1_655
B22 Tm5 2.585284 1_555
B22 Tm4 2.586168 1_545
B22 Tm4 2.586168 1_645
B22 Tm0 2.713902 1_655
B22 Tm0 2.713905 1_555
B23 B4 1.801063 1_555
B23 Tm4 2.585289 1_555
B23 Tm4 2.585289 1_655
B23 Tm5 2.586165 1_665
B23 Tm5 2.586166 1_565
B23 Tm1 2.713902 1_655
B23 Tm1 2.713904 1_555
Os0 Tm6 2.830203 1_555
Os0 Tm4 2.841292 1_555
Os0 Tm1 3.043491 1_555
Os0 Tm0 3.053993 1_555
Os0 Tm2 3.161173 1_555
Os1 Tm7 2.830201 1_555
Os1 Tm5 2.841290 1_555
Os1 Tm0 3.043487 1_555
Os1 Tm1 3.053993 1_555
Os1 Tm3 3.161159 1_555
Os2 Tm4 2.830209 1_545
Os2 Tm6 2.841285 1_555
Os2 Tm3 3.043536 1_554
Os2 Tm2 3.053998 1_545
Os2 Tm0 3.161157 1_555
Os3 Tm5 2.830205 1_565
Os3 Tm7 2.841283 1_555
Os3 Tm2 3.043532 1_556
Os3 Tm3 3.053998 1_565
Os3 Tm1 3.161144 1_555
