# generated using pymatgen
data_TeAs2
_symmetry_space_group_name_H-M   'P 1'
_cell_length_a   5.82609341
_cell_length_b   5.82609341
_cell_length_c   5.82609341
_cell_angle_alpha   104.75800787
_cell_angle_beta   104.75800787
_cell_angle_gamma   119.37514627
_symmetry_Int_Tables_number   1
_chemical_formula_structural   TeAs2
_chemical_formula_sum   'Te2 As4'
_cell_volume   148.77087926
_cell_formula_units_Z   2
loop_
 _symmetry_equiv_pos_site_id
 _symmetry_equiv_pos_as_xyz
  1  'x, y, z'
loop_
 _atom_site_type_symbol
 _atom_site_label
 _atom_site_symmetry_multiplicity
 _atom_site_fract_x
 _atom_site_fract_y
 _atom_site_fract_z
 _atom_site_occupancy
  Te  Te0  1  0.00000000  0.00000000  0.00000000  1
  Te  Te1  1  0.25000000  0.75000000  0.50000000  1
  As  As0  1  0.62500000  0.37500000  0.75000000  1
  As  As1  1  0.62500000  0.87500000  0.25000000  1
  As  As2  1  0.62500000  0.37500000  0.25000000  1
  As  As3  1  0.12500000  0.37500000  0.75000000  1
loop_
_geom_bond_atom_site_label_1
_geom_bond_atom_site_label_2
_geom_bond_distance
_geom_bond_site_symmetry_2
As0 Te1 2.832988 1_545
As0 Te0 2.832988 1_666
As0 As2 2.913047 1_555
As0 As3 2.913047 1_555
As0 As3 2.913047 1_655
As0 As2 2.913047 1_556
As1 Te1 2.832988 1_555
As1 Te0 2.832988 1_665
As1 As2 2.913047 1_565
As1 As2 2.913047 1_555
As1 As3 2.913047 1_554
As1 As3 2.913047 1_665
As2 Te1 2.832988 1_655
As2 Te0 2.832988 1_555
As3 Te0 2.832988 1_556
As3 Te1 2.832988 1_555
