# generated using pymatgen
data_Lu3MnFe3O10
_symmetry_space_group_name_H-M   'P 1'
_cell_length_a   3.47914529
_cell_length_b   3.47914529
_cell_length_c   20.65231948
_cell_angle_alpha   89.99999709
_cell_angle_beta   94.83182471
_cell_angle_gamma   60.00001350
_symmetry_Int_Tables_number   1
_chemical_formula_structural   Lu3MnFe3O10
_chemical_formula_sum   'Lu3 Mn1 Fe3 O10'
_cell_volume   215.46696227
_cell_formula_units_Z   1
loop_
 _symmetry_equiv_pos_site_id
 _symmetry_equiv_pos_as_xyz
  1  'x, y, z'
loop_
 _atom_site_type_symbol
 _atom_site_label
 _atom_site_symmetry_multiplicity
 _atom_site_fract_x
 _atom_site_fract_y
 _atom_site_fract_z
 _atom_site_occupancy
  Lu  Lu0  1  0.99989600  0.00005200  0.99984400  1
  Lu  Lu1  1  0.80595200  0.09702400  0.70892700  1
  Lu  Lu2  1  0.19087400  0.90456300  0.28631100  1
  Mn  Mn0  1  0.62446300  0.18776800  0.43669500  1
  Fe  Fe0  1  0.37456900  0.81271600  0.56185300  1
  Fe  Fe1  1  0.23668200  0.38165900  0.85502200  1
  Fe  Fe2  1  0.76179100  0.61910400  0.14268700  1
  O  O0  1  0.55719000  0.22140500  0.33578500  1
  O  O1  1  0.43903200  0.78048400  0.65854700  1
  O  O2  1  0.90326500  0.04836700  0.85489800  1
  O  O3  1  0.09431200  0.95284400  0.14146800  1
  O  O4  1  0.30063300  0.34968300  0.95095000  1
  O  O5  1  0.69797100  0.65101500  0.04695600  1
  O  O6  1  0.17171400  0.41414300  0.75757100  1
  O  O7  1  0.82532400  0.58733800  0.23798600  1
  O  O8  1  0.70691300  0.14654400  0.56036900  1
  O  O9  1  0.30941900  0.84529000  0.46412900  1
loop_
_geom_bond_atom_site_label_1
_geom_bond_atom_site_label_2
_geom_bond_distance
_geom_bond_site_symmetry_2
Lu0 O5 2.229917 1_546
Lu0 O5 2.229920 1_556
Lu0 O5 2.229920 1_646
Lu0 O4 2.246065 1_655
Lu0 O4 2.246068 1_555
Lu0 O4 2.246068 1_645
Lu1 O6 2.243771 1_655
Lu1 O6 2.243772 1_645
Lu1 O6 2.243774 1_555
Lu1 O1 2.259898 1_545
Lu1 O1 2.259899 1_555
Lu1 O1 2.259899 1_645
Lu2 O7 2.240858 1_455
Lu2 O7 2.240858 1_465
Lu2 O7 2.240858 1_555
Lu2 O0 2.251426 1_565
Lu2 O0 2.251427 1_465
Lu2 O0 2.251427 1_555
Mn0 O0 2.074145 1_555
Mn0 O9 2.086334 1_545
Mn0 O9 2.086334 1_555
Mn0 O9 2.086334 1_645
Mn0 O8 2.542045 1_555
Fe0 O1 1.987487 1_555
Fe0 O9 2.008658 1_555
Fe0 O8 2.008917 1_565
Fe0 O8 2.008917 1_555
Fe0 O8 2.008917 1_465
Fe1 O4 1.971743 1_555
Fe1 O6 2.003047 1_555
Fe1 O2 2.008684 1_555
Fe1 O2 2.008687 1_465
Fe1 O2 2.008690 1_455
Fe2 O7 1.958814 1_555
Fe2 O5 1.967694 1_555
Fe2 O3 2.008841 1_555
Fe2 O3 2.008841 1_645
Fe2 O3 2.008844 1_655
