# generated using pymatgen
data_Li2Fe3CoO8
_symmetry_space_group_name_H-M   'P 1'
_cell_length_a   8.36714300
_cell_length_b   8.39837566
_cell_length_c   8.44741419
_cell_angle_alpha   90.16054149
_cell_angle_beta   90.12760872
_cell_angle_gamma   90.08690862
_symmetry_Int_Tables_number   1
_chemical_formula_structural   Li2Fe3CoO8
_chemical_formula_sum   'Li8 Fe12 Co4 O32'
_cell_volume   593.59876882
_cell_formula_units_Z   4
loop_
 _symmetry_equiv_pos_site_id
 _symmetry_equiv_pos_as_xyz
  1  'x, y, z'
loop_
 _atom_site_type_symbol
 _atom_site_label
 _atom_site_symmetry_multiplicity
 _atom_site_fract_x
 _atom_site_fract_y
 _atom_site_fract_z
 _atom_site_occupancy
  Li  Li0  1  0.12314000  0.37417000  0.12205700  1
  Li  Li1  1  0.25010000  0.75196400  0.24891200  1
  Li  Li2  1  0.25100100  0.25027200  0.74973000  1
  Li  Li3  1  0.37613900  0.87699900  0.87612300  1
  Li  Li4  1  0.62222500  0.62480400  0.37781500  1
  Li  Li5  1  0.75187500  0.25017000  0.25112800  1
  Li  Li6  1  0.74976600  0.75210200  0.74984300  1
  Li  Li7  1  0.87963800  0.12380400  0.62480200  1
  Fe  Fe0  1  0.12119500  0.12338000  0.37846400  1
  Fe  Fe1  1  0.12424200  0.88290900  0.62600900  1
  Fe  Fe2  1  0.12471500  0.62381700  0.88022100  1
  Fe  Fe3  1  0.37537400  0.12367900  0.11818200  1
  Fe  Fe4  1  0.37752700  0.38116600  0.37490000  1
  Fe  Fe5  1  0.38074200  0.62539000  0.62369500  1
  Fe  Fe6  1  0.61710700  0.87325000  0.12095900  1
  Fe  Fe7  1  0.62301300  0.11834800  0.87614800  1
  Fe  Fe8  1  0.62452500  0.37915800  0.61913600  1
  Fe  Fe9  1  0.87602000  0.87441700  0.38130700  1
  Fe  Fe10  1  0.87651800  0.61925800  0.12503500  1
  Fe  Fe11  1  0.88110900  0.37542700  0.87547000  1
  Co  Co0  1  0.00018500  0.49850100  0.50097200  1
  Co  Co1  1  0.50500000  0.99857300  0.50076600  1
  Co  Co2  1  0.49950600  0.49814300  0.99815000  1
  Co  Co3  1  0.99937400  0.99963500  0.00168400  1
  O  O0  1  0.10712500  0.39005300  0.87225600  1
  O  O1  1  0.10952000  0.62710900  0.10600100  1
  O  O2  1  0.11728300  0.88980300  0.38482700  1
  O  O3  1  0.12741300  0.10990500  0.60857800  1
  O  O4  1  0.12054600  0.86224200  0.85948100  1
  O  O5  1  0.14132200  0.63611000  0.63587100  1
  O  O6  1  0.13510200  0.35419300  0.37845000  1
  O  O7  1  0.14265000  0.12050900  0.14091300  1
  O  O8  1  0.36163900  0.62342700  0.85884300  1
  O  O9  1  0.36443100  0.86487400  0.62139100  1
  O  O10  1  0.36436500  0.13217200  0.36830400  1
  O  O11  1  0.37911800  0.35901500  0.14107200  1
  O  O12  1  0.37060700  0.60848100  0.39431800  1
  O  O13  1  0.38749500  0.38568000  0.61425300  1
  O  O14  1  0.39014900  0.12776800  0.89334500  1
  O  O15  1  0.39021300  0.89304000  0.12128100  1
  O  O16  1  0.60336600  0.61580900  0.62594600  1
  O  O17  1  0.61311900  0.37621300  0.39663400  1
  O  O18  1  0.61235800  0.11333100  0.11656200  1
  O  O19  1  0.62912200  0.89374900  0.88979800  1
  O  O20  1  0.61556200  0.13010000  0.63639200  1
  O  O21  1  0.63639800  0.36107100  0.85711700  1
  O  O22  1  0.63526500  0.63969200  0.12367700  1
  O  O23  1  0.63179700  0.88111800  0.36709800  1
  O  O24  1  0.85843900  0.37689100  0.63939600  1
  O  O25  1  0.86221600  0.14089700  0.87644000  1
  O  O26  1  0.86023500  0.86426600  0.14199700  1
  O  O27  1  0.87884200  0.63779700  0.36083300  1
  O  O28  1  0.87265700  0.39190700  0.10402200  1
  O  O29  1  0.88359500  0.61223900  0.88380300  1
  O  O30  1  0.89153000  0.87251900  0.60419000  1
  O  O31  1  0.89648800  0.10876000  0.37532900  1
loop_
_geom_bond_atom_site_label_1
_geom_bond_atom_site_label_2
_geom_bond_distance
_geom_bond_site_symmetry_2
Li0 O28 2.106548 1_455
Li0 O0 2.118714 1_554
Li0 O1 2.132185 1_555
Li0 O7 2.143178 1_555
Li0 O11 2.151450 1_555
Li0 O6 2.174909 1_555
Li1 O2 1.973682 1_555
Li1 O1 1.980739 1_555
Li1 O15 1.987248 1_555
Li1 O12 1.995983 1_555
Li2 O3 1.965628 1_555
Li2 O14 1.972349 1_555
Li2 O0 1.975257 1_555
Li2 O13 1.979002 1_555
Li3 O15 2.078018 1_556
Li3 O14 2.113722 1_565
Li3 O19 2.124067 1_555
Li3 O8 2.137426 1_555
Li3 O4 2.146257 1_555
Li3 O9 2.155952 1_555
Li4 O17 2.095532 1_555
Li4 O16 2.103906 1_555
Li4 O12 2.114510 1_555
Li4 O22 2.153795 1_555
Li4 O27 2.154877 1_555
Li4 O23 2.156152 1_555
Li5 O18 1.989550 1_555
Li5 O31 1.995240 1_555
Li5 O17 1.995506 1_555
Li5 O28 1.998180 1_555
Li6 O19 1.957792 1_555
Li6 O16 1.972160 1_555
Li6 O29 1.979889 1_555
Li6 O30 1.988319 1_555
Li7 O3 2.081429 1_655
Li7 O31 2.115861 1_555
Li7 O30 2.119576 1_545
Li7 O25 2.135451 1_555
Li7 O24 2.136415 1_555
Li7 O20 2.212653 1_555
Fe0 O31 1.884097 1_455
Fe0 O6 1.941768 1_555
Fe0 O3 1.948060 1_555
Fe0 O2 1.962780 1_545
Fe0 O7 2.015184 1_555
Fe0 O10 2.037873 1_555
Fe1 O3 1.912636 1_565
Fe1 O30 1.957221 1_455
Fe1 O4 1.980648 1_555
Fe1 O9 2.016080 1_555
Fe1 O2 2.039053 1_555
Fe1 O5 2.079737 1_555
Fe2 O1 1.911898 1_556
Fe2 O0 1.969475 1_555
Fe2 O8 1.990993 1_555
Fe2 O4 2.010870 1_555
Fe2 O29 2.019978 1_455
Fe2 O5 2.071958 1_555
Fe3 O14 1.903987 1_554
Fe3 O15 1.941402 1_545
Fe3 O7 1.957253 1_555
Fe3 O18 1.984990 1_555
Fe3 O11 1.985530 1_555
Fe3 O10 2.116104 1_555
Fe4 O12 1.916626 1_555
Fe4 O17 1.979867 1_555
Fe4 O11 1.983540 1_555
Fe4 O13 2.023694 1_555
Fe4 O6 2.040969 1_555
Fe4 O10 2.094455 1_555
Fe5 O16 1.864643 1_555
Fe5 O12 1.944095 1_555
Fe5 O8 1.993280 1_555
Fe5 O5 2.008271 1_555
Fe5 O13 2.015414 1_555
Fe5 O9 2.016254 1_555
Fe6 O15 1.905974 1_555
Fe6 O19 1.963552 1_554
Fe6 O22 1.967807 1_555
Fe6 O18 2.017187 1_565
Fe6 O26 2.043166 1_555
Fe6 O23 2.083452 1_555
Fe7 O19 1.890872 1_545
Fe7 O14 1.955841 1_555
Fe7 O25 2.010094 1_555
Fe7 O20 2.028822 1_555
Fe7 O18 2.033583 1_556
Fe7 O21 2.048172 1_555
Fe8 O17 1.881867 1_555
Fe8 O24 1.964406 1_555
Fe8 O13 1.984443 1_555
Fe8 O16 1.996301 1_555
Fe8 O21 2.018716 1_555
Fe8 O20 2.098402 1_555
Fe9 O30 1.887077 1_555
Fe9 O31 1.976075 1_565
Fe9 O27 1.994433 1_555
Fe9 O2 2.022765 1_655
Fe9 O26 2.027114 1_555
Fe9 O23 2.047572 1_555
Fe10 O28 1.917334 1_555
Fe10 O1 1.957563 1_655
Fe10 O27 1.997573 1_555
Fe10 O22 2.026149 1_555
Fe10 O29 2.039468 1_554
Fe10 O26 2.066974 1_555
Fe11 O0 1.895167 1_655
Fe11 O28 1.936698 1_556
Fe11 O25 1.975807 1_555
Fe11 O29 1.989960 1_555
Fe11 O24 2.002869 1_555
Fe11 O21 2.056378 1_555
Co0 O27 1.951107 1_455
Co0 O6 1.953641 1_555
Co0 O24 1.956078 1_455
Co0 O5 2.002807 1_555
Co1 O20 1.836749 1_565
Co1 O23 1.837352 1_555
Co1 O9 1.920989 1_555
Co1 O10 1.975050 1_565
Co2 O22 1.952276 1_556
Co2 O8 1.956314 1_555
Co2 O11 1.961456 1_556
Co2 O21 2.014669 1_555
Co3 O4 1.950271 1_654
Co3 O7 1.958130 1_665
Co3 O25 1.962041 1_564
Co3 O26 2.015546 1_555
