# generated using pymatgen
data_Ca2FeWO6
_symmetry_space_group_name_H-M   'P 1'
_cell_length_a   5.64459419
_cell_length_b   5.61574329
_cell_length_c   9.69364846
_cell_angle_alpha   106.06759764
_cell_angle_beta   105.91568016
_cell_angle_gamma   60.00246172
_symmetry_Int_Tables_number   1
_chemical_formula_structural   Ca2FeWO6
_chemical_formula_sum   'Ca4 Fe2 W2 O12'
_cell_volume   252.28909481
_cell_formula_units_Z   2
loop_
 _symmetry_equiv_pos_site_id
 _symmetry_equiv_pos_as_xyz
  1  'x, y, z'
loop_
 _atom_site_type_symbol
 _atom_site_label
 _atom_site_symmetry_multiplicity
 _atom_site_fract_x
 _atom_site_fract_y
 _atom_site_fract_z
 _atom_site_occupancy
  Ca  Ca0  1  0.40879900  0.39383600  0.13576800  1
  Ca  Ca1  1  0.91060600  0.89490000  0.63691400  1
  Ca  Ca2  1  0.65453800  0.64014500  0.88451800  1
  Ca  Ca3  1  0.15770800  0.13962200  0.38495500  1
  Fe  Fe0  1  0.25497600  0.23924900  0.75076200  1
  Fe  Fe1  1  0.75645800  0.73769200  0.25123300  1
  W  W0  1  0.99699100  0.98183800  0.99932500  1
  W  W1  1  0.49835500  0.48214600  0.49847000  1
  O  O0  1  0.89217700  0.30728400  0.57054100  1
  O  O1  1  0.39078700  0.80432700  0.07063000  1
  O  O2  1  0.52546600  0.68076200  0.37265600  1
  O  O3  1  0.02334700  0.18002200  0.87454900  1
  O  O4  1  0.41520600  0.79061700  0.66031400  1
  O  O5  1  0.91465700  0.28547900  0.16107600  1
  O  O6  1  0.09606200  0.62949800  0.42785600  1
  O  O7  1  0.59551100  0.12610200  0.92707300  1
  O  O8  1  0.54578400  0.17207300  0.33318100  1
  O  O9  1  0.04623300  0.66720500  0.83365000  1
  O  O10  1  0.46017200  0.25663200  0.60777600  1
  O  O11  1  0.95689700  0.75553200  0.10910700  1
loop_
_geom_bond_atom_site_label_1
_geom_bond_atom_site_label_2
_geom_bond_distance
_geom_bond_site_symmetry_2
Ca0 O8 2.314233 1_555
Ca0 O7 2.316267 1_554
Ca0 O11 2.333960 1_455
Ca0 O1 2.501838 1_555
Ca0 O2 2.546867 1_555
Ca0 O5 2.558249 1_555
Ca1 O6 2.314200 1_655
Ca1 O9 2.329887 1_655
Ca1 O10 2.330239 1_565
Ca1 O0 2.516962 1_565
Ca1 O3 2.539348 1_665
Ca1 O4 2.560920 1_655
Ca2 O1 2.345436 1_556
Ca2 O4 2.351040 1_555
Ca2 O3 2.369216 1_655
Ca2 O9 2.475871 1_655
Ca2 O7 2.504338 1_565
Ca2 O11 2.521808 1_556
Ca3 O5 2.343137 1_455
Ca3 O0 2.345096 1_455
Ca3 O2 2.362288 1_545
Ca3 O8 2.477148 1_555
Ca3 O10 2.515082 1_555
Ca3 O6 2.520122 1_555
Fe0 O10 2.083422 1_555
Fe0 O9 2.104408 1_555
Fe0 O7 2.144212 1_555
Fe0 O3 2.185434 1_555
Fe0 O4 2.206313 1_545
Fe0 O0 2.239795 1_455
Fe1 O11 2.057386 1_555
Fe1 O8 2.130851 1_565
Fe1 O6 2.141575 1_655
Fe1 O2 2.157420 1_555
Fe1 O5 2.223116 1_555
Fe1 O1 2.252514 1_555
O0 W1 1.933701 1_555
O1 W0 1.932747 1_454
O2 W1 1.944459 1_555
O3 W0 1.932140 1_445
O4 W1 1.941372 1_555
O5 W0 1.925968 1_544
O6 W1 1.972785 1_555
O7 W0 1.972380 1_545
O8 W1 1.973758 1_555
O9 W0 1.990327 1_455
O10 W1 1.978371 1_555
O11 W0 1.991774 1_554
