# generated using pymatgen
data_U8Pb3
_symmetry_space_group_name_H-M   'P 1'
_cell_length_a   6.16202600
_cell_length_b   9.14749400
_cell_length_c   9.64142500
_cell_angle_alpha   90.00000000
_cell_angle_beta   90.00000000
_cell_angle_gamma   90.00000000
_symmetry_Int_Tables_number   1
_chemical_formula_structural   U8Pb3
_chemical_formula_sum   'U16 Pb6'
_cell_volume   543.45912723
_cell_formula_units_Z   2
loop_
 _symmetry_equiv_pos_site_id
 _symmetry_equiv_pos_as_xyz
  1  'x, y, z'
loop_
 _atom_site_type_symbol
 _atom_site_label
 _atom_site_symmetry_multiplicity
 _atom_site_fract_x
 _atom_site_fract_y
 _atom_site_fract_z
 _atom_site_occupancy
  U  U0  1  0.75000000  0.56047000  0.42534500  1
  U  U1  1  0.75000000  0.07814300  0.09739300  1
  U  U2  1  0.25000000  0.42185700  0.59739300  1
  U  U3  1  0.25000000  0.93953000  0.92534500  1
  U  U4  1  0.98497400  0.73424700  0.15044800  1
  U  U5  1  0.49818200  0.33249400  0.40393400  1
  U  U6  1  0.50181800  0.16750600  0.90393400  1
  U  U7  1  0.01502600  0.76575300  0.65044800  1
  U  U8  1  0.99818200  0.16750600  0.90393400  1
  U  U9  1  0.48497400  0.76575300  0.65044800  1
  U  U10  1  0.51502600  0.73424700  0.15044800  1
  U  U11  1  0.00181800  0.33249400  0.40393400  1
  U  U12  1  0.25000000  0.65417600  0.35076300  1
  U  U13  1  0.25000000  0.30191400  0.08213800  1
  U  U14  1  0.75000000  0.19808600  0.58213800  1
  U  U15  1  0.75000000  0.84582400  0.85076300  1
  Pb  Pb0  1  0.25000000  0.01753800  0.26525300  1
  Pb  Pb1  1  0.75000000  0.48246200  0.76525300  1
  Pb  Pb2  1  0.75000000  0.42280600  0.10967100  1
  Pb  Pb3  1  0.75000000  0.91952200  0.39367200  1
  Pb  Pb4  1  0.25000000  0.58047800  0.89367200  1
  Pb  Pb5  1  0.25000000  0.07719400  0.60967100  1
loop_
_geom_bond_atom_site_label_1
_geom_bond_atom_site_label_2
_geom_bond_distance
_geom_bond_site_symmetry_2
U0 U11 2.607556 1_655
U0 U5 2.607556 1_555
U0 U7 3.302044 1_655
U0 U9 3.302044 1_555
U0 U4 3.412914 1_555
U0 U10 3.412914 1_555
U1 U8 2.546770 1_554
U1 U6 2.546770 1_554
U1 U4 3.500585 1_545
U1 U10 3.500585 1_545
U2 U5 2.546770 1_555
U2 U9 3.500585 1_555
U2 U7 3.500585 1_555
U3 U6 2.607556 1_565
U3 U8 2.607556 1_465
U3 U4 3.302044 1_456
U3 U9 3.412914 1_555
U3 U7 3.412914 1_555
U7 U9 2.895832 1_555
U7 U9 3.266194 1_455
U10 U12 2.633153 1_555
U10 U4 2.895832 1_555
U10 U4 3.266194 1_455
U10 U3 3.302044 1_554
U10 U15 3.389213 1_554
U11 U2 2.546770 1_555
U11 U14 2.621349 1_455
U11 U13 3.470299 1_555
U12 U4 2.633153 1_455
U12 U9 3.389213 1_555
U12 U7 3.389213 1_555
U13 U6 2.621349 1_554
U13 U8 2.621349 1_454
U13 U5 3.470299 1_555
U14 U5 2.621349 1_555
U14 U8 3.470299 1_555
U14 U6 3.470299 1_555
U15 U7 2.633153 1_655
U15 U9 2.633153 1_555
U15 U4 3.389213 1_556
Pb0 U13 3.143861 1_555
Pb0 U10 3.256926 1_545
Pb0 U4 3.256926 1_445
Pb0 U3 3.353985 1_544
Pb0 Pb5 3.365221 1_555
Pb0 U12 3.424571 1_545
Pb0 Pb3 3.439408 1_545
Pb0 Pb3 3.439408 1_445
Pb0 U1 3.524093 1_455
Pb0 U1 3.524093 1_555
Pb0 U5 3.525203 1_555
Pb0 U11 3.525203 1_555
Pb1 U14 3.143861 1_555
Pb1 U7 3.256926 1_655
Pb1 U9 3.256926 1_555
Pb1 U0 3.353985 1_555
Pb1 Pb2 3.365221 1_556
Pb1 U15 3.424571 1_555
Pb1 Pb4 3.439408 1_655
Pb1 Pb4 3.439408 1_555
Pb1 U2 3.524093 1_555
Pb1 U2 3.524093 1_655
Pb1 U8 3.525203 1_555
Pb1 U6 3.525203 1_555
Pb2 U1 3.155024 1_555
Pb2 U4 3.219827 1_555
Pb2 U10 3.219827 1_555
Pb2 U13 3.284210 1_655
Pb2 U13 3.284210 1_555
Pb2 U0 3.293777 1_555
Pb2 U11 3.337590 1_655
Pb2 U5 3.337590 1_555
Pb2 U8 3.424517 1_554
Pb2 U6 3.424517 1_554
Pb3 U14 3.129683 1_565
Pb3 U1 3.203942 1_565
Pb3 U4 3.235423 1_555
Pb3 U10 3.235423 1_555
Pb3 U7 3.282462 1_655
Pb3 U9 3.282462 1_555
Pb3 U0 3.298592 1_555
Pb4 U13 3.129683 1_556
Pb4 U2 3.203942 1_555
Pb4 U9 3.235423 1_555
Pb4 U7 3.235423 1_555
Pb4 U10 3.282462 1_556
Pb4 U4 3.282462 1_456
Pb4 U3 3.298592 1_555
Pb5 U2 3.155024 1_555
Pb5 U9 3.219827 1_545
Pb5 U7 3.219827 1_545
Pb5 U14 3.284210 1_455
Pb5 U14 3.284210 1_555
Pb5 U3 3.293777 1_545
Pb5 U6 3.337590 1_555
Pb5 U8 3.337590 1_455
Pb5 U5 3.424517 1_555
Pb5 U11 3.424517 1_555
