# generated using pymatgen
data_Ti2CrSe4
_symmetry_space_group_name_H-M   'P 1'
_cell_length_a   6.99078151
_cell_length_b   6.99078151
_cell_length_c   6.39531481
_cell_angle_alpha   64.90630906
_cell_angle_beta   64.90630906
_cell_angle_gamma   29.68913465
_symmetry_Int_Tables_number   1
_chemical_formula_structural   Ti2CrSe4
_chemical_formula_sum   'Ti2 Cr1 Se4'
_cell_volume   139.10696931
_cell_formula_units_Z   1
loop_
 _symmetry_equiv_pos_site_id
 _symmetry_equiv_pos_as_xyz
  1  'x, y, z'
loop_
 _atom_site_type_symbol
 _atom_site_label
 _atom_site_symmetry_multiplicity
 _atom_site_fract_x
 _atom_site_fract_y
 _atom_site_fract_z
 _atom_site_occupancy
  Ti  Ti0  1  0.74430000  0.74430000  0.29197333  1
  Ti  Ti1  1  0.25570000  0.25570000  0.70802667  1
  Cr  Cr0  1  0.00000000  0.00000000  0.00000000  1
  Se  Se0  1  0.88513657  0.88513657  0.45194479  1
  Se  Se1  1  0.11486343  0.11486343  0.54805521  1
  Se  Se2  1  0.63396101  0.63396101  0.02595900  1
  Se  Se3  1  0.36603899  0.36603899  0.97404100  1
loop_
_geom_bond_atom_site_label_1
_geom_bond_atom_site_label_2
_geom_bond_distance
_geom_bond_site_symmetry_2
Cr0 Se3 2.603243 1_454
Cr0 Se3 2.603243 1_544
Cr0 Se2 2.603243 1_545
Cr0 Se2 2.603243 1_455
Cr0 Se0 2.612795 1_445
Cr0 Se1 2.612795 1_554
Se0 Ti0 2.525532 1_555
Se0 Ti1 2.536951 1_565
Se0 Ti1 2.536951 1_655
Se1 Ti1 2.525532 1_555
Se1 Ti0 2.536951 1_545
Se1 Ti0 2.536951 1_455
Se2 Ti1 2.667111 1_654
Se2 Ti1 2.667111 1_564
Se2 Ti0 2.710001 1_555
Se3 Ti0 2.667111 1_546
Se3 Ti0 2.667111 1_456
Se3 Ti1 2.710001 1_555
