# generated using pymatgen
data_ZnCu3(BiO3)4
_symmetry_space_group_name_H-M   'P 1'
_cell_length_a   7.09919648
_cell_length_b   7.09919648
_cell_length_c   7.09919648
_cell_angle_alpha   109.47122063
_cell_angle_beta   109.47122063
_cell_angle_gamma   109.47122063
_symmetry_Int_Tables_number   1
_chemical_formula_structural   ZnCu3(BiO3)4
_chemical_formula_sum   'Zn1 Cu3 Bi4 O12'
_cell_volume   275.42648378
_cell_formula_units_Z   1
loop_
 _symmetry_equiv_pos_site_id
 _symmetry_equiv_pos_as_xyz
  1  'x, y, z'
loop_
 _atom_site_type_symbol
 _atom_site_label
 _atom_site_symmetry_multiplicity
 _atom_site_fract_x
 _atom_site_fract_y
 _atom_site_fract_z
 _atom_site_occupancy
  Zn  Zn0  1  0.00000000  0.00000000  0.00000000  1
  Cu  Cu0  1  0.50000000  0.00000000  0.50000000  1
  Cu  Cu1  1  0.50000000  0.50000000  0.00000000  1
  Cu  Cu2  1  0.00000000  0.50000000  0.50000000  1
  Bi  Bi0  1  0.00000000  0.50000000  0.00000000  1
  Bi  Bi1  1  0.50000000  0.00000000  0.00000000  1
  Bi  Bi2  1  0.50000000  0.50000000  0.50000000  1
  Bi  Bi3  1  0.00000000  0.00000000  0.50000000  1
  O  O0  1  0.32230200  0.16789500  0.84559300  1
  O  O1  1  0.67769800  0.83210500  0.15440700  1
  O  O2  1  0.67769800  0.52329100  0.84559300  1
  O  O3  1  0.47670900  0.15440700  0.32230200  1
  O  O4  1  0.15440700  0.32230200  0.47670900  1
  O  O5  1  0.84559300  0.32230200  0.16789500  1
  O  O6  1  0.83210500  0.15440700  0.67769800  1
  O  O7  1  0.84559300  0.67769800  0.52329100  1
  O  O8  1  0.32230200  0.47670900  0.15440700  1
  O  O9  1  0.52329100  0.84559300  0.67769800  1
  O  O10  1  0.15440700  0.67769800  0.83210500  1
  O  O11  1  0.16789500  0.84559300  0.32230200  1
loop_
_geom_bond_atom_site_label_1
_geom_bond_atom_site_label_2
_geom_bond_distance
_geom_bond_site_symmetry_2
Cu0 O11 1.929765 1_545
Cu0 O3 1.929765 1_555
Cu0 O6 1.929765 1_555
Cu0 O9 1.929765 1_545
Cu1 O0 1.929765 1_554
Cu1 O1 1.929765 1_555
Cu1 O8 1.929765 1_555
Cu1 O2 1.929765 1_554
Cu2 O5 1.929765 1_455
Cu2 O4 1.929765 1_555
Cu2 O10 1.929765 1_555
Cu2 O7 1.929765 1_455
Bi0 O11 2.272713 1_555
Bi0 O8 2.272713 1_555
Bi0 O6 2.272713 1_454
Bi0 O10 2.272713 1_554
Bi0 O2 2.272713 1_454
Bi0 O5 2.272713 1_455
Bi1 O5 2.272713 1_555
Bi1 O10 2.272713 1_544
Bi1 O3 2.272713 1_555
Bi1 O1 2.272713 1_545
Bi1 O9 2.272713 1_544
Bi1 O0 2.272713 1_554
Bi2 O7 2.272713 1_555
Bi2 O2 2.272713 1_555
Bi2 O9 2.272713 1_555
Bi2 O8 2.272713 1_555
Bi2 O3 2.272713 1_555
Bi2 O4 2.272713 1_555
Bi3 O0 2.272713 1_555
Bi3 O6 2.272713 1_455
Bi3 O4 2.272713 1_555
Bi3 O1 2.272713 1_445
Bi3 O7 2.272713 1_445
Bi3 O11 2.272713 1_545
