# generated using pymatgen
data_Ca5Ge3
_symmetry_space_group_name_H-M   'P 1'
_cell_length_a   7.70894519
_cell_length_b   7.70894708
_cell_length_c   9.18796898
_cell_angle_alpha   114.79567042
_cell_angle_beta   114.79563998
_cell_angle_gamma   89.99807601
_symmetry_Int_Tables_number   1
_chemical_formula_structural   Ca5Ge3
_chemical_formula_sum   'Ca10 Ge6'
_cell_volume   439.62245568
_cell_formula_units_Z   2
loop_
 _symmetry_equiv_pos_site_id
 _symmetry_equiv_pos_as_xyz
  1  'x, y, z'
loop_
 _atom_site_type_symbol
 _atom_site_label
 _atom_site_symmetry_multiplicity
 _atom_site_fract_x
 _atom_site_fract_y
 _atom_site_fract_z
 _atom_site_occupancy
  Ca  Ca0  1  -0.00000000  0.00000000  0.00000000  1
  Ca  Ca1  1  0.50000000  0.50000000  0.00000000  1
  Ca  Ca2  1  0.31810668  0.81810868  0.27783897  1
  Ca  Ca3  1  0.45971199  0.31794716  0.27783293  1
  Ca  Ca4  1  0.81794616  0.95971199  0.27783293  1
  Ca  Ca5  1  0.54028801  0.68205284  0.72216707  1
  Ca  Ca6  1  0.18205384  0.04028801  0.72216707  1
  Ca  Ca7  1  0.04032546  0.54032546  0.72210969  1
  Ca  Ca8  1  0.68189332  0.18189132  0.72216103  1
  Ca  Ca9  1  0.95967454  0.45967454  0.27789031  1
  Ge  Ge0  1  0.25010763  0.24989137  0.50000000  1
  Ge  Ge1  1  0.74989237  0.75010863  0.50000000  1
  Ge  Ge2  1  0.38252138  0.88252038  0.99988074  1
  Ge  Ge3  1  0.11737642  0.38262158  0.99999900  1
  Ge  Ge4  1  0.88262358  0.61737842  0.00000100  1
  Ge  Ge5  1  0.61747862  0.11747962  0.00011926  1
loop_
_geom_bond_atom_site_label_1
_geom_bond_atom_site_label_2
_geom_bond_distance
_geom_bond_site_symmetry_2
Ca0 Ge2 3.085049 1_544
Ca0 Ge5 3.085049 1_455
Ca0 Ge3 3.085313 1_554
Ca0 Ge4 3.085313 1_445
Ca1 Ge2 3.085040 1_554
Ca1 Ge5 3.085040 1_555
Ca1 Ge4 3.085322 1_555
Ca1 Ge3 3.085322 1_554
Ca2 Ge2 3.023702 1_554
Ca2 Ge4 3.111307 1_455
Ca2 Ge3 3.111332 1_554
Ca2 Ge0 3.274038 1_565
Ca2 Ge1 3.274059 1_555
Ca3 Ge3 3.024305 1_554
Ca3 Ge5 3.110235 1_555
Ca3 Ge2 3.111056 1_544
Ca3 Ge0 3.273798 1_555
Ca3 Ge1 3.276622 1_555
Ca4 Ge4 3.024297 1_555
Ca4 Ge5 3.110242 1_565
Ca4 Ge2 3.111044 1_554
Ca4 Ge1 3.273786 1_555
Ca4 Ge0 3.276619 1_665
Ca5 Ge4 3.024305 1_556
Ca5 Ge2 3.110235 1_555
Ca5 Ge5 3.111056 1_566
Ca5 Ge1 3.273798 1_555
Ca5 Ge0 3.276622 1_555
Ca6 Ge3 3.024297 1_555
Ca6 Ge2 3.110242 1_545
Ca6 Ge5 3.111044 1_556
Ca6 Ge0 3.273786 1_555
Ca6 Ge1 3.276619 1_445
Ca7 Ge2 3.022863 1_555
Ca7 Ge3 3.111481 1_555
Ca7 Ge4 3.111483 1_456
Ca7 Ge0 3.275411 1_555
Ca7 Ge1 3.275414 1_455
Ca8 Ge5 3.023702 1_556
Ca8 Ge3 3.111307 1_655
Ca8 Ge4 3.111332 1_556
Ca8 Ge1 3.274038 1_545
Ca8 Ge0 3.274059 1_555
Ca9 Ge5 3.022863 1_555
Ca9 Ge4 3.111481 1_555
Ca9 Ge3 3.111483 1_654
Ca9 Ge1 3.275411 1_555
Ca9 Ge0 3.275414 1_655
Ge2 Ge5 2.560281 1_566
Ge3 Ge4 2.559277 1_456
