# generated using pymatgen
data_CaHf8(N2O)4
_symmetry_space_group_name_H-M   'P 1'
_cell_length_a   5.45469220
_cell_length_b   5.65284806
_cell_length_c   11.44757748
_cell_angle_alpha   102.03666062
_cell_angle_beta   76.83450089
_cell_angle_gamma   60.61122362
_symmetry_Int_Tables_number   1
_chemical_formula_structural   CaHf8(N2O)4
_chemical_formula_sum   'Ca1 Hf8 N8 O4'
_cell_volume   277.30893426
_cell_formula_units_Z   1
loop_
 _symmetry_equiv_pos_site_id
 _symmetry_equiv_pos_as_xyz
  1  'x, y, z'
loop_
 _atom_site_type_symbol
 _atom_site_label
 _atom_site_symmetry_multiplicity
 _atom_site_fract_x
 _atom_site_fract_y
 _atom_site_fract_z
 _atom_site_occupancy
  Ca  Ca0  1  0.22617000  0.63274600  0.88763500  1
  Hf  Hf0  1  0.11719300  0.43517700  0.31159600  1
  Hf  Hf1  1  0.99272400  0.17044300  0.75547400  1
  Hf  Hf2  1  0.44772100  0.06917900  0.01340500  1
  Hf  Hf3  1  0.58123600  0.30430500  0.51856900  1
  Hf  Hf4  1  0.31470500  0.89478200  0.46329200  1
  Hf  Hf5  1  0.84116900  0.94638400  0.20618700  1
  Hf  Hf6  1  0.73194800  0.47261200  0.04964400  1
  Hf  Hf7  1  0.75701600  0.76579500  0.70861200  1
  N  N0  1  0.43604700  0.11917700  0.37272000  1
  N  N1  1  0.56904900  0.26753500  0.14612400  1
  N  N2  1  0.16863100  0.70955500  0.62845100  1
  N  N3  1  0.70972000  0.46892500  0.39132500  1
  N  N4  1  0.78225100  0.61202600  0.86706700  1
  N  N5  1  0.00075100  0.48183000  0.14805100  1
  N  N6  1  0.86949000  0.31815400  0.61069700  1
  N  N7  1  0.63444700  0.16174200  0.85967200  1
  O  O0  1  0.27162800  0.82599400  0.08976900  1
  O  O1  1  0.02834700  0.84305600  0.38003400  1
  O  O2  1  0.16041400  0.08125000  0.90119600  1
  O  O3  1  0.46406000  0.02161900  0.62200200  1
loop_
_geom_bond_atom_site_label_1
_geom_bond_atom_site_label_2
_geom_bond_distance
_geom_bond_site_symmetry_2
Ca0 O2 2.344907 1_565
Ca0 N7 2.377244 1_555
Ca0 O0 2.466195 1_556
Ca0 N4 2.541478 1_455
Hf0 O1 2.035134 1_555
Hf0 N3 2.096826 1_455
Hf0 N5 2.135719 1_555
Hf0 N0 2.175296 1_555
Hf0 N1 2.322339 1_555
Hf1 N7 2.073982 1_555
Hf1 N4 2.090515 1_555
Hf1 N6 2.104673 1_555
Hf1 O2 2.113501 1_655
Hf1 N2 2.270172 1_645
Hf1 O3 2.281211 1_655
Hf2 N1 2.116456 1_555
Hf2 N7 2.121069 1_554
Hf2 O2 2.226946 1_554
Hf2 N5 2.228921 1_555
Hf2 N4 2.233391 1_544
Hf2 O0 2.234112 1_545
Hf3 N3 2.054102 1_555
Hf3 N2 2.084173 1_555
Hf3 N6 2.105327 1_555
Hf3 N0 2.279696 1_555
Hf3 O1 2.352406 1_645
Hf3 O3 2.410580 1_555
Hf4 N0 2.045009 1_565
Hf4 N3 2.095202 1_555
Hf4 O1 2.108061 1_555
Hf4 O3 2.276611 1_565
Hf4 N6 2.284155 1_465
Hf4 N2 2.502816 1_555
Hf5 N1 2.076661 1_565
Hf5 O0 2.092941 1_655
Hf5 N0 2.158137 1_565
Hf5 N5 2.204641 1_655
Hf5 O1 2.483812 1_655
Hf5 N3 2.889487 1_565
Hf6 N5 2.055369 1_655
Hf6 N1 2.109796 1_555
Hf6 O0 2.162211 1_555
Hf6 O2 2.189189 1_654
Hf6 N4 2.388036 1_554
Hf6 N7 2.819680 1_554
Hf7 N2 2.055100 1_655
Hf7 O3 2.163224 1_565
Hf7 N4 2.172271 1_555
Hf7 N7 2.199408 1_565
Hf7 N6 2.239651 1_555
