# generated using pymatgen
data_Tb2Cu2O5
_symmetry_space_group_name_H-M   'P 1'
_cell_length_a   3.55526500
_cell_length_b   10.89877700
_cell_length_c   12.58803400
_cell_angle_alpha   90.00000000
_cell_angle_beta   90.00000000
_cell_angle_gamma   90.00000000
_symmetry_Int_Tables_number   1
_chemical_formula_structural   Tb2Cu2O5
_chemical_formula_sum   'Tb8 Cu8 O20'
_cell_volume   487.76165013
_cell_formula_units_Z   4
loop_
 _symmetry_equiv_pos_site_id
 _symmetry_equiv_pos_as_xyz
  1  'x, y, z'
loop_
 _atom_site_type_symbol
 _atom_site_label
 _atom_site_symmetry_multiplicity
 _atom_site_fract_x
 _atom_site_fract_y
 _atom_site_fract_z
 _atom_site_occupancy
  Tb  Tb0  1  0.77919100  0.95789200  0.23528900  1
  Tb  Tb1  1  0.22080900  0.04210800  0.73528900  1
  Tb  Tb2  1  0.72080900  0.45789200  0.23528900  1
  Tb  Tb3  1  0.27919100  0.54210800  0.73528900  1
  Tb  Tb4  1  0.78058200  0.79178400  0.56304400  1
  Tb  Tb5  1  0.21941800  0.20821600  0.06304400  1
  Tb  Tb6  1  0.71941800  0.29178400  0.56304400  1
  Tb  Tb7  1  0.28058200  0.70821600  0.06304400  1
  Cu  Cu0  1  0.84468600  0.76130300  0.84778400  1
  Cu  Cu1  1  0.15531400  0.23869700  0.34778400  1
  Cu  Cu2  1  0.65531400  0.26130300  0.84778400  1
  Cu  Cu3  1  0.34468600  0.73869700  0.34778400  1
  Cu  Cu4  1  0.65847200  0.98875400  0.95118800  1
  Cu  Cu5  1  0.34152800  0.01124600  0.45118800  1
  Cu  Cu6  1  0.84152800  0.48875400  0.95118800  1
  Cu  Cu7  1  0.15847200  0.51124600  0.45118800  1
  O  O0  1  0.77558000  0.67374400  0.70960000  1
  O  O1  1  0.22442000  0.32625600  0.20960000  1
  O  O2  1  0.72442000  0.17374400  0.70960000  1
  O  O3  1  0.27558000  0.82625600  0.20960000  1
  O  O4  1  0.72279100  0.92686400  0.80164300  1
  O  O5  1  0.27720900  0.07313600  0.30164300  1
  O  O6  1  0.77720900  0.42686400  0.80164300  1
  O  O7  1  0.22279100  0.57313600  0.30164300  1
  O  O8  1  0.27362300  0.92331300  0.59012400  1
  O  O9  1  0.72637700  0.07668700  0.09012400  1
  O  O10  1  0.22637700  0.42331300  0.59012400  1
  O  O11  1  0.77362300  0.57668700  0.09012400  1
  O  O12  1  0.65258700  0.87535900  0.39954300  1
  O  O13  1  0.34741300  0.12464100  0.89954300  1
  O  O14  1  0.84741300  0.37535900  0.39954300  1
  O  O15  1  0.15258700  0.62464100  0.89954300  1
  O  O16  1  0.78042900  0.82328200  0.99748400  1
  O  O17  1  0.21957100  0.17671800  0.49748400  1
  O  O18  1  0.71957100  0.32328200  0.99748400  1
  O  O19  1  0.28042900  0.67671800  0.49748400  1
loop_
_geom_bond_atom_site_label_1
_geom_bond_atom_site_label_2
_geom_bond_distance
_geom_bond_site_symmetry_2
Cu0 O4 1.944497 1_555
Cu0 O15 1.959915 1_655
Cu0 O0 1.999191 1_555
Cu0 O16 2.014834 1_555
Cu1 O5 1.944497 1_555
Cu1 O14 1.959915 1_455
Cu1 O1 1.999191 1_555
Cu1 O17 2.014834 1_555
Cu2 O6 1.944497 1_555
Cu2 O13 1.959915 1_555
Cu2 O2 1.999191 1_555
Cu2 O18 2.014834 1_555
Cu3 O7 1.944497 1_555
Cu3 O12 1.959915 1_555
Cu3 O3 1.999191 1_555
Cu3 O19 2.014834 1_555
Cu4 O16 1.944230 1_555
Cu4 O13 1.959341 1_565
Cu4 O9 2.008856 1_566
Cu4 O4 2.012709 1_555
Cu5 O17 1.944230 1_555
Cu5 O12 1.959341 1_545
Cu5 O8 2.008856 1_545
Cu5 O5 2.012709 1_555
Cu6 O18 1.944230 1_555
Cu6 O15 1.959341 1_655
Cu6 O11 2.008856 1_556
Cu6 O6 2.012709 1_555
Cu7 O19 1.944230 1_555
Cu7 O14 1.959341 1_455
Cu7 O10 2.008856 1_555
Cu7 O7 2.012709 1_555
O0 Tb4 2.249190 1_555
O0 Tb3 2.297249 1_555
O0 Tb3 2.317032 1_655
O1 Tb5 2.249190 1_555
O1 Tb2 2.297249 1_555
O1 Tb2 2.317032 1_455
O2 Tb6 2.249190 1_555
O2 Tb1 2.297249 1_655
O2 Tb1 2.317032 1_555
O3 Tb7 2.249190 1_555
O3 Tb0 2.297249 1_455
O3 Tb0 2.317032 1_555
O4 Tb1 2.325990 1_665
O4 Tb1 2.336735 1_565
O5 Tb0 2.325990 1_445
O5 Tb0 2.336735 1_545
O6 Tb3 2.325990 1_555
O6 Tb3 2.336735 1_655
O7 Tb2 2.325990 1_555
O7 Tb2 2.336735 1_455
O8 Tb1 2.247384 1_565
O8 Tb4 2.289927 1_455
O8 Tb4 2.328023 1_555
O9 Tb0 2.247384 1_545
O9 Tb5 2.289927 1_655
O9 Tb5 2.328023 1_555
O10 Tb3 2.247384 1_555
O10 Tb6 2.289927 1_555
O10 Tb6 2.328023 1_455
O11 Tb2 2.247384 1_555
O11 Tb7 2.289927 1_555
O11 Tb7 2.328023 1_655
O12 Tb4 2.296249 1_555
O12 Tb0 2.299311 1_555
O13 Tb5 2.296249 1_556
O13 Tb1 2.299311 1_555
O14 Tb6 2.296249 1_555
O14 Tb2 2.299311 1_555
O15 Tb7 2.296249 1_556
O15 Tb3 2.299311 1_555
O16 Tb7 2.326334 1_556
O16 Tb7 2.327165 1_656
O17 Tb6 2.326334 1_555
O17 Tb6 2.327165 1_455
O18 Tb5 2.326334 1_656
O18 Tb5 2.327165 1_556
O19 Tb4 2.326334 1_455
O19 Tb4 2.327165 1_555
