# generated using pymatgen
data_Ho6Nb4Al43
_symmetry_space_group_name_H-M   'P 1'
_cell_length_a   11.02027418
_cell_length_b   11.02027561
_cell_length_c   17.73025072
_cell_angle_alpha   90.00002373
_cell_angle_beta   89.99997846
_cell_angle_gamma   120.00002168
_symmetry_Int_Tables_number   1
_chemical_formula_structural   Ho6Nb4Al43
_chemical_formula_sum   'Ho12 Nb8 Al86'
_cell_volume   1864.79144978
_cell_formula_units_Z   2
loop_
 _symmetry_equiv_pos_site_id
 _symmetry_equiv_pos_as_xyz
  1  'x, y, z'
loop_
 _atom_site_type_symbol
 _atom_site_label
 _atom_site_symmetry_multiplicity
 _atom_site_fract_x
 _atom_site_fract_y
 _atom_site_fract_z
 _atom_site_occupancy
  Ho  Ho0  1  0.53100155  0.00000039  0.59608391  1
  Ho  Ho1  1  0.46898993  -0.00000001  0.40391896  1
  Ho  Ho2  1  0.00000002  0.53100218  0.59608393  1
  Ho  Ho3  1  0.46898855  0.00000036  0.09609096  1
  Ho  Ho4  1  -0.00000003  0.53100698  0.90390749  1
  Ho  Ho5  1  -0.00000055  0.46899005  0.40391867  1
  Ho  Ho6  1  0.53100685  0.00000044  0.90390751  1
  Ho  Ho7  1  0.00000031  0.46898888  0.09609101  1
  Ho  Ho8  1  0.46899762  0.46899821  0.59608421  1
  Ho  Ho9  1  0.53100907  0.53100952  0.40391890  1
  Ho  Ho10  1  0.53101209  0.53101196  0.09609079  1
  Ho  Ho11  1  0.46899401  0.46899420  0.90390748  1
  Nb  Nb0  1  0.00000077  0.00000012  0.49999977  1
  Nb  Nb1  1  0.00000041  0.00000032  -0.00000625  1
  Nb  Nb2  1  0.72609534  0.00000032  0.74999542  1
  Nb  Nb3  1  0.27390718  -0.00000020  0.25000551  1
  Nb  Nb4  1  0.00000073  0.72609515  0.74999564  1
  Nb  Nb5  1  0.00000070  0.27390811  0.25000522  1
  Nb  Nb6  1  0.27390544  0.27390522  0.74999537  1
  Nb  Nb7  1  0.72609243  0.72609287  0.25000541  1
  Al  Al0  1  0.15326327  0.59695481  0.74999737  1
  Al  Al1  1  0.84673663  0.40304384  0.25000320  1
  Al  Al2  1  0.40304467  0.55630876  0.74999762  1
  Al  Al3  1  0.59695506  0.15326329  0.74999732  1
  Al  Al4  1  0.59695652  0.44369027  0.25000227  1
  Al  Al5  1  0.40304255  0.84673299  0.25000245  1
  Al  Al6  1  0.44369240  0.84673731  0.74999730  1
  Al  Al7  1  0.55630807  0.40304545  0.74999765  1
  Al  Al8  1  0.55630963  0.15326742  0.25000234  1
  Al  Al9  1  0.44369212  0.59695624  0.25000314  1
  Al  Al10  1  0.84673624  0.44369148  0.74999726  1
  Al  Al11  1  0.15326432  0.55630723  0.25000296  1
  Al  Al12  1  0.15907510  0.00000062  0.11518577  1
  Al  Al13  1  0.84093283  0.00000065  0.88481771  1
  Al  Al14  1  -0.00000040  0.15907523  0.11518539  1
  Al  Al15  1  0.84092509  -0.00000078  0.61518021  1
  Al  Al16  1  -0.00000019  0.15907714  0.38481494  1
  Al  Al17  1  0.00000044  0.84093160  0.88481810  1
  Al  Al18  1  0.15907658  0.00000041  0.38481520  1
  Al  Al19  1  0.00000237  0.84092460  0.61518249  1
  Al  Al20  1  0.84092496  0.84092592  0.11518562  1
  Al  Al21  1  0.15906842  0.15906880  0.88481760  1
  Al  Al22  1  0.15907531  0.15907556  0.61518468  1
  Al  Al23  1  0.84092157  0.84092168  0.38481563  1
  Al  Al24  1  0.24743721  0.49488062  0.49999982  1
  Al  Al25  1  0.75255649  0.50511710  0.49999972  1
  Al  Al26  1  0.50511714  0.75255705  0.49999993  1
  Al  Al27  1  0.75255703  0.50511835  0.00000057  1
  Al  Al28  1  0.49488213  0.24743981  0.00000072  1
  Al  Al29  1  0.49488009  0.24743820  0.49999973  1
  Al  Al30  1  0.24743982  0.49488269  0.00000064  1
  Al  Al31  1  0.50511778  0.75255759  0.00000063  1
  Al  Al32  1  0.24744245  0.75255974  0.49999955  1
  Al  Al33  1  0.75256137  0.24744023  0.50000003  1
  Al  Al34  1  0.75256060  0.24744341  0.00000078  1
  Al  Al35  1  0.24744288  0.75256109  0.00000062  1
  Al  Al36  1  0.14828950  0.00000026  0.74999808  1
  Al  Al37  1  0.85171274  0.00000045  0.25000061  1
  Al  Al38  1  0.00000023  0.14828956  0.74999771  1
  Al  Al39  1  -0.00000065  0.85171333  0.25000047  1
  Al  Al40  1  0.85171171  0.85171154  0.74999802  1
  Al  Al41  1  0.14828716  0.14828719  0.25000064  1
  Al  Al42  1  0.33333273  0.66666700  0.62457170  1
  Al  Al43  1  0.66666611  0.33333303  0.37542289  1
  Al  Al44  1  0.66666660  0.33333379  0.12457946  1
  Al  Al45  1  0.66666687  0.33333341  0.87542727  1
  Al  Al46  1  0.33333379  0.66666770  0.87542723  1
  Al  Al47  1  0.33333299  0.66666617  0.12457948  1
  Al  Al48  1  0.33333252  0.66666652  0.37542295  1
  Al  Al49  1  0.66666583  0.33333255  0.62457158  1
  Al  Al50  1  0.25578618  -0.00000104  0.52953959  1
  Al  Al51  1  0.74421421  -0.00000092  0.47046738  1
  Al  Al52  1  0.00000072  0.25578349  0.52953927  1
  Al  Al53  1  0.74421447  0.00000031  0.02953364  1
  Al  Al54  1  0.00000016  0.25578402  0.97046107  1
  Al  Al55  1  -0.00000100  0.74421424  0.47046731  1
  Al  Al56  1  0.25578355  0.00000060  0.97046105  1
  Al  Al57  1  -0.00000022  0.74421482  0.02953405  1
  Al  Al58  1  0.74421712  0.74421731  0.52953856  1
  Al  Al59  1  0.25579096  0.25579159  0.47046719  1
  Al  Al60  1  0.25578545  0.25578511  0.02953343  1
  Al  Al61  1  0.74421687  0.74421770  0.97046078  1
  Al  Al62  1  0.15804154  0.39502746  0.66232060  1
  Al  Al63  1  0.84195407  0.60496970  0.33767537  1
  Al  Al64  1  0.60497204  0.76301434  0.66232150  1
  Al  Al65  1  0.84195469  0.60496256  0.16232692  1
  Al  Al66  1  0.39503110  0.15804737  0.83767544  1
  Al  Al67  1  0.39502957  0.23698450  0.33767562  1
  Al  Al68  1  0.15804754  0.39503126  0.83767561  1
  Al  Al69  1  0.60496329  0.84195206  0.16232606  1
  Al  Al70  1  0.23698633  0.84195919  0.66232182  1
  Al  Al71  1  0.39503813  0.23699285  0.16232727  1
  Al  Al72  1  0.76301602  0.60496933  0.83767513  1
  Al  Al73  1  0.76301547  0.15804544  0.33767545  1
  Al  Al74  1  0.60496980  0.76301640  0.83767519  1
  Al  Al75  1  0.23698501  0.39503100  0.16232688  1
  Al  Al76  1  0.60496931  0.84195413  0.33767614  1
  Al  Al77  1  0.39502698  0.15804151  0.66232115  1
  Al  Al78  1  0.76300715  0.15804553  0.16232717  1
  Al  Al79  1  0.23698447  0.39503005  0.33767555  1
  Al  Al80  1  0.23698512  0.84195415  0.83767501  1
  Al  Al81  1  0.76301375  0.60497173  0.66232182  1
  Al  Al82  1  0.84195372  0.23698453  0.83767525  1
  Al  Al83  1  0.15804524  0.76300758  0.16232708  1
  Al  Al84  1  0.15804480  0.76301541  0.33767597  1
  Al  Al85  1  0.84195832  0.23698566  0.66232072  1
loop_
_geom_bond_atom_site_label_1
_geom_bond_atom_site_label_2
_geom_bond_distance
_geom_bond_site_symmetry_2
Ho0 Nb2 3.474088 1_555
Ho0 Ho1 3.474992 1_555
Ho1 Nb3 3.474039 1_555
Ho2 Nb4 3.474082 1_555
Ho2 Ho5 3.474998 1_555
Ho3 Nb3 3.474042 1_555
Ho3 Ho6 3.475328 1_554
Ho4 Nb4 3.474052 1_555
Ho4 Ho7 3.475329 1_556
Ho5 Nb5 3.474037 1_555
Ho6 Nb2 3.474059 1_555
Ho7 Nb5 3.474038 1_555
Ho8 Nb6 3.474074 1_555
Ho8 Ho9 3.474998 1_555
Ho9 Nb7 3.474044 1_555
Ho10 Nb7 3.474040 1_555
Ho10 Ho11 3.475325 1_554
Ho11 Nb6 3.474061 1_555
Al0 Nb4 2.698483 1_555
Al0 Al62 2.736504 1_555
Al0 Al68 2.736514 1_555
Al0 Al42 2.819396 1_555
Al0 Al46 2.819462 1_555
Al0 Al80 2.840171 1_555
Al0 Al70 2.840193 1_555
Al0 Al10 2.925443 1_455
Al0 Al2 3.001796 1_555
Al0 Al6 3.001811 1_555
Al0 Ho4 3.098405 1_555
Al0 Ho2 3.098455 1_555
Al1 Nb5 2.698455 1_655
Al1 Al65 2.736439 1_555
Al1 Al63 2.736464 1_555
Al1 Al43 2.819320 1_555
Al1 Al44 2.819375 1_555
Al1 Al73 2.840113 1_555
Al1 Al78 2.840134 1_555
Al1 Al11 2.925450 1_655
Al1 Al8 3.001771 1_555
Al1 Al4 3.001784 1_555
Al1 Ho7 3.098440 1_655
Al1 Ho5 3.098488 1_655
Al2 Nb6 2.698490 1_555
Al2 Al64 2.736497 1_555
Al2 Al74 2.736512 1_555
Al2 Al42 2.819406 1_555
Al2 Al46 2.819455 1_555
Al2 Al68 2.840159 1_555
Al2 Al62 2.840198 1_555
Al2 Al7 2.925442 1_555
Al2 Al6 3.001801 1_555
Al2 Ho11 3.098404 1_555
Al2 Ho8 3.098455 1_555
Al3 Nb2 2.698487 1_555
Al3 Al77 2.736505 1_555
Al3 Al66 2.736514 1_555
Al3 Al49 2.819398 1_555
Al3 Al45 2.819461 1_555
Al3 Al82 2.840169 1_555
Al3 Al85 2.840194 1_555
Al3 Al6 2.925434 1_545
Al3 Al7 3.001811 1_555
Al3 Ho6 3.098405 1_555
Al3 Ho0 3.098452 1_555
Al4 Nb7 2.698482 1_555
Al4 Al71 2.736408 1_555
Al4 Al67 2.736468 1_555
Al4 Al43 2.819313 1_555
Al4 Al44 2.819340 1_555
Al4 Al63 2.840118 1_555
Al4 Al65 2.840132 1_555
Al4 Al9 2.925477 1_555
Al4 Al8 3.001742 1_555
Al4 Ho10 3.098442 1_555
Al4 Ho9 3.098523 1_555
Al5 Nb3 2.698479 1_565
Al5 Al69 2.736453 1_555
Al5 Al76 2.736471 1_555
Al5 Al84 2.840124 1_555
Al5 Al83 2.840126 1_555
Al5 Al8 2.925514 1_565
Al5 Al9 3.001769 1_555
Al5 Ho3 3.098447 1_565
Al5 Ho1 3.098522 1_565
Al6 Nb2 2.698483 1_565
Al6 Al70 2.736497 1_555
Al6 Al80 2.736507 1_555
Al6 Al74 2.840167 1_555
Al6 Al64 2.840180 1_555
Al6 Ho6 3.098405 1_565
Al6 Ho0 3.098453 1_565
Al7 Nb6 2.698480 1_555
Al7 Al81 2.736490 1_555
Al7 Al72 2.736507 1_555
Al7 Al77 2.840198 1_555
Al7 Ho11 3.098398 1_555
Al7 Ho8 3.098456 1_555
Al8 Nb3 2.698481 1_555
Al8 Ho3 3.098443 1_555
Al8 Ho1 3.098527 1_555
Al9 Nb7 2.698459 1_555
Al9 Ho10 3.098446 1_555
Al9 Ho9 3.098496 1_555
Al10 Nb4 2.698491 1_655
Al10 Al85 2.736505 1_555
Al10 Al82 2.736511 1_555
Al10 Al49 2.819403 1_555
Al10 Al45 2.819457 1_555
Al10 Al72 2.840165 1_555
Al10 Al81 2.840180 1_555
Al10 Al3 3.001799 1_555
Al10 Al7 3.001803 1_555
Al10 Ho4 3.098409 1_655
Al10 Ho2 3.098455 1_655
Al11 Nb5 2.698448 1_555
Al11 Al83 2.736437 1_555
Al11 Al84 2.736480 1_555
Al11 Al48 2.819312 1_555
Al11 Al47 2.819363 1_555
Al11 Al79 2.840109 1_555
Al11 Al75 2.840137 1_555
Al11 Al5 3.001770 1_555
Al11 Al9 3.001787 1_555
Al11 Ho7 3.098438 1_555
Al11 Ho5 3.098500 1_555
Al12 Nb1 2.691561 1_555
Al12 Nb3 2.704701 1_555
Al12 Al71 2.736822 1_555
Al12 Al83 2.736827 1_545
Al12 Al56 2.778527 1_554
Al12 Al60 2.895451 1_555
Al12 Al57 2.895455 1_545
Al12 Al41 2.931284 1_555
Al12 Al39 2.931288 1_545
Al12 Al20 3.036373 1_445
Al12 Al14 3.036373 1_555
Al12 Ho3 3.432072 1_555
Al13 Nb1 2.691297 1_656
Al13 Nb2 2.704766 1_555
Al13 Al82 2.736784 1_555
Al13 Al74 2.736785 1_545
Al13 Al53 2.778424 1_556
Al13 Al61 2.895344 1_545
Al13 Al54 2.895349 1_655
Al13 Al40 2.931338 1_545
Al13 Al38 2.931340 1_655
Al13 Al21 3.036234 1_655
Al13 Al17 3.036245 1_645
Al13 Ho6 3.432198 1_555
Al14 Nb1 2.691560 1_555
Al14 Nb5 2.704701 1_555
Al14 Al75 2.736748 1_555
Al14 Al78 2.736823 1_455
Al14 Al54 2.778522 1_554
Al14 Al53 2.895450 1_455
Al14 Al60 2.895459 1_555
Al14 Al37 2.931291 1_455
Al14 Al41 2.931297 1_555
Al14 Al20 3.036365 1_445
Al14 Ho7 3.432069 1_555
Al15 Nb0 2.691409 1_655
Al15 Nb2 2.704618 1_555
Al15 Al64 2.736730 1_545
Al15 Al85 2.736735 1_555
Al15 Al51 2.778343 1_555
Al15 Al58 2.895331 1_545
Al15 Al52 2.895345 1_655
Al15 Al40 2.931330 1_545
Al15 Al38 2.931335 1_655
Al15 Al22 3.036373 1_655
Al15 Al19 3.036391 1_645
Al15 Ho0 3.432190 1_555
Al16 Nb0 2.691486 1_555
Al16 Nb5 2.704534 1_555
Al16 Al73 2.736716 1_455
Al16 Al79 2.736718 1_555
Al16 Al52 2.778510 1_555
Al16 Al51 2.895464 1_455
Al16 Al59 2.895502 1_555
Al16 Al37 2.931285 1_455
Al16 Al41 2.931288 1_555
Al16 Al18 3.036406 1_555
Al16 Al23 3.036424 1_445
Al16 Ho5 3.432082 1_555
Al17 Nb1 2.691298 1_566
Al17 Nb4 2.704764 1_555
Al17 Al72 2.736785 1_455
Al17 Al80 2.736786 1_555
Al17 Al57 2.778418 1_556
Al17 Al56 2.895346 1_565
Al17 Al61 2.895347 1_455
Al17 Al36 2.931345 1_565
Al17 Al40 2.931346 1_455
Al17 Al21 3.036249 1_565
Al17 Ho4 3.432181 1_555
Al18 Nb0 2.691468 1_555
Al18 Nb3 2.704535 1_555
Al18 Al67 2.736716 1_555
Al18 Al84 2.736721 1_545
Al18 Al50 2.778530 1_555
Al18 Al55 2.895465 1_545
Al18 Al59 2.895500 1_555
Al18 Al41 2.931287 1_555
Al18 Al39 2.931293 1_545
Al18 Al23 3.036419 1_445
Al18 Ho1 3.432087 1_555
Al19 Nb0 2.691449 1_565
Al19 Nb4 2.704578 1_555
Al19 Al70 2.736696 1_555
Al19 Al81 2.736738 1_455
Al19 Al55 2.778372 1_555
Al19 Al50 2.895357 1_565
Al19 Al58 2.895383 1_455
Al19 Al36 2.931300 1_565
Al19 Al40 2.931316 1_455
Al19 Al22 3.036381 1_565
Al19 Ho2 3.432163 1_555
Al20 Nb1 2.691561 1_665
Al20 Nb7 2.704703 1_555
Al20 Al69 2.736786 1_555
Al20 Al65 2.736828 1_555
Al20 Al61 2.778528 1_554
Al20 Al53 2.895451 1_565
Al20 Al57 2.895454 1_655
Al20 Al39 2.931285 1_655
Al20 Al37 2.931286 1_565
Al20 Ho10 3.432069 1_555
Al21 Nb1 2.691301 1_556
Al21 Nb6 2.704762 1_555
Al21 Al68 2.736776 1_555
Al21 Al66 2.736781 1_555
Al21 Al60 2.778417 1_556
Al21 Al56 2.895352 1_555
Al21 Al54 2.895352 1_555
Al21 Al36 2.931339 1_555
Al21 Al38 2.931342 1_555
Al21 Ho11 3.432193 1_555
Al22 Nb0 2.691468 1_555
Al22 Nb6 2.704546 1_555
Al22 Al62 2.736700 1_555
Al22 Al77 2.736702 1_555
Al22 Al59 2.778440 1_555
Al22 Al52 2.895373 1_555
Al22 Al50 2.895408 1_555
Al22 Al38 2.931266 1_555
Al22 Al36 2.931275 1_555
Al22 Ho8 3.432178 1_555
Al23 Nb0 2.691485 1_665
Al23 Nb7 2.704533 1_555
Al23 Al76 2.736716 1_555
Al23 Al63 2.736717 1_555
Al23 Al58 2.778481 1_555
Al23 Al51 2.895451 1_565
Al23 Al55 2.895452 1_655
Al23 Al39 2.931298 1_655
Al23 Al37 2.931305 1_565
Al23 Ho9 3.432072 1_555
Al24 Al59 2.732678 1_555
Al24 Al52 2.732706 1_555
Al24 Al42 2.750687 1_555
Al24 Al48 2.750756 1_555
Al24 Al32 2.839666 1_555
Al24 Al26 2.839683 1_555
Al24 Al62 3.062708 1_555
Al24 Al79 3.062764 1_555
Al24 Ho5 3.105005 1_555
Al24 Ho8 3.105115 1_555
Al24 Ho2 3.403195 1_555
Al24 Ho9 3.403263 1_555
Al25 Al55 2.732717 1_655
Al25 Al58 2.732738 1_555
Al25 Al49 2.750677 1_555
Al25 Al43 2.750744 1_555
Al25 Al29 2.839678 1_555
Al25 Al33 2.839697 1_555
Al25 Al81 3.062736 1_555
Al25 Al63 3.062769 1_555
Al25 Ho9 3.105014 1_555
Al25 Ho2 3.105109 1_655
Al25 Ho8 3.403210 1_555
Al25 Ho5 3.403254 1_655
Al26 Al51 2.732714 1_565
Al26 Al58 2.732737 1_555
Al26 Al42 2.750674 1_555
Al26 Al48 2.750750 1_555
Al26 Al32 2.839661 1_555
Al26 Al64 3.062729 1_555
Al26 Al76 3.062758 1_555
Al26 Ho9 3.105014 1_555
Al26 Ho0 3.105107 1_565
Al26 Ho8 3.403207 1_555
Al26 Ho1 3.403256 1_565
Al27 Al57 2.732718 1_655
Al27 Al61 2.732737 1_554
Al27 Al45 2.750699 1_554
Al27 Al44 2.750777 1_555
Al27 Al28 2.839667 1_555
Al27 Al34 2.839669 1_555
Al27 Al72 3.062776 1_554
Al27 Al65 3.062784 1_555
Al27 Ho10 3.105088 1_555
Al27 Ho4 3.105175 1_654
Al27 Ho11 3.403306 1_554
Al27 Ho7 3.403355 1_655
Al28 Al60 2.732713 1_555
Al28 Al56 2.732730 1_554
Al28 Al45 2.750700 1_554
Al28 Al44 2.750774 1_555
Al28 Al34 2.839668 1_555
Al28 Al66 3.062773 1_554
Al28 Al71 3.062786 1_555
Al28 Ho3 3.105098 1_555
Al28 Ho11 3.105177 1_554
Al28 Ho6 3.403315 1_554
Al28 Ho10 3.403344 1_555
Al29 Al59 2.732677 1_555
Al29 Al50 2.732707 1_555
Al29 Al49 2.750683 1_555
Al29 Al43 2.750755 1_555
Al29 Al33 2.839707 1_555
Al29 Al77 3.062720 1_555
Al29 Al67 3.062760 1_555
Al29 Ho1 3.105007 1_555
Al29 Ho8 3.105111 1_555
Al29 Ho0 3.403203 1_555
Al29 Ho9 3.403258 1_555
Al30 Al60 2.732725 1_555
Al30 Al54 2.732733 1_554
Al30 Al46 2.750701 1_554
Al30 Al47 2.750769 1_555
Al30 Al31 2.839664 1_555
Al30 Al35 2.839670 1_555
Al30 Al68 3.062770 1_554
Al30 Al75 3.062798 1_555
Al30 Ho7 3.105098 1_555
Al30 Ho11 3.105174 1_554
Al30 Ho4 3.403317 1_554
Al30 Ho10 3.403349 1_555
Al31 Al53 2.732718 1_565
Al31 Al61 2.732732 1_554
Al31 Al46 2.750695 1_554
Al31 Al47 2.750777 1_555
Al31 Al35 2.839667 1_555
Al31 Al69 3.062767 1_555
Al31 Al74 3.062779 1_554
Al31 Ho10 3.105099 1_555
Al31 Ho6 3.105175 1_564
Al31 Ho11 3.403311 1_554
Al31 Ho3 3.403347 1_565
Al32 Al50 2.732716 1_565
Al32 Al55 2.732726 1_555
Al32 Al42 2.750672 1_555
Al32 Al48 2.750736 1_555
Al32 Al70 3.062744 1_555
Al32 Al84 3.062759 1_555
Al32 Ho1 3.105014 1_565
Al32 Ho2 3.105100 1_555
Al32 Ho0 3.403212 1_565
Al32 Ho5 3.403251 1_555
Al33 Al51 2.732694 1_555
Al33 Al52 2.732717 1_655
Al33 Al49 2.750690 1_555
Al33 Al43 2.750772 1_555
Al33 Al85 3.062705 1_555
Al33 Al73 3.062760 1_555
Al33 Ho5 3.105018 1_655
Al33 Ho0 3.105091 1_555
Al33 Ho2 3.403217 1_655
Al33 Ho1 3.403252 1_555
Al34 Al53 2.732722 1_555
Al34 Al54 2.732734 1_654
Al34 Al45 2.750696 1_554
Al34 Al44 2.750772 1_555
Al34 Al82 3.062780 1_554
Al34 Al78 3.062786 1_555
Al34 Ho7 3.105097 1_655
Al34 Ho6 3.105175 1_554
Al34 Ho4 3.403312 1_654
Al34 Ho3 3.403347 1_555
Al35 Al57 2.732722 1_555
Al35 Al56 2.732734 1_564
Al35 Al46 2.750696 1_554
Al35 Al47 2.750779 1_555
Al35 Al80 3.062780 1_554
Al35 Al83 3.062786 1_555
Al35 Ho3 3.105096 1_565
Al35 Ho4 3.105175 1_554
Al35 Ho6 3.403313 1_564
Al35 Ho7 3.403348 1_555
Al36 Nb6 2.617088 1_555
Al36 Nb4 2.617089 1_545
Al36 Al40 2.830490 1_445
Al36 Al38 2.830498 1_555
Al36 Al70 2.847410 1_545
Al36 Al77 2.847413 1_555
Al36 Al80 2.847452 1_545
Al36 Al66 2.847456 1_555
Al37 Nb7 2.617111 1_545
Al37 Nb5 2.617112 1_655
Al37 Al39 2.830452 1_645
Al37 Al41 2.830457 1_655
Al37 Al73 2.847433 1_555
Al37 Al76 2.847450 1_545
Al37 Al78 2.847481 1_555
Al37 Al69 2.847487 1_545
Al38 Nb2 2.617087 1_455
Al38 Nb6 2.617090 1_555
Al38 Al40 2.830492 1_445
Al38 Al62 2.847419 1_555
Al38 Al85 2.847420 1_455
Al38 Al82 2.847456 1_455
Al38 Al68 2.847462 1_555
Al39 Nb7 2.617104 1_455
Al39 Nb3 2.617113 1_565
Al39 Al41 2.830452 1_565
Al39 Al63 2.847444 1_455
Al39 Al84 2.847449 1_555
Al39 Al65 2.847481 1_455
Al39 Al83 2.847487 1_555
Al40 Nb2 2.617090 1_565
Al40 Nb4 2.617093 1_655
Al40 Al81 2.847424 1_555
Al40 Al64 2.847427 1_555
Al40 Al74 2.847455 1_555
Al40 Al72 2.847458 1_555
Al41 Nb5 2.617110 1_555
Al41 Nb3 2.617110 1_555
Al41 Al75 2.847436 1_555
Al41 Al67 2.847436 1_555
Al41 Al79 2.847439 1_555
Al41 Al71 2.847481 1_555
Al42 Al70 2.712589 1_555
Al42 Al62 2.712589 1_555
Al42 Al64 2.712593 1_555
Al42 Al6 2.819402 1_555
Al42 Ho2 3.239188 1_555
Al42 Ho0 3.239195 1_565
Al42 Ho8 3.239198 1_555
Al43 Al67 2.712552 1_555
Al43 Al63 2.712554 1_555
Al43 Al73 2.712556 1_555
Al43 Al8 2.819303 1_555
Al43 Ho1 3.239224 1_555
Al43 Ho5 3.239225 1_655
Al43 Ho9 3.239229 1_555
Al44 Al71 2.712487 1_555
Al44 Al65 2.712489 1_555
Al44 Al78 2.712492 1_555
Al44 Al8 2.819341 1_555
Al44 Ho10 3.239203 1_555
Al44 Ho3 3.239208 1_555
Al44 Ho7 3.239211 1_655
Al45 Al66 2.712562 1_555
Al45 Al82 2.712564 1_555
Al45 Al72 2.712566 1_555
Al45 Al7 2.819462 1_555
Al45 Ho6 3.239176 1_555
Al45 Ho4 3.239177 1_655
Al45 Ho11 3.239182 1_555
Al46 Al80 2.712560 1_555
Al46 Al68 2.712567 1_555
Al46 Al74 2.712567 1_555
Al46 Al6 2.819458 1_555
Al46 Ho6 3.239173 1_565
Al46 Ho4 3.239183 1_555
Al46 Ho11 3.239184 1_555
Al47 Al83 2.712493 1_555
Al47 Al69 2.712494 1_555
Al47 Al75 2.712540 1_555
Al47 Al5 2.819344 1_555
Al47 Al9 2.819369 1_555
Al47 Ho7 3.239200 1_555
Al47 Ho10 3.239210 1_555
Al47 Ho3 3.239216 1_565
Al48 Al76 2.712551 1_555
Al48 Al84 2.712552 1_555
Al48 Al79 2.712553 1_555
Al48 Al5 2.819308 1_555
Al48 Al9 2.819319 1_555
Al48 Ho5 3.239223 1_555
Al48 Ho1 3.239227 1_565
Al48 Ho9 3.239229 1_555
Al49 Al77 2.712586 1_555
Al49 Al85 2.712592 1_555
Al49 Al81 2.712593 1_555
Al49 Al7 2.819409 1_555
Al49 Ho0 3.239183 1_555
Al49 Ho8 3.239199 1_555
Al49 Ho2 3.239202 1_655
Al50 Nb0 2.867076 1_555
Al50 Al70 2.873667 1_545
Al50 Al77 2.873669 1_555
Al50 Al55 3.007122 1_545
Al50 Al59 3.007168 1_555
Al50 Ho1 3.237471 1_555
Al50 Ho0 3.254347 1_555
Al51 Nb0 2.867053 1_655
Al51 Al76 2.873829 1_545
Al51 Al73 2.873845 1_555
Al51 Al58 3.007088 1_545
Al51 Al52 3.007114 1_655
Al51 Ho0 3.237502 1_555
Al51 Ho1 3.254477 1_555
Al52 Nb0 2.867047 1_555
Al52 Al62 2.873667 1_555
Al52 Al85 2.873676 1_455
Al52 Al59 3.007123 1_555
Al52 Ho5 3.237504 1_555
Al52 Ho2 3.254394 1_555
Al53 Nb1 2.867075 1_655
Al53 Al69 2.873874 1_545
Al53 Al78 2.873882 1_555
Al53 Al61 3.007104 1_544
Al53 Al54 3.007111 1_654
Al53 Ho6 3.237575 1_554
Al53 Ho3 3.254546 1_555
Al54 Nb1 2.867030 1_556
Al54 Al68 2.873760 1_555
Al54 Al82 2.873762 1_455
Al54 Al60 3.007111 1_556
Al54 Ho7 3.237597 1_556
Al54 Ho4 3.254493 1_555
Al55 Nb0 2.867042 1_565
Al55 Al84 2.873832 1_555
Al55 Al63 2.873838 1_455
Al55 Al58 3.007090 1_455
Al55 Ho2 3.237498 1_555
Al55 Ho5 3.254474 1_555
Al56 Nb1 2.867020 1_556
Al56 Al66 2.873761 1_555
Al56 Al80 2.873767 1_545
Al56 Al60 3.007098 1_556
Al56 Al57 3.007114 1_546
Al56 Ho3 3.237601 1_556
Al56 Ho6 3.254495 1_555
Al57 Nb1 2.867069 1_565
Al57 Al65 2.873872 1_455
Al57 Al83 2.873877 1_555
Al57 Al61 3.007113 1_454
Al57 Ho4 3.237581 1_554
Al57 Ho7 3.254547 1_555
Al58 Nb0 2.867042 1_665
Al58 Al64 2.873698 1_555
Al58 Al81 2.873705 1_555
Al58 Ho9 3.237497 1_555
Al58 Ho8 3.254402 1_555
Al59 Nb0 2.867104 1_555
Al59 Al79 2.873819 1_555
Al59 Al67 2.873820 1_555
Al59 Ho8 3.237454 1_555
Al59 Ho9 3.254406 1_555
Al60 Nb1 2.867063 1_555
Al60 Al75 2.873868 1_555
Al60 Al71 2.873887 1_555
Al60 Ho11 3.237581 1_554
Al60 Ho10 3.254554 1_555
Al61 Nb1 2.867022 1_666
Al61 Al74 2.873756 1_555
Al61 Al72 2.873766 1_555
Al61 Ho10 3.237602 1_556
Al61 Ho11 3.254491 1_555
Al62 Nb6 2.744603 1_555
Al62 Al85 3.016646 1_455
Al62 Ho2 3.044317 1_555
Al62 Al68 3.109088 1_555
Al62 Ho8 3.315619 1_555
Al63 Nb7 2.744545 1_555
Al63 Al84 3.016718 1_655
Al63 Ho5 3.044440 1_655
Al63 Al65 3.108972 1_555
Al63 Ho9 3.315585 1_555
Al64 Nb2 2.744592 1_565
Al64 Al81 3.016658 1_555
Al64 Ho8 3.044319 1_555
Al64 Al74 3.109065 1_555
Al64 Ho0 3.315634 1_565
Al65 Nb7 2.744691 1_555
Al65 Al83 3.016716 1_655
Al65 Ho7 3.044339 1_655
Al65 Ho10 3.315543 1_555
Al66 Nb6 2.744636 1_555
Al66 Al7 2.840163 1_555
Al66 Al80 3.016742 1_545
Al66 Ho6 3.044343 1_555
Al66 Al77 3.109076 1_555
Al66 Ho11 3.315523 1_555
Al67 Nb3 2.744544 1_555
Al67 Al8 2.840118 1_555
Al67 Al79 3.016718 1_555
Al67 Ho9 3.044438 1_555
Al67 Al71 3.108970 1_555
Al67 Ho1 3.315583 1_555
Al68 Nb6 2.744640 1_555
Al68 Al82 3.016747 1_455
Al68 Ho4 3.044347 1_555
Al68 Ho11 3.315519 1_555
Al69 Nb7 2.744667 1_555
Al69 Al9 2.840131 1_555
Al69 Al78 3.016744 1_565
Al69 Ho3 3.044368 1_565
Al69 Al76 3.109001 1_555
Al69 Ho10 3.315511 1_555
Al70 Nb4 2.744588 1_555
Al70 Al77 3.016638 1_565
Al70 Ho0 3.044315 1_565
Al70 Al80 3.109056 1_555
Al70 Ho2 3.315638 1_555
Al71 Nb3 2.744692 1_555
Al71 Al8 2.840120 1_555
Al71 Al75 3.016724 1_555
Al71 Ho10 3.044341 1_555
Al71 Ho3 3.315548 1_555
Al72 Nb4 2.744638 1_655
Al72 Al74 3.016743 1_555
Al72 Ho11 3.044338 1_555
Al72 Al81 3.109058 1_555
Al72 Ho4 3.315522 1_655
Al73 Al8 2.736471 1_555
Al73 Nb5 2.744549 1_655
Al73 Al76 3.016724 1_545
Al73 Ho1 3.044444 1_555
Al73 Al78 3.108969 1_555
Al73 Ho5 3.315577 1_655
Al74 Nb2 2.744636 1_565
Al74 Ho11 3.044340 1_555
Al74 Ho6 3.315527 1_565
Al75 Al9 2.736496 1_555
Al75 Nb5 2.744623 1_555
Al75 Ho10 3.044406 1_555
Al75 Al79 3.108976 1_555
Al75 Ho7 3.315521 1_555
Al76 Nb7 2.744548 1_555
Al76 Al9 2.840115 1_555
Al76 Ho1 3.044437 1_565
Al76 Ho9 3.315577 1_555
Al77 Nb6 2.744589 1_555
Al77 Ho0 3.044315 1_555
Al77 Ho8 3.315631 1_555
Al78 Al8 2.736415 1_555
Al78 Nb5 2.744694 1_655
Al78 Ho3 3.044334 1_555
Al78 Ho7 3.315552 1_655
Al79 Al9 2.736464 1_555
Al79 Nb5 2.744539 1_555
Al79 Ho9 3.044435 1_555
Al79 Ho5 3.315583 1_555
Al80 Nb4 2.744635 1_555
Al80 Ho6 3.044336 1_565
Al80 Ho4 3.315532 1_555
Al81 Nb4 2.744599 1_655
Al81 Ho8 3.044322 1_555
Al81 Ho2 3.315630 1_655
Al82 Nb2 2.744638 1_555
Al82 Ho4 3.044341 1_655
Al82 Al85 3.109080 1_555
Al82 Ho6 3.315525 1_555
Al83 Nb3 2.744687 1_565
Al83 Ho7 3.044334 1_555
Al83 Al84 3.108980 1_555
Al83 Ho3 3.315550 1_565
Al84 Nb3 2.744546 1_565
Al84 Ho5 3.044437 1_555
Al84 Ho1 3.315581 1_565
Al85 Nb2 2.744596 1_555
Al85 Ho2 3.044319 1_655
Al85 Ho0 3.315627 1_555
