# generated using pymatgen
data_TiTl2(GeO3)3
_symmetry_space_group_name_H-M   'P 1'
_cell_length_a   6.98492645
_cell_length_b   6.98492645
_cell_length_c   10.37760421
_cell_angle_alpha   90.00000000
_cell_angle_beta   90.00000000
_cell_angle_gamma   119.99999358
_symmetry_Int_Tables_number   1
_chemical_formula_structural   TiTl2(GeO3)3
_chemical_formula_sum   'Ti2 Tl4 Ge6 O18'
_cell_volume   438.48166491
_cell_formula_units_Z   2
loop_
 _symmetry_equiv_pos_site_id
 _symmetry_equiv_pos_as_xyz
  1  'x, y, z'
loop_
 _atom_site_type_symbol
 _atom_site_label
 _atom_site_symmetry_multiplicity
 _atom_site_fract_x
 _atom_site_fract_y
 _atom_site_fract_z
 _atom_site_occupancy
  Ti  Ti0  1  -0.00000000  -0.00000000  0.50000000  1
  Ti  Ti1  1  -0.00000000  -0.00000000  0.00000000  1
  Tl  Tl0  1  0.33333300  0.66666700  0.44579215  1
  Tl  Tl1  1  0.66666700  0.33333300  0.94579215  1
  Tl  Tl2  1  0.66666700  0.33333300  0.55420785  1
  Tl  Tl3  1  0.33333300  0.66666700  0.05420785  1
  Ge  Ge0  1  0.24575671  0.87931537  0.75000000  1
  Ge  Ge1  1  0.63355766  0.75424329  0.75000000  1
  Ge  Ge2  1  0.12068463  0.36644234  0.75000000  1
  Ge  Ge3  1  0.36644234  0.24575671  0.25000000  1
  Ge  Ge4  1  0.87931537  0.63355766  0.25000000  1
  Ge  Ge5  1  0.75424329  0.12068463  0.25000000  1
  O  O0  1  0.23036957  0.23035348  0.39217560  1
  O  O1  1  0.00001609  0.23036957  0.89217560  1
  O  O2  1  0.23035348  -0.00001609  0.89217560  1
  O  O3  1  0.76964652  0.00001609  0.39217560  1
  O  O4  1  -0.00001609  0.76963043  0.39217560  1
  O  O5  1  0.76963043  0.76964652  0.89217560  1
  O  O6  1  0.76963043  0.76964652  0.60782440  1
  O  O7  1  -0.00001609  0.76963043  0.10782440  1
  O  O8  1  0.76964652  0.00001609  0.10782440  1
  O  O9  1  0.23035348  -0.00001609  0.60782440  1
  O  O10  1  0.00001609  0.23036957  0.60782440  1
  O  O11  1  0.23036957  0.23035348  0.10782440  1
  O  O12  1  0.47494020  0.06495741  0.25000000  1
  O  O13  1  0.40998279  0.47494020  0.75000000  1
  O  O14  1  0.06495741  0.59001721  0.75000000  1
  O  O15  1  0.93504259  0.40998279  0.25000000  1
  O  O16  1  0.59001721  0.52505980  0.25000000  1
  O  O17  1  0.52505980  0.93504259  0.75000000  1
loop_
_geom_bond_atom_site_label_1
_geom_bond_atom_site_label_2
_geom_bond_distance
_geom_bond_site_symmetry_2
Ge0 O9 1.729047 1_565
Ge0 O2 1.729047 1_565
Ge0 O14 1.768124 1_555
Ge0 O17 1.788345 1_555
Ge1 O6 1.729051 1_555
Ge1 O5 1.729051 1_555
Ge1 O17 1.768118 1_555
Ge1 O13 1.788343 1_555
Ge2 O10 1.729049 1_555
Ge2 O1 1.729049 1_555
Ge2 O13 1.768125 1_555
Ge2 O14 1.788338 1_555
Ge3 O0 1.729051 1_555
Ge3 O11 1.729051 1_555
Ge3 O12 1.768118 1_555
Ge3 O16 1.788343 1_555
Ge4 O4 1.729049 1_655
Ge4 O7 1.729049 1_655
Ge4 O16 1.768125 1_555
Ge4 O15 1.788338 1_555
Ge5 O8 1.729047 1_555
Ge5 O3 1.729047 1_555
Ge5 O15 1.768124 1_555
Ge5 O12 1.788345 1_555
O0 Ti0 1.959882 1_555
O0 Tl0 2.814779 1_555
O1 Ti1 1.959882 1_556
O1 Tl1 2.814773 1_455
O2 Ti1 1.959882 1_556
O2 Tl1 2.814778 1_555
O3 Ti0 1.959882 1_655
O3 Tl0 2.814778 1_545
O4 Ti0 1.959882 1_565
O4 Tl0 2.814773 1_555
O5 Ti1 1.959882 1_666
O5 Tl1 2.814779 1_555
O6 Ti0 1.959882 1_665
O6 Tl2 2.814779 1_555
O7 Ti1 1.959882 1_565
O7 Tl3 2.814773 1_555
O8 Ti1 1.959882 1_655
O8 Tl3 2.814778 1_545
O9 Ti0 1.959882 1_555
O9 Tl2 2.814778 1_555
O10 Ti0 1.959882 1_555
O10 Tl2 2.814773 1_455
O11 Ti1 1.959882 1_555
O11 Tl3 2.814779 1_555
