# generated using pymatgen
data_KMg14Al
_symmetry_space_group_name_H-M   'P 1'
_cell_length_a   6.47308976
_cell_length_b   6.47308922
_cell_length_c   10.62241136
_cell_angle_alpha   90.00000000
_cell_angle_beta   90.00000000
_cell_angle_gamma   120.00000276
_symmetry_Int_Tables_number   1
_chemical_formula_structural   KMg14Al
_chemical_formula_sum   'K1 Mg14 Al1'
_cell_volume   385.45790594
_cell_formula_units_Z   1
loop_
 _symmetry_equiv_pos_site_id
 _symmetry_equiv_pos_as_xyz
  1  'x, y, z'
loop_
 _atom_site_type_symbol
 _atom_site_label
 _atom_site_symmetry_multiplicity
 _atom_site_fract_x
 _atom_site_fract_y
 _atom_site_fract_z
 _atom_site_occupancy
  K  K0  1  0.16666700  0.33333300  0.62500000  1
  Mg  Mg0  1  0.16362067  0.83180984  0.12500000  1
  Mg  Mg1  1  0.17486666  0.83743283  0.62500000  1
  Mg  Mg2  1  0.66819016  0.33637933  0.12500000  1
  Mg  Mg3  1  0.66256717  0.32513334  0.62500000  1
  Mg  Mg4  1  0.66819016  0.83180984  0.12500000  1
  Mg  Mg5  1  0.66256717  0.83743283  0.62500000  1
  Mg  Mg6  1  0.33620982  0.16379018  0.35920576  1
  Mg  Mg7  1  0.33620982  0.16379018  0.89079424  1
  Mg  Mg8  1  0.33620982  0.67242064  0.35920576  1
  Mg  Mg9  1  0.33620982  0.67242064  0.89079424  1
  Mg  Mg10  1  0.82757936  0.16379018  0.35920576  1
  Mg  Mg11  1  0.82757936  0.16379018  0.89079424  1
  Mg  Mg12  1  0.83333300  0.66666700  0.38097797  1
  Mg  Mg13  1  0.83333300  0.66666700  0.86902203  1
  Al  Al0  1  0.16666700  0.33333300  0.12500000  1
loop_
_geom_bond_atom_site_label_1
_geom_bond_atom_site_label_2
_geom_bond_distance
_geom_bond_site_symmetry_2
K0 Mg1 3.236871 1_555
K0 Mg5 3.236871 1_555
K0 Mg5 3.236871 1_445
K0 Mg1 3.236871 1_545
K0 Mg3 3.236871 1_555
K0 Mg3 3.236871 1_455
K0 Mg7 3.403637 1_555
K0 Mg6 3.403637 1_555
K0 Mg9 3.403643 1_555
K0 Mg8 3.403643 1_555
K0 Mg11 3.403643 1_455
K0 Mg10 3.403643 1_455
Mg0 Mg8 3.107175 1_555
Mg0 Mg9 3.107175 1_554
Mg0 Mg6 3.107181 1_565
Mg0 Mg7 3.107181 1_564
Mg0 Mg2 3.206966 1_455
Mg0 Mg4 3.206966 1_455
Mg0 Mg2 3.266123 1_565
Mg0 Mg4 3.266124 1_555
Mg0 Mg12 3.289642 1_455
Mg0 Mg13 3.289642 1_454
Mg1 Mg3 3.156929 1_565
Mg1 Mg5 3.156929 1_555
Mg1 Mg12 3.222522 1_455
Mg1 Mg13 3.222522 1_455
Mg1 Mg3 3.316160 1_455
Mg1 Mg5 3.316161 1_455
Mg1 Mg9 3.364323 1_555
Mg1 Mg8 3.364323 1_555
Mg1 Mg7 3.364329 1_565
Mg1 Mg6 3.364329 1_565
Mg2 Mg6 3.107181 1_555
Mg2 Mg7 3.107181 1_554
Mg2 Mg4 3.206966 1_555
Mg2 Mg4 3.266123 1_545
Mg3 Mg5 3.156929 1_545
Mg3 Mg5 3.316160 1_555
Mg3 Mg7 3.364329 1_555
Mg3 Mg6 3.364329 1_555
Mg4 Mg8 3.107181 1_555
Mg4 Mg9 3.107181 1_554
Mg5 Mg9 3.364329 1_555
Mg5 Mg8 3.364329 1_555
Mg6 Mg8 3.180679 1_545
Mg6 Mg8 3.292410 1_555
Mg7 Mg9 3.180679 1_545
Mg7 Mg9 3.292410 1_555
Mg10 Mg2 3.107175 1_555
Mg10 Mg4 3.107181 1_545
Mg10 Mg8 3.180679 1_545
Mg10 Mg6 3.180679 1_555
Mg10 Mg12 3.244957 1_555
Mg10 Mg12 3.244957 1_545
Mg10 Mg8 3.292410 1_655
Mg10 Mg6 3.292411 1_655
Mg10 Mg3 3.364323 1_555
Mg10 Mg5 3.364329 1_545
Mg11 Mg2 3.107175 1_556
Mg11 Mg4 3.107181 1_546
Mg11 Mg9 3.180679 1_545
Mg11 Mg7 3.180679 1_555
Mg11 Mg13 3.244957 1_555
Mg11 Mg13 3.244957 1_545
Mg11 Mg9 3.292410 1_655
Mg11 Mg7 3.292411 1_655
Mg11 Mg3 3.364323 1_555
Mg11 Mg5 3.364329 1_545
Mg12 Mg5 3.222516 1_555
Mg12 Mg3 3.222522 1_555
Mg12 Mg6 3.244957 1_555
Mg12 Mg6 3.244957 1_665
Mg12 Mg8 3.244958 1_555
Mg12 Mg8 3.244958 1_655
Mg12 Mg4 3.289636 1_555
Mg12 Mg2 3.289642 1_555
Mg13 Mg5 3.222516 1_555
Mg13 Mg3 3.222522 1_555
Mg13 Mg7 3.244957 1_555
Mg13 Mg7 3.244957 1_665
Mg13 Mg9 3.244958 1_555
Mg13 Mg9 3.244958 1_655
Mg13 Mg4 3.289636 1_556
Mg13 Mg2 3.289642 1_556
Al0 Mg6 3.130909 1_555
Al0 Mg7 3.130909 1_554
Al0 Mg8 3.130916 1_555
Al0 Mg9 3.130916 1_554
Al0 Mg10 3.130916 1_455
Al0 Mg11 3.130916 1_454
Al0 Mg0 3.236590 1_545
Al0 Mg4 3.236590 1_445
Al0 Mg4 3.236590 1_555
Al0 Mg0 3.236590 1_555
Al0 Mg2 3.236590 1_555
Al0 Mg2 3.236590 1_455
