# generated using pymatgen
data_CsAu(IO3)4
_symmetry_space_group_name_H-M   'P 1'
_cell_length_a   7.98190200
_cell_length_b   8.11574640
_cell_length_c   11.22072196
_cell_angle_alpha   75.43623053
_cell_angle_beta   71.30599570
_cell_angle_gamma   84.53575795
_symmetry_Int_Tables_number   1
_chemical_formula_structural   CsAu(IO3)4
_chemical_formula_sum   'Cs2 Au2 I8 O24'
_cell_volume   666.31324422
_cell_formula_units_Z   2
loop_
 _symmetry_equiv_pos_site_id
 _symmetry_equiv_pos_as_xyz
  1  'x, y, z'
loop_
 _atom_site_type_symbol
 _atom_site_label
 _atom_site_symmetry_multiplicity
 _atom_site_fract_x
 _atom_site_fract_y
 _atom_site_fract_z
 _atom_site_occupancy
  Cs  Cs0  1  0.05612800  0.17796200  0.14437800  1
  Cs  Cs1  1  0.94387200  0.82203800  0.85562200  1
  Au  Au0  1  0.57176800  0.04678900  0.21286500  1
  Au  Au1  1  0.42823200  0.95321100  0.78713500  1
  I  I0  1  0.28276600  0.29058500  0.41267500  1
  I  I1  1  0.71723400  0.70941500  0.58732500  1
  I  I2  1  0.66000500  0.33373000  0.90418800  1
  I  I3  1  0.33999500  0.66627000  0.09581200  1
  I  I4  1  0.23958700  0.79245500  0.46907400  1
  I  I5  1  0.76041300  0.20754500  0.53092600  1
  I  I6  1  0.75998700  0.65416500  0.24933500  1
  I  I7  1  0.24001300  0.34583500  0.75066500  1
  O  O0  1  0.36617500  0.21088200  0.25418000  1
  O  O1  1  0.63382500  0.78911800  0.74582000  1
  O  O2  1  0.34556600  0.51368300  0.33774100  1
  O  O3  1  0.65443400  0.48631700  0.66225900  1
  O  O4  1  0.05975300  0.31309900  0.39834000  1
  O  O5  1  0.94024700  0.68690100  0.60166000  1
  O  O6  1  0.70351700  0.14836200  0.83626900  1
  O  O7  1  0.29648300  0.85163800  0.16373100  1
  O  O8  1  0.42067800  0.35254800  0.95019100  1
  O  O9  1  0.57932200  0.64745200  0.04980900  1
  O  O10  1  0.70119500  0.23747800  0.06763300  1
  O  O11  1  0.29880500  0.76252200  0.93236700  1
  O  O12  1  0.48624100  0.85346700  0.37239100  1
  O  O13  1  0.51375900  0.14653300  0.62760900  1
  O  O14  1  0.18268800  0.98249900  0.53162800  1
  O  O15  1  0.81731200  0.01750100  0.46837200  1
  O  O16  1  0.31363900  0.65675900  0.59860900  1
  O  O17  1  0.68636100  0.34324100  0.40139100  1
  O  O18  1  0.77857400  0.88947500  0.15364200  1
  O  O19  1  0.22142600  0.11052500  0.84635800  1
  O  O20  1  0.86235000  0.67820900  0.36850100  1
  O  O21  1  0.13765000  0.32179100  0.63149900  1
  O  O22  1  0.95256900  0.59051100  0.13200300  1
  O  O23  1  0.04743100  0.40948900  0.86799700  1
loop_
_geom_bond_atom_site_label_1
_geom_bond_atom_site_label_2
_geom_bond_distance
_geom_bond_site_symmetry_2
Cs0 O7 3.122783 1_545
Cs0 O0 3.155915 1_555
Cs0 O10 3.177271 1_455
Cs0 O23 3.214887 1_554
Cs0 O8 3.223433 1_554
Cs0 O4 3.309798 1_555
Cs0 O18 3.334410 1_445
Cs0 O19 3.343250 1_554
Cs0 O22 3.350417 1_455
Cs0 O15 3.492210 1_455
Cs1 O6 3.122783 1_565
Cs1 O1 3.155915 1_555
Cs1 O11 3.177271 1_655
Cs1 O22 3.214887 1_556
Cs1 O9 3.223433 1_556
Cs1 O5 3.309798 1_555
Cs1 O19 3.334410 1_665
Cs1 O18 3.343250 1_556
Cs1 O23 3.350417 1_655
Cs1 O14 3.492210 1_655
Au0 O10 2.018628 1_555
Au0 O0 2.021881 1_555
Au0 O18 2.029429 1_545
Au0 O12 2.034700 1_545
Au1 O11 2.018628 1_555
Au1 O1 2.021881 1_555
Au1 O19 2.029429 1_565
Au1 O13 2.034700 1_565
I0 O4 1.826121 1_555
I0 O2 1.836730 1_555
I0 O0 1.939588 1_555
I0 O21 2.422470 1_555
I0 O14 2.586485 1_545
I1 O5 1.826121 1_555
I1 O3 1.836730 1_555
I1 O1 1.939588 1_555
I1 O20 2.422470 1_555
I1 O15 2.586485 1_565
I2 O6 1.808882 1_555
I2 O8 1.814098 1_555
I2 O10 1.923244 1_556
I3 O7 1.808882 1_555
I3 O9 1.814098 1_555
I3 O11 1.923244 1_554
I4 O14 1.812309 1_555
I4 O16 1.815630 1_555
I4 O12 1.960745 1_555
I4 O5 2.475112 1_455
I5 O15 1.812309 1_555
I5 O17 1.815630 1_555
I5 O13 1.960745 1_555
I5 O4 2.475112 1_655
I6 O22 1.804604 1_555
I6 O20 1.831795 1_555
I6 O18 1.934566 1_555
I7 O23 1.804604 1_555
I7 O21 1.831795 1_555
I7 O19 1.934566 1_555
