# generated using pymatgen
data_CaFe3Si2O9
_symmetry_space_group_name_H-M   'P 1'
_cell_length_a   5.98091600
_cell_length_b   9.18810100
_cell_length_c   20.12632900
_cell_angle_alpha   90.00000000
_cell_angle_beta   90.00000000
_cell_angle_gamma   90.00000000
_symmetry_Int_Tables_number   1
_chemical_formula_structural   CaFe3Si2O9
_chemical_formula_sum   'Ca4 Fe12 Si8 O36'
_cell_volume   1106.00739603
_cell_formula_units_Z   4
loop_
 _symmetry_equiv_pos_site_id
 _symmetry_equiv_pos_as_xyz
  1  'x, y, z'
loop_
 _atom_site_type_symbol
 _atom_site_label
 _atom_site_symmetry_multiplicity
 _atom_site_fract_x
 _atom_site_fract_y
 _atom_site_fract_z
 _atom_site_occupancy
  Ca  Ca0  1  0.25000000  0.51201100  0.95409800  1
  Ca  Ca1  1  0.25000000  0.98798900  0.45409800  1
  Ca  Ca2  1  0.75000000  0.48798900  0.04590200  1
  Ca  Ca3  1  0.75000000  0.01201100  0.54590200  1
  Fe  Fe0  1  0.99778500  0.36784300  0.63482200  1
  Fe  Fe1  1  0.50221500  0.13215700  0.13482200  1
  Fe  Fe2  1  0.49778500  0.63215700  0.36517800  1
  Fe  Fe3  1  0.00221500  0.86784300  0.86517800  1
  Fe  Fe4  1  0.00221500  0.63215700  0.36517800  1
  Fe  Fe5  1  0.49778500  0.86784300  0.86517800  1
  Fe  Fe6  1  0.50221500  0.36784300  0.63482200  1
  Fe  Fe7  1  0.99778500  0.13215700  0.13482200  1
  Fe  Fe8  1  0.25000000  0.94384100  0.24108700  1
  Fe  Fe9  1  0.25000000  0.55615900  0.74108700  1
  Fe  Fe10  1  0.75000000  0.05615900  0.75891300  1
  Fe  Fe11  1  0.75000000  0.44384100  0.25891300  1
  Si  Si0  1  0.25000000  0.22295100  0.55391200  1
  Si  Si1  1  0.25000000  0.27704900  0.05391200  1
  Si  Si2  1  0.75000000  0.77704900  0.44608800  1
  Si  Si3  1  0.75000000  0.72295100  0.94608800  1
  Si  Si4  1  0.25000000  0.65508900  0.25148300  1
  Si  Si5  1  0.25000000  0.84491100  0.75148300  1
  Si  Si6  1  0.75000000  0.34491100  0.74851700  1
  Si  Si7  1  0.75000000  0.15508900  0.24851700  1
  O  O0  1  0.25000000  0.40635100  0.56712500  1
  O  O1  1  0.25000000  0.09364900  0.06712500  1
  O  O2  1  0.75000000  0.59364900  0.43287500  1
  O  O3  1  0.75000000  0.90635100  0.93287500  1
  O  O4  1  0.25000000  0.20053600  0.63795300  1
  O  O5  1  0.25000000  0.29946400  0.13795300  1
  O  O6  1  0.75000000  0.79946400  0.36204700  1
  O  O7  1  0.75000000  0.70053600  0.86204700  1
  O  O8  1  0.25000000  0.54553100  0.40249500  1
  O  O9  1  0.25000000  0.95446900  0.90249500  1
  O  O10  1  0.75000000  0.45446900  0.59750500  1
  O  O11  1  0.75000000  0.04553100  0.09750500  1
  O  O12  1  0.25000000  0.77138000  0.31875900  1
  O  O13  1  0.25000000  0.72862000  0.81875900  1
  O  O14  1  0.75000000  0.22862000  0.68124100  1
  O  O15  1  0.75000000  0.27138000  0.18124100  1
  O  O16  1  0.03308300  0.15234300  0.51886200  1
  O  O17  1  0.46691700  0.34765600  0.01886200  1
  O  O18  1  0.53308300  0.84765700  0.48113800  1
  O  O19  1  0.96691700  0.65234300  0.98113800  1
  O  O20  1  0.96691700  0.84765700  0.48113800  1
  O  O21  1  0.53308300  0.65234300  0.98113800  1
  O  O22  1  0.46691700  0.15234300  0.51886200  1
  O  O23  1  0.03308300  0.34765600  0.01886200  1
  O  O24  1  0.51961800  0.43794300  0.73091500  1
  O  O25  1  0.98038200  0.06205700  0.23091500  1
  O  O26  1  0.01961800  0.56205700  0.26908500  1
  O  O27  1  0.48038200  0.93794300  0.76908500  1
  O  O28  1  0.48038200  0.56205700  0.26908500  1
  O  O29  1  0.01961800  0.93794300  0.76908500  1
  O  O30  1  0.98038200  0.43794300  0.73091500  1
  O  O31  1  0.51961800  0.06205700  0.23091500  1
  O  O32  1  0.25000000  0.75807000  0.18786100  1
  O  O33  1  0.25000000  0.74193000  0.68786100  1
  O  O34  1  0.75000000  0.24193000  0.81213900  1
  O  O35  1  0.75000000  0.25807000  0.31213900  1
loop_
_geom_bond_atom_site_label_1
_geom_bond_atom_site_label_2
_geom_bond_distance
_geom_bond_site_symmetry_2
Ca0 O21 2.196647 1_555
Ca0 O19 2.196647 1_455
Ca0 O17 2.379621 1_556
Ca0 O23 2.379621 1_556
Ca1 O18 2.196647 1_555
Ca1 O20 2.196647 1_455
Ca1 O22 2.379615 1_565
Ca1 O16 2.379615 1_565
Ca2 O23 2.196652 1_655
Ca2 O17 2.196652 1_555
Ca2 O19 2.379615 1_554
Ca2 O21 2.379615 1_554
Ca3 O16 2.196647 1_655
Ca3 O22 2.196647 1_555
Ca3 O20 2.379615 1_545
Ca3 O18 2.379615 1_545
Fe0 O10 1.842241 1_555
Fe0 O30 2.041086 1_555
Fe0 O0 2.063267 1_655
Fe0 O4 2.154660 1_655
Fe0 O14 2.169198 1_555
Fe1 O11 1.842241 1_555
Fe1 O31 2.041086 1_555
Fe1 O1 2.063267 1_555
Fe1 O5 2.154660 1_555
Fe1 O15 2.169198 1_555
Fe2 O8 1.842241 1_555
Fe2 O28 2.041086 1_555
Fe2 O2 2.063267 1_555
Fe2 O6 2.154660 1_555
Fe2 O12 2.169198 1_555
Fe3 O9 1.842241 1_555
Fe3 O29 2.041086 1_555
Fe3 O3 2.063267 1_455
Fe3 O7 2.154660 1_455
Fe3 O13 2.169198 1_555
Fe4 O8 1.842241 1_555
Fe4 O26 2.041086 1_555
Fe4 O2 2.063267 1_455
Fe4 O6 2.154660 1_455
Fe4 O12 2.169198 1_555
Fe5 O9 1.842241 1_555
Fe5 O27 2.041086 1_555
Fe5 O3 2.063267 1_555
Fe5 O7 2.154660 1_555
Fe5 O13 2.169198 1_555
Fe6 O10 1.842241 1_555
Fe6 O24 2.041086 1_555
Fe6 O0 2.063267 1_555
Fe6 O4 2.154660 1_555
Fe6 O14 2.169198 1_555
Fe7 O11 1.842241 1_555
Fe7 O25 2.041086 1_555
Fe7 O1 2.063267 1_655
Fe7 O5 2.154660 1_655
Fe7 O15 2.169198 1_555
Fe8 O25 1.955009 1_465
Fe8 O31 1.955009 1_565
Fe8 O32 2.015195 1_555
Fe8 O12 2.225911 1_555
Fe9 O24 1.955009 1_555
Fe9 O30 1.955009 1_455
Fe9 O33 2.015195 1_555
Fe9 O13 2.225911 1_555
Fe10 O29 1.955009 1_645
Fe10 O27 1.955009 1_545
Fe10 O34 2.015195 1_555
Fe10 O14 2.225911 1_555
Fe11 O26 1.955009 1_655
Fe11 O28 1.955009 1_555
Fe11 O35 2.015195 1_555
Fe11 O15 2.225911 1_555
O0 Si0 1.705952 1_555
O1 Si1 1.705952 1_555
O2 Si2 1.705952 1_555
O3 Si3 1.705952 1_555
O4 Si0 1.703929 1_555
O5 Si1 1.703929 1_555
O6 Si2 1.703929 1_555
O7 Si3 1.703929 1_555
O12 Si4 1.724832 1_555
O13 Si5 1.724832 1_555
O14 Si6 1.724832 1_555
O15 Si7 1.724832 1_555
O16 Si0 1.612966 1_555
O17 Si1 1.612962 1_555
O18 Si2 1.612966 1_555
O19 Si3 1.612966 1_555
O20 Si2 1.612966 1_555
O21 Si3 1.612966 1_555
O22 Si0 1.612966 1_555
O23 Si1 1.612962 1_555
O24 Si6 1.659747 1_555
O25 Si7 1.659747 1_555
O26 Si4 1.659747 1_555
O27 Si5 1.659747 1_555
O28 Si4 1.659747 1_555
O29 Si5 1.659747 1_555
O30 Si6 1.659747 1_555
O31 Si7 1.659747 1_555
O32 Si4 1.592142 1_555
O33 Si5 1.592142 1_555
O34 Si6 1.592142 1_555
O35 Si7 1.592142 1_555
