# generated using pymatgen
data_KV6O11
_symmetry_space_group_name_H-M   'P 1'
_cell_length_a   5.92736640
_cell_length_b   5.92736640
_cell_length_c   13.38760500
_cell_angle_alpha   90.00000000
_cell_angle_beta   90.00000000
_cell_angle_gamma   120.00000451
_symmetry_Int_Tables_number   1
_chemical_formula_structural   KV6O11
_chemical_formula_sum   'K2 V12 O22'
_cell_volume   407.33999202
_cell_formula_units_Z   2
loop_
 _symmetry_equiv_pos_site_id
 _symmetry_equiv_pos_as_xyz
  1  'x, y, z'
loop_
 _atom_site_type_symbol
 _atom_site_label
 _atom_site_symmetry_multiplicity
 _atom_site_fract_x
 _atom_site_fract_y
 _atom_site_fract_z
 _atom_site_occupancy
  K  K0  1  0.33333300  0.66666700  0.24838100  1
  K  K1  1  0.66666700  0.33333300  0.74838100  1
  V  V0  1  0.49959100  0.99918200  0.50063900  1
  V  V1  1  0.49959100  0.50040900  0.50063900  1
  V  V2  1  0.00081800  0.50040900  0.50063900  1
  V  V3  1  0.50040900  0.00081800  0.00063900  1
  V  V4  1  0.50040900  0.49959100  0.00063900  1
  V  V5  1  0.99918200  0.49959100  0.00063900  1
  V  V6  1  0.00000000  0.00000000  0.35498500  1
  V  V7  1  0.00000000  0.00000000  0.85498500  1
  V  V8  1  0.00000000  0.00000000  0.14584300  1
  V  V9  1  0.00000000  0.00000000  0.64584300  1
  V  V10  1  0.33333300  0.66666700  0.75368000  1
  V  V11  1  0.66666700  0.33333300  0.25368000  1
  O  O0  1  0.17287500  0.34575000  0.42319100  1
  O  O1  1  0.17287500  0.82712500  0.42319100  1
  O  O2  1  0.65425000  0.82712500  0.42319100  1
  O  O3  1  0.82712500  0.65425000  0.92319100  1
  O  O4  1  0.82712500  0.17287500  0.92319100  1
  O  O5  1  0.34575000  0.17287500  0.92319100  1
  O  O6  1  0.17212800  0.34425600  0.07663700  1
  O  O7  1  0.17212800  0.82787200  0.07663700  1
  O  O8  1  0.65574400  0.82787200  0.07663700  1
  O  O9  1  0.82787200  0.65574400  0.57663700  1
  O  O10  1  0.82787200  0.17212800  0.57663700  1
  O  O11  1  0.34425600  0.17212800  0.57663700  1
  O  O12  1  0.15188400  0.30376900  0.75066800  1
  O  O13  1  0.15188400  0.84811600  0.75066800  1
  O  O14  1  0.69623100  0.84811600  0.75066800  1
  O  O15  1  0.84811600  0.69623100  0.25066800  1
  O  O16  1  0.84811600  0.15188400  0.25066800  1
  O  O17  1  0.30376900  0.15188400  0.25066800  1
  O  O18  1  0.33333300  0.66666700  0.91237100  1
  O  O19  1  0.66666700  0.33333300  0.41237100  1
  O  O20  1  0.33333300  0.66666700  0.58794600  1
  O  O21  1  0.66666700  0.33333300  0.08794600  1
loop_
_geom_bond_atom_site_label_1
_geom_bond_atom_site_label_2
_geom_bond_distance
_geom_bond_site_symmetry_2
K0 O7 2.832944 1_555
K0 O6 2.832947 1_555
K0 O8 2.832947 1_555
K0 O1 2.861936 1_555
K0 O0 2.861939 1_555
K0 O2 2.861939 1_555
K0 O17 2.967718 1_565
K0 O15 2.967718 1_455
K0 O16 2.967724 1_565
K0 O16 2.967724 1_455
K0 O17 2.967730 1_555
K0 O15 2.967730 1_555
K1 O10 2.832944 1_555
K1 O9 2.832947 1_555
K1 O11 2.832947 1_555
K1 O4 2.861936 1_555
K1 O5 2.861939 1_555
K1 O3 2.861939 1_555
K1 O12 2.967718 1_655
K1 O14 2.967718 1_545
K1 O13 2.967724 1_655
K1 O13 2.967724 1_545
K1 O14 2.967730 1_555
K1 O12 2.967730 1_555
O0 V1 1.972414 1_555
O0 V2 1.972414 1_555
O0 V6 1.995938 1_555
O1 V0 1.972414 1_555
O1 V2 1.972414 1_555
O1 V6 1.995938 1_565
O2 V1 1.972414 1_555
O2 V0 1.972414 1_555
O2 V6 1.995938 1_665
O3 V4 1.972414 1_556
O3 V5 1.972414 1_556
O3 V7 1.995938 1_665
O4 V3 1.972414 1_556
O4 V5 1.972414 1_556
O4 V7 1.995938 1_655
O5 V4 1.972414 1_556
O5 V3 1.972414 1_556
O5 V7 1.995938 1_555
O6 V4 1.969166 1_555
O6 V5 1.969166 1_455
O6 V8 1.995303 1_555
O7 V3 1.969166 1_565
O7 V5 1.969166 1_455
O7 V8 1.995303 1_565
O8 V4 1.969166 1_555
O8 V3 1.969166 1_565
O8 V8 1.995303 1_665
O9 V1 1.969166 1_555
O9 V2 1.969166 1_655
O9 V9 1.995303 1_665
O10 V2 1.969166 1_655
O10 V0 1.969166 1_545
O10 V9 1.995303 1_655
O11 V1 1.969166 1_555
O11 V0 1.969166 1_545
O11 V9 1.995303 1_555
O12 V10 1.863282 1_555
O12 V7 2.093287 1_555
O12 V9 2.097830 1_555
O13 V10 1.863283 1_555
O13 V7 2.093283 1_565
O13 V9 2.097827 1_565
O14 V10 1.863282 1_555
O14 V7 2.093287 1_665
O14 V9 2.097830 1_665
O15 V11 1.863282 1_555
O15 V6 2.093287 1_665
O15 V8 2.097830 1_665
O16 V11 1.863283 1_555
O16 V6 2.093283 1_655
O16 V8 2.097827 1_655
O17 V11 1.863282 1_555
O17 V6 2.093287 1_555
O17 V8 2.097830 1_555
O18 V5 2.082929 1_456
O18 V3 2.082929 1_566
O18 V4 2.082934 1_556
O18 V10 2.124492 1_555
O19 V2 2.082929 1_655
O19 V0 2.082929 1_545
O19 V1 2.082934 1_555
O19 V11 2.124492 1_555
O20 V2 2.068723 1_555
O20 V0 2.068723 1_555
O20 V1 2.068727 1_555
O20 V10 2.218781 1_555
O21 V5 2.068723 1_555
O21 V3 2.068723 1_555
O21 V4 2.068727 1_555
O21 V11 2.218781 1_555
