# generated using pymatgen
data_Ba2NaLaTi4O12
_symmetry_space_group_name_H-M   'P 1'
_cell_length_a   8.87606107
_cell_length_b   8.87606107
_cell_length_c   8.87606107
_cell_angle_alpha   143.04778763
_cell_angle_beta   143.04778763
_cell_angle_gamma   53.25359295
_symmetry_Int_Tables_number   1
_chemical_formula_structural   Ba2NaLaTi4O12
_chemical_formula_sum   'Ba2 Na1 La1 Ti4 O12'
_cell_volume   251.13143055
_cell_formula_units_Z   1
loop_
 _symmetry_equiv_pos_site_id
 _symmetry_equiv_pos_as_xyz
  1  'x, y, z'
loop_
 _atom_site_type_symbol
 _atom_site_label
 _atom_site_symmetry_multiplicity
 _atom_site_fract_x
 _atom_site_fract_y
 _atom_site_fract_z
 _atom_site_occupancy
  Ba  Ba0  1  0.24746700  0.24746700  0.00000000  1
  Ba  Ba1  1  0.75253300  0.75253300  0.00000000  1
  Na  Na0  1  0.00000000  0.00000000  0.00000000  1
  La  La0  1  0.50000000  0.50000000  0.00000000  1
  Ti  Ti0  1  0.87838900  0.37838900  0.50000000  1
  Ti  Ti1  1  0.12161100  0.62161100  0.50000000  1
  Ti  Ti2  1  0.37838900  0.87838900  0.50000000  1
  Ti  Ti3  1  0.62161100  0.12161100  0.50000000  1
  O  O0  1  0.62417900  0.62417900  0.48689300  1
  O  O1  1  0.86271400  0.86271400  0.48689300  1
  O  O2  1  0.13728600  0.13728600  0.51310700  1
  O  O3  1  0.37582100  0.37582100  0.51310700  1
  O  O4  1  0.62417900  0.13728600  0.00000000  1
  O  O5  1  0.86271400  0.37582100  0.00000000  1
  O  O6  1  0.13728600  0.62417900  0.00000000  1
  O  O7  1  0.37582100  0.86271400  0.00000000  1
  O  O8  1  0.75000000  0.25000000  0.50000000  1
  O  O9  1  0.00000000  0.50000000  0.50000000  1
  O  O10  1  0.25000000  0.75000000  0.50000000  1
  O  O11  1  0.50000000  0.00000000  0.50000000  1
loop_
_geom_bond_atom_site_label_1
_geom_bond_atom_site_label_2
_geom_bond_distance
_geom_bond_site_symmetry_2
Ba0 O8 2.813192 1_454
Ba0 O8 2.813192 1_555
Ba0 O10 2.813192 1_544
Ba0 O10 2.813192 1_555
Ba0 O4 2.867768 1_555
Ba0 O0 2.867768 1_555
Ba0 O6 2.867768 1_555
Ba0 O2 2.867768 1_554
Ba0 O1 2.881899 1_444
Ba0 O5 2.881899 1_455
Ba0 O7 2.881899 1_545
Ba0 O3 2.881899 1_555
Ba1 O10 2.813192 1_554
Ba1 O10 2.813192 1_655
Ba1 O8 2.813192 1_554
Ba1 O8 2.813192 1_565
Ba1 O1 2.867768 1_555
Ba1 O5 2.867768 1_555
Ba1 O7 2.867768 1_555
Ba1 O3 2.867768 1_554
Ba1 O6 2.881899 1_655
Ba1 O4 2.881899 1_565
Ba1 O0 2.881899 1_554
Ba1 O2 2.881899 1_665
Na0 O3 2.783646 1_555
Na0 O5 2.783646 1_455
Na0 O7 2.783646 1_545
Na0 O2 2.783646 1_555
Na0 O1 2.783646 1_444
Na0 O4 2.783646 1_455
Na0 O0 2.783646 1_444
Na0 O6 2.783646 1_545
Na0 O9 2.812905 1_544
Na0 O11 2.812905 1_454
Na0 O11 2.812905 1_555
Na0 O9 2.812905 1_555
La0 O3 2.708109 1_554
La0 O5 2.708109 1_555
La0 O7 2.708109 1_555
La0 O2 2.708109 1_554
La0 O1 2.708109 1_555
La0 O6 2.708109 1_555
La0 O0 2.708109 1_555
La0 O4 2.708109 1_555
La0 O11 2.812905 1_554
La0 O11 2.812905 1_565
La0 O9 2.812905 1_554
La0 O9 2.812905 1_655
O0 Ti2 1.990055 1_555
O0 Ti0 1.990055 1_555
O1 Ti1 1.990055 1_655
O1 Ti3 1.990055 1_565
O2 Ti0 1.990055 1_455
O2 Ti2 1.990055 1_545
O3 Ti3 1.990055 1_555
O3 Ti1 1.990055 1_555
O4 Ti2 1.990055 1_544
O4 Ti0 1.990055 1_555
O5 Ti3 1.990055 1_554
O5 Ti1 1.990055 1_655
O6 Ti0 1.990055 1_454
O6 Ti2 1.990055 1_555
O7 Ti1 1.990055 1_554
O7 Ti3 1.990055 1_565
O8 Ti0 2.037458 1_555
O8 Ti3 2.037458 1_555
O9 Ti1 1.929896 1_555
O9 Ti0 1.929896 1_455
O10 Ti2 2.037458 1_555
O10 Ti1 2.037458 1_555
O11 Ti3 1.929896 1_555
O11 Ti2 1.929896 1_545
