# generated using pymatgen
data_Na2CoSiCO7
_symmetry_space_group_name_H-M   'P 1'
_cell_length_a   6.29202200
_cell_length_b   10.29935046
_cell_length_c   11.01052615
_cell_angle_alpha   118.75716959
_cell_angle_beta   90.00008320
_cell_angle_gamma   89.99991365
_symmetry_Int_Tables_number   1
_chemical_formula_structural   Na2CoSiCO7
_chemical_formula_sum   'Na8 Co4 Si4 C4 O28'
_cell_volume   625.52199159
_cell_formula_units_Z   4
loop_
 _symmetry_equiv_pos_site_id
 _symmetry_equiv_pos_as_xyz
  1  'x, y, z'
loop_
 _atom_site_type_symbol
 _atom_site_label
 _atom_site_symmetry_multiplicity
 _atom_site_fract_x
 _atom_site_fract_y
 _atom_site_fract_z
 _atom_site_occupancy
  Na  Na0  1  0.00395700  0.24517800  0.23789100  1
  Na  Na1  1  0.99916800  0.73928600  0.24343800  1
  Na  Na2  1  0.49604300  0.24518100  0.23789300  1
  Na  Na3  1  0.50083200  0.73928500  0.24343700  1
  Na  Na4  1  0.50394100  0.75483100  0.76212100  1
  Na  Na5  1  0.49919300  0.26071900  0.75655300  1
  Na  Na6  1  0.99605800  0.75483500  0.76212100  1
  Na  Na7  1  0.00080900  0.26072000  0.75655300  1
  Co  Co0  1  0.75000000  0.09102700  0.37466500  1
  Co  Co1  1  0.25000100  0.90899400  0.62538200  1
  Co  Co2  1  0.75000000  0.60549200  0.40035600  1
  Co  Co3  1  0.25000000  0.39453500  0.59965000  1
  Si  Si0  1  0.25000000  0.55939000  0.42615200  1
  Si  Si1  1  0.25000000  0.04940800  0.42959100  1
  Si  Si2  1  0.75000000  0.44064600  0.57386300  1
  Si  Si3  1  0.75000000  0.95058400  0.57043000  1
  C  C0  1  0.75000100  0.39187100  0.05613200  1
  C  C1  1  0.74999900  0.90402200  0.07487600  1
  C  C2  1  0.24999800  0.60807900  0.94385600  1
  C  C3  1  0.25000100  0.09600900  0.92510000  1
  O  O0  1  0.25000100  0.13886200  0.05488400  1
  O  O1  1  0.24999900  0.67789600  0.07615700  1
  O  O2  1  0.74999900  0.86118800  0.94508800  1
  O  O3  1  0.75000100  0.32193900  0.92383100  1
  O  O4  1  0.75000100  0.53339800  0.12085100  1
  O  O5  1  0.74999900  0.04602200  0.16137100  1
  O  O6  1  0.25000000  0.46655500  0.87904300  1
  O  O7  1  0.25000100  0.95397800  0.83862200  1
  O  O8  1  0.75000000  0.32020900  0.12417000  1
  O  O9  1  0.75000000  0.81350100  0.12263500  1
  O  O10  1  0.24999700  0.67984900  0.87591900  1
  O  O11  1  0.25000100  0.18646200  0.87728800  1
  O  O12  1  0.75000000  0.29796400  0.41682900  1
  O  O13  1  0.75000000  0.80043900  0.41939900  1
  O  O14  1  0.25000000  0.70203200  0.58318300  1
  O  O15  1  0.25000100  0.19958400  0.58059100  1
  O  O16  1  0.25000000  0.39952000  0.42954000  1
  O  O17  1  0.24999900  0.89699300  0.44469100  1
  O  O18  1  0.75000000  0.60049700  0.57045300  1
  O  O19  1  0.75000100  0.10302600  0.55536800  1
  O  O20  1  0.03243900  0.55546600  0.33992300  1
  O  O21  1  0.03699500  0.04247800  0.33859700  1
  O  O22  1  0.46756000  0.55546500  0.33992300  1
  O  O23  1  0.46300500  0.04247700  0.33859800  1
  O  O24  1  0.53243600  0.44457900  0.66008800  1
  O  O25  1  0.53701000  0.95747600  0.66140400  1
  O  O26  1  0.96756400  0.44457800  0.66008800  1
  O  O27  1  0.96299000  0.95747500  0.66140400  1
loop_
_geom_bond_atom_site_label_1
_geom_bond_atom_site_label_2
_geom_bond_distance
_geom_bond_site_symmetry_2
Na0 O0 2.352212 1_555
Na0 O8 2.376828 1_455
Na0 O12 2.387453 1_455
Na0 O5 2.409909 1_455
Na0 O16 2.479667 1_555
Na0 O21 2.803296 1_555
Na0 O20 2.837716 1_555
Na1 O1 2.272110 1_655
Na1 O13 2.331112 1_555
Na1 O9 2.406155 1_555
Na1 O4 2.454042 1_555
Na1 O17 2.564399 1_655
Na1 O20 2.586882 1_655
Na1 O21 2.785221 1_665
Na2 O0 2.352218 1_555
Na2 O8 2.376829 1_555
Na2 O12 2.387440 1_555
Na2 O5 2.409917 1_555
Na2 O16 2.479649 1_555
Na2 O23 2.803327 1_555
Na2 O22 2.837681 1_555
Na3 O1 2.272110 1_555
Na3 O13 2.331116 1_555
Na3 O9 2.406157 1_555
Na3 O4 2.454041 1_555
Na3 O17 2.564416 1_555
Na3 O22 2.586891 1_555
Na3 O23 2.785217 1_565
Na4 O2 2.352013 1_555
Na4 O10 2.377065 1_555
Na4 O14 2.387360 1_555
Na4 O7 2.409780 1_555
Na4 O18 2.479825 1_555
Na4 O25 2.802873 1_555
Na4 O24 2.837372 1_555
Na5 O3 2.272181 1_555
Na5 O15 2.331243 1_555
Na5 O11 2.405982 1_555
Na5 O6 2.453681 1_555
Na5 O19 2.563861 1_555
Na5 O24 2.587083 1_555
Na5 O25 2.785727 1_545
Na6 O2 2.352016 1_555
Na6 O10 2.377063 1_655
Na6 O14 2.387360 1_655
Na6 O7 2.409767 1_655
Na6 O18 2.479830 1_555
Na6 O27 2.802824 1_555
Na6 O26 2.837420 1_555
Na7 O3 2.272185 1_455
Na7 O15 2.331244 1_555
Na7 O11 2.405984 1_555
Na7 O6 2.453668 1_555
Na7 O19 2.563862 1_455
Na7 O26 2.587064 1_455
Na7 O27 2.785748 1_445
Co0 O21 1.864807 1_655
Co0 O23 1.864808 1_555
Co0 O19 1.933218 1_555
Co0 O12 1.950893 1_555
Co0 O5 2.163975 1_555
Co1 O25 1.864736 1_555
Co1 O27 1.864746 1_455
Co1 O17 1.933077 1_555
Co1 O14 1.951034 1_555
Co1 O7 2.163457 1_555
Co2 O20 1.880552 1_655
Co2 O22 1.880559 1_555
Co2 O18 1.898144 1_555
Co2 O13 1.915792 1_555
Co3 O26 1.880565 1_455
Co3 O24 1.880565 1_555
Co3 O16 1.898235 1_555
Co3 O15 1.915764 1_555
C0 O3 1.277191 1_554
C0 O4 1.277911 1_555
C0 O8 1.279830 1_555
C1 O9 1.271786 1_555
C1 O2 1.276777 1_554
C1 O5 1.306038 1_565
C2 O1 1.277174 1_556
C2 O6 1.277894 1_555
C2 O10 1.279826 1_555
C3 O11 1.271581 1_555
C3 O0 1.276697 1_556
C3 O7 1.306248 1_545
O12 Si2 1.644460 1_555
O13 Si3 1.637786 1_555
O14 Si0 1.644280 1_555
O15 Si1 1.637740 1_555
O16 Si0 1.664825 1_555
O17 Si1 1.656188 1_565
O18 Si2 1.664750 1_555
O19 Si3 1.656233 1_545
O20 Si0 1.655296 1_555
O21 Si1 1.654175 1_555
O22 Si0 1.655290 1_555
O23 Si1 1.654168 1_555
O24 Si2 1.655265 1_555
O25 Si3 1.654069 1_555
O26 Si2 1.655266 1_555
O27 Si3 1.654069 1_555
