# generated using pymatgen
data_Sm4Si9Ni7
_symmetry_space_group_name_H-M   'P 1'
_cell_length_a   7.94488645
_cell_length_b   7.94488645
_cell_length_c   5.65974827
_cell_angle_alpha   69.38530461
_cell_angle_beta   69.38530461
_cell_angle_gamma   91.67909185
_symmetry_Int_Tables_number   1
_chemical_formula_structural   Sm4Si9Ni7
_chemical_formula_sum   'Sm4 Si9 Ni7'
_cell_volume   308.13816860
_cell_formula_units_Z   1
loop_
 _symmetry_equiv_pos_site_id
 _symmetry_equiv_pos_as_xyz
  1  'x, y, z'
loop_
 _atom_site_type_symbol
 _atom_site_label
 _atom_site_symmetry_multiplicity
 _atom_site_fract_x
 _atom_site_fract_y
 _atom_site_fract_z
 _atom_site_occupancy
  Sm  Sm0  1  0.89002600  0.62831200  0.48675900  1
  Sm  Sm1  1  0.10658000  0.36563200  0.01233100  1
  Sm  Sm2  1  0.37168800  0.10997400  0.51324100  1
  Sm  Sm3  1  0.63436800  0.89342000  0.98766900  1
  Si  Si0  1  0.23945100  0.45697000  0.40495600  1
  Si  Si1  1  0.75081000  0.52909500  0.10010200  1
  Si  Si2  1  0.54303000  0.76054900  0.59504400  1
  Si  Si3  1  0.47090500  0.24919000  0.89989800  1
  Si  Si4  1  0.99839800  0.00160200  0.00000000  1
  Si  Si5  1  0.00723000  0.99277000  0.50000000  1
  Si  Si6  1  0.26672900  0.73327100  0.00000000  1
  Si  Si7  1  0.26233600  0.73766400  0.50000000  1
  Si  Si8  1  0.73537800  0.26462200  0.50000000  1
  Ni  Ni0  1  0.98375200  0.23826500  0.63097000  1
  Ni  Ni1  1  0.02068800  0.75062700  0.86860000  1
  Ni  Ni2  1  0.76173500  0.01624800  0.36903000  1
  Ni  Ni3  1  0.24937300  0.97931200  0.13140000  1
  Ni  Ni4  1  0.49599800  0.50400200  0.50000000  1
  Ni  Ni5  1  0.48760700  0.51239300  0.00000000  1
  Ni  Ni6  1  0.72391700  0.27608300  0.00000000  1
loop_
_geom_bond_atom_site_label_1
_geom_bond_atom_site_label_2
_geom_bond_distance
_geom_bond_site_symmetry_2
Si0 Si7 2.487071 1_555
Si0 Si6 2.489649 1_555
Si0 Sm2 2.917699 1_555
Si0 Sm1 3.016822 1_556
Si0 Sm1 3.053099 1_555
Si0 Sm0 3.087821 1_455
Si1 Si8 2.448150 1_555
Si1 Sm3 2.985546 1_554
Si1 Sm0 3.035378 1_554
Si1 Sm0 3.082491 1_555
Si1 Sm1 3.098944 1_655
Si2 Si7 2.487071 1_555
Si2 Si6 2.489649 1_556
Si2 Sm0 2.917699 1_555
Si2 Sm3 3.016822 1_554
Si2 Sm3 3.053099 1_555
Si2 Sm2 3.087821 1_565
Si3 Si8 2.448150 1_555
Si3 Sm1 2.985546 1_556
Si3 Sm2 3.035378 1_556
Si3 Sm2 3.082491 1_555
Si3 Sm3 3.098944 1_545
Si4 Sm3 3.024398 1_544
Si4 Sm1 3.024398 1_655
Si4 Sm0 3.090856 1_545
Si4 Sm2 3.090856 1_654
Si5 Sm0 3.049753 1_455
Si5 Sm2 3.049753 1_565
Si5 Sm1 3.096450 1_565
Si5 Sm3 3.096450 1_455
Si6 Sm0 3.110047 1_455
Si6 Sm2 3.110047 1_564
Si6 Sm1 3.119501 1_555
Si6 Sm3 3.119501 1_554
Si7 Sm2 3.092132 1_565
Si7 Sm0 3.092132 1_455
Si7 Sm3 3.146367 1_554
Si7 Sm1 3.146367 1_556
Si8 Sm0 3.072284 1_555
Si8 Sm2 3.072284 1_555
Si8 Sm1 3.086967 1_655
Si8 Sm3 3.086967 1_545
Ni0 Si0 2.276098 1_655
Ni0 Si4 2.308646 1_556
Ni0 Si5 2.308777 1_645
Ni0 Si8 2.330697 1_555
Ni0 Ni6 2.481191 1_556
Ni0 Sm1 3.045801 1_655
Ni0 Sm1 3.098108 1_656
Ni0 Sm0 3.099336 1_555
Ni0 Sm2 3.193504 1_655
Ni0 Sm3 3.316707 1_545
Ni1 Si6 2.315268 1_556
Ni1 Si7 2.321901 1_555
Ni1 Si5 2.325432 1_555
Ni1 Si4 2.352127 1_466
Ni1 Si1 2.364025 1_456
Ni1 Sm1 3.040464 1_556
Ni1 Sm0 3.041664 1_456
Ni1 Sm0 3.113186 1_455
Ni1 Sm3 3.232261 1_455
Ni1 Sm2 3.393116 1_565
Ni2 Si2 2.276098 1_545
Ni2 Si4 2.308646 1_555
Ni2 Si5 2.308777 1_645
Ni2 Si8 2.330697 1_555
Ni2 Ni6 2.481191 1_555
Ni2 Sm3 3.045801 1_545
Ni2 Sm3 3.098108 1_544
Ni2 Sm2 3.099336 1_555
Ni2 Sm0 3.193504 1_545
Ni2 Sm1 3.316707 1_655
Ni3 Si6 2.315268 1_555
Ni3 Si7 2.321901 1_555
Ni3 Si5 2.325432 1_555
Ni3 Si4 2.352127 1_465
Ni3 Si3 2.364025 1_564
Ni3 Sm3 3.040464 1_554
Ni3 Sm2 3.041664 1_564
Ni3 Sm2 3.113186 1_565
Ni3 Sm1 3.232261 1_565
Ni3 Sm0 3.393116 1_455
Ni4 Si0 2.335029 1_555
Ni4 Si2 2.335029 1_555
Ni4 Si3 2.385986 1_555
Ni4 Si1 2.385986 1_555
Ni4 Si7 2.663558 1_555
Ni4 Si8 2.728738 1_555
Ni4 Ni5 2.831490 1_555
Ni4 Ni5 2.831490 1_556
Ni4 Sm2 3.222204 1_555
Ni4 Sm0 3.222204 1_555
Ni4 Sm3 3.229165 1_554
Ni4 Sm1 3.229165 1_556
Ni5 Si2 2.321757 1_554
Ni5 Si0 2.321757 1_555
Ni5 Si1 2.362685 1_555
Ni5 Si3 2.362685 1_554
Ni5 Si6 2.517830 1_555
Ni5 Ni6 2.693743 1_555
Ni5 Sm1 3.180494 1_555
Ni5 Sm3 3.180494 1_554
Ni5 Sm0 3.303329 1_554
Ni5 Sm2 3.303329 1_555
Ni6 Si1 2.295507 1_555
Ni6 Si3 2.295507 1_554
Ni6 Si8 2.832888 1_555
Ni6 Si8 2.832888 1_554
Ni6 Sm2 3.061180 1_555
Ni6 Sm0 3.061180 1_554
Ni6 Sm1 3.132341 1_655
Ni6 Sm3 3.132341 1_544
