# generated using pymatgen
data_Mg4Ti5(TeO6)3
_symmetry_space_group_name_H-M   'P 1'
_cell_length_a   8.75749130
_cell_length_b   8.75749130
_cell_length_c   11.08158727
_cell_angle_alpha   87.51437706
_cell_angle_beta   87.51437706
_cell_angle_gamma   65.43606416
_symmetry_Int_Tables_number   1
_chemical_formula_structural   Mg4Ti5(TeO6)3
_chemical_formula_sum   'Mg8 Ti10 Te6 O36'
_cell_volume   771.94324983
_cell_formula_units_Z   2
loop_
 _symmetry_equiv_pos_site_id
 _symmetry_equiv_pos_as_xyz
  1  'x, y, z'
loop_
 _atom_site_type_symbol
 _atom_site_label
 _atom_site_symmetry_multiplicity
 _atom_site_fract_x
 _atom_site_fract_y
 _atom_site_fract_z
 _atom_site_occupancy
  Mg  Mg0  1  0.93325200  0.65966400  0.42202300  1
  Mg  Mg1  1  0.31037000  0.63213300  0.54262600  1
  Mg  Mg2  1  0.34033600  0.06674800  0.07797700  1
  Mg  Mg3  1  0.36786700  0.68963000  0.95737400  1
  Mg  Mg4  1  0.63213300  0.31037000  0.04262600  1
  Mg  Mg5  1  0.65966400  0.93325200  0.92202300  1
  Mg  Mg6  1  0.06674800  0.34033600  0.57797700  1
  Mg  Mg7  1  0.68963000  0.36786700  0.45737400  1
  Ti  Ti0  1  0.01864600  0.68509900  0.79284200  1
  Ti  Ti1  1  0.68509900  0.01864600  0.29284200  1
  Ti  Ti2  1  0.47252800  0.86007900  0.44191100  1
  Ti  Ti3  1  0.86007900  0.47252800  0.94191100  1
  Ti  Ti4  1  0.13992100  0.52747200  0.05808900  1
  Ti  Ti5  1  0.85424600  0.14575400  0.75000000  1
  Ti  Ti6  1  0.14575400  0.85424600  0.25000000  1
  Ti  Ti7  1  0.52747200  0.13992100  0.55808900  1
  Ti  Ti8  1  0.98135400  0.31490100  0.20715800  1
  Ti  Ti9  1  0.31490100  0.98135400  0.70715800  1
  Te  Te0  1  0.37033300  0.32121600  0.81888800  1
  Te  Te1  1  0.00000000  0.00000000  0.50000000  1
  Te  Te2  1  0.00000000  0.00000000  0.00000000  1
  Te  Te3  1  0.32121600  0.37033300  0.31888800  1
  Te  Te4  1  0.62966700  0.67878400  0.18111200  1
  Te  Te5  1  0.67878400  0.62966700  0.68111200  1
  O  O0  1  0.41119900  0.09554000  0.89482800  1
  O  O1  1  0.10371800  0.73072300  0.94096100  1
  O  O2  1  0.18879500  0.64112500  0.17561600  1
  O  O3  1  0.09185700  0.09733200  0.24150800  1
  O  O4  1  0.26927700  0.89628200  0.55903900  1
  O  O5  1  0.90266800  0.90814300  0.25849200  1
  O  O6  1  0.43759400  0.38323700  0.47282700  1
  O  O7  1  0.74089200  0.11480800  0.92442800  1
  O  O8  1  0.25910800  0.88519200  0.07557200  1
  O  O9  1  0.69271700  0.78665800  0.36242900  1
  O  O10  1  0.20806500  0.59139700  0.69937200  1
  O  O11  1  0.30728300  0.21334200  0.63757100  1
  O  O12  1  0.89628200  0.26927700  0.05903900  1
  O  O13  1  0.08175000  0.45075700  0.89752900  1
  O  O14  1  0.40860300  0.79193500  0.80062800  1
  O  O15  1  0.56240600  0.61676300  0.52717300  1
  O  O16  1  0.79193500  0.40860300  0.30062800  1
  O  O17  1  0.54924300  0.91825000  0.60247100  1
  O  O18  1  0.35887500  0.81120500  0.32438400  1
  O  O19  1  0.59139700  0.20806500  0.19937200  1
  O  O20  1  0.09554000  0.41119900  0.39482800  1
  O  O21  1  0.91825000  0.54924300  0.10247100  1
  O  O22  1  0.88519200  0.25910800  0.57557200  1
  O  O23  1  0.38323700  0.43759400  0.97282700  1
  O  O24  1  0.81120500  0.35887500  0.82438400  1
  O  O25  1  0.09733200  0.09185700  0.74150800  1
  O  O26  1  0.78665800  0.69271700  0.86242900  1
  O  O27  1  0.61676300  0.56240600  0.02717300  1
  O  O28  1  0.73072300  0.10371800  0.44096100  1
  O  O29  1  0.45075700  0.08175000  0.39752900  1
  O  O30  1  0.58880100  0.90446000  0.10517200  1
  O  O31  1  0.90814300  0.90266800  0.75849200  1
  O  O32  1  0.11480800  0.74089200  0.42442800  1
  O  O33  1  0.21334200  0.30728300  0.13757100  1
  O  O34  1  0.64112500  0.18879500  0.67561600  1
  O  O35  1  0.90446000  0.58880100  0.60517200  1
loop_
_geom_bond_atom_site_label_1
_geom_bond_atom_site_label_2
_geom_bond_distance
_geom_bond_site_symmetry_2
Mg0 O32 1.995103 1_655
Mg0 O9 2.054129 1_555
Mg0 O20 2.072189 1_655
Mg0 O35 2.131751 1_555
Mg1 O10 2.006022 1_555
Mg1 O32 2.070282 1_555
Mg1 O15 2.154389 1_555
Mg1 O6 2.154786 1_555
Mg1 O4 2.202848 1_555
Mg2 O8 1.995103 1_545
Mg2 O33 2.054129 1_555
Mg2 O30 2.072189 1_545
Mg2 O0 2.131751 1_554
Mg3 O14 2.006022 1_555
Mg3 O8 2.070282 1_556
Mg3 O23 2.154389 1_555
Mg3 O27 2.154786 1_556
Mg3 O1 2.202848 1_555
Mg4 O19 2.006022 1_555
Mg4 O7 2.070282 1_554
Mg4 O27 2.154389 1_555
Mg4 O23 2.154786 1_554
Mg4 O12 2.202848 1_555
Mg5 O7 1.995103 1_565
Mg5 O26 2.054129 1_555
Mg5 O0 2.072189 1_565
Mg5 O30 2.131751 1_556
Mg6 O22 1.995103 1_455
Mg6 O11 2.054129 1_555
Mg6 O35 2.072189 1_455
Mg6 O20 2.131751 1_555
Mg7 O16 2.006022 1_555
Mg7 O22 2.070282 1_555
Mg7 O6 2.154389 1_555
Mg7 O15 2.154786 1_555
Mg7 O28 2.202848 1_555
O0 Te0 2.008990 1_555
O0 Ti9 2.658928 1_545
O1 Ti0 1.954305 1_555
O1 Ti4 2.078370 1_556
O1 Te2 2.261756 1_566
O2 Ti4 1.839846 1_555
O2 Ti6 1.956167 1_555
O2 Te3 2.652550 1_555
O3 Ti8 1.774205 1_455
O3 Ti6 1.978533 1_545
O4 Ti9 1.954305 1_555
O4 Ti2 2.078370 1_555
O4 Te1 2.261756 1_565
O5 Ti1 1.774205 1_565
O5 Ti6 1.978533 1_655
O6 Te3 2.055440 1_555
O6 Ti7 2.132640 1_555
O7 Ti5 2.192476 1_555
O7 Te2 2.248590 1_656
O8 Ti6 2.192476 1_555
O8 Te2 2.248590 1_565
O9 Ti2 1.943843 1_555
O9 Ti1 2.117195 1_565
O9 Te4 2.434978 1_555
O10 Ti0 1.814090 1_555
O10 Te0 2.543203 1_555
O11 Ti7 1.943843 1_555
O11 Ti9 2.117195 1_545
O11 Te0 2.434978 1_555
O12 Ti8 1.954305 1_555
O12 Ti3 2.078370 1_554
O12 Te2 2.261756 1_655
O13 Ti3 1.914265 1_455
O13 Ti4 2.084106 1_556
O13 Ti0 2.183830 1_555
O13 Te0 2.438133 1_555
O14 Ti9 1.814090 1_555
O14 Te5 2.543203 1_555
O15 Te5 2.055440 1_555
O15 Ti2 2.132640 1_555
O16 Ti8 1.814090 1_555
O16 Te4 2.543203 1_555
O17 Ti7 1.914265 1_565
O17 Ti2 2.084106 1_555
O17 Ti9 2.183830 1_555
O17 Te5 2.438133 1_555
O18 Ti2 1.839846 1_555
O18 Ti6 1.956167 1_555
O18 Te4 2.652550 1_555
O19 Ti1 1.814090 1_555
O19 Te3 2.543203 1_555
O20 Te3 2.008990 1_555
O20 Ti8 2.658928 1_455
O21 Ti4 1.914265 1_655
O21 Ti3 2.084106 1_554
O21 Ti8 2.183830 1_555
O21 Te4 2.438133 1_555
O22 Ti5 2.192476 1_555
O22 Te1 2.248590 1_655
O23 Te0 2.055440 1_555
O23 Ti4 2.132640 1_556
O24 Ti3 1.839846 1_555
O24 Ti5 1.956167 1_555
O24 Te5 2.652550 1_555
O25 Ti9 1.774205 1_545
O25 Ti5 1.978533 1_455
O26 Ti3 1.943843 1_555
O26 Ti0 2.117195 1_655
O26 Te5 2.434978 1_555
O27 Te4 2.055440 1_555
O27 Ti3 2.132640 1_554
O28 Ti1 1.954305 1_555
O28 Ti7 2.078370 1_555
O28 Te1 2.261756 1_655
O29 Ti2 1.914265 1_545
O29 Ti7 2.084106 1_555
O29 Ti1 2.183830 1_555
O29 Te3 2.438133 1_555
O30 Te4 2.008990 1_555
O30 Ti1 2.658928 1_565
O31 Ti0 1.774205 1_655
O31 Ti5 1.978533 1_565
O32 Ti6 2.192476 1_555
O32 Te1 2.248590 1_565
O33 Ti4 1.943843 1_555
O33 Ti8 2.117195 1_455
O33 Te3 2.434978 1_555
O34 Ti7 1.839846 1_555
O34 Ti5 1.956167 1_555
O34 Te0 2.652550 1_555
O35 Te5 2.008990 1_555
O35 Ti0 2.658928 1_655
