# generated using pymatgen
data_FeTe2
_symmetry_space_group_name_H-M   'P 1'
_cell_length_a   3.87445588
_cell_length_b   5.24404811
_cell_length_c   6.24276922
_cell_angle_alpha   90.00000000
_cell_angle_beta   90.00000000
_cell_angle_gamma   90.00000000
_symmetry_Int_Tables_number   1
_chemical_formula_structural   FeTe2
_chemical_formula_sum   'Fe2 Te4'
_cell_volume   126.83954269
_cell_formula_units_Z   2
loop_
 _symmetry_equiv_pos_site_id
 _symmetry_equiv_pos_as_xyz
  1  'x, y, z'
loop_
 _atom_site_type_symbol
 _atom_site_label
 _atom_site_symmetry_multiplicity
 _atom_site_fract_x
 _atom_site_fract_y
 _atom_site_fract_z
 _atom_site_occupancy
  Fe  Fe0  1  0.01463194  0.00000000  0.00000000  1
  Fe  Fe1  1  0.51463194  0.50000000  0.50000000  1
  Te  Te0  1  0.01448403  0.22433470  0.36279490  1
  Te  Te1  1  0.01448403  0.77566530  0.63720510  1
  Te  Te2  1  0.51448403  0.27566530  0.86279490  1
  Te  Te3  1  0.51448403  0.72433470  0.13720510  1
loop_
_geom_bond_atom_site_label_1
_geom_bond_atom_site_label_2
_geom_bond_distance
_geom_bond_site_symmetry_2
Fe0 Te0 2.552154 1_555
Fe0 Te1 2.552154 1_544
Fe0 Te2 2.563993 1_554
Fe0 Te3 2.563993 1_545
Fe0 Te2 2.564858 1_454
Fe0 Te3 2.564858 1_445
Fe1 Te2 2.552154 1_555
Fe1 Te3 2.552154 1_555
Fe1 Te0 2.563993 1_655
Fe1 Te1 2.563993 1_655
Fe1 Te1 2.564858 1_555
Fe1 Te0 2.564858 1_555
