# generated using pymatgen
data_Dy3Ga9Pt2
_symmetry_space_group_name_H-M   'P 1'
_cell_length_a   8.19875594
_cell_length_b   8.19875594
_cell_length_c   8.19875594
_cell_angle_alpha   149.93080273
_cell_angle_beta   106.18299125
_cell_angle_gamma   81.71327483
_symmetry_Int_Tables_number   1
_chemical_formula_structural   Dy3Ga9Pt2
_chemical_formula_sum   'Dy3 Ga9 Pt2'
_cell_volume   259.74124719
_cell_formula_units_Z   1
loop_
 _symmetry_equiv_pos_site_id
 _symmetry_equiv_pos_as_xyz
  1  'x, y, z'
loop_
 _atom_site_type_symbol
 _atom_site_label
 _atom_site_symmetry_multiplicity
 _atom_site_fract_x
 _atom_site_fract_y
 _atom_site_fract_z
 _atom_site_occupancy
  Dy  Dy0  1  0.00000000  0.00000000  0.00000000  1
  Dy  Dy1  1  0.30834200  0.30834200  0.00000000  1
  Dy  Dy2  1  0.69165800  0.69165800  0.00000000  1
  Ga  Ga0  1  0.50000000  0.00000000  0.50000000  1
  Ga  Ga1  1  0.97144400  0.34201800  0.62942500  1
  Ga  Ga2  1  0.02855600  0.65798200  0.37057500  1
  Ga  Ga3  1  0.71259300  0.34201800  0.37057500  1
  Ga  Ga4  1  0.28740700  0.65798200  0.62942500  1
  Ga  Ga5  1  0.85444400  0.13697700  0.71746700  1
  Ga  Ga6  1  0.14555600  0.86302300  0.28253300  1
  Ga  Ga7  1  0.41951100  0.13697700  0.28253300  1
  Ga  Ga8  1  0.58048900  0.86302300  0.71746700  1
  Pt  Pt0  1  0.30155000  0.50000000  0.80155000  1
  Pt  Pt1  1  0.69845000  0.50000000  0.19845000  1
loop_
_geom_bond_atom_site_label_1
_geom_bond_atom_site_label_2
_geom_bond_distance
_geom_bond_site_symmetry_2
Dy0 Ga2 3.160136 1_544
Dy0 Ga1 3.160136 1_455
Dy0 Ga2 3.160139 1_555
Dy0 Ga1 3.160139 1_444
Dy0 Ga4 3.160140 1_544
Dy0 Ga4 3.160140 1_555
Dy0 Ga3 3.160140 1_444
Dy0 Ga3 3.160140 1_455
Dy0 Ga6 3.259851 1_545
Dy0 Ga5 3.259851 1_454
Dy0 Ga7 3.259858 1_555
Dy0 Ga8 3.259858 1_444
Dy1 Pt0 3.077173 1_554
Dy1 Pt1 3.077173 1_555
Dy1 Ga8 3.093372 1_544
Dy1 Ga8 3.093375 1_555
Dy1 Ga6 3.093378 1_555
Dy1 Ga6 3.093378 1_544
Dy1 Ga4 3.102417 1_544
Dy1 Ga4 3.102417 1_555
Dy1 Ga2 3.102421 1_544
Dy1 Ga2 3.102424 1_555
Dy1 Ga0 3.189553 1_565
Dy1 Ga0 3.189553 1_554
Dy1 Ga5 3.501082 1_454
Dy1 Ga7 3.501082 1_555
Dy2 Pt0 3.077173 1_554
Dy2 Pt1 3.077173 1_555
Dy2 Ga7 3.093372 1_565
Dy2 Ga7 3.093375 1_554
Dy2 Ga5 3.093378 1_554
Dy2 Ga5 3.093378 1_565
Dy2 Ga3 3.102417 1_554
Dy2 Ga3 3.102417 1_565
Dy2 Ga1 3.102421 1_565
Dy2 Ga1 3.102424 1_554
Dy2 Ga0 3.189553 1_565
Dy2 Ga0 3.189553 1_554
Dy2 Ga6 3.501082 1_655
Dy2 Ga8 3.501082 1_554
Ga0 Ga8 2.733477 1_545
Ga0 Ga7 2.733477 1_555
Ga0 Ga6 2.733477 1_545
Ga0 Ga5 2.733477 1_555
Ga0 Pt0 2.888269 1_555
Ga0 Pt0 2.888269 1_544
Ga0 Pt1 2.888269 1_545
Ga0 Pt1 2.888269 1_556
Ga1 Ga3 2.548990 1_555
Ga1 Pt0 2.590728 1_655
Ga1 Ga6 2.619961 1_645
Ga1 Ga6 2.619964 1_656
Ga1 Ga5 2.686701 1_555
Ga2 Ga4 2.548990 1_555
Ga2 Pt1 2.590728 1_455
Ga2 Ga5 2.619961 1_465
Ga2 Ga5 2.619964 1_454
Ga2 Ga6 2.686701 1_555
Ga3 Pt1 2.590736 1_555
Ga3 Ga8 2.619967 1_544
Ga3 Ga8 2.619970 1_555
Ga3 Ga7 2.686689 1_555
Ga4 Pt0 2.590736 1_555
Ga4 Ga7 2.619967 1_566
Ga4 Ga7 2.619970 1_555
Ga4 Ga8 2.686689 1_555
Ga5 Pt1 2.728413 1_545
Ga5 Pt1 2.728413 1_556
Ga6 Pt0 2.728413 1_554
Ga6 Pt0 2.728413 1_565
Ga7 Pt0 2.728415 1_544
Ga7 Pt0 2.728418 1_555
Ga8 Pt1 2.728415 1_566
Ga8 Pt1 2.728418 1_555
