# generated using pymatgen
data_ZnNi3N
_symmetry_space_group_name_H-M   'P 1'
_cell_length_a   3.72701343
_cell_length_b   3.72701343
_cell_length_c   3.72701343
_cell_angle_alpha   90.00000000
_cell_angle_beta   90.00000000
_cell_angle_gamma   90.00000000
_symmetry_Int_Tables_number   1
_chemical_formula_structural   ZnNi3N
_chemical_formula_sum   'Zn1 Ni3 N1'
_cell_volume   51.77056123
_cell_formula_units_Z   1
loop_
 _symmetry_equiv_pos_site_id
 _symmetry_equiv_pos_as_xyz
  1  'x, y, z'
loop_
 _atom_site_type_symbol
 _atom_site_label
 _atom_site_symmetry_multiplicity
 _atom_site_fract_x
 _atom_site_fract_y
 _atom_site_fract_z
 _atom_site_occupancy
  Zn  Zn0  1  -0.00000000  -0.00000000  -0.00000000  1
  Ni  Ni0  1  -0.00000000  0.50000000  0.50000000  1
  Ni  Ni1  1  0.50000000  0.50000000  -0.00000000  1
  Ni  Ni2  1  0.50000000  -0.00000000  0.50000000  1
  N  N0  1  0.50000000  0.50000000  0.50000000  1
loop_
_geom_bond_atom_site_label_1
_geom_bond_atom_site_label_2
_geom_bond_distance
_geom_bond_site_symmetry_2
Ni0 Zn0 2.635396 1_556
Ni0 Zn0 2.635396 1_555
Ni0 Zn0 2.635396 1_566
Ni0 Zn0 2.635396 1_565
Ni1 Zn0 2.635396 1_665
Ni1 Zn0 2.635396 1_655
Ni1 Zn0 2.635396 1_565
Ni1 Zn0 2.635396 1_555
Ni2 Zn0 2.635396 1_556
Ni2 Zn0 2.635396 1_655
Ni2 Zn0 2.635396 1_656
Ni2 Zn0 2.635396 1_555
N0 Ni2 1.863507 1_565
N0 Ni1 1.863507 1_556
N0 Ni1 1.863507 1_555
N0 Ni0 1.863507 1_555
N0 Ni0 1.863507 1_655
N0 Ni2 1.863507 1_555
