# generated using pymatgen
data_LiMn3(O2F)2
_symmetry_space_group_name_H-M   'P 1'
_cell_length_a   4.92738400
_cell_length_b   5.27389560
_cell_length_c   5.38017445
_cell_angle_alpha   116.78281247
_cell_angle_beta   89.16176428
_cell_angle_gamma   116.05894469
_symmetry_Int_Tables_number   1
_chemical_formula_structural   LiMn3(O2F)2
_chemical_formula_sum   'Li1 Mn3 O4 F2'
_cell_volume   109.15616415
_cell_formula_units_Z   1
loop_
 _symmetry_equiv_pos_site_id
 _symmetry_equiv_pos_as_xyz
  1  'x, y, z'
loop_
 _atom_site_type_symbol
 _atom_site_label
 _atom_site_symmetry_multiplicity
 _atom_site_fract_x
 _atom_site_fract_y
 _atom_site_fract_z
 _atom_site_occupancy
  Li  Li0  1  0.06232900  0.84380300  0.37772900  1
  Mn  Mn0  1  0.85280700  0.15181400  0.55509600  1
  Mn  Mn1  1  0.68176600  0.35368600  0.96403200  1
  Mn  Mn2  1  0.34779600  0.66964800  0.03527000  1
  O  O0  1  0.61729600  0.06655900  0.81019200  1
  O  O1  1  0.70439000  0.51087800  0.24144800  1
  O  O2  1  0.05170000  0.27221500  0.23987300  1
  O  O3  1  0.97668500  0.77966400  0.75261800  1
  F  F0  1  0.27943200  0.43428200  0.74835900  1
  F  F1  1  0.42579900  0.91745000  0.27538100  1
loop_
_geom_bond_atom_site_label_1
_geom_bond_atom_site_label_2
_geom_bond_distance
_geom_bond_site_symmetry_2
Li0 O1 1.699407 1_455
Li0 O3 2.196638 1_455
Mn0 O0 1.866435 1_555
Mn0 O2 2.148269 1_655
Mn1 O0 1.238762 1_555
Mn1 O1 1.317551 1_556
F0 Mn2 1.399320 1_556
F0 Mn0 1.906831 1_455
F1 Mn2 1.255473 1_555
F1 Li0 1.792855 1_555
F1 Mn0 2.085874 1_565
