# generated using pymatgen
data_Al5Rh2
_symmetry_space_group_name_H-M   'P 1'
_cell_length_a   7.89879136
_cell_length_b   7.89878977
_cell_length_c   7.82916186
_cell_angle_alpha   90.00000000
_cell_angle_beta   90.00000000
_cell_angle_gamma   119.99999828
_symmetry_Int_Tables_number   1
_chemical_formula_structural   Al5Rh2
_chemical_formula_sum   'Al20 Rh8'
_cell_volume   423.02604653
_cell_formula_units_Z   4
loop_
 _symmetry_equiv_pos_site_id
 _symmetry_equiv_pos_as_xyz
  1  'x, y, z'
loop_
 _atom_site_type_symbol
 _atom_site_label
 _atom_site_symmetry_multiplicity
 _atom_site_fract_x
 _atom_site_fract_y
 _atom_site_fract_z
 _atom_site_occupancy
  Al  Al0  1  -0.00000000  -0.00000000  0.00000000  1
  Al  Al1  1  -0.00000000  -0.00000000  0.50000000  1
  Al  Al2  1  0.47180694  0.94361489  0.25000000  1
  Al  Al3  1  0.52819306  0.47180694  0.75000000  1
  Al  Al4  1  0.94361489  0.47180694  0.75000000  1
  Al  Al5  1  0.05638511  0.52819306  0.25000000  1
  Al  Al6  1  0.47180694  0.52819306  0.25000000  1
  Al  Al7  1  0.52819306  0.05638511  0.75000000  1
  Al  Al8  1  0.19190102  0.38380203  0.94015821  1
  Al  Al9  1  0.80809898  0.19190102  0.44015821  1
  Al  Al10  1  0.38380203  0.19190102  0.44015821  1
  Al  Al11  1  0.61619797  0.80809898  0.94015821  1
  Al  Al12  1  0.19190102  0.80809898  0.94015821  1
  Al  Al13  1  0.80809898  0.61619797  0.05984179  1
  Al  Al14  1  0.80809898  0.19190102  0.05984179  1
  Al  Al15  1  0.80809898  0.61619797  0.44015821  1
  Al  Al16  1  0.38380203  0.19190102  0.05984179  1
  Al  Al17  1  0.61619797  0.80809898  0.55984179  1
  Al  Al18  1  0.19190102  0.38380203  0.55984179  1
  Al  Al19  1  0.19190102  0.80809898  0.55984179  1
  Rh  Rh0  1  0.33333300  0.66666700  0.75000000  1
  Rh  Rh1  1  0.66666700  0.33333300  0.25000000  1
  Rh  Rh2  1  0.12975893  0.25951586  0.25000000  1
  Rh  Rh3  1  0.87024107  0.12975893  0.75000000  1
  Rh  Rh4  1  0.25951586  0.12975893  0.75000000  1
  Rh  Rh5  1  0.74048414  0.87024107  0.25000000  1
  Rh  Rh6  1  0.12975893  0.87024107  0.25000000  1
  Rh  Rh7  1  0.87024107  0.74048414  0.75000000  1
loop_
_geom_bond_atom_site_label_1
_geom_bond_atom_site_label_2
_geom_bond_distance
_geom_bond_site_symmetry_2
Al0 Rh2 2.642430 1_555
Al0 Rh7 2.642430 1_444
Al0 Rh4 2.642430 1_554
Al0 Rh5 2.642430 1_445
Al0 Rh3 2.642439 1_454
Al0 Rh6 2.642439 1_545
Al1 Rh2 2.642430 1_555
Al1 Rh7 2.642430 1_445
Al1 Rh4 2.642430 1_555
Al1 Rh5 2.642430 1_445
Al1 Rh3 2.642439 1_455
Al1 Rh6 2.642439 1_545
Al2 Rh6 2.463653 1_555
Al2 Rh5 2.463676 1_555
Al2 Rh1 2.665887 1_565
Al3 Rh4 2.463660 1_555
Al3 Rh7 2.463660 1_555
Al3 Rh0 2.665901 1_555
Al4 Rh3 2.463653 1_555
Al4 Rh7 2.463676 1_555
Al4 Rh0 2.665888 1_655
Al5 Rh6 2.463653 1_555
Al5 Rh2 2.463676 1_555
Al5 Rh1 2.665888 1_455
Al6 Rh5 2.463660 1_555
Al6 Rh2 2.463660 1_555
Al6 Rh1 2.665901 1_555
Al7 Rh3 2.463653 1_555
Al7 Rh4 2.463676 1_555
Al7 Rh0 2.665887 1_545
Al8 Rh0 2.441415 1_555
Al8 Rh2 2.570473 1_556
Al8 Rh4 2.756804 1_555
Al8 Rh3 2.756814 1_455
Al9 Rh1 2.441409 1_555
Al9 Rh3 2.570468 1_555
Al9 Rh5 2.756817 1_545
Al9 Rh2 2.756818 1_655
Al10 Rh1 2.441415 1_555
Al10 Rh4 2.570473 1_555
Al10 Rh2 2.756805 1_555
Al10 Rh6 2.756813 1_545
Al11 Rh0 2.441415 1_555
Al11 Rh5 2.570473 1_556
Al11 Rh7 2.756805 1_555
Al11 Rh3 2.756813 1_565
Al12 Rh0 2.441409 1_555
Al12 Rh6 2.570468 1_556
Al12 Rh4 2.756817 1_565
Al12 Rh7 2.756818 1_455
Al13 Rh1 2.441415 1_555
Al13 Rh7 2.570473 1_554
Al13 Rh5 2.756804 1_555
Al13 Rh6 2.756814 1_655
Al14 Rh1 2.441409 1_555
Al14 Rh3 2.570468 1_554
Al14 Rh5 2.756817 1_545
Al14 Rh2 2.756818 1_655
Al15 Rh1 2.441415 1_555
Al15 Rh7 2.570473 1_555
Al15 Rh5 2.756804 1_555
Al15 Rh6 2.756814 1_655
Al16 Rh1 2.441415 1_555
Al16 Rh4 2.570473 1_554
Al16 Rh2 2.756805 1_555
Al16 Rh6 2.756813 1_545
Al17 Rh0 2.441415 1_555
Al17 Rh5 2.570473 1_555
Al17 Rh7 2.756805 1_555
Al17 Rh3 2.756813 1_565
Al18 Rh0 2.441415 1_555
Al18 Rh2 2.570473 1_555
Al18 Rh4 2.756804 1_555
Al18 Rh3 2.756814 1_455
Al19 Rh0 2.441409 1_555
Al19 Rh6 2.570468 1_555
Al19 Rh4 2.756817 1_565
Al19 Rh7 2.756818 1_455
