# generated using pymatgen
data_SbCN2OF3
_symmetry_space_group_name_H-M   'P 1'
_cell_length_a   8.31181600
_cell_length_b   9.66038800
_cell_length_c   7.52637300
_cell_angle_alpha   90.00000000
_cell_angle_beta   90.00000000
_cell_angle_gamma   90.00000000
_symmetry_Int_Tables_number   1
_chemical_formula_structural   SbCN2OF3
_chemical_formula_sum   'Sb4 C4 N8 O4 F12'
_cell_volume   604.33288631
_cell_formula_units_Z   4
loop_
 _symmetry_equiv_pos_site_id
 _symmetry_equiv_pos_as_xyz
  1  'x, y, z'
loop_
 _atom_site_type_symbol
 _atom_site_label
 _atom_site_symmetry_multiplicity
 _atom_site_fract_x
 _atom_site_fract_y
 _atom_site_fract_z
 _atom_site_occupancy
  Sb  Sb0  1  0.90608700  0.89216400  0.51308400  1
  Sb  Sb1  1  0.09391300  0.10783600  0.01308400  1
  Sb  Sb2  1  0.59391300  0.89216400  0.01308400  1
  Sb  Sb3  1  0.40608700  0.10783600  0.51308400  1
  C  C0  1  0.04530400  0.71505800  0.12850500  1
  C  C1  1  0.95469600  0.28494200  0.62850500  1
  C  C2  1  0.45469600  0.71505800  0.62850500  1
  C  C3  1  0.54530400  0.28494200  0.12850500  1
  N  N0  1  0.63059100  0.40311400  0.17078500  1
  N  N1  1  0.36940900  0.59688600  0.67078600  1
  N  N2  1  0.86940900  0.40311400  0.67078600  1
  N  N3  1  0.13059100  0.59688600  0.17078500  1
  N  N4  1  0.54776200  0.40013200  0.01994900  1
  N  N5  1  0.45223800  0.59986800  0.51994900  1
  N  N6  1  0.95223800  0.40013200  0.51994900  1
  N  N7  1  0.04776200  0.59986800  0.01994900  1
  O  O0  1  0.99948800  0.16884400  0.66290500  1
  O  O1  1  0.00051200  0.83115600  0.16290500  1
  O  O2  1  0.50051200  0.16884400  0.16290500  1
  O  O3  1  0.49948800  0.83115600  0.66290500  1
  F  F0  1  0.13228200  0.30426600  0.98315100  1
  F  F1  1  0.86771800  0.69573400  0.48315100  1
  F  F2  1  0.36771800  0.30426600  0.48315100  1
  F  F3  1  0.63228200  0.69573400  0.98315100  1
  F  F4  1  0.85577900  0.87826200  0.76931000  1
  F  F5  1  0.14422100  0.12173800  0.26931000  1
  F  F6  1  0.64422100  0.87826200  0.26931000  1
  F  F7  1  0.35577900  0.12173800  0.76931000  1
  F  F8  1  0.63254400  0.14307400  0.56931100  1
  F  F9  1  0.36745600  0.85692600  0.06931100  1
  F  F10  1  0.86745600  0.14307400  0.06931100  1
  F  F11  1  0.13254400  0.85692600  0.56931100  1
loop_
_geom_bond_atom_site_label_1
_geom_bond_atom_site_label_2
_geom_bond_distance
_geom_bond_site_symmetry_2
C0 O1 1.209761 1_555
C0 N7 1.380666 1_555
C0 N3 1.380944 1_555
C1 O0 1.209761 1_555
C1 N6 1.380666 1_555
C1 N2 1.380946 1_555
C2 O3 1.209761 1_555
C2 N5 1.380666 1_555
C2 N1 1.380946 1_555
C3 O2 1.209761 1_555
C3 N4 1.380666 1_555
C3 N0 1.380944 1_555
N0 N4 1.328004 1_555
N1 N5 1.328010 1_555
N2 N6 1.328010 1_555
N3 N7 1.328004 1_555
F0 Sb1 1.937346 1_556
F1 Sb0 1.937346 1_555
F2 Sb3 1.937346 1_555
F3 Sb2 1.937346 1_556
F4 Sb0 1.977831 1_555
F5 Sb1 1.977831 1_555
F6 Sb2 1.977831 1_555
F7 Sb3 1.977831 1_555
F8 Sb3 1.959057 1_555
F9 Sb2 1.959057 1_555
F10 Sb1 1.959057 1_655
F11 Sb0 1.959057 1_455
