# generated using pymatgen
data_TmZnGa
_symmetry_space_group_name_H-M   'P 1'
_cell_length_a   4.32963942
_cell_length_b   4.32963942
_cell_length_c   7.07281591
_cell_angle_alpha   90.00000000
_cell_angle_beta   90.00000000
_cell_angle_gamma   120.00000894
_symmetry_Int_Tables_number   1
_chemical_formula_structural   TmZnGa
_chemical_formula_sum   'Tm2 Zn2 Ga2'
_cell_volume   114.82234341
_cell_formula_units_Z   2
loop_
 _symmetry_equiv_pos_site_id
 _symmetry_equiv_pos_as_xyz
  1  'x, y, z'
loop_
 _atom_site_type_symbol
 _atom_site_label
 _atom_site_symmetry_multiplicity
 _atom_site_fract_x
 _atom_site_fract_y
 _atom_site_fract_z
 _atom_site_occupancy
  Tm  Tm0  1  0.00000000  -0.00000000  0.50000000  1
  Tm  Tm1  1  0.00000000  -0.00000000  0.00000000  1
  Zn  Zn0  1  0.33333300  0.66666700  0.75000000  1
  Zn  Zn1  1  0.66666700  0.33333300  0.25000000  1
  Ga  Ga0  1  0.33333300  0.66666700  0.25000000  1
  Ga  Ga1  1  0.66666700  0.33333300  0.75000000  1
loop_
_geom_bond_atom_site_label_1
_geom_bond_atom_site_label_2
_geom_bond_distance
_geom_bond_site_symmetry_2
Tm0 Zn0 3.061883 1_545
Tm0 Zn1 3.061883 1_455
Tm0 Zn0 3.061886 1_445
Tm0 Zn0 3.061886 1_555
Tm0 Zn1 3.061886 1_445
Tm0 Zn1 3.061886 1_555
Tm1 Zn1 3.061883 1_455
Tm1 Zn0 3.061883 1_544
Tm1 Zn0 3.061886 1_554
Tm1 Zn0 3.061886 1_444
Tm1 Zn1 3.061886 1_445
Tm1 Zn1 3.061886 1_555
Ga0 Zn1 2.499716 1_455
Ga0 Zn1 2.499716 1_565
Ga0 Zn1 2.499724 1_555
Ga0 Tm0 3.061883 1_565
Ga0 Tm1 3.061883 1_565
Ga0 Tm1 3.061886 1_555
Ga0 Tm0 3.061886 1_665
Ga0 Tm1 3.061886 1_665
Ga0 Tm0 3.061886 1_555
Ga1 Zn0 2.499716 1_545
Ga1 Zn0 2.499716 1_655
Ga1 Zn0 2.499724 1_555
Ga1 Tm0 3.061883 1_655
Ga1 Tm1 3.061883 1_656
Ga1 Tm0 3.061886 1_665
Ga1 Tm0 3.061886 1_555
Ga1 Tm1 3.061886 1_666
Ga1 Tm1 3.061886 1_556
