# generated using pymatgen
data_KB6H2OF6
_symmetry_space_group_name_H-M   'P 1'
_cell_length_a   7.52001279
_cell_length_b   9.50049388
_cell_length_c   11.65998500
_cell_angle_alpha   90.00000000
_cell_angle_beta   90.00000000
_cell_angle_gamma   104.11446095
_symmetry_Int_Tables_number   1
_chemical_formula_structural   KB6H2OF6
_chemical_formula_sum   'K4 B24 H8 O4 F24'
_cell_volume   807.88516669
_cell_formula_units_Z   4
loop_
 _symmetry_equiv_pos_site_id
 _symmetry_equiv_pos_as_xyz
  1  'x, y, z'
loop_
 _atom_site_type_symbol
 _atom_site_label
 _atom_site_symmetry_multiplicity
 _atom_site_fract_x
 _atom_site_fract_y
 _atom_site_fract_z
 _atom_site_occupancy
  K  K0  1  0.87380800  0.06083200  0.65533400  1
  K  K1  1  0.12619200  0.43916800  0.15533400  1
  K  K2  1  0.12619200  0.93916800  0.34466600  1
  K  K3  1  0.87380800  0.56083200  0.84466600  1
  B  B0  1  0.61718600  0.13734900  0.91627500  1
  B  B1  1  0.38281400  0.36265100  0.41627500  1
  B  B2  1  0.38281400  0.86265100  0.08372500  1
  B  B3  1  0.61718600  0.63734900  0.58372500  1
  B  B4  1  0.70173600  0.98037900  0.94478300  1
  B  B5  1  0.29826400  0.51962100  0.44478300  1
  B  B6  1  0.29826400  0.01962100  0.05521700  1
  B  B7  1  0.70173600  0.48037900  0.55521700  1
  B  B8  1  0.69562500  0.10834000  0.05764300  1
  B  B9  1  0.30437500  0.39166000  0.55764300  1
  B  B10  1  0.30437500  0.89166000  0.94235700  1
  B  B11  1  0.69562500  0.60834000  0.44235700  1
  B  B12  1  0.49048000  0.17171500  0.03827600  1
  B  B13  1  0.50952000  0.32828500  0.53827600  1
  B  B14  1  0.50952000  0.82828500  0.96172400  1
  B  B15  1  0.49048000  0.67171500  0.46172400  1
  B  B16  1  0.36968500  0.08390600  0.91411700  1
  B  B17  1  0.63031500  0.41609400  0.41411700  1
  B  B18  1  0.63031500  0.91609400  0.08588300  1
  B  B19  1  0.36968500  0.58390600  0.58588300  1
  B  B20  1  0.50174700  0.96610000  0.85711300  1
  B  B21  1  0.49825300  0.53390000  0.35711300  1
  B  B22  1  0.49825300  0.03390000  0.14288700  1
  B  B23  1  0.50174700  0.46610000  0.64288700  1
  H  H0  1  0.28365700  0.00607900  0.60749400  1
  H  H1  1  0.71634300  0.49392100  0.10749400  1
  H  H2  1  0.71634300  0.99392100  0.39250600  1
  H  H3  1  0.28365700  0.50607900  0.89250600  1
  H  H4  1  0.17645600  0.84588800  0.61624800  1
  H  H5  1  0.82354400  0.65411200  0.11624800  1
  H  H6  1  0.82354400  0.15411200  0.38375200  1
  H  H7  1  0.17645600  0.34588800  0.88375200  1
  O  O0  1  0.16616500  0.93986800  0.58731100  1
  O  O1  1  0.83383500  0.56013200  0.08731100  1
  O  O2  1  0.83383500  0.06013200  0.41268900  1
  O  O3  1  0.16616500  0.43986800  0.91268900  1
  F  F0  1  0.72222600  0.24504400  0.84509600  1
  F  F1  1  0.27777400  0.25495600  0.34509600  1
  F  F2  1  0.27777400  0.75495600  0.15490400  1
  F  F3  1  0.72222600  0.74504400  0.65490400  1
  F  F4  1  0.86272200  0.96650900  0.89147600  1
  F  F5  1  0.13727800  0.53349100  0.39147600  1
  F  F6  1  0.13727800  0.03349100  0.10852400  1
  F  F7  1  0.86272200  0.46650900  0.60852400  1
  F  F8  1  0.85298600  0.20045100  0.10356900  1
  F  F9  1  0.14701400  0.29954900  0.60356900  1
  F  F10  1  0.14701400  0.79954900  0.89643100  1
  F  F11  1  0.85298600  0.70045100  0.39643100  1
  F  F12  1  0.48221400  0.31181700  0.07030800  1
  F  F13  1  0.51778600  0.18818300  0.57030800  1
  F  F14  1  0.51778600  0.68818300  0.92969200  1
  F  F15  1  0.48221400  0.81181700  0.42969200  1
  F  F16  1  0.26474900  0.15186400  0.84440700  1
  F  F17  1  0.73525100  0.34813600  0.34440700  1
  F  F18  1  0.73525100  0.84813600  0.15559300  1
  F  F19  1  0.26474900  0.65186400  0.65559300  1
  F  F20  1  0.51310600  0.94332700  0.73923400  1
  F  F21  1  0.48689400  0.55667300  0.23923400  1
  F  F22  1  0.48689400  0.05667300  0.26076600  1
  F  F23  1  0.51310600  0.44332700  0.76076600  1
loop_
_geom_bond_atom_site_label_1
_geom_bond_atom_site_label_2
_geom_bond_distance
_geom_bond_site_symmetry_2
K0 O0 2.831179 1_645
K0 O2 2.844997 1_555
K1 O1 2.831179 1_455
K1 O3 2.844997 1_554
K2 O2 2.831179 1_465
K2 O0 2.844997 1_555
K3 O3 2.831179 1_655
K3 O1 2.844997 1_556
B0 F0 1.401939 1_555
B1 F1 1.401939 1_555
B2 F2 1.401939 1_555
B3 F3 1.401939 1_555
B4 F4 1.395384 1_555
B5 F5 1.395384 1_555
B6 F6 1.395384 1_555
B7 F7 1.395384 1_555
B8 F8 1.395646 1_555
B9 F9 1.395646 1_555
B10 F10 1.395646 1_555
B11 F11 1.395646 1_555
B12 F12 1.398348 1_555
B13 F13 1.398348 1_555
B14 F14 1.398348 1_555
B15 F15 1.398348 1_555
B16 F16 1.395963 1_555
B17 F17 1.395963 1_555
B18 F18 1.395963 1_555
B19 F19 1.395963 1_555
B20 F20 1.397240 1_555
B21 F21 1.397240 1_555
B22 F22 1.397240 1_555
B23 F23 1.397240 1_555
H0 O0 0.980128 1_545
H1 O1 0.980128 1_555
H2 O2 0.980128 1_565
H3 O3 0.980128 1_555
H4 O0 0.975051 1_555
H5 O1 0.975051 1_555
H6 O2 0.975051 1_555
H7 O3 0.975051 1_555
F0 K3 2.938080 1_555
F0 K0 3.198579 1_555
F1 K2 2.938080 1_545
F1 K1 3.198579 1_555
F2 K1 2.938080 1_555
F2 K2 3.198579 1_555
F3 K0 2.938080 1_565
F3 K3 3.198579 1_555
F4 K0 2.890470 1_565
F5 K1 2.890470 1_555
F6 K2 2.890470 1_545
F7 K3 2.890470 1_555
F8 K1 2.730624 1_655
F9 K0 2.730624 1_455
F10 K3 2.730624 1_455
F11 K2 2.730624 1_655
F20 K0 2.843233 1_565
F21 K1 2.843233 1_555
F22 K2 2.843233 1_545
F23 K3 2.843233 1_555
