# generated using pymatgen
data_Bi14Pb4Cl8O21
_symmetry_space_group_name_H-M   'P 1'
_cell_length_a   15.22440239
_cell_length_b   15.22440239
_cell_length_c   19.53273699
_cell_angle_alpha   55.00897637
_cell_angle_beta   55.00897637
_cell_angle_gamma   15.09109652
_symmetry_Int_Tables_number   1
_chemical_formula_structural   Bi14Pb4Cl8O21
_chemical_formula_sum   'Bi14 Pb4 Cl8 O21'
_cell_volume   961.49260210
_cell_formula_units_Z   1
loop_
 _symmetry_equiv_pos_site_id
 _symmetry_equiv_pos_as_xyz
  1  'x, y, z'
loop_
 _atom_site_type_symbol
 _atom_site_label
 _atom_site_symmetry_multiplicity
 _atom_site_fract_x
 _atom_site_fract_y
 _atom_site_fract_z
 _atom_site_occupancy
  Bi  Bi0  1  0.51081900  0.51081900  0.23876300  1
  Bi  Bi1  1  0.50015300  0.50015300  0.74611600  1
  Bi  Bi2  1  0.59132000  0.59132000  0.34374700  1
  Bi  Bi3  1  0.41114300  0.41114300  0.65115400  1
  Bi  Bi4  1  0.43514600  0.43514600  0.12376900  1
  Bi  Bi5  1  0.56284600  0.56284600  0.88137900  1
  Bi  Bi6  1  0.72885800  0.72885800  0.09653200  1
  Bi  Bi7  1  0.27301300  0.27301300  0.90362300  1
  Bi  Bi8  1  0.64674700  0.64674700  0.99084400  1
  Bi  Bi9  1  0.35537000  0.35537000  0.00953500  1
  Bi  Bi10  1  0.88555400  0.88555400  0.32991800  1
  Bi  Bi11  1  0.11851900  0.11851900  0.64322800  1
  Bi  Bi12  1  0.81077300  0.81077300  0.20367500  1
  Bi  Bi13  1  0.18878500  0.18878500  0.79980200  1
  Pb  Pb0  1  0.96068400  0.96068400  0.44705700  1
  Pb  Pb1  1  0.04306100  0.04306100  0.55098500  1
  Pb  Pb2  1  0.67649100  0.67649100  0.43639500  1
  Pb  Pb3  1  0.32598600  0.32598600  0.55018300  1
  Cl  Cl0  1  0.21268100  0.21268100  0.23183100  1
  Cl  Cl1  1  0.78959000  0.78959000  0.77125300  1
  Cl  Cl2  1  0.04107200  0.04107200  0.05854300  1
  Cl  Cl3  1  0.94859300  0.94859300  0.96554500  1
  Cl  Cl4  1  0.13029700  0.13029700  0.13874600  1
  Cl  Cl5  1  0.86508800  0.86508800  0.87053800  1
  Cl  Cl6  1  0.29563600  0.29563600  0.32672100  1
  Cl  Cl7  1  0.71650700  0.71650700  0.66335300  1
  O  O0  1  0.59761900  0.59761900  0.44675900  1
  O  O1  1  0.39941400  0.39941400  0.54658600  1
  O  O2  1  0.89260800  0.89260800  0.17996700  1
  O  O3  1  0.10666200  0.10666200  0.83537300  1
  O  O4  1  0.81193900  0.81193900  0.07622500  1
  O  O5  1  0.18828100  0.18828100  0.92829300  1
  O  O6  1  0.35157900  0.35157900  0.12981900  1
  O  O7  1  0.65267000  0.65267000  0.87202200  1
  O  O8  1  0.51416300  0.51416300  0.34440500  1
  O  O9  1  0.48467800  0.48467800  0.64578500  1
  O  O10  1  0.43182800  0.43182800  0.23706600  1
  O  O11  1  0.56494200  0.56494200  0.77595800  1
  O  O12  1  0.05331500  0.05331500  0.39894700  1
  O  O13  1  0.94595700  0.94595700  0.58900700  1
  O  O14  1  0.96956200  0.96956200  0.28901500  1
  O  O15  1  0.03071900  0.03071900  0.70196500  1
  O  O16  1  0.72989200  0.72989200  0.97534700  1
  O  O17  1  0.27003100  0.27003100  0.02770900  1
  O  O18  1  0.59059000  0.59059000  0.62367800  1
  O  O19  1  0.37379100  0.37379100  0.41011200  1
  O  O20  1  0.15902800  0.15902800  0.50672800  1
loop_
_geom_bond_atom_site_label_1
_geom_bond_atom_site_label_2
_geom_bond_distance
_geom_bond_site_symmetry_2
Bi0 O8 2.123463 1_555
Bi0 O14 2.257629 1_455
Bi0 O14 2.257629 1_545
Bi0 O10 2.403681 1_555
Bi1 O15 2.161291 1_655
Bi1 O15 2.161291 1_565
Bi1 O9 2.262264 1_555
Bi1 O11 2.341627 1_555
Bi1 O18 2.370359 1_555
Bi2 O0 2.127752 1_555
Bi2 O12 2.245953 1_565
Bi2 O12 2.245953 1_655
Bi2 O8 2.321584 1_555
Bi3 O9 2.160695 1_555
Bi3 O13 2.258050 1_455
Bi3 O13 2.258050 1_545
Bi3 O1 2.265777 1_555
Bi4 O10 2.156614 1_555
Bi4 O2 2.284675 1_455
Bi4 O2 2.284675 1_545
Bi4 O6 2.456016 1_555
Bi5 O11 2.023221 1_555
Bi5 O3 2.275631 1_565
Bi5 O3 2.275631 1_655
Bi5 O7 2.609888 1_555
Bi6 O4 2.301225 1_555
Bi6 O17 2.327141 1_655
Bi6 O17 2.327141 1_565
Bi6 O16 2.349158 1_554
Bi6 Cl0 3.118715 1_565
Bi6 Cl0 3.118715 1_655
Bi7 O5 2.312555 1_555
Bi7 O16 2.354566 1_545
Bi7 O16 2.354566 1_455
Bi7 O17 2.372807 1_556
Bi7 Cl1 3.071711 1_455
Bi7 Cl1 3.071711 1_545
Bi7 Cl5 3.171895 1_545
Bi7 Cl5 3.171895 1_455
Bi8 O7 2.222289 1_555
Bi8 O5 2.299818 1_565
Bi8 O5 2.299818 1_655
Bi8 O16 2.347666 1_555
Bi9 O6 2.285189 1_555
Bi9 O4 2.331642 1_545
Bi9 O4 2.331642 1_455
Bi9 O17 2.388244 1_555
Bi9 Cl3 3.139438 1_544
Bi9 Cl3 3.139438 1_454
Bi9 Cl5 3.245393 1_454
Bi9 Cl5 3.245393 1_544
Bi10 O14 2.173637 1_555
Bi10 O19 2.435772 1_655
Bi10 O19 2.435772 1_565
Bi10 O10 2.511232 1_565
Bi10 O10 2.511232 1_655
Bi10 O2 2.811156 1_555
Bi11 O15 2.195996 1_555
Bi11 O20 2.198215 1_555
Bi11 O18 2.285981 1_545
Bi11 O18 2.285981 1_455
Bi12 O2 2.234488 1_555
Bi12 O6 2.353569 1_655
Bi12 O6 2.353569 1_565
Bi12 O4 2.469255 1_555
Bi12 Cl6 2.951521 1_565
Bi12 Cl6 2.951521 1_655
Bi13 O3 2.152922 1_555
Bi13 O7 2.322921 1_545
Bi13 O7 2.322921 1_455
Bi13 O5 2.501011 1_555
Bi13 Cl7 3.036473 1_545
Bi13 Cl7 3.036473 1_455
O0 Pb2 2.269676 1_555
O0 Pb1 2.640951 1_565
O0 Pb1 2.640951 1_655
O1 Pb3 2.176547 1_555
O1 Pb0 2.652727 1_455
O1 Pb0 2.652727 1_545
O8 Pb0 2.622651 1_455
O8 Pb0 2.622651 1_545
O9 Pb1 2.599216 1_655
O9 Pb1 2.599216 1_565
O12 Pb0 2.379350 1_445
O12 Pb1 2.802073 1_555
O13 Pb0 2.541528 1_555
O13 Pb1 2.573805 1_665
O15 Pb1 2.750391 1_555
O19 Pb3 2.236130 1_555
O20 Pb2 2.307404 1_545
O20 Pb2 2.307404 1_455
