# generated using pymatgen
data_MgCo2S5
_symmetry_space_group_name_H-M   'P 1'
_cell_length_a   3.60824600
_cell_length_b   6.37390400
_cell_length_c   13.25670000
_cell_angle_alpha   90.00000000
_cell_angle_beta   90.00000000
_cell_angle_gamma   90.00000000
_symmetry_Int_Tables_number   1
_chemical_formula_structural   MgCo2S5
_chemical_formula_sum   'Mg2 Co4 S10'
_cell_volume   304.88572108
_cell_formula_units_Z   2
loop_
 _symmetry_equiv_pos_site_id
 _symmetry_equiv_pos_as_xyz
  1  'x, y, z'
loop_
 _atom_site_type_symbol
 _atom_site_label
 _atom_site_symmetry_multiplicity
 _atom_site_fract_x
 _atom_site_fract_y
 _atom_site_fract_z
 _atom_site_occupancy
  Mg  Mg0  1  0.50000000  0.11373400  0.00000000  1
  Mg  Mg1  1  0.00000000  0.88626600  0.50000000  1
  Co  Co0  1  0.00000000  0.54447400  0.85134700  1
  Co  Co1  1  0.50000000  0.45552600  0.64865300  1
  Co  Co2  1  0.50000000  0.45552600  0.35134700  1
  Co  Co3  1  0.00000000  0.54447400  0.14865300  1
  S  S0  1  0.50000000  0.61858100  0.50000000  1
  S  S1  1  0.00000000  0.38141900  0.00000000  1
  S  S2  1  0.50000000  0.36053800  0.80777100  1
  S  S3  1  0.00000000  0.63946200  0.69222900  1
  S  S4  1  0.50000000  0.36053800  0.19222900  1
  S  S5  1  0.00000000  0.63946200  0.30777100  1
  S  S6  1  0.00000000  0.85230700  0.08098200  1
  S  S7  1  0.50000000  0.14769300  0.41901800  1
  S  S8  1  0.50000000  0.14769300  0.58098200  1
  S  S9  1  0.00000000  0.85230700  0.91901800  1
loop_
_geom_bond_atom_site_label_1
_geom_bond_atom_site_label_2
_geom_bond_distance
_geom_bond_site_symmetry_2
Mg0 S1 2.483138 1_555
Mg0 S1 2.483138 1_655
Mg0 S9 2.680293 1_644
Mg0 S6 2.680293 1_645
Mg0 S6 2.680293 1_545
Mg0 S9 2.680293 1_544
Mg0 S2 2.994763 1_554
Mg0 S4 2.994763 1_555
Mg1 S0 2.483138 1_555
Mg1 S0 2.483138 1_455
Mg1 S7 2.680293 1_465
Mg1 S8 2.680293 1_465
Mg1 S8 2.680293 1_565
Mg1 S7 2.680293 1_565
Mg1 S3 2.994763 1_555
Mg1 S5 2.994763 1_555
Co0 S9 2.157454 1_555
Co0 S3 2.194549 1_555
Co0 S2 2.227794 1_555
Co0 S2 2.227794 1_455
Co0 S1 2.227912 1_556
Co1 S8 2.157454 1_555
Co1 S2 2.194549 1_555
Co1 S3 2.227794 1_655
Co1 S3 2.227794 1_555
Co1 S0 2.227912 1_555
Co2 S7 2.157454 1_555
Co2 S4 2.194549 1_555
Co2 S5 2.227794 1_555
Co2 S5 2.227794 1_655
Co2 S0 2.227912 1_555
Co3 S6 2.157454 1_555
Co3 S5 2.194549 1_555
Co3 S4 2.227794 1_455
Co3 S4 2.227794 1_555
Co3 S1 2.227912 1_555
S6 S9 2.147108 1_554
S7 S8 2.147108 1_555
