# generated using pymatgen
data_Cs2Hg3I8O
_symmetry_space_group_name_H-M   'P 1'
_cell_length_a   11.87365582
_cell_length_b   11.87365582
_cell_length_c   7.96269389
_cell_angle_alpha   84.25279653
_cell_angle_beta   84.25279653
_cell_angle_gamma   142.83972128
_symmetry_Int_Tables_number   1
_chemical_formula_structural   Cs2Hg3I8O
_chemical_formula_sum   'Cs2 Hg3 I8 O1'
_cell_volume   643.74926283
_cell_formula_units_Z   1
loop_
 _symmetry_equiv_pos_site_id
 _symmetry_equiv_pos_as_xyz
  1  'x, y, z'
loop_
 _atom_site_type_symbol
 _atom_site_label
 _atom_site_symmetry_multiplicity
 _atom_site_fract_x
 _atom_site_fract_y
 _atom_site_fract_z
 _atom_site_occupancy
  Cs  Cs0  1  0.36898900  0.12441900  0.43841900  1
  Cs  Cs1  1  0.12441900  0.36898900  0.43841900  1
  Hg  Hg0  1  0.07864900  0.69031400  0.07225000  1
  Hg  Hg1  1  0.69031400  0.07864900  0.07225000  1
  Hg  Hg2  1  0.99197200  0.99197200  0.99958600  1
  I  I0  1  0.35086900  0.35086900  0.76772700  1
  I  I1  1  0.87764600  0.87764600  0.36522900  1
  I  I2  1  0.47915800  0.09209300  0.93786100  1
  I  I3  1  0.09209300  0.47915800  0.93786100  1
  I  I4  1  0.93421000  0.54404400  0.43756000  1
  I  I5  1  0.54404400  0.93421000  0.43756000  1
  I  I6  1  0.88708300  0.69128600  0.88888100  1
  I  I7  1  0.69128600  0.88708300  0.88888100  1
  O  O0  1  0.43429900  0.43429900  0.24141600  1
loop_
_geom_bond_atom_site_label_1
_geom_bond_atom_site_label_2
_geom_bond_distance
_geom_bond_site_symmetry_2
Cs0 O0 3.263851 1_555
Cs0 I0 4.046336 1_555
Cs0 I4 4.068431 1_555
Cs0 I1 4.091149 1_445
Cs0 I5 4.111404 1_545
Cs0 I6 4.164928 1_445
Cs0 I4 4.177594 1_445
Cs0 I2 4.219887 1_554
Cs0 I2 4.383001 1_555
Cs1 O0 3.263851 1_555
Cs1 I0 4.046336 1_555
Cs1 I5 4.068431 1_555
Cs1 I1 4.091149 1_445
Cs1 I4 4.111404 1_455
Cs1 I7 4.164928 1_445
Cs1 I5 4.177594 1_445
Cs1 I3 4.219887 1_554
Cs1 I3 4.383001 1_555
Hg0 I4 2.767770 1_455
Hg0 I6 2.830095 1_454
Hg0 I2 2.883883 1_564
Hg0 I3 2.932175 1_554
Hg1 I5 2.767770 1_545
Hg1 I7 2.830095 1_544
Hg1 I3 2.883883 1_654
Hg1 I2 2.932175 1_554
Hg2 I0 2.762576 1_665
Hg2 I1 2.764429 1_556
Hg2 I7 2.972840 1_555
Hg2 I6 2.972840 1_555
