# generated using pymatgen
data_Te2Mo(WSe2)3
_symmetry_space_group_name_H-M   'P 1'
_cell_length_a   3.38166269
_cell_length_b   3.38166269
_cell_length_c   38.52948100
_cell_angle_alpha   90.00000000
_cell_angle_beta   90.00000000
_cell_angle_gamma   120.00001357
_symmetry_Int_Tables_number   1
_chemical_formula_structural   Te2Mo(WSe2)3
_chemical_formula_sum   'Te2 Mo1 W3 Se6'
_cell_volume   381.57885822
_cell_formula_units_Z   1
loop_
 _symmetry_equiv_pos_site_id
 _symmetry_equiv_pos_as_xyz
  1  'x, y, z'
loop_
 _atom_site_type_symbol
 _atom_site_label
 _atom_site_symmetry_multiplicity
 _atom_site_fract_x
 _atom_site_fract_y
 _atom_site_fract_z
 _atom_site_occupancy
  Te  Te0  1  0.00000000  0.00000000  0.33085000  1
  Te  Te1  1  0.00000000  0.00000000  0.23275300  1
  Mo  Mo0  1  0.00000000  0.00000000  0.09391100  1
  W  W0  1  0.00000000  0.00000000  0.46966400  1
  W  W1  1  0.33333300  0.66666700  0.28179200  1
  W  W2  1  0.33333300  0.66666700  0.65752300  1
  Se  Se0  1  0.00000000  0.00000000  0.70064700  1
  Se  Se1  1  0.33333300  0.66666700  0.05096400  1
  Se  Se2  1  0.33333300  0.66666700  0.42657000  1
  Se  Se3  1  0.33333300  0.66666700  0.13687500  1
  Se  Se4  1  0.33333300  0.66666700  0.51279000  1
  Se  Se5  1  0.00000000  0.00000000  0.61440900  1
loop_
_geom_bond_atom_site_label_1
_geom_bond_atom_site_label_2
_geom_bond_distance
_geom_bond_site_symmetry_2
Te0 W1 2.717472 1_545
Te0 W1 2.717473 1_445
Te0 W1 2.717473 1_555
Te1 W1 2.716962 1_545
Te1 W1 2.716964 1_555
Te1 W1 2.716964 1_445
Mo0 Se1 2.559295 1_545
Mo0 Se1 2.559297 1_445
Mo0 Se1 2.559297 1_555
Mo0 Se3 2.559718 1_545
Mo0 Se3 2.559720 1_555
Mo0 Se3 2.559720 1_445
Se0 W2 2.563710 1_545
Se0 W2 2.563711 1_445
Se0 W2 2.563711 1_555
Se2 W0 2.562961 1_565
Se2 W0 2.562962 1_555
Se2 W0 2.562962 1_665
Se4 W0 2.563759 1_565
Se4 W0 2.563761 1_665
Se4 W0 2.563761 1_555
Se5 W2 2.563460 1_545
Se5 W2 2.563462 1_555
Se5 W2 2.563462 1_445
