# generated using pymatgen
data_Sc5Ga3
_symmetry_space_group_name_H-M   'P 1'
_cell_length_a   8.09218469
_cell_length_b   8.09218446
_cell_length_c   5.94786616
_cell_angle_alpha   90.00000000
_cell_angle_beta   90.00000000
_cell_angle_gamma   120.00000096
_symmetry_Int_Tables_number   1
_chemical_formula_structural   Sc5Ga3
_chemical_formula_sum   'Sc10 Ga6'
_cell_volume   337.30546309
_cell_formula_units_Z   2
loop_
 _symmetry_equiv_pos_site_id
 _symmetry_equiv_pos_as_xyz
  1  'x, y, z'
loop_
 _atom_site_type_symbol
 _atom_site_label
 _atom_site_symmetry_multiplicity
 _atom_site_fract_x
 _atom_site_fract_y
 _atom_site_fract_z
 _atom_site_occupancy
  Sc  Sc0  1  0.33333300  0.66666700  0.00000000  1
  Sc  Sc1  1  0.66666700  0.33333300  0.50000000  1
  Sc  Sc2  1  0.66666700  0.33333300  0.00000000  1
  Sc  Sc3  1  0.33333300  0.66666700  0.50000000  1
  Sc  Sc4  1  0.24471841  0.00000000  0.25000000  1
  Sc  Sc5  1  0.24471841  0.24471841  0.75000000  1
  Sc  Sc6  1  0.00000000  0.75528159  0.75000000  1
  Sc  Sc7  1  -0.00000000  0.24471841  0.25000000  1
  Sc  Sc8  1  0.75528159  0.75528159  0.25000000  1
  Sc  Sc9  1  0.75528159  0.00000000  0.75000000  1
  Ga  Ga0  1  0.60299270  0.00000000  0.25000000  1
  Ga  Ga1  1  0.60299270  0.60299270  0.75000000  1
  Ga  Ga2  1  0.00000000  0.39700730  0.75000000  1
  Ga  Ga3  1  -0.00000000  0.60299270  0.25000000  1
  Ga  Ga4  1  0.39700730  0.39700730  0.25000000  1
  Ga  Ga5  1  0.39700730  0.00000000  0.75000000  1
loop_
_geom_bond_atom_site_label_1
_geom_bond_atom_site_label_2
_geom_bond_distance
_geom_bond_site_symmetry_2
Ga0 Sc7 2.807264 1_655
Ga0 Sc8 2.807264 1_545
Ga0 Sc2 2.891820 1_555
Ga0 Sc1 2.891820 1_555
Ga0 Sc3 2.891822 1_545
Ga0 Sc0 2.891822 1_545
Ga0 Sc4 2.899222 1_555
Ga0 Sc9 3.219156 1_555
Ga0 Sc9 3.219156 1_554
Ga1 Sc9 2.807264 1_565
Ga1 Sc6 2.807264 1_655
Ga1 Sc1 2.891827 1_555
Ga1 Sc2 2.891827 1_556
Ga1 Sc0 2.891827 1_556
Ga1 Sc3 2.891827 1_555
Ga1 Sc5 2.899222 1_555
Ga1 Sc8 3.219156 1_555
Ga1 Sc8 3.219156 1_556
Ga2 Sc9 2.807264 1_455
Ga2 Sc5 2.807264 1_555
Ga2 Sc1 2.891820 1_455
Ga2 Sc2 2.891820 1_456
Ga2 Sc0 2.891822 1_556
Ga2 Sc3 2.891822 1_555
Ga2 Sc6 2.899222 1_555
Ga2 Sc7 3.219156 1_555
Ga2 Sc7 3.219156 1_556
Ga3 Sc4 2.807264 1_565
Ga3 Sc8 2.807264 1_455
Ga3 Sc0 2.891820 1_555
Ga3 Sc3 2.891820 1_555
Ga3 Sc2 2.891822 1_455
Ga3 Sc1 2.891822 1_455
Ga3 Sc7 2.899222 1_555
Ga3 Sc6 3.219156 1_554
Ga3 Sc6 3.219156 1_555
Ga4 Sc4 2.807264 1_555
Ga4 Sc7 2.807264 1_555
Ga4 Sc3 2.891827 1_555
Ga4 Sc0 2.891827 1_555
Ga4 Sc2 2.891827 1_555
Ga4 Sc1 2.891827 1_555
Ga4 Sc8 2.899222 1_555
Ga4 Sc5 3.219156 1_555
Ga4 Sc5 3.219156 1_554
Ga5 Sc6 2.807264 1_545
Ga5 Sc5 2.807264 1_555
Ga5 Sc3 2.891820 1_545
Ga5 Sc0 2.891820 1_546
Ga5 Sc1 2.891822 1_555
Ga5 Sc2 2.891822 1_556
Ga5 Sc9 2.899222 1_555
Ga5 Sc4 3.219156 1_556
Ga5 Sc4 3.219156 1_555
