# generated using pymatgen
data_MgZr2H10(S3O14)2
_symmetry_space_group_name_H-M   'P 1'
_cell_length_a   5.16853672
_cell_length_b   8.75606485
_cell_length_c   12.94997134
_cell_angle_alpha   93.01507229
_cell_angle_beta   91.07993356
_cell_angle_gamma   96.07077723
_symmetry_Int_Tables_number   1
_chemical_formula_structural   MgZr2H10(S3O14)2
_chemical_formula_sum   'Mg1 Zr2 H10 S6 O28'
_cell_volume   581.79523715
_cell_formula_units_Z   1
loop_
 _symmetry_equiv_pos_site_id
 _symmetry_equiv_pos_as_xyz
  1  'x, y, z'
loop_
 _atom_site_type_symbol
 _atom_site_label
 _atom_site_symmetry_multiplicity
 _atom_site_fract_x
 _atom_site_fract_y
 _atom_site_fract_z
 _atom_site_occupancy
  Mg  Mg0  1  0.12398417  0.72206281  0.20009198  1
  Zr  Zr0  1  0.77960746  0.89746981  0.81808760  1
  Zr  Zr1  1  0.23864100  0.13789699  0.16698741  1
  H  H0  1  0.42154933  0.66047635  0.56045200  1
  H  H1  1  0.60365332  0.31973499  0.46672664  1
  H  H2  1  0.27394503  0.82803693  0.53948352  1
  H  H3  1  0.70639017  0.14897903  0.47586500  1
  H  H4  1  0.41123870  0.73542066  0.44422790  1
  H  H5  1  0.58402111  0.23684064  0.58111020  1
  H  H6  1  0.13774998  0.37748816  0.82373760  1
  H  H7  1  0.66618100  0.54811719  0.17298619  1
  H  H8  1  0.33686239  0.44893761  0.90632184  1
  H  H9  1  0.80851776  0.54689357  0.07004708  1
  S  S0  1  0.75008723  0.60577416  0.70930570  1
  S  S1  1  0.27777794  0.40696424  0.30438876  1
  S  S2  1  0.29145122  0.05400297  0.67664451  1
  S  S3  1  0.67204581  0.94001155  0.30488405  1
  S  S4  1  0.28444042  0.80829297  0.99876035  1
  S  S5  1  0.73558750  0.22439097  0.99705034  1
  O  O0  1  0.91509851  0.76012510  0.69173694  1
  O  O1  1  0.10089267  0.25629632  0.30597716  1
  O  O2  1  0.56104001  0.56831794  0.62290806  1
  O  O3  1  0.45600934  0.43084193  0.39306557  1
  O  O4  1  0.90673461  0.48409596  0.72761800  1
  O  O5  1  0.12630976  0.53789480  0.29247984  1
  O  O6  1  0.61188866  0.66169467  0.80711648  1
  O  O7  1  0.42091770  0.37620603  0.20351010  1
  O  O8  1  0.22615751  0.98272620  0.57297667  1
  O  O9  1  0.71607184  0.97597516  0.41517519  1
  O  O10  1  0.05594911  0.05508283  0.74215824  1
  O  O11  1  0.92814474  0.92531903  0.25127966  1
  O  O12  1  0.42175383  0.20946013  0.67181002  1
  O  O13  1  0.49248046  0.79641654  0.28470976  1
  O  O14  1  0.47023057  0.95386899  0.73177501  1
  O  O15  1  0.55126020  0.07002024  0.25637409  1
  O  O16  1  0.08930670  0.83944758  0.91935175  1
  O  O17  1  0.93060978  0.18508052  0.08010953  1
  O  O18  1  0.77145109  0.12804679  0.90372022  1
  O  O19  1  0.22835629  0.90289088  0.09844102  1
  O  O20  1  0.25362307  0.65123942  0.03248187  1
  O  O21  1  0.76216883  0.38643580  0.98365489  1
  O  O22  1  0.54657011  0.85945527  0.96415151  1
  O  O23  1  0.47562880  0.17065401  0.04181613  1
  O  O24  1  0.25474878  0.35012351  0.87821811  1
  O  O25  1  0.79194978  0.61254944  0.13385127  1
  O  O26  1  0.31307310  0.72033918  0.50771741  1
  O  O27  1  0.69284263  0.25160416  0.51344883  1
loop_
_geom_bond_atom_site_label_1
_geom_bond_atom_site_label_2
_geom_bond_distance
_geom_bond_site_symmetry_2
Mg0 O25 2.027404 1_455
Mg0 O5 2.058767 1_555
Mg0 O19 2.143874 1_555
Mg0 O13 2.199112 1_555
Mg0 O11 2.216664 1_455
Mg0 O20 2.354975 1_555
H0 O26 1.068102 1_555
H0 O2 1.412389 1_555
H1 O27 1.009996 1_555
H1 O3 1.632770 1_555
H2 O26 1.049788 1_555
H2 O8 1.448004 1_555
H3 O27 1.008882 1_555
H3 O9 1.675465 1_545
H4 O26 0.981749 1_555
H5 O27 1.056372 1_555
H5 O12 1.471288 1_555
H6 O24 0.976318 1_555
H7 O25 0.981128 1_555
H8 O24 0.971889 1_555
H9 O25 0.991790 1_555
O0 S0 1.549701 1_555
O0 Zr0 2.151336 1_555
O1 S1 1.524844 1_555
O1 Zr1 2.197605 1_555
O2 S0 1.471907 1_555
O3 S1 1.450923 1_555
O4 S0 1.431317 1_555
O5 S1 1.467947 1_555
O6 S0 1.548284 1_555
O6 Zr0 2.149329 1_555
O7 S1 1.538848 1_555
O7 Zr1 2.220123 1_555
O8 S2 1.468306 1_565
O9 S3 1.454705 1_555
O10 S2 1.497321 1_555
O10 Zr0 2.165686 1_445
O11 S3 1.520446 1_555
O11 Zr1 2.622888 1_665
O12 S2 1.458419 1_555
O13 S3 1.489954 1_555
O14 S2 1.531216 1_565
O14 Zr0 2.051300 1_555
O15 S3 1.513607 1_545
O15 Zr1 2.123420 1_555
O16 S4 1.482461 1_555
O16 Zr0 2.168636 1_455
O17 S5 1.537176 1_554
O17 Zr1 2.022783 1_655
O18 S5 1.463230 1_555
O18 Zr0 2.256526 1_545
O19 S4 1.545591 1_554
O19 Zr1 2.192709 1_565
O20 S4 1.458298 1_554
O21 S5 1.430990 1_555
O22 S4 1.467224 1_555
O22 Zr0 2.281819 1_555
O23 S5 1.512309 1_554
O23 Zr1 2.063872 1_555
