# generated using pymatgen
data_Be2NiH20N2(O3F4)2
_symmetry_space_group_name_H-M   'P 1'
_cell_length_a   12.57217500
_cell_length_b   6.16431700
_cell_length_c   9.20713337
_cell_angle_alpha   73.27821840
_cell_angle_beta   90.00000000
_cell_angle_gamma   90.00000000
_symmetry_Int_Tables_number   1
_chemical_formula_structural   Be2NiH20N2(O3F4)2
_chemical_formula_sum   'Be4 Ni2 H40 N4 O12 F16'
_cell_volume   683.36901173
_cell_formula_units_Z   2
loop_
 _symmetry_equiv_pos_site_id
 _symmetry_equiv_pos_as_xyz
  1  'x, y, z'
loop_
 _atom_site_type_symbol
 _atom_site_label
 _atom_site_symmetry_multiplicity
 _atom_site_fract_x
 _atom_site_fract_y
 _atom_site_fract_z
 _atom_site_occupancy
  Be  Be0  1  0.35820900  0.25341800  0.90297500  1
  Be  Be1  1  0.85820900  0.74658200  0.59702500  1
  Be  Be2  1  0.64179100  0.74658200  0.09702500  1
  Be  Be3  1  0.14179100  0.25341800  0.40297500  1
  Ni  Ni0  1  0.50000000  0.00000000  0.50000000  1
  Ni  Ni1  1  0.00000000  0.00000000  0.00000000  1
  H  H0  1  0.16771100  0.78594600  0.55746300  1
  H  H1  1  0.66771100  0.21405400  0.94253700  1
  H  H2  1  0.83228900  0.21405400  0.44253700  1
  H  H3  1  0.33228900  0.78594600  0.05746300  1
  H  H4  1  0.20263400  0.58578000  0.72237300  1
  H  H5  1  0.70263400  0.41422000  0.77762700  1
  H  H6  1  0.79736600  0.41422000  0.27762700  1
  H  H7  1  0.29736600  0.58578000  0.22237300  1
  H  H8  1  0.15017300  0.50707100  0.57751900  1
  H  H9  1  0.65017300  0.49292900  0.92248100  1
  H  H10  1  0.84982700  0.49292900  0.42248100  1
  H  H11  1  0.34982700  0.50707100  0.07751900  1
  H  H12  1  0.07262000  0.63701700  0.67575500  1
  H  H13  1  0.57262000  0.36298300  0.82424500  1
  H  H14  1  0.92738000  0.36298300  0.32424500  1
  H  H15  1  0.42738000  0.63701700  0.17575500  1
  H  H16  1  0.40963200  0.66789400  0.70423400  1
  H  H17  1  0.90963200  0.33210600  0.79576600  1
  H  H18  1  0.59036800  0.33210600  0.29576600  1
  H  H19  1  0.09036800  0.66789400  0.20423400  1
  H  H20  1  0.37134600  0.89413800  0.74088600  1
  H  H21  1  0.87134600  0.10586200  0.75911400  1
  H  H22  1  0.62865400  0.10586200  0.25911400  1
  H  H23  1  0.12865400  0.89413800  0.24088600  1
  H  H24  1  0.40563300  0.06162500  0.22920100  1
  H  H25  1  0.90563300  0.93837500  0.27079900  1
  H  H26  1  0.59436700  0.93837500  0.77079900  1
  H  H27  1  0.09436700  0.06162500  0.72920100  1
  H  H28  1  0.32071200  0.97785600  0.36079800  1
  H  H29  1  0.82071200  0.02214400  0.13920200  1
  H  H30  1  0.67928800  0.02214400  0.63920200  1
  H  H31  1  0.17928800  0.97785600  0.86079800  1
  H  H32  1  0.56035500  0.65971500  0.40741400  1
  H  H33  1  0.06035500  0.34028500  0.09258600  1
  H  H34  1  0.43964500  0.34028500  0.59258600  1
  H  H35  1  0.93964500  0.65971500  0.90741400  1
  H  H36  1  0.64318300  0.66656900  0.53654900  1
  H  H37  1  0.14318300  0.33343100  0.96345100  1
  H  H38  1  0.35681700  0.33343100  0.46345100  1
  H  H39  1  0.85681700  0.66656900  0.03654900  1
  N  N0  1  0.14881400  0.63096700  0.63312900  1
  N  N1  1  0.64881400  0.36903300  0.86687100  1
  N  N2  1  0.85118600  0.36903300  0.36687100  1
  N  N3  1  0.35118600  0.63096700  0.13312900  1
  O  O0  1  0.38801600  0.82709600  0.65799100  1
  O  O1  1  0.88801600  0.17290400  0.84200900  1
  O  O2  1  0.61198400  0.17290400  0.34200900  1
  O  O3  1  0.11198400  0.82709600  0.15799100  1
  O  O4  1  0.39552800  0.95980300  0.33454600  1
  O  O5  1  0.89552800  0.04019700  0.16545400  1
  O  O6  1  0.60447200  0.04019700  0.66545400  1
  O  O7  1  0.10447200  0.95980300  0.83454600  1
  O  O8  1  0.56808200  0.69751300  0.50405700  1
  O  O9  1  0.06808200  0.30248700  0.99594300  1
  O  O10  1  0.43191800  0.30248700  0.49594300  1
  O  O11  1  0.93191800  0.69751300  0.00405700  1
  F  F0  1  0.26056900  0.41578000  0.89606400  1
  F  F1  1  0.76056900  0.58422000  0.60393600  1
  F  F2  1  0.73943100  0.58422000  0.10393600  1
  F  F3  1  0.23943100  0.41578000  0.39606400  1
  F  F4  1  0.41387000  0.21921700  0.05819600  1
  F  F5  1  0.91387000  0.78078300  0.44180400  1
  F  F6  1  0.58613000  0.78078300  0.94180400  1
  F  F7  1  0.08613000  0.21921700  0.55819600  1
  F  F8  1  0.43603200  0.38126200  0.77089500  1
  F  F9  1  0.93603200  0.61873800  0.72910500  1
  F  F10  1  0.56396800  0.61873800  0.22910500  1
  F  F11  1  0.06396800  0.38126200  0.27089500  1
  F  F12  1  0.31894200  0.02219200  0.88089400  1
  F  F13  1  0.81894200  0.97780800  0.61910600  1
  F  F14  1  0.68105800  0.97780800  0.11910600  1
  F  F15  1  0.18105800  0.02219200  0.38089400  1
loop_
_geom_bond_atom_site_label_1
_geom_bond_atom_site_label_2
_geom_bond_distance
_geom_bond_site_symmetry_2
Be0 F4 1.550225 1_556
Be0 F0 1.573523 1_555
Be0 F12 1.575887 1_555
Be0 F8 1.582938 1_555
Be1 F5 1.550225 1_555
Be1 F1 1.573523 1_555
Be1 F13 1.575887 1_555
Be1 F9 1.582938 1_555
Be2 F6 1.550225 1_554
Be2 F2 1.573523 1_555
Be2 F14 1.575887 1_555
Be2 F10 1.582938 1_555
Be3 F7 1.550225 1_555
Be3 F3 1.573523 1_555
Be3 F15 1.575887 1_555
Be3 F11 1.582938 1_555
Ni0 O10 2.042248 1_555
Ni0 O8 2.042248 1_545
Ni0 O6 2.079508 1_555
Ni0 O4 2.079508 1_545
Ni0 O2 2.083733 1_555
Ni0 O0 2.083733 1_545
Ni1 O9 2.042248 1_554
Ni1 O11 2.042248 1_445
Ni1 O7 2.079508 1_544
Ni1 O5 2.079508 1_455
Ni1 O3 2.083733 1_545
Ni1 O1 2.083733 1_454
H0 N0 1.035118 1_555
H1 N1 1.035118 1_555
H2 N2 1.035118 1_555
H3 N3 1.035118 1_555
H4 N0 1.038690 1_555
H5 N1 1.038690 1_555
H6 N2 1.038690 1_555
H7 N3 1.038690 1_555
H8 N0 1.034774 1_555
H9 N1 1.034774 1_555
H10 N2 1.034774 1_555
H11 N3 1.034774 1_555
H12 N0 1.039933 1_555
H13 N1 1.039933 1_555
H14 N2 1.039933 1_555
H15 N3 1.039933 1_555
H16 O0 0.988826 1_555
H17 O1 0.988826 1_555
H18 O2 0.988826 1_555
H19 O3 0.988826 1_555
H20 O0 0.989309 1_555
H21 O1 0.989309 1_555
H22 O2 0.989309 1_555
H23 O3 0.989309 1_555
H24 O4 1.000265 1_545
H25 O5 1.000265 1_565
H26 O6 1.000265 1_565
H27 O7 1.000265 1_545
H28 O4 0.985400 1_555
H29 O5 0.985400 1_555
H30 O6 0.985400 1_555
H31 O7 0.985400 1_555
H32 O8 0.987311 1_555
H33 O9 0.987311 1_554
H34 O10 0.987311 1_555
H35 O11 0.987311 1_556
H36 O8 0.992232 1_555
H37 O9 0.992232 1_555
H38 O10 0.992232 1_555
H39 O11 0.992232 1_555
F4 H24 1.597880 1_555
F5 H25 1.597880 1_555
F6 H26 1.597880 1_555
F7 H27 1.597880 1_555
