# generated using pymatgen
data_Cr3Co2
_symmetry_space_group_name_H-M   'P 1'
_cell_length_a   4.49359100
_cell_length_b   8.64322487
_cell_length_c   8.64322487
_cell_angle_alpha   90.70348521
_cell_angle_beta   90.00000000
_cell_angle_gamma   90.00000000
_symmetry_Int_Tables_number   1
_chemical_formula_structural   Cr3Co2
_chemical_formula_sum   'Cr18 Co12'
_cell_volume   335.66992329
_cell_formula_units_Z   6
loop_
 _symmetry_equiv_pos_site_id
 _symmetry_equiv_pos_as_xyz
  1  'x, y, z'
loop_
 _atom_site_type_symbol
 _atom_site_label
 _atom_site_symmetry_multiplicity
 _atom_site_fract_x
 _atom_site_fract_y
 _atom_site_fract_z
 _atom_site_occupancy
  Cr  Cr0  1  0.49880600  0.10309000  0.89691000  1
  Cr  Cr1  1  0.49880600  0.89691000  0.10309000  1
  Cr  Cr2  1  0.00287600  0.39316500  0.39316500  1
  Cr  Cr3  1  0.00287600  0.60683500  0.60683500  1
  Cr  Cr4  1  0.49754500  0.37314000  0.96032500  1
  Cr  Cr5  1  0.49754500  0.62686000  0.03967500  1
  Cr  Cr6  1  0.00122200  0.12987600  0.46596100  1
  Cr  Cr7  1  0.00122200  0.87012400  0.53403900  1
  Cr  Cr8  1  0.49754500  0.96032500  0.37314000  1
  Cr  Cr9  1  0.49754500  0.03967500  0.62686000  1
  Cr  Cr10  1  0.00122200  0.46596100  0.12987600  1
  Cr  Cr11  1  0.00122200  0.53403900  0.87012400  1
  Cr  Cr12  1  0.75081400  0.18315800  0.18315800  1
  Cr  Cr13  1  0.75081400  0.81684200  0.81684200  1
  Cr  Cr14  1  0.75125400  0.68070600  0.31929400  1
  Cr  Cr15  1  0.75125400  0.31929400  0.68070600  1
  Cr  Cr16  1  0.25101600  0.81793600  0.81793600  1
  Cr  Cr17  1  0.25101600  0.18206400  0.18206400  1
  Co  Co0  1  0.49603900  0.43460700  0.23891800  1
  Co  Co1  1  0.49603900  0.56539300  0.76108200  1
  Co  Co2  1  0.99978300  0.06597900  0.73831400  1
  Co  Co3  1  0.99978300  0.93402100  0.26168600  1
  Co  Co4  1  0.49603900  0.23891800  0.43460700  1
  Co  Co5  1  0.49603900  0.76108200  0.56539300  1
  Co  Co6  1  0.99978300  0.73831400  0.06597900  1
  Co  Co7  1  0.99978300  0.26168600  0.93402100  1
  Co  Co8  1  0.51130200  0.50000000  0.50000000  1
  Co  Co9  1  0.00102100  0.00000000  0.00000000  1
  Co  Co10  1  0.24989500  0.31551900  0.68448100  1
  Co  Co11  1  0.24989500  0.68448100  0.31551900  1
loop_
_geom_bond_atom_site_label_1
_geom_bond_atom_site_label_2
_geom_bond_distance
_geom_bond_site_symmetry_2
Cr0 Cr9 2.391041 1_555
Cr0 Cr4 2.391041 1_555
Cr0 Cr1 2.535638 1_546
Cr0 Cr16 2.781893 1_545
Cr0 Cr17 2.781893 1_556
Cr0 Cr12 2.800082 1_556
Cr0 Cr13 2.800082 1_545
Cr0 Cr15 2.890793 1_555
Cr1 Cr8 2.391041 1_555
Cr1 Cr5 2.391041 1_555
Cr1 Cr16 2.781893 1_554
Cr1 Cr17 2.781893 1_565
Cr1 Cr12 2.800082 1_565
Cr1 Cr13 2.800082 1_554
Cr1 Cr14 2.890793 1_555
Cr2 Cr6 2.368492 1_555
Cr2 Cr3 2.595684 1_555
Cr3 Cr7 2.368492 1_555
Cr4 Cr5 2.289654 1_556
Cr6 Cr7 2.327901 1_545
Cr6 Cr9 2.746373 1_555
Cr6 Cr9 2.773276 1_455
Cr6 Cr8 2.781453 1_545
Cr6 Cr8 2.808020 1_445
Cr7 Cr8 2.746373 1_555
Cr7 Cr8 2.773276 1_455
Cr7 Cr9 2.781453 1_565
Cr7 Cr9 2.808020 1_465
Cr8 Cr9 2.289654 1_565
Cr10 Cr11 2.327901 1_554
Cr10 Cr2 2.368492 1_555
Cr10 Cr14 2.704166 1_455
Cr10 Cr12 2.735073 1_455
Cr10 Cr17 2.740739 1_555
Cr10 Cr5 2.746373 1_555
Cr10 Cr5 2.773276 1_455
Cr10 Cr4 2.781453 1_554
Cr10 Cr4 2.808020 1_454
Cr11 Cr3 2.368492 1_555
Cr11 Cr15 2.704166 1_455
Cr11 Cr13 2.735073 1_455
Cr11 Cr16 2.740739 1_555
Cr11 Cr4 2.746373 1_555
Cr11 Cr4 2.773276 1_455
Cr11 Cr5 2.781453 1_556
Cr11 Cr5 2.808020 1_456
Cr12 Cr17 2.245927 1_555
Cr12 Cr17 2.247742 1_655
Cr12 Cr6 2.735073 1_655
Cr12 Cr2 2.791321 1_655
Cr13 Cr16 2.245927 1_555
Cr13 Cr16 2.247742 1_655
Cr13 Cr7 2.735073 1_655
Cr13 Cr3 2.791321 1_655
Cr14 Cr7 2.704166 1_655
Cr14 Cr3 2.810997 1_655
Cr14 Cr2 2.810997 1_655
Cr15 Cr6 2.704166 1_655
Cr15 Cr3 2.810997 1_655
Cr15 Cr2 2.810997 1_655
Cr16 Cr7 2.740739 1_555
Cr16 Cr3 2.796399 1_555
Cr17 Cr6 2.740739 1_555
Cr17 Cr2 2.796399 1_555
Co0 Co8 2.320570 1_555
Co0 Co4 2.406618 1_555
Co0 Cr5 2.407727 1_555
Co0 Cr10 2.431449 1_555
Co0 Cr4 2.459485 1_554
Co0 Cr10 2.474118 1_655
Co0 Cr17 2.488366 1_555
Co0 Cr12 2.498121 1_555
Co0 Cr14 2.507202 1_555
Co0 Co11 2.508188 1_555
Co0 Cr2 2.613122 1_555
Co0 Cr2 2.665430 1_655
Co1 Co8 2.320570 1_555
Co1 Co5 2.406618 1_555
Co1 Cr4 2.407727 1_555
Co1 Cr11 2.431449 1_555
Co1 Cr5 2.459485 1_556
Co1 Cr11 2.474118 1_655
Co1 Cr16 2.488366 1_555
Co1 Cr13 2.498121 1_555
Co1 Cr15 2.507202 1_555
Co1 Co10 2.508188 1_555
Co1 Cr3 2.613122 1_555
Co1 Cr3 2.665430 1_655
Co2 Co9 2.339381 1_656
Co2 Co7 2.377467 1_555
Co2 Cr6 2.424527 1_655
Co2 Cr7 2.430969 1_645
Co2 Cr9 2.444852 1_655
Co2 Cr9 2.463266 1_555
Co2 Cr15 2.513093 1_555
Co2 Cr16 2.525987 1_645
Co2 Cr13 2.526877 1_545
Co2 Cr0 2.645659 1_655
Co2 Cr0 2.653105 1_555
Co3 Co9 2.339381 1_665
Co3 Co6 2.377467 1_555
Co3 Cr7 2.424527 1_655
Co3 Cr6 2.430969 1_665
Co3 Cr8 2.444852 1_655
Co3 Cr8 2.463266 1_555
Co3 Cr14 2.513093 1_555
Co3 Cr17 2.525987 1_665
Co3 Cr12 2.526877 1_565
Co3 Cr1 2.645659 1_655
Co3 Cr1 2.653105 1_555
Co4 Co8 2.320570 1_555
Co4 Cr9 2.407727 1_555
Co4 Cr6 2.431449 1_555
Co4 Cr8 2.459485 1_545
Co4 Cr6 2.474118 1_655
Co4 Cr17 2.488366 1_555
Co4 Cr12 2.498121 1_555
Co4 Cr15 2.507202 1_555
Co4 Cr2 2.613122 1_555
Co4 Cr2 2.665430 1_655
Co5 Co8 2.320570 1_555
Co5 Cr8 2.407727 1_555
Co5 Cr7 2.431449 1_555
Co5 Cr9 2.459485 1_565
Co5 Cr7 2.474118 1_655
Co5 Cr16 2.488366 1_555
Co5 Cr13 2.498121 1_555
Co5 Cr14 2.507202 1_555
Co5 Cr3 2.613122 1_555
Co5 Cr3 2.665430 1_655
Co6 Co9 2.339381 1_665
Co6 Cr10 2.424527 1_655
Co6 Cr11 2.430969 1_654
Co6 Cr5 2.444852 1_655
Co6 Cr5 2.463266 1_555
Co6 Cr14 2.513093 1_555
Co6 Cr16 2.525987 1_654
Co6 Cr13 2.526877 1_554
Co6 Cr1 2.645659 1_655
Co6 Cr1 2.653105 1_555
Co7 Co9 2.339381 1_656
Co7 Cr11 2.424527 1_655
Co7 Cr10 2.430969 1_656
Co7 Cr4 2.444852 1_655
Co7 Cr4 2.463266 1_555
Co7 Cr15 2.513093 1_555
Co7 Cr17 2.525987 1_656
Co7 Cr12 2.526877 1_556
Co7 Cr0 2.645659 1_655
Co7 Cr0 2.653105 1_555
Co8 Cr14 2.470116 1_555
Co8 Cr15 2.470116 1_555
Co8 Cr2 2.561987 1_655
Co8 Cr3 2.561987 1_655
Co8 Cr3 2.627557 1_555
Co8 Cr2 2.627557 1_555
Co9 Cr16 2.480670 1_544
Co9 Cr17 2.480670 1_555
Co9 Cr12 2.492956 1_455
Co9 Cr13 2.492956 1_444
Co9 Cr0 2.571153 1_554
Co9 Cr1 2.571153 1_545
Co9 Cr0 2.588490 1_454
Co9 Cr1 2.588490 1_445
Co10 Cr15 2.241170 1_455
Co10 Cr15 2.253381 1_555
Co10 Co7 2.481171 1_455
Co10 Co2 2.481171 1_455
Co10 Co4 2.508188 1_555
Co10 Co8 2.554834 1_555
Co10 Cr4 2.672379 1_555
Co10 Cr9 2.672379 1_555
Co10 Cr6 2.704827 1_555
Co10 Cr11 2.704827 1_555
Co10 Cr3 2.839694 1_555
Co10 Cr2 2.839694 1_555
Co10 Cr0 2.841857 1_555
Co11 Cr14 2.241170 1_455
Co11 Cr14 2.253381 1_555
Co11 Co6 2.481171 1_455
Co11 Co3 2.481171 1_455
Co11 Co5 2.508188 1_555
Co11 Co8 2.554834 1_555
Co11 Cr5 2.672379 1_555
Co11 Cr8 2.672379 1_555
Co11 Cr10 2.704827 1_555
Co11 Cr7 2.704827 1_555
Co11 Cr3 2.839694 1_555
Co11 Cr2 2.839694 1_555
Co11 Cr1 2.841857 1_555
