# generated using pymatgen
data_YTl(MoO4)2
_symmetry_space_group_name_H-M   'P 1'
_cell_length_a   6.13545900
_cell_length_b   15.53291600
_cell_length_c   9.16363100
_cell_angle_alpha   90.00000000
_cell_angle_beta   90.00000000
_cell_angle_gamma   90.00000000
_symmetry_Int_Tables_number   1
_chemical_formula_structural   YTl(MoO4)2
_chemical_formula_sum   'Y4 Tl4 Mo8 O32'
_cell_volume   873.30841450
_cell_formula_units_Z   4
loop_
 _symmetry_equiv_pos_site_id
 _symmetry_equiv_pos_as_xyz
  1  'x, y, z'
loop_
 _atom_site_type_symbol
 _atom_site_label
 _atom_site_symmetry_multiplicity
 _atom_site_fract_x
 _atom_site_fract_y
 _atom_site_fract_z
 _atom_site_occupancy
  Y  Y0  1  0.75000000  0.89419300  0.69542500  1
  Y  Y1  1  0.25000000  0.10580700  0.30457500  1
  Y  Y2  1  0.25000000  0.60580700  0.19542500  1
  Y  Y3  1  0.75000000  0.39419300  0.80457500  1
  Tl  Tl0  1  0.75000000  0.62575000  0.56060300  1
  Tl  Tl1  1  0.25000000  0.37425000  0.43939700  1
  Tl  Tl2  1  0.25000000  0.87425000  0.06060300  1
  Tl  Tl3  1  0.75000000  0.12575000  0.93939700  1
  Mo  Mo0  1  0.75000000  0.96032900  0.28100800  1
  Mo  Mo1  1  0.25000000  0.03967100  0.71899200  1
  Mo  Mo2  1  0.25000000  0.53967100  0.78100800  1
  Mo  Mo3  1  0.75000000  0.46032900  0.21899200  1
  Mo  Mo4  1  0.75000000  0.71575300  0.99442600  1
  Mo  Mo5  1  0.25000000  0.28424700  0.00557400  1
  Mo  Mo6  1  0.25000000  0.78424700  0.49442600  1
  Mo  Mo7  1  0.75000000  0.21575300  0.50557400  1
  O  O0  1  0.75000000  0.85361500  0.22025400  1
  O  O1  1  0.25000000  0.14638500  0.77974600  1
  O  O2  1  0.25000000  0.64638500  0.72025400  1
  O  O3  1  0.75000000  0.35361500  0.27974600  1
  O  O4  1  0.75000000  0.96290000  0.47656600  1
  O  O5  1  0.25000000  0.03710000  0.52343400  1
  O  O6  1  0.25000000  0.53710000  0.97656600  1
  O  O7  1  0.75000000  0.46290000  0.02343400  1
  O  O8  1  0.75000000  0.64132200  0.85101400  1
  O  O9  1  0.25000000  0.35867800  0.14898600  1
  O  O10  1  0.25000000  0.85867800  0.35101400  1
  O  O11  1  0.75000000  0.14132200  0.64898600  1
  O  O12  1  0.75000000  0.82119100  0.90844000  1
  O  O13  1  0.25000000  0.17880900  0.09156000  1
  O  O14  1  0.25000000  0.67880900  0.40844000  1
  O  O15  1  0.75000000  0.32119100  0.59156000  1
  O  O16  1  0.00439000  0.80335700  0.60032400  1
  O  O17  1  0.99561000  0.19664300  0.39967600  1
  O  O18  1  0.99561000  0.69664300  0.10032400  1
  O  O19  1  0.50439000  0.19664300  0.39967600  1
  O  O20  1  0.00439000  0.30335700  0.89967600  1
  O  O21  1  0.49561000  0.80335700  0.60032400  1
  O  O22  1  0.49561000  0.30335700  0.89967600  1
  O  O23  1  0.50439000  0.69664300  0.10032400  1
  O  O24  1  0.48958000  0.98387400  0.79135500  1
  O  O25  1  0.51042000  0.01612600  0.20864500  1
  O  O26  1  0.51042000  0.51612600  0.29135500  1
  O  O27  1  0.98958000  0.01612600  0.20864500  1
  O  O28  1  0.48958000  0.48387400  0.70864500  1
  O  O29  1  0.01042000  0.98387400  0.79135500  1
  O  O30  1  0.01042000  0.48387400  0.70864500  1
  O  O31  1  0.98958000  0.51612600  0.29135500  1
loop_
_geom_bond_atom_site_label_1
_geom_bond_atom_site_label_2
_geom_bond_distance
_geom_bond_site_symmetry_2
Mo0 O0 1.748575 1_555
Mo0 O4 1.792466 1_555
Mo0 O25 1.830729 1_565
Mo0 O27 1.830729 1_565
Mo1 O1 1.748575 1_555
Mo1 O5 1.792466 1_555
Mo1 O29 1.830729 1_545
Mo1 O24 1.830729 1_545
Mo2 O2 1.748575 1_555
Mo2 O6 1.792466 1_555
Mo2 O30 1.830729 1_555
Mo2 O28 1.830729 1_555
Mo3 O3 1.748575 1_555
Mo3 O7 1.792466 1_555
Mo3 O26 1.830729 1_555
Mo3 O31 1.830729 1_555
Mo4 O8 1.750341 1_555
Mo4 O23 1.816768 1_556
Mo4 O18 1.816768 1_556
Mo4 O12 1.817447 1_555
Mo5 O9 1.750341 1_555
Mo5 O20 1.816768 1_554
Mo5 O22 1.816768 1_554
Mo5 O13 1.817447 1_555
Mo6 O10 1.750341 1_555
Mo6 O16 1.816768 1_555
Mo6 O21 1.816768 1_555
Mo6 O14 1.817447 1_555
Mo7 O11 1.750341 1_555
Mo7 O19 1.816768 1_555
Mo7 O17 1.816768 1_555
Mo7 O15 1.817447 1_555
O4 Y0 2.271819 1_555
O5 Y1 2.271819 1_555
O6 Y2 2.271819 1_556
O7 Y3 2.271819 1_554
O8 Tl0 2.672189 1_555
O9 Tl1 2.672189 1_555
O10 Tl2 2.672189 1_555
O11 Tl3 2.672189 1_555
O12 Y0 2.257449 1_555
O13 Y1 2.257449 1_555
O14 Y2 2.257449 1_555
O15 Y3 2.257449 1_555
O16 Y0 2.277351 1_455
O17 Y1 2.277351 1_655
O18 Y2 2.277351 1_655
O19 Y1 2.277351 1_555
O20 Y3 2.277351 1_455
O21 Y0 2.277351 1_555
O22 Y3 2.277351 1_555
O23 Y2 2.277351 1_555
O24 Y0 2.294816 1_555
O25 Y1 2.294816 1_555
O26 Y2 2.294816 1_555
O27 Y1 2.294816 1_655
O28 Y3 2.294816 1_555
O29 Y0 2.294816 1_455
O30 Y3 2.294816 1_455
O31 Y2 2.294816 1_655
