# generated using pymatgen
data_MgSi4NiO10
_symmetry_space_group_name_H-M   'P 1'
_cell_length_a   7.26758100
_cell_length_b   7.26758100
_cell_length_c   14.83604300
_cell_angle_alpha   90.00000000
_cell_angle_beta   90.00000000
_cell_angle_gamma   90.00000000
_symmetry_Int_Tables_number   1
_chemical_formula_structural   MgSi4NiO10
_chemical_formula_sum   'Mg4 Si16 Ni4 O40'
_cell_volume   783.60616673
_cell_formula_units_Z   4
loop_
 _symmetry_equiv_pos_site_id
 _symmetry_equiv_pos_as_xyz
  1  'x, y, z'
loop_
 _atom_site_type_symbol
 _atom_site_label
 _atom_site_symmetry_multiplicity
 _atom_site_fract_x
 _atom_site_fract_y
 _atom_site_fract_z
 _atom_site_occupancy
  Mg  Mg0  1  0.50000000  0.50000000  0.50000000  1
  Mg  Mg1  1  0.00000000  0.00000000  0.50000000  1
  Mg  Mg2  1  0.00000000  0.00000000  0.00000000  1
  Mg  Mg3  1  0.50000000  0.50000000  0.00000000  1
  Si  Si0  1  0.16790300  0.24298000  0.64401800  1
  Si  Si1  1  0.83209700  0.75702000  0.64401800  1
  Si  Si2  1  0.24298000  0.16790300  0.85598200  1
  Si  Si3  1  0.74298000  0.33209700  0.64401800  1
  Si  Si4  1  0.25702000  0.66790300  0.64401800  1
  Si  Si5  1  0.33209700  0.74298000  0.85598200  1
  Si  Si6  1  0.66790300  0.25702000  0.85598200  1
  Si  Si7  1  0.75702000  0.83209700  0.85598200  1
  Si  Si8  1  0.33209700  0.25702000  0.35598200  1
  Si  Si9  1  0.66790300  0.74298000  0.35598200  1
  Si  Si10  1  0.25702000  0.33209700  0.14401800  1
  Si  Si11  1  0.75702000  0.16790300  0.35598200  1
  Si  Si12  1  0.24298000  0.83209700  0.35598200  1
  Si  Si13  1  0.16790300  0.75702000  0.14401800  1
  Si  Si14  1  0.83209700  0.24298000  0.14401800  1
  Si  Si15  1  0.74298000  0.66790300  0.14401800  1
  Ni  Ni0  1  0.50000000  0.00000000  0.57187500  1
  Ni  Ni1  1  0.00000000  0.50000000  0.92812500  1
  Ni  Ni2  1  0.00000000  0.50000000  0.42812500  1
  Ni  Ni3  1  0.50000000  0.00000000  0.07187500  1
  O  O0  1  0.24008000  0.08638800  0.57512000  1
  O  O1  1  0.75992000  0.91361200  0.57512000  1
  O  O2  1  0.08638800  0.24008000  0.92488000  1
  O  O3  1  0.58638800  0.25992000  0.57512000  1
  O  O4  1  0.41361200  0.74008000  0.57512000  1
  O  O5  1  0.25992000  0.58638800  0.92488000  1
  O  O6  1  0.74008000  0.41361200  0.92488000  1
  O  O7  1  0.91361200  0.75992000  0.92488000  1
  O  O8  1  0.25992000  0.41361200  0.42488000  1
  O  O9  1  0.74008000  0.58638800  0.42488000  1
  O  O10  1  0.41361200  0.25992000  0.07512000  1
  O  O11  1  0.91361200  0.24008000  0.42488000  1
  O  O12  1  0.08638800  0.75992000  0.42488000  1
  O  O13  1  0.24008000  0.91361200  0.07512000  1
  O  O14  1  0.75992000  0.08638800  0.07512000  1
  O  O15  1  0.24788400  0.05344100  0.37734500  1
  O  O16  1  0.58638800  0.74008000  0.07512000  1
  O  O17  1  0.74788400  0.55344100  0.62265500  1
  O  O18  1  0.44655900  0.25211600  0.87734500  1
  O  O19  1  0.94655900  0.24788400  0.62265500  1
  O  O20  1  0.05344100  0.75211600  0.62265500  1
  O  O21  1  0.24788400  0.94655900  0.87734500  1
  O  O22  1  0.75211600  0.05344100  0.87734500  1
  O  O23  1  0.55344100  0.74788400  0.87734500  1
  O  O24  1  0.70294700  0.70294700  0.25000000  1
  O  O25  1  0.79705300  0.20294700  0.25000000  1
  O  O26  1  0.20294700  0.79705300  0.25000000  1
  O  O27  1  0.29705300  0.29705300  0.25000000  1
  O  O28  1  0.79705300  0.79705300  0.75000000  1
  O  O29  1  0.70294700  0.29705300  0.75000000  1
  O  O30  1  0.29705300  0.70294700  0.75000000  1
  O  O31  1  0.20294700  0.20294700  0.75000000  1
  O  O32  1  0.94655900  0.75211600  0.12265500  1
  O  O33  1  0.74788400  0.44655900  0.12265500  1
  O  O34  1  0.25211600  0.55344100  0.12265500  1
  O  O35  1  0.44655900  0.74788400  0.37734500  1
  O  O36  1  0.55344100  0.25211600  0.37734500  1
  O  O37  1  0.05344100  0.24788400  0.12265500  1
  O  O38  1  0.75211600  0.94655900  0.37734500  1
  O  O39  1  0.25211600  0.44655900  0.62265500  1
loop_
_geom_bond_atom_site_label_1
_geom_bond_atom_site_label_2
_geom_bond_distance
_geom_bond_site_symmetry_2
Mg0 O3 2.163464 1_555
Mg0 O4 2.163464 1_555
Mg0 O8 2.163464 1_555
Mg0 O9 2.163464 1_555
Mg0 O39 2.589917 1_555
Mg0 O17 2.589917 1_555
Mg0 O36 2.589917 1_555
Mg0 O35 2.589917 1_555
Mg1 O1 2.163464 1_445
Mg1 O12 2.163464 1_545
Mg1 O0 2.163464 1_555
Mg1 O11 2.163464 1_455
Mg1 O20 2.589917 1_545
Mg1 O19 2.589917 1_455
Mg1 O38 2.589917 1_445
Mg1 O15 2.589917 1_555
Mg2 O2 2.163464 1_554
Mg2 O13 2.163464 1_545
Mg2 O14 2.163464 1_455
Mg2 O7 2.163464 1_444
Mg2 O22 2.589917 1_454
Mg2 O21 2.589917 1_544
Mg2 O32 2.589917 1_445
Mg2 O37 2.589917 1_555
Mg3 O6 2.163464 1_554
Mg3 O16 2.163464 1_555
Mg3 O5 2.163464 1_554
Mg3 O10 2.163464 1_555
Mg3 O18 2.589917 1_554
Mg3 O23 2.589917 1_554
Mg3 O33 2.589917 1_555
Mg3 O34 2.589917 1_555
Ni0 O3 1.991174 1_555
Ni0 O0 1.991174 1_555
Ni0 O1 1.991174 1_545
Ni0 O4 1.991174 1_545
Ni1 O5 1.991174 1_555
Ni1 O2 1.991174 1_555
Ni1 O6 1.991174 1_455
Ni1 O7 1.991174 1_455
Ni2 O8 1.991174 1_555
Ni2 O11 1.991174 1_455
Ni2 O12 1.991174 1_555
Ni2 O9 1.991174 1_455
Ni3 O10 1.991174 1_555
Ni3 O16 1.991174 1_545
Ni3 O13 1.991174 1_545
Ni3 O14 1.991174 1_555
O0 Si0 1.617140 1_555
O1 Si1 1.617140 1_555
O2 Si2 1.617140 1_555
O3 Si3 1.617140 1_555
O4 Si4 1.617140 1_555
O5 Si5 1.617140 1_555
O6 Si6 1.617140 1_555
O7 Si7 1.617140 1_555
O8 Si8 1.617140 1_555
O9 Si9 1.617140 1_555
O10 Si10 1.617140 1_555
O11 Si11 1.617140 1_555
O12 Si12 1.617140 1_555
O13 Si13 1.617140 1_555
O14 Si14 1.617140 1_555
O15 Si8 1.632185 1_555
O15 Si12 1.639948 1_545
O16 Si15 1.617140 1_555
O17 Si1 1.632185 1_555
O17 Si3 1.639948 1_555
O18 Si2 1.632185 1_555
O18 Si6 1.639948 1_555
O19 Si3 1.632185 1_555
O19 Si0 1.639948 1_655
O20 Si4 1.632185 1_555
O20 Si1 1.639948 1_455
O21 Si5 1.632185 1_555
O21 Si2 1.639948 1_565
O22 Si6 1.632185 1_555
O22 Si7 1.639948 1_545
O23 Si7 1.632185 1_555
O23 Si5 1.639948 1_555
O24 Si15 1.619200 1_555
O24 Si9 1.619200 1_555
O25 Si14 1.619200 1_555
O25 Si11 1.619200 1_555
O26 Si13 1.619200 1_555
O26 Si12 1.619200 1_555
O27 Si10 1.619200 1_555
O27 Si8 1.619200 1_555
O28 Si7 1.619200 1_555
O28 Si1 1.619200 1_555
O29 Si6 1.619200 1_555
O29 Si3 1.619200 1_555
O30 Si4 1.619200 1_555
O30 Si5 1.619200 1_555
O31 Si2 1.619200 1_555
O31 Si0 1.619200 1_555
O32 Si15 1.632185 1_555
O32 Si13 1.639948 1_655
O33 Si14 1.632185 1_555
O33 Si15 1.639948 1_555
O34 Si13 1.632185 1_555
O34 Si10 1.639948 1_555
O35 Si12 1.632185 1_555
O35 Si9 1.639948 1_555
O36 Si11 1.632185 1_555
O36 Si8 1.639948 1_555
O37 Si10 1.632185 1_555
O37 Si14 1.639948 1_455
O38 Si9 1.632185 1_555
O38 Si11 1.639948 1_565
O39 Si0 1.632185 1_555
O39 Si4 1.639948 1_555
