# generated using pymatgen
data_ErCoB4
_symmetry_space_group_name_H-M   'P 1'
_cell_length_a   3.33800291
_cell_length_b   5.85396530
_cell_length_c   11.34025607
_cell_angle_alpha   90.00000000
_cell_angle_beta   90.00000000
_cell_angle_gamma   90.00000000
_symmetry_Int_Tables_number   1
_chemical_formula_structural   ErCoB4
_chemical_formula_sum   'Er4 Co4 B16'
_cell_volume   221.59487711
_cell_formula_units_Z   4
loop_
 _symmetry_equiv_pos_site_id
 _symmetry_equiv_pos_as_xyz
  1  'x, y, z'
loop_
 _atom_site_type_symbol
 _atom_site_label
 _atom_site_symmetry_multiplicity
 _atom_site_fract_x
 _atom_site_fract_y
 _atom_site_fract_z
 _atom_site_occupancy
  Er  Er0  1  0.50000000  0.37211322  0.14991997  1
  Er  Er1  1  0.50000000  0.62789457  0.85007651  1
  Er  Er2  1  0.50000000  0.12788678  0.64991997  1
  Er  Er3  1  0.50000000  0.87210543  0.35007651  1
  Co  Co0  1  0.50000000  0.36457076  0.41042732  1
  Co  Co1  1  0.50000000  0.63541779  0.58956767  1
  Co  Co2  1  0.50000000  0.13542924  0.91042732  1
  Co  Co3  1  0.50000000  0.86458221  0.08956767  1
  B  B0  1  -0.00000000  0.11149825  0.04627940  1
  B  B1  1  0.00000000  0.88849255  0.95372901  1
  B  B2  1  -0.00000000  0.38850175  0.54627940  1
  B  B3  1  -0.00000000  0.61150745  0.45372901  1
  B  B4  1  0.00000000  0.13867204  0.46763468  1
  B  B5  1  0.00000000  0.86131421  0.53237221  1
  B  B6  1  -0.00000000  0.36132796  0.96763468  1
  B  B7  1  -0.00000000  0.63868579  0.03237221  1
  B  B8  1  -0.00000000  0.02274084  0.19086207  1
  B  B9  1  -0.00000000  0.97724786  0.80913491  1
  B  B10  1  -0.00000000  0.47725916  0.69086207  1
  B  B11  1  0.00000000  0.52275214  0.30913491  1
  B  B12  1  -0.00000000  0.21683452  0.31540174  1
  B  B13  1  -0.00000000  0.78315535  0.68459253  1
  B  B14  1  0.00000000  0.28316548  0.81540174  1
  B  B15  1  -0.00000000  0.71684465  0.18459253  1
loop_
_geom_bond_atom_site_label_1
_geom_bond_atom_site_label_2
_geom_bond_distance
_geom_bond_site_symmetry_2
B0 B1 1.675049 1_544
B0 B6 1.712977 1_554
B0 B8 1.719962 1_555
B0 Co3 2.261822 1_445
B0 Co3 2.261822 1_545
B0 Co2 2.275661 1_554
B0 Co2 2.275661 1_454
B0 Er0 2.548425 1_555
B0 Er0 2.548425 1_455
B1 B7 1.712853 1_556
B1 B9 1.720082 1_555
B1 Co2 2.261932 1_565
B1 Co2 2.261932 1_465
B1 Co3 2.275550 1_456
B1 Co3 2.275550 1_556
B1 Er1 2.548428 1_555
B1 Er1 2.548428 1_455
B2 B3 1.675049 1_555
B2 B4 1.712977 1_555
B2 Co1 2.261822 1_455
B2 Co1 2.261822 1_555
B2 Co0 2.275661 1_455
B2 Co0 2.275661 1_555
B2 Er2 2.548425 1_555
B2 Er2 2.548425 1_455
B3 B5 1.712853 1_555
B3 Co0 2.261932 1_455
B3 Co0 2.261932 1_555
B3 Co1 2.275550 1_455
B3 Co1 2.275550 1_555
B3 Er3 2.548428 1_455
B3 Er3 2.548428 1_555
B4 B5 1.781903 1_545
B4 Co0 2.226025 1_555
B4 Co0 2.226025 1_455
B4 Er3 2.645354 1_545
B4 Er3 2.645354 1_445
B4 Er2 2.657576 1_555
B4 Er2 2.657576 1_455
B5 Co1 2.225978 1_455
B5 Co1 2.225978 1_555
B5 Er2 2.645315 1_565
B5 Er2 2.645315 1_465
B5 Er3 2.657669 1_555
B5 Er3 2.657669 1_455
B6 B7 1.781903 1_556
B6 Co2 2.226025 1_455
B6 Co2 2.226025 1_555
B6 Er1 2.645354 1_455
B6 Er1 2.645354 1_555
B6 Er0 2.657576 1_556
B6 Er0 2.657576 1_456
B7 Co3 2.225978 1_555
B7 Co3 2.225978 1_455
B7 Er0 2.645315 1_455
B7 Er0 2.645315 1_555
B7 Er1 2.657669 1_554
B7 Er1 2.657669 1_454
B8 Co3 2.227621 1_445
B8 Co3 2.227621 1_545
B8 Er3 2.612108 1_545
B8 Er3 2.612108 1_445
B8 Er0 2.680305 1_555
B8 Er0 2.680305 1_455
B9 Co2 2.227665 1_565
B9 Co2 2.227665 1_465
B9 Er2 2.612119 1_565
B9 Er2 2.612119 1_465
B9 Er1 2.680219 1_555
B9 Er1 2.680219 1_455
B10 B2 1.719962 1_555
B10 B13 1.792117 1_555
B10 B14 1.812627 1_555
B10 Co1 2.227621 1_455
B10 Co1 2.227621 1_555
B10 Er1 2.612108 1_455
B10 Er1 2.612108 1_555
B10 Er2 2.680305 1_555
B10 Er2 2.680305 1_455
B11 B3 1.720082 1_555
B11 B12 1.792241 1_555
B11 B15 1.812646 1_555
B11 Co0 2.227665 1_455
B11 Co0 2.227665 1_555
B11 Er0 2.612119 1_555
B11 Er0 2.612119 1_455
B11 Er3 2.680219 1_455
B11 Er3 2.680219 1_555
B12 B4 1.785968 1_555
B12 B8 1.812627 1_555
B12 Co0 2.166742 1_455
B12 Co0 2.166742 1_555
B12 Er3 2.648139 1_445
B12 Er3 2.648139 1_545
B12 Er0 2.670859 1_555
B12 Er0 2.670859 1_455
B13 B5 1.785824 1_555
B13 B9 1.812646 1_555
B13 Co1 2.166741 1_455
B13 Co1 2.166741 1_555
B13 Er2 2.648146 1_465
B13 Er2 2.648146 1_565
B13 Er1 2.670841 1_455
B13 Er1 2.670841 1_555
B14 B6 1.785968 1_555
B14 B9 1.792241 1_545
B14 Co2 2.166742 1_555
B14 Co2 2.166742 1_455
B14 Er1 2.648139 1_555
B14 Er1 2.648139 1_455
B14 Er2 2.670859 1_455
B14 Er2 2.670859 1_555
B15 B7 1.785824 1_555
B15 B8 1.792117 1_565
B15 Co3 2.166741 1_555
B15 Co3 2.166741 1_455
B15 Er0 2.648146 1_555
B15 Er0 2.648146 1_455
B15 Er3 2.670841 1_555
B15 Er3 2.670841 1_455
