# generated using pymatgen
data_Li9Mn2Co5O16
_symmetry_space_group_name_H-M   'P 1'
_cell_length_a   2.87278800
_cell_length_b   5.20054800
_cell_length_c   19.29482310
_cell_angle_alpha   83.06294130
_cell_angle_beta   90.00000000
_cell_angle_gamma   90.00000000
_symmetry_Int_Tables_number   1
_chemical_formula_structural   Li9Mn2Co5O16
_chemical_formula_sum   'Li9 Mn2 Co5 O16'
_cell_volume   286.15577247
_cell_formula_units_Z   1
loop_
 _symmetry_equiv_pos_site_id
 _symmetry_equiv_pos_as_xyz
  1  'x, y, z'
loop_
 _atom_site_type_symbol
 _atom_site_label
 _atom_site_symmetry_multiplicity
 _atom_site_fract_x
 _atom_site_fract_y
 _atom_site_fract_z
 _atom_site_occupancy
  Li  Li0  1  0.50000000  0.88341000  0.38158400  1
  Li  Li1  1  0.50000000  0.11659000  0.61841600  1
  Li  Li2  1  0.50000000  0.37075300  0.87699700  1
  Li  Li3  1  0.50000000  0.62924700  0.12300300  1
  Li  Li4  1  0.00000000  0.37985900  0.37969300  1
  Li  Li5  1  0.00000000  0.62014100  0.62030700  1
  Li  Li6  1  0.00000000  0.87907900  0.87474000  1
  Li  Li7  1  0.00000000  0.12092100  0.12526000  1
  Li  Li8  1  0.50000000  0.50000000  0.50000000  1
  Mn  Mn0  1  0.00000000  0.75145100  0.25121300  1
  Mn  Mn1  1  0.00000000  0.24854900  0.74878700  1
  Co  Co0  1  0.00000000  0.00000000  0.50000000  1
  Co  Co1  1  0.00000000  0.50000000  0.00000000  1
  Co  Co2  1  0.50000000  0.25265600  0.24975500  1
  Co  Co3  1  0.50000000  0.74734400  0.75024500  1
  Co  Co4  1  0.50000000  0.00000000  0.00000000  1
  O  O0  1  0.50000000  0.58376800  0.31031500  1
  O  O1  1  0.50000000  0.82726000  0.55667700  1
  O  O2  1  0.50000000  0.08284700  0.80797800  1
  O  O3  1  0.50000000  0.32674100  0.05463900  1
  O  O4  1  0.00000000  0.09239800  0.30604900  1
  O  O5  1  0.00000000  0.26115400  0.55315100  1
  O  O6  1  0.00000000  0.58624200  0.80745900  1
  O  O7  1  0.00000000  0.82455800  0.05961300  1
  O  O8  1  0.50000000  0.17274000  0.44332300  1
  O  O9  1  0.50000000  0.41623200  0.68968500  1
  O  O10  1  0.50000000  0.67325900  0.94536100  1
  O  O11  1  0.50000000  0.91715300  0.19202200  1
  O  O12  1  0.00000000  0.73884600  0.44684900  1
  O  O13  1  0.00000000  0.90760200  0.69395100  1
  O  O14  1  0.00000000  0.17544200  0.94038700  1
  O  O15  1  0.00000000  0.41375800  0.19254100  1
loop_
_geom_bond_atom_site_label_1
_geom_bond_atom_site_label_2
_geom_bond_distance
_geom_bond_site_symmetry_2
Li0 O12 1.996380 1_655
Li0 O12 1.996380 1_555
Li0 O8 2.028813 1_565
Li0 O0 2.199294 1_555
Li0 O4 2.232926 1_565
Li0 O4 2.232926 1_665
Li1 O5 1.996380 1_555
Li1 O5 1.996380 1_655
Li1 O1 2.028813 1_545
Li1 O9 2.199294 1_555
Li1 O13 2.232926 1_645
Li1 O13 2.232926 1_545
Li2 O14 2.071424 1_555
Li2 O14 2.071424 1_655
Li2 O2 2.120593 1_555
Li2 O10 2.171674 1_555
Li2 O6 2.180853 1_555
Li2 O6 2.180853 1_655
Li3 O7 2.071424 1_655
Li3 O7 2.071424 1_555
Li3 O11 2.120593 1_555
Li3 O3 2.171674 1_555
Li3 O15 2.180853 1_555
Li3 O15 2.180853 1_655
Li4 O8 2.100314 1_455
Li4 O8 2.100314 1_555
Li4 O0 2.153324 1_555
Li4 O0 2.153324 1_455
Li4 O4 2.183372 1_555
Li4 O12 2.397661 1_555
Li5 O1 2.100314 1_455
Li5 O1 2.100314 1_555
Li5 O9 2.153324 1_455
Li5 O9 2.153324 1_555
Li5 O13 2.183372 1_555
Li5 O5 2.397661 1_555
Li6 O14 2.109839 1_565
Li6 O6 2.117093 1_555
Li6 O2 2.125045 1_565
Li6 O2 2.125045 1_465
Li6 O10 2.171025 1_455
Li6 O10 2.171025 1_555
Li7 O7 2.109839 1_545
Li7 O15 2.117093 1_555
Li7 O11 2.125045 1_445
Li7 O11 2.125045 1_545
Li7 O3 2.171025 1_455
Li7 O3 2.171025 1_555
Li8 O5 2.085698 1_555
Li8 O5 2.085698 1_655
Li8 O12 2.085698 1_655
Li8 O12 2.085698 1_555
Li8 O1 2.131210 1_555
Li8 O8 2.131210 1_555
Mn0 O11 1.967851 1_455
Mn0 O11 1.967851 1_555
Mn0 O0 1.970761 1_555
Mn0 O0 1.970761 1_455
Mn0 O4 2.171766 1_565
Mn0 O15 2.201367 1_555
Mn1 O2 1.967851 1_455
Mn1 O2 1.967851 1_555
Mn1 O9 1.970761 1_455
Mn1 O9 1.970761 1_555
Mn1 O13 2.171766 1_545
Mn1 O6 2.201367 1_555
Co0 O5 1.797981 1_555
Co0 O12 1.797981 1_545
Co0 O1 1.956743 1_445
Co0 O1 1.956743 1_545
Co0 O8 1.956743 1_555
Co0 O8 1.956743 1_455
Co1 O10 1.938320 1_554
Co1 O10 1.938320 1_454
Co1 O3 1.938320 1_455
Co1 O3 1.938320 1_555
Co1 O7 2.154279 1_555
Co1 O14 2.154279 1_554
Co2 O4 1.928459 1_555
Co2 O4 1.928459 1_655
Co2 O15 1.939181 1_555
Co2 O15 1.939181 1_655
Co2 O11 2.180528 1_545
Co2 O0 2.194671 1_555
Co3 O13 1.928459 1_655
Co3 O13 1.928459 1_555
Co3 O6 1.939181 1_555
Co3 O6 1.939181 1_655
Co3 O2 2.180528 1_565
Co3 O9 2.194671 1_555
Co4 O7 1.991281 1_545
Co4 O7 1.991281 1_645
Co4 O14 1.991281 1_554
Co4 O14 1.991281 1_654
Co4 O3 2.105128 1_555
Co4 O10 2.105128 1_544
