# generated using pymatgen
data_Li4MnCo2O7
_symmetry_space_group_name_H-M   'P 1'
_cell_length_a   2.98898312
_cell_length_b   2.98898312
_cell_length_c   34.58803026
_cell_angle_alpha   86.61564008
_cell_angle_beta   86.61564008
_cell_angle_gamma   57.60938003
_symmetry_Int_Tables_number   1
_chemical_formula_structural   Li4MnCo2O7
_chemical_formula_sum   'Li8 Mn2 Co4 O14'
_cell_volume   260.34018995
_cell_formula_units_Z   2
loop_
 _symmetry_equiv_pos_site_id
 _symmetry_equiv_pos_as_xyz
  1  'x, y, z'
loop_
 _atom_site_type_symbol
 _atom_site_label
 _atom_site_symmetry_multiplicity
 _atom_site_fract_x
 _atom_site_fract_y
 _atom_site_fract_z
 _atom_site_occupancy
  Li  Li0  1  0.71442600  0.71442600  0.92912200  1
  Li  Li1  1  0.14770000  0.14770000  0.78138900  1
  Li  Li2  1  0.56845500  0.56845500  0.64369900  1
  Li  Li3  1  0.99976300  0.99976300  0.50036700  1
  Li  Li4  1  0.42729000  0.42729000  0.35735500  1
  Li  Li5  1  0.85840500  0.85840500  0.21437000  1
  Li  Li6  1  0.28071800  0.28071800  0.07407600  1
  Li  Li7  1  0.85712600  0.85712600  0.71351900  1
  Mn  Mn0  1  0.99732100  0.99732100  0.00063500  1
  Mn  Mn1  1  0.43239100  0.43239100  0.85738000  1
  Co  Co0  1  0.28701200  0.28701200  0.57071300  1
  Co  Co1  1  0.71351100  0.71351100  0.42890900  1
  Co  Co2  1  0.14279900  0.14279900  0.28576500  1
  Co  Co3  1  0.57102800  0.57102800  0.14332500  1
  O  O0  1  0.38144200  0.38144200  0.96720300  1
  O  O1  1  0.80286700  0.80286700  0.82630100  1
  O  O2  1  0.21772800  0.21772800  0.67702300  1
  O  O3  1  0.64388600  0.64388600  0.53849700  1
  O  O4  1  0.06649900  0.06649900  0.39645200  1
  O  O5  1  0.50467400  0.50467400  0.25306800  1
  O  O6  1  0.92411900  0.92411900  0.11044200  1
  O  O7  1  0.05427000  0.05427000  0.89042300  1
  O  O8  1  0.49782400  0.49782400  0.75006300  1
  O  O9  1  0.93067300  0.93067300  0.60153000  1
  O  O10  1  0.36098700  0.36098700  0.46117800  1
  O  O11  1  0.78094800  0.78094800  0.31836200  1
  O  O12  1  0.21943200  0.21943200  0.17550100  1
  O  O13  1  0.61670400  0.61670400  0.03333300  1
loop_
_geom_bond_atom_site_label_1
_geom_bond_atom_site_label_2
_geom_bond_distance
_geom_bond_site_symmetry_2
Li0 O0 2.113715 1_555
Li0 O7 2.153997 1_665
Li0 O7 2.172754 1_565
Li0 O7 2.172754 1_655
Li0 O0 2.174773 1_565
Li0 O0 2.174773 1_655
Li1 O8 1.994757 1_545
Li1 O8 1.994757 1_455
Li1 O8 2.066393 1_555
Li1 O1 2.301713 1_445
Li1 O1 2.306074 1_545
Li1 O1 2.306074 1_455
Li2 O2 2.033582 1_565
Li2 O2 2.033582 1_655
Li2 O2 2.102032 1_555
Li2 O9 2.205489 1_545
Li2 O9 2.205489 1_455
Li2 O9 2.314003 1_555
Li3 O3 2.125452 1_655
Li3 O3 2.125452 1_565
Li3 O10 2.138365 1_655
Li3 O10 2.138365 1_565
Li3 O3 2.209814 1_555
Li3 O10 2.252139 1_665
Li4 O4 2.137146 1_565
Li4 O4 2.137146 1_655
Li4 O11 2.149420 1_545
Li4 O11 2.149420 1_455
Li4 O11 2.216825 1_555
Li4 O4 2.248591 1_555
Li5 O12 2.131508 1_655
Li5 O12 2.131508 1_565
Li5 O5 2.142633 1_655
Li5 O5 2.142633 1_565
Li5 O5 2.211513 1_555
Li5 O12 2.245296 1_665
Li6 O6 2.085136 1_545
Li6 O6 2.085136 1_455
Li6 O13 2.179288 1_555
Li6 O6 2.180566 1_445
Li6 O13 2.227390 1_545
Li6 O13 2.227390 1_455
Li7 O2 2.079651 1_565
Li7 O2 2.079651 1_655
Li7 O8 2.083376 1_655
Li7 O8 2.083376 1_565
Li7 O8 2.195343 1_555
Li7 O2 2.200063 1_665
Mn0 O13 1.959471 1_565
Mn0 O13 1.959471 1_655
Mn0 O0 1.968313 1_654
Mn0 O0 1.968313 1_564
Mn0 O13 2.224955 1_555
Mn0 O0 2.252186 1_664
Mn1 O1 1.946340 1_545
Mn1 O1 1.946340 1_455
Mn1 O7 1.971346 1_565
Mn1 O7 1.971346 1_655
Mn1 O1 2.154212 1_555
Mn1 O7 2.219099 1_555
Co0 O9 1.970944 1_545
Co0 O9 1.970944 1_455
Co0 O3 1.997596 1_455
Co0 O3 1.997596 1_545
Co0 O9 2.086215 1_445
Co0 O3 2.110845 1_555
Co1 O10 2.008178 1_655
Co1 O10 2.008178 1_565
Co1 O4 2.010944 1_565
Co1 O4 2.010944 1_655
Co1 O10 2.092378 1_555
Co1 O4 2.097522 1_665
Co2 O11 1.994716 1_545
Co2 O11 1.994716 1_455
Co2 O5 1.996707 1_545
Co2 O5 1.996707 1_455
Co2 O11 2.139178 1_445
Co2 O5 2.140904 1_555
Co3 O12 2.008367 1_655
Co3 O12 2.008367 1_565
Co3 O6 2.019359 1_545
Co3 O6 2.019359 1_455
Co3 O12 2.086738 1_555
Co3 O6 2.105028 1_555
