# generated using pymatgen
data_KMg6Zr
_symmetry_space_group_name_H-M   'P 1'
_cell_length_a   6.66515427
_cell_length_b   6.66515427
_cell_length_c   5.21052900
_cell_angle_alpha   90.00000000
_cell_angle_beta   90.00000000
_cell_angle_gamma   120.00000272
_symmetry_Int_Tables_number   1
_chemical_formula_structural   KMg6Zr
_chemical_formula_sum   'K1 Mg6 Zr1'
_cell_volume   200.46236490
_cell_formula_units_Z   1
loop_
 _symmetry_equiv_pos_site_id
 _symmetry_equiv_pos_as_xyz
  1  'x, y, z'
loop_
 _atom_site_type_symbol
 _atom_site_label
 _atom_site_symmetry_multiplicity
 _atom_site_fract_x
 _atom_site_fract_y
 _atom_site_fract_z
 _atom_site_occupancy
  K  K0  1  0.00000000  0.00000000  0.50000000  1
  Mg  Mg0  1  0.64535100  0.82267500  0.00000000  1
  Mg  Mg1  1  0.17732500  0.35464900  0.00000000  1
  Mg  Mg2  1  0.17732500  0.82267500  0.00000000  1
  Mg  Mg3  1  0.97908000  0.48954000  0.50000000  1
  Mg  Mg4  1  0.51046000  0.02092000  0.50000000  1
  Mg  Mg5  1  0.51046000  0.48954000  0.50000000  1
  Zr  Zr0  1  0.66666700  0.33333300  0.00000000  1
loop_
_geom_bond_atom_site_label_1
_geom_bond_atom_site_label_2
_geom_bond_distance
_geom_bond_site_symmetry_2
K0 Mg1 3.313311 1_555
K0 Mg0 3.313311 1_446
K0 Mg0 3.313311 1_445
K0 Mg1 3.313311 1_556
K0 Mg2 3.313315 1_545
K0 Mg2 3.313315 1_546
K0 Mg5 3.334764 1_445
K0 Mg5 3.334764 1_555
K0 Mg3 3.334764 1_445
K0 Mg4 3.334764 1_555
K0 Mg4 3.334764 1_455
K0 Mg3 3.334764 1_455
Mg0 Mg1 3.119465 1_555
Mg0 Mg2 3.119465 1_555
Mg0 Mg5 3.244934 1_555
Mg0 Mg5 3.244934 1_554
Mg0 Mg4 3.244938 1_564
Mg0 Mg4 3.244938 1_565
Mg0 Zr0 3.334848 1_565
Mg0 Zr0 3.334848 1_555
Mg1 Mg2 3.119465 1_555
Mg1 Mg5 3.244934 1_555
Mg1 Mg5 3.244934 1_554
Mg1 Mg3 3.244938 1_455
Mg1 Mg3 3.244938 1_454
Mg1 Zr0 3.334848 1_455
Mg1 Zr0 3.334848 1_555
Mg2 Mg3 3.244935 1_455
Mg2 Mg3 3.244935 1_454
Mg2 Mg4 3.244935 1_565
Mg2 Mg4 3.244935 1_564
Mg2 Zr0 3.334848 1_455
Mg2 Zr0 3.334848 1_565
Mg3 Mg4 3.123424 1_555
Mg3 Mg5 3.123425 1_555
Mg3 Zr0 3.168489 1_555
Mg3 Zr0 3.168489 1_556
Mg4 Mg5 3.123425 1_555
Mg4 Zr0 3.168489 1_555
Mg4 Zr0 3.168489 1_556
Mg5 Zr0 3.168492 1_555
Mg5 Zr0 3.168492 1_556
