# generated using pymatgen
data_Na3Be3B3P6O25
_symmetry_space_group_name_H-M   'P 1'
_cell_length_a   12.56505257
_cell_length_b   12.56505257
_cell_length_c   12.56505257
_cell_angle_alpha   90.00000000
_cell_angle_beta   90.00000000
_cell_angle_gamma   90.00000000
_symmetry_Int_Tables_number   1
_chemical_formula_structural   Na3Be3B3P6O25
_chemical_formula_sum   'Na12 Be12 B12 P24 O100'
_cell_volume   1983.77736136
_cell_formula_units_Z   4
loop_
 _symmetry_equiv_pos_site_id
 _symmetry_equiv_pos_as_xyz
  1  'x, y, z'
loop_
 _atom_site_type_symbol
 _atom_site_label
 _atom_site_symmetry_multiplicity
 _atom_site_fract_x
 _atom_site_fract_y
 _atom_site_fract_z
 _atom_site_occupancy
  Na  Na0  1  0.37527183  0.37527183  0.37527183  1
  Na  Na1  1  0.12472817  0.62472817  0.87527183  1
  Na  Na2  1  0.62472817  0.87527183  0.12472817  1
  Na  Na3  1  0.87527183  0.12472817  0.62472817  1
  Na  Na4  1  0.65936846  0.65936846  0.65936846  1
  Na  Na5  1  0.84063154  0.34063154  0.15936846  1
  Na  Na6  1  0.34063154  0.15936846  0.84063154  1
  Na  Na7  1  0.15936846  0.84063154  0.34063154  1
  Na  Na8  1  0.09141566  0.09141566  0.09141566  1
  Na  Na9  1  0.40858434  0.90858434  0.59141566  1
  Na  Na10  1  0.90858434  0.59141566  0.40858434  1
  Na  Na11  1  0.59141566  0.40858434  0.90858434  1
  Be  Be0  1  0.18513814  0.56504624  0.37447787  1
  Be  Be1  1  0.31486186  0.43495376  0.87447787  1
  Be  Be2  1  0.81486186  0.06504624  0.12552213  1
  Be  Be3  1  0.37447787  0.18513814  0.56504624  1
  Be  Be4  1  0.68513814  0.93495376  0.62552213  1
  Be  Be5  1  0.87447787  0.31486186  0.43495376  1
  Be  Be6  1  0.12552213  0.81486186  0.06504624  1
  Be  Be7  1  0.62552213  0.68513814  0.93495376  1
  Be  Be8  1  0.56504624  0.37447787  0.18513814  1
  Be  Be9  1  0.06504624  0.12552213  0.81486186  1
  Be  Be10  1  0.93495376  0.62552213  0.68513814  1
  Be  Be11  1  0.43495376  0.87447787  0.31486186  1
  B  B0  1  0.12494276  0.13661407  0.38620868  1
  B  B1  1  0.37505724  0.86338593  0.88620868  1
  B  B2  1  0.87505724  0.63661407  0.11379132  1
  B  B3  1  0.38620868  0.12494276  0.13661407  1
  B  B4  1  0.62494276  0.36338593  0.61379132  1
  B  B5  1  0.88620868  0.37505724  0.86338593  1
  B  B6  1  0.11379132  0.87505724  0.63661407  1
  B  B7  1  0.61379132  0.62494276  0.36338593  1
  B  B8  1  0.13661407  0.38620868  0.12494276  1
  B  B9  1  0.63661407  0.11379132  0.87505724  1
  B  B10  1  0.36338593  0.61379132  0.62494276  1
  B  B11  1  0.86338593  0.88620868  0.37505724  1
  P  P0  1  0.08897250  0.35544002  0.33796034  1
  P  P1  1  0.41102750  0.64455998  0.83796034  1
  P  P2  1  0.91102750  0.85544002  0.16203966  1
  P  P3  1  0.33796034  0.08897250  0.35544002  1
  P  P4  1  0.58897250  0.14455998  0.66203966  1
  P  P5  1  0.83796034  0.41102750  0.64455998  1
  P  P6  1  0.16203966  0.91102750  0.85544002  1
  P  P7  1  0.66203966  0.58897250  0.14455998  1
  P  P8  1  0.35544002  0.33796034  0.08897250  1
  P  P9  1  0.85544002  0.16203966  0.91102750  1
  P  P10  1  0.14455998  0.66203966  0.58897250  1
  P  P11  1  0.64455998  0.83796034  0.41102750  1
  P  P12  1  0.08820551  0.60545197  0.16047864  1
  P  P13  1  0.41179449  0.39454803  0.66047864  1
  P  P14  1  0.91179449  0.10545197  0.33952136  1
  P  P15  1  0.16047864  0.08820551  0.60545197  1
  P  P16  1  0.58820551  0.89454803  0.83952136  1
  P  P17  1  0.66047864  0.41179449  0.39454803  1
  P  P18  1  0.33952136  0.91179449  0.10545197  1
  P  P19  1  0.83952136  0.58820551  0.89454803  1
  P  P20  1  0.60545197  0.16047864  0.08820551  1
  P  P21  1  0.10545197  0.33952136  0.91179449  1
  P  P22  1  0.89454803  0.83952136  0.58820551  1
  P  P23  1  0.39454803  0.66047864  0.41179449  1
  O  O0  1  0.07751893  0.11542905  0.68881656  1
  O  O1  1  0.42248107  0.88457095  0.18881656  1
  O  O2  1  0.92248107  0.61542905  0.81118344  1
  O  O3  1  0.68881656  0.07751893  0.11542905  1
  O  O4  1  0.57751893  0.38457095  0.31118344  1
  O  O5  1  0.18881656  0.42248107  0.88457095  1
  O  O6  1  0.81118344  0.92248107  0.61542905  1
  O  O7  1  0.31118344  0.57751893  0.38457095  1
  O  O8  1  0.11542905  0.68881656  0.07751893  1
  O  O9  1  0.61542905  0.81118344  0.92248107  1
  O  O10  1  0.38457095  0.31118344  0.57751893  1
  O  O11  1  0.88457095  0.18881656  0.42248107  1
  O  O12  1  0.13670814  0.62713878  0.26994505  1
  O  O13  1  0.36329186  0.37286122  0.76994505  1
  O  O14  1  0.86329186  0.12713878  0.23005495  1
  O  O15  1  0.26994505  0.13670814  0.62713878  1
  O  O16  1  0.63670814  0.87286122  0.73005495  1
  O  O17  1  0.76994505  0.36329186  0.37286122  1
  O  O18  1  0.23005495  0.86329186  0.12713878  1
  O  O19  1  0.73005495  0.63670814  0.87286122  1
  O  O20  1  0.62713878  0.26994505  0.13670814  1
  O  O21  1  0.12713878  0.23005495  0.86329186  1
  O  O22  1  0.87286122  0.73005495  0.63670814  1
  O  O23  1  0.37286122  0.76994505  0.36329186  1
  O  O24  1  0.17124240  0.43923964  0.36511123  1
  O  O25  1  0.32875760  0.56076036  0.86511123  1
  O  O26  1  0.82875760  0.93923964  0.13488877  1
  O  O27  1  0.36511123  0.17124240  0.43923964  1
  O  O28  1  0.67124240  0.06076036  0.63488877  1
  O  O29  1  0.86511123  0.32875760  0.56076036  1
  O  O30  1  0.13488877  0.82875760  0.93923964  1
  O  O31  1  0.63488877  0.67124240  0.06076036  1
  O  O32  1  0.43923964  0.36511123  0.17124240  1
  O  O33  1  0.93923964  0.13488877  0.82875760  1
  O  O34  1  0.06076036  0.63488877  0.67124240  1
  O  O35  1  0.56076036  0.86511123  0.32875760  1
  O  O36  1  0.03579274  0.10058966  0.31839186  1
  O  O37  1  0.46420726  0.89941034  0.81839186  1
  O  O38  1  0.96420726  0.60058966  0.18160814  1
  O  O39  1  0.31839186  0.03579274  0.10058966  1
  O  O40  1  0.53579274  0.39941034  0.68160814  1
  O  O41  1  0.81839186  0.46420726  0.89941034  1
  O  O42  1  0.18160814  0.96420726  0.60058966  1
  O  O43  1  0.68160814  0.53579274  0.39941034  1
  O  O44  1  0.10058966  0.31839186  0.03579274  1
  O  O45  1  0.60058966  0.18160814  0.96420726  1
  O  O46  1  0.39941034  0.68160814  0.53579274  1
  O  O47  1  0.89941034  0.81839186  0.46420726  1
  O  O48  1  0.14492626  0.25019847  0.37129231  1
  O  O49  1  0.35507374  0.74980153  0.87129231  1
  O  O50  1  0.85507374  0.75019847  0.12870769  1
  O  O51  1  0.37129231  0.14492626  0.25019847  1
  O  O52  1  0.64492626  0.24980153  0.62870769  1
  O  O53  1  0.87129231  0.35507374  0.74980153  1
  O  O54  1  0.12870769  0.85507374  0.75019847  1
  O  O55  1  0.62870769  0.64492626  0.24980153  1
  O  O56  1  0.25019847  0.37129231  0.14492626  1
  O  O57  1  0.75019847  0.12870769  0.85507374  1
  O  O58  1  0.24980153  0.62870769  0.64492626  1
  O  O59  1  0.74980153  0.87129231  0.35507374  1
  O  O60  1  0.87397636  0.87397636  0.87397636  1
  O  O61  1  0.62602364  0.12602364  0.37397636  1
  O  O62  1  0.12602364  0.37397636  0.62602364  1
  O  O63  1  0.37397636  0.62602364  0.12602364  1
  O  O64  1  0.12332640  0.61495265  0.47891092  1
  O  O65  1  0.37667360  0.38504735  0.97891092  1
  O  O66  1  0.87667360  0.11495265  0.02108908  1
  O  O67  1  0.47891092  0.12332640  0.61495265  1
  O  O68  1  0.62332640  0.88504735  0.52108908  1
  O  O69  1  0.97891092  0.37667360  0.38504735  1
  O  O70  1  0.02108908  0.87667360  0.11495265  1
  O  O71  1  0.52108908  0.62332640  0.88504735  1
  O  O72  1  0.61495265  0.47891092  0.12332640  1
  O  O73  1  0.11495265  0.02108908  0.87667360  1
  O  O74  1  0.88504735  0.52108908  0.62332640  1
  O  O75  1  0.38504735  0.97891092  0.37667360  1
  O  O76  1  0.06916858  0.34899470  0.21377508  1
  O  O77  1  0.43083142  0.65100530  0.71377508  1
  O  O78  1  0.93083142  0.84899470  0.28622492  1
  O  O79  1  0.21377508  0.06916858  0.34899470  1
  O  O80  1  0.56916858  0.15100530  0.78622492  1
  O  O81  1  0.71377508  0.43083142  0.65100530  1
  O  O82  1  0.28622492  0.93083142  0.84899470  1
  O  O83  1  0.78622492  0.56916858  0.15100530  1
  O  O84  1  0.34899470  0.21377508  0.06916858  1
  O  O85  1  0.84899470  0.28622492  0.93083142  1
  O  O86  1  0.15100530  0.78622492  0.56916858  1
  O  O87  1  0.65100530  0.71377508  0.43083142  1
  O  O88  1  0.10511030  0.12002700  0.49967810  1
  O  O89  1  0.39488970  0.87997300  0.99967810  1
  O  O90  1  0.89488970  0.62002700  0.00032190  1
  O  O91  1  0.49967810  0.10511030  0.12002700  1
  O  O92  1  0.60511030  0.37997300  0.50032190  1
  O  O93  1  0.99967810  0.39488970  0.87997300  1
  O  O94  1  0.00032190  0.89488970  0.62002700  1
  O  O95  1  0.50032190  0.60511030  0.37997300  1
  O  O96  1  0.12002700  0.49967810  0.10511030  1
  O  O97  1  0.62002700  0.00032190  0.89488970  1
  O  O98  1  0.37997300  0.50032190  0.60511030  1
  O  O99  1  0.87997300  0.99967810  0.39488970  1
loop_
_geom_bond_atom_site_label_1
_geom_bond_atom_site_label_2
_geom_bond_distance
_geom_bond_site_symmetry_2
Na0 O10 2.668342 1_555
Na0 O7 2.668342 1_555
Na0 O4 2.668342 1_555
Na0 O24 2.689718 1_555
Na0 O27 2.689718 1_555
Na0 O32 2.689718 1_555
Na1 O2 2.668342 1_455
Na1 O5 2.668342 1_555
Na1 O8 2.668342 1_556
Na1 O34 2.689718 1_555
Na1 O30 2.689718 1_555
Na1 O25 2.689718 1_555
Na2 O9 2.668342 1_554
Na2 O1 2.668342 1_555
Na2 O3 2.668342 1_565
Na2 O31 2.689718 1_555
Na2 O26 2.689718 1_555
Na2 O35 2.689718 1_555
Na3 O6 2.668342 1_545
Na3 O11 2.668342 1_555
Na3 O0 2.668342 1_655
Na3 O28 2.689718 1_555
Na3 O33 2.689718 1_555
Na3 O29 2.689718 1_555
Na4 O19 2.840070 1_555
Na4 O22 2.840070 1_555
Na4 O16 2.840070 1_555
Na4 O77 2.953702 1_555
Na4 O87 2.953702 1_555
Na4 O81 2.953702 1_555
Na5 O20 2.840070 1_555
Na5 O17 2.840070 1_555
Na5 O14 2.840070 1_555
Na5 O76 2.953702 1_655
Na5 O83 2.953702 1_555
Na5 O85 2.953702 1_554
Na6 O15 2.840070 1_555
Na6 O13 2.840070 1_555
Na6 O21 2.840070 1_555
Na6 O84 2.953702 1_556
Na6 O80 2.953702 1_555
Na6 O82 2.953702 1_545
Na7 O12 2.840070 1_555
Na7 O23 2.840070 1_555
Na7 O18 2.840070 1_555
Na7 O79 2.953702 1_565
Na7 O78 2.953702 1_455
Na7 O86 2.953702 1_555
Na8 O66 2.854618 1_455
Na8 O73 2.854618 1_554
Na8 O70 2.854618 1_545
Na8 O44 2.938618 1_555
Na8 O36 2.938618 1_555
Na8 O39 2.938618 1_555
Na9 O68 2.854618 1_555
Na9 O67 2.854618 1_565
Na9 O75 2.854618 1_555
Na9 O46 2.938618 1_555
Na9 O37 2.938618 1_555
Na9 O42 2.938618 1_555
Na10 O74 2.854618 1_555
Na10 O69 2.854618 1_555
Na10 O64 2.854618 1_655
Na10 O47 2.938618 1_555
Na10 O43 2.938618 1_555
Na10 O38 2.938618 1_555
Na11 O71 2.854618 1_555
Na11 O65 2.854618 1_555
Na11 O72 2.854618 1_556
Na11 O41 2.938618 1_555
Na11 O40 2.938618 1_555
Na11 O45 2.938618 1_555
Be0 O24 1.594729 1_555
Be0 O7 1.596546 1_555
Be0 O12 1.644441 1_555
Be0 O64 1.648734 1_555
Be1 O25 1.594729 1_555
Be1 O5 1.596546 1_555
Be1 O13 1.644441 1_555
Be1 O65 1.648734 1_555
Be2 O26 1.594729 1_545
Be2 O3 1.596546 1_555
Be2 O14 1.644441 1_555
Be2 O66 1.648734 1_555
Be3 O27 1.594729 1_555
Be3 O10 1.596546 1_555
Be3 O15 1.644441 1_555
Be3 O67 1.648734 1_555
Be4 O28 1.594729 1_565
Be4 O6 1.596546 1_555
Be4 O16 1.644441 1_555
Be4 O68 1.648734 1_555
Be5 O29 1.594729 1_555
Be5 O11 1.596546 1_555
Be5 O17 1.644441 1_555
Be5 O69 1.648734 1_555
Be6 O30 1.594729 1_554
Be6 O8 1.596546 1_555
Be6 O18 1.644441 1_555
Be6 O70 1.648734 1_555
Be7 O31 1.594729 1_556
Be7 O9 1.596546 1_555
Be7 O19 1.644441 1_555
Be7 O71 1.648734 1_555
Be8 O32 1.594729 1_555
Be8 O4 1.596546 1_555
Be8 O20 1.644441 1_555
Be8 O72 1.648734 1_555
Be9 O33 1.594729 1_455
Be9 O0 1.596546 1_555
Be9 O21 1.644441 1_555
Be9 O73 1.648734 1_555
Be10 O34 1.594729 1_655
Be10 O2 1.596546 1_555
Be10 O22 1.644441 1_555
Be10 O74 1.648734 1_555
Be11 O35 1.594729 1_555
Be11 O1 1.596546 1_555
Be11 O23 1.644441 1_555
Be11 O75 1.648734 1_555
B0 O48 1.461184 1_555
B0 O88 1.462292 1_555
B0 O79 1.477393 1_555
B0 O36 1.478443 1_555
B1 O49 1.461184 1_555
B1 O89 1.462292 1_555
B1 O82 1.477393 1_555
B1 O37 1.478443 1_555
B2 O50 1.461184 1_555
B2 O90 1.462292 1_555
B2 O83 1.477393 1_555
B2 O38 1.478443 1_555
B3 O51 1.461184 1_555
B3 O91 1.462292 1_555
B3 O84 1.477393 1_555
B3 O39 1.478443 1_555
B4 O52 1.461184 1_555
B4 O92 1.462292 1_555
B4 O81 1.477393 1_555
B4 O40 1.478443 1_555
B5 O53 1.461184 1_555
B5 O93 1.462292 1_555
B5 O85 1.477393 1_555
B5 O41 1.478443 1_555
B6 O54 1.461184 1_555
B6 O94 1.462292 1_555
B6 O86 1.477393 1_555
B6 O42 1.478443 1_555
B7 O55 1.461184 1_555
B7 O95 1.462292 1_555
B7 O87 1.477393 1_555
B7 O43 1.478443 1_555
B8 O56 1.461184 1_555
B8 O96 1.462292 1_555
B8 O76 1.477393 1_555
B8 O44 1.478443 1_555
B9 O57 1.461184 1_555
B9 O97 1.462292 1_555
B9 O80 1.477393 1_555
B9 O45 1.478443 1_555
B10 O58 1.461184 1_555
B10 O98 1.462292 1_555
B10 O77 1.477393 1_555
B10 O46 1.478443 1_555
B11 O59 1.461184 1_555
B11 O99 1.462292 1_555
B11 O78 1.477393 1_555
B11 O47 1.478443 1_555
O0 P15 1.516841 1_555
O1 P18 1.516841 1_555
O2 P19 1.516841 1_555
O3 P20 1.516841 1_555
O4 P17 1.516841 1_555
O5 P21 1.516841 1_555
O6 P22 1.516841 1_555
O7 P23 1.516841 1_555
O8 P12 1.516841 1_555
O9 P16 1.516841 1_555
O10 P13 1.516841 1_555
O11 P14 1.516841 1_555
O12 P12 1.528900 1_555
O13 P13 1.528900 1_555
O14 P14 1.528900 1_555
O15 P15 1.528900 1_555
O16 P16 1.528900 1_555
O17 P17 1.528900 1_555
O18 P18 1.528900 1_555
O19 P19 1.528900 1_555
O20 P20 1.528900 1_555
O21 P21 1.528900 1_555
O22 P22 1.528900 1_555
O23 P23 1.528900 1_555
O24 P0 1.514487 1_555
O25 P1 1.514487 1_555
O26 P2 1.514487 1_555
O27 P3 1.514487 1_555
O28 P4 1.514487 1_555
O29 P5 1.514487 1_555
O30 P6 1.514487 1_555
O31 P7 1.514487 1_555
O32 P8 1.514487 1_555
O33 P9 1.514487 1_555
O34 P10 1.514487 1_555
O35 P11 1.514487 1_555
O36 P14 1.581683 1_455
O37 P16 1.581683 1_555
O38 P12 1.581683 1_655
O39 P18 1.581683 1_545
O40 P13 1.581683 1_555
O41 P19 1.581683 1_555
O42 P15 1.581683 1_565
O43 P17 1.581683 1_555
O44 P21 1.581683 1_554
O45 P20 1.581683 1_556
O46 P23 1.581683 1_555
O47 P22 1.581683 1_555
O48 P0 1.555106 1_555
O49 P1 1.555106 1_555
O50 P2 1.555106 1_555
O51 P3 1.555106 1_555
O52 P4 1.555106 1_555
O53 P5 1.555106 1_555
O54 P6 1.555106 1_555
O55 P7 1.555106 1_555
O56 P8 1.555106 1_555
O57 P9 1.555106 1_555
O58 P10 1.555106 1_555
O59 P11 1.555106 1_555
O64 P10 1.527654 1_555
O65 P8 1.527654 1_556
O66 P9 1.527654 1_554
O67 P4 1.527654 1_555
O68 P11 1.527654 1_555
O69 P0 1.527654 1_655
O70 P2 1.527654 1_455
O71 P1 1.527654 1_555
O72 P7 1.527654 1_555
O73 P6 1.527654 1_545
O74 P5 1.527654 1_555
O75 P3 1.527654 1_565
O76 P0 1.582185 1_555
O77 P1 1.582185 1_555
O78 P2 1.582185 1_555
O79 P3 1.582185 1_555
O80 P4 1.582185 1_555
O81 P5 1.582185 1_555
O82 P6 1.582185 1_555
O83 P7 1.582185 1_555
O84 P8 1.582185 1_555
O85 P9 1.582185 1_555
O86 P10 1.582185 1_555
O87 P11 1.582185 1_555
O88 P15 1.552502 1_555
O89 P18 1.552502 1_556
O90 P19 1.552502 1_554
O91 P20 1.552502 1_555
O92 P17 1.552502 1_555
O93 P21 1.552502 1_655
O94 P22 1.552502 1_455
O95 P23 1.552502 1_555
O96 P12 1.552502 1_555
O97 P16 1.552502 1_545
O98 P13 1.552502 1_555
O99 P14 1.552502 1_565
