# generated using pymatgen
data_Sr3Dy2(BO3)4
_symmetry_space_group_name_H-M   'P 1'
_cell_length_a   7.38870000
_cell_length_b   8.72976900
_cell_length_c   16.36008100
_cell_angle_alpha   90.00000000
_cell_angle_beta   90.00000000
_cell_angle_gamma   90.00000000
_symmetry_Int_Tables_number   1
_chemical_formula_structural   Sr3Dy2(BO3)4
_chemical_formula_sum   'Sr12 Dy8 B16 O48'
_cell_volume   1055.25212391
_cell_formula_units_Z   4
loop_
 _symmetry_equiv_pos_site_id
 _symmetry_equiv_pos_as_xyz
  1  'x, y, z'
loop_
 _atom_site_type_symbol
 _atom_site_label
 _atom_site_symmetry_multiplicity
 _atom_site_fract_x
 _atom_site_fract_y
 _atom_site_fract_z
 _atom_site_occupancy
  Sr  Sr0  1  0.02903200  0.33160300  0.45779500  1
  Sr  Sr1  1  0.97096800  0.66839700  0.95779500  1
  Sr  Sr2  1  0.52903200  0.16839700  0.45779500  1
  Sr  Sr3  1  0.47096800  0.83160300  0.95779500  1
  Sr  Sr4  1  0.18402900  0.84925800  0.41365300  1
  Sr  Sr5  1  0.81597100  0.15074200  0.91365300  1
  Sr  Sr6  1  0.68402900  0.65074200  0.41365300  1
  Sr  Sr7  1  0.31597100  0.34925800  0.91365300  1
  Sr  Sr8  1  0.32012900  0.35530000  0.66372700  1
  Sr  Sr9  1  0.67987100  0.64470000  0.16372700  1
  Sr  Sr10  1  0.82012900  0.14470000  0.66372700  1
  Sr  Sr11  1  0.17987100  0.85530000  0.16372700  1
  Dy  Dy0  1  0.31709500  0.46891000  0.28930000  1
  Dy  Dy1  1  0.68290500  0.53109000  0.78930000  1
  Dy  Dy2  1  0.81709500  0.03109000  0.28930000  1
  Dy  Dy3  1  0.18290500  0.96891000  0.78930000  1
  Dy  Dy4  1  0.01966400  0.32762000  0.12062700  1
  Dy  Dy5  1  0.98033600  0.67238000  0.62062700  1
  Dy  Dy6  1  0.51966400  0.17238000  0.12062700  1
  Dy  Dy7  1  0.48033600  0.82762000  0.62062700  1
  B  B0  1  0.16554300  0.06639200  0.99878800  1
  B  B1  1  0.83445700  0.93360800  0.49878800  1
  B  B2  1  0.66554300  0.43360800  0.99878800  1
  B  B3  1  0.33445700  0.56639200  0.49878800  1
  B  B4  1  0.00888500  0.37401300  0.78467900  1
  B  B5  1  0.99111500  0.62598700  0.28467900  1
  B  B6  1  0.50888500  0.12598700  0.78467900  1
  B  B7  1  0.49111500  0.87401300  0.28467900  1
  B  B8  1  0.16434600  0.04613600  0.58729800  1
  B  B9  1  0.83565400  0.95386400  0.08729800  1
  B  B10  1  0.66434600  0.45386400  0.58729800  1
  B  B11  1  0.33565400  0.54613600  0.08729800  1
  B  B12  1  0.21329300  0.15373900  0.28625100  1
  B  B13  1  0.78670700  0.84626100  0.78625100  1
  B  B14  1  0.71329300  0.34626100  0.28625100  1
  B  B15  1  0.28670700  0.65373900  0.78625100  1
  O  O0  1  0.23927500  0.22666900  0.21119100  1
  O  O1  1  0.76072500  0.77333100  0.71119100  1
  O  O2  1  0.73927500  0.27333100  0.21119100  1
  O  O3  1  0.26072500  0.72666900  0.71119100  1
  O  O4  1  0.10237600  0.19507400  0.58341700  1
  O  O5  1  0.89762400  0.80492600  0.08341700  1
  O  O6  1  0.60237600  0.30492600  0.58341700  1
  O  O7  1  0.39762400  0.69507400  0.08341700  1
  O  O8  1  0.08118000  0.20879000  0.00380900  1
  O  O9  1  0.91882000  0.79121000  0.50380900  1
  O  O10  1  0.58118000  0.29121000  0.00380900  1
  O  O11  1  0.41882000  0.70879000  0.50380900  1
  O  O12  1  0.12474400  0.01622500  0.29217400  1
  O  O13  1  0.87525600  0.98377500  0.79217400  1
  O  O14  1  0.62474400  0.48377500  0.29217400  1
  O  O15  1  0.37525600  0.51622500  0.79217400  1
  O  O16  1  0.19446700  0.49713400  0.03799500  1
  O  O17  1  0.80553300  0.50286600  0.53799500  1
  O  O18  1  0.69446700  0.00286600  0.03799500  1
  O  O19  1  0.30553300  0.99713400  0.53799500  1
  O  O20  1  0.11281000  0.24153900  0.78184600  1
  O  O21  1  0.88719000  0.75846100  0.28184600  1
  O  O22  1  0.61281000  0.25846100  0.78184600  1
  O  O23  1  0.38719000  0.74153900  0.28184600  1
  O  O24  1  0.04411100  0.54641100  0.21379600  1
  O  O25  1  0.95588900  0.45358900  0.71379600  1
  O  O26  1  0.54411100  0.95358900  0.21379600  1
  O  O27  1  0.45588900  0.04641100  0.71379600  1
  O  O28  1  0.27290200  0.23237600  0.35385500  1
  O  O29  1  0.72709800  0.76762400  0.85385500  1
  O  O30  1  0.77290200  0.26762400  0.35385500  1
  O  O31  1  0.22709800  0.73237600  0.85385500  1
  O  O32  1  0.38576700  0.46849000  0.43711900  1
  O  O33  1  0.61423300  0.53151000  0.93711900  1
  O  O34  1  0.88576700  0.03151000  0.43711900  1
  O  O35  1  0.11423300  0.96849000  0.93711900  1
  O  O36  1  0.41328000  0.44567100  0.14392100  1
  O  O37  1  0.58672000  0.55433000  0.64392100  1
  O  O38  1  0.91328000  0.05433000  0.14392100  1
  O  O39  1  0.08672000  0.94567000  0.64392100  1
  O  O40  1  0.30453900  0.03326400  0.05373200  1
  O  O41  1  0.69546100  0.96673600  0.55373200  1
  O  O42  1  0.80453900  0.46673600  0.05373200  1
  O  O43  1  0.19546100  0.53326400  0.55373200  1
  O  O44  1  0.06013800  0.57171200  0.35803000  1
  O  O45  1  0.93986200  0.42828800  0.85803000  1
  O  O46  1  0.56013800  0.92828800  0.35803000  1
  O  O47  1  0.43986200  0.07171200  0.85803000  1
loop_
_geom_bond_atom_site_label_1
_geom_bond_atom_site_label_2
_geom_bond_distance
_geom_bond_site_symmetry_2
Dy0 O14 2.277313 1_555
Dy0 O28 2.342174 1_555
Dy0 O44 2.382086 1_555
Dy0 O23 2.438739 1_555
Dy0 O24 2.460054 1_555
Dy0 O32 2.470989 1_555
Dy0 O36 2.490596 1_555
Dy0 O0 2.536839 1_555
Dy1 O15 2.277313 1_555
Dy1 O29 2.342174 1_555
Dy1 O45 2.382086 1_555
Dy1 O22 2.438739 1_555
Dy1 O25 2.460054 1_555
Dy1 O33 2.470989 1_555
Dy1 O37 2.490597 1_555
Dy1 O1 2.536839 1_555
Dy2 O12 2.277313 1_655
Dy2 O30 2.342174 1_555
Dy2 O46 2.382086 1_545
Dy2 O21 2.438739 1_545
Dy2 O26 2.460054 1_545
Dy2 O34 2.470989 1_555
Dy2 O38 2.490597 1_555
Dy2 O2 2.536839 1_555
Dy3 O13 2.277313 1_455
Dy3 O31 2.342174 1_555
Dy3 O47 2.382086 1_565
Dy3 O20 2.438739 1_565
Dy3 O27 2.460054 1_565
Dy3 O35 2.470989 1_555
Dy3 O39 2.490597 1_555
Dy3 O3 2.536839 1_555
Dy4 O8 2.221532 1_555
Dy4 O42 2.280156 1_455
Dy4 O0 2.367457 1_555
Dy4 O16 2.384439 1_555
Dy4 O24 2.450317 1_555
Dy4 O38 2.540656 1_455
Dy4 O2 2.590721 1_455
Dy5 O9 2.221532 1_555
Dy5 O43 2.280156 1_655
Dy5 O1 2.367457 1_555
Dy5 O17 2.384439 1_555
Dy5 O25 2.450317 1_555
Dy5 O39 2.540656 1_655
Dy5 O3 2.590721 1_655
Dy6 O10 2.221532 1_555
Dy6 O40 2.280156 1_555
Dy6 O2 2.367457 1_555
Dy6 O18 2.384439 1_555
Dy6 O26 2.450317 1_545
Dy6 O36 2.540664 1_555
Dy6 O0 2.590721 1_555
Dy7 O11 2.221532 1_555
Dy7 O41 2.280156 1_555
Dy7 O3 2.367457 1_555
Dy7 O19 2.384439 1_555
Dy7 O27 2.450317 1_565
Dy7 O37 2.540656 1_555
Dy7 O1 2.590721 1_555
B0 O35 1.375527 1_545
B0 O8 1.393052 1_556
B0 O40 1.395122 1_556
B1 O34 1.375527 1_565
B1 O9 1.393052 1_555
B1 O41 1.395122 1_555
B2 O33 1.375527 1_555
B2 O10 1.393052 1_556
B2 O42 1.395122 1_556
B3 O32 1.375527 1_555
B3 O11 1.393052 1_555
B3 O43 1.395122 1_555
B4 O45 1.387318 1_455
B4 O20 1.388953 1_555
B4 O25 1.407374 1_455
B5 O44 1.387318 1_655
B5 O21 1.388953 1_555
B5 O24 1.407374 1_655
B6 O47 1.387318 1_555
B6 O22 1.388953 1_555
B6 O27 1.407374 1_555
B7 O46 1.387318 1_555
B7 O23 1.388953 1_555
B7 O26 1.407374 1_555
B8 O4 1.379923 1_555
B8 O19 1.386304 1_545
B8 O39 1.398682 1_545
B9 O5 1.379923 1_555
B9 O18 1.386304 1_565
B9 O38 1.398682 1_565
B10 O6 1.379923 1_555
B10 O17 1.386304 1_555
B10 O37 1.398682 1_555
B11 O7 1.379923 1_555
B11 O16 1.386304 1_555
B11 O36 1.398676 1_555
B12 O12 1.370608 1_555
B12 O28 1.374224 1_555
B12 O0 1.396476 1_555
B13 O13 1.370608 1_555
B13 O29 1.374224 1_555
B13 O1 1.396476 1_555
B14 O14 1.370608 1_555
B14 O30 1.374224 1_555
B14 O2 1.396476 1_555
B15 O15 1.370608 1_555
B15 O31 1.374224 1_555
B15 O3 1.396476 1_555
O4 Sr0 2.436803 1_555
O4 Sr10 2.503740 1_455
O4 Sr8 2.504263 1_555
O5 Sr1 2.436803 1_554
O5 Sr11 2.503740 1_655
O5 Sr9 2.504263 1_555
O6 Sr2 2.436803 1_555
O6 Sr8 2.503740 1_555
O6 Sr10 2.504263 1_555
O7 Sr3 2.436803 1_554
O7 Sr9 2.503740 1_555
O7 Sr11 2.504263 1_555
O8 Sr5 2.504422 1_454
O8 Sr7 2.586259 1_554
O9 Sr4 2.504422 1_655
O9 Sr6 2.586259 1_555
O10 Sr7 2.504422 1_554
O10 Sr5 2.586259 1_554
O11 Sr6 2.504422 1_555
O11 Sr4 2.586259 1_555
O12 Sr4 2.503240 1_545
O12 Sr11 2.560346 1_545
O13 Sr5 2.503240 1_565
O13 Sr10 2.560346 1_565
O14 Sr6 2.503240 1_555
O14 Sr9 2.560346 1_555
O15 Sr7 2.503240 1_555
O15 Sr8 2.560346 1_555
O16 Sr7 2.571109 1_554
O16 Sr1 2.585314 1_454
O17 Sr6 2.571109 1_555
O17 Sr0 2.585314 1_655
O18 Sr5 2.571109 1_554
O18 Sr3 2.585314 1_544
O19 Sr4 2.571109 1_555
O19 Sr2 2.585314 1_565
O20 Sr8 2.658390 1_555
O20 Sr7 2.790612 1_555
O20 Sr10 3.020849 1_455
O21 Sr9 2.658390 1_555
O21 Sr6 2.790612 1_555
O21 Sr11 3.020849 1_655
O22 Sr10 2.658390 1_555
O22 Sr5 2.790612 1_555
O22 Sr8 3.020849 1_555
O23 Sr11 2.658390 1_555
O23 Sr4 2.790612 1_555
O23 Sr9 3.020849 1_555
O24 Sr9 2.941104 1_455
O24 Sr11 2.991394 1_555
O25 Sr8 2.941104 1_655
O25 Sr10 2.991394 1_555
O26 Sr11 2.941104 1_555
O26 Sr9 2.991394 1_555
O27 Sr10 2.941104 1_555
O27 Sr8 2.991394 1_555
O28 Sr2 2.604797 1_555
O28 Sr0 2.624637 1_555
O29 Sr3 2.604797 1_555
O29 Sr1 2.624637 1_555
O30 Sr0 2.604797 1_655
O30 Sr2 2.624637 1_555
O31 Sr1 2.604797 1_455
O31 Sr3 2.624637 1_555
O32 Sr6 2.745053 1_555
O32 Sr2 2.845696 1_555
O32 Sr0 2.913745 1_555
O33 Sr7 2.745053 1_555
O33 Sr3 2.845696 1_555
O33 Sr1 2.913745 1_555
O34 Sr4 2.745053 1_645
O34 Sr0 2.845696 1_655
O34 Sr2 2.913745 1_555
O35 Sr5 2.745053 1_465
O35 Sr1 2.845696 1_455
O35 Sr3 2.913745 1_555
O36 Sr9 2.646465 1_555
O37 Sr8 2.646471 1_555
O38 Sr11 2.646471 1_645
O39 Sr10 2.646471 1_465
O40 Sr11 2.549590 1_545
O40 Sr3 2.659848 1_544
O41 Sr10 2.549590 1_565
O41 Sr2 2.659848 1_565
O42 Sr9 2.549590 1_555
O42 Sr1 2.659848 1_554
O43 Sr8 2.549590 1_555
O43 Sr0 2.659848 1_555
O44 Sr0 2.666533 1_555
O44 Sr4 2.745277 1_555
O44 Sr6 3.004442 1_455
O45 Sr1 2.666533 1_555
O45 Sr5 2.745277 1_555
O45 Sr7 3.004442 1_655
O46 Sr2 2.666533 1_565
O46 Sr6 2.745277 1_555
O46 Sr4 3.004442 1_555
O47 Sr3 2.666533 1_545
O47 Sr7 2.745277 1_555
O47 Sr5 3.004442 1_555
