# generated using pymatgen
data_Ba2CaEr3(NiO5)2
_symmetry_space_group_name_H-M   'P 1'
_cell_length_a   6.61453282
_cell_length_b   6.61453282
_cell_length_c   6.90340896
_cell_angle_alpha   102.38652528
_cell_angle_beta   77.61347472
_cell_angle_gamma   62.91073083
_symmetry_Int_Tables_number   1
_chemical_formula_structural   Ba2CaEr3(NiO5)2
_chemical_formula_sum   'Ba2 Ca1 Er3 Ni2 O10'
_cell_volume   245.13508626
_cell_formula_units_Z   1
loop_
 _symmetry_equiv_pos_site_id
 _symmetry_equiv_pos_as_xyz
  1  'x, y, z'
loop_
 _atom_site_type_symbol
 _atom_site_label
 _atom_site_symmetry_multiplicity
 _atom_site_fract_x
 _atom_site_fract_y
 _atom_site_fract_z
 _atom_site_occupancy
  Ba  Ba0  1  0.00082600  0.99972500  0.50250000  1
  Ba  Ba1  1  0.49972500  0.50082600  0.99750000  1
  Ca  Ca0  1  0.04337700  0.54337700  0.75000000  1
  Er  Er0  1  0.54543600  0.04543600  0.25000000  1
  Er  Er1  1  0.45644800  0.95644800  0.75000000  1
  Er  Er2  1  0.95606800  0.45606800  0.25000000  1
  Ni  Ni0  1  0.99776800  0.99841700  0.99943500  1
  Ni  Ni1  1  0.49841700  0.49776800  0.50056500  1
  O  O0  1  0.72256300  0.98381400  0.88855600  1
  O  O1  1  0.24299000  0.46561100  0.36986400  1
  O  O2  1  0.75685800  0.52893200  0.61225000  1
  O  O3  1  0.26718500  0.02940200  0.12107100  1
  O  O4  1  0.02893200  0.25685800  0.88775000  1
  O  O5  1  0.52940200  0.76718500  0.37892900  1
  O  O6  1  0.48381400  0.22256300  0.61144400  1
  O  O7  1  0.96561100  0.74299000  0.13013600  1
  O  O8  1  0.25330500  0.75330500  0.75000000  1
  O  O9  1  0.75127600  0.25127600  0.25000000  1
loop_
_geom_bond_atom_site_label_1
_geom_bond_atom_site_label_2
_geom_bond_distance
_geom_bond_site_symmetry_2
Ba0 O6 2.874612 1_465
Ba0 O7 2.879294 1_455
Ba0 O8 2.881806 1_555
Ba0 O9 2.917002 1_465
Ba0 O4 2.925746 1_565
Ba0 O5 2.928699 1_555
Ba0 O3 2.936428 1_565
Ba0 O2 2.936727 1_465
Ba0 O0 2.948541 1_455
Ba0 O1 2.952056 1_555
Ba1 O0 2.874612 1_545
Ba1 O1 2.879294 1_556
Ba1 O8 2.881806 1_555
Ba1 O9 2.917002 1_556
Ba1 O2 2.925746 1_555
Ba1 O3 2.928699 1_566
Ba1 O5 2.936428 1_556
Ba1 O4 2.936727 1_655
Ba1 O6 2.948541 1_555
Ba1 O7 2.952056 1_456
Ca0 O4 2.324711 1_555
Ca0 O2 2.324711 1_455
Ca0 O8 2.369040 1_555
Ca0 O0 2.491693 1_455
Ca0 O6 2.491693 1_555
Ca0 O7 2.492061 1_456
Ca0 O1 2.492061 1_555
Er0 O5 2.242975 1_545
Er0 O3 2.242975 1_555
Er0 O9 2.322907 1_555
Er0 O0 2.374740 1_544
Er0 O6 2.374740 1_555
Er0 O7 2.377085 1_545
Er0 O1 2.377085 1_555
Er1 O0 2.232554 1_555
Er1 O6 2.232554 1_565
Er1 O8 2.292472 1_555
Er1 O4 2.401538 1_565
Er1 O2 2.401538 1_555
Er1 O5 2.430195 1_555
Er1 O3 2.430195 1_566
Er2 O7 2.247436 1_555
Er2 O1 2.247436 1_655
Er2 O9 2.311081 1_555
Er2 O2 2.390235 1_555
Er2 O4 2.390235 1_654
Er2 O3 2.416405 1_655
Er2 O5 2.416405 1_555
Ni0 O8 1.873095 1_655
Ni0 O9 1.874317 1_566
Ni0 O4 2.092226 1_665
Ni0 O7 2.147750 1_556
Ni0 O0 2.152931 1_555
Ni0 O3 2.196282 1_666
Ni1 O8 1.873095 1_555
Ni1 O9 1.874317 1_555
Ni1 O2 2.092226 1_555
Ni1 O1 2.147750 1_555
Ni1 O6 2.152931 1_555
Ni1 O5 2.196282 1_555
