# generated using pymatgen
data_LuZn3
_symmetry_space_group_name_H-M   'P 1'
_cell_length_a   4.23903939
_cell_length_b   6.54878458
_cell_length_c   9.88886373
_cell_angle_alpha   90.00000000
_cell_angle_beta   90.00000000
_cell_angle_gamma   90.00000000
_symmetry_Int_Tables_number   1
_chemical_formula_structural   LuZn3
_chemical_formula_sum   'Lu4 Zn12'
_cell_volume   274.52035329
_cell_formula_units_Z   4
loop_
 _symmetry_equiv_pos_site_id
 _symmetry_equiv_pos_as_xyz
  1  'x, y, z'
loop_
 _atom_site_type_symbol
 _atom_site_label
 _atom_site_symmetry_multiplicity
 _atom_site_fract_x
 _atom_site_fract_y
 _atom_site_fract_z
 _atom_site_occupancy
  Lu  Lu0  1  0.75000000  0.22179460  0.83526109  1
  Lu  Lu1  1  0.75000000  0.72179460  0.66473891  1
  Lu  Lu2  1  0.25000000  0.77820540  0.16473891  1
  Lu  Lu3  1  0.25000000  0.27820540  0.33526109  1
  Zn  Zn0  1  0.75000000  0.96231141  0.39773163  1
  Zn  Zn1  1  0.75000000  0.46230841  0.10226837  1
  Zn  Zn2  1  0.25000000  0.03769159  0.60226837  1
  Zn  Zn3  1  0.25000000  0.53768859  0.89773163  1
  Zn  Zn4  1  0.75000000  0.57972820  0.35183415  1
  Zn  Zn5  1  0.75000000  0.07973220  0.14816685  1
  Zn  Zn6  1  0.25000000  0.42026780  0.64816685  1
  Zn  Zn7  1  0.25000000  0.92027180  0.85183415  1
  Zn  Zn8  1  0.75000000  0.28302330  0.54245551  1
  Zn  Zn9  1  0.75000000  0.78302430  0.95754449  1
  Zn  Zn10  1  0.25000000  0.71697570  0.45754449  1
  Zn  Zn11  1  0.25000000  0.21697670  0.04245551  1
loop_
_geom_bond_atom_site_label_1
_geom_bond_atom_site_label_2
_geom_bond_distance
_geom_bond_site_symmetry_2
Lu0 Zn7 2.901431 1_545
Lu0 Zn7 2.901431 1_645
Lu0 Zn8 2.923146 1_555
Lu0 Zn11 2.948122 1_656
Lu0 Zn11 2.948122 1_556
Lu0 Zn3 3.025492 1_555
Lu0 Zn3 3.025492 1_655
Lu0 Zn1 3.074502 1_556
Lu0 Zn6 3.099159 1_555
Lu0 Zn6 3.099159 1_655
Lu0 Zn9 3.117494 1_545
Lu0 Zn5 3.231116 1_556
Lu0 Zn2 3.354777 1_555
Lu0 Zn2 3.354777 1_655
Lu1 Zn6 2.901448 1_555
Lu1 Zn6 2.901448 1_655
Lu1 Zn9 2.923147 1_555
Lu1 Zn10 2.948122 1_555
Lu1 Zn10 2.948122 1_655
Lu1 Zn2 3.025506 1_565
Lu1 Zn2 3.025506 1_665
Lu1 Zn0 3.074512 1_555
Lu1 Zn7 3.099176 1_555
Lu1 Zn7 3.099176 1_655
Lu1 Zn8 3.117500 1_555
Lu1 Zn4 3.231114 1_555
Lu1 Zn3 3.354784 1_555
Lu1 Zn3 3.354784 1_655
Lu2 Zn5 2.901448 1_565
Lu2 Zn5 2.901448 1_465
Lu2 Zn10 2.923147 1_555
Lu2 Zn9 2.948122 1_554
Lu2 Zn9 2.948122 1_454
Lu2 Zn1 3.025506 1_455
Lu2 Zn1 3.025506 1_555
Lu2 Zn3 3.074512 1_554
Lu2 Zn4 3.099176 1_555
Lu2 Zn4 3.099176 1_455
Lu2 Zn11 3.117500 1_565
Lu2 Zn7 3.231114 1_554
Lu2 Zn0 3.354784 1_455
Lu2 Zn0 3.354784 1_555
Lu3 Zn4 2.901431 1_555
Lu3 Zn4 2.901431 1_455
Lu3 Zn11 2.923146 1_555
Lu3 Zn8 2.948122 1_455
Lu3 Zn8 2.948122 1_555
Lu3 Zn0 3.025492 1_545
Lu3 Zn0 3.025492 1_445
Lu3 Zn2 3.074502 1_555
Lu3 Zn5 3.099159 1_555
Lu3 Zn5 3.099159 1_455
Lu3 Zn10 3.117494 1_555
Lu3 Zn6 3.231116 1_555
Lu3 Zn1 3.354777 1_455
Lu3 Zn1 3.354777 1_555
Zn0 Zn8 2.541525 1_565
Zn0 Zn4 2.546234 1_555
Zn0 Zn5 2.584936 1_565
Zn0 Zn10 2.724617 1_655
Zn0 Zn10 2.724617 1_555
Zn0 Zn2 2.971045 1_565
Zn0 Zn2 2.971045 1_665
Zn1 Zn9 2.541547 1_554
Zn1 Zn5 2.546190 1_555
Zn1 Zn4 2.584944 1_555
Zn1 Zn11 2.724602 1_555
Zn1 Zn11 2.724602 1_655
Zn1 Zn3 2.971045 1_654
Zn1 Zn3 2.971045 1_554
Zn2 Zn6 2.546190 1_555
Zn2 Zn7 2.584944 1_545
Zn2 Zn8 2.724602 1_555
Zn2 Zn8 2.724602 1_455
Zn3 Zn7 2.546234 1_555
Zn3 Zn6 2.584936 1_555
Zn3 Zn9 2.724617 1_455
Zn3 Zn9 2.724617 1_555
Zn4 Zn8 2.707176 1_555
Zn5 Zn9 2.707197 1_544
Zn6 Zn8 2.528431 1_555
Zn6 Zn8 2.528431 1_455
Zn7 Zn9 2.528434 1_455
Zn7 Zn9 2.528434 1_555
Zn10 Zn4 2.528434 1_555
Zn10 Zn4 2.528434 1_455
Zn10 Zn2 2.541547 1_565
Zn10 Zn6 2.707197 1_555
Zn11 Zn5 2.528431 1_455
Zn11 Zn5 2.528431 1_555
Zn11 Zn3 2.541525 1_554
Zn11 Zn7 2.707176 1_544
