# generated using pymatgen
data_RbMnO4
_symmetry_space_group_name_H-M   'P 1'
_cell_length_a   5.64370944
_cell_length_b   7.58931327
_cell_length_c   9.49823033
_cell_angle_alpha   90.00000000
_cell_angle_beta   90.00000000
_cell_angle_gamma   90.00000000
_symmetry_Int_Tables_number   1
_chemical_formula_structural   RbMnO4
_chemical_formula_sum   'Rb4 Mn4 O16'
_cell_volume   406.82705169
_cell_formula_units_Z   4
loop_
 _symmetry_equiv_pos_site_id
 _symmetry_equiv_pos_as_xyz
  1  'x, y, z'
loop_
 _atom_site_type_symbol
 _atom_site_label
 _atom_site_symmetry_multiplicity
 _atom_site_fract_x
 _atom_site_fract_y
 _atom_site_fract_z
 _atom_site_occupancy
  Rb  Rb0  1  0.25000000  0.84458439  0.81508888  1
  Rb  Rb1  1  0.75000000  0.15541561  0.18491112  1
  Rb  Rb2  1  0.75000000  0.34458439  0.68491112  1
  Rb  Rb3  1  0.25000000  0.65541561  0.31508888  1
  Mn  Mn0  1  0.25000000  0.30073164  0.94139658  1
  Mn  Mn1  1  0.75000000  0.69926836  0.05860342  1
  Mn  Mn2  1  0.75000000  0.80073164  0.55860342  1
  Mn  Mn3  1  0.25000000  0.19926836  0.44139658  1
  O  O0  1  0.51846509  0.81904768  0.08144053  1
  O  O1  1  0.01846509  0.18095232  0.91855947  1
  O  O2  1  0.48153491  0.31904768  0.41855947  1
  O  O3  1  0.98153491  0.68095232  0.58144053  1
  O  O4  1  0.48153491  0.18095232  0.91855947  1
  O  O5  1  0.98153491  0.81904768  0.08144053  1
  O  O6  1  0.51846509  0.68095232  0.58144053  1
  O  O7  1  0.01846509  0.31904768  0.41855947  1
  O  O8  1  0.25000000  0.04291591  0.32812397  1
  O  O9  1  0.75000000  0.95708409  0.67187603  1
  O  O10  1  0.75000000  0.54291591  0.17187603  1
  O  O11  1  0.25000000  0.45708409  0.82812397  1
  O  O12  1  0.25000000  0.12244781  0.59836072  1
  O  O13  1  0.75000000  0.87755219  0.40163928  1
  O  O14  1  0.75000000  0.62244781  0.90163928  1
  O  O15  1  0.25000000  0.37755219  0.09836072  1
loop_
_geom_bond_atom_site_label_1
_geom_bond_atom_site_label_2
_geom_bond_distance
_geom_bond_site_symmetry_2
Mn0 O15 1.600823 1_556
Mn0 O11 1.601741 1_555
Mn0 O4 1.606523 1_555
Mn0 O1 1.606523 1_555
Mn1 O14 1.600823 1_554
Mn1 O10 1.601741 1_555
Mn1 O5 1.606523 1_555
Mn1 O0 1.606523 1_555
Mn2 O13 1.600823 1_555
Mn2 O9 1.601741 1_555
Mn2 O6 1.606523 1_555
Mn2 O3 1.606523 1_555
Mn3 O12 1.600823 1_555
Mn3 O8 1.601741 1_555
Mn3 O2 1.606523 1_555
Mn3 O7 1.606523 1_555
O0 Rb0 2.955240 1_554
O0 Rb3 2.960220 1_555
O0 Rb1 3.031530 1_565
O1 Rb1 2.955240 1_456
O1 Rb2 2.960220 1_455
O1 Rb0 3.031530 1_545
O2 Rb2 2.955240 1_555
O2 Rb1 2.960220 1_555
O2 Rb3 3.031530 1_555
O3 Rb3 2.955240 1_655
O3 Rb0 2.960220 1_655
O3 Rb2 3.031530 1_555
O4 Rb1 2.955240 1_556
O4 Rb2 2.960220 1_555
O4 Rb0 3.031530 1_545
O5 Rb0 2.955240 1_654
O5 Rb3 2.960220 1_655
O5 Rb1 3.031530 1_565
O6 Rb3 2.955240 1_555
O6 Rb0 2.960220 1_555
O6 Rb2 3.031530 1_555
O7 Rb2 2.955240 1_455
O7 Rb1 2.960220 1_455
O7 Rb3 3.031530 1_555
O8 Rb3 2.943466 1_545
O8 Rb1 3.246869 1_455
O8 Rb1 3.246869 1_555
O9 Rb2 2.943466 1_565
O9 Rb0 3.246869 1_555
O9 Rb0 3.246869 1_655
O10 Rb1 2.943466 1_555
O10 Rb3 3.246869 1_555
O10 Rb3 3.246869 1_655
O11 Rb0 2.943466 1_555
O11 Rb2 3.246869 1_555
O11 Rb2 3.246869 1_455
O12 Rb0 2.946959 1_545
O12 Rb2 3.388334 1_555
O12 Rb2 3.388334 1_455
O13 Rb1 2.946959 1_565
O13 Rb3 3.388334 1_555
O13 Rb3 3.388334 1_655
O14 Rb2 2.946959 1_555
O14 Rb0 3.388334 1_555
O14 Rb0 3.388334 1_655
O15 Rb3 2.946959 1_555
O15 Rb1 3.388334 1_555
O15 Rb1 3.388334 1_455
