# generated using pymatgen
data_Sr2PdN2
_symmetry_space_group_name_H-M   'P 1'
_cell_length_a   3.85265397
_cell_length_b   3.85265397
_cell_length_c   7.07692372
_cell_angle_alpha   105.79905119
_cell_angle_beta   105.79905119
_cell_angle_gamma   89.98613050
_symmetry_Int_Tables_number   1
_chemical_formula_structural   Sr2PdN2
_chemical_formula_sum   'Sr2 Pd1 N2'
_cell_volume   96.94563766
_cell_formula_units_Z   1
loop_
 _symmetry_equiv_pos_site_id
 _symmetry_equiv_pos_as_xyz
  1  'x, y, z'
loop_
 _atom_site_type_symbol
 _atom_site_label
 _atom_site_symmetry_multiplicity
 _atom_site_fract_x
 _atom_site_fract_y
 _atom_site_fract_z
 _atom_site_occupancy
  Sr  Sr0  1  0.15005100  0.65005100  0.80010200  1
  Sr  Sr1  1  0.84994900  0.34994900  0.19989800  1
  Pd  Pd0  1  0.50000000  0.00000000  0.50000000  1
  N  N0  1  0.64862200  0.14862200  0.79724400  1
  N  N1  1  0.35137800  0.85137800  0.20275600  1
loop_
_geom_bond_atom_site_label_1
_geom_bond_atom_site_label_2
_geom_bond_distance
_geom_bond_site_symmetry_2
N0 Pd0 1.941428 1_555
N0 Sr1 2.629906 1_556
N0 Sr0 2.723972 1_645
N0 Sr0 2.723972 1_555
N0 Sr0 2.724631 1_655
N0 Sr0 2.724631 1_545
N1 Pd0 1.941428 1_565
N1 Sr0 2.629906 1_554
N1 Sr1 2.723972 1_555
N1 Sr1 2.723972 1_465
N1 Sr1 2.724631 1_455
N1 Sr1 2.724631 1_565
