# generated using pymatgen
data_YSnO3
_symmetry_space_group_name_H-M   'P 1'
_cell_length_a   5.93252900
_cell_length_b   5.66211700
_cell_length_c   10.26570904
_cell_angle_alpha   56.89690748
_cell_angle_beta   90.00000000
_cell_angle_gamma   90.00000000
_symmetry_Int_Tables_number   1
_chemical_formula_structural   YSnO3
_chemical_formula_sum   'Y4 Sn4 O12'
_cell_volume   288.86212172
_cell_formula_units_Z   4
loop_
 _symmetry_equiv_pos_site_id
 _symmetry_equiv_pos_as_xyz
  1  'x, y, z'
loop_
 _atom_site_type_symbol
 _atom_site_label
 _atom_site_symmetry_multiplicity
 _atom_site_fract_x
 _atom_site_fract_y
 _atom_site_fract_z
 _atom_site_occupancy
  Y  Y0  1  0.56129900  0.72617400  0.75034400  1
  Y  Y1  1  0.93870100  0.72617400  0.25034400  1
  Y  Y2  1  0.06129900  0.27382600  0.74965600  1
  Y  Y3  1  0.43870100  0.27382600  0.24965600  1
  Sn  Sn0  1  0.00000000  0.00000000  0.50000000  1
  Sn  Sn1  1  0.50000000  0.50000000  0.50000000  1
  Sn  Sn2  1  0.50000000  0.00000000  0.00000000  1
  Sn  Sn3  1  0.00000000  0.50000000  0.00000000  1
  O  O0  1  0.20487000  0.43076600  0.41122400  1
  O  O1  1  0.32538300  0.70973100  0.58068000  1
  O  O2  1  0.70487000  0.56923400  0.08877600  1
  O  O3  1  0.82538300  0.29026900  0.91932000  1
  O  O4  1  0.79513000  0.56923400  0.58877600  1
  O  O5  1  0.67461700  0.29026900  0.41932000  1
  O  O6  1  0.29513000  0.43076600  0.91122400  1
  O  O7  1  0.17461700  0.70973100  0.08068000  1
  O  O8  1  0.08499500  0.11918200  0.21969400  1
  O  O9  1  0.41500500  0.11918200  0.71969400  1
  O  O10  1  0.58499500  0.88081800  0.28030600  1
  O  O11  1  0.91500500  0.88081800  0.78030600  1
loop_
_geom_bond_atom_site_label_1
_geom_bond_atom_site_label_2
_geom_bond_distance
_geom_bond_site_symmetry_2
O0 Sn1 2.107130 1_555
O0 Y1 2.236367 1_455
O0 Sn0 2.414275 1_555
O0 Y3 2.659861 1_555
O1 Sn1 2.060010 1_555
O1 Y0 2.275567 1_555
O1 Sn0 2.372034 1_565
O1 Y2 2.622737 1_555
O2 Sn3 2.107130 1_655
O2 Y3 2.236367 1_555
O2 Sn2 2.414275 1_565
O2 Y1 2.659861 1_555
O3 Sn3 2.060010 1_656
O3 Y2 2.275567 1_655
O3 Sn2 2.372034 1_556
O3 Y0 2.622737 1_555
O4 Sn1 2.107130 1_555
O4 Y2 2.236367 1_655
O4 Sn0 2.414275 1_665
O4 Y0 2.659861 1_555
O5 Sn1 2.060010 1_555
O5 Y3 2.275567 1_555
O5 Sn0 2.372034 1_655
O5 Y1 2.622737 1_555
O6 Sn3 2.107130 1_556
O6 Y0 2.236367 1_555
O6 Sn2 2.414275 1_556
O6 Y2 2.659861 1_555
O7 Sn3 2.060010 1_555
O7 Y1 2.275567 1_455
O7 Sn2 2.372034 1_565
O7 Y3 2.622737 1_555
O8 Sn3 2.162923 1_555
O8 Y1 2.244822 1_445
O8 Y3 2.357678 1_555
O8 Sn0 2.620844 1_555
O9 Sn1 2.162923 1_555
O9 Y0 2.244822 1_545
O9 Y2 2.357678 1_555
O9 Sn2 2.620844 1_556
O10 Sn1 2.162923 1_555
O10 Y3 2.244822 1_565
O10 Y1 2.357678 1_555
O10 Sn2 2.620844 1_565
O11 Sn3 2.162923 1_656
O11 Y2 2.244822 1_665
O11 Y0 2.357678 1_555
O11 Sn0 2.620844 1_665
