# generated using pymatgen
data_Mg14MnCr
_symmetry_space_group_name_H-M   'P 1'
_cell_length_a   6.27797649
_cell_length_b   6.29859568
_cell_length_c   10.06523417
_cell_angle_alpha   90.00000000
_cell_angle_beta   90.00000000
_cell_angle_gamma   120.10871095
_symmetry_Int_Tables_number   1
_chemical_formula_structural   Mg14MnCr
_chemical_formula_sum   'Mg14 Mn1 Cr1'
_cell_volume   344.30326621
_cell_formula_units_Z   1
loop_
 _symmetry_equiv_pos_site_id
 _symmetry_equiv_pos_as_xyz
  1  'x, y, z'
loop_
 _atom_site_type_symbol
 _atom_site_label
 _atom_site_symmetry_multiplicity
 _atom_site_fract_x
 _atom_site_fract_y
 _atom_site_fract_z
 _atom_site_occupancy
  Mg  Mg0  1  0.16807313  0.33403606  0.62500000  1
  Mg  Mg1  1  0.16798267  0.83399084  0.62500000  1
  Mg  Mg2  1  0.66549353  0.33308661  0.12500000  1
  Mg  Mg3  1  0.66559636  0.33301803  0.62500000  1
  Mg  Mg4  1  0.66549353  0.83240592  0.12500000  1
  Mg  Mg5  1  0.66559636  0.83257733  0.62500000  1
  Mg  Mg6  1  0.32740177  0.16438219  0.36514360  1
  Mg  Mg7  1  0.32740177  0.16438219  0.88485640  1
  Mg  Mg8  1  0.32740177  0.66302058  0.36514360  1
  Mg  Mg9  1  0.32740177  0.66302058  0.88485640  1
  Mg  Mg10  1  0.83818682  0.16909391  0.37209331  1
  Mg  Mg11  1  0.83818682  0.16909391  0.87790669  1
  Mg  Mg12  1  0.83777781  0.66888941  0.37202447  1
  Mg  Mg13  1  0.83777781  0.66888941  0.87797553  1
  Mn  Mn0  1  0.16897748  0.33448824  0.12500000  1
  Cr  Cr0  1  0.17125059  0.83562480  0.12500000  1
loop_
_geom_bond_atom_site_label_1
_geom_bond_atom_site_label_2
_geom_bond_distance
_geom_bond_site_symmetry_2
Mg0 Mg11 3.112826 1_455
Mg0 Mg10 3.112826 1_455
Mg0 Mg5 3.126660 1_555
Mg0 Mg3 3.126661 1_555
Mg0 Mg1 3.149298 1_545
Mg0 Mg1 3.149298 1_555
Mg0 Mg5 3.151325 1_445
Mg0 Mg3 3.151326 1_455
Mg0 Mg7 3.171069 1_555
Mg0 Mg6 3.171069 1_555
Mg0 Mg9 3.171076 1_555
Mg0 Mg8 3.171076 1_555
Mg1 Mg12 3.114388 1_455
Mg1 Mg13 3.114388 1_455
Mg1 Mg3 3.128482 1_565
Mg1 Mg5 3.128483 1_555
Mg1 Mg3 3.149512 1_455
Mg1 Mg5 3.149513 1_455
Mg1 Mg9 3.175459 1_555
Mg1 Mg8 3.175459 1_555
Mg1 Mg7 3.175465 1_565
Mg1 Mg6 3.175465 1_565
Mg2 Mg6 3.035429 1_555
Mg2 Mg7 3.035429 1_554
Mg2 Mn0 3.121554 1_555
Mg2 Mg4 3.145010 1_555
Mg2 Mg4 3.153585 1_545
Mg2 Mn0 3.156441 1_655
Mg3 Mg5 3.146522 1_555
Mg3 Mg5 3.152074 1_545
Mg3 Mg7 3.196002 1_555
Mg3 Mg6 3.196002 1_555
Mg4 Mg8 3.035429 1_555
Mg4 Mg9 3.035429 1_554
Mg4 Mn0 3.121554 1_555
Mg4 Mn0 3.156441 1_665
Mg5 Mg9 3.196002 1_555
Mg5 Mg8 3.196002 1_555
Mg6 Mn0 3.008100 1_555
Mg6 Mg8 3.140722 1_555
Mg6 Mg8 3.157874 1_545
Mg7 Mn0 3.008100 1_556
Mg7 Mg9 3.140722 1_555
Mg7 Mg9 3.157874 1_545
Mg8 Mn0 3.008106 1_555
Mg9 Mn0 3.008106 1_556
Mg10 Mn0 3.068034 1_655
Mg10 Mg8 3.087066 1_655
Mg10 Mg6 3.087067 1_655
Mg10 Mg2 3.090519 1_555
Mg10 Mg4 3.090526 1_545
Mg10 Mg3 3.137252 1_555
Mg10 Mg5 3.137259 1_545
Mg10 Mg12 3.149299 1_545
Mg10 Mg12 3.149299 1_555
Mg10 Mg8 3.192679 1_545
Mg10 Mg6 3.192679 1_555
Mg11 Mn0 3.068034 1_656
Mg11 Mg9 3.087066 1_655
Mg11 Mg7 3.087067 1_655
Mg11 Mg2 3.090519 1_556
Mg11 Mg4 3.090526 1_546
Mg11 Mg3 3.137252 1_555
Mg11 Mg5 3.137259 1_545
Mg11 Mg13 3.149299 1_545
Mg11 Mg13 3.149299 1_555
Mg11 Mg9 3.192679 1_545
Mg11 Mg7 3.192679 1_555
Mg12 Mg4 3.087102 1_555
Mg12 Mg2 3.087108 1_555
Mg12 Mg6 3.093332 1_665
Mg12 Mg8 3.093332 1_655
Mg12 Mg5 3.135758 1_555
Mg12 Mg3 3.135764 1_555
Mg12 Mg6 3.186498 1_555
Mg12 Mg8 3.186499 1_555
Mg13 Mg4 3.087102 1_556
Mg13 Mg2 3.087108 1_556
Mg13 Mg7 3.093332 1_665
Mg13 Mg9 3.093332 1_655
Mg13 Mg5 3.135758 1_555
Mg13 Mg3 3.135764 1_555
Mg13 Mg7 3.186498 1_555
Mg13 Mg9 3.186499 1_555
Cr0 Mg8 3.009083 1_555
Cr0 Mg9 3.009083 1_554
Cr0 Mg6 3.009090 1_565
Cr0 Mg7 3.009090 1_564
Cr0 Mg13 3.076026 1_454
Cr0 Mg12 3.076026 1_455
Cr0 Mg2 3.113065 1_565
Cr0 Mg4 3.113065 1_555
Cr0 Mn0 3.149322 1_565
Cr0 Mn0 3.149322 1_555
Cr0 Mg2 3.165009 1_455
Cr0 Mg4 3.165009 1_455
