# generated using pymatgen
data_CaMnBi2
_symmetry_space_group_name_H-M   'P 1'
_cell_length_a   4.53419052
_cell_length_b   4.52985612
_cell_length_c   21.64680020
_cell_angle_alpha   89.98711890
_cell_angle_beta   90.04994737
_cell_angle_gamma   90.02288560
_symmetry_Int_Tables_number   1
_chemical_formula_structural   CaMnBi2
_chemical_formula_sum   'Ca4 Mn4 Bi8'
_cell_volume   444.60840696
_cell_formula_units_Z   4
loop_
 _symmetry_equiv_pos_site_id
 _symmetry_equiv_pos_as_xyz
  1  'x, y, z'
loop_
 _atom_site_type_symbol
 _atom_site_label
 _atom_site_symmetry_multiplicity
 _atom_site_fract_x
 _atom_site_fract_y
 _atom_site_fract_z
 _atom_site_occupancy
  Ca  Ca0  1  0.24989300  0.25055200  0.12965700  1
  Ca  Ca1  1  0.24930900  0.25012600  0.62969500  1
  Ca  Ca2  1  0.75006800  0.74966500  0.37024700  1
  Ca  Ca3  1  0.75092100  0.74982300  0.87022500  1
  Mn  Mn0  1  0.74928900  0.25029900  0.50022400  1
  Mn  Mn1  1  0.24923300  0.74901100  0.99989900  1
  Mn  Mn2  1  0.75068600  0.24940600  0.99994100  1
  Mn  Mn3  1  0.25091200  0.75083700  0.50003000  1
  Bi  Bi0  1  0.75018900  0.23308400  0.25019500  1
  Bi  Bi1  1  0.73264500  0.25021700  0.74955100  1
  Bi  Bi2  1  0.24962100  0.76690500  0.24966600  1
  Bi  Bi3  1  0.26721100  0.74974900  0.75033200  1
  Bi  Bi4  1  0.24971800  0.25064800  0.42154100  1
  Bi  Bi5  1  0.24967800  0.24954500  0.92126900  1
  Bi  Bi6  1  0.74981100  0.74993100  0.07861100  1
  Bi  Bi7  1  0.75081700  0.75020000  0.57891800  1
loop_
_geom_bond_atom_site_label_1
_geom_bond_atom_site_label_2
_geom_bond_distance
_geom_bond_site_symmetry_2
Ca0 Mn1 3.603483 1_554
Ca0 Mn2 3.605119 1_454
Ca0 Mn2 3.612714 1_554
Ca0 Mn1 3.613037 1_544
Ca1 Mn0 3.603305 1_455
Ca1 Mn3 3.605078 1_545
Ca1 Mn0 3.606263 1_555
Ca1 Mn3 3.608326 1_555
Ca2 Mn3 3.609178 1_555
Ca2 Mn0 3.609754 1_555
Ca2 Mn3 3.610906 1_655
Ca2 Mn0 3.614151 1_565
Ca3 Mn1 3.601866 1_655
Ca3 Mn2 3.606760 1_565
Ca3 Mn2 3.608339 1_555
Ca3 Mn1 3.614557 1_555
Mn0 Mn3 3.197060 1_545
Mn0 Mn3 3.201787 1_555
Mn0 Mn3 3.208763 1_645
Mn0 Mn3 3.210918 1_655
Mn1 Mn2 3.198063 1_455
Mn1 Mn2 3.201874 1_465
Mn1 Mn2 3.208666 1_555
Mn1 Mn2 3.209910 1_565
Bi0 Bi2 3.097004 1_645
Bi0 Bi2 3.099524 1_545
Bi0 Bi2 3.312281 1_655
Bi0 Bi2 3.317111 1_555
Bi0 Ca2 3.397971 1_545
Bi0 Ca0 3.456884 1_555
Bi0 Ca0 3.458066 1_655
Bi0 Ca2 3.497424 1_555
Bi1 Bi3 3.094855 1_555
Bi1 Bi3 3.096718 1_545
Bi1 Bi3 3.315279 1_655
Bi1 Bi3 3.319490 1_645
Bi1 Ca1 3.394753 1_555
Bi1 Ca3 3.457519 1_555
Bi1 Ca3 3.459131 1_545
Bi1 Ca1 3.497148 1_655
Bi2 Ca0 3.397925 1_565
Bi2 Ca2 3.458012 1_555
Bi2 Ca2 3.458297 1_455
Bi2 Ca0 3.496041 1_555
Bi3 Ca3 3.396458 1_555
Bi3 Ca1 3.456925 1_555
Bi3 Ca1 3.458436 1_565
Bi3 Ca3 3.496606 1_455
Bi4 Mn3 2.830378 1_545
Bi4 Mn3 2.832355 1_555
Bi4 Mn0 2.832877 1_555
Bi4 Mn0 2.838361 1_455
Bi4 Ca2 3.387290 1_455
Bi4 Ca2 3.389500 1_555
Bi4 Ca2 3.392364 1_445
Bi4 Ca2 3.396988 1_545
Bi5 Mn1 2.831571 1_555
Bi5 Mn2 2.833008 1_455
Bi5 Mn1 2.834826 1_545
Bi5 Mn2 2.837943 1_555
Bi5 Ca3 3.384075 1_445
Bi5 Ca3 3.386636 1_455
Bi5 Ca3 3.394114 1_545
Bi5 Ca3 3.394251 1_555
Bi6 Mn2 2.831514 1_564
Bi6 Mn1 2.835092 1_654
Bi6 Mn2 2.835930 1_554
Bi6 Mn1 2.836905 1_554
Bi6 Ca0 3.387526 1_555
Bi6 Ca0 3.387944 1_655
Bi6 Ca0 3.390825 1_665
Bi6 Ca0 3.392826 1_565
Bi7 Mn0 2.833979 1_555
Bi7 Mn0 2.834088 1_565
Bi7 Mn3 2.836755 1_555
Bi7 Mn3 2.839819 1_655
Bi7 Ca1 3.382011 1_665
Bi7 Ca1 3.383338 1_655
Bi7 Ca1 3.392560 1_555
Bi7 Ca1 3.393655 1_565
