# generated using pymatgen
data_Mg5Si9
_symmetry_space_group_name_H-M   'P 1'
_cell_length_a   7.53180800
_cell_length_b   7.53499228
_cell_length_c   10.83213938
_cell_angle_alpha   106.24989529
_cell_angle_beta   88.32184895
_cell_angle_gamma   119.30480455
_symmetry_Int_Tables_number   1
_chemical_formula_structural   Mg5Si9
_chemical_formula_sum   'Mg10 Si18'
_cell_volume   510.38585108
_cell_formula_units_Z   2
loop_
 _symmetry_equiv_pos_site_id
 _symmetry_equiv_pos_as_xyz
  1  'x, y, z'
loop_
 _atom_site_type_symbol
 _atom_site_label
 _atom_site_symmetry_multiplicity
 _atom_site_fract_x
 _atom_site_fract_y
 _atom_site_fract_z
 _atom_site_occupancy
  Mg  Mg0  1  0.63806600  0.81547000  0.72971600  1
  Mg  Mg1  1  0.71453300  0.40047400  0.40611100  1
  Mg  Mg2  1  0.53361300  0.46580500  0.59070300  1
  Mg  Mg3  1  0.22764700  0.31856500  0.33705800  1
  Mg  Mg4  1  0.02933000  0.16802200  0.58672700  1
  Mg  Mg5  1  0.96796800  0.84173000  0.44124400  1
  Mg  Mg6  1  0.55150200  0.61612900  0.10899400  1
  Mg  Mg7  1  0.23092100  0.49421100  0.86555700  1
  Mg  Mg8  1  0.34440800  0.90881800  0.07211700  1
  Mg  Mg9  1  0.75761900  0.18471600  0.90597900  1
  Si  Si0  1  0.85030700  0.07638100  0.19463500  1
  Si  Si1  1  0.91285600  0.64459700  0.91019100  1
  Si  Si2  1  0.23160600  0.68422100  0.35853500  1
  Si  Si3  1  0.91189500  0.42855100  0.65989000  1
  Si  Si4  1  0.56266100  0.72549900  0.32562700  1
  Si  Si5  1  0.34587100  0.19960900  0.81641700  1
  Si  Si6  1  0.63918300  0.23260700  0.20009900  1
  Si  Si7  1  0.37673000  0.93589400  0.76706100  1
  Si  Si8  1  0.95336500  0.56883900  0.19750400  1
  Si  Si9  1  0.25465500  0.63631300  0.58177600  1
  Si  Si10  1  0.99776600  0.02152800  0.86908700  1
  Si  Si11  1  0.98557100  0.93399900  0.09603600  1
  Si  Si12  1  0.29838600  0.06220600  0.24951000  1
  Si  Si13  1  0.00138400  0.75009200  0.70529200  1
  Si  Si14  1  0.57147800  0.40788500  0.95792700  1
  Si  Si15  1  0.10414800  0.46188500  0.07878600  1
  Si  Si16  1  0.37894400  0.03442200  0.53375900  1
  Si  Si17  1  0.62730800  0.98144500  0.45337400  1
loop_
_geom_bond_atom_site_label_1
_geom_bond_atom_site_label_2
_geom_bond_distance
_geom_bond_site_symmetry_2
Mg0 Mg2 2.376572 1_555
Mg0 Si7 2.521440 1_555
Mg0 Si10 2.615261 1_565
Mg0 Mg9 2.621546 1_565
Mg0 Si9 2.823802 1_555
Mg0 Si13 3.000841 1_655
Mg1 Si6 2.166467 1_555
Mg1 Mg5 2.822199 1_555
Mg1 Si8 3.013907 1_555
Mg1 Si3 3.068755 1_555
Mg1 Si17 3.084991 1_545
Mg2 Si16 2.741596 1_555
Mg2 Si9 2.966199 1_555
Mg2 Si3 3.127909 1_555
Mg2 Si13 3.149956 1_655
Mg3 Si12 2.206172 1_555
Mg3 Si2 2.684675 1_555
Mg3 Si0 2.718764 1_455
Mg3 Si4 2.899042 1_555
Mg3 Si9 2.967058 1_555
Mg3 Si11 3.067600 1_445
Mg4 Mg5 2.346005 1_445
Mg4 Si3 2.460099 1_455
Mg4 Si17 2.860781 1_445
Mg4 Si9 3.093922 1_555
Mg5 Si16 2.767975 1_665
Mg5 Si2 2.786000 1_655
Mg5 Si8 2.822814 1_555
Mg5 Si4 2.940634 1_555
Mg5 Si13 3.168354 1_655
Mg6 Si14 1.985491 1_554
Mg6 Si4 2.248155 1_555
Mg6 Si0 2.938369 1_565
Mg6 Si15 2.971351 1_555
Mg6 Si11 2.990119 1_555
Mg7 Si15 2.502775 1_556
Mg7 Si5 2.674622 1_555
Mg7 Si3 3.084563 1_455
Mg7 Si1 3.088627 1_455
Mg7 Si10 3.117747 1_455
Mg8 Si12 2.063626 1_565
Mg8 Si6 2.405907 1_565
Mg8 Si11 2.800203 1_455
Mg8 Si15 2.963744 1_555
Mg8 Si1 3.106443 1_454
Mg9 Si10 2.608262 1_555
Mg9 Si14 2.615708 1_555
Mg9 Si7 2.723629 1_545
Mg9 Si15 2.727633 1_656
Mg9 Si1 3.053732 1_555
Si0 Si11 1.922126 1_545
Si0 Si6 2.388651 1_555
Si1 Si11 2.355078 1_556
Si1 Si14 2.451262 1_555
Si1 Si13 2.526754 1_655
Si1 Si3 2.742389 1_555
Si1 Si10 2.754415 1_565
Si2 Si4 2.385765 1_555
Si2 Si8 2.402518 1_455
Si2 Si9 2.565639 1_555
Si3 Si9 2.547259 1_655
Si5 Si7 2.034368 1_545
Si6 Si8 2.487228 1_555
Si7 Si9 2.347329 1_555
Si10 Si13 2.313584 1_645
Si10 Si5 2.428394 1_655
Si10 Si11 2.705871 1_546
Si11 Si12 2.520033 1_665
Si13 Si3 2.078500 1_455
Si13 Si7 2.472238 1_555
Si13 Si9 2.640735 1_555
Si14 Si5 1.973753 1_555
Si15 Si8 1.955332 1_455
Si16 Si17 2.204050 1_545
Si16 Si2 2.500188 1_545
Si16 Si9 2.870735 1_545
Si17 Si4 1.870272 1_555
