# generated using pymatgen
data_Mg13Ir3
_symmetry_space_group_name_H-M   'P 1'
_cell_length_a   9.63932452
_cell_length_b   9.63932506
_cell_length_c   9.63932504
_cell_angle_alpha   111.91359315
_cell_angle_beta   111.91359820
_cell_angle_gamma   111.91359496
_symmetry_Int_Tables_number   1
_chemical_formula_structural   Mg13Ir3
_chemical_formula_sum   'Mg26 Ir6'
_cell_volume   619.35149987
_cell_formula_units_Z   2
loop_
 _symmetry_equiv_pos_site_id
 _symmetry_equiv_pos_as_xyz
  1  'x, y, z'
loop_
 _atom_site_type_symbol
 _atom_site_label
 _atom_site_symmetry_multiplicity
 _atom_site_fract_x
 _atom_site_fract_y
 _atom_site_fract_z
 _atom_site_occupancy
  Mg  Mg0  1  -0.00000000  0.50000000  -0.00000000  1
  Mg  Mg1  1  0.50000000  0.00000000  -0.00000000  1
  Mg  Mg2  1  -0.00000000  0.00000000  0.50000000  1
  Mg  Mg3  1  0.50000000  0.00000000  0.50000000  1
  Mg  Mg4  1  -0.00000000  0.50000000  0.50000000  1
  Mg  Mg5  1  0.50000000  0.50000000  -0.00000000  1
  Mg  Mg6  1  0.88108002  0.61891998  0.25000000  1
  Mg  Mg7  1  0.25000000  0.88108002  0.61891998  1
  Mg  Mg8  1  0.61891998  0.25000000  0.88108002  1
  Mg  Mg9  1  0.11891998  0.38108002  0.75000000  1
  Mg  Mg10  1  0.75000000  0.11891998  0.38108002  1
  Mg  Mg11  1  0.38108002  0.75000000  0.11891998  1
  Mg  Mg12  1  0.25000000  0.25000000  0.25000000  1
  Mg  Mg13  1  0.75000000  0.75000000  0.75000000  1
  Mg  Mg14  1  0.40318718  0.60999513  0.72229048  1
  Mg  Mg15  1  0.72229048  0.40318718  0.60999513  1
  Mg  Mg16  1  0.60999513  0.72229048  0.40318718  1
  Mg  Mg17  1  0.89000487  0.09681282  0.77770952  1
  Mg  Mg18  1  0.77770952  0.89000487  0.09681282  1
  Mg  Mg19  1  0.09681282  0.77770952  0.89000487  1
  Mg  Mg20  1  0.59681282  0.39000487  0.27770952  1
  Mg  Mg21  1  0.27770952  0.59681282  0.39000487  1
  Mg  Mg22  1  0.39000487  0.27770952  0.59681282  1
  Mg  Mg23  1  0.10999513  0.90318718  0.22229048  1
  Mg  Mg24  1  0.22229048  0.10999513  0.90318718  1
  Mg  Mg25  1  0.90318718  0.22229048  0.10999513  1
  Ir  Ir0  1  0.92238767  0.75000000  0.57761233  1
  Ir  Ir1  1  0.75000000  0.57761233  0.92238767  1
  Ir  Ir2  1  0.57761233  0.92238767  0.75000000  1
  Ir  Ir3  1  0.07761233  0.25000000  0.42238767  1
  Ir  Ir4  1  0.25000000  0.42238767  0.07761233  1
  Ir  Ir5  1  0.42238767  0.07761233  0.25000000  1
loop_
_geom_bond_atom_site_label_1
_geom_bond_atom_site_label_2
_geom_bond_distance
_geom_bond_site_symmetry_2
Mg0 Mg8 2.966906 1_454
Mg0 Mg11 2.966906 1_555
Mg0 Mg9 3.068573 1_554
Mg0 Mg6 3.068573 1_455
Mg0 Mg23 3.135695 1_555
Mg0 Mg17 3.135695 1_454
Mg0 Mg25 3.186454 1_455
Mg0 Mg19 3.186454 1_554
Mg0 Mg21 3.189807 1_555
Mg0 Mg15 3.189807 1_454
Mg1 Mg7 2.966906 1_544
Mg1 Mg10 2.966906 1_555
Mg1 Mg11 3.068573 1_545
Mg1 Mg8 3.068573 1_554
Mg1 Mg25 3.135694 1_555
Mg1 Mg19 3.135694 1_544
Mg1 Mg24 3.186453 1_554
Mg1 Mg18 3.186453 1_545
Mg1 Mg14 3.189808 1_544
Mg1 Mg20 3.189808 1_555
Mg2 Mg6 2.966906 1_445
Mg2 Mg9 2.966906 1_555
Mg2 Mg7 3.068573 1_545
Mg2 Mg24 3.135694 1_555
Mg2 Mg23 3.186454 1_545
Mg2 Mg22 3.189807 1_555
Mg3 Mg8 2.966906 1_555
Mg3 Mg7 3.068573 1_545
Mg4 Mg7 2.966906 1_555
Mg4 Mg9 3.068573 1_555
Mg4 Mg6 3.068573 1_455
Mg5 Mg9 2.966906 1_554
Mg5 Mg6 2.966906 1_555
Mg5 Mg8 3.068573 1_554
Mg6 Mg7 2.970450 1_655
Mg6 Mg8 2.970450 1_554
Mg7 Mg8 2.970450 1_565
Mg10 Mg4 2.966906 1_655
Mg10 Mg9 2.970450 1_655
Mg10 Mg11 2.970450 1_545
Mg10 Mg15 2.986951 1_555
Mg10 Mg18 2.986951 1_545
Mg10 Mg2 3.068573 1_655
Mg10 Mg3 3.068573 1_555
Mg11 Mg3 2.966906 1_565
Mg11 Mg9 2.970450 1_554
Mg11 Mg19 2.986951 1_554
Mg11 Mg16 2.986951 1_555
Mg11 Mg5 3.068573 1_555
Mg12 Mg25 2.960653 1_455
Mg12 Mg20 2.960653 1_555
Mg12 Mg22 2.960653 1_555
Mg12 Mg23 2.960653 1_545
Mg12 Mg24 2.960653 1_554
Mg12 Mg21 2.960654 1_555
Mg13 Mg19 2.960653 1_655
Mg13 Mg14 2.960653 1_555
Mg13 Mg16 2.960653 1_555
Mg13 Mg17 2.960653 1_565
Mg13 Mg18 2.960653 1_556
Mg13 Mg15 2.960654 1_555
Mg14 Mg21 2.903127 1_555
Mg14 Mg22 2.903127 1_555
Mg14 Mg9 2.986951 1_555
Mg14 Mg18 3.012791 1_556
Mg14 Mg4 3.135694 1_555
Mg14 Mg5 3.186454 1_556
Mg15 Mg22 2.903127 1_555
Mg15 Mg20 2.903127 1_555
Mg15 Mg19 3.012791 1_655
Mg15 Mg3 3.135694 1_555
Mg15 Mg4 3.186453 1_655
Mg16 Mg21 2.903127 1_555
Mg16 Mg20 2.903127 1_555
Mg16 Mg17 3.012791 1_565
Mg16 Mg5 3.135695 1_555
Mg16 Mg3 3.186454 1_565
Mg16 Mg2 3.189807 1_665
Mg17 Mg24 2.903127 1_655
Mg17 Mg25 2.903127 1_556
Mg17 Mg9 2.986951 1_655
Mg17 Mg2 3.186454 1_655
Mg17 Mg3 3.189807 1_555
Mg18 Mg23 2.903127 1_655
Mg18 Mg25 2.903127 1_565
Mg18 Mg2 3.135694 1_665
Mg18 Mg5 3.189808 1_555
Mg19 Mg24 2.903127 1_565
Mg19 Mg23 2.903127 1_556
Mg19 Mg4 3.189808 1_555
Mg20 Mg6 2.986951 1_555
Mg20 Mg24 3.012791 1_554
Mg20 Mg4 3.135694 1_655
Mg20 Mg5 3.186454 1_555
Mg21 Mg7 2.986951 1_555
Mg21 Mg25 3.012791 1_455
Mg21 Mg3 3.135694 1_565
Mg21 Mg4 3.186453 1_555
Mg22 Mg8 2.986951 1_555
Mg22 Mg23 3.012791 1_545
Mg22 Mg5 3.135695 1_556
Mg22 Mg3 3.186454 1_555
Mg23 Mg6 2.986951 1_455
Mg23 Mg3 3.189807 1_565
Mg24 Mg7 2.986951 1_545
Mg24 Mg5 3.189808 1_556
Mg25 Mg8 2.986951 1_554
Mg25 Mg4 3.189808 1_655
Ir0 Mg16 2.692820 1_555
Ir0 Mg19 2.692820 1_655
Ir0 Mg2 2.710065 1_665
Ir0 Mg4 2.710065 1_655
Ir0 Mg7 2.726783 1_655
Ir0 Mg6 2.726784 1_555
Ir0 Mg13 2.753823 1_555
Ir0 Mg20 2.803484 1_555
Ir0 Mg24 2.803484 1_665
Ir1 Mg15 2.692820 1_555
Ir1 Mg18 2.692820 1_556
Ir1 Mg0 2.710065 1_656
Ir1 Mg5 2.710065 1_556
Ir1 Mg6 2.726784 1_556
Ir1 Mg8 2.726784 1_555
Ir1 Mg13 2.753823 1_555
Ir1 Mg22 2.803484 1_555
Ir1 Mg23 2.803484 1_656
Ir2 Mg17 2.692820 1_565
Ir2 Mg14 2.692820 1_555
Ir2 Mg3 2.710065 1_565
Ir2 Mg1 2.710065 1_566
Ir2 Mg7 2.726783 1_555
Ir2 Mg8 2.726784 1_565
Ir2 Mg13 2.753823 1_555
Ir2 Mg25 2.803484 1_566
Ir2 Mg21 2.803484 1_555
Ir3 Mg22 2.692820 1_555
Ir3 Mg25 2.692820 1_455
Ir3 Mg2 2.710065 1_555
Ir3 Mg4 2.710065 1_555
Ir3 Mg10 2.726783 1_455
Ir3 Mg9 2.726784 1_555
Ir3 Mg12 2.753823 1_555
Ir3 Mg14 2.803484 1_555
Ir3 Mg18 2.803484 1_445
Ir4 Mg21 2.692820 1_555
Ir4 Mg24 2.692820 1_554
Ir4 Mg0 2.710065 1_555
Ir4 Mg5 2.710065 1_555
Ir4 Mg9 2.726784 1_554
Ir4 Mg11 2.726784 1_555
Ir4 Mg12 2.753823 1_555
Ir4 Mg16 2.803484 1_555
Ir4 Mg17 2.803484 1_454
Ir5 Mg23 2.692820 1_545
Ir5 Mg20 2.692820 1_555
Ir5 Mg3 2.710065 1_555
Ir5 Mg1 2.710065 1_555
Ir5 Mg10 2.726783 1_555
Ir5 Mg11 2.726784 1_545
Ir5 Mg12 2.753823 1_555
Ir5 Mg19 2.803484 1_544
Ir5 Mg15 2.803484 1_555
