# generated using pymatgen
data_Fe2Te4HClO12
_symmetry_space_group_name_H-M   'P 1'
_cell_length_a   5.24844100
_cell_length_b   6.59828504
_cell_length_c   9.11962695
_cell_angle_alpha   75.27730393
_cell_angle_beta   83.22374551
_cell_angle_gamma   72.32106150
_symmetry_Int_Tables_number   1
_chemical_formula_structural   Fe2Te4HClO12
_chemical_formula_sum   'Fe2 Te4 H1 Cl1 O12'
_cell_volume   290.73888843
_cell_formula_units_Z   1
loop_
 _symmetry_equiv_pos_site_id
 _symmetry_equiv_pos_as_xyz
  1  'x, y, z'
loop_
 _atom_site_type_symbol
 _atom_site_label
 _atom_site_symmetry_multiplicity
 _atom_site_fract_x
 _atom_site_fract_y
 _atom_site_fract_z
 _atom_site_occupancy
  Fe  Fe0  1  0.70554100  0.13671300  0.43371800  1
  Fe  Fe1  1  0.29445900  0.86328700  0.56628200  1
  Te  Te0  1  0.15345500  0.34113300  0.69374800  1
  Te  Te1  1  0.84654500  0.65886700  0.30625200  1
  Te  Te2  1  0.28573900  0.12172300  0.17143800  1
  Te  Te3  1  0.71426100  0.87827700  0.82856200  1
  H  H0  1  0.00000000  0.50000000  0.00000000  1
  Cl  Cl0  1  0.00000000  0.00000000  0.00000000  1
  O  O0  1  0.23599900  0.58841400  0.56728100  1
  O  O1  1  0.76400100  0.41158600  0.43271900  1
  O  O2  1  0.04272200  0.41847900  0.13276600  1
  O  O3  1  0.95727800  0.58152100  0.86723400  1
  O  O4  1  0.10326700  0.00960800  0.35597000  1
  O  O5  1  0.89673300  0.99039200  0.64403000  1
  O  O6  1  0.54854500  0.79426700  0.16923400  1
  O  O7  1  0.45145500  0.20573300  0.83076600  1
  O  O8  1  0.54988300  0.21676500  0.23315900  1
  O  O9  1  0.45011700  0.78323500  0.76684100  1
  O  O10  1  0.34845500  0.16657100  0.54880000  1
  O  O11  1  0.65154500  0.83342900  0.45120000  1
loop_
_geom_bond_atom_site_label_1
_geom_bond_atom_site_label_2
_geom_bond_distance
_geom_bond_site_symmetry_2
Fe0 O1 1.926818 1_555
Fe0 O8 1.972620 1_555
Fe0 O10 2.017267 1_555
Fe0 O11 2.069292 1_545
Fe0 O4 2.110257 1_655
Fe0 O5 2.131246 1_545
Fe1 O0 1.926818 1_555
Fe1 O9 1.972620 1_555
Fe1 O11 2.017267 1_555
Fe1 O10 2.069292 1_565
Fe1 O5 2.110257 1_455
Fe1 O4 2.131246 1_565
H0 O2 1.210525 1_555
H0 O3 1.210525 1_454
Cl0 Te2 2.694741 1_555
Cl0 Te3 2.694741 1_444
O0 Te0 1.880160 1_555
O1 Te1 1.880160 1_555
O2 Te2 1.955387 1_555
O2 Te1 2.445060 1_455
O3 Te3 1.955387 1_555
O3 Te0 2.445060 1_655
O4 Te2 1.927085 1_555
O5 Te3 1.927085 1_555
O6 Te1 1.962359 1_555
O6 Te2 2.185583 1_565
O7 Te0 1.962359 1_555
O7 Te3 2.185583 1_545
O8 Te2 1.877140 1_555
O9 Te3 1.877140 1_555
O10 Te0 1.964716 1_555
O11 Te1 1.964716 1_555
