# generated using pymatgen
data_Na2U2O7
_symmetry_space_group_name_H-M   'P 1'
_cell_length_a   6.92819393
_cell_length_b   7.91957700
_cell_length_c   12.45284322
_cell_angle_alpha   90.00000000
_cell_angle_beta   79.33119296
_cell_angle_gamma   90.00000000
_symmetry_Int_Tables_number   1
_chemical_formula_structural   Na2U2O7
_chemical_formula_sum   'Na8 U8 O28'
_cell_volume   671.45601138
_cell_formula_units_Z   4
loop_
 _symmetry_equiv_pos_site_id
 _symmetry_equiv_pos_as_xyz
  1  'x, y, z'
loop_
 _atom_site_type_symbol
 _atom_site_label
 _atom_site_symmetry_multiplicity
 _atom_site_fract_x
 _atom_site_fract_y
 _atom_site_fract_z
 _atom_site_occupancy
  Na  Na0  1  0.50000000  0.50000000  0.50000000  1
  Na  Na1  1  0.00000000  0.00000000  0.00000000  1
  Na  Na2  1  0.00000000  0.50000000  0.00000000  1
  Na  Na3  1  0.50000000  0.00000000  0.50000000  1
  Na  Na4  1  0.99959500  0.74578900  0.50596500  1
  Na  Na5  1  0.50040500  0.24578900  0.99403500  1
  Na  Na6  1  0.00040500  0.25421100  0.49403500  1
  Na  Na7  1  0.49959500  0.75421100  0.00596500  1
  U  U0  1  0.73892600  0.75217800  0.25176200  1
  U  U1  1  0.76107400  0.25217800  0.24823800  1
  U  U2  1  0.26107400  0.24782200  0.74823800  1
  U  U3  1  0.23892600  0.74782200  0.75176200  1
  U  U4  1  0.28021500  0.50702300  0.25628900  1
  U  U5  1  0.21978500  0.00702300  0.24371100  1
  U  U6  1  0.71978500  0.49297700  0.74371100  1
  U  U7  1  0.78021500  0.99297700  0.75628900  1
  O  O0  1  0.60993400  0.49879100  0.27009300  1
  O  O1  1  0.89006600  0.99879100  0.22990700  1
  O  O2  1  0.39006600  0.50120900  0.72990700  1
  O  O3  1  0.10993400  0.00120900  0.77009300  1
  O  O4  1  0.46298300  0.18002200  0.23768000  1
  O  O5  1  0.03701700  0.68002200  0.26232000  1
  O  O6  1  0.53701700  0.81997800  0.76232000  1
  O  O7  1  0.96298300  0.31997800  0.73768000  1
  O  O8  1  0.42104800  0.78416900  0.24136800  1
  O  O9  1  0.07895200  0.28416900  0.25863200  1
  O  O10  1  0.57895200  0.21583100  0.75863200  1
  O  O11  1  0.92104800  0.71583100  0.74136800  1
  O  O12  1  0.81966300  0.27556100  0.09428200  1
  O  O13  1  0.68033700  0.77556100  0.40571800  1
  O  O14  1  0.18033700  0.72443900  0.90571800  1
  O  O15  1  0.31966300  0.22443900  0.59428200  1
  O  O16  1  0.79329700  0.72921400  0.09785400  1
  O  O17  1  0.70670300  0.22921400  0.40214600  1
  O  O18  1  0.20670300  0.27078600  0.90214600  1
  O  O19  1  0.29329700  0.77078600  0.59785400  1
  O  O20  1  0.27488100  0.00308700  0.08945100  1
  O  O21  1  0.22511900  0.50308700  0.41054900  1
  O  O22  1  0.72511900  0.99691300  0.91054900  1
  O  O23  1  0.77488100  0.49691300  0.58945100  1
  O  O24  1  0.32943000  0.50177500  0.10362200  1
  O  O25  1  0.17057000  0.00177500  0.39637800  1
  O  O26  1  0.67057000  0.49822500  0.89637800  1
  O  O27  1  0.82943000  0.99822500  0.60362200  1
loop_
_geom_bond_atom_site_label_1
_geom_bond_atom_site_label_2
_geom_bond_distance
_geom_bond_site_symmetry_2
Na0 O23 2.377758 1_555
Na0 O21 2.377758 1_555
Na0 O13 2.675611 1_555
Na0 O15 2.675611 1_555
Na0 O17 2.736517 1_555
Na0 O19 2.736517 1_555
Na0 O2 2.823039 1_555
Na0 O0 2.823039 1_555
Na1 O22 2.377758 1_444
Na1 O20 2.377758 1_555
Na1 O14 2.675611 1_544
Na1 O12 2.675611 1_455
Na1 O16 2.736517 1_445
Na1 O18 2.736517 1_554
Na1 O3 2.823039 1_554
Na1 O1 2.823039 1_445
Na2 O12 2.357057 1_455
Na2 O14 2.357057 1_554
Na2 O18 2.486933 1_554
Na2 O16 2.486933 1_455
Na2 O24 2.822218 1_555
Na2 O26 2.822218 1_454
Na3 O15 2.357057 1_555
Na3 O13 2.357057 1_545
Na3 O17 2.486933 1_555
Na3 O19 2.486933 1_545
Na3 O25 2.822218 1_555
Na3 O27 2.822218 1_545
Na4 O27 2.516883 1_555
Na4 O19 2.520159 1_655
Na4 O25 2.603246 1_665
Na4 O23 2.605798 1_555
Na4 O21 2.619198 1_655
Na4 O13 2.743865 1_555
Na4 O11 2.890517 1_555
Na4 O5 3.041848 1_655
Na5 O26 2.516883 1_555
Na5 O18 2.520159 1_555
Na5 O24 2.603246 1_556
Na5 O22 2.605798 1_545
Na5 O20 2.619198 1_556
Na5 O12 2.743865 1_556
Na5 O10 2.890517 1_555
Na5 O4 3.041848 1_556
Na6 O25 2.516883 1_555
Na6 O17 2.520159 1_455
Na6 O27 2.603246 1_445
Na6 O21 2.605798 1_555
Na6 O23 2.619198 1_455
Na6 O15 2.743865 1_555
Na6 O9 2.890517 1_555
Na6 O7 3.041848 1_455
Na7 O24 2.516883 1_555
Na7 O16 2.520159 1_555
Na7 O26 2.603246 1_554
Na7 O20 2.605798 1_565
Na7 O22 2.619198 1_554
Na7 O14 2.743865 1_554
Na7 O8 2.890517 1_555
Na7 O6 3.041848 1_554
O0 U0 2.191382 1_555
O0 U1 2.208962 1_555
O0 U4 2.323248 1_555
O1 U1 2.191382 1_565
O1 U0 2.208962 1_555
O1 U5 2.323248 1_665
O2 U2 2.191382 1_555
O2 U3 2.208962 1_555
O2 U6 2.323248 1_555
O3 U3 2.191382 1_545
O3 U2 2.208962 1_555
O3 U7 2.323248 1_445
O4 U5 2.162144 1_555
O4 U1 2.170152 1_555
O5 U4 2.162144 1_555
O5 U0 2.170152 1_455
O6 U7 2.162144 1_555
O6 U3 2.170152 1_555
O7 U6 2.162144 1_555
O7 U2 2.170152 1_655
O8 U0 2.244260 1_555
O8 U5 2.246111 1_565
O8 U4 2.395186 1_555
O9 U1 2.244260 1_455
O9 U4 2.246111 1_555
O9 U5 2.395186 1_555
O10 U2 2.244260 1_555
O10 U7 2.246111 1_545
O10 U6 2.395186 1_555
O11 U3 2.244260 1_655
O11 U6 2.246111 1_555
O11 U7 2.395186 1_555
O12 U1 1.893814 1_555
O13 U0 1.893814 1_555
O14 U3 1.893814 1_555
O15 U2 1.893814 1_555
O16 U0 1.892348 1_555
O17 U1 1.892348 1_555
O18 U2 1.892348 1_555
O19 U3 1.892348 1_555
O20 U5 1.888207 1_555
O21 U4 1.888207 1_555
O22 U7 1.888207 1_555
O23 U6 1.888207 1_555
O24 U4 1.868769 1_555
O25 U5 1.868769 1_555
O26 U6 1.868769 1_555
O27 U7 1.868769 1_555
