# generated using pymatgen
data_NiMo4O15
_symmetry_space_group_name_H-M   'P 1'
_cell_length_a   5.64659100
_cell_length_b   7.02922933
_cell_length_c   7.65468921
_cell_angle_alpha   89.54942890
_cell_angle_beta   76.61551303
_cell_angle_gamma   89.19062833
_symmetry_Int_Tables_number   1
_chemical_formula_structural   NiMo4O15
_chemical_formula_sum   'Ni1 Mo4 O15'
_cell_volume   295.53860500
_cell_formula_units_Z   1
loop_
 _symmetry_equiv_pos_site_id
 _symmetry_equiv_pos_as_xyz
  1  'x, y, z'
loop_
 _atom_site_type_symbol
 _atom_site_label
 _atom_site_symmetry_multiplicity
 _atom_site_fract_x
 _atom_site_fract_y
 _atom_site_fract_z
 _atom_site_occupancy
  Ni  Ni0  1  0.00000000  0.00000000  0.00000000  1
  Mo  Mo0  1  0.55361300  0.30585000  0.81965300  1
  Mo  Mo1  1  0.44638700  0.69415000  0.18034700  1
  Mo  Mo2  1  0.86642200  0.34313900  0.39122600  1
  Mo  Mo3  1  0.13357800  0.65686100  0.60877400  1
  O  O0  1  0.78225900  0.17841100  0.89528100  1
  O  O1  1  0.21774100  0.82158900  0.10471900  1
  O  O2  1  0.29776800  0.16296600  0.89018300  1
  O  O3  1  0.70223200  0.83703400  0.10981700  1
  O  O4  1  0.50000000  0.50000000  0.00000000  1
  O  O5  1  0.64368500  0.20684300  0.56869300  1
  O  O6  1  0.35631500  0.79315700  0.43130700  1
  O  O7  1  0.84402400  0.49668800  0.64713300  1
  O  O8  1  0.15597600  0.50331200  0.35286700  1
  O  O9  1  0.33201400  0.50000600  0.69546500  1
  O  O10  1  0.66798600  0.49999400  0.30453500  1
  O  O11  1  0.95473600  0.17078500  0.21823600  1
  O  O12  1  0.04526400  0.82921500  0.78176400  1
  O  O13  1  0.13458300  0.18402000  0.49083500  1
  O  O14  1  0.86541700  0.81598000  0.50916500  1
loop_
_geom_bond_atom_site_label_1
_geom_bond_atom_site_label_2
_geom_bond_distance
_geom_bond_site_symmetry_2
Ni0 O11 2.030360 1_455
Ni0 O12 2.030360 1_544
Ni0 O1 2.030729 1_545
Ni0 O0 2.030729 1_454
Ni0 O2 2.056890 1_554
Ni0 O3 2.056890 1_445
Mo0 O2 1.748890 1_555
Mo0 O0 1.763420 1_555
Mo0 O4 1.919473 1_556
Mo0 O5 1.998005 1_555
Mo0 O9 2.194086 1_555
Mo0 O7 2.294380 1_555
Mo1 O3 1.748890 1_555
Mo1 O1 1.763420 1_555
Mo1 O4 1.919473 1_555
Mo1 O6 1.998005 1_555
Mo1 O10 2.194086 1_555
Mo1 O8 2.294380 1_555
Mo2 O11 1.781112 1_555
Mo2 O10 1.791462 1_555
Mo2 O5 1.888826 1_555
Mo2 O8 1.962549 1_655
Mo2 O13 2.144393 1_655
Mo2 O7 2.221012 1_555
Mo3 O12 1.781112 1_555
Mo3 O9 1.791462 1_555
Mo3 O6 1.888826 1_555
Mo3 O7 1.962549 1_455
Mo3 O14 2.144393 1_455
Mo3 O8 2.221012 1_555
