# generated using pymatgen
data_Ce(ZnAu2)2
_symmetry_space_group_name_H-M   'P 1'
_cell_length_a   5.63185124
_cell_length_b   5.63185124
_cell_length_c   5.63185124
_cell_angle_alpha   103.01570506
_cell_angle_beta   103.01570506
_cell_angle_gamma   123.33708946
_symmetry_Int_Tables_number   1
_chemical_formula_structural   Ce(ZnAu2)2
_chemical_formula_sum   'Ce1 Zn2 Au4'
_cell_volume   131.36045416
_cell_formula_units_Z   1
loop_
 _symmetry_equiv_pos_site_id
 _symmetry_equiv_pos_as_xyz
  1  'x, y, z'
loop_
 _atom_site_type_symbol
 _atom_site_label
 _atom_site_symmetry_multiplicity
 _atom_site_fract_x
 _atom_site_fract_y
 _atom_site_fract_z
 _atom_site_occupancy
  Ce  Ce0  1  0.00000000  -0.00000000  0.00000000  1
  Zn  Zn0  1  0.25000000  0.75000000  0.50000000  1
  Zn  Zn1  1  0.75000000  0.25000000  0.50000000  1
  Au  Au0  1  0.30157697  0.30157697  0.60315494  1
  Au  Au1  1  0.69842303  0.69842303  0.39684506  1
  Au  Au2  1  0.69842303  0.30157697  0.00000000  1
  Au  Au3  1  0.30157697  0.69842303  -0.00000000  1
loop_
_geom_bond_atom_site_label_1
_geom_bond_atom_site_label_2
_geom_bond_distance
_geom_bond_site_symmetry_2
Zn0 Zn1 2.672716 1_455
Zn0 Zn1 2.672716 1_565
Au0 Au2 2.782130 1_556
Au0 Au3 2.782130 1_556
Au0 Au1 2.861706 1_445
Au0 Au1 2.861716 1_555
Au0 Zn0 2.861979 1_545
Au0 Zn1 2.861979 1_455
Au0 Zn1 2.861982 1_555
Au0 Zn0 2.861982 1_555
Au0 Ce0 2.989990 1_555
Au0 Ce0 3.318661 1_556
Au0 Ce0 3.318665 1_666
Au1 Au2 2.782130 1_555
Au1 Au3 2.782130 1_555
Au1 Zn0 2.861979 1_655
Au1 Zn1 2.861979 1_565
Au1 Zn0 2.861982 1_555
Au1 Zn1 2.861982 1_555
Au1 Ce0 2.989990 1_666
Au1 Ce0 3.318661 1_665
Au1 Ce0 3.318665 1_555
Au2 Au3 2.861707 1_545
Au2 Au3 2.861707 1_655
Au2 Zn0 2.861979 1_544
Au2 Zn0 2.861979 1_655
Au2 Zn1 2.861979 1_555
Au2 Zn1 2.861979 1_554
Au2 Ce0 2.989985 1_655
Au2 Ce0 3.318666 1_555
Au2 Ce0 3.318666 1_665
Au3 Zn0 2.861979 1_555
Au3 Zn0 2.861979 1_554
Au3 Zn1 2.861979 1_565
Au3 Zn1 2.861979 1_454
Au3 Ce0 2.989985 1_565
Au3 Ce0 3.318666 1_555
Au3 Ce0 3.318666 1_665
