# generated using pymatgen
data_FePH5CO4
_symmetry_space_group_name_H-M   'P 1'
_cell_length_a   4.84398847
_cell_length_b   5.79970915
_cell_length_c   18.02127602
_cell_angle_alpha   89.88793363
_cell_angle_beta   90.36113565
_cell_angle_gamma   90.48347731
_symmetry_Int_Tables_number   1
_chemical_formula_structural   FePH5CO4
_chemical_formula_sum   'Fe4 P4 H20 C4 O16'
_cell_volume   506.25576198
_cell_formula_units_Z   4
loop_
 _symmetry_equiv_pos_site_id
 _symmetry_equiv_pos_as_xyz
  1  'x, y, z'
loop_
 _atom_site_type_symbol
 _atom_site_label
 _atom_site_symmetry_multiplicity
 _atom_site_fract_x
 _atom_site_fract_y
 _atom_site_fract_z
 _atom_site_occupancy
  Fe  Fe0  1  0.72320200  0.49954600  0.51251300  1
  Fe  Fe1  1  0.22248900  0.99847100  0.48745900  1
  Fe  Fe2  1  0.72158300  0.50242800  0.01216100  1
  Fe  Fe3  1  0.22428400  0.99972400  0.98775600  1
  P  P0  1  0.65998500  0.00327400  0.09492000  1
  P  P1  1  0.66041200  0.99949800  0.59493600  1
  P  P2  1  0.15765000  0.49849100  0.40499600  1
  P  P3  1  0.16090900  0.49736900  0.90619400  1
  H  H0  1  0.85685000  0.50011300  0.29902600  1
  H  H1  1  0.86190300  0.49977100  0.80044300  1
  H  H2  1  0.35882700  0.99885100  0.19981200  1
  H  H3  1  0.36004500  0.99959700  0.69976900  1
  H  H4  1  0.13539100  0.36381300  0.09826400  1
  H  H5  1  0.14798000  0.36580200  0.60058800  1
  H  H6  1  0.64574300  0.13556000  0.40029700  1
  H  H7  1  0.65216400  0.13333700  0.90052700  1
  H  H8  1  0.64477200  0.86509600  0.39959800  1
  H  H9  1  0.64077700  0.86322000  0.89986900  1
  H  H10  1  0.13817200  0.63593100  0.09843100  1
  H  H11  1  0.14677300  0.63634500  0.60025300  1
  H  H12  1  0.16942500  0.34751500  0.28112600  1
  H  H13  1  0.17348400  0.34742600  0.78179200  1
  H  H14  1  0.67092500  0.84504200  0.21877300  1
  H  H15  1  0.67192200  0.84650400  0.71906700  1
  H  H16  1  0.67263100  0.15304900  0.21915200  1
  H  H17  1  0.67361600  0.15461400  0.71895100  1
  H  H18  1  0.17097200  0.65564400  0.28125300  1
  H  H19  1  0.17457500  0.65577100  0.78211100  1
  C  C0  1  0.58355000  0.99924000  0.19263600  1
  C  C1  1  0.58483100  0.00036200  0.69265000  1
  C  C2  1  0.08148300  0.50102800  0.30707500  1
  C  C3  1  0.08685000  0.50081600  0.80812000  1
  O  O0  1  0.01558300  0.49997100  0.10027700  1
  O  O1  1  0.02581800  0.49979400  0.60448600  1
  O  O2  1  0.52329600  0.99978900  0.39596500  1
  O  O3  1  0.52498000  0.00101500  0.89536100  1
  O  O4  1  0.47033600  0.50149400  0.41584700  1
  O  O5  1  0.47364300  0.50191800  0.91824200  1
  O  O6  1  0.97266200  0.00024000  0.08496800  1
  O  O7  1  0.97290800  0.00180500  0.58421000  1
  O  O8  1  0.51851900  0.21988800  0.06000200  1
  O  O9  1  0.51563900  0.21437100  0.55879700  1
  O  O10  1  0.01326600  0.71195400  0.44138700  1
  O  O11  1  0.01248400  0.70668200  0.94303400  1
  O  O12  1  0.01145200  0.28330700  0.43999800  1
  O  O13  1  0.01883500  0.27775600  0.93985700  1
  O  O14  1  0.51011300  0.79168700  0.05752200  1
  O  O15  1  0.51308400  0.78507800  0.55952800  1
loop_
_geom_bond_atom_site_label_1
_geom_bond_atom_site_label_2
_geom_bond_distance
_geom_bond_site_symmetry_2
Fe0 O9 2.102193 1_555
Fe0 O4 2.123308 1_555
Fe0 O15 2.130951 1_555
Fe0 O1 2.205749 1_655
Fe0 O10 2.263201 1_655
Fe0 O12 2.299815 1_655
Fe1 O10 2.108116 1_555
Fe1 O12 2.125444 1_565
Fe1 O7 2.128176 1_465
Fe1 O2 2.207246 1_555
Fe1 O9 2.278243 1_565
Fe1 O15 2.280357 1_555
Fe2 O5 2.069174 1_554
Fe2 O8 2.091410 1_555
Fe2 O0 2.126436 1_655
Fe2 O14 2.139364 1_555
Fe2 O11 2.220141 1_654
Fe2 O13 2.351798 1_654
Fe3 O13 2.084827 1_565
Fe3 O11 2.134513 1_555
Fe3 O6 2.140493 1_466
Fe3 O3 2.219113 1_565
Fe3 O14 2.225715 1_556
Fe3 O8 2.304202 1_566
H4 O0 0.984795 1_555
H5 O1 0.983621 1_555
H6 O2 0.984746 1_545
H7 O3 0.984248 1_555
H8 O2 0.983793 1_555
H9 O3 0.983179 1_565
H10 O0 0.983743 1_555
H11 O1 0.984273 1_555
C0 H16 1.096751 1_565
C0 H14 1.096815 1_555
C0 H2 1.097002 1_555
C0 P0 1.801818 1_565
C1 H17 1.096610 1_555
C1 H15 1.096827 1_545
C1 H3 1.097166 1_545
C1 P1 1.800871 1_545
C2 H18 1.096780 1_555
C2 H0 1.096809 1_455
C2 H12 1.096986 1_555
C2 P2 1.800598 1_555
C3 H19 1.096511 1_555
C3 H13 1.096862 1_555
C3 H1 1.097491 1_455
C3 P3 1.801348 1_555
O4 P2 1.525953 1_555
O5 P3 1.529019 1_555
O6 P0 1.526560 1_555
O7 P1 1.527170 1_545
O8 P0 1.565197 1_555
O9 P1 1.573143 1_545
O10 P2 1.573377 1_555
O11 P3 1.566930 1_555
O12 P2 1.563508 1_555
O13 P3 1.565691 1_555
O14 P0 1.571362 1_565
O15 P1 1.563756 1_555
