# generated using pymatgen
data_Li3MnCoO5
_symmetry_space_group_name_H-M   'P 1'
_cell_length_a   5.13300074
_cell_length_b   5.13300074
_cell_length_c   12.94816327
_cell_angle_alpha   78.25352679
_cell_angle_beta   78.25352679
_cell_angle_gamma   32.73140442
_symmetry_Int_Tables_number   1
_chemical_formula_structural   Li3MnCoO5
_chemical_formula_sum   'Li6 Mn2 Co2 O10'
_cell_volume   180.26258568
_cell_formula_units_Z   2
loop_
 _symmetry_equiv_pos_site_id
 _symmetry_equiv_pos_as_xyz
  1  'x, y, z'
loop_
 _atom_site_type_symbol
 _atom_site_label
 _atom_site_symmetry_multiplicity
 _atom_site_fract_x
 _atom_site_fract_y
 _atom_site_fract_z
 _atom_site_occupancy
  Li  Li0  1  0.30266200  0.30266200  0.88810200  1
  Li  Li1  1  0.90900900  0.90900900  0.71210600  1
  Li  Li2  1  0.49761900  0.49761900  0.51045000  1
  Li  Li3  1  0.10316300  0.10316300  0.29581900  1
  Li  Li4  1  0.69287800  0.69287800  0.09342800  1
  Li  Li5  1  0.59714900  0.59714900  0.80121300  1
  Mn  Mn0  1  0.99567500  0.99567500  0.99248600  1
  Mn  Mn1  1  0.79893800  0.79893800  0.40128600  1
  Co  Co0  1  0.20376900  0.20376900  0.61933800  1
  Co  Co1  1  0.39918300  0.39918300  0.19724200  1
  O  O0  1  0.36085800  0.36085800  0.04797300  1
  O  O1  1  0.94900500  0.94900500  0.86357500  1
  O  O2  1  0.56691000  0.56691000  0.64404900  1
  O  O3  1  0.16855400  0.16855400  0.44222700  1
  O  O4  1  0.75749400  0.75749400  0.25711600  1
  O  O5  1  0.25772900  0.25772900  0.74160200  1
  O  O6  1  0.83978400  0.83978400  0.53863300  1
  O  O7  1  0.43341900  0.43341900  0.35336200  1
  O  O8  1  0.03965200  0.03965200  0.14393900  1
  O  O9  1  0.62654900  0.62654900  0.95605500  1
loop_
_geom_bond_atom_site_label_1
_geom_bond_atom_site_label_2
_geom_bond_distance
_geom_bond_site_symmetry_2
Li0 O1 2.018982 1_545
Li0 O1 2.018982 1_455
Li0 O5 2.037256 1_555
Li0 O0 2.262121 1_556
Li0 O9 2.286381 1_545
Li0 O9 2.286381 1_455
Li1 O5 2.053441 1_655
Li1 O5 2.053441 1_565
Li1 O1 2.080762 1_555
Li1 O2 2.169285 1_655
Li1 O2 2.169285 1_565
Li1 O6 2.481956 1_555
Li2 O2 1.989793 1_555
Li2 O6 2.097920 1_455
Li2 O6 2.097920 1_545
Li2 O3 2.252974 1_655
Li2 O3 2.252974 1_565
Li2 O7 2.254525 1_555
Li3 O4 2.081005 1_545
Li3 O4 2.081005 1_455
Li3 O3 2.127619 1_555
Li3 O8 2.186507 1_555
Li3 O7 2.216720 1_455
Li3 O7 2.216720 1_545
Li4 O9 2.020863 1_554
Li4 O8 2.092514 1_565
Li4 O8 2.092514 1_655
Li4 O0 2.182362 1_655
Li4 O0 2.182362 1_565
Li4 O4 2.338728 1_555
Li5 O9 2.085653 1_555
Li5 O1 2.091209 1_455
Li5 O1 2.091209 1_545
Li5 O2 2.118277 1_555
Li5 O5 2.161327 1_655
Li5 O5 2.161327 1_565
Mn0 O1 1.822920 1_555
Mn0 O9 1.928238 1_655
Mn0 O9 1.928238 1_565
Mn0 O0 1.991629 1_656
Mn0 O0 1.991629 1_566
Mn0 O8 2.096137 1_666
Mn1 O6 1.904778 1_555
Mn1 O3 1.932181 1_655
Mn1 O3 1.932181 1_565
Mn1 O7 1.970467 1_565
Mn1 O7 1.970467 1_655
Mn1 O4 1.993674 1_555
Co0 O5 1.773628 1_555
Co0 O2 1.956640 1_455
Co0 O2 1.956640 1_545
Co0 O6 2.093953 1_545
Co0 O6 2.093953 1_455
Co0 O3 2.391010 1_555
Co1 O8 2.019243 1_565
Co1 O8 2.019243 1_655
Co1 O4 2.044875 1_545
Co1 O4 2.044875 1_455
Co1 O0 2.046384 1_555
Co1 O7 2.118804 1_555
