# generated using pymatgen
data_Ti(CrSe2)2
_symmetry_space_group_name_H-M   'P 1'
_cell_length_a   6.98080642
_cell_length_b   6.98080642
_cell_length_c   6.52292131
_cell_angle_alpha   62.72570681
_cell_angle_beta   62.72570681
_cell_angle_gamma   30.25059248
_symmetry_Int_Tables_number   1
_chemical_formula_structural   Ti(CrSe2)2
_chemical_formula_sum   'Ti1 Cr2 Se4'
_cell_volume   140.94624655
_cell_formula_units_Z   1
loop_
 _symmetry_equiv_pos_site_id
 _symmetry_equiv_pos_as_xyz
  1  'x, y, z'
loop_
 _atom_site_type_symbol
 _atom_site_label
 _atom_site_symmetry_multiplicity
 _atom_site_fract_x
 _atom_site_fract_y
 _atom_site_fract_z
 _atom_site_occupancy
  Ti  Ti0  1  0.00000000  0.00000000  0.00000000  1
  Cr  Cr0  1  0.73895600  0.73895600  0.27881000  1
  Cr  Cr1  1  0.26104400  0.26104400  0.72119000  1
  Se  Se0  1  0.87583100  0.87583100  0.44689900  1
  Se  Se1  1  0.12416900  0.12416900  0.55310100  1
  Se  Se2  1  0.63413600  0.63413600  0.02726800  1
  Se  Se3  1  0.36586400  0.36586400  0.97273200  1
loop_
_geom_bond_atom_site_label_1
_geom_bond_atom_site_label_2
_geom_bond_distance
_geom_bond_site_symmetry_2
Cr0 Se1 2.506912 1_565
Cr0 Se1 2.506912 1_655
Cr0 Se0 2.554555 1_555
Cr0 Se2 2.624652 1_555
Cr0 Se3 2.643392 1_564
Cr0 Se3 2.643392 1_654
Cr1 Se0 2.506912 1_455
Cr1 Se0 2.506912 1_545
Cr1 Se1 2.554555 1_555
Cr1 Se3 2.624652 1_555
Cr1 Se2 2.643392 1_546
Cr1 Se2 2.643392 1_456
Se0 Ti0 2.582025 1_665
Se1 Ti0 2.582025 1_556
Se2 Ti0 2.631204 1_565
Se2 Ti0 2.631204 1_655
Se3 Ti0 2.631204 1_566
Se3 Ti0 2.631204 1_656
