# generated using pymatgen
data_Li2VFeP2(HO5)2
_symmetry_space_group_name_H-M   'P 1'
_cell_length_a   5.43307293
_cell_length_b   7.38772573
_cell_length_c   10.32812736
_cell_angle_alpha   108.74889392
_cell_angle_beta   97.91084902
_cell_angle_gamma   106.16557873
_symmetry_Int_Tables_number   1
_chemical_formula_structural   Li2VFeP2(HO5)2
_chemical_formula_sum   'Li4 V2 Fe2 P4 H4 O20'
_cell_volume   365.08699407
_cell_formula_units_Z   2
loop_
 _symmetry_equiv_pos_site_id
 _symmetry_equiv_pos_as_xyz
  1  'x, y, z'
loop_
 _atom_site_type_symbol
 _atom_site_label
 _atom_site_symmetry_multiplicity
 _atom_site_fract_x
 _atom_site_fract_y
 _atom_site_fract_z
 _atom_site_occupancy
  Li  Li0  1  0.39725541  0.82241292  0.87296486  1
  Li  Li1  1  0.39744458  0.82352548  0.37334452  1
  Li  Li2  1  0.60255542  0.17647452  0.62665548  1
  Li  Li3  1  0.60274459  0.17758708  0.12703514  1
  V  V0  1  0.00000000  0.50000000  0.50000000  1
  V  V1  1  0.00000000  0.00000000  -0.00000000  1
  Fe  Fe0  1  0.00000000  0.50000000  -0.00000000  1
  Fe  Fe1  1  0.00000000  0.00000000  0.50000000  1
  P  P0  1  0.36167813  0.23188336  0.83802079  1
  P  P1  1  0.63805945  0.76767577  0.66189615  1
  P  P2  1  0.36194055  0.23232423  0.33810385  1
  P  P3  1  0.63832187  0.76811664  0.16197921  1
  H  H0  1  0.05897053  0.33788094  0.68046279  1
  H  H1  1  0.05961930  0.34157333  0.18094773  1
  H  H2  1  0.94038070  0.65842667  0.81905227  1
  H  H3  1  0.94102947  0.66211906  0.31953721  1
  O  O0  1  0.04858943  0.72199399  0.91850136  1
  O  O1  1  0.04958540  0.72482612  0.41900080  1
  O  O2  1  0.20490120  0.37969459  0.86356038  1
  O  O3  1  0.34625980  0.65879985  0.65471885  1
  O  O4  1  0.20322502  0.37974039  0.36309359  1
  O  O5  1  0.34435395  0.65996544  0.15364114  1
  O  O6  1  0.24963661  0.07035587  0.68411144  1
  O  O7  1  0.34092552  0.11929380  0.94316857  1
  O  O8  1  0.25173372  0.07108736  0.18503964  1
  O  O9  1  0.34186753  0.12077947  0.44375317  1
  O  O10  1  0.65813247  0.87922053  0.55624683  1
  O  O11  1  0.74826628  0.92891264  0.81496036  1
  O  O12  1  0.65907448  0.88070620  0.05683143  1
  O  O13  1  0.75036339  0.92964413  0.31588856  1
  O  O14  1  0.65564605  0.34003456  0.84635886  1
  O  O15  1  0.79677498  0.62025961  0.63690641  1
  O  O16  1  0.65374020  0.34120015  0.34528115  1
  O  O17  1  0.79509880  0.62030541  0.13643962  1
  O  O18  1  0.95041460  0.27517388  0.58099920  1
  O  O19  1  0.95141057  0.27800601  0.08149864  1
loop_
_geom_bond_atom_site_label_1
_geom_bond_atom_site_label_2
_geom_bond_distance
_geom_bond_site_symmetry_2
Li0 O0 2.011723 1_555
Li0 O12 2.050538 1_556
Li0 O11 2.096861 1_555
Li0 O3 2.123389 1_555
Li0 O7 2.200544 1_565
Li1 O1 2.006219 1_555
Li1 O10 2.045273 1_555
Li1 O13 2.102032 1_555
Li1 O5 2.134332 1_555
Li1 O9 2.201280 1_565
Li2 O18 2.006219 1_555
Li2 O9 2.045273 1_555
Li2 O6 2.102032 1_555
Li2 O14 2.134332 1_555
Li2 O10 2.201280 1_545
Li3 O19 2.011723 1_555
Li3 O7 2.050538 1_554
Li3 O8 2.096861 1_555
Li3 O16 2.123389 1_555
Li3 O12 2.200544 1_545
Fe0 O14 2.039861 1_454
Fe0 O5 2.039861 1_555
Fe0 O0 2.043380 1_554
Fe0 O19 2.043380 1_455
Fe0 O2 2.047592 1_554
Fe0 O17 2.047592 1_455
Fe1 O13 1.996918 1_445
Fe1 O6 1.996918 1_555
Fe1 O1 2.044230 1_545
Fe1 O18 2.044230 1_455
Fe1 O9 2.071457 1_555
Fe1 O10 2.071457 1_445
H0 O18 0.996450 1_455
H1 O19 0.995552 1_455
H2 O0 0.995552 1_655
H3 O1 0.996450 1_655
O0 V1 2.061109 1_566
O1 V0 2.058471 1_555
O2 P0 1.543423 1_555
O3 P1 1.544385 1_555
O3 V0 2.051186 1_555
O4 P2 1.549119 1_555
O4 V0 2.043580 1_555
O5 P3 1.550491 1_555
O6 P0 1.559209 1_555
O7 P0 1.563996 1_555
O7 V1 2.067602 1_556
O8 P2 1.551877 1_555
O8 V1 2.008504 1_555
O9 P2 1.562801 1_555
O10 P1 1.562801 1_555
O11 P1 1.551877 1_555
O11 V1 2.008504 1_666
O12 P3 1.563996 1_555
O12 V1 2.067602 1_665
O13 P3 1.559209 1_555
O14 P0 1.550491 1_555
O15 P1 1.549119 1_555
O15 V0 2.043580 1_655
O16 P2 1.544385 1_555
O16 V0 2.051186 1_655
O17 P3 1.543423 1_555
O18 V0 2.058471 1_655
O19 V1 2.061109 1_655
