# generated using pymatgen
data_BaFe2PbO5
_symmetry_space_group_name_H-M   'P 1'
_cell_length_a   4.02615200
_cell_length_b   5.85742900
_cell_length_c   21.60656400
_cell_angle_alpha   90.00000000
_cell_angle_beta   90.00000000
_cell_angle_gamma   90.00000000
_symmetry_Int_Tables_number   1
_chemical_formula_structural   BaFe2PbO5
_chemical_formula_sum   'Ba4 Fe8 Pb4 O20'
_cell_volume   509.54542699
_cell_formula_units_Z   4
loop_
 _symmetry_equiv_pos_site_id
 _symmetry_equiv_pos_as_xyz
  1  'x, y, z'
loop_
 _atom_site_type_symbol
 _atom_site_label
 _atom_site_symmetry_multiplicity
 _atom_site_fract_x
 _atom_site_fract_y
 _atom_site_fract_z
 _atom_site_occupancy
  Ba  Ba0  1  0.25000000  0.51991100  0.18460400  1
  Ba  Ba1  1  0.75000000  0.48008900  0.81539600  1
  Ba  Ba2  1  0.75000000  0.98008900  0.68460400  1
  Ba  Ba3  1  0.25000000  0.01991100  0.31539600  1
  Fe  Fe0  1  0.25000000  0.97791200  0.81326600  1
  Fe  Fe1  1  0.75000000  0.02208800  0.18673400  1
  Fe  Fe2  1  0.75000000  0.52208800  0.31326600  1
  Fe  Fe3  1  0.25000000  0.47791200  0.68673400  1
  Fe  Fe4  1  0.25000000  0.98057600  0.55319500  1
  Fe  Fe5  1  0.75000000  0.01942400  0.44680500  1
  Fe  Fe6  1  0.75000000  0.51942400  0.05319500  1
  Fe  Fe7  1  0.25000000  0.48057600  0.94680500  1
  Pb  Pb0  1  0.25000000  0.01083300  0.07111300  1
  Pb  Pb1  1  0.75000000  0.98916700  0.92888700  1
  Pb  Pb2  1  0.75000000  0.48916700  0.57111300  1
  Pb  Pb3  1  0.25000000  0.51083300  0.42888700  1
  O  O0  1  0.25000000  0.55939700  0.03738700  1
  O  O1  1  0.75000000  0.44060300  0.96261300  1
  O  O2  1  0.75000000  0.94060300  0.53738700  1
  O  O3  1  0.25000000  0.05939700  0.46261300  1
  O  O4  1  0.25000000  0.71405800  0.60895600  1
  O  O5  1  0.75000000  0.28594200  0.39104400  1
  O  O6  1  0.75000000  0.78594200  0.10895600  1
  O  O7  1  0.25000000  0.21405800  0.89104400  1
  O  O8  1  0.25000000  0.73331900  0.89079200  1
  O  O9  1  0.75000000  0.26668100  0.10920800  1
  O  O10  1  0.75000000  0.76668100  0.39079200  1
  O  O11  1  0.25000000  0.23331900  0.60920800  1
  O  O12  1  0.25000000  0.72838700  0.74994500  1
  O  O13  1  0.75000000  0.27161300  0.25005500  1
  O  O14  1  0.75000000  0.77161300  0.24994500  1
  O  O15  1  0.25000000  0.22838700  0.75005500  1
  O  O16  1  0.25000000  0.52045400  0.32301000  1
  O  O17  1  0.75000000  0.47954600  0.67699000  1
  O  O18  1  0.75000000  0.97954600  0.82301000  1
  O  O19  1  0.25000000  0.02045400  0.17699000  1
loop_
_geom_bond_atom_site_label_1
_geom_bond_atom_site_label_2
_geom_bond_distance
_geom_bond_site_symmetry_2
Ba0 O13 2.857901 1_455
Ba0 O13 2.857901 1_555
Ba0 O14 2.866928 1_555
Ba0 O14 2.866928 1_455
Ba0 O19 2.930156 1_555
Ba0 O19 2.936507 1_565
Ba0 O9 2.984357 1_455
Ba0 O9 2.984357 1_555
Ba0 O16 2.990480 1_555
Ba0 O6 3.025262 1_555
Ba0 O6 3.025262 1_455
Ba0 O0 3.189251 1_555
Ba1 O12 2.857901 1_655
Ba1 O12 2.857901 1_555
Ba1 O15 2.866928 1_555
Ba1 O15 2.866928 1_655
Ba1 O18 2.930156 1_555
Ba1 O18 2.936507 1_545
Ba1 O8 2.984357 1_555
Ba1 O8 2.984357 1_655
Ba1 O17 2.990480 1_555
Ba1 O7 3.025262 1_655
Ba1 O7 3.025262 1_555
Ba1 O1 3.189251 1_555
Ba2 O15 2.857901 1_665
Ba2 O15 2.857901 1_565
Ba2 O12 2.866928 1_655
Ba2 O12 2.866928 1_555
Ba2 O17 2.930156 1_565
Ba2 O17 2.936507 1_555
Ba2 O11 2.984357 1_565
Ba2 O11 2.984357 1_665
Ba2 O18 2.990480 1_555
Ba2 O4 3.025262 1_555
Ba2 O4 3.025262 1_655
Ba2 O2 3.189251 1_555
Ba3 O14 2.857901 1_545
Ba3 O14 2.857901 1_445
Ba3 O13 2.866928 1_455
Ba3 O13 2.866928 1_555
Ba3 O16 2.930156 1_545
Ba3 O16 2.936507 1_555
Ba3 O10 2.984357 1_445
Ba3 O10 2.984357 1_545
Ba3 O19 2.990480 1_555
Ba3 O5 3.025262 1_455
Ba3 O5 3.025262 1_555
Ba3 O3 3.189251 1_555
Fe0 O12 2.002007 1_555
Fe0 O15 2.004453 1_565
Fe0 O18 2.024078 1_455
Fe0 O18 2.024078 1_555
Fe0 O7 2.176556 1_565
Fe0 O8 2.204189 1_555
Fe1 O13 2.002007 1_555
Fe1 O14 2.004453 1_545
Fe1 O19 2.024078 1_555
Fe1 O19 2.024078 1_655
Fe1 O6 2.176556 1_545
Fe1 O9 2.204189 1_555
Fe2 O14 2.002007 1_555
Fe2 O13 2.004453 1_555
Fe2 O16 2.024078 1_655
Fe2 O16 2.024078 1_555
Fe2 O5 2.176556 1_555
Fe2 O10 2.204189 1_555
Fe3 O15 2.002007 1_555
Fe3 O12 2.004453 1_555
Fe3 O17 2.024078 1_455
Fe3 O17 2.024078 1_555
Fe3 O4 2.176556 1_555
Fe3 O11 2.204189 1_555
Fe4 O11 1.912160 1_565
Fe4 O4 1.971958 1_555
Fe4 O3 2.010884 1_565
Fe4 O2 2.055227 1_555
Fe4 O2 2.055227 1_455
Fe5 O10 1.912160 1_545
Fe5 O5 1.971958 1_555
Fe5 O2 2.010884 1_545
Fe5 O3 2.055227 1_655
Fe5 O3 2.055227 1_555
Fe6 O9 1.912160 1_555
Fe6 O6 1.971958 1_555
Fe6 O1 2.010884 1_554
Fe6 O0 2.055227 1_555
Fe6 O0 2.055227 1_655
Fe7 O8 1.912160 1_555
Fe7 O7 1.971958 1_555
Fe7 O0 2.010884 1_556
Fe7 O1 2.055227 1_555
Fe7 O1 2.055227 1_455
O0 Pb0 2.742825 1_565
O1 Pb1 2.742825 1_545
O2 Pb2 2.742825 1_555
O3 Pb3 2.742825 1_555
O4 Pb2 2.540920 1_555
O4 Pb2 2.540920 1_455
O5 Pb3 2.540920 1_655
O5 Pb3 2.540920 1_555
O6 Pb0 2.540920 1_665
O6 Pb0 2.540920 1_565
O7 Pb1 2.540920 1_445
O7 Pb1 2.540920 1_545
O8 Pb1 2.641176 1_555
O8 Pb1 2.641176 1_455
O9 Pb0 2.641176 1_655
O9 Pb0 2.641176 1_555
O10 Pb3 2.641176 1_655
O10 Pb3 2.641176 1_555
O11 Pb2 2.641176 1_555
O11 Pb2 2.641176 1_455
O16 Pb3 2.288332 1_555
O17 Pb2 2.288332 1_555
O18 Pb1 2.288332 1_555
O19 Pb0 2.288332 1_555
