# generated using pymatgen
data_YMnN2
_symmetry_space_group_name_H-M   'P 1'
_cell_length_a   6.42772800
_cell_length_b   11.20779800
_cell_length_c   13.01744000
_cell_angle_alpha   90.00000000
_cell_angle_beta   90.00000000
_cell_angle_gamma   90.00000000
_symmetry_Int_Tables_number   1
_chemical_formula_structural   YMnN2
_chemical_formula_sum   'Y16 Mn16 N32'
_cell_volume   937.78519071
_cell_formula_units_Z   16
loop_
 _symmetry_equiv_pos_site_id
 _symmetry_equiv_pos_as_xyz
  1  'x, y, z'
loop_
 _atom_site_type_symbol
 _atom_site_label
 _atom_site_symmetry_multiplicity
 _atom_site_fract_x
 _atom_site_fract_y
 _atom_site_fract_z
 _atom_site_occupancy
  Y  Y0  1  0.53783500  0.07943800  0.30388600  1
  Y  Y1  1  0.03783500  0.42056200  0.69611400  1
  Y  Y2  1  0.46216500  0.57943800  0.19611400  1
  Y  Y3  1  0.96216500  0.92056200  0.80388600  1
  Y  Y4  1  0.46216500  0.92056200  0.69611400  1
  Y  Y5  1  0.96216500  0.57943800  0.30388600  1
  Y  Y6  1  0.53783500  0.42056200  0.80388600  1
  Y  Y7  1  0.03783500  0.07943800  0.19611400  1
  Y  Y8  1  0.90324800  0.27951400  0.44893600  1
  Y  Y9  1  0.40324800  0.22048600  0.55106400  1
  Y  Y10  1  0.09675200  0.77951400  0.05106400  1
  Y  Y11  1  0.59675200  0.72048600  0.94893600  1
  Y  Y12  1  0.09675200  0.72048600  0.55106400  1
  Y  Y13  1  0.59675200  0.77951400  0.44893600  1
  Y  Y14  1  0.90324800  0.22048600  0.94893600  1
  Y  Y15  1  0.40324800  0.27951400  0.05106400  1
  Mn  Mn0  1  0.15481200  0.96045500  0.46119400  1
  Mn  Mn1  1  0.65481200  0.53954500  0.53880600  1
  Mn  Mn2  1  0.84518800  0.46045500  0.03880600  1
  Mn  Mn3  1  0.34518800  0.03954500  0.96119400  1
  Mn  Mn4  1  0.84518800  0.03954500  0.53880600  1
  Mn  Mn5  1  0.34518800  0.46045500  0.46119400  1
  Mn  Mn6  1  0.15481200  0.53954500  0.96119400  1
  Mn  Mn7  1  0.65481200  0.96045500  0.03880600  1
  Mn  Mn8  1  0.26934800  0.33181800  0.28610700  1
  Mn  Mn9  1  0.76934800  0.16818200  0.71389300  1
  Mn  Mn10  1  0.73065200  0.83181800  0.21389300  1
  Mn  Mn11  1  0.23065200  0.66818200  0.78610700  1
  Mn  Mn12  1  0.73065200  0.66818200  0.71389300  1
  Mn  Mn13  1  0.23065200  0.83181800  0.28610700  1
  Mn  Mn14  1  0.26934800  0.16818200  0.78610700  1
  Mn  Mn15  1  0.76934800  0.33181800  0.21389300  1
  N  N0  1  0.16301800  0.37929200  0.54029600  1
  N  N1  1  0.66301800  0.12070800  0.45970400  1
  N  N2  1  0.83698200  0.87929200  0.95970400  1
  N  N3  1  0.33698200  0.62070800  0.04029600  1
  N  N4  1  0.83698200  0.62070800  0.45970400  1
  N  N5  1  0.33698200  0.87929200  0.54029600  1
  N  N6  1  0.16301800  0.12070800  0.04029600  1
  N  N7  1  0.66301800  0.37929200  0.95970400  1
  N  N8  1  0.59703300  0.38868800  0.48424500  1
  N  N9  1  0.09703300  0.11131200  0.51575500  1
  N  N10  1  0.40296700  0.88868700  0.01575500  1
  N  N11  1  0.90296700  0.61131300  0.98424500  1
  N  N12  1  0.40296700  0.61131300  0.51575500  1
  N  N13  1  0.90296700  0.88868700  0.48424500  1
  N  N14  1  0.59703300  0.11131200  0.98424500  1
  N  N15  1  0.09703300  0.38868800  0.01575500  1
  N  N16  1  0.00479000  0.26994300  0.27170000  1
  N  N17  1  0.50479000  0.23005700  0.72830000  1
  N  N18  1  0.99521000  0.76994300  0.22830000  1
  N  N19  1  0.49521000  0.73005700  0.77170000  1
  N  N20  1  0.99521000  0.73005700  0.72830000  1
  N  N21  1  0.49521000  0.76994300  0.27170000  1
  N  N22  1  0.00479000  0.23005700  0.77170000  1
  N  N23  1  0.50479000  0.26994300  0.22830000  1
  N  N24  1  0.77116400  0.48874300  0.17543600  1
  N  N25  1  0.27116400  0.01125700  0.82456400  1
  N  N26  1  0.22883600  0.98874300  0.32456400  1
  N  N27  1  0.72883600  0.51125700  0.67543600  1
  N  N28  1  0.22883600  0.51125700  0.82456400  1
  N  N29  1  0.72883600  0.98874300  0.17543600  1
  N  N30  1  0.77116400  0.01125700  0.67543600  1
  N  N31  1  0.27116400  0.48874300  0.32456400  1
loop_
_geom_bond_atom_site_label_1
_geom_bond_atom_site_label_2
_geom_bond_distance
_geom_bond_site_symmetry_2
Mn0 N5 1.805234 1_555
Mn0 N13 1.832354 1_455
Mn0 N26 1.868216 1_555
Mn0 N9 1.871121 1_565
Mn1 N4 1.805234 1_555
Mn1 N12 1.832354 1_555
Mn1 N27 1.868216 1_555
Mn1 N8 1.871121 1_555
Mn2 N7 1.805234 1_554
Mn2 N15 1.832349 1_655
Mn2 N24 1.868216 1_555
Mn2 N11 1.871132 1_554
Mn3 N6 1.805234 1_556
Mn3 N14 1.832349 1_555
Mn3 N25 1.868216 1_555
Mn3 N10 1.871132 1_546
Mn4 N1 1.805234 1_555
Mn4 N9 1.832349 1_655
Mn4 N30 1.868216 1_555
Mn4 N13 1.871132 1_545
Mn5 N0 1.805234 1_555
Mn5 N8 1.832349 1_555
Mn5 N31 1.868216 1_555
Mn5 N12 1.871132 1_555
Mn6 N3 1.805234 1_556
Mn6 N11 1.832354 1_455
Mn6 N28 1.868216 1_555
Mn6 N15 1.871121 1_556
Mn7 N2 1.805234 1_554
Mn7 N10 1.832354 1_555
Mn7 N29 1.868216 1_555
Mn7 N14 1.871121 1_564
Mn8 N23 1.826861 1_555
Mn8 N31 1.828679 1_555
Mn8 N16 1.846026 1_555
Mn9 N22 1.826861 1_655
Mn9 N30 1.828679 1_555
Mn9 N17 1.846026 1_555
Mn10 N21 1.826861 1_555
Mn10 N29 1.828679 1_555
Mn10 N18 1.846026 1_555
Mn11 N20 1.826861 1_455
Mn11 N28 1.828679 1_555
Mn11 N19 1.846026 1_555
Mn12 N19 1.826861 1_555
Mn12 N27 1.828679 1_555
Mn12 N20 1.846026 1_555
Mn13 N18 1.826861 1_455
Mn13 N26 1.828679 1_555
Mn13 N21 1.846026 1_555
Mn14 N17 1.826861 1_555
Mn14 N25 1.828679 1_555
Mn14 N22 1.846026 1_555
Mn15 N16 1.826861 1_655
Mn15 N24 1.828679 1_555
Mn15 N23 1.846026 1_555
N0 Y1 2.230607 1_555
N0 Y8 2.335155 1_455
N0 Y9 2.360491 1_555
N1 Y0 2.230607 1_555
N1 Y9 2.335155 1_555
N1 Y8 2.360491 1_555
N2 Y3 2.230607 1_555
N2 Y10 2.335155 1_656
N2 Y11 2.360491 1_555
N3 Y2 2.230607 1_555
N3 Y11 2.335155 1_554
N3 Y10 2.360491 1_555
N4 Y5 2.230607 1_555
N4 Y12 2.335155 1_655
N4 Y13 2.360491 1_555
N5 Y4 2.230607 1_555
N5 Y13 2.335155 1_555
N5 Y12 2.360491 1_555
N6 Y7 2.230607 1_555
N6 Y14 2.335155 1_454
N6 Y15 2.360491 1_555
N7 Y6 2.230607 1_555
N7 Y15 2.335155 1_556
N7 Y14 2.360491 1_555
N8 Y8 2.362739 1_555
N8 Y9 2.421150 1_555
N9 Y9 2.362739 1_555
N9 Y8 2.421150 1_455
N10 Y10 2.362733 1_555
N10 Y11 2.421141 1_554
N11 Y11 2.362733 1_555
N11 Y10 2.421141 1_656
N12 Y12 2.362733 1_555
N12 Y13 2.421141 1_555
N13 Y13 2.362733 1_555
N13 Y12 2.421141 1_655
N14 Y14 2.362739 1_555
N14 Y15 2.421150 1_556
N15 Y15 2.362739 1_555
N15 Y14 2.421150 1_454
N16 Y7 2.360524 1_555
N16 Y8 2.400101 1_455
N17 Y6 2.360524 1_555
N17 Y9 2.400101 1_555
N18 Y5 2.360524 1_555
N18 Y10 2.400101 1_655
N19 Y4 2.360524 1_555
N19 Y11 2.400101 1_555
N20 Y3 2.360524 1_555
N20 Y12 2.400101 1_655
N21 Y2 2.360524 1_555
N21 Y13 2.400101 1_555
N22 Y1 2.360524 1_555
N22 Y14 2.400101 1_455
N23 Y0 2.360524 1_555
N23 Y15 2.400101 1_555
N24 Y2 2.247342 1_555
N24 Y5 2.310063 1_555
N25 Y3 2.247342 1_445
N25 Y4 2.310063 1_545
N26 Y0 2.247342 1_565
N26 Y7 2.310063 1_565
N27 Y1 2.247342 1_655
N27 Y6 2.310063 1_555
N28 Y6 2.247342 1_555
N28 Y1 2.310063 1_555
N29 Y7 2.247342 1_665
N29 Y0 2.310063 1_565
N30 Y4 2.247342 1_545
N30 Y3 2.310063 1_545
N31 Y5 2.247342 1_455
N31 Y2 2.310063 1_555
