# generated using pymatgen
data_La3TaTi2O11
_symmetry_space_group_name_H-M   'P 1'
_cell_length_a   3.95841300
_cell_length_b   5.62510900
_cell_length_c   20.41340700
_cell_angle_alpha   90.00000000
_cell_angle_beta   90.00000000
_cell_angle_gamma   90.00000000
_symmetry_Int_Tables_number   1
_chemical_formula_structural   La3TaTi2O11
_chemical_formula_sum   'La6 Ta2 Ti4 O22'
_cell_volume   454.53522070
_cell_formula_units_Z   2
loop_
 _symmetry_equiv_pos_site_id
 _symmetry_equiv_pos_as_xyz
  1  'x, y, z'
loop_
 _atom_site_type_symbol
 _atom_site_label
 _atom_site_symmetry_multiplicity
 _atom_site_fract_x
 _atom_site_fract_y
 _atom_site_fract_z
 _atom_site_occupancy
  La  La0  1  0.50000000  0.18593600  0.12729600  1
  La  La1  1  0.50000000  0.68593600  0.87270400  1
  La  La2  1  0.00000000  0.69186900  0.24046400  1
  La  La3  1  0.00000000  0.19186900  0.75953600  1
  La  La4  1  0.00000000  0.72190400  0.56603600  1
  La  La5  1  0.00000000  0.22190400  0.43396400  1
  Ta  Ta0  1  0.00000000  0.73184200  0.06296900  1
  Ta  Ta1  1  0.00000000  0.23184200  0.93703100  1
  Ti  Ti0  1  0.50000000  0.72908900  0.70509900  1
  Ti  Ti1  1  0.50000000  0.22908900  0.29490100  1
  Ti  Ti2  1  0.50000000  0.73100600  0.42344600  1
  Ti  Ti3  1  0.50000000  0.23100600  0.57655400  1
  O  O0  1  0.00000000  0.94325900  0.14544300  1
  O  O1  1  0.00000000  0.44325900  0.85455700  1
  O  O2  1  0.50000000  0.56001800  0.35013400  1
  O  O3  1  0.50000000  0.06001800  0.64986600  1
  O  O4  1  0.00000000  0.07051200  0.02062300  1
  O  O5  1  0.00000000  0.57051200  0.97937700  1
  O  O6  1  0.50000000  0.96631000  0.24215700  1
  O  O7  1  0.50000000  0.46631000  0.75784300  1
  O  O8  1  0.50000000  0.96191400  0.51671100  1
  O  O9  1  0.50000000  0.46191400  0.48328900  1
  O  O10  1  0.50000000  0.76526600  0.06577600  1
  O  O11  1  0.50000000  0.26526600  0.93422400  1
  O  O12  1  0.00000000  0.46265400  0.12118300  1
  O  O13  1  0.00000000  0.96265400  0.87881700  1
  O  O14  1  0.50000000  0.44570200  0.22210600  1
  O  O15  1  0.50000000  0.94570200  0.77789400  1
  O  O16  1  0.00000000  0.26269100  0.30626600  1
  O  O17  1  0.00000000  0.76269100  0.69373400  1
  O  O18  1  0.00000000  0.76417100  0.43820400  1
  O  O19  1  0.00000000  0.26417100  0.56179600  1
  O  O20  1  0.50000000  0.55685600  0.61755700  1
  O  O21  1  0.50000000  0.05685600  0.38244300  1
loop_
_geom_bond_atom_site_label_1
_geom_bond_atom_site_label_2
_geom_bond_distance
_geom_bond_site_symmetry_2
La0 O14 2.425056 1_555
La0 O0 2.432682 1_545
La0 O0 2.432682 1_645
La0 O12 2.521059 1_655
La0 O12 2.521059 1_555
La0 O6 2.650264 1_545
La0 O10 2.678910 1_545
La0 O4 3.013400 1_555
La0 O4 3.013400 1_655
La1 O15 2.425056 1_555
La1 O1 2.432682 1_655
La1 O1 2.432682 1_555
La1 O13 2.521059 1_555
La1 O13 2.521059 1_655
La1 O7 2.650264 1_555
La1 O11 2.678910 1_555
La1 O5 3.013400 1_655
La1 O5 3.013400 1_555
La2 O0 2.400440 1_555
La2 O14 2.444409 1_555
La2 O14 2.444409 1_455
La2 O6 2.510309 1_555
La2 O6 2.510309 1_455
La2 O12 2.755239 1_555
La2 O16 2.762704 1_555
La2 O2 3.078846 1_555
La2 O2 3.078846 1_455
La3 O1 2.400440 1_555
La3 O15 2.444409 1_545
La3 O15 2.444409 1_445
La3 O7 2.510309 1_555
La3 O7 2.510309 1_455
La3 O13 2.755239 1_545
La3 O17 2.762704 1_545
La3 O3 3.078846 1_555
La3 O3 3.078846 1_455
La4 O20 2.425968 1_455
La4 O20 2.425968 1_555
La4 O19 2.576252 1_555
La4 O8 2.598810 1_455
La4 O8 2.598810 1_555
La4 O17 2.616828 1_555
La4 O18 2.620296 1_555
La5 O21 2.425968 1_555
La5 O21 2.425968 1_455
La5 O18 2.576252 1_545
La5 O9 2.598810 1_555
La5 O9 2.598810 1_455
La5 O16 2.616828 1_555
La5 O19 2.620296 1_555
O0 Ta0 2.061244 1_555
O1 Ta1 2.061244 1_555
O2 Ti2 1.778979 1_555
O2 Ti1 2.176343 1_555
O3 Ti3 1.778979 1_555
O3 Ti0 2.176343 1_545
O4 Ta1 1.932704 1_554
O4 Ta0 2.092001 1_545
O5 Ta0 1.932704 1_556
O5 Ta1 2.092001 1_555
O6 Ti1 1.828718 1_565
O7 Ti0 1.828718 1_555
O8 Ti3 1.945124 1_565
O8 Ti2 2.304727 1_555
O9 Ti2 1.945124 1_555
O9 Ti3 2.304727 1_555
O10 Ta0 1.988942 1_655
O10 Ta0 1.988942 1_555
O11 Ta1 1.988942 1_555
O11 Ta1 1.988942 1_655
O12 Ta0 1.924839 1_555
O13 Ta1 1.924839 1_565
O14 Ti1 1.921679 1_555
O15 Ti0 1.921679 1_555
O16 Ti1 2.001701 1_555
O16 Ti1 2.001701 1_455
O17 Ti0 2.001701 1_555
O17 Ti0 2.001701 1_455
O18 Ti2 2.010677 1_555
O18 Ti2 2.010677 1_455
O19 Ti3 2.010677 1_555
O19 Ti3 2.010677 1_455
O20 Ti3 2.015009 1_555
O20 Ti0 2.032759 1_555
O21 Ti2 2.015009 1_545
O21 Ti1 2.032759 1_555
