# generated using pymatgen
data_Er4FeS7
_symmetry_space_group_name_H-M   'P 1'
_cell_length_a   6.46222567
_cell_length_b   6.46222567
_cell_length_c   11.36503927
_cell_angle_alpha   76.20901353
_cell_angle_beta   76.20901353
_cell_angle_gamma   33.85767550
_symmetry_Int_Tables_number   1
_chemical_formula_structural   Er4FeS7
_chemical_formula_sum   'Er4 Fe1 S7'
_cell_volume   256.07888670
_cell_formula_units_Z   1
loop_
 _symmetry_equiv_pos_site_id
 _symmetry_equiv_pos_as_xyz
  1  'x, y, z'
loop_
 _atom_site_type_symbol
 _atom_site_label
 _atom_site_symmetry_multiplicity
 _atom_site_fract_x
 _atom_site_fract_y
 _atom_site_fract_z
 _atom_site_occupancy
  Er  Er0  1  0.69487000  0.69487000  0.20575900  1
  Er  Er1  1  0.30491400  0.30491400  0.80204700  1
  Er  Er2  1  0.11225900  0.11225900  0.56510200  1
  Er  Er3  1  0.99936100  0.99936100  0.00563000  1
  Fe  Fe0  1  0.88926900  0.88926900  0.42308800  1
  S  S0  1  0.03298200  0.03298200  0.22680600  1
  S  S1  1  0.96325300  0.96325300  0.78371500  1
  S  S2  1  0.33835600  0.33835600  0.05177500  1
  S  S3  1  0.65984200  0.65984200  0.94890600  1
  S  S4  1  0.74456000  0.74456000  0.63924400  1
  S  S5  1  0.26940300  0.26940300  0.35428700  1
  S  S6  1  0.49093200  0.49093200  0.49364100  1
loop_
_geom_bond_atom_site_label_1
_geom_bond_atom_site_label_2
_geom_bond_distance
_geom_bond_site_symmetry_2
Er0 S0 2.714033 1_565
Er0 S0 2.714033 1_655
Er0 S5 2.831029 1_655
Er0 S5 2.831029 1_565
Er0 S2 2.864194 1_565
Er0 S2 2.864194 1_655
Er0 S3 3.055985 1_554
Er1 S1 2.685844 1_545
Er1 S1 2.685844 1_455
Er1 S3 2.837603 1_545
Er1 S3 2.837603 1_455
Er1 S4 2.865174 1_545
Er1 S4 2.865174 1_455
Er1 S2 2.968337 1_556
Er2 S6 2.656681 1_545
Er2 S6 2.656681 1_455
Er2 S5 2.682475 1_555
Er2 S1 2.699276 1_445
Er2 S4 2.759282 1_545
Er2 S4 2.759282 1_455
Er3 S0 2.648041 1_665
Er3 S1 2.668579 1_554
Er3 S3 2.693722 1_564
Er3 S3 2.693722 1_654
Er3 S2 2.694165 1_655
Er3 S2 2.694165 1_565
Fe0 S0 2.481591 1_665
Fe0 S6 2.503212 1_655
Fe0 S6 2.503212 1_565
Fe0 S5 2.631777 1_655
Fe0 S5 2.631777 1_565
Fe0 S4 2.654402 1_555
