# generated using pymatgen
data_Sr2YCu2AgO7
_symmetry_space_group_name_H-M   'P 1'
_cell_length_a   12.62336223
_cell_length_b   12.62336223
_cell_length_c   12.62336223
_cell_angle_alpha   155.42631827
_cell_angle_beta   155.41088646
_cell_angle_gamma   35.04089785
_symmetry_Int_Tables_number   1
_chemical_formula_structural   Sr2YCu2AgO7
_chemical_formula_sum   'Sr4 Y2 Cu4 Ag2 O14'
_cell_volume   347.68971050
_cell_formula_units_Z   2
loop_
 _symmetry_equiv_pos_site_id
 _symmetry_equiv_pos_as_xyz
  1  'x, y, z'
loop_
 _atom_site_type_symbol
 _atom_site_label
 _atom_site_symmetry_multiplicity
 _atom_site_fract_x
 _atom_site_fract_y
 _atom_site_fract_z
 _atom_site_occupancy
  Sr  Sr0  1  0.67285300  0.15040700  0.52086400  1
  Sr  Sr1  1  0.37045600  0.84959300  0.52244600  1
  Sr  Sr2  1  0.17285300  0.65199000  0.52244600  1
  Sr  Sr3  1  0.87045600  0.34801000  0.52086400  1
  Y  Y0  1  0.01437600  0.50000000  0.51437600  1
  Y  Y1  1  0.51437600  0.00000000  0.51437600  1
  Cu  Cu0  1  0.08973700  0.07386200  0.01681500  1
  Cu  Cu1  1  0.94295400  0.92613800  0.01587500  1
  Cu  Cu2  1  0.58973700  0.57292100  0.01587500  1
  Cu  Cu3  1  0.44295400  0.42707900  0.01681500  1
  Ag  Ag0  1  0.75898400  0.76661700  0.02560100  1
  Ag  Ag1  1  0.25898400  0.23338300  0.99236700  1
  O  O0  1  0.83590700  0.21188400  0.54779100  1
  O  O1  1  0.33590700  0.78811600  0.62402400  1
  O  O2  1  0.82484500  0.30833200  0.01285300  1
  O  O3  1  0.70452100  0.69166800  0.51651300  1
  O  O4  1  0.32484500  0.31199200  0.51651300  1
  O  O5  1  0.20452100  0.68800800  0.01285300  1
  O  O6  1  0.32613500  0.81096000  0.01610800  1
  O  O7  1  0.20514800  0.18904000  0.51517500  1
  O  O8  1  0.82613500  0.81002700  0.51517500  1
  O  O9  1  0.70514800  0.18997300  0.01610800  1
  O  O10  1  0.68371400  0.66446900  0.02218900  1
  O  O11  1  0.35772000  0.33553100  0.01924500  1
  O  O12  1  0.18371400  0.16152500  0.01924500  1
  O  O13  1  0.85772000  0.83847500  0.02218900  1
loop_
_geom_bond_atom_site_label_1
_geom_bond_atom_site_label_2
_geom_bond_distance
_geom_bond_site_symmetry_2
Cu0 O6 1.922691 1_545
Cu0 O2 1.924296 1_455
Cu0 O4 1.925515 1_555
Cu0 O8 1.931467 1_444
Cu0 O12 2.157440 1_555
Cu1 O7 1.922689 1_665
Cu1 O3 1.924294 1_554
Cu1 O5 1.925509 1_655
Cu1 O9 1.931469 1_565
Cu1 O13 2.157452 1_555
Cu2 O8 1.922689 1_555
Cu2 O4 1.924294 1_554
Cu2 O2 1.925509 1_555
Cu2 O6 1.931469 1_555
Cu2 O10 2.157452 1_555
Cu3 O9 1.922687 1_555
Cu3 O5 1.924292 1_555
Cu3 O3 1.925511 1_555
Cu3 O7 1.931463 1_554
Cu3 O11 2.157464 1_555
Ag0 O10 2.097171 1_555
Ag0 O13 2.097171 1_555
Ag0 O1 2.277380 1_554
Ag0 O0 2.427745 1_565
Ag1 O12 2.097171 1_556
Ag1 O11 2.097171 1_556
Ag1 O0 2.277383 1_455
Ag1 O1 2.427743 1_545
O0 Sr3 2.411985 1_555
O0 Sr0 2.412009 1_555
O1 Sr2 2.411986 1_555
O1 Sr1 2.412009 1_555
O2 Y1 2.384635 1_554
O2 Y0 2.393833 1_655
O2 Sr0 2.880941 1_554
O2 Sr2 2.924784 1_655
O3 Y1 2.384635 1_565
O3 Y0 2.393833 1_655
O3 Sr1 2.880952 1_555
O3 Sr3 2.924793 1_555
O4 Y0 2.384635 1_555
O4 Y1 2.393833 1_555
O4 Sr2 2.880952 1_555
O4 Sr0 2.924775 1_555
O5 Y0 2.384635 1_554
O5 Y1 2.393833 1_565
O5 Sr3 2.880959 1_454
O5 Sr1 2.924784 1_555
O6 Y1 2.388844 1_565
O6 Y0 2.399295 1_554
O6 Sr2 2.879015 1_554
O6 Sr0 2.906724 1_565
O7 Y1 2.388844 1_555
O7 Y0 2.399295 1_555
O7 Sr3 2.879024 1_455
O7 Sr1 2.906731 1_545
O8 Y0 2.388844 1_655
O8 Y1 2.399295 1_565
O8 Sr0 2.879005 1_565
O8 Sr2 2.906731 1_655
O9 Y0 2.388844 1_655
O9 Y1 2.399295 1_554
O9 Sr1 2.879015 1_544
O9 Sr3 2.906742 1_555
O10 Sr0 2.689219 1_565
O10 Sr2 2.697946 1_554
O10 Sr2 2.707970 1_655
O10 Sr0 2.713401 1_554
O11 Sr1 2.689215 1_544
O11 Sr3 2.697942 1_454
O11 Sr3 2.707971 1_555
O11 Sr1 2.713402 1_555
O12 Sr2 2.689215 1_544
O12 Sr0 2.697944 1_454
O12 Sr0 2.707974 1_555
O12 Sr2 2.713402 1_555
O13 Sr3 2.689216 1_565
O13 Sr1 2.697946 1_554
O13 Sr1 2.707970 1_655
O13 Sr3 2.713398 1_554
