# generated using pymatgen
data_ZnCuP2O7
_symmetry_space_group_name_H-M   'P 1'
_cell_length_a   5.60466800
_cell_length_b   6.34643852
_cell_length_c   7.49858677
_cell_angle_alpha   96.19971098
_cell_angle_beta   90.24775621
_cell_angle_gamma   109.49700508
_symmetry_Int_Tables_number   1
_chemical_formula_structural   ZnCuP2O7
_chemical_formula_sum   'Zn2 Cu2 P4 O14'
_cell_volume   249.72571458
_cell_formula_units_Z   2
loop_
 _symmetry_equiv_pos_site_id
 _symmetry_equiv_pos_as_xyz
  1  'x, y, z'
loop_
 _atom_site_type_symbol
 _atom_site_label
 _atom_site_symmetry_multiplicity
 _atom_site_fract_x
 _atom_site_fract_y
 _atom_site_fract_z
 _atom_site_occupancy
  Zn  Zn0  1  0.67376200  0.67637700  0.35619700  1
  Zn  Zn1  1  0.32623800  0.32362300  0.64380300  1
  Cu  Cu0  1  0.72799700  0.14045800  0.81845800  1
  Cu  Cu1  1  0.27200300  0.85954200  0.18154200  1
  P  P0  1  0.82797700  0.67130400  0.89137400  1
  P  P1  1  0.17202300  0.32869600  0.10862600  1
  P  P2  1  0.78017300  0.21597800  0.38842200  1
  P  P3  1  0.21982700  0.78402200  0.61157800  1
  O  O0  1  0.92013800  0.72055500  0.09055600  1
  O  O1  1  0.07986200  0.27944500  0.90944400  1
  O  O2  1  0.71575800  0.83602800  0.82580600  1
  O  O3  1  0.28424200  0.16397200  0.17419400  1
  O  O4  1  0.64354600  0.42572200  0.84530400  1
  O  O5  1  0.35645400  0.57427800  0.15469600  1
  O  O6  1  0.37434900  0.63039500  0.55688200  1
  O  O7  1  0.62565100  0.36960500  0.44311800  1
  O  O8  1  0.96203800  0.20963200  0.53663900  1
  O  O9  1  0.03796200  0.79036800  0.46336100  1
  O  O10  1  0.92138500  0.32033800  0.21630500  1
  O  O11  1  0.39024800  0.02901400  0.68295300  1
  O  O12  1  0.60975200  0.97098600  0.31704700  1
  O  O13  1  0.07861500  0.67966200  0.78369500  1
loop_
_geom_bond_atom_site_label_1
_geom_bond_atom_site_label_2
_geom_bond_distance
_geom_bond_site_symmetry_2
Cu0 O2 1.917056 1_545
Cu0 O1 1.957010 1_655
Cu0 O4 2.009041 1_555
Cu0 O11 2.012578 1_555
Cu0 O8 2.493813 1_555
Cu1 O3 1.917056 1_565
Cu1 O0 1.957010 1_455
Cu1 O5 2.009041 1_555
Cu1 O12 2.012578 1_555
Cu1 O9 2.493813 1_555
O0 P0 1.542731 1_554
O0 Zn0 2.416433 1_555
O1 P1 1.542731 1_556
O1 Zn1 2.416433 1_555
O2 P0 1.509119 1_555
O3 P1 1.509119 1_555
O4 P0 1.556337 1_555
O4 Zn1 2.204929 1_555
O5 P1 1.556337 1_555
O5 Zn0 2.204929 1_555
O6 P3 1.532704 1_555
O6 Zn1 2.052599 1_555
O6 Zn0 2.226118 1_555
O7 P2 1.532704 1_555
O7 Zn0 2.052599 1_555
O7 Zn1 2.226118 1_555
O8 P2 1.517598 1_555
O8 Zn1 2.051881 1_655
O9 P3 1.517598 1_555
O9 Zn0 2.051881 1_455
O10 P2 1.604476 1_555
O10 P1 1.611644 1_655
O11 P3 1.562297 1_545
O11 Zn1 2.067880 1_555
O12 P2 1.562297 1_565
O12 Zn0 2.067880 1_555
O13 P3 1.604476 1_555
O13 P0 1.611644 1_455
