# generated using pymatgen
data_Mn6OF11
_symmetry_space_group_name_H-M   'P 1'
_cell_length_a   5.23403664
_cell_length_b   5.23403664
_cell_length_c   15.71340500
_cell_angle_alpha   90.00000000
_cell_angle_beta   90.00000000
_cell_angle_gamma   91.34333044
_symmetry_Int_Tables_number   1
_chemical_formula_structural   Mn6OF11
_chemical_formula_sum   'Mn12 O2 F22'
_cell_volume   430.35261391
_cell_formula_units_Z   2
loop_
 _symmetry_equiv_pos_site_id
 _symmetry_equiv_pos_as_xyz
  1  'x, y, z'
loop_
 _atom_site_type_symbol
 _atom_site_label
 _atom_site_symmetry_multiplicity
 _atom_site_fract_x
 _atom_site_fract_y
 _atom_site_fract_z
 _atom_site_occupancy
  Mn  Mn0  1  0.00000000  0.00000000  0.00328700  1
  Mn  Mn1  1  0.00000000  0.50000000  0.17364100  1
  Mn  Mn2  1  0.00000000  0.00000000  0.33802000  1
  Mn  Mn3  1  0.00000000  0.50000000  0.49952300  1
  Mn  Mn4  1  0.00000000  0.00000000  0.66757800  1
  Mn  Mn5  1  0.00000000  0.50000000  0.83508300  1
  Mn  Mn6  1  0.50000000  0.00000000  0.17364100  1
  Mn  Mn7  1  0.50000000  0.50000000  0.00240400  1
  Mn  Mn8  1  0.50000000  0.50000000  0.66639900  1
  Mn  Mn9  1  0.50000000  0.00000000  0.49952300  1
  Mn  Mn10  1  0.50000000  0.50000000  0.32239800  1
  Mn  Mn11  1  0.50000000  0.00000000  0.83508300  1
  O  O0  1  0.30457200  0.69542800  0.24746800  1
  O  O1  1  0.69542800  0.30457200  0.24746800  1
  F  F0  1  0.19968500  0.19968500  0.24417500  1
  F  F1  1  0.23094000  0.76906000  0.08783900  1
  F  F2  1  0.23625600  0.23625600  0.57872200  1
  F  F3  1  0.23463200  0.76536800  0.41874700  1
  F  F4  1  0.23591800  0.23591800  0.91559900  1
  F  F5  1  0.23759600  0.76240400  0.75178300  1
  F  F6  1  0.26676300  0.26676300  0.08429000  1
  F  F7  1  0.26255800  0.73744200  0.58440900  1
  F  F8  1  0.26342500  0.73657500  0.91929600  1
  F  F9  1  0.26164300  0.26164300  0.74831800  1
  F  F10  1  0.27186900  0.27186900  0.41106400  1
  F  F11  1  0.73657500  0.26342500  0.91929600  1
  F  F12  1  0.73744200  0.26255800  0.58440900  1
  F  F13  1  0.73323700  0.73323700  0.08429000  1
  F  F14  1  0.72813100  0.72813100  0.41106400  1
  F  F15  1  0.73835700  0.73835700  0.74831800  1
  F  F16  1  0.76536800  0.23463200  0.41874700  1
  F  F17  1  0.76906000  0.23094000  0.08783900  1
  F  F18  1  0.76240400  0.23759600  0.75178300  1
  F  F19  1  0.76374400  0.76374400  0.57872200  1
  F  F20  1  0.76408200  0.76408200  0.91559900  1
  F  F21  1  0.80031500  0.80031500  0.24417500  1
loop_
_geom_bond_atom_site_label_1
_geom_bond_atom_site_label_2
_geom_bond_distance
_geom_bond_site_symmetry_2
Mn1 O0 2.203833 1_555
Mn1 O1 2.203833 1_455
Mn6 O1 2.203833 1_555
Mn6 O0 2.203833 1_545
Mn10 O0 1.878269 1_555
Mn10 O1 1.878269 1_555
F0 Mn2 2.075575 1_555
F0 Mn6 2.206473 1_555
F0 Mn1 2.206473 1_555
F0 Mn10 2.517231 1_555
F1 Mn0 2.180786 1_565
F1 Mn6 2.276453 1_565
F1 Mn1 2.276453 1_555
F1 Mn7 2.421089 1_555
F2 Mn4 2.221708 1_555
F2 Mn3 2.250228 1_555
F2 Mn9 2.250228 1_555
F2 Mn8 2.370650 1_555
F3 Mn2 2.167053 1_565
F3 Mn3 2.228989 1_555
F3 Mn9 2.228989 1_565
F3 Mn10 2.498180 1_555
F4 Mn0 2.208288 1_556
F4 Mn5 2.261850 1_555
F4 Mn11 2.261850 1_555
F4 Mn7 2.364732 1_556
F5 Mn4 2.217260 1_565
F5 Mn5 2.250784 1_555
F5 Mn11 2.250784 1_565
F5 Mn8 2.379320 1_555
F6 Mn7 2.136892 1_555
F6 Mn0 2.329745 1_555
F6 Mn6 2.343277 1_555
F6 Mn1 2.343277 1_555
F7 Mn8 2.195734 1_555
F7 Mn3 2.265415 1_555
F7 Mn9 2.265415 1_565
F7 Mn4 2.360829 1_565
F8 Mn7 2.200858 1_556
F8 Mn5 2.259485 1_555
F8 Mn11 2.259485 1_565
F8 Mn0 2.373397 1_566
F9 Mn8 2.167218 1_555
F9 Mn4 2.296182 1_555
F9 Mn11 2.317480 1_555
F9 Mn5 2.317480 1_555
F10 Mn10 2.173885 1_555
F10 Mn2 2.296114 1_555
F10 Mn3 2.337165 1_555
F10 Mn9 2.337165 1_555
F11 Mn7 2.200858 1_556
F11 Mn11 2.259485 1_555
F11 Mn5 2.259485 1_655
F11 Mn0 2.373397 1_656
F12 Mn8 2.195734 1_555
F12 Mn9 2.265415 1_555
F12 Mn3 2.265415 1_655
F12 Mn4 2.360829 1_655
F13 Mn7 2.136892 1_555
F13 Mn0 2.329745 1_665
F13 Mn1 2.343277 1_655
F13 Mn6 2.343277 1_565
F14 Mn10 2.173885 1_555
F14 Mn2 2.296114 1_665
F14 Mn3 2.337165 1_655
F14 Mn9 2.337165 1_565
F15 Mn8 2.167218 1_555
F15 Mn4 2.296182 1_665
F15 Mn5 2.317480 1_655
F15 Mn11 2.317480 1_565
F16 Mn2 2.167053 1_655
F16 Mn9 2.228989 1_555
F16 Mn3 2.228989 1_655
F16 Mn10 2.498180 1_555
F17 Mn0 2.180786 1_655
F17 Mn1 2.276453 1_655
F17 Mn6 2.276453 1_555
F17 Mn7 2.421089 1_555
F18 Mn4 2.217260 1_655
F18 Mn11 2.250784 1_555
F18 Mn5 2.250784 1_655
F18 Mn8 2.379320 1_555
F19 Mn4 2.221708 1_665
F19 Mn3 2.250228 1_655
F19 Mn9 2.250228 1_565
F19 Mn8 2.370650 1_555
F20 Mn0 2.208288 1_666
F20 Mn11 2.261850 1_565
F20 Mn5 2.261850 1_655
F20 Mn7 2.364732 1_556
F21 Mn2 2.075575 1_665
F21 Mn6 2.206473 1_565
F21 Mn1 2.206473 1_655
F21 Mn10 2.517231 1_555
