# generated using pymatgen
data_CeHfMg14
_symmetry_space_group_name_H-M   'P 1'
_cell_length_a   6.53908674
_cell_length_b   6.28840581
_cell_length_c   10.44646584
_cell_angle_alpha   90.00000000
_cell_angle_beta   90.00000000
_cell_angle_gamma   118.73977074
_symmetry_Int_Tables_number   1
_chemical_formula_structural   CeHfMg14
_chemical_formula_sum   'Ce1 Hf1 Mg14'
_cell_volume   376.64641355
_cell_formula_units_Z   1
loop_
 _symmetry_equiv_pos_site_id
 _symmetry_equiv_pos_as_xyz
  1  'x, y, z'
loop_
 _atom_site_type_symbol
 _atom_site_label
 _atom_site_symmetry_multiplicity
 _atom_site_fract_x
 _atom_site_fract_y
 _atom_site_fract_z
 _atom_site_occupancy
  Ce  Ce0  1  0.16023688  0.33011794  0.12500000  1
  Hf  Hf0  1  0.17573871  0.83786886  0.12500000  1
  Mg  Mg0  1  0.16510277  0.33255088  0.62500000  1
  Mg  Mg1  1  0.16134980  0.83067440  0.62500000  1
  Mg  Mg2  1  0.66255538  0.32948622  0.12500000  1
  Mg  Mg3  1  0.66387602  0.33360979  0.62500000  1
  Mg  Mg4  1  0.66255538  0.83306817  0.12500000  1
  Mg  Mg5  1  0.66387602  0.83026523  0.62500000  1
  Mg  Mg6  1  0.33636344  0.16491474  0.38059256  1
  Mg  Mg7  1  0.33636344  0.16491474  0.86940744  1
  Mg  Mg8  1  0.33636344  0.67144971  0.38059256  1
  Mg  Mg9  1  0.33636344  0.67144971  0.86940744  1
  Mg  Mg10  1  0.83058150  0.16529125  0.38327022  1
  Mg  Mg11  1  0.83058150  0.16529125  0.86672978  1
  Mg  Mg12  1  0.83904614  0.66952357  0.36923053  1
  Mg  Mg13  1  0.83904614  0.66952357  0.88076947  1
loop_
_geom_bond_atom_site_label_1
_geom_bond_atom_site_label_2
_geom_bond_distance
_geom_bond_site_symmetry_2
Ce0 Hf0 3.145459 1_545
Ce0 Hf0 3.145459 1_555
Ce0 Mg4 3.252474 1_445
Ce0 Mg2 3.252474 1_455
Ce0 Mg6 3.268850 1_555
Ce0 Mg7 3.268850 1_554
Ce0 Mg9 3.268856 1_554
Ce0 Mg8 3.268856 1_555
Ce0 Mg4 3.286616 1_555
Ce0 Mg2 3.286616 1_555
Ce0 Mg11 3.294196 1_454
Ce0 Mg10 3.294196 1_455
Hf0 Mg2 3.197961 1_565
Hf0 Mg4 3.197962 1_555
Hf0 Mg13 3.199372 1_454
Hf0 Mg12 3.199372 1_455
Hf0 Mg9 3.222508 1_554
Hf0 Mg8 3.222508 1_555
Hf0 Mg7 3.222514 1_564
Hf0 Mg6 3.222514 1_565
Hf0 Mg2 3.341339 1_455
Hf0 Mg4 3.341339 1_455
Mg0 Mg1 3.144277 1_545
Mg0 Mg1 3.144277 1_555
Mg0 Mg6 3.165359 1_555
Mg0 Mg7 3.165359 1_555
Mg0 Mg8 3.165366 1_555
Mg0 Mg9 3.165366 1_555
Mg0 Mg10 3.171033 1_455
Mg0 Mg11 3.171033 1_455
Mg0 Mg5 3.258325 1_555
Mg0 Mg3 3.258325 1_555
Mg0 Mg5 3.280772 1_445
Mg0 Mg3 3.280772 1_455
Mg1 Mg8 3.151668 1_555
Mg1 Mg9 3.151668 1_555
Mg1 Mg6 3.151674 1_565
Mg1 Mg7 3.151674 1_565
Mg1 Mg12 3.248674 1_455
Mg1 Mg13 3.248674 1_455
Mg1 Mg3 3.251787 1_455
Mg1 Mg5 3.251788 1_455
Mg1 Mg3 3.287300 1_565
Mg1 Mg5 3.287301 1_555
Mg2 Mg4 3.121678 1_545
Mg2 Mg4 3.166728 1_555
Mg2 Mg7 3.259906 1_554
Mg2 Mg6 3.259906 1_555
Mg3 Mg5 3.123171 1_555
Mg3 Mg5 3.165235 1_545
Mg3 Mg6 3.169533 1_555
Mg3 Mg7 3.169533 1_555
Mg4 Mg9 3.259906 1_554
Mg4 Mg8 3.259906 1_555
Mg5 Mg8 3.169533 1_555
Mg5 Mg9 3.169533 1_555
Mg6 Mg8 3.103108 1_545
Mg6 Mg8 3.185297 1_555
Mg7 Mg9 3.103108 1_545
Mg7 Mg9 3.185297 1_555
Mg10 Mg3 3.129694 1_555
Mg10 Mg5 3.129700 1_545
Mg10 Mg12 3.147996 1_555
Mg10 Mg12 3.147996 1_545
Mg10 Mg8 3.230718 1_545
Mg10 Mg6 3.230718 1_555
Mg10 Mg2 3.262450 1_555
Mg10 Mg4 3.262455 1_545
Mg10 Mg8 3.308609 1_655
Mg10 Mg6 3.308609 1_655
Mg11 Mg3 3.129694 1_555
Mg11 Mg5 3.129700 1_545
Mg11 Mg13 3.147996 1_555
Mg11 Mg13 3.147996 1_545
Mg11 Mg9 3.230718 1_545
Mg11 Mg7 3.230718 1_555
Mg11 Mg2 3.262450 1_556
Mg11 Mg4 3.262455 1_546
Mg11 Mg9 3.308609 1_655
Mg11 Mg7 3.308609 1_655
Mg12 Mg4 3.168654 1_555
Mg12 Mg2 3.168660 1_555
Mg12 Mg6 3.248363 1_665
Mg12 Mg8 3.248364 1_655
Mg12 Mg5 3.253648 1_555
Mg12 Mg3 3.253654 1_555
Mg12 Mg6 3.295065 1_555
Mg12 Mg8 3.295065 1_555
Mg13 Mg4 3.168654 1_556
Mg13 Mg2 3.168660 1_556
Mg13 Mg7 3.248363 1_665
Mg13 Mg9 3.248364 1_655
Mg13 Mg5 3.253648 1_555
Mg13 Mg3 3.253654 1_555
Mg13 Mg7 3.295065 1_555
Mg13 Mg9 3.295065 1_555
