# generated using pymatgen
data_NbOF3
_symmetry_space_group_name_H-M   'P 1'
_cell_length_a   5.20534513
_cell_length_b   5.20534513
_cell_length_c   5.20534513
_cell_angle_alpha   136.11936959
_cell_angle_beta   133.28484868
_cell_angle_gamma   66.02039947
_symmetry_Int_Tables_number   1
_chemical_formula_structural   NbOF3
_chemical_formula_sum   'Nb1 O1 F3'
_cell_volume   70.08291593
_cell_formula_units_Z   1
loop_
 _symmetry_equiv_pos_site_id
 _symmetry_equiv_pos_as_xyz
  1  'x, y, z'
loop_
 _atom_site_type_symbol
 _atom_site_label
 _atom_site_symmetry_multiplicity
 _atom_site_fract_x
 _atom_site_fract_y
 _atom_site_fract_z
 _atom_site_occupancy
  Nb  Nb0  1  0.00000000  0.00000000  0.00000000  1
  O  O0  1  0.00000000  0.50000000  0.50000000  1
  F  F0  1  0.78025400  0.78025400  0.00000000  1
  F  F1  1  0.50000000  0.00000000  0.50000000  1
  F  F2  1  0.21974600  0.21974600  0.00000000  1
loop_
_geom_bond_atom_site_label_1
_geom_bond_atom_site_label_2
_geom_bond_distance
_geom_bond_site_symmetry_2
Nb0 O0 1.944928 1_555
Nb0 O0 1.944928 1_544
F0 Nb0 1.918411 1_665
F1 Nb0 2.063754 1_656
F1 Nb0 2.063754 1_555
F2 Nb0 1.918411 1_555
