# generated using pymatgen
data_Ca2MnAl2Si4BO16
_symmetry_space_group_name_H-M   'P 1'
_cell_length_a   7.23535771
_cell_length_b   9.05711731
_cell_length_c   9.26230492
_cell_angle_alpha   88.09795037
_cell_angle_beta   76.95806078
_cell_angle_gamma   81.86563259
_symmetry_Int_Tables_number   1
_chemical_formula_structural   Ca2MnAl2Si4BO16
_chemical_formula_sum   'Ca4 Mn2 Al4 Si8 B2 O32'
_cell_volume   585.36606337
_cell_formula_units_Z   2
loop_
 _symmetry_equiv_pos_site_id
 _symmetry_equiv_pos_as_xyz
  1  'x, y, z'
loop_
 _atom_site_type_symbol
 _atom_site_label
 _atom_site_symmetry_multiplicity
 _atom_site_fract_x
 _atom_site_fract_y
 _atom_site_fract_z
 _atom_site_occupancy
  Ca  Ca0  1  0.24447400  0.39375900  0.65918100  1
  Ca  Ca1  1  0.75552600  0.60624100  0.34081900  1
  Ca  Ca2  1  0.81738300  0.08481100  0.90282800  1
  Ca  Ca3  1  0.18261700  0.91518900  0.09717200  1
  Mn  Mn0  1  0.23371100  0.11090200  0.40317100  1
  Mn  Mn1  1  0.76628900  0.88909800  0.59682900  1
  Al  Al0  1  0.95098300  0.25666400  0.19388700  1
  Al  Al1  1  0.04901700  0.74333600  0.80611300  1
  Al  Al2  1  0.65310100  0.42080900  0.06187700  1
  Al  Al3  1  0.34689900  0.57919100  0.93812300  1
  Si  Si0  1  0.78957200  0.23876000  0.54894400  1
  Si  Si1  1  0.21042800  0.76124000  0.45105600  1
  Si  Si2  1  0.77906500  0.52651300  0.72476900  1
  Si  Si3  1  0.22093500  0.47348700  0.27523100  1
  Si  Si4  1  0.29657000  0.01245600  0.74337000  1
  Si  Si5  1  0.70343000  0.98754400  0.25663000  1
  Si  Si6  1  0.35752000  0.23172500  0.97947600  1
  Si  Si7  1  0.64248000  0.76827500  0.02052400  1
  B  B0  1  0.54001500  0.28626700  0.36650000  1
  B  B1  1  0.45998500  0.71373300  0.63350000  1
  O  O0  1  0.94490100  0.18739200  0.39520200  1
  O  O1  1  0.05509900  0.81260800  0.60479800  1
  O  O2  1  0.76961600  0.10107800  0.66370200  1
  O  O3  1  0.23038400  0.89892200  0.33629800  1
  O  O4  1  0.57981900  0.31185500  0.51386300  1
  O  O5  1  0.42018100  0.68814500  0.48613700  1
  O  O6  1  0.86571800  0.37629000  0.62159200  1
  O  O7  1  0.13428200  0.62371000  0.37840800  1
  O  O8  1  0.97659600  0.56807100  0.75372300  1
  O  O9  1  0.02340400  0.43192900  0.24627700  1
  O  O10  1  0.67078700  0.64947400  0.62040800  1
  O  O11  1  0.32921300  0.35052600  0.37959200  1
  O  O12  1  0.61861300  0.49626300  0.87203900  1
  O  O13  1  0.38138700  0.50373700  0.12796100  1
  O  O14  1  0.46056000  0.87867800  0.65463200  1
  O  O15  1  0.53944000  0.12132200  0.34536800  1
  O  O16  1  0.12077800  0.93400700  0.84566700  1
  O  O17  1  0.87922200  0.06599300  0.15433300  1
  O  O18  1  0.22587000  0.13843900  0.63239700  1
  O  O19  1  0.77413000  0.86156100  0.36760300  1
  O  O20  1  0.39360900  0.08936700  0.86235500  1
  O  O21  1  0.60639100  0.91063300  0.13764500  1
  O  O22  1  0.56225300  0.24367000  0.01830400  1
  O  O23  1  0.43774700  0.75633000  0.98169600  1
  O  O24  1  0.28424900  0.38592000  0.89836600  1
  O  O25  1  0.71575100  0.61408000  0.10163400  1
  O  O26  1  0.20949700  0.17549500  0.12741400  1
  O  O27  1  0.79050300  0.82450500  0.87258600  1
  O  O28  1  0.67444300  0.35403200  0.25525500  1
  O  O29  1  0.32555700  0.64596800  0.74474500  1
  O  O30  1  0.89731000  0.31184700  0.00853500  1
  O  O31  1  0.10269000  0.68815300  0.99146500  1
loop_
_geom_bond_atom_site_label_1
_geom_bond_atom_site_label_2
_geom_bond_distance
_geom_bond_site_symmetry_2
Ca0 O24 2.295083 1_555
Ca0 O8 2.340027 1_455
Ca0 O18 2.359744 1_555
Ca0 O4 2.516358 1_555
Ca0 O11 2.553084 1_555
Ca0 O29 2.626686 1_555
Ca0 O6 2.865870 1_455
Ca1 O25 2.295083 1_555
Ca1 O9 2.340027 1_655
Ca1 O19 2.359744 1_555
Ca1 O5 2.516358 1_555
Ca1 O10 2.553084 1_555
Ca1 O28 2.626686 1_555
Ca1 O7 2.865870 1_655
Ca2 O22 2.254140 1_556
Ca2 O2 2.314338 1_555
Ca2 O16 2.374787 1_645
Ca2 O27 2.423397 1_545
Ca2 O17 2.465434 1_556
Ca2 O30 2.499419 1_556
Ca3 O23 2.254140 1_554
Ca3 O3 2.314338 1_555
Ca3 O17 2.374787 1_465
Ca3 O26 2.423397 1_565
Ca3 O16 2.465434 1_554
Ca3 O31 2.499419 1_554
Mn0 O3 2.041839 1_545
Mn0 O0 2.123334 1_455
Mn0 O18 2.133077 1_555
Mn0 O15 2.170245 1_555
Mn0 O11 2.358006 1_555
Mn0 O26 2.640146 1_555
Mn1 O2 2.041839 1_565
Mn1 O1 2.123334 1_655
Mn1 O19 2.133077 1_555
Mn1 O14 2.170245 1_555
Mn1 O10 2.358006 1_555
Mn1 O27 2.640146 1_555
Al0 O9 1.852334 1_655
Al0 O30 1.880687 1_555
Al0 O26 1.881287 1_655
Al0 O0 1.940510 1_555
Al0 O17 1.941053 1_555
Al0 O28 2.030982 1_555
Al1 O8 1.852334 1_455
Al1 O31 1.880687 1_555
Al1 O27 1.881287 1_455
Al1 O1 1.940510 1_555
Al1 O16 1.941053 1_555
Al1 O29 2.030982 1_555
Al2 O30 1.866818 1_555
Al2 O28 1.903748 1_555
Al2 O22 1.905281 1_555
Al2 O12 1.921210 1_554
Al2 O25 1.935956 1_555
Al2 O13 1.968069 1_555
Al3 O31 1.866818 1_555
Al3 O29 1.903748 1_555
Al3 O23 1.905281 1_555
Al3 O13 1.921210 1_556
Al3 O24 1.935956 1_555
Al3 O12 1.968069 1_555
B0 O28 1.434937 1_555
B0 O4 1.488946 1_555
B0 O15 1.513830 1_555
B0 O11 1.532891 1_555
B1 O29 1.434937 1_555
B1 O5 1.488946 1_555
B1 O14 1.513830 1_555
B1 O10 1.532891 1_555
O0 Si0 1.637382 1_555
O1 Si1 1.637382 1_555
O2 Si0 1.612255 1_555
O3 Si1 1.612255 1_555
O4 Si0 1.664646 1_555
O5 Si1 1.664646 1_555
O6 Si0 1.650777 1_555
O6 Si2 1.652893 1_555
O7 Si1 1.650777 1_555
O7 Si3 1.652893 1_555
O8 Si2 1.608773 1_555
O9 Si3 1.608773 1_555
O10 Si2 1.676844 1_555
O11 Si3 1.676844 1_555
O12 Si2 1.622950 1_555
O13 Si3 1.622950 1_555
O14 Si4 1.664510 1_565
O15 Si5 1.664510 1_545
O16 Si4 1.639366 1_565
O17 Si5 1.639366 1_545
O18 Si4 1.616921 1_555
O19 Si5 1.616921 1_555
O20 Si4 1.652685 1_555
O20 Si6 1.666480 1_555
O21 Si5 1.652685 1_555
O21 Si7 1.666480 1_555
O22 Si6 1.619789 1_554
O23 Si7 1.619789 1_556
O24 Si6 1.642079 1_555
O25 Si7 1.642079 1_555
O26 Si6 1.652173 1_554
O27 Si7 1.652173 1_556
