# generated using pymatgen
data_Mg14AlC
_symmetry_space_group_name_H-M   'P 1'
_cell_length_a   6.31663146
_cell_length_b   6.51957433
_cell_length_c   9.70582804
_cell_angle_alpha   90.00000000
_cell_angle_beta   90.00000000
_cell_angle_gamma   121.06861750
_symmetry_Int_Tables_number   1
_chemical_formula_structural   Mg14AlC
_chemical_formula_sum   'Mg14 Al1 C1'
_cell_volume   342.36552760
_cell_formula_units_Z   1
loop_
 _symmetry_equiv_pos_site_id
 _symmetry_equiv_pos_as_xyz
  1  'x, y, z'
loop_
 _atom_site_type_symbol
 _atom_site_label
 _atom_site_symmetry_multiplicity
 _atom_site_fract_x
 _atom_site_fract_y
 _atom_site_fract_z
 _atom_site_occupancy
  Mg  Mg0  1  0.17592720  0.33796310  0.62500000  1
  Mg  Mg1  1  0.17422611  0.83711255  0.62500000  1
  Mg  Mg2  1  0.73670601  0.37615010  0.12500000  1
  Mg  Mg3  1  0.66294911  0.33580417  0.62500000  1
  Mg  Mg4  1  0.73670601  0.86055491  0.12500000  1
  Mg  Mg5  1  0.66294911  0.82714394  0.62500000  1
  Mg  Mg6  1  0.32025148  0.14490243  0.34033112  1
  Mg  Mg7  1  0.32025148  0.14490243  0.90966888  1
  Mg  Mg8  1  0.32025148  0.67535005  0.34033112  1
  Mg  Mg9  1  0.32025148  0.67535005  0.90966888  1
  Mg  Mg10  1  0.83346300  0.16673200  0.37552247  1
  Mg  Mg11  1  0.83346300  0.16673200  0.87447753  1
  Mg  Mg12  1  0.84313147  0.67156624  0.36593939  1
  Mg  Mg13  1  0.84313147  0.67156624  0.88406061  1
  Al  Al0  1  0.17646459  0.33823180  0.12500000  1
  C  C0  1  0.03987699  0.76993800  0.12500000  1
loop_
_geom_bond_atom_site_label_1
_geom_bond_atom_site_label_2
_geom_bond_distance
_geom_bond_site_symmetry_2
Mg0 Mg11 3.048995 1_455
Mg0 Mg10 3.048995 1_455
Mg0 Mg5 3.083625 1_555
Mg0 Mg3 3.083625 1_555
Mg0 Mg5 3.233052 1_445
Mg0 Mg3 3.233052 1_455
Mg0 Mg1 3.259800 1_555
Mg0 Mg1 3.259800 1_545
Mg0 Mg6 3.351650 1_555
Mg0 Mg7 3.351650 1_555
Mg0 Mg9 3.351657 1_555
Mg0 Mg8 3.351657 1_555
Mg1 Mg12 3.087277 1_455
Mg1 Mg13 3.087277 1_455
Mg1 Mg3 3.121119 1_565
Mg1 Mg5 3.121119 1_555
Mg1 Mg3 3.196493 1_455
Mg1 Mg5 3.196494 1_455
Mg1 Mg9 3.255907 1_555
Mg1 Mg8 3.255907 1_555
Mg1 Mg6 3.255913 1_565
Mg1 Mg7 3.255913 1_565
Mg3 Mg5 3.203326 1_555
Mg3 Mg5 3.316248 1_545
Mg3 Mg7 3.329875 1_555
Mg3 Mg6 3.329875 1_555
Mg5 Mg9 3.329876 1_555
Mg5 Mg8 3.329876 1_555
Mg10 Mg2 3.001869 1_555
Mg10 Mg4 3.001877 1_545
Mg10 Mg3 3.076296 1_555
Mg10 Mg5 3.076302 1_545
Mg10 Mg8 3.169128 1_655
Mg10 Mg6 3.169129 1_655
Mg10 Mg8 3.189010 1_545
Mg10 Mg6 3.189011 1_555
Mg10 Mg12 3.261533 1_545
Mg10 Mg12 3.261533 1_555
Mg11 Mg2 3.001869 1_556
Mg11 Mg4 3.001877 1_546
Mg11 Mg3 3.076296 1_555
Mg11 Mg5 3.076302 1_545
Mg11 Mg9 3.169128 1_655
Mg11 Mg7 3.169129 1_655
Mg11 Mg9 3.189010 1_545
Mg11 Mg7 3.189011 1_555
Mg11 Mg13 3.261533 1_545
Mg11 Mg13 3.261533 1_555
Mg12 Mg5 3.136541 1_555
Mg12 Mg3 3.136547 1_555
Mg13 Mg5 3.136541 1_555
Mg13 Mg3 3.136547 1_555
Al0 Mg7 2.821898 1_554
Al0 Mg6 2.821898 1_555
Al0 Mg9 2.821906 1_554
Al0 Mg8 2.821906 1_555
Al0 Mg4 2.913076 1_445
Al0 Mg2 2.913076 1_455
Al0 Mg10 3.058819 1_455
Al0 Mg11 3.058819 1_454
C0 Mg2 2.276848 1_455
C0 Mg4 2.276848 1_455
C0 Mg12 2.569398 1_455
C0 Mg13 2.569398 1_454
