# generated using pymatgen
data_MnTe2H20(CN)4
_symmetry_space_group_name_H-M   'P 1'
_cell_length_a   6.54774900
_cell_length_b   9.58149530
_cell_length_c   12.34449304
_cell_angle_alpha   104.50798910
_cell_angle_beta   90.00000000
_cell_angle_gamma   109.97969887
_symmetry_Int_Tables_number   1
_chemical_formula_structural   MnTe2H20(CN)4
_chemical_formula_sum   'Mn2 Te4 H40 C8 N8'
_cell_volume   701.51308960
_cell_formula_units_Z   2
loop_
 _symmetry_equiv_pos_site_id
 _symmetry_equiv_pos_as_xyz
  1  'x, y, z'
loop_
 _atom_site_type_symbol
 _atom_site_label
 _atom_site_symmetry_multiplicity
 _atom_site_fract_x
 _atom_site_fract_y
 _atom_site_fract_z
 _atom_site_occupancy
  Mn  Mn0  1  0.50000000  0.00000000  0.00000000  1
  Mn  Mn1  1  0.50000000  0.00000000  0.50000000  1
  Te  Te0  1  0.17254800  0.87096700  0.79277900  1
  Te  Te1  1  0.30158200  0.12903300  0.70722100  1
  Te  Te2  1  0.82745200  0.12903300  0.20722100  1
  Te  Te3  1  0.69841800  0.87096700  0.29277900  1
  H  H0  1  0.66037000  0.11472300  0.82873400  1
  H  H1  1  0.54564700  0.88527700  0.67126600  1
  H  H2  1  0.33963000  0.88527700  0.17126600  1
  H  H3  1  0.45435300  0.11472300  0.32873400  1
  H  H4  1  0.85399500  0.06473200  0.87624200  1
  H  H5  1  0.78926300  0.93526800  0.62375800  1
  H  H6  1  0.14600500  0.93526800  0.12375800  1
  H  H7  1  0.21073700  0.06473200  0.37624200  1
  H  H8  1  0.95914800  0.31503300  0.02966100  1
  H  H9  1  0.64411500  0.68496700  0.47033900  1
  H  H10  1  0.04085200  0.68496700  0.97033900  1
  H  H11  1  0.35588500  0.31503300  0.52966100  1
  H  H12  1  0.78648800  0.36139700  0.94330500  1
  H  H13  1  0.42509100  0.63860300  0.55669500  1
  H  H14  1  0.21351200  0.63860300  0.05669500  1
  H  H15  1  0.57490900  0.36139700  0.44330500  1
  H  H16  1  0.02403200  0.32918900  0.89082300  1
  H  H17  1  0.69484300  0.67081100  0.60917700  1
  H  H18  1  0.97596800  0.67081100  0.10917700  1
  H  H19  1  0.30515700  0.32918900  0.39082300  1
  H  H20  1  0.78234000  0.84681900  0.93758300  1
  H  H21  1  0.93552200  0.15318100  0.56241700  1
  H  H22  1  0.21766000  0.15318100  0.06241700  1
  H  H23  1  0.06447800  0.84681900  0.43758300  1
  H  H24  1  0.64388100  0.78167700  0.03611500  1
  H  H25  1  0.86220400  0.21832300  0.46388500  1
  H  H26  1  0.35611900  0.21832300  0.96388500  1
  H  H27  1  0.13779600  0.78167700  0.53611500  1
  H  H28  1  0.51238200  0.66149500  0.79103000  1
  H  H29  1  0.85088800  0.33850500  0.70897000  1
  H  H30  1  0.48761800  0.33850500  0.20897000  1
  H  H31  1  0.14911200  0.66149500  0.29103000  1
  H  H32  1  0.63039100  0.57137400  0.87062300  1
  H  H33  1  0.05901700  0.42862600  0.62937700  1
  H  H34  1  0.36960900  0.42862600  0.12937700  1
  H  H35  1  0.94098300  0.57137400  0.37062300  1
  H  H36  1  0.36802300  0.58113200  0.89574800  1
  H  H37  1  0.78689100  0.41886800  0.60425200  1
  H  H38  1  0.63197700  0.41886800  0.10425200  1
  H  H39  1  0.21310900  0.58113200  0.39574800  1
  C  C0  1  0.89007900  0.29234100  0.94304700  1
  C  C1  1  0.59773800  0.70766000  0.55695300  1
  C  C2  1  0.10992100  0.70766000  0.05695300  1
  C  C3  1  0.40226200  0.29234000  0.44304700  1
  C  C4  1  0.53036600  0.64409900  0.87454500  1
  C  C5  1  0.88626700  0.35590100  0.62545500  1
  C  C6  1  0.46963400  0.35590100  0.12545500  1
  C  C7  1  0.11373300  0.64409900  0.37454500  1
  N  N0  1  0.75495500  0.12764000  0.90011200  1
  N  N1  1  0.62731500  0.87236000  0.59988800  1
  N  N2  1  0.24504500  0.87236000  0.09988800  1
  N  N3  1  0.37268500  0.12764000  0.40011200  1
  N  N4  1  0.62637200  0.79587100  0.95716000  1
  N  N5  1  0.83050100  0.20412900  0.54284000  1
  N  N6  1  0.37362800  0.20412900  0.04284000  1
  N  N7  1  0.16949900  0.79587100  0.45716000  1
loop_
_geom_bond_atom_site_label_1
_geom_bond_atom_site_label_2
_geom_bond_distance
_geom_bond_site_symmetry_2
Mn0 N2 2.272299 1_545
Mn0 N0 2.272299 1_554
Mn0 N6 2.318937 1_555
Mn0 N4 2.318937 1_544
Mn0 Te2 3.045176 1_555
Mn0 Te0 3.045176 1_544
Mn1 N1 2.272299 1_545
Mn1 N3 2.272299 1_555
Mn1 N5 2.318937 1_555
Mn1 N7 2.318937 1_545
Mn1 Te1 3.045173 1_555
Mn1 Te3 3.045173 1_545
Te0 Te1 2.797174 1_565
Te2 Te3 2.797174 1_545
H0 N0 1.033555 1_555
H1 N1 1.033555 1_555
H2 N2 1.033555 1_555
H3 N3 1.033555 1_555
H4 N0 1.024111 1_555
H5 N1 1.024111 1_555
H6 N2 1.024111 1_555
H7 N3 1.024111 1_555
H20 N4 1.028620 1_555
H21 N5 1.028625 1_555
H22 N6 1.028620 1_555
H23 N7 1.028625 1_555
H24 N4 1.028916 1_554
H25 N5 1.028916 1_555
H26 N6 1.028916 1_556
H27 N7 1.028916 1_555
C0 H12 1.097050 1_555
C0 H8 1.100605 1_556
C0 H16 1.100896 1_655
C0 N0 1.476769 1_555
C1 H13 1.097052 1_555
C1 H9 1.100605 1_555
C1 H17 1.100902 1_555
C1 N1 1.476760 1_555
C2 H14 1.097057 1_555
C2 H10 1.100603 1_554
C2 H18 1.100898 1_455
C2 N2 1.476762 1_555
C3 H15 1.097052 1_555
C3 H11 1.100605 1_555
C3 H19 1.100902 1_555
C3 N3 1.476760 1_555
C4 H36 1.096946 1_555
C4 H28 1.097277 1_555
C4 H32 1.100821 1_555
C4 N4 1.477223 1_555
C5 H37 1.096946 1_555
C5 H29 1.097276 1_555
C5 H33 1.100821 1_655
C5 N5 1.477223 1_555
C6 H38 1.096946 1_555
C6 H30 1.097277 1_555
C6 H34 1.100821 1_555
C6 N6 1.477223 1_555
C7 H39 1.096946 1_555
C7 H31 1.097276 1_555
C7 H35 1.100821 1_455
C7 N7 1.477223 1_555
