# generated using pymatgen
data_La2Mg
_symmetry_space_group_name_H-M   'P 1'
_cell_length_a   13.02881834
_cell_length_b   13.02881834
_cell_length_c   17.83381517
_cell_angle_alpha   70.45221175
_cell_angle_beta   70.45221175
_cell_angle_gamma   33.37474876
_symmetry_Int_Tables_number   1
_chemical_formula_structural   La2Mg
_chemical_formula_sum   'La32 Mg16'
_cell_volume   1560.45077522
_cell_formula_units_Z   16
loop_
 _symmetry_equiv_pos_site_id
 _symmetry_equiv_pos_as_xyz
  1  'x, y, z'
loop_
 _atom_site_type_symbol
 _atom_site_label
 _atom_site_symmetry_multiplicity
 _atom_site_fract_x
 _atom_site_fract_y
 _atom_site_fract_z
 _atom_site_occupancy
  La  La0_0  1  0.16460550  0.16460550  0.05951400  1
  La  La0_1  1  0.16460550  0.16460550  0.55951400  1
  La  La0_2  1  0.16460550  0.66460550  0.05951400  1
  La  La0_3  1  0.16460550  0.66460550  0.55951400  1
  La  La0_4  1  0.66460550  0.16460550  0.05951400  1
  La  La0_5  1  0.66460550  0.16460550  0.55951400  1
  La  La0_6  1  0.66460550  0.66460550  0.05951400  1
  La  La0_7  1  0.66460550  0.66460550  0.55951400  1
  La  La1_0  1  0.00945550  0.00945550  0.12884400  1
  La  La1_1  1  0.00945550  0.00945550  0.62884400  1
  La  La1_2  1  0.00945550  0.50945550  0.12884400  1
  La  La1_3  1  0.00945550  0.50945550  0.62884400  1
  La  La1_4  1  0.50945550  0.00945550  0.12884400  1
  La  La1_5  1  0.50945550  0.00945550  0.62884400  1
  La  La1_6  1  0.50945550  0.50945550  0.12884400  1
  La  La1_7  1  0.50945550  0.50945550  0.62884400  1
  La  La2_0  1  0.49054450  0.49054450  0.37115600  1
  La  La2_1  1  0.49054450  0.49054450  0.87115600  1
  La  La2_2  1  0.49054450  0.99054450  0.37115600  1
  La  La2_3  1  0.49054450  0.99054450  0.87115600  1
  La  La2_4  1  0.99054450  0.49054450  0.37115600  1
  La  La2_5  1  0.99054450  0.49054450  0.87115600  1
  La  La2_6  1  0.99054450  0.99054450  0.37115600  1
  La  La2_7  1  0.99054450  0.99054450  0.87115600  1
  La  La3_0  1  0.33539450  0.33539450  0.44048600  1
  La  La3_1  1  0.33539450  0.33539450  0.94048600  1
  La  La3_2  1  0.33539450  0.83539450  0.44048600  1
  La  La3_3  1  0.33539450  0.83539450  0.94048600  1
  La  La3_4  1  0.83539450  0.33539450  0.44048600  1
  La  La3_5  1  0.83539450  0.33539450  0.94048600  1
  La  La3_6  1  0.83539450  0.83539450  0.44048600  1
  La  La3_7  1  0.83539450  0.83539450  0.94048600  1
  Mg  Mg0_0  1  0.33643800  0.33643800  0.22464800  1
  Mg  Mg0_1  1  0.33643800  0.33643800  0.72464800  1
  Mg  Mg0_2  1  0.33643800  0.83643800  0.22464800  1
  Mg  Mg0_3  1  0.33643800  0.83643800  0.72464800  1
  Mg  Mg0_4  1  0.83643800  0.33643800  0.22464800  1
  Mg  Mg0_5  1  0.83643800  0.33643800  0.72464800  1
  Mg  Mg0_6  1  0.83643800  0.83643800  0.22464800  1
  Mg  Mg0_7  1  0.83643800  0.83643800  0.72464800  1
  Mg  Mg1_0  1  0.16356200  0.16356200  0.27535200  1
  Mg  Mg1_1  1  0.16356200  0.16356200  0.77535200  1
  Mg  Mg1_2  1  0.16356200  0.66356200  0.27535200  1
  Mg  Mg1_3  1  0.16356200  0.66356200  0.77535200  1
  Mg  Mg1_4  1  0.66356200  0.16356200  0.27535200  1
  Mg  Mg1_5  1  0.66356200  0.16356200  0.77535200  1
  Mg  Mg1_6  1  0.66356200  0.66356200  0.27535200  1
  Mg  Mg1_7  1  0.66356200  0.66356200  0.77535200  1
loop_
_geom_bond_atom_site_label_1
_geom_bond_atom_site_label_2
_geom_bond_distance
_geom_bond_site_symmetry_2
La0_0 Mg0_4 3.458992 1_455
La0_0 Mg0_2 3.458992 1_545
La0_0 La1_4 3.560593 1_555
La0_0 La1_2 3.560593 1_555
La0_0 La1_0 3.630509 1_555
La0_0 La2_5 3.731978 1_454
La0_0 La2_3 3.731978 1_544
La0_0 La0_6 3.741218 1_455
La0_0 La0_6 3.741218 1_545
La0_0 Mg1_0 3.840195 1_555
La0_0 La3_5 3.853068 1_454
La0_0 La3_3 3.853068 1_544
La0_0 La3_1 4.044360 1_554
La0_1 Mg0_3 3.458992 1_545
La0_1 Mg0_5 3.458992 1_455
La0_1 La1_3 3.560593 1_555
La0_1 La1_5 3.560593 1_555
La0_1 La1_1 3.630509 1_555
La0_1 La2_2 3.731978 1_545
La0_1 La2_4 3.731978 1_455
La0_1 La0_7 3.741218 1_455
La0_1 La0_7 3.741218 1_545
La0_1 Mg1_1 3.840195 1_555
La0_1 La3_4 3.853068 1_455
La0_1 La3_2 3.853068 1_545
La0_1 La3_0 4.044360 1_555
La0_2 Mg0_0 3.458992 1_555
La0_2 Mg0_6 3.458992 1_455
La0_2 La1_6 3.560593 1_555
La0_2 La1_0 3.560593 1_565
La0_2 La1_2 3.630509 1_555
La0_2 La2_7 3.731978 1_454
La0_2 La2_1 3.731978 1_554
La0_2 La0_4 3.741218 1_555
La0_2 La0_4 3.741218 1_465
La0_2 Mg1_2 3.840195 1_555
La0_2 La3_7 3.853068 1_454
La0_2 La3_1 3.853068 1_554
La0_2 La3_3 4.044360 1_554
La0_3 Mg0_1 3.458992 1_555
La0_3 Mg0_7 3.458992 1_455
La0_3 La1_7 3.560593 1_555
La0_3 La1_1 3.560593 1_565
La0_3 La1_3 3.630509 1_555
La0_3 La2_6 3.731978 1_455
La0_3 La2_0 3.731978 1_555
La0_3 La0_5 3.741218 1_555
La0_3 La0_5 3.741218 1_465
La0_3 Mg1_3 3.840195 1_555
La0_3 La3_0 3.853068 1_555
La0_3 La3_6 3.853068 1_455
La0_3 La3_2 4.044360 1_555
La0_4 Mg0_0 3.458992 1_555
La0_4 Mg0_6 3.458992 1_545
La0_4 La1_6 3.560593 1_555
La0_4 La1_0 3.560593 1_655
La0_4 La1_4 3.630509 1_555
La0_4 La2_1 3.731978 1_554
La0_4 La2_7 3.731978 1_544
La0_4 Mg1_4 3.840195 1_555
La0_4 La3_7 3.853068 1_544
La0_4 La3_1 3.853068 1_554
La0_4 La3_5 4.044360 1_554
La0_5 Mg0_1 3.458992 1_555
La0_5 Mg0_7 3.458992 1_545
La0_5 La1_7 3.560593 1_555
La0_5 La1_1 3.560593 1_655
La0_5 La1_5 3.630509 1_555
La0_5 La2_6 3.731978 1_545
La0_5 La2_0 3.731978 1_555
La0_5 Mg1_5 3.840195 1_555
La0_5 La3_0 3.853068 1_555
La0_5 La3_6 3.853068 1_545
La0_5 La3_4 4.044360 1_555
La0_6 Mg0_4 3.458992 1_555
La0_6 Mg0_2 3.458992 1_555
La0_6 La1_4 3.560593 1_565
La0_6 La1_2 3.560593 1_655
La0_6 La1_6 3.630509 1_555
La0_6 La2_5 3.731978 1_554
La0_6 La2_3 3.731978 1_554
La0_6 Mg1_6 3.840195 1_555
La0_6 La3_5 3.853068 1_554
La0_6 La3_3 3.853068 1_554
La0_6 La3_7 4.044360 1_554
La0_7 Mg0_3 3.458992 1_555
La0_7 Mg0_5 3.458992 1_555
La0_7 La1_5 3.560593 1_565
La0_7 La1_3 3.560593 1_655
La0_7 La1_7 3.630509 1_555
La0_7 La2_4 3.731978 1_555
La0_7 La2_2 3.731978 1_555
La0_7 Mg1_7 3.840195 1_555
La0_7 La3_4 3.853068 1_555
La0_7 La3_2 3.853068 1_555
La0_7 La3_6 4.044360 1_555
La1_0 Mg1_4 3.418465 1_455
La1_0 Mg1_2 3.418465 1_545
La1_0 Mg0_2 3.521932 1_545
La1_0 Mg0_4 3.521932 1_455
La1_0 La3_3 3.731978 1_544
La1_0 La3_5 3.731978 1_454
La1_0 La1_6 3.741218 1_545
La1_0 La1_6 3.741218 1_455
La1_1 Mg1_5 3.418465 1_455
La1_1 Mg1_3 3.418465 1_545
La1_1 Mg0_3 3.521932 1_545
La1_1 Mg0_5 3.521932 1_455
La1_1 La3_2 3.731978 1_545
La1_1 La3_4 3.731978 1_455
La1_1 La1_7 3.741218 1_455
La1_1 La1_7 3.741218 1_545
La1_2 Mg1_0 3.418465 1_555
La1_2 Mg1_6 3.418465 1_455
La1_2 Mg0_6 3.521932 1_455
La1_2 Mg0_0 3.521932 1_555
La1_2 La3_1 3.731978 1_554
La1_2 La3_7 3.731978 1_454
La1_2 La1_4 3.741218 1_555
La1_2 La1_4 3.741218 1_465
La1_3 Mg1_7 3.418465 1_455
La1_3 Mg1_1 3.418465 1_555
La1_3 Mg0_1 3.521932 1_555
La1_3 Mg0_7 3.521932 1_455
La1_3 La3_6 3.731978 1_455
La1_3 La3_0 3.731978 1_555
La1_3 La1_5 3.741218 1_555
La1_3 La1_5 3.741218 1_465
La1_4 Mg1_0 3.418465 1_555
La1_4 Mg1_6 3.418465 1_545
La1_4 Mg0_0 3.521932 1_555
La1_4 Mg0_6 3.521932 1_545
La1_4 La3_1 3.731978 1_554
La1_4 La3_7 3.731978 1_544
La1_5 Mg1_1 3.418465 1_555
La1_5 Mg1_7 3.418465 1_545
La1_5 Mg0_1 3.521932 1_555
La1_5 Mg0_7 3.521932 1_545
La1_5 La3_6 3.731978 1_545
La1_5 La3_0 3.731978 1_555
La1_6 Mg1_4 3.418465 1_555
La1_6 Mg1_2 3.418465 1_555
La1_6 Mg0_2 3.521932 1_555
La1_6 Mg0_4 3.521932 1_555
La1_6 La3_3 3.731978 1_554
La1_6 La3_5 3.731978 1_554
La1_7 Mg1_5 3.418465 1_555
La1_7 Mg1_3 3.418465 1_555
La1_7 Mg0_5 3.521932 1_555
La1_7 Mg0_3 3.521932 1_555
La1_7 La3_4 3.731978 1_555
La1_7 La3_2 3.731978 1_555
La2_0 Mg0_2 3.418465 1_555
La2_0 Mg0_4 3.418465 1_555
La2_0 Mg1_4 3.521932 1_555
La2_0 Mg1_2 3.521932 1_555
La2_0 La3_2 3.560593 1_555
La2_0 La3_4 3.560593 1_555
La2_0 La3_0 3.630509 1_555
La2_0 La2_6 3.741218 1_455
La2_0 La2_6 3.741218 1_545
La2_1 Mg0_5 3.418465 1_555
La2_1 Mg0_3 3.418465 1_555
La2_1 Mg1_5 3.521932 1_555
La2_1 Mg1_3 3.521932 1_555
La2_1 La3_3 3.560593 1_555
La2_1 La3_5 3.560593 1_555
La2_1 La3_1 3.630509 1_555
La2_1 La2_7 3.741218 1_455
La2_1 La2_7 3.741218 1_545
La2_2 Mg0_6 3.418465 1_555
La2_2 Mg0_0 3.418465 1_565
La2_2 Mg1_0 3.521932 1_565
La2_2 Mg1_6 3.521932 1_555
La2_2 La3_6 3.560593 1_555
La2_2 La3_0 3.560593 1_565
La2_2 La3_2 3.630509 1_555
La2_2 La2_4 3.741218 1_555
La2_2 La2_4 3.741218 1_465
La2_3 Mg0_7 3.418465 1_555
La2_3 Mg0_1 3.418465 1_565
La2_3 Mg1_7 3.521932 1_555
La2_3 Mg1_1 3.521932 1_565
La2_3 La3_1 3.560593 1_565
La2_3 La3_7 3.560593 1_555
La2_3 La3_3 3.630509 1_555
La2_3 La2_5 3.741218 1_555
La2_3 La2_5 3.741218 1_465
La2_4 Mg0_6 3.418465 1_555
La2_4 Mg0_0 3.418465 1_655
La2_4 Mg1_0 3.521932 1_655
La2_4 Mg1_6 3.521932 1_555
La2_4 La3_6 3.560593 1_555
La2_4 La3_0 3.560593 1_655
La2_4 La3_4 3.630509 1_555
La2_5 Mg0_7 3.418465 1_555
La2_5 Mg0_1 3.418465 1_655
La2_5 Mg1_7 3.521932 1_555
La2_5 Mg1_1 3.521932 1_655
La2_5 La3_1 3.560593 1_655
La2_5 La3_7 3.560593 1_555
La2_5 La3_5 3.630509 1_555
La2_6 Mg0_2 3.418465 1_655
La2_6 Mg0_4 3.418465 1_565
La2_6 Mg1_4 3.521932 1_565
La2_6 Mg1_2 3.521932 1_655
La2_6 La3_4 3.560593 1_565
La2_6 La3_2 3.560593 1_655
La2_6 La3_6 3.630509 1_555
La2_7 Mg0_3 3.418465 1_655
La2_7 Mg0_5 3.418465 1_565
La2_7 Mg1_5 3.521932 1_565
La2_7 Mg1_3 3.521932 1_655
La2_7 La3_3 3.560593 1_655
La2_7 La3_5 3.560593 1_565
La2_7 La3_7 3.630509 1_555
La3_0 Mg1_2 3.458992 1_555
La3_0 Mg1_4 3.458992 1_555
La3_0 La3_6 3.741218 1_455
La3_0 La3_6 3.741218 1_545
La3_0 Mg0_0 3.840195 1_555
La3_1 Mg1_3 3.458992 1_555
La3_1 Mg1_5 3.458992 1_555
La3_1 La3_7 3.741218 1_455
La3_1 La3_7 3.741218 1_545
La3_1 Mg0_1 3.840195 1_555
La3_2 Mg1_6 3.458992 1_555
La3_2 Mg1_0 3.458992 1_565
La3_2 La3_4 3.741218 1_555
La3_2 La3_4 3.741218 1_465
La3_2 Mg0_2 3.840195 1_555
La3_3 Mg1_7 3.458992 1_555
La3_3 Mg1_1 3.458992 1_565
La3_3 La3_5 3.741218 1_465
La3_3 La3_5 3.741218 1_555
La3_3 Mg0_3 3.840195 1_555
La3_4 Mg1_6 3.458992 1_555
La3_4 Mg1_0 3.458992 1_655
La3_4 Mg0_4 3.840195 1_555
La3_5 Mg1_1 3.458992 1_655
La3_5 Mg1_7 3.458992 1_555
La3_5 Mg0_5 3.840195 1_555
La3_6 Mg1_2 3.458992 1_655
La3_6 Mg1_4 3.458992 1_565
La3_6 Mg0_6 3.840195 1_555
La3_7 Mg1_3 3.458992 1_655
La3_7 Mg1_5 3.458992 1_565
La3_7 Mg0_7 3.840195 1_555
Mg0_0 Mg1_2 3.039517 1_555
Mg0_0 Mg1_4 3.039517 1_555
Mg0_1 Mg1_3 3.039517 1_555
Mg0_1 Mg1_5 3.039517 1_555
Mg0_2 Mg1_6 3.039517 1_555
Mg0_2 Mg1_0 3.039517 1_565
Mg0_3 Mg1_1 3.039517 1_565
Mg0_3 Mg1_7 3.039517 1_555
Mg0_4 Mg1_6 3.039517 1_555
Mg0_4 Mg1_0 3.039517 1_655
Mg0_5 Mg1_1 3.039517 1_655
Mg0_5 Mg1_7 3.039517 1_555
Mg0_6 Mg1_2 3.039517 1_655
Mg0_6 Mg1_4 3.039517 1_565
Mg0_7 Mg1_3 3.039517 1_655
Mg0_7 Mg1_5 3.039517 1_565
