# generated using pymatgen
data_Er2P7Rh12
_symmetry_space_group_name_H-M   'P 1'
_cell_length_a   9.51462997
_cell_length_b   9.51462417
_cell_length_c   3.84419846
_cell_angle_alpha   90.00040956
_cell_angle_beta   89.99979910
_cell_angle_gamma   120.00001362
_symmetry_Int_Tables_number   1
_chemical_formula_structural   Er2P7Rh12
_chemical_formula_sum   'Er2 P7 Rh12'
_cell_volume   301.38380638
_cell_formula_units_Z   1
loop_
 _symmetry_equiv_pos_site_id
 _symmetry_equiv_pos_as_xyz
  1  'x, y, z'
loop_
 _atom_site_type_symbol
 _atom_site_label
 _atom_site_symmetry_multiplicity
 _atom_site_fract_x
 _atom_site_fract_y
 _atom_site_fract_z
 _atom_site_occupancy
  Er  Er0  1  0.33333576  0.66667258  0.74971701  1
  Er  Er1  1  0.66665770  0.33334730  0.25027970  1
  P  P0  1  0.00002296  -0.00000563  0.49999879  1
  P  P1  1  0.40617855  0.28549910  0.75536827  1
  P  P2  1  0.71447858  0.12067757  0.75537097  1
  P  P3  1  0.87932515  0.59382237  0.75537942  1
  P  P4  1  0.59381216  0.71448456  0.24462728  1
  P  P5  1  0.28548616  0.87931590  0.24462145  1
  P  P6  1  0.12067568  0.40619116  0.24462842  1
  Rh  Rh0  1  0.45128306  0.06921666  0.75034019  1
  Rh  Rh1  1  0.93078067  0.38216145  0.75034146  1
  Rh  Rh2  1  0.61786948  0.54862853  0.75033982  1
  Rh  Rh3  1  0.54859858  0.93077528  0.24965490  1
  Rh  Rh4  1  0.06924103  0.61792064  0.24966422  1
  Rh  Rh5  1  0.38210530  0.45131860  0.24966288  1
  Rh  Rh6  1  0.15221191  0.26115508  0.75028977  1
  Rh  Rh7  1  0.73885837  0.89099732  0.75029981  1
  Rh  Rh8  1  0.10899022  0.84783925  0.75030249  1
  Rh  Rh9  1  0.84787465  0.73884566  0.24969813  1
  Rh  Rh10  1  0.26116230  0.10895952  0.24971030  1
  Rh  Rh11  1  0.89105074  0.15217910  0.24970474  1
loop_
_geom_bond_atom_site_label_1
_geom_bond_atom_site_label_2
_geom_bond_distance
_geom_bond_site_symmetry_2
Er0 P5 2.973432 1_556
Er0 P4 2.973436 1_556
Er0 P6 2.973454 1_556
Er0 P4 2.998618 1_555
Er0 P6 2.998624 1_555
Er0 P5 2.998670 1_555
Er0 Rh3 3.009336 1_556
Er0 Rh4 3.009526 1_556
Er0 Rh3 3.009655 1_555
Er0 Rh5 3.009699 1_556
Er0 Rh4 3.009792 1_555
Er0 Rh5 3.009944 1_555
Er1 P1 2.973368 1_554
Er1 P3 2.973415 1_554
Er1 P2 2.973498 1_554
Er1 P1 2.998545 1_555
Er1 P3 2.998640 1_555
Er1 P2 2.998715 1_555
Er1 Rh2 3.009248 1_554
Er1 Rh2 3.009522 1_555
Er1 Rh1 3.009552 1_554
Er1 Rh0 3.009751 1_554
Er1 Rh1 3.009862 1_555
Er1 Rh0 3.010062 1_555
P0 Rh8 2.365923 1_545
P0 Rh10 2.366029 1_555
P0 Rh9 2.366087 1_445
P0 Rh11 2.366177 1_455
P0 Rh6 2.366190 1_555
P0 Rh7 2.366222 1_445
P1 Rh2 2.298371 1_555
P1 Rh0 2.302695 1_555
P1 Rh6 2.309397 1_555
P1 Rh10 2.453351 1_556
P1 Rh10 2.487188 1_555
P1 Rh5 2.552174 1_556
P1 Rh5 2.585017 1_555
P2 Rh0 2.298920 1_555
P2 Rh1 2.303346 1_555
P2 Rh7 2.310137 1_545
P2 Rh11 2.453563 1_556
P2 Rh11 2.487451 1_555
P2 Rh3 2.552346 1_546
P2 Rh3 2.585219 1_545
P3 Rh1 2.298196 1_555
P3 Rh2 2.303042 1_555
P3 Rh8 2.309841 1_655
P3 Rh9 2.453030 1_556
P3 Rh9 2.487037 1_555
P3 Rh4 2.552242 1_656
P3 Rh4 2.585115 1_655
P4 Rh5 2.298648 1_555
P4 Rh3 2.303430 1_555
P4 Rh9 2.310237 1_555
P4 Rh7 2.453268 1_554
P4 Rh7 2.487192 1_555
P4 Rh2 2.552323 1_554
P4 Rh2 2.585205 1_555
P5 Rh3 2.298148 1_555
P5 Rh4 2.302620 1_555
P5 Rh10 2.309485 1_565
P5 Rh8 2.453119 1_554
P5 Rh8 2.487101 1_555
P5 Rh0 2.552124 1_564
P5 Rh0 2.585014 1_565
P6 Rh4 2.298708 1_555
P6 Rh5 2.303021 1_555
P6 Rh11 2.309653 1_455
P6 Rh6 2.453494 1_554
P6 Rh6 2.487377 1_555
P6 Rh1 2.552289 1_454
P6 Rh1 2.585149 1_455
