# generated using pymatgen
data_Mn5Nb7N2
_symmetry_space_group_name_H-M   'P 1'
_cell_length_a   8.18318782
_cell_length_b   8.20280919
_cell_length_c   8.14717685
_cell_angle_alpha   90.00000000
_cell_angle_beta   60.14546433
_cell_angle_gamma   120.07934921
_symmetry_Int_Tables_number   1
_chemical_formula_structural   Mn5Nb7N2
_chemical_formula_sum   'Mn10 Nb14 N4'
_cell_volume   387.08739408
_cell_formula_units_Z   2
loop_
 _symmetry_equiv_pos_site_id
 _symmetry_equiv_pos_as_xyz
  1  'x, y, z'
loop_
 _atom_site_type_symbol
 _atom_site_label
 _atom_site_symmetry_multiplicity
 _atom_site_fract_x
 _atom_site_fract_y
 _atom_site_fract_z
 _atom_site_occupancy
  Mn  Mn0  1  0.10274300  0.88453700  0.19862900  1
  Mn  Mn1  1  0.10274300  0.21820600  0.19862900  1
  Mn  Mn2  1  0.41613500  0.20806800  0.89222500  1
  Mn  Mn3  1  0.41613500  0.20806800  0.19164000  1
  Mn  Mn4  1  0.89725700  0.11546300  0.80137100  1
  Mn  Mn5  1  0.89725700  0.78179400  0.80137100  1
  Mn  Mn6  1  0.58386500  0.79193200  0.10777500  1
  Mn  Mn7  1  0.58386500  0.79193200  0.80836000  1
  Mn  Mn8  1  0.50000000  0.50000000  0.00000000  1
  Mn  Mn9  1  0.50000000  0.00000000  0.00000000  1
  Nb  Nb0  1  0.62356700  0.81178400  0.43821600  1
  Nb  Nb1  1  0.85629300  0.42814700  0.82185300  1
  Nb  Nb2  1  0.25385400  0.81702900  0.81732300  1
  Nb  Nb3  1  0.25385400  0.43682600  0.42882300  1
  Nb  Nb4  1  0.25385400  0.43682600  0.81732300  1
  Nb  Nb5  1  0.25385400  0.81702900  0.42882300  1
  Nb  Nb6  1  0.37643300  0.18821600  0.56178400  1
  Nb  Nb7  1  0.14370700  0.57185300  0.17814700  1
  Nb  Nb8  1  0.74614600  0.18297100  0.18267700  1
  Nb  Nb9  1  0.74614600  0.56317400  0.57117700  1
  Nb  Nb10  1  0.74614600  0.56317400  0.18267700  1
  Nb  Nb11  1  0.74614600  0.18297100  0.57117700  1
  Nb  Nb12  1  0.00000000  0.00000000  0.50000000  1
  Nb  Nb13  1  0.00000000  0.00000000  0.00000000  1
  N  N0  1  0.50000000  0.00000000  0.50000000  1
  N  N1  1  0.50000000  0.50000000  0.50000000  1
  N  N2  1  0.00000000  0.50000000  0.00000000  1
  N  N3  1  0.00000000  0.50000000  0.50000000  1
loop_
_geom_bond_atom_site_label_1
_geom_bond_atom_site_label_2
_geom_bond_distance
_geom_bond_site_symmetry_2
Mn0 Mn9 2.399968 1_565
Mn0 Nb12 2.524972 1_565
Mn0 Nb13 2.524979 1_565
Mn0 Mn3 2.579820 1_565
Mn0 Mn2 2.579823 1_564
Mn0 Mn1 2.737023 1_565
Mn0 Nb7 2.743178 1_555
Mn0 Nb9 2.854449 1_455
Mn0 Nb10 2.854453 1_455
Mn0 Nb5 2.889340 1_555
Mn0 Nb2 2.889347 1_554
Mn0 Nb0 3.094510 1_455
Mn1 Mn8 2.399968 1_555
Mn1 Nb12 2.524972 1_555
Mn1 Nb13 2.524979 1_555
Mn1 Mn3 2.579815 1_555
Mn1 Mn2 2.579819 1_554
Mn1 Nb7 2.743169 1_555
Mn1 Nb11 2.854445 1_455
Mn1 Nb8 2.854450 1_455
Mn1 Nb3 2.889343 1_555
Mn1 Nb4 2.889351 1_554
Mn1 Nb0 3.094506 1_445
Mn2 Mn8 2.434949 1_556
Mn2 Mn9 2.434956 1_556
Mn2 Mn3 2.439387 1_556
Mn2 Nb13 2.545047 1_556
Mn2 Nb9 2.775164 1_555
Mn2 Nb11 2.775174 1_555
Mn2 Nb1 2.826195 1_555
Mn2 Nb6 2.863141 1_555
Mn2 Nb4 2.993609 1_555
Mn2 Nb2 2.993609 1_545
Mn3 Mn8 2.434949 1_555
Mn3 Mn9 2.434956 1_555
Mn3 Nb12 2.545047 1_555
Mn3 Nb10 2.775164 1_555
Mn3 Nb8 2.775174 1_555
Mn3 Nb1 2.826199 1_554
Mn3 Nb6 2.863149 1_555
Mn3 Nb3 2.993609 1_555
Mn3 Nb5 2.993609 1_545
Mn4 Mn9 2.399968 1_556
Mn4 Nb12 2.524972 1_655
Mn4 Nb13 2.524979 1_656
Mn4 Mn7 2.579820 1_545
Mn4 Mn6 2.579823 1_546
Mn4 Mn5 2.737023 1_545
Mn4 Nb1 2.743178 1_555
Mn4 Nb3 2.854449 1_655
Mn4 Nb4 2.854453 1_655
Mn4 Nb11 2.889340 1_555
Mn4 Nb8 2.889347 1_556
Mn4 Nb6 3.094510 1_655
Mn5 Mn8 2.399968 1_556
Mn5 Nb12 2.524972 1_665
Mn5 Nb13 2.524979 1_666
Mn5 Mn7 2.579815 1_555
Mn5 Mn6 2.579819 1_556
Mn5 Nb1 2.743169 1_555
Mn5 Nb5 2.854445 1_655
Mn5 Nb2 2.854450 1_655
Mn5 Nb9 2.889343 1_555
Mn5 Nb10 2.889351 1_556
Mn5 Nb6 3.094506 1_665
Mn6 Mn8 2.434949 1_555
Mn6 Mn9 2.434956 1_565
Mn6 Mn7 2.439387 1_554
Mn6 Nb13 2.545047 1_665
Mn6 Nb3 2.775164 1_555
Mn6 Nb5 2.775174 1_555
Mn6 Nb7 2.826195 1_555
Mn6 Nb0 2.863141 1_555
Mn6 Nb8 2.993609 1_565
Mn6 Nb10 2.993609 1_555
Mn7 Mn8 2.434949 1_556
Mn7 Mn9 2.434956 1_566
Mn7 Nb12 2.545047 1_665
Mn7 Nb4 2.775164 1_555
Mn7 Nb2 2.775174 1_555
Mn7 Nb7 2.826199 1_556
Mn7 Nb0 2.863149 1_555
Mn7 Nb11 2.993609 1_565
Mn7 Nb9 2.993609 1_555
Mn8 Nb1 2.909333 1_554
Mn8 Nb7 2.909333 1_555
Mn8 Nb4 2.911898 1_554
Mn8 Nb10 2.911898 1_555
Mn8 Nb3 2.911898 1_555
Mn8 Nb9 2.911898 1_554
Mn9 Nb1 2.909339 1_554
Mn9 Nb7 2.909339 1_545
Mn9 Nb11 2.911897 1_554
Mn9 Nb2 2.911897 1_544
Mn9 Nb8 2.911897 1_555
Mn9 Nb5 2.911897 1_545
N0 Nb6 2.172007 1_555
N0 Nb0 2.172007 1_545
N0 Nb5 2.186013 1_545
N0 Nb8 2.186013 1_555
N0 Nb2 2.186013 1_545
N0 Nb11 2.186013 1_555
N1 Nb0 2.172015 1_555
N1 Nb6 2.172015 1_555
N1 Nb3 2.186015 1_555
N1 Nb9 2.186015 1_555
N1 Nb10 2.186015 1_555
N1 Nb4 2.186015 1_555
N2 Nb10 2.190860 1_455
N2 Nb4 2.190860 1_554
N2 Nb8 2.190866 1_455
N2 Nb2 2.190866 1_554
N2 Nb7 2.200316 1_555
N2 Nb1 2.200316 1_454
N3 Nb9 2.190860 1_455
N3 Nb3 2.190860 1_555
N3 Nb11 2.190866 1_455
N3 Nb5 2.190866 1_555
N3 Nb7 2.200308 1_555
N3 Nb1 2.200308 1_455
