# generated using pymatgen
data_Mg14NbSb
_symmetry_space_group_name_H-M   'P 1'
_cell_length_a   6.33390724
_cell_length_b   6.23478345
_cell_length_c   10.27847260
_cell_angle_alpha   90.00000000
_cell_angle_beta   90.00000000
_cell_angle_gamma   119.48365349
_symmetry_Int_Tables_number   1
_chemical_formula_structural   Mg14NbSb
_chemical_formula_sum   'Mg14 Nb1 Sb1'
_cell_volume   353.33650536
_cell_formula_units_Z   1
loop_
 _symmetry_equiv_pos_site_id
 _symmetry_equiv_pos_as_xyz
  1  'x, y, z'
loop_
 _atom_site_type_symbol
 _atom_site_label
 _atom_site_symmetry_multiplicity
 _atom_site_fract_x
 _atom_site_fract_y
 _atom_site_fract_z
 _atom_site_occupancy
  Mg  Mg0  1  0.16630909  0.33315405  0.62500000  1
  Mg  Mg1  1  0.16680791  0.83340346  0.62500000  1
  Mg  Mg2  1  0.66782811  0.33232491  0.12500000  1
  Mg  Mg3  1  0.66585972  0.33259818  0.62500000  1
  Mg  Mg4  1  0.66782811  0.83550220  0.12500000  1
  Mg  Mg5  1  0.66585972  0.83326055  0.62500000  1
  Mg  Mg6  1  0.33199560  0.17107919  0.37303448  1
  Mg  Mg7  1  0.33199560  0.17107919  0.87696552  1
  Mg  Mg8  1  0.33199560  0.66091741  0.37303448  1
  Mg  Mg9  1  0.33199560  0.66091741  0.87696552  1
  Mg  Mg10  1  0.83973476  0.16986788  0.37228201  1
  Mg  Mg11  1  0.83973476  0.16986788  0.87771799  1
  Mg  Mg12  1  0.83103099  0.66551600  0.37757366  1
  Mg  Mg13  1  0.83103099  0.66551600  0.87242634  1
  Nb  Nb0  1  0.16969003  0.33484452  0.12500000  1
  Sb  Sb0  1  0.16030337  0.83015118  0.12500000  1
loop_
_geom_bond_atom_site_label_1
_geom_bond_atom_site_label_2
_geom_bond_distance
_geom_bond_site_symmetry_2
Mg0 Mg1 3.117393 1_555
Mg0 Mg1 3.117393 1_545
Mg0 Mg7 3.142210 1_555
Mg0 Mg6 3.142210 1_555
Mg0 Mg8 3.142216 1_555
Mg0 Mg9 3.142216 1_555
Mg0 Mg11 3.160617 1_455
Mg0 Mg10 3.160617 1_455
Mg0 Mg5 3.165814 1_555
Mg0 Mg3 3.165815 1_555
Mg0 Mg5 3.168095 1_445
Mg0 Mg3 3.168096 1_455
Mg1 Mg13 3.145663 1_455
Mg1 Mg12 3.145663 1_455
Mg1 Mg3 3.161386 1_565
Mg1 Mg5 3.161386 1_555
Mg1 Mg3 3.172521 1_455
Mg1 Mg5 3.172521 1_455
Mg1 Mg8 3.172692 1_555
Mg1 Mg9 3.172692 1_555
Mg1 Mg7 3.172698 1_565
Mg1 Mg6 3.172698 1_565
Mg2 Mg4 3.097582 1_545
Mg2 Sb0 3.135847 1_655
Mg2 Mg4 3.137201 1_555
Mg2 Mg7 3.151174 1_554
Mg2 Mg6 3.151174 1_555
Mg2 Nb0 3.162922 1_555
Mg2 Nb0 3.171045 1_655
Mg2 Sb0 3.198326 1_545
Mg3 Mg5 3.113262 1_545
Mg3 Mg5 3.121521 1_555
Mg3 Mg7 3.177559 1_555
Mg3 Mg6 3.177559 1_555
Mg4 Sb0 3.135847 1_655
Mg4 Mg9 3.151173 1_554
Mg4 Mg8 3.151173 1_555
Mg4 Nb0 3.162921 1_555
Mg4 Nb0 3.171044 1_665
Mg4 Sb0 3.198326 1_555
Mg5 Mg8 3.177559 1_555
Mg5 Mg9 3.177559 1_555
Mg6 Mg8 3.054035 1_555
Mg6 Nb0 3.103566 1_555
Mg6 Sb0 3.150393 1_545
Mg6 Mg8 3.180748 1_545
Mg7 Mg9 3.054035 1_555
Mg7 Nb0 3.103566 1_556
Mg7 Sb0 3.150393 1_546
Mg7 Mg9 3.180748 1_545
Mg8 Nb0 3.103572 1_555
Mg8 Sb0 3.150387 1_555
Mg9 Nb0 3.103572 1_556
Mg9 Sb0 3.150387 1_556
Mg10 Mg8 3.114234 1_655
Mg10 Mg6 3.114234 1_655
Mg10 Mg12 3.118235 1_545
Mg10 Mg12 3.118236 1_555
Mg10 Mg2 3.123662 1_555
Mg10 Mg4 3.123668 1_545
Mg10 Nb0 3.125673 1_655
Mg10 Mg3 3.176389 1_555
Mg10 Mg5 3.176395 1_545
Mg10 Mg8 3.219706 1_545
Mg10 Mg6 3.219706 1_555
Mg11 Mg9 3.114234 1_655
Mg11 Mg7 3.114234 1_655
Mg11 Mg13 3.118235 1_545
Mg11 Mg13 3.118236 1_555
Mg11 Mg2 3.123662 1_556
Mg11 Mg4 3.123668 1_546
Mg11 Nb0 3.125673 1_656
Mg11 Mg3 3.176389 1_555
Mg11 Mg5 3.176395 1_545
Mg11 Mg9 3.219706 1_545
Mg11 Mg7 3.219706 1_555
Mg12 Mg5 3.119777 1_555
Mg12 Mg3 3.119783 1_555
Mg12 Mg6 3.147177 1_555
Mg12 Mg8 3.147177 1_555
Mg12 Mg4 3.163826 1_555
Mg12 Mg2 3.163832 1_555
Mg12 Sb0 3.167900 1_655
Mg12 Mg6 3.187614 1_665
Mg12 Mg8 3.187614 1_655
Mg13 Mg5 3.119777 1_555
Mg13 Mg3 3.119783 1_555
Mg13 Mg7 3.147177 1_555
Mg13 Mg9 3.147177 1_555
Mg13 Mg4 3.163826 1_556
Mg13 Mg2 3.163832 1_556
Mg13 Sb0 3.167900 1_656
Mg13 Mg7 3.187614 1_665
Mg13 Mg9 3.187614 1_655
Nb0 Sb0 3.117821 1_555
Nb0 Sb0 3.117821 1_545
