# generated using pymatgen
data_MgCrO2
_symmetry_space_group_name_H-M   'P 1'
_cell_length_a   8.11403349
_cell_length_b   8.11403349
_cell_length_c   9.62464159
_cell_angle_alpha   60.58571730
_cell_angle_beta   60.58571730
_cell_angle_gamma   20.94880960
_symmetry_Int_Tables_number   1
_chemical_formula_structural   MgCrO2
_chemical_formula_sum   'Mg4 Cr4 O8'
_cell_volume   196.27579548
_cell_formula_units_Z   4
loop_
 _symmetry_equiv_pos_site_id
 _symmetry_equiv_pos_as_xyz
  1  'x, y, z'
loop_
 _atom_site_type_symbol
 _atom_site_label
 _atom_site_symmetry_multiplicity
 _atom_site_fract_x
 _atom_site_fract_y
 _atom_site_fract_z
 _atom_site_occupancy
  Mg  Mg0  1  0.67046100  0.67046100  0.29035400  1
  Mg  Mg1  1  0.32953900  0.32953900  0.70964600  1
  Mg  Mg2  1  0.98194300  0.98194300  0.36312500  1
  Mg  Mg3  1  0.01805700  0.01805700  0.63687500  1
  Cr  Cr0  1  0.36015500  0.36015500  0.97792400  1
  Cr  Cr1  1  0.81936700  0.81936700  0.34517000  1
  Cr  Cr2  1  0.18063300  0.18063300  0.65483000  1
  Cr  Cr3  1  0.63984500  0.63984500  0.02207600  1
  O  O0  1  0.17745500  0.17745500  0.86135200  1
  O  O1  1  0.57991100  0.57991100  0.69990200  1
  O  O2  1  0.42008900  0.42008900  0.30009800  1
  O  O3  1  0.82254500  0.82254500  0.13864800  1
  O  O4  1  0.87282400  0.87282400  0.81031700  1
  O  O5  1  0.21302500  0.21302500  0.41392100  1
  O  O6  1  0.12717600  0.12717600  0.18968300  1
  O  O7  1  0.78697500  0.78697500  0.58607900  1
loop_
_geom_bond_atom_site_label_1
_geom_bond_atom_site_label_2
_geom_bond_distance
_geom_bond_site_symmetry_2
Mg0 O6 2.064062 1_565
Mg0 O6 2.064062 1_655
Mg0 O3 2.117116 1_555
Mg0 O5 2.204214 1_565
Mg0 O5 2.204214 1_655
Mg1 O4 2.064062 1_455
Mg1 O4 2.064062 1_545
Mg1 O0 2.117116 1_555
Mg1 O7 2.204214 1_455
Mg1 O7 2.204214 1_545
Mg2 O2 2.028853 1_565
Mg2 O2 2.028853 1_655
Mg2 O6 2.072032 1_665
Mg3 O1 2.028853 1_455
Mg3 O1 2.028853 1_545
Mg3 O4 2.072032 1_445
Cr0 O3 2.000421 1_456
Cr0 O3 2.000421 1_546
Cr0 O4 2.119742 1_545
Cr0 O4 2.119742 1_455
Cr1 O3 1.962864 1_555
Cr1 O2 2.061797 1_565
Cr1 O2 2.061797 1_655
Cr1 O5 2.090893 1_565
Cr1 O5 2.090893 1_655
Cr1 O7 2.108601 1_555
Cr2 O0 1.962864 1_555
Cr2 O1 2.061797 1_545
Cr2 O1 2.061797 1_455
Cr2 O7 2.090893 1_545
Cr2 O7 2.090893 1_455
Cr2 O5 2.108601 1_555
Cr3 O0 2.000421 1_654
Cr3 O0 2.000421 1_564
Cr3 O6 2.119742 1_655
Cr3 O6 2.119742 1_565
