# generated using pymatgen
data_MgVCr2Fe3(PO4)6
_symmetry_space_group_name_H-M   'P 1'
_cell_length_a   8.50554635
_cell_length_b   8.75805519
_cell_length_c   8.73228385
_cell_angle_alpha   59.98440211
_cell_angle_beta   58.83080425
_cell_angle_gamma   60.90608567
_symmetry_Int_Tables_number   1
_chemical_formula_structural   MgVCr2Fe3(PO4)6
_chemical_formula_sum   'Mg1 V1 Cr2 Fe3 P6 O24'
_cell_volume   458.69088459
_cell_formula_units_Z   1
loop_
 _symmetry_equiv_pos_site_id
 _symmetry_equiv_pos_as_xyz
  1  'x, y, z'
loop_
 _atom_site_type_symbol
 _atom_site_label
 _atom_site_symmetry_multiplicity
 _atom_site_fract_x
 _atom_site_fract_y
 _atom_site_fract_z
 _atom_site_occupancy
  Mg  Mg0  1  0.75476900  0.37021200  0.74259100  1
  V  V0  1  0.56321500  0.14243000  0.15005800  1
  Cr  Cr0  1  0.00753400  0.98559800  0.00788600  1
  Cr  Cr1  1  0.49532300  0.50434700  0.49319200  1
  Fe  Fe0  1  0.06131700  0.65445200  0.64671400  1
  Fe  Fe1  1  0.43154400  0.86033900  0.85508400  1
  Fe  Fe2  1  0.95293600  0.34086300  0.34435400  1
  P  P0  1  0.23576600  0.25368500  0.55999600  1
  P  P1  1  0.25255200  0.94501800  0.25096000  1
  P  P2  1  0.27727600  0.53904100  0.93262100  1
  P  P3  1  0.73950300  0.46950100  0.04719400  1
  P  P4  1  0.74803100  0.04599900  0.75192100  1
  P  P5  1  0.73961500  0.76266300  0.46082800  1
  O  O0  1  0.06764800  0.08282200  0.32909100  1
  O  O1  1  0.11074200  0.47693800  0.10130300  1
  O  O2  1  0.03199400  0.32240900  0.55634400  1
  O  O3  1  0.22546200  0.09392100  0.75438500  1
  O  O4  1  0.39162100  0.19916100  0.38593200  1
  O  O5  1  0.27927300  0.41100400  0.55688800  1
  O  O6  1  0.23151000  0.91824200  0.09914700  1
  O  O7  1  0.28683700  0.74558900  0.40923500  1
  O  O8  1  0.57050400  0.62168600  0.99065700  1
  O  O9  1  0.28690000  0.55673700  0.73837800  1
  O  O10  1  0.75890600  0.28153300  0.04540500  1
  O  O11  1  0.56315700  0.00644000  0.82703400  1
  O  O12  1  0.43570200  0.99385500  0.17780600  1
  O  O13  1  0.25320800  0.73247900  0.91479700  1
  O  O14  1  0.70662400  0.44897200  0.24907100  1
  O  O15  1  0.47525600  0.39202400  0.94203900  1
  O  O16  1  0.71989700  0.25081500  0.59974100  1
  O  O17  1  0.77822000  0.07991300  0.89775200  1
  O  O18  1  0.69890400  0.58971000  0.48570200  1
  O  O19  1  0.56354500  0.85603500  0.59841200  1
  O  O20  1  0.77426200  0.90254600  0.25425500  1
  O  O21  1  0.92065300  0.68523200  0.50741200  1
  O  O22  1  0.93107200  0.50583600  0.89682500  1
  O  O23  1  0.92871900  0.89382700  0.68898900  1
loop_
_geom_bond_atom_site_label_1
_geom_bond_atom_site_label_2
_geom_bond_distance
_geom_bond_site_symmetry_2
Mg0 O2 2.032693 1_655
Mg0 O15 2.080147 1_555
Mg0 O17 2.163284 1_555
Mg0 O16 2.174184 1_555
Mg0 O18 2.203193 1_555
Mg0 O10 2.368886 1_556
Cr0 O20 2.124501 1_455
Cr0 O3 2.144237 1_564
Cr0 O6 2.149542 1_555
Cr0 O17 2.234184 1_464
Cr0 O13 2.341215 1_554
Cr0 O10 2.469634 1_465
Cr1 O9 2.049428 1_555
Cr1 O14 2.056794 1_555
Cr1 O7 2.073283 1_555
Cr1 O5 2.074255 1_555
Cr1 O18 2.157383 1_555
Cr1 O16 2.256710 1_555
Fe0 O22 1.935218 1_455
Fe0 O23 1.961465 1_455
Fe0 O21 1.961775 1_455
Fe0 O7 2.081404 1_555
Fe0 O9 2.088566 1_555
Fe0 O5 2.218575 1_555
Fe1 O19 1.929783 1_555
Fe1 O8 1.933272 1_555
Fe1 O11 1.935460 1_565
Fe1 O13 2.018815 1_555
Fe1 O6 2.045193 1_556
Fe1 O3 2.083089 1_565
Fe2 O1 1.950026 1_655
Fe2 O0 2.024713 1_655
Fe2 O16 2.170046 1_555
Fe2 O2 2.188278 1_655
Fe2 O14 2.250565 1_555
Fe2 O18 2.508607 1_555
O0 P1 1.504238 1_545
O1 P2 1.503271 1_554
O2 P0 1.546211 1_555
O3 P0 1.560734 1_555
O4 P0 1.523318 1_555
O4 V0 1.956099 1_555
O5 P0 1.576088 1_555
O6 P1 1.562650 1_555
O7 P1 1.597698 1_555
O8 P3 1.516415 1_556
O9 P2 1.585363 1_555
O10 P3 1.580006 1_555
O10 V0 2.091253 1_555
O11 P4 1.502561 1_555
O12 P1 1.536960 1_555
O12 V0 1.926957 1_565
O13 P2 1.538880 1_555
O14 P3 1.561939 1_555
O15 P2 1.558563 1_555
O15 V0 2.116939 1_556
O16 P4 1.602418 1_555
O17 P4 1.602141 1_555
O17 V0 2.135578 1_556
O18 P5 1.601421 1_555
O19 P5 1.511428 1_555
O20 P5 1.559326 1_555
O20 V0 2.138850 1_565
O21 P5 1.534055 1_555
O22 P3 1.533581 1_556
O23 P4 1.518790 1_565
