# generated using pymatgen
data_BaTl(MoO3)2
_symmetry_space_group_name_H-M   'P 1'
_cell_length_a   22.35336366
_cell_length_b   22.35336366
_cell_length_c   3.90991266
_cell_angle_alpha   85.05351147
_cell_angle_beta   85.05351147
_cell_angle_gamma   10.00690067
_symmetry_Int_Tables_number   1
_chemical_formula_structural   BaTl(MoO3)2
_chemical_formula_sum   'Ba2 Tl2 Mo4 O12'
_cell_volume   338.21015670
_cell_formula_units_Z   2
loop_
 _symmetry_equiv_pos_site_id
 _symmetry_equiv_pos_as_xyz
  1  'x, y, z'
loop_
 _atom_site_type_symbol
 _atom_site_label
 _atom_site_symmetry_multiplicity
 _atom_site_fract_x
 _atom_site_fract_y
 _atom_site_fract_z
 _atom_site_occupancy
  Ba  Ba0  1  0.16895100  0.16895100  0.82622100  1
  Ba  Ba1  1  0.84105800  0.84105800  0.15249000  1
  Tl  Tl0  1  0.72809600  0.72809600  0.25075800  1
  Tl  Tl1  1  0.28089600  0.28089600  0.65534600  1
  Mo  Mo0  1  0.53469900  0.53469900  0.47321900  1
  Mo  Mo1  1  0.39666100  0.39666100  0.59969800  1
  Mo  Mo2  1  0.61561700  0.61561700  0.38072600  1
  Mo  Mo3  1  0.46332900  0.46332900  0.53807400  1
  O  O0  1  0.38729600  0.38729600  0.10876500  1
  O  O1  1  0.53642100  0.53642100  0.97149400  1
  O  O2  1  0.23457600  0.23457600  0.82773300  1
  O  O3  1  0.96348200  0.96348200  0.53798600  1
  O  O4  1  0.78089600  0.78089600  0.31586900  1
  O  O5  1  0.11398700  0.11398700  0.38276900  1
  O  O6  1  0.61446400  0.61446400  0.88210200  1
  O  O7  1  0.32888700  0.32888700  0.67709100  1
  O  O8  1  0.89319100  0.89319100  0.60196200  1
  O  O9  1  0.03661500  0.03661500  0.47113000  1
  O  O10  1  0.46320800  0.46320800  0.03817000  1
  O  O11  1  0.65996800  0.65996800  0.33717800  1
loop_
_geom_bond_atom_site_label_1
_geom_bond_atom_site_label_2
_geom_bond_distance
_geom_bond_site_symmetry_2
Ba0 O11 2.783787 1_545
Ba0 O11 2.783787 1_455
Ba0 O11 2.795299 1_456
Ba0 O11 2.795299 1_546
Ba0 O2 2.923217 1_555
Ba0 O6 3.105705 1_455
Ba0 O6 3.105705 1_545
Ba0 O5 3.119807 1_555
Ba0 O5 3.131341 1_556
Ba1 O4 2.700174 1_555
Ba1 O7 2.779220 1_564
Ba1 O7 2.779220 1_654
Ba1 O0 2.830140 1_655
Ba1 O0 2.830140 1_565
Ba1 O7 2.847692 1_655
Ba1 O7 2.847692 1_565
Ba1 O8 3.026382 1_554
Ba1 O8 3.030778 1_555
Mo0 O9 1.951418 1_565
Mo0 O9 1.951418 1_655
Mo0 O1 1.956342 1_555
Mo0 O1 1.956555 1_554
Mo1 O8 1.955640 1_455
Mo1 O8 1.955640 1_545
Mo1 O0 1.997992 1_556
Mo1 O0 1.999262 1_555
Mo2 O5 1.950907 1_655
Mo2 O5 1.950907 1_565
Mo2 O6 1.954690 1_554
Mo2 O6 1.956561 1_555
Mo2 O11 1.967820 1_555
Mo3 O3 1.949577 1_545
Mo3 O3 1.949577 1_455
Mo3 O10 1.954873 1_556
Mo3 O10 1.955055 1_555
O2 Tl1 2.114062 1_555
O2 Tl0 2.556784 1_546
O2 Tl0 2.556784 1_456
O4 Tl1 2.358516 1_565
O4 Tl1 2.358516 1_655
O4 Tl0 2.387067 1_555
O7 Tl1 2.146376 1_555
