# generated using pymatgen
data_Ce2Si4OsRu3
_symmetry_space_group_name_H-M   'P 1'
_cell_length_a   4.20509400
_cell_length_b   4.20509400
_cell_length_c   9.69007600
_cell_angle_alpha   90.00000000
_cell_angle_beta   90.00000000
_cell_angle_gamma   90.00000000
_symmetry_Int_Tables_number   1
_chemical_formula_structural   Ce2Si4OsRu3
_chemical_formula_sum   'Ce2 Si4 Os1 Ru3'
_cell_volume   171.34782656
_cell_formula_units_Z   1
loop_
 _symmetry_equiv_pos_site_id
 _symmetry_equiv_pos_as_xyz
  1  'x, y, z'
loop_
 _atom_site_type_symbol
 _atom_site_label
 _atom_site_symmetry_multiplicity
 _atom_site_fract_x
 _atom_site_fract_y
 _atom_site_fract_z
 _atom_site_occupancy
  Ce  Ce0  1  0.50000000  0.00000000  0.75042900  1
  Ce  Ce1  1  0.00000000  0.50000000  0.24957100  1
  Si  Si0  1  0.00000000  0.50000000  0.88127900  1
  Si  Si1  1  0.50000000  0.00000000  0.38263100  1
  Si  Si2  1  0.50000000  0.00000000  0.11872100  1
  Si  Si3  1  0.00000000  0.50000000  0.61736900  1
  Os  Os0  1  0.50000000  0.50000000  0.00000000  1
  Ru  Ru0  1  0.00000000  0.00000000  0.50000000  1
  Ru  Ru1  1  0.00000000  0.00000000  0.00000000  1
  Ru  Ru2  1  0.50000000  0.50000000  0.50000000  1
loop_
_geom_bond_atom_site_label_1
_geom_bond_atom_site_label_2
_geom_bond_distance
_geom_bond_site_symmetry_2
Ce0 Os0 3.204556 1_546
Ce0 Ru1 3.204556 1_656
Ce0 Os0 3.204556 1_556
Ce0 Ru1 3.204556 1_556
Ce0 Ru0 3.210835 1_555
Ce0 Ru0 3.210835 1_655
Ce0 Ru2 3.210835 1_545
Ce0 Ru2 3.210835 1_555
Ce0 Si0 3.232506 1_555
Ce0 Si0 3.232506 1_645
Ce0 Si0 3.232506 1_545
Ce0 Si0 3.232506 1_655
Ce0 Si3 3.240966 1_545
Ce0 Si3 3.240966 1_555
Ce0 Si3 3.240966 1_655
Ce0 Si3 3.240966 1_645
Ce1 Os0 3.204556 1_555
Ce1 Os0 3.204556 1_455
Ce1 Ru1 3.204556 1_555
Ce1 Ru1 3.204556 1_565
Ce1 Ru0 3.210835 1_555
Ce1 Ru2 3.210835 1_455
Ce1 Ru2 3.210835 1_555
Ce1 Ru0 3.210835 1_565
Ce1 Si2 3.232506 1_555
Ce1 Si2 3.232506 1_465
Ce1 Si2 3.232506 1_455
Ce1 Si2 3.232506 1_565
Ce1 Si1 3.240966 1_465
Ce1 Si1 3.240966 1_565
Ce1 Si1 3.240966 1_555
Ce1 Si1 3.240966 1_455
Os0 Si2 2.396698 1_555
Os0 Si0 2.396698 1_554
Os0 Si0 2.396698 1_654
Os0 Si2 2.396698 1_565
Ru0 Si3 2.390437 1_545
Ru0 Si3 2.390437 1_555
Ru0 Si1 2.390437 1_555
Ru0 Si1 2.390437 1_455
Ru1 Si0 2.396698 1_544
Ru1 Si0 2.396698 1_554
Ru1 Si2 2.396698 1_455
Ru1 Si2 2.396698 1_555
Ru2 Si3 2.390437 1_555
Ru2 Si3 2.390437 1_655
Ru2 Si1 2.390437 1_565
Ru2 Si1 2.390437 1_555
