# generated using pymatgen
data_Li7Mn4CoO12
_symmetry_space_group_name_H-M   'P 1'
_cell_length_a   3.01308900
_cell_length_b   8.15287982
_cell_length_c   9.92133488
_cell_angle_alpha   114.02446076
_cell_angle_beta   94.65144162
_cell_angle_gamma   89.03146313
_symmetry_Int_Tables_number   1
_chemical_formula_structural   Li7Mn4CoO12
_chemical_formula_sum   'Li7 Mn4 Co1 O12'
_cell_volume   221.84003428
_cell_formula_units_Z   1
loop_
 _symmetry_equiv_pos_site_id
 _symmetry_equiv_pos_as_xyz
  1  'x, y, z'
loop_
 _atom_site_type_symbol
 _atom_site_label
 _atom_site_symmetry_multiplicity
 _atom_site_fract_x
 _atom_site_fract_y
 _atom_site_fract_z
 _atom_site_occupancy
  Li  Li0  1  0.01338100  0.82953800  0.65499100  1
  Li  Li1  1  0.50935900  0.34517400  0.16718800  1
  Li  Li2  1  0.50351600  0.98183000  0.49254000  1
  Li  Li3  1  0.99126100  0.50792100  0.00262500  1
  Li  Li4  1  0.99398700  0.16310100  0.33479600  1
  Li  Li5  1  0.48796200  0.67157600  0.84230700  1
  Li  Li6  1  0.98599800  0.67679900  0.34257500  1
  Mn  Mn0  1  0.99676700  0.99849900  0.00456800  1
  Mn  Mn1  1  0.50471000  0.50608900  0.49322700  1
  Mn  Mn2  1  0.50379400  0.16624800  0.83445400  1
  Mn  Mn3  1  0.01025400  0.32959700  0.66123000  1
  Co  Co0  1  0.48760600  0.82599500  0.17525700  1
  O  O0  1  0.52980600  0.92939700  0.84163900  1
  O  O1  1  0.97501800  0.42853600  0.35357100  1
  O  O2  1  0.03390200  0.09364400  0.67180800  1
  O  O3  1  0.50468900  0.60702200  0.16275600  1
  O  O4  1  0.53574500  0.26490500  0.50458300  1
  O  O5  1  0.02110900  0.76101200  0.00571600  1
  O  O6  1  0.49403100  0.73427300  0.50098200  1
  O  O7  1  0.96585800  0.24130400  0.00197700  1
  O  O8  1  0.97263300  0.90880000  0.31851900  1
  O  O9  1  0.47337000  0.40438600  0.82566500  1
  O  O10  1  0.47237600  0.05954500  0.16345400  1
  O  O11  1  0.03286900  0.56480500  0.64357300  1
loop_
_geom_bond_atom_site_label_1
_geom_bond_atom_site_label_2
_geom_bond_distance
_geom_bond_site_symmetry_2
Li0 O6 2.018332 1_455
Li0 O2 2.092447 1_565
Li0 O6 2.095210 1_555
Li0 O11 2.114806 1_555
Li0 O0 2.204796 1_555
Li0 O0 2.320540 1_455
Li1 O1 2.106669 1_555
Li1 O7 2.119387 1_555
Li1 O7 2.137034 1_455
Li1 O3 2.152879 1_555
Li1 O10 2.318294 1_555
Li1 O1 2.428175 1_455
Li2 O6 2.054595 1_555
Li2 O8 2.154376 1_455
Li2 O2 2.194618 1_665
Li2 O8 2.205370 1_555
Li2 O2 2.245200 1_565
Li2 O4 2.265207 1_565
Li3 O3 2.041686 1_655
Li3 O5 2.054516 1_655
Li3 O3 2.149126 1_555
Li3 O9 2.150214 1_554
Li3 O7 2.173712 1_555
Li3 O9 2.251790 1_654
Li4 O8 2.014679 1_545
Li4 O1 2.095336 1_555
Li4 O10 2.125000 1_555
Li4 O4 2.152422 1_555
Li4 O4 2.156962 1_655
Li4 O10 2.206346 1_655
Li5 O5 2.096497 1_656
Li5 O0 2.110619 1_555
Li5 O9 2.117470 1_555
Li5 O5 2.124014 1_556
Li5 O11 2.174850 1_555
Li5 O11 2.533820 1_655
Li6 O8 1.999929 1_555
Li6 O6 2.016716 1_655
Li6 O1 2.071825 1_555
Li6 O3 2.095584 1_555
Li6 O6 2.154432 1_555
Li6 O3 2.354728 1_655
Mn0 O5 1.940982 1_655
Mn0 O10 1.950682 1_665
Mn0 O0 1.956121 1_554
Mn0 O7 1.990680 1_565
Mn0 O10 2.228831 1_565
Mn0 O0 2.271315 1_654
Mn1 O6 1.830222 1_555
Mn1 O1 1.956770 1_455
Mn1 O1 1.975481 1_555
Mn1 O11 2.011464 1_655
Mn1 O4 2.015047 1_555
Mn1 O11 2.053015 1_555
Mn2 O2 1.959309 1_555
Mn2 O0 1.961151 1_545
Mn2 O7 1.974985 1_556
Mn2 O9 1.978890 1_555
Mn2 O2 2.261384 1_655
Mn2 O7 2.310687 1_456
Mn3 O4 1.932710 1_455
Mn3 O9 1.957049 1_555
Mn3 O2 1.968563 1_555
Mn3 O11 1.998123 1_555
Mn3 O4 2.214494 1_555
Mn3 O9 2.287990 1_455
Co0 O3 1.738627 1_555
Co0 O8 1.878007 1_555
Co0 O10 1.954269 1_565
Co0 O5 2.000460 1_555
Co0 O8 2.103475 1_455
Co0 O5 2.319096 1_655
