# generated using pymatgen
data_MgAg5
_symmetry_space_group_name_H-M   'P 1'
_cell_length_a   5.59443649
_cell_length_b   5.59443649
_cell_length_c   5.59443665
_cell_angle_alpha   53.37980461
_cell_angle_beta   53.37980461
_cell_angle_gamma   53.37980643
_symmetry_Int_Tables_number   1
_chemical_formula_structural   MgAg5
_chemical_formula_sum   'Mg1 Ag5'
_cell_volume   104.62249133
_cell_formula_units_Z   1
loop_
 _symmetry_equiv_pos_site_id
 _symmetry_equiv_pos_as_xyz
  1  'x, y, z'
loop_
 _atom_site_type_symbol
 _atom_site_label
 _atom_site_symmetry_multiplicity
 _atom_site_fract_x
 _atom_site_fract_y
 _atom_site_fract_z
 _atom_site_occupancy
  Mg  Mg0  1  0.50000000  0.50000000  0.50000000  1
  Ag  Ag0  1  -0.00000000  0.66780703  0.33219297  1
  Ag  Ag1  1  0.66780703  0.33219297  0.00000000  1
  Ag  Ag2  1  0.33219297  0.00000000  0.66780703  1
  Ag  Ag3  1  0.83256384  0.83256384  0.83256384  1
  Ag  Ag4  1  0.16743616  0.16743616  0.16743616  1
loop_
_geom_bond_atom_site_label_1
_geom_bond_atom_site_label_2
_geom_bond_distance
_geom_bond_site_symmetry_2
Ag0 Ag2 2.891612 1_564
Ag0 Ag1 2.891612 1_465
Ag0 Ag1 2.906514 1_456
Ag0 Ag2 2.906514 1_465
Ag0 Ag2 2.906514 1_555
Ag0 Ag1 2.906514 1_555
Ag0 Ag4 2.912550 1_555
Ag0 Ag3 2.912550 1_455
Ag0 Mg0 2.921582 1_455
Ag0 Mg0 2.921582 1_555
Ag0 Ag4 2.925709 1_565
Ag0 Ag3 2.925710 1_454
Ag1 Ag2 2.891612 1_654
Ag1 Ag2 2.906514 1_555
Ag1 Ag2 2.906514 1_564
Ag1 Ag4 2.912550 1_555
Ag1 Ag3 2.912550 1_554
Ag1 Mg0 2.921582 1_554
Ag1 Mg0 2.921582 1_555
Ag1 Ag3 2.925709 1_544
Ag1 Ag4 2.925709 1_655
Ag2 Ag3 2.912550 1_545
Ag2 Ag4 2.912550 1_555
Ag2 Mg0 2.921582 1_555
Ag2 Mg0 2.921582 1_545
Ag2 Ag3 2.925709 1_445
Ag2 Ag4 2.925710 1_556
Ag3 Mg0 2.901559 1_556
Ag3 Mg0 2.901559 1_655
Ag3 Mg0 2.901559 1_565
Ag3 Ag4 2.901622 1_665
Ag3 Ag4 2.901622 1_656
Ag3 Ag4 2.901622 1_566
Ag4 Mg0 2.901559 1_554
Ag4 Mg0 2.901559 1_455
Ag4 Mg0 2.901559 1_545
