# generated using pymatgen
data_BaSnH16O11
_symmetry_space_group_name_H-M   'P 1'
_cell_length_a   10.53902100
_cell_length_b   8.66859900
_cell_length_c   24.03647887
_cell_angle_alpha   90.00000000
_cell_angle_beta   90.30153719
_cell_angle_gamma   90.00000000
_symmetry_Int_Tables_number   1
_chemical_formula_structural   BaSnH16O11
_chemical_formula_sum   'Ba8 Sn8 H128 O88'
_cell_volume   2195.90737167
_cell_formula_units_Z   8
loop_
 _symmetry_equiv_pos_site_id
 _symmetry_equiv_pos_as_xyz
  1  'x, y, z'
loop_
 _atom_site_type_symbol
 _atom_site_label
 _atom_site_symmetry_multiplicity
 _atom_site_fract_x
 _atom_site_fract_y
 _atom_site_fract_z
 _atom_site_occupancy
  Ba  Ba0  1  0.03163100  0.50226900  0.28381100  1
  Ba  Ba1  1  0.96836900  0.00226900  0.21618900  1
  Ba  Ba2  1  0.96836900  0.49773100  0.71618900  1
  Ba  Ba3  1  0.03163100  0.99773100  0.78381100  1
  Ba  Ba4  1  0.02551500  0.75212300  0.03601400  1
  Ba  Ba5  1  0.97448500  0.25212300  0.46398600  1
  Ba  Ba6  1  0.97448500  0.24787700  0.96398600  1
  Ba  Ba7  1  0.02551500  0.74787700  0.53601400  1
  Sn  Sn0  1  0.99829300  0.37506800  0.12448600  1
  Sn  Sn1  1  0.00170700  0.87506800  0.37551400  1
  Sn  Sn2  1  0.00170700  0.62493200  0.87551400  1
  Sn  Sn3  1  0.99829300  0.12493200  0.62448600  1
  Sn  Sn4  1  0.50156200  0.38273800  0.11929100  1
  Sn  Sn5  1  0.49843800  0.88273800  0.38070900  1
  Sn  Sn6  1  0.49843800  0.61726200  0.88070900  1
  Sn  Sn7  1  0.50156200  0.11726200  0.61929100  1
  H  H0  1  0.39634400  0.64233400  0.14931100  1
  H  H1  1  0.60365600  0.14233400  0.35068900  1
  H  H2  1  0.60365600  0.35766600  0.85068900  1
  H  H3  1  0.39634400  0.85766600  0.64931100  1
  H  H4  1  0.61853600  0.53525500  0.04386300  1
  H  H5  1  0.38146400  0.03525500  0.45613700  1
  H  H6  1  0.38146400  0.46474500  0.95613700  1
  H  H7  1  0.61853600  0.96474500  0.54386300  1
  H  H8  1  0.60860500  0.12368900  0.08978800  1
  H  H9  1  0.39139500  0.62368900  0.41021200  1
  H  H10  1  0.39139500  0.87631100  0.91021200  1
  H  H11  1  0.60860500  0.37631100  0.58978800  1
  H  H12  1  0.35808500  0.33737900  0.03585000  1
  H  H13  1  0.64191500  0.83737900  0.46415000  1
  H  H14  1  0.64191500  0.66262100  0.96415000  1
  H  H15  1  0.35808500  0.16262100  0.53585000  1
  H  H16  1  0.61058900  0.38533000  0.21417000  1
  H  H17  1  0.38941100  0.88533000  0.28583000  1
  H  H18  1  0.38941100  0.61467000  0.78583000  1
  H  H19  1  0.61058900  0.11467000  0.71417000  1
  H  H20  1  0.38522500  0.22152300  0.19257600  1
  H  H21  1  0.61477500  0.72152300  0.30742400  1
  H  H22  1  0.61477500  0.77847700  0.80742400  1
  H  H23  1  0.38522500  0.27847700  0.69257600  1
  H  H24  1  0.18428200  0.42918500  0.05671900  1
  H  H25  1  0.81571800  0.92918500  0.44328100  1
  H  H26  1  0.81571800  0.57081500  0.94328100  1
  H  H27  1  0.18428200  0.07081500  0.55671900  1
  H  H28  1  0.78926700  0.27535300  0.07667500  1
  H  H29  1  0.21073300  0.77535300  0.42332500  1
  H  H30  1  0.21073300  0.72464700  0.92332500  1
  H  H31  1  0.78926700  0.22464700  0.57667500  1
  H  H32  1  0.19813700  0.20151700  0.14213500  1
  H  H33  1  0.80186300  0.70151700  0.35786500  1
  H  H34  1  0.80186300  0.79848300  0.85786500  1
  H  H35  1  0.19813700  0.29848300  0.64213500  1
  H  H36  1  0.81450000  0.33235300  0.19254300  1
  H  H37  1  0.18550000  0.83235300  0.30745700  1
  H  H38  1  0.18550000  0.66764700  0.80745700  1
  H  H39  1  0.81450000  0.16764700  0.69254300  1
  H  H40  1  0.79988800  0.55083000  0.10423100  1
  H  H41  1  0.20011200  0.05083000  0.39576900  1
  H  H42  1  0.20011200  0.44917000  0.89576900  1
  H  H43  1  0.79988800  0.94917000  0.60423100  1
  H  H44  1  0.21066800  0.47365800  0.16893700  1
  H  H45  1  0.78933200  0.97365800  0.33106300  1
  H  H46  1  0.78933200  0.52634200  0.83106300  1
  H  H47  1  0.21066800  0.02634200  0.66893700  1
  H  H48  1  0.13014500  0.69729800  0.16210200  1
  H  H49  1  0.86985500  0.19729800  0.33789800  1
  H  H50  1  0.86985500  0.30270200  0.83789800  1
  H  H51  1  0.13014500  0.80270200  0.66210200  1
  H  H52  1  0.21443500  0.84698900  0.14916200  1
  H  H53  1  0.78556500  0.34698900  0.35083800  1
  H  H54  1  0.78556500  0.15301100  0.85083800  1
  H  H55  1  0.21443500  0.65301100  0.64916200  1
  H  H56  1  0.13113000  0.55500900  0.40866300  1
  H  H57  1  0.86887000  0.05500900  0.09133700  1
  H  H58  1  0.86887000  0.44499100  0.59133700  1
  H  H59  1  0.13113000  0.94499100  0.90866300  1
  H  H60  1  0.22024200  0.41153800  0.39399800  1
  H  H61  1  0.77975800  0.91153800  0.10600200  1
  H  H62  1  0.77975800  0.58846200  0.60600200  1
  H  H63  1  0.22024200  0.08846200  0.89399800  1
  H  H64  1  0.21524800  0.06627700  0.02653900  1
  H  H65  1  0.78475200  0.56627700  0.47346100  1
  H  H66  1  0.78475200  0.93372300  0.97346100  1
  H  H67  1  0.21524800  0.43372300  0.52653900  1
  H  H68  1  0.11523800  0.09720700  0.07353200  1
  H  H69  1  0.88476200  0.59720700  0.42646800  1
  H  H70  1  0.88476200  0.90279300  0.92646800  1
  H  H71  1  0.11523800  0.40279300  0.57353200  1
  H  H72  1  0.12439300  0.15294300  0.32259500  1
  H  H73  1  0.87560700  0.65294300  0.17740500  1
  H  H74  1  0.87560700  0.84705700  0.67740500  1
  H  H75  1  0.12439300  0.34705700  0.82259500  1
  H  H76  1  0.22492900  0.19833900  0.27716800  1
  H  H77  1  0.77507100  0.69833900  0.22283200  1
  H  H78  1  0.77507100  0.80166100  0.72283200  1
  H  H79  1  0.22492900  0.30166100  0.77716800  1
  H  H80  1  0.33639500  0.64322400  0.29377200  1
  H  H81  1  0.66360500  0.14322400  0.20622800  1
  H  H82  1  0.66360500  0.35677600  0.70622800  1
  H  H83  1  0.33639500  0.85677600  0.79377200  1
  H  H84  1  0.34691100  0.55224900  0.23758800  1
  H  H85  1  0.65308900  0.05224900  0.26241200  1
  H  H86  1  0.65308900  0.44775100  0.76241200  1
  H  H87  1  0.34691100  0.94775100  0.73758800  1
  H  H88  1  0.33906900  0.76138000  0.99833800  1
  H  H89  1  0.66093100  0.26138000  0.50166200  1
  H  H90  1  0.66093100  0.23862000  0.00166200  1
  H  H91  1  0.33906900  0.73862000  0.49833800  1
  H  H92  1  0.32717700  0.62392400  0.04058100  1
  H  H93  1  0.67282300  0.12392400  0.45941900  1
  H  H94  1  0.67282300  0.37607600  0.95941900  1
  H  H95  1  0.32717700  0.87607600  0.54058100  1
  H  H96  1  0.34914400  0.89584800  0.09004400  1
  H  H97  1  0.65085600  0.39584800  0.40995600  1
  H  H98  1  0.65085600  0.10415200  0.90995600  1
  H  H99  1  0.34914400  0.60415200  0.59004400  1
  H  H100  1  0.37382500  0.03404500  0.13443200  1
  H  H101  1  0.62617500  0.53404500  0.36556800  1
  H  H102  1  0.62617500  0.96595500  0.86556800  1
  H  H103  1  0.37382500  0.46595500  0.63443200  1
  H  H104  1  0.53711600  0.87078200  0.11486400  1
  H  H105  1  0.46288400  0.37078200  0.38513600  1
  H  H106  1  0.46288400  0.12921800  0.88513600  1
  H  H107  1  0.53711600  0.62921800  0.61486400  1
  H  H108  1  0.62139900  0.72567300  0.09604000  1
  H  H109  1  0.37860100  0.22567300  0.40396000  1
  H  H110  1  0.37860100  0.27432700  0.90396000  1
  H  H111  1  0.62139900  0.77432700  0.59604000  1
  H  H112  1  0.61643100  0.84047900  0.21626100  1
  H  H113  1  0.38356900  0.34047900  0.28373900  1
  H  H114  1  0.38356900  0.15952100  0.78373900  1
  H  H115  1  0.61643100  0.65952100  0.71626100  1
  H  H116  1  0.54809500  0.67558800  0.20723700  1
  H  H117  1  0.45190500  0.17558800  0.29276300  1
  H  H118  1  0.45190500  0.32441200  0.79276300  1
  H  H119  1  0.54809500  0.82441200  0.70723700  1
  H  H120  1  0.38294600  0.37870000  0.47137000  1
  H  H121  1  0.61705400  0.87870000  0.02863000  1
  H  H122  1  0.61705400  0.62130000  0.52863000  1
  H  H123  1  0.38294600  0.12130000  0.97137000  1
  H  H124  1  0.45157600  0.36726600  0.53119000  1
  H  H125  1  0.54842400  0.86726600  0.96881000  1
  H  H126  1  0.54842400  0.63273400  0.46881000  1
  H  H127  1  0.45157600  0.13273400  0.03119000  1
  O  O0  1  0.43207500  0.55963200  0.17218800  1
  O  O1  1  0.56792500  0.05963200  0.32781200  1
  O  O2  1  0.56792500  0.44036800  0.82781200  1
  O  O3  1  0.43207500  0.94036800  0.67218800  1
  O  O4  1  0.63040200  0.54120800  0.08427600  1
  O  O5  1  0.36959800  0.04120800  0.41572400  1
  O  O6  1  0.36959800  0.45879200  0.91572400  1
  O  O7  1  0.63040200  0.95879200  0.58427600  1
  O  O8  1  0.58060900  0.21073500  0.06725800  1
  O  O9  1  0.41939100  0.71073500  0.43274200  1
  O  O10  1  0.41939100  0.78926500  0.93274200  1
  O  O11  1  0.58060900  0.28926500  0.56725800  1
  O  O12  1  0.37233300  0.43613700  0.05543800  1
  O  O13  1  0.62766700  0.93613700  0.44456200  1
  O  O14  1  0.62766700  0.56386300  0.94456200  1
  O  O15  1  0.37233300  0.06386300  0.55543800  1
  O  O16  1  0.63544900  0.32789600  0.18099000  1
  O  O17  1  0.36455100  0.82789600  0.31901000  1
  O  O18  1  0.36455100  0.67210400  0.81901000  1
  O  O19  1  0.63544900  0.17210400  0.68099000  1
  O  O20  1  0.37238400  0.22210500  0.15192800  1
  O  O21  1  0.62761600  0.72210500  0.34807200  1
  O  O22  1  0.62761600  0.77789500  0.84807200  1
  O  O23  1  0.37238400  0.27789500  0.65192800  1
  O  O24  1  0.09182600  0.43645300  0.05082100  1
  O  O25  1  0.90817400  0.93645300  0.44917900  1
  O  O26  1  0.90817400  0.56354700  0.94917900  1
  O  O27  1  0.09182600  0.06354700  0.55082100  1
  O  O28  1  0.87722200  0.23952100  0.07438700  1
  O  O29  1  0.12277800  0.73952100  0.42561300  1
  O  O30  1  0.12277800  0.76047900  0.92561300  1
  O  O31  1  0.87722200  0.26047900  0.57438700  1
  O  O32  1  0.10746500  0.17599900  0.13544400  1
  O  O33  1  0.89253500  0.67599900  0.36455600  1
  O  O34  1  0.89253500  0.82400100  0.86455600  1
  O  O35  1  0.10746500  0.32400100  0.63544400  1
  O  O36  1  0.90659800  0.31690500  0.19850500  1
  O  O37  1  0.09340200  0.81690500  0.30149500  1
  O  O38  1  0.09340200  0.68309500  0.80149500  1
  O  O39  1  0.90659800  0.18309500  0.69850500  1
  O  O40  1  0.88928200  0.57477200  0.11435600  1
  O  O41  1  0.11071800  0.07477200  0.38564400  1
  O  O42  1  0.11071800  0.42522800  0.88564400  1
  O  O43  1  0.88928200  0.92522800  0.61435600  1
  O  O44  1  0.12344200  0.51006500  0.17348900  1
  O  O45  1  0.87655800  0.01006500  0.32651100  1
  O  O46  1  0.87655800  0.48993500  0.82651100  1
  O  O47  1  0.12344200  0.98993500  0.67348900  1
  O  O48  1  0.12603100  0.81007600  0.15188100  1
  O  O49  1  0.87396900  0.31007600  0.34811900  1
  O  O50  1  0.87396900  0.18992400  0.84811900  1
  O  O51  1  0.12603100  0.68992400  0.65188100  1
  O  O52  1  0.13058200  0.44491900  0.39491000  1
  O  O53  1  0.86941800  0.94491900  0.10509000  1
  O  O54  1  0.86941800  0.55508100  0.60509000  1
  O  O55  1  0.13058200  0.05508100  0.89491000  1
  O  O56  1  0.12376600  0.05203000  0.03481300  1
  O  O57  1  0.87623400  0.55203000  0.46518700  1
  O  O58  1  0.87623400  0.94797000  0.96518700  1
  O  O59  1  0.12376600  0.44797000  0.53481300  1
  O  O60  1  0.13207700  0.19561400  0.28353900  1
  O  O61  1  0.86792300  0.69561400  0.21646100  1
  O  O62  1  0.86792300  0.80438600  0.71646100  1
  O  O63  1  0.13207700  0.30438600  0.78353900  1
  O  O64  1  0.31128800  0.54356400  0.27566600  1
  O  O65  1  0.68871200  0.04356400  0.22433400  1
  O  O66  1  0.68871200  0.45643600  0.72433400  1
  O  O67  1  0.31128800  0.95643600  0.77566600  1
  O  O68  1  0.29909100  0.73253700  0.03422400  1
  O  O69  1  0.70090900  0.23253700  0.46577600  1
  O  O70  1  0.70090900  0.26746300  0.96577600  1
  O  O71  1  0.29909100  0.76746300  0.53422400  1
  O  O72  1  0.37511400  0.91809800  0.12879800  1
  O  O73  1  0.62488600  0.41809800  0.37120200  1
  O  O74  1  0.62488600  0.08190200  0.87120200  1
  O  O75  1  0.37511400  0.58190200  0.62879800  1
  O  O76  1  0.62033800  0.84288500  0.09846900  1
  O  O77  1  0.37966200  0.34288500  0.40153100  1
  O  O78  1  0.37966200  0.15711500  0.90153100  1
  O  O79  1  0.62033800  0.65711500  0.59846900  1
  O  O80  1  0.61013700  0.73386900  0.23074500  1
  O  O81  1  0.38986300  0.23386900  0.26925500  1
  O  O82  1  0.38986300  0.26613100  0.76925500  1
  O  O83  1  0.61013700  0.76613100  0.73074500  1
  O  O84  1  0.36803800  0.38287100  0.51235300  1
  O  O85  1  0.63196200  0.88287100  0.98764700  1
  O  O86  1  0.63196200  0.61712900  0.48764700  1
  O  O87  1  0.36803800  0.11712900  0.01235300  1
loop_
_geom_bond_atom_site_label_1
_geom_bond_atom_site_label_2
_geom_bond_distance
_geom_bond_site_symmetry_2
Ba0 O49 2.820101 1_455
Ba0 O44 2.828358 1_555
Ba0 O37 2.835591 1_555
Ba0 O60 2.861320 1_555
Ba0 O33 2.865962 1_455
Ba0 O61 2.894324 1_455
Ba0 O52 2.904576 1_555
Ba0 O36 2.914496 1_455
Ba0 O64 2.976439 1_555
Ba1 O48 2.820101 1_645
Ba1 O45 2.828358 1_555
Ba1 O36 2.835591 1_555
Ba1 O61 2.861320 1_545
Ba1 O32 2.865962 1_655
Ba1 O60 2.894324 1_655
Ba1 O53 2.904576 1_545
Ba1 O37 2.914496 1_645
Ba1 O65 2.976439 1_555
Ba2 O51 2.820101 1_655
Ba2 O46 2.828358 1_555
Ba2 O39 2.835591 1_555
Ba2 O62 2.861320 1_555
Ba2 O35 2.865962 1_655
Ba2 O63 2.894324 1_655
Ba2 O54 2.904576 1_555
Ba2 O38 2.914496 1_655
Ba2 O66 2.976439 1_555
Ba3 O50 2.820101 1_465
Ba3 O47 2.828358 1_555
Ba3 O38 2.835591 1_555
Ba3 O63 2.861320 1_565
Ba3 O34 2.865962 1_455
Ba3 O62 2.894324 1_455
Ba3 O55 2.904576 1_565
Ba3 O39 2.914496 1_465
Ba3 O67 2.976439 1_555
Ba4 O56 2.798601 1_565
Ba4 O40 2.828314 1_455
Ba4 O24 2.846124 1_555
Ba4 O30 2.850699 1_554
Ba4 O58 2.868367 1_454
Ba4 O53 2.878372 1_455
Ba4 O68 2.888764 1_555
Ba4 O26 2.920754 1_454
Ba4 O48 3.016611 1_555
Ba5 O57 2.798601 1_555
Ba5 O41 2.828314 1_655
Ba5 O25 2.846124 1_545
Ba5 O31 2.850699 1_555
Ba5 O59 2.868367 1_655
Ba5 O52 2.878372 1_655
Ba5 O69 2.888764 1_555
Ba5 O27 2.920754 1_655
Ba5 O49 3.016611 1_555
Ba6 O58 2.798601 1_545
Ba6 O42 2.828314 1_655
Ba6 O26 2.846124 1_555
Ba6 O28 2.850699 1_556
Ba6 O56 2.868367 1_656
Ba6 O55 2.878372 1_655
Ba6 O70 2.888764 1_555
Ba6 O24 2.920754 1_656
Ba6 O50 3.016611 1_555
Ba7 O59 2.798601 1_555
Ba7 O43 2.828314 1_455
Ba7 O27 2.846124 1_565
Ba7 O29 2.850699 1_555
Ba7 O57 2.868367 1_455
Ba7 O54 2.878372 1_455
Ba7 O71 2.888764 1_555
Ba7 O25 2.920754 1_455
Ba7 O51 3.016611 1_555
H0 O0 0.977730 1_555
H1 O1 0.977730 1_555
H2 O2 0.977730 1_555
H3 O3 0.977730 1_555
H4 O4 0.980109 1_555
H5 O5 0.980109 1_555
H6 O6 0.980109 1_555
H7 O7 0.980109 1_555
H8 O8 0.973659 1_555
H9 O9 0.973659 1_555
H10 O10 0.973659 1_555
H11 O11 0.973659 1_555
H12 O12 0.988118 1_555
H13 O13 0.988118 1_555
H14 O14 0.988118 1_555
H15 O15 0.988118 1_555
H16 O16 0.977126 1_555
H17 O17 0.977126 1_555
H18 O18 0.977126 1_555
H19 O19 0.977126 1_555
H20 O20 0.985670 1_555
H21 O21 0.985670 1_555
H22 O22 0.985670 1_555
H23 O23 0.985670 1_555
H24 O24 0.985931 1_555
H25 O25 0.985931 1_555
H26 O26 0.985931 1_555
H27 O27 0.985931 1_555
H28 O28 0.979436 1_555
H29 O29 0.979436 1_555
H30 O30 0.979436 1_555
H31 O31 0.979436 1_555
H32 O32 0.993146 1_555
H33 O33 0.993146 1_555
H34 O34 0.993146 1_555
H35 O35 0.993146 1_555
H36 O36 0.989502 1_555
H37 O37 0.989502 1_555
H38 O38 0.989502 1_555
H39 O39 0.989502 1_555
H40 O40 0.993725 1_555
H41 O41 0.993725 1_555
H42 O42 0.993725 1_555
H43 O43 0.993725 1_555
H44 O44 0.978622 1_555
H45 O45 0.978622 1_565
H46 O46 0.978622 1_555
H47 O47 0.978622 1_545
H48 O48 1.008900 1_555
H48 O44 1.647541 1_555
H49 O49 1.008900 1_555
H49 O45 1.647541 1_555
H50 O50 1.008900 1_555
H50 O46 1.647541 1_555
H51 O51 1.008900 1_555
H51 O47 1.647541 1_555
H52 O48 0.987599 1_555
H53 O49 0.987599 1_555
H54 O50 0.987599 1_555
H55 O51 0.987599 1_555
H56 O52 1.009966 1_555
H57 O53 1.009966 1_545
H58 O54 1.009966 1_555
H59 O55 1.009966 1_565
H60 O52 0.988596 1_555
H61 O53 0.988596 1_555
H62 O54 0.988596 1_555
H63 O55 0.988596 1_555
H64 O56 0.993162 1_555
H65 O57 0.993162 1_555
H66 O58 0.993162 1_555
H67 O59 0.993162 1_555
H68 O56 1.014135 1_555
H68 O32 1.639843 1_555
H69 O57 1.014135 1_555
H69 O33 1.639843 1_555
H70 O58 1.014135 1_555
H70 O34 1.639843 1_555
H71 O59 1.014135 1_555
H71 O35 1.639843 1_555
H72 O60 1.012655 1_555
H73 O61 1.012655 1_555
H74 O62 1.012655 1_555
H75 O63 1.012655 1_555
H76 O60 0.991556 1_555
H77 O61 0.991556 1_555
H78 O62 0.991556 1_555
H79 O63 0.991556 1_555
H80 O64 1.002273 1_555
H81 O65 1.002273 1_555
H82 O66 1.002273 1_555
H83 O67 1.002273 1_555
H84 O64 0.993950 1_555
H85 O65 0.993950 1_555
H86 O66 0.993950 1_555
H87 O67 0.993950 1_555
H88 O68 0.993927 1_556
H89 O69 0.993927 1_555
H90 O70 0.993927 1_554
H91 O71 0.993927 1_555
H92 O68 0.998475 1_555
H93 O69 0.998475 1_555
H94 O70 0.998475 1_555
H95 O71 0.998475 1_555
H96 O72 0.988503 1_555
H97 O73 0.988503 1_555
H98 O74 0.988503 1_555
H99 O75 0.988503 1_555
H100 O72 1.014281 1_545
H101 O73 1.014281 1_555
H102 O74 1.014281 1_565
H103 O75 1.014281 1_555
H104 O76 0.993319 1_555
H105 O77 0.993319 1_555
H106 O78 0.993319 1_555
H107 O79 0.993319 1_555
H108 O76 1.017805 1_555
H109 O77 1.017805 1_555
H110 O78 1.017805 1_555
H111 O79 1.017805 1_555
H112 O80 0.989908 1_555
H113 O81 0.989908 1_555
H114 O82 0.989908 1_555
H115 O83 0.989908 1_555
H116 O80 0.999084 1_555
H117 O81 0.999084 1_555
H118 O82 0.999084 1_555
H119 O83 0.999084 1_555
H120 O84 0.999009 1_555
H121 O85 0.999009 1_554
H122 O86 0.999009 1_555
H123 O87 0.999009 1_556
H124 O84 0.997110 1_555
H125 O85 0.997110 1_555
H126 O86 0.997110 1_555
H127 O87 0.997110 1_555
O0 Sn4 2.124639 1_555
O1 Sn5 2.124639 1_545
O2 Sn6 2.124639 1_555
O3 Sn7 2.124639 1_565
O4 Sn4 2.109791 1_555
O5 Sn5 2.109791 1_545
O6 Sn6 2.109791 1_555
O7 Sn7 2.109791 1_565
O8 Sn4 2.119521 1_555
O9 Sn5 2.119521 1_555
O10 Sn6 2.119521 1_555
O11 Sn7 2.119521 1_555
O12 Sn4 2.098281 1_555
O13 Sn5 2.098281 1_555
O14 Sn6 2.098281 1_555
O15 Sn7 2.098281 1_555
O16 Sn4 2.096277 1_555
O17 Sn5 2.096277 1_555
O18 Sn6 2.096277 1_555
O19 Sn7 2.096277 1_555
O20 Sn4 2.102151 1_555
O21 Sn5 2.102151 1_555
O22 Sn6 2.102151 1_555
O23 Sn7 2.102151 1_555
O24 Sn0 2.099622 1_455
O25 Sn1 2.099622 1_655
O26 Sn2 2.099622 1_655
O27 Sn3 2.099622 1_455
O28 Sn0 2.107763 1_555
O29 Sn1 2.107763 1_555
O30 Sn2 2.107763 1_555
O31 Sn3 2.107763 1_555
O32 Sn0 2.089941 1_455
O33 Sn1 2.089941 1_655
O34 Sn2 2.089941 1_655
O35 Sn3 2.089941 1_455
O36 Sn0 2.090833 1_555
O37 Sn1 2.090833 1_555
O38 Sn2 2.090833 1_555
O39 Sn3 2.090833 1_555
O40 Sn0 2.091205 1_555
O41 Sn1 2.091205 1_545
O42 Sn2 2.091205 1_555
O43 Sn3 2.091205 1_565
O44 Sn0 2.116619 1_455
O45 Sn1 2.116619 1_645
O46 Sn2 2.116619 1_655
O47 Sn3 2.116619 1_465
