# generated using pymatgen
data_Cr2Co
_symmetry_space_group_name_H-M   'P 1'
_cell_length_a   4.62318859
_cell_length_b   4.62318859
_cell_length_c   4.62318859
_cell_angle_alpha   60.00000000
_cell_angle_beta   60.00000000
_cell_angle_gamma   60.00000000
_symmetry_Int_Tables_number   1
_chemical_formula_structural   Cr2Co
_chemical_formula_sum   'Cr4 Co2'
_cell_volume   69.87307077
_cell_formula_units_Z   2
loop_
 _symmetry_equiv_pos_site_id
 _symmetry_equiv_pos_as_xyz
  1  'x, y, z'
loop_
 _atom_site_type_symbol
 _atom_site_label
 _atom_site_symmetry_multiplicity
 _atom_site_fract_x
 _atom_site_fract_y
 _atom_site_fract_z
 _atom_site_occupancy
  Cr  Cr0  1  0.62500000  0.62500000  0.12500000  1
  Cr  Cr1  1  0.62500000  0.12500000  0.62500000  1
  Cr  Cr2  1  0.12500000  0.62500000  0.62500000  1
  Cr  Cr3  1  0.62500000  0.62500000  0.62500000  1
  Co  Co0  1  0.25000000  0.25000000  0.25000000  1
  Co  Co1  1  0.00000000  0.00000000  0.00000000  1
loop_
_geom_bond_atom_site_label_1
_geom_bond_atom_site_label_2
_geom_bond_distance
_geom_bond_site_symmetry_2
Cr0 Cr2 2.311594 1_555
Cr0 Cr3 2.311594 1_554
Cr0 Cr1 2.311594 1_564
Cr0 Cr1 2.311594 1_555
Cr0 Cr3 2.311594 1_555
Cr0 Cr2 2.311594 1_654
Cr1 Cr2 2.311594 1_555
Cr1 Cr3 2.311594 1_555
Cr1 Cr3 2.311594 1_545
Cr1 Cr2 2.311594 1_645
Cr2 Cr3 2.311594 1_455
Cr2 Cr3 2.311594 1_555
Co0 Cr3 2.710585 1_455
Co0 Cr3 2.710585 1_554
Co0 Cr0 2.710585 1_455
Co0 Cr1 2.710585 1_555
Co0 Cr1 2.710585 1_455
Co0 Cr0 2.710585 1_555
Co0 Cr2 2.710585 1_545
Co0 Cr1 2.710585 1_554
Co0 Cr2 2.710585 1_555
Co0 Cr0 2.710585 1_545
Co0 Cr3 2.710585 1_545
Co0 Cr2 2.710585 1_554
Co0 Co1 2.831113 1_555
Co0 Co1 2.831113 1_556
Co0 Co1 2.831113 1_565
Co0 Co1 2.831113 1_655
Co1 Cr0 2.710585 1_445
Co1 Cr0 2.710585 1_455
Co1 Cr2 2.710585 1_544
Co1 Cr2 2.710585 1_545
Co1 Cr1 2.710585 1_455
Co1 Cr1 2.710585 1_454
Co1 Cr1 2.710585 1_554
Co1 Cr3 2.710585 1_454
Co1 Cr0 2.710585 1_545
Co1 Cr3 2.710585 1_544
Co1 Cr3 2.710585 1_445
Co1 Cr2 2.710585 1_554
