# generated using pymatgen
data_TeMo2Se2S
_symmetry_space_group_name_H-M   'P 1'
_cell_length_a   3.34336610
_cell_length_b   3.34336610
_cell_length_c   38.02326000
_cell_angle_alpha   90.00000000
_cell_angle_beta   90.00000000
_cell_angle_gamma   120.00000188
_symmetry_Int_Tables_number   1
_chemical_formula_structural   TeMo2Se2S
_chemical_formula_sum   'Te2 Mo4 Se4 S2'
_cell_volume   368.08476353
_cell_formula_units_Z   2
loop_
 _symmetry_equiv_pos_site_id
 _symmetry_equiv_pos_as_xyz
  1  'x, y, z'
loop_
 _atom_site_type_symbol
 _atom_site_label
 _atom_site_symmetry_multiplicity
 _atom_site_fract_x
 _atom_site_fract_y
 _atom_site_fract_z
 _atom_site_occupancy
  Te  Te0  1  0.33333300  0.66666700  0.41973700  1
  Te  Te1  1  0.33333300  0.66666700  0.51949800  1
  Mo  Mo0  1  0.00000000  0.00000000  0.09392200  1
  Mo  Mo1  1  0.00000000  0.00000000  0.46961600  1
  Mo  Mo2  1  0.33333300  0.66666700  0.28179600  1
  Mo  Mo3  1  0.33333300  0.66666700  0.65759200  1
  Se  Se0  1  0.00000000  0.00000000  0.70145700  1
  Se  Se1  1  0.33333300  0.66666700  0.05004900  1
  Se  Se2  1  0.33333300  0.66666700  0.13780200  1
  Se  Se3  1  0.00000000  0.00000000  0.61370300  1
  S  S0  1  0.00000000  0.00000000  0.32163200  1
  S  S1  1  0.00000000  0.00000000  0.24194500  1
loop_
_geom_bond_atom_site_label_1
_geom_bond_atom_site_label_2
_geom_bond_distance
_geom_bond_site_symmetry_2
Mo0 Se1 2.551254 1_545
Mo0 Se1 2.551256 1_445
Mo0 Se1 2.551256 1_555
Mo0 Se2 2.551428 1_545
Mo0 Se2 2.551430 1_555
Mo0 Se2 2.551430 1_445
Mo1 Te0 2.706099 1_545
Mo1 Te0 2.706101 1_445
Mo1 Te0 2.706101 1_555
Mo1 Te1 2.706179 1_545
Mo1 Te1 2.706181 1_555
Mo1 Te1 2.706181 1_445
Mo2 S0 2.453635 1_565
Mo2 S0 2.453637 1_665
Mo2 S0 2.453637 1_555
Mo2 S1 2.453987 1_565
Mo2 S1 2.453989 1_555
Mo2 S1 2.453989 1_665
Mo3 Se0 2.551055 1_565
Mo3 Se0 2.551057 1_665
Mo3 Se0 2.551057 1_555
Mo3 Se3 2.551652 1_565
Mo3 Se3 2.551654 1_665
Mo3 Se3 2.551654 1_555
