# generated using pymatgen
data_YbB2Os
_symmetry_space_group_name_H-M   'P 1'
_cell_length_a   5.25338500
_cell_length_b   5.87863300
_cell_length_c   6.29743500
_cell_angle_alpha   90.00000000
_cell_angle_beta   90.00000000
_cell_angle_gamma   90.00000000
_symmetry_Int_Tables_number   1
_chemical_formula_structural   YbB2Os
_chemical_formula_sum   'Yb4 B8 Os4'
_cell_volume   194.48193708
_cell_formula_units_Z   4
loop_
 _symmetry_equiv_pos_site_id
 _symmetry_equiv_pos_as_xyz
  1  'x, y, z'
loop_
 _atom_site_type_symbol
 _atom_site_label
 _atom_site_symmetry_multiplicity
 _atom_site_fract_x
 _atom_site_fract_y
 _atom_site_fract_z
 _atom_site_occupancy
  Yb  Yb0  1  0.25000000  0.00640700  0.34884700  1
  Yb  Yb1  1  0.25000000  0.50640700  0.15115300  1
  Yb  Yb2  1  0.75000000  0.99359300  0.65115300  1
  Yb  Yb3  1  0.75000000  0.49359300  0.84884700  1
  B  B0  1  0.07300000  0.37227500  0.54356600  1
  B  B1  1  0.42700000  0.87227500  0.95643400  1
  B  B2  1  0.57300000  0.62772500  0.45643400  1
  B  B3  1  0.92700000  0.12772500  0.04356600  1
  B  B4  1  0.92700000  0.62772500  0.45643400  1
  B  B5  1  0.57300000  0.12772500  0.04356600  1
  B  B6  1  0.42700000  0.37227500  0.54356600  1
  B  B7  1  0.07300000  0.87227500  0.95643400  1
  Os  Os0  1  0.25000000  0.17986200  0.80851300  1
  Os  Os1  1  0.25000000  0.67986200  0.69148700  1
  Os  Os2  1  0.75000000  0.82013800  0.19148700  1
  Os  Os3  1  0.75000000  0.32013800  0.30851300  1
loop_
_geom_bond_atom_site_label_1
_geom_bond_atom_site_label_2
_geom_bond_distance
_geom_bond_site_symmetry_2
B0 B4 1.773261 1_455
B0 B6 1.859698 1_555
B0 Os0 2.219890 1_555
B0 Os1 2.236495 1_555
B0 Os3 2.272510 1_455
B0 Yb0 2.644658 1_555
B0 Yb3 2.661553 1_455
B0 Yb1 2.755572 1_555
B0 Yb2 2.879927 1_445
B1 B5 1.773261 1_566
B1 B7 1.859698 1_555
B1 Os1 2.219890 1_555
B1 Os0 2.236495 1_565
B1 Os2 2.272510 1_556
B1 Yb1 2.644658 1_556
B1 Yb2 2.661553 1_555
B1 Yb0 2.755572 1_566
B1 Yb3 2.879927 1_555
B2 B6 1.773261 1_555
B2 B4 1.859698 1_555
B2 Os2 2.219890 1_555
B2 Os3 2.236495 1_555
B2 Os1 2.272510 1_555
B2 Yb2 2.644658 1_555
B2 Yb1 2.661553 1_555
B2 Yb3 2.755572 1_555
B2 Yb0 2.879927 1_565
B3 B7 1.773261 1_644
B3 B5 1.859698 1_555
B3 Os3 2.219890 1_555
B3 Os2 2.236495 1_545
B3 Os0 2.272510 1_654
B3 Yb3 2.644658 1_554
B3 Yb0 2.661553 1_655
B3 Yb2 2.755572 1_544
B3 Yb1 2.879927 1_655
B4 Os2 2.219890 1_555
B4 Os3 2.236495 1_555
B4 Os1 2.272510 1_655
B4 Yb2 2.644658 1_555
B4 Yb1 2.661553 1_655
B4 Yb3 2.755572 1_555
B4 Yb0 2.879927 1_665
B5 Os3 2.219890 1_555
B5 Os2 2.236495 1_545
B5 Os0 2.272510 1_554
B5 Yb3 2.644658 1_554
B5 Yb0 2.661553 1_555
B5 Yb2 2.755572 1_544
B5 Yb1 2.879927 1_555
B6 Os0 2.219890 1_555
B6 Os1 2.236495 1_555
B6 Os3 2.272510 1_555
B6 Yb0 2.644658 1_555
B6 Yb3 2.661553 1_555
B6 Yb1 2.755572 1_555
B6 Yb2 2.879927 1_545
B7 Os1 2.219890 1_555
B7 Os0 2.236495 1_565
B7 Os2 2.272510 1_456
B7 Yb1 2.644658 1_556
B7 Yb2 2.661553 1_455
B7 Yb0 2.755572 1_566
B7 Yb3 2.879927 1_455
Os0 Yb1 2.888063 1_556
Os0 Yb2 3.013397 1_445
Os0 Yb2 3.013397 1_545
Os0 Yb0 3.069060 1_555
Os1 Yb0 2.888063 1_565
Os1 Yb3 3.013397 1_455
Os1 Yb3 3.013397 1_555
Os1 Yb1 3.069060 1_556
Os2 Yb3 2.888063 1_554
Os2 Yb0 3.013397 1_565
Os2 Yb0 3.013397 1_665
Os2 Yb2 3.069060 1_555
Os3 Yb2 2.888063 1_545
Os3 Yb1 3.013397 1_555
Os3 Yb1 3.013397 1_655
Os3 Yb3 3.069060 1_554
