# generated using pymatgen
data_LiFePO4
_symmetry_space_group_name_H-M   'P 1'
_cell_length_a   6.06375800
_cell_length_b   6.29964022
_cell_length_c   9.98182313
_cell_angle_alpha   108.13264621
_cell_angle_beta   95.17468974
_cell_angle_gamma   99.85489762
_symmetry_Int_Tables_number   1
_chemical_formula_structural   LiFePO4
_chemical_formula_sum   'Li4 Fe4 P4 O16'
_cell_volume   352.80231440
_cell_formula_units_Z   4
loop_
 _symmetry_equiv_pos_site_id
 _symmetry_equiv_pos_as_xyz
  1  'x, y, z'
loop_
 _atom_site_type_symbol
 _atom_site_label
 _atom_site_symmetry_multiplicity
 _atom_site_fract_x
 _atom_site_fract_y
 _atom_site_fract_z
 _atom_site_occupancy
  Li  Li0  1  0.00021500  0.23106200  0.74021100  1
  Li  Li1  1  0.82531000  0.32783600  0.01297500  1
  Li  Li2  1  0.17469000  0.67216400  0.98702500  1
  Li  Li3  1  0.99978500  0.76893800  0.25978900  1
  Fe  Fe0  1  0.62687600  0.23129200  0.32222200  1
  Fe  Fe1  1  0.50104500  0.23869700  0.74222200  1
  Fe  Fe2  1  0.49895500  0.76130300  0.25777800  1
  Fe  Fe3  1  0.37312400  0.76870800  0.67777800  1
  P  P0  1  0.19150200  0.32262500  0.43593900  1
  P  P1  1  0.30467400  0.18554600  0.04553700  1
  P  P2  1  0.69532600  0.81445400  0.95446300  1
  P  P3  1  0.80849800  0.67737500  0.56406100  1
  O  O0  1  0.55645700  0.24587400  0.11437800  1
  O  O1  1  0.35659700  0.18502500  0.40678600  1
  O  O2  1  0.94763300  0.25919300  0.37132100  1
  O  O3  1  0.75962300  0.07367700  0.87861700  1
  O  O4  1  0.14698400  0.33208200  0.06763700  1
  O  O5  1  0.21119700  0.26806900  0.60111000  1
  O  O6  1  0.29565800  0.21860400  0.88380800  1
  O  O7  1  0.74519200  0.41891900  0.63014600  1
  O  O8  1  0.25480800  0.58108100  0.36985400  1
  O  O9  1  0.70434200  0.78139600  0.11619200  1
  O  O10  1  0.78880300  0.73193100  0.39889000  1
  O  O11  1  0.85301600  0.66791800  0.93236300  1
  O  O12  1  0.24037700  0.92632300  0.12138300  1
  O  O13  1  0.05236700  0.74080700  0.62867900  1
  O  O14  1  0.64340300  0.81497500  0.59321400  1
  O  O15  1  0.44354300  0.75412600  0.88562200  1
loop_
_geom_bond_atom_site_label_1
_geom_bond_atom_site_label_2
_geom_bond_distance
_geom_bond_site_symmetry_2
Li0 O5 2.009668 1_555
Li0 O6 2.219251 1_555
Li0 O3 2.396053 1_455
Li0 O7 2.475508 1_455
Li1 O3 1.693998 1_554
Li1 O4 1.970827 1_655
Li1 O0 2.069707 1_555
Li1 O11 2.497946 1_554
Li2 O12 1.693998 1_556
Li2 O11 1.970827 1_455
Li2 O15 2.069707 1_555
Li2 O4 2.497946 1_556
Li3 O10 2.009668 1_555
Li3 O9 2.219251 1_555
Li3 O12 2.396053 1_655
Li3 O8 2.475508 1_655
Fe0 O2 1.926524 1_555
Fe0 O1 1.929415 1_555
Fe0 O0 2.113586 1_555
Fe1 O6 1.984780 1_555
Fe1 O5 2.221326 1_555
Fe1 O7 2.290464 1_555
Fe1 O3 2.539021 1_555
Fe2 O9 1.984780 1_555
Fe2 O10 2.221326 1_555
Fe2 O8 2.290464 1_555
Fe2 O12 2.539021 1_555
Fe3 O13 1.926524 1_555
Fe3 O14 1.929415 1_555
Fe3 O15 2.113586 1_555
O0 P1 1.548282 1_555
O1 P0 1.425082 1_555
O2 P0 1.492546 1_655
O3 P2 1.999185 1_545
O4 P1 1.424281 1_555
O5 P0 1.783772 1_555
O6 P1 1.688112 1_556
O7 P3 1.932280 1_555
O8 P0 1.932280 1_555
O9 P2 1.688112 1_554
O10 P3 1.783772 1_555
O11 P2 1.424281 1_555
O12 P1 1.999185 1_565
O13 P3 1.492546 1_455
O14 P3 1.425082 1_555
O15 P2 1.548282 1_555
