# generated using pymatgen
data_Nd2MgPtO6
_symmetry_space_group_name_H-M   'P 1'
_cell_length_a   5.76395700
_cell_length_b   5.51087700
_cell_length_c   9.60708382
_cell_angle_alpha   55.26446254
_cell_angle_beta   90.00000000
_cell_angle_gamma   90.00000000
_symmetry_Int_Tables_number   1
_chemical_formula_structural   Nd2MgPtO6
_chemical_formula_sum   'Nd4 Mg2 Pt2 O12'
_cell_volume   250.78080932
_cell_formula_units_Z   2
loop_
 _symmetry_equiv_pos_site_id
 _symmetry_equiv_pos_as_xyz
  1  'x, y, z'
loop_
 _atom_site_type_symbol
 _atom_site_label
 _atom_site_symmetry_multiplicity
 _atom_site_fract_x
 _atom_site_fract_y
 _atom_site_fract_z
 _atom_site_occupancy
  Nd  Nd0  1  0.43774300  0.23365400  0.74953500  1
  Nd  Nd1  1  0.56225700  0.76634600  0.25046500  1
  Nd  Nd2  1  0.93774300  0.76634600  0.75046500  1
  Nd  Nd3  1  0.06225700  0.23365400  0.24953500  1
  Mg  Mg0  1  0.00000000  0.50000000  0.50000000  1
  Mg  Mg1  1  0.50000000  0.50000000  0.00000000  1
  Pt  Pt0  1  0.00000000  0.00000000  0.00000000  1
  Pt  Pt1  1  0.50000000  0.00000000  0.50000000  1
  O  O0  1  0.03225500  0.34851800  0.75172800  1
  O  O1  1  0.96774500  0.65148200  0.24827200  1
  O  O2  1  0.53225500  0.65148200  0.74827200  1
  O  O3  1  0.46774500  0.34851800  0.25172800  1
  O  O4  1  0.70451300  0.85793400  0.94663400  1
  O  O5  1  0.29548700  0.14206600  0.05336600  1
  O  O6  1  0.20451300  0.14206600  0.55336600  1
  O  O7  1  0.79548700  0.85793400  0.44663400  1
  O  O8  1  0.20055600  0.75218600  0.94831700  1
  O  O9  1  0.79944400  0.24781400  0.05168300  1
  O  O10  1  0.70055600  0.24781400  0.55168300  1
  O  O11  1  0.29944400  0.75218600  0.44831700  1
loop_
_geom_bond_atom_site_label_1
_geom_bond_atom_site_label_2
_geom_bond_distance
_geom_bond_site_symmetry_2
Nd0 O2 2.359457 1_555
Nd0 O10 2.396826 1_555
Nd0 O4 2.401902 1_545
Nd0 O0 2.424646 1_555
Nd0 O6 2.587996 1_555
Nd0 O8 2.604190 1_545
Nd0 O11 2.784213 1_555
Nd0 O5 2.787172 1_556
Nd1 O3 2.359457 1_555
Nd1 O11 2.396826 1_555
Nd1 O5 2.401902 1_565
Nd1 O1 2.424646 1_555
Nd1 O7 2.587996 1_555
Nd1 O9 2.604190 1_565
Nd1 O10 2.784213 1_555
Nd1 O4 2.787172 1_554
Nd2 O0 2.359457 1_655
Nd2 O8 2.396826 1_655
Nd2 O6 2.401902 1_665
Nd2 O2 2.424646 1_555
Nd2 O4 2.587996 1_555
Nd2 O10 2.604190 1_565
Nd2 O9 2.784213 1_556
Nd2 O7 2.787172 1_555
Nd3 O1 2.359457 1_455
Nd3 O9 2.396826 1_455
Nd3 O7 2.401902 1_445
Nd3 O3 2.424646 1_555
Nd3 O5 2.587996 1_555
Nd3 O11 2.604190 1_545
Nd3 O8 2.784213 1_554
Nd3 O6 2.787172 1_555
Mg0 O0 2.068655 1_555
Mg0 O1 2.068655 1_455
Mg0 O11 2.090606 1_555
Mg0 O10 2.090606 1_455
Mg0 O6 2.095436 1_555
Mg0 O7 2.095436 1_455
Mg1 O3 2.068655 1_555
Mg1 O2 2.068655 1_554
Mg1 O9 2.090606 1_555
Mg1 O8 2.090606 1_554
Mg1 O4 2.095436 1_554
Mg1 O5 2.095436 1_555
O0 Pt0 2.047435 1_556
O1 Pt0 2.047435 1_665
O2 Pt1 2.047435 1_565
O3 Pt1 2.047435 1_555
O4 Pt0 2.057673 1_666
O5 Pt0 2.057673 1_555
O6 Pt1 2.057673 1_555
O7 Pt1 2.057673 1_565
O8 Pt0 2.054424 1_566
O9 Pt0 2.054424 1_655
O10 Pt1 2.054424 1_555
O11 Pt1 2.054424 1_565
