# generated using pymatgen
data_Si
_symmetry_space_group_name_H-M   'P 1'
_cell_length_a   9.93654149
_cell_length_b   9.93653337
_cell_length_c   15.99433626
_cell_angle_alpha   90.00000556
_cell_angle_beta   89.99997619
_cell_angle_gamma   119.99995448
_symmetry_Int_Tables_number   1
_chemical_formula_structural   Si
_chemical_formula_sum   Si58
_cell_volume   1367.62552932
_cell_formula_units_Z   58
loop_
 _symmetry_equiv_pos_site_id
 _symmetry_equiv_pos_as_xyz
  1  'x, y, z'
loop_
 _atom_site_type_symbol
 _atom_site_label
 _atom_site_symmetry_multiplicity
 _atom_site_fract_x
 _atom_site_fract_y
 _atom_site_fract_z
 _atom_site_occupancy
  Si  Si0  1  0.37951877  0.99895726  0.29529711  1
  Si  Si1  1  0.00104274  0.38056152  0.29529811  1
  Si  Si2  1  0.61943848  0.62048023  0.29529811  1
  Si  Si3  1  0.37951877  0.38056252  0.29529711  1
  Si  Si4  1  0.61943848  0.99895826  0.29529811  1
  Si  Si5  1  0.00104274  0.62048023  0.29529811  1
  Si  Si6  1  0.62048123  0.00104274  0.70470289  1
  Si  Si7  1  0.99895726  0.61943848  0.70470189  1
  Si  Si8  1  0.38056152  0.37951977  0.70470189  1
  Si  Si9  1  0.62048123  0.61943748  0.70470289  1
  Si  Si10  1  0.38056152  0.00104174  0.70470189  1
  Si  Si11  1  0.99895726  0.37951977  0.70470189  1
  Si  Si12  1  0.24465572  0.24413910  0.17366897  1
  Si  Si13  1  0.75586090  0.00051662  0.17366897  1
  Si  Si14  1  0.99948338  0.75534528  0.17366897  1
  Si  Si15  1  0.24465572  0.00051662  0.17366897  1
  Si  Si16  1  0.99948338  0.24413810  0.17366897  1
  Si  Si17  1  0.75586090  0.75534428  0.17366897  1
  Si  Si18  1  0.75534428  0.75586090  0.82633103  1
  Si  Si19  1  0.24413910  0.99948338  0.82633103  1
  Si  Si20  1  0.00051662  0.24465472  0.82633103  1
  Si  Si21  1  0.75534428  0.99948338  0.82633103  1
  Si  Si22  1  0.00051662  0.75586190  0.82633103  1
  Si  Si23  1  0.24413910  0.24465572  0.82633103  1
  Si  Si24  1  0.42111112  0.08758108  0.05813743  1
  Si  Si25  1  0.91241792  0.33352904  0.05813743  1
  Si  Si26  1  0.66646996  0.57888888  0.05813743  1
  Si  Si27  1  0.42111112  0.33352904  0.05813743  1
  Si  Si28  1  0.66647096  0.08758208  0.05813743  1
  Si  Si29  1  0.91241792  0.57888988  0.05813743  1
  Si  Si30  1  0.57888888  0.91241892  0.94186257  1
  Si  Si31  1  0.08758208  0.66647096  0.94186257  1
  Si  Si32  1  0.33353004  0.42111112  0.94186257  1
  Si  Si33  1  0.57888888  0.66647096  0.94186257  1
  Si  Si34  1  0.33352904  0.91241792  0.94186257  1
  Si  Si35  1  0.08758208  0.42111012  0.94186257  1
  Si  Si36  1  0.26685981  0.13342991  0.49950390  1
  Si  Si37  1  0.86657009  0.13343091  0.49950390  1
  Si  Si38  1  0.86657009  0.73313919  0.49950390  1
  Si  Si39  1  0.73314019  0.86657009  0.50049610  1
  Si  Si40  1  0.13342991  0.86656909  0.50049610  1
  Si  Si41  1  0.13342991  0.26686081  0.50049610  1
  Si  Si42  1  0.41740026  0.20869963  0.62160491  1
  Si  Si43  1  0.79129937  0.20870063  0.62160491  1
  Si  Si44  1  0.79129937  0.58259774  0.62160491  1
  Si  Si45  1  0.58259974  0.79130037  0.37839509  1
  Si  Si46  1  0.20870063  0.79129937  0.37839509  1
  Si  Si47  1  0.20870063  0.41740226  0.37839509  1
  Si  Si48  1  0.41717528  0.20858764  0.37706533  1
  Si  Si49  1  0.79141136  0.20858864  0.37706533  1
  Si  Si50  1  0.79141136  0.58282172  0.37706533  1
  Si  Si51  1  0.58282472  0.79141236  0.62293467  1
  Si  Si52  1  0.20858864  0.79141136  0.62293467  1
  Si  Si53  1  0.20858864  0.41717828  0.62293467  1
  Si  Si54  1  0.66666500  0.33333200  0.42724304  1
  Si  Si55  1  0.33333500  0.66666800  0.57275696  1
  Si  Si56  1  0.66666500  0.33333300  0.57129058  1
  Si  Si57  1  0.33333500  0.66666700  0.42870942  1
loop_
_geom_bond_atom_site_label_1
_geom_bond_atom_site_label_2
_geom_bond_distance
_geom_bond_site_symmetry_2
Si0 Si46 2.324391 1_555
Si0 Si48 2.325920 1_565
Si0 Si15 2.366692 1_565
Si0 Si4 2.383967 1_555
Si1 Si47 2.324380 1_555
Si1 Si49 2.325914 1_455
Si1 Si16 2.366710 1_455
Si1 Si5 2.383960 1_555
Si2 Si45 2.324392 1_555
Si2 Si50 2.325914 1_555
Si2 Si3 2.383963 1_555
Si3 Si47 2.324391 1_555
Si3 Si48 2.325928 1_555
Si4 Si45 2.324384 1_555
Si4 Si49 2.325909 1_565
Si5 Si50 2.325914 1_455
Si8 Si9 2.383963 1_555
Si10 Si42 2.324384 1_555
Si10 Si52 2.325909 1_545
Si10 Si19 2.366707 1_545
Si10 Si6 2.383967 1_555
Si11 Si43 2.324386 1_555
Si11 Si53 2.325914 1_655
Si11 Si20 2.366715 1_655
Si11 Si7 2.383960 1_555
Si12 Si3 2.366695 1_555
Si12 Si27 2.391731 1_555
Si12 Si15 2.420763 1_555
Si12 Si16 2.436160 1_455
Si13 Si4 2.366707 1_545
Si13 Si28 2.391731 1_555
Si13 Si16 2.420761 1_555
Si13 Si17 2.436163 1_545
Si14 Si5 2.366715 1_655
Si14 Si29 2.391731 1_555
Si14 Si17 2.420760 1_555
Si14 Si15 2.436161 1_665
Si15 Si24 2.391731 1_555
Si16 Si25 2.391736 1_555
Si17 Si2 2.366707 1_555
Si17 Si26 2.391731 1_555
Si18 Si9 2.366695 1_555
Si18 Si33 2.391731 1_555
Si18 Si21 2.420763 1_555
Si18 Si22 2.436160 1_655
Si19 Si34 2.391731 1_555
Si19 Si22 2.420761 1_555
Si19 Si23 2.436163 1_565
Si20 Si35 2.391731 1_555
Si20 Si23 2.420760 1_555
Si20 Si21 2.436161 1_445
Si21 Si6 2.366692 1_565
Si21 Si30 2.391731 1_555
Si22 Si7 2.366710 1_455
Si22 Si31 2.391736 1_555
Si23 Si8 2.366707 1_555
Si23 Si32 2.391731 1_555
Si24 Si34 2.393883 1_544
Si24 Si28 2.438023 1_555
Si24 Si27 2.443870 1_555
Si25 Si35 2.393889 1_654
Si25 Si29 2.438036 1_555
Si25 Si28 2.443863 1_555
Si26 Si33 2.393883 1_554
Si26 Si27 2.438024 1_555
Si26 Si29 2.443867 1_555
Si27 Si32 2.393883 1_554
Si28 Si30 2.393883 1_544
Si29 Si31 2.393889 1_654
Si30 Si34 2.438023 1_555
Si30 Si33 2.443870 1_555
Si31 Si35 2.438036 1_555
Si31 Si34 2.443863 1_555
Si32 Si33 2.438024 1_555
Si32 Si35 2.443867 1_555
Si36 Si41 2.296470 1_555
Si36 Si40 2.296471 1_545
Si36 Si42 2.343522 1_555
Si36 Si48 2.346955 1_555
Si37 Si41 2.296464 1_655
Si37 Si39 2.296471 1_545
Si37 Si43 2.343521 1_555
Si37 Si49 2.346960 1_555
Si38 Si40 2.296464 1_655
Si38 Si39 2.296470 1_555
Si38 Si44 2.343526 1_555
Si38 Si50 2.346964 1_555
Si39 Si45 2.343522 1_555
Si39 Si51 2.346955 1_555
Si40 Si46 2.343521 1_555
Si40 Si52 2.346960 1_555
Si41 Si47 2.343526 1_555
Si41 Si53 2.346964 1_555
Si42 Si56 2.290989 1_555
Si42 Si8 2.324392 1_555
Si43 Si56 2.291003 1_555
Si43 Si6 2.324391 1_555
Si44 Si56 2.290987 1_555
Si44 Si7 2.324380 1_555
Si44 Si9 2.324391 1_555
Si45 Si57 2.290989 1_555
Si46 Si57 2.291003 1_555
Si46 Si5 2.324386 1_555
Si47 Si57 2.290987 1_555
Si48 Si54 2.292036 1_555
Si49 Si54 2.292033 1_555
Si50 Si54 2.292034 1_555
Si51 Si55 2.292036 1_555
Si51 Si6 2.325920 1_565
Si51 Si9 2.325928 1_555
Si52 Si55 2.292033 1_555
Si52 Si7 2.325914 1_455
Si53 Si55 2.292034 1_555
Si53 Si8 2.325914 1_555
Si54 Si56 2.303945 1_555
Si55 Si57 2.303945 1_555
