# generated using pymatgen
data_Na3YN2
_symmetry_space_group_name_H-M   'P 1'
_cell_length_a   10.06121600
_cell_length_b   11.61769182
_cell_length_c   11.61769072
_cell_angle_alpha   89.99999977
_cell_angle_beta   125.26439049
_cell_angle_gamma   54.73561333
_symmetry_Int_Tables_number   1
_chemical_formula_structural   Na3YN2
_chemical_formula_sum   'Na24 Y8 N16'
_cell_volume   784.02431175
_cell_formula_units_Z   8
loop_
 _symmetry_equiv_pos_site_id
 _symmetry_equiv_pos_as_xyz
  1  'x, y, z'
loop_
 _atom_site_type_symbol
 _atom_site_label
 _atom_site_symmetry_multiplicity
 _atom_site_fract_x
 _atom_site_fract_y
 _atom_site_fract_z
 _atom_site_occupancy
  Na  Na0  1  0.21856100  0.04781700  0.98817900  1
  Na  Na1  1  0.78143900  0.76637800  0.51182100  1
  Na  Na2  1  0.78143900  0.45218300  0.76961800  1
  Na  Na3  1  0.21856100  0.73362200  0.73038200  1
  Na  Na4  1  0.24220300  0.76961800  0.27820000  1
  Na  Na5  1  0.75779700  0.73038200  0.03599600  1
  Na  Na6  1  0.24220300  0.98817900  0.46400400  1
  Na  Na7  1  0.75779700  0.51182100  0.22180000  1
  Na  Na8  1  0.68580400  0.03599600  0.73362200  1
  Na  Na9  1  0.68580400  0.27820000  0.45218300  1
  Na  Na10  1  0.31419600  0.22180000  0.76637800  1
  Na  Na11  1  0.31419600  0.46400400  0.04781700  1
  Na  Na12  1  0.78143900  0.95218300  0.01182100  1
  Na  Na13  1  0.21856100  0.23362200  0.48817900  1
  Na  Na14  1  0.21856100  0.54781700  0.23038200  1
  Na  Na15  1  0.78143900  0.26637800  0.26961800  1
  Na  Na16  1  0.75779700  0.23038200  0.72180000  1
  Na  Na17  1  0.24220300  0.26961800  0.96400400  1
  Na  Na18  1  0.75779700  0.01182100  0.53599600  1
  Na  Na19  1  0.24220300  0.48817900  0.77820000  1
  Na  Na20  1  0.31419600  0.96400400  0.26637800  1
  Na  Na21  1  0.31419600  0.72180000  0.54781700  1
  Na  Na22  1  0.68580400  0.77820000  0.23362200  1
  Na  Na23  1  0.68580400  0.53599600  0.95218300  1
  Y  Y0  1  0.23058500  0.00000000  0.73058500  1
  Y  Y1  1  0.76941500  0.73058500  0.76941500  1
  Y  Y2  1  0.76941500  0.50000000  0.50000000  1
  Y  Y3  1  0.23058500  0.76941500  0.00000000  1
  Y  Y4  1  0.76941500  0.00000000  0.26941500  1
  Y  Y5  1  0.23058500  0.26941500  0.23058500  1
  Y  Y6  1  0.23058500  0.50000000  0.50000000  1
  Y  Y7  1  0.76941500  0.23058500  0.00000000  1
  N  N0  1  0.00000000  0.00000000  0.50000000  1
  N  N1  1  0.00000000  0.50000000  0.00000000  1
  N  N2  1  0.00000000  0.50000000  0.50000000  1
  N  N3  1  0.00000000  0.00000000  0.00000000  1
  N  N4  1  0.50000000  0.96134700  0.75000000  1
  N  N5  1  0.50000000  0.53865300  0.25000000  1
  N  N6  1  0.00000000  0.25000000  0.71134700  1
  N  N7  1  0.00000000  0.75000000  0.78865300  1
  N  N8  1  0.57730800  0.71134700  0.53865300  1
  N  N9  1  0.42269200  0.78865300  0.96134700  1
  N  N10  1  0.50000000  0.03865300  0.25000000  1
  N  N11  1  0.50000000  0.46134700  0.75000000  1
  N  N12  1  0.00000000  0.75000000  0.28865300  1
  N  N13  1  0.00000000  0.25000000  0.21134700  1
  N  N14  1  0.42269200  0.28865300  0.46134700  1
  N  N15  1  0.57730800  0.21134700  0.03865300  1
loop_
_geom_bond_atom_site_label_1
_geom_bond_atom_site_label_2
_geom_bond_distance
_geom_bond_site_symmetry_2
N0 Y4 2.319965 1_455
N0 Y0 2.319965 1_555
N0 Na6 2.631027 1_545
N0 Na18 2.631027 1_455
N0 Na3 2.631027 1_545
N0 Na15 2.631027 1_455
N0 Na21 2.631037 1_545
N0 Na9 2.631037 1_455
N1 Y5 2.319965 1_555
N1 Y1 2.319965 1_454
N1 Na2 2.631027 1_454
N1 Na14 2.631027 1_555
N1 Na5 2.631027 1_455
N1 Na17 2.631027 1_554
N1 Na23 2.631037 1_454
N1 Na11 2.631037 1_555
N2 Y6 2.319965 1_555
N2 Y2 2.319965 1_455
N2 Na1 2.631027 1_455
N2 Na13 2.631027 1_555
N2 Na22 2.631031 1_455
N2 Na10 2.631031 1_555
N2 Na19 2.631035 1_555
N2 Na7 2.631035 1_455
N3 Y7 2.319966 1_455
N3 Y3 2.319966 1_545
N3 Na12 2.631027 1_445
N3 Na0 2.631027 1_554
N3 Na20 2.631031 1_545
N3 Na8 2.631031 1_454
N3 Na16 2.631035 1_454
N3 Na4 2.631035 1_545
N4 Y0 2.342771 1_565
N4 Y1 2.342771 1_555
N4 Na8 2.562385 1_565
N4 Na10 2.562386 1_565
N4 Na6 2.641895 1_555
N4 Na5 2.641895 1_556
N4 Na12 2.643488 1_556
N4 Na13 2.643488 1_565
N5 Y2 2.342771 1_555
N5 Y3 2.342771 1_555
N5 Na11 2.562391 1_555
N5 Na9 2.562391 1_555
N5 Na7 2.641903 1_555
N5 Na4 2.641903 1_555
N5 Na14 2.643488 1_555
N5 Na15 2.643488 1_555
N6 Y2 2.342771 1_455
N6 Y0 2.342771 1_555
N6 Na0 2.562395 1_555
N6 Na2 2.562395 1_455
N6 Na9 2.641893 1_455
N6 Na10 2.641899 1_555
N6 Na16 2.643482 1_455
N6 Na17 2.643488 1_555
N7 Y3 2.342771 1_556
N7 Y1 2.342771 1_455
N7 Na1 2.562395 1_455
N7 Na3 2.562395 1_555
N7 Na11 2.641893 1_556
N7 Na8 2.641899 1_465
N7 Na19 2.643482 1_555
N7 Na18 2.643488 1_465
N8 Y2 2.342765 1_555
N8 Y1 2.342767 1_555
N8 Na4 2.562400 1_555
N8 Na6 2.562403 1_555
N8 Na1 2.641875 1_555
N8 Na2 2.641905 1_555
N8 Na20 2.643485 1_555
N8 Na21 2.643504 1_555
N9 Y3 2.342751 1_556
N9 Y0 2.342780 1_565
N9 Na7 2.562389 1_556
N9 Na5 2.562415 1_556
N9 Na3 2.641888 1_555
N9 Na0 2.641892 1_565
N9 Na23 2.643492 1_555
N9 Na22 2.643497 1_556
N10 Y4 2.342771 1_555
N10 Y5 2.342771 1_555
N10 Na20 2.562385 1_545
N10 Na22 2.562386 1_545
N10 Na18 2.641895 1_555
N10 Na17 2.641895 1_554
N10 Na0 2.643488 1_554
N10 Na1 2.643488 1_545
N11 Y6 2.342771 1_555
N11 Y7 2.342771 1_556
N11 Na23 2.562391 1_555
N11 Na21 2.562391 1_555
N11 Na19 2.641903 1_555
N11 Na16 2.641903 1_555
N11 Na2 2.643488 1_555
N11 Na3 2.643488 1_555
N12 Y6 2.342771 1_555
N12 Y4 2.342771 1_465
N12 Na12 2.562395 1_455
N12 Na14 2.562395 1_555
N12 Na21 2.641893 1_555
N12 Na22 2.641899 1_455
N12 Na4 2.643482 1_555
N12 Na5 2.643488 1_455
N13 Y7 2.342771 1_455
N13 Y5 2.342771 1_555
N13 Na13 2.562395 1_555
N13 Na15 2.562395 1_455
N13 Na23 2.641893 1_454
N13 Na20 2.641899 1_545
N13 Na7 2.643482 1_455
N13 Na6 2.643488 1_545
N14 Y6 2.342765 1_555
N14 Y5 2.342767 1_555
N14 Na16 2.562400 1_555
N14 Na18 2.562403 1_555
N14 Na13 2.641875 1_555
N14 Na14 2.641905 1_555
N14 Na8 2.643485 1_555
N14 Na9 2.643504 1_555
N15 Y7 2.342751 1_555
N15 Y4 2.342780 1_555
N15 Na19 2.562389 1_554
N15 Na17 2.562415 1_554
N15 Na15 2.641888 1_555
N15 Na12 2.641892 1_545
N15 Na11 2.643492 1_555
N15 Na10 2.643497 1_554
