# generated using pymatgen
data_Na4WO5
_symmetry_space_group_name_H-M   'P 1'
_cell_length_a   5.74220000
_cell_length_b   5.77678704
_cell_length_c   8.61041295
_cell_angle_alpha   109.21438057
_cell_angle_beta   101.32926712
_cell_angle_gamma   102.32052496
_symmetry_Int_Tables_number   1
_chemical_formula_structural   Na4WO5
_chemical_formula_sum   'Na8 W2 O10'
_cell_volume   252.24913170
_cell_formula_units_Z   2
loop_
 _symmetry_equiv_pos_site_id
 _symmetry_equiv_pos_as_xyz
  1  'x, y, z'
loop_
 _atom_site_type_symbol
 _atom_site_label
 _atom_site_symmetry_multiplicity
 _atom_site_fract_x
 _atom_site_fract_y
 _atom_site_fract_z
 _atom_site_occupancy
  Na  Na0  1  0.30826800  0.51242200  0.90223900  1
  Na  Na1  1  0.11945300  0.50736200  0.29284900  1
  Na  Na2  1  0.30205800  0.99711300  0.39791800  1
  Na  Na3  1  0.69794200  0.00288700  0.60208200  1
  Na  Na4  1  0.69173200  0.48757800  0.09776100  1
  Na  Na5  1  0.50000000  0.50000000  0.50000000  1
  Na  Na6  1  0.50000000  0.00000000  0.00000000  1
  Na  Na7  1  0.88054700  0.49263800  0.70715100  1
  W  W0  1  0.10146900  0.00310000  0.79509900  1
  W  W1  1  0.89853100  0.99690000  0.20490100  1
  O  O0  1  0.75997300  0.78512000  0.84416100  1
  O  O1  1  0.24002700  0.21488000  0.15583900  1
  O  O2  1  0.09166000  0.22091300  0.60066600  1
  O  O3  1  0.90834000  0.77908700  0.39933400  1
  O  O4  1  0.56350900  0.77824000  0.24176900  1
  O  O5  1  0.43649100  0.22176000  0.75823100  1
  O  O6  1  0.92272400  0.19073900  0.96342200  1
  O  O7  1  0.07727600  0.80926100  0.03657800  1
  O  O8  1  0.74064000  0.20897700  0.31448300  1
  O  O9  1  0.25936000  0.79102300  0.68551700  1
loop_
_geom_bond_atom_site_label_1
_geom_bond_atom_site_label_2
_geom_bond_distance
_geom_bond_site_symmetry_2
Na0 O5 2.101162 1_555
Na0 O2 2.466687 1_555
Na0 O7 2.511114 1_556
Na0 O4 2.730224 1_556
Na0 O6 2.824695 1_455
Na1 O1 2.057674 1_555
Na1 O3 2.252917 1_455
Na1 O6 2.666787 1_454
Na1 O4 2.886982 1_555
Na2 O3 2.345947 1_455
Na2 O4 2.478809 1_555
Na2 O2 2.487643 1_565
Na2 O5 2.808320 1_565
Na2 O7 2.850589 1_555
Na3 O2 2.345947 1_655
Na3 O5 2.478809 1_555
Na3 O3 2.487643 1_545
Na3 O4 2.808320 1_545
Na3 O6 2.850589 1_555
Na4 O4 2.101162 1_555
Na4 O3 2.466687 1_555
Na4 O6 2.511114 1_554
Na4 O5 2.730224 1_554
Na4 O7 2.824695 1_655
Na5 O8 2.716314 1_555
Na5 O9 2.716314 1_555
Na5 O1 2.779009 1_555
Na5 O0 2.779009 1_555
Na6 O1 2.459956 1_555
Na6 O0 2.459956 1_544
Na6 O9 2.522988 1_544
Na6 O8 2.522988 1_555
Na6 O6 2.567637 1_554
Na6 O7 2.567637 1_545
Na6 W1 2.608061 1_545
Na6 W0 2.608061 1_554
Na6 O4 2.786420 1_545
Na6 O5 2.786420 1_554
Na7 O0 2.057674 1_555
Na7 O2 2.252917 1_655
Na7 O7 2.666787 1_656
Na7 O5 2.886982 1_555
O2 W0 2.401849 1_555
O3 W1 2.401849 1_555
O4 W1 2.205455 1_555
O5 W0 2.205455 1_555
O6 W0 2.086670 1_655
O6 W1 2.678799 1_546
O7 W1 2.086670 1_455
O7 W0 2.678799 1_564
O8 W1 1.806232 1_545
O9 W0 1.806232 1_565
