# generated using pymatgen
data_Nd3(P3Pd10)2
_symmetry_space_group_name_H-M   'P 1'
_cell_length_a   8.68759898
_cell_length_b   8.68756801
_cell_length_c   8.68755209
_cell_angle_alpha   60.00004550
_cell_angle_beta   60.00007563
_cell_angle_gamma   60.00013691
_symmetry_Int_Tables_number   1
_chemical_formula_structural   Nd3(P3Pd10)2
_chemical_formula_sum   'Nd3 P6 Pd20'
_cell_volume   463.64038095
_cell_formula_units_Z   1
loop_
 _symmetry_equiv_pos_site_id
 _symmetry_equiv_pos_as_xyz
  1  'x, y, z'
loop_
 _atom_site_type_symbol
 _atom_site_label
 _atom_site_symmetry_multiplicity
 _atom_site_fract_x
 _atom_site_fract_y
 _atom_site_fract_z
 _atom_site_occupancy
  Nd  Nd0  1  0.25000144  0.24999990  0.24999981  1
  Nd  Nd1  1  0.74999778  0.75000017  0.75000091  1
  Nd  Nd2  1  -0.00000221  -0.00000485  -0.00000463  1
  P  P0  1  0.73732683  0.26267314  0.26267117  1
  P  P1  1  0.26267086  0.73733025  0.73733002  1
  P  P2  1  0.26267536  0.73732469  0.26267098  1
  P  P3  1  0.73732631  0.26266924  0.73733151  1
  P  P4  1  0.26267185  0.26267162  0.73732911  1
  P  P5  1  0.73732704  0.73733151  0.26266920  1
  Pd  Pd0  1  0.38606042  0.38606227  0.38606492  1
  Pd  Pd1  1  0.61393454  0.61393435  0.61393779  1
  Pd  Pd2  1  0.38606627  0.38606868  0.84180409  1
  Pd  Pd3  1  0.38606881  0.84180383  0.38606834  1
  Pd  Pd4  1  0.61394225  0.61394367  0.15819455  1
  Pd  Pd5  1  0.61393738  0.15819756  0.61393984  1
  Pd  Pd6  1  0.84180720  0.38606869  0.38606962  1
  Pd  Pd7  1  0.15819311  0.61393934  0.61393998  1
  Pd  Pd8  1  0.34699342  -0.00000121  0.99999808  1
  Pd  Pd9  1  0.65302301  -0.00000091  0.99999789  1
  Pd  Pd10  1  -0.00000932  0.34698091  0.65301610  1
  Pd  Pd11  1  -0.00000946  0.65301473  0.34698375  1
  Pd  Pd12  1  0.99999923  0.34699301  0.99999568  1
  Pd  Pd13  1  0.65301396  -0.00001008  0.34698414  1
  Pd  Pd14  1  0.00000093  0.65302284  0.99999706  1
  Pd  Pd15  1  0.34698238  -0.00000986  0.65301523  1
  Pd  Pd16  1  0.99999936  -0.00000207  0.34699271  1
  Pd  Pd17  1  -0.00000039  -0.00000181  0.65302389  1
  Pd  Pd18  1  0.65301505  0.34698400  -0.00001143  1
  Pd  Pd19  1  0.34698461  0.65301540  -0.00001132  1
loop_
_geom_bond_atom_site_label_1
_geom_bond_atom_site_label_2
_geom_bond_distance
_geom_bond_site_symmetry_2
Nd0 Pd0 2.895417 1_555
Nd0 Pd2 2.895479 1_554
Nd0 Pd6 2.895487 1_455
Nd0 Pd3 2.895489 1_545
Nd0 Pd15 3.346826 1_555
Nd0 Pd10 3.346832 1_555
Nd0 Pd8 3.346834 1_554
Nd0 Pd13 3.346834 1_555
Nd0 Pd18 3.346839 1_555
Nd0 Pd19 3.346839 1_555
Nd0 Pd11 3.346839 1_555
Nd0 Pd16 3.346849 1_455
Nd0 Pd12 3.346863 1_454
Nd0 Pd9 3.346884 1_554
Nd0 Pd14 3.346887 1_554
Nd0 Pd17 3.346888 1_555
Nd1 Pd1 2.895458 1_555
Nd1 Pd4 2.895465 1_556
Nd1 Pd7 2.895495 1_655
Nd1 Pd5 2.895498 1_565
Nd1 Pd8 3.346797 1_565
Nd1 Pd12 3.346805 1_555
Nd1 Pd16 3.346817 1_565
Nd1 Pd19 3.346838 1_556
Nd1 Pd9 3.346842 1_565
Nd1 Pd18 3.346842 1_556
Nd1 Pd13 3.346847 1_565
Nd1 Pd11 3.346856 1_655
Nd1 Pd15 3.346860 1_565
Nd1 Pd14 3.346865 1_655
Nd1 Pd17 3.346872 1_665
Nd1 Pd10 3.346875 1_655
Nd2 Pd17 3.014312 1_554
Nd2 Pd14 3.014325 1_544
Nd2 Pd9 3.014350 1_454
Nd2 Pd10 3.014434 1_554
Nd2 Pd15 3.014439 1_554
Nd2 Pd11 3.014450 1_545
Nd2 Pd19 3.014452 1_545
Nd2 Pd13 3.014473 1_455
Nd2 Pd18 3.014474 1_455
Nd2 Pd12 3.014575 1_454
Nd2 Pd16 3.014576 1_455
Nd2 Pd8 3.014586 1_554
Nd2 P1 3.227125 1_544
Nd2 P5 3.227155 1_445
Nd2 P3 3.227160 1_454
Nd2 P4 3.227254 1_554
Nd2 P0 3.227270 1_455
Nd2 P2 3.227270 1_545
P0 Pd12 2.396691 1_554
P0 Pd16 2.396699 1_555
P0 Pd18 2.396740 1_555
P0 Pd13 2.396749 1_555
P0 Pd0 2.493479 1_555
P0 Pd5 2.493482 1_555
P0 Pd4 2.493501 1_555
P0 Pd6 2.493524 1_555
P1 Pd19 2.396542 1_556
P1 Pd15 2.396543 1_565
P1 Pd14 2.396620 1_555
P1 Pd17 2.396630 1_565
P1 Pd7 2.493412 1_555
P1 Pd3 2.493432 1_555
P1 Pd2 2.493438 1_555
P1 Pd1 2.493462 1_555
P2 Pd8 2.396683 1_564
P2 Pd16 2.396703 1_465
P2 Pd19 2.396727 1_555
P2 Pd11 2.396753 1_555
P2 Pd0 2.493441 1_555
P2 Pd7 2.493482 1_555
P2 Pd4 2.493485 1_555
P2 Pd3 2.493493 1_555
P3 Pd18 2.396542 1_556
P3 Pd10 2.396586 1_655
P3 Pd9 2.396604 1_555
P3 Pd17 2.396646 1_655
P3 Pd5 2.493368 1_555
P3 Pd6 2.493432 1_555
P3 Pd2 2.493437 1_555
P3 Pd1 2.493462 1_555
P4 Pd12 2.396653 1_455
P4 Pd8 2.396664 1_555
P4 Pd15 2.396745 1_555
P4 Pd10 2.396749 1_555
P4 Pd0 2.493447 1_555
P4 Pd2 2.493470 1_555
P4 Pd5 2.493476 1_555
P4 Pd7 2.493480 1_555
P5 Pd13 2.396553 1_565
P5 Pd11 2.396590 1_655
P5 Pd9 2.396616 1_564
P5 Pd14 2.396653 1_654
P5 Pd4 2.493332 1_555
P5 Pd3 2.493424 1_555
P5 Pd6 2.493444 1_555
P5 Pd1 2.493481 1_555
Pd0 Pd15 3.052222 1_555
Pd0 Pd10 3.052225 1_555
Pd0 Pd11 3.052231 1_555
Pd0 Pd13 3.052240 1_555
Pd0 Pd19 3.052245 1_555
Pd0 Pd18 3.052256 1_555
Pd1 Pd18 3.052081 1_556
Pd1 Pd19 3.052085 1_556
Pd1 Pd13 3.052119 1_565
Pd1 Pd15 3.052119 1_565
Pd1 Pd10 3.052133 1_655
Pd1 Pd11 3.052134 1_655
Pd2 Pd8 3.052193 1_555
Pd2 Pd9 3.052228 1_555
Pd3 Pd8 3.052198 1_564
Pd3 Pd9 3.052220 1_564
Pd4 Pd9 3.052102 1_564
Pd4 Pd8 3.052142 1_564
Pd5 Pd9 3.052134 1_555
Pd5 Pd8 3.052137 1_555
Pd8 Pd9 2.658663 1_555
Pd10 Pd11 2.658683 1_555
Pd10 Pd17 3.014363 1_555
Pd10 Pd18 3.014367 1_456
Pd10 Pd12 3.014493 1_455
Pd10 Pd15 3.014522 1_555
Pd10 Pd6 3.052037 1_455
Pd10 Pd7 3.052315 1_555
Pd11 Pd14 3.014385 1_554
Pd11 Pd13 3.014388 1_465
Pd11 Pd16 3.014517 1_465
Pd11 Pd19 3.014545 1_555
Pd11 Pd6 3.052044 1_455
Pd11 Pd7 3.052298 1_555
Pd12 Pd14 2.658668 1_655
Pd12 Pd18 3.014529 1_556
Pd12 Pd8 3.014547 1_655
Pd12 Pd16 3.014551 1_556
Pd12 Pd7 3.052121 1_655
Pd12 Pd4 3.052167 1_556
Pd12 Pd2 3.052195 1_655
Pd12 Pd6 3.052233 1_556
Pd13 Pd15 2.658673 1_555
Pd13 Pd9 3.014382 1_554
Pd13 Pd18 3.014540 1_555
Pd13 Pd16 3.014542 1_555
Pd13 Pd3 3.052067 1_545
Pd13 Pd5 3.052319 1_555
Pd14 Pd17 3.014362 1_565
Pd14 Pd19 3.014386 1_556
Pd14 Pd9 3.014399 1_465
Pd14 Pd7 3.052126 1_555
Pd14 Pd4 3.052133 1_456
Pd14 Pd2 3.052201 1_555
Pd14 Pd6 3.052222 1_456
Pd15 Pd19 3.014360 1_546
Pd15 Pd17 3.014375 1_555
Pd15 Pd8 3.014517 1_555
Pd15 Pd3 3.052062 1_545
Pd15 Pd5 3.052328 1_555
Pd16 Pd17 2.658664 1_655
Pd16 Pd8 3.014543 1_654
Pd16 Pd7 3.052140 1_645
Pd16 Pd5 3.052174 1_555
Pd16 Pd3 3.052212 1_645
Pd16 Pd6 3.052218 1_555
Pd17 Pd9 3.014378 1_455
Pd17 Pd7 3.052147 1_545
Pd17 Pd5 3.052178 1_455
Pd17 Pd6 3.052214 1_455
Pd17 Pd3 3.052224 1_545
Pd18 Pd19 2.658675 1_555
Pd18 Pd9 3.014380 1_554
Pd18 Pd2 3.052082 1_554
Pd18 Pd4 3.052358 1_555
Pd19 Pd8 3.014521 1_564
Pd19 Pd2 3.052071 1_554
Pd19 Pd4 3.052353 1_555
