# generated using pymatgen
data_Ca2MgFe(CO3)4
_symmetry_space_group_name_H-M   'P 1'
_cell_length_a   4.88683346
_cell_length_b   23.45134348
_cell_length_c   7.83963127
_cell_angle_alpha   87.94384303
_cell_angle_beta   90.03276073
_cell_angle_gamma   90.20227427
_symmetry_Int_Tables_number   1
_chemical_formula_structural   Ca2MgFe(CO3)4
_chemical_formula_sum   'Ca8 Mg4 Fe4 C16 O48'
_cell_volume   897.85961759
_cell_formula_units_Z   4
loop_
 _symmetry_equiv_pos_site_id
 _symmetry_equiv_pos_as_xyz
  1  'x, y, z'
loop_
 _atom_site_type_symbol
 _atom_site_label
 _atom_site_symmetry_multiplicity
 _atom_site_fract_x
 _atom_site_fract_y
 _atom_site_fract_z
 _atom_site_occupancy
  Ca  Ca0  1  0.24804900  0.06195100  0.68508100  1
  Ca  Ca1  1  0.24843200  0.31147300  0.43623200  1
  Ca  Ca2  1  0.24783000  0.56235000  0.18505900  1
  Ca  Ca3  1  0.24783300  0.81165100  0.93520300  1
  Ca  Ca4  1  0.75229700  0.18811100  0.06506100  1
  Ca  Ca5  1  0.75087200  0.43793300  0.81474900  1
  Ca  Ca6  1  0.75148400  0.68805600  0.56461600  1
  Ca  Ca7  1  0.75141600  0.93824100  0.31500700  1
  Mg  Mg0  1  0.24834100  0.06225900  0.18523800  1
  Mg  Mg1  1  0.24564000  0.31275400  0.93700000  1
  Mg  Mg2  1  0.24827800  0.56203200  0.68549800  1
  Mg  Mg3  1  0.24528700  0.81294100  0.43613100  1
  Fe  Fe0  1  0.75252300  0.43747200  0.31407900  1
  Fe  Fe1  1  0.75227200  0.68760900  0.06348900  1
  Fe  Fe2  1  0.75357800  0.18739400  0.56454700  1
  Fe  Fe3  1  0.75254900  0.93738500  0.81401800  1
  C  C0  1  0.74887000  0.05913800  0.94862100  1
  C  C1  1  0.74533700  0.30955200  0.69953300  1
  C  C2  1  0.74826700  0.55913100  0.44820800  1
  C  C3  1  0.74524300  0.80966200  0.19900700  1
  C  C4  1  0.25098000  0.19111100  0.80495000  1
  C  C5  1  0.25485800  0.44030500  0.55527200  1
  C  C6  1  0.24980800  0.69119300  0.30513300  1
  C  C7  1  0.25527200  0.94040300  0.05532200  1
  C  C8  1  0.74836700  0.06566300  0.42551900  1
  C  C9  1  0.74521100  0.31597000  0.17670200  1
  C  C10  1  0.74803300  0.56572900  0.92485600  1
  C  C11  1  0.74469100  0.81611800  0.67535200  1
  C  C12  1  0.25711700  0.18355900  0.32096600  1
  C  C13  1  0.25064100  0.43436000  0.07062000  1
  C  C14  1  0.25650500  0.68373000  0.81985600  1
  C  C15  1  0.25133300  0.93437700  0.57008600  1
  O  O0  1  0.13547400  0.22604900  0.90725600  1
  O  O1  1  0.14034500  0.47547400  0.65761700  1
  O  O2  1  0.13580700  0.72615200  0.40792600  1
  O  O3  1  0.14112500  0.97560700  0.15759300  1
  O  O4  1  0.86220400  0.02502700  0.84187800  1
  O  O5  1  0.85727900  0.27647600  0.58959400  1
  O  O6  1  0.86047300  0.52515200  0.34060800  1
  O  O7  1  0.85891500  0.77664000  0.08970900  1
  O  O8  1  0.01254300  0.06173800  0.41275000  1
  O  O9  1  0.00896000  0.31152900  0.16498800  1
  O  O10  1  0.01243000  0.56201700  0.91296900  1
  O  O11  1  0.00855600  0.81201000  0.66394800  1
  O  O12  1  0.99356200  0.18874300  0.32801300  1
  O  O13  1  0.98583800  0.43885200  0.07881700  1
  O  O14  1  0.99327600  0.68941200  0.82744100  1
  O  O15  1  0.98664100  0.93920000  0.57903100  1
  O  O16  1  0.48455900  0.06265400  0.95729600  1
  O  O17  1  0.48068700  0.31281800  0.70936500  1
  O  O18  1  0.48404700  0.56271300  0.45745500  1
  O  O19  1  0.48042900  0.81260100  0.20839900  1
  O  O20  1  0.51510100  0.18692000  0.80091400  1
  O  O21  1  0.52008000  0.43659400  0.54968400  1
  O  O22  1  0.51370700  0.68649300  0.30056200  1
  O  O23  1  0.52061200  0.93649500  0.04985600  1
  O  O24  1  0.59024100  0.03480600  0.33269400  1
  O  O25  1  0.58604400  0.28452600  0.08622700  1
  O  O26  1  0.59137300  0.53463600  0.83170800  1
  O  O27  1  0.58652700  0.78452200  0.58468600  1
  O  O28  1  0.41199800  0.21560300  0.41340500  1
  O  O29  1  0.40347900  0.46711200  0.16071800  1
  O  O30  1  0.41309400  0.71566100  0.91171700  1
  O  O31  1  0.40534400  0.96689700  0.66006200  1
  O  O32  1  0.64176100  0.09878700  0.53715000  1
  O  O33  1  0.63825700  0.35018400  0.28544200  1
  O  O34  1  0.63937900  0.59897800  0.03527100  1
  O  O35  1  0.63625700  0.85024200  0.78382200  1
  O  O36  1  0.36643600  0.14838100  0.21703100  1
  O  O37  1  0.35995500  0.39883000  0.96746600  1
  O  O38  1  0.36437200  0.64840400  0.71595900  1
  O  O39  1  0.35914400  0.89889400  0.46630500  1
  O  O40  1  0.90320800  0.09097500  0.04107500  1
  O  O41  1  0.89924600  0.34062300  0.79441700  1
  O  O42  1  0.90345200  0.59080800  0.54061300  1
  O  O43  1  0.89800300  0.84093200  0.29412200  1
  O  O44  1  0.10123400  0.15877700  0.71019700  1
  O  O45  1  0.10631500  0.40754200  0.46250700  1
  O  O46  1  0.09826900  0.65915000  0.21043400  1
  O  O47  1  0.10675600  0.90774600  0.96228800  1
loop_
_geom_bond_atom_site_label_1
_geom_bond_atom_site_label_2
_geom_bond_distance
_geom_bond_site_symmetry_2
Ca0 O31 2.375302 1_545
Ca0 O32 2.389964 1_555
Ca0 O4 2.393930 1_455
Ca0 O44 2.398613 1_555
Ca0 O8 2.424990 1_555
Ca0 O16 2.426915 1_555
Ca1 O45 2.375931 1_555
Ca1 O5 2.386146 1_455
Ca1 O33 2.400836 1_555
Ca1 O28 2.401546 1_555
Ca1 O17 2.424050 1_555
Ca1 O9 2.426577 1_555
Ca2 O29 2.376143 1_555
Ca2 O34 2.386754 1_555
Ca2 O6 2.397068 1_455
Ca2 O46 2.402364 1_555
Ca2 O10 2.423173 1_554
Ca2 O18 2.427203 1_555
Ca3 O47 2.375790 1_555
Ca3 O7 2.381964 1_456
Ca3 O35 2.396637 1_555
Ca3 O30 2.407550 1_555
Ca3 O19 2.424885 1_556
Ca3 O11 2.425997 1_555
Ca4 O20 2.373569 1_554
Ca4 O12 2.374692 1_555
Ca4 O0 2.395893 1_654
Ca4 O36 2.398678 1_555
Ca4 O40 2.410630 1_555
Ca4 O25 2.416621 1_555
Ca5 O21 2.364931 1_555
Ca5 O13 2.367475 1_556
Ca5 O41 2.407658 1_555
Ca5 O26 2.408824 1_555
Ca5 O1 2.414144 1_655
Ca5 O37 2.415617 1_555
Ca6 O22 2.374696 1_555
Ca6 O14 2.375772 1_555
Ca6 O2 2.397186 1_655
Ca6 O38 2.400442 1_555
Ca6 O27 2.414737 1_555
Ca6 O42 2.414738 1_555
Ca7 O23 2.365982 1_555
Ca7 O15 2.367823 1_555
Ca7 O43 2.405430 1_555
Ca7 O24 2.408976 1_565
Ca7 O3 2.414747 1_655
Ca7 O39 2.417575 1_555
Mg0 O3 2.115396 1_545
Mg0 O24 2.120002 1_555
Mg0 O36 2.121792 1_555
Mg0 O8 2.123655 1_555
Mg0 O40 2.127603 1_455
Mg0 O16 2.127681 1_554
Mg1 O37 2.114318 1_555
Mg1 O41 2.120216 1_455
Mg1 O0 2.122467 1_555
Mg1 O17 2.122784 1_555
Mg1 O25 2.126983 1_556
Mg1 O9 2.128760 1_556
Mg2 O1 2.114386 1_555
Mg2 O26 2.119041 1_555
Mg2 O38 2.123239 1_555
Mg2 O10 2.123863 1_555
Mg2 O18 2.126980 1_555
Mg2 O42 2.129782 1_455
Mg3 O39 2.110636 1_555
Mg3 O2 2.121820 1_555
Mg3 O43 2.122217 1_455
Mg3 O19 2.123993 1_555
Mg3 O11 2.127910 1_555
Mg3 O27 2.128678 1_555
Fe0 O6 2.138332 1_555
Fe0 O33 2.139455 1_555
Fe0 O13 2.168085 1_555
Fe0 O21 2.168372 1_555
Fe0 O45 2.187123 1_655
Fe0 O29 2.187283 1_555
Fe1 O30 2.131922 1_554
Fe1 O46 2.140559 1_655
Fe1 O7 2.167060 1_555
Fe1 O34 2.167553 1_555
Fe1 O14 2.193139 1_554
Fe1 O22 2.193826 1_555
Fe2 O28 2.139458 1_555
Fe2 O44 2.142760 1_655
Fe2 O5 2.163684 1_555
Fe2 O32 2.164829 1_555
Fe2 O20 2.189268 1_555
Fe2 O12 2.193846 1_555
Fe3 O35 2.140502 1_555
Fe3 O4 2.140913 1_565
Fe3 O15 2.168100 1_555
Fe3 O23 2.168627 1_556
Fe3 O31 2.181893 1_555
Fe3 O47 2.186017 1_655
C0 O16 1.296543 1_555
C0 O40 1.298410 1_556
C0 O4 1.303316 1_555
C1 O41 1.297822 1_555
C1 O17 1.298334 1_555
C1 O5 1.302028 1_555
C2 O18 1.296463 1_555
C2 O42 1.298370 1_555
C2 O6 1.303479 1_555
C3 O43 1.298383 1_555
C3 O19 1.298451 1_555
C3 O7 1.301417 1_555
C4 O20 1.295289 1_555
C4 O0 1.297746 1_555
C4 O44 1.303136 1_555
C5 O45 1.296810 1_555
C5 O1 1.299387 1_555
C5 O21 1.300189 1_555
C6 O22 1.295345 1_555
C6 O2 1.297325 1_555
C6 O46 1.303736 1_555
C7 O47 1.296449 1_554
C7 O3 1.298782 1_555
C7 O23 1.301069 1_555
C8 O24 1.297511 1_555
C8 O8 1.298761 1_655
C8 O32 1.301103 1_555
C9 O9 1.297037 1_655
C9 O25 1.297967 1_555
C9 O33 1.302400 1_555
C10 O26 1.297952 1_555
C10 O10 1.298925 1_655
C10 O34 1.300417 1_556
C11 O11 1.296773 1_655
C11 O27 1.297992 1_555
C11 O35 1.302559 1_555
C12 O12 1.295498 1_455
C12 O36 1.296818 1_555
C12 O28 1.302761 1_555
C13 O29 1.296526 1_555
C13 O37 1.298307 1_554
C13 O13 1.300512 1_455
C14 O14 1.295326 1_455
C14 O38 1.295997 1_555
C14 O30 1.303439 1_555
C15 O31 1.295980 1_555
C15 O39 1.297739 1_555
C15 O15 1.300989 1_455
