# generated using pymatgen
data_BiSbTe3
_symmetry_space_group_name_H-M   'P 1'
_cell_length_a   10.93960463
_cell_length_b   10.93960463
_cell_length_c   10.93960500
_cell_angle_alpha   23.01256525
_cell_angle_beta   23.01256525
_cell_angle_gamma   23.01256526
_symmetry_Int_Tables_number   1
_chemical_formula_structural   BiSbTe3
_chemical_formula_sum   'Bi1 Sb1 Te3'
_cell_volume   175.60495542
_cell_formula_units_Z   1
loop_
 _symmetry_equiv_pos_site_id
 _symmetry_equiv_pos_as_xyz
  1  'x, y, z'
loop_
 _atom_site_type_symbol
 _atom_site_label
 _atom_site_symmetry_multiplicity
 _atom_site_fract_x
 _atom_site_fract_y
 _atom_site_fract_z
 _atom_site_occupancy
  Bi  Bi0  1  0.60363514  0.60363514  0.60363514  1
  Sb  Sb0  1  0.39674614  0.39674614  0.39674614  1
  Te  Te0  1  0.00184759  0.00184759  0.00184759  1
  Te  Te1  1  0.21573957  0.21573957  0.21573957  1
  Te  Te2  1  0.78203256  0.78203256  0.78203256  1
loop_
_geom_bond_atom_site_label_1
_geom_bond_atom_site_label_2
_geom_bond_distance
_geom_bond_site_symmetry_2
Bi0 Te1 3.063592 1_556
Bi0 Te1 3.063592 1_565
Bi0 Te1 3.063592 1_655
Bi0 Te0 3.262272 1_665
Bi0 Te0 3.262272 1_656
Bi0 Te0 3.262272 1_566
Sb0 Te2 3.016976 1_554
Sb0 Te2 3.016976 1_455
Sb0 Te2 3.016976 1_545
Sb0 Te0 3.196098 1_556
Sb0 Te0 3.196099 1_565
Sb0 Te0 3.196099 1_655
