# generated using pymatgen
data_V6SiOs
_symmetry_space_group_name_H-M   'P 1'
_cell_length_a   4.75109800
_cell_length_b   4.75109800
_cell_length_c   4.75109800
_cell_angle_alpha   90.00000000
_cell_angle_beta   90.00000000
_cell_angle_gamma   90.00000000
_symmetry_Int_Tables_number   1
_chemical_formula_structural   V6SiOs
_chemical_formula_sum   'V6 Si1 Os1'
_cell_volume   107.24621306
_cell_formula_units_Z   1
loop_
 _symmetry_equiv_pos_site_id
 _symmetry_equiv_pos_as_xyz
  1  'x, y, z'
loop_
 _atom_site_type_symbol
 _atom_site_label
 _atom_site_symmetry_multiplicity
 _atom_site_fract_x
 _atom_site_fract_y
 _atom_site_fract_z
 _atom_site_occupancy
  V  V0  1  0.00000000  0.50000000  0.74944500  1
  V  V1  1  0.50000000  0.25055500  0.00000000  1
  V  V2  1  0.74944500  0.00000000  0.50000000  1
  V  V3  1  0.00000000  0.50000000  0.25055500  1
  V  V4  1  0.50000000  0.74944500  0.00000000  1
  V  V5  1  0.25055500  0.00000000  0.50000000  1
  Si  Si0  1  0.00000000  0.00000000  0.00000000  1
  Os  Os0  1  0.50000000  0.50000000  0.50000000  1
loop_
_geom_bond_atom_site_label_1
_geom_bond_atom_site_label_2
_geom_bond_distance
_geom_bond_site_symmetry_2
V0 V3 2.370275 1_555
V0 V3 2.380823 1_556
V1 V4 2.370275 1_555
V1 V4 2.380823 1_545
V2 V5 2.370275 1_555
V2 V5 2.380823 1_655
Si0 V3 2.657125 1_545
Si0 V2 2.657125 1_455
Si0 V0 2.657125 1_544
Si0 V4 2.657125 1_545
Si0 V0 2.657125 1_554
Si0 V4 2.657125 1_445
Si0 V1 2.657125 1_555
Si0 V3 2.657125 1_555
Si0 V1 2.657125 1_455
Si0 V2 2.657125 1_454
Si0 V5 2.657125 1_555
Si0 V5 2.657125 1_554
Os0 V5 2.654766 1_565
Os0 V2 2.654766 1_565
Os0 V4 2.654766 1_556
Os0 V4 2.654766 1_555
Os0 V1 2.654766 1_555
Os0 V1 2.654766 1_556
Os0 V0 2.654766 1_655
Os0 V2 2.654766 1_555
Os0 V3 2.654766 1_655
Os0 V0 2.654766 1_555
Os0 V5 2.654766 1_555
Os0 V3 2.654766 1_555
