# generated using pymatgen
data_Li8Mn7Sb(PO4)12
_symmetry_space_group_name_H-M   'P 1'
_cell_length_a   8.54303700
_cell_length_b   8.76257203
_cell_length_c   12.30193475
_cell_angle_alpha   89.84649497
_cell_angle_beta   89.30462402
_cell_angle_gamma   89.64942572
_symmetry_Int_Tables_number   1
_chemical_formula_structural   Li8Mn7Sb(PO4)12
_chemical_formula_sum   'Li8 Mn7 Sb1 P12 O48'
_cell_volume   920.82206619
_cell_formula_units_Z   1
loop_
 _symmetry_equiv_pos_site_id
 _symmetry_equiv_pos_as_xyz
  1  'x, y, z'
loop_
 _atom_site_type_symbol
 _atom_site_label
 _atom_site_symmetry_multiplicity
 _atom_site_fract_x
 _atom_site_fract_y
 _atom_site_fract_z
 _atom_site_occupancy
  Li  Li0  1  0.77829900  0.28073400  0.18131500  1
  Li  Li1  1  0.77944300  0.22285900  0.81764300  1
  Li  Li2  1  0.71950700  0.77759700  0.31687200  1
  Li  Li3  1  0.72229700  0.72296500  0.68720000  1
  Li  Li4  1  0.28226300  0.27445500  0.31168900  1
  Li  Li5  1  0.27776700  0.21016300  0.68254100  1
  Li  Li6  1  0.22096500  0.77746800  0.18317500  1
  Li  Li7  1  0.21663600  0.72391100  0.82956500  1
  Mn  Mn0  1  0.75285700  0.04035300  0.61257700  1
  Mn  Mn1  1  0.75065300  0.46478900  0.38613900  1
  Mn  Mn2  1  0.74688900  0.96179600  0.11277700  1
  Mn  Mn3  1  0.75079000  0.53614500  0.89011900  1
  Mn  Mn4  1  0.25068400  0.46134500  0.11010300  1
  Mn  Mn5  1  0.24870100  0.03561600  0.89074800  1
  Mn  Mn6  1  0.25265700  0.96543900  0.38662000  1
  Sb  Sb0  1  0.24647900  0.54070400  0.61328600  1
  P  P0  1  0.96069900  0.76209700  0.49803400  1
  P  P1  1  0.53337300  0.24381000  0.99915800  1
  P  P2  1  0.46785500  0.74687900  0.00159300  1
  P  P3  1  0.03521500  0.25481300  0.49702400  1
  P  P4  1  0.89757600  0.60515500  0.14629200  1
  P  P5  1  0.89420200  0.89777000  0.85819000  1
  P  P6  1  0.60875000  0.39458200  0.64343300  1
  P  P7  1  0.60469700  0.10181500  0.34887600  1
  P  P8  1  0.39554500  0.89468900  0.64438100  1
  P  P9  1  0.39826800  0.60314300  0.35277200  1
  P  P10  1  0.10060600  0.39554900  0.85026800  1
  P  P11  1  0.10178600  0.10460300  0.14784000  1
  O  O0  1  0.94264300  0.36786600  0.42834900  1
  O  O1  1  0.94473400  0.14887600  0.57195500  1
  O  O2  1  0.91900600  0.10382100  0.15779100  1
  O  O3  1  0.91998600  0.40059100  0.83847000  1
  O  O4  1  0.85889300  0.84793700  0.58382500  1
  O  O5  1  0.85533500  0.67598300  0.42091500  1
  O  O6  1  0.84717500  0.55756000  0.03384800  1
  O  O7  1  0.84799600  0.93425100  0.97698700  1
  O  O8  1  0.84298400  0.77000700  0.17781800  1
  O  O9  1  0.84449500  0.73606300  0.82287600  1
  O  O10  1  0.82561800  0.48895300  0.22842700  1
  O  O11  1  0.82527400  0.01874900  0.78244800  1
  O  O12  1  0.67520800  0.98013700  0.26813400  1
  O  O13  1  0.67200700  0.51249600  0.72246100  1
  O  O14  1  0.65779600  0.22969700  0.67580000  1
  O  O15  1  0.65540100  0.26310000  0.31549100  1
  O  O16  1  0.65252100  0.43453400  0.52715600  1
  O  O17  1  0.65624700  0.05537500  0.46152300  1
  O  O18  1  0.63975200  0.15533200  0.08220500  1
  O  O19  1  0.64409800  0.32922700  0.92079600  1
  O  O20  1  0.57462200  0.88830100  0.65544700  1
  O  O21  1  0.57968600  0.60365000  0.34617600  1
  O  O22  1  0.56173100  0.85453300  0.07501500  1
  O  O23  1  0.56461300  0.63920600  0.92806300  1
  O  O24  1  0.43869700  0.35248800  0.07276300  1
  O  O25  1  0.43707300  0.13858200  0.92673400  1
  O  O26  1  0.42092700  0.39376200  0.65520500  1
  O  O27  1  0.42166600  0.09952500  0.33985900  1
  O  O28  1  0.36186700  0.65982300  0.08367400  1
  O  O29  1  0.36169700  0.83181700  0.92087300  1
  O  O30  1  0.34464500  0.93087500  0.52930600  1
  O  O31  1  0.35257200  0.57178900  0.47462500  1
  O  O32  1  0.34184200  0.76366000  0.31952800  1
  O  O33  1  0.33388900  0.72902700  0.68059500  1
  O  O34  1  0.32830700  0.47923000  0.28287200  1
  O  O35  1  0.32101900  0.00788100  0.72484300  1
  O  O36  1  0.17378700  0.98544800  0.22733400  1
  O  O37  1  0.16953500  0.52190700  0.76757900  1
  O  O38  1  0.15417300  0.26767700  0.17818500  1
  O  O39  1  0.15706000  0.23692800  0.81471400  1
  O  O40  1  0.15474400  0.44607100  0.96005100  1
  O  O41  1  0.15418200  0.05764400  0.03383200  1
  O  O42  1  0.14591900  0.34276900  0.58023800  1
  O  O43  1  0.14868200  0.17256700  0.41862700  1
  O  O44  1  0.07776300  0.89855200  0.84968500  1
  O  O45  1  0.07975200  0.60324000  0.15596800  1
  O  O46  1  0.06455600  0.86489200  0.42861600  1
  O  O47  1  0.05236600  0.64635200  0.57208800  1
loop_
_geom_bond_atom_site_label_1
_geom_bond_atom_site_label_2
_geom_bond_distance
_geom_bond_site_symmetry_2
Li0 O15 1.951750 1_555
Li0 O10 1.961790 1_555
Li0 O2 1.975607 1_555
Li0 O18 2.037910 1_555
Li1 O11 1.879112 1_555
Li1 O19 1.942553 1_555
Li1 O3 1.991278 1_555
Li1 O14 2.042332 1_555
Li2 O12 1.908955 1_555
Li2 O5 1.948031 1_555
Li2 O21 1.972034 1_555
Li2 O8 1.999847 1_555
Li3 O13 1.942907 1_555
Li3 O20 1.956961 1_555
Li3 O9 1.983329 1_555
Li3 O4 2.037243 1_555
Li4 O34 1.871352 1_555
Li4 O43 1.949306 1_555
Li4 O27 1.967947 1_555
Li4 O38 1.985762 1_555
Li5 O35 1.881714 1_555
Li5 O39 1.928884 1_555
Li5 O26 2.051414 1_555
Li5 O42 2.052645 1_555
Li6 O36 1.941608 1_555
Li6 O45 1.983240 1_555
Li6 O32 1.983466 1_555
Li6 O28 1.991429 1_555
Li7 O29 1.935290 1_555
Li7 O44 1.945075 1_555
Li7 O37 1.974830 1_555
Li7 O33 2.078329 1_555
Mn0 O4 1.940420 1_545
Mn0 O1 1.959000 1_555
Mn0 O14 1.998070 1_555
Mn0 O17 2.046026 1_555
Mn0 O20 2.091273 1_545
Mn0 O11 2.193953 1_555
Mn1 O0 1.918954 1_555
Mn1 O16 1.935854 1_555
Mn1 O21 1.961634 1_555
Mn1 O10 2.046586 1_555
Mn1 O5 2.107442 1_555
Mn1 O15 2.141009 1_555
Mn2 O7 1.886645 1_554
Mn2 O22 1.907803 1_555
Mn2 O18 1.959874 1_565
Mn2 O12 2.006369 1_555
Mn2 O2 2.015781 1_565
Mn2 O8 2.032316 1_555
Mn3 O23 1.878788 1_555
Mn3 O3 1.965870 1_555
Mn3 O6 1.969411 1_556
Mn3 O19 2.066124 1_555
Mn3 O9 2.094575 1_555
Mn3 O13 2.188060 1_555
Mn4 O24 1.914796 1_555
Mn4 O45 1.989539 1_555
Mn4 O28 2.010556 1_555
Mn4 O40 2.033847 1_554
Mn4 O38 2.062504 1_555
Mn4 O34 2.240284 1_555
Mn5 O25 1.907086 1_555
Mn5 O41 1.937275 1_556
Mn5 O44 1.967954 1_545
Mn5 O29 2.059693 1_545
Mn5 O35 2.139266 1_555
Mn5 O39 2.142801 1_555
Mn6 O46 1.902681 1_555
Mn6 O27 1.947582 1_565
Mn6 O30 1.954008 1_555
Mn6 O43 2.052752 1_565
Mn6 O36 2.086441 1_555
Mn6 O32 2.089016 1_555
O0 P3 1.524037 1_655
O1 P3 1.515195 1_655
O2 P11 1.564861 1_655
O3 P10 1.551956 1_655
O4 P0 1.552429 1_555
O5 P0 1.520709 1_555
O6 P4 1.514113 1_555
O7 P5 1.542968 1_555
O8 P4 1.563634 1_555
O9 P5 1.546609 1_555
O10 P4 1.556506 1_555
O11 P5 1.529419 1_545
O12 P7 1.571487 1_565
O13 P6 1.526348 1_555
O14 P6 1.554079 1_555
O15 P7 1.534180 1_555
O16 P6 1.514747 1_555
O17 P7 1.513114 1_555
O18 P1 1.574933 1_554
O19 P1 1.538492 1_555
O20 P8 1.538216 1_555
O21 P9 1.551033 1_555
O22 P2 1.542816 1_555
O23 P2 1.539015 1_556
O24 P1 1.535703 1_554
O25 P1 1.533725 1_555
O26 P6 1.609407 1_555
O26 Sb0 2.033832 1_555
O27 P7 1.569167 1_555
O28 P2 1.550326 1_555
O29 P2 1.540178 1_556
O30 P8 1.518067 1_555
O31 P9 1.568396 1_555
O31 Sb0 1.941244 1_555
O32 P9 1.539932 1_555
O33 P8 1.607273 1_555
O33 Sb0 2.000954 1_555
O34 P9 1.516915 1_555
O35 P8 1.533345 1_545
O36 P11 1.557603 1_565
O37 P10 1.610860 1_555
O37 Sb0 2.007829 1_555
O38 P11 1.547993 1_555
O39 P10 1.531581 1_555
O40 P10 1.501577 1_555
O41 P11 1.523923 1_555
O42 P3 1.604072 1_555
O42 Sb0 1.985452 1_555
O43 P3 1.536767 1_555
O44 P5 1.570443 1_455
O45 P4 1.562306 1_455
O46 P0 1.521548 1_455
O47 P0 1.573054 1_455
O47 Sb0 1.965446 1_555
