# generated using pymatgen
data_Er4MgNi
_symmetry_space_group_name_H-M   'P 1'
_cell_length_a   9.49040900
_cell_length_b   9.49042435
_cell_length_c   9.49038205
_cell_angle_alpha   59.99963518
_cell_angle_beta   59.99932283
_cell_angle_gamma   59.99961208
_symmetry_Int_Tables_number   1
_chemical_formula_structural   Er4MgNi
_chemical_formula_sum   'Er16 Mg4 Ni4'
_cell_volume   604.41407045
_cell_formula_units_Z   4
loop_
 _symmetry_equiv_pos_site_id
 _symmetry_equiv_pos_as_xyz
  1  'x, y, z'
loop_
 _atom_site_type_symbol
 _atom_site_label
 _atom_site_symmetry_multiplicity
 _atom_site_fract_x
 _atom_site_fract_y
 _atom_site_fract_z
 _atom_site_occupancy
  Er  Er0  1  0.18624191  0.81375801  0.81375776  1
  Er  Er1  1  0.81376174  0.18624502  0.18623854  1
  Er  Er2  1  0.81376051  0.18624441  0.81375869  1
  Er  Er3  1  0.18624015  0.81376036  0.18624255  1
  Er  Er4  1  0.81375879  0.81375829  0.18624286  1
  Er  Er5  1  0.18623503  0.18624534  0.81376079  1
  Er  Er6  1  0.59577166  0.59576869  0.59576214  1
  Er  Er7  1  0.59577563  0.59577072  0.21269050  1
  Er  Er8  1  0.59576449  0.21268640  0.59577492  1
  Er  Er9  1  0.21269012  0.59576649  0.59577542  1
  Er  Er10  1  0.06230124  0.43769583  0.43769391  1
  Er  Er11  1  0.43769416  0.06230550  0.06230538  1
  Er  Er12  1  0.43769448  0.06230697  0.43769353  1
  Er  Er13  1  0.06230481  0.43769435  0.06230512  1
  Er  Er14  1  0.43769514  0.43769677  0.06230387  1
  Er  Er15  1  0.06230757  0.06230170  0.43769504  1
  Mg  Mg0  1  0.82898709  0.82898870  0.82898763  1
  Mg  Mg1  1  0.82899091  0.82898865  0.51303039  1
  Mg  Mg2  1  0.82899058  0.51303202  0.82898675  1
  Mg  Mg3  1  0.51302839  0.82899195  0.82898756  1
  Ni  Ni0  1  0.39180819  0.39181279  0.39180235  1
  Ni  Ni1  1  0.39180851  0.39180513  0.82458745  1
  Ni  Ni2  1  0.39179647  0.82459202  0.39180781  1
  Ni  Ni3  1  0.82458844  0.39178189  0.39180903  1
loop_
_geom_bond_atom_site_label_1
_geom_bond_atom_site_label_2
_geom_bond_distance
_geom_bond_site_symmetry_2
Er0 Mg3 3.252328 1_555
Er0 Mg0 3.252380 1_455
Er0 Ni2 3.439289 1_555
Er0 Ni1 3.439350 1_555
Er0 Er9 3.444428 1_555
Er0 Er6 3.444450 1_555
Er0 Er4 3.534985 1_456
Er0 Er2 3.535007 1_465
Er0 Er3 3.535026 1_556
Er0 Er5 3.535045 1_565
Er0 Er15 3.562277 1_565
Er0 Er14 3.562285 1_556
Er0 Er12 3.562287 1_565
Er0 Er13 3.562302 1_556
Er1 Mg2 3.252314 1_554
Er1 Mg1 3.252362 1_545
Er1 Ni3 3.439216 1_555
Er1 Ni0 3.439352 1_555
Er1 Er7 3.444430 1_555
Er1 Er8 3.444460 1_555
Er1 Er5 3.534904 1_654
Er1 Er3 3.534984 1_645
Er1 Er2 3.534985 1_554
Er1 Er4 3.535051 1_545
Er1 Er13 3.562258 1_655
Er1 Er15 3.562305 1_655
Er1 Er14 3.562315 1_555
Er1 Er12 3.562323 1_555
Er2 Mg2 3.252314 1_555
Er2 Mg0 3.252417 1_545
Er2 Ni3 3.439313 1_555
Er2 Ni1 3.439339 1_555
Er2 Er6 3.444444 1_555
Er2 Er8 3.444512 1_555
Er2 Er5 3.534950 1_655
Er2 Er4 3.535015 1_546
Er3 Mg1 3.252289 1_455
Er3 Mg3 3.252319 1_554
Er3 Ni0 3.439327 1_555
Er3 Ni2 3.439363 1_555
Er3 Er9 3.444471 1_555
Er3 Er7 3.444494 1_555
Er3 Er5 3.534998 1_564
Er3 Er4 3.535009 1_455
Er4 Mg1 3.252323 1_555
Er4 Mg0 3.252383 1_554
Er4 Ni2 3.439401 1_555
Er4 Ni3 3.439544 1_555
Er4 Er6 3.444369 1_555
Er4 Er7 3.444411 1_555
Er5 Mg2 3.252279 1_455
Er5 Mg3 3.252356 1_545
Er5 Ni0 3.439399 1_555
Er5 Ni1 3.439433 1_555
Er5 Er9 3.444404 1_555
Er5 Er8 3.444412 1_555
Er6 Ni1 2.747622 1_555
Er6 Ni2 2.747646 1_555
Er6 Ni3 2.747694 1_555
Er6 Mg1 3.440580 1_555
Er6 Mg2 3.440594 1_555
Er6 Mg3 3.440604 1_555
Er7 Ni0 2.747611 1_555
Er7 Ni3 2.747651 1_555
Er7 Ni2 2.747694 1_555
Er7 Mg0 3.440486 1_554
Er7 Mg2 3.440544 1_554
Er7 Mg3 3.440587 1_554
Er8 Ni3 2.747577 1_555
Er8 Ni0 2.747628 1_555
Er8 Ni1 2.747637 1_555
Er8 Mg3 3.440481 1_545
Er8 Mg0 3.440509 1_545
Er8 Mg1 3.440540 1_545
Er9 Ni0 2.747610 1_555
Er9 Ni1 2.747643 1_555
Er9 Ni2 2.747659 1_555
Er9 Mg2 3.440502 1_455
Er9 Mg0 3.440508 1_455
Er9 Mg1 3.440555 1_455
Er10 Ni3 2.761199 1_455
Er10 Ni0 2.761219 1_555
Er10 Mg2 3.471805 1_455
Er10 Mg1 3.471827 1_455
Er10 Er2 3.562245 1_455
Er10 Er4 3.562261 1_455
Er10 Er5 3.562307 1_555
Er10 Er3 3.562317 1_555
Er11 Ni2 2.761118 1_545
Er11 Ni1 2.761124 1_554
Er11 Mg0 3.471827 1_544
Er11 Mg3 3.471861 1_544
Er11 Er3 3.562300 1_545
Er11 Er4 3.562313 1_545
Er11 Er2 3.562321 1_554
Er11 Er5 3.562327 1_554
Er12 Ni2 2.761129 1_545
Er12 Ni0 2.761207 1_555
Er12 Mg3 3.471820 1_545
Er12 Mg1 3.471858 1_545
Er12 Er4 3.562275 1_545
Er12 Er5 3.562316 1_555
Er13 Ni3 2.761125 1_455
Er13 Ni1 2.761131 1_554
Er13 Mg0 3.471854 1_454
Er13 Mg2 3.471862 1_454
Er13 Er5 3.562268 1_554
Er13 Er4 3.562304 1_455
Er14 Ni1 2.761102 1_554
Er14 Ni0 2.761143 1_555
Er14 Mg2 3.471831 1_554
Er14 Mg3 3.471835 1_554
Er14 Er2 3.562271 1_554
Er14 Er3 3.562306 1_555
Er15 Ni3 2.761010 1_455
Er15 Ni2 2.761028 1_545
Er15 Mg0 3.471821 1_445
Er15 Mg1 3.471850 1_445
Er15 Er3 3.562264 1_545
Er15 Er2 3.562308 1_455
Mg0 Mg1 2.998537 1_555
Mg0 Mg2 2.998551 1_555
Mg0 Mg3 2.998562 1_555
Mg1 Mg2 2.998538 1_555
Mg1 Mg3 2.998553 1_555
Mg2 Mg3 2.998585 1_555
