# generated using pymatgen
data_LaYMg6
_symmetry_space_group_name_H-M   'P 1'
_cell_length_a   9.07087141
_cell_length_b   9.07087141
_cell_length_c   9.07087160
_cell_angle_alpha   33.46877704
_cell_angle_beta   33.46877704
_cell_angle_gamma   33.46877254
_symmetry_Int_Tables_number   1
_chemical_formula_structural   LaYMg6
_chemical_formula_sum   'La1 Y1 Mg6'
_cell_volume   202.15767185
_cell_formula_units_Z   1
loop_
 _symmetry_equiv_pos_site_id
 _symmetry_equiv_pos_as_xyz
  1  'x, y, z'
loop_
 _atom_site_type_symbol
 _atom_site_label
 _atom_site_symmetry_multiplicity
 _atom_site_fract_x
 _atom_site_fract_y
 _atom_site_fract_z
 _atom_site_occupancy
  La  La0  1  -0.00000000  -0.00000000  -0.00000000  1
  Y  Y0  1  0.50000000  0.50000000  0.50000000  1
  Mg  Mg0  1  0.62266124  0.62266124  0.62266124  1
  Mg  Mg1  1  0.12707398  0.12707398  0.12707398  1
  Mg  Mg2  1  0.87292602  0.87292602  0.87292602  1
  Mg  Mg3  1  0.37733876  0.37733876  0.37733876  1
  Mg  Mg4  1  0.24893537  0.24893537  0.24893537  1
  Mg  Mg5  1  0.75106463  0.75106463  0.75106463  1
loop_
_geom_bond_atom_site_label_1
_geom_bond_atom_site_label_2
_geom_bond_distance
_geom_bond_site_symmetry_2
La0 Mg3 3.220403 1_545
La0 Mg0 3.220403 1_544
La0 Mg0 3.220403 1_454
La0 Mg3 3.220403 1_455
La0 Mg0 3.220403 1_445
La0 Mg3 3.220403 1_554
La0 Mg1 3.261291 1_555
La0 Mg2 3.261291 1_444
La0 Mg4 3.713111 1_545
La0 Mg5 3.713111 1_454
La0 Mg5 3.713111 1_544
La0 Mg4 3.713111 1_455
La0 Mg4 3.713112 1_554
La0 Mg5 3.713112 1_445
Mg0 Y0 3.148040 1_555
Mg0 Mg4 3.189068 1_655
Mg0 Mg4 3.189068 1_565
Mg0 Mg4 3.189068 1_556
Mg0 Mg5 3.295410 1_555
Mg1 Mg4 3.127512 1_555
Mg1 Y0 3.182454 1_455
Mg1 Y0 3.182454 1_545
Mg1 Y0 3.182455 1_554
Mg1 Mg5 3.208597 1_544
Mg1 Mg5 3.208597 1_454
Mg1 Mg5 3.208597 1_445
Mg2 Mg5 3.127512 1_555
Mg2 Y0 3.182454 1_655
Mg2 Y0 3.182454 1_565
Mg2 Y0 3.182455 1_556
Mg2 Mg4 3.208597 1_656
Mg2 Mg4 3.208597 1_566
Mg2 Mg4 3.208597 1_665
Mg3 Y0 3.148040 1_555
Mg3 Mg5 3.189068 1_545
Mg3 Mg5 3.189068 1_455
Mg3 Mg5 3.189068 1_554
Mg3 Mg4 3.295410 1_555
Mg4 Y0 3.681501 1_545
Mg4 Y0 3.681501 1_455
Mg4 Y0 3.681502 1_554
Mg5 Y0 3.681501 1_565
Mg5 Y0 3.681501 1_655
Mg5 Y0 3.681502 1_556
