# generated using pymatgen
data_Ti2HPd
_symmetry_space_group_name_H-M   'P 1'
_cell_length_a   5.79022200
_cell_length_b   5.79022200
_cell_length_c   23.86865000
_cell_angle_alpha   90.00000000
_cell_angle_beta   90.00000000
_cell_angle_gamma   90.00000000
_symmetry_Int_Tables_number   1
_chemical_formula_structural   Ti2HPd
_chemical_formula_sum   'Ti32 H16 Pd16'
_cell_volume   800.23637121
_cell_formula_units_Z   16
loop_
 _symmetry_equiv_pos_site_id
 _symmetry_equiv_pos_as_xyz
  1  'x, y, z'
loop_
 _atom_site_type_symbol
 _atom_site_label
 _atom_site_symmetry_multiplicity
 _atom_site_fract_x
 _atom_site_fract_y
 _atom_site_fract_z
 _atom_site_occupancy
  Ti  Ti0_0  1  0.00000000  0.00000000  0.16613400  1
  Ti  Ti0_1  1  0.00000000  0.00000000  0.66613400  1
  Ti  Ti0_2  1  0.00000000  0.50000000  0.16613400  1
  Ti  Ti0_3  1  0.00000000  0.50000000  0.66613400  1
  Ti  Ti0_4  1  0.50000000  0.00000000  0.16613400  1
  Ti  Ti0_5  1  0.50000000  0.00000000  0.66613400  1
  Ti  Ti0_6  1  0.50000000  0.50000000  0.16613400  1
  Ti  Ti0_7  1  0.50000000  0.50000000  0.66613400  1
  Ti  Ti1_0  1  0.00000000  0.00000000  0.33386600  1
  Ti  Ti1_1  1  0.00000000  0.00000000  0.83386600  1
  Ti  Ti1_2  1  0.00000000  0.50000000  0.33386600  1
  Ti  Ti1_3  1  0.00000000  0.50000000  0.83386600  1
  Ti  Ti1_4  1  0.50000000  0.00000000  0.33386600  1
  Ti  Ti1_5  1  0.50000000  0.00000000  0.83386600  1
  Ti  Ti1_6  1  0.50000000  0.50000000  0.33386600  1
  Ti  Ti1_7  1  0.50000000  0.50000000  0.83386600  1
  Ti  Ti2_0  1  0.25000000  0.25000000  0.42032250  1
  Ti  Ti2_1  1  0.25000000  0.25000000  0.92032250  1
  Ti  Ti2_2  1  0.25000000  0.75000000  0.42032250  1
  Ti  Ti2_3  1  0.25000000  0.75000000  0.92032250  1
  Ti  Ti2_4  1  0.75000000  0.25000000  0.42032250  1
  Ti  Ti2_5  1  0.75000000  0.25000000  0.92032250  1
  Ti  Ti2_6  1  0.75000000  0.75000000  0.42032250  1
  Ti  Ti2_7  1  0.75000000  0.75000000  0.92032250  1
  Ti  Ti3_0  1  0.25000000  0.25000000  0.07967750  1
  Ti  Ti3_1  1  0.25000000  0.25000000  0.57967750  1
  Ti  Ti3_2  1  0.25000000  0.75000000  0.07967750  1
  Ti  Ti3_3  1  0.25000000  0.75000000  0.57967750  1
  Ti  Ti3_4  1  0.75000000  0.25000000  0.07967750  1
  Ti  Ti3_5  1  0.75000000  0.25000000  0.57967750  1
  Ti  Ti3_6  1  0.75000000  0.75000000  0.07967750  1
  Ti  Ti3_7  1  0.75000000  0.75000000  0.57967750  1
  H  H0_0  1  0.25000000  0.25000000  0.15972200  1
  H  H0_1  1  0.25000000  0.25000000  0.65972200  1
  H  H0_2  1  0.25000000  0.75000000  0.15972200  1
  H  H0_3  1  0.25000000  0.75000000  0.65972200  1
  H  H0_4  1  0.75000000  0.25000000  0.15972200  1
  H  H0_5  1  0.75000000  0.25000000  0.65972200  1
  H  H0_6  1  0.75000000  0.75000000  0.15972200  1
  H  H0_7  1  0.75000000  0.75000000  0.65972200  1
  H  H1_0  1  0.25000000  0.25000000  0.34027800  1
  H  H1_1  1  0.25000000  0.25000000  0.84027800  1
  H  H1_2  1  0.25000000  0.75000000  0.34027800  1
  H  H1_3  1  0.25000000  0.75000000  0.84027800  1
  H  H1_4  1  0.75000000  0.25000000  0.34027800  1
  H  H1_5  1  0.75000000  0.25000000  0.84027800  1
  H  H1_6  1  0.75000000  0.75000000  0.34027800  1
  H  H1_7  1  0.75000000  0.75000000  0.84027800  1
  Pd  Pd0_0  1  0.00000000  0.00000000  0.00000000  1
  Pd  Pd0_1  1  0.00000000  0.00000000  0.50000000  1
  Pd  Pd0_2  1  0.00000000  0.50000000  0.00000000  1
  Pd  Pd0_3  1  0.00000000  0.50000000  0.50000000  1
  Pd  Pd0_4  1  0.50000000  0.00000000  0.00000000  1
  Pd  Pd0_5  1  0.50000000  0.00000000  0.50000000  1
  Pd  Pd0_6  1  0.50000000  0.50000000  0.00000000  1
  Pd  Pd0_7  1  0.50000000  0.50000000  0.50000000  1
  Pd  Pd1_0  1  0.25000000  0.25000000  0.25000000  1
  Pd  Pd1_1  1  0.25000000  0.25000000  0.75000000  1
  Pd  Pd1_2  1  0.25000000  0.75000000  0.25000000  1
  Pd  Pd1_3  1  0.25000000  0.75000000  0.75000000  1
  Pd  Pd1_4  1  0.75000000  0.25000000  0.25000000  1
  Pd  Pd1_5  1  0.75000000  0.25000000  0.75000000  1
  Pd  Pd1_6  1  0.75000000  0.75000000  0.25000000  1
  Pd  Pd1_7  1  0.75000000  0.75000000  0.75000000  1
loop_
_geom_bond_atom_site_label_1
_geom_bond_atom_site_label_2
_geom_bond_distance
_geom_bond_site_symmetry_2
H0_0 Ti3_0 1.910554 1_555
H0_0 Ti0_6 2.052866 1_555
H0_0 Ti0_0 2.052866 1_555
H0_0 Ti0_4 2.052866 1_555
H0_0 Ti0_2 2.052866 1_555
H0_0 Pd1_0 2.154814 1_555
H0_1 Ti3_1 1.910554 1_555
H0_1 Ti0_3 2.052866 1_555
H0_1 Ti0_7 2.052866 1_555
H0_1 Ti0_1 2.052866 1_555
H0_1 Ti0_5 2.052866 1_555
H0_1 Pd1_1 2.154814 1_555
H0_2 Ti3_2 1.910554 1_555
H0_2 Ti0_6 2.052866 1_555
H0_2 Ti0_0 2.052866 1_565
H0_2 Ti0_2 2.052866 1_555
H0_2 Ti0_4 2.052866 1_565
H0_2 Pd1_2 2.154814 1_555
H0_3 Ti3_3 1.910554 1_555
H0_3 Ti0_3 2.052866 1_555
H0_3 Ti0_7 2.052866 1_555
H0_3 Ti0_1 2.052866 1_565
H0_3 Ti0_5 2.052866 1_565
H0_3 Pd1_3 2.154814 1_555
H0_4 Ti3_4 1.910554 1_555
H0_4 Ti0_6 2.052866 1_555
H0_4 Ti0_2 2.052866 1_655
H0_4 Ti0_4 2.052866 1_555
H0_4 Ti0_0 2.052866 1_655
H0_4 Pd1_4 2.154814 1_555
H0_5 Ti3_5 1.910554 1_555
H0_5 Ti0_7 2.052866 1_555
H0_5 Ti0_3 2.052866 1_655
H0_5 Ti0_5 2.052866 1_555
H0_5 Ti0_1 2.052866 1_655
H0_5 Pd1_5 2.154814 1_555
H0_6 Ti3_6 1.910554 1_555
H0_6 Ti0_6 2.052866 1_555
H0_6 Ti0_2 2.052866 1_655
H0_6 Ti0_0 2.052866 1_665
H0_6 Ti0_4 2.052866 1_565
H0_6 Pd1_6 2.154814 1_555
H0_7 Ti3_7 1.910554 1_555
H0_7 Ti0_7 2.052866 1_555
H0_7 Ti0_3 2.052866 1_655
H0_7 Ti0_1 2.052866 1_665
H0_7 Ti0_5 2.052866 1_565
H0_7 Pd1_7 2.154814 1_555
H1_0 Ti2_0 1.910554 1_555
H1_0 Ti1_2 2.052866 1_555
H1_0 Ti1_6 2.052866 1_555
H1_0 Ti1_0 2.052866 1_555
H1_0 Ti1_4 2.052866 1_555
H1_0 Pd1_0 2.154814 1_555
H1_1 Ti2_1 1.910554 1_555
H1_1 Ti1_1 2.052866 1_555
H1_1 Ti1_5 2.052866 1_555
H1_1 Ti1_3 2.052866 1_555
H1_1 Ti1_7 2.052866 1_555
H1_1 Pd1_1 2.154814 1_555
H1_2 Ti2_2 1.910554 1_555
H1_2 Ti1_2 2.052866 1_555
H1_2 Ti1_6 2.052866 1_555
H1_2 Ti1_0 2.052866 1_565
H1_2 Ti1_4 2.052866 1_565
H1_2 Pd1_2 2.154814 1_555
H1_3 Ti2_3 1.910554 1_555
H1_3 Ti1_1 2.052866 1_565
H1_3 Ti1_5 2.052866 1_565
H1_3 Ti1_3 2.052866 1_555
H1_3 Ti1_7 2.052866 1_555
H1_3 Pd1_3 2.154814 1_555
H1_4 Ti2_4 1.910554 1_555
H1_4 Ti1_6 2.052866 1_555
H1_4 Ti1_2 2.052866 1_655
H1_4 Ti1_4 2.052866 1_555
H1_4 Ti1_0 2.052866 1_655
H1_4 Pd1_4 2.154814 1_555
H1_5 Ti2_5 1.910554 1_555
H1_5 Ti1_3 2.052866 1_655
H1_5 Ti1_5 2.052866 1_555
H1_5 Ti1_1 2.052866 1_655
H1_5 Ti1_7 2.052866 1_555
H1_5 Pd1_5 2.154814 1_555
H1_6 Ti2_6 1.910554 1_555
H1_6 Ti1_0 2.052866 1_665
H1_6 Ti1_6 2.052866 1_555
H1_6 Ti1_2 2.052866 1_655
H1_6 Ti1_4 2.052866 1_565
H1_6 Pd1_6 2.154814 1_555
H1_7 Ti2_7 1.910554 1_555
H1_7 Ti1_3 2.052866 1_655
H1_7 Ti1_5 2.052866 1_565
H1_7 Ti1_1 2.052866 1_665
H1_7 Ti1_7 2.052866 1_555
H1_7 Pd1_7 2.154814 1_555
Pd0_0 Ti3_4 2.794218 1_455
Pd0_0 Ti3_2 2.794218 1_545
Pd0_0 Ti3_6 2.794218 1_445
Pd0_0 Ti3_0 2.794218 1_555
Pd0_0 Ti2_5 2.794218 1_454
Pd0_0 Ti2_1 2.794218 1_554
Pd0_0 Ti2_3 2.794218 1_544
Pd0_0 Ti2_7 2.794218 1_444
Pd0_1 Ti3_7 2.794218 1_445
Pd0_1 Ti3_3 2.794218 1_545
Pd0_1 Ti3_1 2.794218 1_555
Pd0_1 Ti3_5 2.794218 1_455
Pd0_1 Ti2_2 2.794218 1_545
Pd0_1 Ti2_6 2.794218 1_445
Pd0_1 Ti2_4 2.794218 1_455
Pd0_1 Ti2_0 2.794218 1_555
Pd0_2 Ti3_6 2.794218 1_455
Pd0_2 Ti3_4 2.794218 1_455
Pd0_2 Ti3_2 2.794218 1_555
Pd0_2 Ti3_0 2.794218 1_555
Pd0_2 Ti2_3 2.794218 1_554
Pd0_2 Ti2_5 2.794218 1_454
Pd0_2 Ti2_1 2.794218 1_554
Pd0_2 Ti2_7 2.794218 1_454
Pd0_3 Ti3_7 2.794218 1_455
Pd0_3 Ti3_3 2.794218 1_555
Pd0_3 Ti3_1 2.794218 1_555
Pd0_3 Ti3_5 2.794218 1_455
Pd0_3 Ti2_2 2.794218 1_555
Pd0_3 Ti2_6 2.794218 1_455
Pd0_3 Ti2_4 2.794218 1_455
Pd0_3 Ti2_0 2.794218 1_555
Pd0_4 Ti3_4 2.794218 1_555
Pd0_4 Ti3_2 2.794218 1_545
Pd0_4 Ti3_0 2.794218 1_555
Pd0_4 Ti3_6 2.794218 1_545
Pd0_4 Ti2_5 2.794218 1_554
Pd0_4 Ti2_1 2.794218 1_554
Pd0_4 Ti2_3 2.794218 1_544
Pd0_4 Ti2_7 2.794218 1_544
Pd0_5 Ti3_5 2.794218 1_555
Pd0_5 Ti3_3 2.794218 1_545
Pd0_5 Ti3_1 2.794218 1_555
Pd0_5 Ti3_7 2.794218 1_545
Pd0_5 Ti2_2 2.794218 1_545
Pd0_5 Ti2_6 2.794218 1_545
Pd0_5 Ti2_0 2.794218 1_555
Pd0_5 Ti2_4 2.794218 1_555
Pd0_6 Ti3_4 2.794218 1_555
Pd0_6 Ti3_2 2.794218 1_555
Pd0_6 Ti3_6 2.794218 1_555
Pd0_6 Ti3_0 2.794218 1_555
Pd0_6 Ti2_3 2.794218 1_554
Pd0_6 Ti2_7 2.794218 1_554
Pd0_6 Ti2_5 2.794218 1_554
Pd0_6 Ti2_1 2.794218 1_554
Pd0_7 Ti3_5 2.794218 1_555
Pd0_7 Ti3_3 2.794218 1_555
Pd0_7 Ti3_7 2.794218 1_555
Pd0_7 Ti3_1 2.794218 1_555
Pd0_7 Ti2_2 2.794218 1_555
Pd0_7 Ti2_6 2.794218 1_555
Pd0_7 Ti2_0 2.794218 1_555
Pd0_7 Ti2_4 2.794218 1_555
Pd1_0 Ti1_0 2.863199 1_555
Pd1_0 Ti1_2 2.863199 1_555
Pd1_0 Ti0_2 2.863199 1_555
Pd1_0 Ti0_0 2.863199 1_555
Pd1_0 Ti1_4 2.863199 1_555
Pd1_0 Ti0_4 2.863199 1_555
Pd1_0 Ti0_6 2.863199 1_555
Pd1_0 Ti1_6 2.863199 1_555
Pd1_0 Pd1_2 2.895111 1_555
Pd1_0 Pd1_4 2.895111 1_455
Pd1_0 Pd1_2 2.895111 1_545
Pd1_0 Pd1_4 2.895111 1_555
Pd1_1 Ti0_3 2.863199 1_555
Pd1_1 Ti0_7 2.863199 1_555
Pd1_1 Ti0_1 2.863199 1_555
Pd1_1 Ti0_5 2.863199 1_555
Pd1_1 Ti1_1 2.863199 1_555
Pd1_1 Ti1_7 2.863199 1_555
Pd1_1 Ti1_5 2.863199 1_555
Pd1_1 Ti1_3 2.863199 1_555
Pd1_1 Pd1_5 2.895111 1_555
Pd1_1 Pd1_3 2.895111 1_545
Pd1_1 Pd1_3 2.895111 1_555
Pd1_1 Pd1_5 2.895111 1_455
Pd1_2 Ti0_4 2.863199 1_565
Pd1_2 Ti0_2 2.863199 1_555
Pd1_2 Ti0_0 2.863199 1_565
Pd1_2 Ti1_2 2.863199 1_555
Pd1_2 Ti1_0 2.863199 1_565
Pd1_2 Ti1_4 2.863199 1_565
Pd1_2 Ti0_6 2.863199 1_555
Pd1_2 Ti1_6 2.863199 1_555
Pd1_2 Pd1_6 2.895111 1_455
Pd1_2 Pd1_6 2.895111 1_555
Pd1_3 Ti0_3 2.863199 1_555
Pd1_3 Ti0_7 2.863199 1_555
Pd1_3 Ti0_1 2.863199 1_565
Pd1_3 Ti0_5 2.863199 1_565
Pd1_3 Ti1_1 2.863199 1_565
Pd1_3 Ti1_7 2.863199 1_555
Pd1_3 Ti1_3 2.863199 1_555
Pd1_3 Ti1_5 2.863199 1_565
Pd1_3 Pd1_7 2.895111 1_555
Pd1_3 Pd1_7 2.895111 1_455
Pd1_4 Ti1_2 2.863199 1_655
Pd1_4 Ti0_0 2.863199 1_655
Pd1_4 Ti0_2 2.863199 1_655
Pd1_4 Ti1_4 2.863199 1_555
Pd1_4 Ti0_4 2.863199 1_555
Pd1_4 Ti1_0 2.863199 1_655
Pd1_4 Ti0_6 2.863199 1_555
Pd1_4 Ti1_6 2.863199 1_555
Pd1_4 Pd1_6 2.895111 1_545
Pd1_4 Pd1_6 2.895111 1_555
Pd1_5 Ti0_7 2.863199 1_555
Pd1_5 Ti0_3 2.863199 1_655
Pd1_5 Ti0_1 2.863199 1_655
Pd1_5 Ti0_5 2.863199 1_555
Pd1_5 Ti1_7 2.863199 1_555
Pd1_5 Ti1_5 2.863199 1_555
Pd1_5 Ti1_3 2.863199 1_655
Pd1_5 Ti1_1 2.863199 1_655
Pd1_5 Pd1_7 2.895111 1_555
Pd1_5 Pd1_7 2.895111 1_545
Pd1_6 Ti0_4 2.863199 1_565
Pd1_6 Ti0_0 2.863199 1_665
Pd1_6 Ti1_2 2.863199 1_655
Pd1_6 Ti1_4 2.863199 1_565
Pd1_6 Ti1_0 2.863199 1_665
Pd1_6 Ti0_2 2.863199 1_655
Pd1_6 Ti0_6 2.863199 1_555
Pd1_6 Ti1_6 2.863199 1_555
Pd1_7 Ti0_7 2.863199 1_555
Pd1_7 Ti0_3 2.863199 1_655
Pd1_7 Ti0_1 2.863199 1_665
Pd1_7 Ti0_5 2.863199 1_565
Pd1_7 Ti1_1 2.863199 1_665
Pd1_7 Ti1_7 2.863199 1_555
Pd1_7 Ti1_3 2.863199 1_655
Pd1_7 Ti1_5 2.863199 1_565
