# generated using pymatgen
data_CsLi2C
_symmetry_space_group_name_H-M   'P 1'
_cell_length_a   4.75984546
_cell_length_b   4.75984546
_cell_length_c   4.75984546
_cell_angle_alpha   60.00000000
_cell_angle_beta   60.00000000
_cell_angle_gamma   60.00000000
_symmetry_Int_Tables_number   1
_chemical_formula_structural   CsLi2C
_chemical_formula_sum   'Cs1 Li2 C1'
_cell_volume   76.25416308
_cell_formula_units_Z   1
loop_
 _symmetry_equiv_pos_site_id
 _symmetry_equiv_pos_as_xyz
  1  'x, y, z'
loop_
 _atom_site_type_symbol
 _atom_site_label
 _atom_site_symmetry_multiplicity
 _atom_site_fract_x
 _atom_site_fract_y
 _atom_site_fract_z
 _atom_site_occupancy
  Cs  Cs0  1  0.50000000  0.50000000  0.50000000  1
  Li  Li0  1  0.25000000  0.25000000  0.25000000  1
  Li  Li1  1  0.75000000  0.75000000  0.75000000  1
  C  C0  1  0.00000000  0.00000000  0.00000000  1
loop_
_geom_bond_atom_site_label_1
_geom_bond_atom_site_label_2
_geom_bond_distance
_geom_bond_site_symmetry_2
Cs0 Li0 2.914798 1_555
Cs0 Li1 2.914798 1_545
Cs0 Li0 2.914798 1_556
Cs0 Li1 2.914798 1_554
Cs0 Li0 2.914798 1_655
Cs0 Li0 2.914798 1_565
Cs0 Li1 2.914798 1_455
Cs0 Li1 2.914798 1_555
C0 Cs0 3.365719 1_445
C0 Cs0 3.365719 1_544
C0 Cs0 3.365719 1_545
C0 Cs0 3.365719 1_554
C0 Cs0 3.365719 1_455
C0 Cs0 3.365719 1_454
