# generated using pymatgen
data_Nb2Zn2CuO8
_symmetry_space_group_name_H-M   'P 1'
_cell_length_a   10.12561926
_cell_length_b   10.12561926
_cell_length_c   5.23151407
_cell_angle_alpha   88.20539130
_cell_angle_beta   88.20539130
_cell_angle_gamma   34.60492204
_symmetry_Int_Tables_number   1
_chemical_formula_structural   Nb2Zn2CuO8
_chemical_formula_sum   'Nb4 Zn4 Cu2 O16'
_cell_volume   304.45264485
_cell_formula_units_Z   2
loop_
 _symmetry_equiv_pos_site_id
 _symmetry_equiv_pos_as_xyz
  1  'x, y, z'
loop_
 _atom_site_type_symbol
 _atom_site_label
 _atom_site_symmetry_multiplicity
 _atom_site_fract_x
 _atom_site_fract_y
 _atom_site_fract_z
 _atom_site_occupancy
  Nb  Nb0  1  0.04882400  0.72196900  0.73231400  1
  Nb  Nb1  1  0.27803100  0.95117600  0.76768600  1
  Nb  Nb2  1  0.95117600  0.27803100  0.26768600  1
  Nb  Nb3  1  0.72196900  0.04882400  0.23231400  1
  Zn  Zn0  1  0.87531900  0.56642500  0.75551000  1
  Zn  Zn1  1  0.43357500  0.12468100  0.74449000  1
  Zn  Zn2  1  0.12468100  0.43357500  0.24449000  1
  Zn  Zn3  1  0.56642500  0.87531900  0.25551000  1
  Cu  Cu0  1  0.64957200  0.35042800  0.75000000  1
  Cu  Cu1  1  0.35042800  0.64957200  0.25000000  1
  O  O0  1  0.04777300  0.80912400  0.06554100  1
  O  O1  1  0.19087600  0.95222700  0.43445900  1
  O  O2  1  0.95222700  0.19087600  0.93445900  1
  O  O3  1  0.80912400  0.04777300  0.56554100  1
  O  O4  1  0.31360000  0.57544200  0.56493800  1
  O  O5  1  0.42455800  0.68640000  0.93506200  1
  O  O6  1  0.68640000  0.42455800  0.43506200  1
  O  O7  1  0.57544200  0.31360000  0.06493800  1
  O  O8  1  0.92194600  0.71548500  0.43997000  1
  O  O9  1  0.28451500  0.07805400  0.06003000  1
  O  O10  1  0.44989300  0.16352900  0.36419300  1
  O  O11  1  0.83647100  0.55010700  0.13580700  1
  O  O12  1  0.55010700  0.83647100  0.63580700  1
  O  O13  1  0.16352900  0.44989300  0.86419300  1
  O  O14  1  0.71548500  0.92194600  0.93997000  1
  O  O15  1  0.07805400  0.28451500  0.56003000  1
loop_
_geom_bond_atom_site_label_1
_geom_bond_atom_site_label_2
_geom_bond_distance
_geom_bond_site_symmetry_2
Nb0 O4 1.882054 1_555
Nb0 O0 1.974255 1_556
Nb0 O13 2.019521 1_555
Nb0 O8 2.064482 1_455
Nb0 O3 2.075274 1_465
Nb0 O14 2.308684 1_455
Nb1 O5 1.882054 1_555
Nb1 O1 1.974255 1_555
Nb1 O12 2.019521 1_555
Nb1 O9 2.064482 1_566
Nb1 O2 2.075274 1_465
Nb1 O15 2.308684 1_565
Nb2 O6 1.882054 1_555
Nb2 O2 1.974255 1_554
Nb2 O11 2.019521 1_555
Nb2 O15 2.064482 1_655
Nb2 O1 2.075274 1_645
Nb2 O9 2.308684 1_655
Nb3 O7 1.882054 1_555
Nb3 O3 1.974255 1_555
Nb3 O10 2.019521 1_555
Nb3 O14 2.064482 1_544
Nb3 O0 2.075274 1_645
Nb3 O8 2.308684 1_545
Cu0 O7 1.939564 1_556
Cu0 O6 1.939564 1_555
Cu0 O3 2.206856 1_555
Cu0 O2 2.206856 1_555
Cu0 O4 2.238354 1_555
Cu0 O5 2.238354 1_555
Cu1 O4 1.939564 1_555
Cu1 O5 1.939564 1_554
Cu1 O0 2.206856 1_555
Cu1 O1 2.206856 1_555
Cu1 O7 2.238354 1_555
Cu1 O6 2.238354 1_555
O8 Zn2 1.952750 1_655
O8 Zn0 2.488802 1_555
O9 Zn3 1.952750 1_545
O9 Zn1 2.488802 1_554
O10 Zn2 1.977883 1_555
O10 Zn1 2.043929 1_555
O10 Zn3 2.150679 1_545
O11 Zn3 1.977883 1_555
O11 Zn0 2.043929 1_554
O11 Zn2 2.150679 1_655
O12 Zn0 1.977883 1_555
O12 Zn3 2.043929 1_555
O12 Zn1 2.150679 1_565
O13 Zn1 1.977883 1_555
O13 Zn2 2.043929 1_556
O13 Zn0 2.150679 1_455
O14 Zn1 1.952750 1_565
O14 Zn3 2.488802 1_556
O15 Zn0 1.952750 1_455
O15 Zn2 2.488802 1_555
