# generated using pymatgen
data_LiSm3Bi(Ru2O7)2
_symmetry_space_group_name_H-M   'P 1'
_cell_length_a   7.38723131
_cell_length_b   7.40000188
_cell_length_c   7.40519628
_cell_angle_alpha   89.99427139
_cell_angle_beta   60.07057833
_cell_angle_gamma   120.05227755
_symmetry_Int_Tables_number   1
_chemical_formula_structural   LiSm3Bi(Ru2O7)2
_chemical_formula_sum   'Li1 Sm3 Bi1 Ru4 O14'
_cell_volume   286.30768250
_cell_formula_units_Z   1
loop_
 _symmetry_equiv_pos_site_id
 _symmetry_equiv_pos_as_xyz
  1  'x, y, z'
loop_
 _atom_site_type_symbol
 _atom_site_label
 _atom_site_symmetry_multiplicity
 _atom_site_fract_x
 _atom_site_fract_y
 _atom_site_fract_z
 _atom_site_occupancy
  Li  Li0  1  0.27509100  0.63790300  0.63800700  1
  Sm  Sm0  1  0.24817100  0.36790800  0.35298600  1
  Sm  Sm1  1  0.24810700  0.88061800  0.35245800  1
  Sm  Sm2  1  0.73785500  0.36865200  0.38571400  1
  Bi  Bi0  1  0.72626300  0.36378400  0.87856300  1
  Ru  Ru0  1  0.75778500  0.87912400  0.36470500  1
  Ru  Ru1  1  0.24314300  0.87637000  0.87930900  1
  Ru  Ru2  1  0.24308400  0.36716600  0.87928100  1
  Ru  Ru3  1  0.75561500  0.87807100  0.87443500  1
  O  O0  1  0.50147300  0.25086800  0.25314300  1
  O  O1  1  0.01396700  0.50721600  0.49977700  1
  O  O2  1  0.92325700  0.96187200  0.53540400  1
  O  O3  1  0.49033300  0.53829900  0.53845000  1
  O  O4  1  0.49058000  0.95276200  0.53842400  1
  O  O5  1  0.09921600  0.54978000  0.94881200  1
  O  O6  1  0.50165900  0.96262700  0.95526400  1
  O  O7  1  0.50153500  0.53922000  0.95559400  1
  O  O8  1  0.58648300  0.79348100  0.20454300  1
  O  O9  1  0.99626800  0.20902500  0.20924200  1
  O  O10  1  0.99600800  0.78757700  0.20917800  1
  O  O11  1  0.41535100  0.20797400  0.79283800  1
  O  O12  1  0.99476400  0.79859600  0.80742200  1
  O  O13  1  0.99506200  0.19610900  0.80756200  1
loop_
_geom_bond_atom_site_label_1
_geom_bond_atom_site_label_2
_geom_bond_distance
_geom_bond_site_symmetry_2
Li0 O5 1.891484 1_555
Li0 O3 1.902425 1_555
Li0 O4 1.902623 1_555
Li0 O1 2.409589 1_555
Li0 O8 2.626604 1_555
Bi0 O0 2.272300 1_556
Bi0 O1 2.302772 1_655
Bi0 O11 2.410450 1_555
Bi0 O7 2.445522 1_555
Bi0 O6 2.452339 1_545
Bi0 O12 2.670123 1_555
Bi0 O13 2.680483 1_555
Bi0 O5 2.718055 1_655
O0 Sm2 2.226900 1_555
O0 Sm1 2.245136 1_545
O0 Sm0 2.245208 1_555
O1 Sm1 2.268607 1_555
O1 Sm0 2.268824 1_555
O1 Sm2 2.355805 1_455
O2 Ru0 2.063818 1_555
O2 Ru3 2.085493 1_555
O2 Sm0 2.480804 1_665
O2 Sm1 2.481309 1_655
O3 Ru0 2.095663 1_555
O3 Ru2 2.095844 1_555
O3 Sm2 2.536605 1_555
O3 Sm0 2.620889 1_555
O4 Ru0 2.095646 1_555
O4 Ru1 2.096038 1_555
O4 Sm2 2.528732 1_565
O4 Sm1 2.625580 1_555
O5 Ru2 2.028128 1_555
O5 Ru1 2.028837 1_555
O5 Sm2 2.680912 1_456
O6 Ru1 2.054710 1_555
O6 Ru3 2.079558 1_555
O6 Sm1 2.427253 1_556
O7 Ru2 2.056130 1_555
O7 Ru3 2.081313 1_555
O7 Sm0 2.428323 1_556
O8 Ru3 2.024153 1_554
O8 Ru0 2.025890 1_555
O8 Sm1 2.597351 1_555
O8 Sm0 2.597493 1_555
O9 Ru0 2.014144 1_545
O9 Ru2 2.020145 1_654
O9 Sm0 2.400774 1_655
O9 Sm2 2.552780 1_555
O10 Ru0 2.013467 1_555
O10 Ru1 2.019867 1_654
O10 Sm1 2.399092 1_655
O10 Sm2 2.558573 1_555
O11 Ru2 2.026257 1_555
O11 Ru1 2.027333 1_545
O11 Sm2 2.484693 1_555
O12 Ru3 1.969533 1_555
O12 Ru1 1.974408 1_655
O12 Sm1 2.791378 1_655
O13 Ru3 1.967001 1_545
O13 Ru2 1.972190 1_655
O13 Sm0 2.789522 1_655
