# generated using pymatgen
data_VSiO4
_symmetry_space_group_name_H-M   'P 1'
_cell_length_a   9.70920652
_cell_length_b   9.70920652
_cell_length_c   9.70920652
_cell_angle_alpha   109.47122063
_cell_angle_beta   109.47122063
_cell_angle_gamma   109.47122063
_symmetry_Int_Tables_number   1
_chemical_formula_structural   VSiO4
_chemical_formula_sum   'V12 Si12 O48'
_cell_volume   704.57840206
_cell_formula_units_Z   12
loop_
 _symmetry_equiv_pos_site_id
 _symmetry_equiv_pos_as_xyz
  1  'x, y, z'
loop_
 _atom_site_type_symbol
 _atom_site_label
 _atom_site_symmetry_multiplicity
 _atom_site_fract_x
 _atom_site_fract_y
 _atom_site_fract_z
 _atom_site_occupancy
  V  V0  1  0.87500000  0.62500000  0.25000000  1
  V  V1  1  0.62500000  0.25000000  0.87500000  1
  V  V2  1  0.87500000  0.75000000  0.62500000  1
  V  V3  1  0.75000000  0.62500000  0.87500000  1
  V  V4  1  0.25000000  0.87500000  0.62500000  1
  V  V5  1  0.62500000  0.87500000  0.75000000  1
  V  V6  1  0.12500000  0.37500000  0.75000000  1
  V  V7  1  0.37500000  0.75000000  0.12500000  1
  V  V8  1  0.12500000  0.25000000  0.37500000  1
  V  V9  1  0.25000000  0.37500000  0.12500000  1
  V  V10  1  0.75000000  0.12500000  0.37500000  1
  V  V11  1  0.37500000  0.12500000  0.25000000  1
  Si  Si0  1  0.12500000  0.87500000  0.25000000  1
  Si  Si1  1  0.25000000  0.12500000  0.87500000  1
  Si  Si2  1  0.75000000  0.37500000  0.62500000  1
  Si  Si3  1  0.62500000  0.37500000  0.25000000  1
  Si  Si4  1  0.62500000  0.75000000  0.37500000  1
  Si  Si5  1  0.37500000  0.62500000  0.75000000  1
  Si  Si6  1  0.12500000  0.75000000  0.87500000  1
  Si  Si7  1  0.75000000  0.87500000  0.12500000  1
  Si  Si8  1  0.87500000  0.25000000  0.12500000  1
  Si  Si9  1  0.37500000  0.25000000  0.62500000  1
  Si  Si10  1  0.25000000  0.62500000  0.37500000  1
  Si  Si11  1  0.87500000  0.12500000  0.75000000  1
  O  O0  1  0.46422500  0.36970000  0.27393700  1
  O  O1  1  0.30971200  0.90547400  0.03577500  1
  O  O2  1  0.59452600  0.90423800  0.13030000  1
  O  O3  1  0.59576200  0.19028800  0.22606300  1
  O  O4  1  0.13030000  0.03577500  0.22606300  1
  O  O5  1  0.19028800  0.22606300  0.59576200  1
  O  O6  1  0.19028800  0.46422500  0.59452600  1
  O  O7  1  0.22606300  0.59576200  0.19028800  1
  O  O8  1  0.36970000  0.59576200  0.90547400  1
  O  O9  1  0.90423800  0.27393700  0.30971200  1
  O  O10  1  0.27393700  0.30971200  0.90423800  1
  O  O11  1  0.22606300  0.13030000  0.03577500  1
  O  O12  1  0.46422500  0.59452600  0.19028800  1
  O  O13  1  0.90547400  0.36970000  0.59576200  1
  O  O14  1  0.03577500  0.22606300  0.13030000  1
  O  O15  1  0.59452600  0.19028800  0.46422500  1
  O  O16  1  0.59576200  0.90547400  0.36970000  1
  O  O17  1  0.03577500  0.30971200  0.90547400  1
  O  O18  1  0.90423800  0.13030000  0.59452600  1
  O  O19  1  0.63030000  0.40423800  0.09452600  1
  O  O20  1  0.36970000  0.27393700  0.46422500  1
  O  O21  1  0.27393700  0.46422500  0.36970000  1
  O  O22  1  0.90547400  0.03577500  0.30971200  1
  O  O23  1  0.30971200  0.90423800  0.27393700  1
  O  O24  1  0.53577500  0.63030000  0.72606300  1
  O  O25  1  0.69028800  0.09452600  0.96422500  1
  O  O26  1  0.40547400  0.09576200  0.86970000  1
  O  O27  1  0.40423800  0.80971200  0.77393700  1
  O  O28  1  0.86970000  0.96422500  0.77393700  1
  O  O29  1  0.80971200  0.77393700  0.40423800  1
  O  O30  1  0.80971200  0.53577500  0.40547400  1
  O  O31  1  0.77393700  0.40423800  0.80971200  1
  O  O32  1  0.69028800  0.09576200  0.72606300  1
  O  O33  1  0.09452600  0.96422500  0.69028800  1
  O  O34  1  0.72606300  0.53577500  0.63030000  1
  O  O35  1  0.63030000  0.72606300  0.53577500  1
  O  O36  1  0.86970000  0.40547400  0.09576200  1
  O  O37  1  0.09576200  0.86970000  0.40547400  1
  O  O38  1  0.96422500  0.69028800  0.09452600  1
  O  O39  1  0.40423800  0.09452600  0.63030000  1
  O  O40  1  0.40547400  0.80971200  0.53577500  1
  O  O41  1  0.96422500  0.77393700  0.86970000  1
  O  O42  1  0.09452600  0.63030000  0.40423800  1
  O  O43  1  0.53577500  0.40547400  0.80971200  1
  O  O44  1  0.77393700  0.86970000  0.96422500  1
  O  O45  1  0.72606300  0.69028800  0.09576200  1
  O  O46  1  0.09576200  0.72606300  0.69028800  1
  O  O47  1  0.13030000  0.59452600  0.90423800  1
loop_
_geom_bond_atom_site_label_1
_geom_bond_atom_site_label_2
_geom_bond_distance
_geom_bond_site_symmetry_2
O0 Si3 1.640018 1_555
O0 V9 2.129731 1_555
O0 V11 2.138844 1_555
O1 Si6 1.640015 1_554
O1 V11 2.129736 1_565
O1 V7 2.138835 1_555
O2 Si7 1.640013 1_555
O2 V7 2.129742 1_555
O2 V10 2.138840 1_565
O3 Si3 1.640015 1_555
O3 V10 2.129736 1_555
O3 V11 2.138835 1_555
O4 Si0 1.640018 1_545
O4 V8 2.129731 1_555
O4 V11 2.138844 1_555
O5 Si9 1.640015 1_555
O5 V6 2.129736 1_555
O5 V8 2.138835 1_555
O6 Si5 1.640015 1_555
O6 V8 2.129736 1_555
O6 V6 2.138835 1_555
O7 Si10 1.640015 1_555
O7 V7 2.129736 1_555
O7 V9 2.138835 1_555
O8 Si5 1.640013 1_555
O8 V7 2.129742 1_556
O8 V6 2.138840 1_555
O9 Si8 1.640015 1_555
O9 V10 2.129736 1_555
O9 V8 2.138835 1_655
O10 Si1 1.640015 1_555
O10 V6 2.129736 1_555
O10 V9 2.138835 1_556
O11 Si1 1.640018 1_554
O11 V11 2.129731 1_555
O11 V9 2.138844 1_555
O12 Si4 1.640015 1_555
O12 V9 2.129736 1_555
O12 V7 2.138835 1_555
O13 Si2 1.640013 1_555
O13 V6 2.129742 1_655
O13 V10 2.138840 1_555
O14 Si8 1.640018 1_455
O14 V9 2.129731 1_555
O14 V8 2.138844 1_555
O15 Si2 1.640015 1_555
O15 V11 2.129736 1_555
O15 V10 2.138835 1_555
O16 Si4 1.640013 1_555
O16 V10 2.129742 1_565
O16 V7 2.138840 1_555
O17 Si11 1.640015 1_455
O17 V9 2.129736 1_556
O17 V6 2.138835 1_555
O18 Si11 1.640013 1_555
O18 V10 2.129742 1_555
O18 V6 2.138840 1_655
O19 Si3 1.640013 1_555
O19 V1 2.129742 1_554
O19 V0 2.138840 1_555
O20 Si9 1.640018 1_555
O20 V11 2.129731 1_555
O20 V8 2.138844 1_555
O21 Si10 1.640018 1_555
O21 V8 2.129731 1_555
O21 V9 2.138844 1_555
O22 Si7 1.640015 1_545
O22 V8 2.129736 1_655
O22 V10 2.138835 1_555
O23 Si0 1.640015 1_555
O23 V7 2.129736 1_555
O23 V11 2.138835 1_565
O24 Si5 1.640018 1_555
O24 V3 2.129731 1_555
O24 V5 2.138844 1_555
O25 Si8 1.640015 1_556
O25 V5 2.129736 1_545
O25 V1 2.138835 1_555
O26 Si1 1.640013 1_555
O26 V1 2.129742 1_555
O26 V4 2.138840 1_545
O27 Si5 1.640015 1_555
O27 V4 2.129736 1_555
O27 V5 2.138835 1_555
O28 Si11 1.640018 1_565
O28 V2 2.129731 1_555
O28 V5 2.138844 1_555
O29 Si4 1.640015 1_555
O29 V0 2.129736 1_555
O29 V2 2.138835 1_555
O30 Si3 1.640015 1_555
O30 V2 2.129736 1_555
O30 V0 2.138835 1_555
O31 Si2 1.640015 1_555
O31 V1 2.129736 1_555
O31 V3 2.138835 1_555
O32 Si11 1.640015 1_555
O32 V1 2.129736 1_555
O32 V5 2.138835 1_545
O33 Si1 1.640015 1_565
O33 V2 2.129736 1_455
O33 V4 2.138835 1_555
O34 Si2 1.640018 1_555
O34 V2 2.129731 1_555
O34 V3 2.138844 1_555
O35 Si4 1.640018 1_555
O35 V5 2.129731 1_555
O35 V2 2.138844 1_555
O36 Si8 1.640013 1_555
O36 V0 2.129742 1_555
O36 V1 2.138840 1_554
O37 Si0 1.640013 1_555
O37 V4 2.129742 1_555
O37 V0 2.138840 1_455
O38 Si0 1.640015 1_655
O38 V3 2.129736 1_554
O38 V0 2.138835 1_555
O39 Si9 1.640013 1_555
O39 V4 2.129742 1_545
O39 V1 2.138840 1_555
O40 Si10 1.640015 1_555
O40 V5 2.129736 1_555
O40 V4 2.138835 1_555
O41 Si6 1.640018 1_655
O41 V3 2.129731 1_555
O41 V2 2.138844 1_555
O42 Si10 1.640013 1_555
O42 V0 2.129742 1_455
O42 V4 2.138840 1_555
O43 Si9 1.640015 1_555
O43 V3 2.129736 1_555
O43 V1 2.138835 1_555
O44 Si7 1.640018 1_556
O44 V5 2.129731 1_555
O44 V3 2.138844 1_555
O45 Si7 1.640015 1_555
O45 V0 2.129736 1_555
O45 V3 2.138835 1_554
O46 Si6 1.640015 1_555
O46 V4 2.129736 1_555
O46 V2 2.138835 1_455
O47 Si6 1.640013 1_555
O47 V6 2.129742 1_555
O47 V7 2.138840 1_556
