# generated using pymatgen
data_Sr3CoN3
_symmetry_space_group_name_H-M   'P 1'
_cell_length_a   7.59178729
_cell_length_b   7.59313962
_cell_length_c   5.27765400
_cell_angle_alpha   90.00000000
_cell_angle_beta   90.00000000
_cell_angle_gamma   120.02562364
_symmetry_Int_Tables_number   1
_chemical_formula_structural   Sr3CoN3
_chemical_formula_sum   'Sr6 Co2 N6'
_cell_volume   263.40545809
_cell_formula_units_Z   2
loop_
 _symmetry_equiv_pos_site_id
 _symmetry_equiv_pos_as_xyz
  1  'x, y, z'
loop_
 _atom_site_type_symbol
 _atom_site_label
 _atom_site_symmetry_multiplicity
 _atom_site_fract_x
 _atom_site_fract_y
 _atom_site_fract_z
 _atom_site_occupancy
  Sr  Sr0  1  0.91627400  0.63801200  0.25000000  1
  Sr  Sr1  1  0.72190600  0.08385300  0.25000000  1
  Sr  Sr2  1  0.36189700  0.27828400  0.25000000  1
  Sr  Sr3  1  0.08372600  0.36198800  0.75000000  1
  Sr  Sr4  1  0.27809400  0.91614700  0.75000000  1
  Sr  Sr5  1  0.63810300  0.72171600  0.75000000  1
  Co  Co0  1  0.66668500  0.33335200  0.75000000  1
  Co  Co1  1  0.33331500  0.66664800  0.25000000  1
  N  N0  1  0.88568600  0.57675000  0.75000000  1
  N  N1  1  0.69105900  0.11418600  0.75000000  1
  N  N2  1  0.42323400  0.30906600  0.75000000  1
  N  N3  1  0.11431400  0.42325000  0.25000000  1
  N  N4  1  0.30894100  0.88581400  0.25000000  1
  N  N5  1  0.57676600  0.69093400  0.25000000  1
loop_
_geom_bond_atom_site_label_1
_geom_bond_atom_site_label_2
_geom_bond_distance
_geom_bond_site_symmetry_2
Co0 N0 1.762046 1_555
Co0 N2 1.763197 1_555
Co0 N1 1.764041 1_555
Co1 N3 1.762046 1_555
Co1 N5 1.763197 1_555
Co1 N4 1.764041 1_555
N0 Sr5 2.610574 1_555
N0 Sr0 2.669384 1_556
N0 Sr0 2.669384 1_555
N0 Sr3 2.715388 1_655
N0 Sr4 2.798749 1_655
N1 Sr3 2.610280 1_655
N1 Sr1 2.669322 1_555
N1 Sr1 2.669322 1_556
N1 Sr4 2.715191 1_545
N1 Sr5 2.800623 1_545
N2 Sr4 2.612539 1_545
N2 Sr2 2.669448 1_556
N2 Sr2 2.669448 1_555
N2 Sr5 2.713564 1_555
N2 Sr3 2.800248 1_555
N3 Sr2 2.610574 1_555
N3 Sr3 2.669384 1_555
N3 Sr3 2.669384 1_554
N3 Sr0 2.715388 1_455
N3 Sr1 2.798749 1_455
N4 Sr0 2.610280 1_455
N4 Sr4 2.669322 1_555
N4 Sr4 2.669322 1_554
N4 Sr1 2.715191 1_565
N4 Sr2 2.800623 1_565
N5 Sr1 2.612539 1_565
N5 Sr5 2.669448 1_555
N5 Sr5 2.669448 1_554
N5 Sr2 2.713564 1_555
N5 Sr0 2.800248 1_555
