# generated using pymatgen
data_CoNiGe
_symmetry_space_group_name_H-M   'P 1'
_cell_length_a   3.99411520
_cell_length_b   3.99411520
_cell_length_c   5.08233800
_cell_angle_alpha   90.00000000
_cell_angle_beta   90.00000000
_cell_angle_gamma   119.99998678
_symmetry_Int_Tables_number   1
_chemical_formula_structural   CoNiGe
_chemical_formula_sum   'Co2 Ni2 Ge2'
_cell_volume   70.21589048
_cell_formula_units_Z   2
loop_
 _symmetry_equiv_pos_site_id
 _symmetry_equiv_pos_as_xyz
  1  'x, y, z'
loop_
 _atom_site_type_symbol
 _atom_site_label
 _atom_site_symmetry_multiplicity
 _atom_site_fract_x
 _atom_site_fract_y
 _atom_site_fract_z
 _atom_site_occupancy
  Co  Co0  1  0.00000000  0.00000000  0.50000000  1
  Co  Co1  1  0.00000000  0.00000000  0.00000000  1
  Ni  Ni0  1  0.33333300  0.66666700  0.75000000  1
  Ni  Ni1  1  0.66666700  0.33333300  0.25000000  1
  Ge  Ge0  1  0.33333300  0.66666700  0.25000000  1
  Ge  Ge1  1  0.66666700  0.33333300  0.75000000  1
loop_
_geom_bond_atom_site_label_1
_geom_bond_atom_site_label_2
_geom_bond_distance
_geom_bond_site_symmetry_2
Co0 Co1 2.541169 1_555
Co0 Co1 2.541169 1_556
Co0 Ni1 2.632874 1_455
Co0 Ge1 2.632874 1_455
Co0 Ni0 2.632874 1_545
Co0 Ge0 2.632874 1_545
Co0 Ge0 2.632877 1_555
Co0 Ge1 2.632877 1_445
Co0 Ni0 2.632877 1_555
Co0 Ni0 2.632877 1_445
Co0 Ni1 2.632877 1_555
Co0 Ge0 2.632877 1_445
Co0 Ge1 2.632877 1_555
Co0 Ni1 2.632877 1_445
Co1 Ni1 2.632874 1_455
Co1 Ge1 2.632874 1_454
Co1 Ge0 2.632874 1_545
Co1 Ni0 2.632874 1_544
Co1 Ge0 2.632877 1_555
Co1 Ni0 2.632877 1_554
Co1 Ge1 2.632877 1_444
Co1 Ni0 2.632877 1_444
Co1 Ni1 2.632877 1_555
Co1 Ge0 2.632877 1_445
Co1 Ge1 2.632877 1_554
Co1 Ni1 2.632877 1_445
Ge0 Ni1 2.306001 1_455
Ge0 Ni1 2.306001 1_565
Ge0 Ni1 2.306008 1_555
Ge0 Ni0 2.541169 1_555
Ge0 Ni0 2.541169 1_554
Ge1 Ni0 2.306001 1_545
Ge1 Ni0 2.306001 1_655
Ge1 Ni0 2.306008 1_555
Ge1 Ni1 2.541169 1_555
Ge1 Ni1 2.541169 1_556
