# generated using pymatgen
data_Ga8Sb7Se8Cl29
_symmetry_space_group_name_H-M   'P 1'
_cell_length_a   11.14157300
_cell_length_b   15.97128119
_cell_length_c   19.54873836
_cell_angle_alpha   79.83927614
_cell_angle_beta   83.98391934
_cell_angle_gamma   70.60779611
_symmetry_Int_Tables_number   1
_chemical_formula_structural   Ga8Sb7Se8Cl29
_chemical_formula_sum   'Ga16 Sb14 Se16 Cl58'
_cell_volume   3225.78793272
_cell_formula_units_Z   2
loop_
 _symmetry_equiv_pos_site_id
 _symmetry_equiv_pos_as_xyz
  1  'x, y, z'
loop_
 _atom_site_type_symbol
 _atom_site_label
 _atom_site_symmetry_multiplicity
 _atom_site_fract_x
 _atom_site_fract_y
 _atom_site_fract_z
 _atom_site_occupancy
  Ga  Ga0  1  0.79144600  0.37305000  0.58742700  1
  Ga  Ga1  1  0.20855400  0.62695000  0.41257300  1
  Ga  Ga2  1  0.96052100  0.27216000  0.99796600  1
  Ga  Ga3  1  0.03947900  0.72784000  0.00203400  1
  Ga  Ga4  1  0.63693000  0.60163700  0.90320900  1
  Ga  Ga5  1  0.36307000  0.39836300  0.09679100  1
  Ga  Ga6  1  0.56855700  0.79831900  0.74796300  1
  Ga  Ga7  1  0.43144300  0.20168100  0.25203700  1
  Ga  Ga8  1  0.41674600  0.83324300  0.49650000  1
  Ga  Ga9  1  0.58325400  0.16675700  0.50350000  1
  Ga  Ga10  1  0.77586800  0.83326700  0.49574400  1
  Ga  Ga11  1  0.22413200  0.16673300  0.50425600  1
  Ga  Ga12  1  0.68391400  0.04718900  0.97941900  1
  Ga  Ga13  1  0.31608600  0.95281100  0.02058100  1
  Ga  Ga14  1  0.87304800  0.11199600  0.81136600  1
  Ga  Ga15  1  0.12695200  0.88800400  0.18863400  1
  Sb  Sb0  1  0.22026300  0.48695100  0.73222900  1
  Sb  Sb1  1  0.77973700  0.51304900  0.26777100  1
  Sb  Sb2  1  0.26904000  0.70672600  0.78863200  1
  Sb  Sb3  1  0.73096000  0.29327400  0.21136800  1
  Sb  Sb4  1  0.12709700  0.72250700  0.61165100  1
  Sb  Sb5  1  0.87290300  0.27749300  0.38834900  1
  Sb  Sb6  1  0.93971800  0.70266800  0.79011300  1
  Sb  Sb7  1  0.06028200  0.29733200  0.20988700  1
  Sb  Sb8  1  0.15056300  0.25838900  0.71162100  1
  Sb  Sb9  1  0.84943700  0.74161100  0.28837900  1
  Sb  Sb10  1  0.28579400  0.27407700  0.88201600  1
  Sb  Sb11  1  0.71420600  0.72592300  0.11798400  1
  Sb  Sb12  1  0.49901300  0.25656900  0.71076300  1
  Sb  Sb13  1  0.50098700  0.74343100  0.28923700  1
  Se  Se0  1  0.15597600  0.58050600  0.84515500  1
  Se  Se1  1  0.84402400  0.41949400  0.15484500  1
  Se  Se2  1  0.06022500  0.81841900  0.72124500  1
  Se  Se3  1  0.93977500  0.18158100  0.27875500  1
  Se  Se4  1  0.34548300  0.63162300  0.67529000  1
  Se  Se5  1  0.65451700  0.36837700  0.32471000  1
  Se  Se6  1  0.97858100  0.62596300  0.67690300  1
  Se  Se7  1  0.02141900  0.37403700  0.32309700  1
  Se  Se8  1  0.08501400  0.37729600  0.80542300  1
  Se  Se9  1  0.91498600  0.62270400  0.19457700  1
  Se  Se10  1  0.35797200  0.15662900  0.78814700  1
  Se  Se11  1  0.64202800  0.84337100  0.21185300  1
  Se  Se12  1  0.29987600  0.33815900  0.63286700  1
  Se  Se13  1  0.70012400  0.66184100  0.36713300  1
  Se  Se14  1  0.43027100  0.37119200  0.80670000  1
  Se  Se15  1  0.56972900  0.62880800  0.19330000  1
  Cl  Cl0  1  0.59787700  0.41990000  0.63889200  1
  Cl  Cl1  1  0.40212300  0.58010000  0.36110800  1
  Cl  Cl2  1  0.85895800  0.22826100  0.59297000  1
  Cl  Cl3  1  0.14104200  0.77173900  0.40703000  1
  Cl  Cl4  1  0.77928900  0.43809000  0.47598400  1
  Cl  Cl5  1  0.22071100  0.56191000  0.52401600  1
  Cl  Cl6  1  0.92081400  0.42062500  0.63853700  1
  Cl  Cl7  1  0.07918600  0.57937500  0.36146300  1
  Cl  Cl8  1  0.97218400  0.18830500  0.10327100  1
  Cl  Cl9  1  0.02781600  0.81169500  0.89672900  1
  Cl  Cl10  1  0.07942300  0.18410000  0.92262400  1
  Cl  Cl11  1  0.92057700  0.81590000  0.07737600  1
  Cl  Cl12  1  0.76204900  0.33406500  0.97662500  1
  Cl  Cl13  1  0.23795100  0.66593500  0.02337500  1
  Cl  Cl14  1  0.06225200  0.36871300  0.00009900  1
  Cl  Cl15  1  0.93774800  0.63128700  0.99990100  1
  Cl  Cl16  1  0.62656400  0.58869800  0.01521300  1
  Cl  Cl17  1  0.37343600  0.41130200  0.98478700  1
  Cl  Cl18  1  0.82931500  0.54750200  0.85694200  1
  Cl  Cl19  1  0.17068500  0.45249800  0.14305800  1
  Cl  Cl20  1  0.50465400  0.55298100  0.85894600  1
  Cl  Cl21  1  0.49534600  0.44701900  0.14105400  1
  Cl  Cl22  1  0.57271800  0.75658400  0.86989900  1
  Cl  Cl23  1  0.42728200  0.24341600  0.13010100  1
  Cl  Cl24  1  0.70406000  0.87213100  0.72612600  1
  Cl  Cl25  1  0.29594000  0.12786900  0.27387400  1
  Cl  Cl26  1  0.63125200  0.67414400  0.70567900  1
  Cl  Cl27  1  0.36874800  0.32585600  0.29432100  1
  Cl  Cl28  1  0.37104300  0.87839100  0.73071700  1
  Cl  Cl29  1  0.62895700  0.12160900  0.26928300  1
  Cl  Cl30  1  0.24299600  0.88768800  0.55945600  1
  Cl  Cl31  1  0.75700400  0.11231200  0.44054400  1
  Cl  Cl32  1  0.47073700  0.68910300  0.50457100  1
  Cl  Cl33  1  0.52926300  0.31089700  0.49542900  1
  Cl  Cl34  1  0.41430300  0.90213500  0.38987100  1
  Cl  Cl35  1  0.58569700  0.09786500  0.61012900  1
  Cl  Cl36  1  0.56973600  0.86970400  0.54953900  1
  Cl  Cl37  1  0.43026400  0.13029600  0.45046100  1
  Cl  Cl38  1  0.87566600  0.89164900  0.55458300  1
  Cl  Cl39  1  0.12433400  0.10835100  0.44541700  1
  Cl  Cl40  1  0.85653800  0.68897100  0.50628600  1
  Cl  Cl41  1  0.14346200  0.31102900  0.49371400  1
  Cl  Cl42  1  0.74772300  0.89738900  0.38778600  1
  Cl  Cl43  1  0.25227700  0.10261100  0.61221400  1
  Cl  Cl44  1  0.70005400  0.04726300  0.08831400  1
  Cl  Cl45  1  0.29994600  0.95273700  0.91168600  1
  Cl  Cl46  1  0.65103700  0.93150500  0.95226400  1
  Cl  Cl47  1  0.34896300  0.06849500  0.04773600  1
  Cl  Cl48  1  0.56507300  0.17927700  0.92641200  1
  Cl  Cl49  1  0.43492700  0.82072300  0.07358800  1
  Cl  Cl50  1  0.88393600  0.05083200  0.92935300  1
  Cl  Cl51  1  0.11606400  0.94916800  0.07064700  1
  Cl  Cl52  1  0.06770100  0.05590600  0.77062200  1
  Cl  Cl53  1  0.93229900  0.94409400  0.22937800  1
  Cl  Cl54  1  0.73658200  0.06196500  0.77360100  1
  Cl  Cl55  1  0.26341800  0.93803500  0.22639900  1
  Cl  Cl56  1  0.81187300  0.25774700  0.79572500  1
  Cl  Cl57  1  0.18812700  0.74225300  0.20427500  1
loop_
_geom_bond_atom_site_label_1
_geom_bond_atom_site_label_2
_geom_bond_distance
_geom_bond_site_symmetry_2
Sb0 Se0 2.782195 1_555
Sb0 Se8 2.793138 1_555
Sb0 Se14 2.811404 1_555
Sb0 Se6 3.023738 1_455
Sb0 Se4 3.071160 1_555
Sb0 Se12 3.174058 1_555
Sb1 Se1 2.782195 1_555
Sb1 Se9 2.793138 1_555
Sb1 Se15 2.811404 1_555
Sb1 Se7 3.023738 1_655
Sb1 Se5 3.071160 1_555
Sb1 Se13 3.174058 1_555
Sb2 Se4 2.633852 1_555
Sb2 Se2 2.718014 1_555
Sb2 Se0 2.735017 1_555
Sb3 Se5 2.633852 1_555
Sb3 Se3 2.718014 1_555
Sb3 Se1 2.735017 1_555
Sb4 Se4 2.688299 1_555
Sb4 Se6 2.701973 1_455
Sb4 Se2 2.749004 1_555
Sb5 Se5 2.688299 1_555
Sb5 Se7 2.701973 1_655
Sb5 Se3 2.749004 1_555
Sb6 Se6 2.643789 1_555
Sb6 Se2 2.724719 1_655
Sb6 Se0 2.729637 1_655
Sb7 Se7 2.643789 1_555
Sb7 Se3 2.724719 1_455
Sb7 Se1 2.729637 1_455
Sb8 Se12 2.634276 1_555
Sb8 Se8 2.743966 1_555
Sb8 Se10 2.755403 1_555
Sb9 Se13 2.634276 1_555
Sb9 Se9 2.743966 1_555
Sb9 Se11 2.755403 1_555
Sb10 Se8 2.710360 1_555
Sb10 Se10 2.726905 1_555
Sb10 Se14 2.742287 1_555
Sb11 Se9 2.710360 1_555
Sb11 Se11 2.726905 1_555
Sb11 Se15 2.742287 1_555
Sb12 Se12 2.650976 1_555
Sb12 Se14 2.726617 1_555
Sb12 Se10 2.760612 1_555
Sb13 Se13 2.650976 1_555
Sb13 Se15 2.726617 1_555
Sb13 Se11 2.760612 1_555
Cl0 Ga0 2.227652 1_555
Cl1 Ga1 2.227652 1_555
Cl2 Ga0 2.167630 1_555
Cl3 Ga1 2.167630 1_555
Cl4 Ga0 2.239093 1_555
Cl5 Ga1 2.239093 1_555
Cl6 Ga0 2.224894 1_555
Cl7 Ga1 2.224894 1_555
Cl8 Ga2 2.239658 1_554
Cl9 Ga3 2.239658 1_556
Cl10 Ga2 2.233130 1_455
Cl10 Sb10 3.064501 1_555
Cl11 Ga3 2.233130 1_655
Cl11 Sb11 3.064501 1_555
Cl12 Ga2 2.153457 1_555
Cl13 Ga3 2.153457 1_555
Cl14 Ga2 2.204022 1_454
Cl15 Ga3 2.204022 1_656
Cl16 Ga4 2.157155 1_554
Cl17 Ga5 2.157155 1_556
Cl18 Ga4 2.190641 1_555
Cl19 Ga5 2.190641 1_555
Cl20 Ga4 2.188528 1_555
Cl21 Ga5 2.188528 1_555
Cl22 Ga4 2.326672 1_555
Cl22 Ga6 2.360193 1_555
Cl23 Ga5 2.326672 1_555
Cl23 Ga7 2.360193 1_555
Cl24 Ga6 2.172659 1_555
Cl25 Ga7 2.172659 1_555
Cl26 Ga6 2.154489 1_555
Cl27 Ga7 2.154489 1_555
Cl28 Ga6 2.174024 1_555
Cl29 Ga7 2.174024 1_555
Cl30 Ga8 2.186006 1_555
Cl31 Ga9 2.186006 1_555
Cl32 Ga8 2.158368 1_555
Cl33 Ga9 2.158368 1_555
Cl34 Ga8 2.176965 1_555
Cl35 Ga9 2.176965 1_555
Cl36 Ga10 2.353982 1_555
Cl36 Ga8 2.358451 1_555
Cl37 Ga11 2.353982 1_555
Cl37 Ga9 2.358451 1_555
Cl38 Ga10 2.182608 1_555
Cl39 Ga11 2.182608 1_555
Cl40 Ga10 2.158052 1_555
Cl41 Ga11 2.158052 1_555
Cl42 Ga10 2.182661 1_555
Cl43 Ga11 2.182661 1_555
Cl44 Ga12 2.155279 1_554
Cl45 Ga13 2.155279 1_556
Cl46 Ga12 2.160073 1_565
Cl47 Ga13 2.160073 1_545
Cl48 Ga12 2.222341 1_555
Cl48 Sb10 3.114747 1_555
Cl49 Ga13 2.222341 1_555
Cl49 Sb11 3.114747 1_555
Cl50 Ga14 2.339640 1_555
Cl50 Ga12 2.352994 1_555
Cl51 Ga15 2.339640 1_555
Cl51 Ga13 2.352994 1_555
Cl52 Ga14 2.177119 1_455
Cl53 Ga15 2.177119 1_655
Cl54 Ga14 2.178414 1_555
Cl55 Ga15 2.178414 1_555
Cl56 Ga14 2.171586 1_555
Cl57 Ga15 2.171586 1_555
