# generated using pymatgen
data_Ho3MnB7
_symmetry_space_group_name_H-M   'P 1'
_cell_length_a   7.99867581
_cell_length_b   7.99867581
_cell_length_c   9.25931500
_cell_angle_alpha   90.00000000
_cell_angle_beta   90.00000000
_cell_angle_gamma   155.29404986
_symmetry_Int_Tables_number   1
_chemical_formula_structural   Ho3MnB7
_chemical_formula_sum   'Ho6 Mn2 B14'
_cell_volume   247.60034465
_cell_formula_units_Z   2
loop_
 _symmetry_equiv_pos_site_id
 _symmetry_equiv_pos_as_xyz
  1  'x, y, z'
loop_
 _atom_site_type_symbol
 _atom_site_label
 _atom_site_symmetry_multiplicity
 _atom_site_fract_x
 _atom_site_fract_y
 _atom_site_fract_z
 _atom_site_occupancy
  Ho  Ho0  1  0.89579400  0.10420600  0.44062200  1
  Ho  Ho1  1  0.10420600  0.89579400  0.55937800  1
  Ho  Ho2  1  0.89579400  0.10420600  0.05937800  1
  Ho  Ho3  1  0.10420600  0.89579400  0.94062200  1
  Ho  Ho4  1  0.24089500  0.75910500  0.25000000  1
  Ho  Ho5  1  0.75910500  0.24089500  0.75000000  1
  Mn  Mn0  1  0.05342500  0.94657500  0.25000000  1
  Mn  Mn1  1  0.94657500  0.05342500  0.75000000  1
  B  B0  1  0.72721100  0.27278900  0.46742600  1
  B  B1  1  0.27278900  0.72721100  0.53257400  1
  B  B2  1  0.72721100  0.27278900  0.03257400  1
  B  B3  1  0.27278900  0.72721100  0.96742600  1
  B  B4  1  0.63010100  0.36989900  0.15294400  1
  B  B5  1  0.36989900  0.63010100  0.84705600  1
  B  B6  1  0.63010100  0.36989900  0.34705600  1
  B  B7  1  0.36989900  0.63010100  0.65294400  1
  B  B8  1  0.52124300  0.47875700  0.09840200  1
  B  B9  1  0.47875700  0.52124300  0.90159800  1
  B  B10  1  0.52124300  0.47875700  0.40159800  1
  B  B11  1  0.47875700  0.52124300  0.59840200  1
  B  B12  1  0.45886900  0.54113100  0.25000000  1
  B  B13  1  0.54113100  0.45886900  0.75000000  1
loop_
_geom_bond_atom_site_label_1
_geom_bond_atom_site_label_2
_geom_bond_distance
_geom_bond_site_symmetry_2
B0 B6 1.882850 1_555
B0 B1 1.949188 1_545
B0 B1 1.949188 1_655
B0 Ho0 2.646109 1_555
B0 Ho4 2.650834 1_545
B0 Ho4 2.650834 1_655
B0 Ho5 2.663490 1_555
B0 Ho1 2.710702 1_545
B0 Ho1 2.710702 1_655
B1 B7 1.882850 1_555
B1 Ho1 2.646109 1_555
B1 Ho5 2.650834 1_565
B1 Ho5 2.650834 1_455
B1 Ho4 2.663490 1_555
B1 Ho0 2.710702 1_455
B1 Ho0 2.710702 1_565
B2 B4 1.882850 1_555
B2 B3 1.949188 1_544
B2 B3 1.949188 1_654
B2 Ho2 2.646109 1_555
B2 Ho4 2.650834 1_545
B2 Ho4 2.650834 1_655
B2 Ho5 2.663490 1_554
B2 Ho3 2.710702 1_544
B2 Ho3 2.710702 1_654
B3 B5 1.882850 1_555
B3 Ho3 2.646109 1_555
B3 Ho5 2.650834 1_565
B3 Ho5 2.650834 1_455
B3 Ho4 2.663490 1_556
B3 Ho2 2.710702 1_456
B3 Ho2 2.710702 1_566
B4 B8 1.774504 1_555
B4 B6 1.797344 1_555
B4 Mn0 2.274090 1_545
B4 Mn0 2.274090 1_655
B4 Ho4 2.594886 1_545
B4 Ho4 2.594886 1_655
B4 Ho3 2.637592 1_654
B4 Ho3 2.637592 1_544
B5 B9 1.774504 1_555
B5 B7 1.797344 1_555
B5 Mn1 2.274090 1_565
B5 Mn1 2.274090 1_455
B5 Ho5 2.594886 1_455
B5 Ho5 2.594886 1_565
B5 Ho2 2.637592 1_456
B5 Ho2 2.637592 1_566
B6 Mn0 2.274090 1_545
B6 Mn0 2.274090 1_655
B6 Ho4 2.594886 1_545
B6 Ho4 2.594886 1_655
B6 Ho1 2.637592 1_545
B6 Ho1 2.637592 1_655
B7 Mn1 2.274090 1_565
B7 Mn1 2.274090 1_455
B7 Ho5 2.594886 1_455
B7 Ho5 2.594886 1_565
B7 Ho0 2.637592 1_565
B7 Ho0 2.637592 1_455
B8 B9 1.939451 1_554
B8 Mn0 2.269676 1_655
B8 Mn0 2.269676 1_545
B8 Ho3 2.596787 1_544
B8 Ho3 2.596787 1_654
B8 Ho2 2.627137 1_455
B8 Ho2 2.627137 1_565
B9 Mn1 2.269676 1_565
B9 Mn1 2.269676 1_455
B9 Ho2 2.596787 1_456
B9 Ho2 2.596787 1_566
B9 Ho3 2.627137 1_655
B9 Ho3 2.627137 1_545
B10 B12 1.708927 1_555
B10 B6 1.774504 1_555
B10 B11 1.939451 1_555
B10 Mn0 2.269676 1_655
B10 Mn0 2.269676 1_545
B10 Ho1 2.596787 1_545
B10 Ho1 2.596787 1_655
B10 Ho0 2.627137 1_455
B10 Ho0 2.627137 1_565
B11 B13 1.708927 1_555
B11 B7 1.774504 1_555
B11 Mn1 2.269676 1_565
B11 Mn1 2.269676 1_455
B11 Ho0 2.596787 1_565
B11 Ho0 2.596787 1_455
B11 Ho1 2.627137 1_655
B11 Ho1 2.627137 1_545
B12 B8 1.708927 1_555
B12 Mn0 2.260870 1_545
B12 Mn0 2.260870 1_655
B12 Ho2 2.648591 1_565
B12 Ho0 2.648591 1_455
B12 Ho0 2.648591 1_565
B12 Ho2 2.648591 1_455
B13 B9 1.708927 1_555
B13 Mn1 2.260870 1_455
B13 Mn1 2.260870 1_565
B13 Ho3 2.648591 1_545
B13 Ho1 2.648591 1_545
B13 Ho1 2.648591 1_655
B13 Ho3 2.648591 1_655
