# generated using pymatgen
data_Na3U6FeF30
_symmetry_space_group_name_H-M   'P 1'
_cell_length_a   9.88400329
_cell_length_b   9.87847610
_cell_length_c   13.09916992
_cell_angle_alpha   90.00000001
_cell_angle_beta   90.00122027
_cell_angle_gamma   119.98150497
_symmetry_Int_Tables_number   1
_chemical_formula_structural   Na3U6FeF30
_chemical_formula_sum   'Na6 U12 Fe2 F60'
_cell_volume   1107.84282783
_cell_formula_units_Z   2
loop_
 _symmetry_equiv_pos_site_id
 _symmetry_equiv_pos_as_xyz
  1  'x, y, z'
loop_
 _atom_site_type_symbol
 _atom_site_label
 _atom_site_symmetry_multiplicity
 _atom_site_fract_x
 _atom_site_fract_y
 _atom_site_fract_z
 _atom_site_occupancy
  Na  Na0  1  0.33307397  0.66666887  0.83951606  1
  Na  Na1  1  0.33307397  0.66640510  0.33951606  1
  Na  Na2  1  0.66692603  0.33333113  0.16048394  1
  Na  Na3  1  0.66692603  0.33359490  0.66048394  1
  Na  Na4  1  -0.00000000  -0.00000000  -0.00000000  1
  Na  Na5  1  -0.00000000  -0.00000000  0.50000000  1
  U  U0  1  0.92348206  0.60123192  0.89760827  1
  U  U1  1  0.39897104  0.32255489  0.89756052  1
  U  U2  1  0.67777596  0.07633185  0.89760384  1
  U  U3  1  0.92348206  0.32225014  0.39760827  1
  U  U4  1  0.67777596  0.60144411  0.39760384  1
  U  U5  1  0.39897104  0.07641615  0.39756052  1
  U  U6  1  0.07651794  0.39876808  0.10239173  1
  U  U7  1  0.60102896  0.67744511  0.10243948  1
  U  U8  1  0.32222404  0.92366815  0.10239616  1
  U  U9  1  0.07651794  0.67774986  0.60239173  1
  U  U10  1  0.32222404  0.39855589  0.60239616  1
  U  U11  1  0.60102896  0.92358385  0.60243948  1
  Fe  Fe0  1  0.00000000  0.99966783  0.75000000  1
  Fe  Fe1  1  1.00000000  0.00033217  0.25000000  1
  F  F0  1  0.13028119  0.69381452  0.78502591  1
  F  F1  1  0.30599744  0.43659048  0.78505395  1
  F  F2  1  0.56302534  0.86951966  0.78503614  1
  F  F3  1  0.13028119  0.43646667  0.28502591  1
  F  F4  1  0.56302534  0.69350568  0.28503614  1
  F  F5  1  0.30599744  0.86940696  0.28505395  1
  F  F6  1  0.86971881  0.30618548  0.21497409  1
  F  F7  1  0.69400256  0.56340952  0.21494605  1
  F  F8  1  0.43697466  0.13048034  0.21496386  1
  F  F9  1  0.86971881  0.56353333  0.71497409  1
  F  F10  1  0.43697466  0.30649432  0.71496386  1
  F  F11  1  0.69400256  0.13059304  0.71494605  1
  F  F12  1  0.11611458  0.80487343  0.98023169  1
  F  F13  1  0.19517454  0.31134319  0.98032108  1
  F  F14  1  0.68820981  0.88337006  0.98044067  1
  F  F15  1  0.11611458  0.31124115  0.48023169  1
  F  F16  1  0.68820981  0.80483976  0.48044067  1
  F  F17  1  0.19517454  0.88383136  0.48032108  1
  F  F18  1  0.88388542  0.19512657  0.01976831  1
  F  F19  1  0.80482546  0.68865681  0.01967892  1
  F  F20  1  0.31179019  0.11662994  0.01955933  1
  F  F21  1  0.88388542  0.68875885  0.51976831  1
  F  F22  1  0.31179019  0.19516024  0.51955933  1
  F  F23  1  0.80482546  0.11616864  0.51967892  1
  F  F24  1  0.88084354  0.46892825  0.04973313  1
  F  F25  1  0.53133201  0.41203100  0.04978797  1
  F  F26  1  0.58813270  0.11929335  0.04962815  1
  F  F27  1  0.88084354  0.41191529  0.54973313  1
  F  F28  1  0.58813270  0.46883935  0.54962815  1
  F  F29  1  0.53133201  0.11930101  0.54978797  1
  F  F30  1  0.11915646  0.53107175  0.95026687  1
  F  F31  1  0.46866799  0.58796900  0.95021203  1
  F  F32  1  0.41186730  0.88070665  0.95037185  1
  F  F33  1  0.11915646  0.58808471  0.45026687  1
  F  F34  1  0.41186730  0.53116065  0.45037185  1
  F  F35  1  0.46866799  0.88069899  0.45021203  1
  F  F36  1  0.91646966  0.81003719  0.84231676  1
  F  F37  1  0.18950330  0.10668852  0.84196667  1
  F  F38  1  0.89291806  0.08252745  0.84259722  1
  F  F39  1  0.91646966  0.10643247  0.34231676  1
  F  F40  1  0.89291806  0.81039061  0.34259722  1
  F  F41  1  0.18950330  0.08281478  0.34196667  1
  F  F42  1  0.08353034  0.18996281  0.15768324  1
  F  F43  1  0.81049670  0.89331148  0.15803333  1
  F  F44  1  0.10708194  0.91747255  0.15740278  1
  F  F45  1  0.08353034  0.89356753  0.65768324  1
  F  F46  1  0.10708194  0.18960939  0.65740278  1
  F  F47  1  0.81049670  0.91718522  0.65803333  1
  F  F48  1  0.66054254  0.48734836  0.86335728  1
  F  F49  1  0.51274094  0.17325122  0.86327754  1
  F  F50  1  0.82683811  0.33941204  0.86327532  1
  F  F51  1  0.66054254  0.17319418  0.36335728  1
  F  F52  1  0.82683811  0.48742607  0.36327532  1
  F  F53  1  0.51274094  0.33948972  0.36327754  1
  F  F54  1  0.33945746  0.51265164  0.13664272  1
  F  F55  1  0.48725906  0.82674878  0.13672246  1
  F  F56  1  0.17316189  0.66058796  0.13672468  1
  F  F57  1  0.33945746  0.82680582  0.63664272  1
  F  F58  1  0.17316189  0.51257393  0.63672468  1
  F  F59  1  0.48725906  0.66051028  0.63672246  1
loop_
_geom_bond_atom_site_label_1
_geom_bond_atom_site_label_2
_geom_bond_distance
_geom_bond_site_symmetry_2
F0 Na0 2.266309 1_555
F0 U0 2.306734 1_455
F0 U9 2.438565 1_555
F1 Na0 2.266798 1_555
F1 U1 2.306501 1_555
F1 U10 2.439668 1_555
F2 Na0 2.266870 1_555
F2 U2 2.306200 1_565
F2 U11 2.438623 1_555
F3 Na1 2.266309 1_555
F3 U3 2.306734 1_455
F3 U6 2.438565 1_555
F4 Na1 2.266870 1_555
F4 U4 2.306200 1_555
F4 U7 2.438623 1_555
F5 Na1 2.266798 1_555
F5 U5 2.306501 1_565
F5 U8 2.439668 1_555
F6 Na2 2.266309 1_555
F6 U6 2.306734 1_655
F6 U3 2.438565 1_555
F7 Na2 2.266798 1_555
F7 U7 2.306501 1_555
F7 U4 2.439668 1_555
F8 Na2 2.266870 1_555
F8 U8 2.306200 1_545
F8 U5 2.438623 1_555
F9 Na3 2.266309 1_555
F9 U9 2.306734 1_655
F9 U0 2.438565 1_555
F10 Na3 2.266870 1_555
F10 U10 2.306200 1_555
F10 U1 2.438623 1_555
F11 Na3 2.266798 1_555
F11 U11 2.306501 1_545
F11 U2 2.439668 1_555
F12 U0 2.239463 1_455
F12 U8 2.387175 1_556
F12 Na4 2.703824 1_566
F13 U1 2.241017 1_555
F13 U6 2.385491 1_556
F13 Na4 2.705065 1_556
F14 U2 2.240091 1_565
F14 U7 2.383824 1_556
F14 Na4 2.709527 1_666
F15 U3 2.239463 1_455
F15 U10 2.387175 1_555
F15 Na5 2.703823 1_555
F16 U4 2.240091 1_555
F16 U11 2.383824 1_555
F16 Na5 2.709527 1_665
F17 U5 2.241017 1_565
F17 U9 2.385491 1_555
F17 Na5 2.705065 1_565
F18 U6 2.239463 1_655
F18 U2 2.387175 1_554
F18 Na4 2.703824 1_655
F19 U7 2.241017 1_555
F19 U0 2.385491 1_554
F19 Na4 2.705065 1_665
F20 U8 2.240091 1_545
F20 U1 2.383824 1_554
F20 Na4 2.709527 1_555
F21 U9 2.239463 1_655
F21 U4 2.387175 1_555
F21 Na5 2.703823 1_665
F22 U10 2.240091 1_555
F22 U5 2.383824 1_555
F22 Na5 2.709527 1_555
F23 U11 2.241017 1_545
F23 U3 2.385491 1_555
F23 Na5 2.705065 1_655
F24 U0 2.303515 1_554
F24 Na2 2.353501 1_555
F24 U6 2.456893 1_655
F25 U1 2.305043 1_554
F25 Na2 2.354657 1_555
F25 U7 2.453434 1_555
F26 U2 2.303628 1_554
F26 Na2 2.353706 1_555
F26 U8 2.458416 1_545
F27 U3 2.303515 1_555
F27 Na3 2.353501 1_555
F27 U9 2.456893 1_655
F28 U4 2.303628 1_555
F28 Na3 2.353706 1_555
F28 U10 2.458416 1_555
F29 U5 2.305043 1_555
F29 Na3 2.354657 1_555
F29 U11 2.453434 1_545
F30 U6 2.303515 1_556
F30 Na0 2.353501 1_555
F30 U0 2.456893 1_455
F31 U7 2.305043 1_556
F31 Na0 2.354657 1_555
F31 U1 2.453434 1_555
F32 U8 2.303628 1_556
F32 Na0 2.353706 1_555
F32 U2 2.458416 1_565
F33 U9 2.303515 1_555
F33 Na1 2.353501 1_555
F33 U3 2.456893 1_455
F34 U10 2.303628 1_555
F34 Na1 2.353706 1_555
F34 U4 2.458416 1_555
F35 U11 2.305043 1_555
F35 Na1 2.354657 1_555
F35 U5 2.453434 1_565
F36 Fe0 2.026673 1_655
F36 U0 2.219662 1_555
F36 Na4 2.630764 1_666
F37 Fe0 2.024373 1_545
F37 U1 2.225201 1_555
F37 Na4 2.632798 1_556
F38 Fe0 2.031583 1_645
F38 U2 2.216928 1_555
F38 Na4 2.626465 1_656
F39 Fe1 2.026673 1_555
F39 U3 2.219662 1_555
F39 Na5 2.630764 1_655
F40 Fe1 2.031583 1_565
F40 U4 2.216928 1_555
F40 Na5 2.626465 1_665
F41 Fe1 2.024373 1_455
F41 U5 2.225201 1_555
F41 Na5 2.632798 1_555
F42 Fe1 2.026673 1_455
F42 U6 2.219662 1_555
F42 Na4 2.630764 1_555
F43 Fe1 2.024373 1_565
F43 U7 2.225201 1_555
F43 Na4 2.632798 1_665
F44 Fe1 2.031583 1_465
F44 U8 2.216928 1_555
F44 Na4 2.626465 1_565
F45 Fe0 2.026673 1_555
F45 U9 2.219662 1_555
F45 Na5 2.630764 1_565
F46 Fe0 2.031583 1_545
F46 U10 2.216928 1_555
F46 Na5 2.626465 1_555
F47 Fe0 2.024373 1_655
F47 U11 2.225201 1_555
F47 Na5 2.632798 1_665
F48 U0 2.301957 1_555
F48 U1 2.308382 1_555
F49 U1 2.301977 1_555
F49 U2 2.310952 1_555
F50 U2 2.302187 1_555
F50 U0 2.309733 1_555
F51 U3 2.301957 1_555
F51 U5 2.308382 1_555
F52 U4 2.302187 1_555
F52 U3 2.309733 1_555
F53 U5 2.301977 1_555
F53 U4 2.310952 1_555
F54 U6 2.301957 1_555
F54 U7 2.308382 1_555
F55 U7 2.301977 1_555
F55 U8 2.310952 1_555
F56 U8 2.302187 1_555
F56 U6 2.309733 1_555
F57 U9 2.301957 1_555
F57 U11 2.308382 1_555
F58 U10 2.302187 1_555
F58 U9 2.309733 1_555
F59 U11 2.301977 1_555
F59 U10 2.310952 1_555
