# generated using pymatgen
data_InCo3SnS2
_symmetry_space_group_name_H-M   'P 1'
_cell_length_a   5.48997584
_cell_length_b   5.48997584
_cell_length_c   5.48997607
_cell_angle_alpha   57.84896430
_cell_angle_beta   57.84896430
_cell_angle_gamma   57.84896282
_symmetry_Int_Tables_number   1
_chemical_formula_structural   InCo3SnS2
_chemical_formula_sum   'In1 Co3 Sn1 S2'
_cell_volume   111.22495707
_cell_formula_units_Z   1
loop_
 _symmetry_equiv_pos_site_id
 _symmetry_equiv_pos_as_xyz
  1  'x, y, z'
loop_
 _atom_site_type_symbol
 _atom_site_label
 _atom_site_symmetry_multiplicity
 _atom_site_fract_x
 _atom_site_fract_y
 _atom_site_fract_z
 _atom_site_occupancy
  In  In0  1  0.50000000  0.50000000  0.50000000  1
  Co  Co0  1  0.50000000  0.50000000  0.00000000  1
  Co  Co1  1  0.00000000  0.50000000  0.50000000  1
  Co  Co2  1  0.50000000  0.00000000  0.50000000  1
  Sn  Sn0  1  0.00000000  0.00000000  0.00000000  1
  S  S0  1  0.77855700  0.77855700  0.77855700  1
  S  S1  1  0.22144300  0.22144300  0.22144300  1
loop_
_geom_bond_atom_site_label_1
_geom_bond_atom_site_label_2
_geom_bond_distance
_geom_bond_site_symmetry_2
In0 S1 3.156042 1_565
In0 S1 3.156042 1_655
In0 S0 3.156042 1_455
In0 S0 3.156042 1_545
In0 S1 3.156042 1_556
In0 S0 3.156042 1_554
Co0 S0 2.164934 1_554
Co0 S1 2.164934 1_555
Co0 Sn0 2.655262 1_565
Co0 Sn0 2.655262 1_655
Co0 In0 2.744988 1_555
Co0 In0 2.744988 1_554
Co1 S0 2.164934 1_455
Co1 S1 2.164934 1_555
Co1 Sn0 2.655262 1_565
Co1 Sn0 2.655262 1_556
Co1 In0 2.744988 1_555
Co1 In0 2.744988 1_455
Co2 S0 2.164934 1_545
Co2 S1 2.164934 1_555
Co2 Sn0 2.655262 1_655
Co2 Sn0 2.655262 1_556
Co2 In0 2.744988 1_545
Co2 In0 2.744988 1_555
S0 Sn0 3.025381 1_666
S1 Sn0 3.025381 1_555
