# generated using pymatgen
data_LiCu6OF11
_symmetry_space_group_name_H-M   'P 1'
_cell_length_a   5.35312578
_cell_length_b   4.78415596
_cell_length_c   8.62300836
_cell_angle_alpha   91.36187272
_cell_angle_beta   92.64444137
_cell_angle_gamma   90.00098319
_symmetry_Int_Tables_number   1
_chemical_formula_structural   LiCu6OF11
_chemical_formula_sum   'Li1 Cu6 O1 F11'
_cell_volume   220.53924634
_cell_formula_units_Z   1
loop_
 _symmetry_equiv_pos_site_id
 _symmetry_equiv_pos_as_xyz
  1  'x, y, z'
loop_
 _atom_site_type_symbol
 _atom_site_label
 _atom_site_symmetry_multiplicity
 _atom_site_fract_x
 _atom_site_fract_y
 _atom_site_fract_z
 _atom_site_occupancy
  Li  Li0  1  0.80690500  0.48936300  0.84325900  1
  Cu  Cu0  1  0.97281300  0.99990100  0.00158500  1
  Cu  Cu1  1  0.42045300  0.57415600  0.05957700  1
  Cu  Cu2  1  0.34570100  0.98335500  0.32548000  1
  Cu  Cu3  1  0.82704000  0.49680000  0.32219800  1
  Cu  Cu4  1  0.20085700  0.48997900  0.64452200  1
  Cu  Cu5  1  0.68458500  0.00280200  0.64996400  1
  O  O0  1  0.54753700  0.69381900  0.25039100  1
  F  F0  1  0.27141300  0.19316600  0.08225100  1
  F  F1  1  0.04592200  0.78261200  0.24635300  1
  F  F2  1  0.78564300  0.32512100  0.04676300  1
  F  F3  1  0.12713800  0.29014200  0.40401300  1
  F  F4  1  0.63336200  0.19685400  0.40673300  1
  F  F5  1  0.38422500  0.80739100  0.57654100  1
  F  F6  1  0.88304500  0.68080100  0.60122800  1
  F  F7  1  0.50160000  0.31993000  0.73179400  1
  F  F8  1  0.14746400  0.68120800  0.90654800  1
  F  F9  1  0.98655500  0.19951100  0.73167900  1
  F  F10  1  0.66524300  0.82086400  0.91912000  1
loop_
_geom_bond_atom_site_label_1
_geom_bond_atom_site_label_2
_geom_bond_distance
_geom_bond_site_symmetry_2
Cu0 F2 1.893080 1_565
Cu0 F0 1.939212 1_665
Cu0 F10 1.952721 1_554
Cu0 F8 1.970197 1_654
Cu0 F1 2.390960 1_655
Cu0 F9 2.540790 1_564
Cu1 O0 1.830240 1_555
Cu1 F8 1.998326 1_554
Cu1 F0 2.007071 1_555
Cu1 F10 2.188943 1_554
Cu1 F2 2.295020 1_555
Cu2 O0 1.878121 1_555
Cu2 F4 1.942114 1_565
Cu2 F1 1.957266 1_555
Cu2 F3 2.001898 1_565
Cu2 F5 2.341678 1_555
Cu2 F0 2.363844 1_565
Cu3 O0 1.858170 1_555
Cu3 F1 1.945118 1_655
Cu3 F4 1.945477 1_555
Cu3 F3 1.996138 1_655
Cu3 F2 2.494675 1_555
Cu3 F6 2.546910 1_555
Cu4 F5 1.925747 1_555
Cu4 F7 1.933224 1_555
Cu4 F6 1.955716 1_455
Cu4 F9 1.985228 1_455
Cu4 F3 2.280590 1_555
Cu4 F8 2.446456 1_555
Cu5 F6 1.920650 1_545
Cu5 F5 1.933378 1_545
Cu5 F7 1.942218 1_555
Cu5 F9 1.964303 1_555
Cu5 F4 2.318529 1_555
Cu5 F10 2.504653 1_545
F2 Li0 1.947748 1_554
F6 Li0 2.351595 1_555
F7 Li0 2.017404 1_555
F8 Li0 2.085204 1_455
F9 Li0 1.948211 1_555
F10 Li0 1.874762 1_555
