# generated using pymatgen
data_La3Mg2MoS8
_symmetry_space_group_name_H-M   'P 1'
_cell_length_a   8.12839413
_cell_length_b   7.91748451
_cell_length_c   8.12843604
_cell_angle_alpha   59.11589487
_cell_angle_beta   59.99878054
_cell_angle_gamma   59.11526466
_symmetry_Int_Tables_number   1
_chemical_formula_structural   La3Mg2MoS8
_chemical_formula_sum   'La3 Mg2 Mo1 S8'
_cell_volume   364.87422877
_cell_formula_units_Z   1
loop_
 _symmetry_equiv_pos_site_id
 _symmetry_equiv_pos_as_xyz
  1  'x, y, z'
loop_
 _atom_site_type_symbol
 _atom_site_label
 _atom_site_symmetry_multiplicity
 _atom_site_fract_x
 _atom_site_fract_y
 _atom_site_fract_z
 _atom_site_occupancy
  La  La0  1  0.49999982  0.50002527  0.49997467  1
  La  La1  1  0.49999785  0.49998970  0.00000502  1
  La  La2  1  0.00000152  0.49998913  0.50001331  1
  Mg  Mg0  1  0.87435915  0.87691488  0.87437217  1
  Mg  Mg1  1  0.12564220  0.12309426  0.12562490  1
  Mo  Mo0  1  0.50000023  0.99999820  0.50000562  1
  S  S0  1  0.73000970  0.77702417  0.73003187  1
  S  S1  1  0.26997023  0.22300717  0.73706479  1
  S  S2  1  0.25187852  0.74435037  0.25188348  1
  S  S3  1  0.73706446  0.22298198  0.26996239  1
  S  S4  1  0.74810479  0.25564981  0.74809808  1
  S  S5  1  0.26293491  0.77700522  0.73004266  1
  S  S6  1  0.26998943  0.22296145  0.26998843  1
  S  S7  1  0.73005120  0.77700337  0.26293362  1
loop_
_geom_bond_atom_site_label_1
_geom_bond_atom_site_label_2
_geom_bond_distance
_geom_bond_site_symmetry_2
La0 S2 2.816646 1_555
La0 S4 2.816720 1_555
La0 S7 2.878772 1_555
La0 S5 2.878849 1_555
La0 S1 2.878866 1_555
La0 S3 2.878906 1_555
La1 S2 2.816690 1_555
La1 S4 2.816743 1_554
La1 S3 2.878818 1_555
La1 S6 2.878820 1_555
La1 S5 2.878828 1_554
La1 S0 2.878869 1_554
La2 S4 2.816699 1_455
La2 S2 2.816703 1_555
La2 S1 2.878793 1_555
La2 S7 2.878845 1_455
La2 S6 2.878883 1_555
La2 S0 2.878892 1_455
Mg0 S4 2.415136 1_565
Mg0 S7 2.580680 1_556
Mg0 S5 2.580752 1_655
Mg0 S0 2.580830 1_555
Mg1 S2 2.415193 1_545
Mg1 S1 2.580670 1_554
Mg1 S3 2.580781 1_455
Mg1 S6 2.580830 1_555
Mo0 S6 2.612757 1_565
Mo0 S3 2.612792 1_565
Mo0 S0 2.612798 1_555
Mo0 S5 2.612848 1_555
Mo0 S7 2.612881 1_555
Mo0 S1 2.612882 1_565
