# generated using pymatgen
data_AcPm3
_symmetry_space_group_name_H-M   'P 1'
_cell_length_a   7.62027970
_cell_length_b   7.62028003
_cell_length_c   5.97497432
_cell_angle_alpha   90.00000199
_cell_angle_beta   89.99999970
_cell_angle_gamma   120.00002609
_symmetry_Int_Tables_number   1
_chemical_formula_structural   AcPm3
_chemical_formula_sum   'Ac2 Pm6'
_cell_volume   300.47504160
_cell_formula_units_Z   2
loop_
 _symmetry_equiv_pos_site_id
 _symmetry_equiv_pos_as_xyz
  1  'x, y, z'
loop_
 _atom_site_type_symbol
 _atom_site_label
 _atom_site_symmetry_multiplicity
 _atom_site_fract_x
 _atom_site_fract_y
 _atom_site_fract_z
 _atom_site_occupancy
  Ac  Ac0  1  0.33333463  0.66667499  0.75000001  1
  Ac  Ac1  1  0.66666799  0.33334066  0.24999999  1
  Pm  Pm0  1  0.16334343  0.32668151  0.25000003  1
  Pm  Pm1  1  0.67332185  0.83665413  0.24999997  1
  Pm  Pm2  1  0.16333367  0.83665690  0.24999997  1
  Pm  Pm3  1  0.83666466  0.67332610  0.75000004  1
  Pm  Pm4  1  0.32667703  0.16333216  0.74999999  1
  Pm  Pm5  1  0.83665675  0.16333455  0.75000000  1
loop_
_geom_bond_atom_site_label_1
_geom_bond_atom_site_label_2
_geom_bond_distance
_geom_bond_site_symmetry_2
Ac0 Pm2 3.736191 1_556
Ac0 Pm2 3.736192 1_555
Ac0 Pm1 3.736208 1_556
Ac0 Pm1 3.736208 1_555
Ac0 Pm0 3.736233 1_555
Ac0 Pm0 3.736233 1_556
Ac0 Pm4 3.810286 1_565
Ac0 Pm5 3.810322 1_565
Ac0 Pm3 3.810359 1_455
Ac0 Pm3 3.810427 1_555
Ac0 Pm5 3.810462 1_455
Ac0 Pm4 3.810500 1_555
Ac1 Pm3 3.736201 1_554
Ac1 Pm3 3.736201 1_555
Ac1 Pm4 3.736223 1_554
Ac1 Pm4 3.736223 1_555
Ac1 Pm5 3.736239 1_554
Ac1 Pm5 3.736239 1_555
Ac1 Pm1 3.810290 1_555
Ac1 Pm2 3.810322 1_655
Ac1 Pm0 3.810355 1_555
Ac1 Pm0 3.810432 1_655
Ac1 Pm2 3.810460 1_545
Ac1 Pm1 3.810496 1_545
Pm0 Pm4 3.684151 1_555
Pm0 Pm4 3.684152 1_554
Pm0 Pm5 3.684165 1_455
Pm0 Pm5 3.684166 1_454
Pm0 Pm2 3.734088 1_545
Pm0 Pm1 3.734122 1_445
Pm0 Pm1 3.886155 1_555
Pm0 Pm2 3.886192 1_555
Pm1 Pm3 3.684104 1_554
Pm1 Pm3 3.684105 1_555
Pm1 Pm5 3.684141 1_564
Pm1 Pm5 3.684141 1_565
Pm1 Pm2 3.734017 1_655
Pm1 Pm2 3.886263 1_555
Pm2 Pm3 3.684097 1_454
Pm2 Pm3 3.684098 1_455
Pm2 Pm4 3.684121 1_564
Pm2 Pm4 3.684121 1_565
Pm3 Pm4 3.734006 1_665
Pm3 Pm5 3.734032 1_565
Pm3 Pm5 3.886248 1_555
Pm3 Pm4 3.886271 1_555
Pm4 Pm5 3.734101 1_455
Pm4 Pm5 3.886179 1_555
