# generated using pymatgen
data_Sr2DyMnO6
_symmetry_space_group_name_H-M   'P 1'
_cell_length_a   5.80740276
_cell_length_b   5.80740276
_cell_length_c   5.80740276
_cell_angle_alpha   60.00000000
_cell_angle_beta   60.00000000
_cell_angle_gamma   60.00000000
_symmetry_Int_Tables_number   1
_chemical_formula_structural   Sr2DyMnO6
_chemical_formula_sum   'Sr2 Dy1 Mn1 O6'
_cell_volume   138.49396252
_cell_formula_units_Z   1
loop_
 _symmetry_equiv_pos_site_id
 _symmetry_equiv_pos_as_xyz
  1  'x, y, z'
loop_
 _atom_site_type_symbol
 _atom_site_label
 _atom_site_symmetry_multiplicity
 _atom_site_fract_x
 _atom_site_fract_y
 _atom_site_fract_z
 _atom_site_occupancy
  Sr  Sr0  1  0.25000000  0.25000000  0.25000000  1
  Sr  Sr1  1  0.75000000  0.75000000  0.75000000  1
  Dy  Dy0  1  0.00000000  0.00000000  -0.00000000  1
  Mn  Mn0  1  0.50000000  0.50000000  0.50000000  1
  O  O0  1  0.73256190  0.26743810  0.26743810  1
  O  O1  1  0.26743810  0.73256190  0.73256190  1
  O  O2  1  0.73256190  0.26743810  0.73256190  1
  O  O3  1  0.26743810  0.73256190  0.26743810  1
  O  O4  1  0.73256190  0.73256190  0.26743810  1
  O  O5  1  0.26743810  0.26743810  0.73256190  1
loop_
_geom_bond_atom_site_label_1
_geom_bond_atom_site_label_2
_geom_bond_distance
_geom_bond_site_symmetry_2
Dy0 O3 2.196444 1_545
Dy0 O2 2.196444 1_454
Dy0 O4 2.196444 1_445
Dy0 O1 2.196444 1_544
Dy0 O5 2.196444 1_554
Dy0 O0 2.196444 1_455
Mn0 O4 1.910009 1_555
Mn0 O1 1.910009 1_555
Mn0 O5 1.910009 1_555
Mn0 O3 1.910009 1_555
Mn0 O0 1.910009 1_555
Mn0 O2 1.910009 1_555
O0 Sr1 2.907231 1_545
O0 Sr0 2.907231 1_555
O0 Sr1 2.907231 1_554
O0 Sr0 2.907231 1_655
O1 Sr0 2.907231 1_556
O1 Sr1 2.907231 1_555
O1 Sr1 2.907231 1_455
O1 Sr0 2.907231 1_565
O2 Sr1 2.907231 1_545
O2 Sr0 2.907231 1_556
O2 Sr1 2.907231 1_555
O2 Sr0 2.907231 1_655
O3 Sr0 2.907231 1_555
O3 Sr1 2.907231 1_554
O3 Sr1 2.907231 1_455
O3 Sr0 2.907231 1_565
O4 Sr1 2.907231 1_554
O4 Sr1 2.907231 1_555
O4 Sr0 2.907231 1_565
O4 Sr0 2.907231 1_655
O5 Sr1 2.907231 1_545
O5 Sr0 2.907231 1_555
O5 Sr0 2.907231 1_556
O5 Sr1 2.907231 1_455
