# generated using pymatgen
data_Li5Mn(CoO4)2
_symmetry_space_group_name_H-M   'P 1'
_cell_length_a   5.79582368
_cell_length_b   5.79582368
_cell_length_c   5.88277724
_cell_angle_alpha   60.22055120
_cell_angle_beta   60.22055120
_cell_angle_gamma   60.37788172
_symmetry_Int_Tables_number   1
_chemical_formula_structural   Li5Mn(CoO4)2
_chemical_formula_sum   'Li5 Mn1 Co2 O8'
_cell_volume   140.59526701
_cell_formula_units_Z   1
loop_
 _symmetry_equiv_pos_site_id
 _symmetry_equiv_pos_as_xyz
  1  'x, y, z'
loop_
 _atom_site_type_symbol
 _atom_site_label
 _atom_site_symmetry_multiplicity
 _atom_site_fract_x
 _atom_site_fract_y
 _atom_site_fract_z
 _atom_site_occupancy
  Li  Li0  1  0.50000000  0.50000000  0.50000000  1
  Li  Li1  1  0.00000000  0.00000000  0.50000000  1
  Li  Li2  1  0.00000000  0.50000000  0.50000000  1
  Li  Li3  1  0.50000000  0.00000000  0.50000000  1
  Li  Li4  1  0.50000000  0.50000000  0.00000000  1
  Mn  Mn0  1  0.00000000  0.00000000  0.00000000  1
  Co  Co0  1  0.50000000  0.00000000  0.00000000  1
  Co  Co1  1  0.00000000  0.50000000  0.00000000  1
  O  O0  1  0.75049400  0.75049400  0.78411000  1
  O  O1  1  0.23775700  0.23775700  0.75925200  1
  O  O2  1  0.22339400  0.75478800  0.77613700  1
  O  O3  1  0.75478800  0.22339400  0.77613700  1
  O  O4  1  0.24950600  0.24950600  0.21589000  1
  O  O5  1  0.76224300  0.76224300  0.24074800  1
  O  O6  1  0.77660600  0.24521200  0.22386300  1
  O  O7  1  0.24521200  0.77660600  0.22386300  1
loop_
_geom_bond_atom_site_label_1
_geom_bond_atom_site_label_2
_geom_bond_distance
_geom_bond_site_symmetry_2
Li0 O5 2.150537 1_555
Li0 O1 2.150537 1_555
Li0 O7 2.201200 1_555
Li0 O3 2.201200 1_555
Li0 O6 2.201200 1_555
Li0 O2 2.201200 1_555
Li1 O0 2.059476 1_445
Li1 O4 2.059476 1_555
Li1 O7 2.076526 1_545
Li1 O6 2.076526 1_455
Li1 O3 2.076526 1_455
Li1 O2 2.076526 1_545
Li2 O5 2.061444 1_455
Li2 O1 2.061444 1_555
Li2 O7 2.144992 1_555
Li2 O3 2.144992 1_455
Li2 O0 2.219564 1_455
Li2 O4 2.219564 1_555
Li3 O5 2.061444 1_545
Li3 O1 2.061444 1_555
Li3 O2 2.144992 1_545
Li3 O6 2.144992 1_555
Li3 O4 2.219564 1_555
Li3 O0 2.219564 1_545
Li4 O0 2.061333 1_554
Li4 O4 2.061333 1_555
Li4 O6 2.076107 1_555
Li4 O3 2.076107 1_554
Li4 O7 2.076107 1_555
Li4 O2 2.076107 1_554
Mn0 O3 1.943425 1_454
Mn0 O6 1.943425 1_455
Mn0 O7 1.943425 1_545
Mn0 O2 1.943425 1_544
Mn0 O1 1.950267 1_554
Mn0 O5 1.950267 1_445
Co0 O4 1.931136 1_555
Co0 O0 1.931136 1_544
Co0 O7 1.963665 1_545
Co0 O3 1.963665 1_554
Co0 O5 2.084229 1_545
Co0 O1 2.084229 1_554
Co1 O4 1.931136 1_555
Co1 O0 1.931136 1_454
Co1 O6 1.963665 1_455
Co1 O2 1.963665 1_554
Co1 O5 2.084229 1_455
Co1 O1 2.084229 1_554
