# generated using pymatgen
data_Ho12(MnC3)5
_symmetry_space_group_name_H-M   'P 1'
_cell_length_a   5.01727733
_cell_length_b   10.40811639
_cell_length_c   10.40818824
_cell_angle_alpha   119.99970244
_cell_angle_beta   90.00000185
_cell_angle_gamma   90.00000336
_symmetry_Int_Tables_number   1
_chemical_formula_structural   Ho12(MnC3)5
_chemical_formula_sum   'Ho12 Mn5 C15'
_cell_volume   470.70338310
_cell_formula_units_Z   1
loop_
 _symmetry_equiv_pos_site_id
 _symmetry_equiv_pos_as_xyz
  1  'x, y, z'
loop_
 _atom_site_type_symbol
 _atom_site_label
 _atom_site_symmetry_multiplicity
 _atom_site_fract_x
 _atom_site_fract_y
 _atom_site_fract_z
 _atom_site_occupancy
  Ho  Ho0  1  0.49999994  0.20611201  0.20611966  1
  Ho  Ho1  1  0.49999993  0.00000565  0.79388702  1
  Ho  Ho2  1  0.50000003  0.79388046  -0.00000664  1
  Ho  Ho3  1  0.00000009  0.73036034  0.18564628  1
  Ho  Ho4  1  -0.00000012  0.45528630  0.26964134  1
  Ho  Ho5  1  -0.00000008  0.54470873  0.81434821  1
  Ho  Ho6  1  0.00000004  0.81435290  0.54471249  1
  Ho  Ho7  1  -0.00000011  0.18564997  0.73036003  1
  Ho  Ho8  1  -0.00000008  0.26964055  0.45529131  1
  Ho  Ho9  1  0.50000029  0.57067545  0.57068508  1
  Ho  Ho10  1  0.50000022  0.00000937  0.42932373  1
  Ho  Ho11  1  0.49999999  0.42931417  -0.00000914  1
  Mn  Mn0  1  -0.00000014  0.84616780  0.84616646  1
  Mn  Mn1  1  0.00000006  -0.00000312  0.15383237  1
  Mn  Mn2  1  0.00000035  0.15383953  0.00000123  1
  Mn  Mn3  1  0.50000003  0.66666730  0.33333333  1
  Mn  Mn4  1  0.49999997  0.33333530  0.66666714  1
  C  C0  1  -0.00000006  0.67245279  0.67245054  1
  C  C1  1  0.00000014  -0.00000210  0.32754448  1
  C  C2  1  -0.00000005  0.32754802  0.00000310  1
  C  C3  1  0.00000008  0.20661062  0.20660855  1
  C  C4  1  -0.00000011  -0.00000475  0.79339077  1
  C  C5  1  0.00000002  0.79339601  0.00000311  1
  C  C6  1  -0.00000003  0.54298583  0.54298832  1
  C  C7  1  0.00000012  0.00000155  0.45701191  1
  C  C8  1  -0.00000042  0.45700805  -0.00000251  1
  C  C9  1  0.50000003  0.71880025  0.19604612  1
  C  C10  1  0.50000001  0.47724561  0.28119956  1
  C  C11  1  0.49999995  0.52274642  0.80394439  1
  C  C12  1  0.49999997  0.80395377  0.52275460  1
  C  C13  1  0.49999991  0.19605470  0.71880211  1
  C  C14  1  0.50000005  0.28119751  0.47725409  1
loop_
_geom_bond_atom_site_label_1
_geom_bond_atom_site_label_2
_geom_bond_distance
_geom_bond_site_symmetry_2
C0 C6 1.347493 1_555
C0 Mn0 1.808065 1_555
C0 Ho6 2.431557 1_555
C0 Ho5 2.431589 1_555
C0 Ho9 2.723102 1_455
C0 Ho9 2.723105 1_555
C1 C7 1.347502 1_555
C1 Mn1 1.808023 1_555
C1 Ho3 2.431555 1_545
C1 Ho8 2.431598 1_555
C1 Ho10 2.723111 1_455
C1 Ho10 2.723112 1_555
C2 C8 1.347464 1_555
C2 Mn2 1.807968 1_555
C2 Ho4 2.431577 1_555
C2 Ho7 2.431620 1_554
C2 Ho11 2.723104 1_455
C2 Ho11 2.723104 1_555
C3 Mn2 1.935157 1_555
C3 Mn1 1.935192 1_555
C3 Ho4 2.330537 1_555
C3 Ho8 2.330635 1_555
C3 Ho0 2.508643 1_555
C3 Ho0 2.508645 1_455
C4 Mn0 1.935085 1_545
C4 Mn2 1.935203 1_556
C4 Ho6 2.330575 1_545
C4 Ho7 2.330640 1_555
C4 Ho1 2.508644 1_455
C4 Ho1 2.508644 1_555
C5 Mn1 1.935084 1_565
C5 Mn0 1.935157 1_554
C5 Ho3 2.330569 1_555
C5 Ho5 2.330667 1_554
C5 Ho2 2.508644 1_455
C5 Ho2 2.508644 1_555
C6 Ho8 2.516032 1_555
C6 Ho4 2.516063 1_555
C6 Ho9 2.525142 1_455
C6 Ho9 2.525145 1_555
C7 Ho6 2.516061 1_545
C7 Ho7 2.516075 1_555
C7 Ho10 2.525141 1_455
C7 Ho10 2.525142 1_555
C8 Ho5 2.516076 1_554
C8 Ho3 2.516096 1_555
C8 Ho11 2.525138 1_455
C8 Ho11 2.525142 1_555
C9 Mn3 1.763955 1_555
C9 Ho3 2.516443 1_555
C9 Ho3 2.516443 1_655
C9 Ho2 2.523703 1_555
C9 Ho11 2.663446 1_555
C9 Ho10 2.712071 1_565
C10 Mn3 1.763962 1_555
C10 Ho4 2.516442 1_655
C10 Ho4 2.516443 1_555
C10 Ho0 2.523702 1_555
C10 Ho9 2.663454 1_555
C10 Ho11 2.712071 1_555
C11 Mn4 1.763864 1_555
C11 Ho5 2.516444 1_655
C11 Ho5 2.516445 1_555
C11 Ho2 2.523704 1_556
C11 Ho11 2.663367 1_556
C11 Ho9 2.711863 1_555
C12 Mn3 1.763970 1_555
C12 Ho6 2.516441 1_555
C12 Ho6 2.516442 1_655
C12 Ho1 2.523710 1_565
C12 Ho10 2.663438 1_565
C12 Ho9 2.712053 1_555
C13 Mn4 1.763897 1_555
C13 Ho7 2.516445 1_655
C13 Ho7 2.516445 1_555
C13 Ho1 2.523691 1_555
C13 Ho10 2.663378 1_555
C13 Ho11 2.711876 1_556
C14 Mn4 1.763879 1_555
C14 Ho8 2.516444 1_655
C14 Ho8 2.516446 1_555
C14 Ho0 2.523716 1_555
C14 Ho9 2.663355 1_555
C14 Ho10 2.711843 1_555
