# generated using pymatgen
data_Pr4CdPt
_symmetry_space_group_name_H-M   'P 1'
_cell_length_a   10.07338714
_cell_length_b   10.07343262
_cell_length_c   10.07343863
_cell_angle_alpha   60.00013742
_cell_angle_beta   60.00010129
_cell_angle_gamma   60.00022589
_symmetry_Int_Tables_number   1
_chemical_formula_structural   Pr4CdPt
_chemical_formula_sum   'Pr16 Cd4 Pt4'
_cell_volume   722.79856685
_cell_formula_units_Z   4
loop_
 _symmetry_equiv_pos_site_id
 _symmetry_equiv_pos_as_xyz
  1  'x, y, z'
loop_
 _atom_site_type_symbol
 _atom_site_label
 _atom_site_symmetry_multiplicity
 _atom_site_fract_x
 _atom_site_fract_y
 _atom_site_fract_z
 _atom_site_occupancy
  Pr  Pr0  1  0.35012693  0.35013618  0.35013187  1
  Pr  Pr1  1  0.35012839  0.35014478  0.94959927  1
  Pr  Pr2  1  0.35013290  0.94959509  0.35014016  1
  Pr  Pr3  1  0.94960390  0.35013863  0.35013224  1
  Pr  Pr4  1  0.80755801  0.19244370  0.19243608  1
  Pr  Pr5  1  0.19243552  0.80756008  0.80756938  1
  Pr  Pr6  1  0.19243373  0.80754483  0.19244209  1
  Pr  Pr7  1  0.80757258  0.19244650  0.80755011  1
  Pr  Pr8  1  0.19243238  0.19244529  0.80754891  1
  Pr  Pr9  1  0.80757946  0.80754551  0.19244430  1
  Pr  Pr10  1  0.93655805  0.56344677  0.56344151  1
  Pr  Pr11  1  0.56344879  0.93655534  0.93654816  1
  Pr  Pr12  1  0.56344256  0.93656546  0.56345140  1
  Pr  Pr13  1  0.93654635  0.56345415  0.93656077  1
  Pr  Pr14  1  0.56343907  0.56345350  0.93656295  1
  Pr  Pr15  1  0.93654258  0.93656346  0.56345211  1
  Cd  Cd0  1  0.57965026  0.57965492  0.57965132  1
  Cd  Cd1  1  0.57965810  0.57966352  0.26101776  1
  Cd  Cd2  1  0.57966457  0.26100359  0.57966617  1
  Cd  Cd3  1  0.26103845  0.57965618  0.57965198  1
  Pt  Pt0  1  0.14294259  0.14293810  0.14294239  1
  Pt  Pt1  1  0.14294505  0.14294201  0.57116844  1
  Pt  Pt2  1  0.14294488  0.57116508  0.14294603  1
  Pt  Pt3  1  0.57117590  0.14293931  0.14294259  1
loop_
_geom_bond_atom_site_label_1
_geom_bond_atom_site_label_2
_geom_bond_distance
_geom_bond_site_symmetry_2
Pr0 Pt2 2.954833 1_555
Pr0 Pt1 2.954887 1_555
Pr0 Pt3 2.954973 1_555
Pr1 Pt2 2.954828 1_556
Pr1 Pt3 2.954999 1_556
Pr1 Pt0 2.955004 1_556
Pr2 Pt1 2.954888 1_565
Pr2 Pt3 2.954965 1_565
Pr2 Pt0 2.954978 1_565
Pr3 Pt2 2.954823 1_655
Pr3 Pt1 2.954902 1_655
Pr3 Pt0 2.955003 1_655
Pr4 Pt3 2.964869 1_555
Pr4 Pt0 2.964909 1_655
Pr5 Pt2 2.964907 1_556
Pr5 Pt1 2.964962 1_565
Pr6 Pt2 2.964769 1_555
Pr6 Pt0 2.965037 1_565
Pr7 Pt1 2.964826 1_655
Pr7 Pt3 2.965012 1_556
Pr8 Pt1 2.964815 1_555
Pr8 Pt0 2.965020 1_556
Pr9 Pt2 2.964779 1_655
Pr9 Pt3 2.965047 1_565
Pr10 Pt2 3.646453 1_655
Pr10 Pt1 3.646513 1_655
Pr11 Pt3 3.646508 1_566
Pr11 Pt0 3.646509 1_566
Pr12 Pt1 3.646460 1_565
Pr12 Pt3 3.646529 1_565
Pr13 Pt2 3.646452 1_656
Pr13 Pt0 3.646581 1_656
Pr14 Pt2 3.646442 1_556
Pr14 Pt3 3.646564 1_556
Pr15 Pt1 3.646457 1_665
Pr15 Pt0 3.646529 1_665
Cd0 Cd3 3.209490 1_555
Cd0 Cd1 3.209653 1_555
Cd0 Cd2 3.209766 1_555
Cd0 Pr10 3.439750 1_555
Cd0 Pr14 3.439832 1_555
Cd0 Pr12 3.439842 1_555
Cd0 Pr2 3.562543 1_555
Cd0 Pr1 3.562583 1_555
Cd0 Pr3 3.562624 1_555
Cd0 Pr9 3.621696 1_555
Cd0 Pr7 3.621715 1_555
Cd0 Pr5 3.621746 1_555
Cd1 Cd3 3.209666 1_555
Cd1 Cd2 3.209949 1_555
Cd1 Pr14 3.439476 1_554
Cd1 Pr13 3.439507 1_554
Cd1 Pr11 3.439594 1_554
Cd1 Pr2 3.562625 1_555
Cd1 Pr0 3.562677 1_555
Cd1 Pr3 3.562697 1_555
Cd1 Pr6 3.621684 1_555
Cd1 Pr4 3.621684 1_555
Cd1 Pr9 3.621717 1_555
Cd2 Cd3 3.209796 1_555
Cd2 Pr12 3.439349 1_545
Cd2 Pr15 3.439379 1_545
Cd2 Pr11 3.439443 1_545
Cd2 Pr1 3.562722 1_555
Cd2 Pr0 3.562723 1_555
Cd2 Pr3 3.562729 1_555
Cd2 Pr8 3.621673 1_555
Cd2 Pr4 3.621680 1_555
Cd2 Pr7 3.621697 1_555
Cd3 Pr10 3.439666 1_455
Cd3 Pr13 3.439781 1_455
Cd3 Pr15 3.439796 1_455
Cd3 Pr2 3.562554 1_555
Cd3 Pr1 3.562610 1_555
Cd3 Pr0 3.562637 1_555
Cd3 Pr6 3.621693 1_555
Cd3 Pr8 3.621703 1_555
Cd3 Pr5 3.621754 1_555
