# generated using pymatgen
data_EuCuGe
_symmetry_space_group_name_H-M   'P 1'
_cell_length_a   4.50095500
_cell_length_b   7.63756200
_cell_length_c   22.47916800
_cell_angle_alpha   90.00000000
_cell_angle_beta   90.00000000
_cell_angle_gamma   90.00000000
_symmetry_Int_Tables_number   1
_chemical_formula_structural   EuCuGe
_chemical_formula_sum   'Eu12 Cu12 Ge12'
_cell_volume   772.75113706
_cell_formula_units_Z   12
loop_
 _symmetry_equiv_pos_site_id
 _symmetry_equiv_pos_as_xyz
  1  'x, y, z'
loop_
 _atom_site_type_symbol
 _atom_site_label
 _atom_site_symmetry_multiplicity
 _atom_site_fract_x
 _atom_site_fract_y
 _atom_site_fract_z
 _atom_site_occupancy
  Eu  Eu0  1  0.75000000  0.21425200  0.99801300  1
  Eu  Eu1  1  0.25000000  0.78574800  0.00198700  1
  Eu  Eu2  1  0.25000000  0.71425200  0.50198700  1
  Eu  Eu3  1  0.75000000  0.28574800  0.49801300  1
  Eu  Eu4  1  0.25000000  0.70695300  0.16620300  1
  Eu  Eu5  1  0.75000000  0.29304700  0.83379700  1
  Eu  Eu6  1  0.75000000  0.20695300  0.33379700  1
  Eu  Eu7  1  0.25000000  0.79304700  0.66620300  1
  Eu  Eu8  1  0.75000000  0.29411100  0.16675400  1
  Eu  Eu9  1  0.25000000  0.70588900  0.83324600  1
  Eu  Eu10  1  0.25000000  0.79411100  0.33324600  1
  Eu  Eu11  1  0.75000000  0.20588900  0.66675400  1
  Cu  Cu0  1  0.25000000  0.08392900  0.09728000  1
  Cu  Cu1  1  0.75000000  0.91607100  0.90272000  1
  Cu  Cu2  1  0.75000000  0.58392900  0.40272000  1
  Cu  Cu3  1  0.25000000  0.41607100  0.59728000  1
  Cu  Cu4  1  0.25000000  0.08690900  0.23574200  1
  Cu  Cu5  1  0.75000000  0.91309100  0.76425800  1
  Cu  Cu6  1  0.75000000  0.58690900  0.26425800  1
  Cu  Cu7  1  0.25000000  0.41309100  0.73574200  1
  Cu  Cu8  1  0.75000000  0.57997900  0.06400500  1
  Cu  Cu9  1  0.25000000  0.42002100  0.93599500  1
  Cu  Cu10  1  0.25000000  0.07997900  0.43599500  1
  Cu  Cu11  1  0.75000000  0.92002100  0.56400500  1
  Ge  Ge0  1  0.75000000  0.91853600  0.22951600  1
  Ge  Ge1  1  0.25000000  0.08146400  0.77048400  1
  Ge  Ge2  1  0.25000000  0.41853600  0.27048400  1
  Ge  Ge3  1  0.75000000  0.58146400  0.72951600  1
  Ge  Ge4  1  0.25000000  0.40844300  0.06907000  1
  Ge  Ge5  1  0.75000000  0.59155700  0.93093000  1
  Ge  Ge6  1  0.75000000  0.90844300  0.43093000  1
  Ge  Ge7  1  0.25000000  0.09155700  0.56907000  1
  Ge  Ge8  1  0.75000000  0.91522100  0.10252700  1
  Ge  Ge9  1  0.25000000  0.08477900  0.89747300  1
  Ge  Ge10  1  0.25000000  0.41522100  0.39747300  1
  Ge  Ge11  1  0.75000000  0.58477900  0.60252700  1
loop_
_geom_bond_atom_site_label_1
_geom_bond_atom_site_label_2
_geom_bond_distance
_geom_bond_site_symmetry_2
Eu0 Ge4 3.133009 1_656
Eu0 Ge4 3.133009 1_556
Eu0 Ge5 3.252401 1_555
Eu0 Ge8 3.276534 1_546
Eu0 Ge9 3.339213 1_655
Eu0 Ge9 3.339213 1_555
Eu1 Ge5 3.133009 1_554
Eu1 Ge5 3.133009 1_454
Eu1 Ge4 3.252401 1_555
Eu1 Ge9 3.276534 1_564
Eu1 Ge8 3.339213 1_555
Eu1 Ge8 3.339213 1_455
Eu2 Ge6 3.133009 1_555
Eu2 Ge6 3.133009 1_455
Eu2 Ge7 3.252401 1_565
Eu2 Ge10 3.276534 1_555
Eu2 Ge11 3.339213 1_555
Eu2 Ge11 3.339213 1_455
Eu3 Ge7 3.133009 1_655
Eu3 Ge7 3.133009 1_555
Eu3 Ge6 3.252401 1_545
Eu3 Ge11 3.276534 1_555
Eu3 Ge10 3.339213 1_655
Eu3 Ge10 3.339213 1_555
Eu4 Ge8 3.105432 1_455
Eu4 Ge8 3.105432 1_555
Eu4 Ge0 3.114739 1_555
Eu4 Ge0 3.114739 1_455
Eu4 Ge4 3.156807 1_555
Eu4 Ge2 3.216734 1_555
Eu5 Ge9 3.105432 1_655
Eu5 Ge9 3.105432 1_555
Eu5 Ge1 3.114739 1_555
Eu5 Ge1 3.114739 1_655
Eu5 Ge5 3.156807 1_555
Eu5 Ge3 3.216734 1_555
Eu6 Ge10 3.105432 1_555
Eu6 Ge10 3.105432 1_655
Eu6 Ge2 3.114739 1_655
Eu6 Ge2 3.114739 1_555
Eu6 Ge6 3.156807 1_545
Eu6 Ge0 3.216734 1_545
Eu7 Ge11 3.105432 1_555
Eu7 Ge11 3.105432 1_455
Eu7 Ge3 3.114739 1_555
Eu7 Ge3 3.114739 1_455
Eu7 Ge7 3.156807 1_565
Eu7 Ge1 3.216734 1_565
Eu8 Ge0 3.196658 1_545
Eu8 Ge8 3.233964 1_545
Eu8 Ge4 3.263271 1_655
Eu8 Ge4 3.263271 1_555
Eu8 Ge2 3.377107 1_655
Eu8 Ge2 3.377107 1_555
Eu9 Ge1 3.196658 1_565
Eu9 Ge9 3.233964 1_565
Eu9 Ge5 3.263271 1_455
Eu9 Ge5 3.263271 1_555
Eu9 Ge3 3.377107 1_455
Eu9 Ge3 3.377107 1_555
Eu10 Ge2 3.196658 1_555
Eu10 Ge10 3.233964 1_555
Eu10 Ge6 3.263271 1_555
Eu10 Ge6 3.263271 1_455
Eu10 Ge0 3.377107 1_555
Eu10 Ge0 3.377107 1_455
Eu11 Ge3 3.196658 1_555
Eu11 Ge11 3.233964 1_555
Eu11 Ge7 3.263271 1_655
Eu11 Ge7 3.263271 1_555
Eu11 Ge1 3.377107 1_655
Eu11 Ge1 3.377107 1_555
Cu0 Ge4 2.558334 1_555
Cu0 Ge8 2.595927 1_445
Cu0 Ge8 2.595927 1_545
Cu0 Cu4 3.112594 1_555
Cu0 Eu1 3.126510 1_545
Cu0 Eu8 3.174985 1_555
Cu0 Eu8 3.174985 1_455
Cu0 Eu4 3.269571 1_545
Cu0 Eu0 3.321851 1_554
Cu0 Eu0 3.321851 1_454
Cu1 Ge5 2.558334 1_555
Cu1 Ge9 2.595927 1_565
Cu1 Ge9 2.595927 1_665
Cu1 Cu5 3.112594 1_555
Cu1 Eu0 3.126510 1_565
Cu1 Eu9 3.174985 1_555
Cu1 Eu9 3.174985 1_655
Cu1 Eu5 3.269571 1_565
Cu1 Eu1 3.321851 1_656
Cu1 Eu1 3.321851 1_556
Cu2 Ge6 2.558334 1_555
Cu2 Ge10 2.595927 1_655
Cu2 Ge10 2.595927 1_555
Cu2 Cu6 3.112594 1_555
Cu2 Eu3 3.126510 1_555
Cu2 Eu10 3.174985 1_655
Cu2 Eu10 3.174985 1_555
Cu2 Eu6 3.269571 1_555
Cu2 Eu2 3.321851 1_555
Cu2 Eu2 3.321851 1_655
Cu3 Ge7 2.558334 1_555
Cu3 Ge11 2.595927 1_455
Cu3 Ge11 2.595927 1_555
Cu3 Cu7 3.112594 1_555
Cu3 Eu2 3.126510 1_555
Cu3 Eu11 3.174985 1_555
Cu3 Eu11 3.174985 1_455
Cu3 Eu7 3.269571 1_555
Cu3 Eu3 3.321851 1_555
Cu3 Eu3 3.321851 1_455
Cu4 Ge0 2.595752 1_545
Cu4 Ge0 2.595752 1_445
Cu4 Ge2 2.650491 1_555
Cu4 Eu10 3.131277 1_545
Cu4 Eu8 3.158159 1_555
Cu4 Eu8 3.158159 1_455
Cu4 Eu6 3.280812 1_455
Cu4 Eu6 3.280812 1_555
Cu4 Eu4 3.296175 1_545
Cu5 Ge1 2.595752 1_565
Cu5 Ge1 2.595752 1_665
Cu5 Ge3 2.650491 1_555
Cu5 Eu11 3.131277 1_565
Cu5 Eu9 3.158159 1_555
Cu5 Eu9 3.158159 1_655
Cu5 Eu7 3.280812 1_655
Cu5 Eu7 3.280812 1_555
Cu5 Eu5 3.296175 1_565
Cu6 Ge2 2.595752 1_555
Cu6 Ge2 2.595752 1_655
Cu6 Ge0 2.650491 1_555
Cu6 Eu8 3.131277 1_555
Cu6 Eu10 3.158159 1_555
Cu6 Eu10 3.158159 1_655
Cu6 Eu4 3.280812 1_655
Cu6 Eu4 3.280812 1_555
Cu6 Eu6 3.296175 1_555
Cu7 Ge3 2.595752 1_555
Cu7 Ge3 2.595752 1_455
Cu7 Ge1 2.650491 1_555
Cu7 Eu9 3.131277 1_555
Cu7 Eu11 3.158159 1_555
Cu7 Eu11 3.158159 1_455
Cu7 Eu5 3.280812 1_555
Cu7 Eu5 3.280812 1_455
Cu7 Eu7 3.296175 1_555
Cu8 Ge4 2.606534 1_555
Cu8 Ge4 2.606534 1_655
Cu8 Ge8 2.702900 1_555
Cu8 Ge5 2.992722 1_554
Cu8 Eu1 3.078643 1_655
Cu8 Eu1 3.078643 1_555
Cu8 Eu0 3.162740 1_554
Cu8 Eu8 3.178320 1_555
Cu8 Eu4 3.358990 1_555
Cu8 Eu4 3.358990 1_655
Cu9 Ge5 2.606534 1_455
Cu9 Ge5 2.606534 1_555
Cu9 Ge9 2.702900 1_555
Cu9 Ge4 2.992722 1_556
Cu9 Eu0 3.078643 1_455
Cu9 Eu0 3.078643 1_555
Cu9 Eu1 3.162740 1_556
Cu9 Eu9 3.178320 1_555
Cu9 Eu5 3.358990 1_555
Cu9 Eu5 3.358990 1_455
Cu10 Ge6 2.606534 1_445
Cu10 Ge6 2.606534 1_545
Cu10 Ge10 2.702900 1_555
Cu10 Ge7 2.992722 1_555
Cu10 Eu3 3.078643 1_555
Cu10 Eu3 3.078643 1_455
Cu10 Eu2 3.162740 1_545
Cu10 Eu10 3.178320 1_545
Cu10 Eu6 3.358990 1_455
Cu10 Eu6 3.358990 1_555
Cu11 Ge7 2.606534 1_565
Cu11 Ge7 2.606534 1_665
Cu11 Ge11 2.702900 1_555
Cu11 Ge6 2.992722 1_555
Cu11 Eu2 3.078643 1_555
Cu11 Eu2 3.078643 1_655
Cu11 Eu3 3.162740 1_565
Cu11 Eu11 3.178320 1_565
Cu11 Eu7 3.358990 1_555
Cu11 Eu7 3.358990 1_655
Ge0 Ge8 2.854719 1_555
Ge1 Ge9 2.854719 1_555
Ge10 Ge2 2.854719 1_555
Ge11 Ge3 2.854719 1_555
