# generated using pymatgen
data_BaSmC2O6F
_symmetry_space_group_name_H-M   'P 1'
_cell_length_a   13.14754312
_cell_length_b   13.14754312
_cell_length_c   13.14754241
_cell_angle_alpha   22.22753328
_cell_angle_beta   22.22753328
_cell_angle_gamma   22.22753605
_symmetry_Int_Tables_number   1
_chemical_formula_structural   BaSmC2O6F
_chemical_formula_sum   'Ba2 Sm2 C4 O12 F2'
_cell_volume   285.17723238
_cell_formula_units_Z   2
loop_
 _symmetry_equiv_pos_site_id
 _symmetry_equiv_pos_as_xyz
  1  'x, y, z'
loop_
 _atom_site_type_symbol
 _atom_site_label
 _atom_site_symmetry_multiplicity
 _atom_site_fract_x
 _atom_site_fract_y
 _atom_site_fract_z
 _atom_site_occupancy
  Ba  Ba0  1  0.00000000  0.00000000  0.00000000  1
  Ba  Ba1  1  0.50000000  0.50000000  0.50000000  1
  Sm  Sm0  1  0.25490300  0.25490300  0.25490300  1
  Sm  Sm1  1  0.74509700  0.74509700  0.74509700  1
  C  C0  1  0.87468000  0.87468000  0.87468000  1
  C  C1  1  0.12532000  0.12532000  0.12532000  1
  C  C2  1  0.60654000  0.60654000  0.60654000  1
  C  C3  1  0.39346000  0.39346000  0.39346000  1
  O  O0  1  0.97854900  0.97854900  0.42158800  1
  O  O1  1  0.42158800  0.97854900  0.97854900  1
  O  O2  1  0.68888200  0.24703700  0.24703700  1
  O  O3  1  0.24703700  0.24703700  0.68888200  1
  O  O4  1  0.24703700  0.68888200  0.24703700  1
  O  O5  1  0.75296300  0.31111800  0.75296300  1
  O  O6  1  0.31111800  0.75296300  0.75296300  1
  O  O7  1  0.75296300  0.75296300  0.31111800  1
  O  O8  1  0.57841200  0.02145100  0.02145100  1
  O  O9  1  0.02145100  0.02145100  0.57841200  1
  O  O10  1  0.02145100  0.57841200  0.02145100  1
  O  O11  1  0.97854900  0.42158800  0.97854900  1
  F  F0  1  0.31410900  0.31410900  0.31410900  1
  F  F1  1  0.68589100  0.68589100  0.68589100  1
loop_
_geom_bond_atom_site_label_1
_geom_bond_atom_site_label_2
_geom_bond_distance
_geom_bond_site_symmetry_2
Ba0 O5 2.857841 1_454
Ba0 O6 2.857841 1_544
Ba0 O4 2.857841 1_545
Ba0 O2 2.857841 1_455
Ba0 O7 2.857842 1_445
Ba0 O3 2.857842 1_554
Ba0 F0 3.018274 1_554
Ba0 F1 3.018274 1_445
Ba0 F0 3.018274 1_455
Ba0 F0 3.018274 1_545
Ba0 F1 3.018274 1_544
Ba0 F1 3.018274 1_454
Ba1 O11 2.977977 1_554
Ba1 O1 2.977977 1_554
Ba1 O10 2.977977 1_556
Ba1 O8 2.977977 1_556
Ba1 O1 2.977977 1_545
Ba1 O11 2.977977 1_455
Ba1 O8 2.977977 1_565
Ba1 O10 2.977977 1_655
Ba1 O0 2.977978 1_455
Ba1 O0 2.977978 1_545
Ba1 O9 2.977978 1_655
Ba1 O9 2.977978 1_565
C0 O9 1.296956 1_665
C0 O8 1.296957 1_566
C0 O10 1.296957 1_656
C1 O0 1.296956 1_445
C1 O1 1.296957 1_544
C1 O11 1.296957 1_454
C2 O7 1.293413 1_555
C2 O5 1.293413 1_555
C2 O6 1.293413 1_555
C3 O3 1.293413 1_555
C3 O2 1.293413 1_555
C3 O4 1.293413 1_555
O0 Sm1 2.456560 1_555
O1 Sm1 2.456560 1_555
O2 Sm1 2.627087 1_545
O2 Sm1 2.627087 1_554
O3 Sm1 2.627087 1_545
O3 Sm1 2.627087 1_455
O4 Sm1 2.627087 1_455
O4 Sm1 2.627087 1_554
O5 Sm0 2.627087 1_655
O5 Sm0 2.627087 1_556
O6 Sm0 2.627087 1_565
O6 Sm0 2.627087 1_556
O7 Sm0 2.627087 1_565
O7 Sm0 2.627087 1_655
O8 Sm0 2.456560 1_555
O9 Sm0 2.456560 1_555
O10 Sm0 2.456560 1_555
O11 Sm1 2.456560 1_555
F0 Sm0 2.276661 1_555
F1 Sm1 2.276661 1_555
