# generated using pymatgen
data_H7C7(NO2)3
_symmetry_space_group_name_H-M   'P 1'
_cell_length_a   11.19834700
_cell_length_b   15.77909200
_cell_length_c   12.79768400
_cell_angle_alpha   90.00000000
_cell_angle_beta   90.00000000
_cell_angle_gamma   90.00000000
_symmetry_Int_Tables_number   1
_chemical_formula_structural   H7C7(NO2)3
_chemical_formula_sum   'H56 C56 N24 O48'
_cell_volume   2261.34753216
_cell_formula_units_Z   8
loop_
 _symmetry_equiv_pos_site_id
 _symmetry_equiv_pos_as_xyz
  1  'x, y, z'
loop_
 _atom_site_type_symbol
 _atom_site_label
 _atom_site_symmetry_multiplicity
 _atom_site_fract_x
 _atom_site_fract_y
 _atom_site_fract_z
 _atom_site_occupancy
  H  H0  1  0.76813500  0.14353600  0.16264000  1
  H  H1  1  0.73186500  0.85646400  0.66264000  1
  H  H2  1  0.26813500  0.35646400  0.83736000  1
  H  H3  1  0.23186500  0.64353600  0.33736000  1
  H  H4  1  0.23186500  0.85646400  0.83736000  1
  H  H5  1  0.26813500  0.14353600  0.33736000  1
  H  H6  1  0.73186500  0.64353600  0.16264000  1
  H  H7  1  0.76813500  0.35646400  0.66264000  1
  H  H8  1  0.11971100  0.07636000  0.17661900  1
  H  H9  1  0.38028900  0.92364000  0.67661900  1
  H  H10  1  0.61971100  0.42364000  0.82338100  1
  H  H11  1  0.88028900  0.57636000  0.32338100  1
  H  H12  1  0.88028900  0.92364000  0.82338100  1
  H  H13  1  0.61971100  0.07636000  0.32338100  1
  H  H14  1  0.38028900  0.57636000  0.17661900  1
  H  H15  1  0.11971100  0.42364000  0.67661900  1
  H  H16  1  0.02031900  0.09088900  0.31123400  1
  H  H17  1  0.47968100  0.90911100  0.81123400  1
  H  H18  1  0.52031900  0.40911100  0.68876600  1
  H  H19  1  0.97968100  0.59088900  0.18876600  1
  H  H20  1  0.97968100  0.90911100  0.68876600  1
  H  H21  1  0.52031900  0.09088900  0.18876600  1
  H  H22  1  0.47968100  0.59088900  0.31123400  1
  H  H23  1  0.02031900  0.40911100  0.81123400  1
  H  H24  1  0.73273800  0.36041400  0.14195600  1
  H  H25  1  0.76726200  0.63958600  0.64195600  1
  H  H26  1  0.23273800  0.13958600  0.85804400  1
  H  H27  1  0.26726200  0.86041400  0.35804400  1
  H  H28  1  0.26726200  0.63958600  0.85804400  1
  H  H29  1  0.23273800  0.36041400  0.35804400  1
  H  H30  1  0.76726200  0.86041400  0.14195600  1
  H  H31  1  0.73273800  0.13958600  0.64195600  1
  H  H32  1  0.91231600  0.37462800  0.10350900  1
  H  H33  1  0.58768400  0.62537200  0.60350900  1
  H  H34  1  0.41231600  0.12537200  0.89649100  1
  H  H35  1  0.08768400  0.87462800  0.39649100  1
  H  H36  1  0.08768400  0.62537200  0.89649100  1
  H  H37  1  0.41231600  0.37462800  0.39649100  1
  H  H38  1  0.58768400  0.87462800  0.10350900  1
  H  H39  1  0.91231600  0.12537200  0.60350900  1
  H  H40  1  0.93041100  0.20007000  0.92316100  1
  H  H41  1  0.56958900  0.79993000  0.42316100  1
  H  H42  1  0.43041100  0.29993000  0.07683900  1
  H  H43  1  0.06958900  0.70007000  0.57683900  1
  H  H44  1  0.06958900  0.79993000  0.07683900  1
  H  H45  1  0.43041100  0.20007000  0.57683900  1
  H  H46  1  0.56958900  0.70007000  0.92316100  1
  H  H47  1  0.93041100  0.29993000  0.42316100  1
  H  H48  1  0.71668800  0.03222100  0.93382000  1
  H  H49  1  0.78331200  0.96777900  0.43382000  1
  H  H50  1  0.21668800  0.46777900  0.06618000  1
  H  H51  1  0.28331200  0.53222100  0.56618000  1
  H  H52  1  0.28331200  0.96777900  0.06618000  1
  H  H53  1  0.21668800  0.03222100  0.56618000  1
  H  H54  1  0.78331200  0.53222100  0.93382000  1
  H  H55  1  0.71668800  0.46777900  0.43382000  1
  C  C0  1  0.84406300  0.16127600  0.11274500  1
  C  C1  1  0.65593700  0.83872400  0.61274500  1
  C  C2  1  0.34406300  0.33872400  0.88725500  1
  C  C3  1  0.15593700  0.66127600  0.38725500  1
  C  C4  1  0.15593700  0.83872400  0.88725500  1
  C  C5  1  0.34406300  0.16127600  0.38725500  1
  C  C6  1  0.65593700  0.66127600  0.11274500  1
  C  C7  1  0.84406300  0.33872400  0.61274500  1
  C  C8  1  0.05332300  0.09841000  0.11851700  1
  C  C9  1  0.44667700  0.90159000  0.61851700  1
  C  C10  1  0.55332300  0.40159000  0.88148300  1
  C  C11  1  0.94667700  0.59841000  0.38148300  1
  C  C12  1  0.94667700  0.90159000  0.88148300  1
  C  C13  1  0.55332300  0.09841000  0.38148300  1
  C  C14  1  0.44667700  0.59841000  0.11851700  1
  C  C15  1  0.05332300  0.40159000  0.61851700  1
  C  C16  1  0.93930400  0.11846200  0.27545300  1
  C  C17  1  0.56069600  0.88153800  0.77545300  1
  C  C18  1  0.43930400  0.38153800  0.72454700  1
  C  C19  1  0.06069600  0.61846200  0.22454700  1
  C  C20  1  0.06069600  0.88153800  0.72454700  1
  C  C21  1  0.43930400  0.11846200  0.22454700  1
  C  C22  1  0.56069600  0.61846200  0.27545300  1
  C  C23  1  0.93930400  0.38153800  0.77545300  1
  C  C24  1  0.73009000  0.29059200  0.14385500  1
  C  C25  1  0.76991000  0.70940800  0.64385500  1
  C  C26  1  0.23009000  0.20940800  0.85614500  1
  C  C27  1  0.26991000  0.79059200  0.35614500  1
  C  C28  1  0.26991000  0.70940800  0.85614500  1
  C  C29  1  0.23009000  0.29059200  0.35614500  1
  C  C30  1  0.76991000  0.79059200  0.14385500  1
  C  C31  1  0.73009000  0.20940800  0.64385500  1
  C  C32  1  0.93585700  0.30724800  0.09142600  1
  C  C33  1  0.56414300  0.69275200  0.59142600  1
  C  C34  1  0.43585700  0.19275200  0.90857400  1
  C  C35  1  0.06414300  0.80724800  0.40857400  1
  C  C36  1  0.06414300  0.69275200  0.90857400  1
  C  C37  1  0.43585700  0.30724800  0.40857400  1
  C  C38  1  0.56414300  0.80724800  0.09142600  1
  C  C39  1  0.93585700  0.19275200  0.59142600  1
  C  C40  1  0.87193400  0.14420100  0.91715300  1
  C  C41  1  0.62806600  0.85579900  0.41715300  1
  C  C42  1  0.37193300  0.35579900  0.08284700  1
  C  C43  1  0.12806600  0.64420100  0.58284700  1
  C  C44  1  0.12806600  0.85579900  0.08284700  1
  C  C45  1  0.37193300  0.14420100  0.58284700  1
  C  C46  1  0.62806600  0.64420100  0.91715300  1
  C  C47  1  0.87193400  0.35579900  0.41715300  1
  C  C48  1  0.73395300  0.05614300  0.01323200  1
  C  C49  1  0.76604700  0.94385700  0.51323200  1
  C  C50  1  0.23395300  0.44385700  0.98676800  1
  C  C51  1  0.26604700  0.55614300  0.48676800  1
  C  C52  1  0.26604700  0.94385700  0.98676800  1
  C  C53  1  0.23395300  0.05614300  0.48676800  1
  C  C54  1  0.76604700  0.55614300  0.01323200  1
  C  C55  1  0.73395300  0.44385700  0.51323200  1
  N  N0  1  0.94952700  0.12835800  0.16691800  1
  N  N1  1  0.55047300  0.87164200  0.66691800  1
  N  N2  1  0.44952700  0.37164200  0.83308200  1
  N  N3  1  0.05047300  0.62835800  0.33308200  1
  N  N4  1  0.05047300  0.87164200  0.83308200  1
  N  N5  1  0.44952700  0.12835800  0.33308200  1
  N  N6  1  0.55047300  0.62835800  0.16691800  1
  N  N7  1  0.94952700  0.37164200  0.66691800  1
  N  N8  1  0.83862700  0.25382500  0.11099800  1
  N  N9  1  0.66137300  0.74617500  0.61099800  1
  N  N10  1  0.33862700  0.24617500  0.88900200  1
  N  N11  1  0.16137300  0.75382500  0.38900200  1
  N  N12  1  0.16137300  0.74617500  0.88900200  1
  N  N13  1  0.33862700  0.25382500  0.38900200  1
  N  N14  1  0.66137300  0.75382500  0.11099800  1
  N  N15  1  0.83862700  0.24617500  0.61099800  1
  N  N16  1  0.81877200  0.12090700  0.01299200  1
  N  N17  1  0.68122800  0.87909300  0.51299200  1
  N  N18  1  0.31877200  0.37909300  0.98700800  1
  N  N19  1  0.18122800  0.62090700  0.48700800  1
  N  N20  1  0.18122800  0.87909300  0.98700800  1
  N  N21  1  0.31877200  0.12090700  0.48700800  1
  N  N22  1  0.68122800  0.62090700  0.01299200  1
  N  N23  1  0.81877200  0.37909300  0.51299200  1
  O  O0  1  0.06892900  0.09519300  0.02447100  1
  O  O1  1  0.43107100  0.90480700  0.52447100  1
  O  O2  1  0.56892900  0.40480700  0.97552900  1
  O  O3  1  0.93107100  0.59519300  0.47552900  1
  O  O4  1  0.93107100  0.90480700  0.97552900  1
  O  O5  1  0.56892900  0.09519300  0.47552900  1
  O  O6  1  0.43107100  0.59519300  0.02447100  1
  O  O7  1  0.06892900  0.40480700  0.52447100  1
  O  O8  1  0.84964900  0.13788800  0.32434000  1
  O  O9  1  0.65035100  0.86211200  0.82434000  1
  O  O10  1  0.34964900  0.36211200  0.67566000  1
  O  O11  1  0.15035100  0.63788800  0.17566000  1
  O  O12  1  0.15035100  0.86211200  0.67566000  1
  O  O13  1  0.34964900  0.13788800  0.17566000  1
  O  O14  1  0.65035100  0.63788800  0.32434000  1
  O  O15  1  0.84964900  0.36211200  0.82434000  1
  O  O16  1  0.64338100  0.24911000  0.17047800  1
  O  O17  1  0.85661900  0.75089000  0.67047800  1
  O  O18  1  0.14338100  0.25089000  0.82952200  1
  O  O19  1  0.35661900  0.74911000  0.32952200  1
  O  O20  1  0.35661900  0.75089000  0.82952200  1
  O  O21  1  0.14338100  0.24911000  0.32952200  1
  O  O22  1  0.85661900  0.74911000  0.17047800  1
  O  O23  1  0.64338100  0.25089000  0.67047800  1
  O  O24  1  0.03445400  0.28233900  0.06470100  1
  O  O25  1  0.46554600  0.71766100  0.56470100  1
  O  O26  1  0.53445400  0.21766100  0.93529900  1
  O  O27  1  0.96554600  0.78233900  0.43529900  1
  O  O28  1  0.96554600  0.71766100  0.93529900  1
  O  O29  1  0.53445400  0.28233900  0.43529900  1
  O  O30  1  0.46554600  0.78233900  0.06470100  1
  O  O31  1  0.03445400  0.21766100  0.56470100  1
  O  O32  1  0.85211200  0.10607200  0.83607300  1
  O  O33  1  0.64788800  0.89392800  0.33607300  1
  O  O34  1  0.35211200  0.39392800  0.16392700  1
  O  O35  1  0.14788800  0.60607200  0.66392700  1
  O  O36  1  0.14788800  0.89392800  0.16392700  1
  O  O37  1  0.35211200  0.10607200  0.66392700  1
  O  O38  1  0.64788800  0.60607200  0.83607300  1
  O  O39  1  0.85211200  0.39392800  0.33607300  1
  O  O40  1  0.68532400  0.02998000  0.09265700  1
  O  O41  1  0.81467600  0.97002000  0.59265700  1
  O  O42  1  0.18532400  0.47002000  0.90734300  1
  O  O43  1  0.31467600  0.52998000  0.40734300  1
  O  O44  1  0.31467600  0.97002000  0.90734300  1
  O  O45  1  0.18532400  0.02998000  0.40734300  1
  O  O46  1  0.81467600  0.52998000  0.09265700  1
  O  O47  1  0.68532400  0.47002000  0.59265700  1
loop_
_geom_bond_atom_site_label_1
_geom_bond_atom_site_label_2
_geom_bond_distance
_geom_bond_site_symmetry_2
C0 H0 1.099566 1_555
C0 N16 1.454541 1_555
C0 N8 1.461778 1_555
C0 N0 1.464670 1_555
C1 H1 1.099566 1_555
C1 N17 1.454541 1_555
C1 N9 1.461778 1_555
C1 N1 1.464670 1_555
C2 H2 1.099566 1_555
C2 N18 1.454541 1_555
C2 N10 1.461778 1_555
C2 N2 1.464670 1_555
C3 H3 1.099566 1_555
C3 N19 1.454541 1_555
C3 N11 1.461778 1_555
C3 N3 1.464670 1_555
C4 H4 1.099566 1_555
C4 N20 1.454541 1_555
C4 N12 1.461778 1_555
C4 N4 1.464670 1_555
C5 H5 1.099566 1_555
C5 N21 1.454541 1_555
C5 N13 1.461778 1_555
C5 N5 1.464670 1_555
C6 H6 1.099566 1_555
C6 N22 1.454541 1_555
C6 N14 1.461778 1_555
C6 N6 1.464670 1_555
C7 H7 1.099566 1_555
C7 N23 1.454541 1_555
C7 N15 1.461778 1_555
C7 N7 1.464670 1_555
C8 H8 1.107542 1_555
C8 O0 1.217252 1_555
C8 N0 1.399296 1_455
C9 H9 1.107542 1_555
C9 O1 1.217252 1_555
C9 N1 1.399296 1_555
C10 H10 1.107542 1_555
C10 O2 1.217252 1_555
C10 N2 1.399296 1_555
C11 H11 1.107542 1_555
C11 O3 1.217252 1_555
C11 N3 1.399296 1_655
C12 H12 1.107542 1_555
C12 O4 1.217252 1_555
C12 N4 1.399296 1_655
C13 H13 1.107542 1_555
C13 O5 1.217252 1_555
C13 N5 1.399296 1_555
C14 H14 1.107542 1_555
C14 O6 1.217252 1_555
C14 N6 1.399296 1_555
C15 H15 1.107542 1_555
C15 O7 1.217252 1_555
C15 N7 1.399296 1_455
C16 H16 1.105464 1_655
C16 O8 1.222037 1_555
C16 N0 1.402427 1_555
C17 H17 1.105464 1_555
C17 O9 1.222037 1_555
C17 N1 1.402427 1_555
C18 H18 1.105464 1_555
C18 O10 1.222037 1_555
C18 N2 1.402427 1_555
C19 H19 1.105464 1_455
C19 O11 1.222037 1_555
C19 N3 1.402427 1_555
C20 H20 1.105464 1_455
C20 O12 1.222037 1_555
C20 N4 1.402427 1_555
C21 H21 1.105464 1_555
C21 O13 1.222037 1_555
C21 N5 1.402427 1_555
C22 H22 1.105464 1_555
C22 O14 1.222037 1_555
C22 N6 1.402427 1_555
C23 H23 1.105464 1_655
C23 O15 1.222037 1_555
C23 N7 1.402427 1_555
C24 H24 1.102395 1_555
C24 O16 1.219572 1_555
C24 N8 1.410911 1_555
C25 H25 1.102395 1_555
C25 O17 1.219572 1_555
C25 N9 1.410911 1_555
C26 H26 1.102395 1_555
C26 O18 1.219572 1_555
C26 N10 1.410911 1_555
C27 H27 1.102395 1_555
C27 O19 1.219572 1_555
C27 N11 1.410911 1_555
C28 H28 1.102395 1_555
C28 O20 1.219572 1_555
C28 N12 1.410911 1_555
C29 H29 1.102395 1_555
C29 O21 1.219572 1_555
C29 N13 1.410911 1_555
C30 H30 1.102395 1_555
C30 O22 1.219572 1_555
C30 N14 1.410911 1_555
C31 H31 1.102395 1_555
C31 O23 1.219572 1_555
C31 N15 1.410911 1_555
C32 H32 1.106251 1_555
C32 O24 1.220879 1_655
C32 N8 1.399589 1_555
C33 H33 1.106251 1_555
C33 O25 1.220879 1_555
C33 N9 1.399589 1_555
C34 H34 1.106251 1_555
C34 O26 1.220879 1_555
C34 N10 1.399589 1_555
C35 H35 1.106251 1_555
C35 O27 1.220879 1_455
C35 N11 1.399589 1_555
C36 H36 1.106251 1_555
C36 O28 1.220879 1_455
C36 N12 1.399589 1_555
C37 H37 1.106251 1_555
C37 O29 1.220879 1_555
C37 N13 1.399589 1_555
C38 H38 1.106251 1_555
C38 O30 1.220879 1_555
C38 N14 1.399589 1_555
C39 H39 1.106251 1_555
C39 O31 1.220879 1_655
C39 N15 1.399589 1_555
C40 H40 1.100857 1_555
C40 O32 1.219809 1_555
C40 N16 1.412040 1_556
C41 H41 1.100857 1_555
C41 O33 1.219809 1_555
C41 N17 1.412040 1_555
C42 H42 1.100864 1_555
C42 O34 1.219807 1_555
C42 N18 1.412035 1_554
C43 H43 1.100857 1_555
C43 O35 1.219809 1_555
C43 N19 1.412040 1_555
C44 H44 1.100857 1_555
C44 O36 1.219809 1_555
C44 N20 1.412040 1_554
C45 H45 1.100864 1_555
C45 O37 1.219807 1_555
C45 N21 1.412035 1_555
C46 H46 1.100857 1_555
C46 O38 1.219809 1_555
C46 N22 1.412040 1_556
C47 H47 1.100857 1_555
C47 O39 1.219809 1_555
C47 N23 1.412040 1_555
C48 H48 1.101230 1_554
C48 O40 1.224810 1_555
C48 N16 1.395172 1_555
C49 H49 1.101230 1_555
C49 O41 1.224810 1_555
C49 N17 1.395172 1_555
C50 H50 1.101230 1_556
C50 O42 1.224810 1_555
C50 N18 1.395172 1_555
C51 H51 1.101230 1_555
C51 O43 1.224810 1_555
C51 N19 1.395172 1_555
C52 H52 1.101230 1_556
C52 O44 1.224810 1_555
C52 N20 1.395172 1_555
C53 H53 1.101230 1_555
C53 O45 1.224810 1_555
C53 N21 1.395172 1_555
C54 H54 1.101230 1_554
C54 O46 1.224810 1_555
C54 N22 1.395172 1_555
C55 H55 1.101230 1_555
C55 O47 1.224810 1_555
C55 N23 1.395172 1_555
