# generated using pymatgen
data_Mg5FeN4
_symmetry_space_group_name_H-M   'P 1'
_cell_length_a   7.14820200
_cell_length_b   6.71061000
_cell_length_c   5.19578900
_cell_angle_alpha   90.00000000
_cell_angle_beta   90.00000000
_cell_angle_gamma   90.00000000
_symmetry_Int_Tables_number   1
_chemical_formula_structural   Mg5FeN4
_chemical_formula_sum   'Mg10 Fe2 N8'
_cell_volume   249.23574168
_cell_formula_units_Z   2
loop_
 _symmetry_equiv_pos_site_id
 _symmetry_equiv_pos_as_xyz
  1  'x, y, z'
loop_
 _atom_site_type_symbol
 _atom_site_label
 _atom_site_symmetry_multiplicity
 _atom_site_fract_x
 _atom_site_fract_y
 _atom_site_fract_z
 _atom_site_occupancy
  Mg  Mg0  1  0.55151200  0.50307400  0.24918400  1
  Mg  Mg1  1  0.94848800  0.50307400  0.24918400  1
  Mg  Mg2  1  0.55151200  0.99692600  0.24918400  1
  Mg  Mg3  1  0.94848800  0.99692600  0.24918400  1
  Mg  Mg4  1  0.44848800  0.49692600  0.75081600  1
  Mg  Mg5  1  0.05151200  0.49692600  0.75081600  1
  Mg  Mg6  1  0.44848800  0.00307400  0.75081600  1
  Mg  Mg7  1  0.05151200  0.00307400  0.75081600  1
  Mg  Mg8  1  0.75000000  0.75000000  0.71998000  1
  Mg  Mg9  1  0.25000000  0.25000000  0.28002000  1
  Fe  Fe0  1  0.75000000  0.25000000  0.71205100  1
  Fe  Fe1  1  0.25000000  0.75000000  0.28794900  1
  N  N0  1  0.75000000  0.00504400  0.94975700  1
  N  N1  1  0.75000000  0.49495600  0.94975700  1
  N  N2  1  0.25000000  0.99495600  0.05024300  1
  N  N3  1  0.25000000  0.50504400  0.05024300  1
  N  N4  1  0.49963500  0.75000000  0.50386300  1
  N  N5  1  0.00036500  0.75000000  0.50386300  1
  N  N6  1  0.50036500  0.25000000  0.49613700  1
  N  N7  1  0.99963500  0.25000000  0.49613700  1
loop_
_geom_bond_atom_site_label_1
_geom_bond_atom_site_label_2
_geom_bond_distance
_geom_bond_site_symmetry_2
Mg0 N1 2.106286 1_554
Mg0 N4 2.152732 1_555
Mg0 N6 2.159679 1_555
Mg0 N3 2.390356 1_555
Mg1 N1 2.106286 1_554
Mg1 N5 2.152732 1_655
Mg1 N7 2.159679 1_555
Mg1 N3 2.390356 1_655
Mg2 N0 2.106286 1_564
Mg2 N4 2.152732 1_555
Mg2 N6 2.159679 1_565
Mg2 N2 2.390356 1_555
Mg3 N0 2.106286 1_564
Mg3 N5 2.152732 1_655
Mg3 N7 2.159679 1_565
Mg3 N2 2.390356 1_655
Mg4 N3 2.106286 1_556
Mg4 N6 2.152732 1_555
Mg4 N4 2.159679 1_555
Mg4 N1 2.390356 1_555
Mg5 N3 2.106286 1_556
Mg5 N7 2.152732 1_455
Mg5 N5 2.159679 1_555
Mg5 N1 2.390356 1_455
Mg6 N2 2.106286 1_546
Mg6 N6 2.152732 1_555
Mg6 N4 2.159679 1_545
Mg6 N0 2.390356 1_555
Mg7 N2 2.106286 1_546
Mg7 N7 2.152732 1_455
Mg7 N5 2.159679 1_545
Mg7 N0 2.390356 1_455
Mg8 N0 2.086760 1_565
Mg8 N1 2.086760 1_555
Mg8 N5 2.112766 1_655
Mg8 N4 2.112766 1_555
Mg9 N3 2.086760 1_555
Mg9 N2 2.086760 1_545
Mg9 N6 2.112766 1_555
Mg9 N7 2.112766 1_455
Fe0 N1 2.056086 1_555
Fe0 N0 2.056086 1_555
Fe0 N7 2.107787 1_555
Fe0 N6 2.107787 1_555
Fe1 N2 2.056086 1_555
Fe1 N3 2.056086 1_555
Fe1 N5 2.107787 1_555
Fe1 N4 2.107787 1_555
