# generated using pymatgen
data_RbTmI3
_symmetry_space_group_name_H-M   'P 1'
_cell_length_a   8.24383600
_cell_length_b   8.64162700
_cell_length_c   11.93701500
_cell_angle_alpha   90.00000000
_cell_angle_beta   90.00000000
_cell_angle_gamma   90.00000000
_symmetry_Int_Tables_number   1
_chemical_formula_structural   RbTmI3
_chemical_formula_sum   'Rb4 Tm4 I12'
_cell_volume   850.39480792
_cell_formula_units_Z   4
loop_
 _symmetry_equiv_pos_site_id
 _symmetry_equiv_pos_as_xyz
  1  'x, y, z'
loop_
 _atom_site_type_symbol
 _atom_site_label
 _atom_site_symmetry_multiplicity
 _atom_site_fract_x
 _atom_site_fract_y
 _atom_site_fract_z
 _atom_site_occupancy
  Rb  Rb0  1  0.02816700  0.42776200  0.25000000  1
  Rb  Rb1  1  0.97183300  0.57223800  0.75000000  1
  Rb  Rb2  1  0.52816700  0.07223800  0.75000000  1
  Rb  Rb3  1  0.47183300  0.92776200  0.25000000  1
  Tm  Tm0  1  0.00000000  0.00000000  0.00000000  1
  Tm  Tm1  1  0.50000000  0.50000000  0.00000000  1
  Tm  Tm2  1  0.00000000  0.00000000  0.50000000  1
  Tm  Tm3  1  0.50000000  0.50000000  0.50000000  1
  I  I0  1  0.29493200  0.20887000  0.03868600  1
  I  I1  1  0.70506800  0.79113000  0.96131400  1
  I  I2  1  0.79493200  0.29113000  0.96131400  1
  I  I3  1  0.70506800  0.79113000  0.53868600  1
  I  I4  1  0.20506800  0.70887000  0.03868600  1
  I  I5  1  0.29493200  0.20887000  0.46131400  1
  I  I6  1  0.20506800  0.70887000  0.46131400  1
  I  I7  1  0.79493200  0.29113000  0.53868600  1
  I  I8  1  0.58458400  0.51031100  0.25000000  1
  I  I9  1  0.41541600  0.48968900  0.75000000  1
  I  I10  1  0.08458400  0.98968900  0.75000000  1
  I  I11  1  0.91541600  0.01031100  0.25000000  1
loop_
_geom_bond_atom_site_label_1
_geom_bond_atom_site_label_2
_geom_bond_distance
_geom_bond_site_symmetry_2
I0 Tm0 3.063129 1_555
I0 Tm1 3.066046 1_555
I0 Rb3 3.793510 1_545
I0 Rb0 3.844115 1_555
I0 Rb2 4.119021 1_554
I1 Tm0 3.063129 1_666
I1 Tm1 3.066046 1_556
I1 Rb2 3.793510 1_565
I1 Rb1 3.844115 1_555
I1 Rb3 4.119021 1_556
I2 Tm1 3.063129 1_556
I2 Tm0 3.066046 1_656
I2 Rb1 3.793510 1_555
I2 Rb2 3.844115 1_555
I2 Rb0 4.119021 1_656
I3 Tm2 3.063129 1_665
I3 Tm3 3.066046 1_555
I3 Rb2 3.793510 1_565
I3 Rb1 3.844115 1_555
I3 Rb3 4.119021 1_555
I4 Tm1 3.063129 1_555
I4 Tm0 3.066046 1_565
I4 Rb0 3.793510 1_555
I4 Rb3 3.844115 1_555
I4 Rb1 4.119021 1_454
I5 Tm2 3.063129 1_555
I5 Tm3 3.066046 1_555
I5 Rb3 3.793510 1_545
I5 Rb0 3.844115 1_555
I5 Rb2 4.119021 1_555
I6 Tm3 3.063129 1_555
I6 Tm2 3.066046 1_565
I6 Rb0 3.793510 1_555
I6 Rb3 3.844115 1_555
I6 Rb1 4.119021 1_455
I7 Tm3 3.063129 1_555
I7 Tm2 3.066046 1_655
I7 Rb1 3.793510 1_555
I7 Rb2 3.844115 1_555
I7 Rb0 4.119021 1_655
I8 Tm1 3.065931 1_555
I8 Tm3 3.065931 1_555
I8 Rb3 3.725280 1_555
I8 Rb0 3.725755 1_655
I9 Tm3 3.065931 1_555
I9 Tm1 3.065931 1_556
I9 Rb2 3.725280 1_555
I9 Rb1 3.725755 1_455
I10 Tm2 3.065931 1_565
I10 Tm0 3.065931 1_566
I10 Rb1 3.725280 1_455
I10 Rb2 3.725755 1_565
I11 Tm0 3.065931 1_655
I11 Tm2 3.065931 1_655
I11 Rb0 3.725280 1_655
I11 Rb3 3.725755 1_545
