# generated using pymatgen
data_Ca3ReN4
_symmetry_space_group_name_H-M   'P 1'
_cell_length_a   17.08445964
_cell_length_b   17.08445964
_cell_length_c   9.39111830
_cell_angle_alpha   90.00000000
_cell_angle_beta   90.00000000
_cell_angle_gamma   119.99999922
_symmetry_Int_Tables_number   1
_chemical_formula_structural   Ca3ReN4
_chemical_formula_sum   'Ca54 Re18 N72'
_cell_volume   2373.83451883
_cell_formula_units_Z   18
loop_
 _symmetry_equiv_pos_site_id
 _symmetry_equiv_pos_as_xyz
  1  'x, y, z'
loop_
 _atom_site_type_symbol
 _atom_site_label
 _atom_site_symmetry_multiplicity
 _atom_site_fract_x
 _atom_site_fract_y
 _atom_site_fract_z
 _atom_site_occupancy
  Ca  Ca0  1  0.00000000  0.00000000  0.75058447  1
  Ca  Ca1  1  0.00000000  0.00000000  0.25058447  1
  Ca  Ca2  1  0.66666700  0.33333300  0.81202201  1
  Ca  Ca3  1  0.33333300  0.66666700  0.31202201  1
  Ca  Ca4  1  0.33333300  0.66666700  0.83664161  1
  Ca  Ca5  1  0.66666700  0.33333300  0.33664161  1
  Ca  Ca6  1  0.66882952  0.69127801  0.84756432  1
  Ca  Ca7  1  0.30872199  0.97755151  0.84756432  1
  Ca  Ca8  1  0.02244849  0.33117048  0.84756432  1
  Ca  Ca9  1  0.69127801  0.66882952  0.34756432  1
  Ca  Ca10  1  0.97755151  0.30872199  0.34756432  1
  Ca  Ca11  1  0.33117048  0.02244849  0.34756432  1
  Ca  Ca12  1  0.68793152  0.03135453  0.68157357  1
  Ca  Ca13  1  0.96864547  0.65657798  0.68157357  1
  Ca  Ca14  1  0.34342202  0.31206848  0.68157357  1
  Ca  Ca15  1  0.03135453  0.68793152  0.18157357  1
  Ca  Ca16  1  0.65657798  0.96864547  0.18157357  1
  Ca  Ca17  1  0.31206848  0.34342202  0.18157357  1
  Ca  Ca18  1  0.77717057  0.86604602  0.55234383  1
  Ca  Ca19  1  0.13395398  0.91112456  0.55234383  1
  Ca  Ca20  1  0.08887544  0.22282943  0.55234383  1
  Ca  Ca21  1  0.86604602  0.77717057  0.05234383  1
  Ca  Ca22  1  0.91112456  0.13395398  0.05234383  1
  Ca  Ca23  1  0.22282943  0.08887544  0.05234383  1
  Ca  Ca24  1  0.76823373  0.91813410  0.89434279  1
  Ca  Ca25  1  0.08186590  0.85009963  0.89434279  1
  Ca  Ca26  1  0.14990037  0.23176627  0.89434279  1
  Ca  Ca27  1  0.91813410  0.76823373  0.39434279  1
  Ca  Ca28  1  0.85009963  0.08186590  0.39434279  1
  Ca  Ca29  1  0.23176627  0.14990037  0.39434279  1
  Ca  Ca30  1  0.81989961  0.25687820  0.65096879  1
  Ca  Ca31  1  0.74312180  0.56302041  0.65096879  1
  Ca  Ca32  1  0.43697959  0.18010039  0.65096879  1
  Ca  Ca33  1  0.25687820  0.81989961  0.15096879  1
  Ca  Ca34  1  0.56302041  0.74312180  0.15096879  1
  Ca  Ca35  1  0.18010039  0.43697959  0.15096879  1
  Ca  Ca36  1  0.47817984  0.59584025  0.65650622  1
  Ca  Ca37  1  0.40415975  0.88233958  0.65650622  1
  Ca  Ca38  1  0.11766042  0.52182016  0.65650622  1
  Ca  Ca39  1  0.59584025  0.47817984  0.15650622  1
  Ca  Ca40  1  0.88233958  0.40415975  0.15650622  1
  Ca  Ca41  1  0.52182016  0.11766042  0.15650622  1
  Ca  Ca42  1  0.47007593  0.89370662  0.00308951  1
  Ca  Ca43  1  0.10629338  0.57636931  0.00308951  1
  Ca  Ca44  1  0.42363069  0.52992407  0.00308951  1
  Ca  Ca45  1  0.89370662  0.47007593  0.50308951  1
  Ca  Ca46  1  0.57636931  0.10629338  0.50308951  1
  Ca  Ca47  1  0.52992407  0.42363069  0.50308951  1
  Ca  Ca48  1  0.74130966  0.18626515  0.99185895  1
  Ca  Ca49  1  0.81373485  0.55504451  0.99185895  1
  Ca  Ca50  1  0.44495549  0.25869034  0.99185895  1
  Ca  Ca51  1  0.18626515  0.74130966  0.49185895  1
  Ca  Ca52  1  0.55504451  0.81373485  0.49185895  1
  Ca  Ca53  1  0.25869034  0.44495549  0.49185895  1
  Re  Re0  1  0.90162457  0.13043441  0.70950014  1
  Re  Re1  1  0.86956559  0.77119016  0.70950014  1
  Re  Re2  1  0.22880984  0.09837543  0.70950014  1
  Re  Re3  1  0.13043441  0.90162457  0.20950014  1
  Re  Re4  1  0.77119016  0.86956559  0.20950014  1
  Re  Re5  1  0.09837543  0.22880984  0.20950014  1
  Re  Re6  1  0.89206818  0.44502862  0.84064193  1
  Re  Re7  1  0.55497138  0.44703956  0.84064193  1
  Re  Re8  1  0.55296044  0.10793182  0.84064193  1
  Re  Re9  1  0.44502862  0.89206818  0.34064193  1
  Re  Re10  1  0.44703956  0.55497138  0.34064193  1
  Re  Re11  1  0.10793182  0.55296044  0.34064193  1
  Re  Re12  1  0.55842953  0.79246411  0.83194042  1
  Re  Re13  1  0.20753589  0.76596442  0.83194042  1
  Re  Re14  1  0.23403558  0.44157047  0.83194042  1
  Re  Re15  1  0.79246411  0.55842953  0.33194042  1
  Re  Re16  1  0.76596442  0.20753589  0.33194042  1
  Re  Re17  1  0.44157047  0.23403558  0.33194042  1
  N  N0  1  0.00152369  0.13695618  0.79662391  1
  N  N1  1  0.86304382  0.86456851  0.79662391  1
  N  N2  1  0.13543149  0.99847631  0.79662391  1
  N  N3  1  0.13695618  0.00152369  0.29662391  1
  N  N4  1  0.86456851  0.86304382  0.29662391  1
  N  N5  1  0.99847631  0.13543149  0.29662391  1
  N  N6  1  0.60920321  0.87812067  0.97359979  1
  N  N7  1  0.12187933  0.73108255  0.97359979  1
  N  N8  1  0.26891745  0.39079679  0.97359979  1
  N  N9  1  0.87812067  0.60920321  0.47359979  1
  N  N10  1  0.73108255  0.12187933  0.47359979  1
  N  N11  1  0.39079679  0.26891745  0.47359979  1
  N  N12  1  0.94006348  0.21308721  0.56039921  1
  N  N13  1  0.78691279  0.72697627  0.56039921  1
  N  N14  1  0.27302373  0.05993652  0.56039921  1
  N  N15  1  0.21308721  0.94006348  0.06039921  1
  N  N16  1  0.72697627  0.78691279  0.06039921  1
  N  N17  1  0.05993652  0.27302373  0.06039921  1
  N  N18  1  0.65686030  0.16445880  0.73168372  1
  N  N19  1  0.83554120  0.49240250  0.73168372  1
  N  N20  1  0.50759750  0.34313970  0.73168372  1
  N  N21  1  0.16445880  0.65686030  0.23168372  1
  N  N22  1  0.49240250  0.83554120  0.23168372  1
  N  N23  1  0.34313970  0.50759750  0.23168372  1
  N  N24  1  0.80328960  0.34072369  0.92568713  1
  N  N25  1  0.65927631  0.46256591  0.92568713  1
  N  N26  1  0.53743409  0.19671040  0.92568713  1
  N  N27  1  0.34072369  0.80328960  0.42568713  1
  N  N28  1  0.46256591  0.65927631  0.42568713  1
  N  N29  1  0.19671040  0.53743409  0.42568713  1
  N  N30  1  0.64900789  0.81378092  0.70199921  1
  N  N31  1  0.18621908  0.83522697  0.70199921  1
  N  N32  1  0.16477303  0.35099211  0.70199921  1
  N  N33  1  0.81378092  0.64900789  0.20199921  1
  N  N34  1  0.83522697  0.18621908  0.20199921  1
  N  N35  1  0.35099211  0.16477303  0.20199921  1
  N  N36  1  0.57875690  0.05078718  0.98724173  1
  N  N37  1  0.94921282  0.52796972  0.98724173  1
  N  N38  1  0.47203028  0.42124310  0.98724173  1
  N  N39  1  0.05078718  0.57875690  0.48724173  1
  N  N40  1  0.52796972  0.94921282  0.48724173  1
  N  N41  1  0.42124310  0.47203028  0.48724173  1
  N  N42  1  0.96239452  0.41653318  0.72351326  1
  N  N43  1  0.58346682  0.54586233  0.72351326  1
  N  N44  1  0.45413767  0.03760548  0.72351326  1
  N  N45  1  0.41653318  0.96239452  0.22351326  1
  N  N46  1  0.54586233  0.58346682  0.22351326  1
  N  N47  1  0.03760548  0.45413767  0.22351326  1
  N  N48  1  0.83675857  0.16036670  0.83757506  1
  N  N49  1  0.83963330  0.67639187  0.83757506  1
  N  N50  1  0.32360813  0.16324143  0.83757506  1
  N  N51  1  0.16036670  0.83675857  0.33757506  1
  N  N52  1  0.67639187  0.83963330  0.33757506  1
  N  N53  1  0.16324143  0.32360813  0.33757506  1
  N  N54  1  0.52040224  0.67824192  0.90775462  1
  N  N55  1  0.32175808  0.84216032  0.90775462  1
  N  N56  1  0.15783968  0.47959776  0.90775462  1
  N  N57  1  0.67824192  0.52040224  0.40775462  1
  N  N58  1  0.84216032  0.32175808  0.40775462  1
  N  N59  1  0.47959776  0.15783968  0.40775462  1
  N  N60  1  0.82062113  0.01412826  0.64144321  1
  N  N61  1  0.98587174  0.80649387  0.64144321  1
  N  N62  1  0.19350613  0.17937887  0.64144321  1
  N  N63  1  0.01412826  0.82062113  0.14144321  1
  N  N64  1  0.80649387  0.98587174  0.14144321  1
  N  N65  1  0.17937887  0.19350613  0.14144321  1
  N  N66  1  0.46417430  0.79794512  0.74748164  1
  N  N67  1  0.20205488  0.66623018  0.74748164  1
  N  N68  1  0.33376982  0.53582570  0.74748164  1
  N  N69  1  0.79794512  0.46417430  0.24748164  1
  N  N70  1  0.66623018  0.20205488  0.24748164  1
  N  N71  1  0.53582570  0.33376982  0.24748164  1
loop_
_geom_bond_atom_site_label_1
_geom_bond_atom_site_label_2
_geom_bond_distance
_geom_bond_site_symmetry_2
Ca0 N2 2.366727 1_545
Ca0 N1 2.366735 1_445
Ca0 N0 2.366743 1_555
Ca1 N5 2.366727 1_455
Ca1 N4 2.366735 1_445
Ca1 N3 2.366743 1_555
Ca2 N24 2.511730 1_555
Ca2 N26 2.511737 1_555
Ca2 N25 2.511746 1_555
Ca2 N18 2.904798 1_555
Ca2 N19 2.904813 1_555
Ca2 N20 2.904831 1_555
Ca3 N27 2.511730 1_555
Ca3 N29 2.511737 1_555
Ca3 N28 2.511746 1_555
Ca3 N21 2.904798 1_555
Ca3 N22 2.904813 1_555
Ca3 N23 2.904831 1_555
Ca4 N68 2.390530 1_555
Ca4 N67 2.390530 1_555
Ca4 N66 2.390530 1_555
Ca5 N71 2.390530 1_555
Ca5 N70 2.390530 1_555
Ca5 N69 2.390530 1_555
Ca6 N16 2.455264 1_556
Ca6 N43 2.456198 1_555
Ca6 N54 2.496925 1_555
Ca6 N30 2.659394 1_555
Ca6 N49 3.054646 1_555
Ca7 N15 2.455264 1_556
Ca7 N44 2.456196 1_565
Ca7 N55 2.496925 1_555
Ca7 N31 2.659394 1_555
Ca7 N50 3.054646 1_565
Ca8 N17 2.455264 1_556
Ca8 N42 2.456210 1_455
Ca8 N56 2.496925 1_555
Ca8 N32 2.659394 1_555
Ca8 N48 3.054646 1_455
Ca9 N13 2.455264 1_555
Ca9 N46 2.456198 1_555
Ca9 N57 2.496925 1_555
Ca9 N33 2.659394 1_555
Ca9 N52 3.054646 1_555
Ca10 N12 2.455264 1_555
Ca10 N47 2.456196 1_655
Ca10 N58 2.496925 1_555
Ca10 N34 2.659394 1_555
Ca10 N53 3.054646 1_655
Ca11 N14 2.455264 1_555
Ca11 N45 2.456210 1_545
Ca11 N59 2.496925 1_555
Ca11 N35 2.659394 1_555
Ca11 N51 3.054646 1_545
Ca12 N10 2.368508 1_555
Ca12 N60 2.456578 1_555
Ca12 N18 2.623263 1_555
Ca12 N48 2.804483 1_555
Ca12 N40 2.988873 1_545
Ca13 N9 2.368508 1_555
Ca13 N61 2.456579 1_555
Ca13 N19 2.623263 1_555
Ca13 N49 2.804475 1_555
Ca13 N39 2.988884 1_655
Ca14 N11 2.368516 1_555
Ca14 N62 2.456579 1_555
Ca14 N20 2.623263 1_555
Ca14 N50 2.804489 1_555
Ca14 N41 2.988872 1_555
Ca15 N7 2.368508 1_554
Ca15 N63 2.456578 1_555
Ca15 N21 2.623263 1_555
Ca15 N51 2.804483 1_555
Ca15 N37 2.988873 1_454
Ca16 N6 2.368508 1_554
Ca16 N64 2.456579 1_555
Ca16 N22 2.623263 1_555
Ca16 N52 2.804475 1_555
Ca16 N36 2.988884 1_564
Ca17 N8 2.368516 1_554
Ca17 N65 2.456579 1_555
Ca17 N23 2.623263 1_555
Ca17 N53 2.804489 1_555
Ca17 N38 2.988872 1_554
Ca18 N30 2.368907 1_555
Ca18 N60 2.402829 1_565
Ca18 N13 2.464534 1_555
Ca18 N52 2.541471 1_555
Ca18 N1 2.729977 1_555
Ca18 N4 2.841810 1_555
Ca19 N31 2.368907 1_555
Ca19 N61 2.402826 1_455
Ca19 N14 2.464534 1_565
Ca19 N51 2.541471 1_555
Ca19 N2 2.729986 1_555
Ca19 N3 2.841801 1_565
Ca20 N32 2.368907 1_555
Ca20 N62 2.402814 1_555
Ca20 N12 2.464534 1_455
Ca20 N53 2.541471 1_555
Ca20 N0 2.729981 1_555
Ca20 N5 2.841805 1_455
Ca21 N33 2.368907 1_555
Ca21 N63 2.402829 1_655
Ca21 N16 2.464534 1_555
Ca21 N49 2.541471 1_554
Ca21 N4 2.729977 1_555
Ca21 N1 2.841810 1_554
Ca22 N34 2.368907 1_555
Ca22 N64 2.402826 1_545
Ca22 N17 2.464534 1_655
Ca22 N48 2.541471 1_554
Ca22 N5 2.729986 1_555
Ca22 N0 2.841801 1_654
Ca23 N35 2.368907 1_555
Ca23 N65 2.402814 1_555
Ca23 N15 2.464534 1_545
Ca23 N50 2.541471 1_554
Ca23 N3 2.729981 1_555
Ca23 N2 2.841805 1_544
Ca24 N1 2.405336 1_555
Ca24 N16 2.524760 1_556
Ca24 N64 2.528837 1_556
Ca24 N6 2.558478 1_555
Ca24 N30 2.637953 1_555
Ca24 N60 2.768306 1_565
Ca25 N2 2.405351 1_555
Ca25 N15 2.524760 1_556
Ca25 N63 2.528837 1_556
Ca25 N7 2.558478 1_555
Ca25 N31 2.637953 1_555
Ca25 N61 2.768307 1_455
Ca26 N0 2.405348 1_555
Ca26 N17 2.524760 1_556
Ca26 N65 2.528843 1_556
Ca26 N8 2.558478 1_555
Ca26 N32 2.637953 1_555
Ca26 N62 2.768299 1_555
Ca27 N4 2.405336 1_555
Ca27 N13 2.524760 1_555
Ca27 N61 2.528837 1_555
Ca27 N9 2.558478 1_555
Ca27 N33 2.637953 1_555
Ca27 N63 2.768306 1_655
Ca28 N5 2.405351 1_555
Ca28 N12 2.524760 1_555
Ca28 N60 2.528837 1_555
Ca28 N10 2.558478 1_555
Ca28 N34 2.637953 1_555
Ca28 N64 2.768307 1_545
Ca29 N3 2.405348 1_555
Ca29 N14 2.524760 1_555
Ca29 N62 2.528843 1_555
Ca29 N11 2.558478 1_555
Ca29 N35 2.637953 1_555
Ca29 N65 2.768299 1_555
Ca30 N58 2.483670 1_555
Ca30 N48 2.519448 1_555
Ca30 N18 2.535399 1_555
Ca30 N10 2.626162 1_555
Ca30 N12 2.652092 1_555
Ca30 N42 2.681479 1_555
Ca30 N24 3.032308 1_555
Ca31 N57 2.483669 1_555
Ca31 N49 2.519455 1_555
Ca31 N19 2.535372 1_555
Ca31 N9 2.626160 1_555
Ca31 N13 2.652107 1_555
Ca31 N43 2.681493 1_555
Ca31 N25 3.032303 1_555
Ca32 N59 2.483664 1_555
Ca32 N50 2.519460 1_555
Ca32 N20 2.535401 1_555
Ca32 N11 2.626172 1_555
Ca32 N14 2.652103 1_555
Ca32 N44 2.681460 1_555
Ca32 N26 3.032300 1_555
Ca33 N55 2.483670 1_554
Ca33 N51 2.519448 1_555
Ca33 N21 2.535399 1_555
Ca33 N7 2.626162 1_554
Ca33 N15 2.652092 1_555
Ca33 N45 2.681479 1_555
Ca33 N27 3.032308 1_555
Ca34 N54 2.483669 1_554
Ca34 N52 2.519455 1_555
Ca34 N22 2.535372 1_555
Ca34 N6 2.626160 1_554
Ca34 N16 2.652107 1_555
Ca34 N46 2.681493 1_555
Ca34 N28 3.032303 1_555
Ca35 N56 2.483664 1_554
Ca35 N53 2.519460 1_555
Ca35 N23 2.535401 1_555
Ca35 N8 2.626172 1_554
Ca35 N17 2.652103 1_555
Ca35 N47 2.681460 1_555
Ca35 N29 3.032300 1_555
Ca36 N68 2.310518 1_555
Ca36 N41 2.426853 1_555
Ca36 N43 2.428268 1_555
Ca36 N28 2.496703 1_555
Ca36 N54 2.655929 1_555
Ca37 N66 2.310503 1_555
Ca37 N40 2.426853 1_555
Ca37 N44 2.428284 1_565
Ca37 N27 2.496702 1_555
Ca37 N55 2.655929 1_555
Ca38 N67 2.310516 1_555
Ca38 N39 2.426853 1_555
Ca38 N42 2.428280 1_455
Ca38 N29 2.496702 1_555
Ca38 N56 2.655929 1_555
Ca39 N71 2.310518 1_555
Ca39 N38 2.426853 1_554
Ca39 N46 2.428268 1_555
Ca39 N25 2.496703 1_554
Ca39 N57 2.655929 1_555
Ca40 N69 2.310503 1_555
Ca40 N37 2.426853 1_554
Ca40 N47 2.428284 1_655
Ca40 N24 2.496702 1_554
Ca40 N58 2.655929 1_555
Ca41 N70 2.310516 1_555
Ca41 N36 2.426853 1_554
Ca41 N45 2.428280 1_545
Ca41 N26 2.496702 1_554
Ca41 N59 2.655929 1_555
Ca42 N36 2.385108 1_564
Ca42 N55 2.401336 1_554
Ca42 N22 2.473982 1_555
Ca42 N6 2.535792 1_554
Ca42 N45 2.751784 1_555
Ca42 N66 2.878185 1_554
Ca43 N37 2.385108 1_454
Ca43 N56 2.401336 1_554
Ca43 N21 2.473976 1_555
Ca43 N7 2.535792 1_554
Ca43 N47 2.751794 1_555
Ca43 N67 2.878189 1_554
Ca44 N38 2.385108 1_554
Ca44 N54 2.401336 1_554
Ca44 N23 2.473974 1_555
Ca44 N8 2.535792 1_554
Ca44 N46 2.751794 1_555
Ca44 N68 2.878194 1_554
Ca45 N39 2.385108 1_655
Ca45 N58 2.401336 1_555
Ca45 N19 2.473982 1_555
Ca45 N9 2.535792 1_555
Ca45 N42 2.751784 1_555
Ca45 N69 2.878185 1_555
Ca46 N40 2.385108 1_545
Ca46 N59 2.401336 1_555
Ca46 N18 2.473976 1_555
Ca46 N10 2.535792 1_555
Ca46 N44 2.751794 1_555
Ca46 N70 2.878189 1_555
Ca47 N41 2.385108 1_555
Ca47 N57 2.401336 1_555
Ca47 N20 2.473974 1_555
Ca47 N11 2.535792 1_555
Ca47 N43 2.751794 1_555
Ca47 N71 2.878194 1_555
Ca48 N48 2.382384 1_555
Ca48 N24 2.382573 1_555
Ca48 N34 2.543675 1_556
Ca48 N36 2.577535 1_555
Ca48 N18 2.766364 1_555
Ca48 N70 2.797657 1_556
Ca49 N49 2.382384 1_555
Ca49 N25 2.382573 1_555
Ca49 N33 2.543675 1_556
Ca49 N37 2.577535 1_555
Ca49 N19 2.766357 1_555
Ca49 N69 2.797666 1_556
Ca50 N50 2.382385 1_555
Ca50 N26 2.382573 1_555
Ca50 N35 2.543675 1_556
Ca50 N38 2.577535 1_555
Ca50 N20 2.766362 1_555
Ca50 N71 2.797663 1_556
Ca51 N51 2.382384 1_555
Ca51 N27 2.382573 1_555
Ca51 N31 2.543675 1_555
Ca51 N39 2.577535 1_555
Ca51 N21 2.766364 1_555
Ca51 N67 2.797657 1_555
Ca52 N52 2.382384 1_555
Ca52 N28 2.382573 1_555
Ca52 N30 2.543675 1_555
Ca52 N40 2.577535 1_555
Ca52 N22 2.766357 1_555
Ca52 N66 2.797666 1_555
Ca53 N53 2.382385 1_555
Ca53 N29 2.382573 1_555
Ca53 N32 2.543675 1_555
Ca53 N41 2.577535 1_555
Ca53 N23 2.766362 1_555
Ca53 N68 2.797663 1_555
N0 Re0 1.845152 1_455
N1 Re1 1.845167 1_555
N2 Re2 1.845159 1_565
N3 Re3 1.845152 1_545
N4 Re4 1.845167 1_555
N5 Re5 1.845159 1_655
N6 Re12 1.842383 1_555
N7 Re13 1.842385 1_555
N8 Re14 1.842374 1_555
N9 Re15 1.842383 1_555
N10 Re16 1.842385 1_555
N11 Re17 1.842374 1_555
N12 Re0 1.859714 1_555
N13 Re1 1.859714 1_555
N14 Re2 1.859714 1_555
N15 Re3 1.859714 1_555
N16 Re4 1.859714 1_555
N17 Re5 1.859714 1_555
N18 Re8 1.848323 1_555
N19 Re6 1.848335 1_555
N20 Re7 1.848322 1_555
N21 Re11 1.848323 1_555
N22 Re9 1.848335 1_555
N23 Re10 1.848322 1_555
N24 Re6 1.846902 1_555
N25 Re7 1.846902 1_555
N26 Re8 1.846902 1_555
N27 Re9 1.846902 1_555
N28 Re10 1.846902 1_555
N29 Re11 1.846902 1_555
N30 Re12 1.858192 1_555
N31 Re13 1.858204 1_555
N32 Re14 1.858196 1_555
N33 Re15 1.858192 1_555
N34 Re16 1.858204 1_555
N35 Re17 1.858196 1_555
N36 Re8 1.863608 1_555
N37 Re6 1.863608 1_555
N38 Re7 1.863608 1_555
N39 Re11 1.863608 1_555
N40 Re9 1.863608 1_555
N41 Re10 1.863608 1_555
N42 Re6 1.864250 1_555
N43 Re7 1.864263 1_555
N44 Re8 1.864259 1_555
N45 Re9 1.864250 1_555
N46 Re10 1.864263 1_555
N47 Re11 1.864259 1_555
N48 Re0 1.871623 1_555
N49 Re1 1.871623 1_555
N50 Re2 1.871623 1_555
N51 Re3 1.871623 1_555
N52 Re4 1.871623 1_555
N53 Re5 1.871623 1_555
N54 Re12 1.862595 1_555
N55 Re13 1.862598 1_555
N56 Re14 1.862609 1_555
N57 Re15 1.862595 1_555
N58 Re16 1.862598 1_555
N59 Re17 1.862609 1_555
N60 Re0 1.876726 1_555
N61 Re1 1.876722 1_555
N62 Re2 1.876737 1_555
N63 Re3 1.876726 1_555
N64 Re4 1.876722 1_555
N65 Re5 1.876737 1_555
N66 Re12 1.838948 1_555
N67 Re13 1.838917 1_555
N68 Re14 1.838931 1_555
N69 Re15 1.838948 1_555
N70 Re16 1.838917 1_555
N71 Re17 1.838931 1_555
