# generated using pymatgen
data_Dy(Co2B)6
_symmetry_space_group_name_H-M   'P 1'
_cell_length_a   5.95156683
_cell_length_b   5.95156683
_cell_length_c   5.95156696
_cell_angle_alpha   103.98873115
_cell_angle_beta   103.98873115
_cell_angle_gamma   103.98872138
_symmetry_Int_Tables_number   1
_chemical_formula_structural   Dy(Co2B)6
_chemical_formula_sum   'Dy1 Co12 B6'
_cell_volume   188.13630746
_cell_formula_units_Z   1
loop_
 _symmetry_equiv_pos_site_id
 _symmetry_equiv_pos_as_xyz
  1  'x, y, z'
loop_
 _atom_site_type_symbol
 _atom_site_label
 _atom_site_symmetry_multiplicity
 _atom_site_fract_x
 _atom_site_fract_y
 _atom_site_fract_z
 _atom_site_occupancy
  Dy  Dy0  1  0.00000000  0.00000000  0.00000000  1
  Co  Co0  1  0.13254900  0.86745100  0.50000000  1
  Co  Co1  1  0.50000000  0.13254900  0.86745100  1
  Co  Co2  1  0.86745100  0.50000000  0.13254900  1
  Co  Co3  1  0.50000000  0.86745100  0.13254900  1
  Co  Co4  1  0.13254900  0.50000000  0.86745100  1
  Co  Co5  1  0.86745100  0.13254900  0.50000000  1
  Co  Co6  1  0.54375400  0.81383400  0.54375400  1
  Co  Co7  1  0.54375400  0.54375400  0.81383400  1
  Co  Co8  1  0.81383400  0.54375400  0.54375400  1
  Co  Co9  1  0.45624600  0.18616600  0.45624600  1
  Co  Co10  1  0.45624600  0.45624600  0.18616600  1
  Co  Co11  1  0.18616600  0.45624600  0.45624600  1
  B  B0  1  0.76778600  0.32378900  0.76778600  1
  B  B1  1  0.76778600  0.76778600  0.32378900  1
  B  B2  1  0.32378900  0.76778600  0.76778600  1
  B  B3  1  0.23221400  0.67621100  0.23221400  1
  B  B4  1  0.23221400  0.23221400  0.67621100  1
  B  B5  1  0.67621100  0.23221400  0.23221400  1
loop_
_geom_bond_atom_site_label_1
_geom_bond_atom_site_label_2
_geom_bond_distance
_geom_bond_site_symmetry_2
Co0 Dy0 3.225027 1_566
Co0 Dy0 3.225027 1_565
Co1 Dy0 3.225027 1_656
Co1 Dy0 3.225027 1_556
Co2 Dy0 3.225027 1_655
Co2 Dy0 3.225027 1_665
Co3 Dy0 3.225027 1_565
Co3 Dy0 3.225027 1_665
Co4 Dy0 3.225027 1_566
Co4 Dy0 3.225027 1_556
Co5 Dy0 3.225027 1_656
Co5 Dy0 3.225027 1_655
Co6 Dy0 3.082273 1_666
Co7 Dy0 3.082273 1_666
Co8 Dy0 3.082273 1_666
Co9 Dy0 3.082273 1_555
Co10 Dy0 3.082273 1_555
Co11 Dy0 3.082273 1_555
B0 Co5 2.023307 1_555
B0 Co1 2.023307 1_555
B0 Co2 2.034830 1_556
B0 Co4 2.034830 1_655
B0 Co7 2.100916 1_555
B0 Co8 2.100916 1_555
B0 Co9 2.101451 1_555
B0 Dy0 3.030730 1_656
B1 Co2 2.023307 1_555
B1 Co3 2.023307 1_555
B1 Co5 2.034830 1_565
B1 Co0 2.034830 1_655
B1 Co8 2.100916 1_555
B1 Co6 2.100916 1_555
B1 Co10 2.101451 1_555
B1 Dy0 3.030730 1_665
B2 Co0 2.023307 1_555
B2 Co4 2.023307 1_555
B2 Co3 2.034830 1_556
B2 Co1 2.034830 1_565
B2 Co7 2.100916 1_555
B2 Co6 2.100916 1_555
B2 Co11 2.101451 1_555
B2 Dy0 3.030730 1_566
B3 Co0 2.023307 1_555
B3 Co3 2.023307 1_555
B3 Co4 2.034830 1_554
B3 Co2 2.034830 1_455
B3 Co10 2.100916 1_555
B3 Co11 2.100916 1_555
B3 Co6 2.101451 1_555
B3 Dy0 3.030730 1_565
B4 Co1 2.023307 1_555
B4 Co4 2.023307 1_555
B4 Co0 2.034830 1_545
B4 Co5 2.034830 1_455
B4 Co11 2.100916 1_555
B4 Co9 2.100916 1_555
B4 Co7 2.101451 1_555
B4 Dy0 3.030730 1_556
B5 Co5 2.023307 1_555
B5 Co2 2.023307 1_555
B5 Co1 2.034830 1_554
B5 Co3 2.034830 1_545
B5 Co10 2.100916 1_555
B5 Co9 2.100916 1_555
B5 Co8 2.101451 1_555
B5 Dy0 3.030730 1_655
