# generated using pymatgen
data_Ba2U(AsO5)2
_symmetry_space_group_name_H-M   'P 1'
_cell_length_a   8.91421300
_cell_length_b   11.38750300
_cell_length_c   21.73833345
_cell_angle_alpha   74.46553640
_cell_angle_beta   90.00000000
_cell_angle_gamma   90.00000000
_symmetry_Int_Tables_number   1
_chemical_formula_structural   Ba2U(AsO5)2
_chemical_formula_sum   'Ba16 U8 As16 O80'
_cell_volume   2126.06111311
_cell_formula_units_Z   8
loop_
 _symmetry_equiv_pos_site_id
 _symmetry_equiv_pos_as_xyz
  1  'x, y, z'
loop_
 _atom_site_type_symbol
 _atom_site_label
 _atom_site_symmetry_multiplicity
 _atom_site_fract_x
 _atom_site_fract_y
 _atom_site_fract_z
 _atom_site_occupancy
  Ba  Ba0  1  0.01525100  0.44521000  0.78074200  1
  Ba  Ba1  1  0.48474900  0.44521000  0.28074200  1
  Ba  Ba2  1  0.98474900  0.55479000  0.21925800  1
  Ba  Ba3  1  0.51525100  0.55479000  0.71925800  1
  Ba  Ba4  1  0.29557800  0.48539000  0.05580500  1
  Ba  Ba5  1  0.20442200  0.48539000  0.55580500  1
  Ba  Ba6  1  0.70442200  0.51461000  0.94419500  1
  Ba  Ba7  1  0.79557800  0.51461000  0.44419500  1
  Ba  Ba8  1  0.99797300  0.04244900  0.71864200  1
  Ba  Ba9  1  0.50202700  0.04244900  0.21864200  1
  Ba  Ba10  1  0.00202700  0.95755100  0.28135800  1
  Ba  Ba11  1  0.49797300  0.95755100  0.78135800  1
  Ba  Ba12  1  0.29834500  0.96200300  0.56291300  1
  Ba  Ba13  1  0.20165500  0.96200300  0.06291300  1
  Ba  Ba14  1  0.70165500  0.03799700  0.43708700  1
  Ba  Ba15  1  0.79834500  0.03799700  0.93708700  1
  U  U0  1  0.09571400  0.75128300  0.89340400  1
  U  U1  1  0.40428600  0.75128300  0.39340400  1
  U  U2  1  0.90428600  0.24871700  0.10659600  1
  U  U3  1  0.59571400  0.24871700  0.60659600  1
  U  U4  1  0.90601800  0.74935800  0.62688500  1
  U  U5  1  0.59398200  0.74935800  0.12688500  1
  U  U6  1  0.09398200  0.25064200  0.37311500  1
  U  U7  1  0.40601800  0.25064200  0.87311500  1
  As  As0  1  0.22179900  0.27596800  0.20949300  1
  As  As1  1  0.27820100  0.27596800  0.70949300  1
  As  As2  1  0.77820100  0.72403200  0.79050700  1
  As  As3  1  0.72179900  0.72403200  0.29050700  1
  As  As4  1  0.73647900  0.23210200  0.77113500  1
  As  As5  1  0.76352100  0.23210200  0.27113500  1
  As  As6  1  0.26352100  0.76789800  0.22886500  1
  As  As7  1  0.23647900  0.76789800  0.72886500  1
  As  As8  1  0.03599100  0.79832200  0.46467100  1
  As  As9  1  0.46400900  0.79832200  0.96467100  1
  As  As10  1  0.96400900  0.20167800  0.53532900  1
  As  As11  1  0.53599100  0.20167800  0.03532900  1
  As  As12  1  0.95560300  0.71305900  0.04862300  1
  As  As13  1  0.54439700  0.71305900  0.54862300  1
  As  As14  1  0.04439700  0.28694100  0.95137700  1
  As  As15  1  0.45560300  0.28694100  0.45137700  1
  O  O0  1  0.08114700  0.34131200  0.15445300  1
  O  O1  1  0.41885300  0.34131200  0.65445300  1
  O  O2  1  0.91885300  0.65868800  0.84554700  1
  O  O3  1  0.58114700  0.65868800  0.34554700  1
  O  O4  1  0.70109800  0.16804600  0.70751800  1
  O  O5  1  0.79890200  0.16804600  0.20751800  1
  O  O6  1  0.29890200  0.83195400  0.29248200  1
  O  O7  1  0.20109800  0.83195400  0.79248200  1
  O  O8  1  0.59604000  0.16559300  0.82581200  1
  O  O9  1  0.90396000  0.16559300  0.32581200  1
  O  O10  1  0.40396000  0.83440700  0.17418800  1
  O  O11  1  0.09604000  0.83440700  0.67418800  1
  O  O12  1  0.21652100  0.12171700  0.23262600  1
  O  O13  1  0.28347900  0.12171700  0.73262600  1
  O  O14  1  0.78347900  0.87828300  0.76737400  1
  O  O15  1  0.71652100  0.87828300  0.26737400  1
  O  O16  1  0.90352300  0.17532200  0.80416400  1
  O  O17  1  0.59647700  0.17532200  0.30416400  1
  O  O18  1  0.09647700  0.82467800  0.19583600  1
  O  O19  1  0.40352300  0.82467800  0.69583600  1
  O  O20  1  0.17901800  0.34170400  0.27180500  1
  O  O21  1  0.32098200  0.34170400  0.77180500  1
  O  O22  1  0.82098200  0.65829600  0.72819500  1
  O  O23  1  0.67901800  0.65829600  0.22819500  1
  O  O24  1  0.73037200  0.38627600  0.74893900  1
  O  O25  1  0.76962800  0.38627600  0.24893900  1
  O  O26  1  0.26962800  0.61372400  0.25106100  1
  O  O27  1  0.23037200  0.61372400  0.75106100  1
  O  O28  1  0.01585700  0.60849600  0.63431100  1
  O  O29  1  0.48414300  0.60849600  0.13431100  1
  O  O30  1  0.98414300  0.39150400  0.36568900  1
  O  O31  1  0.51585700  0.39150400  0.86568900  1
  O  O32  1  0.98793900  0.89448200  0.87712600  1
  O  O33  1  0.51206100  0.89448200  0.37712600  1
  O  O34  1  0.01206100  0.10551800  0.12287400  1
  O  O35  1  0.48793900  0.10551800  0.62287400  1
  O  O36  1  0.79875500  0.66247100  0.09564900  1
  O  O37  1  0.70124500  0.66247100  0.59564900  1
  O  O38  1  0.20124500  0.33752900  0.90435100  1
  O  O39  1  0.29875500  0.33752900  0.40435100  1
  O  O40  1  0.95650300  0.86806100  0.02241800  1
  O  O41  1  0.54349700  0.86806100  0.52241800  1
  O  O42  1  0.04349700  0.13193900  0.97758200  1
  O  O43  1  0.45650300  0.13193900  0.47758200  1
  O  O44  1  0.01756500  0.85021300  0.53310900  1
  O  O45  1  0.48243500  0.85021300  0.03310900  1
  O  O46  1  0.98243500  0.14978700  0.46689100  1
  O  O47  1  0.51756500  0.14978700  0.96689100  1
  O  O48  1  0.38944800  0.33548800  0.17934400  1
  O  O49  1  0.11055200  0.33548800  0.67934400  1
  O  O50  1  0.61055200  0.66451200  0.82065600  1
  O  O51  1  0.88944800  0.66451200  0.32065600  1
  O  O52  1  0.80355700  0.88843800  0.62407300  1
  O  O53  1  0.69644300  0.88843800  0.12407300  1
  O  O54  1  0.19644300  0.11156200  0.37592700  1
  O  O55  1  0.30355700  0.11156200  0.87592700  1
  O  O56  1  0.00165700  0.64553600  0.48599500  1
  O  O57  1  0.49834300  0.64553600  0.98599500  1
  O  O58  1  0.99834300  0.35446400  0.51400500  1
  O  O59  1  0.50165700  0.35446400  0.01400500  1
  O  O60  1  0.94800300  0.65746600  0.98120900  1
  O  O61  1  0.55199700  0.65746600  0.48120900  1
  O  O62  1  0.05199700  0.34253400  0.01879100  1
  O  O63  1  0.44800300  0.34253400  0.51879100  1
  O  O64  1  0.20391300  0.61021900  0.91088600  1
  O  O65  1  0.29608700  0.61021900  0.41088600  1
  O  O66  1  0.79608700  0.38978100  0.08911400  1
  O  O67  1  0.70391300  0.38978100  0.58911400  1
  O  O68  1  0.91943900  0.88155600  0.40760000  1
  O  O69  1  0.58056100  0.88155600  0.90760000  1
  O  O70  1  0.08056100  0.11844400  0.59240000  1
  O  O71  1  0.41943900  0.11844400  0.09240000  1
  O  O72  1  0.11014900  0.65433900  0.09282200  1
  O  O73  1  0.38985100  0.65433900  0.59282200  1
  O  O74  1  0.88985100  0.34566100  0.90717800  1
  O  O75  1  0.61014900  0.34566100  0.40717800  1
  O  O76  1  0.22412500  0.82857800  0.44365500  1
  O  O77  1  0.27587500  0.82857800  0.94365500  1
  O  O78  1  0.77587500  0.17142200  0.55634500  1
  O  O79  1  0.72412500  0.17142200  0.05634500  1
loop_
_geom_bond_atom_site_label_1
_geom_bond_atom_site_label_2
_geom_bond_distance
_geom_bond_site_symmetry_2
Ba0 O27 2.666986 1_555
Ba0 O24 2.761482 1_455
Ba0 O74 2.901731 1_455
Ba0 O49 2.935412 1_555
Ba0 O22 2.950782 1_455
Ba0 O21 2.996199 1_555
Ba0 O38 3.115754 1_555
Ba0 O16 3.139825 1_455
Ba0 O28 3.227952 1_555
Ba0 O2 3.235280 1_455
Ba1 O26 2.666986 1_555
Ba1 O25 2.761482 1_555
Ba1 O75 2.901731 1_555
Ba1 O48 2.935412 1_555
Ba1 O23 2.950782 1_555
Ba1 O20 2.996199 1_555
Ba1 O39 3.115754 1_555
Ba1 O17 3.139825 1_555
Ba1 O29 3.227952 1_555
Ba1 O3 3.235280 1_555
Ba2 O25 2.666986 1_555
Ba2 O26 2.761482 1_655
Ba2 O72 2.901731 1_655
Ba2 O51 2.935412 1_555
Ba2 O20 2.950782 1_655
Ba2 O23 2.996199 1_555
Ba2 O36 3.115754 1_555
Ba2 O18 3.139825 1_655
Ba2 O30 3.227952 1_555
Ba2 O0 3.235280 1_655
Ba3 O24 2.666986 1_555
Ba3 O27 2.761482 1_555
Ba3 O73 2.901731 1_555
Ba3 O50 2.935412 1_555
Ba3 O21 2.950782 1_555
Ba3 O22 2.996199 1_555
Ba3 O37 3.115754 1_555
Ba3 O19 3.139825 1_555
Ba3 O31 3.227952 1_555
Ba3 O1 3.235280 1_555
Ba4 O59 2.673733 1_555
Ba4 O57 2.722749 1_554
Ba4 O72 2.812550 1_555
Ba4 O48 2.893213 1_555
Ba4 O62 2.951205 1_555
Ba4 O29 2.997433 1_555
Ba4 O0 3.009934 1_555
Ba4 O64 3.195944 1_554
Ba5 O58 2.673733 1_455
Ba5 O56 2.722749 1_555
Ba5 O73 2.812550 1_555
Ba5 O49 2.893213 1_555
Ba5 O63 2.951205 1_555
Ba5 O28 2.997433 1_555
Ba5 O1 3.009934 1_555
Ba5 O65 3.195944 1_555
Ba6 O57 2.673733 1_555
Ba6 O59 2.722749 1_556
Ba6 O74 2.812550 1_555
Ba6 O50 2.893213 1_555
Ba6 O60 2.951205 1_555
Ba6 O31 2.997433 1_555
Ba6 O2 3.009934 1_555
Ba6 O66 3.195944 1_556
Ba7 O56 2.673733 1_655
Ba7 O58 2.722749 1_555
Ba7 O75 2.812550 1_555
Ba7 O51 2.893213 1_555
Ba7 O61 2.951205 1_555
Ba7 O30 2.997433 1_555
Ba7 O3 3.009934 1_555
Ba7 O67 3.195944 1_555
Ba8 O14 2.685551 1_545
Ba8 O13 2.744363 1_655
Ba8 O70 2.747719 1_655
Ba8 O16 2.821584 1_555
Ba8 O11 2.921790 1_645
Ba8 O4 2.987017 1_555
Ba8 O7 3.088678 1_645
Ba9 O15 2.685551 1_545
Ba9 O12 2.744363 1_555
Ba9 O71 2.747719 1_555
Ba9 O17 2.821584 1_555
Ba9 O10 2.921790 1_545
Ba9 O5 2.987017 1_555
Ba9 O6 3.088678 1_545
Ba10 O12 2.685551 1_565
Ba10 O15 2.744363 1_455
Ba10 O68 2.747719 1_455
Ba10 O18 2.821584 1_555
Ba10 O9 2.921790 1_465
Ba10 O6 2.987017 1_555
Ba10 O5 3.088678 1_465
Ba11 O13 2.685551 1_565
Ba11 O14 2.744363 1_555
Ba11 O69 2.747719 1_555
Ba11 O19 2.821584 1_555
Ba11 O8 2.921790 1_565
Ba11 O7 2.987017 1_555
Ba11 O4 3.088678 1_565
Ba12 O41 2.683174 1_555
Ba12 O43 2.692696 1_565
Ba12 O70 2.822252 1_565
Ba12 O35 2.892618 1_565
Ba12 O44 2.957492 1_555
Ba12 O19 3.041959 1_555
Ba12 O11 3.054841 1_555
Ba13 O40 2.683174 1_455
Ba13 O42 2.692696 1_564
Ba13 O71 2.822252 1_565
Ba13 O34 2.892618 1_565
Ba13 O45 2.957492 1_555
Ba13 O18 3.041959 1_555
Ba13 O10 3.054841 1_555
Ba14 O43 2.683174 1_555
Ba14 O41 2.692696 1_545
Ba14 O68 2.822252 1_545
Ba14 O33 2.892618 1_545
Ba14 O46 2.957492 1_555
Ba14 O17 3.041959 1_555
Ba14 O9 3.054841 1_555
Ba15 O42 2.683174 1_655
Ba15 O40 2.692696 1_546
Ba15 O69 2.822252 1_545
Ba15 O32 2.892618 1_545
Ba15 O47 2.957492 1_555
Ba15 O16 3.041959 1_555
Ba15 O8 3.054841 1_555
As0 O12 1.693331 1_555
As0 O48 1.698351 1_555
As0 O0 1.755104 1_555
As0 O20 1.756059 1_555
As1 O13 1.693331 1_555
As1 O49 1.698351 1_555
As1 O1 1.755104 1_555
As1 O21 1.756059 1_555
As2 O14 1.693331 1_555
As2 O50 1.698351 1_555
As2 O2 1.755104 1_555
As2 O22 1.756059 1_555
As3 O15 1.693331 1_555
As3 O51 1.698351 1_555
As3 O3 1.755104 1_555
As3 O23 1.756059 1_555
As4 O24 1.692442 1_555
As4 O16 1.703596 1_555
As4 O8 1.752550 1_555
As4 O4 1.756237 1_555
As5 O25 1.692442 1_555
As5 O17 1.703596 1_555
As5 O9 1.752550 1_555
As5 O5 1.756237 1_555
As6 O26 1.692442 1_555
As6 O18 1.703596 1_555
As6 O10 1.752550 1_555
As6 O6 1.756237 1_555
As7 O27 1.692442 1_555
As7 O19 1.703596 1_555
As7 O11 1.752550 1_555
As7 O7 1.756237 1_555
As8 O68 1.699158 1_455
As8 O56 1.704007 1_555
As8 O76 1.748046 1_555
As8 O44 1.749392 1_555
As9 O69 1.699158 1_555
As9 O57 1.704007 1_555
As9 O77 1.748046 1_555
As9 O45 1.749392 1_556
As10 O70 1.699158 1_655
As10 O58 1.704007 1_555
As10 O78 1.748046 1_555
As10 O46 1.749392 1_555
As11 O71 1.699158 1_555
As11 O59 1.704007 1_555
As11 O79 1.748046 1_555
As11 O47 1.749392 1_554
As12 O40 1.703385 1_555
As12 O72 1.709998 1_655
As12 O36 1.736764 1_555
As12 O60 1.746393 1_554
As13 O41 1.703385 1_555
As13 O73 1.709998 1_555
As13 O37 1.736764 1_555
As13 O61 1.746393 1_555
As14 O42 1.703385 1_555
As14 O74 1.709998 1_455
As14 O38 1.736764 1_555
As14 O62 1.746393 1_556
As15 O43 1.703385 1_555
As15 O75 1.709998 1_555
As15 O39 1.736764 1_555
As15 O63 1.746393 1_555
O0 U2 2.295052 1_455
O1 U3 2.295052 1_555
O2 U0 2.295052 1_655
O3 U1 2.295052 1_555
O4 U3 2.336661 1_555
O5 U2 2.336661 1_555
O6 U1 2.336661 1_555
O7 U0 2.336661 1_555
O8 U7 2.323377 1_555
O9 U6 2.323377 1_655
O10 U5 2.323377 1_555
O11 U4 2.323377 1_455
O20 U6 2.297137 1_555
O21 U7 2.297137 1_555
O22 U4 2.297137 1_555
O23 U5 2.297137 1_555
O28 U4 1.849076 1_455
O29 U5 1.849076 1_555
O30 U6 1.849076 1_655
O31 U7 1.849076 1_555
O32 U0 1.843435 1_655
O33 U1 1.843435 1_555
O34 U2 1.843435 1_455
O35 U3 1.843435 1_555
O36 U5 2.265379 1_555
O37 U4 2.265379 1_555
O38 U7 2.265379 1_555
O39 U6 2.265379 1_555
O44 U4 2.282397 1_455
O45 U5 2.282397 1_555
O46 U6 2.282397 1_655
O47 U7 2.282397 1_555
O52 U4 1.815061 1_555
O53 U5 1.815061 1_555
O54 U6 1.815061 1_555
O55 U7 1.815061 1_555
O60 U0 2.329406 1_655
O61 U1 2.329406 1_555
O62 U2 2.329406 1_455
O63 U3 2.329406 1_555
O64 U0 1.824315 1_555
O65 U1 1.824315 1_555
O66 U2 1.824315 1_555
O67 U3 1.824315 1_555
O76 U1 2.249946 1_555
O77 U0 2.249946 1_555
O78 U3 2.249946 1_555
O79 U2 2.249946 1_555
