# generated using pymatgen
data_BaSr4(FeO2)5
_symmetry_space_group_name_H-M   'P 1'
_cell_length_a   4.07347700
_cell_length_b   4.07347700
_cell_length_c   17.78714000
_cell_angle_alpha   90.00000000
_cell_angle_beta   90.00000000
_cell_angle_gamma   90.00000000
_symmetry_Int_Tables_number   1
_chemical_formula_structural   BaSr4(FeO2)5
_chemical_formula_sum   'Ba1 Sr4 Fe5 O10'
_cell_volume   295.14583593
_cell_formula_units_Z   1
loop_
 _symmetry_equiv_pos_site_id
 _symmetry_equiv_pos_as_xyz
  1  'x, y, z'
loop_
 _atom_site_type_symbol
 _atom_site_label
 _atom_site_symmetry_multiplicity
 _atom_site_fract_x
 _atom_site_fract_y
 _atom_site_fract_z
 _atom_site_occupancy
  Ba  Ba0  1  0.50000000  0.50000000  0.00000000  1
  Sr  Sr0  1  0.50000000  0.50000000  0.20503800  1
  Sr  Sr1  1  0.50000000  0.50000000  0.40105500  1
  Sr  Sr2  1  0.50000000  0.50000000  0.59894500  1
  Sr  Sr3  1  0.50000000  0.50000000  0.79496200  1
  Fe  Fe0  1  0.00000000  0.00000000  0.89024600  1
  Fe  Fe1  1  0.00000000  0.00000000  0.10975400  1
  Fe  Fe2  1  0.00000000  0.00000000  0.30264700  1
  Fe  Fe3  1  0.00000000  0.00000000  0.50000000  1
  Fe  Fe4  1  0.00000000  0.00000000  0.69735300  1
  O  O0  1  0.00000000  0.50000000  0.89051400  1
  O  O1  1  0.00000000  0.50000000  0.10948600  1
  O  O2  1  0.00000000  0.50000000  0.30355700  1
  O  O3  1  0.00000000  0.50000000  0.50000000  1
  O  O4  1  0.00000000  0.50000000  0.69644300  1
  O  O5  1  0.50000000  0.00000000  0.89051400  1
  O  O6  1  0.50000000  0.00000000  0.10948600  1
  O  O7  1  0.50000000  0.00000000  0.30355700  1
  O  O8  1  0.50000000  0.00000000  0.50000000  1
  O  O9  1  0.50000000  0.00000000  0.69644300  1
loop_
_geom_bond_atom_site_label_1
_geom_bond_atom_site_label_2
_geom_bond_distance
_geom_bond_site_symmetry_2
Ba0 O6 2.817949 1_555
Ba0 O1 2.817949 1_555
Ba0 O6 2.817949 1_565
Ba0 O1 2.817949 1_655
Ba0 O5 2.817949 1_564
Ba0 O0 2.817949 1_554
Ba0 O5 2.817949 1_554
Ba0 O0 2.817949 1_654
Fe0 O0 2.036744 1_545
Fe0 O5 2.036744 1_455
Fe0 O5 2.036744 1_555
Fe0 O0 2.036744 1_555
Fe1 O6 2.036744 1_455
Fe1 O1 2.036744 1_555
Fe1 O6 2.036744 1_555
Fe1 O1 2.036744 1_545
Fe2 O7 2.036803 1_555
Fe2 O2 2.036803 1_545
Fe2 O2 2.036803 1_555
Fe2 O7 2.036803 1_455
Fe3 O8 2.036738 1_555
Fe3 O8 2.036738 1_455
Fe3 O3 2.036738 1_545
Fe3 O3 2.036738 1_555
Fe4 O9 2.036803 1_455
Fe4 O4 2.036803 1_545
Fe4 O9 2.036803 1_555
Fe4 O4 2.036803 1_555
O0 Sr3 2.652722 1_455
O0 Sr3 2.652722 1_555
O1 Sr0 2.652722 1_555
O1 Sr0 2.652722 1_455
O2 Sr1 2.675031 1_455
O2 Sr1 2.675031 1_555
O2 Sr0 2.686840 1_555
O2 Sr0 2.686840 1_455
O3 Sr2 2.691788 1_555
O3 Sr2 2.691788 1_455
O3 Sr1 2.691788 1_455
O3 Sr1 2.691788 1_555
O4 Sr2 2.675031 1_455
O4 Sr2 2.675031 1_555
O4 Sr3 2.686840 1_555
O4 Sr3 2.686840 1_455
O5 Sr3 2.652722 1_545
O5 Sr3 2.652722 1_555
O6 Sr0 2.652722 1_555
O6 Sr0 2.652722 1_545
O7 Sr1 2.675031 1_555
O7 Sr1 2.675031 1_545
O7 Sr0 2.686840 1_545
O7 Sr0 2.686840 1_555
O8 Sr2 2.691788 1_545
O8 Sr2 2.691788 1_555
O8 Sr1 2.691788 1_545
O8 Sr1 2.691788 1_555
O9 Sr2 2.675031 1_555
O9 Sr2 2.675031 1_545
O9 Sr3 2.686840 1_545
O9 Sr3 2.686840 1_555
