# generated using pymatgen
data_Zr2Ti3(PbO3)5
_symmetry_space_group_name_H-M   'P 1'
_cell_length_a   5.90706798
_cell_length_b   5.90706798
_cell_length_c   25.65734409
_cell_angle_alpha   81.13968126
_cell_angle_beta   81.13968126
_cell_angle_gamma   63.65022925
_symmetry_Int_Tables_number   1
_chemical_formula_structural   Zr2Ti3(PbO3)5
_chemical_formula_sum   'Zr2 Ti3 Pb5 O15'
_cell_volume   788.96343795
_cell_formula_units_Z   1
loop_
 _symmetry_equiv_pos_site_id
 _symmetry_equiv_pos_as_xyz
  1  'x, y, z'
loop_
 _atom_site_type_symbol
 _atom_site_label
 _atom_site_symmetry_multiplicity
 _atom_site_fract_x
 _atom_site_fract_y
 _atom_site_fract_z
 _atom_site_occupancy
  Zr  Zr0  1  0.93975700  0.93975700  0.58409200  1
  Zr  Zr1  1  0.33734100  0.33734100  0.37781000  1
  Ti  Ti0  1  0.73200800  0.73200800  0.17694300  1
  Ti  Ti1  1  0.13054400  0.13054400  0.98114600  1
  Ti  Ti2  1  0.53507700  0.53507700  0.78426300  1
  Pb  Pb0  1  0.24273300  0.24273300  0.53660900  1
  Pb  Pb1  1  0.64056700  0.64056700  0.32971400  1
  Pb  Pb2  1  0.04234800  0.04234800  0.13505100  1
  Pb  Pb3  1  0.44220300  0.44220300  0.93844600  1
  Pb  Pb4  1  0.84470600  0.84470600  0.74352200  1
  O  O0  1  0.91975300  0.91975300  0.65976200  1
  O  O1  1  0.32174000  0.32174000  0.45327300  1
  O  O2  1  0.72441800  0.72441800  0.24627400  1
  O  O3  1  0.12095600  0.12095600  0.05077200  1
  O  O4  1  0.52017600  0.52017600  0.85413500  1
  O  O5  1  0.71762500  0.23910400  0.75826500  1
  O  O6  1  0.12309400  0.61866000  0.55571000  1
  O  O7  1  0.52019000  0.01353000  0.35060200  1
  O  O8  1  0.91366700  0.43244800  0.15247100  1
  O  O9  1  0.31287100  0.83338400  0.95569700  1
  O  O10  1  0.23910400  0.71762500  0.75826500  1
  O  O11  1  0.61866000  0.12309400  0.55571000  1
  O  O12  1  0.01353000  0.52019000  0.35060200  1
  O  O13  1  0.43244800  0.91366700  0.15247100  1
  O  O14  1  0.83338400  0.31287100  0.95569700  1
loop_
_geom_bond_atom_site_label_1
_geom_bond_atom_site_label_2
_geom_bond_distance
_geom_bond_site_symmetry_2
Pb0 Zr0 3.064354 1_445
Pb1 Zr1 3.070121 1_555
Pb2 Ti0 3.105764 1_445
Pb3 Ti1 3.121660 1_555
Pb4 Ti2 3.094318 1_555
O0 Zr0 1.915298 1_555
O0 Pb4 2.144526 1_555
O1 Zr1 1.913997 1_555
O1 Pb0 2.141490 1_555
O2 Ti0 1.766628 1_555
O2 Pb1 2.153689 1_555
O3 Ti1 1.771501 1_554
O3 Pb2 2.163302 1_555
O4 Ti2 1.771732 1_555
O4 Pb3 2.162908 1_555
O5 Ti2 1.768761 1_555
O5 Pb4 2.183070 1_545
O6 Zr0 1.913075 1_455
O6 Pb0 2.122793 1_555
O7 Zr1 1.912519 1_555
O7 Pb1 2.121851 1_545
O8 Ti0 1.768065 1_555
O8 Pb2 2.178370 1_655
O9 Ti1 1.767982 1_565
O9 Pb3 2.182397 1_555
O10 Ti2 1.768761 1_555
O10 Pb4 2.183070 1_455
O11 Zr0 1.913075 1_545
O11 Pb0 2.122793 1_555
O12 Zr1 1.912519 1_555
O12 Pb1 2.121851 1_455
O13 Ti0 1.768065 1_555
O13 Pb2 2.178370 1_565
O14 Ti1 1.767982 1_655
O14 Pb3 2.182397 1_555
