# generated using pymatgen
data_YbH7C4O11
_symmetry_space_group_name_H-M   'P 1'
_cell_length_a   8.97516400
_cell_length_b   8.97516400
_cell_length_c   12.91863900
_cell_angle_alpha   90.00000000
_cell_angle_beta   90.00000000
_cell_angle_gamma   90.00000000
_symmetry_Int_Tables_number   1
_chemical_formula_structural   YbH7C4O11
_chemical_formula_sum   'Yb4 H28 C16 O44'
_cell_volume   1040.64247584
_cell_formula_units_Z   4
loop_
 _symmetry_equiv_pos_site_id
 _symmetry_equiv_pos_as_xyz
  1  'x, y, z'
loop_
 _atom_site_type_symbol
 _atom_site_label
 _atom_site_symmetry_multiplicity
 _atom_site_fract_x
 _atom_site_fract_y
 _atom_site_fract_z
 _atom_site_occupancy
  Yb  Yb0  1  0.00000000  0.50000000  0.96860400  1
  Yb  Yb1  1  0.00000000  0.50000000  0.46860400  1
  Yb  Yb2  1  0.50000000  0.00000000  0.53139600  1
  Yb  Yb3  1  0.50000000  0.00000000  0.03139600  1
  H  H0  1  0.00000000  0.00000000  0.88496300  1
  H  H1  1  0.50000000  0.50000000  0.38496300  1
  H  H2  1  0.50000000  0.50000000  0.61503700  1
  H  H3  1  0.00000000  0.00000000  0.11503700  1
  H  H4  1  0.02673300  0.24356600  0.64323300  1
  H  H5  1  0.97326700  0.75643400  0.64323300  1
  H  H6  1  0.74356600  0.47326700  0.14323300  1
  H  H7  1  0.25643400  0.52673300  0.14323300  1
  H  H8  1  0.47326700  0.25643400  0.85676700  1
  H  H9  1  0.52673300  0.74356600  0.85676700  1
  H  H10  1  0.75643400  0.02673300  0.35676700  1
  H  H11  1  0.24356600  0.97326700  0.35676700  1
  H  H12  1  0.03022000  0.11235000  0.75285600  1
  H  H13  1  0.96978000  0.88765000  0.75285600  1
  H  H14  1  0.61235000  0.46978000  0.25285600  1
  H  H15  1  0.38765000  0.53022000  0.25285600  1
  H  H16  1  0.46978000  0.38765000  0.74714400  1
  H  H17  1  0.53022000  0.61235000  0.74714400  1
  H  H18  1  0.88765000  0.03022000  0.24714400  1
  H  H19  1  0.11235000  0.96978000  0.24714400  1
  H  H20  1  0.90728600  0.22827700  0.78369300  1
  H  H21  1  0.09271400  0.77172300  0.78369300  1
  H  H22  1  0.72827700  0.59271400  0.28369300  1
  H  H23  1  0.27172300  0.40728600  0.28369300  1
  H  H24  1  0.59271400  0.27172300  0.71630700  1
  H  H25  1  0.40728600  0.72827700  0.71630700  1
  H  H26  1  0.77172300  0.90728600  0.21630700  1
  H  H27  1  0.22827700  0.09271400  0.21630700  1
  C  C0  1  0.28565100  0.27778800  0.94401300  1
  C  C1  1  0.71434900  0.72221200  0.94401300  1
  C  C2  1  0.77778800  0.21434900  0.44401300  1
  C  C3  1  0.22221200  0.78565100  0.44401300  1
  C  C4  1  0.21434900  0.22221200  0.55598700  1
  C  C5  1  0.78565100  0.77778800  0.55598700  1
  C  C6  1  0.72221200  0.28565100  0.05598700  1
  C  C7  1  0.27778800  0.71434900  0.05598700  1
  C  C8  1  0.21597700  0.22974600  0.04931000  1
  C  C9  1  0.78402300  0.77025400  0.04931000  1
  C  C10  1  0.72974600  0.28402300  0.54931000  1
  C  C11  1  0.27025400  0.71597700  0.54931000  1
  C  C12  1  0.28402300  0.27025400  0.45069000  1
  C  C13  1  0.71597700  0.72974600  0.45069000  1
  C  C14  1  0.77025400  0.21597700  0.95069000  1
  C  C15  1  0.22974600  0.78402300  0.95069000  1
  O  O0  1  0.95185700  0.17340900  0.72204400  1
  O  O1  1  0.04814300  0.82659100  0.72204400  1
  O  O2  1  0.67340900  0.54814300  0.22204400  1
  O  O3  1  0.32659100  0.45185700  0.22204400  1
  O  O4  1  0.54814300  0.32659100  0.77795600  1
  O  O5  1  0.45185700  0.67340900  0.77795600  1
  O  O6  1  0.82659100  0.95185700  0.27795600  1
  O  O7  1  0.17340900  0.04814300  0.27795600  1
  O  O8  1  0.00000000  0.50000000  0.77617800  1
  O  O9  1  0.00000000  0.50000000  0.27617800  1
  O  O10  1  0.50000000  0.00000000  0.72382200  1
  O  O11  1  0.50000000  0.00000000  0.22382200  1
  O  O12  1  0.22248100  0.36942800  0.88804600  1
  O  O13  1  0.77751900  0.63057200  0.88804600  1
  O  O14  1  0.86942800  0.27751900  0.38804600  1
  O  O15  1  0.13057200  0.72248100  0.38804600  1
  O  O16  1  0.27751900  0.13057200  0.61195400  1
  O  O17  1  0.72248100  0.86942800  0.61195400  1
  O  O18  1  0.63057200  0.22248100  0.11195400  1
  O  O19  1  0.36942800  0.77751900  0.11195400  1
  O  O20  1  0.41509100  0.21452100  0.92539700  1
  O  O21  1  0.58490900  0.78547900  0.92539700  1
  O  O22  1  0.71452100  0.08490900  0.42539700  1
  O  O23  1  0.28547900  0.91509100  0.42539700  1
  O  O24  1  0.08490900  0.28547900  0.57460300  1
  O  O25  1  0.91509100  0.71452100  0.57460300  1
  O  O26  1  0.78547900  0.41509100  0.07460300  1
  O  O27  1  0.21452100  0.58490900  0.07460300  1
  O  O28  1  0.28940700  0.13334800  0.10098100  1
  O  O29  1  0.71059300  0.86665200  0.10098100  1
  O  O30  1  0.63334800  0.21059300  0.60098100  1
  O  O31  1  0.36665200  0.78940700  0.60098100  1
  O  O32  1  0.21059300  0.36665200  0.39901900  1
  O  O33  1  0.78940700  0.63334800  0.39901900  1
  O  O34  1  0.86665200  0.28940700  0.89901900  1
  O  O35  1  0.13334800  0.71059300  0.89901900  1
  O  O36  1  0.09579100  0.29169700  0.07298400  1
  O  O37  1  0.90420900  0.70830300  0.07298400  1
  O  O38  1  0.79169700  0.40420900  0.57298400  1
  O  O39  1  0.20830300  0.59579100  0.57298400  1
  O  O40  1  0.40420900  0.20830300  0.42701600  1
  O  O41  1  0.59579100  0.79169700  0.42701600  1
  O  O42  1  0.70830300  0.09579100  0.92701600  1
  O  O43  1  0.29169700  0.90420900  0.92701600  1
loop_
_geom_bond_atom_site_label_1
_geom_bond_atom_site_label_2
_geom_bond_distance
_geom_bond_site_symmetry_2
H4 O24 1.095540 1_555
H4 O0 1.372841 1_455
H5 O25 1.095540 1_555
H5 O1 1.372841 1_655
H6 O26 1.095540 1_555
H6 O2 1.372841 1_555
H7 O27 1.095540 1_555
H7 O3 1.372841 1_555
H8 O20 1.095540 1_555
H8 O4 1.372841 1_555
H9 O21 1.095540 1_555
H9 O5 1.372841 1_555
H10 O22 1.095540 1_555
H10 O6 1.372841 1_545
H11 O23 1.095540 1_555
H11 O7 1.372841 1_565
H12 O0 0.976434 1_455
H13 O1 0.976434 1_655
H14 O2 0.976434 1_555
H15 O3 0.976434 1_555
H16 O4 0.976434 1_555
H17 O5 0.976434 1_555
H18 O6 0.976434 1_545
H19 O7 0.976434 1_565
H20 O0 1.018243 1_555
H20 O34 1.629015 1_555
H21 O1 1.018243 1_555
H21 O35 1.629015 1_555
H22 O2 1.018243 1_555
H22 O33 1.629015 1_555
H23 O3 1.018243 1_555
H23 O32 1.629015 1_555
H24 O4 1.018243 1_555
H24 O30 1.629015 1_555
H25 O5 1.018243 1_555
H25 O31 1.629015 1_555
H26 O6 1.018243 1_555
H26 O29 1.629015 1_555
H27 O7 1.018243 1_555
H27 O28 1.629015 1_555
C0 O12 1.233158 1_555
C0 O20 1.315265 1_555
C1 O13 1.233158 1_555
C1 O21 1.315265 1_555
C2 O14 1.233158 1_555
C2 O22 1.315265 1_555
C3 O15 1.233158 1_555
C3 O23 1.315265 1_555
C4 O16 1.233158 1_555
C4 O24 1.315265 1_555
C5 O17 1.233158 1_555
C5 O25 1.315265 1_555
C6 O18 1.233158 1_555
C6 O26 1.315265 1_555
C7 O19 1.233158 1_555
C7 O27 1.315265 1_555
C8 O36 1.251505 1_555
C8 O28 1.276117 1_555
C9 O37 1.251505 1_555
C9 O29 1.276117 1_555
C10 O38 1.251505 1_555
C10 O30 1.276117 1_555
C11 O39 1.251505 1_555
C11 O31 1.276117 1_555
C12 O40 1.251505 1_555
C12 O32 1.276117 1_555
C13 O41 1.251505 1_555
C13 O33 1.276117 1_555
C14 O42 1.251505 1_555
C14 O34 1.276117 1_555
C15 O43 1.251505 1_555
C15 O35 1.276117 1_555
O8 Yb0 2.485882 1_555
O9 Yb1 2.485882 1_555
O10 Yb2 2.485882 1_555
O11 Yb3 2.485882 1_555
O12 Yb0 2.538433 1_555
O13 Yb0 2.538433 1_655
O14 Yb1 2.538433 1_655
O15 Yb1 2.538433 1_555
O16 Yb2 2.538433 1_555
O17 Yb2 2.538433 1_565
O18 Yb3 2.538433 1_555
O19 Yb3 2.538433 1_565
O20 Yb3 2.482524 1_556
O21 Yb3 2.482524 1_566
O22 Yb2 2.482524 1_555
O23 Yb2 2.482524 1_565
O24 Yb1 2.482524 1_555
O25 Yb1 2.482524 1_655
O26 Yb0 2.482524 1_654
O27 Yb0 2.482524 1_554
O28 Yb3 2.411013 1_555
O29 Yb3 2.411013 1_565
O30 Yb2 2.411013 1_555
O31 Yb2 2.411013 1_565
O32 Yb1 2.411013 1_555
O33 Yb1 2.411013 1_655
O34 Yb0 2.411013 1_655
O35 Yb0 2.411013 1_555
O36 Yb0 2.460222 1_554
O37 Yb0 2.460222 1_654
O38 Yb1 2.460222 1_655
O39 Yb1 2.460222 1_555
O40 Yb2 2.460222 1_555
O41 Yb2 2.460222 1_565
O42 Yb3 2.460222 1_556
O43 Yb3 2.460222 1_566
