# generated using pymatgen
data_Eu5Si3O13
_symmetry_space_group_name_H-M   'P 1'
_cell_length_a   7.08320400
_cell_length_b   9.60131278
_cell_length_c   9.60131278
_cell_angle_alpha   120.00000536
_cell_angle_beta   90.00000000
_cell_angle_gamma   90.00000000
_symmetry_Int_Tables_number   1
_chemical_formula_structural   Eu5Si3O13
_chemical_formula_sum   'Eu10 Si6 O26'
_cell_volume   565.48565660
_cell_formula_units_Z   2
loop_
 _symmetry_equiv_pos_site_id
 _symmetry_equiv_pos_as_xyz
  1  'x, y, z'
loop_
 _atom_site_type_symbol
 _atom_site_label
 _atom_site_symmetry_multiplicity
 _atom_site_fract_x
 _atom_site_fract_y
 _atom_site_fract_z
 _atom_site_occupancy
  Eu  Eu0  1  0.75000000  0.75839500  0.99359700  1
  Eu  Eu1  1  0.25000000  0.24160500  0.00640300  1
  Eu  Eu2  1  0.75000000  0.23520200  0.24160500  1
  Eu  Eu3  1  0.25000000  0.76479800  0.75839500  1
  Eu  Eu4  1  0.75000000  0.00640300  0.76479800  1
  Eu  Eu5  1  0.25000000  0.99359700  0.23520200  1
  Eu  Eu6  1  0.00149900  0.66666700  0.33333300  1
  Eu  Eu7  1  0.99850100  0.33333300  0.66666700  1
  Eu  Eu8  1  0.50149900  0.33333300  0.66666700  1
  Eu  Eu9  1  0.49850100  0.66666700  0.33333300  1
  Si  Si0  1  0.75000000  0.96829000  0.36853800  1
  Si  Si1  1  0.25000000  0.03171000  0.63146200  1
  Si  Si2  1  0.75000000  0.40024800  0.03171000  1
  Si  Si3  1  0.25000000  0.59975200  0.96829000  1
  Si  Si4  1  0.75000000  0.63146200  0.59975200  1
  Si  Si5  1  0.25000000  0.36853800  0.40024800  1
  O  O0  1  0.75000000  0.87160300  0.46989300  1
  O  O1  1  0.25000000  0.12839700  0.53010700  1
  O  O2  1  0.75000000  0.59829000  0.12839700  1
  O  O3  1  0.25000000  0.40171000  0.87160300  1
  O  O4  1  0.75000000  0.53010700  0.40171000  1
  O  O5  1  0.25000000  0.46989300  0.59829000  1
  O  O6  1  0.93545600  0.90572000  0.24921400  1
  O  O7  1  0.06454400  0.09428000  0.75078600  1
  O  O8  1  0.93545600  0.34349400  0.09428000  1
  O  O9  1  0.43545600  0.09428000  0.75078600  1
  O  O10  1  0.06454400  0.65650600  0.90572000  1
  O  O11  1  0.56454400  0.90572000  0.24921400  1
  O  O12  1  0.93545600  0.75078600  0.65650600  1
  O  O13  1  0.43545600  0.65650600  0.90572000  1
  O  O14  1  0.06454400  0.24921400  0.34349400  1
  O  O15  1  0.56454400  0.34349400  0.09428000  1
  O  O16  1  0.43545600  0.24921400  0.34349400  1
  O  O17  1  0.56454400  0.75078600  0.65650600  1
  O  O18  1  0.75000000  0.51274200  0.67541200  1
  O  O19  1  0.25000000  0.48725800  0.32458800  1
  O  O20  1  0.75000000  0.16267000  0.48725800  1
  O  O21  1  0.25000000  0.83733000  0.51274200  1
  O  O22  1  0.75000000  0.32458800  0.83733000  1
  O  O23  1  0.25000000  0.67541200  0.16267000  1
  O  O24  1  0.75000000  0.00000000  0.00000000  1
  O  O25  1  0.25000000  0.00000000  0.00000000  1
loop_
_geom_bond_atom_site_label_1
_geom_bond_atom_site_label_2
_geom_bond_distance
_geom_bond_site_symmetry_2
Eu0 O24 2.289606 1_566
Eu0 O10 2.409853 1_655
Eu0 O13 2.409853 1_555
Eu0 O2 2.455137 1_556
Eu0 O6 2.505645 1_556
Eu0 O11 2.505645 1_556
Eu0 O18 2.773167 1_555
Eu1 O25 2.289606 1_555
Eu1 O8 2.409853 1_455
Eu1 O15 2.409853 1_555
Eu1 O3 2.455137 1_554
Eu1 O9 2.505645 1_554
Eu1 O7 2.505645 1_554
Eu1 O19 2.773167 1_555
Eu2 O24 2.289605 1_555
Eu2 O14 2.409853 1_655
Eu2 O16 2.409853 1_555
Eu2 O4 2.455137 1_555
Eu2 O15 2.505645 1_555
Eu2 O8 2.505645 1_555
Eu2 O20 2.773168 1_555
Eu3 O25 2.289605 1_566
Eu3 O17 2.409853 1_555
Eu3 O12 2.409853 1_455
Eu3 O5 2.455137 1_555
Eu3 O13 2.505645 1_555
Eu3 O10 2.505645 1_555
Eu3 O21 2.773168 1_555
Eu4 O24 2.289606 1_556
Eu4 O7 2.409853 1_655
Eu4 O9 2.409853 1_555
Eu4 O0 2.455137 1_545
Eu4 O17 2.505645 1_545
Eu4 O12 2.505645 1_545
Eu4 O22 2.773167 1_555
Eu5 O25 2.289606 1_565
Eu5 O11 2.409853 1_555
Eu5 O6 2.409853 1_455
Eu5 O1 2.455137 1_565
Eu5 O16 2.505645 1_565
Eu5 O14 2.505645 1_565
Eu5 O23 2.773167 1_555
Eu6 O23 2.434718 1_555
Eu6 O21 2.434721 1_555
Eu6 O19 2.434724 1_555
Eu6 O2 2.486833 1_455
Eu6 O0 2.486834 1_455
Eu6 O4 2.486839 1_455
Eu6 O6 2.827176 1_455
Eu6 O8 2.827183 1_455
Eu6 O12 2.827185 1_455
Eu7 O22 2.434718 1_555
Eu7 O20 2.434721 1_555
Eu7 O18 2.434724 1_555
Eu7 O3 2.486833 1_655
Eu7 O1 2.486834 1_655
Eu7 O5 2.486839 1_655
Eu7 O7 2.827176 1_655
Eu7 O10 2.827183 1_655
Eu7 O14 2.827185 1_655
Eu8 O22 2.434718 1_555
Eu8 O20 2.434721 1_555
Eu8 O18 2.434724 1_555
Eu8 O3 2.486833 1_555
Eu8 O1 2.486834 1_555
Eu8 O5 2.486839 1_555
Eu8 O9 2.827176 1_555
Eu8 O13 2.827183 1_555
Eu8 O16 2.827185 1_555
Eu9 O23 2.434718 1_555
Eu9 O21 2.434721 1_555
Eu9 O19 2.434724 1_555
Eu9 O2 2.486833 1_555
Eu9 O0 2.486834 1_555
Eu9 O4 2.486839 1_555
Eu9 O11 2.827176 1_555
Eu9 O15 2.827183 1_555
Eu9 O17 2.827185 1_555
O0 Si0 1.646868 1_555
O1 Si1 1.646868 1_555
O2 Si2 1.646868 1_555
O3 Si3 1.646868 1_555
O4 Si4 1.646868 1_555
O5 Si5 1.646868 1_555
O6 Si0 1.646450 1_555
O7 Si1 1.646450 1_555
O8 Si2 1.646450 1_555
O9 Si1 1.646450 1_555
O10 Si3 1.646450 1_555
O11 Si0 1.646450 1_555
O12 Si4 1.646450 1_555
O13 Si3 1.646450 1_555
O14 Si5 1.646450 1_555
O15 Si2 1.646450 1_555
O16 Si5 1.646450 1_555
O17 Si4 1.646450 1_555
O18 Si4 1.629432 1_555
O19 Si5 1.629432 1_555
O20 Si0 1.629431 1_545
O21 Si1 1.629431 1_565
O22 Si2 1.629432 1_556
O23 Si3 1.629432 1_554
