# generated using pymatgen
data_La2Co2Si
_symmetry_space_group_name_H-M   'P 1'
_cell_length_a   4.19263812
_cell_length_b   3.79688861
_cell_length_c   14.37496539
_cell_angle_alpha   131.99882631
_cell_angle_beta   125.99553382
_cell_angle_gamma   89.87270974
_symmetry_Int_Tables_number   1
_chemical_formula_structural   La2Co2Si
_chemical_formula_sum   'La2 Co2 Si1'
_cell_volume   104.51754950
_cell_formula_units_Z   1
loop_
 _symmetry_equiv_pos_site_id
 _symmetry_equiv_pos_as_xyz
  1  'x, y, z'
loop_
 _atom_site_type_symbol
 _atom_site_label
 _atom_site_symmetry_multiplicity
 _atom_site_fract_x
 _atom_site_fract_y
 _atom_site_fract_z
 _atom_site_occupancy
  La  La0  1  0.50876500  0.61426900  0.25145500  1
  La  La1  1  0.49106100  0.38537800  0.74840000  1
  Co  Co0  1  0.70090100  0.51927300  0.60498800  1
  Co  Co1  1  0.29927000  0.48125200  0.39522000  1
  Si  Si0  1  0.50000300  0.49982800  0.99993800  1
loop_
_geom_bond_atom_site_label_1
_geom_bond_atom_site_label_2
_geom_bond_distance
_geom_bond_site_symmetry_2
La0 Si0 3.217066 1_544
La0 Si0 3.239816 1_444
La0 Si0 3.317212 1_554
La0 Si0 3.328672 1_454
La1 Si0 3.216670 1_565
La1 Si0 3.240169 1_665
La1 Si0 3.317018 1_555
La1 Si0 3.329205 1_655
Co0 Co1 2.323595 1_555
Co0 Co1 2.370334 1_545
Co0 Si0 2.594081 1_665
Co0 La1 2.969659 1_555
Co0 La1 2.975008 1_655
Co0 La1 2.980756 1_565
Co0 La1 2.997905 1_665
Co0 La0 3.076683 1_445
Co0 La0 3.180288 1_545
Co1 Si0 2.596240 1_444
Co1 La0 2.971507 1_555
Co1 La0 2.974699 1_455
Co1 La0 2.982522 1_545
Co1 La0 2.997525 1_445
Co1 La1 3.075939 1_665
Co1 La1 3.177553 1_565
