# generated using pymatgen
data_LaMg14BO16
_symmetry_space_group_name_H-M   'P 1'
_cell_length_a   8.75182937
_cell_length_b   8.79304898
_cell_length_c   4.38259004
_cell_angle_alpha   90.00000000
_cell_angle_beta   90.00000000
_cell_angle_gamma   90.00000000
_symmetry_Int_Tables_number   1
_chemical_formula_structural   LaMg14BO16
_chemical_formula_sum   'La1 Mg14 B1 O16'
_cell_volume   337.26337491
_cell_formula_units_Z   1
loop_
 _symmetry_equiv_pos_site_id
 _symmetry_equiv_pos_as_xyz
  1  'x, y, z'
loop_
 _atom_site_type_symbol
 _atom_site_label
 _atom_site_symmetry_multiplicity
 _atom_site_fract_x
 _atom_site_fract_y
 _atom_site_fract_z
 _atom_site_occupancy
  La  La0  1  -0.00000000  -0.00000000  0.00000000  1
  Mg  Mg0  1  0.50000000  -0.00000000  0.00000000  1
  Mg  Mg1  1  0.50000000  0.50000000  0.00000000  1
  Mg  Mg2  1  -0.00000000  0.27400943  0.50000000  1
  Mg  Mg3  1  -0.00000000  0.72599057  0.50000000  1
  Mg  Mg4  1  0.50000000  0.25518433  0.50000000  1
  Mg  Mg5  1  0.50000000  0.74481567  0.50000000  1
  Mg  Mg6  1  0.26741077  -0.00000000  0.50000000  1
  Mg  Mg7  1  0.24804815  0.50000000  0.50000000  1
  Mg  Mg8  1  0.73258923  -0.00000000  0.50000000  1
  Mg  Mg9  1  0.75195185  0.50000000  0.50000000  1
  Mg  Mg10  1  0.25614108  0.26491864  0.00000000  1
  Mg  Mg11  1  0.25614108  0.73508136  -0.00000000  1
  Mg  Mg12  1  0.74385892  0.26491864  0.00000000  1
  Mg  Mg13  1  0.74385892  0.73508136  -0.00000000  1
  B  B0  1  -0.00000000  0.50000000  0.00000000  1
  O  O0  1  0.27038418  -0.00000000  0.00000000  1
  O  O1  1  0.27114639  0.50000000  0.00000000  1
  O  O2  1  0.72961582  -0.00000000  -0.00000000  1
  O  O3  1  0.72885361  0.50000000  -0.00000000  1
  O  O4  1  0.24856200  0.24929362  0.50000000  1
  O  O5  1  0.24856200  0.75070638  0.50000000  1
  O  O6  1  0.75143800  0.24929362  0.50000000  1
  O  O7  1  0.75143800  0.75070638  0.50000000  1
  O  O8  1  -0.00000000  -0.00000000  0.50000000  1
  O  O9  1  -0.00000000  0.50000000  0.50000000  1
  O  O10  1  0.50000000  -0.00000000  0.50000000  1
  O  O11  1  0.50000000  0.50000000  0.50000000  1
  O  O12  1  0.00000000  0.25976317  0.00000000  1
  O  O13  1  -0.00000000  0.74023683  -0.00000000  1
  O  O14  1  0.50000000  0.24995886  0.00000000  1
  O  O15  1  0.50000000  0.75004114  -0.00000000  1
loop_
_geom_bond_atom_site_label_1
_geom_bond_atom_site_label_2
_geom_bond_distance
_geom_bond_site_symmetry_2
La0 O8 2.191295 1_554
La0 O8 2.191295 1_555
La0 O13 2.284110 1_545
La0 O12 2.284110 1_555
La0 O2 2.366356 1_455
La0 O0 2.366356 1_555
Mg0 O0 2.009558 1_555
Mg0 O2 2.009558 1_555
Mg0 O10 2.191295 1_555
Mg0 O10 2.191295 1_554
Mg0 O15 2.197900 1_545
Mg0 O14 2.197900 1_555
Mg1 O1 2.002888 1_555
Mg1 O3 2.002888 1_555
Mg1 O11 2.191295 1_554
Mg1 O11 2.191295 1_555
Mg1 O15 2.198624 1_555
Mg1 O14 2.198624 1_555
Mg2 O9 1.987146 1_555
Mg2 O4 2.186201 1_555
Mg2 O6 2.186201 1_455
Mg2 O12 2.194873 1_556
Mg2 O12 2.194873 1_555
Mg2 O8 2.409378 1_555
Mg3 O9 1.987146 1_555
Mg3 O5 2.186201 1_555
Mg3 O7 2.186201 1_455
Mg3 O13 2.194873 1_556
Mg3 O13 2.194873 1_555
Mg3 O8 2.409378 1_565
Mg4 O11 2.152676 1_555
Mg4 O14 2.191777 1_556
Mg4 O14 2.191777 1_555
Mg4 O6 2.201152 1_555
Mg4 O4 2.201152 1_555
Mg4 O10 2.243848 1_555
Mg5 O11 2.152676 1_555
Mg5 O15 2.191777 1_556
Mg5 O15 2.191777 1_555
Mg5 O7 2.201152 1_555
Mg5 O5 2.201152 1_555
Mg5 O10 2.243848 1_565
Mg6 O10 2.035581 1_555
Mg6 O0 2.191450 1_555
Mg6 O0 2.191450 1_556
Mg6 O5 2.198249 1_545
Mg6 O4 2.198249 1_555
Mg6 O8 2.340333 1_555
Mg7 O9 2.170875 1_555
Mg7 O1 2.200600 1_556
Mg7 O1 2.200600 1_555
Mg7 O5 2.204478 1_555
Mg7 O4 2.204478 1_555
Mg7 O11 2.205040 1_555
Mg8 O10 2.035581 1_555
Mg8 O2 2.191450 1_556
Mg8 O2 2.191450 1_555
Mg8 O6 2.198249 1_555
Mg8 O7 2.198249 1_545
Mg8 O8 2.340333 1_655
Mg9 O9 2.170875 1_655
Mg9 O3 2.200600 1_556
Mg9 O3 2.200600 1_555
Mg9 O7 2.204478 1_555
Mg9 O6 2.204478 1_555
Mg9 O11 2.205040 1_555
Mg10 O1 2.071249 1_555
Mg10 O14 2.138262 1_555
Mg10 O4 2.196600 1_554
Mg10 O4 2.196600 1_555
Mg10 O12 2.242161 1_555
Mg10 O0 2.332775 1_555
Mg11 O1 2.071249 1_555
Mg11 O15 2.138262 1_555
Mg11 O5 2.196600 1_555
Mg11 O5 2.196600 1_554
Mg11 O13 2.242161 1_555
Mg11 O0 2.332775 1_565
Mg12 O3 2.071249 1_555
Mg12 O14 2.138262 1_555
Mg12 O6 2.196600 1_554
Mg12 O6 2.196600 1_555
Mg12 O12 2.242161 1_655
Mg12 O2 2.332775 1_555
Mg13 O3 2.071249 1_555
Mg13 O15 2.138262 1_555
Mg13 O7 2.196600 1_555
Mg13 O7 2.196600 1_554
Mg13 O13 2.242161 1_655
Mg13 O2 2.332775 1_565
B0 O12 2.112414 1_555
B0 O13 2.112414 1_555
B0 O9 2.191295 1_554
B0 O9 2.191295 1_555
