# generated using pymatgen
data_SrLaEuNbO6
_symmetry_space_group_name_H-M   'P 1'
_cell_length_a   8.59667537
_cell_length_b   8.60078222
_cell_length_c   8.58256977
_cell_angle_alpha   90.00000000
_cell_angle_beta   90.00000000
_cell_angle_gamma   90.00000000
_symmetry_Int_Tables_number   1
_chemical_formula_structural   SrLaEuNbO6
_chemical_formula_sum   'Sr4 La4 Eu4 Nb4 O24'
_cell_volume   634.57918233
_cell_formula_units_Z   4
loop_
 _symmetry_equiv_pos_site_id
 _symmetry_equiv_pos_as_xyz
  1  'x, y, z'
loop_
 _atom_site_type_symbol
 _atom_site_label
 _atom_site_symmetry_multiplicity
 _atom_site_fract_x
 _atom_site_fract_y
 _atom_site_fract_z
 _atom_site_occupancy
  Sr  Sr0  1  0.00000000  0.50000000  0.50000000  1
  Sr  Sr1  1  0.50000000  0.00000000  0.50000000  1
  Sr  Sr2  1  0.50000000  0.50000000  0.00000000  1
  Sr  Sr3  1  0.00000000  0.50000000  -0.00000000  1
  La  La0  1  0.74971347  0.74971699  0.74986286  1
  La  La1  1  0.25028653  0.25028301  0.74986286  1
  La  La2  1  0.25028653  0.74971699  0.25013714  1
  La  La3  1  0.74971347  0.25028301  0.25013714  1
  Eu  Eu0  1  0.50000000  0.00000000  -0.00000000  1
  Eu  Eu1  1  0.00000000  0.00000000  0.50000000  1
  Eu  Eu2  1  0.00000000  0.00000000  0.00000000  1
  Eu  Eu3  1  0.50000000  0.50000000  0.50000000  1
  Nb  Nb0  1  0.25051471  0.25067662  0.24972885  1
  Nb  Nb1  1  0.74948529  0.74932338  0.24972885  1
  Nb  Nb2  1  0.74948529  0.25067662  0.75027115  1
  Nb  Nb3  1  0.25051471  0.74932338  0.75027115  1
  O  O0  1  0.02105493  0.19566576  0.29322254  1
  O  O1  1  0.97894507  0.80433424  0.29322254  1
  O  O2  1  0.97894507  0.19566576  0.70677746  1
  O  O3  1  0.02105493  0.80433424  0.70677746  1
  O  O4  1  0.29300778  0.02106889  0.19596927  1
  O  O5  1  0.29300778  0.97893111  0.80403073  1
  O  O6  1  0.70699222  0.97893111  0.19596927  1
  O  O7  1  0.70699222  0.02106889  0.80403073  1
  O  O8  1  0.19726696  0.29143879  0.02146041  1
  O  O9  1  0.80273304  0.29143879  0.97853959  1
  O  O10  1  0.19726696  0.70856121  0.97853959  1
  O  O11  1  0.80273304  0.70856121  0.02146041  1
  O  O12  1  0.47859870  0.30225567  0.20820409  1
  O  O13  1  0.52140130  0.69774433  0.20820409  1
  O  O14  1  0.52140130  0.30225567  0.79179591  1
  O  O15  1  0.47859870  0.69774433  0.79179591  1
  O  O16  1  0.20836411  0.47833919  0.30263482  1
  O  O17  1  0.20836411  0.52166081  0.69736518  1
  O  O18  1  0.79163589  0.52166081  0.30263482  1
  O  O19  1  0.79163589  0.47833919  0.69736518  1
  O  O20  1  0.30236659  0.20798203  0.47880943  1
  O  O21  1  0.69763341  0.20798203  0.52119057  1
  O  O22  1  0.30236659  0.79201797  0.52119057  1
  O  O23  1  0.69763341  0.79201797  0.47880943  1
loop_
_geom_bond_atom_site_label_1
_geom_bond_atom_site_label_2
_geom_bond_distance
_geom_bond_site_symmetry_2
La0 O23 2.396800 1_555
La0 O15 2.400298 1_555
La0 O11 2.401380 1_556
La0 O19 2.404316 1_555
La0 O7 2.407865 1_565
La0 O3 2.408026 1_655
La1 O20 2.396800 1_555
La1 O14 2.400298 1_555
La1 O8 2.401380 1_556
La1 O17 2.404316 1_555
La1 O5 2.407865 1_545
La1 O2 2.408026 1_455
La2 O22 2.396800 1_555
La2 O13 2.400298 1_555
La2 O10 2.401380 1_554
La2 O16 2.404316 1_555
La2 O4 2.407865 1_565
La2 O1 2.408026 1_455
La3 O21 2.396800 1_555
La3 O12 2.400298 1_555
La3 O9 2.401380 1_554
La3 O18 2.404316 1_555
La3 O6 2.407865 1_545
La3 O0 2.408026 1_655
Eu0 O5 2.455222 1_544
Eu0 O4 2.455222 1_555
Eu0 O7 2.455222 1_554
Eu0 O6 2.455222 1_545
Eu1 O0 2.452415 1_555
Eu1 O1 2.452415 1_445
Eu1 O2 2.452415 1_455
Eu1 O3 2.452415 1_545
Eu2 O10 3.031971 1_544
Eu2 O11 3.031971 1_445
Eu2 O9 3.031971 1_454
Eu2 O8 3.031971 1_555
Eu2 O1 3.032842 1_445
Eu2 O0 3.032842 1_555
Eu2 O2 3.032842 1_454
Eu2 O3 3.032842 1_544
Eu2 O7 3.034223 1_454
Eu2 O5 3.034223 1_544
Eu2 O6 3.034223 1_445
Eu2 O4 3.034223 1_555
Eu3 O17 3.031427 1_555
Eu3 O18 3.031427 1_555
Eu3 O19 3.031427 1_555
Eu3 O16 3.031427 1_555
Eu3 O13 3.032859 1_555
Eu3 O12 3.032859 1_555
Eu3 O14 3.032859 1_555
Eu3 O15 3.032859 1_555
Eu3 O21 3.037712 1_555
Eu3 O20 3.037712 1_555
Eu3 O23 3.037712 1_555
Eu3 O22 3.037712 1_555
Nb0 O12 2.041668 1_555
Nb0 O8 2.042214 1_555
Nb0 O16 2.042435 1_555
Nb0 O20 2.049167 1_555
Nb0 O4 2.060628 1_555
Nb0 O0 2.062600 1_555
Nb1 O13 2.041668 1_555
Nb1 O11 2.042214 1_555
Nb1 O18 2.042435 1_555
Nb1 O23 2.049167 1_555
Nb1 O6 2.060628 1_555
Nb1 O1 2.062600 1_555
Nb2 O14 2.041668 1_555
Nb2 O9 2.042214 1_555
Nb2 O19 2.042435 1_555
Nb2 O21 2.049167 1_555
Nb2 O7 2.060628 1_555
Nb2 O2 2.062600 1_555
Nb3 O15 2.041668 1_555
Nb3 O10 2.042214 1_555
Nb3 O17 2.042435 1_555
Nb3 O22 2.049167 1_555
Nb3 O5 2.060628 1_555
Nb3 O3 2.062600 1_555
O8 Sr3 2.475374 1_555
O9 Sr3 2.475374 1_656
O10 Sr3 2.475374 1_556
O11 Sr3 2.475374 1_655
O12 Sr2 2.473767 1_555
O13 Sr2 2.473767 1_555
O14 Sr2 2.473767 1_556
O15 Sr2 2.473767 1_556
O16 Sr0 2.472356 1_555
O17 Sr0 2.472356 1_555
O18 Sr0 2.472356 1_655
O19 Sr0 2.472356 1_655
O20 Sr1 2.473758 1_555
O21 Sr1 2.473758 1_555
O22 Sr1 2.473758 1_565
O23 Sr1 2.473758 1_565
