# generated using pymatgen
data_Na(Mo2O3)2
_symmetry_space_group_name_H-M   'P 1'
_cell_length_a   10.01662900
_cell_length_b   10.01662900
_cell_length_c   3.26276000
_cell_angle_alpha   90.00000000
_cell_angle_beta   90.00000000
_cell_angle_gamma   90.00000000
_symmetry_Int_Tables_number   1
_chemical_formula_structural   Na(Mo2O3)2
_chemical_formula_sum   'Na2 Mo8 O12'
_cell_volume   327.36203095
_cell_formula_units_Z   2
loop_
 _symmetry_equiv_pos_site_id
 _symmetry_equiv_pos_as_xyz
  1  'x, y, z'
loop_
 _atom_site_type_symbol
 _atom_site_label
 _atom_site_symmetry_multiplicity
 _atom_site_fract_x
 _atom_site_fract_y
 _atom_site_fract_z
 _atom_site_occupancy
  Na  Na0  1  0.50000000  0.50000000  0.00000000  1
  Na  Na1  1  0.00000000  0.00000000  0.00000000  1
  Mo  Mo0  1  0.61625700  0.88374300  0.50000000  1
  Mo  Mo1  1  0.38374300  0.11625700  0.50000000  1
  Mo  Mo2  1  0.11625700  0.61625700  0.50000000  1
  Mo  Mo3  1  0.88374300  0.38374300  0.50000000  1
  Mo  Mo4  1  0.84659500  0.65340500  0.00000000  1
  Mo  Mo5  1  0.15340500  0.34659500  0.00000000  1
  Mo  Mo6  1  0.34659500  0.84659500  0.00000000  1
  Mo  Mo7  1  0.65340500  0.15340500  0.00000000  1
  O  O0  1  0.70364300  0.79635700  0.00000000  1
  O  O1  1  0.29635700  0.20364300  0.00000000  1
  O  O2  1  0.20364300  0.70364300  0.00000000  1
  O  O3  1  0.79635700  0.29635700  0.00000000  1
  O  O4  1  0.75235200  0.54937300  0.50000000  1
  O  O5  1  0.24764800  0.45062700  0.50000000  1
  O  O6  1  0.25235200  0.95062700  0.50000000  1
  O  O7  1  0.74764800  0.04937300  0.50000000  1
  O  O8  1  0.45062700  0.75235200  0.50000000  1
  O  O9  1  0.54937300  0.24764800  0.50000000  1
  O  O10  1  0.04937300  0.25235200  0.50000000  1
  O  O11  1  0.95062700  0.74764800  0.50000000  1
loop_
_geom_bond_atom_site_label_1
_geom_bond_atom_site_label_2
_geom_bond_distance
_geom_bond_site_symmetry_2
Na0 O4 3.048825 1_555
Na0 O4 3.048825 1_554
Na0 O5 3.048825 1_555
Na0 O8 3.048825 1_554
Na0 O5 3.048825 1_554
Na0 O9 3.048825 1_554
Na0 O8 3.048825 1_555
Na0 O9 3.048825 1_555
Na1 O7 3.048825 1_454
Na1 O6 3.048825 1_545
Na1 O7 3.048825 1_455
Na1 O11 3.048825 1_444
Na1 O11 3.048825 1_445
Na1 O6 3.048825 1_544
Na1 O10 3.048825 1_554
Na1 O10 3.048825 1_555
Mo0 O0 2.047864 1_556
Mo0 O0 2.047864 1_555
Mo0 O8 2.117680 1_555
Mo0 O7 2.117680 1_565
Mo1 O1 2.047864 1_556
Mo1 O1 2.047864 1_555
Mo1 O9 2.117680 1_555
Mo1 O6 2.117680 1_545
Mo2 O2 2.047864 1_556
Mo2 O2 2.047864 1_555
Mo2 O11 2.117680 1_455
Mo2 O5 2.117680 1_555
Mo3 O3 2.047864 1_555
Mo3 O3 2.047864 1_556
Mo3 O4 2.117680 1_555
Mo3 O10 2.117680 1_655
Mo4 O0 2.025008 1_555
Mo4 O11 2.153694 1_554
Mo4 O11 2.153694 1_555
Mo4 O4 2.153694 1_555
Mo4 O4 2.153694 1_554
Mo5 O1 2.025008 1_555
Mo5 O10 2.153694 1_554
Mo5 O10 2.153694 1_555
Mo5 O5 2.153694 1_555
Mo5 O5 2.153694 1_554
Mo6 O2 2.025008 1_555
Mo6 O8 2.153694 1_555
Mo6 O8 2.153694 1_554
Mo6 O6 2.153694 1_555
Mo6 O6 2.153694 1_554
Mo7 O3 2.025008 1_555
Mo7 O7 2.153694 1_555
Mo7 O9 2.153694 1_554
Mo7 O7 2.153694 1_554
Mo7 O9 2.153694 1_555
