# generated using pymatgen
data_Ca3(BN2)2
_symmetry_space_group_name_H-M   'P 1'
_cell_length_a   6.28647150
_cell_length_b   6.28647150
_cell_length_c   20.95566923
_cell_angle_alpha   90.00000000
_cell_angle_beta   90.00000000
_cell_angle_gamma   108.77030571
_symmetry_Int_Tables_number   1
_chemical_formula_structural   Ca3(BN2)2
_chemical_formula_sum   'Ca18 B12 N24'
_cell_volume   784.11740685
_cell_formula_units_Z   6
loop_
 _symmetry_equiv_pos_site_id
 _symmetry_equiv_pos_as_xyz
  1  'x, y, z'
loop_
 _atom_site_type_symbol
 _atom_site_label
 _atom_site_symmetry_multiplicity
 _atom_site_fract_x
 _atom_site_fract_y
 _atom_site_fract_z
 _atom_site_occupancy
  Ca  Ca0  1  0.96882425  0.96882425  0.25434921  1
  Ca  Ca1  1  0.03117575  0.03117575  0.74565079  1
  Ca  Ca2  1  0.53117575  0.53117575  0.75434921  1
  Ca  Ca3  1  0.46882425  0.46882425  0.24565079  1
  Ca  Ca4  1  0.23180117  0.72462402  0.37706940  1
  Ca  Ca5  1  0.27537598  0.76819883  0.62293060  1
  Ca  Ca6  1  0.77537598  0.26819883  0.87706940  1
  Ca  Ca7  1  0.73180117  0.22462402  0.12293060  1
  Ca  Ca8  1  0.76819883  0.27537598  0.62293060  1
  Ca  Ca9  1  0.72462402  0.23180117  0.37706940  1
  Ca  Ca10  1  0.22462402  0.73180117  0.12293060  1
  Ca  Ca11  1  0.26819883  0.77537598  0.87706940  1
  Ca  Ca12  1  0.23968737  0.23968737  0.37933604  1
  Ca  Ca13  1  0.76031263  0.76031263  0.62066396  1
  Ca  Ca14  1  0.26031263  0.26031263  0.87933604  1
  Ca  Ca15  1  0.73968737  0.73968737  0.12066396  1
  Ca  Ca16  1  -0.00000000  -0.00000000  0.50000000  1
  Ca  Ca17  1  0.50000000  0.50000000  0.00000000  1
  B  B0  1  0.73090011  0.73090011  0.36989484  1
  B  B1  1  0.26909989  0.26909989  0.63010516  1
  B  B2  1  0.76909989  0.76909989  0.86989484  1
  B  B3  1  0.23090011  0.23090011  0.13010516  1
  B  B4  1  0.46767618  0.96767618  0.25000000  1
  B  B5  1  0.03232382  0.53232382  0.75000000  1
  B  B6  1  0.53232382  0.03232382  0.75000000  1
  B  B7  1  0.96767618  0.46767618  0.25000000  1
  B  B8  1  0.50000000  -0.00000000  0.50000000  1
  B  B9  1  -0.00000000  0.50000000  0.50000000  1
  B  B10  1  0.50000000  -0.00000000  0.00000000  1
  B  B11  1  -0.00000000  0.50000000  0.00000000  1
  N  N0  1  0.03119662  0.38864496  0.44848492  1
  N  N1  1  0.61135504  0.96880338  0.55151508  1
  N  N2  1  0.11135504  0.46880338  0.94848492  1
  N  N3  1  0.53119662  0.88864496  0.05151508  1
  N  N4  1  0.96880338  0.61135504  0.55151508  1
  N  N5  1  0.38864496  0.03119662  0.44848492  1
  N  N6  1  0.88864496  0.53119662  0.05151508  1
  N  N7  1  0.46880338  0.11135504  0.94848492  1
  N  N8  1  0.55918378  0.87643502  0.20449565  1
  N  N9  1  0.12356498  0.44081622  0.79550435  1
  N  N10  1  0.62356498  0.94081622  0.70449565  1
  N  N11  1  0.05918378  0.37643502  0.29550435  1
  N  N12  1  0.44081622  0.12356498  0.79550435  1
  N  N13  1  0.87643502  0.55918378  0.20449565  1
  N  N14  1  0.37643502  0.05918378  0.29550435  1
  N  N15  1  0.94081622  0.62356498  0.70449565  1
  N  N16  1  0.55300888  0.55300888  0.35692458  1
  N  N17  1  0.44699112  0.44699112  0.64307542  1
  N  N18  1  0.94699112  0.94699112  0.85692458  1
  N  N19  1  0.05300888  0.05300888  0.14307542  1
  N  N20  1  0.91218917  0.91218917  0.37830093  1
  N  N21  1  0.08781083  0.08781083  0.62169907  1
  N  N22  1  0.58781083  0.58781083  0.87830093  1
  N  N23  1  0.41218917  0.41218917  0.12169907  1
loop_
_geom_bond_atom_site_label_1
_geom_bond_atom_site_label_2
_geom_bond_distance
_geom_bond_site_symmetry_2
Ca0 N19 2.411904 1_665
Ca0 N14 2.587624 1_665
Ca0 N11 2.587624 1_665
Ca0 N20 2.630381 1_555
Ca0 N8 2.664176 1_555
Ca0 N13 2.664176 1_555
Ca1 N18 2.411904 1_445
Ca1 N10 2.587624 1_445
Ca1 N15 2.587624 1_445
Ca1 N21 2.630381 1_555
Ca1 N12 2.664176 1_555
Ca1 N9 2.664176 1_555
Ca2 N17 2.411904 1_555
Ca2 N9 2.587624 1_555
Ca2 N12 2.587624 1_555
Ca2 N22 2.630381 1_555
Ca2 N10 2.664176 1_555
Ca2 N15 2.664176 1_555
Ca3 N16 2.411904 1_555
Ca3 N13 2.587624 1_555
Ca3 N8 2.587624 1_555
Ca3 N23 2.630381 1_555
Ca3 N11 2.664176 1_555
Ca3 N14 2.664176 1_555
Ca4 N5 2.388156 1_565
Ca4 N0 2.564559 1_555
Ca4 N16 2.611805 1_555
Ca4 N14 2.634584 1_565
Ca4 N20 2.636790 1_455
Ca4 N11 2.713243 1_555
Ca5 N4 2.388156 1_455
Ca5 N1 2.564559 1_555
Ca5 N17 2.611805 1_555
Ca5 N15 2.634584 1_455
Ca5 N21 2.636790 1_565
Ca5 N10 2.713243 1_555
Ca6 N7 2.388156 1_555
Ca6 N2 2.564559 1_655
Ca6 N18 2.611805 1_545
Ca6 N12 2.634584 1_555
Ca6 N22 2.636790 1_555
Ca6 N9 2.713243 1_655
Ca7 N6 2.388156 1_555
Ca7 N3 2.564559 1_545
Ca7 N19 2.611805 1_655
Ca7 N13 2.634584 1_555
Ca7 N23 2.636790 1_555
Ca7 N8 2.713243 1_545
Ca8 N1 2.388156 1_545
Ca8 N4 2.564559 1_555
Ca8 N17 2.611805 1_555
Ca8 N10 2.634584 1_545
Ca8 N21 2.636790 1_655
Ca8 N15 2.713243 1_555
Ca9 N0 2.388156 1_655
Ca9 N5 2.564559 1_555
Ca9 N16 2.611805 1_555
Ca9 N11 2.634584 1_655
Ca9 N20 2.636790 1_545
Ca9 N14 2.713243 1_555
Ca10 N3 2.388156 1_555
Ca10 N6 2.564559 1_455
Ca10 N19 2.611805 1_565
Ca10 N8 2.634584 1_555
Ca10 N23 2.636790 1_555
Ca10 N13 2.713243 1_455
Ca11 N2 2.388156 1_555
Ca11 N7 2.564559 1_565
Ca11 N18 2.611805 1_455
Ca11 N9 2.634584 1_555
Ca11 N22 2.636790 1_555
Ca11 N12 2.713243 1_565
Ca12 N16 2.341611 1_555
Ca12 N0 2.341872 1_555
Ca12 N5 2.341872 1_555
Ca12 N14 2.395948 1_555
Ca12 N11 2.395948 1_555
Ca12 N20 2.397925 1_445
Ca13 N17 2.341611 1_555
Ca13 N4 2.341872 1_555
Ca13 N1 2.341872 1_555
Ca13 N10 2.395948 1_555
Ca13 N15 2.395948 1_555
Ca13 N21 2.397925 1_665
Ca14 N18 2.341611 1_445
Ca14 N2 2.341872 1_555
Ca14 N7 2.341872 1_555
Ca14 N12 2.395948 1_555
Ca14 N9 2.395948 1_555
Ca14 N22 2.397925 1_555
Ca15 N19 2.341611 1_665
Ca15 N3 2.341872 1_555
Ca15 N6 2.341872 1_555
Ca15 N8 2.395948 1_555
Ca15 N13 2.395948 1_555
Ca15 N23 2.397925 1_555
Ca16 N0 2.620066 1_555
Ca16 N5 2.620066 1_555
Ca16 N4 2.620066 1_445
Ca16 N1 2.620066 1_445
Ca16 N21 2.630076 1_555
Ca16 N20 2.630076 1_445
Ca17 N6 2.620066 1_555
Ca17 N3 2.620066 1_555
Ca17 N7 2.620066 1_554
Ca17 N2 2.620066 1_554
Ca17 N23 2.630076 1_555
Ca17 N22 2.630076 1_554
B0 N16 1.330515 1_555
B0 N20 1.338973 1_555
B1 N17 1.330515 1_555
B1 N21 1.338973 1_555
B2 N18 1.330515 1_555
B2 N22 1.338973 1_555
B3 N19 1.330515 1_555
B3 N23 1.338973 1_555
B4 N14 1.334756 1_565
B4 N8 1.334756 1_555
B5 N15 1.334756 1_455
B5 N9 1.334756 1_555
B6 N12 1.334756 1_555
B6 N10 1.334756 1_545
B7 N11 1.334756 1_655
B7 N13 1.334756 1_555
B8 N5 1.335008 1_555
B8 N1 1.335008 1_545
B9 N0 1.335008 1_555
B9 N4 1.335008 1_455
B10 N3 1.335008 1_545
B10 N7 1.335008 1_554
B11 N6 1.335008 1_455
B11 N2 1.335008 1_554
