# generated using pymatgen
data_CsGaTe2
_symmetry_space_group_name_H-M   'P 1'
_cell_length_a   8.49364156
_cell_length_b   8.49387601
_cell_length_c   18.13100325
_cell_angle_alpha   83.27919171
_cell_angle_beta   83.27976468
_cell_angle_gamma   89.89943964
_symmetry_Int_Tables_number   1
_chemical_formula_structural   CsGaTe2
_chemical_formula_sum   'Cs8 Ga8 Te16'
_cell_volume   1290.03355570
_cell_formula_units_Z   8
loop_
 _symmetry_equiv_pos_site_id
 _symmetry_equiv_pos_as_xyz
  1  'x, y, z'
loop_
 _atom_site_type_symbol
 _atom_site_label
 _atom_site_symmetry_multiplicity
 _atom_site_fract_x
 _atom_site_fract_y
 _atom_site_fract_z
 _atom_site_occupancy
  Cs  Cs0  1  0.77528341  0.14983116  0.40057400  1
  Cs  Cs1  1  0.85016869  0.22471853  0.09942497  1
  Cs  Cs2  1  0.22471570  0.85015566  0.59944053  1
  Cs  Cs3  1  0.14984179  0.77527069  0.90056475  1
  Cs  Cs4  1  0.34850341  0.22300249  0.10729435  1
  Cs  Cs5  1  0.77700003  0.65149478  0.39270933  1
  Cs  Cs6  1  0.65151020  0.77698224  0.89268844  1
  Cs  Cs7  1  0.22301073  0.34847803  0.60731356  1
  Ga  Ga0  1  0.29253073  0.91452986  0.32896928  1
  Ga  Ga1  1  0.57947489  0.70725416  0.17170469  1
  Ga  Ga2  1  0.29273284  0.42051231  0.32830135  1
  Ga  Ga3  1  0.42054722  0.29275461  0.82826591  1
  Ga  Ga4  1  0.70725724  0.57945588  0.67172245  1
  Ga  Ga5  1  0.08546452  0.70751891  0.17103557  1
  Ga  Ga6  1  0.70750995  0.08544246  0.67103780  1
  Ga  Ga7  1  0.91455572  0.29247961  0.82896706  1
  Te  Te0  1  0.94661695  0.57157716  0.75051904  1
  Te  Te1  1  0.42840334  0.05338557  0.74948394  1
  Te  Te2  1  0.05339205  0.42844162  0.24947139  1
  Te  Te3  1  0.57189653  0.42808744  0.25001059  1
  Te  Te4  1  0.57162667  0.94657724  0.25052585  1
  Te  Te5  1  0.94660383  0.05337774  0.74999795  1
  Te  Te6  1  0.05338977  0.94668566  0.24998090  1
  Te  Te7  1  0.42812484  0.57186950  0.74999812  1
  Te  Te8  1  0.73008059  0.35555588  0.58055293  1
  Te  Te9  1  0.64443610  0.26994303  0.91944119  1
  Te  Te10  1  0.26985903  0.64445447  0.41944069  1
  Te  Te11  1  0.35555226  0.73010630  0.08055426  1
  Te  Te12  1  0.14629274  0.27050469  0.91748398  1
  Te  Te13  1  0.72947299  0.85373757  0.58251618  1
  Te  Te14  1  0.85370983  0.72955156  0.08250344  1
  Te  Te15  1  0.27043441  0.14626316  0.41750454  1
loop_
_geom_bond_atom_site_label_1
_geom_bond_atom_site_label_2
_geom_bond_distance
_geom_bond_site_symmetry_2
Cs0 Te8 3.858543 1_555
Cs0 Te13 3.888409 1_545
Cs0 Te4 3.947800 1_545
Cs0 Te6 3.948553 1_645
Cs0 Te3 3.949889 1_555
Cs0 Te2 3.958936 1_655
Cs0 Te15 4.252298 1_655
Cs0 Te15 4.262905 1_555
Cs1 Te9 3.858613 1_554
Cs1 Te12 3.888514 1_654
Cs1 Te2 3.947933 1_655
Cs1 Te6 3.948090 1_645
Cs1 Te3 3.950170 1_555
Cs1 Te4 3.958761 1_545
Cs1 Te14 4.252522 1_545
Cs1 Te14 4.262892 1_555
Cs2 Te10 3.858769 1_555
Cs2 Te15 3.888387 1_565
Cs2 Te1 3.947762 1_565
Cs2 Te5 3.948478 1_465
Cs2 Te7 3.950047 1_555
Cs2 Te0 3.958511 1_455
Cs2 Te13 4.253054 1_455
Cs2 Te13 4.262133 1_555
Cs3 Te11 3.858602 1_556
Cs3 Te14 3.888518 1_456
Cs3 Te0 3.947799 1_455
Cs3 Te5 3.948622 1_465
Cs3 Te7 3.950128 1_555
Cs3 Te1 3.958530 1_565
Cs3 Te12 4.253082 1_565
Cs3 Te12 4.262326 1_555
Cs4 Te2 3.936775 1_555
Cs4 Te3 3.942841 1_555
Cs4 Te4 3.944281 1_545
Cs4 Te6 3.945378 1_545
Cs4 Te9 3.969823 1_554
Cs4 Te12 4.001516 1_554
Cs4 Te11 4.270090 1_545
Cs4 Te11 4.277452 1_555
Cs5 Te4 3.936408 1_555
Cs5 Te3 3.942753 1_555
Cs5 Te2 3.943903 1_655
Cs5 Te6 3.946459 1_655
Cs5 Te8 3.969736 1_555
Cs5 Te13 4.001647 1_555
Cs5 Te10 4.269621 1_655
Cs5 Te10 4.277654 1_555
Cs6 Te0 3.936515 1_555
Cs6 Te7 3.942568 1_555
Cs6 Te1 3.943792 1_565
Cs6 Te5 3.945666 1_565
Cs6 Te11 3.970114 1_556
Cs6 Te14 4.001542 1_556
Cs6 Te9 4.270687 1_565
Cs6 Te9 4.276906 1_555
Cs7 Te1 3.936390 1_555
Cs7 Te7 3.942528 1_555
Cs7 Te0 3.943748 1_455
Cs7 Te5 3.945696 1_455
Cs7 Te10 3.970316 1_555
Cs7 Te15 4.001557 1_555
Cs7 Te8 4.270341 1_455
Cs7 Te8 4.277051 1_555
Ga0 Te6 2.615074 1_555
Ga0 Te4 2.615138 1_555
Ga0 Te10 2.652740 1_555
Ga0 Te15 2.674695 1_565
Ga1 Te3 2.614127 1_555
Ga1 Te4 2.614609 1_555
Ga1 Te11 2.654333 1_555
Ga1 Te14 2.669300 1_555
Ga2 Te3 2.613945 1_555
Ga2 Te2 2.614751 1_555
Ga2 Te10 2.654378 1_555
Ga2 Te15 2.669453 1_555
Ga3 Te7 2.613456 1_555
Ga3 Te1 2.614484 1_555
Ga3 Te9 2.654422 1_555
Ga3 Te12 2.669583 1_555
Ga4 Te7 2.613598 1_555
Ga4 Te0 2.614519 1_555
Ga4 Te8 2.654477 1_555
Ga4 Te13 2.669701 1_555
Ga5 Te6 2.614802 1_555
Ga5 Te2 2.614998 1_555
Ga5 Te11 2.652876 1_555
Ga5 Te14 2.674747 1_455
Ga6 Te5 2.614387 1_555
Ga6 Te1 2.615239 1_555
Ga6 Te8 2.653119 1_555
Ga6 Te13 2.674335 1_545
Ga7 Te5 2.614600 1_555
Ga7 Te0 2.615233 1_555
Ga7 Te9 2.653024 1_555
Ga7 Te12 2.674440 1_655
