# generated using pymatgen
data_Sr2FeO3F
_symmetry_space_group_name_H-M   'P 1'
_cell_length_a   5.55761300
_cell_length_b   5.55761300
_cell_length_c   26.48225200
_cell_angle_alpha   90.00000000
_cell_angle_beta   90.00000000
_cell_angle_gamma   90.00000000
_symmetry_Int_Tables_number   1
_chemical_formula_structural   Sr2FeO3F
_chemical_formula_sum   'Sr16 Fe8 O24 F8'
_cell_volume   817.95896625
_cell_formula_units_Z   8
loop_
 _symmetry_equiv_pos_site_id
 _symmetry_equiv_pos_as_xyz
  1  'x, y, z'
loop_
 _atom_site_type_symbol
 _atom_site_label
 _atom_site_symmetry_multiplicity
 _atom_site_fract_x
 _atom_site_fract_y
 _atom_site_fract_z
 _atom_site_occupancy
  Sr  Sr0  1  0.75000100  0.25000100  0.55218200  1
  Sr  Sr1  1  0.25000100  0.75000100  0.55218200  1
  Sr  Sr2  1  0.75000100  0.25000100  0.05218200  1
  Sr  Sr3  1  0.75000100  0.75000100  0.44781800  1
  Sr  Sr4  1  0.25000100  0.25000100  0.44781800  1
  Sr  Sr5  1  0.25000100  0.25000100  0.94781800  1
  Sr  Sr6  1  0.75000100  0.75000100  0.94781800  1
  Sr  Sr7  1  0.25000100  0.75000100  0.05218200  1
  Sr  Sr8  1  0.25000100  0.75000100  0.18807400  1
  Sr  Sr9  1  0.75000100  0.75000100  0.81192700  1
  Sr  Sr10  1  0.25000100  0.25000100  0.81192700  1
  Sr  Sr11  1  0.25000100  0.25000100  0.31192600  1
  Sr  Sr12  1  0.75000100  0.75000100  0.31192600  1
  Sr  Sr13  1  0.75000100  0.25000100  0.18807400  1
  Sr  Sr14  1  0.25000100  0.75000100  0.68807300  1
  Sr  Sr15  1  0.75000100  0.25000100  0.68807300  1
  Fe  Fe0  1  0.25000100  0.25000100  0.61396500  1
  Fe  Fe1  1  0.75000100  0.75000100  0.61396500  1
  Fe  Fe2  1  0.75000100  0.75000100  0.11396500  1
  Fe  Fe3  1  0.75000100  0.25000100  0.38603500  1
  Fe  Fe4  1  0.25000100  0.75000100  0.38603500  1
  Fe  Fe5  1  0.75000100  0.25000100  0.88603500  1
  Fe  Fe6  1  0.25000100  0.75000100  0.88603500  1
  Fe  Fe7  1  0.25000100  0.25000100  0.11396500  1
  O  O0  1  0.00000000  0.50000000  0.62690200  1
  O  O1  1  0.50000000  0.00000000  0.37309900  1
  O  O2  1  0.00000000  0.50000000  0.87309800  1
  O  O3  1  0.50000000  0.00000000  0.12690100  1
  O  O4  1  0.50000000  0.00000000  0.62690200  1
  O  O5  1  0.00000000  0.50000000  0.37309900  1
  O  O6  1  0.50000000  0.00000000  0.87309800  1
  O  O7  1  0.00000000  0.50000000  0.12690100  1
  O  O8  1  0.50000000  0.50000000  0.62690200  1
  O  O9  1  0.50000000  0.50000000  0.37309900  1
  O  O10  1  0.50000000  0.50000000  0.87309800  1
  O  O11  1  0.50000000  0.50000000  0.12690100  1
  O  O12  1  0.00000000  0.00000000  0.62690200  1
  O  O13  1  0.00000000  0.00000000  0.37309900  1
  O  O14  1  0.00000000  0.00000000  0.87309800  1
  O  O15  1  0.00000000  0.00000000  0.12690100  1
  O  O16  1  0.25000100  0.25000100  0.54107200  1
  O  O17  1  0.75000100  0.75000100  0.54107200  1
  O  O18  1  0.75000100  0.75000100  0.04107200  1
  O  O19  1  0.25000100  0.25000100  0.04107200  1
  O  O20  1  0.25000100  0.75000100  0.45892800  1
  O  O21  1  0.75000100  0.25000100  0.95892800  1
  O  O22  1  0.25000100  0.75000100  0.95892800  1
  O  O23  1  0.75000100  0.25000100  0.45892800  1
  F  F0  1  0.25000100  0.25000100  0.71732800  1
  F  F1  1  0.75000100  0.75000100  0.71732800  1
  F  F2  1  0.75000100  0.75000100  0.21732800  1
  F  F3  1  0.75000100  0.25000100  0.28267200  1
  F  F4  1  0.25000100  0.75000100  0.28267200  1
  F  F5  1  0.75000100  0.25000100  0.78267200  1
  F  F6  1  0.25000100  0.75000100  0.78267200  1
  F  F7  1  0.25000100  0.25000100  0.21732800  1
loop_
_geom_bond_atom_site_label_1
_geom_bond_atom_site_label_2
_geom_bond_distance
_geom_bond_site_symmetry_2
Fe0 O16 1.930371 1_555
Fe0 O8 1.994549 1_555
Fe0 O0 1.994557 1_555
Fe0 O4 1.994557 1_555
Fe0 O12 1.994565 1_555
Fe1 O17 1.930371 1_555
Fe1 O12 1.994549 1_665
Fe1 O4 1.994557 1_565
Fe1 O0 1.994557 1_655
Fe1 O8 1.994565 1_555
Fe2 O18 1.930371 1_555
Fe2 O15 1.994545 1_665
Fe2 O3 1.994553 1_565
Fe2 O7 1.994553 1_655
Fe2 O11 1.994560 1_555
Fe3 O23 1.930371 1_555
Fe3 O5 1.994545 1_655
Fe3 O13 1.994553 1_655
Fe3 O9 1.994553 1_555
Fe3 O1 1.994560 1_555
Fe4 O20 1.930371 1_555
Fe4 O1 1.994545 1_565
Fe4 O13 1.994553 1_565
Fe4 O9 1.994553 1_555
Fe4 O5 1.994560 1_555
Fe5 O21 1.930371 1_555
Fe5 O2 1.994549 1_655
Fe5 O14 1.994557 1_655
Fe5 O10 1.994557 1_555
Fe5 O6 1.994565 1_555
Fe6 O22 1.930371 1_555
Fe6 O6 1.994549 1_565
Fe6 O14 1.994557 1_565
Fe6 O10 1.994557 1_555
Fe6 O2 1.994565 1_555
Fe7 O19 1.930371 1_555
Fe7 O11 1.994545 1_555
Fe7 O3 1.994553 1_555
Fe7 O7 1.994553 1_555
Fe7 O15 1.994560 1_555
O0 Sr15 2.546581 1_455
O0 Sr14 2.546593 1_555
O0 Sr0 2.788605 1_455
O0 Sr1 2.788616 1_555
O1 Sr11 2.546621 1_555
O1 Sr12 2.546621 1_545
O1 Sr4 2.788592 1_555
O1 Sr3 2.788592 1_545
O2 Sr9 2.546587 1_455
O2 Sr10 2.546587 1_555
O2 Sr5 2.788611 1_555
O2 Sr6 2.788611 1_455
O3 Sr8 2.546615 1_545
O3 Sr13 2.546627 1_555
O3 Sr7 2.788586 1_545
O3 Sr2 2.788597 1_555
O4 Sr14 2.546581 1_545
O4 Sr15 2.546593 1_555
O4 Sr1 2.788605 1_545
O4 Sr0 2.788616 1_555
O5 Sr11 2.546621 1_555
O5 Sr12 2.546621 1_455
O5 Sr4 2.788592 1_555
O5 Sr3 2.788592 1_455
O6 Sr9 2.546587 1_545
O6 Sr10 2.546587 1_555
O6 Sr6 2.788611 1_545
O6 Sr5 2.788611 1_555
O7 Sr13 2.546615 1_455
O7 Sr8 2.546627 1_555
O7 Sr2 2.788586 1_455
O7 Sr7 2.788597 1_555
O8 Sr14 2.546587 1_555
O8 Sr15 2.546587 1_555
O8 Sr0 2.788611 1_555
O8 Sr1 2.788611 1_555
O9 Sr11 2.546615 1_555
O9 Sr12 2.546627 1_555
O9 Sr4 2.788586 1_555
O9 Sr3 2.788597 1_555
O10 Sr10 2.546581 1_555
O10 Sr9 2.546593 1_555
O10 Sr5 2.788605 1_555
O10 Sr6 2.788616 1_555
O11 Sr8 2.546621 1_555
O11 Sr13 2.546621 1_555
O11 Sr7 2.788592 1_555
O11 Sr2 2.788592 1_555
O12 Sr15 2.546587 1_455
O12 Sr14 2.546587 1_545
O12 Sr1 2.788611 1_545
O12 Sr0 2.788611 1_455
O13 Sr12 2.546615 1_445
O13 Sr11 2.546627 1_555
O13 Sr3 2.788586 1_445
O13 Sr4 2.788597 1_555
O14 Sr9 2.546581 1_445
O14 Sr10 2.546593 1_555
O14 Sr6 2.788605 1_445
O14 Sr5 2.788616 1_555
O15 Sr8 2.546621 1_545
O15 Sr13 2.546621 1_455
O15 Sr7 2.788592 1_545
O15 Sr2 2.788592 1_455
O16 Sr4 2.469576 1_555
O16 Sr0 2.794339 1_455
O16 Sr1 2.794339 1_545
O16 Sr0 2.794339 1_555
O16 Sr1 2.794339 1_555
O17 Sr3 2.469576 1_555
O17 Sr0 2.794339 1_565
O17 Sr1 2.794339 1_655
O17 Sr0 2.794339 1_555
O17 Sr1 2.794339 1_555
O18 Sr6 2.469576 1_554
O18 Sr7 2.794339 1_655
O18 Sr2 2.794339 1_565
O18 Sr2 2.794339 1_555
O18 Sr7 2.794339 1_555
O19 Sr5 2.469576 1_554
O19 Sr7 2.794339 1_545
O19 Sr2 2.794339 1_455
O19 Sr2 2.794339 1_555
O19 Sr7 2.794339 1_555
O20 Sr1 2.469576 1_555
O20 Sr4 2.794339 1_565
O20 Sr3 2.794339 1_455
O20 Sr3 2.794339 1_555
O20 Sr4 2.794339 1_555
O21 Sr2 2.469576 1_556
O21 Sr6 2.794339 1_545
O21 Sr5 2.794339 1_655
O21 Sr6 2.794339 1_555
O21 Sr5 2.794339 1_555
O22 Sr7 2.469576 1_556
O22 Sr5 2.794339 1_565
O22 Sr6 2.794339 1_455
O22 Sr6 2.794339 1_555
O22 Sr5 2.794339 1_555
O23 Sr0 2.469576 1_555
O23 Sr3 2.794339 1_545
O23 Sr4 2.794339 1_655
O23 Sr3 2.794339 1_555
O23 Sr4 2.794339 1_555
F0 Sr10 2.505195 1_555
F0 Sr15 2.884785 1_455
F0 Sr14 2.884785 1_545
F0 Sr14 2.884785 1_555
F0 Sr15 2.884785 1_555
F1 Sr9 2.505195 1_555
F1 Sr14 2.884785 1_655
F1 Sr15 2.884785 1_565
F1 Sr15 2.884785 1_555
F1 Sr14 2.884785 1_555
F2 Sr12 2.505168 1_555
F2 Sr8 2.884778 1_555
F2 Sr13 2.884778 1_555
F2 Sr8 2.884778 1_655
F2 Sr13 2.884778 1_565
F3 Sr13 2.505168 1_555
F3 Sr11 2.884778 1_655
F3 Sr12 2.884778 1_545
F3 Sr12 2.884778 1_555
F3 Sr11 2.884778 1_555
F4 Sr8 2.505168 1_555
F4 Sr11 2.884778 1_565
F4 Sr12 2.884778 1_455
F4 Sr12 2.884778 1_555
F4 Sr11 2.884778 1_555
F5 Sr15 2.505195 1_555
F5 Sr10 2.884785 1_655
F5 Sr9 2.884785 1_545
F5 Sr10 2.884785 1_555
F5 Sr9 2.884785 1_555
F6 Sr14 2.505195 1_555
F6 Sr10 2.884785 1_565
F6 Sr9 2.884785 1_455
F6 Sr10 2.884785 1_555
F6 Sr9 2.884785 1_555
F7 Sr11 2.505168 1_555
F7 Sr8 2.884778 1_555
F7 Sr13 2.884778 1_455
F7 Sr13 2.884778 1_555
F7 Sr8 2.884778 1_545
