# generated using pymatgen
data_Ca2FeRhO6
_symmetry_space_group_name_H-M   'P 1'
_cell_length_a   6.49085865
_cell_length_b   6.49085865
_cell_length_c   6.36092202
_cell_angle_alpha   87.30966846
_cell_angle_beta   87.30966846
_cell_angle_gamma   91.56889719
_symmetry_Int_Tables_number   1
_chemical_formula_structural   Ca2FeRhO6
_chemical_formula_sum   'Ca4 Fe2 Rh2 O12'
_cell_volume   267.28558979
_cell_formula_units_Z   2
loop_
 _symmetry_equiv_pos_site_id
 _symmetry_equiv_pos_as_xyz
  1  'x, y, z'
loop_
 _atom_site_type_symbol
 _atom_site_label
 _atom_site_symmetry_multiplicity
 _atom_site_fract_x
 _atom_site_fract_y
 _atom_site_fract_z
 _atom_site_occupancy
  Ca  Ca0  1  0.61611800  0.38388200  0.50000000  1
  Ca  Ca1  1  0.37898900  0.62101100  0.00000000  1
  Ca  Ca2  1  0.76244900  0.88084400  0.63710700  1
  Ca  Ca3  1  0.11915600  0.23755100  0.36289300  1
  Fe  Fe0  1  0.24986200  0.75013800  0.50000000  1
  Fe  Fe1  1  0.75014000  0.24986000  0.00000000  1
  Rh  Rh0  1  0.50390300  0.99985400  0.24680300  1
  Rh  Rh1  1  0.00014600  0.49609700  0.75319700  1
  O  O0  1  0.88402100  0.20854100  0.70705000  1
  O  O1  1  0.03446400  0.40062200  0.04204800  1
  O  O2  1  0.69639500  0.53274200  0.83222200  1
  O  O3  1  0.59937800  0.96553600  0.95795200  1
  O  O4  1  0.79145900  0.11597900  0.29295000  1
  O  O5  1  0.46725800  0.30360500  0.16777800  1
  O  O6  1  0.09834000  0.78714800  0.77262200  1
  O  O7  1  0.96321600  0.58402000  0.46077900  1
  O  O8  1  0.29457600  0.47058000  0.64901400  1
  O  O9  1  0.41598000  0.03678400  0.53922100  1
  O  O10  1  0.52942000  0.70542400  0.35098600  1
  O  O11  1  0.21285200  0.90166000  0.22737800  1
loop_
_geom_bond_atom_site_label_1
_geom_bond_atom_site_label_2
_geom_bond_distance
_geom_bond_site_symmetry_2
Ca0 O8 2.345149 1_555
Ca0 O10 2.345149 1_555
Ca0 O5 2.436877 1_555
Ca0 O2 2.436877 1_555
Ca0 O0 2.497272 1_555
Ca0 O4 2.497272 1_555
Ca0 O7 2.565582 1_555
Ca0 O9 2.565582 1_555
Ca1 O2 2.372221 1_554
Ca1 O5 2.372221 1_555
Ca1 O10 2.555050 1_555
Ca1 O8 2.555050 1_554
Ca1 O6 2.604165 1_554
Ca1 O11 2.604165 1_555
Ca1 O3 2.617545 1_554
Ca1 O1 2.617545 1_555
Ca2 O0 2.318359 1_565
Ca2 O3 2.349915 1_555
Ca2 O6 2.462944 1_655
Ca2 O2 2.542279 1_555
Ca2 O9 2.581977 1_565
Ca2 O4 2.605599 1_565
Ca2 O7 2.621314 1_555
Ca2 O10 2.693573 1_555
Ca3 O4 2.318359 1_455
Ca3 O1 2.349915 1_555
Ca3 O11 2.462944 1_545
Ca3 O5 2.542279 1_555
Ca3 O7 2.581977 1_455
Ca3 O0 2.605599 1_455
Ca3 O9 2.621314 1_555
Ca3 O8 2.693573 1_555
Fe0 O6 1.980942 1_555
Fe0 O11 1.980942 1_555
Fe0 O8 2.041704 1_555
Fe0 O10 2.041704 1_555
Fe0 O9 2.155363 1_565
Fe0 O7 2.155363 1_455
Fe1 O4 2.051130 1_555
Fe1 O0 2.051130 1_554
Fe1 O1 2.099300 1_655
Fe1 O3 2.099300 1_544
Fe1 O5 2.125598 1_555
Fe1 O2 2.125598 1_554
O0 Rh1 2.033037 1_655
O1 Rh1 1.936141 1_554
O2 Rh1 2.034784 1_655
O3 Rh0 1.936141 1_556
O4 Rh0 2.033037 1_545
O5 Rh0 2.034784 1_545
O6 Rh1 1.988426 1_555
O7 Rh1 1.947467 1_655
O8 Rh1 2.006904 1_555
O9 Rh0 1.947467 1_545
O10 Rh0 2.006904 1_555
O11 Rh0 1.988426 1_555
