# generated using pymatgen
data_Ag3PO4
_symmetry_space_group_name_H-M   'P 1'
_cell_length_a   6.01850972
_cell_length_b   6.01850972
_cell_length_c   6.01851044
_cell_angle_alpha   89.69095889
_cell_angle_beta   89.69095889
_cell_angle_gamma   89.69096050
_symmetry_Int_Tables_number   1
_chemical_formula_structural   Ag3PO4
_chemical_formula_sum   'Ag6 P2 O8'
_cell_volume   217.99576980
_cell_formula_units_Z   2
loop_
 _symmetry_equiv_pos_site_id
 _symmetry_equiv_pos_as_xyz
  1  'x, y, z'
loop_
 _atom_site_type_symbol
 _atom_site_label
 _atom_site_symmetry_multiplicity
 _atom_site_fract_x
 _atom_site_fract_y
 _atom_site_fract_z
 _atom_site_occupancy
  Ag  Ag0  1  0.19246030  0.00118137  0.49753724  1
  Ag  Ag1  1  0.00118137  0.49753724  0.19246030  1
  Ag  Ag2  1  0.49753724  0.19246030  0.00118137  1
  Ag  Ag3  1  0.50118137  0.69246030  0.99753724  1
  Ag  Ag4  1  0.69246030  0.99753724  0.50118137  1
  Ag  Ag5  1  0.99753724  0.50118137  0.69246030  1
  P  P0  1  0.50129211  0.50129211  0.50129211  1
  P  P1  1  0.00129211  0.00129211  0.00129211  1
  O  O0  1  0.15114011  0.15114011  0.15114011  1
  O  O1  1  0.15359041  0.86904072  0.84275773  1
  O  O2  1  0.84275773  0.15359041  0.86904072  1
  O  O3  1  0.86904072  0.84275773  0.15359041  1
  O  O4  1  0.36904072  0.65359041  0.34275773  1
  O  O5  1  0.65359041  0.34275773  0.36904072  1
  O  O6  1  0.65114011  0.65114011  0.65114011  1
  O  O7  1  0.34275773  0.36904072  0.65359041  1
loop_
_geom_bond_atom_site_label_1
_geom_bond_atom_site_label_2
_geom_bond_distance
_geom_bond_site_symmetry_2
Ag0 O1 2.232273 1_545
Ag0 O0 2.281588 1_555
Ag0 O4 2.521894 1_545
Ag0 O7 2.579766 1_555
Ag1 O3 2.232273 1_455
Ag1 O0 2.281588 1_555
Ag1 O5 2.521894 1_455
Ag1 O4 2.579766 1_555
Ag2 O2 2.232273 1_554
Ag2 O0 2.281588 1_555
Ag2 O7 2.521894 1_554
Ag2 O5 2.579766 1_555
Ag3 O4 2.232273 1_556
Ag3 O6 2.281588 1_555
Ag3 O1 2.521894 1_555
Ag3 O3 2.579766 1_556
Ag4 O5 2.232273 1_565
Ag4 O6 2.281588 1_555
Ag4 O3 2.521894 1_555
Ag4 O2 2.579766 1_565
Ag5 O7 2.232273 1_655
Ag5 O6 2.281588 1_555
Ag5 O2 2.521894 1_555
Ag5 O1 2.579766 1_655
O0 P1 1.570473 1_555
O1 P1 1.541100 1_566
O2 P1 1.541100 1_656
O3 P1 1.541100 1_665
O4 P0 1.541100 1_555
O5 P0 1.541100 1_555
O6 P0 1.570473 1_555
O7 P0 1.541100 1_555
