# generated using pymatgen
data_Rb2LiNd2(WO4)4
_symmetry_space_group_name_H-M   'P 1'
_cell_length_a   7.92475329
_cell_length_b   7.92475350
_cell_length_c   7.61935001
_cell_angle_alpha   62.02263814
_cell_angle_beta   62.02263700
_cell_angle_gamma   88.61754193
_symmetry_Int_Tables_number   1
_chemical_formula_structural   Rb2LiNd2(WO4)4
_chemical_formula_sum   'Rb2 Li1 Nd2 W4 O16'
_cell_volume   361.22934253
_cell_formula_units_Z   1
loop_
 _symmetry_equiv_pos_site_id
 _symmetry_equiv_pos_as_xyz
  1  'x, y, z'
loop_
 _atom_site_type_symbol
 _atom_site_label
 _atom_site_symmetry_multiplicity
 _atom_site_fract_x
 _atom_site_fract_y
 _atom_site_fract_z
 _atom_site_occupancy
  Rb  Rb0  1  0.79360200  0.20639800  0.75000000  1
  Rb  Rb1  1  0.21029900  0.78970100  0.25000000  1
  Li  Li0  1  0.50646500  0.49353500  0.75000000  1
  Nd  Nd0  1  0.22179100  0.77820900  0.75000000  1
  Nd  Nd1  1  0.77176700  0.22823300  0.25000000  1
  W  W0  1  0.69402800  0.71109500  0.79872200  1
  W  W1  1  0.70486900  0.69460300  0.29055100  1
  W  W2  1  0.30539700  0.29513100  0.20944900  1
  W  W3  1  0.28890500  0.30597200  0.70127800  1
  O  O0  1  0.58581600  0.37836400  0.47302700  1
  O  O1  1  0.23131800  0.03998200  0.80902100  1
  O  O2  1  0.05900200  0.36460900  0.86527300  1
  O  O3  1  0.36451300  0.06404000  0.36693200  1
  O  O4  1  0.75648600  0.64350000  0.54676400  1
  O  O5  1  0.35650000  0.24351400  0.95323600  1
  O  O6  1  0.63539100  0.94099800  0.63472700  1
  O  O7  1  0.41406000  0.62225400  0.53917600  1
  O  O8  1  0.04154700  0.23649000  0.31130900  1
  O  O9  1  0.76351000  0.95845300  0.18869100  1
  O  O10  1  0.37774600  0.58594000  0.96082400  1
  O  O11  1  0.93596000  0.63548700  0.13306800  1
  O  O12  1  0.25055500  0.36784700  0.43957500  1
  O  O13  1  0.63215300  0.74944500  0.06042500  1
  O  O14  1  0.96001800  0.76868200  0.69097900  1
  O  O15  1  0.62163600  0.41418400  0.02697300  1
loop_
_geom_bond_atom_site_label_1
_geom_bond_atom_site_label_2
_geom_bond_distance
_geom_bond_site_symmetry_2
Li0 O4 1.801199 1_555
Li0 O5 1.801199 1_555
Li0 O10 1.920246 1_555
Li0 O7 1.920246 1_555
Li0 O0 2.493275 1_555
Li0 O15 2.493275 1_556
Nd0 O14 2.329405 1_455
Nd0 O1 2.329405 1_565
Nd0 O11 2.398401 1_456
Nd0 O3 2.398401 1_565
Nd0 O7 2.429983 1_555
Nd0 O10 2.429983 1_555
Nd1 O8 2.401196 1_655
Nd1 O9 2.401197 1_545
Nd1 O2 2.414145 1_654
Nd1 O6 2.414145 1_545
Nd1 O0 2.436710 1_555
Nd1 O15 2.436710 1_555
O0 W3 2.044431 1_555
O0 W1 2.172088 1_555
O0 Rb0 3.078317 1_555
O1 W3 1.843038 1_555
O1 Rb1 2.913633 1_546
O2 W3 1.861354 1_555
O2 Rb0 3.108152 1_455
O3 W2 1.854009 1_555
O3 Rb1 3.159282 1_545
O4 W1 2.035139 1_555
O4 W0 2.068316 1_555
O4 Rb1 3.082577 1_655
O4 Rb0 3.135074 1_555
O5 W2 2.035139 1_556
O5 W3 2.068316 1_555
O5 Rb1 3.082578 1_546
O5 Rb0 3.135074 1_555
O6 W0 1.861354 1_555
O6 Rb0 3.108152 1_565
O7 W1 2.043782 1_555
O7 W3 2.203986 1_555
O7 Rb1 3.116810 1_555
O8 W2 1.837462 1_555
O8 Rb0 2.864061 1_455
O9 W1 1.837462 1_555
O9 Rb0 2.864061 1_564
O10 W2 2.043782 1_556
O10 W0 2.203986 1_555
O10 Rb1 3.116810 1_556
O11 W1 1.854009 1_555
O11 Rb1 3.159282 1_655
O12 W2 1.953548 1_555
O12 W3 1.988187 1_555
O12 Rb1 3.035560 1_555
O12 Rb0 3.113326 1_455
O13 W1 1.953548 1_555
O13 W0 1.988187 1_554
O13 Rb1 3.035560 1_555
O13 Rb0 3.113326 1_564
O14 W0 1.843038 1_555
O14 Rb1 2.913633 1_655
O15 W0 2.044431 1_554
O15 W2 2.172088 1_555
O15 Rb0 3.078317 1_554
