# generated using pymatgen
data_Li4Co5SnO12
_symmetry_space_group_name_H-M   'P 1'
_cell_length_a   5.07252516
_cell_length_b   5.03807126
_cell_length_c   19.82383601
_cell_angle_alpha   91.98006383
_cell_angle_beta   85.19405963
_cell_angle_gamma   120.10979550
_symmetry_Int_Tables_number   1
_chemical_formula_structural   Li4Co5SnO12
_chemical_formula_sum   'Li8 Co10 Sn2 O24'
_cell_volume   436.69614235
_cell_formula_units_Z   2
loop_
 _symmetry_equiv_pos_site_id
 _symmetry_equiv_pos_as_xyz
  1  'x, y, z'
loop_
 _atom_site_type_symbol
 _atom_site_label
 _atom_site_symmetry_multiplicity
 _atom_site_fract_x
 _atom_site_fract_y
 _atom_site_fract_z
 _atom_site_occupancy
  Li  Li0  1  0.20438400  0.32396300  0.37037300  1
  Li  Li1  1  0.70714000  0.33177000  0.87156900  1
  Li  Li2  1  0.61689100  0.32699000  0.12699200  1
  Li  Li3  1  0.12502300  0.33943000  0.63144200  1
  Li  Li4  1  0.87218600  0.65976600  0.37130500  1
  Li  Li5  1  0.37332000  0.66634900  0.87138800  1
  Li  Li6  1  0.28712400  0.66131300  0.12566400  1
  Li  Li7  1  0.79851400  0.66831300  0.63146400  1
  Co  Co0  1  0.25132200  0.00399100  0.24900400  1
  Co  Co1  1  0.08438200  0.66931400  0.75104200  1
  Co  Co2  1  0.41481400  0.33032800  0.75108600  1
  Co  Co3  1  0.33408600  0.66691500  0.99904300  1
  Co  Co4  1  0.66731000  0.33322100  0.99918200  1
  Co  Co5  1  0.75039900  0.00130000  0.75105900  1
  Co  Co6  1  0.58789500  0.67072200  0.24940600  1
  Co  Co7  1  0.92745900  0.33558900  0.24768700  1
  Co  Co8  1  0.83724200  0.67037400  0.50112500  1
  Co  Co9  1  0.16953500  0.33783300  0.50084400  1
  Sn  Sn0  1  0.00068200  0.00009800  0.99921600  1
  Sn  Sn1  1  0.49614100  0.99671400  0.50084300  1
  O  O0  1  0.91965400  0.01418300  0.29999800  1
  O  O1  1  0.40718500  0.00286500  0.80024000  1
  O  O2  1  0.59609700  0.00915900  0.19953300  1
  O  O3  1  0.09652000  0.00661100  0.70189300  1
  O  O4  1  0.33849700  0.99818000  0.05278400  1
  O  O5  1  0.83096800  0.00401800  0.55739300  1
  O  O6  1  0.16680600  0.99440800  0.44311600  1
  O  O7  1  0.66288800  0.00159900  0.94543100  1
  O  O8  1  0.62543700  0.64267300  0.05294400  1
  O  O9  1  0.13414700  0.65342900  0.56041300  1
  O  O10  1  0.51257900  0.64893200  0.44293000  1
  O  O11  1  0.01940500  0.64493900  0.94538400  1
  O  O12  1  0.98154000  0.35497400  0.05279800  1
  O  O13  1  0.48515800  0.34979700  0.55723800  1
  O  O14  1  0.86242100  0.34532700  0.44433300  1
  O  O15  1  0.37587800  0.35771300  0.94546900  1
  O  O16  1  0.27489900  0.32963900  0.19408100  1
  O  O17  1  0.77033300  0.34236500  0.70199700  1
  O  O18  1  0.95667500  0.66134900  0.19665100  1
  O  O19  1  0.43290900  0.65727300  0.70196900  1
  O  O20  1  0.54971600  0.33679600  0.30161400  1
  O  O21  1  0.06989900  0.33902600  0.80017000  1
  O  O22  1  0.20175500  0.65614900  0.30172000  1
  O  O23  1  0.72278500  0.65430700  0.80016700  1
loop_
_geom_bond_atom_site_label_1
_geom_bond_atom_site_label_2
_geom_bond_distance
_geom_bond_site_symmetry_2
Li0 O0 2.096106 1_455
Li0 O20 2.103087 1_555
Li0 O6 2.162026 1_545
Li0 O22 2.199112 1_555
Li0 O10 2.199864 1_555
Li0 O14 2.218197 1_455
Li1 O23 2.158952 1_555
Li1 O7 2.167935 1_555
Li1 O1 2.174689 1_555
Li1 O15 2.186646 1_555
Li1 O11 2.204759 1_655
Li1 O21 2.211414 1_655
Li2 O16 2.100901 1_555
Li2 O2 2.146475 1_555
Li2 O4 2.176030 1_545
Li2 O8 2.183490 1_555
Li2 O12 2.213897 1_555
Li2 O18 2.245050 1_555
Li3 O9 2.134692 1_555
Li3 O19 2.158711 1_555
Li3 O3 2.160491 1_555
Li3 O17 2.190234 1_455
Li3 O5 2.213999 1_455
Li3 O13 2.227795 1_555
Li4 O22 2.083350 1_655
Li4 O14 2.162312 1_555
Li4 O6 2.182908 1_655
Li4 O20 2.187421 1_555
Li4 O10 2.194974 1_555
Li4 O0 2.220472 1_565
Li5 O1 2.173846 1_565
Li5 O21 2.176745 1_555
Li5 O15 2.180804 1_555
Li5 O11 2.182125 1_555
Li5 O23 2.195914 1_555
Li5 O7 2.205803 1_565
Li6 O18 2.096433 1_455
Li6 O16 2.161978 1_555
Li6 O12 2.166126 1_455
Li6 O4 2.167537 1_555
Li6 O8 2.183988 1_555
Li6 O2 2.263491 1_565
Li7 O17 2.135838 1_555
Li7 O9 2.146395 1_655
Li7 O3 2.177957 1_665
Li7 O19 2.205328 1_555
Li7 O5 2.212575 1_565
Li7 O13 2.221789 1_555
Co0 O0 1.911311 1_455
Co0 O2 1.920866 1_555
Co0 O20 1.946130 1_555
Co0 O16 1.948385 1_555
Co0 O18 1.959181 1_445
Co0 O22 1.966430 1_545
Co1 O21 1.923585 1_555
Co1 O17 1.926756 1_455
Co1 O3 1.959640 1_565
Co1 O1 1.962110 1_565
Co1 O23 1.971056 1_455
Co1 O19 1.972538 1_555
Co2 O19 1.901008 1_555
Co2 O23 1.907334 1_555
Co2 O1 1.927042 1_555
Co2 O3 1.931230 1_555
Co2 O21 1.948973 1_555
Co2 O17 1.950162 1_555
Co3 O7 1.938977 1_565
Co3 O4 1.940229 1_556
Co3 O15 1.943923 1_555
Co3 O12 1.944242 1_456
Co3 O11 1.946991 1_555
Co3 O8 1.948212 1_556
Co4 O4 1.939721 1_546
Co4 O7 1.941814 1_555
Co4 O11 1.943186 1_655
Co4 O12 1.944973 1_556
Co4 O15 1.946852 1_555
Co4 O8 1.947069 1_556
Co5 O3 1.923829 1_655
Co5 O1 1.926234 1_555
Co5 O17 1.957918 1_555
Co5 O21 1.962826 1_655
Co5 O23 1.967874 1_545
Co5 O19 1.972363 1_545
Co6 O20 1.923220 1_555
Co6 O2 1.981135 1_565
Co6 O0 2.018249 1_565
Co6 O16 2.025022 1_555
Co6 O18 2.086304 1_555
Co6 O22 2.106662 1_555
Co7 O22 1.888693 1_655
Co7 O18 1.893328 1_555
Co7 O0 1.934892 1_555
Co7 O2 1.956540 1_555
Co7 O16 1.993292 1_655
Co7 O20 2.117161 1_555
Co8 O6 1.962548 1_655
Co8 O13 1.983115 1_555
Co8 O5 1.997221 1_565
Co8 O14 2.005975 1_555
Co8 O9 2.022226 1_655
Co8 O10 2.045964 1_555
Co9 O10 1.963620 1_555
Co9 O5 1.986034 1_455
Co9 O13 2.003768 1_555
Co9 O14 2.009393 1_455
Co9 O9 2.018884 1_555
Co9 O6 2.035979 1_545
O4 Sn0 2.094361 1_564
O5 Sn1 2.096708 1_545
O6 Sn1 2.097721 1_555
O7 Sn0 2.095842 1_655
O8 Sn0 2.086629 1_664
O9 Sn1 2.085408 1_555
O10 Sn1 2.094411 1_555
O11 Sn0 2.090709 1_565
O12 Sn0 2.088040 1_654
O13 Sn1 2.090180 1_545
O14 Sn1 2.074817 1_545
O15 Sn0 2.087101 1_555
