# generated using pymatgen
data_NaLi2FePCO7
_symmetry_space_group_name_H-M   'P 1'
_cell_length_a   6.58144600
_cell_length_b   8.63324409
_cell_length_c   10.16071253
_cell_angle_alpha   92.57909733
_cell_angle_beta   90.27223839
_cell_angle_gamma   90.63672623
_symmetry_Int_Tables_number   1
_chemical_formula_structural   NaLi2FePCO7
_chemical_formula_sum   'Na4 Li8 Fe4 P4 C4 O28'
_cell_volume   576.69547940
_cell_formula_units_Z   4
loop_
 _symmetry_equiv_pos_site_id
 _symmetry_equiv_pos_as_xyz
  1  'x, y, z'
loop_
 _atom_site_type_symbol
 _atom_site_label
 _atom_site_symmetry_multiplicity
 _atom_site_fract_x
 _atom_site_fract_y
 _atom_site_fract_z
 _atom_site_occupancy
  Na  Na0  1  0.26169100  0.08438300  0.12137300  1
  Na  Na1  1  0.99894800  0.25727800  0.37573500  1
  Na  Na2  1  0.99980600  0.25586200  0.87177400  1
  Na  Na3  1  0.50161400  0.74350400  0.62548100  1
  Li  Li0  1  0.25373100  0.08132100  0.62443100  1
  Li  Li1  1  0.47771200  0.27701300  0.38425700  1
  Li  Li2  1  0.48305300  0.27390200  0.87614200  1
  Li  Li3  1  0.51904200  0.72854200  0.12142100  1
  Li  Li4  1  0.97815900  0.72671800  0.11977700  1
  Li  Li5  1  0.98689000  0.73096900  0.62170500  1
  Li  Li6  1  0.74319700  0.91282700  0.37356500  1
  Li  Li7  1  0.74808900  0.90978000  0.87616400  1
  Fe  Fe0  1  0.74649000  0.34648300  0.10786600  1
  Fe  Fe1  1  0.74477400  0.34579300  0.60807500  1
  Fe  Fe2  1  0.24541800  0.65739100  0.39183100  1
  Fe  Fe3  1  0.24989300  0.65379400  0.89309700  1
  P  P0  1  0.25513000  0.41896000  0.14782500  1
  P  P1  1  0.24817800  0.40772300  0.64672600  1
  P  P2  1  0.74422200  0.59357400  0.35276500  1
  P  P3  1  0.75062200  0.58993400  0.85439000  1
  C  C0  1  0.74797100  0.03821600  0.13793300  1
  C  C1  1  0.75567100  0.04280400  0.64092300  1
  C  C2  1  0.25842000  0.95849800  0.36545100  1
  C  C3  1  0.25621600  0.95098600  0.85399100  1
  O  O0  1  0.27873700  0.10486900  0.34841800  1
  O  O1  1  0.27643800  0.09850100  0.83806000  1
  O  O2  1  0.75452100  0.08408300  0.01762600  1
  O  O3  1  0.75286300  0.08345100  0.51930000  1
  O  O4  1  0.74103000  0.14109200  0.23549000  1
  O  O5  1  0.73157400  0.14795500  0.73585300  1
  O  O6  1  0.05995100  0.32392900  0.10783900  1
  O  O7  1  0.43431100  0.32147700  0.08976400  1
  O  O8  1  0.05898300  0.30203800  0.61428800  1
  O  O9  1  0.43050100  0.31338900  0.58907700  1
  O  O10  1  0.27239200  0.43188900  0.30106600  1
  O  O11  1  0.73091100  0.43031700  0.40986400  1
  O  O12  1  0.27311800  0.42932900  0.79963500  1
  O  O13  1  0.73086500  0.42705000  0.91050800  1
  O  O14  1  0.25465200  0.58503200  0.09500200  1
  O  O15  1  0.75365700  0.57524500  0.19871700  1
  O  O16  1  0.22975800  0.56894200  0.58766600  1
  O  O17  1  0.77024200  0.57109100  0.70144900  1
  O  O18  1  0.56057500  0.69762500  0.39239300  1
  O  O19  1  0.93173900  0.68854900  0.40673200  1
  O  O20  1  0.56623600  0.69580400  0.89154400  1
  O  O21  1  0.93650600  0.68298100  0.91344700  1
  O  O22  1  0.24003900  0.86046600  0.26409300  1
  O  O23  1  0.23648800  0.85634800  0.75120900  1
  O  O24  1  0.25502600  0.90616300  0.48380400  1
  O  O25  1  0.25524000  0.89439500  0.97017000  1
  O  O26  1  0.74760200  0.89179600  0.16288800  1
  O  O27  1  0.78110900  0.89993700  0.67139900  1
loop_
_geom_bond_atom_site_label_1
_geom_bond_atom_site_label_2
_geom_bond_distance
_geom_bond_site_symmetry_2
Na0 O25 2.196237 1_544
Na0 O0 2.307859 1_555
Na0 O7 2.365281 1_555
Na0 O22 2.471503 1_545
Na0 O6 2.478621 1_555
Na1 O0 2.285822 1_655
Na1 O11 2.341295 1_555
Na1 O4 2.393465 1_555
Na1 O8 2.466534 1_655
Na1 O10 2.478390 1_655
Na1 O3 2.677401 1_555
Na1 O6 2.836876 1_655
Na2 O1 2.301458 1_655
Na2 O13 2.341899 1_555
Na2 O5 2.390844 1_555
Na2 O12 2.463150 1_655
Na2 O6 2.472689 1_656
Na2 O2 2.677481 1_556
Na2 O8 2.693589 1_655
Na3 O27 2.303304 1_555
Na3 O16 2.345522 1_555
Na3 O23 2.360664 1_555
Na3 O18 2.417483 1_555
Na3 O17 2.466982 1_555
Na3 O24 2.624588 1_555
Na3 O20 2.784231 1_555
Li0 O24 2.033318 1_545
Li0 O1 2.173335 1_555
Li0 O8 2.314105 1_555
Li0 O9 2.348083 1_555
Li0 O23 2.380378 1_545
Li1 O0 1.989897 1_555
Li1 O10 2.111711 1_555
Li1 O9 2.115588 1_555
Li1 O11 2.124191 1_555
Li1 O4 2.564298 1_555
Li2 O1 2.046556 1_555
Li2 O13 2.105990 1_555
Li2 O12 2.106830 1_555
Li2 O7 2.216351 1_556
Li2 O5 2.410732 1_555
Li3 O26 2.078500 1_555
Li3 O14 2.133688 1_555
Li3 O15 2.209083 1_555
Li3 O20 2.362488 1_554
Li3 O22 2.587204 1_555
Li4 O26 2.126887 1_555
Li4 O21 2.129288 1_554
Li4 O15 2.144596 1_555
Li4 O14 2.212943 1_655
Li4 O22 2.496692 1_655
Li5 O27 2.049689 1_555
Li5 O16 2.154687 1_655
Li5 O17 2.159306 1_555
Li5 O19 2.225862 1_555
Li5 O23 2.326669 1_655
Li6 O3 2.041394 1_565
Li6 O26 2.140520 1_555
Li6 O18 2.217545 1_555
Li6 O19 2.347456 1_555
Li6 O4 2.470066 1_565
Li7 O2 2.033606 1_566
Li7 O27 2.090925 1_555
Li7 O20 2.201828 1_555
Li7 O21 2.373038 1_555
Li7 O5 2.557282 1_565
Fe0 O7 2.069964 1_555
Fe0 O6 2.074348 1_655
Fe0 O15 2.142022 1_555
Fe0 O13 2.154240 1_554
Fe0 O4 2.243440 1_555
Fe0 O2 2.406566 1_555
Fe1 O9 2.090973 1_555
Fe1 O8 2.107454 1_655
Fe1 O17 2.129932 1_555
Fe1 O11 2.174594 1_555
Fe1 O5 2.192652 1_555
Fe1 O3 2.401114 1_555
Fe2 O19 2.090199 1_455
Fe2 O18 2.099200 1_555
Fe2 O10 2.125976 1_555
Fe2 O16 2.165652 1_555
Fe2 O22 2.228284 1_555
Fe2 O24 2.303423 1_555
Fe3 O21 2.090749 1_455
Fe3 O20 2.109629 1_555
Fe3 O12 2.126695 1_555
Fe3 O14 2.161352 1_556
Fe3 O25 2.186516 1_555
Fe3 O23 2.318035 1_555
C0 O26 1.300377 1_545
C0 O4 1.302144 1_555
C0 O2 1.302543 1_555
C1 O27 1.297566 1_545
C1 O3 1.299839 1_555
C1 O5 1.305933 1_555
C2 O0 1.288723 1_565
C2 O24 1.303725 1_555
C2 O22 1.307534 1_555
C3 O1 1.296453 1_565
C3 O25 1.297741 1_555
C3 O23 1.301771 1_555
O6 P0 1.558807 1_555
O7 P0 1.559159 1_555
O8 P1 1.560565 1_555
O9 P1 1.559395 1_555
O10 P0 1.559528 1_555
O11 P2 1.549875 1_555
O12 P1 1.564105 1_555
O13 P3 1.545407 1_555
O14 P0 1.553392 1_555
O15 P2 1.567710 1_555
O16 P1 1.546047 1_555
O17 P3 1.561296 1_555
O18 P2 1.557605 1_555
O19 P2 1.557782 1_555
O20 P3 1.564772 1_555
O21 P3 1.558792 1_555
