# generated using pymatgen
data_Mg3Sb
_symmetry_space_group_name_H-M   'P 1'
_cell_length_a   3.28452600
_cell_length_b   5.21853900
_cell_length_c   5.52408700
_cell_angle_alpha   90.00000000
_cell_angle_beta   90.00000000
_cell_angle_gamma   90.00000000
_symmetry_Int_Tables_number   1
_chemical_formula_structural   Mg3Sb
_chemical_formula_sum   'Mg3 Sb1'
_cell_volume   94.68521012
_cell_formula_units_Z   1
loop_
 _symmetry_equiv_pos_site_id
 _symmetry_equiv_pos_as_xyz
  1  'x, y, z'
loop_
 _atom_site_type_symbol
 _atom_site_label
 _atom_site_symmetry_multiplicity
 _atom_site_fract_x
 _atom_site_fract_y
 _atom_site_fract_z
 _atom_site_occupancy
  Mg  Mg0  1  0.00000000  0.00000000  0.66753900  1
  Mg  Mg1  1  0.00000000  0.50000000  0.33494200  1
  Mg  Mg2  1  0.50000000  0.50000000  0.83179300  1
  Sb  Sb0  1  0.50000000  0.00000000  0.16572600  1
loop_
_geom_bond_atom_site_label_1
_geom_bond_atom_site_label_2
_geom_bond_distance
_geom_bond_site_symmetry_2
Mg0 Sb0 3.204791 1_456
Mg0 Sb0 3.204791 1_556
Mg0 Sb0 3.222008 1_455
Mg0 Sb0 3.222008 1_555
Mg1 Sb0 3.221661 1_465
Mg1 Sb0 3.221661 1_565
Mg1 Sb0 3.221661 1_555
Mg1 Sb0 3.221661 1_455
Mg2 Sb0 3.195483 1_566
Mg2 Sb0 3.195483 1_556
