# generated using pymatgen
data_BaSmHf4O12
_symmetry_space_group_name_H-M   'P 1'
_cell_length_a   5.81479984
_cell_length_b   5.81479984
_cell_length_c   8.17123368
_cell_angle_alpha   90.00000000
_cell_angle_beta   90.00000000
_cell_angle_gamma   89.70407867
_symmetry_Int_Tables_number   1
_chemical_formula_structural   BaSmHf4O12
_chemical_formula_sum   'Ba1 Sm1 Hf4 O12'
_cell_volume   276.28122763
_cell_formula_units_Z   1
loop_
 _symmetry_equiv_pos_site_id
 _symmetry_equiv_pos_as_xyz
  1  'x, y, z'
loop_
 _atom_site_type_symbol
 _atom_site_label
 _atom_site_symmetry_multiplicity
 _atom_site_fract_x
 _atom_site_fract_y
 _atom_site_fract_z
 _atom_site_occupancy
  Ba  Ba0  1  0.52063104  0.52063104  0.00000000  1
  Sm  Sm0  1  0.97010973  0.97010973  0.50000000  1
  Hf  Hf0  1  0.48898465  0.00802240  0.74607941  1
  Hf  Hf1  1  0.48898465  0.00802240  0.25392059  1
  Hf  Hf2  1  0.00802240  0.48898465  0.25392059  1
  Hf  Hf3  1  0.00802240  0.48898465  0.74607941  1
  O  O0  1  0.73025254  0.26993391  0.74388739  1
  O  O1  1  0.26993391  0.73025254  0.74388739  1
  O  O2  1  0.26993391  0.73025254  0.25611261  1
  O  O3  1  0.73025254  0.26993391  0.25611261  1
  O  O4  1  0.77139453  0.77139453  0.75512937  1
  O  O5  1  0.20534007  0.20534007  0.69187132  1
  O  O6  1  0.20534007  0.20534007  0.30812868  1
  O  O7  1  0.77139453  0.77139453  0.24487063  1
  O  O8  1  0.48328066  0.02402035  0.00000000  1
  O  O9  1  0.57146699  0.98403502  0.50000000  1
  O  O10  1  0.02402035  0.48328066  0.00000000  1
  O  O11  1  0.98403502  0.57146699  0.50000000  1
loop_
_geom_bond_atom_site_label_1
_geom_bond_atom_site_label_2
_geom_bond_distance
_geom_bond_site_symmetry_2
Ba0 O0 2.823483 1_554
Ba0 O1 2.823483 1_554
Ba0 O2 2.823483 1_555
Ba0 O3 2.823483 1_555
Ba0 O4 2.877131 1_554
Ba0 O7 2.877131 1_555
Ba0 O8 2.896966 1_555
Ba0 O10 2.896966 1_555
Ba0 O8 2.934035 1_565
Ba0 O10 2.934035 1_655
Hf0 O5 2.052658 1_555
Hf0 O1 2.062224 1_545
Hf0 O9 2.071715 1_545
Hf0 O0 2.076055 1_555
Hf0 O8 2.077186 1_556
Hf0 O4 2.138230 1_545
Hf1 O6 2.052658 1_555
Hf1 O2 2.062224 1_545
Hf1 O9 2.071715 1_545
Hf1 O3 2.076055 1_555
Hf1 O8 2.077186 1_555
Hf1 O7 2.138230 1_545
Hf2 O6 2.052658 1_555
Hf2 O3 2.062224 1_455
Hf2 O11 2.071715 1_455
Hf2 O2 2.076055 1_555
Hf2 O10 2.077186 1_555
Hf2 O7 2.138230 1_455
Hf3 O5 2.052658 1_555
Hf3 O0 2.062224 1_455
Hf3 O11 2.071715 1_455
Hf3 O1 2.076055 1_555
Hf3 O10 2.077186 1_556
Hf3 O4 2.138230 1_455
O0 Sm0 2.988500 1_545
O1 Sm0 2.988500 1_455
O2 Sm0 2.988500 1_455
O3 Sm0 2.988500 1_545
O4 Sm0 2.651446 1_555
O5 Sm0 2.493843 1_445
O6 Sm0 2.493843 1_445
O7 Sm0 2.651446 1_555
O9 Sm0 2.319024 1_555
O11 Sm0 2.319024 1_555
