# generated using pymatgen
data_EuZr4SnO12
_symmetry_space_group_name_H-M   'P 1'
_cell_length_a   5.67611418
_cell_length_b   5.67611418
_cell_length_c   8.21562138
_cell_angle_alpha   90.00000000
_cell_angle_beta   90.00000000
_cell_angle_gamma   90.78536649
_symmetry_Int_Tables_number   1
_chemical_formula_structural   EuZr4SnO12
_chemical_formula_sum   'Eu1 Zr4 Sn1 O12'
_cell_volume   264.66825996
_cell_formula_units_Z   1
loop_
 _symmetry_equiv_pos_site_id
 _symmetry_equiv_pos_as_xyz
  1  'x, y, z'
loop_
 _atom_site_type_symbol
 _atom_site_label
 _atom_site_symmetry_multiplicity
 _atom_site_fract_x
 _atom_site_fract_y
 _atom_site_fract_z
 _atom_site_occupancy
  Eu  Eu0  1  0.48775445  0.51224555  0.00000000  1
  Zr  Zr0  1  0.50333476  0.00439030  0.24358496  1
  Zr  Zr1  1  0.50333476  0.00439030  0.75641504  1
  Zr  Zr2  1  0.99560970  0.49666524  0.75641504  1
  Zr  Zr3  1  0.99560970  0.49666524  0.24358496  1
  Sn  Sn0  1  0.02599765  0.97400235  0.50000000  1
  O  O0  1  0.31567300  0.31726402  0.22404061  1
  O  O1  1  0.68273598  0.68432700  0.22404061  1
  O  O2  1  0.68273598  0.68432700  0.77595939  1
  O  O3  1  0.31567300  0.31726402  0.77595939  1
  O  O4  1  0.21632956  0.78367044  0.20228461  1
  O  O5  1  0.84703782  0.15296218  0.32802466  1
  O  O6  1  0.84703782  0.15296218  0.67197534  1
  O  O7  1  0.21632956  0.78367044  0.79771539  1
  O  O8  1  0.56058786  0.07324029  -0.00000000  1
  O  O9  1  0.37603585  0.01297715  0.50000000  1
  O  O10  1  0.92675971  0.43941214  -0.00000000  1
  O  O11  1  0.98702285  0.62396415  0.50000000  1
loop_
_geom_bond_atom_site_label_1
_geom_bond_atom_site_label_2
_geom_bond_distance
_geom_bond_site_symmetry_2
Eu0 O3 2.353128 1_554
Eu0 O1 2.353128 1_555
Eu0 O2 2.353128 1_554
Eu0 O0 2.353128 1_555
Eu0 O10 2.531489 1_555
Eu0 O8 2.531489 1_555
Eu0 O7 2.752107 1_554
Eu0 O4 2.752107 1_555
O0 Zr0 2.089525 1_555
O0 Zr3 2.100926 1_455
O1 Zr3 2.089525 1_555
O1 Zr0 2.100926 1_565
O2 Zr2 2.089525 1_555
O2 Zr1 2.100926 1_565
O3 Zr1 2.089525 1_555
O3 Zr2 2.100926 1_455
O4 Zr3 2.069456 1_455
O4 Zr0 2.069456 1_565
O5 Sn0 2.021933 1_645
O5 Zr3 2.225607 1_555
O5 Zr0 2.225607 1_555
O6 Sn0 2.021933 1_645
O6 Zr2 2.225607 1_555
O6 Zr1 2.225607 1_555
O7 Zr2 2.069456 1_455
O7 Zr1 2.069456 1_565
O8 Zr1 2.063895 1_554
O8 Zr0 2.063895 1_555
O9 Sn0 1.996119 1_545
O9 Zr1 2.227833 1_555
O9 Zr0 2.227833 1_555
O10 Zr2 2.063895 1_554
O10 Zr3 2.063895 1_555
O11 Sn0 1.996119 1_655
O11 Zr2 2.227833 1_555
O11 Zr3 2.227833 1_555
