# generated using pymatgen
data_Na5Ag(TeO14)2
_symmetry_space_group_name_H-M   'P 1'
_cell_length_a   4.91819575
_cell_length_b   9.46775248
_cell_length_c   14.49473654
_cell_angle_alpha   96.59832602
_cell_angle_beta   100.71138733
_cell_angle_gamma   72.63632752
_symmetry_Int_Tables_number   1
_chemical_formula_structural   Na5Ag(TeO14)2
_chemical_formula_sum   'Na5 Ag1 Te2 O28'
_cell_volume   631.68268730
_cell_formula_units_Z   1
loop_
 _symmetry_equiv_pos_site_id
 _symmetry_equiv_pos_as_xyz
  1  'x, y, z'
loop_
 _atom_site_type_symbol
 _atom_site_label
 _atom_site_symmetry_multiplicity
 _atom_site_fract_x
 _atom_site_fract_y
 _atom_site_fract_z
 _atom_site_occupancy
  Na  Na0  1  0.00000000  0.50000000  0.50000000  1
  Na  Na1  1  0.69706200  0.16980000  0.03284500  1
  Na  Na2  1  0.30293800  0.83020000  0.96715500  1
  Na  Na3  1  0.35975600  0.71153400  0.69653100  1
  Na  Na4  1  0.64024400  0.28846600  0.30346900  1
  Ag  Ag0  1  0.00000000  0.50000000  0.00000000  1
  Te  Te0  1  0.80063400  0.28439700  0.81930000  1
  Te  Te1  1  0.19936600  0.71560300  0.18070000  1
  O  O0  1  0.20444600  0.27597100  0.78920900  1
  O  O1  1  0.79555400  0.72402900  0.21079100  1
  O  O2  1  0.47247800  0.36088500  0.62158500  1
  O  O3  1  0.52752200  0.63911500  0.37841500  1
  O  O4  1  0.94242800  0.99600000  0.79246100  1
  O  O5  1  0.05757200  0.00400000  0.20753900  1
  O  O6  1  0.42298800  0.28870800  0.86967200  1
  O  O7  1  0.57701200  0.71129200  0.13032800  1
  O  O8  1  0.94022900  0.28385300  0.94882700  1
  O  O9  1  0.05977100  0.71614700  0.05117300  1
  O  O10  1  0.69247800  0.54091600  0.84235400  1
  O  O11  1  0.30752200  0.45908400  0.15764600  1
  O  O12  1  0.88645800  0.67036000  0.63611500  1
  O  O13  1  0.11354200  0.32964000  0.36388500  1
  O  O14  1  0.95995600  0.22128400  0.52906500  1
  O  O15  1  0.04004400  0.77871600  0.47093500  1
  O  O16  1  0.66301000  0.94278300  0.95207500  1
  O  O17  1  0.33699000  0.05721700  0.04792500  1
  O  O18  1  0.20689300  0.94105600  0.78306600  1
  O  O19  1  0.79310700  0.05894400  0.21693400  1
  O  O20  1  0.41355400  0.61396600  0.84367900  1
  O  O21  1  0.58644600  0.38603400  0.15632100  1
  O  O22  1  0.68452100  0.79528400  0.62941300  1
  O  O23  1  0.31547900  0.20471600  0.37058700  1
  O  O24  1  0.47663500  0.48618800  0.59582900  1
  O  O25  1  0.52336500  0.51381200  0.40417100  1
  O  O26  1  0.17824800  0.11331000  0.54103800  1
  O  O27  1  0.82175200  0.88669000  0.45896200  1
loop_
_geom_bond_atom_site_label_1
_geom_bond_atom_site_label_2
_geom_bond_distance
_geom_bond_site_symmetry_2
Na0 O12 2.438549 1_455
Na0 O13 2.438549 1_555
Na0 O24 2.467806 1_555
Na0 O25 2.467806 1_455
Na0 O2 2.724839 1_555
Na0 O3 2.724839 1_455
Na0 O15 2.788572 1_555
Na0 O14 2.788572 1_455
Na1 O16 2.362630 1_544
Na1 O17 2.375740 1_555
Na1 O8 2.386169 1_554
Na1 O21 2.558421 1_555
Na1 O6 2.683166 1_554
Na1 O19 2.885101 1_555
Na1 O17 2.980749 1_655
Na2 O17 2.362630 1_566
Na2 O16 2.375740 1_555
Na2 O9 2.386169 1_556
Na2 O20 2.558421 1_555
Na2 O7 2.683166 1_556
Na2 O18 2.885101 1_555
Na2 O16 2.980749 1_455
Na3 O20 2.359999 1_555
Na3 O18 2.368476 1_555
Na3 O22 2.374291 1_555
Na3 O24 2.424275 1_555
Na3 O12 2.458206 1_455
Na3 O10 2.770557 1_555
Na4 O21 2.359999 1_555
Na4 O19 2.368476 1_555
Na4 O23 2.374291 1_555
Na4 O25 2.424275 1_555
Na4 O13 2.458206 1_655
Na4 O11 2.770557 1_555
Ag0 O9 2.180281 1_555
Ag0 O8 2.180281 1_454
Ag0 O11 2.495600 1_555
Ag0 O10 2.495600 1_454
O0 O6 1.452274 1_555
O0 Te0 2.088142 1_455
O1 O7 1.452274 1_555
O1 Te1 2.088142 1_655
O2 O24 1.290847 1_555
O4 Te0 2.610237 1_565
O5 Te1 2.610237 1_545
O6 Te0 2.106288 1_555
O7 Te1 2.106288 1_555
O8 Te0 1.875422 1_555
O9 Te1 1.875422 1_555
O10 O20 1.342013 1_555
O10 Te0 2.324107 1_555
O11 O21 1.342013 1_555
O11 Te1 2.324107 1_555
O12 O22 1.297740 1_555
O13 O23 1.297740 1_555
O14 O26 1.242666 1_655
O15 O27 1.242666 1_455
O18 O4 1.275404 1_455
O19 O5 1.275404 1_655
O25 O3 1.290847 1_555
