# generated using pymatgen
data_CaV6O11F
_symmetry_space_group_name_H-M   'P 1'
_cell_length_a   5.27544817
_cell_length_b   5.27840528
_cell_length_c   8.66662405
_cell_angle_alpha   89.90666913
_cell_angle_beta   89.85116804
_cell_angle_gamma   106.19247412
_symmetry_Int_Tables_number   1
_chemical_formula_structural   CaV6O11F
_chemical_formula_sum   'Ca1 V6 O11 F1'
_cell_volume   231.75543287
_cell_formula_units_Z   1
loop_
 _symmetry_equiv_pos_site_id
 _symmetry_equiv_pos_as_xyz
  1  'x, y, z'
loop_
 _atom_site_type_symbol
 _atom_site_label
 _atom_site_symmetry_multiplicity
 _atom_site_fract_x
 _atom_site_fract_y
 _atom_site_fract_z
 _atom_site_occupancy
  Ca  Ca0  1  0.31447300  0.68593700  0.33306200  1
  V  V0  1  0.99707900  0.00088400  0.00779300  1
  V  V1  1  0.97338100  0.02664800  0.33352100  1
  V  V2  1  0.99933300  0.00259500  0.65918000  1
  V  V3  1  0.59189100  0.40542000  0.13851700  1
  V  V4  1  0.39210800  0.60781700  0.83349900  1
  V  V5  1  0.59436200  0.40807100  0.52825600  1
  O  O0  1  0.14108900  0.85679800  0.14849700  1
  O  O1  1  0.14412400  0.85946300  0.51818500  1
  O  O2  1  0.17576600  0.82439000  0.83341600  1
  O  O3  1  0.28875000  0.33272900  0.99316100  1
  O  O4  1  0.34266800  0.26613200  0.33240300  1
  O  O5  1  0.28884400  0.33572800  0.67265700  1
  O  O6  1  0.66413300  0.71107100  0.99448700  1
  O  O7  1  0.73447500  0.65709500  0.33443100  1
  O  O8  1  0.66770800  0.71075900  0.67392800  1
  O  O9  1  0.81947200  0.17864500  0.16132500  1
  O  O10  1  0.82076300  0.17988900  0.50586000  1
  F  F0  1  0.84125200  0.15826000  0.83353000  1
loop_
_geom_bond_atom_site_label_1
_geom_bond_atom_site_label_2
_geom_bond_distance
_geom_bond_site_symmetry_2
Ca0 O0 2.161383 1_555
Ca0 O1 2.162637 1_555
Ca0 O4 2.261910 1_555
Ca0 O7 2.262941 1_555
O0 V0 1.722397 1_465
O0 V1 2.144192 1_465
O1 V2 1.722620 1_465
O1 V1 2.144210 1_465
O2 V4 1.826759 1_555
O2 V2 2.126572 1_465
O2 V0 2.127761 1_466
O3 V4 1.966815 1_555
O3 V0 1.986676 1_456
O3 V3 1.990339 1_556
O4 V1 2.004919 1_455
O4 V3 2.130271 1_555
O4 V5 2.160209 1_555
O5 V4 1.968921 1_555
O5 V2 1.985458 1_455
O5 V5 1.988571 1_555
O6 V4 1.969703 1_555
O6 V0 1.985338 1_566
O6 V3 1.988547 1_556
O7 V1 2.005562 1_565
O7 V5 2.130813 1_555
O7 V3 2.161050 1_555
O8 V4 1.966758 1_555
O8 V2 1.986216 1_565
O8 V5 1.990120 1_555
O9 V3 1.927515 1_555
O9 V1 1.973772 1_555
O9 V0 2.004172 1_555
O10 V5 1.927882 1_555
O10 V1 1.973382 1_555
O10 V2 2.005734 1_555
F0 V0 2.007480 1_556
F0 V2 2.008349 1_555
