# generated using pymatgen
data_CeZnGa
_symmetry_space_group_name_H-M   'P 1'
_cell_length_a   4.47234786
_cell_length_b   4.47234786
_cell_length_c   7.46364716
_cell_angle_alpha   90.00000000
_cell_angle_beta   90.00000000
_cell_angle_gamma   120.00001514
_symmetry_Int_Tables_number   1
_chemical_formula_structural   CeZnGa
_chemical_formula_sum   'Ce2 Zn2 Ga2'
_cell_volume   129.28639258
_cell_formula_units_Z   2
loop_
 _symmetry_equiv_pos_site_id
 _symmetry_equiv_pos_as_xyz
  1  'x, y, z'
loop_
 _atom_site_type_symbol
 _atom_site_label
 _atom_site_symmetry_multiplicity
 _atom_site_fract_x
 _atom_site_fract_y
 _atom_site_fract_z
 _atom_site_occupancy
  Ce  Ce0  1  0.00000000  -0.00000000  0.50000000  1
  Ce  Ce1  1  0.00000000  -0.00000000  0.00000000  1
  Zn  Zn0  1  0.33333300  0.66666700  0.74990339  1
  Zn  Zn1  1  0.66666700  0.33333300  0.25009661  1
  Ga  Ga0  1  0.33333300  0.66666700  0.25007147  1
  Ga  Ga1  1  0.66666700  0.33333300  0.74992853  1
loop_
_geom_bond_atom_site_label_1
_geom_bond_atom_site_label_2
_geom_bond_distance
_geom_bond_site_symmetry_2
Ce0 Zn1 3.185314 1_455
Ce0 Zn0 3.185314 1_545
Ce0 Zn1 3.185316 1_555
Ce0 Zn0 3.185316 1_445
Ce0 Zn0 3.185316 1_555
Ce0 Zn1 3.185316 1_445
Ce0 Ga0 3.185423 1_545
Ce0 Ga1 3.185423 1_455
Ce0 Ga0 3.185426 1_555
Ce0 Ga0 3.185426 1_445
Ce0 Ga1 3.185426 1_445
Ce0 Ga1 3.185426 1_555
Ce1 Ga1 3.186048 1_454
Ce1 Ga0 3.186048 1_545
Ce1 Ga1 3.186051 1_444
Ce1 Ga1 3.186051 1_554
Ce1 Ga0 3.186051 1_555
Ce1 Ga0 3.186051 1_445
Ce1 Zn0 3.186158 1_544
Ce1 Zn1 3.186158 1_455
Ce1 Zn0 3.186161 1_444
Ce1 Zn0 3.186161 1_554
Ce1 Zn1 3.186161 1_555
Ce1 Zn1 3.186161 1_445
Ga0 Zn1 2.582108 1_565
Ga0 Zn1 2.582108 1_455
Ga0 Zn1 2.582117 1_555
Ga1 Zn0 2.582108 1_545
Ga1 Zn0 2.582108 1_655
Ga1 Zn0 2.582117 1_555
