# generated using pymatgen
data_Sr2Ce2Ti5O15
_symmetry_space_group_name_H-M   'P 1'
_cell_length_a   11.71402282
_cell_length_b   11.71402282
_cell_length_c   11.71402179
_cell_angle_alpha   27.29930576
_cell_angle_beta   27.29930576
_cell_angle_gamma   27.29930724
_symmetry_Int_Tables_number   1
_chemical_formula_structural   Sr2Ce2Ti5O15
_chemical_formula_sum   'Sr2 Ce2 Ti5 O15'
_cell_volume   298.34698343
_cell_formula_units_Z   1
loop_
 _symmetry_equiv_pos_site_id
 _symmetry_equiv_pos_as_xyz
  1  'x, y, z'
loop_
 _atom_site_type_symbol
 _atom_site_label
 _atom_site_symmetry_multiplicity
 _atom_site_fract_x
 _atom_site_fract_y
 _atom_site_fract_z
 _atom_site_occupancy
  Sr  Sr0  1  0.19991600  0.19991600  0.19991600  1
  Sr  Sr1  1  0.80008400  0.80008400  0.80008400  1
  Ce  Ce0  1  0.60210600  0.60210600  0.60210600  1
  Ce  Ce1  1  0.39789400  0.39789400  0.39789400  1
  Ti  Ti0  1  0.90269600  0.90269600  0.90269600  1
  Ti  Ti1  1  0.69801500  0.69801500  0.69801500  1
  Ti  Ti2  1  0.30198500  0.30198500  0.30198500  1
  Ti  Ti3  1  0.09730400  0.09730400  0.09730400  1
  Ti  Ti4  1  0.50000000  0.50000000  0.50000000  1
  O  O0  1  0.30137800  0.79343100  0.30137800  1
  O  O1  1  0.10289100  0.59001800  0.10289100  1
  O  O2  1  0.69862200  0.20656900  0.69862200  1
  O  O3  1  0.50000000  0.00000000  0.50000000  1
  O  O4  1  0.89710900  0.40998200  0.89710900  1
  O  O5  1  0.69862200  0.69862200  0.20656900  1
  O  O6  1  0.50000000  0.50000000  0.00000000  1
  O  O7  1  0.10289100  0.10289100  0.59001800  1
  O  O8  1  0.89710900  0.89710900  0.40998200  1
  O  O9  1  0.30137800  0.30137800  0.79343100  1
  O  O10  1  0.59001800  0.10289100  0.10289100  1
  O  O11  1  0.40998200  0.89710900  0.89710900  1
  O  O12  1  0.00000000  0.50000000  0.50000000  1
  O  O13  1  0.79343100  0.30137800  0.30137800  1
  O  O14  1  0.20656900  0.69862200  0.69862200  1
loop_
_geom_bond_atom_site_label_1
_geom_bond_atom_site_label_2
_geom_bond_distance
_geom_bond_site_symmetry_2
Ce0 O6 2.704143 1_556
Ce0 O12 2.704144 1_655
Ce0 O3 2.704144 1_565
Ce0 O10 2.767172 1_565
Ce0 O1 2.767172 1_655
Ce0 O1 2.767172 1_556
Ce0 O10 2.767172 1_556
Ce0 O7 2.767172 1_655
Ce0 O7 2.767172 1_565
Ce0 O5 2.770579 1_555
Ce0 O14 2.770579 1_555
Ce0 O2 2.770579 1_555
Ce1 O6 2.704143 1_555
Ce1 O12 2.704144 1_555
Ce1 O3 2.704144 1_555
Ce1 O4 2.767172 1_455
Ce1 O11 2.767172 1_545
Ce1 O11 2.767172 1_554
Ce1 O4 2.767172 1_554
Ce1 O8 2.767172 1_455
Ce1 O8 2.767172 1_545
Ce1 O9 2.770579 1_555
Ce1 O13 2.770579 1_555
Ce1 O0 2.770579 1_555
O0 Ti4 1.958534 1_555
O0 Ti3 2.002500 1_565
O0 Sr1 2.764822 1_455
O0 Sr1 2.764822 1_554
O0 Sr0 2.809363 1_565
O1 Ti0 1.912407 1_454
O1 Ti2 1.989746 1_555
O1 Sr0 2.701899 1_555
O2 Ti4 1.958534 1_555
O2 Ti0 2.002500 1_545
O2 Sr0 2.764822 1_655
O2 Sr0 2.764822 1_556
O2 Sr1 2.809363 1_545
O3 Ti1 1.915900 1_545
O3 Ti2 1.915900 1_555
O4 Ti3 1.912407 1_656
O4 Ti1 1.989746 1_555
O4 Sr1 2.701899 1_555
O5 Ti4 1.958534 1_555
O5 Ti0 2.002500 1_554
O5 Sr0 2.764822 1_565
O5 Sr0 2.764822 1_655
O5 Sr1 2.809362 1_554
O6 Ti1 1.915901 1_554
O6 Ti2 1.915901 1_555
O7 Ti0 1.912408 1_445
O7 Ti2 1.989746 1_555
O7 Sr0 2.701898 1_555
O8 Ti3 1.912408 1_665
O8 Ti1 1.989746 1_555
O8 Sr1 2.701898 1_555
O9 Ti4 1.958534 1_555
O9 Ti3 2.002500 1_556
O9 Sr1 2.764822 1_455
O9 Sr1 2.764822 1_545
O9 Sr0 2.809362 1_556
O10 Ti0 1.912407 1_544
O10 Ti2 1.989746 1_555
O10 Sr0 2.701899 1_555
O11 Ti3 1.912407 1_566
O11 Ti1 1.989746 1_555
O11 Sr1 2.701899 1_555
O12 Ti1 1.915900 1_455
O12 Ti2 1.915900 1_555
O13 Ti4 1.958534 1_555
O13 Ti3 2.002500 1_655
O13 Sr1 2.764822 1_545
O13 Sr1 2.764822 1_554
O13 Sr0 2.809363 1_655
O14 Ti4 1.958534 1_555
O14 Ti0 2.002500 1_455
O14 Sr0 2.764822 1_565
O14 Sr0 2.764822 1_556
O14 Sr1 2.809363 1_455
