# generated using pymatgen
data_CsMg14Sb
_symmetry_space_group_name_H-M   'P 1'
_cell_length_a   6.65775789
_cell_length_b   6.74589170
_cell_length_c   10.58631465
_cell_angle_alpha   90.00000000
_cell_angle_beta   90.00000000
_cell_angle_gamma   120.43888227
_symmetry_Int_Tables_number   1
_chemical_formula_structural   CsMg14Sb
_chemical_formula_sum   'Cs1 Mg14 Sb1'
_cell_volume   409.92565560
_cell_formula_units_Z   1
loop_
 _symmetry_equiv_pos_site_id
 _symmetry_equiv_pos_as_xyz
  1  'x, y, z'
loop_
 _atom_site_type_symbol
 _atom_site_label
 _atom_site_symmetry_multiplicity
 _atom_site_fract_x
 _atom_site_fract_y
 _atom_site_fract_z
 _atom_site_occupancy
  Cs  Cs0  1  0.17046487  0.33523194  0.12500000  1
  Mg  Mg0  1  0.16784550  0.33392225  0.62500000  1
  Mg  Mg1  1  0.16081922  0.83040911  0.62500000  1
  Mg  Mg2  1  0.66191390  0.32093819  0.12500000  1
  Mg  Mg3  1  0.67089185  0.34144712  0.62500000  1
  Mg  Mg4  1  0.66191390  0.84097471  0.12500000  1
  Mg  Mg5  1  0.67089185  0.82944373  0.62500000  1
  Mg  Mg6  1  0.33731644  0.15717956  0.39205559  1
  Mg  Mg7  1  0.33731644  0.15717956  0.85794441  1
  Mg  Mg8  1  0.33731644  0.68013788  0.39205559  1
  Mg  Mg9  1  0.33731644  0.68013788  0.85794441  1
  Mg  Mg10  1  0.81821876  0.15910988  0.39375109  1
  Mg  Mg11  1  0.81821876  0.15910988  0.85624891  1
  Mg  Mg12  1  0.82955292  0.66477696  0.36752163  1
  Mg  Mg13  1  0.82955292  0.66477696  0.88247837  1
  Sb  Sb0  1  0.19044982  0.84522441  0.12500000  1
loop_
_geom_bond_atom_site_label_1
_geom_bond_atom_site_label_2
_geom_bond_distance
_geom_bond_site_symmetry_2
Cs0 Mg4 3.321839 1_555
Cs0 Mg2 3.321839 1_555
Cs0 Mg4 3.337994 1_445
Cs0 Mg2 3.337994 1_455
Cs0 Sb0 3.374896 1_555
Cs0 Sb0 3.374896 1_545
Cs0 Mg7 3.467178 1_554
Cs0 Mg6 3.467178 1_555
Cs0 Mg8 3.467185 1_555
Cs0 Mg9 3.467185 1_554
Cs0 Mg11 3.490375 1_454
Cs0 Mg10 3.490375 1_455
Mg0 Mg10 3.165550 1_455
Mg0 Mg11 3.165550 1_455
Mg0 Mg6 3.184169 1_555
Mg0 Mg7 3.184169 1_555
Mg0 Mg8 3.184176 1_555
Mg0 Mg9 3.184176 1_555
Mg0 Mg5 3.323732 1_555
Mg0 Mg3 3.323732 1_555
Mg0 Mg5 3.334601 1_445
Mg0 Mg3 3.334601 1_455
Mg0 Mg1 3.373187 1_545
Mg0 Mg1 3.373187 1_555
Mg1 Mg8 3.113944 1_555
Mg1 Mg9 3.113944 1_555
Mg1 Mg6 3.113951 1_565
Mg1 Mg7 3.113951 1_565
Mg1 Mg3 3.258523 1_455
Mg1 Mg5 3.258523 1_455
Mg1 Mg13 3.323467 1_455
Mg1 Mg12 3.323467 1_455
Mg1 Mg3 3.399244 1_565
Mg1 Mg5 3.399244 1_555
Mg2 Sb0 3.153514 1_545
Mg2 Sb0 3.504427 1_655
Mg3 Mg6 3.124338 1_555
Mg3 Mg7 3.124338 1_555
Mg3 Mg5 3.291972 1_555
Mg3 Mg5 3.453919 1_545
Mg4 Sb0 3.153514 1_555
Mg4 Sb0 3.504428 1_655
Mg5 Mg9 3.124339 1_555
Mg5 Mg8 3.124339 1_555
Mg6 Sb0 3.360418 1_545
Mg7 Sb0 3.360418 1_546
Mg8 Sb0 3.360412 1_555
Mg9 Sb0 3.360412 1_556
Mg10 Mg3 3.112972 1_555
Mg10 Mg5 3.112980 1_545
Mg10 Mg8 3.195204 1_545
Mg10 Mg6 3.195204 1_555
Mg10 Mg12 3.384981 1_555
Mg10 Mg12 3.384981 1_545
Mg10 Mg2 3.394152 1_555
Mg10 Mg4 3.394159 1_545
Mg10 Mg8 3.462688 1_655
Mg10 Mg6 3.462688 1_655
Mg11 Mg3 3.112972 1_555
Mg11 Mg5 3.112980 1_545
Mg11 Mg9 3.195204 1_545
Mg11 Mg7 3.195204 1_555
Mg11 Mg13 3.384981 1_555
Mg11 Mg13 3.384981 1_545
Mg11 Mg2 3.394152 1_556
Mg11 Mg4 3.394159 1_546
Mg11 Mg9 3.462688 1_655
Mg11 Mg7 3.462688 1_655
Mg12 Sb0 3.298952 1_655
Mg12 Mg5 3.311855 1_555
Mg12 Mg3 3.311861 1_555
Mg13 Sb0 3.298952 1_656
Mg13 Mg5 3.311855 1_555
Mg13 Mg3 3.311861 1_555
