# generated using pymatgen
data_Pr3BBr3
_symmetry_space_group_name_H-M   'P 1'
_cell_length_a   10.17391658
_cell_length_b   10.17401558
_cell_length_c   10.17383280
_cell_angle_alpha   109.47160613
_cell_angle_beta   109.47066066
_cell_angle_gamma   109.47153605
_symmetry_Int_Tables_number   1
_chemical_formula_structural   Pr3BBr3
_chemical_formula_sum   'Pr12 B4 Br12'
_cell_volume   810.66704890
_cell_formula_units_Z   4
loop_
 _symmetry_equiv_pos_site_id
 _symmetry_equiv_pos_as_xyz
  1  'x, y, z'
loop_
 _atom_site_type_symbol
 _atom_site_label
 _atom_site_symmetry_multiplicity
 _atom_site_fract_x
 _atom_site_fract_y
 _atom_site_fract_z
 _atom_site_occupancy
  Pr  Pr0  1  0.46676923  0.48338497  0.23338424  1
  Pr  Pr1  1  0.75000046  0.23338018  0.26661423  1
  Pr  Pr2  1  0.75000157  0.01662103  0.48338786  1
  Pr  Pr3  1  0.23338033  0.46676250  0.48338407  1
  Pr  Pr4  1  0.26661305  0.74999670  0.23338497  1
  Pr  Pr5  1  0.03323257  0.26661499  0.01661463  1
  Pr  Pr6  1  0.01661389  0.03323436  0.26661823  1
  Pr  Pr7  1  0.48338144  0.74999934  0.01661467  1
  Pr  Pr8  1  0.48338624  0.23338717  0.46677222  1
  Pr  Pr9  1  0.01661386  0.48337936  0.74999868  1
  Pr  Pr10  1  0.26661340  0.01661401  0.03322722  1
  Pr  Pr11  1  0.23338179  0.26661851  0.74999844  1
  B  B0  1  0.25000037  0.24999859  0.24999971  1
  B  B1  1  0.49999733  -0.00000001  0.24999857  1
  B  B2  1  -0.00000285  0.24999930  0.49999990  1
  B  B3  1  0.24999988  0.50000026  0.00000021  1
  Br  Br0  1  0.24999158  0.75868980  0.74128868  1
  Br  Br1  1  0.51739184  0.50868101  0.75868937  1
  Br  Br2  1  0.98259056  0.74129124  0.99129283  1
  Br  Br3  1  0.74129298  0.25000303  0.75869384  1
  Br  Br4  1  0.99129469  0.98259975  0.74129425  1
  Br  Br5  1  0.24999668  0.99130844  0.50871284  1
  Br  Br6  1  0.75872531  0.51741288  0.50871524  1
  Br  Br7  1  0.50870808  0.25000460  0.99129266  1
  Br  Br8  1  0.75870626  0.74129934  0.25000288  1
  Br  Br9  1  0.74130331  0.99131288  0.98260086  1
  Br  Br10  1  0.99130608  0.50870817  0.25000916  1
  Br  Br11  1  0.50871004  0.75869859  0.51740854  1
loop_
_geom_bond_atom_site_label_1
_geom_bond_atom_site_label_2
_geom_bond_distance
_geom_bond_site_symmetry_2
B0 Pr3 2.748687 1_555
B0 Pr10 2.748696 1_555
B0 Pr6 2.748706 1_555
B0 Pr5 2.748711 1_555
B0 Pr8 2.748713 1_555
B0 Pr0 2.748714 1_555
B1 Pr7 2.748690 1_545
B1 Pr1 2.748698 1_555
B1 Pr8 2.748707 1_555
B1 Pr10 2.748711 1_555
B1 Pr2 2.748730 1_555
B1 Pr4 2.748735 1_545
B2 Pr9 2.748648 1_555
B2 Pr6 2.748655 1_555
B2 Pr2 2.748660 1_455
B2 Pr3 2.748663 1_555
B2 Pr1 2.748673 1_455
B2 Pr11 2.748676 1_555
B3 Pr11 2.748669 1_554
B3 Pr4 2.748683 1_555
B3 Pr7 2.748689 1_555
B3 Pr5 2.748692 1_555
B3 Pr9 2.748693 1_554
B3 Pr0 2.748706 1_555
Br0 Pr9 3.059911 1_555
Br0 Pr7 3.059958 1_556
Br0 Pr3 3.147836 1_555
Br0 Pr10 3.147942 1_566
Br1 Pr11 3.059819 1_555
Br1 Pr3 3.059896 1_555
Br1 Pr8 3.147730 1_555
Br1 Pr7 3.148013 1_556
Br2 Pr4 3.059976 1_656
Br2 Pr10 3.059985 1_666
Br2 Pr9 3.147888 1_655
Br2 Pr6 3.147979 1_666
Br3 Pr2 3.059868 1_555
Br3 Pr9 3.059878 1_655
Br3 Pr8 3.147796 1_555
Br3 Pr5 3.148012 1_656
Br4 Pr5 3.059893 1_666
Br4 Pr11 3.059930 1_665
Br4 Pr2 3.147855 1_565
Br4 Pr10 3.147940 1_666
Br5 Pr6 3.059941 1_565
Br5 Pr8 3.059972 1_565
Br5 Pr11 3.147780 1_565
Br5 Pr4 3.148029 1_555
Br6 Pr1 3.059963 1_555
Br6 Pr8 3.060053 1_555
Br6 Pr9 3.147774 1_655
Br6 Pr0 3.148084 1_555
Br7 Pr0 3.059972 1_556
Br7 Pr10 3.060031 1_556
Br7 Pr11 3.147944 1_555
Br7 Pr1 3.147964 1_556
Br8 Pr2 3.059979 1_565
Br8 Pr7 3.060005 1_555
Br8 Pr6 3.147894 1_665
Br8 Pr0 3.147918 1_555
Br9 Pr1 3.059811 1_566
Br9 Pr6 3.059946 1_666
Br9 Pr5 3.147828 1_666
Br9 Pr7 3.148002 1_556
Br10 Pr3 3.059909 1_655
Br10 Pr5 3.059980 1_655
Br10 Pr4 3.147839 1_655
Br10 Pr1 3.147952 1_555
Br11 Pr0 3.059892 1_555
Br11 Pr4 3.060021 1_555
Br11 Pr2 3.147933 1_565
Br11 Pr3 3.147970 1_555
