# generated using pymatgen
data_Mn2P2O9
_symmetry_space_group_name_H-M   'P 1'
_cell_length_a   6.21688600
_cell_length_b   7.66278800
_cell_length_c   13.83812000
_cell_angle_alpha   90.00000000
_cell_angle_beta   90.00000000
_cell_angle_gamma   90.00000000
_symmetry_Int_Tables_number   1
_chemical_formula_structural   Mn2P2O9
_chemical_formula_sum   'Mn8 P8 O36'
_cell_volume   659.22976271
_cell_formula_units_Z   4
loop_
 _symmetry_equiv_pos_site_id
 _symmetry_equiv_pos_as_xyz
  1  'x, y, z'
loop_
 _atom_site_type_symbol
 _atom_site_label
 _atom_site_symmetry_multiplicity
 _atom_site_fract_x
 _atom_site_fract_y
 _atom_site_fract_z
 _atom_site_occupancy
  Mn  Mn0  1  0.25000000  0.85402800  0.37495000  1
  Mn  Mn1  1  0.75000000  0.14597200  0.62505000  1
  Mn  Mn2  1  0.75000000  0.35402800  0.12505000  1
  Mn  Mn3  1  0.25000000  0.64597200  0.87495000  1
  Mn  Mn4  1  0.00000000  0.50000000  0.50000000  1
  Mn  Mn5  1  0.00000000  0.00000000  0.00000000  1
  Mn  Mn6  1  0.50000000  0.00000000  0.00000000  1
  Mn  Mn7  1  0.50000000  0.50000000  0.50000000  1
  P  P0  1  0.75000000  0.85447500  0.43651600  1
  P  P1  1  0.25000000  0.14552500  0.56348400  1
  P  P2  1  0.25000000  0.35447500  0.06348400  1
  P  P3  1  0.75000000  0.64552500  0.93651600  1
  P  P4  1  0.25000000  0.89637300  0.18963500  1
  P  P5  1  0.25000000  0.60362700  0.68963500  1
  P  P6  1  0.75000000  0.39637300  0.31036500  1
  P  P7  1  0.75000000  0.10362700  0.81036500  1
  O  O0  1  0.54542200  0.09240100  0.87372400  1
  O  O1  1  0.04542200  0.90759900  0.12627600  1
  O  O2  1  0.45457800  0.59240100  0.62627600  1
  O  O3  1  0.95457800  0.40759900  0.37372400  1
  O  O4  1  0.45457800  0.90759900  0.12627600  1
  O  O5  1  0.95457800  0.09240100  0.87372400  1
  O  O6  1  0.54542200  0.40759900  0.37372400  1
  O  O7  1  0.04542200  0.59240100  0.62627600  1
  O  O8  1  0.75000000  0.83771900  0.98593300  1
  O  O9  1  0.25000000  0.16228100  0.01406700  1
  O  O10  1  0.25000000  0.33771900  0.51406700  1
  O  O11  1  0.75000000  0.66228100  0.48593300  1
  O  O12  1  0.25000000  0.63765700  0.45296000  1
  O  O13  1  0.75000000  0.36234300  0.54704000  1
  O  O14  1  0.75000000  0.13765700  0.04704000  1
  O  O15  1  0.25000000  0.86234300  0.95296000  1
  O  O16  1  0.25000000  0.72609200  0.25268400  1
  O  O17  1  0.75000000  0.27390800  0.74731600  1
  O  O18  1  0.75000000  0.22609200  0.24731600  1
  O  O19  1  0.25000000  0.77390800  0.75268400  1
  O  O20  1  0.94585600  0.64440800  0.87105900  1
  O  O21  1  0.44585600  0.35559200  0.12894100  1
  O  O22  1  0.05414400  0.14440800  0.62894100  1
  O  O23  1  0.55414400  0.85559200  0.37105900  1
  O  O24  1  0.05414400  0.35559200  0.12894100  1
  O  O25  1  0.55414400  0.64440800  0.87105900  1
  O  O26  1  0.94585600  0.85559200  0.37105900  1
  O  O27  1  0.44585600  0.14440800  0.62894100  1
  O  O28  1  0.25000000  0.00977900  0.48546400  1
  O  O29  1  0.75000000  0.53279000  0.22591600  1
  O  O30  1  0.75000000  0.96721000  0.72591600  1
  O  O31  1  0.25000000  0.03279000  0.27408400  1
  O  O32  1  0.25000000  0.49022100  0.98546400  1
  O  O33  1  0.75000000  0.50977900  0.01453600  1
  O  O34  1  0.75000000  0.99022100  0.51453600  1
  O  O35  1  0.25000000  0.46721000  0.77408400  1
loop_
_geom_bond_atom_site_label_1
_geom_bond_atom_site_label_2
_geom_bond_distance
_geom_bond_site_symmetry_2
Mn0 O26 1.891633 1_455
Mn0 O23 1.891633 1_555
Mn0 O28 1.939894 1_565
Mn0 O16 1.955431 1_555
Mn0 O31 1.955669 1_565
Mn0 O12 1.978466 1_555
Mn1 O22 1.891633 1_655
Mn1 O27 1.891633 1_555
Mn1 O34 1.939894 1_545
Mn1 O17 1.955431 1_555
Mn1 O30 1.955669 1_545
Mn1 O13 1.978466 1_555
Mn2 O24 1.891633 1_655
Mn2 O21 1.891633 1_555
Mn2 O33 1.939894 1_555
Mn2 O18 1.955431 1_555
Mn2 O29 1.955669 1_555
Mn2 O14 1.978466 1_555
Mn3 O25 1.891633 1_555
Mn3 O20 1.891633 1_455
Mn3 O32 1.939894 1_555
Mn3 O19 1.955431 1_555
Mn3 O35 1.955669 1_555
Mn3 O15 1.978466 1_555
Mn4 O3 1.906452 1_455
Mn4 O7 1.906452 1_555
Mn4 O13 1.987967 1_455
Mn4 O12 1.987967 1_555
Mn4 O10 1.999963 1_555
Mn4 O11 1.999963 1_455
Mn5 O1 1.906452 1_545
Mn5 O5 1.906452 1_454
Mn5 O14 1.987967 1_455
Mn5 O15 1.987967 1_544
Mn5 O9 1.999963 1_555
Mn5 O8 1.999963 1_444
Mn6 O4 1.906452 1_545
Mn6 O0 1.906452 1_554
Mn6 O14 1.987967 1_555
Mn6 O15 1.987967 1_544
Mn6 O9 1.999963 1_555
Mn6 O8 1.999963 1_544
Mn7 O6 1.906452 1_555
Mn7 O2 1.906452 1_555
Mn7 O13 1.987967 1_555
Mn7 O12 1.987967 1_555
Mn7 O10 1.999963 1_555
Mn7 O11 1.999963 1_555
O0 P7 1.547158 1_555
O1 P4 1.547158 1_555
O2 P5 1.547158 1_555
O3 P6 1.547158 1_555
O4 P4 1.547158 1_555
O5 P7 1.547158 1_555
O6 P6 1.547158 1_555
O7 P5 1.547158 1_555
O8 P3 1.623762 1_555
O9 P2 1.623762 1_555
O10 P1 1.623762 1_555
O11 P0 1.623762 1_555
O16 P4 1.569648 1_555
O17 P7 1.569648 1_555
O18 P6 1.569648 1_555
O19 P5 1.569648 1_555
O20 P3 1.517608 1_555
O21 P2 1.517608 1_555
O22 P1 1.517608 1_555
O23 P0 1.517608 1_555
O24 P2 1.517608 1_555
O25 P3 1.517608 1_555
O26 P0 1.517608 1_555
O27 P1 1.517608 1_555
O28 P1 1.499215 1_555
O29 P6 1.567924 1_555
O30 P7 1.567924 1_565
O31 P4 1.567924 1_545
O32 P2 1.499215 1_556
O33 P3 1.499215 1_554
O34 P0 1.499215 1_555
O35 P5 1.567924 1_555
