# generated using pymatgen
data_Ba3Ta2ZnO9
_symmetry_space_group_name_H-M   'P 1'
_cell_length_a   5.85220011
_cell_length_b   5.85220011
_cell_length_c   7.18502900
_cell_angle_alpha   90.00000000
_cell_angle_beta   90.00000000
_cell_angle_gamma   120.00000129
_symmetry_Int_Tables_number   1
_chemical_formula_structural   Ba3Ta2ZnO9
_chemical_formula_sum   'Ba3 Ta2 Zn1 O9'
_cell_volume   213.10688841
_cell_formula_units_Z   1
loop_
 _symmetry_equiv_pos_site_id
 _symmetry_equiv_pos_as_xyz
  1  'x, y, z'
loop_
 _atom_site_type_symbol
 _atom_site_label
 _atom_site_symmetry_multiplicity
 _atom_site_fract_x
 _atom_site_fract_y
 _atom_site_fract_z
 _atom_site_occupancy
  Ba  Ba0  1  0.33333300  0.66666700  0.66222500  1
  Ba  Ba1  1  0.66666700  0.33333300  0.33777500  1
  Ba  Ba2  1  0.00000000  0.00000000  0.00000000  1
  Ta  Ta0  1  0.33333300  0.66666700  0.17502000  1
  Ta  Ta1  1  0.66666700  0.33333300  0.82498000  1
  Zn  Zn0  1  0.00000000  0.00000000  0.50000000  1
  O  O0  1  0.17277900  0.82722100  0.32285100  1
  O  O1  1  0.82722100  0.17277900  0.67714900  1
  O  O2  1  0.17277900  0.34555700  0.32285100  1
  O  O3  1  0.82722100  0.65444300  0.67714900  1
  O  O4  1  0.65444300  0.82722100  0.32285100  1
  O  O5  1  0.34555700  0.17277900  0.67714900  1
  O  O6  1  0.50000000  0.00000000  0.00000000  1
  O  O7  1  0.00000000  0.50000000  0.00000000  1
  O  O8  1  0.50000000  0.50000000  0.00000000  1
loop_
_geom_bond_atom_site_label_1
_geom_bond_atom_site_label_2
_geom_bond_distance
_geom_bond_site_symmetry_2
Ba0 O1 2.928719 1_455
Ba0 O1 2.928719 1_565
Ba0 O5 2.928719 1_565
Ba0 O3 2.928719 1_455
Ba0 O3 2.928719 1_555
Ba0 O5 2.928719 1_555
Ba0 O0 2.931615 1_555
Ba0 O2 2.931620 1_555
Ba0 O4 2.931620 1_555
Ba0 O7 2.957021 1_556
Ba0 O6 2.957021 1_566
Ba0 O8 2.957024 1_556
Ba1 O0 2.928719 1_545
Ba1 O0 2.928719 1_655
Ba1 O2 2.928719 1_655
Ba1 O4 2.928719 1_545
Ba1 O4 2.928719 1_555
Ba1 O2 2.928719 1_555
Ba1 O1 2.931615 1_555
Ba1 O5 2.931620 1_555
Ba1 O3 2.931620 1_555
Ba1 O7 2.957021 1_655
Ba1 O6 2.957021 1_555
Ba1 O8 2.957024 1_555
Ba2 O3 2.906571 1_444
Ba2 O5 2.906571 1_554
Ba2 O2 2.906571 1_555
Ba2 O4 2.906571 1_445
Ba2 O0 2.906574 1_545
Ba2 O1 2.906574 1_454
Ba2 O8 2.926100 1_555
Ba2 O8 2.926100 1_445
Ba2 O7 2.926100 1_545
Ba2 O6 2.926100 1_455
Ba2 O6 2.926100 1_555
Ba2 O7 2.926100 1_555
O0 Ta0 1.943378 1_555
O0 Zn0 2.165010 1_565
O1 Ta1 1.943378 1_555
O1 Zn0 2.165010 1_655
O2 Ta0 1.943386 1_555
O2 Zn0 2.165006 1_555
O3 Ta1 1.943386 1_555
O3 Zn0 2.165006 1_665
O4 Ta0 1.943386 1_555
O4 Zn0 2.165006 1_665
O5 Ta1 1.943386 1_555
O5 Zn0 2.165006 1_555
O6 Ta0 2.106034 1_545
O6 Ta1 2.106034 1_554
O7 Ta0 2.106034 1_555
O7 Ta1 2.106034 1_454
O8 Ta1 2.106038 1_554
O8 Ta0 2.106038 1_555
