# generated using pymatgen
data_SrMg30CoO32
_symmetry_space_group_name_H-M   'P 1'
_cell_length_a   8.61237900
_cell_length_b   8.61237900
_cell_length_c   8.57843500
_cell_angle_alpha   90.00000000
_cell_angle_beta   90.00000000
_cell_angle_gamma   90.00000000
_symmetry_Int_Tables_number   1
_chemical_formula_structural   SrMg30CoO32
_chemical_formula_sum   'Sr1 Mg30 Co1 O32'
_cell_volume   636.28887724
_cell_formula_units_Z   1
loop_
 _symmetry_equiv_pos_site_id
 _symmetry_equiv_pos_as_xyz
  1  'x, y, z'
loop_
 _atom_site_type_symbol
 _atom_site_label
 _atom_site_symmetry_multiplicity
 _atom_site_fract_x
 _atom_site_fract_y
 _atom_site_fract_z
 _atom_site_occupancy
  Sr  Sr0  1  0.00000000  0.00000000  0.50000000  1
  Mg  Mg0  1  0.50000000  0.00000000  0.00000000  1
  Mg  Mg1  1  0.50000000  0.00000000  0.50000000  1
  Mg  Mg2  1  0.00000000  0.50000000  0.00000000  1
  Mg  Mg3  1  0.00000000  0.50000000  0.50000000  1
  Mg  Mg4  1  0.50000000  0.50000000  0.00000000  1
  Mg  Mg5  1  0.50000000  0.50000000  0.50000000  1
  Mg  Mg6  1  0.25605300  0.00000000  0.24429500  1
  Mg  Mg7  1  0.25605300  0.00000000  0.75570500  1
  Mg  Mg8  1  0.74394700  0.00000000  0.24429500  1
  Mg  Mg9  1  0.74394700  0.00000000  0.75570500  1
  Mg  Mg10  1  0.25067400  0.50000000  0.24903000  1
  Mg  Mg11  1  0.25067400  0.50000000  0.75097000  1
  Mg  Mg12  1  0.74932600  0.50000000  0.24903000  1
  Mg  Mg13  1  0.74932600  0.50000000  0.75097000  1
  Mg  Mg14  1  0.00000000  0.25605300  0.24429500  1
  Mg  Mg15  1  0.00000000  0.25605300  0.75570500  1
  Mg  Mg16  1  0.50000000  0.25067400  0.24903000  1
  Mg  Mg17  1  0.50000000  0.25067400  0.75097000  1
  Mg  Mg18  1  0.00000000  0.74394700  0.24429500  1
  Mg  Mg19  1  0.00000000  0.74394700  0.75570500  1
  Mg  Mg20  1  0.50000000  0.74932600  0.24903000  1
  Mg  Mg21  1  0.50000000  0.74932600  0.75097000  1
  Mg  Mg22  1  0.24986400  0.24986400  0.00000000  1
  Mg  Mg23  1  0.25517100  0.25517100  0.50000000  1
  Mg  Mg24  1  0.75013600  0.24986400  0.00000000  1
  Mg  Mg25  1  0.74482900  0.25517100  0.50000000  1
  Mg  Mg26  1  0.24986400  0.75013600  0.00000000  1
  Mg  Mg27  1  0.25517100  0.74482900  0.50000000  1
  Mg  Mg28  1  0.75013600  0.75013600  0.00000000  1
  Mg  Mg29  1  0.74482900  0.74482900  0.50000000  1
  Co  Co0  1  0.00000000  0.00000000  0.00000000  1
  O  O0  1  0.00000000  0.25806900  0.00000000  1
  O  O1  1  0.00000000  0.27005100  0.50000000  1
  O  O2  1  0.50000000  0.25136600  0.00000000  1
  O  O3  1  0.50000000  0.25379900  0.50000000  1
  O  O4  1  0.00000000  0.74193100  0.00000000  1
  O  O5  1  0.00000000  0.72994900  0.50000000  1
  O  O6  1  0.50000000  0.74863400  0.00000000  1
  O  O7  1  0.50000000  0.74620100  0.50000000  1
  O  O8  1  0.24935600  0.24935600  0.25006800  1
  O  O9  1  0.24935600  0.24935600  0.74993200  1
  O  O10  1  0.75064400  0.24935600  0.25006800  1
  O  O11  1  0.75064400  0.24935600  0.74993200  1
  O  O12  1  0.24935600  0.75064400  0.25006800  1
  O  O13  1  0.24935600  0.75064400  0.74993200  1
  O  O14  1  0.75064400  0.75064400  0.25006800  1
  O  O15  1  0.75064400  0.75064400  0.74993200  1
  O  O16  1  0.00000000  0.00000000  0.22911200  1
  O  O17  1  0.00000000  0.00000000  0.77088800  1
  O  O18  1  0.50000000  0.00000000  0.24694700  1
  O  O19  1  0.50000000  0.00000000  0.75305300  1
  O  O20  1  0.00000000  0.50000000  0.24694700  1
  O  O21  1  0.00000000  0.50000000  0.75305300  1
  O  O22  1  0.50000000  0.50000000  0.24930600  1
  O  O23  1  0.50000000  0.50000000  0.75069400  1
  O  O24  1  0.25806900  0.00000000  0.00000000  1
  O  O25  1  0.27005100  0.00000000  0.50000000  1
  O  O26  1  0.74193100  0.00000000  0.00000000  1
  O  O27  1  0.72994900  0.00000000  0.50000000  1
  O  O28  1  0.25136600  0.50000000  0.00000000  1
  O  O29  1  0.25379900  0.50000000  0.50000000  1
  O  O30  1  0.74863400  0.50000000  0.00000000  1
  O  O31  1  0.74620100  0.50000000  0.50000000  1
loop_
_geom_bond_atom_site_label_1
_geom_bond_atom_site_label_2
_geom_bond_distance
_geom_bond_site_symmetry_2
Mg0 O24 2.083601 1_555
Mg0 O26 2.083601 1_555
Mg0 O18 2.118419 1_555
Mg0 O19 2.118419 1_554
Mg0 O6 2.164859 1_545
Mg0 O2 2.164859 1_555
Mg1 O27 1.980408 1_555
Mg1 O25 1.980408 1_555
Mg1 O18 2.170799 1_555
Mg1 O19 2.170799 1_555
Mg1 O7 2.185813 1_545
Mg1 O3 2.185813 1_555
Mg2 O0 2.083601 1_555
Mg2 O4 2.083601 1_555
Mg2 O20 2.118419 1_555
Mg2 O21 2.118419 1_554
Mg2 O30 2.164859 1_455
Mg2 O28 2.164859 1_555
Mg3 O5 1.980408 1_555
Mg3 O1 1.980408 1_555
Mg3 O21 2.170799 1_555
Mg3 O20 2.170799 1_555
Mg3 O29 2.185813 1_555
Mg3 O31 2.185813 1_455
Mg4 O23 2.138655 1_554
Mg4 O22 2.138655 1_555
Mg4 O30 2.141330 1_555
Mg4 O2 2.141330 1_555
Mg4 O28 2.141330 1_555
Mg4 O6 2.141330 1_555
Mg5 O29 2.120376 1_555
Mg5 O7 2.120376 1_555
Mg5 O31 2.120376 1_555
Mg5 O3 2.120376 1_555
Mg5 O23 2.150562 1_555
Mg5 O22 2.150562 1_555
Mg6 O24 2.095741 1_555
Mg6 O18 2.101087 1_555
Mg6 O8 2.148893 1_555
Mg6 O12 2.148893 1_545
Mg6 O25 2.196859 1_555
Mg6 O16 2.209068 1_555
Mg7 O24 2.095741 1_556
Mg7 O19 2.101087 1_555
Mg7 O9 2.148893 1_555
Mg7 O13 2.148893 1_545
Mg7 O25 2.196859 1_555
Mg7 O17 2.209068 1_555
Mg8 O26 2.095741 1_555
Mg8 O18 2.101087 1_555
Mg8 O10 2.148893 1_555
Mg8 O14 2.148893 1_545
Mg8 O27 2.196859 1_555
Mg8 O16 2.209068 1_655
Mg9 O26 2.095741 1_556
Mg9 O19 2.101087 1_555
Mg9 O11 2.148893 1_555
Mg9 O15 2.148893 1_545
Mg9 O27 2.196859 1_555
Mg9 O17 2.209068 1_655
Mg10 O28 2.136296 1_555
Mg10 O22 2.147291 1_555
Mg10 O29 2.153098 1_555
Mg10 O12 2.158689 1_555
Mg10 O8 2.158689 1_555
Mg10 O20 2.158973 1_555
Mg11 O28 2.136296 1_556
Mg11 O23 2.147291 1_555
Mg11 O29 2.153098 1_555
Mg11 O13 2.158689 1_555
Mg11 O9 2.158689 1_555
Mg11 O21 2.158973 1_555
Mg12 O30 2.136296 1_555
Mg12 O22 2.147291 1_555
Mg12 O31 2.153098 1_555
Mg12 O10 2.158689 1_555
Mg12 O14 2.158689 1_555
Mg12 O20 2.158973 1_655
Mg13 O30 2.136296 1_556
Mg13 O23 2.147291 1_555
Mg13 O31 2.153098 1_555
Mg13 O15 2.158689 1_555
Mg13 O11 2.158689 1_555
Mg13 O21 2.158973 1_655
Mg14 O0 2.095741 1_555
Mg14 O20 2.101087 1_555
Mg14 O8 2.148893 1_555
Mg14 O10 2.148893 1_455
Mg14 O1 2.196859 1_555
Mg14 O16 2.209068 1_555
Mg15 O0 2.095741 1_556
Mg15 O21 2.101087 1_555
Mg15 O9 2.148893 1_555
Mg15 O11 2.148893 1_455
Mg15 O1 2.196859 1_555
Mg15 O17 2.209068 1_555
Mg16 O2 2.136296 1_555
Mg16 O22 2.147291 1_555
Mg16 O3 2.153098 1_555
Mg16 O10 2.158689 1_555
Mg16 O8 2.158689 1_555
Mg16 O18 2.158973 1_555
Mg17 O2 2.136296 1_556
Mg17 O23 2.147291 1_555
Mg17 O3 2.153098 1_555
Mg17 O11 2.158689 1_555
Mg17 O9 2.158689 1_555
Mg17 O19 2.158973 1_555
Mg18 O4 2.095741 1_555
Mg18 O20 2.101087 1_555
Mg18 O12 2.148893 1_555
Mg18 O14 2.148893 1_455
Mg18 O5 2.196859 1_555
Mg18 O16 2.209068 1_565
Mg19 O4 2.095741 1_556
Mg19 O21 2.101087 1_555
Mg19 O13 2.148893 1_555
Mg19 O15 2.148893 1_455
Mg19 O5 2.196859 1_555
Mg19 O17 2.209068 1_565
Mg20 O6 2.136296 1_555
Mg20 O22 2.147291 1_555
Mg20 O7 2.153098 1_555
Mg20 O12 2.158689 1_555
Mg20 O14 2.158689 1_555
Mg20 O18 2.158973 1_565
Mg21 O6 2.136296 1_556
Mg21 O23 2.147291 1_555
Mg21 O7 2.153098 1_555
Mg21 O13 2.158689 1_555
Mg21 O15 2.158689 1_555
Mg21 O19 2.158973 1_565
Mg22 O9 2.145201 1_554
Mg22 O8 2.145201 1_555
Mg22 O24 2.153083 1_555
Mg22 O0 2.153083 1_555
Mg22 O2 2.154305 1_555
Mg22 O28 2.154305 1_555
Mg23 O29 2.108593 1_555
Mg23 O3 2.108593 1_555
Mg23 O8 2.145195 1_555
Mg23 O9 2.145195 1_555
Mg23 O25 2.201363 1_555
Mg23 O1 2.201363 1_555
Mg24 O11 2.145201 1_554
Mg24 O10 2.145201 1_555
Mg24 O0 2.153083 1_655
Mg24 O26 2.153083 1_555
Mg24 O30 2.154305 1_555
Mg24 O2 2.154305 1_555
Mg25 O3 2.108593 1_555
Mg25 O31 2.108593 1_555
Mg25 O10 2.145195 1_555
Mg25 O11 2.145195 1_555
Mg25 O27 2.201363 1_555
Mg25 O1 2.201363 1_655
Mg26 O13 2.145201 1_554
Mg26 O12 2.145201 1_555
Mg26 O24 2.153083 1_565
Mg26 O4 2.153083 1_555
Mg26 O28 2.154305 1_555
Mg26 O6 2.154305 1_555
Mg27 O29 2.108593 1_555
Mg27 O7 2.108593 1_555
Mg27 O12 2.145195 1_555
Mg27 O13 2.145195 1_555
Mg27 O5 2.201363 1_555
Mg27 O25 2.201363 1_565
Mg28 O15 2.145201 1_554
Mg28 O14 2.145201 1_555
Mg28 O26 2.153083 1_565
Mg28 O4 2.153083 1_655
Mg28 O30 2.154305 1_555
Mg28 O6 2.154305 1_555
Mg29 O31 2.108593 1_555
Mg29 O7 2.108593 1_555
Mg29 O14 2.145195 1_555
Mg29 O15 2.145195 1_555
Mg29 O27 2.201363 1_565
Mg29 O5 2.201363 1_655
Co0 O17 1.965422 1_554
Co0 O16 1.965422 1_555
Co0 O24 2.222588 1_555
Co0 O0 2.222588 1_555
Co0 O26 2.222588 1_455
Co0 O4 2.222588 1_545
O1 Sr0 2.325782 1_555
O5 Sr0 2.325782 1_565
O16 Sr0 2.323795 1_555
O17 Sr0 2.323795 1_555
O25 Sr0 2.325782 1_555
O27 Sr0 2.325782 1_655
