# generated using pymatgen
data_TiAg
_symmetry_space_group_name_H-M   'P 1'
_cell_length_a   5.77762400
_cell_length_b   5.77762400
_cell_length_c   8.34335200
_cell_angle_alpha   90.00000000
_cell_angle_beta   90.00000000
_cell_angle_gamma   90.00000000
_symmetry_Int_Tables_number   1
_chemical_formula_structural   TiAg
_chemical_formula_sum   'Ti8 Ag8'
_cell_volume   278.50892488
_cell_formula_units_Z   8
loop_
 _symmetry_equiv_pos_site_id
 _symmetry_equiv_pos_as_xyz
  1  'x, y, z'
loop_
 _atom_site_type_symbol
 _atom_site_label
 _atom_site_symmetry_multiplicity
 _atom_site_fract_x
 _atom_site_fract_y
 _atom_site_fract_z
 _atom_site_occupancy
  Ti  Ti0_0  1  0.25000000  0.25000000  0.25000000  1
  Ti  Ti0_1  1  0.25000000  0.25000000  0.75000000  1
  Ti  Ti0_2  1  0.25000000  0.75000000  0.25000000  1
  Ti  Ti0_3  1  0.25000000  0.75000000  0.75000000  1
  Ti  Ti0_4  1  0.75000000  0.25000000  0.25000000  1
  Ti  Ti0_5  1  0.75000000  0.25000000  0.75000000  1
  Ti  Ti0_6  1  0.75000000  0.75000000  0.25000000  1
  Ti  Ti0_7  1  0.75000000  0.75000000  0.75000000  1
  Ag  Ag0_0  1  0.00000000  0.00000000  0.00000000  1
  Ag  Ag0_1  1  0.00000000  0.00000000  0.50000000  1
  Ag  Ag0_2  1  0.00000000  0.50000000  0.00000000  1
  Ag  Ag0_3  1  0.00000000  0.50000000  0.50000000  1
  Ag  Ag0_4  1  0.50000000  0.00000000  0.00000000  1
  Ag  Ag0_5  1  0.50000000  0.00000000  0.50000000  1
  Ag  Ag0_6  1  0.50000000  0.50000000  0.00000000  1
  Ag  Ag0_7  1  0.50000000  0.50000000  0.50000000  1
loop_
_geom_bond_atom_site_label_1
_geom_bond_atom_site_label_2
_geom_bond_distance
_geom_bond_site_symmetry_2
Ti0_0 Ti0_2 2.888812 1_545
Ti0_0 Ti0_4 2.888812 1_455
Ti0_0 Ti0_4 2.888812 1_555
Ti0_0 Ti0_2 2.888812 1_555
Ti0_1 Ti0_3 2.888812 1_545
Ti0_1 Ti0_5 2.888812 1_455
Ti0_1 Ti0_5 2.888812 1_555
Ti0_1 Ti0_3 2.888812 1_555
Ti0_2 Ti0_6 2.888812 1_455
Ti0_2 Ti0_6 2.888812 1_555
Ti0_3 Ti0_7 2.888812 1_455
Ti0_3 Ti0_7 2.888812 1_555
Ti0_4 Ti0_6 2.888812 1_545
Ti0_4 Ti0_6 2.888812 1_555
Ti0_5 Ti0_7 2.888812 1_545
Ti0_5 Ti0_7 2.888812 1_555
Ag0_0 Ag0_2 2.888812 1_555
Ag0_0 Ag0_4 2.888812 1_555
Ag0_0 Ag0_4 2.888812 1_455
Ag0_0 Ag0_2 2.888812 1_545
Ag0_0 Ti0_6 2.919476 1_445
Ag0_0 Ti0_3 2.919476 1_544
Ag0_0 Ti0_5 2.919476 1_454
Ag0_0 Ti0_2 2.919476 1_545
Ag0_0 Ti0_4 2.919476 1_455
Ag0_0 Ti0_7 2.919476 1_444
Ag0_0 Ti0_0 2.919476 1_555
Ag0_0 Ti0_1 2.919476 1_554
Ag0_1 Ag0_5 2.888812 1_555
Ag0_1 Ag0_5 2.888812 1_455
Ag0_1 Ag0_3 2.888812 1_545
Ag0_1 Ag0_3 2.888812 1_555
Ag0_1 Ti0_7 2.919476 1_445
Ag0_1 Ti0_2 2.919476 1_545
Ag0_1 Ti0_4 2.919476 1_455
Ag0_1 Ti0_6 2.919476 1_445
Ag0_1 Ti0_3 2.919476 1_545
Ag0_1 Ti0_5 2.919476 1_455
Ag0_1 Ti0_0 2.919476 1_555
Ag0_1 Ti0_1 2.919476 1_555
Ag0_2 Ag0_6 2.888812 1_455
Ag0_2 Ag0_6 2.888812 1_555
Ag0_2 Ti0_5 2.919476 1_454
Ag0_2 Ti0_4 2.919476 1_455
Ag0_2 Ti0_0 2.919476 1_555
Ag0_2 Ti0_7 2.919476 1_454
Ag0_2 Ti0_6 2.919476 1_455
Ag0_2 Ti0_1 2.919476 1_554
Ag0_2 Ti0_2 2.919476 1_555
Ag0_2 Ti0_3 2.919476 1_554
Ag0_3 Ag0_7 2.888812 1_455
Ag0_3 Ag0_7 2.888812 1_555
Ag0_3 Ti0_4 2.919476 1_455
Ag0_3 Ti0_5 2.919476 1_455
Ag0_3 Ti0_7 2.919476 1_455
Ag0_3 Ti0_0 2.919476 1_555
Ag0_3 Ti0_1 2.919476 1_555
Ag0_3 Ti0_6 2.919476 1_455
Ag0_3 Ti0_2 2.919476 1_555
Ag0_3 Ti0_3 2.919476 1_555
Ag0_4 Ag0_6 2.888812 1_545
Ag0_4 Ag0_6 2.888812 1_555
Ag0_4 Ti0_3 2.919476 1_544
Ag0_4 Ti0_2 2.919476 1_545
Ag0_4 Ti0_0 2.919476 1_555
Ag0_4 Ti0_6 2.919476 1_545
Ag0_4 Ti0_7 2.919476 1_544
Ag0_4 Ti0_1 2.919476 1_554
Ag0_4 Ti0_4 2.919476 1_555
Ag0_4 Ti0_5 2.919476 1_554
Ag0_5 Ag0_7 2.888812 1_555
Ag0_5 Ag0_7 2.888812 1_545
Ag0_5 Ti0_2 2.919476 1_545
Ag0_5 Ti0_3 2.919476 1_545
Ag0_5 Ti0_0 2.919476 1_555
Ag0_5 Ti0_6 2.919476 1_545
Ag0_5 Ti0_7 2.919476 1_545
Ag0_5 Ti0_1 2.919476 1_555
Ag0_5 Ti0_5 2.919476 1_555
Ag0_5 Ti0_4 2.919476 1_555
Ag0_6 Ti0_0 2.919476 1_555
Ag0_6 Ti0_1 2.919476 1_554
Ag0_6 Ti0_3 2.919476 1_554
Ag0_6 Ti0_2 2.919476 1_555
Ag0_6 Ti0_4 2.919476 1_555
Ag0_6 Ti0_5 2.919476 1_554
Ag0_6 Ti0_6 2.919476 1_555
Ag0_6 Ti0_7 2.919476 1_554
Ag0_7 Ti0_0 2.919476 1_555
Ag0_7 Ti0_1 2.919476 1_555
Ag0_7 Ti0_2 2.919476 1_555
Ag0_7 Ti0_5 2.919476 1_555
Ag0_7 Ti0_3 2.919476 1_555
Ag0_7 Ti0_4 2.919476 1_555
Ag0_7 Ti0_6 2.919476 1_555
Ag0_7 Ti0_7 2.919476 1_555
