# generated using pymatgen
data_NaCo2P2O9
_symmetry_space_group_name_H-M   'P 1'
_cell_length_a   6.25761300
_cell_length_b   7.49620800
_cell_length_c   14.20491000
_cell_angle_alpha   90.00000000
_cell_angle_beta   90.00000000
_cell_angle_gamma   90.00000000
_symmetry_Int_Tables_number   1
_chemical_formula_structural   NaCo2P2O9
_chemical_formula_sum   'Na4 Co8 P8 O36'
_cell_volume   666.32915466
_cell_formula_units_Z   4
loop_
 _symmetry_equiv_pos_site_id
 _symmetry_equiv_pos_as_xyz
  1  'x, y, z'
loop_
 _atom_site_type_symbol
 _atom_site_label
 _atom_site_symmetry_multiplicity
 _atom_site_fract_x
 _atom_site_fract_y
 _atom_site_fract_z
 _atom_site_occupancy
  Na  Na0  1  0.75000000  0.89028700  0.77888900  1
  Na  Na1  1  0.75000000  0.60971300  0.27888900  1
  Na  Na2  1  0.25000000  0.39028700  0.72111100  1
  Na  Na3  1  0.25000000  0.10971300  0.22111100  1
  Co  Co0  1  0.75000000  0.35544600  0.87347000  1
  Co  Co1  1  0.25000000  0.64455400  0.12653000  1
  Co  Co2  1  0.25000000  0.85544600  0.62653000  1
  Co  Co3  1  0.75000000  0.14455400  0.37347000  1
  Co  Co4  1  0.50000000  0.00000000  0.00000000  1
  Co  Co5  1  0.50000000  0.50000000  0.50000000  1
  Co  Co6  1  0.00000000  0.50000000  0.50000000  1
  Co  Co7  1  0.00000000  0.00000000  0.00000000  1
  P  P0  1  0.25000000  0.36095900  0.93588300  1
  P  P1  1  0.75000000  0.63904100  0.06411700  1
  P  P2  1  0.75000000  0.86095900  0.56411700  1
  P  P3  1  0.25000000  0.13904100  0.43588300  1
  P  P4  1  0.75000000  0.39119700  0.68784200  1
  P  P5  1  0.75000000  0.10880300  0.18784200  1
  P  P6  1  0.25000000  0.89119700  0.81215800  1
  P  P7  1  0.25000000  0.60880300  0.31215800  1
  O  O0  1  0.04737800  0.59772200  0.37525100  1
  O  O1  1  0.54737800  0.40227800  0.62474900  1
  O  O2  1  0.95262200  0.09772200  0.12474900  1
  O  O3  1  0.45262200  0.90227800  0.87525100  1
  O  O4  1  0.95262200  0.40227800  0.62474900  1
  O  O5  1  0.45262200  0.59772200  0.37525100  1
  O  O6  1  0.04737800  0.90227800  0.87525100  1
  O  O7  1  0.54737800  0.09772200  0.12474900  1
  O  O8  1  0.25000000  0.32830700  0.48427800  1
  O  O9  1  0.75000000  0.67169300  0.51572200  1
  O  O10  1  0.75000000  0.82830700  0.01572200  1
  O  O11  1  0.25000000  0.17169300  0.98427800  1
  O  O12  1  0.75000000  0.12791600  0.95389000  1
  O  O13  1  0.25000000  0.87208400  0.04611000  1
  O  O14  1  0.25000000  0.62791600  0.54611000  1
  O  O15  1  0.75000000  0.37208400  0.45389000  1
  O  O16  1  0.75000000  0.21761100  0.74762200  1
  O  O17  1  0.25000000  0.78238900  0.25237800  1
  O  O18  1  0.25000000  0.71761100  0.75237800  1
  O  O19  1  0.75000000  0.28238900  0.24762200  1
  O  O20  1  0.44580800  0.13602600  0.36899400  1
  O  O21  1  0.94580800  0.86397400  0.63100600  1
  O  O22  1  0.55419200  0.63602600  0.13100600  1
  O  O23  1  0.05419200  0.36397400  0.86899400  1
  O  O24  1  0.55419200  0.86397400  0.63100600  1
  O  O25  1  0.05419200  0.13602600  0.36899400  1
  O  O26  1  0.44580800  0.36397400  0.86899400  1
  O  O27  1  0.94580800  0.63602600  0.13100600  1
  O  O28  1  0.75000000  0.49030200  0.99317100  1
  O  O29  1  0.25000000  0.03914000  0.73487000  1
  O  O30  1  0.25000000  0.46086000  0.23487000  1
  O  O31  1  0.75000000  0.53914000  0.76513000  1
  O  O32  1  0.75000000  0.00969800  0.49317100  1
  O  O33  1  0.25000000  0.99030200  0.50682900  1
  O  O34  1  0.25000000  0.50969800  0.00682900  1
  O  O35  1  0.75000000  0.96086000  0.26513000  1
loop_
_geom_bond_atom_site_label_1
_geom_bond_atom_site_label_2
_geom_bond_distance
_geom_bond_site_symmetry_2
Na0 O6 2.311837 1_655
Na0 O3 2.311837 1_555
Na0 O21 2.439884 1_555
Na0 O24 2.439884 1_555
Na0 O16 2.493562 1_565
Na0 O31 2.639517 1_555
Na1 O0 2.311837 1_655
Na1 O5 2.311837 1_555
Na1 O27 2.439884 1_555
Na1 O22 2.439884 1_555
Na1 O19 2.493562 1_555
Na1 O35 2.639517 1_555
Na2 O1 2.311837 1_555
Na2 O4 2.311837 1_455
Na2 O26 2.439884 1_555
Na2 O23 2.439884 1_555
Na2 O18 2.493562 1_555
Na2 O29 2.639517 1_555
Na3 O7 2.311837 1_555
Na3 O2 2.311837 1_455
Na3 O25 2.439884 1_555
Na3 O20 2.439884 1_555
Na3 O17 2.493562 1_545
Na3 O30 2.639517 1_555
Co0 O26 1.905650 1_555
Co0 O23 1.905650 1_655
Co0 O28 1.978155 1_555
Co0 O12 2.052827 1_555
Co0 O16 2.064779 1_555
Co0 O31 2.065079 1_555
Co1 O22 1.905650 1_555
Co1 O27 1.905650 1_455
Co1 O34 1.978155 1_555
Co1 O13 2.052827 1_555
Co1 O17 2.064779 1_555
Co1 O30 2.065079 1_555
Co2 O21 1.905650 1_455
Co2 O24 1.905650 1_555
Co2 O33 1.978155 1_555
Co2 O14 2.052827 1_555
Co2 O18 2.064779 1_555
Co2 O29 2.065079 1_565
Co3 O20 1.905650 1_555
Co3 O25 1.905650 1_655
Co3 O32 1.978155 1_555
Co3 O15 2.052827 1_555
Co3 O19 2.064779 1_555
Co3 O35 2.065079 1_545
Co4 O7 1.940277 1_555
Co4 O3 1.940277 1_544
Co4 O12 1.948288 1_554
Co4 O13 1.948288 1_545
Co4 O11 2.038068 1_554
Co4 O10 2.038068 1_545
Co5 O5 1.940277 1_555
Co5 O1 1.940277 1_555
Co5 O14 1.948288 1_555
Co5 O15 1.948288 1_555
Co5 O9 2.038068 1_555
Co5 O8 2.038068 1_555
Co6 O0 1.940277 1_555
Co6 O4 1.940277 1_455
Co6 O14 1.948288 1_555
Co6 O15 1.948288 1_455
Co6 O9 2.038068 1_455
Co6 O8 2.038068 1_555
Co7 O2 1.940277 1_455
Co7 O6 1.940277 1_544
Co7 O12 1.948288 1_454
Co7 O13 1.948288 1_545
Co7 O11 2.038068 1_554
Co7 O10 2.038068 1_445
O0 P7 1.554920 1_555
O1 P4 1.554920 1_555
O2 P5 1.554920 1_555
O3 P6 1.554920 1_555
O4 P4 1.554920 1_555
O5 P7 1.554920 1_555
O6 P6 1.554920 1_555
O7 P5 1.554920 1_555
O8 P3 1.576551 1_555
O9 P2 1.576551 1_555
O10 P1 1.576551 1_555
O11 P0 1.576551 1_555
O16 P4 1.553804 1_555
O17 P7 1.553804 1_555
O18 P6 1.553804 1_555
O19 P5 1.553804 1_555
O20 P3 1.550689 1_555
O21 P2 1.550689 1_555
O22 P1 1.550689 1_555
O23 P0 1.550689 1_555
O24 P2 1.550689 1_555
O25 P3 1.550689 1_555
O26 P0 1.550689 1_555
O27 P1 1.550689 1_555
O28 P1 1.502931 1_556
O29 P6 1.560520 1_545
O30 P7 1.560520 1_555
O31 P4 1.560520 1_555
O32 P2 1.502931 1_545
O33 P3 1.502931 1_565
O34 P0 1.502931 1_554
O35 P5 1.560520 1_565
