# generated using pymatgen
data_Li4V3Fe3(WO8)2
_symmetry_space_group_name_H-M   'P 1'
_cell_length_a   6.00199000
_cell_length_b   6.04825733
_cell_length_c   9.78891773
_cell_angle_alpha   90.06472475
_cell_angle_beta   90.14594788
_cell_angle_gamma   119.62856502
_symmetry_Int_Tables_number   1
_chemical_formula_structural   Li4V3Fe3(WO8)2
_chemical_formula_sum   'Li4 V3 Fe3 W2 O16'
_cell_volume   308.88807290
_cell_formula_units_Z   1
loop_
 _symmetry_equiv_pos_site_id
 _symmetry_equiv_pos_as_xyz
  1  'x, y, z'
loop_
 _atom_site_type_symbol
 _atom_site_label
 _atom_site_symmetry_multiplicity
 _atom_site_fract_x
 _atom_site_fract_y
 _atom_site_fract_z
 _atom_site_occupancy
  Li  Li0  1  0.33220900  0.66332800  0.90194400  1
  Li  Li1  1  0.00552900  0.00167100  0.99058900  1
  Li  Li2  1  0.99758200  0.00074300  0.48845800  1
  Li  Li3  1  0.66530500  0.32780400  0.40529300  1
  V  V0  1  0.18339700  0.34861400  0.21794100  1
  V  V1  1  0.82778100  0.16973000  0.71456400  1
  V  V2  1  0.34012400  0.16684900  0.71423200  1
  Fe  Fe0  1  0.66612700  0.83557400  0.20982200  1
  Fe  Fe1  1  0.16946800  0.83719200  0.20893400  1
  Fe  Fe2  1  0.82694700  0.65452700  0.71664500  1
  W  W0  1  0.33087200  0.66681700  0.48617000  1
  W  W1  1  0.67458500  0.34217500  0.98894000  1
  O  O0  1  0.65147800  0.81591700  0.59193300  1
  O  O1  1  0.47862700  0.95226300  0.36514200  1
  O  O2  1  0.31746100  0.63809900  0.11273300  1
  O  O3  1  0.01303500  0.03121600  0.30170600  1
  O  O4  1  0.99679300  0.99529100  0.80008400  1
  O  O5  1  0.16321900  0.81784500  0.59054700  1
  O  O6  1  0.46541500  0.50194100  0.35478700  1
  O  O7  1  0.04042000  0.50532300  0.35515300  1
  O  O8  1  0.83200700  0.67224300  0.08368700  1
  O  O9  1  0.17122400  0.33999800  0.59374800  1
  O  O10  1  0.96517100  0.48222300  0.83997900  1
  O  O11  1  0.52167300  0.47816900  0.84469100  1
  O  O12  1  0.66588700  0.33396900  0.60839800  1
  O  O13  1  0.84295300  0.19193000  0.08787100  1
  O  O14  1  0.51573300  0.03778900  0.84124600  1
  O  O15  1  0.33927500  0.19075600  0.09260000  1
loop_
_geom_bond_atom_site_label_1
_geom_bond_atom_site_label_2
_geom_bond_distance
_geom_bond_site_symmetry_2
Li0 O10 2.006632 1_455
Li0 O11 2.030365 1_555
Li0 O14 2.058043 1_565
Li0 O2 2.068093 1_556
Li1 O4 1.865261 1_445
Li1 O8 1.960175 1_446
Li1 O15 2.009917 1_556
Li1 O13 2.072601 1_456
Li2 O3 1.835550 1_655
Li2 O9 2.057690 1_655
Li2 O5 2.072568 1_645
Li2 O0 2.075592 1_545
Li3 O12 1.988447 1_555
Li3 O6 2.010129 1_555
Li3 O1 2.012067 1_545
Li3 O7 2.019739 1_655
Fe0 O3 2.023975 1_665
Fe0 O2 2.055505 1_555
Fe0 O8 2.113680 1_555
Fe0 O1 2.206317 1_555
Fe0 O13 2.224285 1_565
Fe0 O6 2.269024 1_555
Fe1 O3 2.043218 1_565
Fe1 O2 2.045748 1_555
Fe1 O8 2.141844 1_455
Fe1 O15 2.182883 1_565
Fe1 O1 2.229781 1_555
Fe1 O7 2.269917 1_555
Fe2 O4 1.966906 1_555
Fe2 O12 1.988288 1_555
Fe2 O10 2.021015 1_555
Fe2 O11 2.036742 1_555
Fe2 O0 2.136568 1_555
Fe2 O5 2.148752 1_655
O0 W0 1.964659 1_555
O0 V1 2.211086 1_565
O1 W0 1.914895 1_555
O2 V0 1.840918 1_555
O3 V0 1.862830 1_555
O4 V1 1.974553 1_565
O4 V2 1.981398 1_665
O5 W0 1.950089 1_555
O5 V2 2.195596 1_565
O6 V0 1.988258 1_555
O6 W0 2.024645 1_555
O7 W0 1.984974 1_555
O7 V0 2.060595 1_555
O8 W1 1.965867 1_554
O9 W0 2.017792 1_555
O9 V2 2.135834 1_555
O9 V1 2.150483 1_455
O10 V1 2.051342 1_555
O10 W1 2.107283 1_555
O11 W1 2.062802 1_555
O11 V2 2.079059 1_555
O12 V1 1.990613 1_555
O12 V2 1.994116 1_555
O13 W1 1.920884 1_554
O13 V0 2.182628 1_655
O14 V2 2.018691 1_555
O14 V1 2.053944 1_555
O14 W1 2.154067 1_555
O15 W1 2.027011 1_554
O15 V0 2.044189 1_555
