# generated using pymatgen
data_Sm4MnS7
_symmetry_space_group_name_H-M   'P 1'
_cell_length_a   9.82044178
_cell_length_b   9.82044178
_cell_length_c   6.84744100
_cell_angle_alpha   90.00000000
_cell_angle_beta   90.00000000
_cell_angle_gamma   119.99999855
_symmetry_Int_Tables_number   1
_chemical_formula_structural   Sm4MnS7
_chemical_formula_sum   'Sm8 Mn2 S14'
_cell_volume   571.90117386
_cell_formula_units_Z   2
loop_
 _symmetry_equiv_pos_site_id
 _symmetry_equiv_pos_as_xyz
  1  'x, y, z'
loop_
 _atom_site_type_symbol
 _atom_site_label
 _atom_site_symmetry_multiplicity
 _atom_site_fract_x
 _atom_site_fract_y
 _atom_site_fract_z
 _atom_site_occupancy
  Sm  Sm0  1  0.33333300  0.66666700  0.16516000  1
  Sm  Sm1  1  0.66666700  0.33333300  0.66516000  1
  Sm  Sm2  1  0.37826500  0.22341900  0.21370400  1
  Sm  Sm3  1  0.77658100  0.15484600  0.21370400  1
  Sm  Sm4  1  0.62173500  0.77658100  0.71370400  1
  Sm  Sm5  1  0.84515400  0.62173500  0.21370400  1
  Sm  Sm6  1  0.22341900  0.84515400  0.71370400  1
  Sm  Sm7  1  0.15484600  0.37826500  0.71370400  1
  Mn  Mn0  1  0.00000000  0.00000000  0.03870300  1
  Mn  Mn1  1  0.00000000  0.00000000  0.53870300  1
  S  S0  1  0.51103200  0.07447900  0.45036100  1
  S  S1  1  0.92552100  0.43655300  0.45036100  1
  S  S2  1  0.48896800  0.92552100  0.95036100  1
  S  S3  1  0.56344700  0.48896800  0.45036100  1
  S  S4  1  0.07447900  0.56344700  0.95036100  1
  S  S5  1  0.43655300  0.51103200  0.95036100  1
  S  S6  1  0.33333300  0.66666700  0.54932200  1
  S  S7  1  0.66666700  0.33333300  0.04932200  1
  S  S8  1  0.10587700  0.23836200  0.31687400  1
  S  S9  1  0.76163800  0.86751400  0.31687400  1
  S  S10  1  0.89412300  0.76163800  0.81687400  1
  S  S11  1  0.13248600  0.89412300  0.31687400  1
  S  S12  1  0.23836200  0.13248600  0.81687400  1
  S  S13  1  0.86751400  0.10587700  0.81687400  1
loop_
_geom_bond_atom_site_label_1
_geom_bond_atom_site_label_2
_geom_bond_distance
_geom_bond_site_symmetry_2
Mn0 S10 2.536512 1_444
Mn0 S12 2.536512 1_554
Mn0 S13 2.536519 1_454
Mn0 S8 2.784737 1_555
Mn0 S9 2.784737 1_445
Mn0 S11 2.784743 1_545
Mn1 S8 2.536512 1_555
Mn1 S9 2.536512 1_445
Mn1 S11 2.536519 1_545
Mn1 S10 2.784737 1_445
Mn1 S12 2.784737 1_555
Mn1 S13 2.784743 1_455
S0 Sm1 2.660097 1_555
S0 Sm3 2.826903 1_555
S0 Sm2 2.893510 1_555
S0 Sm6 3.152813 1_545
S1 Sm1 2.660096 1_555
S1 Sm5 2.826903 1_555
S1 Sm3 2.893510 1_555
S1 Sm7 3.152813 1_655
S2 Sm0 2.660097 1_556
S2 Sm6 2.826903 1_555
S2 Sm4 2.893510 1_555
S2 Sm3 3.152813 1_566
S3 Sm1 2.660104 1_555
S3 Sm2 2.826903 1_555
S3 Sm5 2.893510 1_555
S3 Sm4 3.152813 1_555
S4 Sm0 2.660096 1_556
S4 Sm7 2.826903 1_555
S4 Sm6 2.893510 1_555
S4 Sm5 3.152813 1_456
S5 Sm0 2.660104 1_556
S5 Sm4 2.826903 1_555
S5 Sm7 2.893510 1_555
S5 Sm2 3.152813 1_556
S6 Sm0 2.630527 1_555
S6 Sm6 2.719644 1_555
S6 Sm7 2.719651 1_555
S6 Sm4 2.719652 1_555
S7 Sm1 2.630527 1_554
S7 Sm3 2.719644 1_555
S7 Sm5 2.719651 1_555
S7 Sm2 2.719652 1_555
S8 Sm2 2.840531 1_555
S8 Sm7 2.973506 1_555
S8 Sm3 2.996187 1_455
S9 Sm3 2.840541 1_565
S9 Sm4 2.973505 1_555
S9 Sm5 2.996178 1_555
S10 Sm4 2.840531 1_555
S10 Sm5 2.973506 1_556
S10 Sm6 2.996187 1_655
S11 Sm5 2.840536 1_455
S11 Sm6 2.973502 1_555
S11 Sm2 2.996185 1_565
S12 Sm6 2.840541 1_545
S12 Sm2 2.973505 1_556
S12 Sm7 2.996178 1_555
S13 Sm7 2.840536 1_655
S13 Sm3 2.973502 1_556
S13 Sm4 2.996185 1_545
