# generated using pymatgen
data_CsMnP
_symmetry_space_group_name_H-M   'P 1'
_cell_length_a   3.88151700
_cell_length_b   3.88151700
_cell_length_c   11.65085600
_cell_angle_alpha   90.00000000
_cell_angle_beta   90.00000000
_cell_angle_gamma   90.00000000
_symmetry_Int_Tables_number   1
_chemical_formula_structural   CsMnP
_chemical_formula_sum   'Cs2 Mn2 P2'
_cell_volume   175.53382632
_cell_formula_units_Z   2
loop_
 _symmetry_equiv_pos_site_id
 _symmetry_equiv_pos_as_xyz
  1  'x, y, z'
loop_
 _atom_site_type_symbol
 _atom_site_label
 _atom_site_symmetry_multiplicity
 _atom_site_fract_x
 _atom_site_fract_y
 _atom_site_fract_z
 _atom_site_occupancy
  Cs  Cs0  1  0.00000000  0.50000000  0.70964700  1
  Cs  Cs1  1  0.50000000  0.00000000  0.29035300  1
  Mn  Mn0  1  0.50000000  0.50000000  0.00000000  1
  Mn  Mn1  1  0.00000000  0.00000000  0.00000000  1
  P  P0  1  0.00000000  0.50000000  0.10263200  1
  P  P1  1  0.50000000  0.00000000  0.89736800  1
loop_
_geom_bond_atom_site_label_1
_geom_bond_atom_site_label_2
_geom_bond_distance
_geom_bond_site_symmetry_2
Cs0 P1 3.509493 1_555
Cs0 P1 3.509493 1_465
Cs0 P1 3.509493 1_455
Cs0 P1 3.509493 1_565
Cs1 P0 3.509493 1_645
Cs1 P0 3.509493 1_555
Cs1 P0 3.509493 1_655
Cs1 P0 3.509493 1_545
Mn0 P0 2.279553 1_655
Mn0 P0 2.279553 1_555
Mn0 P1 2.279553 1_564
Mn0 P1 2.279553 1_554
Mn1 P0 2.279553 1_545
Mn1 P0 2.279553 1_555
Mn1 P1 2.279553 1_454
Mn1 P1 2.279553 1_554
