# generated using pymatgen
data_La2MgGeO6
_symmetry_space_group_name_H-M   'P 1'
_cell_length_a   5.51795559
_cell_length_b   5.51795559
_cell_length_c   5.51795611
_cell_angle_alpha   60.75349690
_cell_angle_beta   60.75349690
_cell_angle_gamma   60.75349201
_symmetry_Int_Tables_number   1
_chemical_formula_structural   La2MgGeO6
_chemical_formula_sum   'La2 Mg1 Ge1 O6'
_cell_volume   120.82054890
_cell_formula_units_Z   1
loop_
 _symmetry_equiv_pos_site_id
 _symmetry_equiv_pos_as_xyz
  1  'x, y, z'
loop_
 _atom_site_type_symbol
 _atom_site_label
 _atom_site_symmetry_multiplicity
 _atom_site_fract_x
 _atom_site_fract_y
 _atom_site_fract_z
 _atom_site_occupancy
  La  La0  1  0.74941700  0.74941700  0.74941700  1
  La  La1  1  0.25058300  0.25058300  0.25058300  1
  Mg  Mg0  1  0.00000000  0.00000000  0.00000000  1
  Ge  Ge0  1  0.50000000  0.50000000  0.50000000  1
  O  O0  1  0.80661200  0.26351700  0.67509900  1
  O  O1  1  0.67509900  0.80661200  0.26351700  1
  O  O2  1  0.26351700  0.67509900  0.80661200  1
  O  O3  1  0.73648300  0.32490100  0.19338800  1
  O  O4  1  0.32490100  0.19338800  0.73648300  1
  O  O5  1  0.19338800  0.73648300  0.32490100  1
loop_
_geom_bond_atom_site_label_1
_geom_bond_atom_site_label_2
_geom_bond_distance
_geom_bond_site_symmetry_2
La0 O4 2.424650 1_565
La0 O5 2.424650 1_655
La0 O3 2.424650 1_556
La0 O0 2.752733 1_555
La0 O2 2.752734 1_555
La0 O1 2.752734 1_555
La0 O2 2.815445 1_655
La0 O0 2.815445 1_565
La0 O1 2.815446 1_556
La1 O1 2.424650 1_545
La1 O0 2.424650 1_455
La1 O2 2.424650 1_554
La1 O5 2.752733 1_555
La1 O3 2.752734 1_555
La1 O4 2.752734 1_555
La1 O3 2.815445 1_455
La1 O5 2.815445 1_545
La1 O4 2.815446 1_554
Mg0 O3 2.067142 1_455
Mg0 O2 2.067142 1_544
Mg0 O4 2.067142 1_554
Mg0 O1 2.067142 1_445
Mg0 O5 2.067142 1_545
Mg0 O0 2.067142 1_454
Ge0 O5 1.925307 1_555
Ge0 O0 1.925307 1_555
Ge0 O1 1.925307 1_555
Ge0 O4 1.925307 1_555
Ge0 O3 1.925307 1_555
Ge0 O2 1.925307 1_555
