# generated using pymatgen
data_LiV2(PO4)3
_symmetry_space_group_name_H-M   'P 1'
_cell_length_a   8.49267361
_cell_length_b   8.49267361
_cell_length_c   8.53716947
_cell_angle_alpha   60.50881197
_cell_angle_beta   60.50881197
_cell_angle_gamma   60.74128838
_symmetry_Int_Tables_number   1
_chemical_formula_structural   LiV2(PO4)3
_chemical_formula_sum   'Li2 V4 P6 O24'
_cell_volume   441.16053833
_cell_formula_units_Z   2
loop_
 _symmetry_equiv_pos_site_id
 _symmetry_equiv_pos_as_xyz
  1  'x, y, z'
loop_
 _atom_site_type_symbol
 _atom_site_label
 _atom_site_symmetry_multiplicity
 _atom_site_fract_x
 _atom_site_fract_y
 _atom_site_fract_z
 _atom_site_occupancy
  Li  Li0  1  0.00000000  0.50000000  0.00000000  1
  Li  Li1  1  0.50000000  0.00000000  0.50000000  1
  V  V0  1  0.86327000  0.36252000  0.85252800  1
  V  V1  1  0.63748000  0.13673000  0.64747200  1
  V  V2  1  0.36252000  0.86327000  0.35252800  1
  V  V3  1  0.13673000  0.63748000  0.14747200  1
  P  P0  1  0.04046800  0.95953200  0.75000000  1
  P  P1  1  0.45747300  0.25296600  0.03581100  1
  P  P2  1  0.25296600  0.45747300  0.53581100  1
  P  P3  1  0.54252700  0.74703400  0.96418900  1
  P  P4  1  0.74703400  0.54252700  0.46418900  1
  P  P5  1  0.95953200  0.04046800  0.25000000  1
  O  O0  1  0.26458000  0.41828200  0.05400000  1
  O  O1  1  0.58171800  0.73542000  0.44600000  1
  O  O2  1  0.18727100  0.48466600  0.38216600  1
  O  O3  1  0.05955800  0.76935600  0.91849300  1
  O  O4  1  0.12784500  0.00823800  0.29808200  1
  O  O5  1  0.91061700  0.55419200  0.26911100  1
  O  O6  1  0.41828200  0.26458000  0.55400000  1
  O  O7  1  0.55419200  0.91061700  0.76911100  1
  O  O8  1  0.73542000  0.58171800  0.94600000  1
  O  O9  1  0.48466600  0.18727100  0.88216600  1
  O  O10  1  0.37579500  0.68558800  0.01668100  1
  O  O11  1  0.44580800  0.08938300  0.23088900  1
  O  O12  1  0.08938300  0.44580800  0.73088900  1
  O  O13  1  0.62420500  0.31441200  0.98331900  1
  O  O14  1  0.76935600  0.05955800  0.41849300  1
  O  O15  1  0.31441200  0.62420500  0.48331900  1
  O  O16  1  0.87215500  0.99176200  0.70191800  1
  O  O17  1  0.23064400  0.94044200  0.58150700  1
  O  O18  1  0.00823800  0.12784500  0.79808200  1
  O  O19  1  0.51533400  0.81272900  0.11783400  1
  O  O20  1  0.94044200  0.23064400  0.08150700  1
  O  O21  1  0.68558800  0.37579500  0.51668100  1
  O  O22  1  0.99176200  0.87215500  0.20191800  1
  O  O23  1  0.81272900  0.51533400  0.61783400  1
loop_
_geom_bond_atom_site_label_1
_geom_bond_atom_site_label_2
_geom_bond_distance
_geom_bond_site_symmetry_2
Li0 O8 2.218939 1_454
Li0 O0 2.218939 1_555
Li0 O5 2.246945 1_455
Li0 O12 2.246945 1_554
Li0 O3 2.278203 1_554
Li0 O20 2.278203 1_455
Li1 O1 2.218939 1_545
Li1 O6 2.218939 1_555
Li1 O7 2.246945 1_545
Li1 O11 2.246945 1_555
Li1 O14 2.278203 1_555
Li1 O17 2.278203 1_545
O0 P1 1.547530 1_555
O0 V3 1.978609 1_555
O1 P4 1.547530 1_555
O1 V2 1.978609 1_555
O2 P2 1.543209 1_555
O2 V3 1.903956 1_555
O3 P0 1.546033 1_555
O3 V3 1.973213 1_556
O4 P5 1.539904 1_455
O4 V2 1.911559 1_545
O5 P4 1.551623 1_555
O5 V3 1.976721 1_655
O6 P2 1.547530 1_555
O6 V1 1.978609 1_555
O7 P3 1.551623 1_555
O7 V1 1.976721 1_565
O8 P3 1.547530 1_555
O8 V0 1.978609 1_555
O9 P1 1.543209 1_556
O9 V1 1.903956 1_555
O10 P3 1.531498 1_554
O10 V3 1.914538 1_555
O11 P1 1.551623 1_555
O11 V2 1.976721 1_545
O12 P2 1.551623 1_555
O12 V0 1.976721 1_455
O13 P1 1.531498 1_556
O13 V0 1.914538 1_555
O14 P5 1.546033 1_555
O14 V1 1.973213 1_555
O15 P2 1.531498 1_555
O15 V2 1.914538 1_555
O16 P0 1.539904 1_655
O16 V1 1.911559 1_565
O17 P0 1.546033 1_555
O17 V2 1.973213 1_555
O18 P0 1.539904 1_545
O18 V0 1.911559 1_455
O19 P3 1.543209 1_554
O19 V2 1.903956 1_555
O20 P5 1.546033 1_555
O20 V0 1.973213 1_554
O21 P4 1.531498 1_555
O21 V1 1.914538 1_555
O22 P5 1.539904 1_565
O22 V3 1.911559 1_655
O23 P4 1.543209 1_555
O23 V0 1.903956 1_555
