# generated using pymatgen
data_MoWSeS3
_symmetry_space_group_name_H-M   'P 1'
_cell_length_a   3.22202928
_cell_length_b   3.22202928
_cell_length_c   36.35350700
_cell_angle_alpha   90.00000000
_cell_angle_beta   90.00000000
_cell_angle_gamma   119.99998521
_symmetry_Int_Tables_number   1
_chemical_formula_structural   MoWSeS3
_chemical_formula_sum   'Mo2 W2 Se2 S6'
_cell_volume   326.84058196
_cell_formula_units_Z   2
loop_
 _symmetry_equiv_pos_site_id
 _symmetry_equiv_pos_as_xyz
  1  'x, y, z'
loop_
 _atom_site_type_symbol
 _atom_site_label
 _atom_site_symmetry_multiplicity
 _atom_site_fract_x
 _atom_site_fract_y
 _atom_site_fract_z
 _atom_site_occupancy
  Mo  Mo0  1  0.00000000  0.00000000  0.46963100  1
  Mo  Mo1  1  0.33333300  0.66666700  0.28177600  1
  W  W0  1  0.00000000  0.00000000  0.09390800  1
  W  W1  1  0.33333300  0.66666700  0.65756200  1
  Se  Se0  1  0.00000000  0.00000000  0.70486700  1
  Se  Se1  1  0.00000000  0.00000000  0.61027400  1
  S  S0  1  0.00000000  0.00000000  0.32449600  1
  S  S1  1  0.33333300  0.66666700  0.05101800  1
  S  S2  1  0.33333300  0.66666700  0.42693500  1
  S  S3  1  0.33333300  0.66666700  0.13681700  1
  S  S4  1  0.33333300  0.66666700  0.51236700  1
  S  S5  1  0.00000000  0.00000000  0.23909800  1
loop_
_geom_bond_atom_site_label_1
_geom_bond_atom_site_label_2
_geom_bond_distance
_geom_bond_site_symmetry_2
Mo0 S2 2.422736 1_545
Mo0 S2 2.422739 1_445
Mo0 S2 2.422739 1_555
Mo0 S4 2.423668 1_545
Mo0 S4 2.423671 1_555
Mo0 S4 2.423671 1_445
Mo1 S5 2.422317 1_565
Mo1 S5 2.422320 1_665
Mo1 S5 2.422320 1_555
Mo1 S0 2.423295 1_565
Mo1 S0 2.423298 1_665
Mo1 S0 2.423298 1_555
Se0 W1 2.533350 1_545
Se0 W1 2.533352 1_555
Se0 W1 2.533352 1_445
Se1 W1 2.532930 1_545
Se1 W1 2.532933 1_555
Se1 W1 2.532933 1_445
S1 W0 2.427261 1_565
S1 W0 2.427263 1_665
S1 W0 2.427263 1_555
S3 W0 2.427704 1_565
S3 W0 2.427707 1_665
S3 W0 2.427707 1_555
