# generated using pymatgen
data_PrUP2
_symmetry_space_group_name_H-M   'P 1'
_cell_length_a   4.07608700
_cell_length_b   4.07608700
_cell_length_c   5.75069400
_cell_angle_alpha   90.00000000
_cell_angle_beta   90.00000000
_cell_angle_gamma   90.00000000
_symmetry_Int_Tables_number   1
_chemical_formula_structural   PrUP2
_chemical_formula_sum   'Pr1 U1 P2'
_cell_volume   95.54482053
_cell_formula_units_Z   1
loop_
 _symmetry_equiv_pos_site_id
 _symmetry_equiv_pos_as_xyz
  1  'x, y, z'
loop_
 _atom_site_type_symbol
 _atom_site_label
 _atom_site_symmetry_multiplicity
 _atom_site_fract_x
 _atom_site_fract_y
 _atom_site_fract_z
 _atom_site_occupancy
  Pr  Pr0  1  0.00000000  0.00000000  0.50000000  1
  U  U0  1  0.50000000  0.50000000  0.00000000  1
  P  P0  1  0.00000000  0.00000000  0.00000000  1
  P  P1  1  0.50000000  0.50000000  0.50000000  1
loop_
_geom_bond_atom_site_label_1
_geom_bond_atom_site_label_2
_geom_bond_distance
_geom_bond_site_symmetry_2
P0 Pr0 2.875347 1_554
P0 Pr0 2.875347 1_555
P0 U0 2.882229 1_545
P0 U0 2.882229 1_455
P0 U0 2.882229 1_555
P0 U0 2.882229 1_445
P1 U0 2.875347 1_555
P1 U0 2.875347 1_556
P1 Pr0 2.882229 1_555
P1 Pr0 2.882229 1_655
P1 Pr0 2.882229 1_665
P1 Pr0 2.882229 1_565
