# generated using pymatgen
data_Tb2MnGa6
_symmetry_space_group_name_H-M   'P 1'
_cell_length_a   6.16474306
_cell_length_b   6.16474306
_cell_length_c   6.16474379
_cell_angle_alpha   59.99999609
_cell_angle_beta   59.99999609
_cell_angle_gamma   60.00000782
_symmetry_Int_Tables_number   1
_chemical_formula_structural   Tb2MnGa6
_chemical_formula_sum   'Tb2 Mn1 Ga6'
_cell_volume   165.66470653
_cell_formula_units_Z   1
loop_
 _symmetry_equiv_pos_site_id
 _symmetry_equiv_pos_as_xyz
  1  'x, y, z'
loop_
 _atom_site_type_symbol
 _atom_site_label
 _atom_site_symmetry_multiplicity
 _atom_site_fract_x
 _atom_site_fract_y
 _atom_site_fract_z
 _atom_site_occupancy
  Tb  Tb0  1  0.75000000  0.75000000  0.75000000  1
  Tb  Tb1  1  0.25000000  0.25000000  0.25000000  1
  Mn  Mn0  1  0.50000000  0.50000000  0.50000000  1
  Ga  Ga0  1  0.78299942  0.78299942  0.21700058  1
  Ga  Ga1  1  0.21700058  0.78299942  0.21700058  1
  Ga  Ga2  1  0.78299942  0.21700058  0.21700058  1
  Ga  Ga3  1  0.21700058  0.21700058  0.78299942  1
  Ga  Ga4  1  0.78299942  0.21700058  0.78299942  1
  Ga  Ga5  1  0.21700058  0.78299942  0.78299942  1
loop_
_geom_bond_atom_site_label_1
_geom_bond_atom_site_label_2
_geom_bond_distance
_geom_bond_site_symmetry_2
Ga0 Mn0 2.467263 1_555
Ga0 Ga5 2.675506 1_654
Ga0 Ga4 2.675506 1_564
Ga0 Ga1 2.675506 1_655
Ga0 Ga2 2.675506 1_565
Ga0 Tb1 3.095769 1_565
Ga0 Tb0 3.095769 1_555
Ga0 Tb0 3.095769 1_554
Ga0 Tb1 3.095769 1_655
Ga1 Mn0 2.467264 1_555
Ga1 Ga3 2.675506 1_564
Ga1 Ga5 2.675506 1_554
Ga1 Ga2 2.675506 1_465
Ga1 Tb0 3.095769 1_554
Ga1 Tb0 3.095769 1_455
Ga1 Tb1 3.095769 1_555
Ga1 Tb1 3.095769 1_565
Ga2 Mn0 2.467264 1_555
Ga2 Ga3 2.675506 1_654
Ga2 Ga4 2.675506 1_554
Ga2 Tb0 3.095769 1_554
Ga2 Tb1 3.095769 1_555
Ga2 Tb1 3.095769 1_655
Ga2 Tb0 3.095769 1_545
Ga3 Mn0 2.467263 1_555
Ga3 Ga4 2.675506 1_455
Ga3 Ga5 2.675506 1_545
Ga3 Tb0 3.095769 1_455
Ga3 Tb0 3.095769 1_545
Ga3 Tb1 3.095769 1_555
Ga3 Tb1 3.095769 1_556
Ga4 Mn0 2.467264 1_555
Ga4 Ga5 2.675506 1_645
Ga4 Tb1 3.095769 1_556
Ga4 Tb1 3.095769 1_655
Ga4 Tb0 3.095769 1_555
Ga4 Tb0 3.095769 1_545
Ga5 Mn0 2.467264 1_555
Ga5 Tb0 3.095769 1_455
Ga5 Tb1 3.095769 1_556
Ga5 Tb1 3.095769 1_565
Ga5 Tb0 3.095769 1_555
