# generated using pymatgen
data_LiTiNiF6
_symmetry_space_group_name_H-M   'P 1'
_cell_length_a   8.76178491
_cell_length_b   8.76178491
_cell_length_c   4.62577300
_cell_angle_alpha   90.00000000
_cell_angle_beta   90.00000000
_cell_angle_gamma   119.99999177
_symmetry_Int_Tables_number   1
_chemical_formula_structural   LiTiNiF6
_chemical_formula_sum   'Li3 Ti3 Ni3 F18'
_cell_volume   307.53897308
_cell_formula_units_Z   3
loop_
 _symmetry_equiv_pos_site_id
 _symmetry_equiv_pos_as_xyz
  1  'x, y, z'
loop_
 _atom_site_type_symbol
 _atom_site_label
 _atom_site_symmetry_multiplicity
 _atom_site_fract_x
 _atom_site_fract_y
 _atom_site_fract_z
 _atom_site_occupancy
  Li  Li0  1  0.68982400  0.00000000  0.50000000  1
  Li  Li1  1  0.00000000  0.68982400  0.50000000  1
  Li  Li2  1  0.31017600  0.31017600  0.50000000  1
  Ti  Ti0  1  0.35061100  0.00000000  0.00000000  1
  Ti  Ti1  1  0.00000000  0.35061100  0.00000000  1
  Ti  Ti2  1  0.64938900  0.64938900  0.00000000  1
  Ni  Ni0  1  0.00000000  0.00000000  0.00000000  1
  Ni  Ni1  1  0.33333300  0.66666700  0.49081100  1
  Ni  Ni2  1  0.66666700  0.33333300  0.50918900  1
  F  F0  1  0.10992400  0.56671700  0.25655800  1
  F  F1  1  0.43328300  0.54320700  0.25655800  1
  F  F2  1  0.56671700  0.10992400  0.74344200  1
  F  F3  1  0.45679300  0.89007600  0.25655800  1
  F  F4  1  0.54320700  0.43328300  0.74344200  1
  F  F5  1  0.89007600  0.45679300  0.74344200  1
  F  F6  1  0.10427200  0.22704200  0.22893200  1
  F  F7  1  0.77295800  0.87723000  0.22893200  1
  F  F8  1  0.22704200  0.10427200  0.77106800  1
  F  F9  1  0.12277000  0.89572800  0.22893200  1
  F  F10  1  0.87723000  0.77295800  0.77106800  1
  F  F11  1  0.89572800  0.12277000  0.77106800  1
  F  F12  1  0.44577800  0.20455300  0.25989500  1
  F  F13  1  0.79544700  0.24122500  0.25989500  1
  F  F14  1  0.20455300  0.44577800  0.74010500  1
  F  F15  1  0.75877500  0.55422200  0.25989500  1
  F  F16  1  0.24122500  0.79544700  0.74010500  1
  F  F17  1  0.55422200  0.75877500  0.74010500  1
loop_
_geom_bond_atom_site_label_1
_geom_bond_atom_site_label_2
_geom_bond_distance
_geom_bond_site_symmetry_2
F0 Ni1 2.014582 1_555
F0 Ti1 2.024265 1_555
F0 Li1 2.097156 1_555
F1 Ni1 2.014589 1_555
F1 Ti2 2.024265 1_555
F1 Li2 2.097156 1_555
F2 Ni2 2.014582 1_555
F2 Ti0 2.024265 1_556
F2 Li0 2.097156 1_555
F3 Ni1 2.014583 1_555
F3 Ti0 2.024264 1_565
F3 Li0 2.097156 1_565
F4 Ni2 2.014589 1_555
F4 Ti2 2.024265 1_556
F4 Li2 2.097156 1_555
F5 Ni2 2.014583 1_555
F5 Ti1 2.024264 1_656
F5 Li1 2.097156 1_655
F6 Li2 2.010836 1_555
F6 Ni0 2.023855 1_555
F6 Ti1 2.029161 1_555
F7 Li0 2.010836 1_565
F7 Ni0 2.023855 1_665
F7 Ti2 2.029161 1_555
F8 Li2 2.010836 1_555
F8 Ni0 2.023855 1_556
F8 Ti0 2.029161 1_556
F9 Li1 2.010836 1_555
F9 Ni0 2.023854 1_565
F9 Ti0 2.029161 1_565
F10 Li1 2.010836 1_655
F10 Ni0 2.023855 1_666
F10 Ti2 2.029161 1_556
F11 Li0 2.010836 1_555
F11 Ni0 2.023854 1_656
F11 Ti1 2.029161 1_656
F12 Ti0 1.964261 1_555
F12 Ni2 2.040810 1_555
F12 Li2 2.145040 1_555
F13 Ti1 1.964261 1_655
F13 Ni2 2.040804 1_555
F13 Li0 2.145040 1_555
F14 Ti1 1.964261 1_556
F14 Ni1 2.040810 1_555
F14 Li2 2.145040 1_555
F15 Ti2 1.964261 1_555
F15 Ni2 2.040811 1_555
F15 Li1 2.145040 1_655
F16 Ti0 1.964261 1_566
F16 Ni1 2.040804 1_555
F16 Li1 2.145040 1_555
F17 Ti2 1.964261 1_556
F17 Ni1 2.040811 1_555
F17 Li0 2.145040 1_565
