# generated using pymatgen
data_Th2(CoP)3
_symmetry_space_group_name_H-M   'P 1'
_cell_length_a   5.38375600
_cell_length_b   5.38375600
_cell_length_c   17.84660900
_cell_angle_alpha   90.00000000
_cell_angle_beta   90.00000000
_cell_angle_gamma   90.00000000
_symmetry_Int_Tables_number   1
_chemical_formula_structural   Th2(CoP)3
_chemical_formula_sum   'Th2 Co3 P3'
_cell_volume   517.28090416
_cell_formula_units_Z   1
loop_
 _symmetry_equiv_pos_site_id
 _symmetry_equiv_pos_as_xyz
  1  'x, y, z'
loop_
 _atom_site_type_symbol
 _atom_site_label
 _atom_site_symmetry_multiplicity
 _atom_site_fract_x
 _atom_site_fract_y
 _atom_site_fract_z
 _atom_site_occupancy
  Th  Th0  1  0.50000000  0.50000000  0.76477000  1
  Th  Th1  1  0.50000000  0.50000000  0.23523000  1
  Co  Co0  1  0.50000000  0.50000000  0.11934400  1
  Co  Co1  1  0.50000000  0.50000000  0.88065600  1
  Co  Co2  1  0.50000000  0.50000000  0.50000000  1
  P  P0  1  0.50000000  0.50000000  0.37886400  1
  P  P1  1  0.50000000  0.50000000  0.62113600  1
  P  P2  1  0.50000000  0.50000000  0.00000000  1
loop_
_geom_bond_atom_site_label_1
_geom_bond_atom_site_label_2
_geom_bond_distance
_geom_bond_site_symmetry_2
Co0 Th1 2.068172 1_555
Co0 P2 2.129886 1_555
Co1 Th0 2.068172 1_555
Co1 P2 2.129886 1_556
Co2 P0 2.161867 1_555
Co2 P1 2.161867 1_555
P0 Th1 2.563380 1_555
P1 Th0 2.563380 1_555
