# generated using pymatgen
data_Zn3In2O6
_symmetry_space_group_name_H-M   'P 1'
_cell_length_a   6.84302400
_cell_length_b   5.91996000
_cell_length_c   14.46237999
_cell_angle_alpha   82.18825234
_cell_angle_beta   90.00000000
_cell_angle_gamma   90.00000000
_symmetry_Int_Tables_number   1
_chemical_formula_structural   Zn3In2O6
_chemical_formula_sum   'Zn12 In8 O24'
_cell_volume   580.44026379
_cell_formula_units_Z   4
loop_
 _symmetry_equiv_pos_site_id
 _symmetry_equiv_pos_as_xyz
  1  'x, y, z'
loop_
 _atom_site_type_symbol
 _atom_site_label
 _atom_site_symmetry_multiplicity
 _atom_site_fract_x
 _atom_site_fract_y
 _atom_site_fract_z
 _atom_site_occupancy
  Zn  Zn0  1  0.99968000  0.13390100  0.59356400  1
  Zn  Zn1  1  0.50032000  0.13390100  0.59356400  1
  Zn  Zn2  1  0.50469900  0.26231700  0.21422000  1
  Zn  Zn3  1  0.25000000  0.23761600  0.78463400  1
  Zn  Zn4  1  0.75000000  0.64053200  0.59421100  1
  Zn  Zn5  1  0.25000000  0.35946800  0.40578900  1
  Zn  Zn6  1  0.75000000  0.76238400  0.21536600  1
  Zn  Zn7  1  0.49530100  0.73768300  0.78578000  1
  Zn  Zn8  1  0.49968000  0.86609900  0.40643600  1
  Zn  Zn9  1  0.99530100  0.26231700  0.21422000  1
  Zn  Zn10  1  0.00469900  0.73768300  0.78578000  1
  Zn  Zn11  1  0.00032000  0.86609900  0.40643600  1
  In  In0  1  0.00000000  0.00000000  0.00000000  1
  In  In1  1  0.25000000  0.63496700  0.59137600  1
  In  In2  1  0.25000000  0.75741100  0.22402900  1
  In  In3  1  0.25000000  0.49751100  0.99789600  1
  In  In4  1  0.50000000  0.00000000  0.00000000  1
  In  In5  1  0.75000000  0.50248900  0.00210400  1
  In  In6  1  0.75000000  0.24258900  0.77597100  1
  In  In7  1  0.75000000  0.36503300  0.40862400  1
  O  O0  1  0.25000000  0.58087400  0.74802200  1
  O  O1  1  0.25000000  0.69071500  0.41852200  1
  O  O2  1  0.25000000  0.80613700  0.07512200  1
  O  O3  1  0.00006400  0.69171500  0.92645100  1
  O  O4  1  0.49121500  0.07850100  0.74666000  1
  O  O5  1  0.99226900  0.81224700  0.57800000  1
  O  O6  1  0.49226900  0.18775300  0.42200000  1
  O  O7  1  0.99121500  0.92149900  0.25334000  1
  O  O8  1  0.50006400  0.30828500  0.07354900  1
  O  O9  1  0.25000000  0.18759800  0.92564300  1
  O  O10  1  0.75000000  0.59919100  0.74744200  1
  O  O11  1  0.25000000  0.29368100  0.57886100  1
  O  O12  1  0.75000000  0.70631900  0.42113900  1
  O  O13  1  0.25000000  0.40080900  0.25255800  1
  O  O14  1  0.75000000  0.81240200  0.07435700  1
  O  O15  1  0.49993600  0.69171500  0.92645100  1
  O  O16  1  0.00878500  0.07850100  0.74666000  1
  O  O17  1  0.50773100  0.81224700  0.57800000  1
  O  O18  1  0.00773100  0.18775300  0.42200000  1
  O  O19  1  0.50878500  0.92149900  0.25334000  1
  O  O20  1  0.99993600  0.30828500  0.07354900  1
  O  O21  1  0.75000000  0.19386300  0.92487800  1
  O  O22  1  0.75000000  0.30928500  0.58147800  1
  O  O23  1  0.75000000  0.41912600  0.25197800  1
loop_
_geom_bond_atom_site_label_1
_geom_bond_atom_site_label_2
_geom_bond_distance
_geom_bond_site_symmetry_2
In0 O20 2.233810 1_455
In0 O3 2.233810 1_544
In0 O9 2.234244 1_554
In0 O14 2.234244 1_445
In0 O21 2.255044 1_454
In0 O2 2.255044 1_545
In1 O5 2.047964 1_455
In1 O17 2.047964 1_555
In1 O11 2.052847 1_555
In1 O0 2.244484 1_555
In1 O1 2.476701 1_555
In2 O19 2.090748 1_555
In2 O7 2.090748 1_455
In2 O13 2.095251 1_555
In2 O2 2.133569 1_555
In3 O9 2.231389 1_555
In3 O15 2.234204 1_555
In3 O3 2.234204 1_555
In3 O8 2.246549 1_556
In3 O20 2.246549 1_456
In3 O2 2.267209 1_556
In4 O15 2.233810 1_544
In4 O8 2.233810 1_555
In4 O9 2.234244 1_554
In4 O14 2.234244 1_545
In4 O21 2.255044 1_554
In4 O2 2.255044 1_545
In5 O14 2.231389 1_555
In5 O8 2.234204 1_555
In5 O20 2.234204 1_555
In5 O15 2.246549 1_554
In5 O3 2.246549 1_654
In5 O21 2.267209 1_554
In6 O4 2.090748 1_555
In6 O16 2.090748 1_655
In6 O10 2.095251 1_555
In6 O21 2.133569 1_555
In7 O18 2.047964 1_655
In7 O6 2.047964 1_555
In7 O12 2.052847 1_555
In7 O23 2.244484 1_555
In7 O22 2.476701 1_555
O0 Zn7 2.028655 1_555
O0 Zn10 2.028655 1_555
O0 Zn3 2.029088 1_555
O1 Zn5 1.994361 1_555
O1 Zn11 1.994596 1_555
O1 Zn8 1.994596 1_555
O3 Zn10 2.015812 1_555
O4 Zn3 2.013487 1_555
O4 Zn7 2.020247 1_545
O4 Zn1 2.194636 1_555
O5 Zn4 1.942169 1_555
O5 Zn0 1.948243 1_565
O5 Zn11 2.458884 1_655
O6 Zn5 1.942169 1_555
O6 Zn8 1.948243 1_545
O6 Zn1 2.458884 1_555
O7 Zn6 2.013487 1_555
O7 Zn9 2.020247 1_565
O7 Zn11 2.194636 1_655
O8 Zn2 2.015812 1_555
O9 Zn3 2.020489 1_555
O10 Zn10 2.034925 1_655
O10 Zn7 2.034925 1_555
O10 Zn4 2.196246 1_555
O11 Zn0 1.954337 1_455
O11 Zn1 1.954337 1_555
O11 Zn5 2.480294 1_555
O12 Zn8 1.954337 1_555
O12 Zn11 1.954337 1_655
O12 Zn4 2.480294 1_555
O13 Zn2 2.034925 1_555
O13 Zn9 2.034925 1_455
O13 Zn5 2.196246 1_555
O14 Zn6 2.020489 1_555
O15 Zn7 2.015812 1_555
O16 Zn3 2.013487 1_555
O16 Zn10 2.020247 1_545
O16 Zn0 2.194636 1_455
O17 Zn4 1.942169 1_555
O17 Zn1 1.948243 1_565
O17 Zn8 2.458884 1_555
O18 Zn5 1.942169 1_555
O18 Zn11 1.948243 1_545
O18 Zn0 2.458884 1_455
O19 Zn6 2.013487 1_555
O19 Zn2 2.020247 1_565
O19 Zn8 2.194636 1_555
O20 Zn9 2.015812 1_555
O22 Zn4 1.994361 1_555
O22 Zn0 1.994596 1_555
O22 Zn1 1.994596 1_555
O23 Zn9 2.028655 1_555
O23 Zn2 2.028655 1_555
O23 Zn6 2.029088 1_555
