# generated using pymatgen
data_NaAgC2
_symmetry_space_group_name_H-M   'P 1'
_cell_length_a   3.78245600
_cell_length_b   3.78245600
_cell_length_c   5.34796700
_cell_angle_alpha   90.00000000
_cell_angle_beta   90.00000000
_cell_angle_gamma   90.00000000
_symmetry_Int_Tables_number   1
_chemical_formula_structural   NaAgC2
_chemical_formula_sum   'Na1 Ag1 C2'
_cell_volume   76.51322157
_cell_formula_units_Z   1
loop_
 _symmetry_equiv_pos_site_id
 _symmetry_equiv_pos_as_xyz
  1  'x, y, z'
loop_
 _atom_site_type_symbol
 _atom_site_label
 _atom_site_symmetry_multiplicity
 _atom_site_fract_x
 _atom_site_fract_y
 _atom_site_fract_z
 _atom_site_occupancy
  Na  Na0  1  0.50000000  0.50000000  0.50000000  1
  Ag  Ag0  1  0.00000000  0.00000000  0.00000000  1
  C  C0  1  0.00000000  0.00000000  0.38332700  1
  C  C1  1  0.00000000  0.00000000  0.61667300  1
loop_
_geom_bond_atom_site_label_1
_geom_bond_atom_site_label_2
_geom_bond_distance
_geom_bond_site_symmetry_2
Ag0 C1 2.050020 1_554
Ag0 C0 2.050020 1_555
C0 C1 1.247927 1_555
C0 Na0 2.746419 1_455
C0 Na0 2.746419 1_555
C0 Na0 2.746419 1_445
C0 Na0 2.746419 1_545
C1 Na0 2.746419 1_455
C1 Na0 2.746419 1_555
C1 Na0 2.746419 1_445
C1 Na0 2.746419 1_545
