# generated using pymatgen
data_LiTl6C2(O3F)2
_symmetry_space_group_name_H-M   'P 1'
_cell_length_a   6.08939726
_cell_length_b   7.60979341
_cell_length_c   9.16268028
_cell_angle_alpha   123.63528122
_cell_angle_beta   91.30058130
_cell_angle_gamma   91.66770278
_symmetry_Int_Tables_number   1
_chemical_formula_structural   LiTl6C2(O3F)2
_chemical_formula_sum   'Li1 Tl6 C2 O6 F2'
_cell_volume   352.97091211
_cell_formula_units_Z   1
loop_
 _symmetry_equiv_pos_site_id
 _symmetry_equiv_pos_as_xyz
  1  'x, y, z'
loop_
 _atom_site_type_symbol
 _atom_site_label
 _atom_site_symmetry_multiplicity
 _atom_site_fract_x
 _atom_site_fract_y
 _atom_site_fract_z
 _atom_site_occupancy
  Li  Li0  1  0.76581000  0.82533400  0.44147200  1
  Tl  Tl0  1  0.25242400  0.64330800  0.44427100  1
  Tl  Tl1  1  0.72536100  0.00957000  0.86502000  1
  Tl  Tl2  1  0.76565200  0.32266700  0.57059300  1
  Tl  Tl3  1  0.25993200  0.03752600  0.24136500  1
  Tl  Tl4  1  0.24591000  0.23858800  0.79489000  1
  Tl  Tl5  1  0.75159400  0.67843200  0.04819800  1
  C  C0  1  0.29878600  0.64733200  0.79348100  1
  C  C1  1  0.71745900  0.38551900  0.26167900  1
  O  O0  1  0.33983900  0.66368500  0.94233000  1
  O  O1  1  0.30289700  0.81429100  0.78843400  1
  O  O2  1  0.25455700  0.46004300  0.65149900  1
  O  O3  1  0.68982400  0.39228600  0.12387900  1
  O  O4  1  0.70371500  0.20392700  0.24483100  1
  O  O5  1  0.75874900  0.55907300  0.41631300  1
  F  F0  1  0.02997100  0.95849700  0.46619200  1
  F  F1  1  0.54376900  0.90158800  0.35555300  1
loop_
_geom_bond_atom_site_label_1
_geom_bond_atom_site_label_2
_geom_bond_distance
_geom_bond_site_symmetry_2
Li0 O5 1.907218 1_555
C0 O1 1.296258 1_555
C0 O2 1.305366 1_555
C0 O0 1.316349 1_555
C1 O3 1.299254 1_555
C1 O4 1.302605 1_555
C1 O5 1.306326 1_555
O0 Tl5 2.644415 1_556
O0 Tl3 2.709853 1_566
O0 Tl4 2.762733 1_555
O1 Tl0 2.668145 1_555
O1 Tl1 2.803401 1_565
O2 Tl4 2.649483 1_555
O3 Tl1 2.561644 1_554
O3 Tl5 2.645909 1_555
O4 Tl2 2.609460 1_555
F0 Li0 1.816594 1_455
F0 Tl0 2.701107 1_555
F0 Tl4 2.808632 1_565
F1 Li0 1.813302 1_555
F1 Tl3 2.524505 1_565
F1 Tl5 2.721253 1_555
