# generated using pymatgen
data_Tl3SnI5
_symmetry_space_group_name_H-M   'P 1'
_cell_length_a   9.11141200
_cell_length_b   9.87700500
_cell_length_c   16.50127500
_cell_angle_alpha   90.00000000
_cell_angle_beta   90.00000000
_cell_angle_gamma   90.00000000
_symmetry_Int_Tables_number   1
_chemical_formula_structural   Tl3SnI5
_chemical_formula_sum   'Tl12 Sn4 I20'
_cell_volume   1485.00686270
_cell_formula_units_Z   4
loop_
 _symmetry_equiv_pos_site_id
 _symmetry_equiv_pos_as_xyz
  1  'x, y, z'
loop_
 _atom_site_type_symbol
 _atom_site_label
 _atom_site_symmetry_multiplicity
 _atom_site_fract_x
 _atom_site_fract_y
 _atom_site_fract_z
 _atom_site_occupancy
  Tl  Tl0  1  0.43859300  0.41157700  0.21347200  1
  Tl  Tl1  1  0.06140700  0.58842300  0.71347200  1
  Tl  Tl2  1  0.56140700  0.91157700  0.28652800  1
  Tl  Tl3  1  0.93859300  0.08842300  0.78652800  1
  Tl  Tl4  1  0.72505000  0.29287500  0.05283500  1
  Tl  Tl5  1  0.77495000  0.70712500  0.55283500  1
  Tl  Tl6  1  0.27495000  0.79287500  0.44716500  1
  Tl  Tl7  1  0.22505000  0.20712500  0.94716500  1
  Tl  Tl8  1  0.08489900  0.66875700  0.02481300  1
  Tl  Tl9  1  0.41510100  0.33124300  0.52481300  1
  Tl  Tl10  1  0.91510100  0.16875700  0.47518700  1
  Tl  Tl11  1  0.58489900  0.83124300  0.97518700  1
  Sn  Sn0  1  0.07728400  0.05884900  0.20208800  1
  Sn  Sn1  1  0.42271600  0.94115100  0.70208800  1
  Sn  Sn2  1  0.92271600  0.55884900  0.29791200  1
  Sn  Sn3  1  0.57728400  0.44115100  0.79791200  1
  I  I0  1  0.39806100  0.05248900  0.10997300  1
  I  I1  1  0.10193900  0.94751100  0.60997300  1
  I  I2  1  0.60193900  0.55248900  0.39002700  1
  I  I3  1  0.89806100  0.44751100  0.89002700  1
  I  I4  1  0.07563500  0.49559900  0.47721700  1
  I  I5  1  0.42436500  0.50440100  0.97721700  1
  I  I6  1  0.92436500  0.99559900  0.02278300  1
  I  I7  1  0.57563500  0.00440100  0.52278300  1
  I  I8  1  0.26243700  0.15068300  0.34967400  1
  I  I9  1  0.23756300  0.84931700  0.84967400  1
  I  I10  1  0.73756300  0.65068300  0.15032600  1
  I  I11  1  0.76243700  0.34931700  0.65032600  1
  I  I12  1  0.08588400  0.34795400  0.13401000  1
  I  I13  1  0.41411600  0.65204600  0.63401000  1
  I  I14  1  0.91411600  0.84795400  0.36599000  1
  I  I15  1  0.58588400  0.15204600  0.86599000  1
  I  I16  1  0.22460100  0.70415500  0.22594200  1
  I  I17  1  0.27539900  0.29584500  0.72594200  1
  I  I18  1  0.77539900  0.20415500  0.27405800  1
  I  I19  1  0.72460100  0.79584500  0.77405800  1
loop_
_geom_bond_atom_site_label_1
_geom_bond_atom_site_label_2
_geom_bond_distance
_geom_bond_site_symmetry_2
I0 Sn0 3.294958 1_555
I0 Tl7 3.469182 1_554
I0 Tl11 3.552483 1_544
I0 Tl2 3.555270 1_545
I1 Sn1 3.294958 1_555
I1 Tl6 3.469182 1_555
I1 Tl10 3.552483 1_465
I1 Tl3 3.555270 1_465
I2 Sn2 3.294958 1_555
I2 Tl5 3.469182 1_555
I2 Tl9 3.552483 1_555
I2 Tl0 3.555270 1_555
I3 Sn3 3.294958 1_555
I3 Tl4 3.469182 1_556
I3 Tl8 3.552483 1_656
I3 Tl1 3.555270 1_655
I4 Sn2 3.329542 1_455
I4 Tl6 3.487860 1_555
I4 Tl10 3.544290 1_455
I4 Tl9 3.580340 1_555
I5 Sn3 3.329542 1_555
I5 Tl7 3.487860 1_555
I5 Tl11 3.544290 1_555
I5 Tl8 3.580340 1_556
I6 Sn0 3.329542 1_665
I6 Tl4 3.487860 1_565
I6 Tl8 3.544290 1_655
I6 Tl11 3.580340 1_554
I7 Sn1 3.329542 1_545
I7 Tl5 3.487860 1_545
I7 Tl9 3.544290 1_555
I7 Tl10 3.580340 1_555
I8 Sn0 3.098335 1_555
I9 Sn1 3.098335 1_555
I10 Sn2 3.098335 1_555
I11 Sn3 3.098335 1_555
I12 Sn0 3.069518 1_555
I12 Tl0 3.527311 1_555
I13 Sn1 3.069518 1_555
I13 Tl1 3.527311 1_555
I14 Sn2 3.069518 1_555
I14 Tl2 3.527311 1_555
I15 Sn3 3.069518 1_555
I15 Tl3 3.527311 1_555
I16 Sn2 3.322039 1_455
I16 Tl0 3.492113 1_555
I16 Tl8 3.571759 1_555
I17 Sn3 3.322039 1_555
I17 Tl1 3.492113 1_555
I17 Tl9 3.571759 1_555
I18 Sn0 3.322039 1_655
I18 Tl2 3.492113 1_545
I18 Tl10 3.571759 1_555
I19 Sn1 3.322039 1_555
I19 Tl3 3.492113 1_565
I19 Tl11 3.571759 1_555
