# generated using pymatgen
data_Na4(WO3)5
_symmetry_space_group_name_H-M   'P 1'
_cell_length_a   8.64561615
_cell_length_b   8.64561615
_cell_length_c   6.69772811
_cell_angle_alpha   75.03519992
_cell_angle_beta   75.03519992
_cell_angle_gamma   36.87466451
_symmetry_Int_Tables_number   1
_chemical_formula_structural   Na4(WO3)5
_chemical_formula_sum   'Na4 W5 O15'
_cell_volume   289.06990877
_cell_formula_units_Z   1
loop_
 _symmetry_equiv_pos_site_id
 _symmetry_equiv_pos_as_xyz
  1  'x, y, z'
loop_
 _atom_site_type_symbol
 _atom_site_label
 _atom_site_symmetry_multiplicity
 _atom_site_fract_x
 _atom_site_fract_y
 _atom_site_fract_z
 _atom_site_occupancy
  Na  Na0  1  0.59858179  0.59858179  0.60137524  1
  Na  Na1  1  0.19866569  0.19866569  0.19938293  1
  Na  Na2  1  0.80133431  0.80133431  0.80061707  1
  Na  Na3  1  0.40141821  0.40141821  0.39862476  1
  W  W0  1  0.19892719  0.19892719  0.70224130  1
  W  W1  1  0.80107281  0.80107281  0.29775870  1
  W  W2  1  0.40129467  0.40129467  0.90013299  1
  W  W3  1  -0.00000000  -0.00000000  0.50000000  1
  W  W4  1  0.59870533  0.59870533  0.09986701  1
  O  O0  1  0.50000000  -0.00000000  0.50000000  1
  O  O1  1  0.10106942  0.59608985  0.10074404  1
  O  O2  1  0.69689996  0.20202411  0.69664748  1
  O  O3  1  0.30310004  0.79797589  0.30335252  1
  O  O4  1  0.89893058  0.40391015  0.89925596  1
  O  O5  1  0.40391015  0.89893058  0.89925596  1
  O  O6  1  -0.00000000  0.50000000  0.50000000  1
  O  O7  1  0.59608985  0.10106942  0.10074404  1
  O  O8  1  0.20202411  0.69689996  0.69664748  1
  O  O9  1  0.79797589  0.30310004  0.30335252  1
  O  O10  1  0.29988840  0.29988840  0.80000800  1
  O  O11  1  0.89906320  0.89906320  0.40308466  1
  O  O12  1  0.50000000  0.50000000  0.00000000  1
  O  O13  1  0.10093680  0.10093680  0.59691534  1
  O  O14  1  0.70011160  0.70011160  0.19999200  1
loop_
_geom_bond_atom_site_label_1
_geom_bond_atom_site_label_2
_geom_bond_distance
_geom_bond_site_symmetry_2
Na0 O3 2.700521 1_555
Na0 O9 2.700521 1_555
Na0 O2 2.715129 1_555
Na0 O8 2.715129 1_555
Na0 O12 2.718984 1_556
Na0 O13 2.734646 1_565
Na0 O13 2.734646 1_655
Na0 O5 2.739574 1_555
Na0 O4 2.739574 1_555
Na0 O14 2.750195 1_555
Na0 O0 2.753431 1_565
Na0 O6 2.753431 1_655
Na1 O13 2.708418 1_555
Na1 O9 2.715794 1_455
Na1 O3 2.715794 1_545
Na1 O4 2.719567 1_454
Na1 O5 2.719567 1_544
Na1 O7 2.726073 1_555
Na1 O1 2.726073 1_555
Na1 O14 2.734441 1_545
Na1 O14 2.734441 1_455
Na1 O10 2.737555 1_554
Na1 O0 2.748674 1_555
Na1 O6 2.748674 1_555
Na2 O11 2.708418 1_555
Na2 O8 2.715794 1_655
Na2 O2 2.715794 1_565
Na2 O7 2.719567 1_566
Na2 O1 2.719567 1_656
Na2 O4 2.726073 1_555
Na2 O5 2.726073 1_555
Na2 O10 2.734441 1_655
Na2 O10 2.734441 1_565
Na2 O14 2.737555 1_556
Na2 O0 2.748674 1_565
Na2 O6 2.748674 1_655
Na3 O2 2.700521 1_555
Na3 O8 2.700521 1_555
Na3 O3 2.715129 1_555
Na3 O9 2.715129 1_555
Na3 O12 2.718984 1_555
Na3 O11 2.734646 1_455
Na3 O11 2.734646 1_545
Na3 O7 2.739574 1_555
Na3 O1 2.739574 1_555
Na3 O10 2.750195 1_555
Na3 O0 2.753431 1_555
Na3 O6 2.753431 1_555
O0 W0 1.946290 1_555
O0 W1 1.946290 1_545
O1 W1 1.922302 1_455
O1 W2 1.937183 1_554
O2 W2 1.930428 1_555
O2 W3 1.932670 1_655
O3 W4 1.930428 1_555
O3 W3 1.932670 1_565
O4 W0 1.922302 1_655
O4 W4 1.937183 1_556
O5 W0 1.922302 1_565
O5 W4 1.937183 1_556
O6 W0 1.946290 1_555
O6 W1 1.946290 1_455
O7 W1 1.922302 1_545
O7 W2 1.937183 1_554
O8 W2 1.930428 1_555
O8 W3 1.932670 1_565
O9 W4 1.930428 1_555
O9 W3 1.932670 1_655
O10 W0 1.939572 1_555
O10 W2 1.955509 1_555
O11 W1 1.923201 1_555
O11 W3 1.935949 1_665
O12 W2 1.912739 1_554
O12 W4 1.912739 1_555
O13 W0 1.923201 1_555
O13 W3 1.935949 1_555
O14 W1 1.939572 1_555
O14 W4 1.955509 1_555
