# generated using pymatgen
data_SrU2Se5
_symmetry_space_group_name_H-M   'P 1'
_cell_length_a   7.74248000
_cell_length_b   8.21560400
_cell_length_c   12.86298200
_cell_angle_alpha   90.00000000
_cell_angle_beta   90.00000000
_cell_angle_gamma   90.00000000
_symmetry_Int_Tables_number   1
_chemical_formula_structural   SrU2Se5
_chemical_formula_sum   'Sr4 U8 Se20'
_cell_volume   818.20334709
_cell_formula_units_Z   4
loop_
 _symmetry_equiv_pos_site_id
 _symmetry_equiv_pos_as_xyz
  1  'x, y, z'
loop_
 _atom_site_type_symbol
 _atom_site_label
 _atom_site_symmetry_multiplicity
 _atom_site_fract_x
 _atom_site_fract_y
 _atom_site_fract_z
 _atom_site_occupancy
  Sr  Sr0  1  0.41915600  0.75000000  0.00620300  1
  Sr  Sr1  1  0.08084400  0.75000000  0.50620300  1
  Sr  Sr2  1  0.58084400  0.25000000  0.99379700  1
  Sr  Sr3  1  0.91915600  0.25000000  0.49379700  1
  U  U0  1  0.98804900  0.99948400  0.18201100  1
  U  U1  1  0.51195100  0.50051600  0.68201100  1
  U  U2  1  0.01195100  0.49948400  0.81798900  1
  U  U3  1  0.48804900  0.00051600  0.31798900  1
  U  U4  1  0.01195100  0.00051600  0.81798900  1
  U  U5  1  0.48804900  0.49948400  0.31798900  1
  U  U6  1  0.98804900  0.50051600  0.18201100  1
  U  U7  1  0.51195100  0.99948400  0.68201100  1
  Se  Se0  1  0.66925700  0.54837900  0.88053800  1
  Se  Se1  1  0.83074300  0.95162100  0.38053800  1
  Se  Se2  1  0.33074300  0.04837900  0.11946200  1
  Se  Se3  1  0.16925700  0.45162100  0.61946200  1
  Se  Se4  1  0.33074300  0.45162100  0.11946200  1
  Se  Se5  1  0.16925700  0.04837900  0.61946200  1
  Se  Se6  1  0.66925700  0.95162100  0.88053800  1
  Se  Se7  1  0.83074300  0.54837900  0.38053800  1
  Se  Se8  1  0.67801100  0.75000000  0.18514300  1
  Se  Se9  1  0.82198900  0.75000000  0.68514300  1
  Se  Se10  1  0.32198900  0.25000000  0.81485700  1
  Se  Se11  1  0.17801100  0.25000000  0.31485700  1
  Se  Se12  1  0.01939200  0.75000000  0.00149400  1
  Se  Se13  1  0.48060800  0.75000000  0.50149400  1
  Se  Se14  1  0.98060800  0.25000000  0.99850600  1
  Se  Se15  1  0.51939200  0.25000000  0.49850600  1
  Se  Se16  1  0.29129400  0.75000000  0.78288100  1
  Se  Se17  1  0.20870600  0.75000000  0.28288100  1
  Se  Se18  1  0.70870600  0.25000000  0.21711900  1
  Se  Se19  1  0.79129400  0.25000000  0.71711900  1
loop_
_geom_bond_atom_site_label_1
_geom_bond_atom_site_label_2
_geom_bond_distance
_geom_bond_site_symmetry_2
Se0 U2 2.801553 1_655
Se0 U1 2.856418 1_555
Se0 Sr2 2.932607 1_555
Se0 Sr0 3.017661 1_556
Se1 U3 2.801553 1_565
Se1 U0 2.856418 1_555
Se1 Sr3 2.932607 1_565
Se1 Sr1 3.017661 1_655
Se2 U0 2.801553 1_445
Se2 U3 2.856418 1_555
Se2 Sr0 2.932607 1_545
Se2 Sr2 3.017661 1_554
Se3 U1 2.801553 1_555
Se3 U2 2.856418 1_555
Se3 Sr1 2.932607 1_555
Se3 Sr3 3.017661 1_455
Se4 U6 2.801553 1_455
Se4 U5 2.856418 1_555
Se4 Sr0 2.932607 1_555
Se4 Sr2 3.017661 1_554
Se5 U7 2.801553 1_545
Se5 U4 2.856418 1_555
Se5 Sr1 2.932607 1_545
Se5 Sr3 3.017661 1_455
Se6 U4 2.801553 1_665
Se6 U7 2.856418 1_555
Se6 Sr2 2.932607 1_565
Se6 Sr0 3.017661 1_556
Se7 U5 2.801553 1_555
Se7 U6 2.856418 1_555
Se7 Sr3 2.932607 1_555
Se7 Sr1 3.017661 1_655
Se8 Sr0 3.051978 1_555
Se8 U3 3.052722 1_565
Se8 U5 3.052722 1_555
Se8 U0 3.156732 1_555
Se8 U6 3.156732 1_555
Se9 Sr1 3.051978 1_655
Se9 U4 3.052722 1_665
Se9 U2 3.052722 1_655
Se9 U7 3.156732 1_555
Se9 U1 3.156732 1_555
Se10 Sr2 3.051978 1_555
Se10 U1 3.052722 1_555
Se10 U7 3.052722 1_545
Se10 U4 3.156732 1_555
Se10 U2 3.156732 1_555
Se11 Sr3 3.051978 1_455
Se11 U6 3.052722 1_455
Se11 U0 3.052722 1_445
Se11 U5 3.156732 1_555
Se11 U3 3.156732 1_555
Se12 Sr0 3.095757 1_555
Se12 U0 3.106707 1_455
Se12 U6 3.106707 1_455
Se12 U4 3.132228 1_564
Se12 U2 3.132228 1_554
Se13 Sr1 3.095757 1_555
Se13 U7 3.106707 1_555
Se13 U1 3.106707 1_555
Se13 U3 3.132228 1_565
Se13 U5 3.132228 1_555
Se14 Sr2 3.095757 1_555
Se14 U2 3.106707 1_655
Se14 U4 3.106707 1_655
Se14 U6 3.132228 1_556
Se14 U0 3.132228 1_546
Se15 Sr3 3.095757 1_555
Se15 U5 3.106707 1_555
Se15 U3 3.106707 1_555
Se15 U1 3.132228 1_555
Se15 U7 3.132228 1_545
Se16 U7 2.967041 1_555
Se16 U1 2.967041 1_555
Se16 U4 3.019539 1_565
Se16 U2 3.019539 1_555
Se16 Sr0 3.038387 1_556
Se17 U0 2.967041 1_455
Se17 U6 2.967041 1_455
Se17 U3 3.019539 1_565
Se17 U5 3.019539 1_555
Se17 Sr1 3.038387 1_555
Se18 U5 2.967041 1_555
Se18 U3 2.967041 1_555
Se18 U6 3.019539 1_555
Se18 U0 3.019539 1_545
Se18 Sr2 3.038387 1_554
Se19 U4 2.967041 1_655
Se19 U2 2.967041 1_655
Se19 U1 3.019539 1_555
Se19 U7 3.019539 1_545
Se19 Sr3 3.038387 1_555
