# generated using pymatgen
data_BaEuDySnO6
_symmetry_space_group_name_H-M   'P 1'
_cell_length_a   8.46515510
_cell_length_b   8.41807848
_cell_length_c   8.47012445
_cell_angle_alpha   90.00000000
_cell_angle_beta   90.00000000
_cell_angle_gamma   90.00000000
_symmetry_Int_Tables_number   1
_chemical_formula_structural   BaEuDySnO6
_chemical_formula_sum   'Ba4 Eu4 Dy4 Sn4 O24'
_cell_volume   603.58394796
_cell_formula_units_Z   4
loop_
 _symmetry_equiv_pos_site_id
 _symmetry_equiv_pos_as_xyz
  1  'x, y, z'
loop_
 _atom_site_type_symbol
 _atom_site_label
 _atom_site_symmetry_multiplicity
 _atom_site_fract_x
 _atom_site_fract_y
 _atom_site_fract_z
 _atom_site_occupancy
  Ba  Ba0  1  -0.00000000  0.00000000  0.00000000  1
  Ba  Ba1  1  0.50000000  0.50000000  0.50000000  1
  Ba  Ba2  1  0.50000000  0.00000000  0.50000000  1
  Ba  Ba3  1  -0.00000000  0.50000000  0.00000000  1
  Eu  Eu0  1  -0.00000000  0.50000000  0.50000000  1
  Eu  Eu1  1  0.50000000  0.50000000  0.00000000  1
  Eu  Eu2  1  0.50000000  0.00000000  0.00000000  1
  Eu  Eu3  1  0.00000000  0.00000000  0.50000000  1
  Dy  Dy0  1  0.75000000  0.75000000  0.75000000  1
  Dy  Dy1  1  0.25000000  0.25000000  0.75000000  1
  Dy  Dy2  1  0.25000000  0.75000000  0.25000000  1
  Dy  Dy3  1  0.75000000  0.25000000  0.25000000  1
  Sn  Sn0  1  0.25000000  0.25000000  0.25000000  1
  Sn  Sn1  1  0.75000000  0.75000000  0.25000000  1
  Sn  Sn2  1  0.75000000  0.25000000  0.75000000  1
  Sn  Sn3  1  0.25000000  0.75000000  0.75000000  1
  O  O0  1  0.00906928  0.18990468  0.28132240  1
  O  O1  1  0.99093072  0.81009532  0.28132240  1
  O  O2  1  0.99093072  0.18990468  0.71867760  1
  O  O3  1  0.00906928  0.81009532  0.71867760  1
  O  O4  1  0.30816011  0.00946389  0.20636037  1
  O  O5  1  0.30816011  0.99053611  0.79363963  1
  O  O6  1  0.69183989  0.99053611  0.20636037  1
  O  O7  1  0.69183989  0.00946389  0.79363963  1
  O  O8  1  0.23152917  0.28322863  0.00892143  1
  O  O9  1  0.76847083  0.28322863  0.99107857  1
  O  O10  1  0.23152917  0.71677137  0.99107857  1
  O  O11  1  0.76847083  0.71677137  0.00892143  1
  O  O12  1  0.49093072  0.31009532  0.21867760  1
  O  O13  1  0.50906928  0.68990468  0.21867760  1
  O  O14  1  0.50906928  0.31009532  0.78132240  1
  O  O15  1  0.49093072  0.68990468  0.78132240  1
  O  O16  1  0.19183989  0.49053611  0.29363963  1
  O  O17  1  0.19183989  0.50946389  0.70636037  1
  O  O18  1  0.80816011  0.50946389  0.29363963  1
  O  O19  1  0.80816011  0.49053611  0.70636037  1
  O  O20  1  0.26847083  0.21677137  0.49107857  1
  O  O21  1  0.73152917  0.21677137  0.50892143  1
  O  O22  1  0.26847083  0.78322863  0.50892143  1
  O  O23  1  0.73152917  0.78322863  0.49107857  1
loop_
_geom_bond_atom_site_label_1
_geom_bond_atom_site_label_2
_geom_bond_distance
_geom_bond_site_symmetry_2
Ba0 O0 2.870440 1_555
Ba0 O2 2.870440 1_454
Ba0 O3 2.870440 1_544
Ba0 O1 2.870440 1_445
Ba0 O8 3.087336 1_555
Ba0 O9 3.087336 1_454
Ba0 O11 3.087336 1_445
Ba0 O10 3.087336 1_544
Ba0 O4 3.141084 1_555
Ba0 O5 3.141084 1_544
Ba0 O7 3.141084 1_454
Ba0 O6 3.141084 1_445
Ba1 O14 2.870440 1_555
Ba1 O12 2.870440 1_555
Ba1 O13 2.870440 1_555
Ba1 O15 2.870440 1_555
Ba1 O21 3.087336 1_555
Ba1 O23 3.087336 1_555
Ba1 O22 3.087336 1_555
Ba1 O20 3.087336 1_555
Ba1 O18 3.141084 1_555
Ba1 O16 3.141084 1_555
Ba1 O19 3.141084 1_555
Ba1 O17 3.141084 1_555
Ba2 O21 2.678979 1_555
Ba2 O23 2.678979 1_545
Ba2 O20 2.678979 1_555
Ba2 O22 2.678979 1_545
Ba2 O6 2.971458 1_545
Ba2 O7 2.971458 1_555
Ba2 O5 2.971458 1_545
Ba2 O4 2.971458 1_555
Ba3 O10 2.678979 1_554
Ba3 O11 2.678979 1_455
Ba3 O8 2.678979 1_555
Ba3 O9 2.678979 1_454
Ba3 O18 2.971458 1_455
Ba3 O19 2.971458 1_454
Ba3 O16 2.971458 1_555
Ba3 O17 2.971458 1_554
Eu0 O19 2.387200 1_455
Eu0 O17 2.387200 1_555
Eu0 O16 2.387200 1_555
Eu0 O18 2.387200 1_455
Eu1 O14 2.447910 1_554
Eu1 O12 2.447910 1_555
Eu1 O15 2.447910 1_554
Eu1 O13 2.447910 1_555
Eu1 O10 2.915566 1_554
Eu1 O8 2.915566 1_555
Eu1 O11 2.915566 1_555
Eu1 O9 2.915566 1_554
Eu2 O6 2.387200 1_545
Eu2 O4 2.387200 1_555
Eu2 O7 2.387200 1_554
Eu2 O5 2.387200 1_544
Eu3 O2 2.447910 1_455
Eu3 O1 2.447910 1_445
Eu3 O0 2.447910 1_555
Eu3 O3 2.447910 1_545
Eu3 O20 2.915566 1_555
Eu3 O21 2.915566 1_455
Eu3 O22 2.915566 1_545
Eu3 O23 2.915566 1_445
Dy0 O11 2.216386 1_556
Dy0 O23 2.216386 1_555
Dy0 O15 2.266236 1_555
Dy0 O3 2.266236 1_655
Dy0 O7 2.269294 1_565
Dy0 O19 2.269294 1_555
Dy1 O20 2.216386 1_555
Dy1 O8 2.216386 1_556
Dy1 O2 2.266236 1_455
Dy1 O14 2.266236 1_555
Dy1 O5 2.269294 1_545
Dy1 O17 2.269294 1_555
Dy2 O22 2.216386 1_555
Dy2 O10 2.216386 1_554
Dy2 O1 2.266236 1_455
Dy2 O13 2.266236 1_555
Dy2 O4 2.269294 1_565
Dy2 O16 2.269294 1_555
Dy3 O21 2.216386 1_555
Dy3 O9 2.216386 1_554
Dy3 O12 2.266236 1_555
Dy3 O0 2.266236 1_655
Dy3 O18 2.269294 1_555
Dy3 O6 2.269294 1_545
O0 Sn0 2.118002 1_555
O1 Sn1 2.118002 1_555
O2 Sn2 2.118002 1_555
O3 Sn3 2.118002 1_555
O4 Sn0 2.116376 1_555
O5 Sn3 2.116376 1_555
O6 Sn1 2.116376 1_555
O7 Sn2 2.116376 1_555
O8 Sn0 2.066958 1_555
O9 Sn2 2.066958 1_555
O10 Sn3 2.066958 1_555
O11 Sn1 2.066958 1_555
O12 Sn0 2.118002 1_555
O13 Sn1 2.118002 1_555
O14 Sn2 2.118002 1_555
O15 Sn3 2.118002 1_555
O16 Sn0 2.116376 1_555
O17 Sn3 2.116376 1_555
O18 Sn1 2.116376 1_555
O19 Sn2 2.116376 1_555
O20 Sn0 2.066958 1_555
O21 Sn2 2.066958 1_555
O22 Sn3 2.066958 1_555
O23 Sn1 2.066958 1_555
