# generated using pymatgen
data_BaMg14Ga
_symmetry_space_group_name_H-M   'P 1'
_cell_length_a   6.64754026
_cell_length_b   6.50487248
_cell_length_c   10.46803027
_cell_angle_alpha   90.00000000
_cell_angle_beta   90.00000000
_cell_angle_gamma   119.29256061
_symmetry_Int_Tables_number   1
_chemical_formula_structural   BaMg14Ga
_chemical_formula_sum   'Ba1 Mg14 Ga1'
_cell_volume   394.77292308
_cell_formula_units_Z   1
loop_
 _symmetry_equiv_pos_site_id
 _symmetry_equiv_pos_as_xyz
  1  'x, y, z'
loop_
 _atom_site_type_symbol
 _atom_site_label
 _atom_site_symmetry_multiplicity
 _atom_site_fract_x
 _atom_site_fract_y
 _atom_site_fract_z
 _atom_site_occupancy
  Ba  Ba0  1  0.14814524  0.32407212  0.12500000  1
  Mg  Mg0  1  0.16808052  0.33403976  0.62500000  1
  Mg  Mg1  1  0.15916331  0.82958116  0.62500000  1
  Mg  Mg2  1  0.64324030  0.31270356  0.12500000  1
  Mg  Mg3  1  0.66759913  0.34064910  0.62500000  1
  Mg  Mg4  1  0.64324030  0.83053574  0.12500000  1
  Mg  Mg5  1  0.66759913  0.82694903  0.62500000  1
  Mg  Mg6  1  0.33861007  0.16054262  0.38802543  1
  Mg  Mg7  1  0.33861007  0.16054262  0.86197457  1
  Mg  Mg8  1  0.33861007  0.67806845  0.38802543  1
  Mg  Mg9  1  0.33861007  0.67806845  0.86197457  1
  Mg  Mg10  1  0.82072290  0.16036195  0.39311920  1
  Mg  Mg11  1  0.82072290  0.16036195  0.85688080  1
  Mg  Mg12  1  0.84458403  0.67229251  0.35860871  1
  Mg  Mg13  1  0.84458403  0.67229251  0.89139129  1
  Ga  Ga0  1  0.21787795  0.85893847  0.12500000  1
loop_
_geom_bond_atom_site_label_1
_geom_bond_atom_site_label_2
_geom_bond_distance
_geom_bond_site_symmetry_2
Ba0 Ga0 3.277466 1_555
Ba0 Ga0 3.277466 1_545
Ba0 Mg4 3.320820 1_445
Ba0 Mg2 3.320820 1_455
Ba0 Mg4 3.327971 1_555
Ba0 Mg2 3.327971 1_555
Ba0 Mg11 3.388330 1_454
Ba0 Mg10 3.388330 1_455
Ba0 Mg6 3.410793 1_555
Ba0 Mg7 3.410793 1_554
Ba0 Mg9 3.410799 1_554
Ba0 Mg8 3.410799 1_555
Mg0 Mg10 3.153954 1_455
Mg0 Mg11 3.153954 1_455
Mg0 Mg7 3.156628 1_555
Mg0 Mg6 3.156628 1_555
Mg0 Mg8 3.156634 1_555
Mg0 Mg9 3.156634 1_555
Mg0 Mg1 3.252847 1_545
Mg0 Mg1 3.252847 1_555
Mg0 Mg5 3.299748 1_555
Mg0 Mg3 3.299748 1_555
Mg0 Mg5 3.348215 1_445
Mg0 Mg3 3.348215 1_455
Mg1 Mg8 3.114226 1_555
Mg1 Mg9 3.114226 1_555
Mg1 Mg6 3.114233 1_565
Mg1 Mg7 3.114233 1_565
Mg1 Mg3 3.259350 1_455
Mg1 Mg5 3.259350 1_455
Mg1 Mg13 3.332032 1_455
Mg1 Mg12 3.332032 1_455
Mg1 Mg3 3.388257 1_565
Mg1 Mg5 3.388258 1_555
Mg2 Mg4 3.136440 1_545
Mg2 Mg7 3.271102 1_554
Mg2 Mg6 3.271102 1_555
Mg2 Mg4 3.368432 1_555
Mg3 Mg6 3.130793 1_555
Mg3 Mg7 3.130793 1_555
Mg3 Mg5 3.163319 1_555
Mg3 Mg5 3.341553 1_545
Mg4 Mg8 3.271102 1_555
Mg4 Mg9 3.271102 1_554
Mg5 Mg8 3.130794 1_555
Mg5 Mg9 3.130794 1_555
Mg6 Mg8 3.138433 1_545
Mg6 Mg8 3.366440 1_555
Mg7 Mg9 3.138433 1_545
Mg7 Mg9 3.366440 1_555
Mg10 Mg3 3.077582 1_555
Mg10 Mg5 3.077589 1_545
Mg10 Mg8 3.205883 1_545
Mg10 Mg6 3.205883 1_555
Mg10 Mg12 3.275360 1_555
Mg10 Mg12 3.275360 1_545
Mg10 Mg2 3.375724 1_555
Mg10 Mg4 3.375729 1_545
Mg10 Mg8 3.442514 1_655
Mg10 Mg6 3.442514 1_655
Mg11 Mg3 3.077582 1_555
Mg11 Mg5 3.077589 1_545
Mg11 Mg9 3.205883 1_545
Mg11 Mg7 3.205883 1_555
Mg11 Mg13 3.275360 1_555
Mg11 Mg13 3.275360 1_545
Mg11 Mg2 3.375724 1_556
Mg11 Mg4 3.375729 1_546
Mg11 Mg9 3.442514 1_655
Mg11 Mg7 3.442514 1_655
Mg12 Mg4 3.190492 1_555
Mg12 Mg2 3.190499 1_555
Mg12 Mg6 3.280325 1_665
Mg12 Mg8 3.280325 1_655
Mg12 Mg5 3.366111 1_555
Mg12 Mg3 3.366117 1_555
Mg12 Mg6 3.396013 1_555
Mg12 Mg8 3.396014 1_555
Mg13 Mg4 3.190492 1_556
Mg13 Mg2 3.190499 1_556
Mg13 Mg7 3.280325 1_665
Mg13 Mg9 3.280325 1_655
Mg13 Mg5 3.366111 1_555
Mg13 Mg3 3.366117 1_555
Mg13 Mg7 3.396013 1_555
Mg13 Mg9 3.396014 1_555
Ga0 Mg2 2.922454 1_565
Ga0 Mg4 2.922454 1_555
Ga0 Mg8 3.245509 1_555
Ga0 Mg9 3.245509 1_554
Ga0 Mg7 3.245515 1_564
Ga0 Mg6 3.245515 1_565
Ga0 Mg12 3.265546 1_455
Ga0 Mg13 3.265546 1_454
