# generated using pymatgen
data_NaMn2(SO4)2
_symmetry_space_group_name_H-M   'P 1'
_cell_length_a   6.39306428
_cell_length_b   7.82679428
_cell_length_c   8.86501403
_cell_angle_alpha   99.48838731
_cell_angle_beta   110.40505230
_cell_angle_gamma   112.45957952
_symmetry_Int_Tables_number   1
_chemical_formula_structural   NaMn2(SO4)2
_chemical_formula_sum   'Na2 Mn4 S4 O16'
_cell_volume   360.74917728
_cell_formula_units_Z   2
loop_
 _symmetry_equiv_pos_site_id
 _symmetry_equiv_pos_as_xyz
  1  'x, y, z'
loop_
 _atom_site_type_symbol
 _atom_site_label
 _atom_site_symmetry_multiplicity
 _atom_site_fract_x
 _atom_site_fract_y
 _atom_site_fract_z
 _atom_site_occupancy
  Na  Na0  1  0.56630600  0.20148300  0.90331700  1
  Na  Na1  1  0.43369400  0.79851700  0.09668300  1
  Mn  Mn0  1  0.00000000  0.00000000  0.50000000  1
  Mn  Mn1  1  0.50000000  0.00000000  0.50000000  1
  Mn  Mn2  1  0.21561500  0.19865400  0.22502200  1
  Mn  Mn3  1  0.78438500  0.80134600  0.77497800  1
  S  S0  1  0.04783200  0.27861700  0.83399200  1
  S  S1  1  0.95216800  0.72138300  0.16600800  1
  S  S2  1  0.24005600  0.73825700  0.70721400  1
  S  S3  1  0.75994400  0.26174300  0.29278600  1
  O  O0  1  0.16919200  0.24243000  0.71829300  1
  O  O1  1  0.83080800  0.75757000  0.28170700  1
  O  O2  1  0.22214600  0.75830500  0.27881900  1
  O  O3  1  0.77785400  0.24169500  0.72118100  1
  O  O4  1  0.01347000  0.11660700  0.91639500  1
  O  O5  1  0.98653000  0.88339300  0.08360500  1
  O  O6  1  0.26437900  0.90599800  0.62608300  1
  O  O7  1  0.73562100  0.09400200  0.37391700  1
  O  O8  1  0.48118500  0.16934100  0.15285200  1
  O  O9  1  0.51881500  0.83065900  0.84714800  1
  O  O10  1  0.88687200  0.22860900  0.18157500  1
  O  O11  1  0.11312800  0.77139100  0.81842500  1
  O  O12  1  0.27464700  0.12435000  0.42975100  1
  O  O13  1  0.72535300  0.87565000  0.57024900  1
  O  O14  1  0.37763000  0.44110600  0.26947800  1
  O  O15  1  0.62237000  0.55889400  0.73052200  1
loop_
_geom_bond_atom_site_label_1
_geom_bond_atom_site_label_2
_geom_bond_distance
_geom_bond_site_symmetry_2
Na0 O3 2.429040 1_555
Na0 O8 2.484200 1_556
Na0 O10 2.509929 1_556
Na0 O6 2.553793 1_545
Na0 O0 2.670154 1_555
Na0 O9 2.740192 1_545
Na1 O2 2.429040 1_555
Na1 O9 2.484200 1_554
Na1 O11 2.509929 1_554
Na1 O7 2.553793 1_565
Na1 O1 2.670154 1_555
Na1 O8 2.740192 1_565
Mn0 O12 2.018574 1_555
Mn0 O13 2.018574 1_445
Mn0 O1 2.068048 1_445
Mn0 O0 2.068048 1_555
Mn0 O6 2.133376 1_545
Mn0 O7 2.133376 1_455
Mn1 O13 2.014007 1_545
Mn1 O12 2.014007 1_555
Mn1 O3 2.087923 1_555
Mn1 O2 2.087923 1_545
Mn1 O7 2.158255 1_555
Mn1 O6 2.158255 1_545
Mn2 O14 1.672164 1_555
Mn2 O12 1.952605 1_555
Mn2 O8 2.085948 1_555
Mn2 O10 2.112381 1_455
Mn2 O5 2.178014 1_445
Mn2 O4 2.426768 1_554
Mn3 O15 1.672164 1_555
Mn3 O13 1.952605 1_555
Mn3 O9 2.085948 1_555
Mn3 O11 2.112381 1_655
Mn3 O4 2.178014 1_665
Mn3 O5 2.426768 1_556
O0 S0 1.536625 1_555
O1 S1 1.536625 1_555
O2 S1 1.543590 1_455
O3 S0 1.543590 1_655
O4 S0 1.547329 1_555
O5 S1 1.547329 1_555
O6 S2 1.580641 1_555
O7 S3 1.580641 1_555
O8 S3 1.554268 1_555
O9 S2 1.554268 1_555
O10 S3 1.527101 1_555
O11 S2 1.527101 1_555
