# generated using pymatgen
data_LiSm2SO2
_symmetry_space_group_name_H-M   'P 1'
_cell_length_a   4.00667400
_cell_length_b   4.00667359
_cell_length_c   7.33910400
_cell_angle_alpha   90.00000000
_cell_angle_beta   90.00000000
_cell_angle_gamma   120.00000335
_symmetry_Int_Tables_number   1
_chemical_formula_structural   LiSm2SO2
_chemical_formula_sum   'Li1 Sm2 S1 O2'
_cell_volume   102.03322897
_cell_formula_units_Z   1
loop_
 _symmetry_equiv_pos_site_id
 _symmetry_equiv_pos_as_xyz
  1  'x, y, z'
loop_
 _atom_site_type_symbol
 _atom_site_label
 _atom_site_symmetry_multiplicity
 _atom_site_fract_x
 _atom_site_fract_y
 _atom_site_fract_z
 _atom_site_occupancy
  Li  Li0  1  0.33333300  0.66666700  0.91682300  1
  Sm  Sm0  1  0.33333300  0.66666700  0.32048400  1
  Sm  Sm1  1  0.66666700  0.33333300  0.67485400  1
  S  S0  1  0.00000000  0.00000000  0.99617100  1
  O  O0  1  0.33333300  0.66666700  0.65238400  1
  O  O1  1  0.66666700  0.33333300  0.35928500  1
loop_
_geom_bond_atom_site_label_1
_geom_bond_atom_site_label_2
_geom_bond_distance
_geom_bond_site_symmetry_2
Li0 O0 1.940745 1_555
Li0 S0 2.385426 1_565
Li0 S0 2.385429 1_555
Li0 S0 2.385430 1_665
O0 Sm1 2.319122 1_565
O0 Sm1 2.319123 1_455
O0 Sm1 2.319130 1_555
O0 Sm0 2.435849 1_555
O1 Sm1 2.315994 1_555
O1 Sm0 2.330713 1_545
O1 Sm0 2.330713 1_655
O1 Sm0 2.330720 1_555
