# generated using pymatgen
data_CaSbPd
_symmetry_space_group_name_H-M   'P 1'
_cell_length_a   4.62274685
_cell_length_b   7.42777917
_cell_length_c   7.94210580
_cell_angle_alpha   90.00000000
_cell_angle_beta   90.00000000
_cell_angle_gamma   90.00000000
_symmetry_Int_Tables_number   1
_chemical_formula_structural   CaSbPd
_chemical_formula_sum   'Ca4 Sb4 Pd4'
_cell_volume   272.70604383
_cell_formula_units_Z   4
loop_
 _symmetry_equiv_pos_site_id
 _symmetry_equiv_pos_as_xyz
  1  'x, y, z'
loop_
 _atom_site_type_symbol
 _atom_site_label
 _atom_site_symmetry_multiplicity
 _atom_site_fract_x
 _atom_site_fract_y
 _atom_site_fract_z
 _atom_site_occupancy
  Ca  Ca0  1  0.25000000  0.49500564  0.20201280  1
  Ca  Ca1  1  0.75000000  0.50499436  0.79798720  1
  Ca  Ca2  1  0.75000000  0.00499436  0.70201280  1
  Ca  Ca3  1  0.25000000  0.99500564  0.29798720  1
  Sb  Sb0  1  0.25000000  0.80069178  0.90593803  1
  Sb  Sb1  1  0.75000000  0.19930822  0.09406197  1
  Sb  Sb2  1  0.75000000  0.69930822  0.40593803  1
  Sb  Sb3  1  0.25000000  0.30069178  0.59406197  1
  Pd  Pd0  1  0.25000000  0.68258518  0.58046696  1
  Pd  Pd1  1  0.75000000  0.31741482  0.41953304  1
  Pd  Pd2  1  0.75000000  0.81741482  0.08046696  1
  Pd  Pd3  1  0.25000000  0.18258518  0.91953304  1
loop_
_geom_bond_atom_site_label_1
_geom_bond_atom_site_label_2
_geom_bond_distance
_geom_bond_site_symmetry_2
Ca0 Pd1 3.172850 1_455
Ca0 Pd1 3.172850 1_555
Ca0 Sb2 3.204432 1_455
Ca0 Sb2 3.204432 1_555
Ca0 Pd3 3.227748 1_554
Ca0 Sb0 3.268767 1_554
Ca0 Sb1 3.301753 1_455
Ca0 Sb1 3.301753 1_555
Ca0 Pd0 3.312952 1_555
Ca0 Sb3 3.431949 1_555
Ca0 Pd2 3.465444 1_455
Ca0 Pd2 3.465444 1_555
Ca1 Pd0 3.172850 1_555
Ca1 Pd0 3.172850 1_655
Ca1 Sb3 3.204432 1_655
Ca1 Sb3 3.204432 1_555
Ca1 Pd2 3.227748 1_556
Ca1 Sb1 3.268767 1_556
Ca1 Sb0 3.301753 1_555
Ca1 Sb0 3.301753 1_655
Ca1 Pd1 3.312952 1_555
Ca1 Sb2 3.431949 1_555
Ca1 Pd3 3.465444 1_655
Ca1 Pd3 3.465444 1_555
Ca2 Pd3 3.172850 1_655
Ca2 Pd3 3.172850 1_555
Ca2 Sb0 3.204432 1_545
Ca2 Sb0 3.204432 1_645
Ca2 Pd1 3.227748 1_555
Ca2 Sb2 3.268767 1_545
Ca2 Sb3 3.301753 1_655
Ca2 Sb3 3.301753 1_555
Ca2 Pd2 3.312952 1_546
Ca2 Sb1 3.431949 1_556
Ca2 Pd0 3.465444 1_545
Ca2 Pd0 3.465444 1_645
Ca3 Pd2 3.172850 1_555
Ca3 Pd2 3.172850 1_455
Ca3 Sb1 3.204432 1_565
Ca3 Sb1 3.204432 1_465
Ca3 Pd0 3.227748 1_555
Ca3 Sb3 3.268767 1_565
Ca3 Sb2 3.301753 1_455
Ca3 Sb2 3.301753 1_555
Ca3 Pd3 3.312952 1_564
Ca3 Sb0 3.431949 1_554
Ca3 Pd1 3.465444 1_465
Ca3 Pd1 3.465444 1_565
Pd0 Sb2 2.698004 1_455
Pd0 Sb2 2.698004 1_555
Pd0 Sb0 2.729733 1_555
Pd0 Sb3 2.838674 1_555
Pd1 Sb3 2.698004 1_655
Pd1 Sb3 2.698004 1_555
Pd1 Sb1 2.729733 1_555
Pd1 Sb2 2.838674 1_555
Pd2 Sb0 2.698004 1_654
Pd2 Sb0 2.698004 1_554
Pd2 Sb2 2.729733 1_555
Pd2 Sb1 2.838674 1_565
Pd3 Sb1 2.698004 1_456
Pd3 Sb1 2.698004 1_556
Pd3 Sb3 2.729733 1_555
Pd3 Sb0 2.838674 1_545
