# generated using pymatgen
data_Y2Co17H3
_symmetry_space_group_name_H-M   'P 1'
_cell_length_a   6.29826623
_cell_length_b   6.29826623
_cell_length_c   6.29826700
_cell_angle_alpha   83.48489542
_cell_angle_beta   83.48489542
_cell_angle_gamma   83.48488062
_symmetry_Int_Tables_number   1
_chemical_formula_structural   Y2Co17H3
_chemical_formula_sum   'Y2 Co17 H3'
_cell_volume   245.34027345
_cell_formula_units_Z   1
loop_
 _symmetry_equiv_pos_site_id
 _symmetry_equiv_pos_as_xyz
  1  'x, y, z'
loop_
 _atom_site_type_symbol
 _atom_site_label
 _atom_site_symmetry_multiplicity
 _atom_site_fract_x
 _atom_site_fract_y
 _atom_site_fract_z
 _atom_site_occupancy
  Y  Y0  1  0.65622800  0.65622800  0.65622800  1
  Y  Y1  1  0.34377200  0.34377200  0.34377200  1
  Co  Co0  1  0.00000000  0.00000000  0.50000000  1
  Co  Co1  1  0.00000000  0.50000000  0.00000000  1
  Co  Co2  1  0.50000000  0.00000000  0.00000000  1
  Co  Co3  1  0.28405100  0.71594900  0.00000000  1
  Co  Co4  1  0.71594900  0.00000000  0.28405100  1
  Co  Co5  1  0.00000000  0.28405100  0.71594900  1
  Co  Co6  1  0.28405100  0.00000000  0.71594900  1
  Co  Co7  1  0.00000000  0.71594900  0.28405100  1
  Co  Co8  1  0.71594900  0.28405100  0.00000000  1
  Co  Co9  1  0.34550200  0.34550200  0.85363400  1
  Co  Co10  1  0.34550200  0.85363400  0.34550200  1
  Co  Co11  1  0.85363400  0.34550200  0.34550200  1
  Co  Co12  1  0.65449800  0.65449800  0.14636600  1
  Co  Co13  1  0.65449800  0.14636600  0.65449800  1
  Co  Co14  1  0.14636600  0.65449800  0.65449800  1
  Co  Co15  1  0.90392800  0.90392800  0.90392800  1
  Co  Co16  1  0.09607200  0.09607200  0.09607200  1
  H  H0  1  0.50000000  0.50000000  0.00000000  1
  H  H1  1  0.50000000  0.00000000  0.50000000  1
  H  H2  1  0.00000000  0.50000000  0.50000000  1
loop_
_geom_bond_atom_site_label_1
_geom_bond_atom_site_label_2
_geom_bond_distance
_geom_bond_site_symmetry_2
Co0 Co5 2.367000 1_555
Co0 Co6 2.367000 1_555
Co0 Co4 2.367000 1_455
Co0 Co7 2.367000 1_545
Co0 Co10 2.408267 1_545
Co0 Co11 2.408267 1_455
Co0 Co14 2.408267 1_545
Co0 Co13 2.408267 1_455
Co0 Co15 2.566877 1_445
Co0 Co16 2.566877 1_555
Co0 Y0 3.231254 1_445
Co0 Y1 3.231254 1_555
Co1 Co7 2.367000 1_555
Co1 Co5 2.367000 1_554
Co1 Co3 2.367000 1_555
Co1 Co8 2.367000 1_455
Co1 Co9 2.408267 1_554
Co1 Co12 2.408267 1_455
Co1 Co14 2.408267 1_554
Co1 Co11 2.408267 1_455
Co1 Co15 2.566877 1_454
Co1 Co16 2.566877 1_555
Co1 Y0 3.231254 1_454
Co1 Y1 3.231254 1_555
Co2 Co4 2.367000 1_555
Co2 Co6 2.367000 1_554
Co2 Co8 2.367000 1_555
Co2 Co3 2.367000 1_545
Co2 Co9 2.408267 1_554
Co2 Y1 3.231254 1_555
Co2 Y0 3.231254 1_544
Co3 H0 1.811069 1_555
Co4 H1 1.811070 1_555
Co5 H2 1.811070 1_555
Co6 H1 1.811070 1_555
Co7 H2 1.811070 1_555
Co8 H0 1.811069 1_555
Co9 H0 1.834540 1_556
Co10 H1 1.834540 1_565
Co10 Co2 2.408267 1_565
Co10 Co16 2.595924 1_565
Co11 H2 1.834540 1_655
Co11 Co16 2.595924 1_655
Co12 H0 1.834540 1_555
Co12 Co2 2.408267 1_565
Co12 Co15 2.595924 1_554
Co13 H1 1.834540 1_555
Co13 Co2 2.408267 1_556
Co13 Co15 2.595924 1_545
Co14 H2 1.834540 1_555
Co14 Co15 2.595924 1_455
Co15 Co16 2.321766 1_666
Co15 Co2 2.566877 1_566
Co15 Co3 2.650015 1_656
Co15 Co8 2.650015 1_566
Co15 Co4 2.650015 1_566
Co15 Co7 2.650015 1_656
Co15 Co5 2.650015 1_665
Co15 Co6 2.650015 1_665
Co15 Y0 2.993075 1_555
Co16 Co2 2.566877 1_555
Co16 Co9 2.595924 1_554
Co16 Co3 2.650015 1_545
Co16 Co8 2.650015 1_455
Co16 Co7 2.650015 1_545
Co16 Co4 2.650015 1_455
Co16 Co6 2.650015 1_554
Co16 Co5 2.650015 1_554
Co16 Y1 2.993075 1_555
H0 Y0 2.424276 1_554
H0 Y1 2.424276 1_555
H1 Y1 2.424275 1_555
H1 Y0 2.424275 1_545
H2 Y1 2.424275 1_555
H2 Y0 2.424275 1_455
