# generated using pymatgen
data_NaTbGeO4
_symmetry_space_group_name_H-M   'P 1'
_cell_length_a   5.34247500
_cell_length_b   6.54042500
_cell_length_c   11.56776600
_cell_angle_alpha   90.00000000
_cell_angle_beta   90.00000000
_cell_angle_gamma   90.00000000
_symmetry_Int_Tables_number   1
_chemical_formula_structural   NaTbGeO4
_chemical_formula_sum   'Na4 Tb4 Ge4 O16'
_cell_volume   404.20153953
_cell_formula_units_Z   4
loop_
 _symmetry_equiv_pos_site_id
 _symmetry_equiv_pos_as_xyz
  1  'x, y, z'
loop_
 _atom_site_type_symbol
 _atom_site_label
 _atom_site_symmetry_multiplicity
 _atom_site_fract_x
 _atom_site_fract_y
 _atom_site_fract_z
 _atom_site_occupancy
  Na  Na0  1  0.50000000  0.00000000  0.00000000  1
  Na  Na1  1  0.00000000  0.00000000  0.50000000  1
  Na  Na2  1  0.50000000  0.50000000  0.00000000  1
  Na  Na3  1  0.00000000  0.50000000  0.50000000  1
  Tb  Tb0  1  0.99590900  0.75000000  0.77783800  1
  Tb  Tb1  1  0.49590900  0.25000000  0.72216200  1
  Tb  Tb2  1  0.00409100  0.25000000  0.22216200  1
  Tb  Tb3  1  0.50409100  0.75000000  0.27783800  1
  Ge  Ge0  1  0.94486500  0.75000000  0.09721600  1
  Ge  Ge1  1  0.44486500  0.25000000  0.40278400  1
  Ge  Ge2  1  0.05513500  0.25000000  0.90278400  1
  Ge  Ge3  1  0.55513500  0.75000000  0.59721600  1
  O  O0  1  0.82518800  0.75000000  0.95510600  1
  O  O1  1  0.32518800  0.25000000  0.54489400  1
  O  O2  1  0.17481200  0.25000000  0.04489400  1
  O  O3  1  0.67481200  0.75000000  0.45510600  1
  O  O4  1  0.20783700  0.04307600  0.82630100  1
  O  O5  1  0.70783700  0.95692400  0.67369900  1
  O  O6  1  0.79216300  0.54307600  0.17369900  1
  O  O7  1  0.29216300  0.45692400  0.32630100  1
  O  O8  1  0.79216300  0.95692400  0.17369900  1
  O  O9  1  0.29216300  0.04307600  0.32630100  1
  O  O10  1  0.20783700  0.45692400  0.82630100  1
  O  O11  1  0.70783700  0.54307600  0.67369900  1
  O  O12  1  0.22937700  0.75000000  0.61072800  1
  O  O13  1  0.72937700  0.25000000  0.88927200  1
  O  O14  1  0.77062300  0.25000000  0.38927200  1
  O  O15  1  0.27062300  0.75000000  0.11072800  1
loop_
_geom_bond_atom_site_label_1
_geom_bond_atom_site_label_2
_geom_bond_distance
_geom_bond_site_symmetry_2
Na0 O15 2.411622 1_545
Na0 O13 2.411622 1_554
Na0 O0 2.441621 1_544
Na0 O2 2.441621 1_555
Na0 O8 2.559888 1_545
Na0 O4 2.559888 1_554
Na1 O14 2.411622 1_455
Na1 O12 2.411622 1_545
Na1 O1 2.441621 1_555
Na1 O3 2.441621 1_445
Na1 O9 2.559888 1_555
Na1 O5 2.559888 1_445
Na2 O15 2.411622 1_555
Na2 O13 2.411622 1_554
Na2 O2 2.441621 1_555
Na2 O0 2.441621 1_554
Na2 O6 2.559888 1_555
Na2 O10 2.559888 1_554
Na3 O14 2.411622 1_455
Na3 O12 2.411622 1_555
Na3 O1 2.441621 1_555
Na3 O3 2.441621 1_455
Na3 O7 2.559888 1_555
Na3 O11 2.559888 1_455
Ge0 O15 1.747359 1_655
Ge0 O0 1.763856 1_554
Ge0 O8 1.811053 1_555
Ge0 O6 1.811053 1_555
Ge1 O14 1.747359 1_555
Ge1 O1 1.763856 1_555
Ge1 O7 1.811053 1_555
Ge1 O9 1.811053 1_555
Ge2 O13 1.747359 1_455
Ge2 O2 1.763856 1_556
Ge2 O10 1.811053 1_555
Ge2 O4 1.811053 1_555
Ge3 O12 1.747359 1_555
Ge3 O3 1.763856 1_555
Ge3 O5 1.811053 1_555
Ge3 O11 1.811053 1_555
O0 Tb0 2.244285 1_555
O1 Tb1 2.244285 1_555
O2 Tb2 2.244285 1_555
O3 Tb3 2.244285 1_555
O4 Tb0 2.295754 1_445
O4 Tb1 2.377264 1_555
O5 Tb1 2.295754 1_565
O5 Tb0 2.377264 1_555
O6 Tb2 2.295754 1_655
O6 Tb3 2.377264 1_555
O7 Tb3 2.295754 1_555
O7 Tb2 2.377264 1_555
O8 Tb2 2.295754 1_665
O8 Tb3 2.377264 1_555
O9 Tb3 2.295754 1_545
O9 Tb2 2.377264 1_555
O10 Tb0 2.295754 1_455
O10 Tb1 2.377264 1_555
O11 Tb1 2.295754 1_555
O11 Tb0 2.377264 1_555
O12 Tb0 2.300562 1_455
O13 Tb1 2.300562 1_555
O14 Tb2 2.300562 1_655
O15 Tb3 2.300562 1_555
