# generated using pymatgen
data_La2Rh2I
_symmetry_space_group_name_H-M   'P 1'
_cell_length_a   4.32187473
_cell_length_b   4.32187958
_cell_length_c   17.71987302
_cell_angle_alpha   89.99999404
_cell_angle_beta   90.00000502
_cell_angle_gamma   120.00025612
_symmetry_Int_Tables_number   1
_chemical_formula_structural   La2Rh2I
_chemical_formula_sum   'La4 Rh4 I2'
_cell_volume   286.63878362
_cell_formula_units_Z   2
loop_
 _symmetry_equiv_pos_site_id
 _symmetry_equiv_pos_as_xyz
  1  'x, y, z'
loop_
 _atom_site_type_symbol
 _atom_site_label
 _atom_site_symmetry_multiplicity
 _atom_site_fract_x
 _atom_site_fract_y
 _atom_site_fract_z
 _atom_site_occupancy
  La  La0  1  -0.00000125  -0.00000011  0.10539777  1
  La  La1  1  0.00000088  -0.00000054  0.89466381  1
  La  La2  1  0.00000139  0.00000015  0.60541654  1
  La  La3  1  0.99999875  0.99999955  0.39452051  1
  Rh  Rh0  1  0.33333351  0.66666528  0.50066168  1
  Rh  Rh1  1  0.66666546  0.33333311  0.49927713  1
  Rh  Rh2  1  0.66666511  0.33333212  0.00073890  1
  Rh  Rh3  1  0.33333371  0.66666717  0.99934862  1
  I  I0  1  0.33331226  0.66667931  0.24989375  1
  I  I1  1  0.66669017  0.33332296  0.75008229  1
loop_
_geom_bond_atom_site_label_1
_geom_bond_atom_site_label_2
_geom_bond_distance
_geom_bond_site_symmetry_2
La0 Rh2 3.108937 1_555
La0 Rh2 3.108943 1_445
La0 Rh2 3.108944 1_455
La0 Rh3 3.123691 1_444
La0 Rh3 3.123700 1_554
La0 Rh3 3.123708 1_544
La1 Rh3 3.109214 1_445
La1 Rh3 3.109216 1_545
La1 Rh3 3.109217 1_555
La1 Rh2 3.123965 1_556
La1 Rh2 3.123977 1_446
La1 Rh2 3.123987 1_456
La2 Rh0 3.109950 1_555
La2 Rh0 3.109956 1_445
La2 Rh0 3.109963 1_545
La2 Rh1 3.124651 1_555
La2 Rh1 3.124662 1_445
La2 Rh1 3.124674 1_455
La3 Rh1 3.109971 1_665
La3 Rh1 3.109973 1_555
La3 Rh1 3.109981 1_565
La3 Rh0 3.124673 1_555
La3 Rh0 3.124677 1_665
La3 Rh0 3.124693 1_655
Rh0 Rh1 2.495351 1_555
Rh0 Rh1 2.495355 1_455
Rh0 Rh1 2.495357 1_565
Rh2 Rh3 2.495347 1_544
Rh2 Rh3 2.495358 1_654
Rh2 Rh3 2.495361 1_554
I0 La0 3.575125 1_565
I0 La0 3.575238 1_555
I0 La0 3.575255 1_665
I0 La3 3.576785 1_455
I0 La3 3.576899 1_445
I0 La3 3.576914 1_555
I1 La1 3.576211 1_655
I1 La1 3.576316 1_665
I1 La1 3.576348 1_555
I1 La2 3.577281 1_655
I1 La2 3.577387 1_665
I1 La2 3.577415 1_555
