# generated using pymatgen
data_Cs2MgO2
_symmetry_space_group_name_H-M   'P 1'
_cell_length_a   6.78398700
_cell_length_b   10.06912700
_cell_length_c   16.71256841
_cell_angle_alpha   63.10303704
_cell_angle_beta   90.00000000
_cell_angle_gamma   90.00000000
_symmetry_Int_Tables_number   1
_chemical_formula_structural   Cs2MgO2
_chemical_formula_sum   'Cs16 Mg8 O16'
_cell_volume   1018.11765062
_cell_formula_units_Z   8
loop_
 _symmetry_equiv_pos_site_id
 _symmetry_equiv_pos_as_xyz
  1  'x, y, z'
loop_
 _atom_site_type_symbol
 _atom_site_label
 _atom_site_symmetry_multiplicity
 _atom_site_fract_x
 _atom_site_fract_y
 _atom_site_fract_z
 _atom_site_occupancy
  Cs  Cs0  1  0.33522200  0.85205700  0.97256200  1
  Cs  Cs1  1  0.86590100  0.92488400  0.83649500  1
  Cs  Cs2  1  0.08593200  0.67943800  0.74141200  1
  Cs  Cs3  1  0.57042900  0.57198200  0.87810400  1
  Cs  Cs4  1  0.16477800  0.85205700  0.47256200  1
  Cs  Cs5  1  0.63409900  0.92488400  0.33649500  1
  Cs  Cs6  1  0.07042900  0.42801800  0.62189600  1
  Cs  Cs7  1  0.58593200  0.32056200  0.75858800  1
  Cs  Cs8  1  0.41406800  0.67943800  0.24141200  1
  Cs  Cs9  1  0.92957100  0.57198200  0.37810400  1
  Cs  Cs10  1  0.36590100  0.07511600  0.66350500  1
  Cs  Cs11  1  0.83522200  0.14794300  0.52743800  1
  Cs  Cs12  1  0.42957100  0.42801800  0.12189600  1
  Cs  Cs13  1  0.91406800  0.32056200  0.25858800  1
  Cs  Cs14  1  0.13409900  0.07511600  0.16350500  1
  Cs  Cs15  1  0.66477800  0.14794300  0.02743800  1
  Mg  Mg0  1  0.62881300  0.75363800  0.62583800  1
  Mg  Mg1  1  0.05038100  0.41332900  0.96014000  1
  Mg  Mg2  1  0.55038100  0.58667100  0.53986000  1
  Mg  Mg3  1  0.12881300  0.24636200  0.87416200  1
  Mg  Mg4  1  0.87118700  0.75363800  0.12583800  1
  Mg  Mg5  1  0.44961900  0.41332900  0.46014000  1
  Mg  Mg6  1  0.94961900  0.58667100  0.03986000  1
  Mg  Mg7  1  0.37118700  0.24636200  0.37416200  1
  O  O0  1  0.69046400  0.85688600  0.69386900  1
  O  O1  1  0.11886900  0.62471300  0.93276300  1
  O  O2  1  0.76709600  0.73371500  0.52853700  1
  O  O3  1  0.41191400  0.61663500  0.63961100  1
  O  O4  1  0.91191400  0.38336500  0.86038900  1
  O  O5  1  0.26709600  0.26628500  0.97146300  1
  O  O6  1  0.80953600  0.85688600  0.19386900  1
  O  O7  1  0.38113100  0.62471300  0.43276300  1
  O  O8  1  0.61886900  0.37528700  0.56723700  1
  O  O9  1  0.19046400  0.14311400  0.80613100  1
  O  O10  1  0.73290400  0.73371500  0.02853700  1
  O  O11  1  0.08808600  0.61663500  0.13961100  1
  O  O12  1  0.58808600  0.38336500  0.36038900  1
  O  O13  1  0.23290400  0.26628500  0.47146300  1
  O  O14  1  0.88113100  0.37528700  0.06723700  1
  O  O15  1  0.30953600  0.14311400  0.30613100  1
loop_
_geom_bond_atom_site_label_1
_geom_bond_atom_site_label_2
_geom_bond_distance
_geom_bond_site_symmetry_2
Cs0 O10 2.926597 1_556
Cs0 O1 3.035543 1_555
Cs0 O9 3.148743 1_565
Cs0 O11 3.199465 1_556
Cs1 O9 2.987504 1_665
Cs1 O0 3.007270 1_555
Cs1 O10 3.038189 1_556
Cs1 O1 3.204552 1_655
Cs2 O4 2.978525 1_455
Cs2 O1 2.997695 1_555
Cs2 O3 3.026299 1_555
Cs2 O0 3.120414 1_455
Cs3 O4 3.093568 1_555
Cs3 O0 3.222019 1_555
Cs3 O1 3.307491 1_555
Cs3 O5 3.434878 1_555
Cs3 O14 3.562652 1_556
Cs3 O10 3.727218 1_556
Cs4 O2 2.926597 1_455
Cs4 O7 3.035543 1_555
Cs4 O15 3.148743 1_565
Cs4 O3 3.199465 1_555
Cs5 O15 2.987504 1_565
Cs5 O6 3.007270 1_555
Cs5 O2 3.038189 1_555
Cs5 O7 3.204552 1_555
Cs6 O3 3.093568 1_555
Cs6 O9 3.222019 1_555
Cs6 O8 3.307491 1_455
Cs6 O2 3.434878 1_455
Cs6 O7 3.562652 1_555
Cs6 O13 3.727218 1_555
Cs7 O3 2.978525 1_555
Cs7 O8 2.997695 1_555
Cs7 O4 3.026299 1_555
Cs7 O9 3.120414 1_555
Cs8 O12 2.978525 1_555
Cs8 O7 2.997695 1_555
Cs8 O11 3.026299 1_555
Cs8 O6 3.120414 1_555
Cs9 O12 3.093568 1_555
Cs9 O6 3.222019 1_555
Cs9 O7 3.307491 1_655
Cs9 O13 3.434878 1_655
Cs9 O8 3.562652 1_555
Cs9 O2 3.727218 1_555
Cs10 O0 2.987504 1_545
Cs10 O9 3.007270 1_555
Cs10 O13 3.038189 1_555
Cs10 O8 3.204552 1_555
Cs11 O13 2.926597 1_655
Cs11 O8 3.035543 1_555
Cs11 O0 3.148743 1_545
Cs11 O12 3.199465 1_555
Cs12 O11 3.093568 1_555
Cs12 O15 3.222019 1_555
Cs12 O14 3.307491 1_555
Cs12 O10 3.434878 1_555
Cs12 O1 3.562652 1_554
Cs12 O5 3.727218 1_554
Cs13 O11 2.978525 1_655
Cs13 O14 2.997695 1_555
Cs13 O12 3.026299 1_555
Cs13 O15 3.120414 1_655
Cs14 O6 2.987504 1_445
Cs14 O15 3.007270 1_555
Cs14 O5 3.038189 1_554
Cs14 O14 3.204552 1_455
Cs15 O5 2.926597 1_554
Cs15 O14 3.035543 1_555
Cs15 O6 3.148743 1_545
Cs15 O4 3.199465 1_554
Mg0 O0 1.902076 1_555
Mg0 O3 1.958020 1_555
Mg0 O2 1.964640 1_555
Mg1 O14 2.012055 1_456
Mg1 O1 2.018516 1_555
Mg1 O5 2.033706 1_555
Mg1 O4 2.051272 1_455
Mg2 O7 2.012055 1_555
Mg2 O8 2.018516 1_555
Mg2 O2 2.033706 1_555
Mg2 O3 2.051272 1_555
Mg3 O9 1.902076 1_555
Mg3 O4 1.958020 1_455
Mg3 O5 1.964640 1_555
Mg4 O6 1.902076 1_555
Mg4 O11 1.958020 1_655
Mg4 O10 1.964640 1_555
Mg5 O8 2.012055 1_555
Mg5 O7 2.018516 1_555
Mg5 O13 2.033706 1_555
Mg5 O12 2.051272 1_555
Mg6 O1 2.012055 1_654
Mg6 O14 2.018516 1_555
Mg6 O10 2.033706 1_555
Mg6 O11 2.051272 1_655
Mg7 O15 1.902076 1_555
Mg7 O12 1.958020 1_555
Mg7 O13 1.964640 1_555
