# generated using pymatgen
data_B2Pb2O5
_symmetry_space_group_name_H-M   'P 1'
_cell_length_a   6.99571877
_cell_length_b   7.23332307
_cell_length_c   7.83609118
_cell_angle_alpha   76.22989367
_cell_angle_beta   76.50471291
_cell_angle_gamma   73.86154576
_symmetry_Int_Tables_number   1
_chemical_formula_structural   B2Pb2O5
_chemical_formula_sum   'B6 Pb6 O15'
_cell_volume   363.96129282
_cell_formula_units_Z   3
loop_
 _symmetry_equiv_pos_site_id
 _symmetry_equiv_pos_as_xyz
  1  'x, y, z'
loop_
 _atom_site_type_symbol
 _atom_site_label
 _atom_site_symmetry_multiplicity
 _atom_site_fract_x
 _atom_site_fract_y
 _atom_site_fract_z
 _atom_site_occupancy
  B  B0  1  0.21630265  0.09517704  0.49315359  1
  B  B1  1  0.21007086  0.10184931  0.16834044  1
  B  B2  1  0.88933926  0.28400640  0.01805365  1
  B  B3  1  0.72956125  0.57921634  0.80850632  1
  B  B4  1  0.87612830  0.24923896  0.70919223  1
  B  B5  1  0.17612689  0.79629990  0.40582107  1
  Pb  Pb0  1  0.68546895  0.93773110  0.01101144  1
  Pb  Pb1  1  0.25121732  0.89031767  0.86686125  1
  Pb  Pb2  1  0.43826209  0.42695714  0.18243472  1
  Pb  Pb3  1  0.88080489  0.49807689  0.33837641  1
  Pb  Pb4  1  0.70431685  0.02440414  0.49519249  1
  Pb  Pb5  1  0.35152508  0.40578768  0.67669144  1
  O  O0  1  0.34927503  0.10878127  0.60716030  1
  O  O1  1  0.73012859  0.12916820  0.74132674  1
  O  O2  1  0.72009231  0.19644565  0.11067726  1
  O  O3  1  0.61610588  0.76599944  0.78059469  1
  O  O4  1  0.80383709  0.50108180  0.96615991  1
  O  O5  1  0.99158916  0.20482786  0.85321294  1
  O  O6  1  0.19973700  0.88800616  0.53404232  1
  O  O7  1  0.35711139  0.08506467  0.00296200  1
  O  O8  1  0.01217548  0.22617069  0.53345154  1
  O  O9  1  0.30175490  0.14742697  0.30342710  1
  O  O10  1  0.15611624  0.90752602  0.23807581  1
  O  O11  1  0.17268751  0.60354642  0.44547959  1
  O  O12  1  0.03189077  0.26252644  0.13681880  1
  O  O13  1  0.58942435  0.37151829  0.41822201  1
  O  O14  1  0.76634990  0.46154654  0.68285491  1
loop_
_geom_bond_atom_site_label_1
_geom_bond_atom_site_label_2
_geom_bond_distance
_geom_bond_site_symmetry_2
B0 O0 1.467563 1_555
B0 O9 1.467591 1_555
B0 O6 1.487392 1_545
B0 O8 1.488796 1_555
B1 O7 1.461361 1_555
B1 O12 1.472147 1_555
B1 O9 1.497057 1_555
B1 O10 1.499940 1_545
B2 O2 1.458339 1_555
B2 O12 1.470702 1_655
B2 O5 1.483704 1_554
B2 O4 1.508655 1_554
B3 O3 1.359185 1_555
B3 O14 1.385301 1_555
B3 O4 1.385484 1_555
B4 O1 1.459421 1_555
B4 O5 1.462155 1_555
B4 O8 1.496496 1_655
B4 O14 1.502726 1_555
B5 O11 1.360138 1_555
B5 O10 1.383664 1_555
B5 O6 1.390138 1_555
O0 Pb5 2.343614 1_555
O0 Pb1 2.351428 1_545
O0 Pb4 2.388833 1_555
O1 Pb0 2.240597 1_546
O1 Pb4 2.293745 1_555
O2 Pb2 2.254969 1_555
O2 Pb0 2.281811 1_545
O3 Pb1 2.447361 1_555
O3 Pb0 2.617308 1_556
O3 Pb4 2.623582 1_565
O5 Pb1 2.482649 1_645
O6 Pb1 2.719214 1_555
O7 Pb0 2.256344 1_545
O7 Pb1 2.309681 1_544
O8 Pb3 2.295466 1_455
O9 Pb2 2.374301 1_555
O10 Pb1 2.853547 1_554
O11 Pb5 2.392348 1_555
O11 Pb3 2.725162 1_455
O12 Pb3 2.452654 1_455
O13 Pb2 2.239726 1_555
O13 Pb5 2.317298 1_555
O13 Pb3 2.356709 1_555
O13 Pb4 2.386908 1_555
O14 Pb3 2.601305 1_555
