# generated using pymatgen
data_Li2MnGeO4
_symmetry_space_group_name_H-M   'P 1'
_cell_length_a   7.58430850
_cell_length_b   7.58430709
_cell_length_c   8.31167506
_cell_angle_alpha   65.04946262
_cell_angle_beta   65.04933017
_cell_angle_gamma   94.32565006
_symmetry_Int_Tables_number   1
_chemical_formula_structural   Li2MnGeO4
_chemical_formula_sum   'Li8 Mn4 Ge4 O16'
_cell_volume   373.89136221
_cell_formula_units_Z   4
loop_
 _symmetry_equiv_pos_site_id
 _symmetry_equiv_pos_as_xyz
  1  'x, y, z'
loop_
 _atom_site_type_symbol
 _atom_site_label
 _atom_site_symmetry_multiplicity
 _atom_site_fract_x
 _atom_site_fract_y
 _atom_site_fract_z
 _atom_site_occupancy
  Li  Li0  1  0.28992500  0.45797300  0.74959700  1
  Li  Li1  1  0.78992500  0.95797400  0.74959400  1
  Li  Li2  1  0.20756200  0.03952200  0.75042300  1
  Li  Li3  1  0.70755900  0.53952100  0.75042400  1
  Li  Li4  1  0.45797200  0.28992500  0.24959500  1
  Li  Li5  1  0.95797200  0.78992500  0.24959700  1
  Li  Li6  1  0.53952000  0.70756100  0.25042300  1
  Li  Li7  1  0.03952100  0.20756100  0.25042200  1
  Mn  Mn0  1  0.41520800  0.08461500  0.00001000  1
  Mn  Mn1  1  0.58462600  0.91518400  0.50001400  1
  Mn  Mn2  1  0.91518900  0.58464200  0.00001500  1
  Mn  Mn3  1  0.08463100  0.41519600  0.50001900  1
  Ge  Ge0  1  0.83523000  0.15721100  0.99999100  1
  Ge  Ge1  1  0.33522900  0.65720900  0.99999100  1
  Ge  Ge2  1  0.15720900  0.83523100  0.49999000  1
  Ge  Ge3  1  0.65721000  0.33522900  0.49999000  1
  O  O0  1  0.23163300  0.86198400  0.00000200  1
  O  O1  1  0.73163500  0.36198500  0.00000200  1
  O  O2  1  0.36198200  0.73163200  0.50000100  1
  O  O3  1  0.86198400  0.23163700  0.50000300  1
  O  O4  1  0.66480500  0.98172500  0.99998600  1
  O  O5  1  0.16480100  0.48172900  0.99998500  1
  O  O6  1  0.98172500  0.66480400  0.49998700  1
  O  O7  1  0.48172900  0.16480100  0.49998500  1
  O  O8  1  0.08058700  0.25299400  0.77647300  1
  O  O9  1  0.58058900  0.75299600  0.77647000  1
  O  O10  1  0.02944500  0.85708100  0.72351500  1
  O  O11  1  0.52944500  0.35708100  0.72351800  1
  O  O12  1  0.25299800  0.08058800  0.27646800  1
  O  O13  1  0.75299300  0.58058900  0.27647400  1
  O  O14  1  0.35707900  0.52944600  0.22351800  1
  O  O15  1  0.85707900  0.02944400  0.22351800  1
loop_
_geom_bond_atom_site_label_1
_geom_bond_atom_site_label_2
_geom_bond_distance
_geom_bond_site_symmetry_2
Li0 O5 1.984967 1_555
Li0 O11 1.987445 1_555
Li0 O8 2.005729 1_555
Li0 O2 2.037139 1_555
Li1 O4 1.984974 1_555
Li1 O10 1.987448 1_655
Li1 O9 2.005713 1_555
Li1 O3 2.037133 1_565
Li2 O7 1.985219 1_555
Li2 O8 1.987612 1_555
Li2 O10 2.005876 1_545
Li2 O0 2.037070 1_546
Li3 O6 1.985210 1_555
Li3 O9 1.987605 1_555
Li3 O11 2.005845 1_555
Li3 O1 2.037081 1_556
Li4 O7 1.984989 1_555
Li4 O14 1.987457 1_555
Li4 O12 2.005712 1_555
Li4 O1 2.037136 1_555
Li5 O6 1.984971 1_555
Li5 O15 1.987442 1_565
Li5 O13 2.005714 1_555
Li5 O0 2.037138 1_655
Li6 O4 1.985203 1_554
Li6 O13 1.987610 1_555
Li6 O14 2.005849 1_555
Li6 O2 2.037060 1_555
Li7 O5 1.985222 1_554
Li7 O12 1.987630 1_555
Li7 O15 2.005859 1_455
Li7 O3 2.037099 1_455
Mn0 O12 2.084370 1_555
Mn0 O11 2.084650 1_554
Mn0 O4 2.101220 1_544
Mn0 O0 2.105956 1_545
Mn1 O9 2.084301 1_555
Mn1 O15 2.084594 1_565
Mn1 O7 2.101374 1_565
Mn1 O2 2.105951 1_555
Mn2 O13 2.084267 1_555
Mn2 O10 2.084564 1_654
Mn2 O5 2.101391 1_654
Mn2 O1 2.106034 1_555
Mn3 O8 2.084273 1_555
Mn3 O14 2.084605 1_555
Mn3 O6 2.101335 1_455
Mn3 O3 2.106015 1_455
Ge0 O4 1.784008 1_545
Ge0 O8 1.784028 1_655
Ge0 O15 1.784173 1_556
Ge0 O1 1.792617 1_556
Ge1 O5 1.783997 1_555
Ge1 O9 1.784048 1_555
Ge1 O14 1.784174 1_556
Ge1 O0 1.792627 1_556
Ge2 O6 1.783997 1_455
Ge2 O12 1.784039 1_565
Ge2 O10 1.784158 1_555
Ge2 O2 1.792625 1_555
Ge3 O7 1.783997 1_555
Ge3 O13 1.784036 1_555
Ge3 O11 1.784189 1_555
Ge3 O3 1.792608 1_555
