# generated using pymatgen
data_Mg5Si6
_symmetry_space_group_name_H-M   'P 1'
_cell_length_a   4.07357700
_cell_length_b   8.09462512
_cell_length_c   12.82471251
_cell_angle_alpha   105.36428508
_cell_angle_beta   99.12133507
_cell_angle_gamma   90.65387461
_symmetry_Int_Tables_number   1
_chemical_formula_structural   Mg5Si6
_chemical_formula_sum   'Mg10 Si12'
_cell_volume   401.97911571
_cell_formula_units_Z   2
loop_
 _symmetry_equiv_pos_site_id
 _symmetry_equiv_pos_as_xyz
  1  'x, y, z'
loop_
 _atom_site_type_symbol
 _atom_site_label
 _atom_site_symmetry_multiplicity
 _atom_site_fract_x
 _atom_site_fract_y
 _atom_site_fract_z
 _atom_site_occupancy
  Mg  Mg0  1  0.25599900  0.85746700  0.98993100  1
  Mg  Mg1  1  0.97155900  0.86535200  0.42056100  1
  Mg  Mg2  1  0.56488200  0.91109700  0.61399300  1
  Mg  Mg3  1  0.46712500  0.13956000  0.40995200  1
  Mg  Mg4  1  0.84757200  0.93909000  0.18459100  1
  Mg  Mg5  1  0.64520900  0.25643200  0.76175100  1
  Mg  Mg6  1  0.58446200  0.54242700  0.66243500  1
  Mg  Mg7  1  0.46231800  0.55851900  0.40287700  1
  Mg  Mg8  1  0.76544600  0.15778100  0.00606200  1
  Mg  Mg9  1  0.74697600  0.57124000  0.97804200  1
  Si  Si0  1  0.21967900  0.31490400  0.91446900  1
  Si  Si1  1  0.31077400  0.43584400  0.10865700  1
  Si  Si2  1  0.01095500  0.37160100  0.48731100  1
  Si  Si3  1  0.03147800  0.67332900  0.56257600  1
  Si  Si4  1  0.17898800  0.01167700  0.80530600  1
  Si  Si5  1  0.34141100  0.18259600  0.17576500  1
  Si  Si6  1  0.87414600  0.57639900  0.21555800  1
  Si  Si7  1  0.06883800  0.16629100  0.59546700  1
  Si  Si8  1  0.15823300  0.53218200  0.81566300  1
  Si  Si9  1  0.38806700  0.78516500  0.27045100  1
  Si  Si10  1  0.90789500  0.30205000  0.28752600  1
  Si  Si11  1  0.69104800  0.84923200  0.82752900  1
loop_
_geom_bond_atom_site_label_1
_geom_bond_atom_site_label_2
_geom_bond_distance
_geom_bond_site_symmetry_2
Mg0 Si11 2.835820 1_455
Mg0 Si11 2.929578 1_555
Mg0 Si4 2.933009 1_565
Mg0 Si8 2.943136 1_555
Mg0 Si5 3.019906 1_566
Mg1 Si3 2.675929 1_655
Mg1 Si9 2.721152 1_655
Mg1 Si9 2.762047 1_555
Mg1 Si7 2.814828 1_665
Mg1 Si6 2.988284 1_555
Mg2 Si3 2.749570 1_655
Mg2 Si3 2.763721 1_555
Mg2 Si11 2.881120 1_555
Mg2 Si7 2.934249 1_565
Mg2 Si7 2.975887 1_665
Mg2 Si4 3.057332 1_565
Mg2 Si4 3.144792 1_665
Mg3 Si2 2.764175 1_655
Mg3 Si2 2.764418 1_555
Mg3 Si9 2.934359 1_545
Mg3 Si7 3.049380 1_555
Mg3 Si10 3.058305 1_555
Mg3 Si10 3.068133 1_455
Mg3 Si5 3.078110 1_555
Mg3 Si7 3.095395 1_655
Mg4 Si9 2.756072 1_555
Mg4 Si9 2.762894 1_655
Mg4 Si5 2.836341 1_665
Mg4 Si10 2.874104 1_565
Mg4 Si5 2.878606 1_565
Mg4 Si6 3.065961 1_555
Mg5 Si0 2.750750 1_655
Mg5 Si0 2.769236 1_555
Mg5 Si7 2.853351 1_555
Mg5 Si7 2.903292 1_655
Mg5 Si8 2.906086 1_655
Mg5 Mg6 2.918653 1_555
Mg5 Si4 2.946349 1_555
Mg5 Si8 3.018874 1_555
Mg5 Si4 3.043815 1_655
Mg6 Si3 2.737362 1_655
Mg6 Si3 2.774181 1_555
Mg6 Si11 2.781471 1_555
Mg6 Si8 2.822417 1_655
Mg6 Si8 2.836902 1_555
Mg6 Si2 3.005190 1_555
Mg6 Si2 3.101750 1_655
Mg7 Si9 2.800444 1_555
Mg7 Si3 2.805451 1_655
Mg7 Si2 2.877225 1_555
Mg7 Si3 2.882162 1_555
Mg7 Si2 2.938493 1_655
Mg7 Si10 2.967378 1_455
Mg7 Si10 3.017081 1_555
Mg7 Si6 3.146419 1_455
Mg7 Si6 3.172208 1_555
Mg8 Si0 2.801483 1_654
Mg8 Si0 2.822831 1_554
Mg8 Si11 2.881773 1_544
Mg8 Si5 2.901806 1_655
Mg8 Si5 2.954472 1_555
Mg8 Si1 3.020264 1_655
Mg8 Si1 3.086463 1_555
Mg8 Si4 3.179080 1_554
Mg8 Si4 3.266858 1_654
Mg9 Si8 2.830637 1_655
Mg9 Si0 2.833819 1_555
Mg9 Si8 2.870322 1_555
Mg9 Si0 2.893183 1_655
Mg9 Si6 2.996744 1_556
Mg9 Si1 3.006096 1_556
Mg9 Si1 3.015360 1_656
Si0 Si1 2.388507 1_556
Si0 Si8 2.419120 1_555
Si0 Si4 2.471491 1_555
Si1 Si5 2.421828 1_555
Si1 Si6 2.516013 1_455
Si1 Si6 2.560679 1_555
Si2 Si3 2.371578 1_555
Si2 Si7 2.422454 1_555
Si6 Si9 2.560391 1_655
Si6 Si9 2.675805 1_555
Si10 Si2 2.438684 1_655
Si10 Si5 2.492992 1_655
Si10 Si5 2.545668 1_555
Si10 Si6 2.618282 1_555
Si11 Si4 2.465687 1_665
Si11 Si4 2.496803 1_565
