# generated using pymatgen
data_LiAg
_symmetry_space_group_name_H-M   'P 1'
_cell_length_a   4.65627360
_cell_length_b   4.65627360
_cell_length_c   4.47222152
_cell_angle_alpha   121.37098826
_cell_angle_beta   121.37098826
_cell_angle_gamma   90.00000000
_symmetry_Int_Tables_number   1
_chemical_formula_structural   LiAg
_chemical_formula_sum   'Li2 Ag2'
_cell_volume   65.61940270
_cell_formula_units_Z   2
loop_
 _symmetry_equiv_pos_site_id
 _symmetry_equiv_pos_as_xyz
  1  'x, y, z'
loop_
 _atom_site_type_symbol
 _atom_site_label
 _atom_site_symmetry_multiplicity
 _atom_site_fract_x
 _atom_site_fract_y
 _atom_site_fract_z
 _atom_site_occupancy
  Li  Li0  1  0.75000000  0.25000000  0.50000000  1
  Li  Li1  1  0.50000000  0.50000000  0.00000000  1
  Ag  Ag0  1  0.25000000  0.75000000  0.50000000  1
  Ag  Ag1  1  -0.00000000  -0.00000000  0.00000000  1
loop_
_geom_bond_atom_site_label_1
_geom_bond_atom_site_label_2
_geom_bond_distance
_geom_bond_site_symmetry_2
Ag0 Li1 2.776743 1_455
Ag0 Li1 2.776743 1_566
Ag0 Li1 2.776743 1_555
Ag0 Li1 2.776743 1_556
Ag1 Li0 2.776743 1_444
Ag1 Li0 2.776743 1_555
Ag1 Li0 2.776743 1_455
Ag1 Li0 2.776743 1_454
