# generated using pymatgen
data_KCr5S8
_symmetry_space_group_name_H-M   'P 1'
_cell_length_a   3.49353872
_cell_length_b   8.70442601
_cell_length_c   9.15857034
_cell_angle_alpha   105.16176342
_cell_angle_beta   100.99508982
_cell_angle_gamma   90.00000128
_symmetry_Int_Tables_number   1
_chemical_formula_structural   KCr5S8
_chemical_formula_sum   'K1 Cr5 S8'
_cell_volume   263.51044208
_cell_formula_units_Z   1
loop_
 _symmetry_equiv_pos_site_id
 _symmetry_equiv_pos_as_xyz
  1  'x, y, z'
loop_
 _atom_site_type_symbol
 _atom_site_label
 _atom_site_symmetry_multiplicity
 _atom_site_fract_x
 _atom_site_fract_y
 _atom_site_fract_z
 _atom_site_occupancy
  K  K0  1  0.50000496  0.49999541  0.00000891  1
  Cr  Cr0  1  0.70421241  0.33512379  0.40842481  1
  Cr  Cr1  1  0.34197532  0.02846742  0.68394964  1
  Cr  Cr2  1  0.65802625  0.97153653  0.31605450  1
  Cr  Cr3  1  -0.00000126  -0.00000216  -0.00000252  1
  Cr  Cr4  1  0.29578504  0.66487200  0.59157107  1
  S  S0  1  0.23744456  0.15529718  0.47488811  1
  S  S1  1  0.76255718  0.84470162  0.52511436  1
  S  S2  1  0.17093087  0.48704275  0.34186273  1
  S  S3  1  0.82906858  0.51295876  0.65813516  1
  S  S4  1  0.08399248  0.82504260  0.16798495  1
  S  S5  1  0.91600779  0.17496690  0.83201557  1
  S  S6  1  0.42296885  0.85247908  0.84593770  1
  S  S7  1  0.57702799  0.14751711  0.15405499  1
loop_
_geom_bond_atom_site_label_1
_geom_bond_atom_site_label_2
_geom_bond_distance
_geom_bond_site_symmetry_2
K0 S5 3.325603 1_554
K0 S5 3.325605 1_454
K0 S4 3.325686 1_655
K0 S4 3.325688 1_555
K0 S2 3.562929 1_655
K0 S2 3.562932 1_555
K0 S3 3.563110 1_454
K0 S3 3.563111 1_554
K0 S7 3.687235 1_555
K0 S6 3.687414 1_554
Cr0 S2 2.362127 1_655
Cr0 S2 2.362130 1_555
Cr0 S3 2.363134 1_555
Cr0 S7 2.430350 1_555
Cr0 S0 2.521264 1_555
Cr0 S0 2.521267 1_655
Cr1 S5 2.354740 1_555
Cr1 S5 2.354742 1_455
Cr1 S6 2.378318 1_545
Cr1 S0 2.420168 1_555
Cr1 S1 2.536108 1_545
Cr1 S1 2.536110 1_445
Cr2 S4 2.354733 1_555
Cr2 S4 2.354738 1_655
Cr2 S7 2.378345 1_565
Cr2 S1 2.420185 1_555
Cr2 S0 2.536078 1_565
Cr2 S0 2.536085 1_665
Cr3 S7 2.381318 1_455
Cr3 S7 2.381321 1_555
Cr3 S6 2.381327 1_544
Cr3 S6 2.381327 1_444
Cr3 S4 2.413655 1_545
Cr3 S5 2.413712 1_454
Cr4 S3 2.362100 1_455
Cr4 S3 2.362108 1_555
Cr4 S2 2.363100 1_555
Cr4 S6 2.430330 1_555
Cr4 S1 2.521258 1_455
Cr4 S1 2.521260 1_555
