# generated using pymatgen
data_CaCeC4
_symmetry_space_group_name_H-M   'P 1'
_cell_length_a   4.14465339
_cell_length_b   4.14465339
_cell_length_c   5.40762032
_cell_angle_alpha   90.00000000
_cell_angle_beta   90.00000000
_cell_angle_gamma   80.27556201
_symmetry_Int_Tables_number   1
_chemical_formula_structural   CaCeC4
_chemical_formula_sum   'Ca1 Ce1 C4'
_cell_volume   91.55819174
_cell_formula_units_Z   1
loop_
 _symmetry_equiv_pos_site_id
 _symmetry_equiv_pos_as_xyz
  1  'x, y, z'
loop_
 _atom_site_type_symbol
 _atom_site_label
 _atom_site_symmetry_multiplicity
 _atom_site_fract_x
 _atom_site_fract_y
 _atom_site_fract_z
 _atom_site_occupancy
  Ca  Ca0  1  0.00000000  0.00000000  0.00000000  1
  Ce  Ce0  1  0.50000000  0.50000000  0.50000000  1
  C  C0  1  0.39897400  0.39897400  0.00000000  1
  C  C1  1  0.89737000  0.89737000  0.50000000  1
  C  C2  1  0.10263000  0.10263000  0.50000000  1
  C  C3  1  0.60102600  0.60102600  0.00000000  1
loop_
_geom_bond_atom_site_label_1
_geom_bond_atom_site_label_2
_geom_bond_distance
_geom_bond_site_symmetry_2
C0 C3 1.280433 1_555
C0 Ca0 2.528356 1_555
C0 Ca0 2.747394 1_655
C0 Ca0 2.747394 1_565
C0 Ce0 2.778573 1_555
C0 Ce0 2.778573 1_554
C1 C2 1.300763 1_665
C1 Ce0 2.518192 1_555
C1 Ce0 2.749780 1_655
C1 Ce0 2.749780 1_565
C1 Ca0 2.780932 1_666
C1 Ca0 2.780932 1_665
C2 Ce0 2.518192 1_555
C2 Ce0 2.749780 1_545
C2 Ce0 2.749780 1_455
C2 Ca0 2.780932 1_555
C2 Ca0 2.780932 1_556
C3 Ca0 2.528356 1_665
C3 Ca0 2.747394 1_565
C3 Ca0 2.747394 1_655
C3 Ce0 2.778573 1_555
C3 Ce0 2.778573 1_554
