# generated using pymatgen
data_KNaLaNbO5
_symmetry_space_group_name_H-M   'P 1'
_cell_length_a   5.84597700
_cell_length_b   5.84597700
_cell_length_c   8.41295200
_cell_angle_alpha   90.00000000
_cell_angle_beta   90.00000000
_cell_angle_gamma   90.00000000
_symmetry_Int_Tables_number   1
_chemical_formula_structural   KNaLaNbO5
_chemical_formula_sum   'K2 Na2 La2 Nb2 O10'
_cell_volume   287.51639590
_cell_formula_units_Z   2
loop_
 _symmetry_equiv_pos_site_id
 _symmetry_equiv_pos_as_xyz
  1  'x, y, z'
loop_
 _atom_site_type_symbol
 _atom_site_label
 _atom_site_symmetry_multiplicity
 _atom_site_fract_x
 _atom_site_fract_y
 _atom_site_fract_z
 _atom_site_occupancy
  K  K0  1  0.50000000  0.50000000  0.00000000  1
  K  K1  1  0.00000000  0.00000000  0.00000000  1
  Na  Na0  1  0.00000000  0.50000000  0.24148100  1
  Na  Na1  1  0.50000000  0.00000000  0.75851900  1
  La  La0  1  0.00000000  0.00000000  0.50000000  1
  La  La1  1  0.50000000  0.50000000  0.50000000  1
  Nb  Nb0  1  0.00000000  0.50000000  0.74467400  1
  Nb  Nb1  1  0.50000000  0.00000000  0.25532600  1
  O  O0  1  0.00000000  0.50000000  0.96673300  1
  O  O1  1  0.50000000  0.00000000  0.03326700  1
  O  O2  1  0.77077600  0.72922400  0.67289600  1
  O  O3  1  0.22922400  0.27077600  0.67289600  1
  O  O4  1  0.72922400  0.77077600  0.32710400  1
  O  O5  1  0.22922400  0.72922400  0.67289600  1
  O  O6  1  0.77077600  0.27077600  0.67289600  1
  O  O7  1  0.72922400  0.22922400  0.32710400  1
  O  O8  1  0.27077600  0.22922400  0.32710400  1
  O  O9  1  0.27077600  0.77077600  0.32710400  1
loop_
_geom_bond_atom_site_label_1
_geom_bond_atom_site_label_2
_geom_bond_distance
_geom_bond_site_symmetry_2
K0 O0 2.936357 1_654
K0 O0 2.936357 1_554
K0 O1 2.936357 1_555
K0 O1 2.936357 1_565
K1 O0 2.936357 1_544
K1 O0 2.936357 1_554
K1 O1 2.936357 1_555
K1 O1 2.936357 1_455
Na0 O0 2.311442 1_554
Na0 O9 2.351671 1_555
Na0 O8 2.351671 1_555
Na0 O4 2.351671 1_455
Na0 O7 2.351671 1_455
Na1 O1 2.311442 1_556
Na1 O6 2.351671 1_555
Na1 O3 2.351671 1_555
Na1 O2 2.351671 1_545
Na1 O5 2.351671 1_545
La0 O3 2.533218 1_555
La0 O6 2.533218 1_455
La0 O5 2.533218 1_545
La0 O8 2.533218 1_555
La0 O2 2.533218 1_445
La0 O9 2.533218 1_545
La0 O7 2.533218 1_455
La0 O4 2.533218 1_445
La1 O2 2.533218 1_555
La1 O6 2.533218 1_555
La1 O5 2.533218 1_555
La1 O4 2.533218 1_555
La1 O3 2.533218 1_555
La1 O9 2.533218 1_555
La1 O7 2.533218 1_555
La1 O8 2.533218 1_555
Nb0 O0 1.868172 1_555
Nb0 O5 1.988984 1_555
Nb0 O2 1.988984 1_455
Nb0 O3 1.988984 1_555
Nb0 O6 1.988984 1_455
Nb1 O1 1.868172 1_555
Nb1 O7 1.988984 1_555
Nb1 O4 1.988984 1_545
Nb1 O8 1.988984 1_555
Nb1 O9 1.988984 1_545
