# generated using pymatgen
data_Ba4Y2Fe2O11
_symmetry_space_group_name_H-M   'P 1'
_cell_length_a   6.14441800
_cell_length_b   8.22726400
_cell_length_c   12.32419800
_cell_angle_alpha   90.00000000
_cell_angle_beta   90.00000000
_cell_angle_gamma   90.00000000
_symmetry_Int_Tables_number   1
_chemical_formula_structural   Ba4Y2Fe2O11
_chemical_formula_sum   'Ba8 Y4 Fe4 O22'
_cell_volume   623.00976407
_cell_formula_units_Z   2
loop_
 _symmetry_equiv_pos_site_id
 _symmetry_equiv_pos_as_xyz
  1  'x, y, z'
loop_
 _atom_site_type_symbol
 _atom_site_label
 _atom_site_symmetry_multiplicity
 _atom_site_fract_x
 _atom_site_fract_y
 _atom_site_fract_z
 _atom_site_occupancy
  Ba  Ba0  1  0.72658000  0.23789700  0.86745800  1
  Ba  Ba1  1  0.72658000  0.76210300  0.86745800  1
  Ba  Ba2  1  0.22658000  0.76210300  0.13254200  1
  Ba  Ba3  1  0.22658000  0.23789700  0.13254200  1
  Ba  Ba4  1  0.24387900  0.22897500  0.60712000  1
  Ba  Ba5  1  0.24387900  0.77102500  0.60712000  1
  Ba  Ba6  1  0.74387900  0.77102500  0.39288000  1
  Ba  Ba7  1  0.74387900  0.22897500  0.39288000  1
  Y  Y0  1  0.74345800  0.50000000  0.62500500  1
  Y  Y1  1  0.24345800  0.50000000  0.37499500  1
  Y  Y2  1  0.22445400  0.00000000  0.87434800  1
  Y  Y3  1  0.72445400  0.00000000  0.12565200  1
  Fe  Fe0  1  0.73098400  0.00000000  0.63816900  1
  Fe  Fe1  1  0.23098400  0.00000000  0.36183100  1
  Fe  Fe2  1  0.22061400  0.50000000  0.84108900  1
  Fe  Fe3  1  0.72061400  0.50000000  0.15891100  1
  O  O0  1  0.52393100  0.50000000  0.48475900  1
  O  O1  1  0.02393100  0.50000000  0.51524100  1
  O  O2  1  0.75532200  0.22844000  0.62819600  1
  O  O3  1  0.75532200  0.77156000  0.62819600  1
  O  O4  1  0.25532200  0.77156000  0.37180400  1
  O  O5  1  0.25532200  0.22844000  0.37180400  1
  O  O6  1  0.23238100  0.29217000  0.89615800  1
  O  O7  1  0.23238100  0.70783000  0.89615800  1
  O  O8  1  0.73238100  0.70783000  0.10384200  1
  O  O9  1  0.73238100  0.29217000  0.10384200  1
  O  O10  1  0.45811400  0.50000000  0.75083700  1
  O  O11  1  0.95811400  0.50000000  0.24916300  1
  O  O12  1  0.44398500  0.50000000  0.21352100  1
  O  O13  1  0.94398500  0.50000000  0.78647900  1
  O  O14  1  0.49850200  0.00000000  0.75461200  1
  O  O15  1  0.99850200  0.00000000  0.24538800  1
  O  O16  1  0.47970900  0.00000000  0.26366500  1
  O  O17  1  0.97970900  0.00000000  0.73633500  1
  O  O18  1  0.44110900  0.00000000  0.01524500  1
  O  O19  1  0.94110900  0.00000000  0.98475500  1
  O  O20  1  0.53881500  0.00000000  0.51944600  1
  O  O21  1  0.03881500  0.00000000  0.48055400  1
loop_
_geom_bond_atom_site_label_1
_geom_bond_atom_site_label_2
_geom_bond_distance
_geom_bond_site_symmetry_2
Ba0 O13 2.725887 1_555
Ba0 O19 2.767321 1_555
Ba0 O14 2.780087 1_555
Ba0 O9 2.947479 1_556
Ba0 O2 2.955021 1_555
Ba0 O17 2.976786 1_555
Ba0 O10 3.071939 1_555
Ba0 O6 3.089533 1_555
Ba0 O6 3.159626 1_655
Ba0 O18 3.197630 1_556
Ba1 O13 2.725887 1_555
Ba1 O19 2.767321 1_565
Ba1 O14 2.780087 1_565
Ba1 O8 2.947479 1_556
Ba1 O3 2.955021 1_555
Ba1 O17 2.976786 1_565
Ba1 O10 3.071939 1_555
Ba1 O7 3.089533 1_555
Ba1 O7 3.159626 1_655
Ba1 O18 3.197630 1_566
Ba2 O12 2.725887 1_555
Ba2 O18 2.767321 1_565
Ba2 O15 2.780087 1_465
Ba2 O7 2.947479 1_554
Ba2 O4 2.955021 1_555
Ba2 O16 2.976786 1_565
Ba2 O11 3.071939 1_455
Ba2 O8 3.089533 1_455
Ba2 O8 3.159626 1_555
Ba2 O19 3.197630 1_464
Ba3 O12 2.725887 1_555
Ba3 O18 2.767321 1_555
Ba3 O15 2.780087 1_455
Ba3 O6 2.947479 1_554
Ba3 O5 2.955021 1_555
Ba3 O16 2.976786 1_555
Ba3 O11 3.071939 1_455
Ba3 O9 3.089533 1_455
Ba3 O9 3.159626 1_555
Ba3 O19 3.197630 1_454
Ba4 O21 2.751271 1_555
Ba4 O20 2.828508 1_555
Ba4 O1 2.842638 1_555
Ba4 O5 2.900937 1_555
Ba4 O17 2.952879 1_455
Ba4 O2 3.013118 1_455
Ba4 O14 3.049696 1_555
Ba4 O10 3.137180 1_555
Ba4 O2 3.153239 1_555
Ba4 O0 3.194848 1_555
Ba5 O21 2.751271 1_565
Ba5 O20 2.828508 1_565
Ba5 O1 2.842638 1_555
Ba5 O4 2.900937 1_555
Ba5 O17 2.952879 1_465
Ba5 O3 3.013118 1_455
Ba5 O14 3.049696 1_565
Ba5 O10 3.137180 1_555
Ba5 O3 3.153239 1_555
Ba5 O0 3.194848 1_555
Ba6 O20 2.751271 1_565
Ba6 O21 2.828508 1_665
Ba6 O0 2.842638 1_555
Ba6 O3 2.900937 1_555
Ba6 O16 2.952879 1_565
Ba6 O4 3.013118 1_555
Ba6 O15 3.049696 1_565
Ba6 O11 3.137180 1_555
Ba6 O4 3.153239 1_655
Ba6 O1 3.194848 1_655
Ba7 O20 2.751271 1_555
Ba7 O21 2.828508 1_655
Ba7 O0 2.842638 1_555
Ba7 O2 2.900937 1_555
Ba7 O16 2.952879 1_555
Ba7 O5 3.013118 1_555
Ba7 O15 3.049696 1_555
Ba7 O11 3.137180 1_555
Ba7 O5 3.153239 1_655
Ba7 O1 3.194848 1_655
Fe0 O20 1.880177 1_555
Fe0 O3 1.889378 1_545
Fe0 O2 1.889378 1_555
Fe0 O17 1.949171 1_555
Fe0 O14 2.024829 1_555
Fe1 O21 1.880177 1_555
Fe1 O4 1.889378 1_545
Fe1 O5 1.889378 1_555
Fe1 O16 1.949171 1_555
Fe1 O15 2.024829 1_455
Fe2 O13 1.828120 1_455
Fe2 O10 1.834865 1_555
Fe2 O6 1.841059 1_555
Fe2 O7 1.841059 1_555
Fe3 O12 1.828120 1_555
Fe3 O11 1.834865 1_555
Fe3 O9 1.841059 1_555
Fe3 O8 1.841059 1_555
O0 Y1 2.190857 1_555
O0 Y0 2.192458 1_555
O1 Y0 2.190857 1_455
O1 Y1 2.192458 1_555
O2 Y0 2.235731 1_555
O3 Y0 2.235731 1_555
O4 Y1 2.235731 1_555
O5 Y1 2.235731 1_555
O6 Y2 2.419232 1_555
O7 Y2 2.419232 1_565
O8 Y3 2.419232 1_565
O9 Y3 2.419232 1_555
O10 Y0 2.340701 1_555
O11 Y1 2.340701 1_655
O12 Y1 2.340593 1_555
O13 Y0 2.340593 1_555
O14 Y2 2.238961 1_555
O15 Y3 2.238961 1_555
O16 Y3 2.270357 1_555
O17 Y2 2.270357 1_655
O18 Y2 2.188007 1_554
O18 Y3 2.209636 1_555
O19 Y3 2.188007 1_556
O19 Y2 2.209636 1_655
