# generated using pymatgen
data_Cd4Si(SeS)3
_symmetry_space_group_name_H-M   'P 1'
_cell_length_a   7.31724600
_cell_length_b   7.35094029
_cell_length_c   12.82695454
_cell_angle_alpha   90.07977971
_cell_angle_beta   73.42744580
_cell_angle_gamma   119.84848887
_symmetry_Int_Tables_number   1
_chemical_formula_structural   Cd4Si(SeS)3
_chemical_formula_sum   'Cd8 Si2 Se6 S6'
_cell_volume   565.30167343
_cell_formula_units_Z   2
loop_
 _symmetry_equiv_pos_site_id
 _symmetry_equiv_pos_as_xyz
  1  'x, y, z'
loop_
 _atom_site_type_symbol
 _atom_site_label
 _atom_site_symmetry_multiplicity
 _atom_site_fract_x
 _atom_site_fract_y
 _atom_site_fract_z
 _atom_site_occupancy
  Cd  Cd0  1  0.43026100  0.50658800  0.50320100  1
  Cd  Cd1  1  0.07312600  0.00658800  0.00320100  1
  Cd  Cd2  1  0.05454000  0.80838000  0.49846500  1
  Cd  Cd3  1  0.75537600  0.30838000  0.99846500  1
  Cd  Cd4  1  0.41160600  0.58072400  0.15256100  1
  Cd  Cd5  1  0.51655800  0.08072400  0.65256100  1
  Cd  Cd6  1  0.75537000  0.05906800  0.30778600  1
  Cd  Cd7  1  0.49591200  0.55906800  0.80778600  1
  Si  Si0  1  0.92317700  0.61674800  0.24601200  1
  Si  Si1  1  0.94755800  0.11674800  0.74601200  1
  Se  Se0  1  0.06650200  0.94410200  0.29683900  1
  Se  Se1  1  0.08076200  0.44410200  0.79683900  1
  Se  Se2  1  0.54505300  0.41769400  0.29592400  1
  Se  Se3  1  0.07671700  0.91769400  0.79592400  1
  Se  Se4  1  0.07795800  0.65516600  0.05950800  1
  Se  Se5  1  0.01769900  0.15516600  0.55950800  1
  S  S0  1  0.70831600  0.98850800  0.11588300  1
  S  S1  1  0.66430900  0.48850800  0.61588300  1
  S  S2  1  0.03893700  0.45117500  0.32022000  1
  S  S3  1  0.59201800  0.95117500  0.82022000  1
  S  S4  1  0.43538400  0.36184600  0.99359900  1
  S  S5  1  0.43286200  0.86184600  0.49359900  1
loop_
_geom_bond_atom_site_label_1
_geom_bond_atom_site_label_2
_geom_bond_distance
_geom_bond_site_symmetry_2
Cd0 S1 2.584351 1_555
Cd0 S5 2.604889 1_555
Cd0 Se5 2.703136 1_555
Cd0 Se2 2.732938 1_555
Cd1 S0 2.584351 1_445
Cd1 S4 2.604885 1_554
Cd1 Se4 2.703131 1_545
Cd1 Se3 2.732938 1_544
Cd2 S5 2.576858 1_555
Cd2 S1 2.612259 1_455
Cd2 Se0 2.735477 1_555
Cd2 Se5 2.782494 1_565
Cd3 S4 2.576873 1_555
Cd3 S0 2.612256 1_546
Cd3 Se1 2.735477 1_655
Cd3 Se4 2.782487 1_656
Cd4 S4 2.616043 1_554
Cd4 S0 2.619845 1_555
Cd4 S2 2.653900 1_555
Cd4 Se2 2.822520 1_555
Cd4 Se4 3.267788 1_555
Cd5 S5 2.616045 1_545
Cd5 S1 2.619847 1_555
Cd5 S3 2.653895 1_545
Cd5 Se3 2.822526 1_545
Cd5 Se5 3.267775 1_655
Cd6 S5 2.597489 1_545
Cd6 S0 2.597858 1_545
Cd6 S2 2.621636 1_655
Cd6 Se0 2.765764 1_645
Cd7 S4 2.597486 1_555
Cd7 S1 2.597858 1_555
Cd7 S3 2.621636 1_555
Cd7 Se1 2.765757 1_555
Se0 Si0 2.277951 1_455
Se1 Si1 2.277951 1_455
Se2 Si0 2.273415 1_555
Se3 Si1 2.273421 1_465
Se4 Si0 2.285465 1_455
Se5 Si1 2.285465 1_455
S2 Si0 2.143431 1_455
S3 Si1 2.143425 1_565
