# generated using pymatgen
data_K8AsO3
_symmetry_space_group_name_H-M   'P 1'
_cell_length_a   6.90314700
_cell_length_b   6.90314700
_cell_length_c   6.90314700
_cell_angle_alpha   90.00000000
_cell_angle_beta   90.00000000
_cell_angle_gamma   90.00000000
_symmetry_Int_Tables_number   1
_chemical_formula_structural   K8AsO3
_chemical_formula_sum   'K8 As1 O3'
_cell_volume   328.95869105
_cell_formula_units_Z   1
loop_
 _symmetry_equiv_pos_site_id
 _symmetry_equiv_pos_as_xyz
  1  'x, y, z'
loop_
 _atom_site_type_symbol
 _atom_site_label
 _atom_site_symmetry_multiplicity
 _atom_site_fract_x
 _atom_site_fract_y
 _atom_site_fract_z
 _atom_site_occupancy
  K  K0  1  0.26543100  0.26543100  0.26543100  1
  K  K1  1  0.73456900  0.73456900  0.26543100  1
  K  K2  1  0.73456900  0.26543100  0.73456900  1
  K  K3  1  0.26543100  0.73456900  0.73456900  1
  K  K4  1  0.26543100  0.26543100  0.73456900  1
  K  K5  1  0.73456900  0.73456900  0.73456900  1
  K  K6  1  0.73456900  0.26543100  0.26543100  1
  K  K7  1  0.26543100  0.73456900  0.26543100  1
  As  As0  1  0.00000000  0.00000000  0.00000000  1
  O  O0  1  0.00000000  0.50000000  0.50000000  1
  O  O1  1  0.50000000  0.50000000  0.00000000  1
  O  O2  1  0.50000000  0.00000000  0.50000000  1
loop_
_geom_bond_atom_site_label_1
_geom_bond_atom_site_label_2
_geom_bond_distance
_geom_bond_site_symmetry_2
K0 O1 2.932813 1_555
K0 O2 2.932813 1_555
K0 O0 2.932813 1_555
K1 O0 2.932813 1_655
K1 O1 2.932813 1_555
K1 O2 2.932813 1_565
K2 O1 2.932813 1_556
K2 O2 2.932813 1_555
K2 O0 2.932813 1_655
K3 O1 2.932813 1_556
K3 O2 2.932813 1_565
K3 O0 2.932813 1_555
K4 O1 2.932813 1_556
K4 O2 2.932813 1_555
K4 O0 2.932813 1_555
K5 O1 2.932813 1_556
K5 O2 2.932813 1_565
K5 O0 2.932813 1_655
K6 O0 2.932813 1_655
K6 O1 2.932813 1_555
K6 O2 2.932813 1_555
K7 O2 2.932813 1_565
K7 O1 2.932813 1_555
K7 O0 2.932813 1_555
As0 K2 3.173653 1_454
As0 K3 3.173653 1_544
As0 K6 3.173653 1_455
As0 K1 3.173653 1_445
As0 K5 3.173653 1_444
As0 K0 3.173653 1_555
As0 K7 3.173653 1_545
As0 K4 3.173653 1_554
