# generated using pymatgen
data_Rb4Mg(Se2O7)2
_symmetry_space_group_name_H-M   'P 1'
_cell_length_a   8.25606552
_cell_length_b   8.25606552
_cell_length_c   8.12698422
_cell_angle_alpha   95.51471141
_cell_angle_beta   95.51471141
_cell_angle_gamma   59.42313495
_symmetry_Int_Tables_number   1
_chemical_formula_structural   Rb4Mg(Se2O7)2
_chemical_formula_sum   'Rb4 Mg1 Se4 O14'
_cell_volume   473.99897872
_cell_formula_units_Z   1
loop_
 _symmetry_equiv_pos_site_id
 _symmetry_equiv_pos_as_xyz
  1  'x, y, z'
loop_
 _atom_site_type_symbol
 _atom_site_label
 _atom_site_symmetry_multiplicity
 _atom_site_fract_x
 _atom_site_fract_y
 _atom_site_fract_z
 _atom_site_occupancy
  Rb  Rb0  1  0.17258400  0.52516800  0.34678500  1
  Rb  Rb1  1  0.47483200  0.82741600  0.15321500  1
  Rb  Rb2  1  0.77962100  0.52385300  0.55397500  1
  Rb  Rb3  1  0.47614700  0.22037900  0.94602500  1
  Mg  Mg0  1  0.89115400  0.10884600  0.75000000  1
  Se  Se0  1  0.71902900  0.06879700  0.39153500  1
  Se  Se1  1  0.93120300  0.28097100  0.10846500  1
  Se  Se2  1  0.29757100  0.91022700  0.63902600  1
  Se  Se3  1  0.08977300  0.70242900  0.86097400  1
  O  O0  1  0.68719000  0.20144700  0.58190900  1
  O  O1  1  0.79855200  0.31281000  0.91809100  1
  O  O2  1  0.35959900  0.76745000  0.47211500  1
  O  O3  1  0.23254900  0.64040100  0.02788500  1
  O  O4  1  0.49740100  0.14952400  0.30595500  1
  O  O5  1  0.85047600  0.50259900  0.19404500  1
  O  O6  1  0.47584300  0.87924800  0.76700200  1
  O  O7  1  0.12075200  0.52415700  0.73299800  1
  O  O8  1  0.80182900  0.84489400  0.44725400  1
  O  O9  1  0.15510600  0.19817100  0.05274600  1
  O  O10  1  0.12058900  0.12856900  0.61682200  1
  O  O11  1  0.87143100  0.87941100  0.88317800  1
  O  O12  1  0.85407800  0.14592300  0.25000000  1
  O  O13  1  0.14269300  0.85730700  0.75000000  1
loop_
_geom_bond_atom_site_label_1
_geom_bond_atom_site_label_2
_geom_bond_distance
_geom_bond_site_symmetry_2
Mg0 O0 1.932642 1_555
Mg0 O1 1.932642 1_555
Mg0 O13 2.058589 1_645
Mg0 O10 2.351129 1_655
Mg0 O11 2.351129 1_545
O0 Se0 1.766869 1_555
O0 Rb2 3.152002 1_555
O1 Se1 1.766873 1_556
O1 Rb3 3.151994 1_555
O2 Se2 1.644337 1_555
O2 Rb1 3.011116 1_555
O2 Rb2 3.038227 1_555
O2 Rb0 3.141800 1_555
O3 Se3 1.644333 1_554
O3 Rb0 3.011113 1_555
O3 Rb3 3.038228 1_554
O3 Rb1 3.141807 1_555
O4 Se0 1.696992 1_555
O4 Rb0 2.903743 1_555
O4 Rb1 2.910825 1_545
O4 Rb3 3.009198 1_554
O5 Se1 1.696992 1_555
O5 Rb1 2.903743 1_555
O5 Rb0 2.910825 1_655
O5 Rb2 3.009198 1_555
O6 Se2 1.639307 1_555
O6 Rb3 3.044308 1_565
O6 Rb2 3.204380 1_555
O6 Rb1 3.209634 1_556
O7 Se3 1.639307 1_555
O7 Rb2 3.044308 1_455
O7 Rb3 3.204380 1_555
O7 Rb0 3.209634 1_555
O8 Se0 1.704486 1_565
O8 Rb2 2.962776 1_555
O8 Rb0 2.974862 1_655
O9 Se1 1.704486 1_455
O9 Rb3 2.962776 1_554
O9 Rb1 2.974862 1_545
O10 Se2 1.658068 1_545
O10 Rb2 3.087581 1_455
O11 Se3 1.658068 1_655
O11 Rb3 3.087581 1_565
O12 Se1 2.020210 1_555
O12 Se0 2.020221 1_555
O13 Se3 1.872188 1_555
O13 Se2 1.872188 1_555
