# generated using pymatgen
data_Si4SbO10
_symmetry_space_group_name_H-M   'P 1'
_cell_length_a   7.41671300
_cell_length_b   7.41671300
_cell_length_c   16.27354000
_cell_angle_alpha   90.00000000
_cell_angle_beta   90.00000000
_cell_angle_gamma   90.00000000
_symmetry_Int_Tables_number   1
_chemical_formula_structural   Si4SbO10
_chemical_formula_sum   'Si16 Sb4 O40'
_cell_volume   895.16889517
_cell_formula_units_Z   4
loop_
 _symmetry_equiv_pos_site_id
 _symmetry_equiv_pos_as_xyz
  1  'x, y, z'
loop_
 _atom_site_type_symbol
 _atom_site_label
 _atom_site_symmetry_multiplicity
 _atom_site_fract_x
 _atom_site_fract_y
 _atom_site_fract_z
 _atom_site_occupancy
  Si  Si0  1  0.17378400  0.25619300  0.65379500  1
  Si  Si1  1  0.82621600  0.74380700  0.65379500  1
  Si  Si2  1  0.25619300  0.17378400  0.84620500  1
  Si  Si3  1  0.75619300  0.32621600  0.65379500  1
  Si  Si4  1  0.24380700  0.67378400  0.65379500  1
  Si  Si5  1  0.32621600  0.75619300  0.84620500  1
  Si  Si6  1  0.67378400  0.24380700  0.84620500  1
  Si  Si7  1  0.74380700  0.82621600  0.84620500  1
  Si  Si8  1  0.32621600  0.24380700  0.34620500  1
  Si  Si9  1  0.67378400  0.75619300  0.34620500  1
  Si  Si10  1  0.24380700  0.32621600  0.15379500  1
  Si  Si11  1  0.74380700  0.17378400  0.34620500  1
  Si  Si12  1  0.25619300  0.82621600  0.34620500  1
  Si  Si13  1  0.17378400  0.74380700  0.15379500  1
  Si  Si14  1  0.82621600  0.25619300  0.15379500  1
  Si  Si15  1  0.75619300  0.67378400  0.15379500  1
  Sb  Sb0  1  0.50000000  0.00000000  0.56015200  1
  Sb  Sb1  1  0.00000000  0.50000000  0.93984800  1
  Sb  Sb2  1  0.00000000  0.50000000  0.43984800  1
  Sb  Sb3  1  0.50000000  0.00000000  0.06015200  1
  O  O0  1  0.26354900  0.09968400  0.59682200  1
  O  O1  1  0.73645100  0.90031600  0.59682200  1
  O  O2  1  0.09968400  0.26354900  0.90317800  1
  O  O3  1  0.59968400  0.23645100  0.59682200  1
  O  O4  1  0.40031600  0.76354900  0.59682200  1
  O  O5  1  0.23645100  0.59968400  0.90317800  1
  O  O6  1  0.76354900  0.40031600  0.90317800  1
  O  O7  1  0.90031600  0.73645100  0.90317800  1
  O  O8  1  0.23645100  0.40031600  0.40317800  1
  O  O9  1  0.76354900  0.59968400  0.40317800  1
  O  O10  1  0.40031600  0.23645100  0.09682200  1
  O  O11  1  0.90031600  0.26354900  0.40317800  1
  O  O12  1  0.09968400  0.73645100  0.40317800  1
  O  O13  1  0.26354900  0.90031600  0.09682200  1
  O  O14  1  0.73645100  0.09968400  0.09682200  1
  O  O15  1  0.25198600  0.04174300  0.36646000  1
  O  O16  1  0.59968400  0.76354900  0.09682200  1
  O  O17  1  0.75198600  0.54174300  0.63354000  1
  O  O18  1  0.45825700  0.24801400  0.86646000  1
  O  O19  1  0.95825700  0.25198600  0.63354000  1
  O  O20  1  0.04174300  0.74801400  0.63354000  1
  O  O21  1  0.25198600  0.95825700  0.86646000  1
  O  O22  1  0.74801400  0.04174300  0.86646000  1
  O  O23  1  0.54174300  0.75198600  0.86646000  1
  O  O24  1  0.71027500  0.71027500  0.25000000  1
  O  O25  1  0.78972500  0.21027500  0.25000000  1
  O  O26  1  0.21027500  0.78972500  0.25000000  1
  O  O27  1  0.28972500  0.28972500  0.25000000  1
  O  O28  1  0.78972500  0.78972500  0.75000000  1
  O  O29  1  0.71027500  0.28972500  0.75000000  1
  O  O30  1  0.28972500  0.71027500  0.75000000  1
  O  O31  1  0.21027500  0.21027500  0.75000000  1
  O  O32  1  0.95825700  0.74801400  0.13354000  1
  O  O33  1  0.75198600  0.45825700  0.13354000  1
  O  O34  1  0.24801400  0.54174300  0.13354000  1
  O  O35  1  0.45825700  0.75198600  0.36646000  1
  O  O36  1  0.54174300  0.24801400  0.36646000  1
  O  O37  1  0.04174300  0.25198600  0.13354000  1
  O  O38  1  0.74801400  0.95825700  0.36646000  1
  O  O39  1  0.24801400  0.45825700  0.63354000  1
loop_
_geom_bond_atom_site_label_1
_geom_bond_atom_site_label_2
_geom_bond_distance
_geom_bond_site_symmetry_2
O0 Si0 1.627964 1_555
O0 Sb0 1.994528 1_555
O1 Si1 1.627964 1_555
O1 Sb0 1.994528 1_565
O2 Si2 1.627964 1_555
O2 Sb1 1.994528 1_555
O3 Si3 1.627964 1_555
O3 Sb0 1.994528 1_555
O4 Si4 1.627964 1_555
O4 Sb0 1.994528 1_565
O5 Si5 1.627964 1_555
O5 Sb1 1.994528 1_555
O6 Si6 1.627964 1_555
O6 Sb1 1.994528 1_655
O7 Si7 1.627964 1_555
O7 Sb1 1.994528 1_655
O8 Si8 1.627964 1_555
O8 Sb2 1.994528 1_555
O9 Si9 1.627964 1_555
O9 Sb2 1.994528 1_655
O10 Si10 1.627964 1_555
O10 Sb3 1.994528 1_555
O11 Si11 1.627964 1_555
O11 Sb2 1.994528 1_655
O12 Si12 1.627964 1_555
O12 Sb2 1.994528 1_555
O13 Si13 1.627964 1_555
O13 Sb3 1.994528 1_565
O14 Si14 1.627964 1_555
O14 Sb3 1.994528 1_555
O15 Si8 1.630246 1_555
O15 Si12 1.632431 1_545
O16 Si15 1.627964 1_555
O16 Sb3 1.994528 1_565
O17 Si1 1.630246 1_555
O17 Si3 1.632431 1_555
O18 Si2 1.630246 1_555
O18 Si6 1.632431 1_555
O19 Si3 1.630246 1_555
O19 Si0 1.632431 1_655
O20 Si4 1.630246 1_555
O20 Si1 1.632431 1_455
O21 Si5 1.630246 1_555
O21 Si2 1.632431 1_565
O22 Si6 1.630246 1_555
O22 Si7 1.632431 1_545
O23 Si7 1.630246 1_555
O23 Si5 1.632431 1_555
O24 Si9 1.624906 1_555
O24 Si15 1.624906 1_555
O25 Si11 1.624906 1_555
O25 Si14 1.624906 1_555
O26 Si12 1.624906 1_555
O26 Si13 1.624906 1_555
O27 Si8 1.624906 1_555
O27 Si10 1.624906 1_555
O28 Si7 1.624906 1_555
O28 Si1 1.624906 1_555
O29 Si3 1.624906 1_555
O29 Si6 1.624906 1_555
O30 Si5 1.624906 1_555
O30 Si4 1.624906 1_555
O31 Si2 1.624906 1_555
O31 Si0 1.624906 1_555
O32 Si15 1.630246 1_555
O32 Si13 1.632431 1_655
O33 Si14 1.630246 1_555
O33 Si15 1.632431 1_555
O34 Si13 1.630246 1_555
O34 Si10 1.632431 1_555
O35 Si12 1.630246 1_555
O35 Si9 1.632431 1_555
O36 Si11 1.630246 1_555
O36 Si8 1.632431 1_555
O37 Si10 1.630246 1_555
O37 Si14 1.632431 1_455
O38 Si9 1.630246 1_555
O38 Si11 1.632431 1_565
O39 Si0 1.630246 1_555
O39 Si4 1.632431 1_555
