# generated using pymatgen
data_Te4Mo(WS)2
_symmetry_space_group_name_H-M   'P 1'
_cell_length_a   3.42545248
_cell_length_b   3.42545248
_cell_length_c   31.75964600
_cell_angle_alpha   90.00000000
_cell_angle_beta   90.00000000
_cell_angle_gamma   120.00000918
_symmetry_Int_Tables_number   1
_chemical_formula_structural   Te4Mo(WS)2
_chemical_formula_sum   'Te4 Mo1 W2 S2'
_cell_volume   322.73208039
_cell_formula_units_Z   1
loop_
 _symmetry_equiv_pos_site_id
 _symmetry_equiv_pos_as_xyz
  1  'x, y, z'
loop_
 _atom_site_type_symbol
 _atom_site_label
 _atom_site_symmetry_multiplicity
 _atom_site_fract_x
 _atom_site_fract_y
 _atom_site_fract_z
 _atom_site_occupancy
  Te  Te0  1  0.00000000  0.00000000  0.40573300  1
  Te  Te1  1  0.33333300  0.66666700  0.51953900  1
  Te  Te2  1  0.33333300  0.66666700  0.63740300  1
  Te  Te3  1  0.00000000  0.00000000  0.28786600  1
  Mo  Mo0  1  0.00000000  0.00000000  0.11565500  1
  W  W0  1  0.00000000  0.00000000  0.57850200  1
  W  W1  1  0.33333300  0.66666700  0.34679300  1
  S  S0  1  0.33333300  0.66666700  0.06853800  1
  S  S1  1  0.33333300  0.66666700  0.16281200  1
loop_
_geom_bond_atom_site_label_1
_geom_bond_atom_site_label_2
_geom_bond_distance
_geom_bond_site_symmetry_2
Te0 W1 2.723104 1_545
Te0 W1 2.723106 1_555
Te0 W1 2.723106 1_445
Te1 W0 2.723606 1_565
Te1 W0 2.723608 1_665
Te1 W0 2.723608 1_555
Te2 W0 2.722253 1_565
Te2 W0 2.722254 1_555
Te2 W0 2.722254 1_665
Te3 W1 2.722820 1_545
Te3 W1 2.722822 1_555
Te3 W1 2.722822 1_445
Mo0 S0 2.480021 1_545
Mo0 S0 2.480023 1_555
Mo0 S0 2.480023 1_445
Mo0 S1 2.480788 1_545
Mo0 S1 2.480790 1_445
Mo0 S1 2.480790 1_555
