# generated using pymatgen
data_Na4NO
_symmetry_space_group_name_H-M   'P 1'
_cell_length_a   4.01466400
_cell_length_b   4.01466400
_cell_length_c   5.87486000
_cell_angle_alpha   90.00000000
_cell_angle_beta   90.00000000
_cell_angle_gamma   90.00000000
_symmetry_Int_Tables_number   1
_chemical_formula_structural   Na4NO
_chemical_formula_sum   'Na4 N1 O1'
_cell_volume   94.68821486
_cell_formula_units_Z   1
loop_
 _symmetry_equiv_pos_site_id
 _symmetry_equiv_pos_as_xyz
  1  'x, y, z'
loop_
 _atom_site_type_symbol
 _atom_site_label
 _atom_site_symmetry_multiplicity
 _atom_site_fract_x
 _atom_site_fract_y
 _atom_site_fract_z
 _atom_site_occupancy
  Na  Na0  1  0.00000000  0.50000000  0.26192400  1
  Na  Na1  1  0.50000000  0.00000000  0.73807600  1
  Na  Na2  1  0.00000000  0.50000000  0.73807600  1
  Na  Na3  1  0.50000000  0.00000000  0.26192400  1
  N  N0  1  0.00000000  0.00000000  0.00000000  1
  O  O0  1  0.50000000  0.50000000  0.50000000  1
loop_
_geom_bond_atom_site_label_1
_geom_bond_atom_site_label_2
_geom_bond_distance
_geom_bond_site_symmetry_2
Na0 O0 2.446557 1_555
Na0 O0 2.446557 1_455
Na1 O0 2.446557 1_545
Na1 O0 2.446557 1_555
Na2 O0 2.446557 1_555
Na2 O0 2.446557 1_455
Na3 O0 2.446557 1_545
Na3 O0 2.446557 1_555
N0 Na2 2.529266 1_554
N0 Na2 2.529266 1_544
N0 Na0 2.529266 1_555
N0 Na3 2.529266 1_555
N0 Na1 2.529266 1_454
N0 Na1 2.529266 1_554
N0 Na3 2.529266 1_455
N0 Na0 2.529266 1_545
