# generated using pymatgen
data_NdAsO4
_symmetry_space_group_name_H-M   'P 1'
_cell_length_a   6.84642559
_cell_length_b   6.84641035
_cell_length_c   6.84642099
_cell_angle_alpha   136.03322193
_cell_angle_beta   136.03328192
_cell_angle_gamma   63.92896081
_symmetry_Int_Tables_number   1
_chemical_formula_structural   NdAsO4
_chemical_formula_sum   'Nd2 As2 O8'
_cell_volume   152.60394245
_cell_formula_units_Z   2
loop_
 _symmetry_equiv_pos_site_id
 _symmetry_equiv_pos_as_xyz
  1  'x, y, z'
loop_
 _atom_site_type_symbol
 _atom_site_label
 _atom_site_symmetry_multiplicity
 _atom_site_fract_x
 _atom_site_fract_y
 _atom_site_fract_z
 _atom_site_occupancy
  Nd  Nd0  1  0.75000077  0.25000088  0.50000092  1
  Nd  Nd1  1  -0.00000102  -0.00000054  -0.00000093  1
  As  As0  1  0.24999847  0.75000159  0.49999988  1
  As  As1  1  0.50000138  0.49999841  0.00000007  1
  O  O0  1  0.30914360  0.91825799  0.88305595  1
  O  O1  1  0.03520225  0.42608874  0.11694485  1
  O  O2  1  0.17608672  0.55914368  0.89088547  1
  O  O3  1  0.66825676  0.28520232  0.10911313  1
  O  O4  1  0.44085623  0.33174195  0.61694379  1
  O  O5  1  0.71479774  0.82391124  0.38305521  1
  O  O6  1  0.57391370  0.69085609  0.60911461  1
  O  O7  1  0.08174340  0.96479766  0.39088704  1
loop_
_geom_bond_atom_site_label_1
_geom_bond_atom_site_label_2
_geom_bond_distance
_geom_bond_site_symmetry_2
Nd0 O6 2.444138 1_555
Nd0 O1 2.444146 1_656
Nd0 O0 2.444150 1_544
Nd0 O7 2.444152 1_645
Nd0 O2 2.487383 1_655
Nd0 O3 2.487397 1_555
Nd0 O4 2.487399 1_555
Nd0 O5 2.487400 1_545
Nd1 O2 2.444142 1_544
Nd1 O5 2.444145 1_444
Nd1 O4 2.444149 1_555
Nd1 O3 2.444150 1_455
Nd1 O6 2.487382 1_444
Nd1 O1 2.487398 1_555
Nd1 O7 2.487399 1_545
Nd1 O0 2.487400 1_544
As0 O7 1.703316 1_555
As0 O1 1.703332 1_555
As0 O0 1.703335 1_555
As0 O6 1.703353 1_555
As1 O3 1.703317 1_555
As1 O5 1.703332 1_555
As1 O4 1.703336 1_554
As1 O2 1.703350 1_554
