# generated using pymatgen
data_MgCo4(CuO4)3
_symmetry_space_group_name_H-M   'P 1'
_cell_length_a   6.23830314
_cell_length_b   6.23830314
_cell_length_c   6.23830314
_cell_angle_alpha   109.47122063
_cell_angle_beta   109.47122063
_cell_angle_gamma   109.47122063
_symmetry_Int_Tables_number   1
_chemical_formula_structural   MgCo4(CuO4)3
_chemical_formula_sum   'Mg1 Co4 Cu3 O12'
_cell_volume   186.88632954
_cell_formula_units_Z   1
loop_
 _symmetry_equiv_pos_site_id
 _symmetry_equiv_pos_as_xyz
  1  'x, y, z'
loop_
 _atom_site_type_symbol
 _atom_site_label
 _atom_site_symmetry_multiplicity
 _atom_site_fract_x
 _atom_site_fract_y
 _atom_site_fract_z
 _atom_site_occupancy
  Mg  Mg0  1  0.00000000  0.00000000  0.00000000  1
  Co  Co0  1  0.00000000  0.50000000  0.00000000  1
  Co  Co1  1  0.50000000  0.00000000  0.00000000  1
  Co  Co2  1  0.50000000  0.50000000  0.50000000  1
  Co  Co3  1  0.00000000  0.00000000  0.50000000  1
  Cu  Cu0  1  0.50000000  0.00000000  0.50000000  1
  Cu  Cu1  1  0.50000000  0.50000000  0.00000000  1
  Cu  Cu2  1  0.00000000  0.50000000  0.50000000  1
  O  O0  1  0.30565500  0.13372700  0.82807100  1
  O  O1  1  0.69434500  0.86627300  0.17192900  1
  O  O2  1  0.69434500  0.52241600  0.82807100  1
  O  O3  1  0.47758400  0.17192900  0.30565500  1
  O  O4  1  0.17192900  0.30565500  0.47758400  1
  O  O5  1  0.82807100  0.30565500  0.13372700  1
  O  O6  1  0.86627300  0.17192900  0.69434500  1
  O  O7  1  0.82807100  0.69434500  0.52241600  1
  O  O8  1  0.30565500  0.47758400  0.17192900  1
  O  O9  1  0.52241600  0.82807100  0.69434500  1
  O  O10  1  0.17192900  0.69434500  0.86627300  1
  O  O11  1  0.13372700  0.82807100  0.30565500  1
loop_
_geom_bond_atom_site_label_1
_geom_bond_atom_site_label_2
_geom_bond_distance
_geom_bond_site_symmetry_2
Mg0 O3 2.526162 1_555
Mg0 O4 2.526162 1_555
Mg0 O8 2.526162 1_555
Mg0 O9 2.526162 1_444
Mg0 O7 2.526162 1_444
Mg0 O2 2.526162 1_444
Mg0 O5 2.526163 1_455
Mg0 O11 2.526163 1_545
Mg0 O0 2.526163 1_554
Mg0 O10 2.526163 1_544
Mg0 O6 2.526163 1_454
Mg0 O1 2.526163 1_445
Co0 O6 1.928735 1_454
Co0 O11 1.928735 1_555
Co0 O2 1.928736 1_454
Co0 O8 1.928736 1_555
Co0 O5 1.928742 1_455
Co0 O10 1.928742 1_554
Co1 O10 1.928735 1_544
Co1 O5 1.928735 1_555
Co1 O9 1.928736 1_544
Co1 O3 1.928736 1_555
Co1 O0 1.928742 1_554
Co1 O1 1.928742 1_545
Co2 O4 1.928736 1_555
Co2 O3 1.928736 1_555
Co2 O8 1.928736 1_555
Co2 O9 1.928736 1_555
Co2 O7 1.928736 1_555
Co2 O2 1.928736 1_555
Co3 O1 1.928735 1_445
Co3 O0 1.928735 1_555
Co3 O7 1.928736 1_445
Co3 O4 1.928736 1_555
Co3 O11 1.928742 1_545
Co3 O6 1.928742 1_455
Cu0 O6 1.869122 1_555
Cu0 O11 1.869122 1_545
Cu0 O9 1.869127 1_545
Cu0 O3 1.869127 1_555
Cu1 O1 1.869122 1_555
Cu1 O0 1.869122 1_554
Cu1 O2 1.869127 1_554
Cu1 O8 1.869127 1_555
Cu2 O10 1.869122 1_555
Cu2 O5 1.869122 1_455
Cu2 O7 1.869127 1_455
Cu2 O4 1.869127 1_555
