# generated using pymatgen
data_Ti3(HO2)4
_symmetry_space_group_name_H-M   'P 1'
_cell_length_a   13.23517353
_cell_length_b   13.23517353
_cell_length_c   11.60001095
_cell_angle_alpha   69.59354243
_cell_angle_beta   69.59354243
_cell_angle_gamma   12.77822218
_symmetry_Int_Tables_number   1
_chemical_formula_structural   Ti3(HO2)4
_chemical_formula_sum   'Ti6 H8 O16'
_cell_volume   420.85664151
_cell_formula_units_Z   2
loop_
 _symmetry_equiv_pos_site_id
 _symmetry_equiv_pos_as_xyz
  1  'x, y, z'
loop_
 _atom_site_type_symbol
 _atom_site_label
 _atom_site_symmetry_multiplicity
 _atom_site_fract_x
 _atom_site_fract_y
 _atom_site_fract_z
 _atom_site_occupancy
  Ti  Ti0  1  0.20866200  0.20866200  0.80412800  1
  Ti  Ti1  1  0.79133800  0.79133800  0.19587200  1
  Ti  Ti2  1  0.17548000  0.17548000  0.54077700  1
  Ti  Ti3  1  0.82452000  0.82452000  0.45922300  1
  Ti  Ti4  1  0.12516200  0.12516200  0.13059800  1
  Ti  Ti5  1  0.87483800  0.87483800  0.86940200  1
  H  H0  1  0.45674500  0.45674500  0.11714100  1
  H  H1  1  0.54325500  0.54325500  0.88285900  1
  H  H2  1  0.40087400  0.40087400  0.47845800  1
  H  H3  1  0.59912600  0.59912600  0.52154200  1
  H  H4  1  0.08373100  0.08373100  0.80236000  1
  H  H5  1  0.91626900  0.91626900  0.19764000  1
  H  H6  1  0.98277200  0.98277200  0.84318400  1
  H  H7  1  0.01722800  0.01722800  0.15681600  1
  O  O0  1  0.16476100  0.16476100  0.96203000  1
  O  O1  1  0.83523900  0.83523900  0.03797000  1
  O  O2  1  0.35654900  0.35654900  0.80119600  1
  O  O3  1  0.64345100  0.64345100  0.19880400  1
  O  O4  1  0.16499200  0.16499200  0.70551100  1
  O  O5  1  0.83500800  0.83500800  0.29448900  1
  O  O6  1  0.28851900  0.28851900  0.53672300  1
  O  O7  1  0.71148100  0.71148100  0.46327700  1
  O  O8  1  0.10768400  0.10768400  0.52674100  1
  O  O9  1  0.89231600  0.89231600  0.47325900  1
  O  O10  1  0.24890100  0.24890100  0.22447300  1
  O  O11  1  0.75109900  0.75109900  0.77552700  1
  O  O12  1  0.05538400  0.05538400  0.15250900  1
  O  O13  1  0.94461600  0.94461600  0.84749100  1
  O  O14  1  0.04725000  0.04725000  0.86638900  1
  O  O15  1  0.95275000  0.95275000  0.13361100  1
loop_
_geom_bond_atom_site_label_1
_geom_bond_atom_site_label_2
_geom_bond_distance
_geom_bond_site_symmetry_2
H0 O15 1.484125 1_545
H0 O15 1.484125 1_455
H1 O14 1.484125 1_565
H1 O14 1.484125 1_655
H2 O9 1.494329 1_455
H2 O9 1.494329 1_545
H3 O8 1.494329 1_655
H3 O8 1.494329 1_565
H4 O14 0.986130 1_555
H5 O15 0.986130 1_555
H6 O13 0.987309 1_555
H7 O12 0.987309 1_555
O0 Ti0 1.790069 1_555
O0 Ti4 1.865299 1_556
O1 Ti1 1.790069 1_555
O1 Ti5 1.865299 1_554
O2 Ti5 1.814863 1_455
O2 Ti5 1.814863 1_545
O3 Ti4 1.814863 1_655
O3 Ti4 1.814863 1_565
O4 Ti2 1.832421 1_555
O4 Ti0 1.884277 1_555
O5 Ti3 1.832421 1_555
O5 Ti1 1.884277 1_555
O6 Ti3 1.810201 1_455
O6 Ti3 1.810201 1_545
O7 Ti2 1.810201 1_565
O7 Ti2 1.810201 1_655
O8 Ti2 1.846868 1_555
O9 Ti3 1.846868 1_555
O10 Ti1 1.807091 1_455
O10 Ti1 1.807091 1_545
O11 Ti0 1.807091 1_565
O11 Ti0 1.807091 1_655
O12 Ti4 1.762544 1_555
O13 Ti5 1.762544 1_555
