# generated using pymatgen
data_KLiMoO5
_symmetry_space_group_name_H-M   'P 1'
_cell_length_a   7.11430110
_cell_length_b   10.68460007
_cell_length_c   12.48484197
_cell_angle_alpha   90.00000000
_cell_angle_beta   90.00000000
_cell_angle_gamma   90.00000000
_symmetry_Int_Tables_number   1
_chemical_formula_structural   KLiMoO5
_chemical_formula_sum   'K8 Li8 Mo8 O40'
_cell_volume   949.01606105
_cell_formula_units_Z   8
loop_
 _symmetry_equiv_pos_site_id
 _symmetry_equiv_pos_as_xyz
  1  'x, y, z'
loop_
 _atom_site_type_symbol
 _atom_site_label
 _atom_site_symmetry_multiplicity
 _atom_site_fract_x
 _atom_site_fract_y
 _atom_site_fract_z
 _atom_site_occupancy
  K  K0  1  0.84102573  0.69579387  0.63239170  1
  K  K1  1  0.15897427  0.30420613  0.36760830  1
  K  K2  1  0.65897427  0.19579387  0.36760830  1
  K  K3  1  0.15897427  0.80420613  0.13239170  1
  K  K4  1  0.34102573  0.80420613  0.63239170  1
  K  K5  1  0.84102573  0.19579387  0.86760830  1
  K  K6  1  0.34102573  0.30420613  0.86760830  1
  K  K7  1  0.65897427  0.69579387  0.13239170  1
  Li  Li0  1  0.02473321  0.91622467  0.83381905  1
  Li  Li1  1  0.97526779  0.08377533  0.16618095  1
  Li  Li2  1  0.47526679  0.41622467  0.16618095  1
  Li  Li3  1  0.97526779  0.58377533  0.33381905  1
  Li  Li4  1  0.52473321  0.58377533  0.83381905  1
  Li  Li5  1  0.02473321  0.41622467  0.66618095  1
  Li  Li6  1  0.52473321  0.08377533  0.66618095  1
  Li  Li7  1  0.47526679  0.91622467  0.33381905  1
  Mo  Mo0  1  0.57984895  0.88608940  0.88269862  1
  Mo  Mo1  1  0.42015105  0.11391060  0.11730138  1
  Mo  Mo2  1  0.92015105  0.38608940  0.11730138  1
  Mo  Mo3  1  0.42015105  0.61391060  0.38269862  1
  Mo  Mo4  1  0.07984895  0.61391060  0.88269862  1
  Mo  Mo5  1  0.57984895  0.38608940  0.61730138  1
  Mo  Mo6  1  0.07984895  0.11391060  0.61730138  1
  Mo  Mo7  1  0.92015105  0.88608940  0.38269862  1
  O  O0  1  0.80566172  0.94024031  0.91821028  1
  O  O1  1  0.19433828  0.05975969  0.08178972  1
  O  O2  1  0.69433828  0.44024031  0.08178972  1
  O  O3  1  0.19433828  0.55975969  0.41821028  1
  O  O4  1  0.30566172  0.55975969  0.91821028  1
  O  O5  1  0.80566172  0.44024031  0.58178972  1
  O  O6  1  0.30566172  0.05975969  0.58178972  1
  O  O7  1  0.69433828  0.94024031  0.41821028  1
  O  O8  1  0.95205117  0.65056481  -0.00263847  1
  O  O9  1  0.04794883  0.34943519  0.00263847  1
  O  O10  1  0.54794883  0.15056481  0.00263847  1
  O  O11  1  0.04794883  0.84943519  0.49736153  1
  O  O12  1  0.45205117  0.84943519  -0.00263847  1
  O  O13  1  0.95205117  0.15056481  0.50263847  1
  O  O14  1  0.45205117  0.34943519  0.50263847  1
  O  O15  1  0.54794883  0.65056481  0.49736153  1
  O  O16  1  0.96016844  0.50251195  0.79813454  1
  O  O17  1  0.03983156  0.49748805  0.20186546  1
  O  O18  1  0.53983156  0.00251195  0.20186546  1
  O  O19  1  0.03983156  0.99748805  0.29813454  1
  O  O20  1  0.46016844  0.99748805  0.79813454  1
  O  O21  1  0.96016844  0.00251195  0.70186546  1
  O  O22  1  0.46016844  0.49748805  0.70186546  1
  O  O23  1  0.53983156  0.50251195  0.29813454  1
  O  O24  1  0.69415719  0.94096882  0.62746674  1
  O  O25  1  0.30584281  0.05903118  0.37253326  1
  O  O26  1  0.80584281  0.44096882  0.37253326  1
  O  O27  1  0.30584281  0.55903118  0.12746674  1
  O  O28  1  0.19415719  0.55903118  0.62746674  1
  O  O29  1  0.69415719  0.44096882  0.87253326  1
  O  O30  1  0.19415719  0.05903118  0.87253326  1
  O  O31  1  0.80584281  0.94096882  0.12746674  1
  O  O32  1  0.60718149  0.74837296  0.80518405  1
  O  O33  1  0.39281851  0.25162704  0.19481595  1
  O  O34  1  0.89281851  0.24837296  0.19481595  1
  O  O35  1  0.39281851  0.75162704  0.30518405  1
  O  O36  1  0.10718149  0.75162704  0.80518405  1
  O  O37  1  0.60718149  0.24837296  0.69481595  1
  O  O38  1  0.10718149  0.25162704  0.69481595  1
  O  O39  1  0.89281851  0.74837296  0.30518405  1
loop_
_geom_bond_atom_site_label_1
_geom_bond_atom_site_label_2
_geom_bond_distance
_geom_bond_site_symmetry_2
K0 O15 2.724507 1_555
K0 O11 2.775604 1_655
K0 O32 2.781578 1_555
K0 O5 2.813890 1_555
K0 O24 2.820959 1_555
K0 O28 2.906994 1_655
K0 O36 2.931748 1_655
K0 O16 3.043871 1_555
K1 O14 2.724507 1_555
K1 O13 2.775604 1_455
K1 O33 2.781578 1_555
K1 O3 2.813890 1_555
K1 O25 2.820959 1_555
K1 O26 2.906994 1_455
K1 O34 2.931748 1_455
K1 O17 3.043871 1_555
K2 O13 2.724507 1_555
K2 O14 2.775604 1_555
K2 O34 2.781578 1_555
K2 O7 2.813890 1_545
K2 O26 2.820959 1_555
K2 O25 2.906994 1_555
K2 O33 2.931748 1_555
K2 O18 3.043871 1_555
K3 O12 2.724507 1_555
K3 O8 2.775604 1_455
K3 O35 2.781578 1_555
K3 O1 2.813890 1_565
K3 O27 2.820959 1_555
K3 O31 2.906994 1_455
K3 O39 2.931748 1_455
K3 O19 3.043871 1_555
K4 O11 2.724507 1_555
K4 O15 2.775604 1_555
K4 O36 2.781578 1_555
K4 O6 2.813890 1_565
K4 O28 2.820959 1_555
K4 O24 2.906994 1_555
K4 O32 2.931748 1_555
K4 O20 3.043871 1_555
K5 O10 2.724507 1_556
K5 O9 2.775604 1_656
K5 O37 2.781578 1_555
K5 O0 2.813890 1_545
K5 O29 2.820959 1_555
K5 O30 2.906994 1_655
K5 O38 2.931748 1_655
K5 O21 3.043871 1_555
K6 O9 2.724507 1_556
K6 O10 2.775604 1_556
K6 O38 2.781578 1_555
K6 O4 2.813890 1_555
K6 O30 2.820959 1_555
K6 O29 2.906994 1_555
K6 O37 2.931748 1_555
K6 O22 3.043871 1_555
K7 O8 2.724507 1_555
K7 O12 2.775604 1_555
K7 O39 2.781578 1_555
K7 O2 2.813890 1_555
K7 O31 2.820959 1_555
K7 O27 2.906994 1_555
K7 O35 2.931748 1_555
K7 O23 3.043871 1_555
Li0 O36 1.888054 1_555
Li0 O0 1.898680 1_455
Li0 O21 1.942926 1_465
Li0 O30 2.003648 1_565
Li1 O34 1.888056 1_555
Li1 O1 1.898675 1_655
Li1 O19 1.942924 1_645
Li1 O31 2.003652 1_545
Li2 O33 1.888054 1_555
Li2 O2 1.898680 1_555
Li2 O23 1.942926 1_555
Li2 O27 2.003648 1_555
Li3 O39 1.888056 1_555
Li3 O3 1.898675 1_655
Li3 O17 1.942924 1_655
Li3 O26 2.003652 1_555
Li4 O32 1.888054 1_555
Li4 O4 1.898680 1_555
Li4 O22 1.942926 1_555
Li4 O29 2.003648 1_555
Li5 O38 1.888054 1_555
Li5 O5 1.898680 1_455
Li5 O16 1.942926 1_455
Li5 O28 2.003648 1_555
Li6 O37 1.888054 1_555
Li6 O6 1.898680 1_555
Li6 O20 1.942926 1_545
Li6 O24 2.003648 1_545
Li7 O35 1.888054 1_555
Li7 O7 1.898680 1_555
Li7 O18 1.942926 1_565
Li7 O25 2.003648 1_565
Mo0 O12 1.740500 1_556
Mo0 O0 1.764133 1_555
Mo0 O32 1.771868 1_555
Mo0 O20 1.804522 1_555
Mo1 O10 1.740500 1_555
Mo1 O1 1.764133 1_555
Mo1 O33 1.771868 1_555
Mo1 O18 1.804522 1_555
Mo2 O9 1.740500 1_655
Mo2 O2 1.764133 1_555
Mo2 O34 1.771868 1_555
Mo2 O17 1.804522 1_655
Mo3 O15 1.740500 1_555
Mo3 O3 1.764133 1_555
Mo3 O35 1.771868 1_555
Mo3 O23 1.804522 1_555
Mo4 O8 1.740500 1_456
Mo4 O4 1.764133 1_555
Mo4 O36 1.771868 1_555
Mo4 O16 1.804522 1_455
Mo5 O14 1.740500 1_555
Mo5 O5 1.764133 1_555
Mo5 O37 1.771868 1_555
Mo5 O22 1.804522 1_555
Mo6 O13 1.740500 1_455
Mo6 O6 1.764133 1_555
Mo6 O38 1.771868 1_555
Mo6 O21 1.804522 1_455
Mo7 O11 1.740500 1_655
Mo7 O7 1.764133 1_555
Mo7 O39 1.771868 1_555
Mo7 O19 1.804522 1_655
