# generated using pymatgen
data_La5Sn3
_symmetry_space_group_name_H-M   'P 1'
_cell_length_a   9.61208378
_cell_length_b   9.61208574
_cell_length_c   6.95486367
_cell_angle_alpha   90.00000000
_cell_angle_beta   90.00000000
_cell_angle_gamma   120.00002390
_symmetry_Int_Tables_number   1
_chemical_formula_structural   La5Sn3
_chemical_formula_sum   'La10 Sn6'
_cell_volume   556.48611446
_cell_formula_units_Z   2
loop_
 _symmetry_equiv_pos_site_id
 _symmetry_equiv_pos_as_xyz
  1  'x, y, z'
loop_
 _atom_site_type_symbol
 _atom_site_label
 _atom_site_symmetry_multiplicity
 _atom_site_fract_x
 _atom_site_fract_y
 _atom_site_fract_z
 _atom_site_occupancy
  La  La0  1  0.66666700  0.33333300  -0.00000000  1
  La  La1  1  0.33333300  0.66666700  0.99999900  1
  La  La2  1  0.33333300  0.66666700  0.50000100  1
  La  La3  1  0.66666700  0.33333300  0.50000000  1
  La  La4  1  0.73789747  0.73804020  0.75000000  1
  La  La5  1  0.26195980  -0.00014173  0.75000000  1
  La  La6  1  0.00014173  0.26210153  0.75000000  1
  La  La7  1  0.26195980  0.26210253  0.25000000  1
  La  La8  1  0.73789747  -0.00014173  0.25000000  1
  La  La9  1  0.00014173  0.73804020  0.25000000  1
  Sn  Sn0  1  0.38353918  0.38348012  0.75000000  1
  Sn  Sn1  1  0.61651988  0.00005906  0.75000000  1
  Sn  Sn2  1  -0.00005906  0.61646082  0.75000000  1
  Sn  Sn3  1  0.61651988  0.61646082  0.25000000  1
  Sn  Sn4  1  0.38353918  0.00005906  0.25000000  1
  Sn  Sn5  1  -0.00005906  0.38348012  0.25000000  1
loop_
_geom_bond_atom_site_label_1
_geom_bond_atom_site_label_2
_geom_bond_distance
_geom_bond_site_symmetry_2
La0 Sn5 3.460272 1_655
La0 Sn1 3.460273 1_554
La0 Sn2 3.460275 1_654
La0 Sn4 3.460275 1_555
La0 Sn0 3.460281 1_554
La0 Sn3 3.460281 1_555
La1 Sn2 3.461057 1_555
La1 Sn1 3.461060 1_565
La1 Sn4 3.461065 1_566
La1 Sn0 3.461066 1_555
La1 Sn5 3.461067 1_556
La1 Sn3 3.461073 1_556
La2 Sn2 3.461057 1_555
La2 Sn1 3.461060 1_565
La2 Sn4 3.461065 1_565
La2 Sn0 3.461066 1_555
La2 Sn5 3.461067 1_555
La2 Sn3 3.461073 1_555
La3 Sn5 3.460272 1_655
La3 Sn1 3.460273 1_555
La3 Sn2 3.460275 1_655
La3 Sn4 3.460275 1_555
La3 Sn0 3.460281 1_555
La3 Sn3 3.460281 1_555
La4 Sn1 3.262303 1_565
La4 Sn2 3.263970 1_655
La4 Sn0 3.407091 1_555
La4 Sn3 3.668238 1_555
La4 Sn3 3.668238 1_556
La5 Sn2 3.262309 1_545
La5 Sn0 3.263961 1_555
La5 Sn1 3.407097 1_555
La5 Sn4 3.668239 1_555
La5 Sn4 3.668239 1_556
La6 Sn0 3.262309 1_555
La6 Sn1 3.263960 1_455
La6 Sn2 3.407097 1_555
La6 Sn5 3.668239 1_556
La6 Sn5 3.668239 1_555
La7 Sn5 3.262303 1_555
La7 Sn4 3.263971 1_555
La7 Sn3 3.407091 1_555
La7 Sn0 3.668238 1_555
La7 Sn0 3.668238 1_554
La8 Sn3 3.262312 1_545
La8 Sn5 3.263962 1_655
La8 Sn4 3.407087 1_555
La8 Sn1 3.668236 1_555
La8 Sn1 3.668236 1_554
La9 Sn4 3.262309 1_565
La9 Sn3 3.263960 1_455
La9 Sn5 3.407097 1_555
La9 Sn2 3.668239 1_554
La9 Sn2 3.668239 1_555
