# generated using pymatgen
data_HfBe
_symmetry_space_group_name_H-M   'P 1'
_cell_length_a   3.30274715
_cell_length_b   3.72927786
_cell_length_c   5.29152796
_cell_angle_alpha   90.00000000
_cell_angle_beta   71.81544214
_cell_angle_gamma   90.00000000
_symmetry_Int_Tables_number   1
_chemical_formula_structural   HfBe
_chemical_formula_sum   'Hf2 Be2'
_cell_volume   61.91993042
_cell_formula_units_Z   2
loop_
 _symmetry_equiv_pos_site_id
 _symmetry_equiv_pos_as_xyz
  1  'x, y, z'
loop_
 _atom_site_type_symbol
 _atom_site_label
 _atom_site_symmetry_multiplicity
 _atom_site_fract_x
 _atom_site_fract_y
 _atom_site_fract_z
 _atom_site_occupancy
  Hf  Hf0  1  0.15104174  0.75000000  0.69791552  1
  Hf  Hf1  1  0.84895826  0.25000000  0.30208448  1
  Be  Be0  1  0.43974267  0.75000000  0.12051566  1
  Be  Be1  1  0.56025733  0.25000000  0.87948434  1
loop_
_geom_bond_atom_site_label_1
_geom_bond_atom_site_label_2
_geom_bond_distance
_geom_bond_site_symmetry_2
Be0 Be1 2.223770 1_554
Be0 Be1 2.223770 1_564
Be0 Hf1 2.652754 1_465
Be0 Hf1 2.652754 1_455
Be0 Hf1 2.652754 1_555
Be0 Hf1 2.652754 1_565
Be0 Hf0 2.690835 1_654
Be0 Hf0 2.690839 1_554
Be0 Hf0 2.902733 1_555
Be1 Hf0 2.652754 1_645
Be1 Hf0 2.652754 1_655
Be1 Hf0 2.652754 1_555
Be1 Hf0 2.652754 1_545
Be1 Hf1 2.690835 1_456
Be1 Hf1 2.690839 1_556
Be1 Hf1 2.902733 1_555
