# generated using pymatgen
data_Na3Y(Si2O5)3
_symmetry_space_group_name_H-M   'P 1'
_cell_length_a   11.66639194
_cell_length_b   11.66639194
_cell_length_c   10.62574300
_cell_angle_alpha   90.00000000
_cell_angle_beta   90.00000000
_cell_angle_gamma   100.63067035
_symmetry_Int_Tables_number   1
_chemical_formula_structural   Na3Y(Si2O5)3
_chemical_formula_sum   'Na12 Y4 Si24 O60'
_cell_volume   1421.39183258
_cell_formula_units_Z   4
loop_
 _symmetry_equiv_pos_site_id
 _symmetry_equiv_pos_as_xyz
  1  'x, y, z'
loop_
 _atom_site_type_symbol
 _atom_site_label
 _atom_site_symmetry_multiplicity
 _atom_site_fract_x
 _atom_site_fract_y
 _atom_site_fract_z
 _atom_site_occupancy
  Na  Na0  1  0.97133300  0.52866700  0.75000000  1
  Na  Na1  1  0.52866700  0.97133300  0.25000000  1
  Na  Na2  1  0.02866700  0.47133300  0.25000000  1
  Na  Na3  1  0.47133300  0.02866700  0.75000000  1
  Na  Na4  1  0.23889500  0.23889500  0.00000000  1
  Na  Na5  1  0.26110500  0.26110500  0.50000000  1
  Na  Na6  1  0.76110500  0.76110500  0.00000000  1
  Na  Na7  1  0.73889500  0.73889500  0.50000000  1
  Na  Na8  1  0.92797700  0.07202300  0.75024000  1
  Na  Na9  1  0.57202300  0.42797700  0.25024000  1
  Na  Na10  1  0.07202300  0.92797700  0.24976000  1
  Na  Na11  1  0.42797700  0.57202300  0.74976000  1
  Y  Y0  1  0.84091100  0.65908900  0.25000000  1
  Y  Y1  1  0.65908900  0.84091100  0.75000000  1
  Y  Y2  1  0.15908900  0.34091100  0.75000000  1
  Y  Y3  1  0.34091100  0.15908900  0.25000000  1
  Si  Si0  1  0.47066400  0.73967200  0.01984900  1
  Si  Si1  1  0.02933600  0.76032800  0.51984900  1
  Si  Si2  1  0.73967200  0.47066400  0.98015100  1
  Si  Si3  1  0.76032800  0.02933600  0.48015100  1
  Si  Si4  1  0.52933600  0.26032800  0.98015100  1
  Si  Si5  1  0.97066400  0.23967200  0.48015100  1
  Si  Si6  1  0.26032800  0.52933600  0.01984900  1
  Si  Si7  1  0.23967200  0.97066400  0.51984900  1
  Si  Si8  1  0.41502200  0.79499700  0.53519900  1
  Si  Si9  1  0.08497800  0.70500300  0.03519900  1
  Si  Si10  1  0.79499700  0.41502200  0.46480100  1
  Si  Si11  1  0.70500300  0.08497800  0.96480100  1
  Si  Si12  1  0.58497800  0.20500300  0.46480100  1
  Si  Si13  1  0.91502200  0.29499700  0.96480100  1
  Si  Si14  1  0.20500300  0.58497800  0.53519900  1
  Si  Si15  1  0.29499700  0.91502200  0.03519900  1
  Si  Si16  1  0.52771100  0.69008500  0.30028600  1
  Si  Si17  1  0.97228900  0.80991500  0.80028600  1
  Si  Si18  1  0.69008500  0.52771100  0.69971400  1
  Si  Si19  1  0.80991500  0.97228900  0.19971400  1
  Si  Si20  1  0.47228900  0.30991500  0.69971400  1
  Si  Si21  1  0.02771100  0.19008500  0.19971400  1
  Si  Si22  1  0.30991500  0.47228900  0.30028600  1
  Si  Si23  1  0.19008500  0.02771100  0.80028600  1
  O  O0  1  0.34336600  0.98827600  0.15727500  1
  O  O1  1  0.15663400  0.51172400  0.65727500  1
  O  O2  1  0.98827600  0.34336600  0.84272500  1
  O  O3  1  0.51172400  0.15663400  0.34272500  1
  O  O4  1  0.65663400  0.01172400  0.84272500  1
  O  O5  1  0.84336600  0.48827600  0.34272500  1
  O  O6  1  0.01172400  0.65663400  0.15727500  1
  O  O7  1  0.48827600  0.84336600  0.65727500  1
  O  O8  1  0.51277400  0.76276000  0.16894200  1
  O  O9  1  0.98722600  0.73724000  0.66894200  1
  O  O10  1  0.76276000  0.51277400  0.83105800  1
  O  O11  1  0.73724000  0.98722600  0.33105800  1
  O  O12  1  0.48722600  0.23724000  0.83105800  1
  O  O13  1  0.01277400  0.26276000  0.33105800  1
  O  O14  1  0.23724000  0.48722600  0.16894200  1
  O  O15  1  0.26276000  0.01277400  0.66894200  1
  O  O16  1  0.33283200  0.88548900  0.48643400  1
  O  O17  1  0.16716800  0.61451100  0.98643400  1
  O  O18  1  0.88548900  0.33283200  0.51356600  1
  O  O19  1  0.61451100  0.16716800  0.01356600  1
  O  O20  1  0.66716800  0.11451100  0.51356600  1
  O  O21  1  0.83283200  0.38548900  0.01356600  1
  O  O22  1  0.11451100  0.66716800  0.48643400  1
  O  O23  1  0.38548900  0.83283200  0.98643400  1
  O  O24  1  0.66550600  0.33449400  0.43221900  1
  O  O25  1  0.25238600  0.07793200  0.42487800  1
  O  O26  1  0.07793200  0.25238600  0.57512200  1
  O  O27  1  0.42206800  0.24761400  0.07512200  1
  O  O28  1  0.74761400  0.92206800  0.57512200  1
  O  O29  1  0.75238600  0.57793200  0.07512200  1
  O  O30  1  0.92206800  0.74761400  0.42487800  1
  O  O31  1  0.57793200  0.75238600  0.92487800  1
  O  O32  1  0.34333600  0.34625500  0.31872800  1
  O  O33  1  0.15666400  0.15374500  0.81872800  1
  O  O34  1  0.34625500  0.34333600  0.68127200  1
  O  O35  1  0.15374500  0.15666400  0.18127200  1
  O  O36  1  0.65666400  0.65374500  0.68127200  1
  O  O37  1  0.84333600  0.84625500  0.18127200  1
  O  O38  1  0.65374500  0.65666400  0.31872800  1
  O  O39  1  0.84625500  0.84333600  0.81872800  1
  O  O40  1  0.06829300  0.93170700  0.79865400  1
  O  O41  1  0.43170700  0.56829300  0.29865400  1
  O  O42  1  0.93170700  0.06829300  0.20134600  1
  O  O43  1  0.56829300  0.43170700  0.70134600  1
  O  O44  1  0.10711900  0.89288100  0.50568600  1
  O  O45  1  0.39288100  0.60711900  0.00568600  1
  O  O46  1  0.89288100  0.10711900  0.49431400  1
  O  O47  1  0.60711900  0.39288100  0.99431400  1
  O  O48  1  0.50178000  0.22197900  0.58745600  1
  O  O49  1  0.99822000  0.27802100  0.08745600  1
  O  O50  1  0.22197900  0.50178000  0.41254400  1
  O  O51  1  0.27802100  0.99822000  0.91254400  1
  O  O52  1  0.49822000  0.77802100  0.41254400  1
  O  O53  1  0.00178000  0.72197900  0.91254400  1
  O  O54  1  0.77802100  0.49822000  0.58745600  1
  O  O55  1  0.72197900  0.00178000  0.08745600  1
  O  O56  1  0.16550600  0.83449400  0.06778100  1
  O  O57  1  0.33449400  0.66550600  0.56778100  1
  O  O58  1  0.83449400  0.16550600  0.93221900  1
  O  O59  1  0.24761400  0.42206800  0.92487800  1
loop_
_geom_bond_atom_site_label_1
_geom_bond_atom_site_label_2
_geom_bond_distance
_geom_bond_site_symmetry_2
Na0 O2 2.416784 1_555
Na0 O1 2.416784 1_655
Na0 O10 2.555519 1_555
Na0 O9 2.555519 1_555
Na0 O53 2.810663 1_655
Na0 O54 2.810663 1_555
Na1 O0 2.416784 1_555
Na1 O3 2.416784 1_565
Na1 O11 2.555519 1_555
Na1 O8 2.555519 1_555
Na1 O52 2.810663 1_555
Na1 O55 2.810663 1_565
Na2 O6 2.416784 1_555
Na2 O5 2.416784 1_455
Na2 O13 2.555519 1_555
Na2 O14 2.555519 1_555
Na2 O50 2.810663 1_555
Na2 O49 2.810663 1_455
Na3 O4 2.416784 1_555
Na3 O7 2.416784 1_545
Na3 O15 2.555519 1_555
Na3 O12 2.555519 1_555
Na3 O48 2.810663 1_555
Na3 O51 2.810663 1_545
Na4 O59 2.265821 1_554
Na4 O27 2.265821 1_555
Na4 O33 2.294689 1_554
Na4 O35 2.294689 1_555
Na5 O25 2.265821 1_555
Na5 O26 2.265821 1_555
Na5 O32 2.294689 1_555
Na5 O34 2.294689 1_555
Na6 O31 2.265821 1_554
Na6 O29 2.265821 1_555
Na6 O37 2.294689 1_555
Na6 O39 2.294689 1_554
Na7 O28 2.265821 1_555
Na7 O30 2.265821 1_555
Na7 O38 2.294689 1_555
Na7 O36 2.294689 1_555
Na8 O58 2.560616 1_555
Na8 O40 2.571527 1_645
Na8 O39 2.760083 1_545
Na8 O33 2.760083 1_655
Na8 O46 2.791469 1_555
Na9 O24 2.560616 1_555
Na9 O41 2.571527 1_555
Na9 O32 2.760083 1_555
Na9 O38 2.760083 1_555
Na9 O47 2.791469 1_554
Na10 O56 2.560616 1_555
Na10 O42 2.571527 1_465
Na10 O37 2.760083 1_455
Na10 O35 2.760083 1_565
Na10 O44 2.791469 1_555
Na11 O57 2.560616 1_555
Na11 O43 2.571527 1_555
Na11 O34 2.760083 1_555
Na11 O36 2.760083 1_555
Na11 O45 2.791469 1_556
O0 Si15 1.597951 1_555
O0 Y3 2.227954 1_565
O1 Si14 1.597951 1_555
O1 Y2 2.227954 1_555
O2 Si13 1.597951 1_555
O2 Y2 2.227954 1_655
O3 Si12 1.597951 1_555
O3 Y3 2.227954 1_555
O4 Si11 1.597951 1_555
O4 Y1 2.227954 1_545
O5 Si10 1.597951 1_555
O5 Y0 2.227954 1_555
O6 Si9 1.597951 1_555
O6 Y0 2.227954 1_455
O7 Si8 1.597951 1_555
O7 Y1 2.227954 1_555
O8 Si16 1.658769 1_555
O8 Si0 1.665786 1_555
O9 Si17 1.658769 1_555
O9 Si1 1.665786 1_655
O10 Si18 1.658769 1_555
O10 Si2 1.665786 1_555
O11 Si19 1.658769 1_555
O11 Si3 1.665786 1_565
O12 Si20 1.658769 1_555
O12 Si4 1.665786 1_555
O13 Si21 1.658769 1_555
O13 Si5 1.665786 1_455
O14 Si22 1.658769 1_555
O14 Si6 1.665786 1_555
O15 Si23 1.658769 1_555
O15 Si7 1.665786 1_545
O16 Si8 1.635827 1_555
O16 Si7 1.641086 1_555
O17 Si9 1.635827 1_556
O17 Si6 1.641086 1_556
O18 Si10 1.635827 1_555
O18 Si5 1.641086 1_555
O19 Si11 1.635827 1_554
O19 Si4 1.641086 1_554
O20 Si12 1.635827 1_555
O20 Si3 1.641086 1_555
O21 Si13 1.635827 1_554
O21 Si2 1.641086 1_554
O22 Si14 1.635827 1_555
O22 Si1 1.641086 1_555
O23 Si15 1.635827 1_556
O23 Si0 1.641086 1_556
O24 Si12 1.661631 1_555
O24 Si10 1.661631 1_555
O25 Si7 1.593095 1_545
O25 Y3 2.248381 1_555
O26 Si5 1.593095 1_455
O26 Y2 2.248381 1_555
O27 Si4 1.593095 1_554
O27 Y3 2.248381 1_555
O28 Si3 1.593095 1_565
O28 Y1 2.248381 1_555
O29 Si2 1.593095 1_554
O29 Y0 2.248381 1_555
O30 Si1 1.593095 1_655
O30 Y0 2.248381 1_555
O31 Si0 1.593095 1_556
O31 Y1 2.248381 1_555
O32 Si22 1.601221 1_555
O32 Y3 2.297656 1_555
O33 Si23 1.601221 1_555
O33 Y2 2.297656 1_555
O34 Si20 1.601221 1_555
O34 Y2 2.297656 1_555
O35 Si21 1.601221 1_555
O35 Y3 2.297656 1_555
O36 Si18 1.601221 1_555
O36 Y1 2.297656 1_555
O37 Si19 1.601221 1_555
O37 Y0 2.297656 1_555
O38 Si16 1.601221 1_555
O38 Y0 2.297656 1_555
O39 Si17 1.601221 1_555
O39 Y1 2.297656 1_555
O40 Si17 1.639045 1_455
O40 Si23 1.639045 1_565
O41 Si22 1.639045 1_555
O41 Si16 1.639045 1_555
O42 Si19 1.639045 1_545
O42 Si21 1.639045 1_655
O43 Si20 1.639045 1_555
O43 Si18 1.639045 1_555
O44 Si1 1.649169 1_555
O44 Si7 1.649169 1_555
O45 Si0 1.649169 1_555
O45 Si6 1.649169 1_555
O46 Si3 1.649169 1_555
O46 Si5 1.649169 1_555
O47 Si2 1.649169 1_555
O47 Si4 1.649169 1_555
O48 Si20 1.650422 1_555
O48 Si12 1.658567 1_555
O49 Si21 1.650422 1_655
O49 Si13 1.658567 1_554
O50 Si22 1.650422 1_555
O50 Si14 1.658567 1_555
O51 Si23 1.650422 1_565
O51 Si15 1.658567 1_556
O52 Si16 1.650422 1_555
O52 Si8 1.658567 1_555
O53 Si17 1.650422 1_455
O53 Si9 1.658567 1_556
O54 Si18 1.650422 1_555
O54 Si10 1.658567 1_555
O55 Si19 1.650422 1_545
O55 Si11 1.658567 1_554
O56 Si15 1.661631 1_555
O56 Si9 1.661631 1_555
O57 Si14 1.661631 1_555
O57 Si8 1.661631 1_555
O58 Si13 1.661631 1_555
O58 Si11 1.661631 1_555
O59 Si6 1.593095 1_556
O59 Y2 2.248381 1_555
