# generated using pymatgen
data_Ba5Ce4ZrO15
_symmetry_space_group_name_H-M   'P 1'
_cell_length_a   6.22612000
_cell_length_b   13.89906378
_cell_length_c   10.85777486
_cell_angle_alpha   104.74204967
_cell_angle_beta   106.66124141
_cell_angle_gamma   77.05731549
_symmetry_Int_Tables_number   1
_chemical_formula_structural   Ba5Ce4ZrO15
_chemical_formula_sum   'Ba10 Ce8 Zr2 O30'
_cell_volume   858.87984720
_cell_formula_units_Z   2
loop_
 _symmetry_equiv_pos_site_id
 _symmetry_equiv_pos_as_xyz
  1  'x, y, z'
loop_
 _atom_site_type_symbol
 _atom_site_label
 _atom_site_symmetry_multiplicity
 _atom_site_fract_x
 _atom_site_fract_y
 _atom_site_fract_z
 _atom_site_occupancy
  Ba  Ba0  1  0.09548500  0.35370700  0.54467700  1
  Ba  Ba1  1  0.49563700  0.74890000  0.74017400  1
  Ba  Ba2  1  0.89822100  0.14466900  0.94111200  1
  Ba  Ba3  1  0.30070100  0.54897500  0.15037800  1
  Ba  Ba4  1  0.70205900  0.94630500  0.35042200  1
  Ba  Ba5  1  0.90436300  0.65110000  0.45982600  1
  Ba  Ba6  1  0.30451500  0.04629300  0.65532300  1
  Ba  Ba7  1  0.69794100  0.45369500  0.84957800  1
  Ba  Ba8  1  0.09929900  0.85102500  0.04962200  1
  Ba  Ba9  1  0.50177900  0.25533100  0.25888800  1
  Ce  Ce0  1  0.49904500  0.99831000  0.99640000  1
  Ce  Ce1  1  0.90095500  0.40169000  0.20360000  1
  Ce  Ce2  1  0.30282900  0.79852400  0.40418100  1
  Ce  Ce3  1  0.70000000  0.20000000  0.60000000  1
  Ce  Ce4  1  0.09717100  0.60147600  0.79581900  1
  Ce  Ce5  1  0.29976700  0.30127400  0.90080900  1
  Ce  Ce6  1  0.70000000  0.70000000  0.10000000  1
  Ce  Ce7  1  0.10023300  0.09872600  0.29919100  1
  Zr  Zr0  1  0.50065300  0.49962400  0.50093000  1
  Zr  Zr1  1  0.89934700  0.90037600  0.69907000  1
  O  O0  1  0.70882000  0.43061400  0.36440800  1
  O  O1  1  0.11028900  0.83021700  0.56399400  1
  O  O2  1  0.51918300  0.22494100  0.75925500  1
  O  O3  1  0.91630100  0.62546700  0.95608600  1
  O  O4  1  0.31523800  0.02253800  0.15545200  1
  O  O5  1  0.77651100  0.56978300  0.63600600  1
  O  O6  1  0.17502600  0.96938600  0.83559200  1
  O  O7  1  0.58232400  0.37746200  0.04454800  1
  O  O8  1  0.98568200  0.77453300  0.24391400  1
  O  O9  1  0.38487000  0.17505900  0.44074500  1
  O  O10  1  0.22497400  0.43061400  0.36440800  1
  O  O11  1  0.62348900  0.83021700  0.56399400  1
  O  O12  1  0.01513000  0.22494100  0.75925500  1
  O  O13  1  0.41431800  0.62546700  0.95608600  1
  O  O14  1  0.81767600  0.02253800  0.15545200  1
  O  O15  1  0.28971100  0.56978300  0.63600600  1
  O  O16  1  0.69118000  0.96938600  0.83559200  1
  O  O17  1  0.08476200  0.37746200  0.04454800  1
  O  O18  1  0.48369900  0.77453300  0.24391400  1
  O  O19  1  0.88081700  0.17505900  0.44074500  1
  O  O20  1  0.41495100  0.16402700  0.99392900  1
  O  O21  1  0.81604500  0.56630400  0.19839300  1
  O  O22  1  0.21683100  0.96384700  0.39750800  1
  O  O23  1  0.60967900  0.36924700  0.58860600  1
  O  O24  1  0.00842900  0.76776200  0.78462000  1
  O  O25  1  0.18316900  0.43615300  0.80249200  1
  O  O26  1  0.58395500  0.83369600  0.00160700  1
  O  O27  1  0.98504900  0.23597300  0.20607100  1
  O  O28  1  0.39157100  0.63223800  0.41538000  1
  O  O29  1  0.79032100  0.03075300  0.61139400  1
loop_
_geom_bond_atom_site_label_1
_geom_bond_atom_site_label_2
_geom_bond_distance
_geom_bond_site_symmetry_2
Ba0 O25 2.686747 1_555
Ba0 O10 2.824791 1_555
Ba0 O0 2.824791 1_455
Ba0 O19 2.901894 1_455
Ba0 O9 2.901897 1_555
Ba1 O26 2.727927 1_556
Ba1 O1 2.819016 1_555
Ba1 O11 2.819020 1_555
Ba1 O5 2.878575 1_555
Ba1 O15 2.878578 1_555
Ba1 O24 3.149925 1_655
Ba1 O24 3.149925 1_555
Ba1 O6 3.358458 1_555
Ba1 O16 3.358458 1_555
Ba1 O28 3.425739 1_555
Ba1 O3 3.436875 1_555
Ba1 O13 3.436875 1_555
Ba2 O27 2.781460 1_556
Ba2 O2 2.825362 1_555
Ba2 O12 2.825362 1_655
Ba2 O16 2.837090 1_545
Ba2 O6 2.837094 1_645
Ba2 O20 3.162754 1_555
Ba2 O20 3.162760 1_655
Ba3 O28 2.757454 1_555
Ba3 O17 2.822501 1_555
Ba3 O7 2.822504 1_555
Ba3 O3 2.900881 1_454
Ba3 O13 2.900884 1_554
Ba3 O21 3.154025 1_455
Ba3 O21 3.154038 1_555
Ba3 O10 3.354186 1_555
Ba3 O0 3.354189 1_555
Ba3 O8 3.387359 1_455
Ba3 O18 3.387362 1_555
Ba4 O29 2.722532 1_565
Ba4 O8 2.834249 1_555
Ba4 O18 2.834252 1_555
Ba4 O14 2.911932 1_565
Ba4 O4 2.911936 1_565
Ba4 O22 3.152787 1_555
Ba4 O22 3.152787 1_655
Ba4 O11 3.335926 1_555
Ba4 O1 3.335926 1_655
Ba4 O19 3.417868 1_565
Ba4 O9 3.417868 1_565
Ba5 O21 2.727927 1_555
Ba5 O15 2.819016 1_655
Ba5 O5 2.819020 1_555
Ba5 O11 2.878575 1_555
Ba5 O1 2.878578 1_655
Ba5 O28 3.149925 1_555
Ba5 O28 3.149925 1_655
Ba5 O0 3.358458 1_555
Ba5 O10 3.358458 1_655
Ba5 O24 3.425739 1_655
Ba5 O8 3.436875 1_555
Ba5 O18 3.436875 1_555
Ba6 O22 2.686747 1_545
Ba6 O16 2.824791 1_545
Ba6 O6 2.824791 1_545
Ba6 O2 2.901894 1_555
Ba6 O12 2.901897 1_555
Ba7 O23 2.722532 1_555
Ba7 O13 2.834249 1_555
Ba7 O3 2.834252 1_555
Ba7 O7 2.911932 1_556
Ba7 O17 2.911936 1_656
Ba7 O25 3.152787 1_555
Ba7 O25 3.152787 1_655
Ba7 O15 3.335926 1_555
Ba7 O5 3.335926 1_555
Ba7 O2 3.417868 1_555
Ba7 O12 3.417868 1_655
Ba8 O24 2.757454 1_554
Ba8 O4 2.822501 1_565
Ba8 O14 2.822504 1_465
Ba8 O18 2.900881 1_555
Ba8 O8 2.900884 1_455
Ba8 O26 3.154025 1_555
Ba8 O26 3.154038 1_455
Ba8 O6 3.354186 1_554
Ba8 O16 3.354189 1_454
Ba8 O13 3.387359 1_554
Ba8 O3 3.387362 1_454
Ba9 O20 2.781460 1_554
Ba9 O9 2.825362 1_555
Ba9 O19 2.825362 1_555
Ba9 O0 2.837090 1_555
Ba9 O10 2.837094 1_555
Ba9 O27 3.162754 1_555
Ba9 O27 3.162760 1_455
Ce0 O26 2.241517 1_556
Ce0 O20 2.250173 1_565
Ce0 O4 2.251688 1_566
Ce0 O14 2.251688 1_566
Ce0 O6 2.294833 1_555
Ce0 O16 2.294833 1_555
Ce1 O21 2.241517 1_555
Ce1 O27 2.250173 1_555
Ce1 O17 2.251688 1_655
Ce1 O7 2.251688 1_555
Ce1 O10 2.294833 1_655
Ce1 O0 2.294833 1_555
Ce2 O18 2.251132 1_555
Ce2 O8 2.251137 1_455
Ce2 O22 2.254626 1_555
Ce2 O28 2.279094 1_555
Ce2 O1 2.282392 1_555
Ce2 O11 2.282392 1_555
Ce3 O12 2.239175 1_655
Ce3 O9 2.239175 1_555
Ce3 O2 2.239180 1_555
Ce3 O19 2.239180 1_555
Ce3 O23 2.319666 1_555
Ce3 O29 2.319666 1_555
Ce4 O3 2.251132 1_455
Ce4 O13 2.251137 1_555
Ce4 O25 2.254626 1_555
Ce4 O24 2.279094 1_555
Ce4 O15 2.282392 1_555
Ce4 O5 2.282392 1_455
Ce5 O17 2.251883 1_556
Ce5 O7 2.251887 1_556
Ce5 O12 2.253660 1_555
Ce5 O2 2.253660 1_555
Ce5 O20 2.264626 1_555
Ce5 O25 2.268376 1_555
Ce6 O21 2.254496 1_555
Ce6 O26 2.254496 1_555
Ce6 O8 2.255305 1_555
Ce6 O3 2.255305 1_554
Ce6 O18 2.255305 1_555
Ce6 O13 2.255305 1_554
Ce7 O4 2.251883 1_555
Ce7 O14 2.251887 1_455
Ce7 O19 2.253660 1_455
Ce7 O9 2.253660 1_555
Ce7 O27 2.264626 1_455
Ce7 O22 2.268376 1_545
O0 Zr0 2.149020 1_555
O1 Zr1 2.151685 1_455
O5 Zr0 2.151681 1_555
O6 Zr1 2.149020 1_455
O10 Zr0 2.149020 1_555
O11 Zr1 2.151681 1_555
O15 Zr0 2.151685 1_555
O16 Zr1 2.149020 1_555
O23 Zr0 2.146434 1_555
O24 Zr1 2.161100 1_455
O28 Zr0 2.161100 1_555
O29 Zr1 2.146434 1_545
