# generated using pymatgen
data_RbBi4Se7
_symmetry_space_group_name_H-M   'P 1'
_cell_length_a   11.90870044
_cell_length_b   11.90870044
_cell_length_c   19.77559897
_cell_angle_alpha   57.23757136
_cell_angle_beta   57.23757136
_cell_angle_gamma   20.54153701
_symmetry_Int_Tables_number   1
_chemical_formula_structural   RbBi4Se7
_chemical_formula_sum   'Rb2 Bi8 Se14'
_cell_volume   821.87805322
_cell_formula_units_Z   2
loop_
 _symmetry_equiv_pos_site_id
 _symmetry_equiv_pos_as_xyz
  1  'x, y, z'
loop_
 _atom_site_type_symbol
 _atom_site_label
 _atom_site_symmetry_multiplicity
 _atom_site_fract_x
 _atom_site_fract_y
 _atom_site_fract_z
 _atom_site_occupancy
  Rb  Rb0  1  0.46212900  0.46212900  0.84837000  1
  Rb  Rb1  1  0.53787100  0.53787100  0.15163000  1
  Bi  Bi0  1  0.63783300  0.63783300  0.43415300  1
  Bi  Bi1  1  0.36216700  0.36216700  0.56584700  1
  Bi  Bi2  1  0.22700900  0.22700900  0.92951100  1
  Bi  Bi3  1  0.77299100  0.77299100  0.07048900  1
  Bi  Bi4  1  0.15284400  0.15284400  0.61044600  1
  Bi  Bi5  1  0.84715600  0.84715600  0.38955400  1
  Bi  Bi6  1  0.69618500  0.69618500  0.76896000  1
  Bi  Bi7  1  0.30381500  0.30381500  0.23104000  1
  Se  Se0  1  0.29585100  0.29585100  0.73871600  1
  Se  Se1  1  0.70414900  0.70414900  0.26128400  1
  Se  Se2  1  0.82796800  0.82796800  0.90537600  1
  Se  Se3  1  0.17203200  0.17203200  0.09462400  1
  Se  Se4  1  0.56814000  0.56814000  0.61825100  1
  Se  Se5  1  0.43186000  0.43186000  0.38174900  1
  Se  Se6  1  0.10220300  0.10220300  0.77617000  1
  Se  Se7  1  0.89779700  0.89779700  0.22383000  1
  Se  Se8  1  0.63558200  0.63558200  0.93945800  1
  Se  Se9  1  0.36441800  0.36441800  0.06054200  1
  Se  Se10  1  0.76467100  0.76467100  0.58038700  1
  Se  Se11  1  0.23532900  0.23532900  0.41961300  1
  Se  Se12  1  0.04918700  0.04918700  0.43216400  1
  Se  Se13  1  0.95081300  0.95081300  0.56783600  1
loop_
_geom_bond_atom_site_label_1
_geom_bond_atom_site_label_2
_geom_bond_distance
_geom_bond_site_symmetry_2
Rb0 Se2 3.430219 1_545
Rb0 Se2 3.430219 1_455
Rb0 Se6 3.488263 1_565
Rb0 Se6 3.488263 1_655
Rb0 Se9 3.504336 1_556
Rb0 Se4 3.800754 1_555
Rb1 Se3 3.430219 1_655
Rb1 Se3 3.430219 1_565
Rb1 Se7 3.488263 1_455
Rb1 Se7 3.488263 1_545
Rb1 Se8 3.504336 1_554
Rb1 Se5 3.800754 1_555
Bi0 Se1 2.873698 1_555
Bi0 Se12 2.985947 1_655
Bi0 Se12 2.985947 1_565
Bi0 Se11 3.014841 1_655
Bi0 Se11 3.014841 1_565
Bi0 Se4 3.062915 1_555
Bi1 Se0 2.873698 1_555
Bi1 Se13 2.985947 1_455
Bi1 Se13 2.985947 1_545
Bi1 Se10 3.014841 1_545
Bi1 Se10 3.014841 1_455
Bi1 Se5 3.062915 1_555
Bi2 Se3 2.773843 1_556
Bi2 Se8 2.945266 1_455
Bi2 Se8 2.945266 1_545
Bi2 Se2 3.015354 1_545
Bi2 Se2 3.015354 1_455
Bi2 Se0 3.184869 1_555
Bi3 Se2 2.773843 1_554
Bi3 Se9 2.945266 1_655
Bi3 Se9 2.945266 1_565
Bi3 Se3 3.015354 1_565
Bi3 Se3 3.015354 1_655
Bi3 Se1 3.184869 1_555
Bi4 Se6 2.805516 1_555
Bi4 Se4 2.852357 1_455
Bi4 Se4 2.852357 1_545
Bi4 Se11 3.155066 1_555
Bi4 Se10 3.164906 1_545
Bi4 Se10 3.164906 1_455
Bi5 Se7 2.805516 1_555
Bi5 Se5 2.852357 1_565
Bi5 Se5 2.852357 1_655
Bi5 Se10 3.155066 1_555
Bi5 Se11 3.164906 1_655
Bi5 Se11 3.164906 1_565
Bi6 Se8 2.849249 1_555
Bi6 Se0 2.964006 1_565
Bi6 Se0 2.964006 1_655
Bi6 Se6 3.005759 1_655
Bi6 Se6 3.005759 1_565
Bi6 Se10 3.146281 1_555
Bi7 Se9 2.849249 1_555
Bi7 Se1 2.964006 1_455
Bi7 Se1 2.964006 1_545
Bi7 Se7 3.005759 1_545
Bi7 Se7 3.005759 1_455
Bi7 Se11 3.146281 1_555
Se12 Se13 2.389541 1_445
