# generated using pymatgen
data_Y8Cu3(GeSe7)3
_symmetry_space_group_name_H-M   'P 1'
_cell_length_a   10.28276690
_cell_length_b   10.31427080
_cell_length_c   18.55353333
_cell_angle_alpha   90.00000000
_cell_angle_beta   90.00000000
_cell_angle_gamma   120.04716260
_symmetry_Int_Tables_number   1
_chemical_formula_structural   Y8Cu3(GeSe7)3
_chemical_formula_sum   'Y16 Cu6 Ge6 Se42'
_cell_volume   1703.33154750
_cell_formula_units_Z   2
loop_
 _symmetry_equiv_pos_site_id
 _symmetry_equiv_pos_as_xyz
  1  'x, y, z'
loop_
 _atom_site_type_symbol
 _atom_site_label
 _atom_site_symmetry_multiplicity
 _atom_site_fract_x
 _atom_site_fract_y
 _atom_site_fract_z
 _atom_site_occupancy
  Y  Y0  1  0.85911110  0.63478160  0.08552936  1
  Y  Y1  1  0.86642775  0.64067315  0.42109682  1
  Y  Y2  1  0.87180467  0.64742737  0.74886684  1
  Y  Y3  1  0.22253615  0.86104643  0.24889567  1
  Y  Y4  1  0.22256814  0.86649096  0.91397353  1
  Y  Y5  1  0.64286790  0.78131692  0.24919848  1
  Y  Y6  1  0.63638836  0.77128447  0.58406536  1
  Y  Y7  1  0.64076412  0.78126200  0.92152946  1
  Y  Y8  1  0.36361164  0.22871553  0.08406536  1
  Y  Y9  1  0.35923588  0.21873800  0.42152946  1
  Y  Y10  1  0.35713210  0.21868308  0.74919848  1
  Y  Y11  1  0.77743186  0.13350904  0.41397353  1
  Y  Y12  1  0.77746385  0.13895357  0.74889567  1
  Y  Y13  1  0.12819533  0.35257263  0.24886684  1
  Y  Y14  1  0.14088890  0.36521840  0.58552936  1
  Y  Y15  1  0.13357225  0.35932685  0.92109682  1
  Cu  Cu0  1  0.99872001  0.00002156  0.23249478  1
  Cu  Cu1  1  0.00348844  0.99742313  0.56402097  1
  Cu  Cu2  1  0.00281082  0.00044593  0.89423230  1
  Cu  Cu3  1  0.99651156  0.00257687  0.06402097  1
  Cu  Cu4  1  0.99718918  0.99955407  0.39423230  1
  Cu  Cu5  1  0.00127999  0.99997844  0.73249478  1
  Ge  Ge0  1  0.66532707  0.33760111  0.27512165  1
  Ge  Ge1  1  0.66886113  0.33123030  0.61268557  1
  Ge  Ge2  1  0.66670462  0.32771652  0.94519965  1
  Ge  Ge3  1  0.33113887  0.66876970  0.11268557  1
  Ge  Ge4  1  0.33329538  0.67228348  0.44519965  1
  Ge  Ge5  1  0.33467293  0.66239889  0.77512165  1
  Se  Se0  1  0.57720766  0.48495440  0.99773543  1
  Se  Se1  1  0.57551468  0.48427530  0.33549589  1
  Se  Se2  1  0.57751721  0.48347687  0.66572300  1
  Se  Se3  1  0.48273929  0.91058026  0.16302670  1
  Se  Se4  1  0.49073581  0.91109536  0.50043755  1
  Se  Se5  1  0.48366821  0.90499192  0.83127279  1
  Se  Se6  1  0.91429155  0.43500755  0.99514749  1
  Se  Se7  1  0.90626292  0.42395850  0.33250771  1
  Se  Se8  1  0.91409669  0.42920525  0.66494548  1
  Se  Se9  1  0.08590331  0.57079475  0.16494548  1
  Se  Se10  1  0.08570845  0.56499245  0.49514749  1
  Se  Se11  1  0.09373708  0.57604150  0.83250771  1
  Se  Se12  1  0.50926419  0.08890464  0.00043755  1
  Se  Se13  1  0.51633179  0.09500808  0.33127279  1
  Se  Se14  1  0.51726071  0.08941974  0.66302670  1
  Se  Se15  1  0.42248279  0.51652313  0.16572300  1
  Se  Se16  1  0.42279234  0.51504560  0.49773543  1
  Se  Se17  1  0.42448532  0.51572470  0.83549589  1
  Se  Se18  1  0.33400803  0.66624757  0.31637967  1
  Se  Se19  1  0.33377174  0.66872848  0.64886187  1
  Se  Se20  1  0.33106258  0.66685337  0.98446762  1
  Se  Se21  1  0.66622826  0.33127152  0.14886187  1
  Se  Se22  1  0.66893742  0.33314663  0.48446762  1
  Se  Se23  1  0.66599197  0.33375243  0.81637967  1
  Se  Se24  1  0.83573220  0.09731726  0.24682427  1
  Se  Se25  1  0.84174967  0.10001398  0.56944634  1
  Se  Se26  1  0.84209439  0.10240352  0.89873993  1
  Se  Se27  1  0.73878633  0.83607051  0.07449489  1
  Se  Se28  1  0.73525664  0.83514173  0.40587667  1
  Se  Se29  1  0.73740633  0.83973427  0.73616825  1
  Se  Se30  1  0.10334077  0.26245528  0.07203708  1
  Se  Se31  1  0.10501294  0.26247556  0.40396772  1
  Se  Se32  1  0.10306780  0.26363449  0.73677721  1
  Se  Se33  1  0.89693220  0.73636551  0.23677721  1
  Se  Se34  1  0.89665923  0.73754472  0.57203708  1
  Se  Se35  1  0.89498706  0.73752444  0.90396772  1
  Se  Se36  1  0.26259367  0.16026573  0.23616825  1
  Se  Se37  1  0.26121367  0.16392949  0.57449489  1
  Se  Se38  1  0.26474336  0.16485827  0.90587667  1
  Se  Se39  1  0.15825033  0.89998602  0.06944634  1
  Se  Se40  1  0.15790561  0.89759648  0.39873993  1
  Se  Se41  1  0.16426780  0.90268274  0.74682427  1
loop_
_geom_bond_atom_site_label_1
_geom_bond_atom_site_label_2
_geom_bond_distance
_geom_bond_site_symmetry_2
Cu0 Se24 2.360278 1_555
Cu0 Se36 2.368048 1_655
Cu0 Se33 2.376276 1_545
Cu0 Y13 3.199903 1_655
Cu0 Y5 3.210597 1_545
Cu0 Y3 3.278359 1_645
Cu1 Se37 2.335077 1_565
Cu1 Se34 2.337732 1_455
Cu1 Se25 2.378682 1_465
Cu2 Se26 2.363135 1_455
Cu2 Se38 2.367024 1_555
Cu2 Se35 2.367492 1_445
Cu2 Y4 3.205618 1_545
Cu2 Y7 3.286124 1_445
Cu3 Se27 2.335077 1_545
Cu3 Se30 2.337732 1_655
Cu3 Se39 2.378682 1_645
Cu4 Se40 2.363135 1_655
Cu4 Se28 2.367024 1_555
Cu4 Se31 2.367492 1_665
Cu4 Y11 3.205618 1_565
Cu4 Y9 3.286124 1_665
Cu5 Se41 2.360278 1_555
Cu5 Se29 2.368048 1_455
Cu5 Se32 2.376276 1_565
Cu5 Y2 3.199903 1_455
Cu5 Y10 3.210597 1_565
Cu5 Y12 3.278359 1_465
Ge0 Se21 2.343622 1_555
Ge0 Se1 2.407372 1_555
Ge0 Se13 2.419605 1_555
Ge0 Se7 2.419722 1_555
Ge1 Se14 2.372648 1_555
Ge1 Se22 2.378975 1_555
Ge1 Se8 2.401747 1_555
Ge1 Se2 2.406963 1_555
Ge2 Se23 2.390983 1_555
Ge2 Se6 2.396572 1_555
Ge2 Se12 2.396891 1_556
Ge2 Se0 2.433483 1_555
Ge3 Se3 2.372648 1_555
Ge3 Se20 2.378975 1_554
Ge3 Se9 2.401747 1_555
Ge3 Se15 2.406963 1_555
Ge4 Se18 2.390983 1_555
Ge4 Se10 2.396572 1_555
Ge4 Se4 2.396891 1_555
Ge4 Se16 2.433483 1_555
Ge5 Se19 2.343622 1_555
Ge5 Se17 2.407372 1_555
Ge5 Se5 2.419605 1_555
Ge5 Se11 2.419722 1_555
Se0 Y8 2.925997 1_556
Se0 Y0 2.993018 1_556
Se0 Y7 3.125116 1_555
Se1 Y9 2.982507 1_555
Se1 Y1 3.039837 1_555
Se1 Y5 3.210141 1_555
Se2 Y10 2.965691 1_555
Se2 Y2 3.044988 1_555
Se2 Y6 3.110363 1_555
Se3 Y3 2.930729 1_555
Se3 Y5 3.040281 1_555
Se4 Y6 2.982101 1_555
Se4 Y11 3.123211 1_565
Se5 Y4 2.941544 1_555
Se5 Y7 3.017744 1_555
Se5 Y12 3.159951 1_565
Se6 Y0 2.924130 1_556
Se6 Y15 3.056747 1_655
Se7 Y1 2.963545 1_555
Se7 Y11 3.006641 1_555
Se7 Y13 3.137017 1_655
Se8 Y2 2.942757 1_555
Se8 Y12 3.024949 1_555
Se8 Y14 3.096189 1_655
Se9 Y13 2.942757 1_555
Se9 Y3 3.024949 1_555
Se9 Y0 3.096189 1_455
Se10 Y14 2.924130 1_555
Se10 Y1 3.056747 1_455
Se11 Y15 2.963545 1_555
Se11 Y4 3.006641 1_555
Se11 Y2 3.137017 1_455
Se12 Y8 2.982101 1_555
Se12 Y4 3.123211 1_544
Se13 Y11 2.941544 1_555
Se13 Y9 3.017744 1_555
Se13 Y3 3.159951 1_545
Se14 Y12 2.930729 1_555
Se14 Y10 3.040281 1_555
Se15 Y5 2.965691 1_555
Se15 Y13 3.044988 1_555
Se15 Y8 3.110363 1_555
Se16 Y6 2.925997 1_555
Se16 Y14 2.993018 1_555
Se16 Y9 3.125116 1_555
Se17 Y7 2.982507 1_555
Se17 Y15 3.039837 1_555
Se17 Y10 3.210141 1_555
Se18 Y3 3.037231 1_555
Se18 Y5 3.045336 1_555
Se18 Y13 3.107801 1_555
Se19 Y14 2.982726 1_555
Se19 Y6 2.991799 1_555
Se20 Y15 3.019407 1_555
Se20 Y7 3.022314 1_555
Se20 Y4 3.081507 1_555
Se21 Y0 2.982726 1_555
Se21 Y8 2.991799 1_555
Se22 Y1 3.019407 1_555
Se22 Y9 3.022314 1_555
Se22 Y11 3.081507 1_555
Se23 Y12 3.037231 1_555
Se23 Y10 3.045336 1_555
Se23 Y2 3.107801 1_555
Se24 Y13 2.836911 1_655
Se24 Y5 2.843422 1_545
Se24 Y11 3.215639 1_555
Se25 Y14 2.933778 1_655
Se25 Y6 2.976388 1_545
Se25 Y11 3.017667 1_555
Se25 Y12 3.456759 1_555
Se26 Y15 2.867718 1_655
Se26 Y12 2.926408 1_555
Se26 Y7 2.927312 1_545
Se27 Y0 2.907846 1_555
Se27 Y7 2.969753 1_554
Se27 Y5 3.352671 1_555
Se28 Y11 2.888731 1_565
Se28 Y1 2.937947 1_555
Se28 Y5 3.022057 1_555
Se28 Y6 3.424418 1_555
Se29 Y12 2.911563 1_565
Se29 Y2 2.940200 1_555
Se29 Y6 2.967655 1_555
Se29 Y7 3.546622 1_555
Se30 Y8 2.875100 1_555
Se30 Y15 2.937103 1_554
Se30 Y13 3.384545 1_555
Se31 Y9 2.885176 1_555
Se31 Y11 2.943332 1_455
Se31 Y13 2.996588 1_555
Se31 Y14 3.495015 1_555
Se32 Y10 2.882035 1_555
Se32 Y12 2.932982 1_455
Se32 Y14 2.952228 1_555
Se32 Y15 3.529506 1_555
Se33 Y5 2.882035 1_555
Se33 Y3 2.932982 1_655
Se33 Y0 2.952228 1_555
Se33 Y1 3.529506 1_555
Se34 Y6 2.875100 1_555
Se34 Y1 2.937103 1_555
Se34 Y2 3.384545 1_555
Se35 Y7 2.885176 1_555
Se35 Y4 2.943332 1_655
Se35 Y2 2.996588 1_555
Se35 Y0 3.495015 1_556
Se36 Y3 2.911563 1_545
Se36 Y13 2.940200 1_555
Se36 Y8 2.967655 1_555
Se36 Y9 3.546622 1_555
Se37 Y14 2.907846 1_555
Se37 Y9 2.969753 1_555
Se37 Y10 3.352671 1_555
Se38 Y4 2.888731 1_545
Se38 Y15 2.937947 1_555
Se38 Y10 3.022057 1_555
Se38 Y8 3.424418 1_556
Se39 Y0 2.933778 1_455
Se39 Y8 2.976388 1_565
Se39 Y4 3.017667 1_554
Se39 Y3 3.456759 1_555
Se40 Y1 2.867718 1_455
Se40 Y3 2.926408 1_555
Se40 Y9 2.927312 1_565
Se41 Y2 2.836911 1_455
Se41 Y10 2.843422 1_565
Se41 Y4 3.215639 1_555
