# generated using pymatgen
data_Pr6Fe13As
_symmetry_space_group_name_H-M   'P 1'
_cell_length_a   12.89300827
_cell_length_b   12.89300827
_cell_length_c   12.89300827
_cell_angle_alpha   143.77590060
_cell_angle_beta   143.77590060
_cell_angle_gamma   52.16253119
_symmetry_Int_Tables_number   1
_chemical_formula_structural   Pr6Fe13As
_chemical_formula_sum   'Pr12 Fe26 As2'
_cell_volume   744.14450384
_cell_formula_units_Z   2
loop_
 _symmetry_equiv_pos_site_id
 _symmetry_equiv_pos_as_xyz
  1  'x, y, z'
loop_
 _atom_site_type_symbol
 _atom_site_label
 _atom_site_symmetry_multiplicity
 _atom_site_fract_x
 _atom_site_fract_y
 _atom_site_fract_z
 _atom_site_occupancy
  Pr  Pr0  1  0.60693200  0.60693200  0.00000000  1
  Pr  Pr1  1  0.10693200  0.10693200  0.00000000  1
  Pr  Pr2  1  0.39306800  0.39306800  0.00000000  1
  Pr  Pr3  1  0.89306800  0.89306800  0.00000000  1
  Pr  Pr4  1  0.47702500  0.97702500  0.82990800  1
  Pr  Pr5  1  0.14711700  0.64711700  0.17009200  1
  Pr  Pr6  1  0.97702500  0.14711700  0.50000000  1
  Pr  Pr7  1  0.64711700  0.47702500  0.50000000  1
  Pr  Pr8  1  0.52297500  0.02297500  0.17009200  1
  Pr  Pr9  1  0.85288300  0.35288300  0.82990800  1
  Pr  Pr10  1  0.02297500  0.85288300  0.50000000  1
  Pr  Pr11  1  0.35288300  0.52297500  0.50000000  1
  Fe  Fe0  1  0.50000000  0.00000000  0.50000000  1
  Fe  Fe1  1  0.00000000  0.50000000  0.50000000  1
  Fe  Fe2  1  0.56627600  0.70932200  0.27559900  1
  Fe  Fe3  1  0.43372400  0.29067800  0.72440100  1
  Fe  Fe4  1  0.06627600  0.79067800  0.85695400  1
  Fe  Fe5  1  0.93372400  0.20932200  0.14304600  1
  Fe  Fe6  1  0.29067800  0.56627600  0.85695400  1
  Fe  Fe7  1  0.70932200  0.43372400  0.14304600  1
  Fe  Fe8  1  0.20932200  0.06627600  0.27559900  1
  Fe  Fe9  1  0.79067800  0.93372400  0.72440100  1
  Fe  Fe10  1  0.61990300  0.11990300  0.85806200  1
  Fe  Fe11  1  0.26184000  0.76184000  0.14193800  1
  Fe  Fe12  1  0.11990300  0.26184000  0.50000000  1
  Fe  Fe13  1  0.76184000  0.61990300  0.50000000  1
  Fe  Fe14  1  0.38009700  0.88009700  0.14193800  1
  Fe  Fe15  1  0.73816000  0.23816000  0.85806200  1
  Fe  Fe16  1  0.88009700  0.73816000  0.50000000  1
  Fe  Fe17  1  0.23816000  0.38009700  0.50000000  1
  Fe  Fe18  1  0.79271500  0.29271500  0.27409500  1
  Fe  Fe19  1  0.01862000  0.51862000  0.72590500  1
  Fe  Fe20  1  0.29271500  0.01862000  0.50000000  1
  Fe  Fe21  1  0.51862000  0.79271500  0.50000000  1
  Fe  Fe22  1  0.20728500  0.70728500  0.72590500  1
  Fe  Fe23  1  0.98138000  0.48138000  0.27409500  1
  Fe  Fe24  1  0.70728500  0.98138000  0.50000000  1
  Fe  Fe25  1  0.48138000  0.20728500  0.50000000  1
  As  As0  1  0.25000000  0.25000000  0.00000000  1
  As  As1  1  0.75000000  0.75000000  0.00000000  1
loop_
_geom_bond_atom_site_label_1
_geom_bond_atom_site_label_2
_geom_bond_distance
_geom_bond_site_symmetry_2
Fe0 Fe9 2.389949 1_545
Fe0 Fe3 2.389949 1_555
Fe0 Fe2 2.389949 1_545
Fe0 Fe8 2.389949 1_555
Fe0 Fe14 2.448403 1_545
Fe0 Fe10 2.448403 1_555
Fe0 Fe11 2.448416 1_545
Fe0 Fe15 2.448416 1_555
Fe0 Fe24 2.532371 1_545
Fe0 Fe21 2.532371 1_545
Fe0 Fe25 2.532371 1_555
Fe0 Fe20 2.532371 1_555
Fe1 Fe7 2.389952 1_455
Fe1 Fe4 2.389952 1_555
Fe1 Fe6 2.389952 1_555
Fe1 Fe5 2.389952 1_455
Fe1 Fe17 2.448414 1_555
Fe1 Fe16 2.448414 1_455
Fe1 Fe13 2.448414 1_455
Fe1 Fe12 2.448414 1_555
Fe1 Fe22 2.532371 1_555
Fe1 Fe19 2.532371 1_555
Fe1 Fe18 2.532371 1_455
Fe1 Fe23 2.532371 1_455
Fe2 Fe7 2.489131 1_555
Fe2 Fe6 2.489134 1_554
Fe2 Fe9 2.543968 1_555
Fe2 Fe21 2.634937 1_555
Fe2 Fe24 2.634956 1_555
Fe2 Pr2 3.038298 1_555
Fe2 Pr0 3.038317 1_555
Fe3 Fe6 2.489131 1_555
Fe3 Fe7 2.489134 1_556
Fe3 Fe8 2.543968 1_555
Fe3 Pr0 3.038298 1_556
Fe3 Pr2 3.038317 1_556
Fe4 Fe9 2.489131 1_455
Fe4 Fe8 2.489134 1_566
Fe4 Fe6 2.543980 1_555
Fe4 Pr1 3.038305 1_566
Fe4 Pr3 3.038305 1_456
Fe5 Fe8 2.489131 1_655
Fe5 Fe9 2.489134 1_544
Fe5 Fe7 2.543980 1_555
Fe5 Pr3 3.038305 1_545
Fe5 Pr1 3.038305 1_655
Fe6 Pr0 3.038305 1_556
Fe6 Pr2 3.038305 1_556
Fe7 Pr0 3.038305 1_555
Fe7 Pr2 3.038305 1_555
Fe8 Pr3 3.038298 1_445
Fe8 Pr1 3.038317 1_555
Fe9 Pr1 3.038298 1_666
Fe9 Pr3 3.038317 1_556
Fe10 Fe5 2.470375 1_556
Fe10 Fe7 2.470375 1_556
Fe10 Fe18 2.495195 1_556
Fe10 Fe21 2.534533 1_545
Fe10 Fe20 2.534533 1_555
Fe10 Fe9 2.557981 1_545
Fe10 Fe3 2.557981 1_555
Fe10 Fe15 2.738863 1_555
Fe10 Pr4 2.987331 1_545
Fe10 Pr3 3.147325 1_546
Fe10 Pr2 3.147325 1_556
Fe11 Fe4 2.470388 1_554
Fe11 Fe6 2.470388 1_554
Fe11 Fe19 2.495188 1_554
Fe11 Fe20 2.534526 1_565
Fe11 Fe21 2.534526 1_555
Fe11 Fe8 2.557981 1_565
Fe11 Fe2 2.557981 1_555
Fe11 Fe14 2.738863 1_555
Fe11 Pr5 2.987307 1_555
Fe11 Pr3 3.147317 1_455
Fe11 Pr2 3.147317 1_555
Fe12 Fe8 2.470369 1_555
Fe12 Fe3 2.470381 1_555
Fe12 Fe20 2.495186 1_555
Fe12 Fe19 2.534534 1_555
Fe12 Fe18 2.534534 1_455
Fe12 Fe5 2.557981 1_455
Fe12 Fe6 2.557981 1_555
Fe12 Fe17 2.738863 1_555
Fe12 Pr6 2.987319 1_455
Fe12 Pr3 3.147319 1_445
Fe12 Pr2 3.147319 1_556
Fe13 Fe2 2.470369 1_555
Fe13 Fe9 2.470381 1_555
Fe13 Fe21 2.495186 1_555
Fe13 Fe19 2.534534 1_655
Fe13 Fe18 2.534534 1_555
Fe13 Fe7 2.557981 1_555
Fe13 Fe4 2.557981 1_655
Fe13 Fe16 2.738863 1_555
Fe13 Pr7 2.987319 1_555
Fe13 Pr2 3.147319 1_555
Fe13 Pr3 3.147319 1_556
Fe14 Fe4 2.470375 1_554
Fe14 Fe6 2.470375 1_554
Fe14 Fe22 2.495195 1_554
Fe14 Fe24 2.534533 1_555
Fe14 Fe25 2.534533 1_565
Fe14 Fe2 2.557981 1_555
Fe14 Fe8 2.557981 1_565
Fe14 Pr8 2.987331 1_565
Fe14 Pr1 3.147325 1_565
Fe14 Pr0 3.147325 1_555
Fe15 Fe7 2.470388 1_556
Fe15 Fe5 2.470388 1_556
Fe15 Fe23 2.495188 1_556
Fe15 Fe24 2.534526 1_545
Fe15 Fe25 2.534526 1_555
Fe15 Fe9 2.557981 1_545
Fe15 Fe3 2.557981 1_555
Fe15 Pr9 2.987307 1_555
Fe15 Pr1 3.147317 1_656
Fe15 Pr0 3.147317 1_556
Fe16 Fe9 2.470369 1_555
Fe16 Fe2 2.470381 1_555
Fe16 Fe24 2.495186 1_555
Fe16 Fe22 2.534534 1_655
Fe16 Fe23 2.534534 1_555
Fe16 Fe4 2.557981 1_655
Fe16 Fe7 2.557981 1_555
Fe16 Pr10 2.987319 1_655
Fe16 Pr1 3.147319 1_666
Fe16 Pr0 3.147319 1_555
Fe17 Fe3 2.470369 1_555
Fe17 Fe8 2.470381 1_555
Fe17 Fe25 2.495186 1_555
Fe17 Fe22 2.534534 1_555
Fe17 Fe23 2.534534 1_455
Fe17 Fe6 2.557981 1_555
Fe17 Fe5 2.557981 1_455
Fe17 Pr11 2.987319 1_555
Fe17 Pr1 3.147319 1_555
Fe17 Pr0 3.147319 1_556
Fe18 Fe19 2.561019 1_655
Fe18 Fe5 2.634949 1_555
Fe18 Fe7 2.634949 1_555
Fe18 Pr6 3.136199 1_555
Fe18 Pr7 3.136199 1_555
Fe18 Pr3 3.245241 1_545
Fe18 Pr2 3.245241 1_555
Fe18 Pr4 3.322404 1_544
Fe19 Fe6 2.634949 1_555
Fe19 Fe4 2.634949 1_555
Fe19 Pr6 3.136199 1_455
Fe19 Pr7 3.136199 1_455
Fe19 Pr3 3.245241 1_456
Fe19 Pr2 3.245241 1_556
Fe19 Pr5 3.322404 1_556
Fe20 Fe21 2.561019 1_545
Fe20 Fe8 2.634937 1_555
Fe20 Fe3 2.634956 1_555
Fe20 Pr5 3.136199 1_545
Fe20 Pr4 3.136199 1_545
Fe20 Pr2 3.245241 1_556
Fe20 Pr3 3.245241 1_445
Fe20 Pr6 3.322404 1_455
Fe21 Fe9 2.634956 1_555
Fe21 Pr5 3.136199 1_555
Fe21 Pr4 3.136199 1_555
Fe21 Pr3 3.245241 1_556
Fe21 Pr2 3.245241 1_555
Fe21 Pr7 3.322404 1_555
Fe22 Fe23 2.561019 1_455
Fe22 Fe6 2.634949 1_555
Fe22 Fe4 2.634949 1_555
Fe22 Pr11 3.136199 1_555
Fe22 Pr10 3.136199 1_555
Fe22 Pr0 3.245241 1_556
Fe22 Pr1 3.245241 1_566
Fe22 Pr8 3.322404 1_566
Fe23 Fe7 2.634949 1_555
Fe23 Fe5 2.634949 1_555
Fe23 Pr10 3.136199 1_655
Fe23 Pr11 3.136199 1_655
Fe23 Pr1 3.245241 1_655
Fe23 Pr0 3.245241 1_555
Fe23 Pr9 3.322404 1_554
Fe24 Fe25 2.561019 1_565
Fe24 Fe9 2.634937 1_555
Fe24 Pr8 3.136199 1_565
Fe24 Pr9 3.136199 1_565
Fe24 Pr0 3.245241 1_555
Fe24 Pr1 3.245241 1_666
Fe24 Pr10 3.322404 1_655
Fe25 Fe3 2.634937 1_555
Fe25 Fe8 2.634956 1_555
Fe25 Pr9 3.136199 1_555
Fe25 Pr8 3.136199 1_555
Fe25 Pr1 3.245241 1_555
Fe25 Pr0 3.245241 1_556
Fe25 Pr11 3.322404 1_555
As0 Pr2 3.313492 1_555
As0 Pr1 3.313492 1_555
As0 Pr5 3.320958 1_555
As0 Pr7 3.320958 1_555
As0 Pr6 3.320958 1_454
As0 Pr4 3.320958 1_544
As0 Pr8 3.320958 1_555
As0 Pr9 3.320958 1_454
As0 Pr11 3.320958 1_555
As0 Pr10 3.320958 1_544
As1 Pr3 3.313492 1_555
As1 Pr0 3.313492 1_555
As1 Pr4 3.320958 1_554
As1 Pr7 3.320958 1_554
As1 Pr6 3.320958 1_565
As1 Pr9 3.320958 1_554
As1 Pr5 3.320958 1_655
As1 Pr11 3.320958 1_554
As1 Pr8 3.320958 1_565
As1 Pr10 3.320958 1_655
