# generated using pymatgen
data_Ba3CrO5
_symmetry_space_group_name_H-M   'P 1'
_cell_length_a   7.33347832
_cell_length_b   7.83517539
_cell_length_c   7.33347892
_cell_angle_alpha   117.90508893
_cell_angle_beta   89.99450011
_cell_angle_gamma   117.90518309
_symmetry_Int_Tables_number   1
_chemical_formula_structural   Ba3CrO5
_chemical_formula_sum   'Ba6 Cr2 O10'
_cell_volume   315.88434569
_cell_formula_units_Z   2
loop_
 _symmetry_equiv_pos_site_id
 _symmetry_equiv_pos_as_xyz
  1  'x, y, z'
loop_
 _atom_site_type_symbol
 _atom_site_label
 _atom_site_symmetry_multiplicity
 _atom_site_fract_x
 _atom_site_fract_y
 _atom_site_fract_z
 _atom_site_occupancy
  Ba  Ba0  1  0.75002134  0.50000310  0.74997687  1
  Ba  Ba1  1  0.24997543  0.50000102  0.25002151  1
  Ba  Ba2  1  0.32103269  0.99999534  0.17895907  1
  Ba  Ba3  1  0.67895709  0.99999281  0.82103221  1
  Ba  Ba4  1  0.17899415  0.00002896  0.67899436  1
  Ba  Ba5  1  0.82101080  -0.00001820  0.32101173  1
  Cr  Cr0  1  0.24997735  0.49997064  0.74997849  1
  Cr  Cr1  1  0.75002240  0.50002812  0.25002202  1
  O  O0  1  0.00000119  0.00000220  0.00000341  1
  O  O1  1  0.50000157  -0.00000033  0.50000156  1
  O  O2  1  0.52258057  0.31569158  0.02258245  1
  O  O3  1  0.20684795  0.68427682  0.70685033  1
  O  O4  1  0.47739911  0.68430617  0.97740113  1
  O  O5  1  0.97747171  0.68435617  0.20690128  1
  O  O6  1  0.70690562  0.68435477  0.47747520  1
  O  O7  1  0.02255236  0.31565559  0.79309466  1
  O  O8  1  0.29309738  0.31565702  0.52255399  1
  O  O9  1  0.79314928  0.31569923  0.29314074  1
loop_
_geom_bond_atom_site_label_1
_geom_bond_atom_site_label_2
_geom_bond_distance
_geom_bond_site_symmetry_2
Ba0 O0 2.936820 1_666
Ba0 O1 2.936845 1_555
Ba0 O3 3.050853 1_655
Ba0 O9 3.050922 1_555
Ba0 O6 3.051120 1_555
Ba0 O7 3.051288 1_655
Ba0 O2 3.051411 1_556
Ba0 O4 3.051447 1_555
Ba0 O8 3.051551 1_555
Ba0 O5 3.051605 1_556
Ba1 O1 2.936817 1_565
Ba1 O0 2.936818 1_555
Ba1 O9 3.050834 1_455
Ba1 O3 3.050872 1_555
Ba1 O5 3.051168 1_455
Ba1 O8 3.051283 1_555
Ba1 O2 3.051398 1_555
Ba1 O4 3.051439 1_554
Ba1 O7 3.051573 1_554
Ba1 O6 3.051647 1_555
Ba2 O5 2.673572 1_455
Ba2 O8 2.673768 1_565
Ba2 O0 2.695498 1_565
Ba2 O1 2.695560 1_565
Ba2 O4 2.974942 1_554
Ba2 O2 2.975032 1_565
Ba2 O3 2.975304 1_554
Ba2 O9 2.975330 1_565
Ba3 O6 2.673580 1_555
Ba3 O7 2.673779 1_665
Ba3 O1 2.695492 1_565
Ba3 O0 2.695553 1_666
Ba3 O4 2.974938 1_555
Ba3 O2 2.975052 1_566
Ba3 O9 2.975283 1_566
Ba3 O3 2.975303 1_555
Ba4 O2 2.673886 1_556
Ba4 O3 2.673962 1_545
Ba4 O1 2.695264 1_555
Ba4 O0 2.695271 1_556
Ba4 O8 2.974997 1_555
Ba4 O7 2.975000 1_555
Ba4 O6 2.975215 1_445
Ba4 O5 2.975245 1_445
Ba5 O9 2.673776 1_555
Ba5 O4 2.674069 1_544
Ba5 O0 2.695248 1_655
Ba5 O1 2.695248 1_555
Ba5 O5 2.975094 1_545
Ba5 O6 2.975120 1_545
Ba5 O7 2.975203 1_655
Ba5 O8 2.975222 1_655
Cr0 O7 1.771998 1_555
Cr0 O8 1.772009 1_555
Cr0 O4 1.772080 1_555
Cr0 O3 1.772134 1_555
Cr1 O6 1.772160 1_555
Cr1 O5 1.772163 1_555
Cr1 O2 1.772231 1_555
Cr1 O9 1.772260 1_555
