# generated using pymatgen
data_La3YFe4(AsO)4
_symmetry_space_group_name_H-M   'P 1'
_cell_length_a   4.06117400
_cell_length_b   4.06117400
_cell_length_c   18.39186400
_cell_angle_alpha   90.00000000
_cell_angle_beta   90.00000000
_cell_angle_gamma   90.00000000
_symmetry_Int_Tables_number   1
_chemical_formula_structural   La3YFe4(AsO)4
_chemical_formula_sum   'La3 Y1 Fe4 As4 O4'
_cell_volume   303.33948221
_cell_formula_units_Z   1
loop_
 _symmetry_equiv_pos_site_id
 _symmetry_equiv_pos_as_xyz
  1  'x, y, z'
loop_
 _atom_site_type_symbol
 _atom_site_label
 _atom_site_symmetry_multiplicity
 _atom_site_fract_x
 _atom_site_fract_y
 _atom_site_fract_z
 _atom_site_occupancy
  La  La0  1  0.50000000  0.50000000  0.93249900  1
  La  La1  1  0.00000000  0.00000000  0.06586200  1
  La  La2  1  0.00000000  0.00000000  0.56478100  1
  Y  Y0  1  0.50000000  0.50000000  0.44017600  1
  Fe  Fe0  1  0.50000000  0.00000000  0.25208100  1
  Fe  Fe1  1  0.50000000  0.00000000  0.74937900  1
  Fe  Fe2  1  0.00000000  0.50000000  0.25208100  1
  Fe  Fe3  1  0.00000000  0.50000000  0.74937900  1
  As  As0  1  0.50000000  0.50000000  0.16349300  1
  As  As1  1  0.50000000  0.50000000  0.66474100  1
  As  As2  1  0.00000000  0.00000000  0.34092300  1
  As  As3  1  0.00000000  0.00000000  0.83320200  1
  O  O0  1  0.50000000  0.00000000  0.99883800  1
  O  O1  1  0.50000000  0.00000000  0.49686400  1
  O  O2  1  0.00000000  0.50000000  0.99883800  1
  O  O3  1  0.00000000  0.50000000  0.49686400  1
loop_
_geom_bond_atom_site_label_1
_geom_bond_atom_site_label_2
_geom_bond_distance
_geom_bond_site_symmetry_2
La0 O2 2.368950 1_555
La0 O0 2.368950 1_555
La0 O2 2.368950 1_655
La0 O0 2.368950 1_565
La1 O2 2.375463 1_554
La1 O0 2.375463 1_554
La1 O2 2.375463 1_544
La1 O0 2.375463 1_454
La2 O1 2.384027 1_555
La2 O3 2.384027 1_545
La2 O1 2.384027 1_455
La2 O3 2.384027 1_555
As0 Fe2 2.603439 1_555
As0 Fe2 2.603439 1_655
As0 Fe0 2.603439 1_565
As0 Fe0 2.603439 1_555
As0 La1 3.386858 1_655
As0 La1 3.386858 1_565
As0 La1 3.386858 1_555
As0 La1 3.386858 1_665
As1 Fe1 2.558602 1_555
As1 Fe3 2.558602 1_655
As1 Fe1 2.558602 1_565
As1 Fe3 2.558602 1_555
As1 La2 3.409761 1_555
As1 La2 3.409761 1_565
As1 La2 3.409761 1_665
As1 La2 3.409761 1_655
As2 Fe2 2.606366 1_545
As2 Fe0 2.606366 1_555
As2 Fe2 2.606366 1_555
As2 Fe0 2.606366 1_455
As2 Y0 3.402767 1_545
As2 Y0 3.402767 1_555
As2 Y0 3.402767 1_445
As2 Y0 3.402767 1_455
As3 Fe3 2.549510 1_555
As3 Fe1 2.549510 1_455
As3 Fe3 2.549510 1_545
As3 Fe1 2.549510 1_555
As3 La0 3.403202 1_445
As3 La0 3.403202 1_455
As3 La0 3.403202 1_545
As3 La0 3.403202 1_555
O1 Y0 2.282607 1_555
O1 Y0 2.282607 1_545
O3 Y0 2.282607 1_455
O3 Y0 2.282607 1_555
