# generated using pymatgen
data_Cu2SiHgS4
_symmetry_space_group_name_H-M   'P 1'
_cell_length_a   6.26069484
_cell_length_b   6.45203477
_cell_length_c   7.61640596
_cell_angle_alpha   90.00000000
_cell_angle_beta   90.00000000
_cell_angle_gamma   90.00000000
_symmetry_Int_Tables_number   1
_chemical_formula_structural   Cu2SiHgS4
_chemical_formula_sum   'Cu4 Si2 Hg2 S8'
_cell_volume   307.65878399
_cell_formula_units_Z   2
loop_
 _symmetry_equiv_pos_site_id
 _symmetry_equiv_pos_as_xyz
  1  'x, y, z'
loop_
 _atom_site_type_symbol
 _atom_site_label
 _atom_site_symmetry_multiplicity
 _atom_site_fract_x
 _atom_site_fract_y
 _atom_site_fract_z
 _atom_site_occupancy
  Cu  Cu0  1  0.50557003  0.32644230  0.74799403  1
  Cu  Cu1  1  0.50557003  0.32644230  0.25200597  1
  Cu  Cu2  1  0.00557003  0.67355770  0.75200597  1
  Cu  Cu3  1  0.00557003  0.67355770  0.24799403  1
  Si  Si0  1  0.50202280  0.81776749  0.50000000  1
  Si  Si1  1  0.00202280  0.18223251  0.00000000  1
  Hg  Hg0  1  0.01210860  0.15323236  0.50000000  1
  Hg  Hg1  1  0.51210860  0.84676764  0.00000000  1
  S  S0  1  0.84294702  0.78784445  0.50000000  1
  S  S1  1  0.34294702  0.21215555  0.00000000  1
  S  S2  1  0.41884253  0.14114794  0.50000000  1
  S  S3  1  0.91884253  0.85885206  0.00000000  1
  S  S4  1  0.87046899  0.34120087  0.77766949  1
  S  S5  1  0.87046899  0.34120087  0.22233051  1
  S  S6  1  0.37046899  0.65879913  0.72233051  1
  S  S7  1  0.37046899  0.65879913  0.27766949  1
loop_
_geom_bond_atom_site_label_1
_geom_bond_atom_site_label_2
_geom_bond_distance
_geom_bond_site_symmetry_2
Cu0 S1 2.294416 1_556
Cu0 S4 2.297649 1_555
Cu0 S2 2.300382 1_555
Cu0 S6 2.313436 1_555
Cu1 S1 2.294416 1_555
Cu1 S5 2.297649 1_555
Cu1 S2 2.300382 1_555
Cu1 S7 2.313436 1_555
Cu2 S0 2.294416 1_455
Cu2 S6 2.297649 1_555
Cu2 S3 2.300382 1_456
Cu2 S4 2.313436 1_455
Cu3 S0 2.294416 1_455
Cu3 S7 2.297649 1_555
Cu3 S3 2.300382 1_455
Cu3 S5 2.313436 1_455
Hg0 S2 2.547630 1_555
Hg0 S0 2.584456 1_445
Hg0 S4 2.594175 1_455
Hg0 S5 2.594175 1_455
Hg1 S3 2.547630 1_555
Hg1 S1 2.584456 1_565
Hg1 S6 2.594175 1_554
Hg1 S7 2.594175 1_555
S0 Si0 2.143136 1_555
S1 Si1 2.143136 1_555
S2 Si0 2.150470 1_545
S3 Si1 2.150470 1_665
S4 Si1 2.144251 1_656
S5 Si1 2.144251 1_655
S6 Si0 2.144251 1_555
S7 Si0 2.144251 1_555
