# generated using pymatgen
data_Ti4(FeO4)3
_symmetry_space_group_name_H-M   'P 1'
_cell_length_a   6.47841388
_cell_length_b   6.47841388
_cell_length_c   6.47841388
_cell_angle_alpha   109.47122063
_cell_angle_beta   109.47122063
_cell_angle_gamma   109.47122063
_symmetry_Int_Tables_number   1
_chemical_formula_structural   Ti4(FeO4)3
_chemical_formula_sum   'Ti4 Fe3 O12'
_cell_volume   209.30720570
_cell_formula_units_Z   1
loop_
 _symmetry_equiv_pos_site_id
 _symmetry_equiv_pos_as_xyz
  1  'x, y, z'
loop_
 _atom_site_type_symbol
 _atom_site_label
 _atom_site_symmetry_multiplicity
 _atom_site_fract_x
 _atom_site_fract_y
 _atom_site_fract_z
 _atom_site_occupancy
  Ti  Ti0  1  0.50000000  0.50000000  0.50000000  1
  Ti  Ti1  1  0.00000000  0.50000000  0.00000000  1
  Ti  Ti2  1  0.00000000  0.00000000  0.50000000  1
  Ti  Ti3  1  0.50000000  0.00000000  0.00000000  1
  Fe  Fe0  1  0.50000000  0.50000000  0.00000000  1
  Fe  Fe1  1  0.50000000  0.00000000  0.50000000  1
  Fe  Fe2  1  0.00000000  0.50000000  0.50000000  1
  O  O0  1  0.19787200  0.88900800  0.69113600  1
  O  O1  1  0.19787200  0.50673600  0.30886400  1
  O  O2  1  0.80212800  0.49326400  0.69113600  1
  O  O3  1  0.30886400  0.19787200  0.50673600  1
  O  O4  1  0.88900800  0.69113600  0.19787200  1
  O  O5  1  0.11099200  0.30886400  0.80212800  1
  O  O6  1  0.30886400  0.80212800  0.11099200  1
  O  O7  1  0.50673600  0.30886400  0.19787200  1
  O  O8  1  0.80212800  0.11099200  0.30886400  1
  O  O9  1  0.69113600  0.19787200  0.88900800  1
  O  O10  1  0.69113600  0.80212800  0.49326400  1
  O  O11  1  0.49326400  0.69113600  0.80212800  1
loop_
_geom_bond_atom_site_label_1
_geom_bond_atom_site_label_2
_geom_bond_distance
_geom_bond_site_symmetry_2
Fe0 O7 2.058006 1_555
Fe0 O11 2.058006 1_554
Fe0 O4 2.058006 1_555
Fe0 O5 2.058006 1_554
Fe1 O3 2.058006 1_555
Fe1 O10 2.058006 1_545
Fe1 O9 2.058006 1_555
Fe1 O6 2.058006 1_545
Fe2 O0 2.058006 1_555
Fe2 O2 2.058006 1_455
Fe2 O1 2.058006 1_555
Fe2 O8 2.058006 1_455
O0 Ti2 1.960471 1_565
O0 Ti3 1.960471 1_566
O1 Ti0 1.960471 1_555
O1 Ti1 1.960471 1_555
O2 Ti1 1.960471 1_656
O2 Ti0 1.960471 1_555
O3 Ti0 1.960471 1_555
O3 Ti2 1.960471 1_555
O4 Ti1 1.960471 1_655
O4 Ti2 1.960471 1_665
O5 Ti1 1.960471 1_556
O5 Ti2 1.960471 1_555
O6 Ti3 1.960471 1_565
O6 Ti1 1.960471 1_555
O7 Ti0 1.960471 1_555
O7 Ti3 1.960471 1_555
O8 Ti2 1.960471 1_655
O8 Ti3 1.960471 1_555
O9 Ti1 1.960471 1_656
O9 Ti3 1.960471 1_556
O10 Ti2 1.960471 1_665
O10 Ti0 1.960471 1_555
O11 Ti0 1.960471 1_555
O11 Ti3 1.960471 1_566
