# generated using pymatgen
data_Sr2GdCu2RuO8
_symmetry_space_group_name_H-M   'P 1'
_cell_length_a   5.47245100
_cell_length_b   5.47245100
_cell_length_c   11.74070200
_cell_angle_alpha   90.00000000
_cell_angle_beta   90.00000000
_cell_angle_gamma   90.00000000
_symmetry_Int_Tables_number   1
_chemical_formula_structural   Sr2GdCu2RuO8
_chemical_formula_sum   'Sr4 Gd2 Cu4 Ru2 O16'
_cell_volume   351.60725548
_cell_formula_units_Z   2
loop_
 _symmetry_equiv_pos_site_id
 _symmetry_equiv_pos_as_xyz
  1  'x, y, z'
loop_
 _atom_site_type_symbol
 _atom_site_label
 _atom_site_symmetry_multiplicity
 _atom_site_fract_x
 _atom_site_fract_y
 _atom_site_fract_z
 _atom_site_occupancy
  Sr  Sr0  1  0.50000000  0.00000000  0.81013600  1
  Sr  Sr1  1  0.00000000  0.50000000  0.18986400  1
  Sr  Sr2  1  0.50000000  0.00000000  0.18986400  1
  Sr  Sr3  1  0.00000000  0.50000000  0.81013600  1
  Gd  Gd0  1  0.50000000  0.00000000  0.50000000  1
  Gd  Gd1  1  0.00000000  0.50000000  0.50000000  1
  Cu  Cu0  1  0.50000000  0.50000000  0.64302100  1
  Cu  Cu1  1  0.00000000  0.00000000  0.35697900  1
  Cu  Cu2  1  0.50000000  0.50000000  0.35697900  1
  Cu  Cu3  1  0.00000000  0.00000000  0.64302100  1
  Ru  Ru0  1  0.50000000  0.50000000  0.00000000  1
  Ru  Ru1  1  0.00000000  0.00000000  0.00000000  1
  O  O0  1  0.50000000  0.50000000  0.83280800  1
  O  O1  1  0.00000000  0.00000000  0.16719200  1
  O  O2  1  0.50000000  0.50000000  0.16719200  1
  O  O3  1  0.00000000  0.00000000  0.83280800  1
  O  O4  1  0.81704400  0.31704400  0.00000000  1
  O  O5  1  0.18295600  0.68295600  0.00000000  1
  O  O6  1  0.31704400  0.18295600  0.00000000  1
  O  O7  1  0.68295600  0.81704400  0.00000000  1
  O  O8  1  0.74954400  0.24954400  0.37319300  1
  O  O9  1  0.25045600  0.75045600  0.37319300  1
  O  O10  1  0.24954400  0.25045600  0.62680700  1
  O  O11  1  0.75045600  0.74954400  0.62680700  1
  O  O12  1  0.25045600  0.75045600  0.62680700  1
  O  O13  1  0.74954400  0.24954400  0.62680700  1
  O  O14  1  0.75045600  0.74954400  0.37319300  1
  O  O15  1  0.24954400  0.25045600  0.37319300  1
loop_
_geom_bond_atom_site_label_1
_geom_bond_atom_site_label_2
_geom_bond_distance
_geom_bond_site_symmetry_2
Gd0 O9 2.438515 1_545
Gd0 O12 2.438515 1_545
Gd0 O13 2.438515 1_555
Gd0 O8 2.438515 1_555
Gd0 O15 2.444109 1_555
Gd0 O10 2.444109 1_555
Gd0 O14 2.444109 1_545
Gd0 O11 2.444109 1_545
Gd1 O10 2.438515 1_555
Gd1 O14 2.438515 1_455
Gd1 O11 2.438515 1_455
Gd1 O15 2.438515 1_555
Gd1 O13 2.444109 1_455
Gd1 O12 2.444109 1_555
Gd1 O9 2.444109 1_555
Gd1 O8 2.444109 1_455
Cu0 O13 1.944149 1_555
Cu0 O10 1.944149 1_555
Cu0 O12 1.944149 1_555
Cu0 O11 1.944149 1_555
Cu0 O0 2.228233 1_555
Cu1 O8 1.944149 1_455
Cu1 O14 1.944149 1_445
Cu1 O15 1.944149 1_555
Cu1 O9 1.944149 1_545
Cu1 O1 2.228233 1_555
Cu2 O14 1.944149 1_555
Cu2 O15 1.944149 1_555
Cu2 O8 1.944149 1_555
Cu2 O9 1.944149 1_555
Cu2 O2 2.228233 1_555
Cu3 O10 1.944149 1_555
Cu3 O12 1.944149 1_545
Cu3 O13 1.944149 1_455
Cu3 O11 1.944149 1_445
Cu3 O3 2.228233 1_555
O0 Ru0 1.962951 1_556
O0 Sr0 2.749143 1_565
O0 Sr0 2.749143 1_555
O0 Sr3 2.749143 1_555
O0 Sr3 2.749143 1_655
O1 Ru1 1.962951 1_555
O1 Sr2 2.749143 1_455
O1 Sr2 2.749143 1_555
O1 Sr1 2.749143 1_545
O1 Sr1 2.749143 1_555
O2 Ru0 1.962951 1_555
O2 Sr2 2.749143 1_555
O2 Sr2 2.749143 1_565
O2 Sr1 2.749143 1_655
O2 Sr1 2.749143 1_555
O3 Ru1 1.962951 1_556
O3 Sr0 2.749143 1_455
O3 Sr0 2.749143 1_555
O3 Sr3 2.749143 1_555
O3 Sr3 2.749143 1_545
O4 Ru1 2.003170 1_655
O4 Ru0 2.003170 1_555
O4 Sr3 2.640819 1_654
O4 Sr1 2.640819 1_655
O5 Ru1 2.003170 1_565
O5 Ru0 2.003170 1_555
O5 Sr1 2.640819 1_555
O5 Sr3 2.640819 1_554
O6 Ru1 2.003170 1_555
O6 Ru0 2.003170 1_555
O6 Sr0 2.640819 1_554
O6 Sr2 2.640819 1_555
O7 Ru1 2.003170 1_665
O7 Ru0 2.003170 1_555
O7 Sr2 2.640819 1_565
O7 Sr0 2.640819 1_564
O8 Sr2 2.891832 1_555
O8 Sr1 2.896551 1_655
O9 Sr2 2.891832 1_565
O9 Sr1 2.896551 1_555
O10 Sr3 2.891832 1_555
O10 Sr0 2.896551 1_555
O11 Sr3 2.891832 1_655
O11 Sr0 2.896551 1_565
O12 Sr0 2.891832 1_565
O12 Sr3 2.896551 1_555
O13 Sr0 2.891832 1_555
O13 Sr3 2.896551 1_655
O14 Sr1 2.891832 1_655
O14 Sr2 2.896551 1_565
O15 Sr1 2.891832 1_555
O15 Sr2 2.896551 1_555
