# generated using pymatgen
data_SmEuB12
_symmetry_space_group_name_H-M   'P 1'
_cell_length_a   5.84230987
_cell_length_b   5.84230987
_cell_length_c   5.84230987
_cell_angle_alpha   60.00000000
_cell_angle_beta   60.00000000
_cell_angle_gamma   60.00000000
_symmetry_Int_Tables_number   1
_chemical_formula_structural   SmEuB12
_chemical_formula_sum   'Sm1 Eu1 B12'
_cell_volume   141.00638104
_cell_formula_units_Z   1
loop_
 _symmetry_equiv_pos_site_id
 _symmetry_equiv_pos_as_xyz
  1  'x, y, z'
loop_
 _atom_site_type_symbol
 _atom_site_label
 _atom_site_symmetry_multiplicity
 _atom_site_fract_x
 _atom_site_fract_y
 _atom_site_fract_z
 _atom_site_occupancy
  Sm  Sm0  1  0.50000000  0.50000000  0.50000000  1
  Eu  Eu0  1  -0.00000000  0.00000000  0.00000000  1
  B  B0  1  0.89983533  0.60016467  0.60016467  1
  B  B1  1  0.39983533  0.10016467  0.10016467  1
  B  B2  1  0.89983533  0.89983533  0.60016467  1
  B  B3  1  0.39983533  0.39983533  0.10016467  1
  B  B4  1  0.60016467  0.89983533  0.60016467  1
  B  B5  1  0.10016467  0.39983533  0.10016467  1
  B  B6  1  0.60016467  0.60016467  0.89983533  1
  B  B7  1  0.10016467  0.10016467  0.39983533  1
  B  B8  1  0.89983533  0.60016467  0.89983533  1
  B  B9  1  0.39983533  0.10016467  0.39983533  1
  B  B10  1  0.60016467  0.89983533  0.89983533  1
  B  B11  1  0.10016467  0.39983533  0.39983533  1
loop_
_geom_bond_atom_site_label_1
_geom_bond_atom_site_label_2
_geom_bond_distance
_geom_bond_site_symmetry_2
B0 B11 1.655176 1_655
B0 B4 1.750769 1_555
B0 B8 1.750769 1_555
B0 B2 1.750769 1_555
B0 B6 1.750769 1_555
B0 Sm0 3.036124 1_555
B0 Eu0 3.036124 1_665
B0 Sm0 3.036124 1_655
B0 Eu0 3.036124 1_656
B1 B10 1.655176 1_544
B1 B9 1.750769 1_555
B1 B3 1.750769 1_555
B1 B7 1.750769 1_555
B1 B5 1.750769 1_555
B1 Sm0 3.036124 1_545
B1 Sm0 3.036124 1_554
B1 Eu0 3.036124 1_555
B1 Eu0 3.036124 1_655
B2 B7 1.655176 1_665
B2 B4 1.750769 1_555
B2 B8 1.750769 1_555
B2 Sm0 3.036124 1_565
B2 Eu0 3.036124 1_666
B2 Eu0 3.036124 1_665
B2 Sm0 3.036124 1_655
B3 B6 1.655176 1_554
B3 B9 1.750769 1_555
B3 B5 1.750769 1_555
B3 Sm0 3.036124 1_554
B3 Eu0 3.036124 1_565
B3 Eu0 3.036124 1_655
B3 Sm0 3.036124 1_555
B4 B9 1.655176 1_565
B4 B6 1.750769 1_555
B4 Sm0 3.036124 1_565
B4 Eu0 3.036124 1_566
B4 Sm0 3.036124 1_555
B4 Eu0 3.036124 1_665
B5 B8 1.655176 1_454
B5 B7 1.750769 1_555
B5 Sm0 3.036124 1_554
B5 Sm0 3.036124 1_455
B5 Eu0 3.036124 1_555
B5 Eu0 3.036124 1_565
B6 B8 1.750769 1_555
B6 Eu0 3.036124 1_566
B6 Sm0 3.036124 1_556
B6 Sm0 3.036124 1_555
B6 Eu0 3.036124 1_656
B7 B9 1.750769 1_555
B7 Sm0 3.036124 1_545
B7 Sm0 3.036124 1_455
B7 Eu0 3.036124 1_555
B7 Eu0 3.036124 1_556
B8 Sm0 3.036124 1_556
B8 Eu0 3.036124 1_666
B8 Sm0 3.036124 1_655
B8 Eu0 3.036124 1_656
B9 Sm0 3.036124 1_545
B9 Eu0 3.036124 1_655
B9 Sm0 3.036124 1_555
B9 Eu0 3.036124 1_556
B10 B4 1.750769 1_555
B10 B8 1.750769 1_555
B10 B2 1.750769 1_555
B10 B6 1.750769 1_555
B10 Sm0 3.036124 1_565
B10 Eu0 3.036124 1_566
B10 Eu0 3.036124 1_666
B10 Sm0 3.036124 1_556
B11 B9 1.750769 1_555
B11 B3 1.750769 1_555
B11 B7 1.750769 1_555
B11 B5 1.750769 1_555
B11 Sm0 3.036124 1_455
B11 Eu0 3.036124 1_565
B11 Sm0 3.036124 1_555
B11 Eu0 3.036124 1_556
