# generated using pymatgen
data_LaCrReO6
_symmetry_space_group_name_H-M   'P 1'
_cell_length_a   5.49230386
_cell_length_b   5.48953430
_cell_length_c   5.47829141
_cell_angle_alpha   59.99942903
_cell_angle_beta   120.05113069
_cell_angle_gamma   89.93379111
_symmetry_Int_Tables_number   1
_chemical_formula_structural   LaCrReO6
_chemical_formula_sum   'La1 Cr1 Re1 O6'
_cell_volume   116.63473967
_cell_formula_units_Z   1
loop_
 _symmetry_equiv_pos_site_id
 _symmetry_equiv_pos_as_xyz
  1  'x, y, z'
loop_
 _atom_site_type_symbol
 _atom_site_label
 _atom_site_symmetry_multiplicity
 _atom_site_fract_x
 _atom_site_fract_y
 _atom_site_fract_z
 _atom_site_occupancy
  La  La0  1  0.75534800  0.26031900  0.50135700  1
  Cr  Cr0  1  0.00083200  0.51031900  0.99962200  1
  Re  Re0  1  0.50137500  0.00990400  0.00116500  1
  O  O0  1  0.30615700  0.25351700  0.50758300  1
  O  O1  1  0.23050800  0.28247400  0.94998300  1
  O  O2  1  0.76295600  0.72843700  0.05111200  1
  O  O3  1  0.22510700  0.79333800  0.95610500  1
  O  O4  1  0.77002200  0.23364300  0.04089600  1
  O  O5  1  0.70793300  0.76946100  0.49259000  1
loop_
_geom_bond_atom_site_label_1
_geom_bond_atom_site_label_2
_geom_bond_distance
_geom_bond_site_symmetry_2
La0 O0 2.484416 1_555
La0 O2 2.540518 1_555
La0 O3 2.568145 1_645
La0 O1 2.596452 1_655
La0 O4 2.638965 1_555
La0 O5 2.729360 1_545
La0 O5 2.780906 1_555
La0 O4 2.844812 1_556
La0 O1 2.891243 1_554
La0 O3 2.914236 1_554
La0 O2 2.945724 1_546
La0 O0 3.008252 1_655
Cr0 O5 1.973559 1_455
Cr0 O1 1.977288 1_555
Cr0 O4 1.978145 1_456
Cr0 O3 1.978908 1_555
Cr0 O2 1.980758 1_456
Cr0 O0 1.985198 1_556
O0 Re0 1.930392 1_556
O1 Re0 1.920472 1_556
O2 Re0 1.924758 1_565
O3 Re0 1.923315 1_566
O4 Re0 1.919077 1_555
O5 Re0 1.913402 1_565
