# generated using pymatgen
data_Sr3(GeAs2)2
_symmetry_space_group_name_H-M   'P 1'
_cell_length_a   18.62297580
_cell_length_b   7.50280879
_cell_length_c   7.67148539
_cell_angle_alpha   68.09333755
_cell_angle_beta   90.00000000
_cell_angle_gamma   90.00000000
_symmetry_Int_Tables_number   1
_chemical_formula_structural   Sr3(GeAs2)2
_chemical_formula_sum   'Sr12 Ge8 As16'
_cell_volume   994.49694540
_cell_formula_units_Z   4
loop_
 _symmetry_equiv_pos_site_id
 _symmetry_equiv_pos_as_xyz
  1  'x, y, z'
loop_
 _atom_site_type_symbol
 _atom_site_label
 _atom_site_symmetry_multiplicity
 _atom_site_fract_x
 _atom_site_fract_y
 _atom_site_fract_z
 _atom_site_occupancy
  Sr  Sr0  1  0.31542214  0.01240264  0.78202323  1
  Sr  Sr1  1  0.81542214  0.48759736  0.21797677  1
  Sr  Sr2  1  0.68457786  0.98759736  0.21797677  1
  Sr  Sr3  1  0.18457786  0.51240264  0.78202323  1
  Sr  Sr4  1  0.44040352  0.99722899  0.26074841  1
  Sr  Sr5  1  0.94040352  0.50277101  0.73925159  1
  Sr  Sr6  1  0.55959648  0.00277101  0.73925159  1
  Sr  Sr7  1  0.05959648  0.49722899  0.26074841  1
  Sr  Sr8  1  0.43792481  0.51141383  0.74487956  1
  Sr  Sr9  1  0.93792481  0.98858617  0.25512044  1
  Sr  Sr10  1  0.56207519  0.48858617  0.25512044  1
  Sr  Sr11  1  0.06207519  0.01141383  0.74487956  1
  Ge  Ge0  1  0.37111253  0.47233684  0.21293464  1
  Ge  Ge1  1  0.87111253  0.02766316  0.78706536  1
  Ge  Ge2  1  0.12888747  0.97233684  0.21293464  1
  Ge  Ge3  1  0.62888747  0.52766316  0.78706536  1
  Ge  Ge4  1  0.23994573  0.08538527  0.31427207  1
  Ge  Ge5  1  0.73994573  0.41461473  0.68572793  1
  Ge  Ge6  1  0.76005427  0.91461473  0.68572793  1
  Ge  Ge7  1  0.26005427  0.58538527  0.31427207  1
  As  As0  1  0.18616589  0.78039329  0.04322286  1
  As  As1  1  0.68616589  0.71960671  0.95677714  1
  As  As2  1  0.81383411  0.21960671  0.95677714  1
  As  As3  1  0.31383411  0.28039329  0.04322286  1
  As  As4  1  0.06116178  0.24582997  0.00915261  1
  As  As5  1  0.56116178  0.25417003  0.99084739  1
  As  As6  1  0.93883822  0.75417003  0.99084739  1
  As  As7  1  0.43883822  0.74582997  0.00915261  1
  As  As8  1  0.06809580  0.76024370  0.49497615  1
  As  As9  1  0.56809580  0.73975630  0.50502385  1
  As  As10  1  0.43190420  0.26024370  0.49497615  1
  As  As11  1  0.93190420  0.23975630  0.50502385  1
  As  As12  1  0.19868475  0.27717799  0.49948044  1
  As  As13  1  0.69868475  0.22282201  0.50051956  1
  As  As14  1  0.80131525  0.72282201  0.50051956  1
  As  As15  1  0.30131525  0.77717799  0.49948044  1
loop_
_geom_bond_atom_site_label_1
_geom_bond_atom_site_label_2
_geom_bond_distance
_geom_bond_site_symmetry_2
Ge0 Ge7 2.468481 1_555
Ge1 Ge6 2.468481 1_545
Ge2 Ge4 2.468481 1_565
Ge3 Ge5 2.468481 1_555
As0 Ge7 2.467320 1_555
As0 Ge2 2.511153 1_555
As0 Sr7 3.195117 1_555
As0 Sr0 3.199507 1_564
As0 Sr11 3.259278 1_564
As0 Sr3 3.326452 1_554
As1 Ge6 2.467320 1_555
As1 Ge3 2.511153 1_555
As1 Sr6 3.195117 1_565
As1 Sr1 3.199507 1_556
As1 Sr10 3.259278 1_556
As1 Sr2 3.326452 1_556
As2 Ge5 2.467320 1_555
As2 Ge1 2.511153 1_555
As2 Sr5 3.195117 1_555
As2 Sr2 3.199507 1_546
As2 Sr9 3.259278 1_546
As2 Sr1 3.326452 1_556
As3 Ge4 2.467320 1_555
As3 Ge0 2.511153 1_555
As3 Sr4 3.195117 1_545
As3 Sr3 3.199507 1_554
As3 Sr8 3.259278 1_554
As3 Sr0 3.326452 1_554
As4 Ge2 2.419006 1_545
As4 Sr3 3.117421 1_554
As4 Sr9 3.136127 1_445
As4 Sr11 3.140780 1_554
As4 Sr7 3.162357 1_555
As4 Sr5 3.175291 1_454
As5 Ge3 2.419006 1_555
As5 Sr2 3.117421 1_546
As5 Sr8 3.136127 1_555
As5 Sr10 3.140780 1_556
As5 Sr6 3.162357 1_555
As5 Sr4 3.175291 1_546
As6 Ge1 2.419006 1_565
As6 Sr1 3.117421 1_556
As6 Sr11 3.136127 1_665
As6 Sr9 3.140780 1_556
As6 Sr5 3.162357 1_555
As6 Sr7 3.175291 1_656
As7 Ge0 2.419006 1_555
As7 Sr0 3.117421 1_564
As7 Sr10 3.136127 1_555
As7 Sr8 3.140780 1_554
As7 Sr4 3.162357 1_555
As7 Sr6 3.175291 1_564
As8 Ge2 2.434388 1_555
As8 Sr7 3.129506 1_555
As8 Sr9 3.137705 1_455
As8 Sr11 3.151994 1_565
As8 Sr3 3.155476 1_555
As8 Sr5 3.193293 1_455
As9 Ge3 2.434388 1_555
As9 Sr6 3.129506 1_565
As9 Sr8 3.137705 1_555
As9 Sr10 3.151994 1_555
As9 Sr2 3.155476 1_555
As9 Sr4 3.193293 1_555
As10 Ge0 2.434388 1_555
As10 Sr4 3.129506 1_545
As10 Sr10 3.137705 1_555
As10 Sr8 3.151994 1_555
As10 Sr0 3.155476 1_555
As10 Sr6 3.193293 1_555
As11 Ge1 2.434388 1_555
As11 Sr5 3.129506 1_555
As11 Sr11 3.137705 1_655
As11 Sr9 3.151994 1_545
As11 Sr1 3.155476 1_555
As11 Sr7 3.193293 1_655
As12 Ge4 2.491079 1_555
As12 Ge7 2.494106 1_555
As12 Sr0 3.187131 1_555
As12 Sr7 3.245461 1_555
As12 Sr3 3.276628 1_555
As12 Sr11 3.345340 1_555
As13 Ge5 2.491079 1_555
As13 Ge6 2.494106 1_545
As13 Sr1 3.187131 1_555
As13 Sr6 3.245461 1_555
As13 Sr2 3.276628 1_545
As13 Sr10 3.345340 1_555
As14 Ge6 2.491079 1_555
As14 Ge5 2.494106 1_555
As14 Sr2 3.187131 1_555
As14 Sr5 3.245461 1_555
As14 Sr1 3.276628 1_555
As14 Sr9 3.345340 1_555
As15 Ge7 2.491079 1_555
As15 Ge4 2.494106 1_565
As15 Sr3 3.187131 1_555
As15 Sr4 3.245461 1_555
As15 Sr0 3.276628 1_565
As15 Sr8 3.345340 1_555
