# generated using pymatgen
data_VCoSb
_symmetry_space_group_name_H-M   'P 1'
_cell_length_a   4.48742486
_cell_length_b   4.48875800
_cell_length_c   5.23464500
_cell_angle_alpha   90.00000000
_cell_angle_beta   90.00000000
_cell_angle_gamma   59.99017203
_symmetry_Int_Tables_number   1
_chemical_formula_structural   VCoSb
_chemical_formula_sum   'V2 Co2 Sb2'
_cell_volume   91.30577123
_cell_formula_units_Z   2
loop_
 _symmetry_equiv_pos_site_id
 _symmetry_equiv_pos_as_xyz
  1  'x, y, z'
loop_
 _atom_site_type_symbol
 _atom_site_label
 _atom_site_symmetry_multiplicity
 _atom_site_fract_x
 _atom_site_fract_y
 _atom_site_fract_z
 _atom_site_occupancy
  V  V0  1  0.33337900  0.33331100  0.25000000  1
  V  V1  1  0.66662100  0.66668900  0.75000000  1
  Co  Co0  1  0.00000000  0.00000000  0.50000000  1
  Co  Co1  1  0.00000000  0.00000000  0.00000000  1
  Sb  Sb0  1  0.33337500  0.33331200  0.75000000  1
  Sb  Sb1  1  0.66662500  0.66668800  0.25000000  1
loop_
_geom_bond_atom_site_label_1
_geom_bond_atom_site_label_2
_geom_bond_distance
_geom_bond_site_symmetry_2
Co0 Co1 2.617323 1_556
Co0 Co1 2.617323 1_555
Co0 V0 2.902184 1_455
Co0 V1 2.902184 1_545
Co0 Sb1 2.902198 1_545
Co0 Sb0 2.902198 1_455
Co0 Sb0 2.903100 1_555
Co0 Sb1 2.903100 1_445
Co0 Sb1 2.903104 1_455
Co0 Sb0 2.903104 1_545
Co0 V1 2.903107 1_455
Co0 V0 2.903107 1_545
Co0 V0 2.903111 1_555
Co0 V1 2.903111 1_445
Co1 V0 2.902184 1_455
Co1 V1 2.902184 1_544
Co1 Sb1 2.902198 1_545
Co1 Sb0 2.902198 1_454
Co1 Sb0 2.903100 1_554
Co1 Sb1 2.903100 1_445
Co1 Sb0 2.903104 1_544
Co1 Sb1 2.903104 1_455
Co1 V1 2.903107 1_454
Co1 V0 2.903107 1_545
Co1 V0 2.903111 1_555
Co1 V1 2.903111 1_444
Sb0 V1 2.590899 1_455
Sb0 V1 2.591159 1_545
Sb0 V1 2.591159 1_555
Sb0 V0 2.617323 1_555
Sb0 V0 2.617323 1_556
Sb1 V0 2.590899 1_655
Sb1 V0 2.591159 1_565
Sb1 V0 2.591159 1_555
Sb1 V1 2.617323 1_554
Sb1 V1 2.617323 1_555
