# generated using pymatgen
data_Hf9SiMo4
_symmetry_space_group_name_H-M   'P 1'
_cell_length_a   8.64816338
_cell_length_b   8.64816338
_cell_length_c   8.72302000
_cell_angle_alpha   90.00000000
_cell_angle_beta   90.00000000
_cell_angle_gamma   119.99999523
_symmetry_Int_Tables_number   1
_chemical_formula_structural   Hf9SiMo4
_chemical_formula_sum   'Hf18 Si2 Mo8'
_cell_volume   564.99589409
_cell_formula_units_Z   2
loop_
 _symmetry_equiv_pos_site_id
 _symmetry_equiv_pos_as_xyz
  1  'x, y, z'
loop_
 _atom_site_type_symbol
 _atom_site_label
 _atom_site_symmetry_multiplicity
 _atom_site_fract_x
 _atom_site_fract_y
 _atom_site_fract_z
 _atom_site_occupancy
  Hf  Hf0  1  0.19745200  0.80254800  0.45475800  1
  Hf  Hf1  1  0.19745200  0.39490500  0.45475800  1
  Hf  Hf2  1  0.60509500  0.80254800  0.45475800  1
  Hf  Hf3  1  0.80254800  0.19745200  0.54524200  1
  Hf  Hf4  1  0.80254800  0.60509500  0.54524200  1
  Hf  Hf5  1  0.39490500  0.19745200  0.54524200  1
  Hf  Hf6  1  0.80254800  0.19745200  0.95475800  1
  Hf  Hf7  1  0.80254800  0.60509500  0.95475800  1
  Hf  Hf8  1  0.39490500  0.19745200  0.95475800  1
  Hf  Hf9  1  0.19745200  0.80254800  0.04524200  1
  Hf  Hf10  1  0.19745200  0.39490500  0.04524200  1
  Hf  Hf11  1  0.60509500  0.80254800  0.04524200  1
  Hf  Hf12  1  0.53683700  0.46316300  0.25000000  1
  Hf  Hf13  1  0.53683700  0.07367400  0.25000000  1
  Hf  Hf14  1  0.92632600  0.46316300  0.25000000  1
  Hf  Hf15  1  0.46316300  0.53683700  0.75000000  1
  Hf  Hf16  1  0.46316300  0.92632600  0.75000000  1
  Hf  Hf17  1  0.07367400  0.53683700  0.75000000  1
  Si  Si0  1  0.33333300  0.66666700  0.25000000  1
  Si  Si1  1  0.66666700  0.33333300  0.75000000  1
  Mo  Mo0  1  0.88975200  0.11024800  0.25000000  1
  Mo  Mo1  1  0.88975200  0.77950300  0.25000000  1
  Mo  Mo2  1  0.22049700  0.11024800  0.25000000  1
  Mo  Mo3  1  0.11024800  0.88975200  0.75000000  1
  Mo  Mo4  1  0.11024800  0.22049700  0.75000000  1
  Mo  Mo5  1  0.77950300  0.88975200  0.75000000  1
  Mo  Mo6  1  0.00000000  0.00000000  0.50000000  1
  Mo  Mo7  1  0.00000000  0.00000000  0.00000000  1
loop_
_geom_bond_atom_site_label_1
_geom_bond_atom_site_label_2
_geom_bond_distance
_geom_bond_site_symmetry_2
Hf0 Si0 2.707935 1_555
Hf0 Mo3 2.887723 1_555
Hf0 Mo6 2.983858 1_565
Hf0 Mo2 3.127411 1_565
Hf0 Mo1 3.127411 1_455
Hf1 Si0 2.707935 1_555
Hf1 Mo4 2.887723 1_555
Hf1 Mo6 2.983866 1_555
Hf1 Mo0 3.127417 1_455
Hf1 Mo2 3.127425 1_555
Hf2 Si0 2.707935 1_555
Hf2 Mo5 2.887723 1_555
Hf2 Mo6 2.983866 1_665
Hf2 Mo0 3.127417 1_565
Hf2 Mo1 3.127425 1_555
Hf3 Si1 2.707935 1_555
Hf3 Mo0 2.887723 1_555
Hf3 Mo6 2.983858 1_655
Hf3 Mo4 3.127411 1_655
Hf3 Mo5 3.127411 1_545
Hf4 Si1 2.707935 1_555
Hf4 Mo1 2.887723 1_555
Hf4 Mo6 2.983866 1_665
Hf4 Mo3 3.127417 1_655
Hf4 Mo5 3.127425 1_555
Hf5 Si1 2.707935 1_555
Hf5 Mo2 2.887723 1_555
Hf5 Mo6 2.983866 1_555
Hf5 Mo3 3.127417 1_545
Hf5 Mo4 3.127425 1_555
Hf6 Si1 2.707935 1_555
Hf6 Mo0 2.887723 1_556
Hf6 Mo7 2.983858 1_656
Hf6 Mo4 3.127411 1_655
Hf6 Mo5 3.127411 1_545
Hf7 Si1 2.707935 1_555
Hf7 Mo1 2.887723 1_556
Hf7 Mo7 2.983866 1_666
Hf7 Mo3 3.127417 1_655
Hf7 Mo5 3.127425 1_555
Hf8 Si1 2.707935 1_555
Hf8 Mo2 2.887723 1_556
Hf8 Mo7 2.983866 1_556
Hf8 Mo3 3.127417 1_545
Hf8 Mo4 3.127425 1_555
Hf9 Si0 2.707935 1_555
Hf9 Mo3 2.887723 1_554
Hf9 Mo7 2.983858 1_565
Hf9 Mo2 3.127411 1_565
Hf9 Mo1 3.127411 1_455
Hf10 Si0 2.707935 1_555
Hf10 Mo4 2.887723 1_554
Hf10 Mo7 2.983866 1_555
Hf10 Mo0 3.127417 1_455
Hf10 Mo2 3.127425 1_555
Hf11 Si0 2.707935 1_555
Hf11 Mo5 2.887723 1_554
Hf11 Mo7 2.983866 1_665
Hf11 Mo0 3.127417 1_565
Hf11 Mo1 3.127425 1_555
Hf12 Mo1 2.906849 1_555
Hf12 Mo2 2.906849 1_555
Hf12 Si0 3.048298 1_555
Hf13 Mo2 2.906844 1_555
Hf13 Mo0 2.906853 1_555
Hf13 Si0 3.048291 1_545
Hf14 Mo1 2.906844 1_555
Hf14 Mo0 2.906853 1_555
Hf14 Si0 3.048291 1_655
Hf15 Mo5 2.906849 1_555
Hf15 Mo4 2.906849 1_555
Hf15 Si1 3.048298 1_555
Hf16 Mo5 2.906844 1_555
Hf16 Mo3 2.906853 1_555
Hf16 Si1 3.048291 1_565
Hf17 Mo4 2.906844 1_555
Hf17 Mo3 2.906853 1_555
Hf17 Si1 3.048291 1_455
Mo0 Mo6 2.735480 1_655
Mo0 Mo7 2.735480 1_655
Mo0 Mo2 2.860337 1_655
Mo0 Mo1 2.860337 1_545
Mo1 Mo7 2.735485 1_665
Mo1 Mo6 2.735485 1_665
Mo1 Mo2 2.860337 1_665
Mo2 Mo6 2.735485 1_555
Mo2 Mo7 2.735485 1_555
Mo3 Mo7 2.735480 1_566
Mo3 Mo6 2.735480 1_565
Mo3 Mo4 2.860337 1_565
Mo3 Mo5 2.860337 1_455
Mo4 Mo7 2.735485 1_556
Mo4 Mo6 2.735485 1_555
Mo4 Mo5 2.860337 1_445
Mo5 Mo7 2.735485 1_666
Mo5 Mo6 2.735485 1_665
