# generated using pymatgen
data_BaLiSb
_symmetry_space_group_name_H-M   'P 1'
_cell_length_a   4.94040769
_cell_length_b   4.94040751
_cell_length_c   9.18028967
_cell_angle_alpha   90.00000000
_cell_angle_beta   90.00000000
_cell_angle_gamma   120.00000129
_symmetry_Int_Tables_number   1
_chemical_formula_structural   BaLiSb
_chemical_formula_sum   'Ba2 Li2 Sb2'
_cell_volume   194.04952005
_cell_formula_units_Z   2
loop_
 _symmetry_equiv_pos_site_id
 _symmetry_equiv_pos_as_xyz
  1  'x, y, z'
loop_
 _atom_site_type_symbol
 _atom_site_label
 _atom_site_symmetry_multiplicity
 _atom_site_fract_x
 _atom_site_fract_y
 _atom_site_fract_z
 _atom_site_occupancy
  Ba  Ba0  1  0.00000000  -0.00000000  0.50000000  1
  Ba  Ba1  1  0.00000000  -0.00000000  -0.00000000  1
  Li  Li0  1  0.66666700  0.33333300  0.75000000  1
  Li  Li1  1  0.33333300  0.66666700  0.25000000  1
  Sb  Sb0  1  0.66666700  0.33333300  0.25000000  1
  Sb  Sb1  1  0.33333300  0.66666700  0.75000000  1
loop_
_geom_bond_atom_site_label_1
_geom_bond_atom_site_label_2
_geom_bond_distance
_geom_bond_site_symmetry_2
Ba0 Li0 3.661040 1_455
Ba0 Li1 3.661040 1_545
Ba0 Sb1 3.661040 1_545
Ba0 Sb0 3.661040 1_455
Ba0 Sb0 3.661044 1_445
Ba0 Li0 3.661044 1_445
Ba0 Sb1 3.661044 1_555
Ba0 Li1 3.661044 1_555
Ba0 Li0 3.661044 1_555
Ba0 Li1 3.661044 1_445
Ba0 Sb1 3.661044 1_445
Ba0 Sb0 3.661044 1_555
Ba1 Li0 3.661040 1_454
Ba1 Li1 3.661040 1_545
Ba1 Sb1 3.661040 1_544
Ba1 Sb0 3.661040 1_455
Ba1 Sb1 3.661044 1_554
Ba1 Sb0 3.661044 1_445
Ba1 Li1 3.661044 1_555
Ba1 Li0 3.661044 1_444
Ba1 Sb1 3.661044 1_444
Ba1 Li1 3.661044 1_445
Ba1 Li0 3.661044 1_554
Ba1 Sb0 3.661044 1_555
Li0 Sb1 2.852343 1_545
Li0 Sb1 2.852343 1_655
Li0 Sb1 2.852351 1_555
Li1 Sb0 2.852343 1_565
Li1 Sb0 2.852343 1_455
Li1 Sb0 2.852351 1_555
