# generated using pymatgen
data_ZnSn2(PO4)2
_symmetry_space_group_name_H-M   'P 1'
_cell_length_a   9.62693557
_cell_length_b   9.62693557
_cell_length_c   18.68877739
_cell_angle_alpha   61.95940040
_cell_angle_beta   61.95940040
_cell_angle_gamma   31.54135029
_symmetry_Int_Tables_number   1
_chemical_formula_structural   ZnSn2(PO4)2
_chemical_formula_sum   'Zn4 Sn8 P8 O32'
_cell_volume   790.59595855
_cell_formula_units_Z   4
loop_
 _symmetry_equiv_pos_site_id
 _symmetry_equiv_pos_as_xyz
  1  'x, y, z'
loop_
 _atom_site_type_symbol
 _atom_site_label
 _atom_site_symmetry_multiplicity
 _atom_site_fract_x
 _atom_site_fract_y
 _atom_site_fract_z
 _atom_site_occupancy
  Zn  Zn0  1  0.06967200  0.62135000  0.66045600  1
  Zn  Zn1  1  0.37865000  0.93032800  0.83954400  1
  Zn  Zn2  1  0.62135000  0.06967200  0.16045600  1
  Zn  Zn3  1  0.93032800  0.37865000  0.33954400  1
  Sn  Sn0  1  0.37605500  0.81434000  0.51072200  1
  Sn  Sn1  1  0.18566000  0.62394500  0.98927800  1
  Sn  Sn2  1  0.62394500  0.18566000  0.48927800  1
  Sn  Sn3  1  0.00000000  0.50000000  0.50000000  1
  Sn  Sn4  1  0.81434000  0.37605500  0.01072200  1
  Sn  Sn5  1  0.66035200  0.34629000  0.24885900  1
  Sn  Sn6  1  0.33964800  0.65371000  0.75114100  1
  Sn  Sn7  1  0.50000000  0.00000000  0.00000000  1
  P  P0  1  0.53538300  0.91390500  0.63869500  1
  P  P1  1  0.75973700  0.30997400  0.87675900  1
  P  P2  1  0.46461700  0.08609500  0.36130500  1
  P  P3  1  0.30997400  0.75973700  0.37675900  1
  P  P4  1  0.91390500  0.53538300  0.13869500  1
  P  P5  1  0.08609500  0.46461700  0.86130500  1
  P  P6  1  0.24026300  0.69002600  0.12324100  1
  P  P7  1  0.69002600  0.24026300  0.62324100  1
  O  O0  1  0.16289200  0.27130600  0.38977200  1
  O  O1  1  0.45875000  0.35824900  0.60361800  1
  O  O2  1  0.27130600  0.16289200  0.88977200  1
  O  O3  1  0.62388200  0.26415300  0.94686400  1
  O  O4  1  0.62258100  0.83537700  0.43106100  1
  O  O5  1  0.69698900  0.39694300  0.79238000  1
  O  O6  1  0.73584700  0.37611800  0.55313600  1
  O  O7  1  0.04498300  0.06747200  0.37870900  1
  O  O8  1  0.37611800  0.73584700  0.05313600  1
  O  O9  1  0.64175100  0.54125000  0.89638200  1
  O  O10  1  0.46098600  0.24821000  0.36890400  1
  O  O11  1  0.00099000  0.42069400  0.22098100  1
  O  O12  1  0.54125000  0.64175100  0.39638200  1
  O  O13  1  0.06747200  0.04498300  0.87870900  1
  O  O14  1  0.83710800  0.72869400  0.61022800  1
  O  O15  1  0.53901400  0.75179000  0.63109600  1
  O  O16  1  0.42069400  0.00099000  0.72098100  1
  O  O17  1  0.26415300  0.62388200  0.44686400  1
  O  O18  1  0.24821000  0.46098600  0.86890400  1
  O  O19  1  0.99901000  0.57930600  0.77901900  1
  O  O20  1  0.93252800  0.95501700  0.12129100  1
  O  O21  1  0.83537700  0.62258100  0.93106100  1
  O  O22  1  0.95501700  0.93252800  0.62129100  1
  O  O23  1  0.39694300  0.69698900  0.29238000  1
  O  O24  1  0.35824900  0.45875000  0.10361800  1
  O  O25  1  0.72869400  0.83710800  0.11022800  1
  O  O26  1  0.57930600  0.99901000  0.27901900  1
  O  O27  1  0.16462300  0.37741900  0.06893900  1
  O  O28  1  0.37741900  0.16462300  0.56893900  1
  O  O29  1  0.60305700  0.30301100  0.70762000  1
  O  O30  1  0.30301100  0.60305700  0.20762000  1
  O  O31  1  0.75179000  0.53901400  0.13109600  1
loop_
_geom_bond_atom_site_label_1
_geom_bond_atom_site_label_2
_geom_bond_distance
_geom_bond_site_symmetry_2
O0 P2 1.584431 1_555
O0 Zn3 2.020368 1_455
O0 Sn3 2.625269 1_555
O1 P7 1.564372 1_555
O1 Zn0 2.047232 1_555
O1 Sn2 2.344152 1_555
O2 P5 1.584431 1_555
O2 Zn1 2.020368 1_545
O2 Sn7 2.625269 1_556
O3 P1 1.565441 1_555
O3 Sn1 2.225600 1_555
O4 P2 1.576995 1_565
O4 Sn0 2.259153 1_555
O4 Sn3 2.404207 1_655
O5 P1 1.531286 1_555
O5 Sn6 2.178438 1_555
O6 P7 1.565441 1_555
O6 Sn0 2.225600 1_555
O7 P3 1.554938 1_545
O7 Zn3 1.946826 1_455
O8 P6 1.565441 1_555
O8 Sn4 2.225600 1_555
O9 P1 1.564372 1_555
O9 Zn1 2.047232 1_555
O9 Sn4 2.344152 1_556
O10 P2 1.602440 1_555
O10 Sn5 2.580189 1_555
O11 P4 1.524730 1_455
O11 Zn3 1.935270 1_455
O12 P3 1.564372 1_555
O12 Zn3 2.047232 1_555
O12 Sn0 2.344152 1_555
O13 P1 1.554938 1_455
O13 Zn1 1.946826 1_545
O14 P0 1.584431 1_555
O14 Zn0 2.020368 1_655
O14 Sn3 2.625269 1_655
O15 P0 1.602440 1_555
O15 Sn6 2.580189 1_555
O16 P0 1.524730 1_545
O16 Zn1 1.935270 1_545
O17 P3 1.565441 1_555
O17 Sn2 2.225600 1_555
O18 P5 1.602440 1_555
O18 Sn6 2.486791 1_555
O19 P5 1.524730 1_655
O19 Zn0 1.935270 1_655
O20 P6 1.554938 1_655
O20 Zn2 1.946826 1_565
O21 P5 1.576995 1_655
O21 Sn4 2.259153 1_556
O21 Sn7 2.404207 1_566
O22 P7 1.554938 1_565
O22 Zn0 1.946826 1_655
O23 P3 1.531286 1_555
O23 Sn5 2.130722 1_555
O24 P6 1.564372 1_555
O24 Zn2 2.047232 1_555
O24 Sn1 2.344152 1_554
O25 P4 1.584431 1_555
O25 Zn2 2.020368 1_565
O25 Sn7 2.625269 1_565
O26 P2 1.524730 1_565
O26 Zn2 1.935270 1_565
O27 P4 1.576995 1_455
O27 Sn1 2.259153 1_554
O27 Sn7 2.404207 1_555
O28 P0 1.576995 1_545
O28 Sn2 2.259153 1_555
O28 Sn3 2.404207 1_555
O29 P7 1.531286 1_555
O29 Sn6 2.130722 1_555
O30 P6 1.531286 1_555
O30 Sn5 2.178438 1_555
O31 P4 1.602440 1_555
O31 Sn5 2.486791 1_555
