# generated using pymatgen
data_Tl9SnTe6
_symmetry_space_group_name_H-M   'P 1'
_cell_length_a   9.12841105
_cell_length_b   9.12841105
_cell_length_c   9.12888336
_cell_angle_alpha   121.06949311
_cell_angle_beta   121.07159587
_cell_angle_gamma   88.15249135
_symmetry_Int_Tables_number   1
_chemical_formula_structural   Tl9SnTe6
_chemical_formula_sum   'Tl9 Sn1 Te6'
_cell_volume   528.90189731
_cell_formula_units_Z   1
loop_
 _symmetry_equiv_pos_site_id
 _symmetry_equiv_pos_as_xyz
  1  'x, y, z'
loop_
 _atom_site_type_symbol
 _atom_site_label
 _atom_site_symmetry_multiplicity
 _atom_site_fract_x
 _atom_site_fract_y
 _atom_site_fract_z
 _atom_site_occupancy
  Tl  Tl0  1  0.80470497  0.01055559  0.49939221  1
  Tl  Tl1  1  0.51116338  0.30531277  0.50060779  1
  Tl  Tl2  1  0.30518907  0.80484009  0.79436892  1
  Tl  Tl3  1  0.01047117  0.51082015  0.20563108  1
  Tl  Tl4  1  0.19529503  0.98944441  0.50060779  1
  Tl  Tl5  1  0.48883662  0.69468723  0.49939221  1
  Tl  Tl6  1  0.69481093  0.19515991  0.20563108  1
  Tl  Tl7  1  0.98952883  0.48917985  0.79436892  1
  Tl  Tl8  1  0.50000000  0.50000000  -0.00000000  1
  Sn  Sn0  1  0.00000000  0.00000000  -0.00000000  1
  Te  Te0  1  0.84936226  0.67474371  0.52410597  1
  Te  Te1  1  0.15063774  0.32525629  0.47589403  1
  Te  Te2  1  0.32554391  0.84962446  0.17516838  1
  Te  Te3  1  0.67445609  0.15037554  0.82483162  1
  Te  Te4  1  0.76153076  0.76153076  0.00000000  1
  Te  Te5  1  0.23846924  0.23846924  -0.00000000  1
loop_
_geom_bond_atom_site_label_1
_geom_bond_atom_site_label_2
_geom_bond_distance
_geom_bond_site_symmetry_2
Sn0 Te5 3.127755 1_555
Sn0 Te4 3.127755 1_445
Sn0 Te0 3.219201 1_444
Sn0 Te1 3.219201 1_555
Sn0 Te2 3.220227 1_545
Sn0 Te3 3.220227 1_454
Te0 Tl5 3.186260 1_555
Te0 Tl0 3.186260 1_565
Te0 Tl2 3.392469 1_655
Te0 Tl7 3.392469 1_555
Te0 Tl8 3.508155 1_555
Te0 Tl6 3.554679 1_555
Te0 Tl3 3.554679 1_655
Te1 Tl1 3.186260 1_555
Te1 Tl4 3.186260 1_545
Te1 Tl6 3.392469 1_455
Te1 Tl3 3.392469 1_555
Te1 Tl8 3.508155 1_556
Te1 Tl7 3.554679 1_455
Te1 Tl2 3.554679 1_555
Te2 Tl7 3.187078 1_454
Te2 Tl2 3.187078 1_554
Te2 Tl4 3.391662 1_555
Te2 Tl1 3.391662 1_565
Te2 Tl8 3.508876 1_555
Te2 Tl5 3.551539 1_555
Te2 Tl0 3.551539 1_565
Te3 Tl3 3.187078 1_656
Te3 Tl6 3.187078 1_556
Te3 Tl0 3.391662 1_555
Te3 Tl5 3.391662 1_545
Te3 Tl8 3.508876 1_556
Te3 Tl1 3.551539 1_555
Te3 Tl4 3.551539 1_545
Te4 Tl8 3.430230 1_555
Te5 Tl8 3.430230 1_555
