# generated using pymatgen
data_CeSn3Pd2
_symmetry_space_group_name_H-M   'P 1'
_cell_length_a   6.20156100
_cell_length_b   6.32345100
_cell_length_c   13.95811200
_cell_angle_alpha   90.00000000
_cell_angle_beta   90.00000000
_cell_angle_gamma   90.00000000
_symmetry_Int_Tables_number   1
_chemical_formula_structural   CeSn3Pd2
_chemical_formula_sum   'Ce4 Sn12 Pd8'
_cell_volume   547.37109039
_cell_formula_units_Z   4
loop_
 _symmetry_equiv_pos_site_id
 _symmetry_equiv_pos_as_xyz
  1  'x, y, z'
loop_
 _atom_site_type_symbol
 _atom_site_label
 _atom_site_symmetry_multiplicity
 _atom_site_fract_x
 _atom_site_fract_y
 _atom_site_fract_z
 _atom_site_occupancy
  Ce  Ce0  1  0.25000000  0.51389000  0.79889500  1
  Ce  Ce1  1  0.75000000  0.48611000  0.20110500  1
  Ce  Ce2  1  0.75000000  0.98611000  0.79889500  1
  Ce  Ce3  1  0.25000000  0.01389000  0.20110500  1
  Sn  Sn0  1  0.25000000  0.01868300  0.69541600  1
  Sn  Sn1  1  0.75000000  0.98131700  0.30458400  1
  Sn  Sn2  1  0.75000000  0.48131700  0.69541600  1
  Sn  Sn3  1  0.25000000  0.51868300  0.30458400  1
  Sn  Sn4  1  0.25000000  0.89351400  0.43870900  1
  Sn  Sn5  1  0.75000000  0.10648600  0.56129100  1
  Sn  Sn6  1  0.75000000  0.60648600  0.43870900  1
  Sn  Sn7  1  0.25000000  0.39351400  0.56129100  1
  Sn  Sn8  1  0.50000000  0.75000000  0.99653400  1
  Sn  Sn9  1  0.00000000  0.25000000  0.00346600  1
  Sn  Sn10  1  0.50000000  0.25000000  0.00346600  1
  Sn  Sn11  1  0.00000000  0.75000000  0.99653400  1
  Pd  Pd0  1  0.25000000  0.01198200  0.88369500  1
  Pd  Pd1  1  0.75000000  0.98801800  0.11630500  1
  Pd  Pd2  1  0.75000000  0.48801800  0.88369500  1
  Pd  Pd3  1  0.25000000  0.51198200  0.11630500  1
  Pd  Pd4  1  0.50000000  0.75000000  0.59310400  1
  Pd  Pd5  1  0.00000000  0.25000000  0.40689600  1
  Pd  Pd6  1  0.50000000  0.25000000  0.40689600  1
  Pd  Pd7  1  0.00000000  0.75000000  0.59310400  1
loop_
_geom_bond_atom_site_label_1
_geom_bond_atom_site_label_2
_geom_bond_distance
_geom_bond_site_symmetry_2
Ce0 Pd2 3.323045 1_455
Ce0 Pd2 3.323045 1_555
Ce0 Pd0 3.364726 1_565
Ce0 Pd0 3.387325 1_555
Ce0 Sn7 3.402735 1_555
Ce0 Sn2 3.426875 1_455
Ce0 Sn2 3.426875 1_555
Ce0 Sn0 3.448475 1_555
Ce0 Sn11 3.499013 1_555
Ce0 Sn8 3.499013 1_555
Ce0 Sn0 3.503611 1_565
Ce0 Pd7 3.589407 1_555
Ce0 Pd4 3.589407 1_555
Ce0 Sn10 3.652630 1_556
Ce0 Sn9 3.652630 1_556
Ce1 Pd3 3.323045 1_655
Ce1 Pd3 3.323045 1_555
Ce1 Pd1 3.364726 1_545
Ce1 Pd1 3.387325 1_555
Ce1 Sn6 3.402735 1_555
Ce1 Sn3 3.426875 1_655
Ce1 Sn3 3.426875 1_555
Ce1 Sn1 3.448475 1_555
Ce1 Sn10 3.499013 1_555
Ce1 Sn9 3.499013 1_655
Ce1 Sn1 3.503611 1_545
Ce1 Pd6 3.589407 1_555
Ce1 Pd5 3.589407 1_655
Ce1 Sn11 3.652630 1_654
Ce1 Sn8 3.652630 1_554
Ce2 Pd0 3.323045 1_565
Ce2 Pd0 3.323045 1_665
Ce2 Pd2 3.364726 1_555
Ce2 Pd2 3.387325 1_565
Ce2 Sn5 3.402735 1_565
Ce2 Sn0 3.426875 1_665
Ce2 Sn0 3.426875 1_565
Ce2 Sn2 3.448475 1_565
Ce2 Sn11 3.499013 1_655
Ce2 Sn8 3.499013 1_555
Ce2 Sn2 3.503611 1_555
Ce2 Pd7 3.589407 1_655
Ce2 Pd4 3.589407 1_555
Ce2 Sn10 3.652630 1_566
Ce2 Sn9 3.652630 1_666
Ce3 Pd1 3.323045 1_545
Ce3 Pd1 3.323045 1_445
Ce3 Pd3 3.364726 1_555
Ce3 Pd3 3.387325 1_545
Ce3 Sn4 3.402735 1_545
Ce3 Sn1 3.426875 1_545
Ce3 Sn1 3.426875 1_445
Ce3 Sn3 3.448475 1_545
Ce3 Sn9 3.499013 1_555
Ce3 Sn10 3.499013 1_555
Ce3 Sn3 3.503611 1_555
Ce3 Pd5 3.589407 1_555
Ce3 Pd6 3.589407 1_555
Ce3 Sn11 3.652630 1_544
Ce3 Sn8 3.652630 1_544
Sn0 Sn7 3.020405 1_555
Sn1 Sn6 3.020405 1_555
Sn2 Sn5 3.020405 1_555
Sn3 Sn4 3.020405 1_555
Pd0 Sn0 2.628361 1_555
Pd0 Sn9 2.732007 1_556
Pd0 Sn10 2.732007 1_556
Pd0 Sn11 2.762032 1_545
Pd0 Sn8 2.762032 1_545
Pd1 Sn1 2.628361 1_555
Pd1 Sn11 2.732007 1_654
Pd1 Sn8 2.732007 1_554
Pd1 Sn10 2.762032 1_565
Pd1 Sn9 2.762032 1_665
Pd2 Sn2 2.628361 1_555
Pd2 Sn10 2.732007 1_556
Pd2 Sn9 2.732007 1_656
Pd2 Sn8 2.762032 1_555
Pd2 Sn11 2.762032 1_655
Pd3 Sn3 2.628361 1_555
Pd3 Sn11 2.732007 1_554
Pd3 Sn8 2.732007 1_554
Pd3 Sn9 2.762032 1_555
Pd3 Sn10 2.762032 1_555
Pd4 Sn2 2.707350 1_555
Pd4 Sn0 2.707350 1_565
Pd4 Sn7 2.771715 1_555
Pd4 Sn5 2.771715 1_565
Pd4 Sn6 2.805632 1_555
Pd4 Sn4 2.805632 1_555
Pd5 Sn1 2.707350 1_445
Pd5 Sn3 2.707350 1_555
Pd5 Sn6 2.771715 1_455
Pd5 Sn4 2.771715 1_545
Pd5 Sn5 2.805632 1_455
Pd5 Sn7 2.805632 1_555
Pd6 Sn1 2.707350 1_545
Pd6 Sn3 2.707350 1_555
Pd6 Sn4 2.771715 1_545
Pd6 Sn6 2.771715 1_555
Pd6 Sn7 2.805632 1_555
Pd6 Sn5 2.805632 1_555
Pd7 Sn2 2.707350 1_455
Pd7 Sn0 2.707350 1_565
Pd7 Sn7 2.771715 1_555
Pd7 Sn5 2.771715 1_465
Pd7 Sn6 2.805632 1_455
Pd7 Sn4 2.805632 1_555
