# generated using pymatgen
data_NdScS3
_symmetry_space_group_name_H-M   'P 1'
_cell_length_a   6.50541219
_cell_length_b   7.15932821
_cell_length_c   9.58212900
_cell_angle_alpha   90.00000000
_cell_angle_beta   90.00000000
_cell_angle_gamma   90.00000000
_symmetry_Int_Tables_number   1
_chemical_formula_structural   NdScS3
_chemical_formula_sum   'Nd4 Sc4 S12'
_cell_volume   446.28172693
_cell_formula_units_Z   4
loop_
 _symmetry_equiv_pos_site_id
 _symmetry_equiv_pos_as_xyz
  1  'x, y, z'
loop_
 _atom_site_type_symbol
 _atom_site_label
 _atom_site_symmetry_multiplicity
 _atom_site_fract_x
 _atom_site_fract_y
 _atom_site_fract_z
 _atom_site_occupancy
  Nd  Nd0  1  0.53629420  0.40296638  0.75000000  1
  Nd  Nd1  1  0.46370580  0.59703362  0.25000000  1
  Nd  Nd2  1  0.03629420  0.09703362  0.25000000  1
  Nd  Nd3  1  0.96370580  0.90296638  0.75000000  1
  Sc  Sc0  1  0.00000000  0.50000000  0.00000000  1
  Sc  Sc1  1  0.00000000  0.50000000  0.50000000  1
  Sc  Sc2  1  0.50000000  -0.00000000  0.50000000  1
  Sc  Sc3  1  0.50000000  -0.00000000  0.00000000  1
  S  S0  1  0.82143224  0.18737596  0.56256217  1
  S  S1  1  0.17856776  0.81262404  0.06256217  1
  S  S2  1  0.32143224  0.31262404  0.06256217  1
  S  S3  1  0.67856776  0.68737596  0.56256217  1
  S  S4  1  0.82143224  0.18737596  0.93743783  1
  S  S5  1  0.17856776  0.81262404  0.43743783  1
  S  S6  1  0.32143224  0.31262404  0.43743783  1
  S  S7  1  0.67856776  0.68737596  0.93743783  1
  S  S8  1  0.87167187  0.46290085  0.25000000  1
  S  S9  1  0.12832813  0.53709915  0.75000000  1
  S  S10  1  0.37167187  0.03709915  0.75000000  1
  S  S11  1  0.62832813  0.96290085  0.25000000  1
loop_
_geom_bond_atom_site_label_1
_geom_bond_atom_site_label_2
_geom_bond_distance
_geom_bond_site_symmetry_2
Nd0 S9 2.822380 1_555
Nd0 S10 2.829836 1_555
Nd0 S3 2.868533 1_555
Nd0 S7 2.868533 1_555
Nd0 S0 3.008147 1_555
Nd0 S4 3.008147 1_555
Nd0 S6 3.367815 1_555
Nd0 S2 3.367815 1_556
Nd1 S8 2.822380 1_555
Nd1 S11 2.829836 1_555
Nd1 S2 2.868533 1_555
Nd1 S6 2.868533 1_555
Nd1 S1 3.008147 1_555
Nd1 S5 3.008147 1_555
Nd1 S3 3.367815 1_555
Nd1 S7 3.367815 1_554
Nd2 S11 2.822380 1_445
Nd2 S8 2.829836 1_455
Nd2 S1 2.868533 1_545
Nd2 S5 2.868533 1_545
Nd2 S2 3.008147 1_555
Nd2 S6 3.008147 1_555
Nd2 S4 3.367815 1_454
Nd2 S0 3.367815 1_455
Nd3 S10 2.822380 1_665
Nd3 S9 2.829836 1_655
Nd3 S0 2.868533 1_565
Nd3 S4 2.868533 1_565
Nd3 S3 3.008147 1_555
Nd3 S7 3.008147 1_555
Nd3 S5 3.367815 1_655
Nd3 S1 3.367815 1_656
S0 Sc2 2.555669 1_555
S0 Sc1 2.591961 1_655
S1 Sc3 2.555669 1_565
S1 Sc0 2.591961 1_555
S2 Sc0 2.555669 1_555
S2 Sc3 2.591961 1_555
S3 Sc1 2.555669 1_655
S3 Sc2 2.591961 1_565
S4 Sc3 2.555669 1_556
S4 Sc0 2.591961 1_656
S5 Sc2 2.555669 1_565
S5 Sc1 2.591961 1_555
S6 Sc1 2.555669 1_555
S6 Sc2 2.591961 1_555
S7 Sc0 2.555669 1_656
S7 Sc3 2.591961 1_566
S8 Sc1 2.550697 1_655
S8 Sc0 2.550697 1_655
S9 Sc1 2.550697 1_555
S9 Sc0 2.550697 1_556
S10 Sc3 2.550697 1_556
S10 Sc2 2.550697 1_555
S11 Sc3 2.550697 1_565
S11 Sc2 2.550697 1_565
