# generated using pymatgen
data_Mg2CrCo3S8
_symmetry_space_group_name_H-M   'P 1'
_cell_length_a   7.01108867
_cell_length_b   6.97949583
_cell_length_c   7.01026986
_cell_angle_alpha   59.96752047
_cell_angle_beta   60.11093128
_cell_angle_gamma   59.94404740
_symmetry_Int_Tables_number   1
_chemical_formula_structural   Mg2CrCo3S8
_chemical_formula_sum   'Mg2 Cr1 Co3 S8'
_cell_volume   242.60565835
_cell_formula_units_Z   1
loop_
 _symmetry_equiv_pos_site_id
 _symmetry_equiv_pos_as_xyz
  1  'x, y, z'
loop_
 _atom_site_type_symbol
 _atom_site_label
 _atom_site_symmetry_multiplicity
 _atom_site_fract_x
 _atom_site_fract_y
 _atom_site_fract_z
 _atom_site_occupancy
  Mg  Mg0  1  0.87532700  0.87388800  0.87540400  1
  Mg  Mg1  1  0.12467500  0.12613200  0.12458600  1
  Cr  Cr0  1  0.49995000  0.99999700  0.50005400  1
  Co  Co0  1  0.50000800  0.50000700  0.49998000  1
  Co  Co1  1  0.50000300  0.49999500  0.99999600  1
  Co  Co2  1  0.00000800  0.50000300  0.49998900  1
  S  S0  1  0.73733600  0.72459100  0.73757900  1
  S  S1  1  0.26229600  0.27518900  0.70024500  1
  S  S2  1  0.26879800  0.69304300  0.26901700  1
  S  S3  1  0.70023300  0.27483100  0.26234100  1
  S  S4  1  0.73121300  0.30696700  0.73094900  1
  S  S5  1  0.29975600  0.72514000  0.73766800  1
  S  S6  1  0.26269500  0.27537700  0.26244100  1
  S  S7  1  0.73770700  0.72483500  0.29975200  1
loop_
_geom_bond_atom_site_label_1
_geom_bond_atom_site_label_2
_geom_bond_distance
_geom_bond_site_symmetry_2
Mg0 S0 2.429925 1_555
Mg0 S7 2.430982 1_556
Mg0 S5 2.431100 1_655
Mg0 S4 2.465660 1_565
Mg1 S6 2.429961 1_555
Mg1 S1 2.430943 1_554
Mg1 S3 2.431170 1_455
Mg1 S2 2.465717 1_545
Cr0 S6 2.364327 1_565
Cr0 S0 2.364541 1_555
Cr0 S5 2.364991 1_555
Cr0 S3 2.365276 1_565
Cr0 S1 2.365756 1_565
Cr0 S7 2.366104 1_555
Co0 S1 2.300708 1_555
Co0 S7 2.300714 1_555
Co0 S3 2.301286 1_555
Co0 S5 2.301308 1_555
Co0 S2 2.304136 1_555
Co0 S4 2.304138 1_555
Co1 S0 2.299059 1_555
Co1 S6 2.299061 1_556
Co1 S5 2.300635 1_555
Co1 S3 2.300643 1_556
Co1 S2 2.304052 1_556
Co1 S4 2.304101 1_555
Co2 S6 2.299429 1_555
Co2 S0 2.299444 1_455
Co2 S7 2.300443 1_455
Co2 S1 2.300466 1_555
Co2 S2 2.303674 1_555
Co2 S4 2.303683 1_455
