# generated using pymatgen
data_GaTe4(MoSe)4
_symmetry_space_group_name_H-M   'P 1'
_cell_length_a   7.62144013
_cell_length_b   7.62144013
_cell_length_c   7.62144013
_cell_angle_alpha   60.00000000
_cell_angle_beta   60.00000000
_cell_angle_gamma   60.00000000
_symmetry_Int_Tables_number   1
_chemical_formula_structural   GaTe4(MoSe)4
_chemical_formula_sum   'Ga1 Te4 Mo4 Se4'
_cell_volume   313.03732934
_cell_formula_units_Z   1
loop_
 _symmetry_equiv_pos_site_id
 _symmetry_equiv_pos_as_xyz
  1  'x, y, z'
loop_
 _atom_site_type_symbol
 _atom_site_label
 _atom_site_symmetry_multiplicity
 _atom_site_fract_x
 _atom_site_fract_y
 _atom_site_fract_z
 _atom_site_occupancy
  Ga  Ga0  1  0.00000000  0.00000000  0.00000000  1
  Te  Te0  1  0.13840500  0.13840500  0.13840500  1
  Te  Te1  1  0.13840500  0.58478600  0.13840500  1
  Te  Te2  1  0.13840500  0.13840500  0.58478600  1
  Te  Te3  1  0.58478600  0.13840500  0.13840500  1
  Mo  Mo0  1  0.40437400  0.40437400  0.78687900  1
  Mo  Mo1  1  0.40437400  0.40437400  0.40437400  1
  Mo  Mo2  1  0.78687900  0.40437400  0.40437400  1
  Mo  Mo3  1  0.40437400  0.78687900  0.40437400  1
  Se  Se0  1  0.63088100  0.63088100  0.10735600  1
  Se  Se1  1  0.63088100  0.63088100  0.63088100  1
  Se  Se2  1  0.10735600  0.63088100  0.63088100  1
  Se  Se3  1  0.63088100  0.10735600  0.63088100  1
loop_
_geom_bond_atom_site_label_1
_geom_bond_atom_site_label_2
_geom_bond_distance
_geom_bond_site_symmetry_2
Ga0 Te3 2.583827 1_455
Ga0 Te1 2.583827 1_545
Ga0 Te2 2.583827 1_554
Ga0 Te0 2.583833 1_555
Mo0 Se1 2.499813 1_555
Mo0 Se3 2.499825 1_555
Mo0 Se2 2.499825 1_555
Mo0 Te0 2.939931 1_556
Mo0 Te1 2.939931 1_556
Mo0 Te3 2.939931 1_556
Mo1 Se0 2.499817 1_555
Mo1 Se2 2.499817 1_555
Mo1 Se3 2.499817 1_555
Mo1 Te3 2.939931 1_555
Mo1 Te2 2.939931 1_555
Mo1 Te1 2.939931 1_555
Mo2 Se1 2.499813 1_555
Mo2 Se3 2.499825 1_555
Mo2 Se0 2.499825 1_555
Mo2 Te0 2.939931 1_655
Mo2 Te1 2.939931 1_655
Mo2 Te2 2.939931 1_655
Mo3 Se1 2.499813 1_555
Mo3 Se0 2.499825 1_555
Mo3 Se2 2.499825 1_555
Mo3 Te0 2.939931 1_565
Mo3 Te2 2.939931 1_565
Mo3 Te3 2.939931 1_565
