# generated using pymatgen
data_Be2Co(NF7)2
_symmetry_space_group_name_H-M   'P 1'
_cell_length_a   13.40498300
_cell_length_b   5.66472100
_cell_length_c   8.35875039
_cell_angle_alpha   67.41408160
_cell_angle_beta   90.00000000
_cell_angle_gamma   90.00000000
_symmetry_Int_Tables_number   1
_chemical_formula_structural   Be2Co(NF7)2
_chemical_formula_sum   'Be4 Co2 N4 F28'
_cell_volume   586.04527092
_cell_formula_units_Z   2
loop_
 _symmetry_equiv_pos_site_id
 _symmetry_equiv_pos_as_xyz
  1  'x, y, z'
loop_
 _atom_site_type_symbol
 _atom_site_label
 _atom_site_symmetry_multiplicity
 _atom_site_fract_x
 _atom_site_fract_y
 _atom_site_fract_z
 _atom_site_occupancy
  Be  Be0  1  0.41516300  0.00671700  0.83866500  1
  Be  Be1  1  0.58483700  0.99328300  0.16133500  1
  Be  Be2  1  0.91516300  0.99328300  0.66133500  1
  Be  Be3  1  0.08483700  0.00671700  0.33866500  1
  Co  Co0  1  0.50000000  0.50000000  0.50000000  1
  Co  Co1  1  0.00000000  0.50000000  0.00000000  1
  N  N0  1  0.64293000  0.88426800  0.83935500  1
  N  N1  1  0.35707000  0.11573200  0.16064500  1
  N  N2  1  0.14293000  0.11573200  0.66064500  1
  N  N3  1  0.85707000  0.88426800  0.33935500  1
  F  F0  1  0.30359700  0.30839400  0.04989900  1
  F  F1  1  0.69640300  0.69160600  0.95010100  1
  F  F2  1  0.80359700  0.69160600  0.45010100  1
  F  F3  1  0.19640300  0.30839400  0.54989900  1
  F  F4  1  0.11975700  0.93259400  0.53807600  1
  F  F5  1  0.88024300  0.06740600  0.46192400  1
  F  F6  1  0.61975700  0.06740600  0.96192400  1
  F  F7  1  0.38024300  0.93259400  0.03807600  1
  F  F8  1  0.41939700  0.27875400  0.73209800  1
  F  F9  1  0.58060300  0.72124600  0.26790200  1
  F  F10  1  0.91939700  0.72124600  0.76790200  1
  F  F11  1  0.08060300  0.27875400  0.23209800  1
  F  F12  1  0.43027100  0.77205500  0.81934400  1
  F  F13  1  0.56972900  0.22794500  0.18065600  1
  F  F14  1  0.93027100  0.22794500  0.68065600  1
  F  F15  1  0.06972900  0.77205500  0.31934400  1
  F  F16  1  0.10190400  0.45083500  0.87635500  1
  F  F17  1  0.89809600  0.54916500  0.12364500  1
  F  F18  1  0.60190400  0.54916500  0.62364500  1
  F  F19  1  0.39809600  0.45083500  0.37635500  1
  F  F20  1  0.44442600  0.78135400  0.48946900  1
  F  F21  1  0.55557400  0.21864600  0.51053100  1
  F  F22  1  0.94442600  0.21864600  0.01053100  1
  F  F23  1  0.05557400  0.78135400  0.98946900  1
  F  F24  1  0.21197900  0.96063700  0.76698800  1
  F  F25  1  0.78802100  0.03936300  0.23301200  1
  F  F26  1  0.71197900  0.03936300  0.73301200  1
  F  F27  1  0.28802100  0.96063700  0.26698800  1
loop_
_geom_bond_atom_site_label_1
_geom_bond_atom_site_label_2
_geom_bond_distance
_geom_bond_site_symmetry_2
Be0 F12 1.413869 1_545
Be0 F8 1.454992 1_555
Be0 F7 1.623617 1_546
Be1 F13 1.413869 1_565
Be1 F9 1.454992 1_555
Be1 F6 1.623617 1_564
Be2 F14 1.413869 1_565
Be2 F10 1.454992 1_555
Be2 F5 1.623617 1_565
Be3 F15 1.413869 1_545
Be3 F11 1.454992 1_555
Be3 F4 1.623617 1_545
Co0 F20 1.730645 1_555
Co0 F21 1.730645 1_555
Co0 F18 1.798010 1_555
Co0 F19 1.798010 1_555
Co0 F8 2.152741 1_555
Co0 F9 2.152741 1_555
Co1 F22 1.730645 1_455
Co1 F23 1.730645 1_554
Co1 F16 1.798010 1_554
Co1 F17 1.798010 1_455
Co1 F11 2.152741 1_555
Co1 F10 2.152741 1_454
F0 N1 1.336335 1_555
F1 N0 1.336335 1_555
F2 N3 1.336335 1_555
F3 N2 1.336335 1_555
F4 N2 1.743222 1_565
F5 N3 1.743222 1_545
F6 N0 1.743222 1_545
F7 N1 1.743222 1_565
F24 N2 1.348656 1_565
F25 N3 1.348656 1_545
F26 N0 1.348656 1_545
F27 N1 1.348656 1_565
