# generated using pymatgen
data_Yb2Sn2Au3
_symmetry_space_group_name_H-M   'P 1'
_cell_length_a   16.03747195
_cell_length_b   16.03747195
_cell_length_c   16.03747168
_cell_angle_alpha   17.34492878
_cell_angle_beta   17.34492878
_cell_angle_gamma   17.34492761
_symmetry_Int_Tables_number   1
_chemical_formula_structural   Yb2Sn2Au3
_chemical_formula_sum   'Yb4 Sn4 Au6'
_cell_volume   319.91471177
_cell_formula_units_Z   2
loop_
 _symmetry_equiv_pos_site_id
 _symmetry_equiv_pos_as_xyz
  1  'x, y, z'
loop_
 _atom_site_type_symbol
 _atom_site_label
 _atom_site_symmetry_multiplicity
 _atom_site_fract_x
 _atom_site_fract_y
 _atom_site_fract_z
 _atom_site_occupancy
  Yb  Yb0  1  0.57754000  0.57754000  0.57754000  1
  Yb  Yb1  1  0.42246000  0.42246000  0.42246000  1
  Yb  Yb2  1  0.50000000  0.50000000  0.50000000  1
  Yb  Yb3  1  0.00000000  0.00000000  0.00000000  1
  Sn  Sn0  1  0.87417800  0.87417800  0.87417800  1
  Sn  Sn1  1  0.12582200  0.12582200  0.12582200  1
  Sn  Sn2  1  0.70849500  0.70849500  0.70849500  1
  Sn  Sn3  1  0.29150500  0.29150500  0.29150500  1
  Au  Au0  1  0.93508900  0.93508900  0.93508900  1
  Au  Au1  1  0.06491100  0.06491100  0.06491100  1
  Au  Au2  1  0.79791800  0.79791800  0.79791800  1
  Au  Au3  1  0.20208200  0.20208200  0.20208200  1
  Au  Au4  1  0.64328600  0.64328600  0.64328600  1
  Au  Au5  1  0.35671400  0.35671400  0.35671400  1
loop_
_geom_bond_atom_site_label_1
_geom_bond_atom_site_label_2
_geom_bond_distance
_geom_bond_site_symmetry_2
Sn0 Yb0 3.289311 1_556
Sn0 Yb0 3.289311 1_655
Sn0 Yb0 3.289311 1_565
Sn0 Yb2 3.397315 1_655
Sn0 Yb2 3.397315 1_565
Sn0 Yb2 3.397316 1_556
Sn1 Yb1 3.289311 1_554
Sn1 Yb1 3.289311 1_455
Sn1 Yb1 3.289311 1_545
Sn1 Yb2 3.397315 1_455
Sn1 Yb2 3.397315 1_545
Sn1 Yb2 3.397316 1_554
Sn2 Yb3 3.424075 1_665
Sn2 Yb3 3.424075 1_656
Sn2 Yb3 3.424075 1_566
Sn2 Yb1 3.580307 1_556
Sn2 Yb1 3.580307 1_565
Sn2 Yb1 3.580307 1_655
Sn3 Yb3 3.424075 1_556
Sn3 Yb3 3.424075 1_565
Sn3 Yb3 3.424075 1_655
Sn3 Yb0 3.580307 1_554
Sn3 Yb0 3.580307 1_545
Sn3 Yb0 3.580307 1_455
Au0 Sn0 2.885813 1_555
Au0 Sn3 2.998837 1_566
Au0 Sn3 2.998837 1_656
Au0 Sn3 2.998837 1_665
Au0 Yb0 3.018826 1_565
Au0 Yb0 3.018826 1_655
Au0 Yb0 3.018827 1_556
Au0 Yb3 3.075323 1_666
Au1 Sn1 2.885813 1_555
Au1 Sn2 2.998837 1_544
Au1 Sn2 2.998837 1_454
Au1 Sn2 2.998837 1_445
Au1 Yb1 3.018826 1_545
Au1 Yb1 3.018826 1_455
Au1 Yb1 3.018827 1_554
Au1 Yb3 3.075323 1_555
Au2 Sn1 2.804145 1_566
Au2 Sn1 2.804145 1_656
Au2 Sn1 2.804145 1_665
Au2 Yb2 3.257665 1_556
Au2 Yb2 3.257665 1_565
Au2 Yb2 3.257665 1_655
Au2 Yb1 3.432220 1_655
Au2 Yb1 3.432220 1_565
Au2 Yb1 3.432220 1_556
Au3 Sn0 2.804145 1_454
Au3 Sn0 2.804145 1_544
Au3 Sn0 2.804145 1_445
Au3 Yb2 3.257665 1_554
Au3 Yb2 3.257665 1_545
Au3 Yb2 3.257665 1_455
Au3 Yb0 3.432220 1_455
Au3 Yb0 3.432220 1_545
Au3 Yb0 3.432220 1_554
Au4 Sn3 2.925910 1_565
Au4 Sn3 2.925910 1_655
Au4 Sn3 2.925910 1_556
Au4 Yb3 3.004015 1_656
Au4 Yb3 3.004015 1_566
Au4 Yb3 3.004015 1_665
Au4 Sn2 3.089442 1_555
Au4 Yb0 3.114884 1_555
Au5 Sn2 2.925910 1_455
Au5 Sn2 2.925910 1_545
Au5 Sn2 2.925910 1_554
Au5 Yb3 3.004015 1_655
Au5 Yb3 3.004015 1_565
Au5 Yb3 3.004015 1_556
Au5 Sn3 3.089442 1_555
Au5 Yb1 3.114884 1_555
