# generated using pymatgen
data_Mg6Si5
_symmetry_space_group_name_H-M   'P 1'
_cell_length_a   4.86525800
_cell_length_b   6.00267559
_cell_length_c   14.23823244
_cell_angle_alpha   84.83770684
_cell_angle_beta   86.34734416
_cell_angle_gamma   82.58384075
_symmetry_Int_Tables_number   1
_chemical_formula_structural   Mg6Si5
_chemical_formula_sum   'Mg12 Si10'
_cell_volume   410.09873089
_cell_formula_units_Z   2
loop_
 _symmetry_equiv_pos_site_id
 _symmetry_equiv_pos_as_xyz
  1  'x, y, z'
loop_
 _atom_site_type_symbol
 _atom_site_label
 _atom_site_symmetry_multiplicity
 _atom_site_fract_x
 _atom_site_fract_y
 _atom_site_fract_z
 _atom_site_occupancy
  Mg  Mg0  1  0.12035100  0.23253100  0.97583300  1
  Mg  Mg1  1  0.82356800  0.04911600  0.51261100  1
  Mg  Mg2  1  0.22583400  0.66668400  0.61100400  1
  Mg  Mg3  1  0.94606300  0.79628700  0.34205100  1
  Mg  Mg4  1  0.05706300  0.54822100  0.17134300  1
  Mg  Mg5  1  0.64254500  0.09195700  0.85933900  1
  Mg  Mg6  1  0.28020300  0.16115000  0.63786800  1
  Mg  Mg7  1  0.30141900  0.36268300  0.42471800  1
  Mg  Mg8  1  0.59115300  0.37887000  0.07915900  1
  Mg  Mg9  1  0.64196600  0.58909100  0.87484000  1
  Mg  Mg10  1  0.09517900  0.73883700  0.97488800  1
  Mg  Mg11  1  0.54430500  0.88472600  0.08682600  1
  Si  Si0  1  0.40542400  0.86621100  0.43329400  1
  Si  Si1  1  0.74346200  0.51569000  0.52428700  1
  Si  Si2  1  0.17296900  0.85377400  0.78798800  1
  Si  Si3  1  0.42877100  0.09049900  0.26158500  1
  Si  Si4  1  0.83939600  0.27206300  0.31388600  1
  Si  Si5  1  0.73864100  0.42090000  0.69945700  1
  Si  Si6  1  0.18674700  0.43214100  0.79226600  1
  Si  Si7  1  0.51093100  0.62576400  0.26877800  1
  Si  Si8  1  0.99239700  0.07247700  0.16703400  1
  Si  Si9  1  0.71504900  0.84665800  0.69735500  1
loop_
_geom_bond_atom_site_label_1
_geom_bond_atom_site_label_2
_geom_bond_distance
_geom_bond_site_symmetry_2
Mg0 Si6 2.792861 1_555
Mg0 Si8 2.861755 1_456
Mg1 Si0 2.777046 1_545
Mg1 Si1 2.795919 1_555
Mg1 Si9 2.843986 1_545
Mg1 Si4 3.019994 1_555
Mg1 Si0 3.083526 1_645
Mg1 Mg2 3.110246 1_645
Mg1 Mg6 3.110466 1_655
Mg1 Mg6 3.126939 1_555
Mg1 Si1 3.263485 1_545
Mg2 Si1 2.811446 1_555
Mg2 Si9 2.830392 1_455
Mg2 Si2 2.833653 1_555
Mg2 Si6 2.834044 1_555
Mg2 Si0 2.836075 1_555
Mg2 Si1 2.995574 1_455
Mg2 Mg6 3.003599 1_555
Mg2 Si5 3.017165 1_555
Mg2 Mg6 3.073414 1_565
Mg2 Si5 3.093424 1_455
Mg2 Si9 3.101543 1_555
Mg2 Mg7 3.327735 1_555
Mg3 Si0 2.751180 1_655
Mg3 Si7 2.766041 1_555
Mg3 Si4 2.832716 1_565
Mg3 Si0 2.856639 1_555
Mg3 Si8 2.879334 1_565
Mg3 Si7 2.964724 1_655
Mg3 Si3 3.101858 1_565
Mg3 Si1 3.139651 1_555
Mg4 Si4 2.749987 1_455
Mg4 Si7 2.790916 1_555
Mg4 Si8 2.919573 1_455
Mg4 Si7 2.920370 1_455
Mg4 Si8 3.117386 1_465
Mg5 Si9 2.825818 1_545
Mg5 Si5 2.931447 1_555
Mg5 Si2 2.951410 1_645
Mg5 Si6 2.957939 1_555
Mg5 Si2 3.113837 1_545
Mg6 Si2 2.764397 1_545
Mg6 Si9 2.768869 1_545
Mg6 Si6 2.830333 1_555
Mg6 Si5 3.005588 1_455
Mg6 Si5 3.093196 1_555
Mg6 Mg7 3.164845 1_555
Mg7 Si7 2.821145 1_555
Mg7 Si1 2.934521 1_555
Mg7 Si3 2.947300 1_555
Mg7 Si0 2.950493 1_545
Mg7 Si4 2.959919 1_455
Mg7 Si4 2.982878 1_555
Mg7 Si1 3.053326 1_455
Mg7 Si0 3.142557 1_555
Mg8 Si8 2.780145 1_555
Mg8 Si3 3.106378 1_555
Mg8 Si7 3.174006 1_555
Mg9 Si5 2.767252 1_555
Mg9 Si9 2.868319 1_555
Mg9 Si6 2.871373 1_555
Mg9 Si2 2.886207 1_555
Mg9 Si6 2.907349 1_655
Mg10 Si2 2.703612 1_555
Mg11 Si3 2.868575 1_565
Mg11 Si7 2.905372 1_555
Mg11 Si8 2.917230 1_565
Mg11 Si8 2.973919 1_465
Si0 Si3 2.685977 1_565
Si0 Si1 2.774542 1_555
Si0 Si7 2.845617 1_555
Si1 Si5 2.507091 1_555
Si2 Si6 2.518486 1_555
Si2 Si9 2.651685 1_455
Si2 Si9 2.858313 1_555
Si3 Si4 2.575118 1_555
Si3 Si8 2.604068 1_455
Si3 Si7 2.760141 1_545
Si4 Si8 2.526580 1_555
Si4 Si7 2.546289 1_555
Si5 Si9 2.540975 1_555
Si5 Si6 2.631521 1_655
Si5 Si6 2.911653 1_555
