# generated using pymatgen
data_YWC2
_symmetry_space_group_name_H-M   'P 1'
_cell_length_a   3.38210135
_cell_length_b   5.72248081
_cell_length_c   10.77970760
_cell_angle_alpha   90.00000000
_cell_angle_beta   90.00000000
_cell_angle_gamma   90.00000000
_symmetry_Int_Tables_number   1
_chemical_formula_structural   YWC2
_chemical_formula_sum   'Y4 W4 C8'
_cell_volume   208.63056947
_cell_formula_units_Z   4
loop_
 _symmetry_equiv_pos_site_id
 _symmetry_equiv_pos_as_xyz
  1  'x, y, z'
loop_
 _atom_site_type_symbol
 _atom_site_label
 _atom_site_symmetry_multiplicity
 _atom_site_fract_x
 _atom_site_fract_y
 _atom_site_fract_z
 _atom_site_occupancy
  Y  Y0  1  0.25000000  0.08611202  0.86254952  1
  Y  Y1  1  0.25000000  0.58611202  0.63745048  1
  Y  Y2  1  0.75000000  0.91388798  0.13745048  1
  Y  Y3  1  0.75000000  0.41388798  0.36254952  1
  W  W0  1  0.25000000  0.40315465  0.11105805  1
  W  W1  1  0.25000000  0.90315365  0.38894195  1
  W  W2  1  0.75000000  0.59684635  0.88894195  1
  W  W3  1  0.75000000  0.09684535  0.61105805  1
  C  C0  1  0.25000000  0.15924260  0.24714778  1
  C  C1  1  0.25000000  0.65924260  0.25285222  1
  C  C2  1  0.75000000  0.84075740  0.75285222  1
  C  C3  1  0.75000000  0.34075740  0.74714778  1
  C  C4  1  0.25000000  0.72098958  0.98248726  1
  C  C5  1  0.25000000  0.22098958  0.51751274  1
  C  C6  1  0.75000000  0.27901042  0.01751274  1
  C  C7  1  0.75000000  0.77901042  0.48248726  1
loop_
_geom_bond_atom_site_label_1
_geom_bond_atom_site_label_2
_geom_bond_distance
_geom_bond_site_symmetry_2
C0 W0 2.024924 1_555
C0 W1 2.117521 1_545
C0 Y2 2.495855 1_545
C0 Y2 2.495855 1_445
C0 Y3 2.555508 1_455
C0 Y3 2.555508 1_555
C1 W1 2.024920 1_555
C1 W0 2.117517 1_555
C1 Y3 2.495855 1_555
C1 Y3 2.495855 1_455
C1 Y2 2.555508 1_455
C1 Y2 2.555508 1_555
C2 W2 2.024920 1_555
C2 W3 2.117517 1_565
C2 Y0 2.495855 1_565
C2 Y0 2.495855 1_665
C2 Y1 2.555508 1_655
C2 Y1 2.555508 1_555
C3 W3 2.024924 1_555
C3 W2 2.117521 1_555
C3 Y1 2.495855 1_655
C3 Y1 2.495855 1_555
C3 Y0 2.555508 1_555
C3 Y0 2.555508 1_655
C4 W2 2.093128 1_555
C4 W2 2.093128 1_455
C4 W0 2.286684 1_556
C4 Y0 2.457070 1_565
C4 Y2 2.620798 1_456
C4 Y2 2.620798 1_556
C5 W3 2.093130 1_455
C5 W3 2.093130 1_555
C5 W1 2.286688 1_545
C5 Y1 2.457070 1_555
C5 Y3 2.620798 1_455
C5 Y3 2.620798 1_555
C6 W0 2.093130 1_555
C6 W0 2.093130 1_655
C6 W2 2.286688 1_554
C6 Y2 2.457070 1_545
C6 Y0 2.620798 1_554
C6 Y0 2.620798 1_654
C7 W1 2.093128 1_655
C7 W1 2.093128 1_555
C7 W3 2.286684 1_565
C7 Y3 2.457070 1_555
C7 Y1 2.620798 1_655
C7 Y1 2.620798 1_555
