# generated using pymatgen
data_Ba3Al3As5
_symmetry_space_group_name_H-M   'P 1'
_cell_length_a   13.25402166
_cell_length_b   13.25402166
_cell_length_c   13.25402160
_cell_angle_alpha   69.46550934
_cell_angle_beta   69.46550934
_cell_angle_gamma   69.46550710
_symmetry_Int_Tables_number   1
_chemical_formula_structural   Ba3Al3As5
_chemical_formula_sum   'Ba18 Al18 As30'
_cell_volume   1971.79698270
_cell_formula_units_Z   6
loop_
 _symmetry_equiv_pos_site_id
 _symmetry_equiv_pos_as_xyz
  1  'x, y, z'
loop_
 _atom_site_type_symbol
 _atom_site_label
 _atom_site_symmetry_multiplicity
 _atom_site_fract_x
 _atom_site_fract_y
 _atom_site_fract_z
 _atom_site_occupancy
  Ba  Ba0  1  0.14474312  0.22377728  0.65087433  1
  Ba  Ba1  1  0.65087433  0.14474312  0.22377728  1
  Ba  Ba2  1  0.22377728  0.65087433  0.14474312  1
  Ba  Ba3  1  0.15087433  0.72377728  0.64474312  1
  Ba  Ba4  1  0.64474312  0.15087433  0.72377728  1
  Ba  Ba5  1  0.72377728  0.64474312  0.15087433  1
  Ba  Ba6  1  0.85525688  0.77622272  0.34912567  1
  Ba  Ba7  1  0.34912567  0.85525688  0.77622272  1
  Ba  Ba8  1  0.77622272  0.34912567  0.85525688  1
  Ba  Ba9  1  0.84912567  0.27622272  0.35525688  1
  Ba  Ba10  1  0.35525688  0.84912567  0.27622272  1
  Ba  Ba11  1  0.27622272  0.35525688  0.84912567  1
  Ba  Ba12  1  0.39777136  0.39777136  0.39777136  1
  Ba  Ba13  1  0.89777136  0.89777136  0.89777136  1
  Ba  Ba14  1  0.60222864  0.60222864  0.60222864  1
  Ba  Ba15  1  0.10222864  0.10222864  0.10222864  1
  Ba  Ba16  1  0.25000000  0.25000000  0.25000000  1
  Ba  Ba17  1  0.75000000  0.75000000  0.75000000  1
  Al  Al0  1  0.07895538  0.57199799  0.49449560  1
  Al  Al1  1  0.49449560  0.07895538  0.57199799  1
  Al  Al2  1  0.57199799  0.49449560  0.07895538  1
  Al  Al3  1  0.99449560  0.07199799  0.57895538  1
  Al  Al4  1  0.57895538  0.99449560  0.07199799  1
  Al  Al5  1  0.07199799  0.57895538  0.99449560  1
  Al  Al6  1  0.92104462  0.42800201  0.50550440  1
  Al  Al7  1  0.50550440  0.92104462  0.42800201  1
  Al  Al8  1  0.42800201  0.50550440  0.92104462  1
  Al  Al9  1  0.00550440  0.92800201  0.42104462  1
  Al  Al10  1  0.42104462  0.00550440  0.92800201  1
  Al  Al11  1  0.92800201  0.42104462  0.00550440  1
  Al  Al12  1  0.97821376  0.52178624  0.25000000  1
  Al  Al13  1  0.25000000  0.97821376  0.52178624  1
  Al  Al14  1  0.52178624  0.25000000  0.97821376  1
  Al  Al15  1  0.75000000  0.02178624  0.47821376  1
  Al  Al16  1  0.47821376  0.75000000  0.02178624  1
  Al  Al17  1  0.02178624  0.47821376  0.75000000  1
  As  As0  1  0.11153151  0.44949496  0.37381321  1
  As  As1  1  0.37381321  0.11153151  0.44949496  1
  As  As2  1  0.44949496  0.37381321  0.11153151  1
  As  As3  1  0.87381321  0.94949496  0.61153151  1
  As  As4  1  0.61153151  0.87381321  0.94949496  1
  As  As5  1  0.94949496  0.61153151  0.87381321  1
  As  As6  1  0.88846849  0.55050504  0.62618679  1
  As  As7  1  0.62618679  0.88846849  0.55050504  1
  As  As8  1  0.55050504  0.62618679  0.88846849  1
  As  As9  1  0.12618679  0.05050504  0.38846849  1
  As  As10  1  0.38846849  0.12618679  0.05050504  1
  As  As11  1  0.05050504  0.38846849  0.12618679  1
  As  As12  1  0.20605783  0.47032979  0.61460945  1
  As  As13  1  0.61460945  0.20605783  0.47032979  1
  As  As14  1  0.47032979  0.61460945  0.20605783  1
  As  As15  1  0.11460945  0.97032979  0.70605783  1
  As  As16  1  0.70605783  0.11460945  0.97032979  1
  As  As17  1  0.97032979  0.70605783  0.11460945  1
  As  As18  1  0.79394217  0.52967021  0.38539055  1
  As  As19  1  0.38539055  0.79394217  0.52967021  1
  As  As20  1  0.52967021  0.38539055  0.79394217  1
  As  As21  1  0.88539055  0.02967021  0.29394217  1
  As  As22  1  0.29394217  0.88539055  0.02967021  1
  As  As23  1  0.02967021  0.29394217  0.88539055  1
  As  As24  1  0.61622192  0.88377808  0.25000000  1
  As  As25  1  0.25000000  0.61622192  0.88377808  1
  As  As26  1  0.88377808  0.25000000  0.61622192  1
  As  As27  1  0.75000000  0.38377808  0.11622192  1
  As  As28  1  0.11622192  0.75000000  0.38377808  1
  As  As29  1  0.38377808  0.11622192  0.75000000  1
loop_
_geom_bond_atom_site_label_1
_geom_bond_atom_site_label_2
_geom_bond_distance
_geom_bond_site_symmetry_2
Al0 As28 2.417361 1_555
Al0 As12 2.443794 1_555
Al0 As0 2.495362 1_555
Al0 As6 2.562445 1_455
Al1 As29 2.417361 1_555
Al1 As13 2.443795 1_555
Al1 As1 2.495362 1_555
Al1 As7 2.562445 1_545
Al2 As27 2.417361 1_555
Al2 As14 2.443794 1_555
Al2 As2 2.495362 1_555
Al2 As8 2.562445 1_554
Al3 As26 2.417361 1_555
Al3 As15 2.443794 1_645
Al3 As3 2.495362 1_545
Al3 As9 2.562445 1_655
Al4 As24 2.417361 1_555
Al4 As16 2.443795 1_564
Al4 As4 2.495362 1_554
Al4 As10 2.562445 1_565
Al5 As25 2.417361 1_555
Al5 As17 2.443794 1_456
Al5 As5 2.495362 1_455
Al5 As11 2.562445 1_556
Al6 As26 2.417361 1_555
Al6 As18 2.443794 1_555
Al6 As6 2.495362 1_555
Al6 As0 2.562445 1_655
Al7 As24 2.417361 1_555
Al7 As19 2.443795 1_555
Al7 As7 2.495362 1_555
Al7 As1 2.562445 1_565
Al8 As25 2.417361 1_555
Al8 As20 2.443794 1_555
Al8 As8 2.495362 1_555
Al8 As2 2.562445 1_556
Al9 As28 2.417361 1_555
Al9 As21 2.443794 1_465
Al9 As9 2.495362 1_565
Al9 As3 2.562445 1_455
Al10 As29 2.417361 1_555
Al10 As22 2.443795 1_546
Al10 As10 2.495362 1_556
Al10 As4 2.562445 1_545
Al11 As27 2.417361 1_555
Al11 As23 2.443794 1_654
Al11 As11 2.495362 1_655
Al11 As5 2.562445 1_554
Al12 As17 2.464532 1_555
Al12 As18 2.464532 1_555
Al12 As11 2.544940 1_655
Al12 As0 2.544940 1_655
Al13 As19 2.464532 1_555
Al13 As15 2.464532 1_555
Al13 As9 2.544940 1_565
Al13 As1 2.544940 1_565
Al14 As16 2.464532 1_555
Al14 As20 2.464532 1_555
Al14 As2 2.544940 1_556
Al14 As10 2.544940 1_556
Al15 As13 2.464532 1_555
Al15 As21 2.464532 1_555
Al15 As3 2.544940 1_545
Al15 As7 2.544940 1_545
Al16 As22 2.464532 1_555
Al16 As14 2.464532 1_555
Al16 As8 2.544940 1_554
Al16 As4 2.544940 1_554
Al17 As23 2.464532 1_555
Al17 As12 2.464532 1_555
Al17 As6 2.544940 1_455
Al17 As5 2.544940 1_455
As0 Ba16 3.252587 1_555
As0 Ba2 3.533713 1_555
As0 Ba12 3.719109 1_555
As0 Ba0 3.889956 1_555
As1 Ba16 3.252587 1_555
As1 Ba0 3.533712 1_555
As1 Ba12 3.719109 1_555
As1 Ba1 3.889956 1_555
As2 Ba16 3.252587 1_555
As2 Ba1 3.533712 1_555
As2 Ba12 3.719109 1_555
As2 Ba2 3.889956 1_555
As3 Ba17 3.252587 1_555
As3 Ba4 3.533712 1_565
As3 Ba13 3.719109 1_555
As3 Ba3 3.889956 1_655
As4 Ba17 3.252587 1_555
As4 Ba5 3.533712 1_556
As4 Ba13 3.719109 1_555
As4 Ba4 3.889956 1_565
As5 Ba17 3.252587 1_555
As5 Ba3 3.533713 1_655
As5 Ba13 3.719109 1_555
As5 Ba5 3.889956 1_556
As6 Ba17 3.252587 1_555
As6 Ba8 3.533713 1_555
As6 Ba14 3.719109 1_555
As6 Ba6 3.889956 1_555
As7 Ba17 3.252587 1_555
As7 Ba6 3.533712 1_555
As7 Ba14 3.719109 1_555
As7 Ba7 3.889956 1_555
As8 Ba17 3.252587 1_555
As8 Ba7 3.533712 1_555
As8 Ba14 3.719109 1_555
As8 Ba8 3.889956 1_555
As9 Ba16 3.252587 1_555
As9 Ba10 3.533712 1_545
As9 Ba15 3.719109 1_555
As9 Ba9 3.889956 1_455
As10 Ba16 3.252587 1_555
As10 Ba11 3.533712 1_554
As10 Ba15 3.719109 1_555
As10 Ba10 3.889956 1_545
As11 Ba16 3.252587 1_555
As11 Ba9 3.533713 1_455
As11 Ba15 3.719109 1_555
As11 Ba11 3.889956 1_554
As12 Ba11 3.249534 1_555
As12 Ba12 3.277599 1_555
As12 Ba3 3.315316 1_555
As12 Ba0 3.472342 1_555
As13 Ba9 3.249535 1_555
As13 Ba12 3.277599 1_555
As13 Ba4 3.315317 1_555
As13 Ba1 3.472342 1_555
As14 Ba10 3.249534 1_555
As14 Ba12 3.277599 1_555
As14 Ba5 3.315317 1_555
As14 Ba2 3.472342 1_555
As15 Ba7 3.249534 1_555
As15 Ba13 3.277599 1_455
As15 Ba0 3.315317 1_565
As15 Ba3 3.472342 1_555
As16 Ba8 3.249535 1_555
As16 Ba13 3.277599 1_545
As16 Ba1 3.315317 1_556
As16 Ba4 3.472342 1_555
As17 Ba6 3.249534 1_555
As17 Ba13 3.277599 1_554
As17 Ba2 3.315316 1_655
As17 Ba5 3.472342 1_555
As18 Ba5 3.249534 1_555
As18 Ba14 3.277599 1_555
As18 Ba9 3.315316 1_555
As18 Ba6 3.472342 1_555
As19 Ba3 3.249535 1_555
As19 Ba14 3.277599 1_555
As19 Ba10 3.315317 1_555
As19 Ba7 3.472342 1_555
As20 Ba4 3.249534 1_555
As20 Ba14 3.277599 1_555
As20 Ba11 3.315317 1_555
As20 Ba8 3.472342 1_555
As21 Ba1 3.249534 1_555
As21 Ba15 3.277599 1_655
As21 Ba6 3.315317 1_545
As21 Ba9 3.472342 1_555
As22 Ba2 3.249535 1_555
As22 Ba15 3.277599 1_565
As22 Ba7 3.315317 1_554
As22 Ba10 3.472342 1_555
As23 Ba0 3.249534 1_555
As23 Ba15 3.277599 1_556
As23 Ba8 3.315316 1_455
As23 Ba11 3.472342 1_555
As24 Ba5 3.497622 1_555
As24 Ba6 3.497622 1_555
As24 Ba10 3.529080 1_555
As24 Ba1 3.529080 1_565
As25 Ba3 3.497622 1_555
As25 Ba7 3.497622 1_555
As25 Ba2 3.529080 1_556
As25 Ba11 3.529080 1_555
As26 Ba8 3.497622 1_555
As26 Ba4 3.497622 1_555
As26 Ba9 3.529080 1_555
As26 Ba0 3.529080 1_655
As27 Ba9 3.497622 1_555
As27 Ba1 3.497622 1_555
As27 Ba8 3.529080 1_554
As27 Ba5 3.529080 1_555
As28 Ba2 3.497622 1_555
As28 Ba10 3.497622 1_555
As28 Ba3 3.529080 1_555
As28 Ba6 3.529080 1_455
As29 Ba0 3.497622 1_555
As29 Ba11 3.497622 1_555
As29 Ba4 3.529080 1_555
As29 Ba7 3.529080 1_545
