# generated using pymatgen
data_Ag4Sn2(HgSe3)3
_symmetry_space_group_name_H-M   'P 1'
_cell_length_a   7.57629700
_cell_length_b   7.58815512
_cell_length_c   10.69821618
_cell_angle_alpha   90.10087493
_cell_angle_beta   90.58399430
_cell_angle_gamma   119.77490420
_symmetry_Int_Tables_number   1
_chemical_formula_structural   Ag4Sn2(HgSe3)3
_chemical_formula_sum   'Ag4 Sn2 Hg3 Se9'
_cell_volume   533.80154654
_cell_formula_units_Z   1
loop_
 _symmetry_equiv_pos_site_id
 _symmetry_equiv_pos_as_xyz
  1  'x, y, z'
loop_
 _atom_site_type_symbol
 _atom_site_label
 _atom_site_symmetry_multiplicity
 _atom_site_fract_x
 _atom_site_fract_y
 _atom_site_fract_z
 _atom_site_occupancy
  Ag  Ag0  1  0.68197900  0.67570400  0.90199800  1
  Ag  Ag1  1  0.68800200  0.34419900  0.23859700  1
  Ag  Ag2  1  0.01120100  0.67878800  0.57949600  1
  Ag  Ag3  1  0.67859800  0.01059600  0.57930000  1
  Sn  Sn0  1  0.00807800  0.00635800  0.24189600  1
  Sn  Sn1  1  0.34673100  0.34668500  0.58776400  1
  Hg  Hg0  1  0.36592500  0.02052600  0.91374300  1
  Hg  Hg1  1  0.00586800  0.35702800  0.91420900  1
  Hg  Hg2  1  0.34575900  0.70108800  0.23001400  1
  Se  Se0  1  0.67363600  0.67316100  0.65340600  1
  Se  Se1  1  0.34398000  0.33812800  0.33203200  1
  Se  Se2  1  0.01046700  0.00922700  0.99870900  1
  Se  Se3  1  0.35693500  0.67842100  0.98523700  1
  Se  Se4  1  0.69403900  0.01801500  0.32844100  1
  Se  Se5  1  0.01752300  0.34561500  0.65527800  1
  Se  Se6  1  0.34575400  0.01742200  0.65484900  1
  Se  Se7  1  0.67993800  0.35666300  0.99493400  1
  Se  Se8  1  0.00958700  0.68637600  0.32810000  1
loop_
_geom_bond_atom_site_label_1
_geom_bond_atom_site_label_2
_geom_bond_distance
_geom_bond_site_symmetry_2
Ag0 Se7 2.611761 1_555
Ag0 Se3 2.636862 1_555
Ag0 Se0 2.659406 1_555
Ag0 Se2 2.711450 1_665
Ag1 Se7 2.609834 1_554
Ag1 Se4 2.678087 1_555
Ag1 Se8 2.693587 1_655
Ag1 Se1 2.780055 1_555
Ag2 Se0 2.664712 1_455
Ag2 Se6 2.675747 1_565
Ag2 Se5 2.679162 1_555
Ag2 Se8 2.690240 1_555
Ag3 Se0 2.664265 1_545
Ag3 Se5 2.680258 1_655
Ag3 Se6 2.680701 1_555
Ag3 Se4 2.686955 1_555
Hg0 Se7 2.616006 1_555
Hg0 Se3 2.676010 1_545
Hg0 Se6 2.771775 1_555
Hg0 Se2 2.811939 1_555
Hg1 Se7 2.623009 1_455
Hg1 Se3 2.666337 1_555
Hg1 Se5 2.774975 1_555
Hg1 Se2 2.807619 1_555
Hg2 Se3 2.628997 1_554
Hg2 Se8 2.715324 1_555
Hg2 Se4 2.736210 1_565
Hg2 Se1 2.958205 1_555
Se0 Sn1 2.574704 1_555
Se1 Sn0 2.706014 1_555
Se1 Sn1 2.736154 1_555
Se2 Sn0 2.601969 1_556
Se4 Sn0 2.603758 1_655
Se5 Sn1 2.599867 1_555
Se6 Sn1 2.597245 1_555
Se8 Sn0 2.604115 1_565
