# generated using pymatgen
data_In2CuAgSe4
_symmetry_space_group_name_H-M   'P 1'
_cell_length_a   7.33068403
_cell_length_b   7.33068403
_cell_length_c   7.33068403
_cell_angle_alpha   131.30871689
_cell_angle_beta   131.30871689
_cell_angle_gamma   71.32304943
_symmetry_Int_Tables_number   1
_chemical_formula_structural   In2CuAgSe4
_chemical_formula_sum   'In2 Cu1 Ag1 Se4'
_cell_volume   217.57269426
_cell_formula_units_Z   1
loop_
 _symmetry_equiv_pos_site_id
 _symmetry_equiv_pos_as_xyz
  1  'x, y, z'
loop_
 _atom_site_type_symbol
 _atom_site_label
 _atom_site_symmetry_multiplicity
 _atom_site_fract_x
 _atom_site_fract_y
 _atom_site_fract_z
 _atom_site_occupancy
  In  In0  1  0.75000000  0.25000000  0.50000000  1
  In  In1  1  0.50000000  0.50000000  0.00000000  1
  Cu  Cu0  1  0.00000000  0.00000000  0.00000000  1
  Ag  Ag0  1  0.25000000  0.75000000  0.50000000  1
  Se  Se0  1  0.11700900  0.11817800  0.47145700  1
  Se  Se1  1  0.64672100  0.64555200  0.52854300  1
  Se  Se2  1  0.35444800  0.88299100  0.00117000  1
  Se  Se3  1  0.88182200  0.35327900  0.99883000  1
loop_
_geom_bond_atom_site_label_1
_geom_bond_atom_site_label_2
_geom_bond_distance
_geom_bond_site_symmetry_2
In0 Se3 2.650869 1_555
In0 Se0 2.650875 1_655
In0 Se1 2.650875 1_555
In0 Se2 2.650876 1_545
In1 Se2 2.661345 1_555
In1 Se0 2.661348 1_554
In1 Se1 2.661348 1_555
In1 Se3 2.661351 1_554
Cu0 Se2 2.457658 1_545
Cu0 Se1 2.457661 1_444
Cu0 Se0 2.457661 1_555
Cu0 Se3 2.457664 1_454
Ag0 Se3 2.658918 1_454
Ag0 Se0 2.658918 1_565
Ag0 Se1 2.658918 1_555
Ag0 Se2 2.658925 1_556
