# generated using pymatgen
data_CsMg14Cr
_symmetry_space_group_name_H-M   'P 1'
_cell_length_a   6.51890856
_cell_length_b   6.49885209
_cell_length_c   10.72588076
_cell_angle_alpha   90.00000000
_cell_angle_beta   90.00000000
_cell_angle_gamma   119.89828253
_symmetry_Int_Tables_number   1
_chemical_formula_structural   CsMg14Cr
_chemical_formula_sum   'Cs1 Mg14 Cr1'
_cell_volume   393.93028193
_cell_formula_units_Z   1
loop_
 _symmetry_equiv_pos_site_id
 _symmetry_equiv_pos_as_xyz
  1  'x, y, z'
loop_
 _atom_site_type_symbol
 _atom_site_label
 _atom_site_symmetry_multiplicity
 _atom_site_fract_x
 _atom_site_fract_y
 _atom_site_fract_z
 _atom_site_occupancy
  Cs  Cs0  1  0.16306577  0.33153238  0.12500000  1
  Mg  Mg0  1  0.16728618  0.33364259  0.62500000  1
  Mg  Mg1  1  0.16317053  0.83158476  0.62500000  1
  Mg  Mg2  1  0.66218715  0.32767226  0.12500000  1
  Mg  Mg3  1  0.66672158  0.33642514  0.62500000  1
  Mg  Mg4  1  0.66218715  0.83451389  0.12500000  1
  Mg  Mg5  1  0.66672158  0.83029544  0.62500000  1
  Mg  Mg6  1  0.33887920  0.15922373  0.38900907  1
  Mg  Mg7  1  0.33887920  0.15922373  0.86099093  1
  Mg  Mg8  1  0.33887920  0.67965647  0.38900907  1
  Mg  Mg9  1  0.33887920  0.67965647  0.86099093  1
  Mg  Mg10  1  0.82234834  0.16117467  0.39456685  1
  Mg  Mg11  1  0.82234834  0.16117467  0.85543315  1
  Mg  Mg12  1  0.83770369  0.66885235  0.36671939  1
  Mg  Mg13  1  0.83770369  0.66885235  0.88328061  1
  Cr  Cr0  1  0.17303922  0.83651911  0.12500000  1
loop_
_geom_bond_atom_site_label_1
_geom_bond_atom_site_label_2
_geom_bond_distance
_geom_bond_site_symmetry_2
Cs0 Mg4 3.252750 1_445
Cs0 Mg2 3.252750 1_455
Cs0 Mg4 3.266303 1_555
Cs0 Mg2 3.266304 1_555
Cs0 Mg7 3.444665 1_554
Cs0 Mg6 3.444665 1_555
Cs0 Mg9 3.444671 1_554
Cs0 Mg8 3.444671 1_555
Cs0 Mg11 3.473819 1_454
Cs0 Mg10 3.473819 1_455
Mg0 Mg10 3.147821 1_455
Mg0 Mg11 3.147821 1_455
Mg0 Mg6 3.194874 1_555
Mg0 Mg7 3.194874 1_555
Mg0 Mg8 3.194881 1_555
Mg0 Mg9 3.194881 1_555
Mg0 Mg5 3.246797 1_555
Mg0 Mg3 3.246798 1_555
Mg0 Mg1 3.249509 1_555
Mg0 Mg1 3.249509 1_545
Mg0 Mg5 3.272186 1_445
Mg0 Mg3 3.272186 1_455
Mg1 Mg8 3.133909 1_555
Mg1 Mg9 3.133909 1_555
Mg1 Mg6 3.133915 1_565
Mg1 Mg7 3.133915 1_565
Mg1 Mg3 3.232137 1_455
Mg1 Mg5 3.232137 1_455
Mg1 Mg3 3.286788 1_565
Mg1 Mg5 3.286788 1_555
Mg1 Mg12 3.325293 1_455
Mg1 Mg13 3.325293 1_455
Mg2 Mg4 3.204963 1_545
Mg2 Mg4 3.293889 1_555
Mg2 Mg7 3.370311 1_554
Mg2 Mg6 3.370311 1_555
Mg3 Mg6 3.138013 1_555
Mg3 Mg7 3.138013 1_555
Mg3 Mg5 3.209590 1_555
Mg3 Mg5 3.289262 1_545
Mg4 Mg9 3.370311 1_554
Mg4 Mg8 3.370311 1_555
Mg5 Mg8 3.138014 1_555
Mg5 Mg9 3.138014 1_555
Mg6 Mg8 3.116637 1_545
Mg6 Mg8 3.382215 1_555
Mg7 Mg9 3.116637 1_545
Mg7 Mg9 3.382215 1_555
Mg10 Mg3 3.096305 1_555
Mg10 Mg5 3.096312 1_545
Mg10 Mg8 3.145955 1_545
Mg10 Mg6 3.145955 1_555
Mg10 Mg12 3.264279 1_545
Mg10 Mg12 3.264279 1_555
Mg10 Mg8 3.374082 1_655
Mg10 Mg6 3.374082 1_655
Mg10 Mg2 3.427394 1_555
Mg10 Mg4 3.427400 1_545
Mg11 Mg3 3.096305 1_555
Mg11 Mg5 3.096312 1_545
Mg11 Mg9 3.145955 1_545
Mg11 Mg7 3.145955 1_555
Mg11 Mg13 3.264279 1_545
Mg11 Mg13 3.264279 1_555
Mg11 Mg9 3.374082 1_655
Mg11 Mg7 3.374082 1_655
Mg11 Mg2 3.427394 1_556
Mg11 Mg4 3.427400 1_546
Mg12 Mg4 3.227711 1_555
Mg12 Mg2 3.227718 1_555
Mg12 Mg6 3.241519 1_665
Mg12 Mg8 3.241520 1_655
Mg12 Mg6 3.296036 1_555
Mg12 Mg8 3.296036 1_555
Mg12 Mg5 3.344177 1_555
Mg12 Mg3 3.344184 1_555
Mg13 Mg4 3.227711 1_556
Mg13 Mg2 3.227718 1_556
Mg13 Mg7 3.241519 1_665
Mg13 Mg9 3.241520 1_655
Mg13 Mg7 3.296036 1_555
Mg13 Mg9 3.296036 1_555
Mg13 Mg5 3.344177 1_555
Mg13 Mg3 3.344184 1_555
Cr0 Mg2 3.195226 1_565
Cr0 Mg4 3.195226 1_555
Cr0 Mg13 3.211419 1_454
Cr0 Mg12 3.211419 1_455
Cr0 Cs0 3.249915 1_565
Cr0 Cs0 3.249915 1_555
Cr0 Mg2 3.323721 1_455
Cr0 Mg4 3.323721 1_455
Cr0 Mg9 3.365323 1_554
Cr0 Mg8 3.365323 1_555
Cr0 Mg7 3.365329 1_564
Cr0 Mg6 3.365329 1_565
