# generated using pymatgen
data_Cr3NiSn8
_symmetry_space_group_name_H-M   'P 1'
_cell_length_a   5.47964100
_cell_length_b   5.52463006
_cell_length_c   9.36537759
_cell_angle_alpha   90.00000000
_cell_angle_beta   90.00000000
_cell_angle_gamma   119.73097744
_symmetry_Int_Tables_number   1
_chemical_formula_structural   Cr3NiSn8
_chemical_formula_sum   'Cr3 Ni1 Sn8'
_cell_volume   246.19666605
_cell_formula_units_Z   1
loop_
 _symmetry_equiv_pos_site_id
 _symmetry_equiv_pos_as_xyz
  1  'x, y, z'
loop_
 _atom_site_type_symbol
 _atom_site_label
 _atom_site_symmetry_multiplicity
 _atom_site_fract_x
 _atom_site_fract_y
 _atom_site_fract_z
 _atom_site_occupancy
  Cr  Cr0  1  0.25000000  0.00000000  0.50000000  1
  Cr  Cr1  1  0.25000000  0.00000000  0.00000000  1
  Cr  Cr2  1  0.75000000  0.00000000  0.50000000  1
  Ni  Ni0  1  0.75000000  0.00000000  0.00000000  1
  Sn  Sn0  1  0.25000000  0.50000000  0.41204500  1
  Sn  Sn1  1  0.75000000  0.50000000  0.91581300  1
  Sn  Sn2  1  0.25000000  0.50000000  0.08418700  1
  Sn  Sn3  1  0.75000000  0.50000000  0.58795500  1
  Sn  Sn4  1  0.91217900  0.82430200  0.24802800  1
  Sn  Sn5  1  0.41212300  0.82430200  0.75197200  1
  Sn  Sn6  1  0.58782100  0.17569800  0.24802800  1
  Sn  Sn7  1  0.08787700  0.17569800  0.75197200  1
loop_
_geom_bond_atom_site_label_1
_geom_bond_atom_site_label_2
_geom_bond_distance
_geom_bond_site_symmetry_2
Cr0 Cr2 2.739820 1_455
Cr0 Cr2 2.739820 1_555
Cr0 Sn5 2.855769 1_545
Cr0 Sn7 2.855769 1_555
Cr0 Sn6 2.855769 1_555
Cr0 Sn4 2.855769 1_445
Cr0 Sn0 2.882519 1_555
Cr0 Sn0 2.882519 1_545
Cr0 Sn3 2.882520 1_445
Cr0 Sn3 2.882520 1_555
Cr1 Ni0 2.739820 1_555
Cr1 Ni0 2.739820 1_455
Cr1 Sn5 2.825323 1_544
Cr1 Sn7 2.825323 1_554
Cr1 Sn6 2.825323 1_555
Cr1 Sn4 2.825323 1_445
Cr1 Sn2 2.872634 1_555
Cr1 Sn2 2.872634 1_545
Cr1 Sn1 2.872634 1_444
Cr1 Sn1 2.872634 1_554
Cr2 Sn4 2.855916 1_545
Cr2 Sn6 2.855916 1_555
Cr2 Sn7 2.855916 1_655
Cr2 Sn5 2.855916 1_545
Cr2 Sn3 2.882519 1_545
Cr2 Sn3 2.882519 1_555
Cr2 Sn0 2.882520 1_655
Cr2 Sn0 2.882520 1_545
Ni0 Sn4 2.825472 1_545
Ni0 Sn6 2.825472 1_555
Ni0 Sn7 2.825472 1_654
Ni0 Sn5 2.825472 1_544
Ni0 Sn1 2.872634 1_554
Ni0 Sn1 2.872634 1_544
Ni0 Sn2 2.872634 1_545
Ni0 Sn2 2.872634 1_655
Sn0 Sn2 3.070514 1_555
Sn0 Sn3 3.196991 1_555
Sn0 Sn3 3.196991 1_455
Sn1 Sn3 3.070514 1_555
Sn1 Sn2 3.161200 1_656
Sn1 Sn2 3.161200 1_556
Sn4 Sn6 3.111605 1_555
Sn4 Sn6 3.216644 1_665
Sn4 Sn6 3.217166 1_565
Sn5 Sn7 3.111605 1_555
Sn5 Sn7 3.216644 1_565
Sn5 Sn7 3.217167 1_665
