# generated using pymatgen
data_K2Re3TeC3(SN)3
_symmetry_space_group_name_H-M   'P 1'
_cell_length_a   15.35969314
_cell_length_b   15.35969314
_cell_length_c   15.35969314
_cell_angle_alpha   109.47122063
_cell_angle_beta   109.47122063
_cell_angle_gamma   109.47122063
_symmetry_Int_Tables_number   1
_chemical_formula_structural   K2Re3TeC3(SN)3
_chemical_formula_sum   'K16 Re24 Te8 C24 S24 N24'
_cell_volume   2789.49589977
_cell_formula_units_Z   8
loop_
 _symmetry_equiv_pos_site_id
 _symmetry_equiv_pos_as_xyz
  1  'x, y, z'
loop_
 _atom_site_type_symbol
 _atom_site_label
 _atom_site_symmetry_multiplicity
 _atom_site_fract_x
 _atom_site_fract_y
 _atom_site_fract_z
 _atom_site_occupancy
  K  K0  1  0.00000000  0.00000000  -0.00000000  1
  K  K1  1  0.50000000  0.00000000  0.50000000  1
  K  K2  1  0.50000000  0.50000000  -0.00000000  1
  K  K3  1  0.00000000  0.50000000  0.50000000  1
  K  K4  1  0.55682482  0.30682482  0.75000000  1
  K  K5  1  0.44317518  0.69317518  0.25000000  1
  K  K6  1  0.94317518  0.19317518  0.25000000  1
  K  K7  1  0.30682482  0.75000000  0.55682482  1
  K  K8  1  0.05682482  0.80682482  0.75000000  1
  K  K9  1  0.69317518  0.25000000  0.44317518  1
  K  K10  1  0.19317518  0.25000000  0.94317518  1
  K  K11  1  0.80682482  0.75000000  0.05682482  1
  K  K12  1  0.75000000  0.55682482  0.30682482  1
  K  K13  1  0.25000000  0.44317518  0.69317518  1
  K  K14  1  0.25000000  0.94317518  0.19317518  1
  K  K15  1  0.75000000  0.05682482  0.80682482  1
  Re  Re0  1  0.64060996  0.53979797  0.52988003  1
  Re  Re1  1  0.35939004  0.46020203  0.47011997  1
  Re  Re2  1  0.85939004  0.88927007  0.39918801  1
  Re  Re3  1  0.49008206  0.96020203  0.10081199  1
  Re  Re4  1  0.53979797  0.52988003  0.64060996  1
  Re  Re5  1  0.14060996  0.11072993  0.60081199  1
  Re  Re6  1  0.50991794  0.03979797  0.89918801  1
  Re  Re7  1  0.46020203  0.47011997  0.35939004  1
  Re  Re8  1  0.00991794  0.61072993  0.97011997  1
  Re  Re9  1  0.88927007  0.39918801  0.85939004  1
  Re  Re10  1  0.99008206  0.38927007  0.02988003  1
  Re  Re11  1  0.11072993  0.60081199  0.14060996  1
  Re  Re12  1  0.96020203  0.10081199  0.49008206  1
  Re  Re13  1  0.03979797  0.89918801  0.50991794  1
  Re  Re14  1  0.61072993  0.97011997  0.00991794  1
  Re  Re15  1  0.38927007  0.02988003  0.99008206  1
  Re  Re16  1  0.52988003  0.64060996  0.53979797  1
  Re  Re17  1  0.47011997  0.35939004  0.46020203  1
  Re  Re18  1  0.10081199  0.49008206  0.96020203  1
  Re  Re19  1  0.89918801  0.50991794  0.03979797  1
  Re  Re20  1  0.97011997  0.00991794  0.61072993  1
  Re  Re21  1  0.02988003  0.99008206  0.38927007  1
  Re  Re22  1  0.39918801  0.85939004  0.88927007  1
  Re  Re23  1  0.60081199  0.14060996  0.11072993  1
  Te  Te0  1  0.71725511  0.71725511  0.71725511  1
  Te  Te1  1  0.28274489  0.28274489  0.28274489  1
  Te  Te2  1  0.78274489  -0.00000000  0.50000000  1
  Te  Te3  1  0.50000000  0.78274489  -0.00000000  1
  Te  Te4  1  0.21725511  0.00000000  0.50000000  1
  Te  Te5  1  0.50000000  0.21725511  -0.00000000  1
  Te  Te6  1  0.00000000  0.50000000  0.78274489  1
  Te  Te7  1  -0.00000000  0.50000000  0.21725511  1
  C  C0  1  0.79523850  0.57650435  0.56095465  1
  C  C1  1  0.20476150  0.42349565  0.43904535  1
  C  C2  1  0.70476150  0.76571614  0.28126585  1
  C  C3  1  0.48445030  0.92349565  0.21873415  1
  C  C4  1  0.57650435  0.56095465  0.79523850  1
  C  C5  1  0.29523850  0.23428386  0.71873415  1
  C  C6  1  0.51554970  0.07650435  0.78126585  1
  C  C7  1  0.42349565  0.43904535  0.20476150  1
  C  C8  1  0.01554970  0.73428386  0.93904535  1
  C  C9  1  0.76571614  0.28126585  0.70476150  1
  C  C10  1  0.98445030  0.26571614  0.06095465  1
  C  C11  1  0.23428386  0.71873415  0.29523850  1
  C  C12  1  0.92349565  0.21873415  0.48445030  1
  C  C13  1  0.07650435  0.78126585  0.51554970  1
  C  C14  1  0.73428386  0.93904535  0.01554970  1
  C  C15  1  0.26571614  0.06095465  0.98445030  1
  C  C16  1  0.56095465  0.79523850  0.57650435  1
  C  C17  1  0.43904535  0.20476150  0.42349565  1
  C  C18  1  0.21873415  0.48445030  0.92349565  1
  C  C19  1  0.78126585  0.51554970  0.07650435  1
  C  C20  1  0.93904535  0.01554970  0.73428386  1
  C  C21  1  0.06095465  0.98445030  0.26571614  1
  C  C22  1  0.28126585  0.70476150  0.76571614  1
  C  C23  1  0.71873415  0.29523850  0.23428386  1
  S  S0  1  0.61895458  0.63752984  0.43604065  1
  S  S1  1  0.38104542  0.36247016  0.56395935  1
  S  S2  1  0.88104542  0.81708608  0.51857527  1
  S  S3  1  0.29851081  0.86247016  0.98142473  1
  S  S4  1  0.63752984  0.43604065  0.61895458  1
  S  S5  1  0.11895458  0.18291392  0.48142473  1
  S  S6  1  0.70148919  0.13752984  0.01857527  1
  S  S7  1  0.36247016  0.56395935  0.38104542  1
  S  S8  1  0.20148919  0.68291392  0.06395935  1
  S  S9  1  0.81708608  0.51857527  0.88104542  1
  S  S10  1  0.79851081  0.31708608  0.93604065  1
  S  S11  1  0.18291392  0.48142473  0.11895458  1
  S  S12  1  0.86247016  0.98142473  0.29851081  1
  S  S13  1  0.13752984  0.01857527  0.70148919  1
  S  S14  1  0.68291392  0.06395935  0.20148919  1
  S  S15  1  0.31708608  0.93604065  0.79851081  1
  S  S16  1  0.43604065  0.61895458  0.63752984  1
  S  S17  1  0.56395935  0.38104542  0.36247016  1
  S  S18  1  0.98142473  0.29851081  0.86247016  1
  S  S19  1  0.01857527  0.70148919  0.13752984  1
  S  S20  1  0.06395935  0.20148919  0.68291392  1
  S  S21  1  0.93604065  0.79851081  0.31708608  1
  S  S22  1  0.51857527  0.88104542  0.81708608  1
  S  S23  1  0.48142473  0.11895458  0.18291392  1
  N  N0  1  0.88196659  0.59470476  0.57834233  1
  N  N1  1  0.11803341  0.40529524  0.42165767  1
  N  N2  1  0.61803341  0.69637575  0.21273817  1
  N  N3  1  0.48363758  0.90529524  0.28726183  1
  N  N4  1  0.59470476  0.57834233  0.88196659  1
  N  N5  1  0.38196659  0.30362425  0.78726183  1
  N  N6  1  0.51636242  0.09470476  0.71273817  1
  N  N7  1  0.40529524  0.42165767  0.11803341  1
  N  N8  1  0.01636242  0.80362425  0.92165767  1
  N  N9  1  0.69637575  0.21273817  0.61803341  1
  N  N10  1  0.98363758  0.19637575  0.07834233  1
  N  N11  1  0.30362425  0.78726183  0.38196659  1
  N  N12  1  0.90529524  0.28726183  0.48363758  1
  N  N13  1  0.09470476  0.71273817  0.51636242  1
  N  N14  1  0.80362425  0.92165767  0.01636242  1
  N  N15  1  0.19637575  0.07834233  0.98363758  1
  N  N16  1  0.57834233  0.88196659  0.59470476  1
  N  N17  1  0.42165767  0.11803341  0.40529524  1
  N  N18  1  0.28726183  0.48363758  0.90529524  1
  N  N19  1  0.71273817  0.51636242  0.09470476  1
  N  N20  1  0.92165767  0.01636242  0.80362425  1
  N  N21  1  0.07834233  0.98363758  0.19637575  1
  N  N22  1  0.21273817  0.61803341  0.69637575  1
  N  N23  1  0.78726183  0.38196659  0.30362425  1
loop_
_geom_bond_atom_site_label_1
_geom_bond_atom_site_label_2
_geom_bond_distance
_geom_bond_site_symmetry_2
K0 N20 2.982670 1_454
K0 N14 2.982670 1_445
K0 N8 2.982670 1_544
K0 N15 2.982670 1_554
K0 N10 2.982670 1_455
K0 N21 2.982670 1_545
K1 N17 2.982670 1_555
K1 N16 2.982670 1_545
K1 N6 2.982670 1_555
K1 N11 2.982670 1_545
K1 N9 2.982670 1_555
K1 N3 2.982670 1_545
K2 N7 2.982670 1_555
K2 N4 2.982670 1_554
K2 N2 2.982670 1_555
K2 N19 2.982670 1_555
K2 N5 2.982670 1_554
K2 N18 2.982670 1_554
K3 N1 2.982670 1_555
K3 N0 2.982670 1_455
K3 N22 2.982670 1_555
K3 N23 2.982670 1_455
K3 N13 2.982670 1_555
K3 N12 2.982670 1_455
K4 N6 2.915276 1_555
K4 N5 2.915276 1_555
K5 N3 2.915276 1_555
K5 N2 2.915276 1_555
K6 N1 2.915276 1_655
K6 N10 2.915276 1_555
K7 N13 2.915276 1_555
K7 N11 2.915276 1_555
K8 N0 2.915276 1_455
K8 N8 2.915276 1_555
K9 N12 2.915276 1_555
K9 N9 2.915276 1_555
K10 N7 2.915276 1_556
K10 N15 2.915276 1_555
K11 N4 2.915276 1_554
K11 N14 2.915276 1_555
K12 N19 2.915276 1_555
K12 N23 2.915276 1_555
K13 N18 2.915276 1_555
K13 N22 2.915276 1_555
K14 N17 2.915276 1_565
K14 N21 2.915276 1_555
K15 N16 2.915276 1_545
K15 N20 2.915276 1_555
Re0 S17 2.414888 1_555
Re0 S4 2.420827 1_555
Re0 S0 2.428414 1_555
Re0 Te0 2.733241 1_555
Re1 S16 2.414888 1_555
Re1 S7 2.420827 1_555
Re1 S1 2.428414 1_555
Re1 Te1 2.733241 1_555
Re2 S21 2.414888 1_555
Re2 S12 2.420827 1_555
Re2 S2 2.428414 1_555
Re2 Te2 2.733241 1_565
Re3 S23 2.414888 1_565
Re3 S14 2.420827 1_565
Re3 S3 2.428414 1_554
Re3 Te3 2.733241 1_555
Re4 S1 2.414888 1_555
Re4 S16 2.420827 1_555
Re4 S4 2.428414 1_555
Re4 Te0 2.733241 1_555
Re5 S20 2.414888 1_555
Re5 S13 2.420827 1_555
Re5 S5 2.428414 1_555
Re5 Te4 2.733241 1_555
Re6 S22 2.414888 1_545
Re6 S15 2.420827 1_545
Re6 S6 2.428414 1_556
Re6 Te5 2.733241 1_556
Re7 S0 2.414888 1_555
Re7 S17 2.420827 1_555
Re7 S7 2.428414 1_555
Re7 Te1 2.733241 1_555
Re8 S19 2.414888 1_556
Re8 S9 2.420827 1_455
Re8 S8 2.428414 1_556
Re8 Te6 2.733241 1_555
Re9 S10 2.414888 1_555
Re9 S18 2.420827 1_555
Re9 S9 2.428414 1_555
Re9 Te6 2.733241 1_655
Re10 S18 2.414888 1_554
Re10 S11 2.420827 1_655
Re10 S10 2.428414 1_554
Re10 Te7 2.733241 1_655
Re11 S8 2.414888 1_555
Re11 S19 2.420827 1_555
Re11 S11 2.428414 1_555
Re11 Te7 2.733241 1_555
Re12 S5 2.414888 1_655
Re12 S20 2.420827 1_655
Re12 S12 2.428414 1_545
Re12 Te2 2.733241 1_555
Re13 S2 2.414888 1_455
Re13 S21 2.420827 1_455
Re13 S13 2.428414 1_565
Re13 Te4 2.733241 1_565
Re14 S6 2.414888 1_565
Re14 S22 2.420827 1_554
Re14 S14 2.428414 1_565
Re14 Te3 2.733241 1_555
Re15 S3 2.414888 1_545
Re15 S23 2.420827 1_556
Re15 S15 2.428414 1_545
Re15 Te5 2.733241 1_556
Re16 S7 2.414888 1_555
Re16 S0 2.420827 1_555
Re16 S16 2.428414 1_555
Re16 Te0 2.733241 1_555
Re17 S4 2.414888 1_555
Re17 S1 2.420827 1_555
Re17 S17 2.428414 1_555
Re17 Te1 2.733241 1_555
Re18 S11 2.414888 1_556
Re18 S8 2.420827 1_556
Re18 S18 2.428414 1_455
Re18 Te6 2.733241 1_555
Re19 S9 2.414888 1_554
Re19 S10 2.420827 1_554
Re19 S19 2.428414 1_655
Re19 Te7 2.733241 1_655
Re20 S13 2.414888 1_655
Re20 S2 2.420827 1_545
Re20 S20 2.428414 1_655
Re20 Te2 2.733241 1_555
Re21 S12 2.414888 1_455
Re21 S5 2.420827 1_565
Re21 S21 2.428414 1_455
Re21 Te4 2.733241 1_565
Re22 S15 2.414888 1_555
Re22 S3 2.420827 1_555
Re22 S22 2.428414 1_555
Re22 Te3 2.733241 1_556
Re23 S14 2.414888 1_555
Re23 S6 2.420827 1_555
Re23 S23 2.428414 1_555
Re23 Te5 2.733241 1_555
C0 N0 1.178471 1_555
C0 Re0 2.087749 1_555
C1 N1 1.178471 1_555
C1 Re1 2.087749 1_555
C2 N2 1.178471 1_555
C2 Re2 2.087749 1_555
C3 N3 1.178471 1_555
C3 Re3 2.087749 1_555
C4 N4 1.178471 1_555
C4 Re4 2.087749 1_555
C5 N5 1.178471 1_555
C5 Re5 2.087749 1_555
C6 N6 1.178471 1_555
C6 Re6 2.087749 1_555
C7 N7 1.178471 1_555
C7 Re7 2.087749 1_555
C8 N8 1.178471 1_555
C8 Re8 2.087749 1_555
C9 N9 1.178471 1_555
C9 Re9 2.087749 1_555
C10 N10 1.178471 1_555
C10 Re10 2.087749 1_555
C11 N11 1.178471 1_555
C11 Re11 2.087749 1_555
C12 N12 1.178471 1_555
C12 Re12 2.087749 1_555
C13 N13 1.178471 1_555
C13 Re13 2.087749 1_555
C14 N14 1.178471 1_555
C14 Re14 2.087749 1_555
C15 N15 1.178471 1_555
C15 Re15 2.087749 1_555
C16 N16 1.178471 1_555
C16 Re16 2.087749 1_555
C17 N17 1.178471 1_555
C17 Re17 2.087749 1_555
C18 N18 1.178471 1_555
C18 Re18 2.087749 1_555
C19 N19 1.178471 1_555
C19 Re19 2.087749 1_555
C20 N20 1.178471 1_555
C20 Re20 2.087749 1_555
C21 N21 1.178471 1_555
C21 Re21 2.087749 1_555
C22 N22 1.178471 1_555
C22 Re22 2.087749 1_555
C23 N23 1.178471 1_555
C23 Re23 2.087749 1_555
