# generated using pymatgen
data_CeSe2
_symmetry_space_group_name_H-M   'P 1'
_cell_length_a   7.51553082
_cell_length_b   17.62942712
_cell_length_c   17.62942712
_cell_angle_alpha   90.00000000
_cell_angle_beta   90.00000000
_cell_angle_gamma   90.00000000
_symmetry_Int_Tables_number   1
_chemical_formula_structural   CeSe2
_chemical_formula_sum   'Ce16 Se32'
_cell_volume   2335.80218196
_cell_formula_units_Z   16
loop_
 _symmetry_equiv_pos_site_id
 _symmetry_equiv_pos_as_xyz
  1  'x, y, z'
loop_
 _atom_site_type_symbol
 _atom_site_label
 _atom_site_symmetry_multiplicity
 _atom_site_fract_x
 _atom_site_fract_y
 _atom_site_fract_z
 _atom_site_occupancy
  Ce  Ce0  1  0.72373250  0.71076419  0.40152989  1
  Ce  Ce1  1  0.72373250  0.28923581  0.59847011  1
  Ce  Ce2  1  0.77626750  0.21076419  0.90152989  1
  Ce  Ce3  1  0.77626750  0.78923581  0.09847011  1
  Ce  Ce4  1  0.27626750  0.71076419  0.59847011  1
  Ce  Ce5  1  0.27626750  0.28923581  0.40152989  1
  Ce  Ce6  1  0.22373250  0.21076419  0.09847011  1
  Ce  Ce7  1  0.22373250  0.78923581  0.90152989  1
  Ce  Ce8  1  0.72373250  0.40152989  0.28923581  1
  Ce  Ce9  1  0.72373250  0.59847011  0.71076419  1
  Ce  Ce10  1  0.77626750  0.90152989  0.78923581  1
  Ce  Ce11  1  0.77626750  0.09847011  0.21076419  1
  Ce  Ce12  1  0.27626750  0.59847011  0.28923581  1
  Ce  Ce13  1  0.27626750  0.40152989  0.71076419  1
  Ce  Ce14  1  0.22373250  0.09847011  0.78923581  1
  Ce  Ce15  1  0.22373250  0.90152989  0.21076419  1
  Se  Se0  1  0.50000000  0.59307524  0.40692476  1
  Se  Se1  1  0.50000000  0.40692476  0.59307524  1
  Se  Se2  1  -0.00000000  0.09307524  0.90692476  1
  Se  Se3  1  -0.00000000  0.90692476  0.09307524  1
  Se  Se4  1  0.50000000  0.59307524  0.59307524  1
  Se  Se5  1  0.50000000  0.40692476  0.40692476  1
  Se  Se6  1  -0.00000000  0.09307524  0.09307524  1
  Se  Se7  1  -0.00000000  0.90692476  0.90692476  1
  Se  Se8  1  -0.00000000  0.60806622  0.39193378  1
  Se  Se9  1  -0.00000000  0.39193378  0.60806622  1
  Se  Se10  1  0.50000000  0.10806622  0.89193378  1
  Se  Se11  1  0.50000000  0.89193378  0.10806622  1
  Se  Se12  1  -0.00000000  0.60806622  0.60806622  1
  Se  Se13  1  -0.00000000  0.39193378  0.39193378  1
  Se  Se14  1  0.50000000  0.10806622  0.10806622  1
  Se  Se15  1  0.50000000  0.89193378  0.89193378  1
  Se  Se16  1  0.75000000  0.75000000  0.25000000  1
  Se  Se17  1  0.75000000  0.25000000  0.75000000  1
  Se  Se18  1  0.25000000  0.75000000  0.75000000  1
  Se  Se19  1  0.25000000  0.25000000  0.25000000  1
  Se  Se20  1  0.75000000  0.25000000  0.25000000  1
  Se  Se21  1  0.75000000  0.75000000  0.75000000  1
  Se  Se22  1  0.25000000  0.75000000  0.25000000  1
  Se  Se23  1  0.25000000  0.25000000  0.75000000  1
  Se  Se24  1  0.50000000  0.79210387  0.50000000  1
  Se  Se25  1  0.50000000  0.20789613  0.50000000  1
  Se  Se26  1  -0.00000000  0.29210387  -0.00000000  1
  Se  Se27  1  -0.00000000  0.70789613  -0.00000000  1
  Se  Se28  1  0.50000000  0.50000000  0.20789613  1
  Se  Se29  1  0.50000000  0.50000000  0.79210387  1
  Se  Se30  1  -0.00000000  -0.00000000  0.70789613  1
  Se  Se31  1  -0.00000000  -0.00000000  0.29210387  1
loop_
_geom_bond_atom_site_label_1
_geom_bond_atom_site_label_2
_geom_bond_distance
_geom_bond_site_symmetry_2
Ce0 Se0 2.672289 1_555
Ce0 Se8 2.759993 1_655
Ce0 Se16 2.766537 1_555
Ce0 Se24 2.810197 1_555
Ce1 Se1 2.672289 1_555
Ce1 Se9 2.759993 1_655
Ce1 Se17 2.766537 1_555
Ce1 Se25 2.810197 1_555
Ce2 Se2 2.672289 1_655
Ce2 Se10 2.759993 1_555
Ce2 Se17 2.766537 1_555
Ce2 Se26 2.810197 1_656
Ce3 Se3 2.672289 1_655
Ce3 Se11 2.759993 1_555
Ce3 Se16 2.766537 1_555
Ce3 Se27 2.810197 1_655
Ce4 Se4 2.672289 1_555
Ce4 Se12 2.759993 1_555
Ce4 Se18 2.766537 1_555
Ce4 Se24 2.810197 1_555
Ce5 Se5 2.672289 1_555
Ce5 Se13 2.759993 1_555
Ce5 Se19 2.766537 1_555
Ce5 Se25 2.810197 1_555
Ce6 Se6 2.672289 1_555
Ce6 Se14 2.759993 1_555
Ce6 Se19 2.766537 1_555
Ce6 Se26 2.810197 1_555
Ce7 Se7 2.672289 1_555
Ce7 Se15 2.759993 1_555
Ce7 Se18 2.766537 1_555
Ce7 Se27 2.810197 1_556
Ce8 Se5 2.672289 1_555
Ce8 Se13 2.759993 1_655
Ce8 Se20 2.766537 1_555
Ce8 Se28 2.810197 1_555
Ce9 Se4 2.672289 1_555
Ce9 Se12 2.759993 1_655
Ce9 Se21 2.766537 1_555
Ce9 Se29 2.810197 1_555
Ce10 Se7 2.672289 1_655
Ce10 Se15 2.759993 1_555
Ce10 Se21 2.766537 1_555
Ce10 Se30 2.810197 1_665
Ce11 Se6 2.672289 1_655
Ce11 Se14 2.759993 1_555
Ce11 Se20 2.766537 1_555
Ce11 Se31 2.810197 1_655
Ce12 Se0 2.672289 1_555
Ce12 Se8 2.759993 1_555
Ce12 Se22 2.766537 1_555
Ce12 Se28 2.810197 1_555
Ce13 Se1 2.672289 1_555
Ce13 Se9 2.759993 1_555
Ce13 Se23 2.766537 1_555
Ce13 Se29 2.810197 1_555
Ce14 Se2 2.672289 1_555
Ce14 Se10 2.759993 1_555
Ce14 Se23 2.766537 1_555
Ce14 Se30 2.810197 1_555
Ce15 Se3 2.672289 1_555
Ce15 Se11 2.759993 1_555
Ce15 Se22 2.766537 1_555
Ce15 Se31 2.810197 1_565
