# generated using pymatgen
data_Ba2YTlCo2O7
_symmetry_space_group_name_H-M   'P 1'
_cell_length_a   3.92934703
_cell_length_b   12.60220578
_cell_length_c   3.92910098
_cell_angle_alpha   90.03125405
_cell_angle_beta   90.16618539
_cell_angle_gamma   89.94339061
_symmetry_Int_Tables_number   1
_chemical_formula_structural   Ba2YTlCo2O7
_chemical_formula_sum   'Ba2 Y1 Tl1 Co2 O7'
_cell_volume   194.56200872
_cell_formula_units_Z   1
loop_
 _symmetry_equiv_pos_site_id
 _symmetry_equiv_pos_as_xyz
  1  'x, y, z'
loop_
 _atom_site_type_symbol
 _atom_site_label
 _atom_site_symmetry_multiplicity
 _atom_site_fract_x
 _atom_site_fract_y
 _atom_site_fract_z
 _atom_site_occupancy
  Ba  Ba0  1  0.50012900  0.20802100  0.50003900  1
  Ba  Ba1  1  0.49792000  0.79263300  0.50189900  1
  Y  Y0  1  0.50034700  0.50039800  0.49968000  1
  Tl  Tl0  1  0.00178900  0.00039800  0.00047500  1
  Co  Co0  1  0.99873000  0.64185500  0.00123900  1
  Co  Co1  1  0.99985600  0.35903700  0.00000400  1
  O  O0  1  0.49940000  0.99991500  0.49798900  1
  O  O1  1  0.99985600  0.17966500  0.00015600  1
  O  O2  1  0.99990200  0.81903600  0.00010500  1
  O  O3  1  0.49962800  0.38604900  0.00030900  1
  O  O4  1  0.99968500  0.38570200  0.50040200  1
  O  O5  1  0.00014000  0.61341300  0.49778300  1
  O  O6  1  0.50261600  0.61388200  0.99991800  1
loop_
_geom_bond_atom_site_label_1
_geom_bond_atom_site_label_2
_geom_bond_distance
_geom_bond_site_symmetry_2
Ba0 O0 2.622607 1_545
Ba0 O1 2.796728 1_556
Ba0 O1 2.797809 1_455
Ba0 O1 2.803801 1_555
Ba0 O1 2.806721 1_456
Ba0 O4 2.978592 1_455
Ba0 O4 2.979203 1_555
Ba0 O3 2.982001 1_556
Ba0 O3 2.982208 1_555
Ba1 O0 2.612276 1_555
Ba1 O2 2.791442 1_456
Ba1 O2 2.793630 1_455
Ba1 O2 2.794874 1_556
Ba1 O2 2.813022 1_555
Ba1 O6 2.984670 1_555
Ba1 O5 2.989253 1_555
Ba1 O6 2.993357 1_554
Ba1 O5 2.997836 1_655
Co0 O6 1.981356 1_554
Co0 O5 1.983807 1_655
Co0 O5 2.010171 1_654
Co0 O6 2.010759 1_654
Co0 O2 2.232888 1_555
Co1 O4 1.991720 1_554
Co1 O3 1.993392 1_655
Co1 O4 1.994446 1_555
Co1 O3 1.994501 1_555
Co1 O1 2.260483 1_555
O0 Tl0 2.760829 1_565
O0 Tl0 2.782184 1_665
O0 Tl0 2.782709 1_566
O0 Tl0 2.787882 1_666
O1 Tl0 2.259166 1_655
O2 Tl0 2.285580 1_665
O3 Y0 2.433778 1_555
O3 Y0 2.439045 1_554
O4 Y0 2.435847 1_555
O4 Y0 2.442351 1_655
O5 Y0 2.426117 1_555
O5 Y0 2.427114 1_455
O6 Y0 2.429893 1_556
O6 Y0 2.430102 1_555
