# generated using pymatgen
data_ErCrTeO6
_symmetry_space_group_name_H-M   'P 1'
_cell_length_a   5.18956170
_cell_length_b   5.18959516
_cell_length_c   9.69649300
_cell_angle_alpha   89.99992221
_cell_angle_beta   90.00003721
_cell_angle_gamma   120.00020948
_symmetry_Int_Tables_number   1
_chemical_formula_structural   ErCrTeO6
_chemical_formula_sum   'Er2 Cr2 Te2 O12'
_cell_volume   226.15623377
_cell_formula_units_Z   2
loop_
 _symmetry_equiv_pos_site_id
 _symmetry_equiv_pos_as_xyz
  1  'x, y, z'
loop_
 _atom_site_type_symbol
 _atom_site_label
 _atom_site_symmetry_multiplicity
 _atom_site_fract_x
 _atom_site_fract_y
 _atom_site_fract_z
 _atom_site_occupancy
  Er  Er0  1  0.00000000  0.00000000  0.00000000  1
  Er  Er1  1  0.00000000  0.00000000  0.50000000  1
  Cr  Cr0  1  0.33332400  0.66666200  0.25000000  1
  Cr  Cr1  1  0.66667600  0.33333800  0.75000000  1
  Te  Te0  1  0.33337900  0.66668900  0.75000000  1
  Te  Te1  1  0.66662100  0.33331100  0.25000000  1
  O  O0  1  0.36302900  0.35257200  0.13850200  1
  O  O1  1  0.64739300  0.01045000  0.13850200  1
  O  O2  1  0.98951700  0.63693600  0.13850200  1
  O  O3  1  0.63697100  0.64742800  0.86149800  1
  O  O4  1  0.35260700  0.98955000  0.86149800  1
  O  O5  1  0.01048300  0.36306400  0.86149800  1
  O  O6  1  0.64739300  0.63694300  0.36149800  1
  O  O7  1  0.36302900  0.01045700  0.36149800  1
  O  O8  1  0.98951700  0.35258100  0.36149800  1
  O  O9  1  0.35260700  0.36305700  0.63850200  1
  O  O10  1  0.63697100  0.98954300  0.63850200  1
  O  O11  1  0.01048300  0.64741900  0.63850200  1
loop_
_geom_bond_atom_site_label_1
_geom_bond_atom_site_label_2
_geom_bond_distance
_geom_bond_site_symmetry_2
Er0 O0 2.292079 1_555
Er0 O3 2.292079 1_444
Er0 O2 2.292181 1_445
Er0 O5 2.292181 1_554
Er0 O1 2.292211 1_455
Er0 O4 2.292211 1_544
Er1 O10 2.292079 1_445
Er1 O7 2.292079 1_555
Er1 O8 2.292181 1_455
Er1 O11 2.292181 1_545
Er1 O9 2.292211 1_555
Er1 O6 2.292211 1_445
Cr0 O6 2.024978 1_555
Cr0 O1 2.024978 1_565
Cr0 O0 2.025045 1_555
Cr0 O7 2.025045 1_565
Cr0 O2 2.025046 1_455
Cr0 O8 2.025046 1_455
Cr1 O9 2.024978 1_555
Cr1 O4 2.024978 1_545
Cr1 O3 2.025045 1_555
Cr1 O10 2.025045 1_545
Cr1 O5 2.025046 1_655
Cr1 O11 2.025046 1_655
O0 Te1 1.954115 1_555
O1 Te1 1.954224 1_555
O2 Te1 1.954280 1_555
O3 Te0 1.954115 1_555
O4 Te0 1.954224 1_555
O5 Te0 1.954280 1_555
O6 Te1 1.954220 1_555
O7 Te1 1.954117 1_555
O8 Te1 1.954282 1_555
O9 Te0 1.954220 1_555
O10 Te0 1.954117 1_555
O11 Te0 1.954282 1_555
