# generated using pymatgen
data_Ga2Sn3N4
_symmetry_space_group_name_H-M   'P 1'
_cell_length_a   6.39466600
_cell_length_b   10.82272600
_cell_length_c   8.67155300
_cell_angle_alpha   90.00000000
_cell_angle_beta   90.00000000
_cell_angle_gamma   90.00000000
_symmetry_Int_Tables_number   1
_chemical_formula_structural   Ga2Sn3N4
_chemical_formula_sum   'Ga8 Sn12 N16'
_cell_volume   600.13839447
_cell_formula_units_Z   4
loop_
 _symmetry_equiv_pos_site_id
 _symmetry_equiv_pos_as_xyz
  1  'x, y, z'
loop_
 _atom_site_type_symbol
 _atom_site_label
 _atom_site_symmetry_multiplicity
 _atom_site_fract_x
 _atom_site_fract_y
 _atom_site_fract_z
 _atom_site_occupancy
  Ga  Ga0  1  0.75000000  0.50000000  0.78882000  1
  Ga  Ga1  1  0.75000000  0.00000000  0.71118000  1
  Ga  Ga2  1  0.25000000  0.50000000  0.21118000  1
  Ga  Ga3  1  0.25000000  0.00000000  0.28882000  1
  Ga  Ga4  1  0.78911500  0.25000000  0.75000000  1
  Ga  Ga5  1  0.71088500  0.75000000  0.75000000  1
  Ga  Ga6  1  0.21088500  0.75000000  0.25000000  1
  Ga  Ga7  1  0.28911600  0.25000000  0.25000000  1
  Sn  Sn0  1  0.79212900  0.14162500  0.36894200  1
  Sn  Sn1  1  0.70787100  0.85837500  0.36894200  1
  Sn  Sn2  1  0.79212900  0.35837500  0.13105800  1
  Sn  Sn3  1  0.70787100  0.64162500  0.13105800  1
  Sn  Sn4  1  0.20787100  0.85837500  0.63105800  1
  Sn  Sn5  1  0.29212900  0.14162500  0.63105800  1
  Sn  Sn6  1  0.20787100  0.64162500  0.86894200  1
  Sn  Sn7  1  0.29212900  0.35837500  0.86894200  1
  Sn  Sn8  1  0.75000000  0.50000000  0.45152100  1
  Sn  Sn9  1  0.75000000  0.00000000  0.04847900  1
  Sn  Sn10  1  0.25000000  0.50000000  0.54847900  1
  Sn  Sn11  1  0.25000000  0.00000000  0.95152100  1
  N  N0  1  0.90613600  0.39595300  0.64147000  1
  N  N1  1  0.59386400  0.60404700  0.64147000  1
  N  N2  1  0.90613600  0.10404700  0.85853000  1
  N  N3  1  0.59386400  0.89595300  0.85853000  1
  N  N4  1  0.09386400  0.60404700  0.35853000  1
  N  N5  1  0.40613600  0.39595300  0.35853000  1
  N  N6  1  0.09386400  0.89595300  0.14147000  1
  N  N7  1  0.40613600  0.10404700  0.14147000  1
  N  N8  1  0.63591400  0.35658800  0.90371300  1
  N  N9  1  0.86408600  0.64341200  0.90371300  1
  N  N10  1  0.63591400  0.14341200  0.59628700  1
  N  N11  1  0.86408600  0.85658800  0.59628700  1
  N  N12  1  0.36408600  0.64341200  0.09628700  1
  N  N13  1  0.13591400  0.35658800  0.09628700  1
  N  N14  1  0.36408600  0.85658800  0.40371300  1
  N  N15  1  0.13591400  0.14341200  0.40371300  1
loop_
_geom_bond_atom_site_label_1
_geom_bond_atom_site_label_2
_geom_bond_distance
_geom_bond_site_symmetry_2
Ga0 N1 1.974226 1_555
Ga0 N0 1.974226 1_555
Ga0 N8 1.983403 1_555
Ga0 N9 1.983403 1_555
Ga1 N3 1.974226 1_545
Ga1 N2 1.974226 1_555
Ga1 N11 1.983403 1_545
Ga1 N10 1.983403 1_555
Ga2 N5 1.974226 1_555
Ga2 N4 1.974226 1_555
Ga2 N13 1.983403 1_555
Ga2 N12 1.983403 1_555
Ga3 N6 1.974226 1_545
Ga3 N7 1.974226 1_555
Ga3 N14 1.983403 1_545
Ga3 N15 1.983403 1_555
Ga4 N2 1.985157 1_555
Ga4 N0 1.985157 1_555
Ga4 N10 2.016726 1_555
Ga4 N8 2.016726 1_555
Ga5 N3 1.985157 1_555
Ga5 N1 1.985157 1_555
Ga5 N11 2.016726 1_555
Ga5 N9 2.016726 1_555
Ga6 N6 1.985157 1_555
Ga6 N4 1.985157 1_555
Ga6 N14 2.016726 1_555
Ga6 N12 2.016726 1_555
Ga7 N7 1.985154 1_555
Ga7 N5 1.985154 1_555
Ga7 N15 2.016729 1_555
Ga7 N13 2.016729 1_555
N0 Sn8 2.231150 1_555
N0 Sn10 2.598735 1_655
N1 Sn8 2.231150 1_555
N1 Sn10 2.598735 1_555
N2 Sn9 2.231150 1_556
N2 Sn11 2.598735 1_655
N3 Sn9 2.231150 1_566
N3 Sn11 2.598735 1_565
N4 Sn10 2.231150 1_555
N4 Sn8 2.598735 1_455
N5 Sn10 2.231150 1_555
N5 Sn8 2.598735 1_555
N6 Sn11 2.231150 1_564
N6 Sn9 2.598735 1_465
N7 Sn11 2.231150 1_554
N7 Sn9 2.598735 1_555
N8 Sn2 2.210161 1_556
N8 Sn7 2.219055 1_555
N9 Sn3 2.210161 1_556
N9 Sn6 2.219055 1_655
N10 Sn0 2.210161 1_555
N10 Sn5 2.219055 1_555
N11 Sn1 2.210161 1_555
N11 Sn4 2.219055 1_655
N12 Sn6 2.210161 1_554
N12 Sn3 2.219055 1_555
N13 Sn7 2.210161 1_554
N13 Sn2 2.219055 1_455
N14 Sn4 2.210161 1_555
N14 Sn1 2.219055 1_555
N15 Sn5 2.210161 1_555
N15 Sn0 2.219055 1_455
