# generated using pymatgen
data_V2Co9W
_symmetry_space_group_name_H-M   'P 1'
_cell_length_a   6.73741210
_cell_length_b   6.73741210
_cell_length_c   6.73741222
_cell_angle_alpha   43.69409715
_cell_angle_beta   43.69409715
_cell_angle_gamma   43.69409535
_symmetry_Int_Tables_number   1
_chemical_formula_structural   V2Co9W
_chemical_formula_sum   'V2 Co9 W1'
_cell_volume   132.47503700
_cell_formula_units_Z   1
loop_
 _symmetry_equiv_pos_site_id
 _symmetry_equiv_pos_as_xyz
  1  'x, y, z'
loop_
 _atom_site_type_symbol
 _atom_site_label
 _atom_site_symmetry_multiplicity
 _atom_site_fract_x
 _atom_site_fract_y
 _atom_site_fract_z
 _atom_site_occupancy
  V  V0  1  0.78191100  0.78191100  0.78191100  1
  V  V1  1  0.99973100  0.99973100  0.99973100  1
  Co  Co0  1  0.28159100  0.76598400  0.28159100  1
  Co  Co1  1  0.76598400  0.28159100  0.28159100  1
  Co  Co2  1  0.28159100  0.28159100  0.76598400  1
  Co  Co3  1  0.71840500  0.23082700  0.71840500  1
  Co  Co4  1  0.23082700  0.71840500  0.71840500  1
  Co  Co5  1  0.71840500  0.71840500  0.23082700  1
  Co  Co6  1  0.99728500  0.50247300  0.50247300  1
  Co  Co7  1  0.50247300  0.50247300  0.99728500  1
  Co  Co8  1  0.50247300  0.99728500  0.50247300  1
  W  W0  1  0.21932500  0.21932500  0.21932500  1
loop_
_geom_bond_atom_site_label_1
_geom_bond_atom_site_label_2
_geom_bond_distance
_geom_bond_site_symmetry_2
Co0 Co1 2.428934 1_555
Co0 Co2 2.428935 1_555
Co0 Co7 2.451660 1_554
Co0 Co6 2.451660 1_455
Co0 Co5 2.493934 1_555
Co0 Co4 2.493934 1_555
Co0 W0 2.495934 1_565
Co0 V1 2.501613 1_454
Co0 V0 2.509626 1_455
Co0 V0 2.509626 1_554
Co0 Co1 2.585454 1_465
Co0 Co2 2.585454 1_564
Co1 Co2 2.428935 1_555
Co1 Co7 2.451660 1_554
Co1 Co8 2.451660 1_545
Co1 Co5 2.493934 1_555
Co1 Co3 2.493934 1_555
Co1 W0 2.495934 1_655
Co1 V1 2.501613 1_544
Co1 V0 2.509626 1_545
Co1 V0 2.509626 1_554
Co1 Co2 2.585454 1_654
Co2 Co6 2.451660 1_455
Co2 Co8 2.451660 1_545
Co2 Co4 2.493934 1_555
Co2 Co3 2.493934 1_555
Co2 W0 2.495934 1_556
Co2 V1 2.501613 1_445
Co2 V0 2.509626 1_455
Co2 V0 2.509626 1_545
Co3 Co4 2.444905 1_555
Co3 Co5 2.444905 1_555
Co3 V0 2.456816 1_545
Co3 Co7 2.483155 1_555
Co3 Co6 2.483155 1_555
Co3 V1 2.503874 1_545
Co3 W0 2.508141 1_655
Co3 W0 2.508141 1_556
Co3 Co4 2.569483 1_645
Co3 Co5 2.569483 1_546
Co4 Co5 2.444905 1_555
Co4 V0 2.456816 1_455
Co4 Co7 2.483155 1_555
Co4 Co8 2.483155 1_555
Co4 V1 2.503874 1_455
Co4 W0 2.508141 1_565
Co4 W0 2.508141 1_556
Co4 Co5 2.569483 1_456
Co5 V0 2.456816 1_554
Co5 Co8 2.483155 1_555
Co5 Co6 2.483155 1_555
Co5 V1 2.503874 1_554
Co5 W0 2.508141 1_655
Co5 W0 2.508141 1_565
Co6 Co8 2.481179 1_555
Co6 Co7 2.481179 1_555
Co6 V1 2.507307 1_545
Co6 V1 2.507307 1_554
Co6 Co8 2.533209 1_645
Co6 Co7 2.533209 1_654
Co6 V0 2.533612 1_555
Co6 W0 2.554476 1_655
Co7 Co8 2.481179 1_555
Co7 V1 2.507307 1_545
Co7 V1 2.507307 1_455
Co7 Co8 2.533209 1_546
Co7 V0 2.533612 1_555
Co7 W0 2.554476 1_556
Co8 V1 2.507307 1_455
Co8 V1 2.507307 1_554
Co8 V0 2.533612 1_555
Co8 W0 2.554476 1_565
