# generated using pymatgen
data_ZrTi4(PbO3)5
_symmetry_space_group_name_H-M   'P 1'
_cell_length_a   14.22860563
_cell_length_b   14.22860563
_cell_length_c   4.48042200
_cell_angle_alpha   90.00000000
_cell_angle_beta   90.00000000
_cell_angle_gamma   157.40541560
_symmetry_Int_Tables_number   1
_chemical_formula_structural   ZrTi4(PbO3)5
_chemical_formula_sum   'Zr1 Ti4 Pb5 O15'
_cell_volume   348.50585290
_cell_formula_units_Z   1
loop_
 _symmetry_equiv_pos_site_id
 _symmetry_equiv_pos_as_xyz
  1  'x, y, z'
loop_
 _atom_site_type_symbol
 _atom_site_label
 _atom_site_symmetry_multiplicity
 _atom_site_fract_x
 _atom_site_fract_y
 _atom_site_fract_z
 _atom_site_occupancy
  Zr  Zr0  1  0.50000000  0.50000000  0.53584300  1
  Ti  Ti0  1  0.10255400  0.89744600  0.52971900  1
  Ti  Ti1  1  0.89744600  0.10255400  0.52971900  1
  Ti  Ti2  1  0.29900100  0.70099900  0.52906800  1
  Ti  Ti3  1  0.70099900  0.29900100  0.52906800  1
  Pb  Pb0  1  0.60350400  0.39649600  0.97875900  1
  Pb  Pb1  1  0.00000000  0.00000000  0.97859700  1
  Pb  Pb2  1  0.39649600  0.60350400  0.97875900  1
  Pb  Pb3  1  0.79929300  0.20070700  0.97727800  1
  Pb  Pb4  1  0.20070700  0.79929300  0.97727800  1
  O  O0  1  0.40270600  0.09919700  0.62944800  1
  O  O1  1  0.59729400  0.90080300  0.62944800  1
  O  O2  1  0.00000000  0.50000000  0.62600200  1
  O  O3  1  0.81280100  0.70652600  0.62819500  1
  O  O4  1  0.18719900  0.29347400  0.62819500  1
  O  O5  1  0.50000000  0.00000000  0.62600200  1
  O  O6  1  0.70652600  0.81280100  0.62819500  1
  O  O7  1  0.09919700  0.40270600  0.62944800  1
  O  O8  1  0.90080300  0.59729400  0.62944800  1
  O  O9  1  0.29347400  0.18719900  0.62819500  1
  O  O10  1  0.70027600  0.29972400  0.13548100  1
  O  O11  1  0.89667400  0.10332600  0.13629700  1
  O  O12  1  0.29972400  0.70027600  0.13548100  1
  O  O13  1  0.10332600  0.89667400  0.13629700  1
  O  O14  1  0.50000000  0.50000000  0.09128300  1
loop_
_geom_bond_atom_site_label_1
_geom_bond_atom_site_label_2
_geom_bond_distance
_geom_bond_site_symmetry_2
O0 Ti3 2.004578 1_555
O0 Ti0 2.010452 1_545
O0 Pb0 2.487973 1_555
O0 Pb4 2.500399 1_545
O1 Ti2 2.004578 1_555
O1 Ti1 2.010452 1_565
O1 Pb2 2.487973 1_555
O1 Pb3 2.500399 1_565
O2 Ti2 2.000203 1_555
O2 Ti3 2.000203 1_455
O2 Pb4 2.512288 1_555
O2 Pb3 2.512288 1_455
O3 Ti0 1.972675 1_655
O3 Zr0 2.113168 1_555
O3 Pb1 2.541394 1_665
O3 Pb0 2.556939 1_555
O4 Ti1 1.972675 1_455
O4 Zr0 2.113168 1_555
O4 Pb1 2.541394 1_555
O4 Pb2 2.556939 1_555
O5 Ti3 2.000203 1_555
O5 Ti2 2.000203 1_545
O5 Pb3 2.512288 1_555
O5 Pb4 2.512288 1_545
O6 Ti1 1.972675 1_565
O6 Zr0 2.113168 1_555
O6 Pb1 2.541394 1_665
O6 Pb2 2.556939 1_555
O7 Ti2 2.004578 1_555
O7 Ti1 2.010452 1_455
O7 Pb2 2.487973 1_555
O7 Pb3 2.500399 1_455
O8 Ti3 2.004578 1_555
O8 Ti0 2.010452 1_655
O8 Pb0 2.487973 1_555
O8 Pb4 2.500399 1_655
O9 Ti0 1.972675 1_545
O9 Zr0 2.113168 1_555
O9 Pb1 2.541394 1_555
O9 Pb0 2.556939 1_555
O10 Ti3 1.763551 1_555
O10 Pb3 2.852617 1_554
O10 Pb4 2.876119 1_654
O10 Pb4 2.876119 1_544
O11 Ti1 1.762828 1_555
O11 Pb3 2.809343 1_554
O12 Ti2 1.763551 1_555
O12 Pb4 2.852617 1_554
O12 Pb3 2.876119 1_564
O12 Pb3 2.876119 1_454
O13 Ti0 1.762828 1_555
O13 Pb4 2.809343 1_554
O14 Zr0 1.991816 1_555
O14 Zr0 2.488606 1_554
