# generated using pymatgen
data_Li4Cr3NiO8
_symmetry_space_group_name_H-M   'P 1'
_cell_length_a   5.92631967
_cell_length_b   8.32137817
_cell_length_c   5.91085309
_cell_angle_alpha   90.01018749
_cell_angle_beta   90.07618164
_cell_angle_gamma   89.45408610
_symmetry_Int_Tables_number   1
_chemical_formula_structural   Li4Cr3NiO8
_chemical_formula_sum   'Li8 Cr6 Ni2 O16'
_cell_volume   291.48109704
_cell_formula_units_Z   2
loop_
 _symmetry_equiv_pos_site_id
 _symmetry_equiv_pos_as_xyz
  1  'x, y, z'
loop_
 _atom_site_type_symbol
 _atom_site_label
 _atom_site_symmetry_multiplicity
 _atom_site_fract_x
 _atom_site_fract_y
 _atom_site_fract_z
 _atom_site_occupancy
  Li  Li0  1  0.00184700  0.50151800  0.99788000  1
  Li  Li1  1  0.49820000  0.99847400  0.50207400  1
  Li  Li2  1  0.74997400  0.75002100  0.25003500  1
  Li  Li3  1  0.25001300  0.24992700  0.74998700  1
  Li  Li4  1  0.49782200  0.99887800  0.99793100  1
  Li  Li5  1  0.00224600  0.50109000  0.50220400  1
  Li  Li6  1  0.25007100  0.24992300  0.25005000  1
  Li  Li7  1  0.74998400  0.74998800  0.75001200  1
  Cr  Cr0  1  0.24992600  0.75003800  0.75000200  1
  Cr  Cr1  1  0.24992600  0.74996200  0.25005500  1
  Cr  Cr2  1  0.75003300  0.24996600  0.75000400  1
  Cr  Cr3  1  0.75012900  0.25015300  0.24986900  1
  Cr  Cr4  1  0.49785200  0.50060500  0.99734200  1
  Cr  Cr5  1  0.00206900  0.99942500  0.50261200  1
  Ni  Ni0  1  0.00123000  0.99918100  0.99959400  1
  Ni  Ni1  1  0.49874300  0.50075800  0.50039400  1
  O  O0  1  0.51597700  0.25582100  0.00200000  1
  O  O1  1  0.01345200  0.75612700  0.49922400  1
  O  O2  1  0.48648500  0.74388100  0.00081200  1
  O  O3  1  0.98409600  0.24423900  0.49795100  1
  O  O4  1  0.26561100  0.50684500  0.24366600  1
  O  O5  1  0.76547100  0.00806700  0.74518000  1
  O  O6  1  0.01612800  0.75655800  0.00077600  1
  O  O7  1  0.52317400  0.25548900  0.49179800  1
  O  O8  1  0.76100300  0.01822500  0.26033700  1
  O  O9  1  0.26101900  0.50620400  0.75867700  1
  O  O10  1  0.23440200  0.99310700  0.25640500  1
  O  O11  1  0.73446100  0.49191100  0.75479000  1
  O  O12  1  0.48386000  0.74332700  0.49928300  1
  O  O13  1  0.97691300  0.24458900  0.00811300  1
  O  O14  1  0.73897000  0.48193700  0.23964800  1
  O  O15  1  0.23892100  0.99377500  0.74128900  1
loop_
_geom_bond_atom_site_label_1
_geom_bond_atom_site_label_2
_geom_bond_distance
_geom_bond_site_symmetry_2
Li0 O9 2.089654 1_555
Li0 O14 2.122880 1_456
Li0 O6 2.124842 1_556
Li0 O4 2.133378 1_556
Li0 O11 2.139698 1_455
Li0 O13 2.145377 1_456
Li1 O15 2.090171 1_555
Li1 O8 2.122553 1_565
Li1 O12 2.125744 1_555
Li1 O10 2.133065 1_555
Li1 O5 2.139252 1_565
Li1 O7 2.146116 1_565
Li2 O1 2.146063 1_655
Li2 O2 2.146256 1_555
Li2 O12 2.160712 1_555
Li2 O6 2.160887 1_655
Li2 O14 2.233233 1_555
Li2 O8 2.234223 1_565
Li3 O15 2.133785 1_545
Li3 O9 2.134803 1_555
Li3 O3 2.168002 1_455
Li3 O0 2.168161 1_556
Li3 O13 2.226500 1_456
Li3 O7 2.227070 1_555
Li4 O2 2.123702 1_556
Li4 O0 2.141978 1_566
Li4 O15 2.156898 1_555
Li4 O5 2.182294 1_565
Li4 O10 2.186630 1_556
Li4 O8 2.205122 1_566
Li5 O1 2.124007 1_555
Li5 O3 2.141224 1_455
Li5 O9 2.155660 1_555
Li5 O11 2.182209 1_455
Li5 O4 2.186658 1_555
Li5 O14 2.206015 1_455
Li6 O10 2.140302 1_545
Li6 O4 2.141146 1_555
Li6 O3 2.154419 1_455
Li6 O0 2.154772 1_555
Li6 O7 2.158423 1_555
Li6 O13 2.159351 1_455
Li7 O11 2.150593 1_555
Li7 O5 2.150603 1_565
Li7 O1 2.155387 1_655
Li7 O2 2.155561 1_556
Li7 O12 2.163849 1_555
Li7 O6 2.164052 1_656
Cr0 O15 2.029315 1_555
Cr0 O9 2.030128 1_555
Cr0 O6 2.030740 1_556
Cr0 O12 2.031085 1_555
Cr0 O1 2.038859 1_555
Cr0 O2 2.039352 1_556
Cr1 O6 2.021634 1_555
Cr1 O12 2.021973 1_555
Cr1 O4 2.024666 1_555
Cr1 O10 2.024860 1_555
Cr1 O1 2.034661 1_555
Cr1 O2 2.035313 1_555
Cr2 O5 2.014339 1_555
Cr2 O11 2.014747 1_555
Cr2 O13 2.032453 1_556
Cr2 O7 2.032821 1_555
Cr2 O0 2.036963 1_556
Cr2 O3 2.037220 1_555
Cr3 O14 1.930220 1_555
Cr3 O8 1.931422 1_555
Cr3 O13 1.963252 1_555
Cr3 O7 1.964661 1_555
Cr3 O0 2.016870 1_555
Cr3 O3 2.017067 1_555
Cr4 O9 1.988905 1_555
Cr4 O4 2.005200 1_556
Cr4 O11 2.007560 1_555
Cr4 O2 2.024972 1_556
Cr4 O14 2.026749 1_556
Cr4 O0 2.038937 1_556
Cr5 O15 1.989042 1_555
Cr5 O10 2.005084 1_555
Cr5 O5 2.007569 1_465
Cr5 O1 2.025152 1_555
Cr5 O8 2.026480 1_465
Cr5 O3 2.039148 1_465
Ni0 O6 2.020060 1_556
Ni0 O13 2.046457 1_466
Ni0 O10 2.051689 1_556
Ni0 O5 2.052193 1_465
Ni0 O15 2.078914 1_555
Ni0 O8 2.104451 1_466
Ni1 O12 2.019606 1_555
Ni1 O7 2.045356 1_555
Ni1 O4 2.051169 1_555
Ni1 O11 2.051941 1_555
Ni1 O9 2.078956 1_555
Ni1 O14 2.104338 1_555
