# generated using pymatgen
data_SrMnFeBiO6
_symmetry_space_group_name_H-M   'P 1'
_cell_length_a   5.42697926
_cell_length_b   5.42697926
_cell_length_c   5.42697885
_cell_angle_alpha   60.83849366
_cell_angle_beta   60.83849366
_cell_angle_gamma   60.83849418
_symmetry_Int_Tables_number   1
_chemical_formula_structural   SrMnFeBiO6
_chemical_formula_sum   'Sr1 Mn1 Fe1 Bi1 O6'
_cell_volume   115.15802753
_cell_formula_units_Z   1
loop_
 _symmetry_equiv_pos_site_id
 _symmetry_equiv_pos_as_xyz
  1  'x, y, z'
loop_
 _atom_site_type_symbol
 _atom_site_label
 _atom_site_symmetry_multiplicity
 _atom_site_fract_x
 _atom_site_fract_y
 _atom_site_fract_z
 _atom_site_occupancy
  Sr  Sr0  1  0.24945500  0.24945500  0.24945500  1
  Mn  Mn0  1  0.99923700  0.99923700  0.99923700  1
  Fe  Fe0  1  0.49987600  0.49987600  0.49987600  1
  Bi  Bi0  1  0.75123100  0.75123100  0.75123100  1
  O  O0  1  0.80168100  0.70482200  0.24534600  1
  O  O1  1  0.24534600  0.80168100  0.70482200  1
  O  O2  1  0.70482200  0.24534600  0.80168100  1
  O  O3  1  0.75463500  0.18045300  0.31326400  1
  O  O4  1  0.31326400  0.75463500  0.18045300  1
  O  O5  1  0.18045300  0.31326400  0.75463500  1
loop_
_geom_bond_atom_site_label_1
_geom_bond_atom_site_label_2
_geom_bond_distance
_geom_bond_site_symmetry_2
Mn0 O1 1.918455 1_655
Mn0 O2 1.918455 1_565
Mn0 O0 1.918455 1_556
Mn0 O3 1.946815 1_566
Mn0 O4 1.946815 1_656
Mn0 O5 1.946815 1_665
Fe0 O2 1.975105 1_555
Fe0 O1 1.975105 1_555
Fe0 O0 1.975105 1_555
Fe0 O4 1.988176 1_555
Fe0 O3 1.988176 1_555
Fe0 O5 1.988176 1_555
Bi0 O3 2.383112 1_565
Bi0 O4 2.383112 1_556
Bi0 O5 2.383112 1_655
Bi0 O0 2.705406 1_556
Bi0 O2 2.705407 1_565
Bi0 O1 2.705407 1_655
Bi0 O0 2.747706 1_555
Bi0 O1 2.747706 1_555
Bi0 O2 2.747706 1_555
O0 Sr0 2.481831 1_655
O0 Sr0 3.014100 1_565
O1 Sr0 2.481831 1_565
O1 Sr0 3.014100 1_556
O2 Sr0 2.481831 1_556
O2 Sr0 3.014100 1_655
O3 Sr0 2.723744 1_655
O3 Sr0 2.752245 1_555
O4 Sr0 2.723744 1_565
O4 Sr0 2.752245 1_555
O5 Sr0 2.723743 1_556
O5 Sr0 2.752245 1_555
