# generated using pymatgen
data_BaCaBiF7
_symmetry_space_group_name_H-M   'P 1'
_cell_length_a   10.81071700
_cell_length_b   5.99757100
_cell_length_c   10.00127832
_cell_angle_alpha   87.34517385
_cell_angle_beta   90.00000000
_cell_angle_gamma   90.00000000
_symmetry_Int_Tables_number   1
_chemical_formula_structural   BaCaBiF7
_chemical_formula_sum   'Ba4 Ca4 Bi4 F28'
_cell_volume   647.76731915
_cell_formula_units_Z   4
loop_
 _symmetry_equiv_pos_site_id
 _symmetry_equiv_pos_as_xyz
  1  'x, y, z'
loop_
 _atom_site_type_symbol
 _atom_site_label
 _atom_site_symmetry_multiplicity
 _atom_site_fract_x
 _atom_site_fract_y
 _atom_site_fract_z
 _atom_site_occupancy
  Ba  Ba0  1  0.31163700  0.75244200  0.49880300  1
  Ba  Ba1  1  0.81163700  0.24755800  0.00119700  1
  Ba  Ba2  1  0.68836300  0.24755800  0.50119700  1
  Ba  Ba3  1  0.18836300  0.75244200  0.99880300  1
  Ca  Ca0  1  0.40464600  0.28453900  0.79518300  1
  Ca  Ca1  1  0.90464600  0.71546100  0.70481700  1
  Ca  Ca2  1  0.09535400  0.28453900  0.29518300  1
  Ca  Ca3  1  0.59535400  0.71546100  0.20481700  1
  Bi  Bi0  1  0.59242100  0.78237800  0.80654700  1
  Bi  Bi1  1  0.40757900  0.21762200  0.19345300  1
  Bi  Bi2  1  0.90757900  0.78237800  0.30654700  1
  Bi  Bi3  1  0.09242100  0.21762200  0.69345300  1
  F  F0  1  0.43049000  0.87981400  0.10279600  1
  F  F1  1  0.07916600  0.61588100  0.40086400  1
  F  F2  1  0.73864600  0.50118300  0.77824200  1
  F  F3  1  0.26135400  0.49881700  0.22175800  1
  F  F4  1  0.50571200  0.97715900  0.35648100  1
  F  F5  1  0.78877500  0.76182800  0.49987700  1
  F  F6  1  0.76129400  0.99536000  0.73087300  1
  F  F7  1  0.00571200  0.02284100  0.14351900  1
  F  F8  1  0.42083400  0.61588100  0.90086400  1
  F  F9  1  0.23864600  0.49881700  0.72175800  1
  F  F10  1  0.06951000  0.87981400  0.60279600  1
  F  F11  1  0.56951000  0.12018600  0.89720400  1
  F  F12  1  0.26129400  0.00464000  0.76912700  1
  F  F13  1  0.00755900  0.47655800  0.85686500  1
  F  F14  1  0.49428800  0.02284100  0.64351900  1
  F  F15  1  0.99428800  0.97715900  0.85648100  1
  F  F16  1  0.23870600  0.00464000  0.26912700  1
  F  F17  1  0.93049000  0.12018600  0.39720400  1
  F  F18  1  0.50755900  0.52344200  0.64313500  1
  F  F19  1  0.92083400  0.38411900  0.59913600  1
  F  F20  1  0.99244100  0.52344200  0.14313500  1
  F  F21  1  0.73870600  0.99536000  0.23087300  1
  F  F22  1  0.49244100  0.47655800  0.35686500  1
  F  F23  1  0.28877500  0.23817200  0.00012300  1
  F  F24  1  0.21122500  0.23817200  0.50012300  1
  F  F25  1  0.71122500  0.76182800  0.99987700  1
  F  F26  1  0.57916600  0.38411900  0.09913600  1
  F  F27  1  0.76135400  0.50118300  0.27824200  1
loop_
_geom_bond_atom_site_label_1
_geom_bond_atom_site_label_2
_geom_bond_distance
_geom_bond_site_symmetry_2
Ba0 F9 2.755803 1_555
Ba0 F16 2.804301 1_565
Ba0 F1 2.832075 1_555
Ba0 F4 2.840209 1_555
Ba0 F18 2.876206 1_555
Ba0 F10 2.930967 1_555
Ba0 F22 2.964979 1_555
Ba0 F14 2.973429 1_565
Ba0 F24 3.109476 1_565
Ba0 F12 3.205042 1_565
Ba0 F3 3.267590 1_555
Ba0 F24 3.269268 1_555
Ba1 F2 2.755803 1_554
Ba1 F21 2.804301 1_545
Ba1 F26 2.832075 1_555
Ba1 F7 2.840209 1_655
Ba1 F13 2.876206 1_654
Ba1 F11 2.930967 1_554
Ba1 F20 2.964979 1_555
Ba1 F15 2.973429 1_544
Ba1 F25 3.109476 1_544
Ba1 F6 3.205042 1_544
Ba1 F27 3.267590 1_555
Ba1 F25 3.269268 1_554
Ba2 F27 2.755803 1_555
Ba2 F6 2.804301 1_545
Ba2 F19 2.832075 1_555
Ba2 F14 2.840209 1_555
Ba2 F22 2.876206 1_555
Ba2 F17 2.930967 1_555
Ba2 F18 2.964979 1_555
Ba2 F4 2.973429 1_545
Ba2 F5 3.109476 1_545
Ba2 F21 3.205042 1_545
Ba2 F2 3.267590 1_555
Ba2 F5 3.269268 1_555
Ba3 F3 2.755803 1_556
Ba3 F12 2.804301 1_565
Ba3 F8 2.832075 1_555
Ba3 F15 2.840209 1_455
Ba3 F20 2.876206 1_456
Ba3 F0 2.930967 1_556
Ba3 F13 2.964979 1_555
Ba3 F7 2.973429 1_566
Ba3 F23 3.109476 1_566
Ba3 F16 3.205042 1_566
Ba3 F9 3.267590 1_555
Ba3 F23 3.269268 1_556
Ca0 F11 2.257465 1_555
Ca0 F8 2.300323 1_555
Ca0 F9 2.307369 1_555
Ca0 F12 2.308290 1_555
Ca0 F18 2.324097 1_555
Ca0 F23 2.407234 1_556
Ca0 F14 2.433921 1_555
Ca1 F10 2.257465 1_655
Ca1 F19 2.300323 1_555
Ca1 F2 2.307369 1_555
Ca1 F6 2.308290 1_555
Ca1 F13 2.324097 1_655
Ca1 F5 2.407234 1_555
Ca1 F15 2.433921 1_555
Ca2 F17 2.257465 1_455
Ca2 F1 2.300323 1_555
Ca2 F3 2.307369 1_555
Ca2 F16 2.308290 1_555
Ca2 F20 2.324097 1_455
Ca2 F24 2.407234 1_555
Ca2 F7 2.433921 1_555
Ca3 F0 2.257465 1_555
Ca3 F26 2.300323 1_555
Ca3 F27 2.307369 1_555
Ca3 F21 2.308290 1_555
Ca3 F22 2.324097 1_555
Ca3 F25 2.407234 1_554
Ca3 F4 2.433921 1_555
Bi0 F11 2.271208 1_565
Bi0 F8 2.289244 1_555
Bi0 F25 2.319761 1_555
Bi0 F6 2.334070 1_555
Bi0 F2 2.338273 1_555
Bi0 F14 2.376145 1_565
Bi0 F18 2.481850 1_555
Bi1 F0 2.271208 1_545
Bi1 F26 2.289244 1_555
Bi1 F23 2.319761 1_555
Bi1 F16 2.334070 1_555
Bi1 F3 2.338273 1_555
Bi1 F4 2.376145 1_545
Bi1 F22 2.481850 1_555
Bi2 F17 2.271208 1_565
Bi2 F1 2.289244 1_655
Bi2 F5 2.319761 1_555
Bi2 F21 2.334070 1_555
Bi2 F27 2.338273 1_555
Bi2 F7 2.376145 1_665
Bi2 F20 2.481850 1_555
Bi3 F10 2.271208 1_545
Bi3 F19 2.289244 1_455
Bi3 F24 2.319761 1_555
Bi3 F12 2.334070 1_555
Bi3 F9 2.338273 1_555
Bi3 F15 2.376145 1_445
Bi3 F13 2.481850 1_555
