# generated using pymatgen
data_KMnN2
_symmetry_space_group_name_H-M   'P 1'
_cell_length_a   5.65612800
_cell_length_b   11.33669700
_cell_length_c   15.56476100
_cell_angle_alpha   90.00000000
_cell_angle_beta   90.00000000
_cell_angle_gamma   90.00000000
_symmetry_Int_Tables_number   1
_chemical_formula_structural   KMnN2
_chemical_formula_sum   'K16 Mn16 N32'
_cell_volume   998.04063710
_cell_formula_units_Z   16
loop_
 _symmetry_equiv_pos_site_id
 _symmetry_equiv_pos_as_xyz
  1  'x, y, z'
loop_
 _atom_site_type_symbol
 _atom_site_label
 _atom_site_symmetry_multiplicity
 _atom_site_fract_x
 _atom_site_fract_y
 _atom_site_fract_z
 _atom_site_occupancy
  K  K0  1  0.24882000  0.00009800  0.43368800  1
  K  K1  1  0.74882000  0.49990200  0.56631200  1
  K  K2  1  0.75118000  0.50009800  0.06631200  1
  K  K3  1  0.25118000  0.99990200  0.93368800  1
  K  K4  1  0.75118000  0.99990200  0.56631200  1
  K  K5  1  0.25118000  0.50009800  0.43368800  1
  K  K6  1  0.24882000  0.49990200  0.93368800  1
  K  K7  1  0.74882000  0.00009800  0.06631200  1
  K  K8  1  0.35080400  0.25213600  0.30843300  1
  K  K9  1  0.85080400  0.24786400  0.69156700  1
  K  K10  1  0.64919600  0.75213600  0.19156700  1
  K  K11  1  0.14919600  0.74786400  0.80843300  1
  K  K12  1  0.64919600  0.74786400  0.69156700  1
  K  K13  1  0.14919600  0.75213600  0.30843300  1
  K  K14  1  0.35080400  0.24786400  0.80843300  1
  K  K15  1  0.85080400  0.25213600  0.19156700  1
  Mn  Mn0  1  0.74885800  0.00275100  0.31442400  1
  Mn  Mn1  1  0.24885800  0.49724900  0.68557600  1
  Mn  Mn2  1  0.25114200  0.50275100  0.18557600  1
  Mn  Mn3  1  0.75114200  0.99724900  0.81442400  1
  Mn  Mn4  1  0.25114200  0.99724900  0.68557600  1
  Mn  Mn5  1  0.75114200  0.50275100  0.31442400  1
  Mn  Mn6  1  0.74885800  0.49724900  0.81442400  1
  Mn  Mn7  1  0.24885800  0.00275100  0.18557600  1
  Mn  Mn8  1  0.81502600  0.25309100  0.44016400  1
  Mn  Mn9  1  0.31502600  0.24690900  0.55983600  1
  Mn  Mn10  1  0.18497400  0.75309100  0.05983600  1
  Mn  Mn11  1  0.68497400  0.74690900  0.94016400  1
  Mn  Mn12  1  0.18497400  0.74690900  0.55983600  1
  Mn  Mn13  1  0.68497400  0.75309100  0.44016400  1
  Mn  Mn14  1  0.81502600  0.24690900  0.94016400  1
  Mn  Mn15  1  0.31502600  0.25309100  0.05983600  1
  N  N0  1  0.10805400  0.25311900  0.47571800  1
  N  N1  1  0.60805400  0.24688100  0.52428200  1
  N  N2  1  0.89194600  0.75311900  0.02428200  1
  N  N3  1  0.39194600  0.74688100  0.97571800  1
  N  N4  1  0.89194600  0.74688100  0.52428200  1
  N  N5  1  0.39194600  0.75311900  0.47571800  1
  N  N6  1  0.10805400  0.24688100  0.97571800  1
  N  N7  1  0.60805400  0.25311900  0.02428200  1
  N  N8  1  0.75794400  0.38085800  0.38218800  1
  N  N9  1  0.25794400  0.11914200  0.61781200  1
  N  N10  1  0.24205600  0.88085800  0.11781200  1
  N  N11  1  0.74205600  0.61914200  0.88218800  1
  N  N12  1  0.24205600  0.61914200  0.61781200  1
  N  N13  1  0.74205600  0.88085800  0.38218800  1
  N  N14  1  0.75794400  0.11914200  0.88218800  1
  N  N15  1  0.25794400  0.38085800  0.11781200  1
  N  N16  1  0.76674800  0.13100900  0.37512200  1
  N  N17  1  0.26674800  0.36899100  0.62487800  1
  N  N18  1  0.23325200  0.63100900  0.12487800  1
  N  N19  1  0.73325200  0.86899100  0.87512200  1
  N  N20  1  0.23325200  0.86899100  0.62487800  1
  N  N21  1  0.73325200  0.63100900  0.37512200  1
  N  N22  1  0.76674800  0.36899100  0.87512200  1
  N  N23  1  0.26674800  0.13100900  0.12487800  1
  N  N24  1  0.50655300  0.49956900  0.24712200  1
  N  N25  1  0.00655300  0.00043100  0.75287800  1
  N  N26  1  0.49344700  0.99956900  0.25287800  1
  N  N27  1  0.99344700  0.50043100  0.74712200  1
  N  N28  1  0.49344700  0.50043100  0.75287800  1
  N  N29  1  0.99344700  0.99956900  0.24712200  1
  N  N30  1  0.50655300  0.00043100  0.74712200  1
  N  N31  1  0.00655300  0.49956900  0.25287800  1
loop_
_geom_bond_atom_site_label_1
_geom_bond_atom_site_label_2
_geom_bond_distance
_geom_bond_site_symmetry_2
K0 N5 2.987122 1_545
K0 N0 3.047905 1_555
K0 N26 3.136014 1_545
K0 N9 3.168133 1_555
K0 N13 3.202013 1_545
K0 N16 3.235457 1_455
K0 N29 3.243265 1_445
K0 N13 3.268894 1_445
K0 N20 3.327529 1_545
K0 N16 3.408119 1_555
K1 N4 2.987122 1_555
K1 N1 3.047905 1_555
K1 N27 3.136014 1_555
K1 N8 3.168133 1_555
K1 N12 3.202013 1_655
K1 N17 3.235457 1_555
K1 N28 3.243265 1_555
K1 N12 3.268894 1_555
K1 N21 3.327529 1_555
K1 N17 3.408119 1_655
K2 N7 2.987122 1_555
K2 N2 3.047905 1_555
K2 N24 3.136014 1_555
K2 N11 3.168133 1_554
K2 N15 3.202013 1_555
K2 N18 3.235457 1_655
K2 N31 3.243265 1_655
K2 N15 3.268894 1_655
K2 N22 3.327529 1_554
K2 N18 3.408119 1_555
K3 N6 2.987122 1_565
K3 N3 3.047905 1_555
K3 N25 3.136014 1_565
K3 N10 3.168133 1_556
K3 N14 3.202013 1_465
K3 N19 3.235457 1_555
K3 N30 3.243265 1_565
K3 N14 3.268894 1_565
K3 N23 3.327529 1_566
K3 N19 3.408119 1_455
K4 N1 2.987122 1_565
K4 N4 3.047905 1_555
K4 N30 3.136014 1_565
K4 N13 3.168133 1_555
K4 N9 3.202013 1_565
K4 N20 3.235457 1_655
K4 N25 3.243265 1_665
K4 N9 3.268894 1_665
K4 N16 3.327529 1_565
K4 N20 3.408119 1_555
K5 N0 2.987122 1_555
K5 N5 3.047905 1_555
K5 N31 3.136014 1_555
K5 N12 3.168133 1_555
K5 N8 3.202013 1_455
K5 N21 3.235457 1_555
K5 N24 3.243265 1_555
K5 N8 3.268894 1_555
K5 N17 3.327529 1_555
K5 N21 3.408119 1_455
K6 N3 2.987122 1_555
K6 N6 3.047905 1_555
K6 N28 3.136014 1_555
K6 N15 3.168133 1_556
K6 N11 3.202013 1_555
K6 N22 3.235457 1_455
K6 N27 3.243265 1_455
K6 N11 3.268894 1_455
K6 N18 3.327529 1_556
K6 N22 3.408119 1_555
K7 N2 2.987122 1_545
K7 N7 3.047905 1_555
K7 N29 3.136014 1_545
K7 N14 3.168133 1_554
K7 N10 3.202013 1_645
K7 N23 3.235457 1_555
K7 N26 3.243265 1_545
K7 N10 3.268894 1_545
K7 N19 3.327529 1_544
K7 N23 3.408119 1_655
K8 N16 2.915123 1_555
K8 N0 2.943610 1_555
K8 N8 2.958110 1_555
K8 N24 3.091141 1_555
K8 N26 3.097901 1_545
K8 N23 3.205316 1_555
K8 N15 3.347877 1_555
K9 N17 2.915123 1_655
K9 N1 2.943610 1_555
K9 N9 2.958110 1_655
K9 N25 3.091141 1_655
K9 N27 3.097901 1_555
K9 N22 3.205316 1_555
K9 N14 3.347877 1_555
K10 N18 2.915123 1_555
K10 N2 2.943610 1_555
K10 N10 2.958110 1_555
K10 N26 3.091141 1_555
K10 N24 3.097901 1_555
K10 N21 3.205316 1_555
K10 N13 3.347877 1_555
K11 N19 2.915123 1_455
K11 N3 2.943610 1_555
K11 N11 2.958110 1_455
K11 N27 3.091141 1_455
K11 N25 3.097901 1_565
K11 N20 3.205316 1_555
K11 N12 3.347877 1_555
K12 N20 2.915123 1_555
K12 N4 2.943610 1_555
K12 N12 2.958110 1_555
K12 N28 3.091141 1_555
K12 N30 3.097901 1_565
K12 N19 3.205316 1_555
K12 N11 3.347877 1_555
K13 N21 2.915123 1_455
K13 N5 2.943610 1_555
K13 N13 2.958110 1_455
K13 N29 3.091141 1_455
K13 N31 3.097901 1_555
K13 N18 3.205316 1_555
K13 N10 3.347877 1_555
K14 N22 2.915123 1_555
K14 N6 2.943610 1_555
K14 N14 2.958110 1_555
K14 N30 3.091141 1_555
K14 N28 3.097901 1_555
K14 N17 3.205316 1_555
K14 N9 3.347877 1_555
K15 N23 2.915123 1_655
K15 N7 2.943610 1_555
K15 N15 2.958110 1_655
K15 N31 3.091141 1_655
K15 N29 3.097901 1_545
K15 N16 3.205316 1_555
K15 N8 3.347877 1_555
Mn0 N26 1.733766 1_545
Mn0 N29 1.735658 1_545
Mn0 N16 1.736943 1_555
Mn0 N13 1.738817 1_545
Mn1 N27 1.733766 1_455
Mn1 N28 1.735658 1_555
Mn1 N17 1.736943 1_555
Mn1 N12 1.738817 1_555
Mn2 N24 1.733766 1_555
Mn2 N31 1.735658 1_555
Mn2 N18 1.736943 1_555
Mn2 N15 1.738817 1_555
Mn3 N25 1.733766 1_665
Mn3 N30 1.735658 1_565
Mn3 N19 1.736943 1_555
Mn3 N14 1.738817 1_565
Mn4 N30 1.733766 1_565
Mn4 N25 1.735658 1_565
Mn4 N20 1.736943 1_555
Mn4 N9 1.738817 1_565
Mn5 N31 1.733766 1_655
Mn5 N24 1.735658 1_555
Mn5 N21 1.736943 1_555
Mn5 N8 1.738817 1_555
Mn6 N28 1.733766 1_555
Mn6 N27 1.735658 1_555
Mn6 N22 1.736943 1_555
Mn6 N11 1.738817 1_555
Mn7 N29 1.733766 1_445
Mn7 N26 1.735658 1_545
Mn7 N23 1.736943 1_555
Mn7 N10 1.738817 1_545
Mn8 N16 1.736352 1_555
Mn8 N8 1.736824 1_555
Mn8 N0 1.747349 1_655
Mn8 N1 1.757728 1_555
Mn9 N17 1.736352 1_555
Mn9 N9 1.736824 1_555
Mn9 N1 1.747349 1_555
Mn9 N0 1.757728 1_555
Mn10 N18 1.736352 1_555
Mn10 N10 1.736824 1_555
Mn10 N2 1.747349 1_455
Mn10 N3 1.757728 1_554
Mn11 N19 1.736352 1_555
Mn11 N11 1.736824 1_555
Mn11 N3 1.747349 1_555
Mn11 N2 1.757728 1_556
Mn12 N20 1.736352 1_555
Mn12 N12 1.736824 1_555
Mn12 N4 1.747349 1_455
Mn12 N5 1.757728 1_555
Mn13 N21 1.736352 1_555
Mn13 N13 1.736824 1_555
Mn13 N5 1.747349 1_555
Mn13 N4 1.757728 1_555
Mn14 N22 1.736352 1_555
Mn14 N14 1.736824 1_555
Mn14 N6 1.747349 1_655
Mn14 N7 1.757728 1_556
Mn15 N23 1.736352 1_555
Mn15 N15 1.736824 1_555
Mn15 N7 1.747349 1_555
Mn15 N6 1.757728 1_554
