# generated using pymatgen
data_Ba3GaS4Cl
_symmetry_space_group_name_H-M   'P 1'
_cell_length_a   8.51277787
_cell_length_b   9.64321393
_cell_length_c   12.40152509
_cell_angle_alpha   90.00000000
_cell_angle_beta   90.00000000
_cell_angle_gamma   90.00000000
_symmetry_Int_Tables_number   1
_chemical_formula_structural   Ba3GaS4Cl
_chemical_formula_sum   'Ba12 Ga4 S16 Cl4'
_cell_volume   1018.04786838
_cell_formula_units_Z   4
loop_
 _symmetry_equiv_pos_site_id
 _symmetry_equiv_pos_as_xyz
  1  'x, y, z'
loop_
 _atom_site_type_symbol
 _atom_site_label
 _atom_site_symmetry_multiplicity
 _atom_site_fract_x
 _atom_site_fract_y
 _atom_site_fract_z
 _atom_site_occupancy
  Ba  Ba0  1  0.41404922  0.75000000  0.48077098  1
  Ba  Ba1  1  0.08595078  0.75000000  0.98077098  1
  Ba  Ba2  1  0.58595078  0.25000000  0.51922902  1
  Ba  Ba3  1  0.91404922  0.25000000  0.01922902  1
  Ba  Ba4  1  0.08407381  0.48025335  0.66776829  1
  Ba  Ba5  1  0.41592619  0.01974665  0.16776829  1
  Ba  Ba6  1  0.91592619  0.98025335  0.33223171  1
  Ba  Ba7  1  0.58407381  0.51974665  0.83223171  1
  Ba  Ba8  1  0.91592619  0.51974665  0.33223171  1
  Ba  Ba9  1  0.58407381  0.98025335  0.83223171  1
  Ba  Ba10  1  0.08407381  0.01974665  0.66776829  1
  Ba  Ba11  1  0.41592619  0.48025335  0.16776829  1
  Ga  Ga0  1  0.81125674  0.75000000  0.60646546  1
  Ga  Ga1  1  0.68874326  0.75000000  0.10646546  1
  Ga  Ga2  1  0.18874326  0.25000000  0.39353454  1
  Ga  Ga3  1  0.31125674  0.25000000  0.89353454  1
  S  S0  1  0.31185940  0.45074291  0.42664211  1
  S  S1  1  0.18814060  0.04925709  0.92664211  1
  S  S2  1  0.68814060  0.95074291  0.57335789  1
  S  S3  1  0.81185940  0.54925709  0.07335789  1
  S  S4  1  0.68814060  0.54925709  0.57335789  1
  S  S5  1  0.81185940  0.95074291  0.07335789  1
  S  S6  1  0.31185940  0.04925709  0.42664211  1
  S  S7  1  0.18814060  0.45074291  0.92664211  1
  S  S8  1  0.63744289  0.75000000  0.28631393  1
  S  S9  1  0.86255711  0.75000000  0.78631393  1
  S  S10  1  0.36255711  0.25000000  0.71368607  1
  S  S11  1  0.13744289  0.25000000  0.21368607  1
  S  S12  1  0.03538680  0.75000000  0.50713984  1
  S  S13  1  0.46461320  0.75000000  0.00713984  1
  S  S14  1  0.96461320  0.25000000  0.49286016  1
  S  S15  1  0.53538680  0.25000000  0.99286016  1
  Cl  Cl0  1  0.33286472  0.75000000  0.73064639  1
  Cl  Cl1  1  0.16713528  0.75000000  0.23064639  1
  Cl  Cl2  1  0.66713528  0.25000000  0.26935361  1
  Cl  Cl3  1  0.83286472  0.25000000  0.76935361  1
loop_
_geom_bond_atom_site_label_1
_geom_bond_atom_site_label_2
_geom_bond_distance
_geom_bond_site_symmetry_2
Ba0 S8 3.071173 1_555
Ba0 S6 3.087915 1_565
Ba0 S0 3.087915 1_555
Ba0 Cl0 3.174967 1_555
Ba0 S12 3.240014 1_555
Ba0 S4 3.241905 1_555
Ba0 S2 3.241905 1_555
Ba0 Cl1 3.747003 1_555
Ba1 S9 3.071173 1_455
Ba1 S7 3.087915 1_555
Ba1 S1 3.087915 1_565
Ba1 Cl1 3.174967 1_556
Ba1 S13 3.240014 1_556
Ba1 S3 3.241905 1_456
Ba1 S5 3.241905 1_456
Ba1 Cl0 3.747003 1_555
Ba2 S10 3.071173 1_555
Ba2 S2 3.087915 1_545
Ba2 S4 3.087915 1_555
Ba2 Cl2 3.174967 1_555
Ba2 S14 3.240014 1_555
Ba2 S6 3.241905 1_555
Ba2 S0 3.241905 1_555
Ba2 Cl3 3.747003 1_555
Ba3 S11 3.071173 1_655
Ba3 S3 3.087915 1_555
Ba3 S5 3.087915 1_545
Ba3 Cl3 3.174967 1_554
Ba3 S15 3.240014 1_554
Ba3 S1 3.241905 1_654
Ba3 S7 3.241905 1_654
Ba3 Cl2 3.747003 1_555
Ba4 S14 3.266402 1_455
Ba4 S10 3.297640 1_555
Ba4 S12 3.302478 1_555
Ba4 Cl3 3.330218 1_455
Ba4 S7 3.342553 1_555
Ba4 Cl0 3.443827 1_555
Ba4 S9 3.533221 1_455
Ba4 S0 3.575351 1_555
Ba4 S4 3.629579 1_455
Ba5 S15 3.266402 1_554
Ba5 S11 3.297640 1_555
Ba5 S13 3.302478 1_545
Ba5 Cl2 3.330218 1_555
Ba5 S6 3.342553 1_555
Ba5 Cl1 3.443827 1_545
Ba5 S8 3.533221 1_545
Ba5 S1 3.575351 1_554
Ba5 S5 3.629579 1_545
Ba6 S12 3.266402 1_655
Ba6 S8 3.297640 1_555
Ba6 S14 3.302478 1_565
Ba6 Cl1 3.330218 1_655
Ba6 S5 3.342553 1_555
Ba6 Cl2 3.443827 1_565
Ba6 S11 3.533221 1_665
Ba6 S2 3.575351 1_555
Ba6 S6 3.629579 1_665
Ba7 S13 3.266402 1_556
Ba7 S9 3.297640 1_555
Ba7 S15 3.302478 1_555
Ba7 Cl0 3.330218 1_555
Ba7 S4 3.342553 1_555
Ba7 Cl3 3.443827 1_555
Ba7 S10 3.533221 1_555
Ba7 S3 3.575351 1_556
Ba7 S7 3.629579 1_555
Ba8 S12 3.266402 1_655
Ba8 S8 3.297640 1_555
Ba8 S14 3.302478 1_555
Ba8 Cl1 3.330218 1_655
Ba8 S3 3.342553 1_555
Ba8 Cl2 3.443827 1_555
Ba8 S11 3.533221 1_655
Ba8 S4 3.575351 1_555
Ba8 S0 3.629579 1_655
Ba9 S13 3.266402 1_556
Ba9 S9 3.297640 1_555
Ba9 S15 3.302478 1_565
Ba9 Cl0 3.330218 1_555
Ba9 S2 3.342553 1_555
Ba9 Cl3 3.443827 1_565
Ba9 S10 3.533221 1_565
Ba9 S5 3.575351 1_556
Ba9 S1 3.629579 1_565
Ba10 S14 3.266402 1_455
Ba10 S10 3.297640 1_555
Ba10 S12 3.302478 1_545
Ba10 Cl3 3.330218 1_455
Ba10 S1 3.342553 1_555
Ba10 Cl0 3.443827 1_545
Ba10 S9 3.533221 1_445
Ba10 S6 3.575351 1_555
Ba10 S2 3.629579 1_445
Ba11 S15 3.266402 1_554
Ba11 S11 3.297640 1_555
Ba11 S13 3.302478 1_555
Ba11 Cl2 3.330218 1_555
Ba11 S0 3.342553 1_555
Ba11 Cl1 3.443827 1_555
Ba11 S8 3.533221 1_555
Ba11 S7 3.575351 1_554
Ba11 S3 3.629579 1_555
Ga0 S2 2.239276 1_555
Ga0 S4 2.239276 1_555
Ga0 S12 2.271046 1_655
Ga0 S9 2.272747 1_555
Ga1 S3 2.239276 1_555
Ga1 S5 2.239276 1_555
Ga1 S13 2.271046 1_555
Ga1 S8 2.272747 1_555
Ga2 S0 2.239276 1_555
Ga2 S6 2.239276 1_555
Ga2 S14 2.271046 1_455
Ga2 S11 2.272747 1_555
Ga3 S1 2.239276 1_555
Ga3 S7 2.239276 1_555
Ga3 S15 2.271046 1_555
Ga3 S10 2.272747 1_555
