# generated using pymatgen
data_LiMg
_symmetry_space_group_name_H-M   'P 1'
_cell_length_a   5.36440338
_cell_length_b   5.36440338
_cell_length_c   5.01774090
_cell_angle_alpha   90.00000000
_cell_angle_beta   90.00000000
_cell_angle_gamma   119.72646320
_symmetry_Int_Tables_number   1
_chemical_formula_structural   LiMg
_chemical_formula_sum   'Li3 Mg3'
_cell_volume   125.39268275
_cell_formula_units_Z   3
loop_
 _symmetry_equiv_pos_site_id
 _symmetry_equiv_pos_as_xyz
  1  'x, y, z'
loop_
 _atom_site_type_symbol
 _atom_site_label
 _atom_site_symmetry_multiplicity
 _atom_site_fract_x
 _atom_site_fract_y
 _atom_site_fract_z
 _atom_site_occupancy
  Li  Li0  1  0.33370657  0.33370657  -0.00000000  1
  Li  Li1  1  0.66750507  0.33416309  0.50000000  1
  Li  Li2  1  0.33416309  0.66750507  0.50000000  1
  Mg  Mg0  1  0.66093527  0.99818730  0.00000000  1
  Mg  Mg1  1  0.99818730  0.66093527  0.00000000  1
  Mg  Mg2  1  0.00550171  0.00550171  0.50000000  1
loop_
_geom_bond_atom_site_label_1
_geom_bond_atom_site_label_2
_geom_bond_distance
_geom_bond_site_symmetry_2
Li0 Mg2 3.069184 1_555
Li0 Mg2 3.069184 1_554
Li0 Mg0 3.074764 1_545
Li0 Mg1 3.074764 1_455
Li0 Li1 3.081630 1_555
Li0 Li2 3.081630 1_554
Li0 Li2 3.081630 1_555
Li0 Li1 3.081630 1_554
Li0 Mg0 3.095482 1_555
Li0 Mg1 3.095482 1_555
Li0 Mg0 3.134096 1_445
Li0 Mg1 3.134096 1_445
Li1 Mg1 3.070860 1_555
Li1 Mg1 3.070860 1_556
Li1 Mg0 3.079123 1_545
Li1 Mg0 3.079123 1_546
Li1 Mg2 3.083918 1_555
Li1 Mg2 3.092925 1_655
Li1 Li2 3.092943 1_555
Li1 Li2 3.105637 1_545
Li1 Li2 3.105637 1_655
Li1 Mg2 3.127525 1_665
Li2 Mg0 3.070860 1_556
Li2 Mg0 3.070860 1_555
Li2 Mg1 3.079123 1_456
Li2 Mg1 3.079123 1_455
Li2 Mg2 3.083918 1_555
Li2 Mg2 3.092925 1_565
Li2 Mg2 3.127525 1_665
Mg0 Mg1 3.087732 1_565
Mg0 Mg1 3.087732 1_455
Mg0 Mg2 3.104932 1_664
Mg0 Mg2 3.104932 1_665
Mg0 Mg1 3.129223 1_555
Mg1 Mg2 3.104932 1_664
Mg1 Mg2 3.104932 1_665
