# generated using pymatgen
data_W2(CN2)3
_symmetry_space_group_name_H-M   'P 1'
_cell_length_a   10.72646168
_cell_length_b   5.08501970
_cell_length_c   30.94938149
_cell_angle_alpha   90.00000389
_cell_angle_beta   164.11864387
_cell_angle_gamma   76.28858939
_symmetry_Int_Tables_number   1
_chemical_formula_structural   W2(CN2)3
_chemical_formula_sum   'W4 C6 N12'
_cell_volume   230.83534107
_cell_formula_units_Z   2
loop_
 _symmetry_equiv_pos_site_id
 _symmetry_equiv_pos_as_xyz
  1  'x, y, z'
loop_
 _atom_site_type_symbol
 _atom_site_label
 _atom_site_symmetry_multiplicity
 _atom_site_fract_x
 _atom_site_fract_y
 _atom_site_fract_z
 _atom_site_occupancy
  W  W0  1  0.00083900  0.99958000  0.16692700  1
  W  W1  1  0.00083900  0.99958100  0.66692700  1
  W  W2  1  0.99916400  0.00043600  0.83309300  1
  W  W3  1  0.99916400  0.00040000  0.33309300  1
  C  C0  1  0.00439500  0.66501000  0.08485400  1
  C  C1  1  0.99998300  0.66549500  0.75000300  1
  C  C2  1  0.99562100  0.66940100  0.41517000  1
  C  C3  1  0.00439500  0.33059400  0.58485400  1
  C  C4  1  0.99562100  0.33497700  0.91517000  1
  C  C5  1  0.99998300  0.33452200  0.25000300  1
  N  N0  1  0.96357400  0.69682900  0.11109000  1
  N  N1  1  0.05405000  0.64285800  0.80786800  1
  N  N2  1  0.98194500  0.66047400  0.45044300  1
  N  N3  1  0.96357400  0.33959800  0.61109000  1
  N  N4  1  0.98194500  0.35758000  0.95044300  1
  N  N5  1  0.05405000  0.30309200  0.30786800  1
  N  N6  1  0.03638900  0.30319600  0.88891600  1
  N  N7  1  0.94592100  0.35719400  0.19214000  1
  N  N8  1  0.01811800  0.33951100  0.54959700  1
  N  N9  1  0.03638900  0.66041600  0.38891600  1
  N  N10  1  0.01811800  0.64237100  0.04959700  1
  N  N11  1  0.94592100  0.69688400  0.69214000  1
loop_
_geom_bond_atom_site_label_1
_geom_bond_atom_site_label_2
_geom_bond_distance
_geom_bond_site_symmetry_2
C0 N10 1.235535 1_555
C0 N0 1.235955 1_455
C1 N11 1.235810 1_555
C1 N1 1.235824 1_655
C2 N2 1.235540 1_555
C2 N9 1.235959 1_655
C3 N8 1.235535 1_555
C3 N3 1.235954 1_455
C4 N4 1.235540 1_555
C4 N6 1.235958 1_655
C5 N7 1.235810 1_555
C5 N5 1.235824 1_655
N0 W0 2.116399 1_655
N0 W2 2.153487 1_464
N1 W0 2.117240 1_646
N1 W2 2.153824 1_465
N2 W0 2.116499 1_555
N2 W2 2.153226 1_655
N3 W1 2.116403 1_645
N3 W3 2.153485 1_465
N4 W1 2.116501 1_555
N4 W3 2.153228 1_656
N5 W1 2.117240 1_645
N5 W3 2.153824 1_455
N6 W2 2.116341 1_455
N6 W0 2.153537 1_646
N7 W2 2.117142 1_464
N7 W0 2.153879 1_645
N8 W2 2.116441 1_555
N8 W0 2.153289 1_455
N9 W3 2.116337 1_465
N9 W1 2.153539 1_645
N10 W3 2.116441 1_555
N10 W1 2.153289 1_454
N11 W3 2.117140 1_465
N11 W1 2.153883 1_655
