# generated using pymatgen
data_Mn4Nb2O9
_symmetry_space_group_name_H-M   'P 1'
_cell_length_a   5.73055574
_cell_length_b   5.73055574
_cell_length_c   13.42083783
_cell_angle_alpha   87.59318731
_cell_angle_beta   87.59318731
_cell_angle_gamma   56.21571357
_symmetry_Int_Tables_number   1
_chemical_formula_structural   Mn4Nb2O9
_chemical_formula_sum   'Mn8 Nb4 O18'
_cell_volume   365.89204960
_cell_formula_units_Z   2
loop_
 _symmetry_equiv_pos_site_id
 _symmetry_equiv_pos_as_xyz
  1  'x, y, z'
loop_
 _atom_site_type_symbol
 _atom_site_label
 _atom_site_symmetry_multiplicity
 _atom_site_fract_x
 _atom_site_fract_y
 _atom_site_fract_z
 _atom_site_occupancy
  Mn  Mn0  1  0.99471600  0.99643900  0.49895100  1
  Mn  Mn1  1  0.99643900  0.99471600  0.99895100  1
  Mn  Mn2  1  0.95185200  0.96203100  0.73830200  1
  Mn  Mn3  1  0.62585800  0.61184400  0.40458000  1
  Mn  Mn4  1  0.29325800  0.29242300  0.07403600  1
  Mn  Mn5  1  0.96203100  0.95185200  0.23830200  1
  Mn  Mn6  1  0.61184400  0.62585800  0.90458000  1
  Mn  Mn7  1  0.29242300  0.29325800  0.57403600  1
  Nb  Nb0  1  0.67409200  0.66210600  0.16225600  1
  Nb  Nb1  1  0.32286400  0.34161800  0.84034300  1
  Nb  Nb2  1  0.66210600  0.67409200  0.66225600  1
  Nb  Nb3  1  0.34161800  0.32286400  0.34034300  1
  O  O0  1  0.72001400  0.97098400  0.60381900  1
  O  O1  1  0.40293900  0.65261900  0.25763300  1
  O  O2  1  0.05570500  0.32269200  0.92279000  1
  O  O3  1  0.74739200  0.17493600  0.36879500  1
  O  O4  1  0.44222500  0.82205400  0.04732200  1
  O  O5  1  0.10144300  0.48418600  0.71353500  1
  O  O6  1  0.25936700  0.57248600  0.45640700  1
  O  O7  1  0.89937500  0.27314300  0.13252200  1
  O  O8  1  0.57374500  0.93920600  0.79666100  1
  O  O9  1  0.27314300  0.89937500  0.63252200  1
  O  O10  1  0.93920600  0.57374500  0.29666100  1
  O  O11  1  0.57248600  0.25936700  0.95640700  1
  O  O12  1  0.82205400  0.44222500  0.54732200  1
  O  O13  1  0.48418600  0.10144300  0.21353500  1
  O  O14  1  0.17493600  0.74739200  0.86879500  1
  O  O15  1  0.32269200  0.05570500  0.42279000  1
  O  O16  1  0.97098400  0.72001400  0.10381900  1
  O  O17  1  0.65261900  0.40293900  0.75763300  1
loop_
_geom_bond_atom_site_label_1
_geom_bond_atom_site_label_2
_geom_bond_distance
_geom_bond_site_symmetry_2
Mn0 O6 2.115311 1_655
Mn0 O0 2.128907 1_555
Mn0 O3 2.133524 1_565
Mn0 O12 2.280501 1_565
Mn0 O15 2.282977 1_665
Mn0 O9 2.288702 1_655
Mn1 O11 2.115311 1_565
Mn1 O16 2.128907 1_556
Mn1 O14 2.133524 1_655
Mn1 O4 2.280501 1_656
Mn1 O2 2.282977 1_665
Mn1 O7 2.288702 1_566
Mn2 O14 2.114877 1_655
Mn2 O17 2.142644 1_565
Mn2 O9 2.149963 1_655
Mn2 O0 2.267838 1_555
Mn2 O8 2.342962 1_555
Mn2 O5 2.405332 1_655
Mn3 O15 2.156335 1_565
Mn3 O12 2.165172 1_555
Mn3 O10 2.177597 1_555
Mn3 O3 2.262294 1_555
Mn3 O6 2.310073 1_555
Mn3 O1 2.327399 1_555
Mn4 O16 2.135914 1_455
Mn4 O11 2.136442 1_554
Mn4 O13 2.137339 1_555
Mn4 O4 2.370501 1_545
Mn4 O7 2.417518 1_455
Mn4 O2 2.437917 1_554
Mn5 O3 2.114877 1_565
Mn5 O1 2.142644 1_655
Mn5 O7 2.149963 1_565
Mn5 O16 2.267838 1_555
Mn5 O10 2.342962 1_555
Mn5 O13 2.405332 1_565
Mn6 O2 2.156335 1_655
Mn6 O4 2.165172 1_556
Mn6 O8 2.177597 1_555
Mn6 O14 2.262294 1_555
Mn6 O11 2.310073 1_555
Mn6 O17 2.327399 1_555
Mn7 O0 2.135914 1_545
Mn7 O6 2.136442 1_555
Mn7 O5 2.137339 1_555
Mn7 O12 2.370501 1_455
Mn7 O9 2.417518 1_545
Mn7 O15 2.437917 1_555
Nb0 O7 1.904049 1_555
Nb0 O4 1.919354 1_555
Nb0 O1 1.994237 1_555
Nb0 O16 2.028248 1_555
Nb0 O13 2.243213 1_565
Nb0 O10 2.261907 1_555
Nb1 O2 1.900604 1_555
Nb1 O11 2.017524 1_555
Nb1 O8 2.020913 1_545
Nb1 O5 2.021274 1_555
Nb1 O14 2.031416 1_555
Nb1 O17 2.335834 1_555
Nb2 O9 1.904049 1_555
Nb2 O12 1.919354 1_555
Nb2 O17 1.994237 1_555
Nb2 O0 2.028248 1_555
Nb2 O5 2.243213 1_655
Nb2 O8 2.261907 1_555
Nb3 O15 1.900604 1_555
Nb3 O6 2.017524 1_555
Nb3 O10 2.020913 1_455
Nb3 O13 2.021274 1_555
Nb3 O3 2.031416 1_555
Nb3 O1 2.335834 1_555
