# generated using pymatgen
data_Ta5Ni
_symmetry_space_group_name_H-M   'P 1'
_cell_length_a   8.40810208
_cell_length_b   8.40810208
_cell_length_c   8.40810208
_cell_angle_alpha   60.00000000
_cell_angle_beta   60.00000000
_cell_angle_gamma   60.00000000
_symmetry_Int_Tables_number   1
_chemical_formula_structural   Ta5Ni
_chemical_formula_sum   'Ta20 Ni4'
_cell_volume   420.31891050
_cell_formula_units_Z   4
loop_
 _symmetry_equiv_pos_site_id
 _symmetry_equiv_pos_as_xyz
  1  'x, y, z'
loop_
 _atom_site_type_symbol
 _atom_site_label
 _atom_site_symmetry_multiplicity
 _atom_site_fract_x
 _atom_site_fract_y
 _atom_site_fract_z
 _atom_site_occupancy
  Ta  Ta0  1  0.75885300  0.41371600  0.41371600  1
  Ta  Ta1  1  0.41371600  0.75885300  0.41371600  1
  Ta  Ta2  1  0.41371600  0.41371600  0.75885300  1
  Ta  Ta3  1  0.41371600  0.41371600  0.41371600  1
  Ta  Ta4  1  0.49114700  0.83628400  0.83628400  1
  Ta  Ta5  1  0.83628400  0.49114700  0.83628400  1
  Ta  Ta6  1  0.83628400  0.83628400  0.49114700  1
  Ta  Ta7  1  0.83628400  0.83628400  0.83628400  1
  Ta  Ta8  1  0.81321600  0.81321600  0.18678400  1
  Ta  Ta9  1  0.18678400  0.18678400  0.81321600  1
  Ta  Ta10  1  0.81321600  0.18678400  0.81321600  1
  Ta  Ta11  1  0.18678400  0.81321600  0.18678400  1
  Ta  Ta12  1  0.18678400  0.81321600  0.81321600  1
  Ta  Ta13  1  0.81321600  0.18678400  0.18678400  1
  Ta  Ta14  1  0.43678400  0.43678400  0.06321600  1
  Ta  Ta15  1  0.06321600  0.06321600  0.43678400  1
  Ta  Ta16  1  0.43678400  0.06321600  0.43678400  1
  Ta  Ta17  1  0.06321600  0.43678400  0.06321600  1
  Ta  Ta18  1  0.06321600  0.43678400  0.43678400  1
  Ta  Ta19  1  0.43678400  0.06321600  0.06321600  1
  Ni  Ni0  1  0.12500000  0.62500000  0.62500000  1
  Ni  Ni1  1  0.62500000  0.12500000  0.62500000  1
  Ni  Ni2  1  0.62500000  0.62500000  0.12500000  1
  Ni  Ni3  1  0.62500000  0.62500000  0.62500000  1
loop_
_geom_bond_atom_site_label_1
_geom_bond_atom_site_label_2
_geom_bond_distance
_geom_bond_site_symmetry_2
Ta0 Ta18 2.766704 1_655
Ta0 Ta17 2.766709 1_655
Ta0 Ta15 2.766709 1_655
Ta0 Ta3 2.901947 1_555
Ta0 Ta1 2.901947 1_555
Ta0 Ta2 2.901947 1_555
Ta0 Ta10 3.063778 1_555
Ta0 Ta8 3.063778 1_555
Ta0 Ta13 3.063785 1_555
Ta1 Ta16 2.766704 1_565
Ta1 Ta15 2.766709 1_565
Ta1 Ta19 2.766709 1_565
Ta1 Ta3 2.901947 1_555
Ta1 Ta2 2.901947 1_555
Ta1 Ta12 3.063778 1_555
Ta1 Ta8 3.063778 1_555
Ta1 Ta11 3.063785 1_555
Ta2 Ta3 2.901947 1_555
Ta2 Ta9 3.063785 1_555
Ta3 Ta9 3.063781 1_555
Ta4 Ta9 2.766709 1_565
Ta4 Ta5 2.901947 1_555
Ta4 Ta6 2.901947 1_555
Ta4 Ta7 2.901947 1_555
Ta5 Ta9 2.766709 1_655
Ta5 Ta6 2.901947 1_555
Ta5 Ta7 2.901947 1_555
Ta6 Ta8 2.766704 1_555
Ta6 Ta7 2.901947 1_555
Ta7 Ta8 2.766713 1_556
Ta10 Ta5 2.766704 1_555
Ta10 Ta7 2.766713 1_545
Ta10 Ta2 3.063778 1_555
Ta10 Ta12 3.140998 1_645
Ta10 Ta13 3.140998 1_556
Ta10 Ta8 3.140998 1_546
Ta10 Ta9 3.140998 1_655
Ta10 Ta15 3.157072 1_655
Ta10 Ta19 3.157072 1_556
Ta10 Ta14 3.157072 1_556
Ta10 Ta18 3.157072 1_655
Ta11 Ta6 2.766709 1_455
Ta11 Ta4 2.766709 1_554
Ta11 Ta3 3.063781 1_555
Ta11 Ta9 3.140998 1_564
Ta11 Ta13 3.140998 1_465
Ta11 Ta12 3.140998 1_554
Ta11 Ta8 3.140998 1_455
Ta11 Ta14 3.157072 1_555
Ta11 Ta18 3.157072 1_555
Ta11 Ta15 3.157072 1_565
Ta11 Ta19 3.157072 1_565
Ta12 Ta4 2.766704 1_555
Ta12 Ta7 2.766713 1_455
Ta12 Ta2 3.063778 1_555
Ta12 Ta9 3.140998 1_565
Ta12 Ta8 3.140998 1_456
Ta12 Ta17 3.157072 1_556
Ta12 Ta15 3.157072 1_565
Ta12 Ta14 3.157072 1_556
Ta12 Ta16 3.157072 1_565
Ta13 Ta5 2.766709 1_554
Ta13 Ta6 2.766709 1_545
Ta13 Ta3 3.063781 1_555
Ta13 Ta9 3.140998 1_654
Ta13 Ta8 3.140998 1_545
Ta13 Ta14 3.157072 1_555
Ta13 Ta16 3.157072 1_555
Ta13 Ta17 3.157072 1_655
Ta13 Ta15 3.157072 1_655
Ta14 Ta2 2.766704 1_554
Ta14 Ta3 2.766713 1_555
Ta14 Ta4 3.063778 1_554
Ta14 Ta5 3.063778 1_554
Ta14 Ta18 3.140998 1_555
Ta14 Ta17 3.140998 1_555
Ta14 Ta16 3.140998 1_555
Ta14 Ta19 3.140998 1_555
Ta15 Ta7 3.063781 1_445
Ta15 Ta6 3.063785 1_445
Ta15 Ta18 3.140998 1_555
Ta15 Ta17 3.140998 1_555
Ta15 Ta16 3.140998 1_555
Ta15 Ta19 3.140998 1_555
Ta16 Ta3 2.766713 1_555
Ta16 Ta4 3.063778 1_545
Ta16 Ta6 3.063778 1_545
Ta16 Ta18 3.140998 1_555
Ta16 Ta19 3.140998 1_555
Ta16 Ta9 3.157072 1_555
Ta16 Ta8 3.157072 1_545
Ta17 Ta2 2.766709 1_554
Ta17 Ta7 3.063781 1_454
Ta17 Ta5 3.063785 1_454
Ta17 Ta18 3.140998 1_555
Ta17 Ta19 3.140998 1_555
Ta17 Ta8 3.157072 1_455
Ta17 Ta9 3.157072 1_554
Ta18 Ta3 2.766713 1_555
Ta18 Ta5 3.063778 1_455
Ta18 Ta6 3.063778 1_455
Ta18 Ta9 3.157072 1_555
Ta18 Ta8 3.157072 1_455
Ta19 Ta2 2.766709 1_554
Ta19 Ta7 3.063781 1_544
Ta19 Ta4 3.063785 1_544
Ta19 Ta8 3.157072 1_545
Ta19 Ta9 3.157072 1_554
Ni0 Ta7 2.595334 1_455
Ni0 Ta3 2.595334 1_555
Ni0 Ta1 2.595339 1_555
Ni0 Ta2 2.595339 1_555
Ni0 Ta5 2.595339 1_455
Ni0 Ta6 2.595339 1_455
Ni0 Ta12 3.070403 1_555
Ni0 Ta17 3.070403 1_556
Ni0 Ta15 3.070403 1_565
Ni0 Ta18 3.070403 1_555
Ni0 Ta11 3.070403 1_555
Ni0 Ta9 3.070403 1_555
Ni1 Ta7 2.595334 1_545
Ni1 Ta3 2.595334 1_555
Ni1 Ta0 2.595339 1_555
Ni1 Ta2 2.595339 1_555
Ni1 Ta6 2.595339 1_545
Ni1 Ta4 2.595339 1_545
Ni1 Ta10 3.070403 1_555
Ni1 Ta15 3.070403 1_655
Ni1 Ta19 3.070403 1_556
Ni1 Ta16 3.070403 1_555
Ni1 Ta13 3.070403 1_555
Ni1 Ta9 3.070403 1_555
Ni2 Ta7 2.595334 1_554
Ni2 Ta3 2.595334 1_555
Ni2 Ta0 2.595339 1_555
Ni2 Ta1 2.595339 1_555
Ni2 Ta4 2.595339 1_554
Ni2 Ta5 2.595339 1_554
Ni2 Ta8 3.070403 1_555
Ni2 Ta19 3.070403 1_565
Ni2 Ta17 3.070403 1_655
Ni2 Ta14 3.070403 1_555
Ni2 Ta13 3.070403 1_555
Ni2 Ta11 3.070403 1_555
Ni3 Ta4 2.595332 1_555
Ni3 Ta5 2.595332 1_555
Ni3 Ta6 2.595332 1_555
Ni3 Ta2 2.595332 1_555
Ni3 Ta0 2.595332 1_555
Ni3 Ta1 2.595332 1_555
Ni3 Ta14 3.070403 1_556
Ni3 Ta16 3.070403 1_565
Ni3 Ta18 3.070403 1_655
Ni3 Ta12 3.070403 1_555
Ni3 Ta10 3.070403 1_555
Ni3 Ta8 3.070403 1_555
