# generated using pymatgen
data_Be3Si3C4SO12
_symmetry_space_group_name_H-M   'P 1'
_cell_length_a   8.02143700
_cell_length_b   8.02143700
_cell_length_c   8.02143700
_cell_angle_alpha   90.00000000
_cell_angle_beta   90.00000000
_cell_angle_gamma   90.00000000
_symmetry_Int_Tables_number   1
_chemical_formula_structural   Be3Si3C4SO12
_chemical_formula_sum   'Be6 Si6 C8 S2 O24'
_cell_volume   516.12694293
_cell_formula_units_Z   2
loop_
 _symmetry_equiv_pos_site_id
 _symmetry_equiv_pos_as_xyz
  1  'x, y, z'
loop_
 _atom_site_type_symbol
 _atom_site_label
 _atom_site_symmetry_multiplicity
 _atom_site_fract_x
 _atom_site_fract_y
 _atom_site_fract_z
 _atom_site_occupancy
  Be  Be0  1  0.25000000  0.00000000  0.50000000  1
  Be  Be1  1  0.75000000  0.00000000  0.50000000  1
  Be  Be2  1  0.50000000  0.25000000  0.00000000  1
  Be  Be3  1  0.50000000  0.75000000  0.00000000  1
  Be  Be4  1  0.00000000  0.50000000  0.25000000  1
  Be  Be5  1  0.00000000  0.50000000  0.75000000  1
  Si  Si0  1  0.25000000  0.50000000  0.00000000  1
  Si  Si1  1  0.75000000  0.50000000  0.00000000  1
  Si  Si2  1  0.00000000  0.25000000  0.50000000  1
  Si  Si3  1  0.00000000  0.75000000  0.50000000  1
  Si  Si4  1  0.50000000  0.00000000  0.25000000  1
  Si  Si5  1  0.50000000  0.00000000  0.75000000  1
  C  C0  1  0.16951800  0.16951800  0.16951800  1
  C  C1  1  0.83048200  0.83048200  0.16951800  1
  C  C2  1  0.83048200  0.16951800  0.83048200  1
  C  C3  1  0.66951800  0.66951800  0.66951800  1
  C  C4  1  0.16951800  0.83048200  0.83048200  1
  C  C5  1  0.33048200  0.33048200  0.66951800  1
  C  C6  1  0.66951800  0.33048200  0.33048200  1
  C  C7  1  0.33048200  0.66951800  0.33048200  1
  S  S0  1  0.00000000  0.00000000  0.00000000  1
  S  S1  1  0.50000000  0.50000000  0.50000000  1
  O  O0  1  0.13796600  0.13617800  0.39923100  1
  O  O1  1  0.86203400  0.86382200  0.39923100  1
  O  O2  1  0.86203400  0.13617800  0.60076900  1
  O  O3  1  0.39923100  0.13796600  0.13617800  1
  O  O4  1  0.63617800  0.63796600  0.89923100  1
  O  O5  1  0.13796600  0.86382200  0.60076900  1
  O  O6  1  0.39923100  0.86203400  0.86382200  1
  O  O7  1  0.36382200  0.36203400  0.89923100  1
  O  O8  1  0.60076900  0.86203400  0.13617800  1
  O  O9  1  0.63617800  0.36203400  0.10076900  1
  O  O10  1  0.60076900  0.13796600  0.86382200  1
  O  O11  1  0.36382200  0.63796600  0.10076900  1
  O  O12  1  0.13617800  0.39923100  0.13796600  1
  O  O13  1  0.63796600  0.89923100  0.63617800  1
  O  O14  1  0.13617800  0.60076900  0.86203400  1
  O  O15  1  0.36203400  0.10076900  0.63617800  1
  O  O16  1  0.86382200  0.60076900  0.13796600  1
  O  O17  1  0.63796600  0.10076900  0.36382200  1
  O  O18  1  0.86382200  0.39923100  0.86203400  1
  O  O19  1  0.36203400  0.89923100  0.36382200  1
  O  O20  1  0.89923100  0.63617800  0.63796600  1
  O  O21  1  0.89923100  0.36382200  0.36203400  1
  O  O22  1  0.10076900  0.36382200  0.63796600  1
  O  O23  1  0.10076900  0.63617800  0.36203400  1
loop_
_geom_bond_atom_site_label_1
_geom_bond_atom_site_label_2
_geom_bond_distance
_geom_bond_site_symmetry_2
Be0 O19 1.629171 1_545
Be0 O15 1.629171 1_555
Be0 O0 1.629171 1_555
Be0 O5 1.629171 1_545
Be1 O2 1.629171 1_555
Be1 O1 1.629171 1_545
Be1 O17 1.629171 1_555
Be1 O13 1.629171 1_545
Be2 O9 1.629171 1_555
Be2 O7 1.629171 1_554
Be2 O3 1.629171 1_555
Be2 O10 1.629171 1_554
Be3 O6 1.629171 1_554
Be3 O8 1.629171 1_555
Be3 O4 1.629171 1_554
Be3 O11 1.629171 1_555
Be4 O23 1.629171 1_555
Be4 O21 1.629171 1_455
Be4 O12 1.629171 1_555
Be4 O16 1.629171 1_455
Be5 O18 1.629171 1_455
Be5 O14 1.629171 1_555
Be5 O22 1.629171 1_555
Be5 O20 1.629171 1_455
C0 O12 1.879057 1_555
C0 O0 1.879057 1_555
C0 O3 1.879057 1_555
C0 S0 2.355205 1_555
C1 O8 1.879057 1_555
C1 O16 1.879057 1_555
C1 O1 1.879057 1_555
C1 S0 2.355205 1_665
C2 O10 1.879057 1_555
C2 O2 1.879057 1_555
C2 O18 1.879057 1_555
C2 S0 2.355205 1_656
C3 O20 1.879057 1_555
C3 O4 1.879057 1_555
C3 O13 1.879057 1_555
C3 S1 2.355205 1_555
C4 O14 1.879057 1_555
C4 O5 1.879057 1_555
C4 O6 1.879057 1_555
C4 S0 2.355205 1_566
C5 O15 1.879057 1_555
C5 O7 1.879057 1_555
C5 O22 1.879057 1_555
C5 S1 2.355205 1_555
C6 O9 1.879057 1_555
C6 O21 1.879057 1_555
C6 O17 1.879057 1_555
C6 S1 2.355205 1_555
C7 O23 1.879057 1_555
C7 O19 1.879057 1_555
C7 O11 1.879057 1_555
C7 S1 2.355205 1_555
O0 Si2 1.646730 1_555
O1 Si3 1.646730 1_655
O2 Si2 1.646730 1_655
O3 Si4 1.646730 1_555
O4 Si1 1.646730 1_556
O5 Si3 1.646730 1_555
O6 Si5 1.646730 1_565
O7 Si0 1.646730 1_556
O8 Si4 1.646730 1_565
O9 Si1 1.646730 1_555
O10 Si5 1.646730 1_555
O11 Si0 1.646730 1_555
O12 Si0 1.646730 1_555
O13 Si5 1.646730 1_565
O14 Si0 1.646730 1_556
O15 Si5 1.646730 1_555
O16 Si1 1.646730 1_555
O17 Si4 1.646730 1_555
O18 Si1 1.646730 1_556
O19 Si4 1.646730 1_565
O20 Si3 1.646730 1_655
O21 Si2 1.646730 1_655
O22 Si2 1.646730 1_555
O23 Si3 1.646730 1_555
