# generated using pymatgen
data_SmSe
_symmetry_space_group_name_H-M   'P 1'
_cell_length_a   4.65357957
_cell_length_b   4.65357957
_cell_length_c   7.50992900
_cell_angle_alpha   90.00000000
_cell_angle_beta   90.00000000
_cell_angle_gamma   119.99999386
_symmetry_Int_Tables_number   1
_chemical_formula_structural   SmSe
_chemical_formula_sum   'Sm2 Se2'
_cell_volume   140.84478712
_cell_formula_units_Z   2
loop_
 _symmetry_equiv_pos_site_id
 _symmetry_equiv_pos_as_xyz
  1  'x, y, z'
loop_
 _atom_site_type_symbol
 _atom_site_label
 _atom_site_symmetry_multiplicity
 _atom_site_fract_x
 _atom_site_fract_y
 _atom_site_fract_z
 _atom_site_occupancy
  Sm  Sm0  1  0.66666700  0.33333300  0.50143000  1
  Sm  Sm1  1  0.33333300  0.66666700  0.00143000  1
  Se  Se0  1  0.66666700  0.33333300  0.12357000  1
  Se  Se1  1  0.33333300  0.66666700  0.62357000  1
loop_
_geom_bond_atom_site_label_1
_geom_bond_atom_site_label_2
_geom_bond_distance
_geom_bond_site_symmetry_2
Se0 Sm0 2.837702 1_555
Se0 Sm1 2.839007 1_545
Se0 Sm1 2.839007 1_655
Se0 Sm1 2.839014 1_555
Se1 Sm1 2.837702 1_556
Se1 Sm0 2.839007 1_455
Se1 Sm0 2.839007 1_565
Se1 Sm0 2.839014 1_555
