# generated using pymatgen
data_LaHgPd
_symmetry_space_group_name_H-M   'P 1'
_cell_length_a   7.83811301
_cell_length_b   7.83811497
_cell_length_c   4.03485132
_cell_angle_alpha   90.00000000
_cell_angle_beta   90.00000000
_cell_angle_gamma   120.00001462
_symmetry_Int_Tables_number   1
_chemical_formula_structural   LaHgPd
_chemical_formula_sum   'La3 Hg3 Pd3'
_cell_volume   214.67489261
_cell_formula_units_Z   3
loop_
 _symmetry_equiv_pos_site_id
 _symmetry_equiv_pos_as_xyz
  1  'x, y, z'
loop_
 _atom_site_type_symbol
 _atom_site_label
 _atom_site_symmetry_multiplicity
 _atom_site_fract_x
 _atom_site_fract_y
 _atom_site_fract_z
 _atom_site_occupancy
  La  La0  1  0.40055887  0.40055887  0.50000000  1
  La  La1  1  0.59944113  -0.00000000  0.50000000  1
  La  La2  1  -0.00000000  0.59944113  0.50000000  1
  Hg  Hg0  1  0.74061807  0.74061807  0.00000000  1
  Hg  Hg1  1  0.25938193  -0.00000000  0.00000000  1
  Hg  Hg2  1  -0.00000000  0.25938193  -0.00000000  1
  Pd  Pd0  1  0.66666700  0.33333300  -0.00000000  1
  Pd  Pd1  1  0.33333300  0.66666700  -0.00000000  1
  Pd  Pd2  1  -0.00000000  -0.00000000  0.50000000  1
loop_
_geom_bond_atom_site_label_1
_geom_bond_atom_site_label_2
_geom_bond_distance
_geom_bond_site_symmetry_2
La0 Pd0 3.130049 1_555
La0 Pd0 3.130049 1_556
La0 Pd1 3.130050 1_556
La0 Pd1 3.130050 1_555
La0 Pd2 3.139625 1_555
La1 Pd0 3.130044 1_555
La1 Pd0 3.130044 1_556
La1 Pd1 3.130045 1_545
La1 Pd1 3.130045 1_546
La1 Pd2 3.139626 1_655
La2 Pd1 3.130043 1_556
La2 Pd1 3.130043 1_555
La2 Pd0 3.130045 1_455
La2 Pd0 3.130045 1_456
La2 Pd2 3.139626 1_565
Hg0 Pd2 2.864151 1_665
Hg0 Pd2 2.864151 1_664
Hg0 Pd1 2.945616 1_555
Hg0 Pd0 2.945617 1_555
Hg0 La0 3.342825 1_555
Hg0 La0 3.342825 1_554
Hg0 La2 3.417243 1_655
Hg0 La2 3.417243 1_654
Hg0 La1 3.417243 1_565
Hg0 La1 3.417243 1_564
Hg1 Pd2 2.864151 1_555
Hg1 Pd2 2.864151 1_554
Hg1 Pd1 2.945609 1_545
Hg1 Pd0 2.945613 1_555
Hg1 La1 3.342826 1_555
Hg1 La1 3.342826 1_554
Hg1 La2 3.417243 1_544
Hg1 La2 3.417243 1_545
Hg1 La0 3.417243 1_554
Hg1 La0 3.417243 1_555
Hg2 Pd2 2.864151 1_554
Hg2 Pd2 2.864151 1_555
Hg2 Pd0 2.945608 1_455
Hg2 Pd1 2.945613 1_555
Hg2 La2 3.342826 1_555
Hg2 La2 3.342826 1_554
Hg2 La1 3.417242 1_455
Hg2 La1 3.417242 1_454
Hg2 La0 3.417242 1_555
Hg2 La0 3.417242 1_554
