# generated using pymatgen
data_RbTlP2(HO2)4
_symmetry_space_group_name_H-M   'P 1'
_cell_length_a   4.60680800
_cell_length_b   6.56866500
_cell_length_c   14.50313759
_cell_angle_alpha   88.18096279
_cell_angle_beta   90.00000000
_cell_angle_gamma   90.00000000
_symmetry_Int_Tables_number   1
_chemical_formula_structural   RbTlP2(HO2)4
_chemical_formula_sum   'Rb2 Tl2 P4 H8 O16'
_cell_volume   438.65217096
_cell_formula_units_Z   2
loop_
 _symmetry_equiv_pos_site_id
 _symmetry_equiv_pos_as_xyz
  1  'x, y, z'
loop_
 _atom_site_type_symbol
 _atom_site_label
 _atom_site_symmetry_multiplicity
 _atom_site_fract_x
 _atom_site_fract_y
 _atom_site_fract_z
 _atom_site_occupancy
  Rb  Rb0  1  0.50967200  0.26132100  0.12179200  1
  Rb  Rb1  1  0.00967200  0.73867900  0.87820800  1
  Tl  Tl0  1  0.49718000  0.73839300  0.38315700  1
  Tl  Tl1  1  0.99718000  0.26160700  0.61684300  1
  P  P0  1  0.02242500  0.24191500  0.37189200  1
  P  P1  1  0.52242500  0.75808500  0.62810800  1
  P  P2  1  0.97690600  0.75795300  0.12848700  1
  P  P3  1  0.47690600  0.24204700  0.87151300  1
  H  H0  1  0.48470100  0.24220000  0.43135000  1
  H  H1  1  0.98470100  0.75780000  0.56865000  1
  H  H2  1  0.51303100  0.75787000  0.07035400  1
  H  H3  1  0.01303100  0.24213000  0.92964600  1
  H  H4  1  0.00035200  0.99676800  0.24868600  1
  H  H5  1  0.50035200  0.00323200  0.75131400  1
  H  H6  1  0.99828700  0.50280300  0.24915200  1
  H  H7  1  0.49828700  0.49719700  0.75084800  1
  O  O0  1  0.15559000  0.39471900  0.29948300  1
  O  O1  1  0.65559000  0.60528100  0.70051700  1
  O  O2  1  0.84541200  0.60190000  0.20004300  1
  O  O3  1  0.34541200  0.39810000  0.79995700  1
  O  O4  1  0.90805400  0.04807600  0.32490100  1
  O  O5  1  0.40805400  0.95192400  0.67509900  1
  O  O6  1  0.08672800  0.95294500  0.17610800  1
  O  O7  1  0.58672800  0.04705500  0.82389200  1
  O  O8  1  0.28070300  0.17333400  0.43922500  1
  O  O9  1  0.78070300  0.82666600  0.56077500  1
  O  O10  1  0.71844500  0.82626500  0.06228200  1
  O  O11  1  0.21844500  0.17373500  0.93771800  1
  O  O12  1  0.78088400  0.33401300  0.43034500  1
  O  O13  1  0.28088400  0.66598700  0.56965500  1
  O  O14  1  0.22162900  0.66868500  0.07121000  1
  O  O15  1  0.72162900  0.33131500  0.92879000  1
loop_
_geom_bond_atom_site_label_1
_geom_bond_atom_site_label_2
_geom_bond_distance
_geom_bond_site_symmetry_2
H0 O8 1.047653 1_555
H0 O12 1.491683 1_555
H1 O9 1.047653 1_555
H1 O13 1.491683 1_655
H2 O10 1.052470 1_555
H2 O14 1.464586 1_555
H3 O11 1.052470 1_555
H3 O15 1.464586 1_455
H4 O6 1.169796 1_555
H4 O4 1.240905 1_465
H5 O7 1.169796 1_555
H5 O5 1.240905 1_545
H6 O2 1.182181 1_555
H6 O0 1.236580 1_655
H7 O3 1.182181 1_555
H7 O1 1.236580 1_555
O0 P0 1.555540 1_555
O0 Rb0 3.195820 1_555
O1 P1 1.555540 1_555
O1 Rb1 3.195820 1_655
O2 P2 1.557937 1_555
O2 Rb0 2.974262 1_555
O3 P3 1.557937 1_555
O3 Rb1 2.974262 1_555
O4 P0 1.555109 1_655
O5 P1 1.555109 1_555
O6 P2 1.558740 1_455
O6 Rb0 2.901505 1_565
O7 P3 1.558740 1_555
O7 Rb1 2.901505 1_645
O8 P0 1.595102 1_555
O9 P1 1.595102 1_555
O10 P2 1.585453 1_555
O10 Rb1 3.058676 1_654
O10 Rb0 3.161198 1_565
O11 P3 1.585453 1_555
O11 Rb0 3.058676 1_556
O11 Rb1 3.161198 1_545
O12 P0 1.534730 1_655
O13 P1 1.534730 1_555
O14 P2 1.528340 1_455
O14 Rb1 2.986349 1_554
O14 Rb0 3.055237 1_555
O15 P3 1.528340 1_555
O15 Rb0 2.986349 1_556
O15 Rb1 3.055237 1_655
