# generated using pymatgen
data_Ca5(SiO3)6
_symmetry_space_group_name_H-M   'P 1'
_cell_length_a   6.72030700
_cell_length_b   6.72159401
_cell_length_c   9.61895075
_cell_angle_alpha   92.97453217
_cell_angle_beta   98.50274368
_cell_angle_gamma   113.30042434
_symmetry_Int_Tables_number   1
_chemical_formula_structural   Ca5(SiO3)6
_chemical_formula_sum   'Ca5 Si6 O18'
_cell_volume   391.75218735
_cell_formula_units_Z   1
loop_
 _symmetry_equiv_pos_site_id
 _symmetry_equiv_pos_as_xyz
  1  'x, y, z'
loop_
 _atom_site_type_symbol
 _atom_site_label
 _atom_site_symmetry_multiplicity
 _atom_site_fract_x
 _atom_site_fract_y
 _atom_site_fract_z
 _atom_site_occupancy
  Ca  Ca0  1  0.53126400  0.27542000  0.11022200  1
  Ca  Ca1  1  0.46934400  0.72505300  0.89090200  1
  Ca  Ca2  1  0.04521300  0.04428100  0.49908500  1
  Ca  Ca3  1  0.03695000  0.76616600  0.11472600  1
  Ca  Ca4  1  0.96257800  0.23374700  0.88396200  1
  Si  Si0  1  0.69992200  0.34122000  0.56485100  1
  Si  Si1  1  0.30031700  0.65903800  0.43536900  1
  Si  Si2  1  0.96833200  0.74548900  0.78327400  1
  Si  Si3  1  0.02975600  0.25533300  0.21460500  1
  Si  Si4  1  0.39829700  0.17059900  0.77859900  1
  Si  Si5  1  0.60354300  0.82845600  0.22345000  1
  O  O0  1  0.85402800  0.21267000  0.61049600  1
  O  O1  1  0.14719100  0.78831100  0.38896300  1
  O  O2  1  0.57450200  0.10460700  0.87337000  1
  O  O3  1  0.42866500  0.89696500  0.12758100  1
  O  O4  1  0.34764800  0.34942600  0.86900700  1
  O  O5  1  0.65280800  0.65046300  0.13094700  1
  O  O6  1  0.83959700  0.84374100  0.87707900  1
  O  O7  1  0.16137600  0.15764400  0.12337900  1
  O  O8  1  0.35293400  0.67421200  0.60867100  1
  O  O9  1  0.64555700  0.32365200  0.39059100  1
  O  O10  1  0.45772000  0.23778000  0.62068600  1
  O  O11  1  0.53635600  0.75706500  0.37729400  1
  O  O12  1  0.81487300  0.59939000  0.63333800  1
  O  O13  1  0.17990800  0.39456100  0.36917800  1
  O  O14  1  0.15335600  0.95909600  0.72297700  1
  O  O15  1  0.84771200  0.04191800  0.27660600  1
  O  O16  1  0.08619800  0.61946600  0.88016000  1
  O  O17  1  0.91505300  0.38323200  0.11862900  1
loop_
_geom_bond_atom_site_label_1
_geom_bond_atom_site_label_2
_geom_bond_distance
_geom_bond_site_symmetry_2
Ca0 O5 2.309227 1_555
Ca0 O7 2.316978 1_555
Ca0 O17 2.374338 1_555
Ca0 O3 2.380100 1_545
Ca0 O2 2.604106 1_554
Ca0 O4 2.629128 1_554
Ca0 O9 2.658535 1_555
Ca1 O4 2.312624 1_555
Ca1 O6 2.320303 1_555
Ca1 O16 2.369031 1_555
Ca1 O2 2.385395 1_565
Ca1 O3 2.598810 1_556
Ca1 O5 2.621108 1_556
Ca1 O8 2.676366 1_555
Ca2 O15 2.341242 1_455
Ca2 O14 2.342729 1_545
Ca2 O1 2.347389 1_545
Ca2 O0 2.347765 1_455
Ca2 O10 2.602995 1_555
Ca2 O13 2.622591 1_555
Ca3 O17 2.376686 1_455
Ca3 O3 2.404069 1_555
Ca3 O5 2.415988 1_455
Ca3 O7 2.417890 1_565
Ca3 O16 2.533917 1_554
Ca3 O1 2.612182 1_555
Ca3 O6 2.651521 1_454
Ca4 O2 2.384702 1_555
Ca4 O16 2.393367 1_655
Ca4 O6 2.410670 1_545
Ca4 O4 2.419051 1_655
Ca4 O17 2.537407 1_556
Ca4 O0 2.604544 1_555
Ca4 O7 2.665171 1_656
O0 Si0 1.620110 1_555
O1 Si1 1.620193 1_555
O2 Si4 1.602581 1_555
O3 Si5 1.611002 1_555
O4 Si4 1.618529 1_555
O5 Si5 1.619467 1_555
O6 Si2 1.618565 1_555
O7 Si3 1.616400 1_555
O8 Si1 1.641276 1_555
O9 Si0 1.649636 1_555
O10 Si4 1.666888 1_555
O10 Si0 1.680225 1_555
O11 Si5 1.650416 1_555
O11 Si1 1.654024 1_555
O12 Si0 1.646943 1_555
O12 Si2 1.649222 1_555
O13 Si3 1.664194 1_555
O13 Si1 1.677074 1_555
O14 Si4 1.681137 1_565
O14 Si2 1.682644 1_455
O15 Si5 1.681022 1_545
O15 Si3 1.681167 1_655
O16 Si2 1.614902 1_455
O17 Si3 1.606769 1_655
