# generated using pymatgen
data_RbLiMoO5
_symmetry_space_group_name_H-M   'P 1'
_cell_length_a   7.93763600
_cell_length_b   11.06544500
_cell_length_c   12.98107700
_cell_angle_alpha   90.00000000
_cell_angle_beta   90.00000000
_cell_angle_gamma   90.00000000
_symmetry_Int_Tables_number   1
_chemical_formula_structural   RbLiMoO5
_chemical_formula_sum   'Rb8 Li8 Mo8 O40'
_cell_volume   1140.17309680
_cell_formula_units_Z   8
loop_
 _symmetry_equiv_pos_site_id
 _symmetry_equiv_pos_as_xyz
  1  'x, y, z'
loop_
 _atom_site_type_symbol
 _atom_site_label
 _atom_site_symmetry_multiplicity
 _atom_site_fract_x
 _atom_site_fract_y
 _atom_site_fract_z
 _atom_site_occupancy
  Rb  Rb0  1  0.80840000  0.70340200  0.37170700  1
  Rb  Rb1  1  0.30840000  0.29659800  0.12829300  1
  Rb  Rb2  1  0.19160000  0.79659800  0.87170700  1
  Rb  Rb3  1  0.69160000  0.20340200  0.62829300  1
  Rb  Rb4  1  0.19160000  0.29659800  0.62829300  1
  Rb  Rb5  1  0.69160000  0.70340200  0.87170700  1
  Rb  Rb6  1  0.80840000  0.20340200  0.12829300  1
  Rb  Rb7  1  0.30840000  0.79659800  0.37170700  1
  Li  Li0  1  0.98402700  0.41703400  0.32354700  1
  Li  Li1  1  0.48402700  0.58296600  0.17645300  1
  Li  Li2  1  0.01597300  0.08296600  0.82354700  1
  Li  Li3  1  0.51597300  0.91703400  0.67645300  1
  Li  Li4  1  0.01597300  0.58296600  0.67645300  1
  Li  Li5  1  0.51597300  0.41703400  0.82354700  1
  Li  Li6  1  0.98402700  0.91703400  0.17645300  1
  Li  Li7  1  0.48402700  0.08296600  0.32354700  1
  Mo  Mo0  1  0.06277300  0.62325100  0.12593600  1
  Mo  Mo1  1  0.56277400  0.37674900  0.37406400  1
  Mo  Mo2  1  0.93722600  0.87674900  0.62593600  1
  Mo  Mo3  1  0.43722700  0.12325100  0.87406400  1
  Mo  Mo4  1  0.93722600  0.37674900  0.87406400  1
  Mo  Mo5  1  0.43722700  0.62325100  0.62593600  1
  Mo  Mo6  1  0.06277300  0.12325100  0.37406400  1
  Mo  Mo7  1  0.56277400  0.87674900  0.12593600  1
  O  O0  1  0.94133500  0.51190000  0.19784200  1
  O  O1  1  0.44133500  0.48810000  0.30215800  1
  O  O2  1  0.05866500  0.98810000  0.69784200  1
  O  O3  1  0.55866500  0.01190000  0.80215800  1
  O  O4  1  0.05866500  0.48810000  0.80215800  1
  O  O5  1  0.55866500  0.51190000  0.69784200  1
  O  O6  1  0.94133500  0.01190000  0.30215800  1
  O  O7  1  0.44133500  0.98810000  0.19784200  1
  O  O8  1  0.96686600  0.66200000  0.00777600  1
  O  O9  1  0.46686600  0.33800000  0.49222400  1
  O  O10  1  0.03313400  0.83800000  0.50777600  1
  O  O11  1  0.53313400  0.16200000  0.99222400  1
  O  O12  1  0.03313400  0.33800000  0.99222400  1
  O  O13  1  0.53313400  0.66200000  0.50777600  1
  O  O14  1  0.96686600  0.16200000  0.49222400  1
  O  O15  1  0.46686600  0.83800000  0.00777600  1
  O  O16  1  0.07353100  0.75823400  0.20446300  1
  O  O17  1  0.57353100  0.24176600  0.29553700  1
  O  O18  1  0.92646900  0.74176600  0.70446300  1
  O  O19  1  0.42646900  0.25823400  0.79553700  1
  O  O20  1  0.92646900  0.24176600  0.79553700  1
  O  O21  1  0.42646900  0.75823400  0.70446300  1
  O  O22  1  0.07353100  0.25823400  0.29553700  1
  O  O23  1  0.57353100  0.74176600  0.20446300  1
  O  O24  1  0.27375900  0.56727500  0.10285900  1
  O  O25  1  0.77375900  0.43272500  0.39714100  1
  O  O26  1  0.72624100  0.93272500  0.60285900  1
  O  O27  1  0.22624100  0.06727500  0.89714100  1
  O  O28  1  0.72624100  0.43272500  0.89714100  1
  O  O29  1  0.22624100  0.56727500  0.60285900  1
  O  O30  1  0.27375900  0.06727500  0.39714100  1
  O  O31  1  0.77375900  0.93272500  0.10285900  1
  O  O32  1  0.14519700  0.54369900  0.39606600  1
  O  O33  1  0.64519700  0.45630100  0.10393400  1
  O  O34  1  0.85480300  0.95630100  0.89606600  1
  O  O35  1  0.35480300  0.04369900  0.60393400  1
  O  O36  1  0.85480300  0.45630100  0.60393400  1
  O  O37  1  0.35480300  0.54369900  0.89606600  1
  O  O38  1  0.14519700  0.04369900  0.10393400  1
  O  O39  1  0.64519700  0.95630100  0.39606600  1
loop_
_geom_bond_atom_site_label_1
_geom_bond_atom_site_label_2
_geom_bond_distance
_geom_bond_site_symmetry_2
Li0 O22 1.929941 1_655
Li0 O25 1.930923 1_555
Li0 O0 1.969646 1_555
Li0 O32 2.118328 1_655
Li1 O23 1.929941 1_555
Li1 O24 1.930923 1_555
Li1 O1 1.969646 1_555
Li1 O33 2.118328 1_555
Li2 O20 1.929941 1_455
Li2 O27 1.930923 1_555
Li2 O2 1.969646 1_545
Li2 O34 2.118328 1_445
Li3 O21 1.929941 1_555
Li3 O26 1.930923 1_555
Li3 O3 1.969646 1_565
Li3 O35 2.118328 1_565
Li4 O18 1.929941 1_455
Li4 O29 1.930923 1_555
Li4 O4 1.969646 1_555
Li4 O36 2.118328 1_455
Li5 O19 1.929941 1_555
Li5 O28 1.930923 1_555
Li5 O5 1.969646 1_555
Li5 O37 2.118328 1_555
Li6 O16 1.929941 1_655
Li6 O31 1.930923 1_555
Li6 O6 1.969646 1_565
Li6 O38 2.118328 1_665
Li7 O17 1.929941 1_555
Li7 O30 1.930923 1_555
Li7 O7 1.969646 1_545
Li7 O39 2.118328 1_545
Mo0 O8 1.765238 1_455
Mo0 O16 1.810353 1_555
Mo0 O24 1.810557 1_555
Mo0 O0 1.821708 1_455
Mo1 O9 1.765241 1_555
Mo1 O17 1.810353 1_555
Mo1 O25 1.810549 1_555
Mo1 O1 1.821712 1_555
Mo2 O10 1.765241 1_655
Mo2 O18 1.810353 1_555
Mo2 O26 1.810549 1_555
Mo2 O2 1.821712 1_655
Mo3 O11 1.765238 1_555
Mo3 O19 1.810353 1_555
Mo3 O27 1.810557 1_555
Mo3 O3 1.821708 1_555
Mo4 O12 1.765241 1_655
Mo4 O20 1.810353 1_555
Mo4 O28 1.810549 1_555
Mo4 O4 1.821712 1_655
Mo5 O13 1.765238 1_555
Mo5 O21 1.810353 1_555
Mo5 O29 1.810557 1_555
Mo5 O5 1.821708 1_555
Mo6 O14 1.765238 1_455
Mo6 O22 1.810353 1_555
Mo6 O30 1.810557 1_555
Mo6 O6 1.821708 1_455
Mo7 O15 1.765241 1_555
Mo7 O23 1.810353 1_555
Mo7 O31 1.810549 1_555
Mo7 O7 1.821712 1_555
O0 Rb0 3.270728 1_555
O1 Rb1 3.270728 1_555
O2 Rb2 3.270728 1_555
O3 Rb3 3.270728 1_555
O4 Rb4 3.270728 1_555
O5 Rb5 3.270728 1_555
O6 Rb6 3.270728 1_555
O7 Rb7 3.270728 1_555
O8 Rb5 2.846723 1_554
O8 Rb2 2.918957 1_654
O9 Rb4 2.846723 1_555
O9 Rb3 2.918957 1_555
O10 Rb7 2.846723 1_555
O10 Rb0 2.918957 1_455
O11 Rb6 2.846723 1_556
O11 Rb1 2.918957 1_556
O12 Rb1 2.846723 1_556
O12 Rb6 2.918957 1_456
O13 Rb0 2.846723 1_555
O13 Rb7 2.918957 1_555
O14 Rb3 2.846723 1_555
O14 Rb4 2.918957 1_655
O15 Rb2 2.846723 1_554
O15 Rb5 2.918957 1_554
O16 Rb7 2.892943 1_555
O16 Rb0 3.083891 1_455
O17 Rb6 2.892943 1_555
O17 Rb1 3.083891 1_555
O18 Rb5 2.892943 1_555
O18 Rb2 3.083891 1_655
O19 Rb4 2.892943 1_555
O19 Rb3 3.083891 1_555
O20 Rb3 2.892943 1_555
O20 Rb4 3.083891 1_655
O21 Rb2 2.892943 1_555
O21 Rb5 3.083891 1_555
O22 Rb1 2.892943 1_555
O22 Rb6 3.083891 1_455
O23 Rb0 2.892943 1_555
O23 Rb7 3.083891 1_555
O24 Rb1 3.025823 1_555
O25 Rb0 3.025823 1_555
O26 Rb3 3.025823 1_565
O27 Rb2 3.025823 1_545
O28 Rb5 3.025823 1_555
O29 Rb4 3.025823 1_555
O30 Rb7 3.025823 1_545
O31 Rb6 3.025823 1_565
O32 Rb7 3.099909 1_555
O32 Rb0 3.220225 1_455
O33 Rb6 3.099909 1_555
O33 Rb1 3.220225 1_555
O34 Rb5 3.099909 1_555
O34 Rb2 3.220225 1_655
O35 Rb4 3.099909 1_555
O35 Rb3 3.220225 1_555
O36 Rb3 3.099909 1_555
O36 Rb4 3.220225 1_655
O37 Rb2 3.099909 1_555
O37 Rb5 3.220225 1_555
O38 Rb1 3.099909 1_555
O38 Rb6 3.220225 1_455
O39 Rb0 3.099909 1_555
O39 Rb7 3.220225 1_555
