# generated using pymatgen
data_Na2TlVF6
_symmetry_space_group_name_H-M   'P 1'
_cell_length_a   6.40731200
_cell_length_b   6.40731117
_cell_length_c   6.40731153
_cell_angle_alpha   60.00000200
_cell_angle_beta   59.99999759
_cell_angle_gamma   59.99999570
_symmetry_Int_Tables_number   1
_chemical_formula_structural   Na2TlVF6
_chemical_formula_sum   'Na2 Tl1 V1 F6'
_cell_volume   185.99981625
_cell_formula_units_Z   1
loop_
 _symmetry_equiv_pos_site_id
 _symmetry_equiv_pos_as_xyz
  1  'x, y, z'
loop_
 _atom_site_type_symbol
 _atom_site_label
 _atom_site_symmetry_multiplicity
 _atom_site_fract_x
 _atom_site_fract_y
 _atom_site_fract_z
 _atom_site_occupancy
  Na  Na0  1  0.25000000  0.25000000  0.25000000  1
  Na  Na1  1  0.75000000  0.75000000  0.75000000  1
  Tl  Tl0  1  0.50000000  0.50000000  0.50000000  1
  V  V0  1  0.00000000  0.00000000  0.00000000  1
  F  F0  1  0.21512700  0.78487300  0.21512700  1
  F  F1  1  0.78487300  0.78487300  0.21512700  1
  F  F2  1  0.78487300  0.21512700  0.78487300  1
  F  F3  1  0.78487300  0.21512700  0.21512700  1
  F  F4  1  0.21512700  0.78487300  0.78487300  1
  F  F5  1  0.21512700  0.21512700  0.78487300  1
loop_
_geom_bond_atom_site_label_1
_geom_bond_atom_site_label_2
_geom_bond_distance
_geom_bond_site_symmetry_2
F0 V0 1.949332 1_565
F0 Tl0 2.581322 1_555
F1 V0 1.949332 1_665
F1 Tl0 2.581322 1_555
F2 V0 1.949332 1_656
F2 Tl0 2.581322 1_555
F3 V0 1.949332 1_655
F3 Tl0 2.581321 1_555
F4 V0 1.949332 1_566
F4 Tl0 2.581321 1_555
F5 V0 1.949332 1_556
F5 Tl0 2.581322 1_555
