# generated using pymatgen
data_Rb2NdH8N5O19
_symmetry_space_group_name_H-M   'P 1'
_cell_length_a   7.16520849
_cell_length_b   7.16520849
_cell_length_c   18.35874789
_cell_angle_alpha   81.48365707
_cell_angle_beta   81.48365707
_cell_angle_gamma   78.20715841
_symmetry_Int_Tables_number   1
_chemical_formula_structural   Rb2NdH8N5O19
_chemical_formula_sum   'Rb4 Nd2 H16 N10 O38'
_cell_volume   905.69090819
_cell_formula_units_Z   2
loop_
 _symmetry_equiv_pos_site_id
 _symmetry_equiv_pos_as_xyz
  1  'x, y, z'
loop_
 _atom_site_type_symbol
 _atom_site_label
 _atom_site_symmetry_multiplicity
 _atom_site_fract_x
 _atom_site_fract_y
 _atom_site_fract_z
 _atom_site_occupancy
  Rb  Rb0  1  0.07344100  0.86240100  0.62403800  1
  Rb  Rb1  1  0.86240100  0.07344100  0.12403800  1
  Rb  Rb2  1  0.66195000  0.43711100  0.58201300  1
  Rb  Rb3  1  0.43711100  0.66195000  0.08201300  1
  Nd  Nd0  1  0.30633600  0.19623800  0.39859900  1
  Nd  Nd1  1  0.19623800  0.30633600  0.89859900  1
  H  H0  1  0.09297800  0.83952700  0.41990000  1
  H  H1  1  0.83952700  0.09297800  0.91990000  1
  H  H2  1  0.93146500  0.01809500  0.43688700  1
  H  H3  1  0.01809500  0.93146500  0.93688700  1
  H  H4  1  0.66900200  0.39896600  0.37407500  1
  H  H5  1  0.39896600  0.66900200  0.87407500  1
  H  H6  1  0.49845400  0.57142600  0.35980900  1
  H  H7  1  0.57142600  0.49845400  0.85980900  1
  H  H8  1  0.76984100  0.50705800  0.18574600  1
  H  H9  1  0.50705800  0.76984100  0.68574600  1
  H  H10  1  0.62224500  0.40527200  0.23898600  1
  H  H11  1  0.40527200  0.62224500  0.73898600  1
  H  H12  1  0.13885600  0.89128400  0.23687100  1
  H  H13  1  0.89128400  0.13885600  0.73687100  1
  H  H14  1  0.17770600  0.66938400  0.23144300  1
  H  H15  1  0.66938400  0.17770600  0.73144300  1
  N  N0  1  0.95297800  0.53604500  0.40243400  1
  N  N1  1  0.53604500  0.95297800  0.90243400  1
  N  N2  1  0.90931300  0.56496000  0.80146700  1
  N  N3  1  0.56496000  0.90931300  0.30146700  1
  N  N4  1  0.36666800  0.16785700  0.04922100  1
  N  N5  1  0.16785700  0.36666800  0.54922100  1
  N  N6  1  0.29131200  0.17686300  0.74082500  1
  N  N7  1  0.17686300  0.29131200  0.24082500  1
  N  N8  1  0.96280500  0.58549300  0.00983300  1
  N  N9  1  0.58549300  0.96280500  0.50983300  1
  O  O0  1  0.80819100  0.65966000  0.41687000  1
  O  O1  1  0.65966000  0.80819100  0.91687000  1
  O  O2  1  0.56520800  0.12255500  0.90459000  1
  O  O3  1  0.12255500  0.56520800  0.40459000  1
  O  O4  1  0.37181700  0.93902300  0.88605000  1
  O  O5  1  0.93902300  0.37181700  0.38605000  1
  O  O6  1  0.80489200  0.66352600  0.75631100  1
  O  O7  1  0.66352600  0.80489200  0.25631100  1
  O  O8  1  0.08670500  0.57569300  0.79764000  1
  O  O9  1  0.57569300  0.08670500  0.29764000  1
  O  O10  1  0.84579900  0.44675000  0.85452900  1
  O  O11  1  0.44675000  0.84579900  0.35452900  1
  O  O12  1  0.46760400  0.09440100  0.09950400  1
  O  O13  1  0.09440100  0.46760400  0.59950400  1
  O  O14  1  0.26146200  0.07098300  0.02509500  1
  O  O15  1  0.07098200  0.26146200  0.52509500  1
  O  O16  1  0.36445200  0.33944600  0.01824300  1
  O  O17  1  0.33944600  0.36445200  0.51824300  1
  O  O18  1  0.33547900  0.11654000  0.67933900  1
  O  O19  1  0.11654000  0.33547900  0.17933900  1
  O  O20  1  0.12982800  0.16572600  0.77998100  1
  O  O21  1  0.16572600  0.12982800  0.27998100  1
  O  O22  1  0.40741800  0.25287300  0.76900200  1
  O  O23  1  0.25287300  0.40741800  0.26900200  1
  O  O24  1  0.87672200  0.68877000  0.05785400  1
  O  O25  1  0.68877000  0.87672200  0.55785400  1
  O  O26  1  0.93826600  0.41352700  0.01095200  1
  O  O27  1  0.41352700  0.93826600  0.51095200  1
  O  O28  1  0.08142700  0.64688100  0.95660100  1
  O  O29  1  0.64688100  0.08142700  0.45660100  1
  O  O30  1  0.07056600  0.96878600  0.43547400  1
  O  O31  1  0.96878600  0.07056600  0.93547400  1
  O  O32  1  0.53719200  0.43059800  0.36042400  1
  O  O33  1  0.43059800  0.53719200  0.86042400  1
  O  O34  1  0.67431200  0.42720900  0.18670000  1
  O  O35  1  0.42720900  0.67431200  0.68670000  1
  O  O36  1  0.14711400  0.79664600  0.20255300  1
  O  O37  1  0.79664600  0.14711400  0.70255300  1
loop_
_geom_bond_atom_site_label_1
_geom_bond_atom_site_label_2
_geom_bond_distance
_geom_bond_site_symmetry_2
Nd0 O30 2.535366 1_545
Nd0 O32 2.547668 1_555
Nd0 O9 2.555081 1_555
Nd0 O27 2.649682 1_545
Nd0 O23 2.657792 1_555
Nd0 O21 2.671416 1_555
Nd0 O15 2.700875 1_555
Nd0 O11 2.701813 1_545
Nd0 O5 2.702390 1_455
Nd0 O3 2.712151 1_555
Nd0 O17 2.718275 1_555
Nd0 O29 2.730246 1_555
Nd1 O31 2.535366 1_455
Nd1 O33 2.547668 1_555
Nd1 O8 2.555081 1_555
Nd1 O26 2.649682 1_456
Nd1 O22 2.657792 1_555
Nd1 O20 2.671416 1_555
Nd1 O14 2.700872 1_556
Nd1 O10 2.701813 1_455
Nd1 O4 2.702390 1_545
Nd1 O2 2.712151 1_555
Nd1 O16 2.718275 1_556
Nd1 O28 2.730246 1_555
H0 O30 0.984563 1_555
H1 O31 0.984563 1_555
H2 O30 0.984890 1_645
H3 O31 0.984890 1_465
H4 O32 0.985871 1_555
H5 O33 0.985871 1_555
H6 O32 0.989165 1_555
H7 O33 0.989165 1_555
H8 O34 0.974535 1_555
H9 O35 0.974535 1_555
H10 O34 0.979041 1_555
H11 O35 0.979041 1_555
H12 O36 0.979471 1_555
H12 Rb1 3.045668 1_465
H13 O37 0.979471 1_555
H13 Rb0 3.045668 1_645
H14 O36 0.985054 1_555
H15 O37 0.985054 1_555
N0 O0 1.242382 1_555
N0 O3 1.281430 1_655
N0 O5 1.283354 1_555
N1 O1 1.242382 1_555
N1 O2 1.281430 1_565
N1 O4 1.283354 1_555
N2 O6 1.241028 1_555
N2 O8 1.279971 1_655
N2 O10 1.286606 1_555
N3 O7 1.241028 1_555
N3 O9 1.279971 1_565
N3 O11 1.286606 1_555
N4 O12 1.245190 1_555
N4 O16 1.273926 1_555
N4 O14 1.284547 1_555
N5 O13 1.245190 1_555
N5 O17 1.273926 1_555
N5 O15 1.284552 1_555
N6 O18 1.242564 1_555
N6 O20 1.279187 1_555
N6 O22 1.285463 1_555
N7 O19 1.242564 1_555
N7 O21 1.279187 1_555
N7 O23 1.285463 1_555
N8 O24 1.245343 1_555
N8 O26 1.276547 1_555
N8 O28 1.284691 1_654
N9 O25 1.245343 1_555
N9 O27 1.276547 1_555
N9 O29 1.284691 1_565
O0 Rb2 3.338085 1_555
O1 Rb3 3.338085 1_556
O6 Rb0 3.215900 1_655
O7 Rb1 3.215900 1_565
O8 Rb0 3.529542 1_555
O9 Rb1 3.529542 1_555
O12 Rb1 2.900214 1_555
O12 Rb3 3.216270 1_545
O13 Rb0 2.900214 1_555
O13 Rb2 3.216270 1_455
O14 Rb3 3.039779 1_545
O14 Rb1 3.150606 1_455
O15 Rb2 3.039773 1_455
O15 Rb0 3.150606 1_545
O16 Rb3 2.907757 1_555
O17 Rb2 2.907757 1_555
O18 Rb0 3.222033 1_545
O19 Rb1 3.222033 1_455
O24 Rb1 3.150107 1_565
O24 Rb3 3.156570 1_555
O25 Rb0 3.150107 1_655
O25 Rb2 3.156570 1_555
O26 Rb1 3.041784 1_555
O27 Rb0 3.041784 1_555
O30 Rb0 3.434918 1_555
O31 Rb1 3.434918 1_556
O34 Rb3 2.872801 1_555
O34 Rb1 2.927995 1_555
O35 Rb2 2.872801 1_555
O35 Rb0 2.927995 1_555
O36 Rb1 2.922901 1_465
O36 Rb3 2.932104 1_555
O37 Rb0 2.922901 1_645
O37 Rb2 2.932104 1_555
