# generated using pymatgen
data_Na4NiAg2S8N5O12
_symmetry_space_group_name_H-M   'P 1'
_cell_length_a   10.28224903
_cell_length_b   10.28224903
_cell_length_c   10.28224903
_cell_angle_alpha   94.81518890
_cell_angle_beta   94.81518890
_cell_angle_gamma   146.31671846
_symmetry_Int_Tables_number   1
_chemical_formula_structural   Na4NiAg2S8N5O12
_chemical_formula_sum   'Na4 Ni1 Ag2 S8 N5 O12'
_cell_volume   577.04142625
_cell_formula_units_Z   1
loop_
 _symmetry_equiv_pos_site_id
 _symmetry_equiv_pos_as_xyz
  1  'x, y, z'
loop_
 _atom_site_type_symbol
 _atom_site_label
 _atom_site_symmetry_multiplicity
 _atom_site_fract_x
 _atom_site_fract_y
 _atom_site_fract_z
 _atom_site_occupancy
  Na  Na0  1  0.32683300  0.78600900  0.11324100  1
  Na  Na1  1  0.67276700  0.21359200  0.88675900  1
  Na  Na2  1  0.78600900  0.67276700  0.45917600  1
  Na  Na3  1  0.21359200  0.32683300  0.54082400  1
  Ni  Ni0  1  0.95099100  0.95099100  0.00000000  1
  Ag  Ag0  1  0.25002200  0.75002200  0.50000000  1
  Ag  Ag1  1  0.75002200  0.25002200  0.50000000  1
  S  S0  1  0.08337700  0.61977300  0.70284300  1
  S  S1  1  0.91692900  0.38053400  0.29715700  1
  S  S2  1  0.61977300  0.91692900  0.53639500  1
  S  S3  1  0.38053400  0.08337700  0.46360500  1
  S  S4  1  0.23433600  0.59125900  0.82557700  1
  S  S5  1  0.76568200  0.40875900  0.17442300  1
  S  S6  1  0.59125900  0.76568200  0.35692300  1
  S  S7  1  0.40875900  0.23433600  0.64307700  1
  N  N0  1  0.67332400  0.67332400  0.00000000  1
  N  N1  1  0.03122700  0.86737700  0.90782300  1
  N  N2  1  0.95955500  0.12340400  0.09217700  1
  N  N3  1  0.86737700  0.95955500  0.83615000  1
  N  N4  1  0.12340400  0.03122700  0.16385000  1
  O  O0  1  0.25117100  0.48862200  0.73922800  1
  O  O1  1  0.74939400  0.51194400  0.26077200  1
  O  O2  1  0.48862200  0.74939400  0.23745000  1
  O  O3  1  0.51194400  0.25117100  0.76255000  1
  O  O4  1  0.47121200  0.84601100  0.90792800  1
  O  O5  1  0.93808200  0.56328400  0.09207200  1
  O  O6  1  0.84601100  0.93808200  0.37479900  1
  O  O7  1  0.56328400  0.47121200  0.62520100  1
  O  O8  1  0.52886000  0.15409000  0.09214500  1
  O  O9  1  0.06194400  0.43671400  0.90785500  1
  O  O10  1  0.15409000  0.06194400  0.62523000  1
  O  O11  1  0.43671400  0.52886000  0.37477000  1
loop_
_geom_bond_atom_site_label_1
_geom_bond_atom_site_label_2
_geom_bond_distance
_geom_bond_site_symmetry_2
Na0 O2 2.303608 1_555
Na0 O5 2.409470 1_455
Na0 O8 2.411546 1_565
Na0 O9 2.501712 1_554
Na0 O4 2.502338 1_554
Na1 O3 2.303591 1_555
Na1 O4 2.409466 1_545
Na1 O9 2.411550 1_655
Na1 O8 2.501704 1_556
Na1 O5 2.502338 1_556
Na2 O1 2.303603 1_555
Na2 O7 2.409460 1_555
Na2 O10 2.411546 1_665
Na2 O11 2.501725 1_555
Na2 O6 2.502338 1_555
Na3 O0 2.303613 1_555
Na3 O6 2.409464 1_445
Na3 O11 2.411543 1_555
Na3 O10 2.501719 1_555
Na3 O7 2.502338 1_555
Ag0 S0 2.515862 1_555
Ag0 S1 2.515862 1_455
Ag0 S3 2.516786 1_565
Ag0 S2 2.516796 1_555
Ag1 S3 2.515862 1_555
Ag1 S2 2.515869 1_545
Ag1 S1 2.516786 1_555
Ag1 S0 2.516790 1_655
S0 S4 2.139743 1_555
S1 S5 2.139735 1_555
S2 S6 2.139730 1_555
S3 S7 2.139735 1_555
N0 Ni0 1.654368 1_555
N1 Ni0 1.868953 1_456
N2 Ni0 1.868945 1_545
N3 Ni0 1.868959 1_556
N4 Ni0 1.868953 1_445
O0 S4 1.450697 1_555
O1 S5 1.450705 1_555
O2 S6 1.450705 1_555
O3 S7 1.450711 1_555
O4 S4 1.474565 1_555
O5 S5 1.474561 1_555
O6 S6 1.474568 1_555
O7 S7 1.474565 1_555
O8 S5 1.473978 1_555
O9 S4 1.473983 1_555
O10 S7 1.473975 1_555
O11 S6 1.473975 1_555
