# generated using pymatgen
data_Bi10Mo3
_symmetry_space_group_name_H-M   'P 1'
_cell_length_a   10.30519327
_cell_length_b   10.30519327
_cell_length_c   7.41864043
_cell_angle_alpha   82.32889883
_cell_angle_beta   82.32889883
_cell_angle_gamma   27.54313686
_symmetry_Int_Tables_number   1
_chemical_formula_structural   Bi10Mo3
_chemical_formula_sum   'Bi10 Mo3'
_cell_volume   360.85174000
_cell_formula_units_Z   1
loop_
 _symmetry_equiv_pos_site_id
 _symmetry_equiv_pos_as_xyz
  1  'x, y, z'
loop_
 _atom_site_type_symbol
 _atom_site_label
 _atom_site_symmetry_multiplicity
 _atom_site_fract_x
 _atom_site_fract_y
 _atom_site_fract_z
 _atom_site_occupancy
  Bi  Bi0  1  0.76306700  0.76306700  0.84289100  1
  Bi  Bi1  1  0.23693300  0.23693300  0.15710900  1
  Bi  Bi2  1  0.13883500  0.13883500  0.82870600  1
  Bi  Bi3  1  0.86116500  0.86116500  0.17129400  1
  Bi  Bi4  1  0.52853400  0.52853400  0.77528800  1
  Bi  Bi5  1  0.47146600  0.47146600  0.22471200  1
  Bi  Bi6  1  0.32505200  0.32505200  0.58060400  1
  Bi  Bi7  1  0.67494800  0.67494800  0.41939600  1
  Bi  Bi8  1  0.92850200  0.92850200  0.68239800  1
  Bi  Bi9  1  0.07149800  0.07149800  0.31760200  1
  Mo  Mo0  1  0.00000000  0.00000000  0.00000000  1
  Mo  Mo1  1  0.37801200  0.37801200  0.92318600  1
  Mo  Mo2  1  0.62198800  0.62198800  0.07681400  1
loop_
_geom_bond_atom_site_label_1
_geom_bond_atom_site_label_2
_geom_bond_distance
_geom_bond_site_symmetry_2
Bi0 Mo2 3.104836 1_556
Bi0 Bi6 3.268053 1_655
Bi0 Bi6 3.268053 1_565
Bi0 Bi3 3.332688 1_556
Bi0 Bi8 3.361679 1_555
Bi0 Bi1 3.374966 1_656
Bi0 Bi1 3.374966 1_566
Bi0 Mo1 3.470449 1_655
Bi0 Mo1 3.470449 1_565
Bi0 Bi2 3.505071 1_655
Bi0 Bi2 3.505071 1_565
Bi1 Mo1 3.104836 1_554
Bi1 Bi7 3.268053 1_545
Bi1 Bi7 3.268053 1_455
Bi1 Bi2 3.332688 1_554
Bi1 Bi9 3.361679 1_555
Bi1 Mo2 3.470449 1_455
Bi1 Mo2 3.470449 1_545
Bi1 Bi3 3.505071 1_455
Bi1 Bi3 3.505071 1_545
Bi2 Mo0 2.892739 1_556
Bi2 Mo2 3.057619 1_546
Bi2 Mo2 3.057619 1_456
Bi3 Mo0 2.892739 1_665
Bi3 Mo1 3.057619 1_654
Bi3 Mo1 3.057619 1_564
Bi4 Mo0 2.976849 1_566
Bi4 Mo0 2.976849 1_656
Bi4 Mo1 3.061712 1_555
Bi4 Mo2 3.107050 1_556
Bi5 Mo0 2.976849 1_655
Bi5 Mo0 2.976849 1_565
Bi5 Mo2 3.061712 1_555
Bi5 Mo1 3.107050 1_554
Bi6 Mo1 2.885084 1_555
Bi7 Mo2 2.885084 1_555
Bi8 Mo0 2.920095 1_666
Bi8 Mo1 3.119971 1_655
Bi8 Mo1 3.119971 1_565
Bi9 Mo0 2.920095 1_555
Bi9 Mo2 3.119971 1_455
Bi9 Mo2 3.119971 1_545
