# generated using pymatgen
data_Ca3Ta4(O6F)2
_symmetry_space_group_name_H-M   'P 1'
_cell_length_a   7.39729098
_cell_length_b   7.39729098
_cell_length_c   7.39729051
_cell_angle_alpha   60.84071609
_cell_angle_beta   60.84071609
_cell_angle_gamma   60.84072032
_symmetry_Int_Tables_number   1
_chemical_formula_structural   Ca3Ta4(O6F)2
_chemical_formula_sum   'Ca3 Ta4 O12 F2'
_cell_volume   291.64806254
_cell_formula_units_Z   1
loop_
 _symmetry_equiv_pos_site_id
 _symmetry_equiv_pos_as_xyz
  1  'x, y, z'
loop_
 _atom_site_type_symbol
 _atom_site_label
 _atom_site_symmetry_multiplicity
 _atom_site_fract_x
 _atom_site_fract_y
 _atom_site_fract_z
 _atom_site_occupancy
  Ca  Ca0  1  0.00000000  0.50000000  0.50000000  1
  Ca  Ca1  1  0.50000000  0.50000000  0.00000000  1
  Ca  Ca2  1  0.50000000  0.00000000  0.50000000  1
  Ta  Ta0  1  0.00000000  0.00000000  0.00000000  1
  Ta  Ta1  1  0.50000000  0.00000000  0.00000000  1
  Ta  Ta2  1  0.00000000  0.00000000  0.50000000  1
  Ta  Ta3  1  0.00000000  0.50000000  0.00000000  1
  O  O0  1  0.94412500  0.31455900  0.31455900  1
  O  O1  1  0.31816700  0.92897700  0.92897700  1
  O  O2  1  0.31455900  0.31455900  0.94412500  1
  O  O3  1  0.92897700  0.92897700  0.31816700  1
  O  O4  1  0.92897700  0.31816700  0.92897700  1
  O  O5  1  0.31455900  0.94412500  0.31455900  1
  O  O6  1  0.05587500  0.68544100  0.68544100  1
  O  O7  1  0.68183300  0.07102300  0.07102300  1
  O  O8  1  0.68544100  0.68544100  0.05587500  1
  O  O9  1  0.07102300  0.07102300  0.68183300  1
  O  O10  1  0.07102300  0.68183300  0.07102300  1
  O  O11  1  0.68544100  0.05587500  0.68544100  1
  F  F0  1  0.36253200  0.36253200  0.36253200  1
  F  F1  1  0.63746800  0.63746800  0.63746800  1
loop_
_geom_bond_atom_site_label_1
_geom_bond_atom_site_label_2
_geom_bond_distance
_geom_bond_site_symmetry_2
Ca0 F0 2.225469 1_555
Ca0 F1 2.225469 1_455
Ca0 O6 2.621644 1_555
Ca0 O0 2.621644 1_455
Ca0 O4 2.656981 1_455
Ca0 O10 2.656981 1_555
Ca0 O3 2.656981 1_455
Ca0 O9 2.656981 1_555
Ca1 F0 2.225469 1_555
Ca1 F1 2.225469 1_554
Ca1 O8 2.621644 1_555
Ca1 O2 2.621644 1_554
Ca1 O4 2.656981 1_554
Ca1 O1 2.656981 1_554
Ca1 O7 2.656981 1_555
Ca1 O10 2.656981 1_555
Ca2 F0 2.225469 1_555
Ca2 F1 2.225469 1_545
Ca2 O11 2.621644 1_555
Ca2 O5 2.621644 1_545
Ca2 O1 2.656981 1_545
Ca2 O7 2.656981 1_555
Ca2 O3 2.656981 1_545
Ca2 O9 2.656981 1_555
O0 Ta3 1.992935 1_655
O0 Ta2 1.992935 1_655
O1 Ta0 1.987565 1_566
O1 Ta1 2.001876 1_566
O2 Ta1 1.992935 1_556
O2 Ta3 1.992935 1_556
O3 Ta0 1.987565 1_665
O3 Ta2 2.001876 1_665
O4 Ta0 1.987565 1_656
O4 Ta3 2.001876 1_656
O5 Ta1 1.992935 1_565
O5 Ta2 1.992935 1_565
O6 Ta3 1.992935 1_556
O6 Ta2 1.992935 1_565
O7 Ta0 1.987565 1_655
O7 Ta1 2.001876 1_555
O8 Ta1 1.992935 1_565
O8 Ta3 1.992935 1_655
O9 Ta0 1.987565 1_556
O9 Ta2 2.001876 1_555
O10 Ta0 1.987565 1_565
O10 Ta3 2.001876 1_555
O11 Ta1 1.992935 1_556
O11 Ta2 1.992935 1_655
