# generated using pymatgen
data_Ca(BO5)2
_symmetry_space_group_name_H-M   'P 1'
_cell_length_a   5.96606100
_cell_length_b   7.50172300
_cell_length_c   8.35529127
_cell_angle_alpha   83.67410108
_cell_angle_beta   90.00000000
_cell_angle_gamma   90.00000000
_symmetry_Int_Tables_number   1
_chemical_formula_structural   Ca(BO5)2
_chemical_formula_sum   'Ca2 B4 O20'
_cell_volume   371.67034814
_cell_formula_units_Z   2
loop_
 _symmetry_equiv_pos_site_id
 _symmetry_equiv_pos_as_xyz
  1  'x, y, z'
loop_
 _atom_site_type_symbol
 _atom_site_label
 _atom_site_symmetry_multiplicity
 _atom_site_fract_x
 _atom_site_fract_y
 _atom_site_fract_z
 _atom_site_occupancy
  Ca  Ca0  1  0.86312900  0.25000000  0.00000000  1
  Ca  Ca1  1  0.13687100  0.75000000  0.00000000  1
  B  B0  1  0.37230300  0.35974600  0.13092200  1
  B  B1  1  0.37230300  0.14025400  0.86907800  1
  B  B2  1  0.62769700  0.64025400  0.86907800  1
  B  B3  1  0.62769700  0.85974600  0.13092200  1
  O  O0  1  0.18211400  0.42561600  0.08612500  1
  O  O1  1  0.18211400  0.07438400  0.91387500  1
  O  O2  1  0.81788600  0.57438400  0.91387500  1
  O  O3  1  0.81788600  0.92561600  0.08612500  1
  O  O4  1  0.09579700  0.26137100  0.42588100  1
  O  O5  1  0.09579700  0.23862900  0.57411900  1
  O  O6  1  0.90420300  0.73862900  0.57411900  1
  O  O7  1  0.90420300  0.76137100  0.42588100  1
  O  O8  1  0.25849900  0.55425700  0.44182800  1
  O  O9  1  0.25849900  0.94574300  0.55817200  1
  O  O10  1  0.74150100  0.44574300  0.55817200  1
  O  O11  1  0.74150100  0.05425700  0.44182800  1
  O  O12  1  0.56034100  0.29159200  0.16860200  1
  O  O13  1  0.56034100  0.20840800  0.83139800  1
  O  O14  1  0.43965900  0.70840800  0.83139800  1
  O  O15  1  0.43965900  0.79159200  0.16860200  1
  O  O16  1  0.23835100  0.96931100  0.41094500  1
  O  O17  1  0.23835100  0.53068900  0.58905500  1
  O  O18  1  0.76164900  0.03068900  0.58905500  1
  O  O19  1  0.76164900  0.46931100  0.41094500  1
loop_
_geom_bond_atom_site_label_1
_geom_bond_atom_site_label_2
_geom_bond_distance
_geom_bond_site_symmetry_2
Ca0 O12 2.332802 1_555
Ca0 O13 2.332802 1_554
Ca0 O0 2.466590 1_655
Ca0 O1 2.466590 1_654
Ca0 O2 2.475161 1_554
Ca0 O3 2.475161 1_545
Ca1 O15 2.332802 1_555
Ca1 O14 2.332802 1_554
Ca1 O2 2.466590 1_454
Ca1 O3 2.466590 1_455
Ca1 O1 2.475161 1_564
Ca1 O0 2.475161 1_555
B0 O12 1.258405 1_555
B0 O0 1.277109 1_555
B1 O13 1.258405 1_555
B1 O1 1.277109 1_555
B2 O14 1.258405 1_555
B2 O2 1.277109 1_555
B3 O15 1.258405 1_555
B3 O3 1.277109 1_555
O4 O5 1.231503 1_555
O6 O7 1.231503 1_555
O10 O19 1.229222 1_555
O11 O18 1.229222 1_555
O16 O9 1.229222 1_555
O17 O8 1.229222 1_555
