# generated using pymatgen
data_Ba3(MnN2)2
_symmetry_space_group_name_H-M   'P 1'
_cell_length_a   6.25409037
_cell_length_b   9.92369236
_cell_length_c   10.13088927
_cell_angle_alpha   90.00000000
_cell_angle_beta   90.00000000
_cell_angle_gamma   90.00000000
_symmetry_Int_Tables_number   1
_chemical_formula_structural   Ba3(MnN2)2
_chemical_formula_sum   'Ba12 Mn8 N16'
_cell_volume   628.76015654
_cell_formula_units_Z   4
loop_
 _symmetry_equiv_pos_site_id
 _symmetry_equiv_pos_as_xyz
  1  'x, y, z'
loop_
 _atom_site_type_symbol
 _atom_site_label
 _atom_site_symmetry_multiplicity
 _atom_site_fract_x
 _atom_site_fract_y
 _atom_site_fract_z
 _atom_site_occupancy
  Ba  Ba0  1  0.61975516  0.15553193  0.41634156  1
  Ba  Ba1  1  0.88024484  0.84446807  0.41634156  1
  Ba  Ba2  1  0.61975516  0.34446807  0.08365844  1
  Ba  Ba3  1  0.88024484  0.65553193  0.08365844  1
  Ba  Ba4  1  0.38024484  0.84446807  0.58365844  1
  Ba  Ba5  1  0.11975516  0.15553193  0.58365844  1
  Ba  Ba6  1  0.38024484  0.65553193  0.91634156  1
  Ba  Ba7  1  0.11975516  0.34446807  0.91634156  1
  Ba  Ba8  1  0.75000000  0.50000000  0.40503370  1
  Ba  Ba9  1  0.75000000  -0.00000000  0.09496630  1
  Ba  Ba10  1  0.25000000  0.50000000  0.59496630  1
  Ba  Ba11  1  0.25000000  -0.00000000  0.90503370  1
  Mn  Mn0  1  0.75000000  0.50000000  0.73662435  1
  Mn  Mn1  1  0.75000000  -0.00000000  0.76337565  1
  Mn  Mn2  1  0.25000000  0.50000000  0.26337565  1
  Mn  Mn3  1  0.25000000  -0.00000000  0.23662435  1
  Mn  Mn4  1  0.67328568  0.25000000  0.75000000  1
  Mn  Mn5  1  0.82671432  0.75000000  0.75000000  1
  Mn  Mn6  1  0.32671432  0.75000000  0.25000000  1
  Mn  Mn7  1  0.17328568  0.25000000  0.25000000  1
  N  N0  1  0.85805376  0.35511845  0.64183774  1
  N  N1  1  0.64194624  0.64488155  0.64183774  1
  N  N2  1  0.85805376  0.14488155  0.85816226  1
  N  N3  1  0.64194624  0.85511845  0.85816226  1
  N  N4  1  0.14194624  0.64488155  0.35816226  1
  N  N5  1  0.35805376  0.35511845  0.35816226  1
  N  N6  1  0.14194624  0.85511845  0.14183774  1
  N  N7  1  0.35805376  0.14488155  0.14183774  1
  N  N8  1  0.53784281  0.40472777  0.82661843  1
  N  N9  1  0.96215719  0.59527223  0.82661843  1
  N  N10  1  0.53784281  0.09527223  0.67338157  1
  N  N11  1  0.96215719  0.90472777  0.67338157  1
  N  N12  1  0.46215719  0.59527223  0.17338157  1
  N  N13  1  0.03784281  0.40472777  0.17338157  1
  N  N14  1  0.46215719  0.90472777  0.32661843  1
  N  N15  1  0.03784281  0.09527223  0.32661843  1
loop_
_geom_bond_atom_site_label_1
_geom_bond_atom_site_label_2
_geom_bond_distance
_geom_bond_site_symmetry_2
Ba0 N5 2.636118 1_555
Ba0 N10 2.720494 1_555
Ba0 N14 2.827074 1_545
Ba0 N15 2.832101 1_655
Ba1 N4 2.636118 1_655
Ba1 N11 2.720494 1_555
Ba1 N15 2.827074 1_665
Ba1 N14 2.832101 1_555
Ba2 N7 2.636118 1_555
Ba2 N8 2.720494 1_554
Ba2 N12 2.827074 1_555
Ba2 N13 2.832101 1_655
Ba3 N6 2.636118 1_655
Ba3 N9 2.720494 1_554
Ba3 N13 2.827074 1_655
Ba3 N12 2.832101 1_555
Ba4 N1 2.636118 1_555
Ba4 N14 2.720494 1_555
Ba4 N10 2.827074 1_565
Ba4 N11 2.832101 1_455
Ba5 N0 2.636118 1_455
Ba5 N15 2.720494 1_555
Ba5 N11 2.827074 1_445
Ba5 N10 2.832101 1_555
Ba6 N3 2.636118 1_555
Ba6 N12 2.720494 1_556
Ba6 N8 2.827074 1_555
Ba6 N9 2.832101 1_455
Ba7 N2 2.636118 1_455
Ba7 N13 2.720494 1_556
Ba7 N9 2.827074 1_455
Ba7 N8 2.832101 1_555
Ba8 N0 2.877360 1_555
Ba8 N1 2.877360 1_555
Ba8 N4 2.881206 1_655
Ba8 N5 2.881206 1_555
Ba8 N12 3.105197 1_555
Ba8 N13 3.105197 1_655
Ba9 N3 2.877360 1_544
Ba9 N2 2.877360 1_554
Ba9 N6 2.881206 1_645
Ba9 N7 2.881206 1_555
Ba9 N15 3.105197 1_655
Ba9 N14 3.105197 1_545
Ba10 N5 2.877360 1_555
Ba10 N4 2.877360 1_555
Ba10 N0 2.881206 1_455
Ba10 N1 2.881206 1_555
Ba10 N9 3.105197 1_455
Ba10 N8 3.105197 1_555
Ba11 N7 2.877360 1_556
Ba11 N6 2.877360 1_546
Ba11 N3 2.881206 1_545
Ba11 N2 2.881206 1_455
Ba11 N10 3.105197 1_555
Ba11 N11 3.105197 1_445
Mn0 N0 1.856328 1_555
Mn0 N1 1.856328 1_555
Mn0 N9 1.866988 1_555
Mn0 N8 1.866988 1_555
Mn1 N2 1.856328 1_555
Mn1 N3 1.856328 1_545
Mn1 N11 1.866988 1_545
Mn1 N10 1.866988 1_555
Mn2 N5 1.856328 1_555
Mn2 N4 1.856328 1_555
Mn2 N12 1.866988 1_555
Mn2 N13 1.866988 1_555
Mn3 N6 1.856328 1_545
Mn3 N7 1.856328 1_555
Mn3 N14 1.866988 1_545
Mn3 N15 1.866988 1_555
Mn4 N0 1.903742 1_555
Mn4 N2 1.903742 1_555
Mn4 N10 1.917735 1_555
Mn4 N8 1.917735 1_555
Mn5 N1 1.903742 1_555
Mn5 N3 1.903742 1_555
Mn5 N9 1.917735 1_555
Mn5 N11 1.917735 1_555
Mn6 N4 1.903742 1_555
Mn6 N6 1.903742 1_555
Mn6 N14 1.917735 1_555
Mn6 N12 1.917735 1_555
Mn7 N7 1.903742 1_555
Mn7 N5 1.903742 1_555
Mn7 N13 1.917735 1_555
Mn7 N15 1.917735 1_555
