# generated using pymatgen
data_VCu6AgMo5O24
_symmetry_space_group_name_H-M   'P 1'
_cell_length_a   8.79692993
_cell_length_b   7.89555747
_cell_length_c   8.29976276
_cell_angle_alpha   105.71839831
_cell_angle_beta   115.56100220
_cell_angle_gamma   97.09758800
_symmetry_Int_Tables_number   1
_chemical_formula_structural   VCu6AgMo5O24
_chemical_formula_sum   'V1 Cu6 Ag1 Mo5 O24'
_cell_volume   481.03187425
_cell_formula_units_Z   1
loop_
 _symmetry_equiv_pos_site_id
 _symmetry_equiv_pos_as_xyz
  1  'x, y, z'
loop_
 _atom_site_type_symbol
 _atom_site_label
 _atom_site_symmetry_multiplicity
 _atom_site_fract_x
 _atom_site_fract_y
 _atom_site_fract_z
 _atom_site_occupancy
  V  V0  1  0.16505800  0.77799300  0.46104000  1
  Cu  Cu0  1  0.13482600  0.31137500  0.14256900  1
  Cu  Cu1  1  0.20483400  0.11441000  0.84970400  1
  Cu  Cu2  1  0.52465300  0.87982500  0.80781600  1
  Cu  Cu3  1  0.56690100  0.04063500  0.17614200  1
  Cu  Cu4  1  0.81984400  0.91327500  0.26748900  1
  Cu  Cu5  1  0.85657600  0.70885700  0.78293700  1
  Ag  Ag0  1  0.00382800  0.43062900  0.58947000  1
  Mo  Mo0  1  0.22170700  0.91485800  0.17601800  1
  Mo  Mo1  1  0.51624500  0.66392000  0.31713000  1
  Mo  Mo2  1  0.47367100  0.38567400  0.66903000  1
  Mo  Mo3  1  0.80736600  0.15988000  0.70280300  1
  Mo  Mo4  1  0.75715900  0.41213100  0.11143500  1
  O  O0  1  0.00611000  0.57271400  0.38665900  1
  O  O1  1  0.08106900  0.71178100  0.96203700  1
  O  O2  1  0.26622500  0.91881400  0.69944500  1
  O  O3  1  0.32355000  0.78547500  0.37700000  1
  O  O4  1  0.37834900  0.60711600  0.63669600  1
  O  O5  1  0.32169400  0.51584200  0.74349000  1
  O  O6  1  0.96825500  0.97946200  0.85514300  1
  O  O7  1  0.02599400  0.04255100  0.06017900  1
  O  O8  1  0.35222600  0.45523500  0.21466500  1
  O  O9  1  0.33943300  0.19503400  0.45159400  1
  O  O10  1  0.32744400  0.06746100  0.08975200  1
  O  O11  1  0.43916700  0.81977700  0.17129200  1
  O  O12  1  0.52893400  0.30064000  0.88403300  1
  O  O13  1  0.65165000  0.03415800  0.74309400  1
  O  O14  1  0.64507600  0.68146900  0.56096800  1
  O  O15  1  0.71686900  0.61695100  0.91367100  1
  O  O16  1  0.67645300  0.78472500  0.99156400  1
  O  O17  1  0.05515300  0.89584800  0.31345700  1
  O  O18  1  0.67150900  0.60527200  0.22981500  1
  O  O19  1  0.73387700  0.24535800  0.22676900  1
  O  O20  1  0.69495000  0.33717500  0.64385700  1
  O  O21  1  0.76170000  0.99151900  0.47252400  1
  O  O22  1  0.90052600  0.34558100  0.01187600  1
  O  O23  1  0.04603200  0.26196200  0.77568800  1
loop_
_geom_bond_atom_site_label_1
_geom_bond_atom_site_label_2
_geom_bond_distance
_geom_bond_site_symmetry_2
Cu0 O8 1.847458 1_555
Cu0 O22 1.965897 1_455
Cu0 O7 2.008918 1_555
Cu1 O23 1.932753 1_555
Cu1 O10 1.978573 1_556
Cu1 O2 1.993918 1_545
Cu1 O6 2.242259 1_445
Cu2 O13 1.886169 1_565
Cu2 O16 1.945165 1_555
Cu2 O4 2.095391 1_555
Cu2 O2 2.151844 1_555
Cu3 O19 1.859989 1_555
Cu3 O11 1.934888 1_545
Cu3 O10 1.971148 1_555
Cu4 O16 1.948666 1_554
Cu4 O21 1.949050 1_555
Cu4 O17 1.966392 1_655
Cu4 O18 2.483173 1_555
Cu5 O1 1.883374 1_655
Cu5 O14 1.905066 1_555
Cu5 O6 2.041749 1_555
Cu5 O15 2.138069 1_555
Ag0 O23 2.245507 1_555
Ag0 O0 2.266963 1_555
Ag0 O5 2.426985 1_555
Ag0 O19 2.725430 1_455
Mo0 O1 1.823864 1_554
Mo0 O10 1.895984 1_565
Mo0 O7 2.104932 1_565
Mo0 O3 2.118631 1_555
Mo0 O11 2.151348 1_555
Mo0 O17 2.225116 1_555
Mo0 O9 2.417820 1_565
Mo1 O8 1.764753 1_555
Mo1 O14 1.797045 1_555
Mo1 O18 1.853045 1_555
Mo1 O11 1.934992 1_555
Mo1 O3 2.216300 1_555
Mo2 O9 1.779577 1_555
Mo2 O12 1.962813 1_555
Mo2 O5 1.983425 1_555
Mo2 O4 2.062630 1_555
Mo2 O20 2.114534 1_555
Mo2 O15 2.304637 1_555
Mo3 O13 1.792405 1_555
Mo3 O21 1.846686 1_545
Mo3 O20 1.863471 1_555
Mo3 O23 1.909251 1_655
Mo3 O22 2.291913 1_556
Mo3 O6 2.358152 1_545
Mo4 O22 1.837748 1_555
Mo4 O19 1.864838 1_555
Mo4 O12 1.939339 1_554
Mo4 O18 1.992360 1_555
Mo4 O0 2.247061 1_655
Mo4 O15 2.552030 1_554
O0 V0 1.765254 1_555
O2 V0 1.728400 1_555
O3 V0 1.809727 1_555
O4 O5 1.480518 1_555
O4 V0 2.607108 1_555
O6 O7 1.460945 1_666
O15 O16 1.466232 1_555
O17 V0 1.766060 1_555
