# generated using pymatgen
data_GdNiGe3
_symmetry_space_group_name_H-M   'P 1'
_cell_length_a   11.01922665
_cell_length_b   11.01922665
_cell_length_c   4.12776500
_cell_angle_alpha   90.00000000
_cell_angle_beta   90.00000000
_cell_angle_gamma   158.34280946
_symmetry_Int_Tables_number   1
_chemical_formula_structural   GdNiGe3
_chemical_formula_sum   'Gd2 Ni2 Ge6'
_cell_volume   184.97169430
_cell_formula_units_Z   2
loop_
 _symmetry_equiv_pos_site_id
 _symmetry_equiv_pos_as_xyz
  1  'x, y, z'
loop_
 _atom_site_type_symbol
 _atom_site_label
 _atom_site_symmetry_multiplicity
 _atom_site_fract_x
 _atom_site_fract_y
 _atom_site_fract_z
 _atom_site_occupancy
  Gd  Gd0  1  0.16843600  0.83156400  0.50000000  1
  Gd  Gd1  1  0.83156400  0.16843600  0.50000000  1
  Ni  Ni0  1  0.38983000  0.61017000  0.00000000  1
  Ni  Ni1  1  0.61017000  0.38983000  0.00000000  1
  Ge  Ge0  1  0.28345200  0.71654800  0.00000000  1
  Ge  Ge1  1  0.71654800  0.28345200  0.00000000  1
  Ge  Ge2  1  0.44282600  0.55717400  0.50000000  1
  Ge  Ge3  1  0.55717400  0.44282600  0.50000000  1
  Ge  Ge4  1  0.05726100  0.94273900  0.00000000  1
  Ge  Ge5  1  0.94273900  0.05726100  0.00000000  1
loop_
_geom_bond_atom_site_label_1
_geom_bond_atom_site_label_2
_geom_bond_distance
_geom_bond_site_symmetry_2
Gd0 Ge1 3.103211 1_566
Gd0 Ge1 3.103211 1_455
Gd0 Ge1 3.103211 1_456
Gd0 Ge1 3.103211 1_565
Gd0 Ge4 3.170306 1_556
Gd0 Ge4 3.170306 1_555
Gd0 Ge3 3.175849 1_565
Gd0 Ge3 3.175849 1_455
Gd0 Ni1 3.183713 1_565
Gd0 Ni1 3.183713 1_566
Gd0 Ni1 3.183713 1_456
Gd0 Ni1 3.183713 1_455
Gd0 Ge0 3.233870 1_556
Gd0 Ge0 3.233870 1_555
Gd1 Ge0 3.103211 1_546
Gd1 Ge0 3.103211 1_655
Gd1 Ge0 3.103211 1_545
Gd1 Ge0 3.103211 1_656
Gd1 Ge5 3.170306 1_555
Gd1 Ge5 3.170306 1_556
Gd1 Ge2 3.175849 1_655
Gd1 Ge2 3.175849 1_545
Gd1 Ni0 3.183713 1_656
Gd1 Ni0 3.183713 1_655
Gd1 Ni0 3.183713 1_546
Gd1 Ni0 3.183713 1_545
Gd1 Ge1 3.233870 1_555
Gd1 Ge1 3.233870 1_556
Ge0 Ni0 2.302661 1_555
Ge0 Ge1 2.526465 1_455
Ge0 Ge1 2.526465 1_565
Ge1 Ni1 2.302661 1_555
Ge2 Ni0 2.361265 1_555
Ge2 Ni0 2.361265 1_556
Ge2 Ge3 2.475180 1_555
Ge2 Ge5 2.923241 1_565
Ge2 Ge5 2.923241 1_455
Ge2 Ge5 2.923241 1_566
Ge2 Ge5 2.923241 1_456
Ge3 Ni1 2.361265 1_556
Ge3 Ni1 2.361265 1_555
Ge3 Ge4 2.923241 1_655
Ge3 Ge4 2.923241 1_656
Ge3 Ge4 2.923241 1_545
Ge3 Ge4 2.923241 1_546
Ge4 Ni1 2.365875 1_455
Ge4 Ni1 2.365875 1_565
Ge4 Ge5 2.478946 1_465
Ge5 Ni0 2.365875 1_545
Ge5 Ni0 2.365875 1_655
