# generated using pymatgen
data_ErTlCu
_symmetry_space_group_name_H-M   'P 1'
_cell_length_a   4.21000847
_cell_length_b   4.21000847
_cell_length_c   9.23703071
_cell_angle_alpha   89.23649306
_cell_angle_beta   90.76350694
_cell_angle_gamma   118.58812916
_symmetry_Int_Tables_number   1
_chemical_formula_structural   ErTlCu
_chemical_formula_sum   'Er2 Tl2 Cu2'
_cell_volume   143.74121250
_cell_formula_units_Z   2
loop_
 _symmetry_equiv_pos_site_id
 _symmetry_equiv_pos_as_xyz
  1  'x, y, z'
loop_
 _atom_site_type_symbol
 _atom_site_label
 _atom_site_symmetry_multiplicity
 _atom_site_fract_x
 _atom_site_fract_y
 _atom_site_fract_z
 _atom_site_occupancy
  Er  Er0  1  0.00566200  0.99433800  0.67645700  1
  Er  Er1  1  0.99433800  0.00566200  0.32354300  1
  Tl  Tl0  1  0.33110800  0.66889200  0.09802400  1
  Tl  Tl1  1  0.66889200  0.33110800  0.90197600  1
  Cu  Cu0  1  0.66885000  0.33115000  0.50506500  1
  Cu  Cu1  1  0.33115000  0.66885000  0.49493500  1
loop_
_geom_bond_atom_site_label_1
_geom_bond_atom_site_label_2
_geom_bond_distance
_geom_bond_site_symmetry_2
Er0 Tl1 3.206405 1_455
Er0 Tl1 3.206405 1_565
Er0 Tl1 3.231246 1_465
Er1 Tl0 3.206405 1_545
Er1 Tl0 3.206405 1_655
Er1 Tl0 3.231246 1_645
Tl0 Tl1 3.035469 1_454
Tl0 Tl1 3.035469 1_564
Tl0 Tl1 3.065385 1_554
Cu0 Cu1 2.445128 1_555
Cu0 Cu1 2.452390 1_655
Cu0 Cu1 2.452390 1_545
Cu0 Er0 2.886575 1_645
Cu0 Er1 2.913141 1_555
Cu0 Er0 2.929429 1_655
Cu0 Er0 2.929429 1_545
Cu0 Er1 2.993889 1_565
Cu0 Er1 2.993889 1_455
Cu1 Er1 2.886575 1_465
Cu1 Er0 2.913141 1_555
Cu1 Er1 2.929429 1_565
Cu1 Er1 2.929429 1_455
Cu1 Er0 2.993889 1_655
Cu1 Er0 2.993889 1_545
