# generated using pymatgen
data_La5Sm3Cr6(FeO10)2
_symmetry_space_group_name_H-M   'P 1'
_cell_length_a   11.05269361
_cell_length_b   11.51490735
_cell_length_c   17.84834942
_cell_angle_alpha   108.72015119
_cell_angle_beta   108.20194227
_cell_angle_gamma   90.28101942
_symmetry_Int_Tables_number   1
_chemical_formula_structural   La5Sm3Cr6(FeO10)2
_chemical_formula_sum   'La20 Sm12 Cr24 Fe8 O80'
_cell_volume   2029.74000461
_cell_formula_units_Z   4
loop_
 _symmetry_equiv_pos_site_id
 _symmetry_equiv_pos_as_xyz
  1  'x, y, z'
loop_
 _atom_site_type_symbol
 _atom_site_label
 _atom_site_symmetry_multiplicity
 _atom_site_fract_x
 _atom_site_fract_y
 _atom_site_fract_z
 _atom_site_occupancy
  La  La0  1  0.30412187  0.06399086  0.61223372  1
  La  La1  1  0.30418544  0.56181698  0.61313166  1
  La  La2  1  0.81251798  0.06146308  0.61348757  1
  La  La3  1  0.80532067  0.56576660  0.61675076  1
  La  La4  1  0.18446141  0.43297484  0.38004284  1
  La  La5  1  0.19007132  0.43524058  0.88497888  1
  La  La6  1  0.18626208  0.93626496  0.37979422  1
  La  La7  1  0.68685942  0.43444285  0.38059305  1
  La  La8  1  0.68728394  0.93694129  0.38009197  1
  La  La9  1  0.04894589  0.30882713  0.12076260  1
  La  La10  1  0.05871553  0.29844418  0.61442205  1
  La  La11  1  0.05853409  0.80766178  0.61758316  1
  La  La12  1  0.55500024  0.29944338  0.61358575  1
  La  La13  1  0.43811801  0.19175432  0.37719795  1
  La  La14  1  0.43783039  0.19686296  0.88660509  1
  La  La15  1  0.44114870  0.69746271  0.38240913  1
  La  La16  1  0.43980542  0.69751086  0.88757165  1
  La  La17  1  0.94056720  0.19951418  0.38076761  1
  La  La18  1  0.94199192  0.19426554  0.88472759  1
  La  La19  1  0.94726468  0.69022422  0.38136578  1
  Sm  Sm0  1  0.30641165  0.05965757  0.11413429  1
  Sm  Sm1  1  0.30227485  0.56718098  0.11323458  1
  Sm  Sm2  1  0.79975373  0.06377075  0.11162281  1
  Sm  Sm3  1  0.80397865  0.56214358  0.11770017  1
  Sm  Sm4  1  0.18951729  0.93936807  0.88622307  1
  Sm  Sm5  1  0.70039204  0.43624587  0.89187265  1
  Sm  Sm6  1  0.69230092  0.93427368  0.88387583  1
  Sm  Sm7  1  0.05191365  0.80317663  0.11537610  1
  Sm  Sm8  1  0.55468088  0.30089877  0.11621835  1
  Sm  Sm9  1  0.54715338  0.80462380  0.11843510  1
  Sm  Sm10  1  0.56055539  0.79598289  0.61367693  1
  Sm  Sm11  1  0.93778120  0.70146371  0.88639033  1
  Cr  Cr0  1  0.00461195  0.00004030  0.00010503  1
  Cr  Cr1  1  0.00046062  0.99558827  0.49491673  1
  Cr  Cr2  1  0.00301088  0.50307443  0.99824075  1
  Cr  Cr3  1  0.00233057  0.50250723  0.50391468  1
  Cr  Cr4  1  0.50536795  0.99596955  0.99754435  1
  Cr  Cr5  1  0.50733291  0.99937773  0.50413820  1
  Cr  Cr6  1  0.50573613  0.49968036  0.00063670  1
  Cr  Cr7  1  0.50251482  0.49770094  0.49898299  1
  Cr  Cr8  1  0.25539292  0.25196556  0.00528399  1
  Cr  Cr9  1  0.25318296  0.25041258  0.50045294  1
  Cr  Cr10  1  0.25025344  0.75037502  0.99937024  1
  Cr  Cr11  1  0.25998984  0.75119539  0.50367673  1
  Cr  Cr12  1  0.75007607  0.24657691  0.99618431  1
  Cr  Cr13  1  0.75355997  0.25183857  0.50225166  1
  Cr  Cr14  1  0.75280194  0.74863201  0.00198806  1
  Cr  Cr15  1  0.75286584  0.75023646  0.49908026  1
  Cr  Cr16  1  0.11713247  0.11870770  0.24263098  1
  Cr  Cr17  1  0.12175198  0.12599312  0.75146819  1
  Cr  Cr18  1  0.12351043  0.62622576  0.24820931  1
  Cr  Cr19  1  0.62224098  0.12308231  0.24728891  1
  Cr  Cr20  1  0.61922883  0.62098987  0.24730407  1
  Cr  Cr21  1  0.36664447  0.88103603  0.25329905  1
  Cr  Cr22  1  0.85992202  0.37795414  0.24767007  1
  Cr  Cr23  1  0.87034451  0.87750791  0.75105659  1
  Fe  Fe0  1  0.11221053  0.61123893  0.75325890  1
  Fe  Fe1  1  0.61237303  0.10092570  0.74776680  1
  Fe  Fe2  1  0.61825217  0.60665716  0.75335178  1
  Fe  Fe3  1  0.36514751  0.39778539  0.24490111  1
  Fe  Fe4  1  0.36816095  0.39840628  0.75611886  1
  Fe  Fe5  1  0.36811832  0.90021997  0.75129510  1
  Fe  Fe6  1  0.85836020  0.39462697  0.75300104  1
  Fe  Fe7  1  0.86138934  0.89417353  0.24488088  1
  O  O0  1  0.11284265  0.11467149  0.47474963  1
  O  O1  1  0.11663538  0.11061184  0.97417865  1
  O  O2  1  0.12371033  0.62249357  0.48625651  1
  O  O3  1  0.10799991  0.61362152  0.96811344  1
  O  O4  1  0.61691112  0.11823973  0.48300760  1
  O  O5  1  0.61343303  0.10497185  0.96927080  1
  O  O6  1  0.61542433  0.61952038  0.47836876  1
  O  O7  1  0.61490639  0.60546888  0.97016272  1
  O  O8  1  0.13528096  0.38941794  0.02314783  1
  O  O9  1  0.13890445  0.38693612  0.52851664  1
  O  O10  1  0.13600421  0.88545317  0.02609571  1
  O  O11  1  0.14466580  0.88033834  0.52594607  1
  O  O12  1  0.63340338  0.38082346  0.02189246  1
  O  O13  1  0.64103494  0.38478411  0.52657352  1
  O  O14  1  0.63529061  0.88013070  0.02747281  1
  O  O15  1  0.64070000  0.88358518  0.52759219  1
  O  O16  1  0.37021047  0.10874677  0.48634864  1
  O  O17  1  0.36496490  0.09946502  0.97216848  1
  O  O18  1  0.36717676  0.61281019  0.47879755  1
  O  O19  1  0.36609296  0.60714317  0.97732077  1
  O  O20  1  0.86243916  0.11542143  0.47862582  1
  O  O21  1  0.86094014  0.10145494  0.96969009  1
  O  O22  1  0.86412720  0.61500416  0.47817118  1
  O  O23  1  0.86458645  0.60924553  0.96989344  1
  O  O24  1  0.39269601  0.39662231  0.03125402  1
  O  O25  1  0.39098239  0.39102039  0.52844318  1
  O  O26  1  0.38797393  0.89315428  0.02395775  1
  O  O27  1  0.39802601  0.88692247  0.52857913  1
  O  O28  1  0.87982067  0.40004137  0.02011620  1
  O  O29  1  0.88807584  0.38813986  0.52773768  1
  O  O30  1  0.88885076  0.89529441  0.02738786  1
  O  O31  1  0.88710014  0.88546127  0.52105046  1
  O  O32  1  0.08439181  0.10799437  0.12089555  1
  O  O33  1  0.08085006  0.10459920  0.62983776  1
  O  O34  1  0.08888205  0.60838450  0.12119578  1
  O  O35  1  0.09483885  0.62322755  0.64456896  1
  O  O36  1  0.58595347  0.10461601  0.12020602  1
  O  O37  1  0.58385656  0.10290678  0.63200419  1
  O  O38  1  0.59137077  0.60995928  0.12285273  1
  O  O39  1  0.60248432  0.61798470  0.64436443  1
  O  O40  1  0.45809132  0.37674153  0.35548410  1
  O  O41  1  0.45217629  0.39619035  0.87178720  1
  O  O42  1  0.45455518  0.90076060  0.37960321  1
  O  O43  1  0.46435485  0.88717049  0.86766762  1
  O  O44  1  0.95747471  0.39364339  0.36892119  1
  O  O45  1  0.94395360  0.39339539  0.86950890  1
  O  O46  1  0.95087500  0.87805326  0.35691315  1
  O  O47  1  0.96102604  0.89364971  0.87476964  1
  O  O48  1  0.36164116  0.26282458  0.13984572  1
  O  O49  1  0.34493707  0.27843839  0.64658034  1
  O  O50  1  0.35230931  0.76883801  0.13504099  1
  O  O51  1  0.34697541  0.77590934  0.63432170  1
  O  O52  1  0.84015983  0.26545483  0.12887801  1
  O  O53  1  0.82758131  0.28047441  0.63419377  1
  O  O54  1  0.86375054  0.76272965  0.14098821  1
  O  O55  1  0.82391822  0.77477120  0.62524997  1
  O  O56  1  0.20176680  0.22535491  0.36507613  1
  O  O57  1  0.21056109  0.23117057  0.87133585  1
  O  O58  1  0.19954854  0.72880215  0.37807426  1
  O  O59  1  0.20991418  0.73325504  0.86034446  1
  O  O60  1  0.69740332  0.22617947  0.37672112  1
  O  O61  1  0.70239176  0.22625297  0.85535185  1
  O  O62  1  0.69158245  0.73032315  0.37461770  1
  O  O63  1  0.71772551  0.73043071  0.85936264  1
  O  O64  1  0.41542564  0.06457837  0.24398900  1
  O  O65  1  0.42130233  0.07120278  0.75030636  1
  O  O66  1  0.40681380  0.56874213  0.24376392  1
  O  O67  1  0.42766574  0.57029341  0.75190037  1
  O  O68  1  0.90146752  0.06717973  0.24280375  1
  O  O69  1  0.90249216  0.07310168  0.74933778  1
  O  O70  1  0.91670584  0.56484428  0.24559449  1
  O  O71  1  0.92485102  0.56559574  0.75618874  1
  O  O72  1  0.18371200  0.43347953  0.25034086  1
  O  O73  1  0.17642373  0.43889638  0.75098199  1
  O  O74  1  0.15495066  0.92700637  0.24554695  1
  O  O75  1  0.18709376  0.93407757  0.75680696  1
  O  O76  1  0.65253292  0.42668775  0.24573018  1
  O  O77  1  0.67121906  0.42908183  0.75665058  1
  O  O78  1  0.67576435  0.92505257  0.24636637  1
  O  O79  1  0.64507043  0.92231587  0.74910846  1
loop_
_geom_bond_atom_site_label_1
_geom_bond_atom_site_label_2
_geom_bond_distance
_geom_bond_site_symmetry_2
La0 O49 2.349806 1_555
La0 O65 2.372980 1_555
La0 O11 2.475337 1_545
La0 O27 2.549226 1_545
La0 O33 2.609330 1_555
La0 O16 2.759050 1_555
La0 O0 2.919237 1_555
La0 O37 3.014631 1_555
La1 O51 2.392180 1_555
La1 O67 2.395497 1_555
La1 O9 2.441588 1_555
La1 O25 2.467646 1_555
La1 O35 2.596384 1_555
La1 O2 2.793281 1_555
La1 O18 2.919031 1_555
La1 O39 3.193548 1_555
La2 O69 2.273718 1_555
La2 O53 2.425581 1_555
La2 O31 2.495715 1_545
La2 O15 2.505878 1_545
La2 O37 2.675209 1_555
La2 O20 2.875897 1_555
La2 O4 2.893238 1_555
La2 O33 2.911977 1_655
La3 O55 2.366145 1_555
La3 O71 2.426578 1_555
La3 O39 2.478670 1_555
La3 O13 2.492934 1_555
La3 O29 2.526762 1_555
La3 O6 2.940098 1_555
La3 O22 2.960168 1_555
La4 O72 2.314266 1_555
La4 O56 2.334518 1_555
La4 O44 2.481672 1_455
La4 O18 2.620230 1_555
La4 O2 2.638399 1_555
La5 O57 2.303203 1_555
La5 O73 2.362985 1_555
La5 O3 2.479199 1_555
La5 O19 2.506892 1_555
La5 O45 2.672218 1_455
La5 O8 2.914072 1_556
La5 O41 3.003496 1_555
La5 O24 3.021861 1_556
La6 O74 2.278159 1_555
La6 O58 2.385080 1_555
La6 O0 2.528204 1_565
La6 O46 2.555021 1_455
La6 O16 2.610623 1_565
La7 O76 2.288473 1_555
La7 O60 2.381343 1_555
La7 O40 2.473883 1_555
La7 O22 2.588200 1_555
La7 O6 2.588572 1_555
La8 O78 2.309095 1_555
La8 O62 2.350986 1_555
La8 O20 2.564849 1_565
La8 O42 2.600655 1_555
La8 O4 2.604677 1_565
La9 O72 2.307341 1_555
La9 O32 2.348042 1_555
La9 O52 2.416526 1_455
La9 O8 2.622020 1_555
La9 O28 2.637597 1_455
La10 O33 2.339953 1_555
La10 O73 2.391029 1_555
La10 O9 2.453111 1_555
La10 O29 2.497890 1_455
La10 O53 2.701576 1_455
La10 O20 2.900645 1_455
La10 O0 2.934024 1_555
La10 O49 3.057452 1_555
La11 O35 2.333988 1_555
La11 O75 2.400999 1_555
La11 O11 2.474919 1_555
La11 O31 2.515806 1_455
La11 O55 2.670551 1_455
La11 O2 2.901942 1_555
La11 O22 2.966429 1_455
La12 O37 2.398029 1_555
La12 O77 2.425681 1_555
La12 O25 2.456421 1_555
La12 O13 2.484927 1_555
La12 O49 2.595381 1_555
La12 O16 2.829833 1_555
La12 O4 2.853504 1_555
La12 O53 2.936907 1_555
La13 O64 2.291107 1_555
La13 O40 2.305439 1_555
La13 O56 2.594468 1_555
La13 O4 2.626660 1_555
La13 O16 2.715510 1_555
La13 O60 2.894181 1_555
La13 O13 3.080636 1_555
La13 O25 3.120559 1_555
La14 O65 2.346365 1_555
La14 O41 2.403222 1_555
La14 O17 2.469328 1_555
La14 O57 2.488238 1_555
La14 O5 2.509345 1_555
La14 O12 2.898496 1_556
La15 O66 2.349037 1_555
La15 O42 2.362420 1_555
La15 O6 2.528207 1_555
La15 O18 2.554534 1_555
La15 O58 2.676788 1_555
La15 O62 2.843965 1_555
La15 O27 2.987735 1_555
La15 O15 2.998473 1_555
La16 O43 2.349834 1_555
La16 O67 2.354944 1_555
La16 O19 2.487877 1_555
La16 O59 2.495809 1_555
La16 O7 2.506493 1_555
La16 O26 2.948354 1_556
La17 O44 2.323903 1_555
La17 O68 2.343606 1_555
La17 O0 2.543341 1_655
La17 O20 2.598773 1_555
La17 O60 2.687720 1_555
La17 O56 3.008604 1_655
La17 O9 3.017660 1_655
La17 O29 3.039930 1_555
La18 O69 2.268785 1_555
La18 O45 2.394767 1_555
La18 O21 2.474636 1_555
La18 O1 2.506581 1_655
La18 O61 2.586459 1_555
La18 O8 2.968065 1_656
La18 O28 3.050241 1_556
La19 O70 2.304120 1_555
La19 O46 2.342193 1_555
La19 O22 2.554335 1_555
La19 O2 2.566637 1_655
La19 O62 2.837201 1_555
La19 O58 2.843060 1_655
La19 O11 3.003561 1_655
La19 O31 3.027329 1_555
Cr0 O32 2.012981 1_555
Cr0 O10 2.013947 1_545
Cr0 O21 2.016579 1_454
Cr0 O30 2.019913 1_445
Cr0 O1 2.022110 1_554
Cr0 O47 2.073407 1_444
Cr1 O31 2.030939 1_455
Cr1 O0 2.032768 1_565
Cr1 O20 2.077699 1_465
Cr1 O11 2.132916 1_555
Cr1 O33 2.208209 1_565
Cr1 O46 2.282248 1_455
Cr2 O23 2.005791 1_455
Cr2 O28 2.006876 1_456
Cr2 O8 2.008460 1_556
Cr2 O3 2.017616 1_555
Cr2 O34 2.041225 1_556
Cr2 O45 2.119577 1_455
Cr3 O22 2.045841 1_455
Cr3 O29 2.046557 1_455
Cr3 O9 2.055028 1_555
Cr3 O2 2.081715 1_555
Cr3 O44 2.220669 1_455
Cr3 O35 2.328635 1_555
Cr4 O17 1.989743 1_565
Cr4 O5 2.006265 1_565
Cr4 O26 2.008181 1_556
Cr4 O14 2.030659 1_556
Cr4 O36 2.040654 1_566
Cr4 O43 2.149969 1_555
Cr5 O16 1.989614 1_565
Cr5 O27 2.000795 1_555
Cr5 O4 2.020601 1_565
Cr5 O15 2.029275 1_555
Cr5 O42 2.033142 1_555
Cr5 O37 2.093510 1_565
Cr6 O12 2.006482 1_555
Cr6 O19 2.008631 1_554
Cr6 O7 2.014087 1_554
Cr6 O24 2.023895 1_555
Cr6 O38 2.046216 1_555
Cr6 O41 2.107797 1_554
Cr7 O25 2.027271 1_555
Cr7 O18 2.028186 1_555
Cr7 O13 2.058307 1_555
Cr7 O6 2.064318 1_555
Cr7 O40 2.378804 1_555
Cr7 O39 2.399836 1_555
Cr8 O1 2.042830 1_554
Cr8 O8 2.080937 1_555
Cr8 O24 2.081491 1_555
Cr8 O17 2.168292 1_554
Cr8 O57 2.215819 1_554
Cr8 O48 2.281812 1_555
Cr9 O0 2.032482 1_555
Cr9 O25 2.042540 1_555
Cr9 O9 2.055947 1_555
Cr9 O16 2.087582 1_555
Cr9 O56 2.222053 1_555
Cr9 O49 2.395635 1_555
Cr10 O3 2.031460 1_555
Cr10 O10 2.039788 1_556
Cr10 O26 2.075489 1_556
Cr10 O19 2.105518 1_555
Cr10 O50 2.267597 1_556
Cr10 O59 2.321395 1_555
Cr11 O11 1.987403 1_555
Cr11 O2 1.987843 1_555
Cr11 O18 2.008208 1_555
Cr11 O27 2.018642 1_555
Cr11 O58 2.056713 1_555
Cr11 O51 2.147885 1_555
Cr12 O5 2.047015 1_555
Cr12 O12 2.048659 1_556
Cr12 O21 2.095806 1_555
Cr12 O28 2.114140 1_556
Cr12 O52 2.200449 1_556
Cr12 O61 2.333327 1_555
Cr13 O29 1.994249 1_555
Cr13 O20 2.000975 1_555
Cr13 O13 2.002040 1_555
Cr13 O4 2.019814 1_555
Cr13 O60 2.048642 1_555
Cr13 O53 2.149213 1_555
Cr14 O14 2.032949 1_555
Cr14 O7 2.048561 1_554
Cr14 O23 2.074172 1_554
Cr14 O30 2.092004 1_555
Cr14 O54 2.350318 1_555
Cr14 O63 2.390529 1_554
Cr15 O6 1.994863 1_555
Cr15 O31 2.000374 1_555
Cr15 O22 2.002206 1_555
Cr15 O15 2.016160 1_555
Cr15 O62 2.043942 1_555
Cr15 O55 2.062114 1_555
Cr16 O56 2.036694 1_555
Cr16 O32 2.050226 1_555
Cr16 O74 2.262598 1_545
Cr16 O68 2.454766 1_455
Cr17 O33 2.005088 1_555
Cr17 O57 2.005158 1_555
Cr17 O75 2.349915 1_545
Cr17 O69 2.481610 1_455
Cr18 O34 2.118047 1_555
Cr18 O58 2.118942 1_555
Cr18 O72 2.328743 1_555
Cr18 O70 2.371228 1_455
Cr19 O60 2.113586 1_555
Cr19 O36 2.114742 1_555
Cr19 O78 2.354823 1_545
Cr19 O64 2.357498 1_555
Cr20 O62 2.099184 1_555
Cr20 O38 2.106213 1_555
Cr20 O76 2.261926 1_555
Cr20 O66 2.397287 1_555
Cr21 O50 2.046462 1_555
Cr21 O42 2.092464 1_555
Cr21 O64 2.248399 1_565
Cr21 O74 2.372944 1_555
Cr22 O52 2.041109 1_555
Cr22 O44 2.041576 1_555
Cr22 O70 2.253647 1_555
Cr22 O76 2.354958 1_555
Cr23 O47 2.065629 1_555
Cr23 O55 2.067348 1_555
Cr23 O69 2.289783 1_565
Cr23 O79 2.537121 1_555
Fe0 O35 1.938746 1_555
Fe0 O59 1.940414 1_555
Fe0 O73 2.103261 1_555
Fe0 O71 2.154509 1_455
Fe1 O61 1.942516 1_555
Fe1 O37 1.998101 1_555
Fe1 O79 2.096328 1_545
Fe1 O65 2.154474 1_555
Fe2 O63 1.942732 1_555
Fe2 O39 1.944906 1_555
Fe2 O67 2.136261 1_555
Fe2 O77 2.143534 1_555
Fe3 O48 2.004005 1_555
Fe3 O40 2.013046 1_555
Fe3 O66 2.027383 1_555
Fe3 O72 2.074584 1_555
Fe4 O49 1.935443 1_555
Fe4 O41 1.990336 1_555
Fe4 O67 2.114128 1_555
Fe4 O73 2.152346 1_555
Fe5 O51 2.058165 1_555
Fe5 O65 2.059043 1_565
Fe5 O75 2.066619 1_555
Fe5 O43 2.071188 1_555
Fe6 O45 2.002359 1_555
Fe6 O53 2.023830 1_555
Fe6 O71 2.075294 1_555
Fe6 O77 2.124998 1_555
Fe7 O54 1.989750 1_555
Fe7 O46 2.003887 1_555
Fe7 O68 2.053113 1_565
Fe7 O78 2.090816 1_555
O1 Sm4 2.412507 1_545
O3 Sm11 2.437535 1_455
O5 Sm6 2.422856 1_545
O6 Sm10 2.847126 1_555
O7 Sm5 2.395290 1_555
O8 Sm1 2.485604 1_555
O10 Sm0 2.476107 1_565
O10 Sm7 2.487241 1_555
O12 Sm8 2.517995 1_555
O12 Sm3 2.548208 1_555
O12 Sm5 2.891414 1_554
O14 Sm9 2.495316 1_555
O14 Sm2 2.499924 1_565
O15 Sm10 2.449352 1_555
O17 Sm4 2.409011 1_545
O18 Sm10 2.880013 1_555
O19 Sm1 2.894183 1_556
O19 Sm9 2.941010 1_556
O21 Sm6 2.411364 1_545
O23 Sm11 2.400844 1_555
O23 Sm5 2.409582 1_555
O24 Sm1 2.466816 1_555
O24 Sm8 2.473091 1_555
O26 Sm0 2.453918 1_565
O26 Sm9 2.499129 1_555
O26 Sm4 2.936046 1_554
O27 Sm10 2.442394 1_555
O28 Sm3 2.461917 1_555
O28 Sm5 2.670342 1_554
O30 Sm2 2.462759 1_565
O30 Sm7 2.481825 1_655
O32 Sm0 2.549776 1_555
O34 Sm7 2.311034 1_555
O34 Sm1 2.446467 1_555
O36 Sm8 2.308353 1_555
O36 Sm2 2.453485 1_555
O38 Sm9 2.317262 1_555
O38 Sm3 2.439014 1_555
O39 Sm10 2.299371 1_555
O41 Sm5 2.671106 1_555
O43 Sm6 2.481106 1_555
O45 Sm5 2.864894 1_555
O47 Sm11 2.308409 1_555
O47 Sm4 2.508416 1_655
O48 Sm0 2.275545 1_555
O48 Sm8 2.365154 1_555
O50 Sm1 2.263205 1_555
O50 Sm9 2.316006 1_555
O51 Sm10 2.520819 1_555
O52 Sm2 2.265505 1_555
O54 Sm3 2.267444 1_555
O54 Sm7 2.339269 1_655
O55 Sm10 2.870402 1_555
O59 Sm4 2.294275 1_555
O61 Sm5 2.295677 1_555
O63 Sm6 2.281222 1_555
O63 Sm11 2.374415 1_555
O64 Sm0 2.235419 1_555
O66 Sm1 2.248162 1_555
O68 Sm2 2.245780 1_555
O70 Sm3 2.222904 1_555
O71 Sm11 2.307621 1_555
O74 Sm7 2.220947 1_555
O75 Sm4 2.282741 1_555
O76 Sm8 2.210130 1_555
O77 Sm5 2.306833 1_555
O78 Sm9 2.253403 1_555
O79 Sm6 2.253783 1_555
O79 Sm10 2.269507 1_555
