# generated using pymatgen
data_Sr4NbCoO8
_symmetry_space_group_name_H-M   'P 1'
_cell_length_a   7.01279883
_cell_length_b   7.01279883
_cell_length_c   5.57825000
_cell_angle_alpha   90.00000000
_cell_angle_beta   90.00000000
_cell_angle_gamma   132.65167332
_symmetry_Int_Tables_number   1
_chemical_formula_structural   Sr4NbCoO8
_chemical_formula_sum   'Sr4 Nb1 Co1 O8'
_cell_volume   201.76941925
_cell_formula_units_Z   1
loop_
 _symmetry_equiv_pos_site_id
 _symmetry_equiv_pos_as_xyz
  1  'x, y, z'
loop_
 _atom_site_type_symbol
 _atom_site_label
 _atom_site_symmetry_multiplicity
 _atom_site_fract_x
 _atom_site_fract_y
 _atom_site_fract_z
 _atom_site_occupancy
  Sr  Sr0  1  0.64890300  0.35109700  0.00000000  1
  Sr  Sr1  1  0.14496600  0.85503400  0.50000000  1
  Sr  Sr2  1  0.85503400  0.14496600  0.50000000  1
  Sr  Sr3  1  0.35109700  0.64890300  0.00000000  1
  Nb  Nb0  1  0.50000000  0.50000000  0.50000000  1
  Co  Co0  1  0.00000000  0.00000000  0.00000000  1
  O  O0  1  0.83714100  0.16285900  0.00000000  1
  O  O1  1  0.33991200  0.66008800  0.50000000  1
  O  O2  1  0.66008800  0.33991200  0.50000000  1
  O  O3  1  0.16285900  0.83714100  0.00000000  1
  O  O4  1  0.74986700  0.74986700  0.75075800  1
  O  O5  1  0.25013300  0.25013300  0.24924200  1
  O  O6  1  0.25013300  0.25013300  0.75075800  1
  O  O7  1  0.74986700  0.74986700  0.24924200  1
loop_
_geom_bond_atom_site_label_1
_geom_bond_atom_site_label_2
_geom_bond_distance
_geom_bond_site_symmetry_2
Nb0 O7 1.984139 1_555
Nb0 O4 1.984139 1_555
Nb0 O5 1.984139 1_555
Nb0 O6 1.984139 1_555
Nb0 O1 2.056371 1_555
Nb0 O2 2.056371 1_555
Co0 O4 1.979252 1_444
Co0 O6 1.979252 1_554
Co0 O5 1.979252 1_555
Co0 O7 1.979252 1_445
Co0 O0 2.091966 1_455
Co0 O3 2.091966 1_545
O0 Sr0 2.417965 1_555
O0 Sr2 2.798579 1_555
O0 Sr2 2.798579 1_554
O0 Sr3 2.821584 1_655
O0 Sr3 2.821584 1_545
O1 Sr1 2.504131 1_555
O1 Sr3 2.792823 1_555
O1 Sr3 2.792823 1_556
O1 Sr2 2.822575 1_565
O1 Sr2 2.822575 1_455
O2 Sr2 2.504131 1_555
O2 Sr0 2.792823 1_555
O2 Sr0 2.792823 1_556
O2 Sr1 2.822575 1_655
O2 Sr1 2.822575 1_545
O3 Sr3 2.417965 1_555
O3 Sr1 2.798579 1_554
O3 Sr1 2.798579 1_555
O3 Sr0 2.821584 1_565
O3 Sr0 2.821584 1_455
O4 Sr1 2.721863 1_655
O4 Sr2 2.721863 1_565
O4 Sr3 2.751660 1_556
O4 Sr0 2.751660 1_556
O5 Sr2 2.721863 1_455
O5 Sr1 2.721863 1_545
O5 Sr3 2.751660 1_555
O5 Sr0 2.751660 1_555
O6 Sr2 2.721863 1_455
O6 Sr1 2.721863 1_545
O6 Sr3 2.751660 1_556
O6 Sr0 2.751660 1_556
O7 Sr1 2.721863 1_655
O7 Sr2 2.721863 1_565
O7 Sr3 2.751660 1_555
O7 Sr0 2.751660 1_555
