# generated using pymatgen
data_Tb2Ce
_symmetry_space_group_name_H-M   'P 1'
_cell_length_a   17.67080368
_cell_length_b   17.67080368
_cell_length_c   17.67080286
_cell_angle_alpha   23.63844657
_cell_angle_beta   23.63844657
_cell_angle_gamma   23.63844036
_symmetry_Int_Tables_number   1
_chemical_formula_structural   Tb2Ce
_chemical_formula_sum   'Tb16 Ce8'
_cell_volume   779.15428873
_cell_formula_units_Z   8
loop_
 _symmetry_equiv_pos_site_id
 _symmetry_equiv_pos_as_xyz
  1  'x, y, z'
loop_
 _atom_site_type_symbol
 _atom_site_label
 _atom_site_symmetry_multiplicity
 _atom_site_fract_x
 _atom_site_fract_y
 _atom_site_fract_z
 _atom_site_occupancy
  Tb  Tb0_0  1  0.38908346  0.38908346  0.38908347  1
  Tb  Tb0_1  1  0.38908347  0.38908346  0.88908347  1
  Tb  Tb0_2  1  0.38908347  0.88908346  0.38908347  1
  Tb  Tb0_3  1  0.38908347  0.88908346  0.88908346  1
  Tb  Tb0_4  1  0.88908347  0.38908346  0.38908347  1
  Tb  Tb0_5  1  0.88908347  0.38908346  0.88908346  1
  Tb  Tb0_6  1  0.88908347  0.88908347  0.38908347  1
  Tb  Tb0_7  1  0.88908347  0.88908346  0.88908347  1
  Tb  Tb1_0  1  0.11091654  0.11091653  0.11091653  1
  Tb  Tb1_1  1  0.11091654  0.11091653  0.61091653  1
  Tb  Tb1_2  1  0.11091654  0.61091653  0.11091653  1
  Tb  Tb1_3  1  0.11091653  0.61091653  0.61091653  1
  Tb  Tb1_4  1  0.61091654  0.11091653  0.11091653  1
  Tb  Tb1_5  1  0.61091653  0.11091653  0.61091653  1
  Tb  Tb1_6  1  0.61091653  0.61091653  0.11091653  1
  Tb  Tb1_7  1  0.61091654  0.61091653  0.61091653  1
  Ce  Ce0_0  1  0.00000000  0.00000000  0.00000000  1
  Ce  Ce0_1  1  0.00000000  0.00000000  0.50000000  1
  Ce  Ce0_2  1  0.00000000  0.50000000  0.00000000  1
  Ce  Ce0_3  1  0.00000000  0.50000000  0.50000000  1
  Ce  Ce0_4  1  0.50000000  0.00000000  0.00000000  1
  Ce  Ce0_5  1  0.50000000  0.00000000  0.50000000  1
  Ce  Ce0_6  1  0.50000000  0.50000000  0.00000000  1
  Ce  Ce0_7  1  0.50000000  0.50000000  0.50000000  1
loop_
_geom_bond_atom_site_label_1
_geom_bond_atom_site_label_2
_geom_bond_distance
_geom_bond_site_symmetry_2
Tb0_0 Tb1_5 3.527183 1_555
Tb0_0 Tb1_3 3.527183 1_555
Tb0_0 Tb1_6 3.527184 1_555
Tb0_0 Tb0_6 3.619412 1_455
Tb0_0 Tb0_6 3.619412 1_545
Tb0_0 Tb0_5 3.619413 1_455
Tb0_0 Tb0_3 3.619413 1_545
Tb0_0 Tb0_3 3.619413 1_554
Tb0_0 Tb0_5 3.619413 1_554
Tb0_1 Tb1_4 3.527183 1_556
Tb0_1 Tb1_2 3.527183 1_556
Tb0_1 Tb1_7 3.527184 1_555
Tb0_1 Tb0_7 3.619412 1_545
Tb0_1 Tb0_7 3.619412 1_455
Tb0_1 Tb0_2 3.619413 1_555
Tb0_1 Tb0_4 3.619413 1_555
Tb0_1 Tb0_4 3.619413 1_456
Tb0_1 Tb0_2 3.619413 1_546
Tb0_2 Tb1_1 3.527183 1_565
Tb0_2 Tb1_7 3.527183 1_555
Tb0_2 Tb1_4 3.527184 1_565
Tb0_2 Tb0_4 3.619412 1_555
Tb0_2 Tb0_4 3.619412 1_465
Tb0_2 Tb0_7 3.619413 1_554
Tb0_2 Tb0_7 3.619413 1_455
Tb0_3 Tb1_6 3.527183 1_556
Tb0_3 Tb1_0 3.527183 1_566
Tb0_3 Tb1_5 3.527184 1_565
Tb0_3 Tb0_5 3.619412 1_465
Tb0_3 Tb0_5 3.619412 1_555
Tb0_3 Tb0_6 3.619413 1_555
Tb0_3 Tb0_6 3.619413 1_456
Tb0_4 Tb1_7 3.527183 1_555
Tb0_4 Tb1_1 3.527183 1_655
Tb0_4 Tb1_2 3.527184 1_655
Tb0_4 Tb0_7 3.619413 1_554
Tb0_4 Tb0_7 3.619413 1_545
Tb0_5 Tb1_6 3.527183 1_556
Tb0_5 Tb1_0 3.527183 1_656
Tb0_5 Tb1_3 3.527184 1_655
Tb0_5 Tb0_6 3.619413 1_555
Tb0_5 Tb0_6 3.619413 1_546
Tb0_6 Tb1_3 3.527183 1_655
Tb0_6 Tb1_5 3.527183 1_565
Tb0_6 Tb1_0 3.527184 1_665
Tb0_7 Tb1_2 3.527183 1_656
Tb0_7 Tb1_4 3.527183 1_566
Tb0_7 Tb1_1 3.527184 1_665
Tb1_0 Tb1_6 3.619412 1_455
Tb1_0 Tb1_6 3.619412 1_545
Tb1_0 Tb1_3 3.619413 1_545
Tb1_0 Tb1_3 3.619413 1_554
Tb1_0 Tb1_5 3.619413 1_455
Tb1_0 Tb1_5 3.619413 1_554
Tb1_1 Tb1_7 3.619412 1_455
Tb1_1 Tb1_7 3.619412 1_545
Tb1_1 Tb1_4 3.619413 1_555
Tb1_1 Tb1_2 3.619413 1_555
Tb1_1 Tb1_4 3.619413 1_456
Tb1_1 Tb1_2 3.619413 1_546
Tb1_2 Tb1_4 3.619412 1_555
Tb1_2 Tb1_4 3.619412 1_465
Tb1_2 Tb1_7 3.619413 1_455
Tb1_2 Tb1_7 3.619413 1_554
Tb1_3 Tb1_5 3.619412 1_465
Tb1_3 Tb1_5 3.619412 1_555
Tb1_3 Tb1_6 3.619413 1_456
Tb1_3 Tb1_6 3.619413 1_555
Tb1_4 Tb1_7 3.619413 1_554
Tb1_4 Tb1_7 3.619413 1_545
Tb1_5 Tb1_6 3.619413 1_546
Tb1_5 Tb1_6 3.619413 1_555
Ce0_0 Tb1_1 3.551450 1_554
Ce0_0 Tb0_6 3.551450 1_445
Ce0_0 Tb1_4 3.551450 1_455
Ce0_0 Tb1_2 3.551450 1_545
Ce0_0 Tb0_3 3.551450 1_544
Ce0_0 Tb0_5 3.551450 1_454
Ce0_0 Ce0_6 3.619412 1_545
Ce0_0 Ce0_6 3.619412 1_455
Ce0_0 Ce0_3 3.619413 1_554
Ce0_0 Ce0_5 3.619413 1_455
Ce0_0 Ce0_3 3.619413 1_545
Ce0_0 Ce0_5 3.619413 1_554
Ce0_1 Tb0_7 3.551450 1_445
Ce0_1 Tb1_0 3.551450 1_555
Ce0_1 Tb0_2 3.551450 1_545
Ce0_1 Tb0_4 3.551450 1_455
Ce0_1 Tb1_3 3.551450 1_545
Ce0_1 Tb1_5 3.551450 1_455
Ce0_1 Ce0_7 3.619412 1_455
Ce0_1 Ce0_7 3.619412 1_545
Ce0_1 Ce0_4 3.619413 1_456
Ce0_1 Ce0_2 3.619413 1_546
Ce0_1 Ce0_4 3.619413 1_555
Ce0_1 Ce0_2 3.619413 1_555
Ce0_2 Tb1_3 3.551450 1_554
Ce0_2 Tb0_4 3.551450 1_455
Ce0_2 Tb1_0 3.551450 1_555
Ce0_2 Tb0_7 3.551450 1_454
Ce0_2 Tb0_1 3.551450 1_554
Ce0_2 Tb1_6 3.551450 1_455
Ce0_2 Ce0_4 3.619412 1_555
Ce0_2 Ce0_4 3.619412 1_465
Ce0_2 Ce0_7 3.619413 1_554
Ce0_2 Ce0_7 3.619413 1_455
Ce0_3 Tb1_2 3.551450 1_555
Ce0_3 Tb0_5 3.551450 1_455
Ce0_3 Tb0_0 3.551450 1_555
Ce0_3 Tb1_1 3.551450 1_555
Ce0_3 Tb1_7 3.551450 1_455
Ce0_3 Tb0_6 3.551450 1_455
Ce0_3 Ce0_5 3.619412 1_555
Ce0_3 Ce0_5 3.619412 1_465
Ce0_3 Ce0_6 3.619413 1_555
Ce0_3 Ce0_6 3.619413 1_456
Ce0_4 Tb0_2 3.551450 1_545
Ce0_4 Tb1_5 3.551450 1_554
Ce0_4 Tb0_7 3.551450 1_544
Ce0_4 Tb1_0 3.551450 1_555
Ce0_4 Tb0_1 3.551450 1_554
Ce0_4 Tb1_6 3.551450 1_545
Ce0_4 Ce0_7 3.619413 1_554
Ce0_4 Ce0_7 3.619413 1_545
Ce0_5 Tb0_3 3.551450 1_545
Ce0_5 Tb1_4 3.551450 1_555
Ce0_5 Tb0_0 3.551450 1_555
Ce0_5 Tb1_1 3.551450 1_555
Ce0_5 Tb0_6 3.551450 1_545
Ce0_5 Tb1_7 3.551450 1_545
Ce0_5 Ce0_6 3.619413 1_555
Ce0_5 Ce0_6 3.619413 1_546
Ce0_6 Tb0_0 3.551450 1_555
Ce0_6 Tb1_7 3.551450 1_554
Ce0_6 Tb1_2 3.551450 1_555
Ce0_6 Tb1_4 3.551450 1_555
Ce0_6 Tb0_3 3.551450 1_554
Ce0_6 Tb0_5 3.551450 1_554
Ce0_7 Tb1_6 3.551450 1_555
Ce0_7 Tb0_1 3.551450 1_555
Ce0_7 Tb1_3 3.551450 1_555
Ce0_7 Tb0_2 3.551450 1_555
Ce0_7 Tb1_5 3.551450 1_555
Ce0_7 Tb0_4 3.551450 1_555
