# generated using pymatgen
data_Al2O3
_symmetry_space_group_name_H-M   'P 1'
_cell_length_a   10.00150201
_cell_length_b   10.60843706
_cell_length_c   10.62209261
_cell_angle_alpha   92.88793449
_cell_angle_beta   90.63806451
_cell_angle_gamma   92.53973756
_symmetry_Int_Tables_number   1
_chemical_formula_structural   Al2O3
_chemical_formula_sum   'Al40 O60'
_cell_volume   1124.36938703
_cell_formula_units_Z   20
loop_
 _symmetry_equiv_pos_site_id
 _symmetry_equiv_pos_as_xyz
  1  'x, y, z'
loop_
 _atom_site_type_symbol
 _atom_site_label
 _atom_site_symmetry_multiplicity
 _atom_site_fract_x
 _atom_site_fract_y
 _atom_site_fract_z
 _atom_site_occupancy
  Al  Al0  1  0.57745600  0.29587700  0.58737400  1
  Al  Al1  1  0.84133700  0.05748300  0.46791000  1
  Al  Al2  1  0.31786600  0.31010300  0.58297000  1
  Al  Al3  1  0.22619600  0.52082100  0.39220100  1
  Al  Al4  1  0.81894600  0.32846200  0.21819800  1
  Al  Al5  1  0.27459900  0.81669000  0.50173600  1
  Al  Al6  1  0.12258300  0.86927700  0.68937000  1
  Al  Al7  1  0.03767600  0.28120400  0.44379400  1
  Al  Al8  1  0.52512700  0.23544600  0.11055200  1
  Al  Al9  1  0.73282600  0.40201800  0.93279300  1
  Al  Al10  1  0.51256800  0.56468700  0.70704000  1
  Al  Al11  1  0.00900400  0.65894800  0.84095800  1
  Al  Al12  1  0.50530200  0.04338400  0.46858100  1
  Al  Al13  1  0.85481200  0.75675600  0.52641000  1
  Al  Al14  1  0.46143100  0.02633600  0.95166700  1
  Al  Al15  1  0.67901000  0.77274800  0.90778300  1
  Al  Al16  1  0.20962500  0.19562400  0.03981000  1
  Al  Al17  1  0.70583000  0.04952100  0.09189800  1
  Al  Al18  1  0.30434700  0.17569000  0.32249400  1
  Al  Al19  1  0.39989000  0.89609700  0.22578500  1
  Al  Al20  1  0.66968500  0.08094800  0.79677000  1
  Al  Al21  1  0.32588900  0.71801800  0.94212100  1
  Al  Al22  1  0.87421900  0.79147500  0.08520600  1
  Al  Al23  1  0.07339800  0.86856100  0.35688800  1
  Al  Al24  1  0.15533000  0.87288900  0.04508800  1
  Al  Al25  1  0.46988000  0.42979300  0.34226800  1
  Al  Al26  1  0.01605200  0.37484400  0.97173900  1
  Al  Al27  1  0.51387600  0.52479500  0.98007700  1
  Al  Al28  1  0.99803600  0.07931200  0.91844600  1
  Al  Al29  1  0.87711900  0.92915600  0.73144200  1
  Al  Al30  1  0.93667500  0.60112400  0.27410100  1
  Al  Al31  1  0.70769300  0.53414800  0.43651400  1
  Al  Al32  1  0.55198500  0.74628300  0.44711200  1
  Al  Al33  1  0.20164500  0.49127200  0.77889500  1
  Al  Al34  1  0.45914100  0.85837400  0.73411600  1
  Al  Al35  1  0.63375200  0.68310800  0.20439500  1
  Al  Al36  1  0.22841100  0.51173200  0.13204900  1
  Al  Al37  1  0.86273800  0.24716800  0.70924400  1
  Al  Al38  1  0.00078700  0.09926600  0.21536600  1
  Al  Al39  1  0.03299300  0.58508000  0.54660600  1
  O  O0  1  0.02635500  0.85218000  0.15721900  1
  O  O1  1  0.17661300  0.13869000  0.20476000  1
  O  O2  1  0.63346600  0.12384700  0.95647000  1
  O  O3  1  0.19788400  0.21628300  0.45304900  1
  O  O4  1  0.58164100  0.38235200  0.03622800  1
  O  O5  1  0.92114800  0.20621100  0.55162200  1
  O  O6  1  0.42126200  0.85981300  0.90214800  1
  O  O7  1  0.12288800  0.90546400  0.52711100  1
  O  O8  1  0.62706200  0.50604700  0.84696400  1
  O  O9  1  0.04227600  0.97613000  0.78709100  1
  O  O10  1  0.20110100  0.34562300  0.69874600  1
  O  O11  1  0.07016700  0.44685600  0.45203400  1
  O  O12  1  0.94652200  0.24239300  0.29547200  1
  O  O13  1  0.51477600  0.00302900  0.11778100  1
  O  O14  1  0.59579400  0.67223400  0.03496700  1
  O  O15  1  0.73040200  0.91282400  0.81856900  1
  O  O16  1  0.24937200  0.84350600  0.33440400  1
  O  O17  1  0.86020800  0.38627800  0.06246500  1
  O  O18  1  0.81477000  0.67765900  0.18540400  1
  O  O19  1  0.28977000  0.82934000  0.67886500  1
  O  O20  1  0.39880600  0.03815100  0.33518700  1
  O  O21  1  0.87167400  0.36888500  0.82915800  1
  O  O22  1  0.34954300  0.56919700  0.02305500  1
  O  O23  1  0.85801200  0.10712900  0.79670300  1
  O  O24  1  0.95880200  0.77250000  0.69020100  1
  O  O25  1  0.38276700  0.17488700  0.00405300  1
  O  O26  1  0.14720000  0.76264200  0.90719000  1
  O  O27  1  0.08932000  0.51980900  0.92045300  1
  O  O28  1  0.54244100  0.61209100  0.54171700  1
  O  O29  1  0.07462100  0.57517200  0.70511200  1
  O  O30  1  0.51882500  0.78796700  0.28441200  1
  O  O31  1  0.34324700  0.41978000  0.46202100  1
  O  O32  1  0.72097800  0.73183200  0.41791700  1
  O  O33  1  0.16800000  0.35875600  0.08517400  1
  O  O34  1  0.95907700  0.00266200  0.34683300  1
  O  O35  1  0.90074700  0.08079500  0.07211900  1
  O  O36  1  0.07699700  0.22763600  0.91700600  1
  O  O37  1  0.62344200  0.37983500  0.45346500  1
  O  O38  1  0.33617500  0.51847300  0.26466800  1
  O  O39  1  0.97873900  0.72439200  0.40112600  1
  O  O40  1  0.69050800  0.20565600  0.18341200  1
  O  O41  1  0.67304900  0.07152800  0.44111600  1
  O  O42  1  0.09499000  0.57280200  0.22068700  1
  O  O43  1  0.84819800  0.58354900  0.55056900  1
  O  O44  1  0.47109800  0.39611600  0.67214400  1
  O  O45  1  0.44195100  0.18364400  0.54451300  1
  O  O46  1  0.68457100  0.21948300  0.69077700  1
  O  O47  1  0.73465100  0.88216700  0.06281100  1
  O  O48  1  0.59317500  0.54632100  0.29189200  1
  O  O49  1  0.83916500  0.92717600  0.56802100  1
  O  O50  1  0.57380100  0.72878800  0.76338800  1
  O  O51  1  0.86471800  0.71483500  0.92723900  1
  O  O52  1  0.20636600  0.65350500  0.49754700  1
  O  O53  1  0.35177200  0.59463200  0.79595300  1
  O  O54  1  0.43023000  0.27995800  0.25114100  1
  O  O55  1  0.83328900  0.46993200  0.31745700  1
  O  O56  1  0.50089900  0.02455200  0.76663600  1
  O  O57  1  0.15100500  0.02603100  0.99640200  1
  O  O58  1  0.30387400  0.81500900  0.09857600  1
  O  O59  1  0.46790200  0.87666500  0.52633400  1
loop_
_geom_bond_atom_site_label_1
_geom_bond_atom_site_label_2
_geom_bond_distance
_geom_bond_site_symmetry_2
Al0 O44 1.760170 1_555
Al0 O37 1.770295 1_555
Al0 O46 1.775192 1_555
Al0 O45 1.802828 1_555
Al1 O41 1.718129 1_555
Al1 O49 1.785537 1_545
Al1 O34 1.843364 1_555
Al1 O5 1.910082 1_555
Al2 O10 1.744265 1_555
Al2 O31 1.788972 1_555
Al2 O45 1.900097 1_555
Al2 O44 1.958356 1_555
Al2 O3 2.013441 1_555
Al3 O38 1.754383 1_555
Al3 O52 1.773051 1_555
Al3 O31 1.800401 1_555
Al3 O11 1.848963 1_555
Al3 O42 2.336089 1_555
Al4 O55 1.789593 1_555
Al4 O40 1.810111 1_555
Al4 O12 1.814084 1_555
Al4 O17 1.837909 1_555
Al5 O16 1.830606 1_555
Al5 O52 1.830681 1_555
Al5 O7 1.836310 1_555
Al5 O19 1.883453 1_555
Al5 O59 2.018362 1_555
Al6 O9 1.728635 1_555
Al6 O19 1.746457 1_555
Al6 O7 1.784550 1_555
Al6 O24 1.894602 1_455
Al7 O11 1.770495 1_555
Al7 O3 1.775537 1_555
Al7 O5 1.828229 1_455
Al7 O12 1.830907 1_455
Al8 O54 1.831424 1_555
Al8 O4 1.851309 1_555
Al8 O40 1.864726 1_555
Al8 O25 1.878699 1_555
Al8 O2 2.283051 1_554
Al8 O13 2.468266 1_555
Al9 O21 1.817175 1_555
Al9 O8 1.830674 1_555
Al9 O17 1.884444 1_556
Al9 O4 1.889226 1_556
Al10 O44 1.836137 1_555
Al10 O28 1.874384 1_555
Al10 O50 1.885799 1_555
Al10 O53 1.904749 1_555
Al10 O8 2.006415 1_555
Al11 O29 1.801736 1_555
Al11 O51 1.823305 1_455
Al11 O26 1.838753 1_555
Al11 O27 1.937152 1_555
Al11 O24 2.120753 1_455
Al12 O41 1.721710 1_555
Al12 O20 1.760243 1_555
Al12 O45 1.799988 1_555
Al12 O59 1.923565 1_545
Al13 O32 1.758765 1_555
Al13 O49 1.853216 1_555
Al13 O39 1.858362 1_555
Al13 O43 1.866438 1_555
Al13 O24 2.012846 1_555
Al14 O6 1.843240 1_545
Al14 O25 1.855623 1_556
Al14 O13 1.869186 1_556
Al14 O2 1.966761 1_555
Al14 O56 2.008291 1_555
Al15 O15 1.858877 1_555
Al15 O50 1.877676 1_555
Al15 O14 1.935543 1_556
Al15 O51 1.993818 1_555
Al15 O47 2.024472 1_556
Al16 O25 1.797598 1_555
Al16 O33 1.839752 1_555
Al16 O57 1.900016 1_554
Al16 O36 1.903273 1_554
Al16 O1 1.909333 1_555
Al17 O47 1.822782 1_545
Al17 O2 1.832092 1_554
Al17 O40 1.890890 1_555
Al17 O13 1.977863 1_555
Al17 O35 1.978242 1_555
Al18 O20 1.782903 1_555
Al18 O1 1.794609 1_555
Al18 O3 1.804353 1_555
Al18 O54 1.834497 1_555
Al19 O58 1.807964 1_555
Al19 O30 1.815217 1_555
Al19 O20 1.856548 1_565
Al19 O16 1.984386 1_555
Al19 O13 1.992036 1_565
Al20 O2 1.779447 1_555
Al20 O56 1.785854 1_555
Al20 O23 1.891718 1_555
Al20 O46 1.897539 1_555
Al20 O15 1.933350 1_545
Al21 O6 1.816332 1_555
Al21 O22 1.858183 1_556
Al21 O26 1.906204 1_555
Al21 O58 1.930008 1_556
Al21 O53 2.006269 1_555
Al22 O18 1.738989 1_555
Al22 O47 1.750834 1_555
Al22 O0 1.775574 1_655
Al22 O51 1.826928 1_554
Al23 O16 1.808238 1_555
Al23 O39 1.846672 1_455
Al23 O34 1.870634 1_465
Al23 O7 1.886568 1_555
Al23 O0 2.164067 1_555
Al24 O57 1.731767 1_564
Al24 O58 1.733265 1_555
Al24 O0 1.779418 1_555
Al24 O26 1.826551 1_554
Al25 O31 1.808586 1_555
Al25 O48 1.811449 1_555
Al25 O54 1.844265 1_555
Al25 O38 1.875572 1_555
Al25 O37 2.032148 1_555
Al26 O36 1.774557 1_555
Al26 O27 1.786666 1_555
Al26 O17 1.846978 1_456
Al26 O33 1.947663 1_556
Al26 O21 2.077598 1_455
Al27 O22 1.787535 1_556
Al27 O14 1.800417 1_556
Al27 O4 1.808614 1_556
Al27 O8 1.829627 1_555
Al28 O36 1.729835 1_655
Al28 O9 1.800963 1_645
Al28 O57 1.855101 1_655
Al28 O35 1.909369 1_556
Al28 O23 1.937876 1_555
Al29 O15 1.750320 1_555
Al29 O49 1.771647 1_555
Al29 O9 1.789374 1_655
Al29 O24 1.917310 1_555
Al29 O23 1.996172 1_565
Al30 O42 1.721711 1_655
Al30 O55 1.779291 1_555
Al30 O18 1.781181 1_555
Al30 O39 1.862354 1_555
Al31 O37 1.825683 1_555
Al31 O43 1.884140 1_555
Al31 O55 1.914601 1_555
Al31 O48 1.918930 1_555
Al31 O32 2.114761 1_555
Al31 O28 2.175598 1_555
Al32 O32 1.733851 1_555
Al32 O28 1.783179 1_555
Al32 O59 1.824829 1_555
Al32 O30 1.835619 1_555
Al33 O10 1.725917 1_555
Al33 O29 1.780095 1_555
Al33 O53 1.821433 1_555
Al33 O27 1.906974 1_555
Al34 O19 1.795053 1_555
Al34 O56 1.808784 1_565
Al34 O6 1.828190 1_555
Al34 O50 1.864516 1_555
Al34 O59 2.227663 1_555
Al35 O48 1.796183 1_555
Al35 O30 1.822319 1_555
Al35 O18 1.827021 1_555
Al35 O14 1.832010 1_555
Al35 O32 2.443385 1_555
Al36 O33 1.752584 1_555
Al36 O38 1.760791 1_555
Al36 O42 1.769171 1_555
Al36 O22 1.793500 1_555
Al37 O21 1.766118 1_555
Al37 O23 1.790554 1_555
Al37 O46 1.800018 1_555
Al37 O5 1.817755 1_555
Al38 O1 1.795548 1_555
Al38 O35 1.809250 1_455
Al38 O12 1.810278 1_455
Al38 O34 1.814843 1_455
Al39 O29 1.739315 1_555
Al39 O11 1.790452 1_555
Al39 O43 1.848546 1_455
Al39 O52 1.936976 1_555
Al39 O39 2.269153 1_455
