# generated using pymatgen
data_Sm(CoSi)2
_symmetry_space_group_name_H-M   'P 1'
_cell_length_a   3.89311945
_cell_length_b   3.89311920
_cell_length_c   5.64063528
_cell_angle_alpha   110.18765201
_cell_angle_beta   110.18764933
_cell_angle_gamma   90.00000494
_symmetry_Int_Tables_number   1
_chemical_formula_structural   Sm(CoSi)2
_chemical_formula_sum   'Sm1 Co2 Si2'
_cell_volume   74.61891864
_cell_formula_units_Z   1
loop_
 _symmetry_equiv_pos_site_id
 _symmetry_equiv_pos_as_xyz
  1  'x, y, z'
loop_
 _atom_site_type_symbol
 _atom_site_label
 _atom_site_symmetry_multiplicity
 _atom_site_fract_x
 _atom_site_fract_y
 _atom_site_fract_z
 _atom_site_occupancy
  Sm  Sm0  1  0.00000000  0.00000000  -0.00000000  1
  Co  Co0  1  0.75000000  0.25000000  0.50000000  1
  Co  Co1  1  0.25000000  0.75000000  0.50000000  1
  Si  Si0  1  0.63236549  0.63236549  0.26472997  1
  Si  Si1  1  0.36763451  0.36763451  0.73527003  1
loop_
_geom_bond_atom_site_label_1
_geom_bond_atom_site_label_2
_geom_bond_distance
_geom_bond_site_symmetry_2
Co0 Si0 2.265113 1_545
Co0 Si1 2.265114 1_655
Co0 Si0 2.265117 1_555
Co0 Si1 2.265117 1_555
Co0 Sm0 3.138270 1_666
Co0 Sm0 3.138270 1_555
Co0 Sm0 3.138270 1_655
Co0 Sm0 3.138270 1_656
Co1 Si1 2.265113 1_565
Co1 Si0 2.265114 1_455
Co1 Si1 2.265117 1_555
Co1 Si0 2.265117 1_555
Co1 Sm0 3.138270 1_555
Co1 Sm0 3.138270 1_666
Co1 Sm0 3.138270 1_566
Co1 Sm0 3.138270 1_565
Si0 Si1 2.606673 1_554
Si0 Sm0 3.045794 1_665
Si0 Sm0 3.045796 1_655
Si0 Sm0 3.045797 1_565
Si0 Sm0 3.045799 1_555
Si1 Sm0 3.045794 1_556
Si1 Sm0 3.045796 1_566
Si1 Sm0 3.045797 1_656
Si1 Sm0 3.045799 1_666
