# generated using pymatgen
data_K2Zn(PO3)4
_symmetry_space_group_name_H-M   'P 1'
_cell_length_a   8.47653137
_cell_length_b   8.47653137
_cell_length_c   7.82133693
_cell_angle_alpha   82.01035109
_cell_angle_beta   82.01035109
_cell_angle_gamma   97.08146353
_symmetry_Int_Tables_number   1
_chemical_formula_structural   K2Zn(PO3)4
_chemical_formula_sum   'K4 Zn2 P8 O24'
_cell_volume   545.26093343
_cell_formula_units_Z   2
loop_
 _symmetry_equiv_pos_site_id
 _symmetry_equiv_pos_as_xyz
  1  'x, y, z'
loop_
 _atom_site_type_symbol
 _atom_site_label
 _atom_site_symmetry_multiplicity
 _atom_site_fract_x
 _atom_site_fract_y
 _atom_site_fract_z
 _atom_site_occupancy
  K  K0  1  0.50708800  0.75798200  0.41624100  1
  K  K1  1  0.75798200  0.50708800  0.91624100  1
  K  K2  1  0.46815900  0.19993100  0.59159800  1
  K  K3  1  0.19993100  0.46815900  0.09159800  1
  Zn  Zn0  1  0.15090000  0.84174200  0.75779300  1
  Zn  Zn1  1  0.84174200  0.15090000  0.25779300  1
  P  P0  1  0.81584800  0.96531200  0.66802400  1
  P  P1  1  0.96531200  0.81584800  0.16802400  1
  P  P2  1  0.50359500  0.82709000  0.92742500  1
  P  P3  1  0.82709000  0.50359500  0.42742500  1
  P  P4  1  0.50539700  0.13275500  0.08408900  1
  P  P5  1  0.13275500  0.50539700  0.58408900  1
  P  P6  1  0.18844000  0.03623000  0.32040600  1
  P  P7  1  0.03623000  0.18844000  0.82040600  1
  O  O0  1  0.48937700  0.65944800  0.02302500  1
  O  O1  1  0.65944800  0.48937700  0.52302500  1
  O  O2  1  0.39587200  0.86992300  0.79541900  1
  O  O3  1  0.86992300  0.39587200  0.29541900  1
  O  O4  1  0.68886000  0.87755700  0.83651500  1
  O  O5  1  0.87755700  0.68886000  0.33651500  1
  O  O6  1  0.49211200  0.94098400  0.07883800  1
  O  O7  1  0.94098400  0.49211200  0.57883800  1
  O  O8  1  0.60943600  0.16718900  0.22057300  1
  O  O9  1  0.16718900  0.60943600  0.72057300  1
  O  O10  1  0.54239400  0.23345700  0.90794800  1
  O  O11  1  0.23345700  0.54239400  0.40794800  1
  O  O12  1  0.32166300  0.14658300  0.16669000  1
  O  O13  1  0.14658300  0.32166300  0.66669000  1
  O  O14  1  0.26933600  0.97470300  0.47044200  1
  O  O15  1  0.97470300  0.26933600  0.97044200  1
  O  O16  1  0.05833900  0.13993700  0.34597000  1
  O  O17  1  0.13993700  0.05833900  0.84597000  1
  O  O18  1  0.13102800  0.88394800  0.22934900  1
  O  O19  1  0.88394800  0.13102800  0.72934900  1
  O  O20  1  0.72780100  0.01140700  0.51816300  1
  O  O21  1  0.01140700  0.72780100  0.01816300  1
  O  O22  1  0.94195000  0.85622700  0.64949200  1
  O  O23  1  0.85622700  0.94195000  0.14949200  1
loop_
_geom_bond_atom_site_label_1
_geom_bond_atom_site_label_2
_geom_bond_distance
_geom_bond_site_symmetry_2
K0 O11 2.784464 1_555
K0 O1 2.836497 1_555
K0 O6 2.896572 1_555
K0 O14 2.916802 1_555
K0 O20 2.941087 1_565
K1 O10 2.784464 1_555
K1 O0 2.836497 1_556
K1 O7 2.896572 1_555
K1 O15 2.916802 1_555
K1 O21 2.941087 1_656
K2 O10 2.680107 1_555
K2 O1 2.710724 1_555
K2 O14 2.745304 1_545
K2 O20 2.915185 1_555
K2 O2 2.967825 1_545
K2 O13 3.042511 1_555
K2 O8 3.044996 1_555
K2 O17 3.180162 1_555
K3 O11 2.680107 1_555
K3 O0 2.710724 1_555
K3 O15 2.745304 1_454
K3 O21 2.915185 1_555
K3 O3 2.967825 1_455
K3 O12 3.042511 1_555
K3 O9 3.044996 1_554
K3 O16 3.180162 1_555
O0 P2 1.493408 1_554
O1 P3 1.493408 1_555
O2 P2 1.507050 1_555
O2 Zn0 2.126661 1_555
O3 P3 1.507050 1_555
O3 Zn1 2.126661 1_555
O4 P0 1.607607 1_555
O4 P2 1.610635 1_555
O5 P1 1.607607 1_555
O5 P3 1.610635 1_555
O6 P4 1.622190 1_565
O6 P2 1.628781 1_554
O7 P5 1.622190 1_655
O7 P3 1.628781 1_555
O8 P4 1.512383 1_555
O8 Zn1 2.048554 1_555
O9 P5 1.512383 1_555
O9 Zn0 2.048554 1_555
O10 P4 1.487251 1_556
O11 P5 1.487251 1_555
O12 P4 1.625747 1_555
O12 P6 1.626402 1_555
O13 P5 1.625747 1_555
O13 P7 1.626402 1_555
O14 P6 1.503663 1_565
O14 Zn0 2.391417 1_555
O15 P7 1.503663 1_655
O15 Zn1 2.391417 1_556
O16 P6 1.501840 1_555
O16 Zn1 2.057031 1_455
O17 P7 1.501840 1_555
O17 Zn0 2.057031 1_545
O18 P1 1.612696 1_455
O18 P6 1.614710 1_565
O19 P0 1.612696 1_545
O19 P7 1.614710 1_655
O20 P0 1.507083 1_545
O20 Zn1 2.231661 1_555
O21 P1 1.507083 1_455
O21 Zn0 2.231661 1_554
O22 P0 1.502151 1_555
O22 Zn0 2.076391 1_655
O23 P1 1.502151 1_555
O23 Zn1 2.076391 1_565
