# generated using pymatgen
data_SrSn2H10Br6O5
_symmetry_space_group_name_H-M   'P 1'
_cell_length_a   10.08507977
_cell_length_b   10.08507977
_cell_length_c   9.41762413
_cell_angle_alpha   72.56465638
_cell_angle_beta   72.56465638
_cell_angle_gamma   78.89877626
_symmetry_Int_Tables_number   1
_chemical_formula_structural   SrSn2H10Br6O5
_chemical_formula_sum   'Sr2 Sn4 H20 Br12 O10'
_cell_volume   866.28695262
_cell_formula_units_Z   2
loop_
 _symmetry_equiv_pos_site_id
 _symmetry_equiv_pos_as_xyz
  1  'x, y, z'
loop_
 _atom_site_type_symbol
 _atom_site_label
 _atom_site_symmetry_multiplicity
 _atom_site_fract_x
 _atom_site_fract_y
 _atom_site_fract_z
 _atom_site_occupancy
  Sr  Sr0  1  0.98535900  0.01464100  0.25000000  1
  Sr  Sr1  1  0.01464100  0.98535900  0.75000000  1
  Sn  Sn0  1  0.48642600  0.26331600  0.97483800  1
  Sn  Sn1  1  0.73668400  0.51357400  0.52516200  1
  Sn  Sn2  1  0.51357400  0.73668400  0.02516200  1
  Sn  Sn3  1  0.26331600  0.48642600  0.47483800  1
  H  H0  1  0.19902700  0.23897300  0.15041700  1
  H  H1  1  0.76102700  0.80097300  0.34958300  1
  H  H2  1  0.80097300  0.76102700  0.84958300  1
  H  H3  1  0.23897300  0.19902700  0.65041700  1
  H  H4  1  0.07511600  0.29097700  0.27386900  1
  H  H5  1  0.70902300  0.92488400  0.22613100  1
  H  H6  1  0.92488400  0.70902300  0.72613100  1
  H  H7  1  0.29097700  0.07511600  0.77386900  1
  H  H8  1  0.20373900  0.88143100  0.46638400  1
  H  H9  1  0.11856900  0.79626100  0.03361600  1
  H  H10  1  0.79626100  0.11856900  0.53361600  1
  H  H11  1  0.88143100  0.20373900  0.96638400  1
  H  H12  1  0.24126400  0.03393500  0.40639700  1
  H  H13  1  0.96606500  0.75873600  0.09360300  1
  H  H14  1  0.75873600  0.96606500  0.59360300  1
  H  H15  1  0.03393500  0.24126400  0.90639700  1
  H  H16  1  0.79301600  0.31619600  0.22188100  1
  H  H17  1  0.68380400  0.20698400  0.27811900  1
  H  H18  1  0.20698400  0.68380400  0.77811900  1
  H  H19  1  0.31619600  0.79301600  0.72188100  1
  Br  Br0  1  0.44080800  0.17887600  0.29459800  1
  Br  Br1  1  0.82112400  0.55919200  0.20540200  1
  Br  Br2  1  0.55919200  0.82112400  0.70540200  1
  Br  Br3  1  0.17887600  0.44080800  0.79459800  1
  Br  Br4  1  0.69470300  0.42853500  0.90595600  1
  Br  Br5  1  0.57146500  0.30529700  0.59404400  1
  Br  Br6  1  0.30529700  0.57146500  0.09404400  1
  Br  Br7  1  0.42853500  0.69470300  0.40595600  1
  Br  Br8  1  0.68823500  0.02614600  0.96292200  1
  Br  Br9  1  0.97385400  0.31176500  0.53707800  1
  Br  Br10  1  0.31176500  0.97385400  0.03707800  1
  Br  Br11  1  0.02614600  0.68823500  0.46292200  1
  O  O0  1  0.09774000  0.24163800  0.19253300  1
  O  O1  1  0.75836200  0.90226000  0.30746700  1
  O  O2  1  0.90226000  0.75836200  0.80746700  1
  O  O3  1  0.24163800  0.09774000  0.69253300  1
  O  O4  1  0.16045400  0.97914500  0.44924700  1
  O  O5  1  0.02085500  0.83954600  0.05075300  1
  O  O6  1  0.83954600  0.02085500  0.55075300  1
  O  O7  1  0.97914500  0.16045400  0.94924700  1
  O  O8  1  0.78453800  0.21546200  0.25000000  1
  O  O9  1  0.21546200  0.78453800  0.75000000  1
loop_
_geom_bond_atom_site_label_1
_geom_bond_atom_site_label_2
_geom_bond_distance
_geom_bond_site_symmetry_2
H0 O0 0.976985 1_555
H1 O1 0.976985 1_555
H2 O2 0.976985 1_555
H3 O3 0.976985 1_555
H4 O0 0.983031 1_555
H5 O1 0.983031 1_555
H6 O2 0.983031 1_555
H7 O3 0.983031 1_555
H8 O4 0.984368 1_555
H9 O5 0.984368 1_555
H10 O6 0.984368 1_555
H11 O7 0.984368 1_555
H12 O4 0.987452 1_545
H13 O5 0.987452 1_655
H14 O6 0.987452 1_565
H15 O7 0.987452 1_455
H16 O8 0.983959 1_555
H17 O8 0.983959 1_555
H18 O9 0.983959 1_555
H19 O9 0.983959 1_555
Br0 Sn0 2.790903 1_554
Br1 Sn1 2.790903 1_555
Br2 Sn2 2.790903 1_556
Br3 Sn3 2.790903 1_555
Br4 Sn0 2.737287 1_555
Br5 Sn1 2.737287 1_555
Br6 Sn2 2.737287 1_555
Br7 Sn3 2.737287 1_555
Br8 Sn0 2.832897 1_555
Br8 Sr1 3.323176 1_645
Br9 Sn1 2.832897 1_555
Br9 Sr1 3.323176 1_645
Br10 Sn2 2.832897 1_555
Br10 Sr0 3.323176 1_465
Br11 Sn3 2.832897 1_555
Br11 Sr0 3.323176 1_465
O0 Sr0 2.589857 1_455
O1 Sr0 2.589857 1_565
O2 Sr1 2.589857 1_655
O3 Sr1 2.589857 1_545
O4 Sr1 2.786337 1_555
O4 Sr0 2.847287 1_465
O5 Sr1 2.786337 1_554
O5 Sr0 2.847287 1_465
O6 Sr0 2.786337 1_555
O6 Sr1 2.847287 1_645
O7 Sr0 2.786337 1_556
O7 Sr1 2.847287 1_645
O8 Sr0 2.573731 1_555
O9 Sr1 2.573731 1_555
