# generated using pymatgen
data_LiMn9CdO10
_symmetry_space_group_name_H-M   'P 1'
_cell_length_a   5.63751691
_cell_length_b   8.74229257
_cell_length_c   5.60309784
_cell_angle_alpha   75.92959388
_cell_angle_beta   105.84148041
_cell_angle_gamma   101.31844042
_symmetry_Int_Tables_number   1
_chemical_formula_structural   LiMn9CdO10
_chemical_formula_sum   'Li1 Mn9 Cd1 O10'
_cell_volume   255.18050815
_cell_formula_units_Z   1
loop_
 _symmetry_equiv_pos_site_id
 _symmetry_equiv_pos_as_xyz
  1  'x, y, z'
loop_
 _atom_site_type_symbol
 _atom_site_label
 _atom_site_symmetry_multiplicity
 _atom_site_fract_x
 _atom_site_fract_y
 _atom_site_fract_z
 _atom_site_occupancy
  Li  Li0  1  0.64202700  0.23460900  0.31314900  1
  Mn  Mn0  1  0.43749600  0.45915000  0.24265400  1
  Mn  Mn1  1  0.00077400  0.00762100  0.00096700  1
  Mn  Mn2  1  0.52225300  0.95632200  0.53924900  1
  Mn  Mn3  1  0.96932800  0.61006400  0.18649200  1
  Mn  Mn4  1  0.07104600  0.16756600  0.43534500  1
  Mn  Mn5  1  0.50536000  0.20152400  0.87562800  1
  Mn  Mn6  1  0.52113900  0.57612300  0.71452900  1
  Mn  Mn7  1  0.99571800  0.38671800  0.78644300  1
  Mn  Mn8  1  0.01506900  0.77346000  0.62671900  1
  Cd  Cd0  1  0.51033300  0.80928400  0.12792900  1
  O  O0  1  0.73129800  0.05614000  0.22192300  1
  O  O1  1  0.71589400  0.41655300  0.03946500  1
  O  O2  1  0.77683400  0.16955200  0.67278500  1
  O  O3  1  0.78061700  0.55533700  0.49326500  1
  O  O4  1  0.26115600  0.22187300  0.13486400  1
  O  O5  1  0.17715200  0.82858700  0.31248000  1
  O  O6  1  0.74491400  0.79288900  0.82421500  1
  O  O7  1  0.25527200  0.99591800  0.74258900  1
  O  O8  1  0.26552000  0.38601100  0.55868600  1
  O  O9  1  0.21984700  0.59782600  0.92443400  1
loop_
_geom_bond_atom_site_label_1
_geom_bond_atom_site_label_2
_geom_bond_distance
_geom_bond_site_symmetry_2
Li0 O2 1.933365 1_555
Li0 O0 1.945582 1_555
Li0 O1 1.989384 1_555
Li0 O4 2.099962 1_555
Mn0 O9 2.119646 1_554
Mn0 O8 2.151236 1_555
Mn0 O3 2.207560 1_555
Mn0 O4 2.264479 1_555
Mn0 O1 2.304163 1_555
Mn1 O5 2.195457 1_545
Mn1 O2 2.268828 1_454
Mn1 O4 2.286641 1_555
Mn1 O7 2.329905 1_544
Mn1 O0 2.357043 1_455
Mn1 O6 2.376267 1_444
Mn2 O6 2.160327 1_555
Mn2 O7 2.239587 1_555
Mn2 O5 2.265836 1_555
Mn2 O2 2.266347 1_565
Mn2 O0 2.301642 1_565
Mn3 O1 2.160602 1_555
Mn3 O3 2.171164 1_555
Mn3 O5 2.201413 1_655
Mn3 O9 2.330220 1_654
Mn3 O6 2.467736 1_554
Mn4 O4 2.146016 1_555
Mn4 O0 2.151975 1_455
Mn4 O7 2.161851 1_545
Mn4 O8 2.175503 1_555
Mn4 O2 2.397615 1_455
Mn5 O7 2.203925 1_545
Mn5 O2 2.232516 1_555
Mn5 O0 2.256040 1_556
Mn5 O1 2.270173 1_556
Mn5 O4 2.313073 1_556
Mn5 O8 2.394897 1_555
Mn6 O8 2.163322 1_555
Mn6 O1 2.177430 1_556
Mn6 O6 2.182874 1_555
Mn6 O3 2.216719 1_555
Mn6 O9 2.372747 1_555
Mn7 O2 2.184471 1_555
Mn7 O3 2.186020 1_555
Mn7 O9 2.201263 1_655
Mn7 O8 2.238148 1_655
Mn7 O4 2.451716 1_656
Mn7 O1 2.475635 1_556
Mn8 O5 2.111921 1_555
Mn8 O6 2.164712 1_455
Mn8 O9 2.207258 1_555
Mn8 O3 2.259815 1_455
Mn8 O7 2.266640 1_555
Cd0 O0 2.371855 1_565
Cd0 O5 2.428060 1_555
Cd0 O6 2.467184 1_554
Cd0 O9 2.493279 1_554
Cd0 O7 2.627640 1_554
