# generated using pymatgen
data_La2MgCrO6
_symmetry_space_group_name_H-M   'P 1'
_cell_length_a   5.45743767
_cell_length_b   5.45741037
_cell_length_c   5.45742618
_cell_angle_alpha   60.80606948
_cell_angle_beta   60.80637423
_cell_angle_gamma   60.80602428
_symmetry_Int_Tables_number   1
_chemical_formula_structural   La2MgCrO6
_chemical_formula_sum   'La2 Mg1 Cr1 O6'
_cell_volume   117.02368926
_cell_formula_units_Z   1
loop_
 _symmetry_equiv_pos_site_id
 _symmetry_equiv_pos_as_xyz
  1  'x, y, z'
loop_
 _atom_site_type_symbol
 _atom_site_label
 _atom_site_symmetry_multiplicity
 _atom_site_fract_x
 _atom_site_fract_y
 _atom_site_fract_z
 _atom_site_occupancy
  La  La0  1  0.74996045  0.74995925  0.74996033  1
  La  La1  1  0.25003955  0.25004075  0.25003967  1
  Mg  Mg0  1  0.50000000  0.50000000  0.50000000  1
  Cr  Cr0  1  -0.00000000  0.00000000  -0.00000000  1
  O  O0  1  0.30408667  0.75963035  0.18016438  1
  O  O1  1  0.75963036  0.18015828  0.30409286  1
  O  O2  1  0.18016478  0.30408968  0.75963111  1
  O  O3  1  0.69591333  0.24036965  0.81983562  1
  O  O4  1  0.81983522  0.69591032  0.24036889  1
  O  O5  1  0.24036964  0.81984172  0.69590714  1
loop_
_geom_bond_atom_site_label_1
_geom_bond_atom_site_label_2
_geom_bond_distance
_geom_bond_site_symmetry_2
La0 O1 2.420387 1_565
La0 O2 2.420407 1_655
La0 O0 2.420435 1_556
La0 O4 2.740645 1_556
La0 O3 2.740654 1_565
La0 O5 2.740669 1_655
La0 O3 2.760892 1_555
La0 O5 2.760912 1_555
La0 O4 2.760917 1_555
La1 O5 2.420387 1_545
La1 O4 2.420407 1_455
La1 O3 2.420435 1_554
La1 O2 2.740645 1_554
La1 O0 2.740654 1_545
La1 O1 2.740669 1_455
La1 O0 2.760892 1_555
La1 O1 2.760912 1_555
La1 O2 2.760917 1_555
Mg0 O4 2.031623 1_555
Mg0 O2 2.031623 1_555
Mg0 O3 2.031624 1_555
Mg0 O0 2.031624 1_555
Mg0 O1 2.031632 1_555
Mg0 O5 2.031632 1_555
Cr0 O3 1.910871 1_454
Cr0 O0 1.910871 1_545
Cr0 O5 1.910882 1_544
Cr0 O1 1.910882 1_455
Cr0 O2 1.910888 1_554
Cr0 O4 1.910888 1_445
