# generated using pymatgen
data_KLaHf2O6
_symmetry_space_group_name_H-M   'P 1'
_cell_length_a   5.84221518
_cell_length_b   5.84221518
_cell_length_c   5.84221518
_cell_angle_alpha   60.00000000
_cell_angle_beta   60.00000000
_cell_angle_gamma   60.00000000
_symmetry_Int_Tables_number   1
_chemical_formula_structural   KLaHf2O6
_chemical_formula_sum   'K1 La1 Hf2 O6'
_cell_volume   140.99952460
_cell_formula_units_Z   1
loop_
 _symmetry_equiv_pos_site_id
 _symmetry_equiv_pos_as_xyz
  1  'x, y, z'
loop_
 _atom_site_type_symbol
 _atom_site_label
 _atom_site_symmetry_multiplicity
 _atom_site_fract_x
 _atom_site_fract_y
 _atom_site_fract_z
 _atom_site_occupancy
  K  K0  1  0.00000000  0.00000000  0.00000000  1
  La  La0  1  0.50000000  0.50000000  0.50000000  1
  Hf  Hf0  1  0.25000000  0.25000000  0.25000000  1
  Hf  Hf1  1  0.75000000  0.75000000  0.75000000  1
  O  O0  1  0.00000000  0.00000000  0.50000000  1
  O  O1  1  0.50000000  0.50000000  0.00000000  1
  O  O2  1  0.00000000  0.50000000  0.50000000  1
  O  O3  1  0.50000000  0.00000000  0.00000000  1
  O  O4  1  0.00000000  0.50000000  0.00000000  1
  O  O5  1  0.50000000  0.00000000  0.50000000  1
loop_
_geom_bond_atom_site_label_1
_geom_bond_atom_site_label_2
_geom_bond_distance
_geom_bond_site_symmetry_2
K0 O5 2.921108 1_455
K0 O5 2.921108 1_554
K0 O2 2.921108 1_554
K0 O4 2.921108 1_545
K0 O3 2.921108 1_455
K0 O1 2.921108 1_545
K0 O0 2.921108 1_555
K0 O0 2.921108 1_554
K0 O3 2.921108 1_555
K0 O2 2.921108 1_545
K0 O1 2.921108 1_455
K0 O4 2.921108 1_555
La0 O0 2.921108 1_565
La0 O1 2.921108 1_556
La0 O5 2.921108 1_555
La0 O2 2.921108 1_655
La0 O4 2.921108 1_655
La0 O5 2.921108 1_565
La0 O3 2.921108 1_556
La0 O2 2.921108 1_555
La0 O3 2.921108 1_565
La0 O0 2.921108 1_655
La0 O1 2.921108 1_555
La0 O4 2.921108 1_556
Hf0 O1 2.065535 1_555
Hf0 O4 2.065535 1_555
Hf0 O2 2.065535 1_555
Hf0 O5 2.065535 1_555
Hf0 O3 2.065535 1_555
Hf0 O0 2.065535 1_555
Hf1 O1 2.065535 1_556
Hf1 O0 2.065535 1_665
Hf1 O4 2.065535 1_656
Hf1 O2 2.065535 1_655
Hf1 O5 2.065535 1_565
Hf1 O3 2.065535 1_566
