# generated using pymatgen
data_LaZnCuP2
_symmetry_space_group_name_H-M   'P 1'
_cell_length_a   4.07694753
_cell_length_b   4.07694753
_cell_length_c   6.79457400
_cell_angle_alpha   90.00000000
_cell_angle_beta   90.00000000
_cell_angle_gamma   119.99999244
_symmetry_Int_Tables_number   1
_chemical_formula_structural   LaZnCuP2
_chemical_formula_sum   'La1 Zn1 Cu1 P2'
_cell_volume   97.80546966
_cell_formula_units_Z   1
loop_
 _symmetry_equiv_pos_site_id
 _symmetry_equiv_pos_as_xyz
  1  'x, y, z'
loop_
 _atom_site_type_symbol
 _atom_site_label
 _atom_site_symmetry_multiplicity
 _atom_site_fract_x
 _atom_site_fract_y
 _atom_site_fract_z
 _atom_site_occupancy
  La  La0  1  0.33333300  0.66666700  0.98562200  1
  Zn  Zn0  1  0.00000000  0.00000000  0.37733300  1
  Cu  Cu0  1  0.66666700  0.33333300  0.63607900  1
  P  P0  1  0.66666700  0.33333300  0.26802100  1
  P  P1  1  0.00000000  0.00000000  0.73294500  1
loop_
_geom_bond_atom_site_label_1
_geom_bond_atom_site_label_2
_geom_bond_distance
_geom_bond_site_symmetry_2
La0 P1 2.913418 1_565
La0 P1 2.913421 1_665
La0 P1 2.913421 1_555
La0 P0 3.036809 1_456
La0 P0 3.036809 1_566
La0 P0 3.036814 1_556
Cu0 P1 2.444109 1_655
Cu0 P1 2.444112 1_555
Cu0 P1 2.444112 1_665
Cu0 P0 2.500797 1_555
P0 Zn0 2.468225 1_655
P0 Zn0 2.468229 1_665
P0 Zn0 2.468229 1_555
P1 Zn0 2.416232 1_555
