# generated using pymatgen
data_Na(Mg4Al3)4
_symmetry_space_group_name_H-M   'P 1'
_cell_length_a   9.16034041
_cell_length_b   9.16034041
_cell_length_c   9.16034041
_cell_angle_alpha   109.47122063
_cell_angle_beta   109.47122063
_cell_angle_gamma   109.47122063
_symmetry_Int_Tables_number   1
_chemical_formula_structural   Na(Mg4Al3)4
_chemical_formula_sum   'Na1 Mg16 Al12'
_cell_volume   591.71550246
_cell_formula_units_Z   1
loop_
 _symmetry_equiv_pos_site_id
 _symmetry_equiv_pos_as_xyz
  1  'x, y, z'
loop_
 _atom_site_type_symbol
 _atom_site_label
 _atom_site_symmetry_multiplicity
 _atom_site_fract_x
 _atom_site_fract_y
 _atom_site_fract_z
 _atom_site_occupancy
  Na  Na0  1  0.00000000  0.00000000  0.00000000  1
  Mg  Mg0  1  0.00000000  0.34658400  0.00000000  1
  Mg  Mg1  1  0.34658400  0.00000000  0.00000000  1
  Mg  Mg2  1  0.31658000  0.60200600  0.00000000  1
  Mg  Mg3  1  0.60200600  0.31658000  0.00000000  1
  Mg  Mg4  1  0.39799400  0.39799400  0.71457300  1
  Mg  Mg5  1  0.68342000  0.28542700  0.68342000  1
  Mg  Mg6  1  0.28542700  0.68342000  0.68342000  1
  Mg  Mg7  1  0.65341600  0.65341600  0.65341600  1
  Mg  Mg8  1  0.31658000  0.00000000  0.60200600  1
  Mg  Mg9  1  0.00000000  0.31658000  0.60200600  1
  Mg  Mg10  1  0.39799400  0.71457300  0.39799400  1
  Mg  Mg11  1  0.71457300  0.39799400  0.39799400  1
  Mg  Mg12  1  0.00000000  0.00000000  0.34658400  1
  Mg  Mg13  1  0.60200600  0.00000000  0.31658000  1
  Mg  Mg14  1  0.00000000  0.60200600  0.31658000  1
  Mg  Mg15  1  0.68342000  0.68342000  0.28542700  1
  Al  Al0  1  0.81287400  0.63101200  0.00000000  1
  Al  Al1  1  0.63101200  0.81287400  0.00000000  1
  Al  Al2  1  0.18712600  0.18712600  0.81813900  1
  Al  Al3  1  0.00000000  0.63101200  0.81287400  1
  Al  Al4  1  0.63101200  0.00000000  0.81287400  1
  Al  Al5  1  0.00000000  0.81287400  0.63101200  1
  Al  Al6  1  0.81287400  0.00000000  0.63101200  1
  Al  Al7  1  0.36898800  0.18186100  0.36898800  1
  Al  Al8  1  0.18186100  0.36898800  0.36898800  1
  Al  Al9  1  0.81813900  0.18712600  0.18712600  1
  Al  Al10  1  0.18712600  0.81813900  0.18712600  1
  Al  Al11  1  0.36898800  0.36898800  0.18186100  1
loop_
_geom_bond_atom_site_label_1
_geom_bond_atom_site_label_2
_geom_bond_distance
_geom_bond_site_symmetry_2
Mg0 Mg2 3.059549 1_555
Mg0 Mg14 3.059549 1_555
Mg0 Mg5 3.059553 1_454
Mg0 Na0 3.174827 1_555
Mg1 Mg3 3.059549 1_555
Mg1 Mg13 3.059549 1_555
Mg1 Mg6 3.059553 1_544
Mg1 Na0 3.174827 1_555
Mg2 Mg4 3.139501 1_554
Mg2 Mg9 3.174823 1_554
Mg2 Mg6 3.174825 1_554
Mg3 Mg4 3.139501 1_554
Mg3 Mg8 3.174823 1_554
Mg3 Mg5 3.174825 1_554
Mg4 Mg7 3.059542 1_555
Mg4 Mg5 3.174816 1_555
Mg4 Mg6 3.174816 1_555
Mg4 Mg8 3.174825 1_555
Mg4 Mg9 3.174825 1_555
Mg5 Mg8 3.139498 1_555
Mg5 Mg9 3.174825 1_655
Mg6 Mg9 3.139498 1_555
Mg6 Mg8 3.174825 1_565
Mg7 Na0 3.174827 1_666
Mg10 Mg7 3.059542 1_555
Mg10 Mg8 3.139501 1_565
Mg10 Mg13 3.139501 1_565
Mg10 Mg15 3.174816 1_555
Mg10 Mg6 3.174816 1_555
Mg10 Mg14 3.174825 1_555
Mg10 Mg2 3.174825 1_555
Mg11 Mg7 3.059542 1_555
Mg11 Mg9 3.139501 1_655
Mg11 Mg14 3.139501 1_655
Mg11 Mg5 3.174816 1_555
Mg11 Mg15 3.174816 1_555
Mg11 Mg13 3.174825 1_555
Mg11 Mg3 3.174825 1_555
Mg12 Mg9 3.059549 1_555
Mg12 Mg8 3.059549 1_555
Mg12 Mg15 3.059553 1_445
Mg12 Na0 3.174827 1_555
Mg13 Mg5 3.139498 1_555
Mg13 Mg9 3.174823 1_655
Mg13 Mg2 3.174823 1_545
Mg13 Mg15 3.174825 1_545
Mg14 Mg6 3.139498 1_555
Mg14 Mg8 3.174823 1_565
Mg14 Mg3 3.174823 1_455
Mg14 Mg15 3.174825 1_455
Mg15 Mg3 3.139498 1_555
Mg15 Mg2 3.139498 1_555
Al0 Al1 2.720432 1_555
Al0 Al3 2.799175 1_654
Al0 Al10 2.799175 1_655
Al0 Mg3 2.884131 1_555
Al0 Mg5 2.986984 1_554
Al0 Mg14 2.986990 1_655
Al0 Mg12 3.130154 1_665
Al0 Mg7 3.130154 1_554
Al0 Mg4 3.175305 1_554
Al0 Mg15 3.175312 1_555
Al0 Na0 3.240441 1_665
Al1 Al4 2.799175 1_564
Al1 Al9 2.799175 1_565
Al1 Mg2 2.884131 1_555
Al1 Mg6 2.986984 1_554
Al1 Mg13 2.986990 1_565
Al1 Mg12 3.130154 1_665
Al1 Mg7 3.130154 1_554
Al1 Mg4 3.175305 1_554
Al1 Mg15 3.175312 1_555
Al1 Na0 3.240441 1_665
Al2 Al5 2.799175 1_545
Al2 Al6 2.799175 1_455
Al2 Mg4 2.884145 1_555
Al2 Mg9 2.986995 1_555
Al2 Mg8 2.986995 1_555
Al2 Mg1 3.130149 1_556
Al2 Mg0 3.130149 1_556
Al2 Mg2 3.175304 1_556
Al2 Mg3 3.175304 1_556
Al2 Na0 3.240433 1_556
Al3 Al5 2.720432 1_555
Al3 Mg9 2.884131 1_555
Al3 Mg5 2.986984 1_455
Al3 Mg2 2.986990 1_556
Al3 Mg7 3.130154 1_455
Al3 Mg1 3.130154 1_566
Al3 Mg11 3.175305 1_455
Al3 Mg6 3.175312 1_555
Al3 Na0 3.240441 1_566
Al4 Al6 2.720432 1_555
Al4 Al9 2.799175 1_556
Al4 Mg8 2.884131 1_555
Al4 Mg6 2.986984 1_545
Al4 Mg3 2.986990 1_556
Al4 Mg7 3.130154 1_545
Al4 Mg0 3.130154 1_656
Al4 Mg10 3.175305 1_545
Al4 Mg5 3.175312 1_555
Al4 Na0 3.240441 1_656
Al5 Al6 2.799175 1_465
Al5 Mg14 2.884131 1_555
Al5 Mg15 2.986984 1_455
Al5 Mg8 2.986990 1_565
Al5 Mg1 3.130154 1_566
Al5 Mg7 3.130154 1_455
Al5 Mg11 3.175305 1_455
Al5 Mg6 3.175312 1_555
Al5 Na0 3.240441 1_566
Al6 Mg13 2.884131 1_555
Al6 Mg15 2.986984 1_545
Al6 Mg9 2.986990 1_655
Al6 Mg0 3.130154 1_656
Al6 Mg7 3.130154 1_545
Al6 Mg10 3.175305 1_545
Al6 Mg5 3.175312 1_555
Al6 Na0 3.240441 1_656
Al7 Al8 2.799190 1_555
Al7 Mg5 2.884125 1_555
Al7 Mg11 2.986985 1_555
Al7 Mg4 2.986985 1_555
Al7 Mg12 3.130152 1_555
Al7 Mg1 3.130152 1_555
Al7 Mg13 3.175297 1_555
Al7 Mg8 3.175297 1_555
Al7 Na0 3.240443 1_555
Al8 Al9 2.720417 1_455
Al8 Mg6 2.884125 1_555
Al8 Mg10 2.986985 1_555
Al8 Mg4 2.986985 1_555
Al8 Mg12 3.130152 1_555
Al8 Mg0 3.130152 1_555
Al8 Mg14 3.175297 1_555
Al8 Mg9 3.175297 1_555
Al8 Na0 3.240443 1_555
Al9 Mg11 2.884145 1_555
Al9 Mg3 2.986995 1_555
Al9 Mg13 2.986995 1_555
Al9 Mg0 3.130149 1_655
Al9 Mg12 3.130149 1_655
Al9 Mg14 3.175304 1_655
Al9 Mg9 3.175304 1_655
Al9 Na0 3.240433 1_655
Al10 Al7 2.720417 1_565
Al10 Al3 2.799175 1_554
Al10 Mg10 2.884145 1_555
Al10 Mg2 2.986995 1_555
Al10 Mg14 2.986995 1_555
Al10 Mg1 3.130149 1_565
Al10 Mg12 3.130149 1_565
Al10 Mg8 3.175304 1_565
Al10 Mg13 3.175304 1_565
Al10 Na0 3.240433 1_565
Al11 Al2 2.720417 1_554
Al11 Al8 2.799190 1_555
Al11 Al7 2.799190 1_555
Al11 Mg15 2.884125 1_555
Al11 Mg10 2.986985 1_555
Al11 Mg11 2.986985 1_555
Al11 Mg1 3.130152 1_555
Al11 Mg0 3.130152 1_555
Al11 Mg2 3.175297 1_555
Al11 Mg3 3.175297 1_555
Al11 Na0 3.240443 1_555
