# generated using pymatgen
data_Ca2Si3Ni
_symmetry_space_group_name_H-M   'P 1'
_cell_length_a   3.99444625
_cell_length_b   3.99444625
_cell_length_c   8.78410900
_cell_angle_alpha   90.00000000
_cell_angle_beta   90.00000000
_cell_angle_gamma   120.00000416
_symmetry_Int_Tables_number   1
_chemical_formula_structural   Ca2Si3Ni
_chemical_formula_sum   'Ca2 Si3 Ni1'
_cell_volume   121.37842369
_cell_formula_units_Z   1
loop_
 _symmetry_equiv_pos_site_id
 _symmetry_equiv_pos_as_xyz
  1  'x, y, z'
loop_
 _atom_site_type_symbol
 _atom_site_label
 _atom_site_symmetry_multiplicity
 _atom_site_fract_x
 _atom_site_fract_y
 _atom_site_fract_z
 _atom_site_occupancy
  Ca  Ca0  1  0.33333300  0.66666700  0.23531000  1
  Ca  Ca1  1  0.33333300  0.66666700  0.76469000  1
  Si  Si0  1  0.66666700  0.33333300  0.50000000  1
  Si  Si1  1  0.00000000  0.00000000  0.00000000  1
  Si  Si2  1  0.00000000  0.00000000  0.50000000  1
  Ni  Ni0  1  0.66666700  0.33333300  0.00000000  1
loop_
_geom_bond_atom_site_label_1
_geom_bond_atom_site_label_2
_geom_bond_distance
_geom_bond_site_symmetry_2
Ca0 Ni0 3.096928 1_455
Ca0 Ni0 3.096928 1_565
Ca0 Si1 3.096928 1_565
Ca0 Si1 3.096931 1_665
Ca0 Si1 3.096931 1_555
Ca0 Ni0 3.096934 1_555
Ca0 Si0 3.274821 1_455
Ca0 Si0 3.274821 1_565
Ca0 Si2 3.274821 1_565
Ca0 Si2 3.274824 1_555
Ca0 Si2 3.274824 1_665
Ca0 Si0 3.274826 1_555
Ca1 Ni0 3.096928 1_456
Ca1 Ni0 3.096928 1_566
Ca1 Si1 3.096928 1_566
Ca1 Si1 3.096931 1_666
Ca1 Si1 3.096931 1_556
Ca1 Ni0 3.096934 1_556
Ca1 Si0 3.274821 1_455
Ca1 Si0 3.274821 1_565
Ca1 Si2 3.274821 1_565
Ca1 Si2 3.274824 1_555
Ca1 Si2 3.274824 1_665
Ca1 Si0 3.274826 1_555
Si0 Si2 2.306192 1_655
Si0 Si2 2.306196 1_665
Si0 Si2 2.306196 1_555
Ni0 Si1 2.306192 1_655
Ni0 Si1 2.306196 1_665
Ni0 Si1 2.306196 1_555
