# generated using pymatgen
data_KLaC4O11
_symmetry_space_group_name_H-M   'P 1'
_cell_length_a   12.38683167
_cell_length_b   7.76567780
_cell_length_c   6.60751638
_cell_angle_alpha   98.85068700
_cell_angle_beta   104.37349488
_cell_angle_gamma   104.86379720
_symmetry_Int_Tables_number   1
_chemical_formula_structural   KLaC4O11
_chemical_formula_sum   'K2 La2 C8 O22'
_cell_volume   578.80829059
_cell_formula_units_Z   2
loop_
 _symmetry_equiv_pos_site_id
 _symmetry_equiv_pos_as_xyz
  1  'x, y, z'
loop_
 _atom_site_type_symbol
 _atom_site_label
 _atom_site_symmetry_multiplicity
 _atom_site_fract_x
 _atom_site_fract_y
 _atom_site_fract_z
 _atom_site_occupancy
  K  K0  1  0.67444600  0.09326500  0.30510000  1
  K  K1  1  0.32555400  0.90673500  0.69490000  1
  La  La0  1  0.78593800  0.65605900  0.17794800  1
  La  La1  1  0.21406200  0.34394100  0.82205200  1
  C  C0  1  0.75693700  0.73906500  0.67358300  1
  C  C1  1  0.24306300  0.26093500  0.32641700  1
  C  C2  1  0.77574000  0.54554300  0.65282400  1
  C  C3  1  0.22426000  0.45445700  0.34717600  1
  C  C4  1  0.03000100  0.93202300  0.54662600  1
  C  C5  1  0.96999900  0.06797700  0.45337400  1
  C  C6  1  0.49709000  0.60052000  0.01180800  1
  C  C7  1  0.50291000  0.39948000  0.98819200  1
  O  O0  1  0.74708300  0.80533400  0.50978100  1
  O  O1  1  0.25291700  0.19466600  0.49021900  1
  O  O2  1  0.77394300  0.46801200  0.46821800  1
  O  O3  1  0.22605700  0.53198800  0.53178200  1
  O  O4  1  0.75132000  0.81005700  0.85472500  1
  O  O5  1  0.24868000  0.18994300  0.14527500  1
  O  O6  1  0.78797800  0.48336900  0.81989200  1
  O  O7  1  0.21202200  0.51663100  0.18010800  1
  O  O8  1  0.98512300  0.76465600  0.45115600  1
  O  O9  1  0.01487700  0.23534400  0.54884400  1
  O  O10  1  0.11901000  0.00070400  0.71156800  1
  O  O11  1  0.88099000  0.99929600  0.28843200  1
  O  O12  1  0.59316200  0.72697400  0.09944100  1
  O  O13  1  0.40683800  0.27302600  0.90055900  1
  O  O14  1  0.39731100  0.62039200  0.94149100  1
  O  O15  1  0.60268900  0.37960800  0.05850900  1
  O  O16  1  0.65381800  0.03335300  0.80439200  1
  O  O17  1  0.34618200  0.96664700  0.19560800  1
  O  O18  1  0.05351100  0.73842700  0.02097100  1
  O  O19  1  0.94648900  0.26157300  0.97902900  1
  O  O20  1  0.91960500  0.33504900  0.12914800  1
  O  O21  1  0.08039500  0.66495100  0.87085200  1
loop_
_geom_bond_atom_site_label_1
_geom_bond_atom_site_label_2
_geom_bond_distance
_geom_bond_site_symmetry_2
K0 O12 2.759242 1_545
K0 O2 2.772159 1_555
K0 O11 2.857128 1_545
K0 O0 2.999461 1_545
K0 O15 3.130389 1_555
K0 O16 3.205174 1_554
K1 O13 2.759242 1_565
K1 O3 2.772159 1_555
K1 O10 2.857128 1_565
K1 O1 2.999461 1_565
K1 O14 3.130389 1_555
K1 O17 3.205174 1_556
La0 O8 2.512005 1_555
La0 O11 2.527509 1_555
La0 O0 2.531981 1_555
La0 O12 2.534153 1_555
La0 O6 2.543052 1_554
La0 O15 2.544250 1_555
La0 O2 2.593301 1_555
La0 O4 2.601850 1_554
La1 O9 2.512005 1_555
La1 O10 2.527509 1_555
La1 O1 2.531981 1_555
La1 O13 2.534153 1_555
La1 O7 2.543052 1_556
La1 O14 2.544250 1_555
La1 O3 2.593301 1_555
La1 O5 2.601850 1_556
C0 O0 1.260633 1_555
C0 O4 1.264640 1_555
C1 O1 1.260633 1_555
C1 O5 1.264640 1_555
C2 O6 1.262214 1_555
C2 O2 1.266700 1_555
C3 O7 1.262214 1_555
C3 O3 1.266700 1_555
C4 O8 1.264573 1_455
C4 O10 1.269135 1_565
C5 O9 1.264573 1_655
C5 O11 1.269135 1_545
C6 O12 1.264572 1_555
C6 O14 1.265726 1_554
C7 O13 1.264572 1_555
C7 O15 1.265726 1_556
O18 O21 1.227876 1_554
O19 O20 1.227876 1_556
