# generated using pymatgen
data_HfMg30FeO32
_symmetry_space_group_name_H-M   'P 1'
_cell_length_a   8.58927900
_cell_length_b   8.58927900
_cell_length_c   8.61153300
_cell_angle_alpha   90.00000000
_cell_angle_beta   90.00000000
_cell_angle_gamma   90.00000000
_symmetry_Int_Tables_number   1
_chemical_formula_structural   HfMg30FeO32
_chemical_formula_sum   'Hf1 Mg30 Fe1 O32'
_cell_volume   635.32199347
_cell_formula_units_Z   1
loop_
 _symmetry_equiv_pos_site_id
 _symmetry_equiv_pos_as_xyz
  1  'x, y, z'
loop_
 _atom_site_type_symbol
 _atom_site_label
 _atom_site_symmetry_multiplicity
 _atom_site_fract_x
 _atom_site_fract_y
 _atom_site_fract_z
 _atom_site_occupancy
  Hf  Hf0  1  0.50000000  0.50000000  0.00000000  1
  Mg  Mg0  1  0.00000000  0.50000000  0.00000000  1
  Mg  Mg1  1  0.50000000  0.00000000  0.00000000  1
  Mg  Mg2  1  0.00000000  0.00000000  0.50000000  1
  Mg  Mg3  1  0.00000000  0.50000000  0.50000000  1
  Mg  Mg4  1  0.50000000  0.00000000  0.50000000  1
  Mg  Mg5  1  0.50000000  0.50000000  0.50000000  1
  Mg  Mg6  1  0.24091500  0.24091500  0.00000000  1
  Mg  Mg7  1  0.24091500  0.75908500  0.00000000  1
  Mg  Mg8  1  0.75908500  0.24091500  0.00000000  1
  Mg  Mg9  1  0.75908500  0.75908500  0.00000000  1
  Mg  Mg10  1  0.24786800  0.24786800  0.50000000  1
  Mg  Mg11  1  0.24786800  0.75213200  0.50000000  1
  Mg  Mg12  1  0.75213200  0.24786800  0.50000000  1
  Mg  Mg13  1  0.75213200  0.75213200  0.50000000  1
  Mg  Mg14  1  0.00000000  0.24558600  0.24923600  1
  Mg  Mg15  1  0.00000000  0.75441400  0.24923600  1
  Mg  Mg16  1  0.50000000  0.24246500  0.25623900  1
  Mg  Mg17  1  0.50000000  0.75753500  0.25623900  1
  Mg  Mg18  1  0.00000000  0.24558600  0.75076400  1
  Mg  Mg19  1  0.00000000  0.75441400  0.75076400  1
  Mg  Mg20  1  0.50000000  0.24246500  0.74376100  1
  Mg  Mg21  1  0.50000000  0.75753500  0.74376100  1
  Mg  Mg22  1  0.24558600  0.00000000  0.24923600  1
  Mg  Mg23  1  0.24246500  0.50000000  0.25623900  1
  Mg  Mg24  1  0.75441400  0.00000000  0.24923600  1
  Mg  Mg25  1  0.75753500  0.50000000  0.25623900  1
  Mg  Mg26  1  0.24558600  0.00000000  0.75076400  1
  Mg  Mg27  1  0.24246500  0.50000000  0.74376100  1
  Mg  Mg28  1  0.75441400  0.00000000  0.75076400  1
  Mg  Mg29  1  0.75753500  0.50000000  0.74376100  1
  Fe  Fe0  1  0.00000000  0.00000000  0.00000000  1
  O  O0  1  0.00000000  0.00000000  0.26665500  1
  O  O1  1  0.00000000  0.50000000  0.25083400  1
  O  O2  1  0.50000000  0.00000000  0.25083400  1
  O  O3  1  0.50000000  0.50000000  0.24495000  1
  O  O4  1  0.00000000  0.00000000  0.73334500  1
  O  O5  1  0.00000000  0.50000000  0.74916600  1
  O  O6  1  0.50000000  0.00000000  0.74916600  1
  O  O7  1  0.50000000  0.50000000  0.75505000  1
  O  O8  1  0.25130400  0.25130400  0.24870100  1
  O  O9  1  0.25130400  0.74869600  0.24870100  1
  O  O10  1  0.74869600  0.25130400  0.24870100  1
  O  O11  1  0.74869600  0.74869600  0.24870100  1
  O  O12  1  0.25130400  0.25130400  0.75129900  1
  O  O13  1  0.25130400  0.74869600  0.75129900  1
  O  O14  1  0.74869600  0.25130400  0.75129900  1
  O  O15  1  0.74869600  0.74869600  0.75129900  1
  O  O16  1  0.00000000  0.26456000  0.00000000  1
  O  O17  1  0.00000000  0.73544000  0.00000000  1
  O  O18  1  0.50000000  0.25648400  0.00000000  1
  O  O19  1  0.50000000  0.74351600  0.00000000  1
  O  O20  1  0.00000000  0.25368000  0.50000000  1
  O  O21  1  0.00000000  0.74632000  0.50000000  1
  O  O22  1  0.50000000  0.25250200  0.50000000  1
  O  O23  1  0.50000000  0.74749800  0.50000000  1
  O  O24  1  0.26456000  0.00000000  0.00000000  1
  O  O25  1  0.25648400  0.50000000  0.00000000  1
  O  O26  1  0.73544000  0.00000000  0.00000000  1
  O  O27  1  0.74351600  0.50000000  0.00000000  1
  O  O28  1  0.25368000  0.00000000  0.50000000  1
  O  O29  1  0.25250200  0.50000000  0.50000000  1
  O  O30  1  0.74632000  0.00000000  0.50000000  1
  O  O31  1  0.74749800  0.50000000  0.50000000  1
loop_
_geom_bond_atom_site_label_1
_geom_bond_atom_site_label_2
_geom_bond_distance
_geom_bond_site_symmetry_2
Hf0 O19 2.091627 1_555
Hf0 O27 2.091627 1_555
Hf0 O25 2.091627 1_555
Hf0 O18 2.091627 1_555
Hf0 O7 2.109395 1_554
Hf0 O3 2.109395 1_555
Mg0 O16 2.022260 1_555
Mg0 O17 2.022260 1_555
Mg0 O5 2.160065 1_554
Mg0 O1 2.160065 1_555
Mg0 O25 2.203013 1_555
Mg0 O27 2.203013 1_455
Mg1 O24 2.022260 1_555
Mg1 O26 2.022260 1_555
Mg1 O6 2.160065 1_554
Mg1 O2 2.160065 1_555
Mg1 O18 2.203013 1_555
Mg1 O19 2.203013 1_545
Mg2 O4 2.009458 1_555
Mg2 O0 2.009458 1_555
Mg2 O30 2.178928 1_455
Mg2 O21 2.178928 1_545
Mg2 O28 2.178928 1_555
Mg2 O20 2.178928 1_555
Mg3 O20 2.115711 1_555
Mg3 O21 2.115711 1_555
Mg3 O1 2.145701 1_555
Mg3 O5 2.145701 1_555
Mg3 O29 2.168810 1_555
Mg3 O31 2.168810 1_455
Mg4 O28 2.115711 1_555
Mg4 O30 2.115711 1_555
Mg4 O2 2.145701 1_555
Mg4 O6 2.145701 1_555
Mg4 O22 2.168810 1_555
Mg4 O23 2.168810 1_545
Mg5 O31 2.125829 1_555
Mg5 O22 2.125829 1_555
Mg5 O23 2.125829 1_555
Mg5 O29 2.125829 1_555
Mg5 O3 2.196371 1_555
Mg5 O7 2.196371 1_555
Mg6 O24 2.079229 1_555
Mg6 O16 2.079229 1_555
Mg6 O8 2.145412 1_555
Mg6 O12 2.145412 1_554
Mg6 O25 2.229368 1_555
Mg6 O18 2.229368 1_555
Mg7 O17 2.079229 1_555
Mg7 O24 2.079229 1_565
Mg7 O9 2.145412 1_555
Mg7 O13 2.145412 1_554
Mg7 O19 2.229368 1_555
Mg7 O25 2.229368 1_555
Mg8 O26 2.079229 1_555
Mg8 O16 2.079229 1_655
Mg8 O10 2.145412 1_555
Mg8 O14 2.145412 1_554
Mg8 O27 2.229368 1_555
Mg8 O18 2.229368 1_555
Mg9 O26 2.079229 1_565
Mg9 O17 2.079229 1_655
Mg9 O11 2.145412 1_555
Mg9 O15 2.145412 1_554
Mg9 O19 2.229368 1_555
Mg9 O27 2.229368 1_555
Mg10 O20 2.129593 1_555
Mg10 O28 2.129593 1_555
Mg10 O12 2.164472 1_555
Mg10 O8 2.164472 1_555
Mg10 O22 2.165998 1_555
Mg10 O29 2.165998 1_555
Mg11 O21 2.129593 1_555
Mg11 O28 2.129593 1_565
Mg11 O13 2.164472 1_555
Mg11 O9 2.164472 1_555
Mg11 O29 2.165998 1_555
Mg11 O23 2.165998 1_555
Mg12 O30 2.129593 1_555
Mg12 O20 2.129593 1_655
Mg12 O14 2.164472 1_555
Mg12 O10 2.164472 1_555
Mg12 O22 2.165998 1_555
Mg12 O31 2.165998 1_555
Mg13 O30 2.129593 1_565
Mg13 O21 2.129593 1_655
Mg13 O15 2.164472 1_555
Mg13 O11 2.164472 1_555
Mg13 O23 2.165998 1_555
Mg13 O31 2.165998 1_555
Mg14 O0 2.114734 1_555
Mg14 O16 2.152483 1_555
Mg14 O8 2.159084 1_555
Mg14 O10 2.159084 1_455
Mg14 O20 2.160581 1_555
Mg14 O1 2.185276 1_555
Mg15 O0 2.114734 1_565
Mg15 O17 2.152483 1_555
Mg15 O9 2.159084 1_555
Mg15 O11 2.159084 1_455
Mg15 O21 2.160581 1_555
Mg15 O1 2.185276 1_555
Mg16 O2 2.083120 1_555
Mg16 O22 2.100925 1_555
Mg16 O10 2.138454 1_555
Mg16 O8 2.138454 1_555
Mg16 O18 2.209894 1_555
Mg16 O3 2.214175 1_555
Mg17 O2 2.083120 1_565
Mg17 O23 2.100925 1_555
Mg17 O11 2.138454 1_555
Mg17 O9 2.138454 1_555
Mg17 O19 2.209894 1_555
Mg17 O3 2.214175 1_555
Mg18 O4 2.114734 1_555
Mg18 O16 2.152483 1_556
Mg18 O12 2.159084 1_555
Mg18 O14 2.159084 1_455
Mg18 O20 2.160581 1_555
Mg18 O5 2.185276 1_555
Mg19 O4 2.114734 1_565
Mg19 O17 2.152483 1_556
Mg19 O13 2.159084 1_555
Mg19 O15 2.159084 1_455
Mg19 O21 2.160581 1_555
Mg19 O5 2.185276 1_555
Mg20 O6 2.083120 1_555
Mg20 O22 2.100925 1_555
Mg20 O14 2.138454 1_555
Mg20 O12 2.138454 1_555
Mg20 O18 2.209894 1_556
Mg20 O7 2.214175 1_555
Mg21 O6 2.083120 1_565
Mg21 O23 2.100925 1_555
Mg21 O15 2.138454 1_555
Mg21 O13 2.138454 1_555
Mg21 O19 2.209894 1_556
Mg21 O7 2.214175 1_555
Mg22 O0 2.114734 1_555
Mg22 O24 2.152483 1_555
Mg22 O8 2.159084 1_555
Mg22 O9 2.159084 1_545
Mg22 O28 2.160581 1_555
Mg22 O2 2.185276 1_555
Mg23 O1 2.083120 1_555
Mg23 O29 2.100925 1_555
Mg23 O9 2.138454 1_555
Mg23 O8 2.138454 1_555
Mg23 O25 2.209894 1_555
Mg23 O3 2.214175 1_555
Mg24 O0 2.114734 1_655
Mg24 O26 2.152483 1_555
Mg24 O10 2.159084 1_555
Mg24 O11 2.159084 1_545
Mg24 O30 2.160581 1_555
Mg24 O2 2.185276 1_555
Mg25 O1 2.083120 1_655
Mg25 O31 2.100925 1_555
Mg25 O11 2.138454 1_555
Mg25 O10 2.138454 1_555
Mg25 O27 2.209894 1_555
Mg25 O3 2.214175 1_555
Mg26 O4 2.114734 1_555
Mg26 O24 2.152483 1_556
Mg26 O12 2.159084 1_555
Mg26 O13 2.159084 1_545
Mg26 O28 2.160581 1_555
Mg26 O6 2.185276 1_555
Mg27 O5 2.083120 1_555
Mg27 O29 2.100925 1_555
Mg27 O13 2.138454 1_555
Mg27 O12 2.138454 1_555
Mg27 O25 2.209894 1_556
Mg27 O7 2.214175 1_555
Mg28 O4 2.114734 1_655
Mg28 O26 2.152483 1_556
Mg28 O14 2.159084 1_555
Mg28 O15 2.159084 1_545
Mg28 O30 2.160581 1_555
Mg28 O6 2.185276 1_555
Mg29 O5 2.083120 1_655
Mg29 O31 2.100925 1_555
Mg29 O15 2.138454 1_555
Mg29 O14 2.138454 1_555
Mg29 O27 2.209894 1_556
Mg29 O7 2.214175 1_555
Fe0 O26 2.272380 1_455
Fe0 O17 2.272380 1_545
Fe0 O24 2.272380 1_555
Fe0 O16 2.272380 1_555
Fe0 O0 2.296308 1_555
Fe0 O4 2.296308 1_554
