# generated using pymatgen
data_KMg149
_symmetry_space_group_name_H-M   'P 1'
_cell_length_a   15.97637196
_cell_length_b   15.97637696
_cell_length_c   15.67752247
_cell_angle_alpha   90.00000000
_cell_angle_beta   90.00000000
_cell_angle_gamma   120.00001212
_symmetry_Int_Tables_number   1
_chemical_formula_structural   KMg149
_chemical_formula_sum   'K1 Mg149'
_cell_volume   3465.48858560
_cell_formula_units_Z   1
loop_
 _symmetry_equiv_pos_site_id
 _symmetry_equiv_pos_as_xyz
  1  'x, y, z'
loop_
 _atom_site_type_symbol
 _atom_site_label
 _atom_site_symmetry_multiplicity
 _atom_site_fract_x
 _atom_site_fract_y
 _atom_site_fract_z
 _atom_site_occupancy
  K  K0  1  0.00000000  0.00000000  -0.00000000  1
  Mg  Mg0  1  0.60049310  0.20098521  -0.00000000  1
  Mg  Mg1  1  0.40172859  0.20086480  -0.00000000  1
  Mg  Mg2  1  0.79913620  0.20086480  -0.00000000  1
  Mg  Mg3  1  0.00226145  0.20953292  -0.00000000  1
  Mg  Mg4  1  0.20727147  0.20953392  -0.00000000  1
  Mg  Mg5  1  0.79901379  0.39950690  -0.00000000  1
  Mg  Mg6  1  0.60049310  0.39950690  -0.00000000  1
  Mg  Mg7  1  0.40200384  0.40239511  -0.00000000  1
  Mg  Mg8  1  0.00039227  0.40239611  -0.00000000  1
  Mg  Mg9  1  0.20179968  0.40360036  -0.00000000  1
  Mg  Mg10  1  0.59760389  0.59799716  -0.00000000  1
  Mg  Mg11  1  0.00039227  0.59799716  -0.00000000  1
  Mg  Mg12  1  0.79913620  0.59827141  -0.00000000  1
  Mg  Mg13  1  0.20108930  0.60054415  -0.00000000  1
  Mg  Mg14  1  0.39945485  0.60054415  -0.00000000  1
  Mg  Mg15  1  0.00226145  0.79272753  -0.00000000  1
  Mg  Mg16  1  0.79046608  0.79272753  -0.00000000  1
  Mg  Mg17  1  0.59639964  0.79819932  -0.00000000  1
  Mg  Mg18  1  0.20179968  0.79820032  -0.00000000  1
  Mg  Mg19  1  0.39945485  0.79891070  -0.00000000  1
  Mg  Mg20  1  0.20727147  0.99773855  -0.00000000  1
  Mg  Mg21  1  0.79046608  0.99773855  -0.00000000  1
  Mg  Mg22  1  0.40200384  0.99960773  -0.00000000  1
  Mg  Mg23  1  0.59760389  0.99960773  -0.00000000  1
  Mg  Mg24  1  0.86808412  0.13191588  0.16531310  1
  Mg  Mg25  1  0.26383176  0.13191588  0.16531310  1
  Mg  Mg26  1  0.86808412  0.73616724  0.16531310  1
  Mg  Mg27  1  0.66666700  0.33333300  0.16623663  1
  Mg  Mg28  1  0.46587356  0.13321718  0.16661712  1
  Mg  Mg29  1  0.66734361  0.13321718  0.16661712  1
  Mg  Mg30  1  0.86678282  0.33265539  0.16661712  1
  Mg  Mg31  1  0.46587356  0.33265639  0.16661712  1
  Mg  Mg32  1  0.66734361  0.53412644  0.16661712  1
  Mg  Mg33  1  0.86678282  0.53412744  0.16661712  1
  Mg  Mg34  1  0.26696972  0.53393944  0.16728296  1
  Mg  Mg35  1  0.46606056  0.73303028  0.16728296  1
  Mg  Mg36  1  0.26696972  0.73303028  0.16728296  1
  Mg  Mg37  1  0.06705270  0.53352635  0.16759622  1
  Mg  Mg38  1  0.46647465  0.53352635  0.16759622  1
  Mg  Mg39  1  0.46647465  0.93294830  0.16759622  1
  Mg  Mg40  1  0.26786662  0.33573545  0.16798050  1
  Mg  Mg41  1  0.06786983  0.33573645  0.16798050  1
  Mg  Mg42  1  0.66426355  0.73213338  0.16798050  1
  Mg  Mg43  1  0.06786983  0.73213438  0.16798050  1
  Mg  Mg44  1  0.26786662  0.93213017  0.16798050  1
  Mg  Mg45  1  0.66426355  0.93213017  0.16798050  1
  Mg  Mg46  1  0.06962725  0.13925551  0.17357712  1
  Mg  Mg47  1  0.86074449  0.93037275  0.17357712  1
  Mg  Mg48  1  0.06962725  0.93037275  0.17357712  1
  Mg  Mg49  1  0.79995942  0.20004058  0.33284441  1
  Mg  Mg50  1  0.40008116  0.20004058  0.33284441  1
  Mg  Mg51  1  0.79995942  0.59991884  0.33284441  1
  Mg  Mg52  1  0.60011942  0.20023885  0.33318223  1
  Mg  Mg53  1  0.79976115  0.39988058  0.33318223  1
  Mg  Mg54  1  0.60011942  0.39988058  0.33318223  1
  Mg  Mg55  1  0.19986975  0.59993488  0.33388207  1
  Mg  Mg56  1  0.40006512  0.59993488  0.33388207  1
  Mg  Mg57  1  0.40006512  0.80013025  0.33388207  1
  Mg  Mg58  1  0.59936163  0.00013642  0.33395246  1
  Mg  Mg59  1  0.40077478  0.00013642  0.33395246  1
  Mg  Mg60  1  0.40077478  0.40063837  0.33395246  1
  Mg  Mg61  1  0.99986358  0.40063837  0.33395246  1
  Mg  Mg62  1  0.59936163  0.59922522  0.33395246  1
  Mg  Mg63  1  0.99986358  0.59922522  0.33395246  1
  Mg  Mg64  1  0.00000000  0.00000000  0.33366937  1
  Mg  Mg65  1  0.20018209  0.40036417  0.33383307  1
  Mg  Mg66  1  0.20018209  0.79981791  0.33383307  1
  Mg  Mg67  1  0.59963583  0.79981791  0.33383307  1
  Mg  Mg68  1  0.79888502  0.00040416  0.33482828  1
  Mg  Mg69  1  0.20151813  0.00040416  0.33482828  1
  Mg  Mg70  1  0.20151813  0.20111498  0.33482828  1
  Mg  Mg71  1  0.99959584  0.20111498  0.33482828  1
  Mg  Mg72  1  0.79888502  0.79848087  0.33482828  1
  Mg  Mg73  1  0.99959584  0.79848187  0.33482828  1
  Mg  Mg74  1  0.06679680  0.13359360  0.50000000  1
  Mg  Mg75  1  0.86625123  0.13374877  0.50000000  1
  Mg  Mg76  1  0.26749853  0.13374877  0.50000000  1
  Mg  Mg77  1  0.46696610  0.13410044  0.50000000  1
  Mg  Mg78  1  0.66713334  0.13410044  0.50000000  1
  Mg  Mg79  1  0.46696610  0.33286666  0.50000000  1
  Mg  Mg80  1  0.86589956  0.33286666  0.50000000  1
  Mg  Mg81  1  0.66666700  0.33333300  0.50000000  1
  Mg  Mg82  1  0.06729488  0.33401549  0.50000000  1
  Mg  Mg83  1  0.26672062  0.33401549  0.50000000  1
  Mg  Mg84  1  0.86589956  0.53303290  0.50000000  1
  Mg  Mg85  1  0.66713334  0.53303290  0.50000000  1
  Mg  Mg86  1  0.46655397  0.53344603  0.50000000  1
  Mg  Mg87  1  0.06689306  0.53344603  0.50000000  1
  Mg  Mg88  1  0.26689037  0.53378173  0.50000000  1
  Mg  Mg89  1  0.86625123  0.73250147  0.50000000  1
  Mg  Mg90  1  0.06729488  0.73327938  0.50000000  1
  Mg  Mg91  1  0.66598451  0.73327938  0.50000000  1
  Mg  Mg92  1  0.46621927  0.73310963  0.50000000  1
  Mg  Mg93  1  0.26689037  0.73310963  0.50000000  1
  Mg  Mg94  1  0.66598451  0.93270412  0.50000000  1
  Mg  Mg95  1  0.26672062  0.93270512  0.50000000  1
  Mg  Mg96  1  0.46655397  0.93310694  0.50000000  1
  Mg  Mg97  1  0.86640740  0.93320320  0.50000000  1
  Mg  Mg98  1  0.06679680  0.93320420  0.50000000  1
  Mg  Mg99  1  0.79888502  0.00040416  0.66517272  1
  Mg  Mg100  1  0.20151813  0.00040416  0.66517272  1
  Mg  Mg101  1  0.20151813  0.20111498  0.66517272  1
  Mg  Mg102  1  0.99959584  0.20111498  0.66517272  1
  Mg  Mg103  1  0.79888502  0.79848087  0.66517272  1
  Mg  Mg104  1  0.99959584  0.79848187  0.66517272  1
  Mg  Mg105  1  0.20018209  0.40036417  0.66616693  1
  Mg  Mg106  1  0.20018209  0.79981791  0.66616693  1
  Mg  Mg107  1  0.59963583  0.79981791  0.66616693  1
  Mg  Mg108  1  0.00000000  0.00000000  0.66633063  1
  Mg  Mg109  1  0.59936163  0.00013642  0.66604854  1
  Mg  Mg110  1  0.40077478  0.00013642  0.66604854  1
  Mg  Mg111  1  0.40077478  0.40063837  0.66604854  1
  Mg  Mg112  1  0.99986358  0.40063837  0.66604854  1
  Mg  Mg113  1  0.59936163  0.59922522  0.66604854  1
  Mg  Mg114  1  0.99986358  0.59922522  0.66604854  1
  Mg  Mg115  1  0.19986975  0.59993488  0.66611693  1
  Mg  Mg116  1  0.40006512  0.59993488  0.66611693  1
  Mg  Mg117  1  0.40006512  0.80013025  0.66611693  1
  Mg  Mg118  1  0.60011942  0.20023885  0.66681777  1
  Mg  Mg119  1  0.79976115  0.39988058  0.66681777  1
  Mg  Mg120  1  0.60011942  0.39988058  0.66681777  1
  Mg  Mg121  1  0.79995942  0.20004058  0.66715459  1
  Mg  Mg122  1  0.40008116  0.20004058  0.66715459  1
  Mg  Mg123  1  0.79995942  0.59991884  0.66715459  1
  Mg  Mg124  1  0.06962725  0.13925551  0.82642288  1
  Mg  Mg125  1  0.86074449  0.93037275  0.82642288  1
  Mg  Mg126  1  0.06962725  0.93037275  0.82642288  1
  Mg  Mg127  1  0.26786662  0.33573545  0.83201950  1
  Mg  Mg128  1  0.06786983  0.33573645  0.83201950  1
  Mg  Mg129  1  0.66426355  0.73213338  0.83201950  1
  Mg  Mg130  1  0.06786983  0.73213438  0.83201950  1
  Mg  Mg131  1  0.26786662  0.93213017  0.83201950  1
  Mg  Mg132  1  0.66426355  0.93213017  0.83201950  1
  Mg  Mg133  1  0.06705270  0.53352635  0.83240278  1
  Mg  Mg134  1  0.46647465  0.53352635  0.83240278  1
  Mg  Mg135  1  0.46647465  0.93294830  0.83240278  1
  Mg  Mg136  1  0.26696972  0.53393944  0.83271704  1
  Mg  Mg137  1  0.46606056  0.73303028  0.83271704  1
  Mg  Mg138  1  0.26696972  0.73303028  0.83271704  1
  Mg  Mg139  1  0.46587356  0.13321718  0.83338288  1
  Mg  Mg140  1  0.66734361  0.13321718  0.83338288  1
  Mg  Mg141  1  0.86678282  0.33265539  0.83338288  1
  Mg  Mg142  1  0.46587356  0.33265639  0.83338288  1
  Mg  Mg143  1  0.66734361  0.53412644  0.83338288  1
  Mg  Mg144  1  0.86678282  0.53412744  0.83338288  1
  Mg  Mg145  1  0.66666700  0.33333300  0.83376237  1
  Mg  Mg146  1  0.86808412  0.13191588  0.83468690  1
  Mg  Mg147  1  0.26383176  0.13191588  0.83468690  1
  Mg  Mg148  1  0.86808412  0.73616724  0.83468690  1
loop_
_geom_bond_atom_site_label_1
_geom_bond_atom_site_label_2
_geom_bond_distance
_geom_bond_site_symmetry_2
K0 Mg20 3.329658 1_545
K0 Mg3 3.329659 1_555
K0 Mg4 3.329666 1_555
K0 Mg16 3.329674 1_445
K0 Mg21 3.329674 1_445
K0 Mg15 3.329675 1_545
K0 Mg48 3.334291 1_545
K0 Mg126 3.334291 1_544
K0 Mg47 3.334298 1_445
K0 Mg125 3.334298 1_444
K0 Mg46 3.334299 1_555
K0 Mg124 3.334299 1_554
Mg0 Mg5 3.171648 1_555
Mg0 Mg6 3.171657 1_555
Mg0 Mg2 3.174558 1_555
Mg0 Mg1 3.174574 1_555
Mg0 Mg27 3.185169 1_555
Mg0 Mg145 3.185182 1_554
Mg0 Mg23 3.194453 1_545
Mg0 Mg22 3.194460 1_545
Mg0 Mg140 3.208198 1_554
Mg0 Mg29 3.208198 1_555
Mg0 Mg139 3.208206 1_554
Mg0 Mg28 3.208206 1_555
Mg1 Mg6 3.174558 1_555
Mg1 Mg20 3.178234 1_545
Mg1 Mg4 3.178234 1_555
Mg1 Mg142 3.185763 1_554
Mg1 Mg31 3.185763 1_555
Mg1 Mg139 3.185771 1_554
Mg1 Mg28 3.185771 1_555
Mg1 Mg7 3.217528 1_555
Mg1 Mg22 3.217560 1_545
Mg1 Mg25 3.218247 1_555
Mg1 Mg147 3.218247 1_554
Mg2 Mg5 3.174559 1_555
Mg2 Mg3 3.178226 1_655
Mg2 Mg21 3.178228 1_545
Mg2 Mg30 3.185756 1_555
Mg2 Mg29 3.185771 1_555
Mg2 Mg8 3.217543 1_655
Mg2 Mg23 3.217559 1_545
Mg2 Mg24 3.218248 1_555
Mg3 Mg8 3.096294 1_555
Mg3 Mg9 3.145106 1_555
Mg3 Mg41 3.160070 1_555
Mg3 Mg4 3.275308 1_555
Mg3 Mg46 3.321539 1_555
Mg4 Mg7 3.096278 1_555
Mg4 Mg9 3.145100 1_555
Mg4 Mg40 3.160055 1_555
Mg4 Mg46 3.321547 1_555
Mg5 Mg6 3.171640 1_555
Mg5 Mg8 3.194468 1_655
Mg6 Mg7 3.194460 1_555
Mg7 Mg9 3.208207 1_555
Mg8 Mg9 3.208183 1_555
Mg10 Mg16 3.096269 1_555
Mg10 Mg7 3.124995 1_555
Mg10 Mg14 3.186243 1_555
Mg10 Mg38 3.193071 1_555
Mg10 Mg134 3.193083 1_554
Mg10 Mg6 3.194485 1_555
Mg10 Mg143 3.200455 1_554
Mg10 Mg32 3.200455 1_555
Mg10 Mg17 3.208168 1_555
Mg10 Mg12 3.217567 1_555
Mg10 Mg129 3.221774 1_554
Mg10 Mg42 3.221774 1_555
Mg11 Mg15 3.096262 1_555
Mg11 Mg8 3.124996 1_555
Mg11 Mg13 3.186259 1_555
Mg11 Mg37 3.193087 1_555
Mg11 Mg133 3.193100 1_554
Mg11 Mg5 3.194476 1_455
Mg11 Mg144 3.200447 1_454
Mg11 Mg33 3.200447 1_455
Mg11 Mg18 3.208183 1_555
Mg11 Mg12 3.217535 1_455
Mg11 Mg130 3.221782 1_554
Mg11 Mg43 3.221782 1_555
Mg12 Mg5 3.174559 1_555
Mg12 Mg6 3.174566 1_555
Mg12 Mg15 3.178218 1_655
Mg12 Mg16 3.178228 1_555
Mg12 Mg144 3.185756 1_554
Mg12 Mg33 3.185756 1_555
Mg12 Mg143 3.185771 1_554
Mg12 Mg32 3.185771 1_555
Mg12 Mg148 3.218239 1_554
Mg12 Mg26 3.218239 1_555
Mg13 Mg9 3.152138 1_555
Mg13 Mg18 3.152170 1_555
Mg13 Mg14 3.169162 1_555
Mg13 Mg19 3.169170 1_555
Mg13 Mg8 3.186244 1_555
Mg13 Mg136 3.199699 1_554
Mg13 Mg34 3.199699 1_555
Mg13 Mg138 3.199706 1_554
Mg13 Mg36 3.199706 1_555
Mg13 Mg37 3.216050 1_555
Mg13 Mg133 3.216063 1_554
Mg14 Mg9 3.152145 1_555
Mg14 Mg17 3.152153 1_555
Mg14 Mg19 3.169179 1_555
Mg14 Mg7 3.186261 1_555
Mg14 Mg34 3.199698 1_555
Mg14 Mg35 3.199706 1_555
Mg14 Mg38 3.216058 1_555
Mg15 Mg18 3.145091 1_555
Mg15 Mg43 3.160055 1_555
Mg15 Mg26 3.192441 1_455
Mg15 Mg20 3.275324 1_555
Mg15 Mg48 3.321555 1_555
Mg15 Mg16 3.383722 1_455
Mg16 Mg17 3.145099 1_555
Mg16 Mg42 3.160062 1_555
Mg16 Mg26 3.192450 1_555
Mg16 Mg21 3.275333 1_555
Mg16 Mg47 3.321555 1_555
Mg17 Mg21 3.145107 1_555
Mg17 Mg19 3.152161 1_555
Mg17 Mg35 3.182776 1_555
Mg17 Mg23 3.208200 1_555
Mg17 Mg42 3.220156 1_555
Mg17 Mg45 3.220164 1_555
Mg18 Mg20 3.145100 1_555
Mg18 Mg19 3.152153 1_555
Mg18 Mg36 3.182784 1_555
Mg18 Mg22 3.208191 1_555
Mg18 Mg43 3.220156 1_555
Mg18 Mg44 3.220156 1_555
Mg19 Mg22 3.186245 1_555
Mg19 Mg23 3.186252 1_555
Mg19 Mg36 3.199698 1_555
Mg19 Mg35 3.199706 1_555
Mg19 Mg39 3.216058 1_555
Mg20 Mg22 3.096293 1_555
Mg20 Mg44 3.160070 1_555
Mg20 Mg25 3.192442 1_565
Mg20 Mg48 3.321547 1_555
Mg20 Mg4 3.383723 1_565
Mg21 Mg23 3.096277 1_555
Mg21 Mg45 3.160062 1_555
Mg21 Mg24 3.192442 1_565
Mg21 Mg47 3.321547 1_555
Mg21 Mg3 3.383714 1_665
Mg22 Mg23 3.124979 1_555
Mg22 Mg39 3.193079 1_555
Mg22 Mg28 3.200447 1_565
Mg22 Mg44 3.221782 1_555
Mg23 Mg39 3.193071 1_555
Mg23 Mg29 3.200447 1_565
Mg23 Mg45 3.221782 1_555
Mg24 Mg46 3.165581 1_655
Mg24 Mg47 3.165582 1_545
Mg24 Mg3 3.192441 1_655
Mg24 Mg30 3.217600 1_555
Mg24 Mg29 3.217615 1_555
Mg24 Mg71 3.221281 1_555
Mg24 Mg68 3.221281 1_555
Mg24 Mg45 3.224836 1_545
Mg24 Mg41 3.224836 1_655
Mg24 Mg49 3.232975 1_555
Mg25 Mg48 3.165588 1_545
Mg25 Mg46 3.165597 1_555
Mg25 Mg4 3.192450 1_555
Mg25 Mg31 3.217615 1_555
Mg25 Mg28 3.217615 1_555
Mg25 Mg69 3.221281 1_555
Mg25 Mg70 3.221289 1_555
Mg25 Mg40 3.224822 1_555
Mg25 Mg44 3.224837 1_545
Mg25 Mg50 3.232974 1_555
Mg26 Mg48 3.165596 1_655
Mg26 Mg47 3.165614 1_555
Mg26 Mg33 3.217584 1_555
Mg26 Mg32 3.217607 1_555
Mg26 Mg73 3.221280 1_555
Mg26 Mg72 3.221289 1_555
Mg26 Mg43 3.224820 1_655
Mg26 Mg42 3.224844 1_555
Mg26 Mg51 3.232967 1_555
Mg27 Mg5 3.185161 1_555
Mg27 Mg6 3.185169 1_555
Mg27 Mg53 3.200201 1_555
Mg27 Mg52 3.200201 1_555
Mg27 Mg54 3.200209 1_555
Mg27 Mg29 3.202550 1_555
Mg27 Mg28 3.202557 1_555
Mg27 Mg30 3.202557 1_555
Mg27 Mg33 3.202565 1_555
Mg27 Mg31 3.202565 1_555
Mg27 Mg32 3.202566 1_555
Mg28 Mg31 3.186316 1_555
Mg28 Mg50 3.187193 1_555
Mg28 Mg44 3.188393 1_545
Mg28 Mg39 3.204420 1_545
Mg28 Mg52 3.204534 1_555
Mg28 Mg59 3.205176 1_555
Mg28 Mg29 3.218760 1_555
Mg29 Mg30 3.186307 1_555
Mg29 Mg49 3.187193 1_555
Mg29 Mg45 3.188394 1_545
Mg29 Mg39 3.204411 1_545
Mg29 Mg52 3.204535 1_555
Mg29 Mg58 3.205176 1_555
Mg30 Mg49 3.187185 1_555
Mg30 Mg41 3.188385 1_655
Mg30 Mg8 3.200447 1_655
Mg30 Mg37 3.204435 1_655
Mg30 Mg53 3.204543 1_555
Mg30 Mg61 3.205176 1_555
Mg30 Mg5 3.208214 1_555
Mg30 Mg33 3.218793 1_555
Mg31 Mg50 3.187193 1_555
Mg31 Mg40 3.188385 1_555
Mg31 Mg7 3.200439 1_555
Mg31 Mg38 3.204420 1_555
Mg31 Mg54 3.204534 1_555
Mg31 Mg60 3.205176 1_555
Mg31 Mg6 3.208206 1_555
Mg31 Mg32 3.218760 1_555
Mg32 Mg33 3.186307 1_555
Mg32 Mg51 3.187193 1_555
Mg32 Mg42 3.188394 1_555
Mg32 Mg38 3.204411 1_555
Mg32 Mg54 3.204535 1_555
Mg32 Mg62 3.205176 1_555
Mg32 Mg6 3.208206 1_555
Mg33 Mg51 3.187185 1_555
Mg33 Mg43 3.188393 1_655
Mg33 Mg37 3.204435 1_655
Mg33 Mg53 3.204543 1_555
Mg33 Mg63 3.205176 1_555
Mg33 Mg5 3.208214 1_555
Mg34 Mg41 3.173772 1_555
Mg34 Mg40 3.173789 1_555
Mg34 Mg35 3.180749 1_555
Mg34 Mg36 3.180750 1_555
Mg34 Mg9 3.182776 1_555
Mg34 Mg37 3.190658 1_555
Mg34 Mg38 3.190674 1_555
Mg34 Mg56 3.195782 1_555
Mg34 Mg55 3.195782 1_555
Mg34 Mg65 3.198973 1_555
Mg35 Mg45 3.173772 1_555
Mg35 Mg42 3.173772 1_555
Mg35 Mg36 3.180749 1_555
Mg35 Mg39 3.190667 1_555
Mg35 Mg38 3.190667 1_555
Mg35 Mg56 3.195782 1_555
Mg35 Mg57 3.195782 1_555
Mg35 Mg67 3.198973 1_555
Mg36 Mg44 3.173773 1_555
Mg36 Mg43 3.173780 1_555
Mg36 Mg37 3.190658 1_555
Mg36 Mg39 3.190674 1_555
Mg36 Mg57 3.195782 1_555
Mg36 Mg55 3.195782 1_555
Mg36 Mg66 3.198973 1_555
Mg37 Mg41 3.166519 1_555
Mg37 Mg43 3.166535 1_555
Mg37 Mg55 3.189536 1_555
Mg37 Mg61 3.191026 1_455
Mg37 Mg63 3.191027 1_455
Mg37 Mg8 3.193079 1_555
Mg38 Mg42 3.166510 1_555
Mg38 Mg40 3.166534 1_555
Mg38 Mg56 3.189545 1_555
Mg38 Mg62 3.191018 1_555
Mg38 Mg60 3.191026 1_555
Mg38 Mg7 3.193087 1_555
Mg39 Mg45 3.166510 1_555
Mg39 Mg44 3.166526 1_555
Mg39 Mg57 3.189545 1_555
Mg39 Mg58 3.191018 1_565
Mg39 Mg59 3.191026 1_565
Mg40 Mg46 3.154406 1_555
Mg40 Mg65 3.180063 1_555
Mg40 Mg60 3.186339 1_555
Mg40 Mg41 3.195231 1_555
Mg40 Mg70 3.211187 1_555
Mg40 Mg9 3.220172 1_555
Mg40 Mg7 3.221782 1_555
Mg41 Mg46 3.154406 1_555
Mg41 Mg65 3.180055 1_555
Mg41 Mg61 3.186340 1_455
Mg41 Mg71 3.211195 1_455
Mg41 Mg9 3.220156 1_555
Mg41 Mg8 3.221782 1_555
Mg42 Mg47 3.154414 1_555
Mg42 Mg67 3.180055 1_555
Mg42 Mg62 3.186340 1_555
Mg42 Mg45 3.195224 1_555
Mg42 Mg72 3.211195 1_555
Mg43 Mg48 3.154407 1_555
Mg43 Mg66 3.180055 1_555
Mg43 Mg63 3.186348 1_455
Mg43 Mg44 3.195215 1_555
Mg43 Mg73 3.211195 1_455
Mg44 Mg48 3.154422 1_555
Mg44 Mg66 3.180055 1_555
Mg44 Mg59 3.186339 1_565
Mg44 Mg69 3.211203 1_565
Mg45 Mg47 3.154405 1_555
Mg45 Mg67 3.180055 1_555
Mg45 Mg58 3.186340 1_565
Mg45 Mg68 3.211195 1_565
Mg46 Mg70 3.118519 1_555
Mg46 Mg71 3.118519 1_455
Mg46 Mg64 3.164118 1_555
Mg46 Mg47 3.337189 1_445
Mg46 Mg48 3.337190 1_545
Mg47 Mg68 3.118519 1_565
Mg47 Mg72 3.118528 1_555
Mg47 Mg64 3.164117 1_665
Mg47 Mg48 3.337189 1_655
Mg48 Mg69 3.118519 1_565
Mg48 Mg73 3.118519 1_455
Mg48 Mg64 3.164109 1_565
Mg49 Mg71 3.181070 1_555
Mg49 Mg68 3.181071 1_555
Mg49 Mg52 3.194308 1_555
Mg49 Mg53 3.194309 1_555
Mg49 Mg75 3.198838 1_555
Mg49 Mg58 3.199346 1_555
Mg49 Mg61 3.199346 1_555
Mg49 Mg78 3.200772 1_555
Mg49 Mg80 3.200772 1_555
Mg50 Mg69 3.181078 1_555
Mg50 Mg70 3.181086 1_555
Mg50 Mg54 3.194307 1_555
Mg50 Mg52 3.194307 1_555
Mg50 Mg76 3.198830 1_555
Mg50 Mg59 3.199347 1_555
Mg50 Mg60 3.199347 1_555
Mg50 Mg77 3.200764 1_555
Mg50 Mg79 3.200772 1_555
Mg51 Mg72 3.181071 1_555
Mg51 Mg73 3.181078 1_555
Mg51 Mg54 3.194307 1_555
Mg51 Mg53 3.194308 1_555
Mg51 Mg89 3.198830 1_555
Mg51 Mg63 3.199346 1_555
Mg51 Mg62 3.199346 1_555
Mg51 Mg85 3.200772 1_555
Mg51 Mg84 3.200772 1_555
Mg52 Mg53 3.189550 1_555
Mg52 Mg54 3.189552 1_555
Mg52 Mg59 3.190897 1_555
Mg52 Mg58 3.190899 1_555
Mg52 Mg81 3.198562 1_555
Mg52 Mg78 3.199033 1_555
Mg52 Mg77 3.199041 1_555
Mg53 Mg54 3.189551 1_555
Mg53 Mg63 3.190897 1_555
Mg53 Mg61 3.190898 1_555
Mg53 Mg81 3.198562 1_555
Mg53 Mg84 3.199033 1_555
Mg53 Mg80 3.199033 1_555
Mg54 Mg60 3.190898 1_555
Mg54 Mg62 3.190899 1_555
Mg54 Mg81 3.198570 1_555
Mg54 Mg85 3.199033 1_555
Mg54 Mg79 3.199041 1_555
Mg55 Mg87 3.188659 1_555
Mg55 Mg61 3.189719 1_455
Mg55 Mg63 3.189719 1_455
Mg55 Mg88 3.190241 1_555
Mg55 Mg93 3.190249 1_555
Mg55 Mg66 3.190915 1_555
Mg55 Mg65 3.190915 1_555
Mg55 Mg57 3.198396 1_555
Mg55 Mg56 3.198396 1_555
Mg56 Mg86 3.188668 1_555
Mg56 Mg62 3.189719 1_555
Mg56 Mg60 3.189720 1_555
Mg56 Mg88 3.190249 1_555
Mg56 Mg92 3.190249 1_555
Mg56 Mg65 3.190914 1_555
Mg56 Mg67 3.190914 1_555
Mg56 Mg57 3.198397 1_555
Mg57 Mg96 3.188659 1_555
Mg57 Mg58 3.189719 1_565
Mg57 Mg59 3.189720 1_565
Mg57 Mg93 3.190249 1_555
Mg57 Mg92 3.190249 1_555
Mg57 Mg66 3.190914 1_555
Mg57 Mg67 3.190914 1_555
Mg58 Mg59 3.172697 1_555
Mg58 Mg68 3.185553 1_555
Mg58 Mg96 3.186424 1_545
Mg58 Mg78 3.195687 1_555
Mg58 Mg94 3.196400 1_545
Mg58 Mg67 3.202557 1_545
Mg59 Mg69 3.185569 1_555
Mg59 Mg96 3.186433 1_545
Mg59 Mg77 3.195687 1_555
Mg59 Mg95 3.196392 1_545
Mg59 Mg66 3.202556 1_545
Mg60 Mg62 3.172697 1_555
Mg60 Mg70 3.185561 1_555
Mg60 Mg86 3.186425 1_555
Mg60 Mg79 3.195679 1_555
Mg60 Mg83 3.196392 1_555
Mg60 Mg65 3.202556 1_555
Mg61 Mg63 3.172698 1_555
Mg61 Mg71 3.185554 1_555
Mg61 Mg87 3.186425 1_655
Mg61 Mg80 3.195687 1_555
Mg61 Mg82 3.196392 1_655
Mg61 Mg65 3.202556 1_655
Mg62 Mg72 3.185553 1_555
Mg62 Mg86 3.186424 1_555
Mg62 Mg85 3.195687 1_555
Mg62 Mg91 3.196392 1_555
Mg62 Mg67 3.202557 1_555
Mg63 Mg73 3.185570 1_555
Mg63 Mg87 3.186433 1_655
Mg63 Mg84 3.195687 1_555
Mg63 Mg90 3.196392 1_655
Mg63 Mg66 3.202556 1_655
Mg64 Mg97 3.196304 1_445
Mg64 Mg98 3.196304 1_545
Mg64 Mg74 3.196312 1_555
Mg64 Mg69 3.216356 1_555
Mg64 Mg73 3.216357 1_445
Mg64 Mg70 3.216364 1_555
Mg64 Mg72 3.216372 1_445
Mg64 Mg68 3.216372 1_455
Mg64 Mg71 3.216373 1_455
Mg65 Mg82 3.188573 1_555
Mg65 Mg83 3.188573 1_555
Mg65 Mg88 3.192810 1_555
Mg65 Mg70 3.194044 1_555
Mg65 Mg71 3.194051 1_455
Mg66 Mg90 3.188573 1_555
Mg66 Mg95 3.188573 1_555
Mg66 Mg93 3.192802 1_555
Mg66 Mg73 3.194060 1_455
Mg66 Mg69 3.194061 1_565
Mg67 Mg94 3.188565 1_555
Mg67 Mg91 3.188573 1_555
Mg67 Mg92 3.192801 1_555
Mg67 Mg72 3.194051 1_555
Mg67 Mg68 3.194051 1_565
Mg68 Mg94 3.176007 1_545
Mg68 Mg75 3.179526 1_555
Mg68 Mg97 3.190614 1_545
Mg68 Mg71 3.206631 1_555
Mg68 Mg72 3.226003 1_545
Mg69 Mg95 3.176016 1_545
Mg69 Mg76 3.179526 1_555
Mg69 Mg98 3.190598 1_545
Mg69 Mg70 3.206632 1_555
Mg69 Mg73 3.225986 1_445
Mg70 Mg83 3.176007 1_555
Mg70 Mg76 3.179542 1_555
Mg70 Mg74 3.190598 1_555
Mg70 Mg71 3.225986 1_455
Mg71 Mg82 3.176007 1_655
Mg71 Mg75 3.179525 1_555
Mg71 Mg74 3.190606 1_655
Mg72 Mg91 3.176007 1_555
Mg72 Mg89 3.179534 1_555
Mg72 Mg97 3.190606 1_555
Mg72 Mg73 3.206623 1_555
Mg73 Mg90 3.176016 1_655
Mg73 Mg89 3.179525 1_555
Mg73 Mg98 3.190606 1_655
Mg74 Mg83 3.198043 1_555
Mg74 Mg82 3.198044 1_555
Mg74 Mg98 3.201497 1_545
Mg74 Mg97 3.201503 1_445
Mg74 Mg75 3.205231 1_455
Mg74 Mg76 3.205247 1_555
Mg75 Mg99 3.179538 1_555
Mg75 Mg78 3.183994 1_555
Mg75 Mg80 3.183995 1_555
Mg75 Mg97 3.205240 1_545
Mg75 Mg82 3.205760 1_655
Mg75 Mg94 3.205768 1_545
Mg76 Mg77 3.183963 1_555
Mg76 Mg79 3.183978 1_555
Mg76 Mg98 3.205231 1_545
Mg76 Mg95 3.205753 1_545
Mg76 Mg83 3.205769 1_555
Mg77 Mg79 3.175564 1_555
Mg77 Mg81 3.186761 1_555
Mg77 Mg78 3.197946 1_555
Mg77 Mg96 3.207861 1_545
Mg77 Mg95 3.208421 1_545
Mg78 Mg80 3.175563 1_555
Mg78 Mg81 3.186746 1_555
Mg78 Mg96 3.207844 1_545
Mg78 Mg94 3.208446 1_545
Mg79 Mg81 3.186777 1_555
Mg79 Mg85 3.197938 1_555
Mg79 Mg86 3.207829 1_555
Mg79 Mg83 3.208413 1_555
Mg80 Mg81 3.186745 1_555
Mg80 Mg84 3.197931 1_555
Mg80 Mg87 3.207844 1_655
Mg80 Mg82 3.208429 1_655
Mg81 Mg84 3.186753 1_555
Mg81 Mg85 3.186762 1_555
Mg82 Mg83 3.186100 1_555
Mg82 Mg87 3.189392 1_555
Mg82 Mg88 3.190177 1_555
Mg83 Mg86 3.189399 1_555
Mg83 Mg88 3.190186 1_555
Mg84 Mg85 3.175563 1_555
Mg84 Mg89 3.183980 1_555
Mg84 Mg87 3.207852 1_655
Mg84 Mg90 3.208429 1_655
Mg85 Mg89 3.183986 1_555
Mg85 Mg86 3.207836 1_555
Mg85 Mg91 3.208430 1_555
Mg86 Mg91 3.189399 1_555
Mg86 Mg92 3.192578 1_555
Mg86 Mg88 3.192585 1_555
Mg87 Mg90 3.189408 1_555
Mg87 Mg88 3.192553 1_555
Mg87 Mg93 3.192569 1_555
Mg88 Mg93 3.184538 1_555
Mg88 Mg92 3.184545 1_555
Mg89 Mg97 3.205240 1_555
Mg89 Mg98 3.205247 1_655
Mg89 Mg90 3.205752 1_655
Mg89 Mg91 3.205768 1_555
Mg90 Mg95 3.186100 1_555
Mg90 Mg93 3.190169 1_555
Mg90 Mg98 3.198060 1_555
Mg91 Mg94 3.186085 1_555
Mg91 Mg92 3.190169 1_555
Mg91 Mg97 3.198051 1_555
Mg92 Mg93 3.184553 1_555
Mg92 Mg94 3.190161 1_555
Mg92 Mg96 3.192562 1_555
Mg93 Mg95 3.190170 1_555
Mg93 Mg96 3.192569 1_555
Mg94 Mg99 3.176020 1_565
Mg94 Mg96 3.189399 1_555
Mg94 Mg97 3.198051 1_555
Mg95 Mg96 3.189407 1_555
Mg95 Mg98 3.198052 1_555
Mg97 Mg99 3.190627 1_565
Mg97 Mg98 3.201488 1_655
Mg100 Mg126 3.118506 1_545
Mg100 Mg95 3.176028 1_545
Mg100 Mg76 3.179538 1_555
Mg100 Mg122 3.181078 1_555
Mg100 Mg110 3.185569 1_555
Mg100 Mg98 3.190610 1_545
Mg100 Mg106 3.194061 1_545
Mg100 Mg101 3.206632 1_555
Mg100 Mg131 3.211190 1_545
Mg100 Mg108 3.216356 1_555
Mg100 Mg147 3.221268 1_555
Mg100 Mg104 3.225986 1_445
Mg101 Mg124 3.118506 1_555
Mg101 Mg83 3.176020 1_555
Mg101 Mg76 3.179554 1_555
Mg101 Mg122 3.181086 1_555
Mg101 Mg111 3.185561 1_555
Mg101 Mg74 3.190610 1_555
Mg101 Mg105 3.194044 1_555
Mg101 Mg127 3.211174 1_555
Mg101 Mg108 3.216364 1_555
Mg101 Mg147 3.221276 1_555
Mg101 Mg102 3.225986 1_455
Mg102 Mg124 3.118507 1_655
Mg102 Mg82 3.176020 1_655
Mg102 Mg75 3.179538 1_555
Mg102 Mg121 3.181070 1_555
Mg102 Mg112 3.185554 1_555
Mg102 Mg74 3.190619 1_655
Mg102 Mg105 3.194051 1_655
Mg102 Mg99 3.206631 1_555
Mg102 Mg128 3.211182 1_655
Mg102 Mg108 3.216373 1_655
Mg102 Mg146 3.221268 1_555
Mg103 Mg125 3.118515 1_555
Mg103 Mg91 3.176020 1_555
Mg103 Mg89 3.179546 1_555
Mg103 Mg123 3.181071 1_555
Mg103 Mg113 3.185553 1_555
Mg103 Mg97 3.190619 1_555
Mg103 Mg107 3.194051 1_555
Mg103 Mg104 3.206623 1_555
Mg103 Mg129 3.211182 1_555
Mg103 Mg108 3.216372 1_665
Mg103 Mg148 3.221276 1_555
Mg103 Mg99 3.226003 1_565
Mg104 Mg126 3.118507 1_655
Mg104 Mg90 3.176028 1_655
Mg104 Mg89 3.179538 1_555
Mg104 Mg123 3.181078 1_555
Mg104 Mg114 3.185570 1_555
Mg104 Mg98 3.190619 1_655
Mg104 Mg106 3.194060 1_655
Mg104 Mg130 3.211182 1_655
Mg104 Mg108 3.216357 1_665
Mg104 Mg148 3.221267 1_555
Mg105 Mg128 3.180055 1_555
Mg105 Mg127 3.180063 1_555
Mg105 Mg82 3.188573 1_555
Mg105 Mg83 3.188573 1_555
Mg105 Mg116 3.190914 1_555
Mg105 Mg115 3.190915 1_555
Mg105 Mg88 3.192810 1_555
Mg105 Mg136 3.198973 1_555
Mg105 Mg111 3.202556 1_555
Mg105 Mg112 3.202556 1_455
Mg106 Mg130 3.180055 1_555
Mg106 Mg131 3.180055 1_555
Mg106 Mg90 3.188573 1_555
Mg106 Mg95 3.188573 1_555
Mg106 Mg117 3.190914 1_555
Mg106 Mg115 3.190915 1_555
Mg106 Mg93 3.192802 1_555
Mg106 Mg138 3.198973 1_555
Mg106 Mg110 3.202556 1_565
Mg106 Mg114 3.202556 1_455
Mg107 Mg129 3.180055 1_555
Mg107 Mg132 3.180055 1_555
Mg107 Mg94 3.188565 1_555
Mg107 Mg91 3.188573 1_555
Mg107 Mg116 3.190914 1_555
Mg107 Mg117 3.190914 1_555
Mg107 Mg92 3.192801 1_555
Mg107 Mg99 3.194051 1_565
Mg107 Mg137 3.198973 1_555
Mg107 Mg113 3.202557 1_555
Mg107 Mg109 3.202557 1_565
Mg108 Mg126 3.164109 1_545
Mg108 Mg125 3.164117 1_445
Mg108 Mg124 3.164118 1_555
Mg108 Mg97 3.196304 1_445
Mg108 Mg98 3.196304 1_545
Mg108 Mg74 3.196312 1_555
Mg108 Mg99 3.216372 1_455
Mg109 Mg110 3.172697 1_555
Mg109 Mg99 3.185553 1_555
Mg109 Mg132 3.186327 1_545
Mg109 Mg96 3.186437 1_545
Mg109 Mg117 3.189719 1_545
Mg109 Mg118 3.190898 1_555
Mg109 Mg135 3.190992 1_545
Mg109 Mg78 3.195700 1_555
Mg109 Mg94 3.196413 1_545
Mg109 Mg121 3.199345 1_555
Mg109 Mg140 3.205164 1_555
Mg110 Mg131 3.186327 1_545
Mg110 Mg96 3.186445 1_545
Mg110 Mg117 3.189720 1_545
Mg110 Mg118 3.190897 1_555
Mg110 Mg135 3.191001 1_545
Mg110 Mg77 3.195700 1_555
Mg110 Mg95 3.196405 1_545
Mg110 Mg122 3.199346 1_555
Mg110 Mg139 3.205164 1_555
Mg111 Mg113 3.172697 1_555
Mg111 Mg127 3.186327 1_555
Mg111 Mg86 3.186437 1_555
Mg111 Mg116 3.189720 1_555
Mg111 Mg120 3.190898 1_555
Mg111 Mg134 3.191001 1_555
Mg111 Mg79 3.195692 1_555
Mg111 Mg83 3.196405 1_555
Mg111 Mg122 3.199347 1_555
Mg111 Mg142 3.205164 1_555
Mg112 Mg114 3.172698 1_555
Mg112 Mg128 3.186327 1_655
Mg112 Mg87 3.186437 1_655
Mg112 Mg115 3.189719 1_655
Mg112 Mg119 3.190897 1_555
Mg112 Mg133 3.191001 1_655
Mg112 Mg80 3.195699 1_555
Mg112 Mg82 3.196405 1_655
Mg112 Mg121 3.199345 1_555
Mg112 Mg141 3.205163 1_555
Mg113 Mg129 3.186327 1_555
Mg113 Mg86 3.186437 1_555
Mg113 Mg116 3.189719 1_555
Mg113 Mg120 3.190898 1_555
Mg113 Mg134 3.190992 1_555
Mg113 Mg85 3.195700 1_555
Mg113 Mg91 3.196405 1_555
Mg113 Mg123 3.199346 1_555
Mg113 Mg143 3.205164 1_555
Mg114 Mg130 3.186335 1_655
Mg114 Mg87 3.186445 1_655
Mg114 Mg115 3.189719 1_655
Mg114 Mg119 3.190897 1_555
Mg114 Mg133 3.191001 1_655
Mg114 Mg84 3.195699 1_555
Mg114 Mg90 3.196405 1_655
Mg114 Mg123 3.199345 1_555
Mg114 Mg144 3.205163 1_555
Mg115 Mg87 3.188646 1_555
Mg115 Mg133 3.189536 1_555
Mg115 Mg88 3.190228 1_555
Mg115 Mg93 3.190236 1_555
Mg115 Mg138 3.195795 1_555
Mg115 Mg136 3.195795 1_555
Mg115 Mg117 3.198396 1_555
Mg115 Mg116 3.198396 1_555
Mg116 Mg86 3.188655 1_555
Mg116 Mg134 3.189545 1_555
Mg116 Mg88 3.190236 1_555
Mg116 Mg92 3.190236 1_555
Mg116 Mg136 3.195794 1_555
Mg116 Mg137 3.195795 1_555
Mg116 Mg117 3.198397 1_555
Mg117 Mg96 3.188647 1_555
Mg117 Mg135 3.189545 1_555
Mg117 Mg93 3.190236 1_555
Mg117 Mg92 3.190236 1_555
Mg117 Mg138 3.195794 1_555
Mg117 Mg137 3.195795 1_555
Mg118 Mg119 3.189550 1_555
Mg118 Mg120 3.189552 1_555
Mg118 Mg122 3.194307 1_555
Mg118 Mg121 3.194308 1_555
Mg118 Mg81 3.198562 1_555
Mg118 Mg78 3.199033 1_555
Mg118 Mg77 3.199041 1_555
Mg118 Mg145 3.200188 1_555
Mg118 Mg139 3.204534 1_555
Mg118 Mg140 3.204535 1_555
Mg119 Mg120 3.189551 1_555
Mg119 Mg123 3.194308 1_555
Mg119 Mg121 3.194309 1_555
Mg119 Mg81 3.198562 1_555
Mg119 Mg84 3.199033 1_555
Mg119 Mg80 3.199033 1_555
Mg119 Mg145 3.200188 1_555
Mg119 Mg144 3.204543 1_555
Mg119 Mg141 3.204543 1_555
Mg120 Mg122 3.194307 1_555
Mg120 Mg123 3.194307 1_555
Mg120 Mg81 3.198570 1_555
Mg120 Mg85 3.199033 1_555
Mg120 Mg79 3.199041 1_555
Mg120 Mg145 3.200196 1_555
Mg120 Mg142 3.204534 1_555
Mg120 Mg143 3.204535 1_555
Mg121 Mg99 3.181071 1_555
Mg121 Mg141 3.187198 1_555
Mg121 Mg140 3.187206 1_555
Mg121 Mg75 3.198825 1_555
Mg121 Mg78 3.200759 1_555
Mg121 Mg80 3.200759 1_555
Mg121 Mg146 3.232988 1_555
Mg122 Mg139 3.187206 1_555
Mg122 Mg142 3.187206 1_555
Mg122 Mg76 3.198817 1_555
Mg122 Mg77 3.200751 1_555
Mg122 Mg79 3.200759 1_555
Mg122 Mg147 3.232987 1_555
Mg123 Mg144 3.187198 1_555
Mg123 Mg143 3.187206 1_555
Mg123 Mg89 3.198817 1_555
Mg123 Mg85 3.200759 1_555
Mg123 Mg84 3.200759 1_555
Mg123 Mg148 3.232979 1_555
Mg124 Mg127 3.154406 1_555
Mg124 Mg128 3.154406 1_555
Mg124 Mg146 3.165581 1_455
Mg124 Mg147 3.165597 1_555
Mg124 Mg3 3.321539 1_556
Mg124 Mg4 3.321547 1_556
Mg124 Mg125 3.337189 1_445
Mg124 Mg126 3.337190 1_545
Mg125 Mg99 3.118507 1_565
Mg125 Mg132 3.154405 1_555
Mg125 Mg129 3.154414 1_555
Mg125 Mg146 3.165582 1_565
Mg125 Mg148 3.165614 1_555
Mg125 Mg21 3.321547 1_556
Mg125 Mg16 3.321555 1_556
Mg125 Mg126 3.337189 1_655
Mg126 Mg130 3.154407 1_555
Mg126 Mg131 3.154422 1_555
Mg126 Mg147 3.165588 1_565
Mg126 Mg148 3.165596 1_455
Mg126 Mg20 3.321547 1_556
Mg126 Mg15 3.321555 1_556
Mg127 Mg4 3.160055 1_556
Mg127 Mg134 3.166534 1_555
Mg127 Mg136 3.173789 1_555
Mg127 Mg142 3.188385 1_555
Mg127 Mg128 3.195231 1_555
Mg127 Mg9 3.220172 1_556
Mg127 Mg7 3.221782 1_556
Mg127 Mg147 3.224822 1_555
Mg128 Mg3 3.160070 1_556
Mg128 Mg133 3.166519 1_555
Mg128 Mg136 3.173772 1_555
Mg128 Mg141 3.188385 1_455
Mg128 Mg9 3.220156 1_556
Mg128 Mg8 3.221782 1_556
Mg128 Mg146 3.224836 1_455
Mg129 Mg16 3.160062 1_556
Mg129 Mg134 3.166510 1_555
Mg129 Mg137 3.173772 1_555
Mg129 Mg143 3.188394 1_555
Mg129 Mg132 3.195224 1_555
Mg129 Mg17 3.220156 1_556
Mg129 Mg148 3.224844 1_555
Mg130 Mg15 3.160055 1_556
Mg130 Mg133 3.166535 1_555
Mg130 Mg138 3.173780 1_555
Mg130 Mg144 3.188393 1_455
Mg130 Mg131 3.195215 1_555
Mg130 Mg18 3.220156 1_556
Mg130 Mg148 3.224820 1_455
Mg131 Mg20 3.160070 1_556
Mg131 Mg135 3.166526 1_555
Mg131 Mg138 3.173773 1_555
Mg131 Mg139 3.188393 1_565
Mg131 Mg18 3.220156 1_556
Mg131 Mg22 3.221782 1_556
Mg131 Mg147 3.224837 1_565
Mg132 Mg21 3.160062 1_556
Mg132 Mg135 3.166510 1_555
Mg132 Mg137 3.173772 1_555
Mg132 Mg140 3.188394 1_565
Mg132 Mg99 3.211182 1_565
Mg132 Mg17 3.220164 1_556
Mg132 Mg23 3.221782 1_556
Mg132 Mg146 3.224836 1_565
Mg133 Mg138 3.190658 1_555
Mg133 Mg136 3.190658 1_555
Mg133 Mg8 3.193092 1_556
Mg133 Mg141 3.204435 1_455
Mg133 Mg144 3.204435 1_455
Mg134 Mg137 3.190667 1_555
Mg134 Mg136 3.190674 1_555
Mg134 Mg7 3.193100 1_556
Mg134 Mg143 3.204411 1_555
Mg134 Mg142 3.204420 1_555
Mg134 Mg14 3.216071 1_556
Mg135 Mg137 3.190667 1_555
Mg135 Mg138 3.190674 1_555
Mg135 Mg23 3.193084 1_556
Mg135 Mg22 3.193092 1_556
Mg135 Mg140 3.204411 1_565
Mg135 Mg139 3.204420 1_565
Mg135 Mg19 3.216071 1_556
Mg136 Mg137 3.180749 1_555
Mg136 Mg138 3.180750 1_555
Mg136 Mg9 3.182776 1_556
Mg136 Mg14 3.199698 1_556
Mg137 Mg138 3.180749 1_555
Mg137 Mg17 3.182776 1_556
Mg137 Mg14 3.199706 1_556
Mg137 Mg19 3.199706 1_556
Mg138 Mg18 3.182784 1_556
Mg138 Mg19 3.199698 1_556
Mg139 Mg142 3.186316 1_555
Mg139 Mg22 3.200447 1_546
Mg139 Mg145 3.202557 1_555
Mg139 Mg147 3.217615 1_555
Mg139 Mg140 3.218760 1_555
Mg140 Mg2 3.185771 1_556
Mg140 Mg141 3.186307 1_555
Mg140 Mg23 3.200447 1_546
Mg140 Mg145 3.202550 1_555
Mg140 Mg146 3.217615 1_555
Mg141 Mg2 3.185756 1_556
Mg141 Mg8 3.200447 1_656
Mg141 Mg145 3.202557 1_555
Mg141 Mg5 3.208214 1_556
Mg141 Mg146 3.217600 1_555
Mg141 Mg144 3.218793 1_555
Mg142 Mg7 3.200439 1_556
Mg142 Mg145 3.202565 1_555
Mg142 Mg6 3.208206 1_556
Mg142 Mg147 3.217615 1_555
Mg142 Mg143 3.218760 1_555
Mg143 Mg144 3.186307 1_555
Mg143 Mg145 3.202566 1_555
Mg143 Mg6 3.208206 1_556
Mg143 Mg148 3.217607 1_555
Mg144 Mg145 3.202565 1_555
Mg144 Mg5 3.208214 1_556
Mg144 Mg148 3.217584 1_555
Mg145 Mg5 3.185174 1_556
Mg145 Mg6 3.185182 1_556
Mg146 Mg3 3.192441 1_656
Mg146 Mg21 3.192442 1_546
Mg146 Mg2 3.218248 1_556
Mg146 Mg99 3.221268 1_555
Mg147 Mg20 3.192442 1_546
Mg147 Mg4 3.192450 1_556
Mg148 Mg15 3.192441 1_656
Mg148 Mg16 3.192450 1_556
