# generated using pymatgen
data_CeZnPd
_symmetry_space_group_name_H-M   'P 1'
_cell_length_a   4.41961385
_cell_length_b   7.04472163
_cell_length_c   8.02584176
_cell_angle_alpha   90.00000000
_cell_angle_beta   90.00000000
_cell_angle_gamma   90.00000000
_symmetry_Int_Tables_number   1
_chemical_formula_structural   CeZnPd
_chemical_formula_sum   'Ce4 Zn4 Pd4'
_cell_volume   249.88417617
_cell_formula_units_Z   4
loop_
 _symmetry_equiv_pos_site_id
 _symmetry_equiv_pos_as_xyz
  1  'x, y, z'
loop_
 _atom_site_type_symbol
 _atom_site_label
 _atom_site_symmetry_multiplicity
 _atom_site_fract_x
 _atom_site_fract_y
 _atom_site_fract_z
 _atom_site_occupancy
  Ce  Ce0  1  0.25000000  0.53344664  0.80480197  1
  Ce  Ce1  1  0.75000000  0.46655336  0.19519803  1
  Ce  Ce2  1  0.25000000  0.03344664  0.69519803  1
  Ce  Ce3  1  0.75000000  0.96655336  0.30480197  1
  Zn  Zn0  1  0.25000000  0.15201147  0.06904147  1
  Zn  Zn1  1  0.75000000  0.84798853  0.93095853  1
  Zn  Zn2  1  0.25000000  0.65201147  0.43095853  1
  Zn  Zn3  1  0.75000000  0.34798853  0.56904147  1
  Pd  Pd0  1  0.75000000  0.73212269  0.60712568  1
  Pd  Pd1  1  0.25000000  0.26787731  0.39287432  1
  Pd  Pd2  1  0.75000000  0.23212269  0.89287432  1
  Pd  Pd3  1  0.25000000  0.76787731  0.10712568  1
loop_
_geom_bond_atom_site_label_1
_geom_bond_atom_site_label_2
_geom_bond_distance
_geom_bond_site_symmetry_2
Ce0 Pd3 2.935111 1_556
Ce0 Pd0 3.059284 1_555
Ce0 Pd0 3.059284 1_455
Ce0 Zn2 3.114499 1_555
Ce0 Pd2 3.144667 1_555
Ce0 Pd2 3.144667 1_455
Ce0 Zn3 3.189126 1_455
Ce0 Zn3 3.189126 1_555
Ce0 Zn1 3.289143 1_555
Ce0 Zn1 3.289143 1_455
Ce0 Zn0 3.423169 1_556
Ce1 Pd2 2.935111 1_554
Ce1 Pd1 3.059284 1_555
Ce1 Pd1 3.059284 1_655
Ce1 Zn3 3.114499 1_555
Ce1 Pd3 3.144667 1_655
Ce1 Pd3 3.144667 1_555
Ce1 Zn2 3.189126 1_555
Ce1 Zn2 3.189126 1_655
Ce1 Zn0 3.289143 1_555
Ce1 Zn0 3.289143 1_655
Ce1 Zn1 3.423169 1_554
Ce2 Pd1 2.935111 1_555
Ce2 Pd2 3.059284 1_555
Ce2 Pd2 3.059284 1_455
Ce2 Zn0 3.114499 1_556
Ce2 Pd0 3.144667 1_445
Ce2 Pd0 3.144667 1_545
Ce2 Zn1 3.189126 1_445
Ce2 Zn1 3.189126 1_545
Ce2 Zn3 3.289143 1_555
Ce2 Zn3 3.289143 1_455
Ce2 Zn2 3.423169 1_545
Ce3 Pd0 2.935111 1_555
Ce3 Pd3 3.059284 1_555
Ce3 Pd3 3.059284 1_655
Ce3 Zn1 3.114499 1_554
Ce3 Pd1 3.144667 1_565
Ce3 Pd1 3.144667 1_665
Ce3 Zn0 3.189126 1_565
Ce3 Zn0 3.189126 1_665
Ce3 Zn2 3.289143 1_655
Ce3 Zn2 3.289143 1_555
Ce3 Zn3 3.423169 1_565
Pd0 Zn2 2.683437 1_555
Pd0 Zn2 2.683437 1_655
Pd0 Zn3 2.723326 1_555
Pd0 Zn1 2.724191 1_555
Pd1 Zn3 2.683437 1_555
Pd1 Zn3 2.683437 1_455
Pd1 Zn2 2.723326 1_555
Pd1 Zn0 2.724191 1_555
Pd2 Zn0 2.683437 1_656
Pd2 Zn0 2.683437 1_556
Pd2 Zn1 2.723326 1_545
Pd2 Zn3 2.724191 1_555
Pd3 Zn1 2.683437 1_454
Pd3 Zn1 2.683437 1_554
Pd3 Zn0 2.723326 1_565
Pd3 Zn2 2.724191 1_555
