# generated using pymatgen
data_NdMn2
_symmetry_space_group_name_H-M   'P 1'
_cell_length_a   5.25096293
_cell_length_b   5.25096293
_cell_length_c   8.84738200
_cell_angle_alpha   90.00000000
_cell_angle_beta   90.00000000
_cell_angle_gamma   116.69185823
_symmetry_Int_Tables_number   1
_chemical_formula_structural   NdMn2
_chemical_formula_sum   'Nd4 Mn8'
_cell_volume   217.94943934
_cell_formula_units_Z   4
loop_
 _symmetry_equiv_pos_site_id
 _symmetry_equiv_pos_as_xyz
  1  'x, y, z'
loop_
 _atom_site_type_symbol
 _atom_site_label
 _atom_site_symmetry_multiplicity
 _atom_site_fract_x
 _atom_site_fract_y
 _atom_site_fract_z
 _atom_site_occupancy
  Nd  Nd0  1  0.66389200  0.33610800  0.93860100  1
  Nd  Nd1  1  0.33610800  0.66389200  0.06139900  1
  Nd  Nd2  1  0.66389200  0.33610800  0.56139900  1
  Nd  Nd3  1  0.33610800  0.66389200  0.43860100  1
  Mn  Mn0  1  0.00000000  0.00000000  0.50000000  1
  Mn  Mn1  1  0.00000000  0.00000000  0.00000000  1
  Mn  Mn2  1  0.14582100  0.85417900  0.75000000  1
  Mn  Mn3  1  0.85417900  0.14582100  0.25000000  1
  Mn  Mn4  1  0.66144200  0.85713100  0.75000000  1
  Mn  Mn5  1  0.85713100  0.66144200  0.25000000  1
  Mn  Mn6  1  0.33855800  0.14286900  0.25000000  1
  Mn  Mn7  1  0.14286900  0.33855800  0.75000000  1
loop_
_geom_bond_atom_site_label_1
_geom_bond_atom_site_label_2
_geom_bond_distance
_geom_bond_site_symmetry_2
Nd0 Nd1 3.125175 1_556
Nd0 Nd2 3.337250 1_555
Nd0 Nd1 3.338284 1_546
Nd0 Nd1 3.338284 1_656
Nd1 Nd3 3.337250 1_555
Nd2 Nd3 3.125175 1_555
Nd2 Nd3 3.338284 1_545
Nd2 Nd3 3.338284 1_655
Mn0 Mn3 2.567406 1_455
Mn0 Mn2 2.567406 1_545
Mn0 Mn5 2.723477 1_445
Mn0 Mn7 2.723477 1_555
Mn0 Mn6 2.723477 1_555
Mn0 Mn4 2.723477 1_445
Mn0 Nd2 3.053373 1_455
Mn0 Nd3 3.053373 1_545
Mn0 Nd3 3.167852 1_445
Mn0 Nd3 3.167852 1_555
Mn0 Nd2 3.167852 1_445
Mn0 Nd2 3.167852 1_555
Mn1 Mn3 2.567406 1_455
Mn1 Mn2 2.567406 1_544
Mn1 Mn5 2.723477 1_445
Mn1 Mn4 2.723477 1_444
Mn1 Mn6 2.723477 1_555
Mn1 Mn7 2.723477 1_554
Mn1 Nd1 3.053373 1_545
Mn1 Nd0 3.053373 1_454
Mn1 Nd1 3.167852 1_555
Mn1 Nd0 3.167852 1_444
Mn1 Nd1 3.167852 1_445
Mn1 Nd0 3.167852 1_554
Mn2 Mn7 2.550457 1_565
Mn2 Mn4 2.550457 1_455
Mn2 Mn7 2.700579 1_555
Mn2 Mn4 2.700579 1_555
Mn2 Nd2 3.225525 1_455
Mn2 Nd0 3.225525 1_565
Mn2 Nd0 3.225525 1_455
Mn2 Nd2 3.225525 1_565
Mn2 Nd3 3.237913 1_555
Mn2 Nd1 3.237913 1_556
Mn3 Mn6 2.550457 1_655
Mn3 Mn5 2.550457 1_545
Mn3 Mn5 2.700579 1_555
Mn3 Mn6 2.700579 1_555
Mn3 Nd1 3.225525 1_545
Mn3 Nd3 3.225525 1_545
Mn3 Nd1 3.225525 1_655
Mn3 Nd3 3.225525 1_655
Mn3 Nd0 3.237913 1_554
Mn3 Nd2 3.237913 1_555
Mn4 Mn7 2.653289 1_665
Mn4 Mn7 2.858011 1_555
Mn4 Nd2 3.013484 1_565
Mn4 Nd0 3.013484 1_565
Mn4 Nd1 3.159282 1_556
Mn4 Nd3 3.159282 1_555
Mn4 Nd0 3.209532 1_555
Mn4 Nd2 3.209532 1_555
Mn5 Mn6 2.653289 1_665
Mn5 Mn6 2.858011 1_555
Mn5 Nd3 3.013484 1_655
Mn5 Nd1 3.013484 1_655
Mn5 Nd0 3.159282 1_554
Mn5 Nd2 3.159282 1_555
Mn5 Nd3 3.209532 1_555
Mn5 Nd1 3.209532 1_555
Mn6 Nd3 3.013484 1_545
Mn6 Nd1 3.013484 1_545
Mn6 Nd0 3.159282 1_554
Mn6 Nd2 3.159282 1_555
Mn6 Nd3 3.209532 1_555
Mn6 Nd1 3.209532 1_555
Mn7 Nd2 3.013484 1_455
Mn7 Nd0 3.013484 1_455
Mn7 Nd3 3.159282 1_555
Mn7 Nd1 3.159282 1_556
Mn7 Nd0 3.209532 1_555
Mn7 Nd2 3.209532 1_555
