# generated using pymatgen
data_BaSrCeSbO6
_symmetry_space_group_name_H-M   'P 1'
_cell_length_a   6.06614709
_cell_length_b   6.15107729
_cell_length_c   8.63198745
_cell_angle_alpha   89.97090730
_cell_angle_beta   89.93292028
_cell_angle_gamma   90.13331498
_symmetry_Int_Tables_number   1
_chemical_formula_structural   BaSrCeSbO6
_chemical_formula_sum   'Ba2 Sr2 Ce2 Sb2 O12'
_cell_volume   322.08714485
_cell_formula_units_Z   2
loop_
 _symmetry_equiv_pos_site_id
 _symmetry_equiv_pos_as_xyz
  1  'x, y, z'
loop_
 _atom_site_type_symbol
 _atom_site_label
 _atom_site_symmetry_multiplicity
 _atom_site_fract_x
 _atom_site_fract_y
 _atom_site_fract_z
 _atom_site_occupancy
  Ba  Ba0  1  0.50606607  0.52593251  0.25223878  1
  Ba  Ba1  1  0.49393393  0.47406749  0.74776122  1
  Sr  Sr0  1  0.99088536  0.03536382  0.25435696  1
  Sr  Sr1  1  0.00911464  0.96463618  0.74564304  1
  Ce  Ce0  1  0.00000000  0.50000000  0.00000000  1
  Ce  Ce1  1  0.50000000  -0.00000000  0.50000000  1
  Sb  Sb0  1  0.50000000  -0.00000000  0.00000000  1
  Sb  Sb1  1  0.00000000  0.50000000  0.50000000  1
  O  O0  1  0.23486847  0.19933265  0.95706559  1
  O  O1  1  0.28576807  0.71967701  0.53413980  1
  O  O2  1  0.76513153  0.80066735  0.04293441  1
  O  O3  1  0.71423193  0.28032299  0.46586020  1
  O  O4  1  0.29562448  0.73808462  0.96582446  1
  O  O5  1  0.20952756  0.20566989  0.54353772  1
  O  O6  1  0.70437552  0.26191538  0.03417554  1
  O  O7  1  0.79047244  0.79433011  0.45646228  1
  O  O8  1  0.41926919  0.99457866  0.22813264  1
  O  O9  1  0.06146777  0.46490758  0.24317976  1
  O  O10  1  0.58073081  0.00542134  0.77186736  1
  O  O11  1  0.93853223  0.53509242  0.75682024  1
loop_
_geom_bond_atom_site_label_1
_geom_bond_atom_site_label_2
_geom_bond_distance
_geom_bond_site_symmetry_2
Ba0 O3 2.699765 1_555
Ba0 O9 2.723349 1_555
Ba0 O6 2.763061 1_555
Ba0 O2 2.927050 1_555
Ba0 O8 2.938890 1_555
Ba0 O7 2.967584 1_555
Ba0 O1 3.021607 1_555
Ba0 O4 3.075194 1_554
Ba0 O8 3.316006 1_545
Ba0 O9 3.391677 1_655
Ba1 O1 2.699765 1_555
Ba1 O11 2.723349 1_555
Ba1 O4 2.763061 1_555
Ba1 O0 2.927050 1_555
Ba1 O10 2.938890 1_555
Ba1 O5 2.967584 1_555
Ba1 O3 3.021607 1_555
Ba1 O6 3.075194 1_556
Ba1 O10 3.316006 1_565
Ba1 O11 3.391677 1_455
Ce0 O9 2.143292 1_555
Ce0 O11 2.143292 1_454
Ce0 O4 2.331041 1_554
Ce0 O6 2.331041 1_455
Ce0 O0 2.366297 1_554
Ce0 O2 2.366297 1_455
Ce1 O1 2.176474 1_545
Ce1 O3 2.176474 1_555
Ce1 O5 2.203592 1_555
Ce1 O7 2.203592 1_545
Ce1 O10 2.398103 1_555
Ce1 O8 2.398103 1_545
O0 Sb0 2.058525 1_556
O0 Sr1 2.699895 1_545
O0 Sr0 3.126459 1_456
O1 Sb1 2.215510 1_555
O1 Sr1 2.902981 1_555
O2 Sb0 2.058525 1_565
O2 Sr0 2.699895 1_565
O2 Sr1 3.126459 1_654
O3 Sb1 2.215510 1_655
O3 Sr0 2.902981 1_555
O4 Sb0 2.052224 1_566
O4 Sr1 2.931081 1_555
O5 Sb1 2.246241 1_555
O5 Sr1 2.589152 1_545
O5 Sr0 3.015209 1_455
O6 Sb0 2.052224 1_555
O6 Sr0 2.931081 1_555
O7 Sb1 2.246241 1_655
O7 Sr0 2.589152 1_565
O7 Sr1 3.015209 1_655
O8 Sb0 2.028901 1_565
O8 Sr0 2.620843 1_465
O9 Sb1 2.258110 1_555
O9 Sr0 2.677313 1_455
O10 Sb0 2.028901 1_556
O10 Sr1 2.620843 1_645
O11 Sb1 2.258110 1_655
O11 Sr1 2.677313 1_655
