# generated using pymatgen
data_Mg3Si2
_symmetry_space_group_name_H-M   'P 1'
_cell_length_a   5.21005502
_cell_length_b   5.21005502
_cell_length_c   4.39126563
_cell_angle_alpha   67.52215751
_cell_angle_beta   67.52215751
_cell_angle_gamma   96.62043459
_symmetry_Int_Tables_number   1
_chemical_formula_structural   Mg3Si2
_chemical_formula_sum   'Mg3 Si2'
_cell_volume   96.88624449
_cell_formula_units_Z   1
loop_
 _symmetry_equiv_pos_site_id
 _symmetry_equiv_pos_as_xyz
  1  'x, y, z'
loop_
 _atom_site_type_symbol
 _atom_site_label
 _atom_site_symmetry_multiplicity
 _atom_site_fract_x
 _atom_site_fract_y
 _atom_site_fract_z
 _atom_site_occupancy
  Mg  Mg0  1  0.70438200  0.29561800  0.50000000  1
  Mg  Mg1  1  0.29561800  0.70438200  0.50000000  1
  Mg  Mg2  1  0.00000000  0.00000000  0.00000000  1
  Si  Si0  1  0.70830800  0.70830800  0.77334300  1
  Si  Si1  1  0.29169200  0.29169200  0.22665700  1
loop_
_geom_bond_atom_site_label_1
_geom_bond_atom_site_label_2
_geom_bond_distance
_geom_bond_site_symmetry_2
Mg0 Si1 2.833551 1_655
Mg0 Si0 2.833551 1_545
Mg0 Si0 2.836613 1_555
Mg0 Si1 2.836613 1_555
Mg0 Si1 3.082098 1_556
Mg0 Si0 3.082098 1_554
Mg1 Si1 2.833551 1_565
Mg1 Si0 2.833551 1_455
Mg1 Si0 2.836613 1_555
Mg1 Si1 2.836613 1_555
Mg1 Si1 3.082098 1_556
Mg1 Si0 3.082098 1_554
Mg2 Si1 2.718546 1_555
Mg2 Si0 2.718546 1_444
Mg2 Si0 2.779654 1_445
Mg2 Si1 2.779654 1_554
Si0 Si1 2.385638 1_556
