# generated using pymatgen
data_YMg14Fe
_symmetry_space_group_name_H-M   'P 1'
_cell_length_a   6.39617054
_cell_length_b   6.39617002
_cell_length_c   10.21044691
_cell_angle_alpha   90.00000000
_cell_angle_beta   90.00000000
_cell_angle_gamma   120.00000271
_symmetry_Int_Tables_number   1
_chemical_formula_structural   YMg14Fe
_chemical_formula_sum   'Y1 Mg14 Fe1'
_cell_volume   361.75571875
_cell_formula_units_Z   1
loop_
 _symmetry_equiv_pos_site_id
 _symmetry_equiv_pos_as_xyz
  1  'x, y, z'
loop_
 _atom_site_type_symbol
 _atom_site_label
 _atom_site_symmetry_multiplicity
 _atom_site_fract_x
 _atom_site_fract_y
 _atom_site_fract_z
 _atom_site_occupancy
  Y  Y0  1  0.16666700  0.33333300  0.12500000  1
  Mg  Mg0  1  0.17816014  0.83907957  0.12500000  1
  Mg  Mg1  1  0.16216988  0.83108444  0.62500000  1
  Mg  Mg2  1  0.66092043  0.32183986  0.12500000  1
  Mg  Mg3  1  0.66891556  0.33783012  0.62500000  1
  Mg  Mg4  1  0.66092043  0.83907957  0.12500000  1
  Mg  Mg5  1  0.66891556  0.83108444  0.62500000  1
  Mg  Mg6  1  0.32902291  0.17097709  0.38932884  1
  Mg  Mg7  1  0.32902291  0.17097709  0.86067116  1
  Mg  Mg8  1  0.32902291  0.65804682  0.38932884  1
  Mg  Mg9  1  0.32902291  0.65804682  0.86067116  1
  Mg  Mg10  1  0.84195318  0.17097709  0.38932884  1
  Mg  Mg11  1  0.84195318  0.17097709  0.86067116  1
  Mg  Mg12  1  0.83333300  0.66666700  0.36759937  1
  Mg  Mg13  1  0.83333300  0.66666700  0.88240063  1
  Fe  Fe0  1  0.16666700  0.33333300  0.62500000  1
loop_
_geom_bond_atom_site_label_1
_geom_bond_atom_site_label_2
_geom_bond_distance
_geom_bond_site_symmetry_2
Mg0 Mg2 3.087817 1_565
Mg0 Mg4 3.087817 1_555
Mg0 Mg12 3.127968 1_455
Mg0 Mg13 3.127968 1_454
Mg0 Y0 3.198719 1_555
Mg0 Y0 3.198719 1_565
Mg0 Mg9 3.267010 1_554
Mg0 Mg8 3.267010 1_555
Mg0 Mg6 3.267017 1_565
Mg0 Mg7 3.267017 1_564
Mg0 Mg2 3.308353 1_455
Mg0 Mg4 3.308353 1_455
Mg1 Mg9 3.055390 1_555
Mg1 Mg8 3.055390 1_555
Mg1 Mg7 3.055397 1_565
Mg1 Mg6 3.055397 1_565
Mg1 Mg3 3.154938 1_455
Mg1 Mg5 3.154939 1_455
Mg1 Mg12 3.197687 1_455
Mg1 Mg13 3.197687 1_455
Mg1 Mg3 3.241232 1_565
Mg1 Mg5 3.241232 1_555
Mg2 Mg4 3.087817 1_545
Mg2 Y0 3.198719 1_655
Mg2 Y0 3.198719 1_555
Mg2 Mg7 3.267017 1_554
Mg2 Mg6 3.267017 1_555
Mg2 Mg4 3.308353 1_555
Mg3 Mg6 3.055397 1_555
Mg3 Mg7 3.055397 1_555
Mg3 Mg5 3.154938 1_555
Mg3 Mg5 3.241232 1_545
Mg4 Y0 3.198719 1_555
Mg4 Y0 3.198719 1_665
Mg4 Mg9 3.267016 1_554
Mg4 Mg8 3.267016 1_555
Mg5 Mg8 3.055397 1_555
Mg5 Mg9 3.055397 1_555
Mg6 Mg8 3.115381 1_555
Mg6 Y0 3.243350 1_555
Mg6 Mg8 3.280789 1_545
Mg7 Mg9 3.115381 1_555
Mg7 Y0 3.243350 1_556
Mg7 Mg9 3.280789 1_545
Mg8 Y0 3.243356 1_555
Mg9 Y0 3.243356 1_556
Mg10 Mg3 3.055390 1_555
Mg10 Mg5 3.055397 1_545
Mg10 Mg8 3.115381 1_655
Mg10 Mg6 3.115381 1_655
Mg10 Mg12 3.206127 1_545
Mg10 Mg12 3.206127 1_555
Mg10 Y0 3.243356 1_655
Mg10 Mg2 3.267010 1_555
Mg10 Mg4 3.267016 1_545
Mg10 Mg8 3.280789 1_545
Mg10 Mg6 3.280789 1_555
Mg11 Mg3 3.055390 1_555
Mg11 Mg5 3.055397 1_545
Mg11 Mg9 3.115381 1_655
Mg11 Mg7 3.115381 1_655
Mg11 Mg13 3.206127 1_545
Mg11 Mg13 3.206127 1_555
Mg11 Y0 3.243356 1_656
Mg11 Mg2 3.267010 1_556
Mg11 Mg4 3.267016 1_546
Mg11 Mg9 3.280789 1_545
Mg11 Mg7 3.280789 1_555
Mg12 Mg4 3.127961 1_555
Mg12 Mg2 3.127968 1_555
Mg12 Mg5 3.197680 1_555
Mg12 Mg3 3.197686 1_555
Mg12 Mg6 3.206127 1_665
Mg12 Mg6 3.206127 1_555
Mg12 Mg8 3.206128 1_655
Mg12 Mg8 3.206128 1_555
Mg13 Mg4 3.127961 1_556
Mg13 Mg2 3.127968 1_556
Mg13 Mg5 3.197680 1_555
Mg13 Mg3 3.197686 1_555
Mg13 Mg7 3.206127 1_665
Mg13 Mg7 3.206127 1_555
Mg13 Mg9 3.206128 1_655
Mg13 Mg9 3.206128 1_555
Fe0 Mg6 3.004245 1_555
Fe0 Mg7 3.004245 1_555
Fe0 Mg8 3.004252 1_555
Fe0 Mg9 3.004252 1_555
Fe0 Mg11 3.004252 1_455
Fe0 Mg10 3.004252 1_455
Fe0 Mg5 3.198182 1_445
Fe0 Mg1 3.198182 1_545
Fe0 Mg1 3.198182 1_555
Fe0 Mg5 3.198182 1_555
Fe0 Mg3 3.198182 1_455
Fe0 Mg3 3.198182 1_555
