# generated using pymatgen
data_Li3RuN2
_symmetry_space_group_name_H-M   'P 1'
_cell_length_a   8.78638362
_cell_length_b   6.21717398
_cell_length_c   15.21498370
_cell_angle_alpha   90.00000105
_cell_angle_beta   149.97730453
_cell_angle_gamma   110.71966798
_symmetry_Int_Tables_number   1
_chemical_formula_structural   Li3RuN2
_chemical_formula_sum   'Li12 Ru4 N8'
_cell_volume   294.05426445
_cell_formula_units_Z   4
loop_
 _symmetry_equiv_pos_site_id
 _symmetry_equiv_pos_as_xyz
  1  'x, y, z'
loop_
 _atom_site_type_symbol
 _atom_site_label
 _atom_site_symmetry_multiplicity
 _atom_site_fract_x
 _atom_site_fract_y
 _atom_site_fract_z
 _atom_site_occupancy
  Li  Li0  1  0.00000000  0.50000000  0.35674500  1
  Li  Li1  1  0.00000000  0.00000000  0.89325500  1
  Li  Li2  1  0.00000000  0.50000000  0.14325500  1
  Li  Li3  1  0.00000000  0.00000000  0.10674500  1
  Li  Li4  1  0.59385700  0.50000000  0.54692800  1
  Li  Li5  1  0.40614300  0.50000000  0.95307200  1
  Li  Li6  1  0.59385700  0.00000000  0.29692800  1
  Li  Li7  1  0.40614300  0.00000000  0.70307200  1
  Li  Li8  1  0.40614300  0.90614300  0.95307200  1
  Li  Li9  1  0.59385700  0.09385700  0.54692800  1
  Li  Li10  1  0.40614300  0.40614300  0.70307200  1
  Li  Li11  1  0.59385700  0.59385700  0.29692800  1
  Ru  Ru0  1  0.00000000  0.50000000  0.89043400  1
  Ru  Ru1  1  0.00000000  0.00000000  0.35956600  1
  Ru  Ru2  1  0.00000000  0.50000000  0.60956600  1
  Ru  Ru3  1  0.00000000  0.00000000  0.64043400  1
  N  N0  1  0.21251200  0.60625600  0.59056200  1
  N  N1  1  0.78748800  0.39374400  0.37805000  1
  N  N2  1  0.21251200  0.10625600  0.87195000  1
  N  N3  1  0.78748800  0.89374400  0.65943800  1
  N  N4  1  0.00000000  0.39374400  0.01569400  1
  N  N5  1  0.00000000  0.60625600  0.01569400  1
  N  N6  1  0.00000000  0.89374400  0.23430600  1
  N  N7  1  0.00000000  0.10625600  0.23430600  1
loop_
_geom_bond_atom_site_label_1
_geom_bond_atom_site_label_2
_geom_bond_distance
_geom_bond_site_symmetry_2
Li0 N1 2.050186 1_455
Li0 N0 2.050186 1_555
Li1 N2 2.050186 1_555
Li1 N3 2.050186 1_445
Li2 N4 2.050186 1_555
Li2 N5 2.050186 1_555
Li3 N7 2.050186 1_555
Li3 N6 2.050186 1_545
Li4 N7 1.956334 1_555
Li4 N3 1.956336 1_555
Li5 N2 1.956334 1_555
Li5 N6 1.956336 1_656
Li6 N1 1.956334 1_555
Li6 N5 1.956336 1_545
Li7 N4 1.956334 1_656
Li7 N0 1.956336 1_545
Li8 N2 1.956334 1_565
Li8 N7 1.956336 1_666
Li9 N6 1.956334 1_545
Li9 N3 1.956336 1_545
Li10 N5 1.956334 1_656
Li10 N0 1.956336 1_555
Li11 N1 1.956334 1_555
Li11 N4 1.956336 1_555
N0 N1 1.321224 1_455
N0 Ru2 2.017075 1_555
N1 Ru2 2.017075 1_655
N2 N3 1.321224 1_445
N2 Ru3 2.017075 1_555
N3 Ru3 2.017075 1_665
N4 N5 1.321224 1_555
N4 Ru0 2.017075 1_554
N5 Ru0 2.017075 1_554
N6 N7 1.321224 1_565
N6 Ru1 2.017075 1_565
N7 Ru1 2.017075 1_555
