# generated using pymatgen
data_Cr2Bi3O11
_symmetry_space_group_name_H-M   'P 1'
_cell_length_a   5.64704194
_cell_length_b   12.37969200
_cell_length_c   14.18874969
_cell_angle_alpha   90.00000000
_cell_angle_beta   92.61953404
_cell_angle_gamma   90.00000000
_symmetry_Int_Tables_number   1
_chemical_formula_structural   Cr2Bi3O11
_chemical_formula_sum   'Cr8 Bi12 O44'
_cell_volume   990.87968553
_cell_formula_units_Z   4
loop_
 _symmetry_equiv_pos_site_id
 _symmetry_equiv_pos_as_xyz
  1  'x, y, z'
loop_
 _atom_site_type_symbol
 _atom_site_label
 _atom_site_symmetry_multiplicity
 _atom_site_fract_x
 _atom_site_fract_y
 _atom_site_fract_z
 _atom_site_occupancy
  Cr  Cr0  1  0.83712200  0.12281500  0.39233800  1
  Cr  Cr1  1  0.66287800  0.62281500  0.60766200  1
  Cr  Cr2  1  0.16287800  0.87718500  0.60766200  1
  Cr  Cr3  1  0.33712200  0.37718500  0.39233800  1
  Cr  Cr4  1  0.66385000  0.40820100  0.82765600  1
  Cr  Cr5  1  0.83615000  0.90820100  0.17234400  1
  Cr  Cr6  1  0.33615000  0.59179900  0.17234400  1
  Cr  Cr7  1  0.16385000  0.09179900  0.82765600  1
  Bi  Bi0  1  0.66865700  0.12378800  0.00189500  1
  Bi  Bi1  1  0.83134300  0.62378800  0.99810500  1
  Bi  Bi2  1  0.33134300  0.87621200  0.99810500  1
  Bi  Bi3  1  0.16865700  0.37621200  0.00189500  1
  Bi  Bi4  1  0.75651800  0.85687700  0.81634700  1
  Bi  Bi5  1  0.74348200  0.35687700  0.18365300  1
  Bi  Bi6  1  0.24348200  0.14312300  0.18365300  1
  Bi  Bi7  1  0.25651800  0.64312300  0.81634700  1
  Bi  Bi8  1  0.83125100  0.35195400  0.57533500  1
  Bi  Bi9  1  0.66874900  0.85195400  0.42466500  1
  Bi  Bi10  1  0.16874900  0.64804600  0.42466500  1
  Bi  Bi11  1  0.33125100  0.14804600  0.57533500  1
  O  O0  1  0.40667200  0.35988200  0.79722200  1
  O  O1  1  0.09332800  0.85988200  0.20277800  1
  O  O2  1  0.59332800  0.64011800  0.20277800  1
  O  O3  1  0.90667200  0.14011800  0.79722200  1
  O  O4  1  0.61765400  0.95819000  0.92892600  1
  O  O5  1  0.88234600  0.45819000  0.07107400  1
  O  O6  1  0.38234600  0.04181000  0.07107400  1
  O  O7  1  0.11765400  0.54181000  0.92892600  1
  O  O8  1  0.31576500  0.31291900  0.28872000  1
  O  O9  1  0.18423500  0.81291900  0.71128000  1
  O  O10  1  0.68423500  0.68708100  0.71128000  1
  O  O11  1  0.81576500  0.18708100  0.28872000  1
  O  O12  1  0.51317300  0.24375700  0.10798100  1
  O  O13  1  0.98682700  0.74375700  0.89201900  1
  O  O14  1  0.48682700  0.75624300  0.89201900  1
  O  O15  1  0.01317300  0.25624300  0.10798100  1
  O  O16  1  0.07607800  0.42612600  0.42398000  1
  O  O17  1  0.42392200  0.92612600  0.57602000  1
  O  O18  1  0.92392200  0.57387400  0.57602000  1
  O  O19  1  0.57607800  0.07387400  0.42398000  1
  O  O20  1  0.16708600  0.58217200  0.26539800  1
  O  O21  1  0.33291400  0.08217200  0.73460200  1
  O  O22  1  0.83291400  0.41782800  0.73460200  1
  O  O23  1  0.66708600  0.91782800  0.26539800  1
  O  O24  1  0.47657000  0.52208200  0.61261100  1
  O  O25  1  0.02343000  0.02208200  0.38738900  1
  O  O26  1  0.52343000  0.47791800  0.38738900  1
  O  O27  1  0.97657000  0.97791800  0.61261100  1
  O  O28  1  0.84552700  0.71617500  0.36289300  1
  O  O29  1  0.65447300  0.21617400  0.63710700  1
  O  O30  1  0.15447300  0.28382600  0.63710700  1
  O  O31  1  0.34552700  0.78382500  0.36289300  1
  O  O32  1  0.54378400  0.70802900  0.52350600  1
  O  O33  1  0.95621600  0.20802900  0.47649400  1
  O  O34  1  0.45621600  0.29197100  0.47649400  1
  O  O35  1  0.04378400  0.79197100  0.52350600  1
  O  O36  1  0.89367900  0.03507700  0.12524500  1
  O  O37  1  0.60632100  0.53507700  0.87475500  1
  O  O38  1  0.10632100  0.96492300  0.87475500  1
  O  O39  1  0.39367900  0.46492300  0.12524500  1
  O  O40  1  0.29483900  0.16923000  0.91244700  1
  O  O41  1  0.20516100  0.66923000  0.08755300  1
  O  O42  1  0.70516100  0.83077000  0.08755300  1
  O  O43  1  0.79483900  0.33077000  0.91244700  1
loop_
_geom_bond_atom_site_label_1
_geom_bond_atom_site_label_2
_geom_bond_distance
_geom_bond_site_symmetry_2
Cr0 O25 1.635143 1_655
Cr0 O11 1.671174 1_555
Cr0 O19 1.673975 1_555
Cr0 O33 1.708085 1_555
Cr1 O24 1.635143 1_555
Cr1 O10 1.671174 1_555
Cr1 O18 1.673975 1_555
Cr1 O32 1.708085 1_555
Cr2 O27 1.635143 1_455
Cr2 O9 1.671174 1_555
Cr2 O17 1.673975 1_555
Cr2 O35 1.708085 1_555
Cr3 O26 1.635143 1_555
Cr3 O8 1.671174 1_555
Cr3 O16 1.673975 1_555
Cr3 O34 1.708085 1_555
Cr4 O0 1.611247 1_555
Cr4 O22 1.668575 1_555
Cr4 O43 1.682875 1_555
Cr4 O37 1.743282 1_555
Cr5 O1 1.611247 1_655
Cr5 O23 1.668575 1_555
Cr5 O42 1.682875 1_555
Cr5 O36 1.743282 1_565
Cr6 O2 1.611247 1_555
Cr6 O20 1.668575 1_555
Cr6 O41 1.682875 1_555
Cr6 O39 1.743282 1_555
Cr7 O3 1.611247 1_455
Cr7 O21 1.668575 1_555
Cr7 O40 1.682875 1_555
Cr7 O38 1.743282 1_545
Bi0 O6 2.180035 1_555
Bi0 O4 2.308752 1_544
Bi0 O12 2.315859 1_555
Bi0 O36 2.383407 1_555
Bi0 O40 2.477602 1_554
Bi1 O7 2.180035 1_655
Bi1 O5 2.308752 1_556
Bi1 O13 2.315859 1_555
Bi1 O37 2.383407 1_555
Bi1 O41 2.477602 1_656
Bi2 O4 2.180035 1_555
Bi2 O6 2.308752 1_566
Bi2 O14 2.315859 1_555
Bi2 O38 2.383407 1_555
Bi2 O42 2.477602 1_556
Bi3 O5 2.180035 1_455
Bi3 O7 2.308752 1_554
Bi3 O15 2.315859 1_555
Bi3 O39 2.383407 1_555
Bi3 O43 2.477602 1_454
Bi4 O13 2.162807 1_555
Bi4 O4 2.203189 1_555
Bi4 O14 2.274585 1_555
Bi4 O38 2.495655 1_655
Bi4 O10 2.598439 1_555
Bi5 O12 2.162807 1_555
Bi5 O5 2.203189 1_555
Bi5 O15 2.274585 1_655
Bi5 O39 2.495655 1_555
Bi5 O11 2.598439 1_555
Bi6 O15 2.162807 1_555
Bi6 O6 2.203189 1_555
Bi6 O12 2.274585 1_555
Bi6 O36 2.495655 1_455
Bi6 O8 2.598439 1_555
Bi7 O14 2.162807 1_555
Bi7 O7 2.203189 1_555
Bi7 O13 2.274585 1_455
Bi7 O37 2.495655 1_555
Bi7 O9 2.598439 1_555
Bi8 O30 2.159821 1_655
Bi8 O29 2.161063 1_555
Bi8 O33 2.393718 1_555
Bi8 O22 2.402058 1_555
Bi8 O34 2.594604 1_555
Bi8 O16 2.763674 1_655
Bi8 O18 2.796633 1_555
Bi9 O31 2.159826 1_555
Bi9 O28 2.161054 1_555
Bi9 O32 2.393718 1_555
Bi9 O23 2.402058 1_555
Bi9 O35 2.594604 1_655
Bi9 O17 2.763674 1_555
Bi9 O19 2.796633 1_565
Bi10 O28 2.159826 1_455
Bi10 O31 2.161054 1_555
Bi10 O35 2.393718 1_555
Bi10 O20 2.402058 1_555
Bi10 O32 2.594604 1_555
Bi10 O18 2.763674 1_455
Bi10 O16 2.796633 1_555
Bi11 O29 2.159821 1_555
Bi11 O30 2.161063 1_555
Bi11 O34 2.393718 1_555
Bi11 O21 2.402058 1_555
Bi11 O33 2.594604 1_455
Bi11 O19 2.763674 1_555
Bi11 O17 2.796633 1_545
