# generated using pymatgen
data_AsSXeNF10
_symmetry_space_group_name_H-M   'P 1'
_cell_length_a   13.65545281
_cell_length_b   13.65545281
_cell_length_c   15.36750682
_cell_angle_alpha   60.86297032
_cell_angle_beta   60.86297032
_cell_angle_gamma   22.27226877
_symmetry_Int_Tables_number   1
_chemical_formula_structural   AsSXeNF10
_chemical_formula_sum   'As4 S4 Xe4 N4 F40'
_cell_volume   942.92198804
_cell_formula_units_Z   4
loop_
 _symmetry_equiv_pos_site_id
 _symmetry_equiv_pos_as_xyz
  1  'x, y, z'
loop_
 _atom_site_type_symbol
 _atom_site_label
 _atom_site_symmetry_multiplicity
 _atom_site_fract_x
 _atom_site_fract_y
 _atom_site_fract_z
 _atom_site_occupancy
  As  As0  1  0.18015600  0.01664100  0.02530900  1
  As  As1  1  0.98335900  0.81984400  0.47469100  1
  As  As2  1  0.81984400  0.98335900  0.97469100  1
  As  As3  1  0.01664100  0.18015600  0.52530900  1
  S  S0  1  0.38721800  0.22102700  0.32057500  1
  S  S1  1  0.77897300  0.61278200  0.17942500  1
  S  S2  1  0.61278200  0.77897300  0.67942500  1
  S  S3  1  0.22102700  0.38721800  0.82057500  1
  Xe  Xe0  1  0.46972600  0.41366400  0.18228300  1
  Xe  Xe1  1  0.58633600  0.53027400  0.31771700  1
  Xe  Xe2  1  0.53027400  0.58633600  0.81771700  1
  Xe  Xe3  1  0.41366400  0.46972600  0.68228300  1
  N  N0  1  0.58821500  0.13707100  0.28462400  1
  N  N1  1  0.86292900  0.41178500  0.21537600  1
  N  N2  1  0.41178500  0.86292900  0.71537600  1
  N  N3  1  0.13707100  0.58821500  0.78462400  1
  F  F0  1  0.19611700  0.34265000  0.41906000  1
  F  F1  1  0.65735000  0.80388300  0.08094000  1
  F  F2  1  0.80388300  0.65735000  0.58094000  1
  F  F3  1  0.34265000  0.19611700  0.91906000  1
  F  F4  1  0.14457000  0.50909000  0.26066200  1
  F  F5  1  0.49091000  0.85543000  0.23933800  1
  F  F6  1  0.85543000  0.49091000  0.73933800  1
  F  F7  1  0.50909000  0.14457000  0.76066200  1
  F  F8  1  0.61201000  0.93716500  0.38428500  1
  F  F9  1  0.06283500  0.38799000  0.11571500  1
  F  F10  1  0.38799000  0.06283500  0.61571500  1
  F  F11  1  0.93716500  0.61201000  0.88428500  1
  F  F12  1  0.36551500  0.15925700  0.27686600  1
  F  F13  1  0.84074300  0.63448500  0.22313400  1
  F  F14  1  0.63448500  0.84074300  0.72313400  1
  F  F15  1  0.15925700  0.36551500  0.77686600  1
  F  F16  1  0.98618000  0.31155800  0.99457300  1
  F  F17  1  0.68844200  0.01382000  0.50542700  1
  F  F18  1  0.01382000  0.68844200  0.00542700  1
  F  F19  1  0.31155800  0.98618000  0.49457300  1
  F  F20  1  0.38366600  0.70858800  0.05634100  1
  F  F21  1  0.29141200  0.61633400  0.44365900  1
  F  F22  1  0.61633400  0.29141200  0.94365900  1
  F  F23  1  0.70858800  0.38366600  0.55634100  1
  F  F24  1  0.39698700  0.89377400  0.91534700  1
  F  F25  1  0.10622600  0.60301300  0.58465300  1
  F  F26  1  0.60301300  0.10622600  0.08465300  1
  F  F27  1  0.89377400  0.39698700  0.41534700  1
  F  F28  1  0.97370400  0.12363300  0.13714300  1
  F  F29  1  0.87636700  0.02629600  0.36285700  1
  F  F30  1  0.02629600  0.87636700  0.86285700  1
  F  F31  1  0.12363300  0.97370400  0.63714300  1
  F  F32  1  0.37150600  0.88074500  0.09280200  1
  F  F33  1  0.11925500  0.62849400  0.40719800  1
  F  F34  1  0.62849400  0.11925500  0.90719800  1
  F  F35  1  0.88074500  0.37150600  0.59280200  1
  F  F36  1  0.99808500  0.13793900  0.95946900  1
  F  F37  1  0.86206100  0.00191500  0.54053100  1
  F  F38  1  0.00191500  0.86206100  0.04053100  1
  F  F39  1  0.13793900  0.99808500  0.45946900  1
loop_
_geom_bond_atom_site_label_1
_geom_bond_atom_site_label_2
_geom_bond_distance
_geom_bond_site_symmetry_2
As0 F16 1.755218 1_454
As0 F24 1.769682 1_544
As0 F32 1.771321 1_545
As0 F28 1.771958 1_455
As0 F36 1.773302 1_454
As0 F20 1.829425 1_545
As1 F17 1.755218 1_565
As1 F25 1.769682 1_655
As1 F33 1.771321 1_655
As1 F29 1.771958 1_565
As1 F37 1.773302 1_565
As1 F21 1.829425 1_655
As2 F18 1.755218 1_656
As2 F26 1.769682 1_566
As2 F34 1.771321 1_565
As2 F30 1.771958 1_655
As2 F38 1.773302 1_656
As2 F22 1.829425 1_565
As3 F19 1.755218 1_545
As3 F27 1.769682 1_455
As3 F35 1.771321 1_455
As3 F31 1.771958 1_545
As3 F39 1.773302 1_545
As3 F23 1.829425 1_455
N0 S0 1.571399 1_555
N0 Xe0 2.177161 1_555
N1 S1 1.571399 1_555
N1 Xe1 2.177161 1_555
N2 S2 1.571399 1_555
N2 Xe2 2.177161 1_555
N3 S3 1.571399 1_555
N3 Xe3 2.177161 1_555
F0 S0 1.561771 1_555
F1 S1 1.561771 1_555
F2 S2 1.561771 1_555
F3 S3 1.561771 1_555
F4 S0 1.618989 1_555
F5 S1 1.618989 1_555
F6 S2 1.618989 1_555
F7 S3 1.618989 1_555
F8 S0 1.617286 1_565
F9 S1 1.617286 1_455
F10 S2 1.617286 1_545
F11 S3 1.617286 1_655
F12 S0 1.568039 1_555
F13 S1 1.568039 1_555
F14 S2 1.568039 1_555
F15 S3 1.568039 1_555
F20 Xe0 2.685379 1_555
F21 Xe1 2.685379 1_555
F22 Xe2 2.685379 1_555
F23 Xe3 2.685379 1_555
