# generated using pymatgen
data_Sm4Fe31Co3
_symmetry_space_group_name_H-M   'P 1'
_cell_length_a   6.44697155
_cell_length_b   6.42397329
_cell_length_c   12.86992944
_cell_angle_alpha   82.42166899
_cell_angle_beta   82.75280335
_cell_angle_gamma   82.61164301
_symmetry_Int_Tables_number   1
_chemical_formula_structural   Sm4Fe31Co3
_chemical_formula_sum   'Sm4 Fe31 Co3'
_cell_volume   520.72567028
_cell_formula_units_Z   1
loop_
 _symmetry_equiv_pos_site_id
 _symmetry_equiv_pos_as_xyz
  1  'x, y, z'
loop_
 _atom_site_type_symbol
 _atom_site_label
 _atom_site_symmetry_multiplicity
 _atom_site_fract_x
 _atom_site_fract_y
 _atom_site_fract_z
 _atom_site_occupancy
  Sm  Sm0  1  0.65815000  0.65654400  0.32924800  1
  Sm  Sm1  1  0.65966200  0.65788900  0.82889900  1
  Sm  Sm2  1  0.34069900  0.34137800  0.17098600  1
  Sm  Sm3  1  0.34124900  0.34211300  0.67049200  1
  Fe  Fe0  1  0.29135200  0.70844600  0.00054900  1
  Fe  Fe1  1  0.29463900  0.70577800  0.50019200  1
  Fe  Fe2  1  0.70937000  0.99968200  0.14533100  1
  Fe  Fe3  1  0.70859800  0.99985600  0.64507800  1
  Fe  Fe4  1  0.99923800  0.29306000  0.35362600  1
  Fe  Fe5  1  0.99987800  0.29472300  0.85305400  1
  Fe  Fe6  1  0.28970200  0.00041500  0.35461000  1
  Fe  Fe7  1  0.29160500  0.00116400  0.85406000  1
  Fe  Fe8  1  0.00017000  0.70645900  0.14737700  1
  Fe  Fe9  1  0.00013700  0.70586400  0.64708900  1
  Fe  Fe10  1  0.70723900  0.29332300  0.49959800  1
  Fe  Fe11  1  0.70892400  0.29049500  0.99960200  1
  Fe  Fe12  1  0.99838100  0.00021400  0.25033600  1
  Fe  Fe13  1  0.99916200  0.00091500  0.75008500  1
  Fe  Fe14  1  0.99945000  0.49989200  0.00041000  1
  Fe  Fe15  1  0.00028600  0.49956500  0.50018600  1
  Fe  Fe16  1  0.50054900  0.00019400  0.49927000  1
  Fe  Fe17  1  0.50086900  0.99974300  0.99963600  1
  Fe  Fe18  1  0.90415100  0.90324700  0.45208500  1
  Fe  Fe19  1  0.90419800  0.90360600  0.95186300  1
  Fe  Fe20  1  0.09682100  0.09605600  0.04806100  1
  Fe  Fe21  1  0.09660100  0.09556300  0.54827400  1
  Fe  Fe22  1  0.34194600  0.34308700  0.92251300  1
  Fe  Fe23  1  0.34245300  0.84553500  0.17140300  1
  Fe  Fe24  1  0.34178500  0.84557800  0.67128700  1
  Fe  Fe25  1  0.15852700  0.65744600  0.32929600  1
  Fe  Fe26  1  0.15648900  0.65844400  0.82922900  1
  Fe  Fe27  1  0.65758600  0.65624900  0.07914900  1
  Fe  Fe28  1  0.65861100  0.65737500  0.57904600  1
  Fe  Fe29  1  0.65644600  0.16022900  0.32833000  1
  Fe  Fe30  1  0.65752700  0.15833900  0.82790300  1
  Co  Co0  1  0.84404100  0.34077300  0.17005500  1
  Co  Co1  1  0.84430600  0.34012200  0.66965300  1
  Co  Co2  1  0.33920300  0.34064000  0.42214100  1
loop_
_geom_bond_atom_site_label_1
_geom_bond_atom_site_label_2
_geom_bond_distance
_geom_bond_site_symmetry_2
Fe0 Fe17 2.442671 1_554
Fe0 Fe14 2.446696 1_455
Fe0 Fe7 2.480979 1_564
Fe0 Fe8 2.489947 1_555
Fe0 Fe26 2.542227 1_554
Fe0 Fe23 2.547020 1_555
Fe0 Fe22 2.639302 1_554
Fe0 Fe27 2.649535 1_555
Fe0 Fe20 2.748056 1_565
Fe0 Fe19 2.752606 1_454
Fe0 Sm2 3.015275 1_555
Fe0 Sm1 3.048169 1_554
Fe1 Fe16 2.444445 1_565
Fe1 Fe15 2.450033 1_555
Fe1 Fe6 2.481560 1_565
Fe1 Fe9 2.504681 1_555
Fe1 Fe25 2.537914 1_555
Fe1 Fe24 2.551138 1_555
Fe1 Fe28 2.638687 1_555
Fe1 Fe21 2.769479 1_565
Fe1 Fe18 2.773968 1_455
Fe1 Sm3 2.997806 1_555
Fe1 Sm0 3.020673 1_555
Fe2 Fe8 2.480883 1_655
Fe2 Fe27 2.541871 1_555
Fe2 Fe23 2.646376 1_555
Fe2 Fe29 2.659780 1_565
Fe2 Fe20 2.755763 1_665
Fe2 Sm0 3.030594 1_555
Fe2 Sm2 3.037736 1_565
Fe3 Fe9 2.487286 1_655
Fe3 Fe30 2.651686 1_565
Fe3 Sm1 3.023472 1_555
Fe3 Sm3 3.033956 1_565
Fe4 Fe6 2.476959 1_655
Fe4 Sm0 3.007742 1_555
Fe4 Sm2 3.024132 1_655
Fe5 Fe7 2.486208 1_655
Fe5 Sm1 3.002485 1_555
Fe5 Sm3 3.022531 1_655
Fe6 Sm2 3.019004 1_555
Fe6 Sm0 3.045281 1_545
Fe7 Sm3 3.017572 1_555
Fe7 Sm1 3.040868 1_545
Fe8 Sm2 3.011387 1_555
Fe8 Sm0 3.020802 1_455
Fe9 Sm3 3.007834 1_555
Fe9 Sm1 3.012661 1_455
Fe10 Fe16 2.443437 1_555
Fe10 Fe15 2.444327 1_655
Fe10 Fe3 2.475600 1_545
Fe10 Fe4 2.486143 1_555
Fe10 Fe29 2.539285 1_555
Fe10 Fe28 2.640906 1_555
Fe10 Fe18 2.766748 1_545
Fe10 Fe21 2.770231 1_655
Fe10 Sm0 2.997829 1_555
Fe10 Sm3 3.030716 1_555
Fe11 Fe17 2.435516 1_545
Fe11 Fe14 2.444245 1_556
Fe11 Fe2 2.466470 1_546
Fe11 Fe5 2.486662 1_555
Fe11 Fe30 2.542727 1_555
Fe11 Fe22 2.644649 1_555
Fe11 Fe27 2.650886 1_556
Fe11 Fe19 2.746328 1_545
Fe11 Fe20 2.754561 1_656
Fe11 Sm1 3.018814 1_555
Fe11 Sm2 3.045822 1_556
Fe12 Fe2 2.436421 1_545
Fe12 Fe6 2.442409 1_655
Fe12 Fe8 2.442764 1_645
Fe12 Fe4 2.443430 1_555
Fe12 Fe25 2.457025 1_645
Fe12 Fe29 2.460664 1_555
Fe12 Fe23 2.463872 1_645
Fe12 Fe18 2.602232 1_545
Fe12 Fe20 2.611461 1_655
Fe12 Sm2 3.286578 1_655
Fe12 Sm0 3.287668 1_545
Fe13 Fe3 2.445390 1_545
Fe13 Fe5 2.445819 1_555
Fe13 Fe7 2.446048 1_655
Fe13 Fe26 2.449912 1_645
Fe13 Fe9 2.450957 1_645
Fe13 Fe30 2.452456 1_555
Fe13 Fe24 2.457279 1_645
Fe13 Fe19 2.603544 1_545
Fe13 Fe21 2.603898 1_655
Fe13 Sm1 3.281165 1_545
Fe13 Sm3 3.286098 1_655
Fe14 Fe5 2.447596 1_554
Fe14 Fe8 2.450373 1_655
Fe14 Fe26 2.454916 1_654
Fe14 Fe27 2.455398 1_555
Fe14 Fe22 2.455829 1_654
Fe14 Fe19 2.598702 1_554
Fe14 Fe20 2.599780 1_655
Fe14 Sm2 3.278582 1_655
Fe14 Sm1 3.280007 1_554
Fe15 Fe4 2.446057 1_455
Fe15 Fe9 2.447630 1_555
Fe15 Fe25 2.453197 1_555
Fe15 Fe28 2.458249 1_455
Fe15 Fe18 2.598513 1_455
Fe15 Fe21 2.600577 1_555
Fe15 Sm3 3.273862 1_555
Fe15 Sm0 3.284679 1_455
Fe16 Fe6 2.439517 1_555
Fe16 Fe3 2.440013 1_545
Fe16 Fe29 2.453226 1_555
Fe16 Fe28 2.456196 1_545
Fe16 Fe24 2.458674 1_545
Fe16 Fe18 2.609868 1_545
Fe16 Fe21 2.613877 1_555
Fe16 Sm0 3.290935 1_545
Fe16 Sm3 3.295556 1_555
Fe17 Fe2 2.440985 1_556
Fe17 Fe7 2.441404 1_565
Fe17 Fe22 2.449018 1_565
Fe17 Fe23 2.454434 1_556
Fe17 Fe27 2.455392 1_556
Fe17 Fe30 2.459773 1_565
Fe17 Fe19 2.608547 1_555
Fe17 Fe20 2.614241 1_566
Fe17 Sm1 3.290320 1_555
Fe17 Sm2 3.296233 1_566
Fe18 Fe21 2.404856 1_665
Fe18 Fe28 2.642009 1_555
Fe18 Fe25 2.649220 1_655
Fe18 Fe29 2.661289 1_565
Fe18 Fe6 2.747280 1_665
Fe18 Fe3 2.749397 1_555
Fe18 Fe4 2.759368 1_565
Fe18 Fe9 2.764041 1_655
Fe18 Sm0 3.076689 1_555
Fe19 Fe20 2.406210 1_666
Fe19 Fe26 2.639323 1_655
Fe19 Fe30 2.652203 1_565
Fe19 Fe27 2.653746 1_556
Fe19 Fe2 2.752305 1_556
Fe19 Fe7 2.759796 1_665
Fe19 Fe5 2.769180 1_565
Fe19 Fe8 2.769297 1_656
Fe19 Sm1 3.067538 1_555
Fe20 Fe23 2.631066 1_545
Fe20 Fe22 2.636459 1_554
Fe20 Fe7 2.756077 1_554
Fe20 Fe8 2.764453 1_545
Fe20 Fe5 2.768371 1_454
Fe20 Sm2 3.062830 1_555
Fe21 Fe24 2.625235 1_545
Fe21 Fe6 2.749355 1_555
Fe21 Fe3 2.755833 1_445
Fe21 Fe9 2.762662 1_545
Fe21 Fe4 2.762753 1_455
Fe21 Sm3 3.065264 1_555
Fe22 Fe26 2.464271 1_555
Fe22 Fe30 2.483067 1_555
Fe22 Fe7 2.544009 1_555
Fe22 Fe5 2.550658 1_455
Fe22 Sm1 3.088169 1_555
Fe22 Sm2 3.195400 1_556
Fe22 Sm3 3.244894 1_555
Fe23 Fe25 2.471482 1_555
Fe23 Fe27 2.480468 1_555
Fe23 Fe8 2.552519 1_555
Fe23 Fe6 2.644715 1_565
Fe23 Sm0 3.082257 1_555
Fe23 Sm2 3.183147 1_565
Fe23 Sm2 3.240879 1_555
Fe24 Fe26 2.473106 1_555
Fe24 Fe28 2.484904 1_555
Fe24 Fe9 2.551307 1_555
Fe24 Fe7 2.642307 1_565
Fe24 Fe3 2.646091 1_555
Fe24 Sm1 3.088108 1_555
Fe24 Sm3 3.187953 1_565
Fe24 Sm3 3.236058 1_555
Fe25 Fe6 2.532498 1_565
Fe25 Fe8 2.636094 1_555
Fe25 Fe4 2.641172 1_455
Fe25 Sm2 3.086616 1_555
Fe25 Sm0 3.220238 1_555
Fe25 Sm0 3.226745 1_455
Fe26 Fe7 2.541087 1_565
Fe26 Fe5 2.629162 1_455
Fe26 Fe9 2.632989 1_555
Fe26 Sm3 3.095214 1_555
Fe26 Sm1 3.204029 1_455
Fe26 Sm1 3.242953 1_555
Fe27 Fe8 2.549578 1_655
Fe27 Sm2 3.079782 1_555
Fe27 Sm1 3.217671 1_554
Fe27 Sm0 3.219468 1_555
Fe28 Fe3 2.532006 1_555
Fe28 Fe9 2.539028 1_655
Fe28 Sm3 3.082593 1_555
Fe28 Sm0 3.215968 1_555
Fe28 Sm1 3.216890 1_555
Fe29 Fe4 2.541235 1_555
Fe29 Fe6 2.662642 1_555
Fe29 Sm2 3.067210 1_555
Fe29 Sm0 3.191330 1_555
Fe29 Sm0 3.232732 1_545
Fe30 Fe5 2.548758 1_555
Fe30 Fe7 2.649657 1_555
Fe30 Sm3 3.073728 1_555
Fe30 Sm1 3.211477 1_545
Fe30 Sm1 3.212617 1_555
Co0 Fe14 2.436884 1_555
Co0 Fe12 2.438673 1_555
Co0 Fe27 2.454344 1_555
Co0 Fe29 2.464391 1_555
Co0 Fe2 2.529647 1_545
Co0 Fe11 2.533161 1_554
Co0 Fe20 2.634162 1_655
Co0 Fe8 2.640087 1_655
Co0 Fe4 2.646356 1_555
Co0 Sm0 3.098410 1_555
Co0 Sm2 3.203977 1_655
Co0 Sm2 3.243046 1_555
Co1 Fe13 2.433684 1_555
Co1 Fe15 2.437116 1_655
Co1 Fe28 2.458543 1_555
Co1 Fe30 2.465211 1_555
Co1 Fe3 2.527349 1_545
Co1 Fe10 2.528047 1_555
Co1 Fe21 2.627380 1_655
Co1 Fe9 2.639575 1_655
Co1 Fe5 2.646277 1_555
Co1 Sm1 3.106033 1_555
Co1 Sm3 3.206832 1_655
Co1 Sm3 3.240235 1_555
Co2 Fe16 2.439919 1_555
Co2 Fe15 2.443031 1_555
Co2 Fe25 2.454893 1_555
Co2 Fe29 2.473935 1_555
Co2 Fe6 2.526745 1_555
Co2 Fe4 2.530949 1_455
Co2 Fe21 2.622723 1_555
Co2 Fe1 2.639876 1_555
Co2 Fe10 2.654670 1_555
Co2 Sm0 3.096573 1_555
Co2 Sm3 3.199217 1_555
Co2 Sm2 3.230524 1_555
