# generated using pymatgen
data_Sr10MnN8
_symmetry_space_group_name_H-M   'P 1'
_cell_length_a   11.78877711
_cell_length_b   4.86353001
_cell_length_c   8.67750616
_cell_angle_alpha   90.00000233
_cell_angle_beta   65.86132625
_cell_angle_gamma   78.09567634
_symmetry_Int_Tables_number   1
_chemical_formula_structural   Sr10MnN8
_chemical_formula_sum   'Sr10 Mn1 N8'
_cell_volume   442.26964128
_cell_formula_units_Z   1
loop_
 _symmetry_equiv_pos_site_id
 _symmetry_equiv_pos_as_xyz
  1  'x, y, z'
loop_
 _atom_site_type_symbol
 _atom_site_label
 _atom_site_symmetry_multiplicity
 _atom_site_fract_x
 _atom_site_fract_y
 _atom_site_fract_z
 _atom_site_occupancy
  Sr  Sr0  1  0.41173621  0.79413189  0.71037749  1
  Sr  Sr1  1  0.58826379  0.20586811  0.28962251  1
  Sr  Sr2  1  0.05843876  0.97078012  0.77859845  1
  Sr  Sr3  1  0.94156124  0.02921988  0.22140155  1
  Sr  Sr4  1  0.71489772  0.64255164  0.53707338  1
  Sr  Sr5  1  0.28510228  0.35744836  0.46292662  1
  Sr  Sr6  1  0.80796407  0.59601746  0.93756366  1
  Sr  Sr7  1  0.19203593  0.40398254  0.06243634  1
  Sr  Sr8  1  0.39311763  0.80344169  0.13804024  1
  Sr  Sr9  1  0.60688237  0.19655831  0.86195976  1
  Mn  Mn0  1  0.00000000  0.50000000  0.50000000  1
  N  N0  1  0.18468996  0.90765502  0.95775962  1
  N  N1  1  0.81531004  0.09234498  0.04224038  1
  N  N2  1  0.38539495  0.80730202  0.44261949  1
  N  N3  1  0.61460505  0.19269798  0.55738051  1
  N  N4  1  0.61317895  0.69341003  0.86109442  1
  N  N5  1  0.38682105  0.30658997  0.13890558  1
  N  N6  1  0.96258702  0.51870599  0.32733629  1
  N  N7  1  0.03741298  0.48129401  0.67266371  1
loop_
_geom_bond_atom_site_label_1
_geom_bond_atom_site_label_2
_geom_bond_distance
_geom_bond_site_symmetry_2
Mn0 N7 1.723836 1_555
Mn0 N6 1.723836 1_455
N0 Sr2 2.535832 1_555
N0 Sr0 2.601553 1_555
N0 Sr7 2.609608 1_556
N0 Sr7 2.609613 1_566
N0 Sr3 2.781416 1_466
N1 Sr3 2.535832 1_555
N1 Sr1 2.601553 1_555
N1 Sr6 2.609608 1_554
N1 Sr6 2.609613 1_544
N1 Sr2 2.781416 1_644
N2 Sr0 2.465961 1_555
N2 Sr8 2.607014 1_555
N2 Sr5 2.666936 1_565
N2 Sr5 2.666936 1_555
N2 Sr1 3.248910 1_555
N2 Sr1 3.248914 1_565
N3 Sr1 2.465961 1_555
N3 Sr9 2.607014 1_555
N3 Sr4 2.666936 1_545
N3 Sr4 2.666936 1_555
N3 Sr0 3.248910 1_555
N3 Sr0 3.248914 1_545
N4 Sr9 2.432767 1_565
N4 Sr9 2.432767 1_555
N4 Sr4 2.554360 1_555
N4 Sr6 2.595205 1_555
N4 Sr8 2.668330 1_556
N4 Sr0 3.106483 1_555
N5 Sr8 2.432767 1_545
N5 Sr8 2.432767 1_555
N5 Sr5 2.554360 1_555
N5 Sr7 2.595205 1_555
N5 Sr9 2.668330 1_554
N5 Sr1 3.106483 1_555
N6 Sr3 2.646443 1_555
N6 Sr3 2.646452 1_565
N6 Sr4 2.670054 1_555
N6 Sr7 2.683977 1_655
N7 Sr2 2.646443 1_555
N7 Sr2 2.646452 1_545
N7 Sr5 2.670054 1_555
N7 Sr6 2.683977 1_455
