# generated using pymatgen
data_KCa4Si8H16O28F
_symmetry_space_group_name_H-M   'P 1'
_cell_length_a   10.43290500
_cell_length_b   10.43290500
_cell_length_c   12.78315400
_cell_angle_alpha   90.00000000
_cell_angle_beta   90.00000000
_cell_angle_gamma   90.00000000
_symmetry_Int_Tables_number   1
_chemical_formula_structural   KCa4Si8H16O28F
_chemical_formula_sum   'K2 Ca8 Si16 H32 O56 F2'
_cell_volume   1391.38887485
_cell_formula_units_Z   2
loop_
 _symmetry_equiv_pos_site_id
 _symmetry_equiv_pos_as_xyz
  1  'x, y, z'
loop_
 _atom_site_type_symbol
 _atom_site_label
 _atom_site_symmetry_multiplicity
 _atom_site_fract_x
 _atom_site_fract_y
 _atom_site_fract_z
 _atom_site_occupancy
  K  K0  1  0.50000000  0.50000000  0.00000000  1
  K  K1  1  0.00000000  0.00000000  0.50000000  1
  Ca  Ca0  1  0.68568200  0.73665600  0.00000000  1
  Ca  Ca1  1  0.23665600  0.18568200  0.50000000  1
  Ca  Ca2  1  0.26334400  0.68568200  0.00000000  1
  Ca  Ca3  1  0.18568200  0.76334400  0.50000000  1
  Ca  Ca4  1  0.76334400  0.81431800  0.50000000  1
  Ca  Ca5  1  0.31431800  0.26334400  0.00000000  1
  Ca  Ca6  1  0.81431800  0.23665600  0.50000000  1
  Ca  Ca7  1  0.73665600  0.31431800  0.00000000  1
  Si  Si0  1  0.55070300  0.70203100  0.24163900  1
  Si  Si1  1  0.79796900  0.94929700  0.25836100  1
  Si  Si2  1  0.70203100  0.44929700  0.24163900  1
  Si  Si3  1  0.05070300  0.79796900  0.74163900  1
  Si  Si4  1  0.79796900  0.94929700  0.74163900  1
  Si  Si5  1  0.70203100  0.44929700  0.75836100  1
  Si  Si6  1  0.94929700  0.20203100  0.25836100  1
  Si  Si7  1  0.55070300  0.70203100  0.75836100  1
  Si  Si8  1  0.20203100  0.05070300  0.74163900  1
  Si  Si9  1  0.94929700  0.20203100  0.74163900  1
  Si  Si10  1  0.20203100  0.05070300  0.25836100  1
  Si  Si11  1  0.44929700  0.29796900  0.75836100  1
  Si  Si12  1  0.05070300  0.79796900  0.25836100  1
  Si  Si13  1  0.29796900  0.55070300  0.75836100  1
  Si  Si14  1  0.29796900  0.55070300  0.24163900  1
  Si  Si15  1  0.44929700  0.29796900  0.24163900  1
  H  H0  1  0.85658800  0.49500200  0.62005000  1
  H  H1  1  0.49500200  0.14341200  0.37995000  1
  H  H2  1  0.40576400  0.69972200  0.47030300  1
  H  H3  1  0.35658800  0.00499800  0.87995000  1
  H  H4  1  0.80027800  0.09423600  0.02969700  1
  H  H5  1  0.90576400  0.80027800  0.02969700  1
  H  H6  1  0.49500200  0.14341200  0.62005000  1
  H  H7  1  0.59423600  0.30027800  0.47030300  1
  H  H8  1  0.50499800  0.85658800  0.62005000  1
  H  H9  1  0.80027800  0.09423600  0.97030300  1
  H  H10  1  0.14341200  0.50499800  0.37995000  1
  H  H11  1  0.19972200  0.90576400  0.97030300  1
  H  H12  1  0.00499800  0.64341200  0.12005000  1
  H  H13  1  0.69972200  0.59423600  0.52969700  1
  H  H14  1  0.09423600  0.19972200  0.97030300  1
  H  H15  1  0.35658800  0.00499800  0.12005000  1
  H  H16  1  0.90576400  0.80027800  0.97030300  1
  H  H17  1  0.30027800  0.40576400  0.47030300  1
  H  H18  1  0.99500200  0.35658800  0.87995000  1
  H  H19  1  0.64341200  0.99500200  0.87995000  1
  H  H20  1  0.85658800  0.49500200  0.37995000  1
  H  H21  1  0.50499800  0.85658800  0.37995000  1
  H  H22  1  0.69972200  0.59423600  0.47030300  1
  H  H23  1  0.14341200  0.50499800  0.62005000  1
  H  H24  1  0.30027800  0.40576400  0.52969700  1
  H  H25  1  0.99500200  0.35658800  0.12005000  1
  H  H26  1  0.64341200  0.99500200  0.12005000  1
  H  H27  1  0.00499800  0.64341200  0.87995000  1
  H  H28  1  0.59423600  0.30027800  0.52969700  1
  H  H29  1  0.40576400  0.69972200  0.52969700  1
  H  H30  1  0.19972200  0.90576400  0.02969700  1
  H  H31  1  0.09423600  0.19972200  0.02969700  1
  O  O0  1  0.03305600  0.78453900  0.38401300  1
  O  O1  1  0.66005000  0.59725900  0.72067800  1
  O  O2  1  0.83995000  0.09725900  0.77932200  1
  O  O3  1  0.70909500  0.92882400  0.12763000  1
  O  O4  1  0.21546100  0.03305600  0.38401300  1
  O  O5  1  0.46694400  0.28453900  0.11598700  1
  O  O6  1  0.20909500  0.57117600  0.62763000  1
  O  O7  1  0.28453900  0.53305600  0.88401300  1
  O  O8  1  0.66005000  0.59725900  0.27932200  1
  O  O9  1  0.92882400  0.29090500  0.12763000  1
  O  O10  1  0.96694400  0.21546100  0.61598700  1
  O  O11  1  0.36274100  0.13725900  0.75000000  1
  O  O12  1  0.71546100  0.46694400  0.88401300  1
  O  O13  1  0.07117600  0.70909500  0.87237000  1
  O  O14  1  0.96694400  0.21546100  0.38401300  1
  O  O15  1  0.13725900  0.63725900  0.75000000  1
  O  O16  1  0.53305600  0.71546100  0.11598700  1
  O  O17  1  0.86274100  0.36274100  0.25000000  1
  O  O18  1  0.36274100  0.13725900  0.25000000  1
  O  O19  1  0.86274100  0.36274100  0.75000000  1
  O  O20  1  0.21546100  0.03305600  0.61598700  1
  O  O21  1  0.40274100  0.66005000  0.72067800  1
  O  O22  1  0.16005000  0.90274100  0.77932200  1
  O  O23  1  0.33995000  0.40274100  0.72067800  1
  O  O24  1  0.83995000  0.09725900  0.22067800  1
  O  O25  1  0.16005000  0.90274100  0.22067800  1
  O  O26  1  0.92882400  0.29090500  0.87237000  1
  O  O27  1  0.03305600  0.78453900  0.61598700  1
  O  O28  1  0.70909500  0.92882400  0.87237000  1
  O  O29  1  0.07117600  0.70909500  0.12763000  1
  O  O30  1  0.29090500  0.07117600  0.87237000  1
  O  O31  1  0.63725900  0.86274100  0.25000000  1
  O  O32  1  0.13725900  0.63725900  0.25000000  1
  O  O33  1  0.40274100  0.66005000  0.27932200  1
  O  O34  1  0.78453900  0.96694400  0.38401300  1
  O  O35  1  0.63725900  0.86274100  0.75000000  1
  O  O36  1  0.79090500  0.42882400  0.62763000  1
  O  O37  1  0.29090500  0.07117600  0.12763000  1
  O  O38  1  0.53305600  0.71546100  0.88401300  1
  O  O39  1  0.20909500  0.57117600  0.37237000  1
  O  O40  1  0.90274100  0.83995000  0.22067800  1
  O  O41  1  0.90274100  0.83995000  0.77932200  1
  O  O42  1  0.42882400  0.20909500  0.37237000  1
  O  O43  1  0.57117600  0.79090500  0.62763000  1
  O  O44  1  0.59725900  0.33995000  0.27932200  1
  O  O45  1  0.71546100  0.46694400  0.11598700  1
  O  O46  1  0.09725900  0.16005000  0.22067800  1
  O  O47  1  0.33995000  0.40274100  0.27932200  1
  O  O48  1  0.09725900  0.16005000  0.77932200  1
  O  O49  1  0.28453900  0.53305600  0.11598700  1
  O  O50  1  0.42882400  0.20909500  0.62763000  1
  O  O51  1  0.59725900  0.33995000  0.72067800  1
  O  O52  1  0.78453900  0.96694400  0.61598700  1
  O  O53  1  0.46694400  0.28453900  0.88401300  1
  O  O54  1  0.57117600  0.79090500  0.37237000  1
  O  O55  1  0.79090500  0.42882400  0.37237000  1
  F  F0  1  0.50000000  0.50000000  0.50000000  1
  F  F1  1  0.00000000  0.00000000  0.00000000  1
loop_
_geom_bond_atom_site_label_1
_geom_bond_atom_site_label_2
_geom_bond_distance
_geom_bond_site_symmetry_2
K0 O16 2.714822 1_555
K0 O49 2.714822 1_555
K0 O45 2.714822 1_555
K0 O5 2.714822 1_555
K0 O38 2.714822 1_554
K0 O7 2.714822 1_554
K0 O53 2.714822 1_554
K0 O12 2.714822 1_554
K1 O20 2.714822 1_555
K1 O4 2.714822 1_555
K1 O10 2.714822 1_455
K1 O14 2.714822 1_455
K1 O0 2.714822 1_545
K1 O27 2.714822 1_545
K1 O52 2.714822 1_445
K1 O34 2.714822 1_445
Ca0 O16 2.186952 1_555
Ca0 O38 2.186952 1_554
Ca0 H5 2.420071 1_555
Ca0 H16 2.420071 1_554
Ca0 O28 2.596345 1_554
Ca0 O3 2.596345 1_555
Ca1 O20 2.186952 1_555
Ca1 O4 2.186952 1_555
Ca1 H24 2.420071 1_555
Ca1 H17 2.420071 1_555
Ca1 O42 2.596345 1_555
Ca1 O50 2.596345 1_555
Ca2 O49 2.186952 1_555
Ca2 O7 2.186952 1_554
Ca2 H30 2.420071 1_555
Ca2 H11 2.420071 1_554
Ca2 O13 2.596345 1_554
Ca2 O29 2.596345 1_555
Ca3 O27 2.186952 1_555
Ca3 O0 2.186952 1_555
Ca3 H29 2.420071 1_555
Ca3 H2 2.420071 1_555
Ca3 O39 2.596345 1_555
Ca3 O6 2.596345 1_555
Ca4 O52 2.186952 1_555
Ca4 O34 2.186952 1_555
Ca4 H13 2.420071 1_555
Ca4 H22 2.420071 1_555
Ca4 O54 2.596345 1_555
Ca4 O43 2.596345 1_555
Ca5 O5 2.186952 1_555
Ca5 O53 2.186952 1_554
Ca5 H31 2.420071 1_555
Ca5 H14 2.420071 1_554
Ca5 O30 2.596345 1_554
Ca5 O37 2.596345 1_555
Ca6 O10 2.186952 1_555
Ca6 O14 2.186952 1_555
Ca6 H28 2.420071 1_555
Ca6 H7 2.420071 1_555
Ca6 O55 2.596345 1_555
Ca6 O36 2.596345 1_555
Ca7 O45 2.186952 1_555
Ca7 O12 2.186952 1_554
Ca7 H4 2.420071 1_555
Ca7 H9 2.420071 1_554
Ca7 O26 2.596345 1_554
Ca7 O9 2.596345 1_555
H0 O36 0.977583 1_555
H1 O42 0.977583 1_555
H2 H29 0.759243 1_555
H3 O30 0.977583 1_555
H4 H9 0.759243 1_554
H6 O50 0.977583 1_555
H8 O43 0.977583 1_555
H10 O39 0.977583 1_555
H11 H30 0.759243 1_556
H12 O29 0.977583 1_555
H13 H22 0.759243 1_555
H14 H31 0.759243 1_556
H15 O37 0.977583 1_555
H16 H5 0.759243 1_556
H17 H24 0.759243 1_555
H18 O26 0.977583 1_555
H19 O28 0.977583 1_555
H20 O55 0.977583 1_555
H21 O54 0.977583 1_555
H23 O6 0.977583 1_555
H25 O9 0.977583 1_555
H26 O3 0.977583 1_555
H27 O13 0.977583 1_555
H28 H7 0.759243 1_555
O0 Si12 1.622806 1_555
O1 Si7 1.651756 1_555
O1 Si5 1.675351 1_555
O2 Si9 1.651756 1_555
O2 Si4 1.675351 1_545
O3 Si1 1.923046 1_555
O4 Si10 1.622806 1_555
O5 Si15 1.622806 1_555
O6 Si13 1.923046 1_555
O7 Si13 1.622806 1_555
O8 Si0 1.651756 1_555
O8 Si2 1.675351 1_555
O9 Si6 1.923046 1_555
O10 Si9 1.622806 1_555
O11 Si11 1.907385 1_555
O11 Si8 1.907385 1_555
O12 Si5 1.622806 1_555
O13 Si3 1.923046 1_555
O14 Si6 1.622806 1_555
O15 Si3 1.907385 1_555
O15 Si13 1.907385 1_555
O16 Si0 1.622806 1_555
O17 Si6 1.907385 1_555
O17 Si2 1.907385 1_555
O18 Si10 1.907385 1_555
O18 Si15 1.907385 1_555
O19 Si5 1.907385 1_555
O19 Si9 1.907385 1_555
O20 Si8 1.622806 1_555
O21 Si13 1.651756 1_555
O21 Si7 1.675351 1_555
O22 Si3 1.651756 1_555
O22 Si8 1.675351 1_565
O23 Si11 1.651756 1_555
O23 Si13 1.675351 1_555
O24 Si6 1.651756 1_555
O24 Si1 1.675351 1_545
O25 Si12 1.651756 1_555
O25 Si10 1.675351 1_565
O26 Si9 1.923046 1_555
O27 Si3 1.622806 1_555
O28 Si4 1.923046 1_555
O29 Si12 1.923046 1_555
O30 Si8 1.923046 1_555
O31 Si1 1.907385 1_555
O31 Si0 1.907385 1_555
O32 Si12 1.907385 1_555
O32 Si14 1.907385 1_555
O33 Si14 1.651756 1_555
O33 Si0 1.675351 1_555
O34 Si1 1.622806 1_555
O35 Si4 1.907385 1_555
O35 Si7 1.907385 1_555
O36 Si5 1.923046 1_555
O37 Si10 1.923046 1_555
O38 Si7 1.622806 1_555
O39 Si14 1.923046 1_555
O40 Si1 1.651756 1_555
O40 Si12 1.675351 1_655
O41 Si4 1.651756 1_555
O41 Si3 1.675351 1_655
O42 Si15 1.923046 1_555
O43 Si7 1.923046 1_555
O44 Si2 1.651756 1_555
O44 Si15 1.675351 1_555
O45 Si2 1.622806 1_555
O46 Si10 1.651756 1_555
O46 Si6 1.675351 1_455
O47 Si15 1.651756 1_555
O47 Si14 1.675351 1_555
O48 Si8 1.651756 1_555
O48 Si9 1.675351 1_455
O49 Si14 1.622806 1_555
O50 Si11 1.923046 1_555
O51 Si5 1.651756 1_555
O51 Si11 1.675351 1_555
O52 Si4 1.622806 1_555
O53 Si11 1.622806 1_555
O54 Si0 1.923046 1_555
O55 Si2 1.923046 1_555
