# generated using pymatgen
data_MgV6O5F19
_symmetry_space_group_name_H-M   'P 1'
_cell_length_a   5.50498317
_cell_length_b   5.24542245
_cell_length_c   15.64777958
_cell_angle_alpha   89.44485638
_cell_angle_beta   100.12055863
_cell_angle_gamma   91.07200724
_symmetry_Int_Tables_number   1
_chemical_formula_structural   MgV6O5F19
_chemical_formula_sum   'Mg1 V6 O5 F19'
_cell_volume   444.72681558
_cell_formula_units_Z   1
loop_
 _symmetry_equiv_pos_site_id
 _symmetry_equiv_pos_as_xyz
  1  'x, y, z'
loop_
 _atom_site_type_symbol
 _atom_site_label
 _atom_site_symmetry_multiplicity
 _atom_site_fract_x
 _atom_site_fract_y
 _atom_site_fract_z
 _atom_site_occupancy
  Mg  Mg0  1  0.47080900  0.51763400  0.77561700  1
  V  V0  1  0.04689500  0.96664600  0.00861000  1
  V  V1  1  0.12565700  0.47009300  0.32822000  1
  V  V2  1  0.31731700  0.00092600  0.65391500  1
  V  V3  1  0.54079000  0.45745700  0.00695600  1
  V  V4  1  0.65213700  0.98807600  0.33264800  1
  V  V5  1  0.81720800  0.42920000  0.64799500  1
  O  O0  1  0.00832600  0.19816100  0.63066800  1
  O  O1  1  0.52591400  0.29833800  0.62993500  1
  O  O2  1  0.71613400  0.23433900  0.97990000  1
  O  O3  1  0.28379800  0.78055700  0.02676100  1
  O  O4  1  0.88067300  0.28121900  0.30533800  1
  F  F0  1  0.22093400  0.26990400  0.97768100  1
  F  F1  1  0.16085600  0.68334700  0.70197100  1
  F  F2  1  0.04961000  0.10050000  0.11265900  1
  F  F3  1  0.21066800  0.41709400  0.44156300  1
  F  F4  1  0.35440900  0.16008500  0.76732000  1
  F  F5  1  0.14187700  0.60395700  0.22519100  1
  F  F6  1  0.28453500  0.87937200  0.54799000  1
  F  F7  1  0.45538700  0.60966500  0.89057300  1
  F  F8  1  0.36358600  0.21676400  0.31030200  1
  F  F9  1  0.45744500  0.71455900  0.36037800  1
  F  F10  1  0.60182500  0.79839300  0.70220900  1
  F  F11  1  0.54219100  0.41241300  0.12015400  1
  F  F12  1  0.72346500  0.09903400  0.44110400  1
  F  F13  1  0.82833400  0.42134700  0.76854900  1
  F  F14  1  0.61333900  0.91972600  0.22109300  1
  F  F15  1  0.80850100  0.64779700  0.56172600  1
  F  F16  1  0.94120200  0.91602400  0.89482400  1
  F  F17  1  0.79856400  0.72569800  0.03288200  1
  F  F18  1  0.95047300  0.76917400  0.35420300  1
loop_
_geom_bond_atom_site_label_1
_geom_bond_atom_site_label_2
_geom_bond_distance
_geom_bond_site_symmetry_2
O0 V5 1.674350 1_455
O0 V2 1.984225 1_555
O1 V5 1.710493 1_555
O1 V2 1.991548 1_555
O2 V3 1.635905 1_556
O2 V0 2.298890 1_646
O3 V0 1.626762 1_555
O3 V3 2.285570 1_555
O4 V1 1.647945 1_655
O4 V4 2.057577 1_545
F0 V0 1.942560 1_546
F0 V3 1.984581 1_556
F1 V2 2.057181 1_565
F1 Mg0 2.083277 1_555
F1 V5 2.331367 1_455
F2 V0 1.776860 1_545
F3 V1 1.773542 1_555
F4 V2 1.944902 1_555
F4 Mg0 1.968617 1_555
F5 V1 1.768173 1_555
F6 V2 1.759952 1_565
F7 Mg0 1.883609 1_555
F7 V3 1.964681 1_556
F8 V1 1.939417 1_555
F8 V4 1.988070 1_545
F9 V4 1.867946 1_555
F9 V1 2.198975 1_555
F10 V2 1.945115 1_565
F10 Mg0 2.055994 1_555
F11 V3 1.783406 1_555
F12 V4 1.774672 1_545
F13 V5 1.876685 1_555
F13 Mg0 2.062957 1_555
F14 V4 1.760531 1_555
F15 V5 1.757461 1_555
F16 V0 1.794023 1_656
F17 V0 1.928470 1_655
F17 V3 1.972827 1_555
F18 V1 1.939914 1_655
F18 V4 1.999462 1_555
