# generated using pymatgen
data_CaSn2Ir
_symmetry_space_group_name_H-M   'P 1'
_cell_length_a   5.83942644
_cell_length_b   5.83942644
_cell_length_c   7.59995139
_cell_angle_alpha   90.00000000
_cell_angle_beta   90.00000000
_cell_angle_gamma   136.35379990
_symmetry_Int_Tables_number   1
_chemical_formula_structural   CaSn2Ir
_chemical_formula_sum   'Ca2 Sn4 Ir2'
_cell_volume   178.86616657
_cell_formula_units_Z   2
loop_
 _symmetry_equiv_pos_site_id
 _symmetry_equiv_pos_as_xyz
  1  'x, y, z'
loop_
 _atom_site_type_symbol
 _atom_site_label
 _atom_site_symmetry_multiplicity
 _atom_site_fract_x
 _atom_site_fract_y
 _atom_site_fract_z
 _atom_site_occupancy
  Ca  Ca0  1  0.93204980  0.06795020  0.75000000  1
  Ca  Ca1  1  0.06795020  0.93204980  0.25000000  1
  Sn  Sn0  1  0.64560267  0.35439733  0.95284531  1
  Sn  Sn1  1  0.64560267  0.35439733  0.54715469  1
  Sn  Sn2  1  0.35439733  0.64560267  0.04715469  1
  Sn  Sn3  1  0.35439733  0.64560267  0.45284531  1
  Ir  Ir0  1  0.21119250  0.78880750  0.75000000  1
  Ir  Ir1  1  0.78880750  0.21119250  0.25000000  1
loop_
_geom_bond_atom_site_label_1
_geom_bond_atom_site_label_2
_geom_bond_distance
_geom_bond_site_symmetry_2
Ca0 Ir0 3.026437 1_645
Ca0 Ir0 3.232011 1_655
Ca0 Ir0 3.232011 1_545
Ca0 Sn2 3.243639 1_546
Ca0 Sn3 3.243639 1_545
Ca0 Sn2 3.243639 1_656
Ca0 Sn3 3.243639 1_655
Ca0 Sn1 3.467206 1_555
Ca0 Sn0 3.467206 1_555
Ca0 Sn1 3.528382 1_545
Ca0 Sn0 3.528382 1_545
Ca0 Sn1 3.528382 1_655
Ca0 Sn0 3.528382 1_655
Ca1 Ir1 3.026437 1_465
Ca1 Ir1 3.232011 1_455
Ca1 Ir1 3.232011 1_565
Ca1 Sn0 3.243639 1_454
Ca1 Sn1 3.243639 1_455
Ca1 Sn0 3.243639 1_564
Ca1 Sn1 3.243639 1_565
Ca1 Sn2 3.467206 1_555
Ca1 Sn3 3.467206 1_555
Ca1 Sn3 3.528382 1_455
Ca1 Sn2 3.528382 1_455
Ca1 Sn2 3.528382 1_565
Ca1 Sn3 3.528382 1_565
Ir0 Sn2 2.740584 1_556
Ir0 Sn3 2.740584 1_555
Ir0 Sn1 2.755806 1_455
Ir0 Sn0 2.755806 1_455
Ir0 Sn1 2.755806 1_565
Ir0 Sn0 2.755806 1_565
Ir1 Sn0 2.740584 1_554
Ir1 Sn1 2.740584 1_555
Ir1 Sn2 2.755806 1_545
Ir1 Sn3 2.755806 1_545
Ir1 Sn2 2.755806 1_655
Ir1 Sn3 2.755806 1_655
