# generated using pymatgen
data_BaSrMn2Al9PbO20
_symmetry_space_group_name_H-M   'P 1'
_cell_length_a   4.96536384
_cell_length_b   9.58057707
_cell_length_c   9.68264900
_cell_angle_alpha   72.38635948
_cell_angle_beta   75.51661574
_cell_angle_gamma   74.77277004
_symmetry_Int_Tables_number   1
_chemical_formula_structural   BaSrMn2Al9PbO20
_chemical_formula_sum   'Ba1 Sr1 Mn2 Al9 Pb1 O20'
_cell_volume   416.25208405
_cell_formula_units_Z   1
loop_
 _symmetry_equiv_pos_site_id
 _symmetry_equiv_pos_as_xyz
  1  'x, y, z'
loop_
 _atom_site_type_symbol
 _atom_site_label
 _atom_site_symmetry_multiplicity
 _atom_site_fract_x
 _atom_site_fract_y
 _atom_site_fract_z
 _atom_site_occupancy
  Ba  Ba0  1  0.99329304  0.00455093  0.99924942  1
  Sr  Sr0  1  0.27707041  0.71554929  0.72794525  1
  Mn  Mn0  1  0.00585679  0.50233984  0.49447629  1
  Mn  Mn1  1  0.49686510  0.36309275  0.63386481  1
  Al  Al0  1  0.37260849  0.00794802  0.28844911  1
  Al  Al1  1  0.35411467  0.28682321  0.01638922  1
  Al  Al2  1  0.63617447  0.98541969  0.71322429  1
  Al  Al3  1  0.62618422  0.71485893  0.99125393  1
  Al  Al4  1  0.90342547  0.84790577  0.42867814  1
  Al  Al5  1  0.88353006  0.42686078  0.85035059  1
  Al  Al6  1  0.10718002  0.14592515  0.57308409  1
  Al  Al7  1  0.09688800  0.57680525  0.15578515  1
  Al  Al8  1  0.50808531  0.63786532  0.36131318  1
  Pb  Pb0  1  0.76111279  0.27865146  0.27691283  1
  O  O0  1  0.86375322  0.87370166  0.60304216  1
  O  O1  1  0.83704369  0.60440187  0.87492405  1
  O  O2  1  0.13859340  0.12042954  0.39889532  1
  O  O3  1  0.13018658  0.40064525  0.12798422  1
  O  O4  1  0.24297256  0.30778813  0.54746695  1
  O  O5  1  0.24903609  0.55736173  0.30971046  1
  O  O6  1  0.75710406  0.69037841  0.45069663  1
  O  O7  1  0.75913752  0.45140294  0.68425026  1
  O  O8  1  0.28585705  0.00020523  0.69700097  1
  O  O9  1  0.27384888  0.69946099  0.00824826  1
  O  O10  1  0.72618635  0.98751603  0.29948243  1
  O  O11  1  0.70583679  0.30096996  0.98971126  1
  O  O12  1  0.74151701  0.16275811  0.66100116  1
  O  O13  1  0.73015851  0.67013317  0.16666784  1
  O  O14  1  0.27186298  0.82965158  0.34415852  1
  O  O15  1  0.24275227  0.33729905  0.84550261  1
  O  O16  1  0.76350535  0.44654416  0.41273011  1
  O  O17  1  0.27388465  0.56369496  0.56121391  1
  O  O18  1  0.65529150  0.89881869  0.89755752  1
  O  O19  1  0.32908268  0.10224218  0.10877807  1
loop_
_geom_bond_atom_site_label_1
_geom_bond_atom_site_label_2
_geom_bond_distance
_geom_bond_site_symmetry_2
Ba0 O19 2.661870 1_656
Ba0 O18 2.671257 1_545
Ba0 O11 2.808664 1_555
Ba0 O10 2.852127 1_546
Ba0 O9 2.873925 1_646
Ba0 O8 2.931254 1_655
Mn0 O16 1.852224 1_455
Mn0 O6 1.892517 1_455
Mn0 O17 1.898753 1_555
Mn0 O5 1.902515 1_555
Mn0 O4 1.922045 1_555
Mn0 O7 1.939262 1_455
Mn1 O4 1.927826 1_555
Mn1 O7 1.948367 1_555
Mn1 O12 1.964238 1_555
Mn1 O17 1.966712 1_555
Mn1 O15 2.101521 1_555
Mn1 O16 2.253608 1_555
Al0 O19 1.738886 1_555
Al0 O10 1.741449 1_545
Al0 O2 1.753067 1_555
Al0 O14 1.793140 1_545
Al1 O11 1.735686 1_554
Al1 O19 1.745100 1_555
Al1 O3 1.751635 1_555
Al1 O15 1.763623 1_554
Al2 O0 1.735916 1_555
Al2 O18 1.740745 1_555
Al2 O8 1.750490 1_565
Al2 O12 1.797358 1_565
Al3 O1 1.741920 1_555
Al3 O18 1.746626 1_555
Al3 O9 1.756810 1_556
Al3 O13 1.793571 1_556
Al4 O0 1.735179 1_555
Al4 O10 1.745894 1_555
Al4 O6 1.776171 1_555
Al4 O14 1.793544 1_655
Al5 O1 1.736183 1_555
Al5 O11 1.741413 1_555
Al5 O15 1.760248 1_655
Al5 O7 1.793075 1_555
Al6 O2 1.739645 1_555
Al6 O8 1.744668 1_555
Al6 O4 1.775881 1_555
Al6 O12 1.789808 1_455
Al7 O3 1.747650 1_555
Al7 O9 1.758492 1_555
Al7 O5 1.774260 1_555
Al7 O13 1.797831 1_455
Al8 O14 1.886829 1_555
Al8 O5 1.890722 1_555
Al8 O13 1.910612 1_555
Al8 O6 1.912216 1_555
Al8 O16 1.938689 1_555
Al8 O17 2.019778 1_555
O0 Sr0 2.543481 1_655
O1 Sr0 2.585092 1_655
O2 Pb0 2.395262 1_455
O3 Pb0 2.363707 1_455
O8 Sr0 2.662812 1_545
O9 Sr0 2.667701 1_554
O10 Pb0 2.779203 1_565
O11 Pb0 2.800963 1_556
O16 Pb0 2.369573 1_555
O17 Sr0 2.483833 1_555
