# generated using pymatgen
data_Nd8Ga3Co
_symmetry_space_group_name_H-M   'P 1'
_cell_length_a   10.45096236
_cell_length_b   10.45096236
_cell_length_c   7.01412700
_cell_angle_alpha   90.00000000
_cell_angle_beta   90.00000000
_cell_angle_gamma   120.00000227
_symmetry_Int_Tables_number   1
_chemical_formula_structural   Nd8Ga3Co
_chemical_formula_sum   'Nd16 Ga6 Co2'
_cell_volume   663.46316159
_cell_formula_units_Z   2
loop_
 _symmetry_equiv_pos_site_id
 _symmetry_equiv_pos_as_xyz
  1  'x, y, z'
loop_
 _atom_site_type_symbol
 _atom_site_label
 _atom_site_symmetry_multiplicity
 _atom_site_fract_x
 _atom_site_fract_y
 _atom_site_fract_z
 _atom_site_occupancy
  Nd  Nd0  1  0.82856800  0.65713600  0.49486800  1
  Nd  Nd1  1  0.34286400  0.17143200  0.49486800  1
  Nd  Nd2  1  0.82856800  0.17143200  0.49486800  1
  Nd  Nd3  1  0.17143200  0.34286400  0.99486800  1
  Nd  Nd4  1  0.65713600  0.82856800  0.99486800  1
  Nd  Nd5  1  0.17143200  0.82856800  0.99486800  1
  Nd  Nd6  1  0.66666700  0.33333300  0.17243700  1
  Nd  Nd7  1  0.33333300  0.66666700  0.67243700  1
  Nd  Nd8  1  0.53686600  0.07373100  0.78949400  1
  Nd  Nd9  1  0.92626900  0.46313400  0.78949400  1
  Nd  Nd10  1  0.53686600  0.46313400  0.78949400  1
  Nd  Nd11  1  0.46313400  0.92626900  0.28949400  1
  Nd  Nd12  1  0.07373100  0.53686600  0.28949400  1
  Nd  Nd13  1  0.46313400  0.53686600  0.28949400  1
  Nd  Nd14  1  0.00000000  0.00000000  0.77773200  1
  Nd  Nd15  1  0.00000000  0.00000000  0.27773200  1
  Ga  Ga0  1  0.83567000  0.67133900  0.03478200  1
  Ga  Ga1  1  0.32866100  0.16433000  0.03478200  1
  Ga  Ga2  1  0.83567000  0.16433000  0.03478200  1
  Ga  Ga3  1  0.16433000  0.32866100  0.53478200  1
  Ga  Ga4  1  0.67133900  0.83567000  0.53478200  1
  Ga  Ga5  1  0.16433000  0.83567000  0.53478200  1
  Co  Co0  1  0.66666700  0.33333300  0.55552000  1
  Co  Co1  1  0.33333300  0.66666700  0.05552000  1
loop_
_geom_bond_atom_site_label_1
_geom_bond_atom_site_label_2
_geom_bond_distance
_geom_bond_site_symmetry_2
Ga0 Nd5 3.053813 1_654
Ga0 Nd4 3.053822 1_554
Ga0 Nd6 3.207975 1_555
Ga0 Nd0 3.229661 1_555
Ga0 Nd10 3.263676 1_554
Ga0 Nd9 3.263677 1_554
Ga0 Nd15 3.428178 1_665
Ga0 Nd14 3.478398 1_664
Ga0 Nd0 3.789206 1_554
Ga0 Nd12 3.854017 1_655
Ga0 Nd13 3.854034 1_555
Ga1 Nd5 3.053813 1_544
Ga1 Nd3 3.053822 1_554
Ga1 Nd6 3.207975 1_555
Ga1 Nd1 3.229661 1_555
Ga1 Nd10 3.263676 1_554
Ga1 Nd8 3.263677 1_554
Ga1 Nd15 3.428178 1_555
Ga1 Nd14 3.478398 1_554
Ga1 Nd1 3.789206 1_554
Ga1 Nd11 3.854017 1_545
Ga1 Nd13 3.854034 1_555
Ga2 Nd3 3.053813 1_654
Ga2 Nd4 3.053813 1_544
Ga2 Nd6 3.207975 1_555
Ga2 Nd2 3.229661 1_555
Ga2 Nd9 3.263677 1_554
Ga2 Nd8 3.263677 1_554
Ga2 Nd15 3.428170 1_655
Ga2 Nd14 3.478390 1_654
Ga2 Nd2 3.789207 1_554
Ga2 Nd12 3.854031 1_655
Ga2 Nd11 3.854031 1_545
Ga3 Nd2 3.053813 1_455
Ga3 Nd1 3.053822 1_555
Ga3 Nd7 3.207975 1_555
Ga3 Nd3 3.229661 1_555
Ga3 Nd13 3.263676 1_555
Ga3 Nd12 3.263677 1_555
Ga3 Nd14 3.428178 1_555
Ga3 Nd15 3.478398 1_555
Ga3 Nd3 3.789206 1_554
Ga3 Nd9 3.854017 1_455
Ga3 Nd10 3.854034 1_555
Ga4 Nd2 3.053813 1_565
Ga4 Nd0 3.053822 1_555
Ga4 Nd7 3.207975 1_555
Ga4 Nd4 3.229661 1_555
Ga4 Nd13 3.263676 1_555
Ga4 Nd11 3.263677 1_555
Ga4 Nd14 3.428178 1_665
Ga4 Nd15 3.478398 1_665
Ga4 Nd4 3.789206 1_554
Ga4 Nd8 3.854017 1_565
Ga4 Nd10 3.854034 1_555
Ga5 Nd1 3.053813 1_565
Ga5 Nd0 3.053813 1_455
Ga5 Nd7 3.207975 1_555
Ga5 Nd5 3.229661 1_555
Ga5 Nd11 3.263677 1_555
Ga5 Nd12 3.263677 1_555
Ga5 Nd14 3.428170 1_565
Ga5 Nd15 3.478390 1_565
Ga5 Nd5 3.789207 1_554
Ga5 Nd8 3.854031 1_565
Ga5 Nd9 3.854031 1_455
Co0 Nd6 2.686993 1_555
Co0 Nd8 2.865996 1_555
Co0 Nd9 2.865996 1_555
Co0 Nd10 2.865996 1_555
Co0 Nd2 2.961383 1_555
Co0 Nd1 2.961392 1_555
Co0 Nd0 2.961392 1_555
Co1 Nd7 2.686993 1_554
Co1 Nd11 2.865996 1_555
Co1 Nd12 2.865996 1_555
Co1 Nd13 2.865996 1_555
Co1 Nd5 2.961383 1_554
Co1 Nd3 2.961392 1_554
Co1 Nd4 2.961392 1_554
