# generated using pymatgen
data_Mg5Si6
_symmetry_space_group_name_H-M   'P 1'
_cell_length_a   14.82066031
_cell_length_b   14.82066031
_cell_length_c   6.83674229
_cell_angle_alpha   82.47889950
_cell_angle_beta   82.47889950
_cell_angle_gamma   15.56761837
_symmetry_Int_Tables_number   1
_chemical_formula_structural   Mg5Si6
_chemical_formula_sum   'Mg10 Si12'
_cell_volume   399.48806795
_cell_formula_units_Z   2
loop_
 _symmetry_equiv_pos_site_id
 _symmetry_equiv_pos_as_xyz
  1  'x, y, z'
loop_
 _atom_site_type_symbol
 _atom_site_label
 _atom_site_symmetry_multiplicity
 _atom_site_fract_x
 _atom_site_fract_y
 _atom_site_fract_z
 _atom_site_occupancy
  Mg  Mg0  1  0.69959200  0.69959200  0.19039800  1
  Mg  Mg1  1  0.44177300  0.44177300  0.42767500  1
  Mg  Mg2  1  0.02406900  0.02406900  0.49331900  1
  Mg  Mg3  1  0.86313900  0.86313900  0.27850900  1
  Mg  Mg4  1  0.27193300  0.27193300  0.34947600  1
  Mg  Mg5  1  0.06497900  0.06497900  0.91458000  1
  Mg  Mg6  1  0.97085900  0.97085900  0.09618000  1
  Mg  Mg7  1  0.90895300  0.90895300  0.74869500  1
  Mg  Mg8  1  0.23067900  0.23067900  0.84439600  1
  Mg  Mg9  1  0.14864500  0.14864500  0.51529100  1
  Si  Si0  1  0.65080200  0.65080200  0.83069100  1
  Si  Si1  1  0.71573700  0.71573700  0.56740300  1
  Si  Si2  1  0.41296300  0.41296300  0.04229200  1
  Si  Si3  1  0.48515500  0.48515500  0.78812800  1
  Si  Si4  1  0.14273300  0.14273300  0.08773100  1
  Si  Si5  1  0.78835800  0.78835800  0.01987800  1
  Si  Si6  1  0.34642100  0.34642100  0.58977300  1
  Si  Si7  1  0.52742100  0.52742100  0.18316200  1
  Si  Si8  1  0.60126800  0.60126800  0.28840300  1
  Si  Si9  1  0.79461800  0.79461800  0.64211600  1
  Si  Si10  1  0.33702100  0.33702100  0.95636200  1
  Si  Si11  1  0.58357500  0.58357500  0.64191200  1
loop_
_geom_bond_atom_site_label_1
_geom_bond_atom_site_label_2
_geom_bond_distance
_geom_bond_site_symmetry_2
Mg0 Si1 2.681633 1_555
Mg0 Si5 2.711462 1_555
Mg0 Si4 2.760395 1_565
Mg0 Si4 2.760395 1_655
Mg0 Si8 2.876799 1_555
Mg0 Si0 3.005321 1_554
Mg1 Si7 2.830262 1_555
Mg1 Si2 2.871737 1_555
Mg1 Si6 2.872276 1_555
Mg1 Si3 2.919873 1_555
Mg1 Mg7 3.035783 1_455
Mg1 Mg7 3.035783 1_545
Mg2 Si7 2.912033 1_545
Mg2 Si7 2.912033 1_455
Mg2 Si11 2.929881 1_455
Mg2 Si11 2.929881 1_545
Mg2 Si3 2.964604 1_455
Mg2 Si3 2.964604 1_545
Mg2 Si8 3.208220 1_545
Mg2 Si8 3.208220 1_455
Mg3 Si2 2.855490 1_565
Mg3 Si2 2.855490 1_655
Mg3 Si6 2.919341 1_655
Mg3 Si6 2.919341 1_565
Mg3 Si9 2.984529 1_555
Mg3 Si5 2.995957 1_555
Mg3 Si10 3.148724 1_564
Mg3 Si10 3.148724 1_654
Mg4 Si1 2.884947 1_455
Mg4 Si1 2.884947 1_545
Mg4 Si6 2.904137 1_555
Mg4 Si9 2.971174 1_455
Mg4 Si9 2.971174 1_545
Mg4 Si5 3.008692 1_455
Mg4 Si5 3.008692 1_545
Mg4 Si10 3.085417 1_554
Mg5 Si4 2.707385 1_556
Mg5 Si11 2.744703 1_455
Mg5 Si11 2.744703 1_545
Mg5 Si7 2.842930 1_456
Mg5 Si7 2.842930 1_546
Mg5 Si0 3.213843 1_455
Mg5 Si0 3.213843 1_545
Mg6 Si2 2.687248 1_655
Mg6 Si2 2.687248 1_565
Mg6 Si7 2.720846 1_655
Mg6 Si7 2.720846 1_565
Mg6 Si3 2.899520 1_654
Mg6 Si3 2.899520 1_564
Mg6 Mg7 3.176530 1_554
Mg7 Si2 2.852087 1_566
Mg7 Si2 2.852087 1_656
Mg7 Si6 3.018160 1_565
Mg7 Si6 3.018160 1_655
Mg7 Si3 3.044568 1_565
Mg7 Si3 3.044568 1_655
Mg7 Si10 3.116893 1_655
Mg7 Si10 3.116893 1_565
Mg8 Si1 2.833262 1_455
Mg8 Si1 2.833262 1_545
Mg8 Si4 2.881540 1_556
Mg8 Si9 2.963351 1_455
Mg8 Si9 2.963351 1_545
Mg8 Si5 2.979047 1_546
Mg8 Si5 2.979047 1_456
Mg8 Si0 3.098205 1_455
Mg8 Si0 3.098205 1_545
Mg9 Si11 2.827227 1_545
Mg9 Si11 2.827227 1_455
Mg9 Si1 2.867719 1_455
Mg9 Si1 2.867719 1_545
Mg9 Si4 2.951078 1_555
Mg9 Si0 2.952762 1_455
Mg9 Si0 2.952762 1_545
Mg9 Si8 2.990211 1_545
Mg9 Si8 2.990211 1_455
Si0 Si1 2.443334 1_555
Si0 Si11 2.497399 1_555
Si0 Si4 2.657691 1_566
Si0 Si4 2.657691 1_656
Si1 Si9 2.437245 1_555
Si2 Si3 2.557553 1_554
Si4 Si8 2.636808 1_455
Si4 Si8 2.636808 1_545
Si5 Si9 2.564856 1_554
Si6 Si9 2.515509 1_455
Si6 Si9 2.515509 1_545
Si7 Si8 2.373494 1_555
Si10 Si2 2.380226 1_556
Si10 Si5 2.469025 1_456
Si10 Si5 2.469025 1_546
Si10 Si6 2.484917 1_555
Si11 Si8 2.404028 1_555
