# generated using pymatgen
data_Ca2AlZn16
_symmetry_space_group_name_H-M   'P 1'
_cell_length_a   6.76307468
_cell_length_b   6.76307468
_cell_length_c   6.76307485
_cell_angle_alpha   82.91020395
_cell_angle_beta   82.91020395
_cell_angle_gamma   82.91019247
_symmetry_Int_Tables_number   1
_chemical_formula_structural   Ca2AlZn16
_chemical_formula_sum   'Ca2 Al1 Zn16'
_cell_volume   302.78110729
_cell_formula_units_Z   1
loop_
 _symmetry_equiv_pos_site_id
 _symmetry_equiv_pos_as_xyz
  1  'x, y, z'
loop_
 _atom_site_type_symbol
 _atom_site_label
 _atom_site_symmetry_multiplicity
 _atom_site_fract_x
 _atom_site_fract_y
 _atom_site_fract_z
 _atom_site_occupancy
  Ca  Ca0  1  0.66200047  0.66200047  0.66200047  1
  Ca  Ca1  1  0.33920985  0.33920985  0.33920985  1
  Al  Al0  1  0.09624810  0.09624810  0.09624810  1
  Zn  Zn0  1  0.34912434  0.83992736  0.34912434  1
  Zn  Zn1  1  0.34912434  0.34912434  0.83992736  1
  Zn  Zn2  1  0.83992736  0.34912434  0.34912434  1
  Zn  Zn3  1  0.65152546  0.16093457  0.65152546  1
  Zn  Zn4  1  0.65152546  0.65152546  0.16093457  1
  Zn  Zn5  1  0.16093457  0.65152546  0.65152546  1
  Zn  Zn6  1  0.29664274  0.70339674  0.00000791  1
  Zn  Zn7  1  0.00000791  0.29664274  0.70339674  1
  Zn  Zn8  1  0.70339674  0.00000791  0.29664274  1
  Zn  Zn9  1  0.00000791  0.70339674  0.29664274  1
  Zn  Zn10  1  0.29664274  0.00000791  0.70339674  1
  Zn  Zn11  1  0.70339674  0.29664274  0.00000791  1
  Zn  Zn12  1  0.99958317  0.99958317  0.50145929  1
  Zn  Zn13  1  0.50145929  0.99958317  0.99958317  1
  Zn  Zn14  1  0.99958317  0.50145929  0.99958317  1
  Zn  Zn15  1  0.89966066  0.89966066  0.89966066  1
loop_
_geom_bond_atom_site_label_1
_geom_bond_atom_site_label_2
_geom_bond_distance
_geom_bond_site_symmetry_2
Ca0 Zn15 3.108625 1_555
Ca0 Zn7 3.162669 1_655
Ca0 Zn10 3.162669 1_565
Ca0 Zn11 3.162669 1_556
Ca0 Zn6 3.162669 1_556
Ca0 Zn9 3.162670 1_655
Ca0 Zn8 3.162670 1_565
Ca0 Zn2 3.201740 1_555
Ca0 Zn0 3.201740 1_555
Ca0 Zn1 3.201740 1_555
Ca0 Zn5 3.358475 1_655
Ca0 Zn3 3.358475 1_565
Ca0 Zn4 3.358475 1_556
Ca0 Zn5 3.407844 1_555
Ca0 Zn3 3.407844 1_555
Ca0 Zn4 3.407844 1_555
Ca0 Zn13 3.415672 1_555
Ca0 Zn14 3.415672 1_555
Ca0 Zn12 3.415672 1_555
Ca1 Zn9 3.163105 1_555
Ca1 Zn8 3.163105 1_555
Ca1 Zn11 3.163106 1_555
Ca1 Zn6 3.163106 1_555
Ca1 Zn10 3.163106 1_555
Ca1 Zn7 3.163106 1_555
Ca1 Zn5 3.196967 1_555
Ca1 Zn3 3.196967 1_555
Ca1 Zn4 3.196967 1_555
Ca1 Zn0 3.361595 1_545
Ca1 Zn2 3.361595 1_455
Ca1 Zn1 3.361595 1_554
Ca1 Zn2 3.404386 1_555
Ca1 Zn0 3.404386 1_555
Ca1 Zn1 3.404386 1_555
Ca1 Zn13 3.437117 1_544
Ca1 Zn14 3.437117 1_454
Ca1 Zn12 3.437118 1_445
Al0 Zn15 2.571388 1_444
Al0 Zn14 2.754265 1_454
Al0 Zn13 2.754265 1_544
Al0 Zn12 2.754265 1_445
Al0 Zn2 2.848354 1_455
Al0 Zn0 2.848354 1_545
Al0 Zn1 2.848354 1_554
Al0 Zn6 2.939342 1_545
Al0 Zn11 2.939342 1_455
Al0 Zn10 2.939342 1_554
Al0 Zn7 2.939342 1_554
Al0 Zn8 2.939342 1_455
Al0 Zn9 2.939342 1_545
Al0 Ca1 3.177970 1_555
Zn0 Zn4 2.557458 1_555
Zn0 Zn5 2.557458 1_555
Zn0 Zn12 2.618967 1_455
Zn0 Zn13 2.618968 1_554
Zn0 Zn10 2.715565 1_565
Zn0 Zn8 2.715566 1_565
Zn0 Zn6 2.716492 1_555
Zn0 Zn9 2.716492 1_555
Zn1 Zn3 2.557458 1_555
Zn1 Zn5 2.557458 1_555
Zn1 Zn13 2.618967 1_545
Zn1 Zn14 2.618967 1_455
Zn1 Zn11 2.715565 1_556
Zn1 Zn6 2.715565 1_556
Zn1 Zn7 2.716492 1_555
Zn1 Zn10 2.716492 1_555
Zn2 Zn4 2.557458 1_555
Zn2 Zn3 2.557458 1_555
Zn2 Zn7 2.715565 1_655
Zn2 Zn9 2.715566 1_655
Zn2 Zn8 2.716492 1_555
Zn3 Zn7 2.708788 1_655
Zn3 Zn8 2.722276 1_555
Zn4 Zn9 2.708788 1_655
Zn4 Zn8 2.708788 1_565
Zn4 Zn6 2.722276 1_555
Zn5 Zn6 2.708788 1_556
Zn5 Zn9 2.722276 1_555
Zn5 Zn7 2.722276 1_555
Zn6 Zn9 2.656293 1_555
Zn8 Zn9 2.656081 1_645
Zn10 Zn12 2.565368 1_445
Zn10 Zn13 2.571736 1_545
Zn10 Zn6 2.656081 1_546
Zn10 Zn7 2.656292 1_555
Zn10 Zn5 2.708788 1_545
Zn10 Zn3 2.722276 1_555
Zn10 Zn15 2.962836 1_445
Zn11 Zn13 2.565368 1_544
Zn11 Zn14 2.571736 1_554
Zn11 Zn7 2.656081 1_654
Zn11 Zn8 2.656293 1_555
Zn11 Zn3 2.708788 1_554
Zn11 Zn2 2.716492 1_555
Zn11 Zn4 2.722276 1_555
Zn11 Zn15 2.962836 1_544
Zn12 Zn7 2.565368 1_665
Zn12 Zn9 2.571736 1_655
Zn12 Zn8 2.571736 1_565
Zn12 Zn3 2.609872 1_565
Zn12 Zn5 2.609872 1_655
Zn12 Zn2 2.618967 1_565
Zn12 Zn15 2.716653 1_555
Zn13 Zn8 2.565368 1_566
Zn13 Zn6 2.571736 1_556
Zn13 Zn4 2.609872 1_556
Zn13 Zn3 2.609873 1_565
Zn13 Zn15 2.716653 1_555
Zn14 Zn9 2.565368 1_656
Zn14 Zn6 2.565368 1_656
Zn14 Zn7 2.571736 1_655
Zn14 Zn4 2.609872 1_556
Zn14 Zn5 2.609873 1_655
Zn14 Zn2 2.618968 1_556
Zn14 Zn15 2.716653 1_555
Zn15 Zn3 2.825945 1_565
Zn15 Zn5 2.825945 1_655
Zn15 Zn4 2.825945 1_556
Zn15 Zn6 2.962836 1_656
Zn15 Zn9 2.962836 1_656
Zn15 Zn8 2.962836 1_566
Zn15 Zn7 2.962836 1_665
