# generated using pymatgen
data_Bi
_symmetry_space_group_name_H-M   'P 1'
_cell_length_a   6.68929544
_cell_length_b   9.45691665
_cell_length_c   9.45691528
_cell_angle_alpha   83.71017624
_cell_angle_beta   70.95910368
_cell_angle_gamma   70.95910703
_symmetry_Int_Tables_number   1
_chemical_formula_structural   Bi
_chemical_formula_sum   Bi16
_cell_volume   534.56829946
_cell_formula_units_Z   16
loop_
 _symmetry_equiv_pos_site_id
 _symmetry_equiv_pos_as_xyz
  1  'x, y, z'
loop_
 _atom_site_type_symbol
 _atom_site_label
 _atom_site_symmetry_multiplicity
 _atom_site_fract_x
 _atom_site_fract_y
 _atom_site_fract_z
 _atom_site_occupancy
  Bi  Bi0_0  1  0.43637893  0.12481817  0.12481817  1
  Bi  Bi0_1  1  0.43637893  0.12481817  0.62481817  1
  Bi  Bi0_2  1  0.43637894  0.62481817  0.12481817  1
  Bi  Bi0_3  1  0.43637893  0.62481817  0.62481817  1
  Bi  Bi0_4  1  0.93637893  0.12481817  0.12481817  1
  Bi  Bi0_5  1  0.93637894  0.12481817  0.62481817  1
  Bi  Bi0_6  1  0.93637893  0.62481817  0.12481817  1
  Bi  Bi0_7  1  0.93637894  0.62481817  0.62481817  1
  Bi  Bi1_0  1  0.06362107  0.37518183  0.37518183  1
  Bi  Bi1_1  1  0.06362107  0.37518183  0.87518183  1
  Bi  Bi1_2  1  0.06362107  0.87518183  0.37518183  1
  Bi  Bi1_3  1  0.06362107  0.87518183  0.87518183  1
  Bi  Bi1_4  1  0.56362106  0.37518183  0.37518183  1
  Bi  Bi1_5  1  0.56362106  0.37518183  0.87518183  1
  Bi  Bi1_6  1  0.56362107  0.87518183  0.37518183  1
  Bi  Bi1_7  1  0.56362106  0.87518183  0.87518183  1
loop_
_geom_bond_atom_site_label_1
_geom_bond_atom_site_label_2
_geom_bond_distance
_geom_bond_site_symmetry_2
Bi0_0 Bi1_7 3.235755 1_544
Bi0_0 Bi1_5 3.268442 1_554
Bi0_0 Bi1_6 3.268442 1_545
Bi0_0 Bi1_0 3.309575 1_555
Bi0_0 Bi0_4 3.344648 1_555
Bi0_0 Bi0_4 3.344648 1_455
Bi0_1 Bi1_6 3.235755 1_545
Bi0_1 Bi1_4 3.268442 1_555
Bi0_1 Bi1_7 3.268442 1_545
Bi0_1 Bi1_1 3.309575 1_555
Bi0_1 Bi0_5 3.344648 1_455
Bi0_1 Bi0_5 3.344648 1_555
Bi0_2 Bi1_5 3.235755 1_554
Bi0_2 Bi1_7 3.268442 1_554
Bi0_2 Bi1_4 3.268442 1_555
Bi0_2 Bi1_2 3.309575 1_555
Bi0_2 Bi0_6 3.344648 1_555
Bi0_2 Bi0_6 3.344648 1_455
Bi0_3 Bi1_4 3.235755 1_555
Bi0_3 Bi1_6 3.268442 1_555
Bi0_3 Bi1_5 3.268442 1_555
Bi0_3 Bi1_3 3.309575 1_555
Bi0_3 Bi0_7 3.344648 1_455
Bi0_3 Bi0_7 3.344648 1_555
Bi0_4 Bi1_3 3.235755 1_644
Bi0_4 Bi1_1 3.268442 1_654
Bi0_4 Bi1_2 3.268442 1_645
Bi0_4 Bi1_4 3.309575 1_555
Bi0_5 Bi1_2 3.235755 1_645
Bi0_5 Bi1_0 3.268442 1_655
Bi0_5 Bi1_3 3.268442 1_645
Bi0_5 Bi1_5 3.309575 1_555
Bi0_6 Bi1_1 3.235755 1_654
Bi0_6 Bi1_3 3.268442 1_654
Bi0_6 Bi1_0 3.268442 1_655
Bi0_6 Bi1_6 3.309575 1_555
Bi0_7 Bi1_0 3.235755 1_655
Bi0_7 Bi1_2 3.268442 1_655
Bi0_7 Bi1_1 3.268442 1_655
Bi0_7 Bi1_7 3.309575 1_555
Bi1_0 Bi1_4 3.344648 1_555
Bi1_0 Bi1_4 3.344648 1_455
Bi1_1 Bi1_5 3.344648 1_555
Bi1_1 Bi1_5 3.344648 1_455
Bi1_2 Bi1_6 3.344648 1_455
Bi1_2 Bi1_6 3.344648 1_555
Bi1_3 Bi1_7 3.344648 1_555
Bi1_3 Bi1_7 3.344648 1_455
