# generated using pymatgen
data_Mg14CdCuO16
_symmetry_space_group_name_H-M   'P 1'
_cell_length_a   8.70302185
_cell_length_b   8.54023807
_cell_length_c   4.29428554
_cell_angle_alpha   90.00000000
_cell_angle_beta   90.00000000
_cell_angle_gamma   90.00000000
_symmetry_Int_Tables_number   1
_chemical_formula_structural   Mg14CdCuO16
_chemical_formula_sum   'Mg14 Cd1 Cu1 O16'
_cell_volume   319.17654541
_cell_formula_units_Z   1
loop_
 _symmetry_equiv_pos_site_id
 _symmetry_equiv_pos_as_xyz
  1  'x, y, z'
loop_
 _atom_site_type_symbol
 _atom_site_label
 _atom_site_symmetry_multiplicity
 _atom_site_fract_x
 _atom_site_fract_y
 _atom_site_fract_z
 _atom_site_occupancy
  Mg  Mg0  1  0.50000000  -0.00000000  0.00000000  1
  Mg  Mg1  1  0.50000000  0.50000000  0.00000000  1
  Mg  Mg2  1  0.00000000  0.24272388  0.50000000  1
  Mg  Mg3  1  0.00000000  0.75727612  0.50000000  1
  Mg  Mg4  1  0.50000000  0.24841227  0.50000000  1
  Mg  Mg5  1  0.50000000  0.75158773  0.50000000  1
  Mg  Mg6  1  0.25109802  -0.00000000  0.50000000  1
  Mg  Mg7  1  0.25635211  0.50000000  0.50000000  1
  Mg  Mg8  1  0.74890198  -0.00000000  0.50000000  1
  Mg  Mg9  1  0.74364789  0.50000000  0.50000000  1
  Mg  Mg10  1  0.25371337  0.24500857  -0.00000000  1
  Mg  Mg11  1  0.25371337  0.75499143  0.00000000  1
  Mg  Mg12  1  0.74628663  0.24500857  -0.00000000  1
  Mg  Mg13  1  0.74628663  0.75499143  -0.00000000  1
  Cd  Cd0  1  0.00000000  0.50000000  0.00000000  1
  Cu  Cu0  1  0.00000000  -0.00000000  0.00000000  1
  O  O0  1  0.26363556  -0.00000000  0.00000000  1
  O  O1  1  0.26386933  0.50000000  0.00000000  1
  O  O2  1  0.73636444  -0.00000000  0.00000000  1
  O  O3  1  0.73613067  0.50000000  0.00000000  1
  O  O4  1  0.24800309  0.25037545  0.50000000  1
  O  O5  1  0.24800309  0.74962455  0.50000000  1
  O  O6  1  0.75199691  0.25037545  0.50000000  1
  O  O7  1  0.75199691  0.74962455  0.50000000  1
  O  O8  1  0.00000000  -0.00000000  0.50000000  1
  O  O9  1  0.00000000  0.50000000  0.50000000  1
  O  O10  1  0.50000000  -0.00000000  0.50000000  1
  O  O11  1  0.50000000  0.50000000  0.50000000  1
  O  O12  1  0.00000000  0.23166659  -0.00000000  1
  O  O13  1  0.00000000  0.76833341  0.00000000  1
  O  O14  1  0.50000000  0.24981787  0.00000000  1
  O  O15  1  0.50000000  0.75018213  0.00000000  1
loop_
_geom_bond_atom_site_label_1
_geom_bond_atom_site_label_2
_geom_bond_distance
_geom_bond_site_symmetry_2
Mg0 O0 2.057085 1_555
Mg0 O2 2.057085 1_555
Mg0 O15 2.133504 1_545
Mg0 O14 2.133504 1_555
Mg0 O10 2.147143 1_555
Mg0 O10 2.147143 1_554
Mg1 O3 2.055050 1_555
Mg1 O1 2.055050 1_555
Mg1 O14 2.136615 1_555
Mg1 O15 2.136615 1_555
Mg1 O11 2.147143 1_554
Mg1 O11 2.147143 1_555
Mg2 O8 2.072920 1_555
Mg2 O12 2.149218 1_555
Mg2 O12 2.149218 1_556
Mg2 O4 2.159365 1_555
Mg2 O6 2.159365 1_455
Mg2 O9 2.197199 1_555
Mg3 O8 2.072920 1_565
Mg3 O13 2.149218 1_556
Mg3 O13 2.149218 1_555
Mg3 O7 2.159365 1_455
Mg3 O5 2.159365 1_555
Mg3 O9 2.197199 1_555
Mg4 O10 2.121500 1_555
Mg4 O14 2.147176 1_556
Mg4 O14 2.147176 1_555
Mg4 O11 2.148619 1_555
Mg4 O4 2.193199 1_555
Mg4 O6 2.193199 1_555
Mg5 O10 2.121500 1_565
Mg5 O15 2.147176 1_556
Mg5 O15 2.147176 1_555
Mg5 O11 2.148619 1_555
Mg5 O5 2.193199 1_555
Mg5 O7 2.193199 1_555
Mg6 O4 2.138436 1_555
Mg6 O5 2.138436 1_545
Mg6 O0 2.149913 1_555
Mg6 O0 2.149913 1_556
Mg6 O10 2.166199 1_555
Mg6 O8 2.185312 1_555
Mg7 O11 2.120473 1_555
Mg7 O5 2.133091 1_555
Mg7 O4 2.133091 1_555
Mg7 O1 2.148139 1_556
Mg7 O1 2.148139 1_555
Mg7 O9 2.231038 1_555
Mg8 O6 2.138436 1_555
Mg8 O7 2.138436 1_545
Mg8 O2 2.149913 1_555
Mg8 O2 2.149913 1_556
Mg8 O10 2.166199 1_555
Mg8 O8 2.185312 1_655
Mg9 O11 2.120473 1_555
Mg9 O7 2.133091 1_555
Mg9 O6 2.133091 1_555
Mg9 O3 2.148139 1_556
Mg9 O3 2.148139 1_555
Mg9 O9 2.231038 1_655
Mg10 O0 2.094213 1_555
Mg10 O14 2.143831 1_555
Mg10 O4 2.148207 1_554
Mg10 O4 2.148207 1_555
Mg10 O1 2.179481 1_555
Mg10 O12 2.211011 1_555
Mg11 O0 2.094213 1_565
Mg11 O15 2.143831 1_555
Mg11 O5 2.148207 1_554
Mg11 O5 2.148207 1_555
Mg11 O1 2.179481 1_555
Mg11 O13 2.211011 1_555
Mg12 O2 2.094213 1_555
Mg12 O14 2.143831 1_555
Mg12 O6 2.148207 1_555
Mg12 O6 2.148207 1_554
Mg12 O3 2.179481 1_555
Mg12 O12 2.211011 1_655
Mg13 O2 2.094213 1_565
Mg13 O15 2.143831 1_555
Mg13 O7 2.148207 1_554
Mg13 O7 2.148207 1_555
Mg13 O3 2.179481 1_555
Mg13 O13 2.211011 1_655
Cd0 O9 2.147143 1_555
Cd0 O9 2.147143 1_554
Cd0 O12 2.291631 1_555
Cd0 O13 2.291631 1_555
Cd0 O1 2.296461 1_555
Cd0 O3 2.296461 1_455
Cu0 O13 1.978488 1_545
Cu0 O12 1.978488 1_555
Cu0 O8 2.147143 1_555
Cu0 O8 2.147143 1_554
Cu0 O0 2.294426 1_555
Cu0 O2 2.294426 1_455
