# generated using pymatgen
data_Tm2MgSe4
_symmetry_space_group_name_H-M   'P 1'
_cell_length_a   8.06502200
_cell_length_b   7.72480500
_cell_length_c   11.94541300
_cell_angle_alpha   90.00000000
_cell_angle_beta   90.00000000
_cell_angle_gamma   90.00000000
_symmetry_Int_Tables_number   1
_chemical_formula_structural   Tm2MgSe4
_chemical_formula_sum   'Tm8 Mg4 Se16'
_cell_volume   744.20785772
_cell_formula_units_Z   4
loop_
 _symmetry_equiv_pos_site_id
 _symmetry_equiv_pos_as_xyz
  1  'x, y, z'
loop_
 _atom_site_type_symbol
 _atom_site_label
 _atom_site_symmetry_multiplicity
 _atom_site_fract_x
 _atom_site_fract_y
 _atom_site_fract_z
 _atom_site_occupancy
  Tm  Tm0  1  0.05963800  0.75000000  0.30967000  1
  Tm  Tm1  1  0.94036200  0.25000000  0.69033000  1
  Tm  Tm2  1  0.44036200  0.25000000  0.80967000  1
  Tm  Tm3  1  0.55963800  0.75000000  0.19033000  1
  Tm  Tm4  1  0.05082100  0.25000000  0.01651200  1
  Tm  Tm5  1  0.94917900  0.75000000  0.98348800  1
  Tm  Tm6  1  0.44917900  0.75000000  0.51651200  1
  Tm  Tm7  1  0.55082100  0.25000000  0.48348800  1
  Mg  Mg0  1  0.17189600  0.25000000  0.40090200  1
  Mg  Mg1  1  0.82810400  0.75000000  0.59909800  1
  Mg  Mg2  1  0.32810400  0.75000000  0.90090200  1
  Mg  Mg3  1  0.67189600  0.25000000  0.09909800  1
  Se  Se0  1  0.12062200  0.50520400  0.84099100  1
  Se  Se1  1  0.87937800  0.49479600  0.15900900  1
  Se  Se2  1  0.37937800  0.49479600  0.34099100  1
  Se  Se3  1  0.62062200  0.50520400  0.65900900  1
  Se  Se4  1  0.62062200  0.99479600  0.65900900  1
  Se  Se5  1  0.37937800  0.00520400  0.34099100  1
  Se  Se6  1  0.87937800  0.00520400  0.15900900  1
  Se  Se7  1  0.12062200  0.99479600  0.84099100  1
  Se  Se8  1  0.87959400  0.25000000  0.46009500  1
  Se  Se9  1  0.12040600  0.75000000  0.53990500  1
  Se  Se10  1  0.62040600  0.75000000  0.96009500  1
  Se  Se11  1  0.37959400  0.25000000  0.03990500  1
  Se  Se12  1  0.23737200  0.75000000  0.11322900  1
  Se  Se13  1  0.76262800  0.25000000  0.88677100  1
  Se  Se14  1  0.26262800  0.25000000  0.61322900  1
  Se  Se15  1  0.73737200  0.75000000  0.38677100  1
loop_
_geom_bond_atom_site_label_1
_geom_bond_atom_site_label_2
_geom_bond_distance
_geom_bond_site_symmetry_2
Mg0 Se8 2.461180 1_455
Mg0 Se2 2.624528 1_555
Mg0 Se5 2.624528 1_555
Mg0 Se14 2.639783 1_555
Mg1 Se9 2.461180 1_655
Mg1 Se4 2.624528 1_555
Mg1 Se3 2.624528 1_555
Mg1 Se15 2.639783 1_555
Mg2 Se10 2.461180 1_555
Mg2 Se7 2.624528 1_555
Mg2 Se0 2.624528 1_555
Mg2 Se12 2.639783 1_556
Mg3 Se11 2.461180 1_555
Mg3 Se1 2.624528 1_555
Mg3 Se6 2.624528 1_555
Mg3 Se13 2.639783 1_554
Se0 Tm5 2.895714 1_455
Se0 Tm4 2.932467 1_556
Se0 Tm1 3.039557 1_455
Se0 Tm2 3.267438 1_555
Se1 Tm4 2.895714 1_655
Se1 Tm5 2.932467 1_554
Se1 Tm0 3.039557 1_655
Se1 Tm3 3.267438 1_555
Se2 Tm7 2.895714 1_555
Se2 Tm6 2.932467 1_555
Se2 Tm3 3.039557 1_555
Se2 Tm0 3.267438 1_555
Se3 Tm6 2.895714 1_555
Se3 Tm7 2.932467 1_555
Se3 Tm2 3.039557 1_555
Se3 Tm1 3.267438 1_555
Se4 Tm6 2.895714 1_555
Se4 Tm7 2.932467 1_565
Se4 Tm2 3.039557 1_565
Se4 Tm1 3.267438 1_565
Se5 Tm7 2.895714 1_555
Se5 Tm6 2.932467 1_545
Se5 Tm3 3.039557 1_545
Se5 Tm0 3.267438 1_545
Se6 Tm4 2.895714 1_655
Se6 Tm5 2.932467 1_544
Se6 Tm0 3.039557 1_645
Se6 Tm3 3.267438 1_545
Se7 Tm5 2.895714 1_455
Se7 Tm4 2.932467 1_566
Se7 Tm1 3.039557 1_465
Se7 Tm2 3.267438 1_565
Se8 Tm7 2.666245 1_555
Se8 Tm1 2.793578 1_555
Se9 Tm6 2.666245 1_555
Se9 Tm0 2.793578 1_555
Se10 Tm5 2.666245 1_555
Se10 Tm3 2.793578 1_556
Se11 Tm4 2.666245 1_555
Se11 Tm2 2.793578 1_554
Se12 Tm0 2.749746 1_555
Se12 Tm3 2.757440 1_555
Se12 Tm5 2.793600 1_454
Se13 Tm1 2.749746 1_555
Se13 Tm2 2.757440 1_555
Se13 Tm4 2.793600 1_656
Se14 Tm2 2.749746 1_555
Se14 Tm1 2.757440 1_455
Se14 Tm7 2.793600 1_555
Se15 Tm3 2.749746 1_555
Se15 Tm0 2.757440 1_655
Se15 Tm6 2.793600 1_555
