# generated using pymatgen
data_CeMg6Sb
_symmetry_space_group_name_H-M   'P 1'
_cell_length_a   5.27458600
_cell_length_b   6.31014800
_cell_length_c   11.91519000
_cell_angle_alpha   90.00000000
_cell_angle_beta   90.00000000
_cell_angle_gamma   90.00000000
_symmetry_Int_Tables_number   1
_chemical_formula_structural   CeMg6Sb
_chemical_formula_sum   'Ce2 Mg12 Sb2'
_cell_volume   396.57825288
_cell_formula_units_Z   2
loop_
 _symmetry_equiv_pos_site_id
 _symmetry_equiv_pos_as_xyz
  1  'x, y, z'
loop_
 _atom_site_type_symbol
 _atom_site_label
 _atom_site_symmetry_multiplicity
 _atom_site_fract_x
 _atom_site_fract_y
 _atom_site_fract_z
 _atom_site_occupancy
  Ce  Ce0  1  0.50000000  0.50000000  0.67371000  1
  Ce  Ce1  1  0.50000000  0.00000000  0.17371000  1
  Mg  Mg0  1  0.50000000  0.74813800  0.92102800  1
  Mg  Mg1  1  0.50000000  0.25186200  0.92102800  1
  Mg  Mg2  1  0.00000000  0.25091900  0.57382100  1
  Mg  Mg3  1  0.00000000  0.74908100  0.57382100  1
  Mg  Mg4  1  0.00000000  0.50000000  0.83805900  1
  Mg  Mg5  1  0.00000000  0.00000000  0.83166300  1
  Mg  Mg6  1  0.50000000  0.24813800  0.42102800  1
  Mg  Mg7  1  0.50000000  0.75186200  0.42102800  1
  Mg  Mg8  1  0.00000000  0.75091900  0.07382100  1
  Mg  Mg9  1  0.00000000  0.24908100  0.07382100  1
  Mg  Mg10  1  0.00000000  0.00000000  0.33805900  1
  Mg  Mg11  1  0.00000000  0.50000000  0.33166300  1
  Sb  Sb0  1  0.50000000  0.00000000  0.66686600  1
  Sb  Sb1  1  0.50000000  0.50000000  0.16686600  1
loop_
_geom_bond_atom_site_label_1
_geom_bond_atom_site_label_2
_geom_bond_distance
_geom_bond_site_symmetry_2
Ce0 Sb0 3.156128 1_565
Ce0 Sb0 3.156128 1_555
Ce0 Mg4 3.284822 1_555
Ce0 Mg4 3.284822 1_655
Ce0 Mg3 3.292756 1_655
Ce0 Mg2 3.292756 1_655
Ce0 Mg3 3.292756 1_555
Ce0 Mg2 3.292756 1_555
Ce0 Mg1 3.336999 1_555
Ce0 Mg0 3.336999 1_555
Ce0 Mg7 3.404478 1_555
Ce0 Mg6 3.404478 1_555
Ce1 Sb1 3.156128 1_555
Ce1 Sb1 3.156128 1_545
Ce1 Mg10 3.284822 1_555
Ce1 Mg10 3.284822 1_655
Ce1 Mg9 3.292756 1_555
Ce1 Mg9 3.292756 1_655
Ce1 Mg8 3.292756 1_645
Ce1 Mg8 3.292756 1_545
Ce1 Mg6 3.336999 1_555
Ce1 Mg7 3.336999 1_545
Ce1 Mg1 3.404478 1_554
Ce1 Mg0 3.404478 1_544
Mg0 Mg1 3.131575 1_555
Mg0 Mg1 3.178573 1_565
Mg0 Mg8 3.204692 1_656
Mg0 Mg8 3.204692 1_556
Mg0 Mg4 3.222471 1_555
Mg0 Mg4 3.222471 1_655
Mg0 Mg5 3.258059 1_665
Mg0 Mg5 3.258059 1_565
Mg0 Sb1 3.321437 1_556
Mg0 Sb0 3.420083 1_565
Mg1 Mg9 3.204692 1_656
Mg1 Mg9 3.204692 1_556
Mg1 Mg4 3.222471 1_555
Mg1 Mg4 3.222471 1_655
Mg1 Mg5 3.258059 1_555
Mg1 Mg5 3.258059 1_655
Mg1 Sb1 3.321437 1_556
Mg1 Sb0 3.420083 1_555
Mg2 Mg3 3.143476 1_555
Mg2 Mg3 3.166672 1_545
Mg2 Mg6 3.204692 1_555
Mg2 Mg6 3.204692 1_455
Mg2 Sb0 3.269766 1_455
Mg2 Sb0 3.269766 1_555
Mg2 Mg5 3.456239 1_555
Mg2 Mg4 3.518959 1_555
Mg3 Mg7 3.204692 1_455
Mg3 Mg7 3.204692 1_555
Mg3 Sb0 3.269766 1_565
Mg3 Sb0 3.269766 1_465
Mg3 Mg5 3.456239 1_565
Mg3 Mg4 3.518959 1_555
Mg4 Mg5 3.155994 1_565
Mg4 Mg5 3.155994 1_555
Mg4 Mg9 3.224635 1_556
Mg4 Mg8 3.224635 1_556
Mg5 Mg8 3.285674 1_546
Mg5 Mg9 3.285674 1_556
Mg5 Sb0 3.288007 1_455
Mg5 Sb0 3.288007 1_555
Mg6 Mg7 3.131575 1_545
Mg6 Mg7 3.178573 1_555
Mg6 Sb0 3.321437 1_555
Mg6 Sb1 3.420083 1_555
Mg7 Sb0 3.321437 1_565
Mg7 Sb1 3.420083 1_555
Mg8 Mg9 3.143476 1_565
Mg8 Mg9 3.166672 1_555
Mg8 Sb1 3.269766 1_455
Mg8 Sb1 3.269766 1_555
Mg9 Sb1 3.269766 1_455
Mg9 Sb1 3.269766 1_555
Mg10 Mg11 3.155994 1_555
Mg10 Mg11 3.155994 1_545
Mg10 Mg6 3.222471 1_555
Mg10 Mg6 3.222471 1_455
Mg10 Mg7 3.222471 1_545
Mg10 Mg7 3.222471 1_445
Mg10 Mg3 3.224635 1_545
Mg10 Mg2 3.224635 1_555
Mg10 Mg9 3.518959 1_555
Mg10 Mg8 3.518959 1_545
Mg11 Mg7 3.258059 1_455
Mg11 Mg7 3.258059 1_555
Mg11 Mg6 3.258059 1_455
Mg11 Mg6 3.258059 1_555
Mg11 Mg2 3.285674 1_555
Mg11 Mg3 3.285674 1_555
Mg11 Sb1 3.288007 1_455
Mg11 Sb1 3.288007 1_555
Mg11 Mg8 3.456239 1_555
Mg11 Mg9 3.456239 1_555
