# generated using pymatgen
data_Li7Mn5O12
_symmetry_space_group_name_H-M   'P 1'
_cell_length_a   5.09217845
_cell_length_b   10.95645276
_cell_length_c   8.61356897
_cell_angle_alpha   104.89977794
_cell_angle_beta   106.41707798
_cell_angle_gamma   92.14208003
_symmetry_Int_Tables_number   1
_chemical_formula_structural   Li7Mn5O12
_chemical_formula_sum   'Li14 Mn10 O24'
_cell_volume   442.32728553
_cell_formula_units_Z   2
loop_
 _symmetry_equiv_pos_site_id
 _symmetry_equiv_pos_as_xyz
  1  'x, y, z'
loop_
 _atom_site_type_symbol
 _atom_site_label
 _atom_site_symmetry_multiplicity
 _atom_site_fract_x
 _atom_site_fract_y
 _atom_site_fract_z
 _atom_site_occupancy
  Li  Li0  1  0.98896700  0.24955800  0.24534100  1
  Li  Li1  1  0.01111500  0.75047800  0.75465700  1
  Li  Li2  1  0.49395800  0.12931400  0.96257900  1
  Li  Li3  1  0.49016200  0.61285700  0.45411700  1
  Li  Li4  1  0.50601400  0.87067600  0.03739700  1
  Li  Li5  1  0.50989600  0.38716500  0.54590200  1
  Li  Li6  1  0.51056400  0.37090800  0.20657900  1
  Li  Li7  1  0.52576800  0.87360100  0.71737000  1
  Li  Li8  1  0.48947200  0.62903800  0.79337000  1
  Li  Li9  1  0.47429300  0.12639400  0.28260200  1
  Li  Li10  1  0.51266200  0.38309800  0.87983500  1
  Li  Li11  1  0.51352500  0.87497900  0.37725900  1
  Li  Li12  1  0.48735200  0.61684400  0.12006000  1
  Li  Li13  1  0.48641900  0.12500900  0.62273800  1
  Mn  Mn0  1  0.99996700  0.50000000  0.49998900  1
  Mn  Mn1  1  0.00003800  0.00001800  0.99997800  1
  Mn  Mn2  1  0.98150200  0.24634000  0.91573900  1
  Mn  Mn3  1  0.01225200  0.74990000  0.42230300  1
  Mn  Mn4  1  0.01838300  0.75360500  0.08422600  1
  Mn  Mn5  1  0.98769200  0.24997800  0.57775500  1
  Mn  Mn6  1  0.99257700  0.49234300  0.16443200  1
  Mn  Mn7  1  0.99729100  0.99473700  0.66515400  1
  Mn  Mn8  1  0.00750700  0.50773500  0.83567400  1
  Mn  Mn9  1  0.00269100  0.00527600  0.33484800  1
  O  O0  1  0.22352500  0.44123100  0.35273800  1
  O  O1  1  0.22797000  0.94711600  0.85191300  1
  O  O2  1  0.77643900  0.55879400  0.64723200  1
  O  O3  1  0.77196100  0.05301200  0.14828200  1
  O  O4  1  0.20602600  0.17051500  0.08286900  1
  O  O5  1  0.22230200  0.66897000  0.58577700  1
  O  O6  1  0.79412900  0.82954200  0.91716900  1
  O  O7  1  0.77767500  0.33102700  0.41421500  1
  O  O8  1  0.24467700  0.69746800  0.27538500  1
  O  O9  1  0.19406300  0.17244400  0.75517900  1
  O  O10  1  0.75530600  0.30250000  0.72461400  1
  O  O11  1  0.80592700  0.82753000  0.24477400  1
  O  O12  1  0.22918700  0.44051900  0.01754300  1
  O  O13  1  0.23382400  0.94904400  0.52438600  1
  O  O14  1  0.77079600  0.55948700  0.98241800  1
  O  O15  1  0.76616000  0.05096200  0.47566800  1
  O  O16  1  0.23311400  0.44488700  0.68416900  1
  O  O17  1  0.23670900  0.95415100  0.19159200  1
  O  O18  1  0.76694100  0.55511000  0.31585600  1
  O  O19  1  0.76319400  0.04587100  0.80840000  1
  O  O20  1  0.25459500  0.69499900  0.95172800  1
  O  O21  1  0.20531200  0.17165800  0.43185800  1
  O  O22  1  0.74539200  0.30495700  0.04813200  1
  O  O23  1  0.79470800  0.82835700  0.56820000  1
loop_
_geom_bond_atom_site_label_1
_geom_bond_atom_site_label_2
_geom_bond_distance
_geom_bond_site_symmetry_2
Li0 O22 2.046433 1_555
Li0 O4 2.062243 1_655
Li0 O21 2.073219 1_655
Li0 O7 2.087827 1_555
Li0 O0 2.209410 1_655
Li0 O3 2.220685 1_555
Li1 O20 2.045842 1_555
Li1 O6 2.062276 1_455
Li1 O23 2.072800 1_455
Li1 O5 2.087590 1_555
Li1 O2 2.209746 1_455
Li1 O1 2.221251 1_555
Li2 O4 2.023548 1_556
Li2 O22 2.106879 1_556
Li2 O9 2.166289 1_555
Li2 O3 2.181222 1_556
Li2 O1 2.194924 1_545
Li2 O19 2.231060 1_555
Li3 O5 2.025598 1_555
Li3 O18 2.105465 1_555
Li3 O0 2.106306 1_555
Li3 O2 2.107956 1_555
Li3 O8 2.127182 1_555
Li3 O23 2.572389 1_555
Li4 O6 2.023927 1_554
Li4 O20 2.107084 1_554
Li4 O11 2.166278 1_555
Li4 O1 2.180997 1_554
Li4 O3 2.196049 1_565
Li4 O17 2.231530 1_555
Li5 O7 2.025458 1_555
Li5 O16 2.105463 1_555
Li5 O2 2.106093 1_555
Li5 O0 2.108483 1_555
Li5 O10 2.127295 1_555
Li5 O21 2.572547 1_555
Li6 O22 2.072351 1_555
Li6 O7 2.076280 1_555
Li6 O12 2.165071 1_555
Li6 O18 2.189749 1_555
Li6 O0 2.222735 1_555
Li6 O4 2.443200 1_555
Li7 O19 2.042435 1_565
Li7 O6 2.051689 1_555
Li7 O23 2.118965 1_555
Li7 O1 2.212703 1_555
Li7 O13 2.249023 1_555
Li7 O5 2.478603 1_555
Li8 O20 2.072006 1_555
Li8 O5 2.076391 1_555
Li8 O14 2.164639 1_555
Li8 O16 2.189250 1_555
Li8 O2 2.222115 1_555
Li8 O6 2.444437 1_555
Li9 O17 2.042562 1_545
Li9 O4 2.051399 1_555
Li9 O21 2.119700 1_555
Li9 O3 2.210573 1_555
Li9 O15 2.249227 1_555
Li9 O7 2.478431 1_555
Li10 O22 1.995473 1_556
Li10 O10 2.121854 1_555
Li10 O14 2.125772 1_555
Li10 O12 2.130364 1_556
Li10 O16 2.151249 1_555
Li10 O9 2.563768 1_555
Li11 O23 2.042462 1_555
Li11 O15 2.109249 1_565
Li11 O11 2.121975 1_555
Li11 O8 2.161268 1_555
Li11 O17 2.197181 1_555
Li11 O13 2.207023 1_555
Li12 O20 1.995829 1_554
Li12 O8 2.122671 1_555
Li12 O12 2.125295 1_555
Li12 O14 2.129724 1_554
Li12 O18 2.151776 1_555
Li12 O11 2.563983 1_555
Li13 O21 2.042065 1_555
Li13 O13 2.109002 1_545
Li13 O9 2.121497 1_555
Li13 O10 2.161195 1_555
Li13 O19 2.196833 1_555
Li13 O15 2.206817 1_555
Mn0 O2 1.941595 1_555
Mn0 O0 1.941715 1_655
Mn0 O18 1.941750 1_555
Mn0 O16 1.942302 1_655
Mn0 O7 1.980366 1_555
Mn0 O5 1.980430 1_655
Mn1 O17 1.943330 1_546
Mn1 O19 1.943367 1_455
Mn1 O1 1.953600 1_545
Mn1 O3 1.955868 1_456
Mn1 O6 1.960258 1_445
Mn1 O4 1.960588 1_556
Mn2 O22 1.901206 1_556
Mn2 O4 1.955876 1_656
Mn2 O10 1.979290 1_555
Mn2 O9 2.018816 1_655
Mn2 O12 2.258509 1_656
Mn2 O19 2.259887 1_555
Mn3 O5 1.942857 1_555
Mn3 O23 1.961614 1_455
Mn3 O8 1.963633 1_555
Mn3 O11 1.998282 1_455
Mn3 O13 2.252882 1_555
Mn3 O18 2.258964 1_455
Mn4 O20 1.902230 1_554
Mn4 O6 1.955690 1_454
Mn4 O8 1.979550 1_555
Mn4 O11 2.018420 1_455
Mn4 O14 2.257753 1_454
Mn4 O17 2.260639 1_555
Mn5 O7 1.944052 1_555
Mn5 O21 1.961467 1_655
Mn5 O10 1.963247 1_555
Mn5 O9 1.997027 1_655
Mn5 O15 2.251619 1_555
Mn5 O16 2.260259 1_655
Mn6 O0 1.940518 1_655
Mn6 O12 1.979472 1_655
Mn6 O14 1.982169 1_554
Mn6 O18 1.984737 1_555
Mn6 O22 2.199871 1_555
Mn6 O8 2.366137 1_655
Mn7 O1 1.910281 1_655
Mn7 O23 1.916835 1_555
Mn7 O13 1.931320 1_655
Mn7 O19 1.945029 1_565
Mn7 O15 1.978398 1_565
Mn7 O9 2.008680 1_665
Mn8 O2 1.941311 1_455
Mn8 O14 1.978848 1_455
Mn8 O12 1.981548 1_556
Mn8 O16 1.985310 1_555
Mn8 O20 2.198493 1_555
Mn8 O10 2.367341 1_455
Mn9 O3 1.909801 1_455
Mn9 O21 1.916945 1_555
Mn9 O15 1.931633 1_455
Mn9 O17 1.944754 1_545
Mn9 O13 1.978774 1_545
Mn9 O11 2.009027 1_445
