# generated using pymatgen
data_Yb2TiO5
_symmetry_space_group_name_H-M   'P 1'
_cell_length_a   7.32715700
_cell_length_b   7.38563170
_cell_length_c   18.12073735
_cell_angle_alpha   89.94040987
_cell_angle_beta   93.13428778
_cell_angle_gamma   119.68149447
_symmetry_Int_Tables_number   1
_chemical_formula_structural   Yb2TiO5
_chemical_formula_sum   'Yb16 Ti8 O40'
_cell_volume   850.29332197
_cell_formula_units_Z   8
loop_
 _symmetry_equiv_pos_site_id
 _symmetry_equiv_pos_as_xyz
  1  'x, y, z'
loop_
 _atom_site_type_symbol
 _atom_site_label
 _atom_site_symmetry_multiplicity
 _atom_site_fract_x
 _atom_site_fract_y
 _atom_site_fract_z
 _atom_site_occupancy
  Yb  Yb0  1  0.04538600  0.02334100  0.99858600  1
  Yb  Yb1  1  0.70448500  0.86129700  0.16480700  1
  Yb  Yb2  1  0.53920100  0.02108200  0.99343500  1
  Yb  Yb3  1  0.29913700  0.66989400  0.34238300  1
  Yb  Yb4  1  0.19440600  0.33473700  0.16465900  1
  Yb  Yb5  1  0.18392500  0.85060900  0.16186600  1
  Yb  Yb6  1  0.95613700  0.47770000  0.50857000  1
  Yb  Yb7  1  0.77669600  0.66436900  0.33849700  1
  Yb  Yb8  1  0.45032100  0.96447800  0.50599900  1
  Yb  Yb9  1  0.54337700  0.51907800  0.99253700  1
  Yb  Yb10  1  0.44937700  0.48626500  0.50642700  1
  Yb  Yb11  1  0.16057500  0.84709000  0.67490100  1
  Yb  Yb12  1  0.16009400  0.31449400  0.67493900  1
  Yb  Yb13  1  0.87319600  0.69560100  0.83429900  1
  Yb  Yb14  1  0.83545700  0.15374500  0.33787200  1
  Yb  Yb15  1  0.87233800  0.18065900  0.83425100  1
  Ti  Ti0  1  0.09968500  0.55053800  0.96421200  1
  Ti  Ti1  1  0.60135200  0.30136100  0.65482500  1
  Ti  Ti2  1  0.66059900  0.31150200  0.18031900  1
  Ti  Ti3  1  0.30849800  0.15491700  0.82076200  1
  Ti  Ti4  1  0.42624300  0.20508500  0.32706300  1
  Ti  Ti5  1  0.90383300  0.95039100  0.53617500  1
  Ti  Ti6  1  0.59682100  0.79886100  0.66727900  1
  Ti  Ti7  1  0.33541500  0.66806100  0.81078000  1
  O  O0  1  0.40519400  0.70483700  0.22609200  1
  O  O1  1  0.19823800  0.39095200  0.02472000  1
  O  O2  1  0.84128700  0.20804800  0.20538100  1
  O  O3  1  0.19418700  0.80402900  0.02703800  1
  O  O4  1  0.51826300  0.00971100  0.11815800  1
  O  O5  1  0.71703500  0.36170600  0.30907200  1
  O  O6  1  0.48579000  0.02258500  0.37788700  1
  O  O7  1  0.62660500  0.31138700  0.55416800  1
  O  O8  1  0.81631400  0.60750900  0.19466300  1
  O  O9  1  0.63739800  0.31831200  0.07054200  1
  O  O10  1  0.52582700  0.52451800  0.11815200  1
  O  O11  1  0.10301900  0.82380500  0.29687800  1
  O  O12  1  0.10452900  0.84831100  0.54962200  1
  O  O13  1  0.38750200  0.18554300  0.21936000  1
  O  O14  1  0.45053000  0.43103300  0.37843100  1
  O  O15  1  0.06945400  0.03588100  0.87357000  1
  O  O16  1  0.89962700  0.94956900  0.66225700  1
  O  O17  1  0.83801900  0.71598700  0.46358000  1
  O  O18  1  0.84990200  0.52569300  0.71058300  1
  O  O19  1  0.13373600  0.35514500  0.28538900  1
  O  O20  1  0.00715800  0.00440200  0.11705100  1
  O  O21  1  0.10801600  0.25189900  0.55089900  1
  O  O22  1  0.08408300  0.99118700  0.32798300  1
  O  O23  1  0.55285600  0.37592600  0.87849200  1
  O  O24  1  0.50995500  0.51298100  0.64118000  1
  O  O25  1  0.85563800  0.12421200  0.46351600  1
  O  O26  1  0.63105300  0.81607500  0.78823800  1
  O  O27  1  0.62207800  0.81161300  0.55466900  1
  O  O28  1  0.84987400  0.32335400  0.71119500  1
  O  O29  1  0.41370000  0.70781800  0.92812600  1
  O  O30  1  0.23088300  0.37046300  0.80001000  1
  O  O31  1  0.50933500  0.99685500  0.64161000  1
  O  O32  1  0.55248800  0.17470700  0.87926800  1
  O  O33  1  0.25656000  0.63037600  0.45858300  1
  O  O34  1  0.29831300  0.64889300  0.70342700  1
  O  O35  1  0.88585200  0.22934300  0.96571300  1
  O  O36  1  0.22965200  0.86063500  0.79988200  1
  O  O37  1  0.04017700  0.52022300  0.86405100  1
  O  O38  1  0.88737100  0.66165400  0.96457000  1
  O  O39  1  0.36261300  0.18099500  0.71721700  1
loop_
_geom_bond_atom_site_label_1
_geom_bond_atom_site_label_2
_geom_bond_distance
_geom_bond_site_symmetry_2
O0 Yb3 2.256198 1_555
O0 Yb1 2.265309 1_555
O0 Yb5 2.581053 1_555
O0 Yb4 2.594912 1_555
O1 Ti0 1.966338 1_554
O1 Yb9 2.328299 1_554
O1 Yb0 2.404844 1_554
O1 Yb4 2.568557 1_555
O2 Ti2 1.864992 1_555
O2 Yb1 2.341995 1_545
O2 Yb14 2.432885 1_555
O2 Yb4 2.433966 1_655
O3 Ti0 1.978637 1_554
O3 Yb2 2.341818 1_564
O3 Yb0 2.400817 1_564
O3 Yb5 2.478024 1_555
O4 Ti2 2.213399 1_555
O4 Yb1 2.265177 1_545
O4 Yb2 2.272285 1_554
O4 Yb5 2.317050 1_545
O5 Ti4 1.902216 1_555
O5 Yb7 2.116946 1_555
O5 Yb14 2.157079 1_555
O5 Ti2 2.344415 1_555
O6 Ti4 1.841527 1_555
O6 Yb3 2.334246 1_545
O6 Yb8 2.365259 1_545
O6 Yb14 2.402516 1_555
O7 Ti1 1.841107 1_555
O7 Yb6 2.302237 1_555
O7 Yb8 2.366157 1_545
O7 Yb10 2.374610 1_555
O8 Ti2 1.909779 1_555
O8 Yb1 2.438824 1_555
O8 Yb5 2.493063 1_655
O8 Yb7 2.694359 1_555
O9 Ti2 1.989921 1_555
O9 Yb9 2.360519 1_554
O9 Yb2 2.370906 1_554
O10 Yb9 2.288387 1_554
O10 Yb1 2.296489 1_555
O10 Yb4 2.328575 1_555
O10 Ti2 2.476406 1_555
O11 O22 1.430056 1_555
O11 Yb7 2.253734 1_455
O11 Yb3 2.350153 1_555
O11 Yb5 2.533264 1_555
O12 Ti5 1.961798 1_455
O12 Yb11 2.285601 1_555
O12 Yb8 2.417690 1_555
O12 Yb6 2.489213 1_455
O13 Ti2 1.918301 1_555
O13 Ti4 1.951873 1_555
O13 Yb4 2.363644 1_555
O13 Yb5 2.368699 1_545
O14 Ti4 1.836821 1_555
O14 Yb7 2.304929 1_555
O14 Yb10 2.356593 1_555
O14 Yb3 2.574063 1_555
O15 Ti3 1.847414 1_555
O15 Yb15 2.269878 1_455
O15 Yb0 2.280067 1_555
O15 Yb13 2.281020 1_445
O16 Ti6 1.935452 1_555
O16 Ti5 2.286552 1_555
O16 Yb11 2.380345 1_655
O16 Yb12 2.412140 1_665
O17 Ti5 2.017107 1_555
O17 Yb7 2.281550 1_555
O17 Yb6 2.437054 1_555
O17 Yb10 2.654182 1_555
O18 O28 1.494329 1_555
O18 Ti1 1.973980 1_555
O18 Yb11 2.457811 1_655
O18 Yb13 2.526168 1_555
O19 Yb14 2.213227 1_455
O19 Yb3 2.239926 1_555
O19 Yb4 2.275924 1_555
O20 Yb1 2.161225 1_445
O20 Yb0 2.175444 1_554
O20 Yb5 2.228729 1_545
O20 Yb4 2.266899 1_555
O21 Ti5 1.981516 1_445
O21 Yb12 2.268289 1_555
O21 Yb10 2.414836 1_555
O21 Yb6 2.519898 1_455
O22 Ti4 2.205320 1_565
O22 Yb7 2.365843 1_455
O22 Yb14 2.644694 1_465
O23 O32 1.484849 1_555
O23 Ti3 1.966930 1_555
O23 Yb9 2.342297 1_555
O23 Yb13 2.537369 1_555
O24 Ti6 1.930040 1_555
O24 Ti1 1.992507 1_555
O24 Yb12 2.354276 1_555
O24 Yb10 2.448305 1_555
O25 Ti5 1.975077 1_545
O25 Yb14 2.290673 1_555
O25 Yb6 2.461596 1_555
O25 Yb8 2.753642 1_545
O26 Ti7 1.950614 1_555
O26 Ti6 2.189117 1_555
O26 Yb13 2.456861 1_555
O26 Yb15 2.490027 1_565
O27 Ti5 1.845052 1_555
O27 Ti6 2.056867 1_555
O27 Yb8 2.218098 1_555
O27 Yb10 2.238629 1_555
O28 Ti1 1.972228 1_555
O28 Yb12 2.431723 1_655
O28 Yb15 2.497369 1_555
O29 Ti0 2.141687 1_555
O29 Ti7 2.153583 1_555
O29 Yb2 2.319222 1_565
O29 Yb9 2.322780 1_555
O30 Ti7 1.942428 1_555
O30 Ti3 1.967506 1_555
O30 Yb12 2.288545 1_555
O30 Yb15 2.404378 1_455
O31 Ti6 1.913096 1_555
O31 Ti1 2.012850 1_565
O31 Yb11 2.342101 1_555
O31 Yb8 2.462814 1_555
O32 Ti3 1.968672 1_555
O32 Yb2 2.341895 1_555
O32 Yb15 2.503345 1_555
O33 Yb3 2.143960 1_555
O33 Yb6 2.166834 1_455
O33 Yb10 2.287758 1_555
O33 Yb8 2.290031 1_555
O34 Ti7 1.944949 1_555
O34 Ti6 2.048344 1_555
O34 Yb11 2.198392 1_555
O34 Yb12 2.204579 1_555
O35 Ti0 2.099195 1_655
O35 Yb2 2.310503 1_555
O35 Yb0 2.391518 1_655
O35 Yb15 2.398883 1_555
O36 Ti7 1.933042 1_555
O36 Ti3 1.983711 1_565
O36 Yb11 2.284785 1_555
O36 Yb13 2.391637 1_455
O37 Ti0 1.830864 1_555
O37 Ti7 2.165784 1_555
O37 Yb13 2.227385 1_455
O37 Yb15 2.229187 1_455
O38 Ti0 2.087839 1_655
O38 Yb9 2.286619 1_555
O38 Yb13 2.375681 1_555
O38 Yb0 2.391362 1_665
O39 Ti3 1.928687 1_555
O39 Ti1 1.950024 1_555
O39 Yb12 2.254789 1_555
O39 Yb11 2.263932 1_545
