# generated using pymatgen
data_Ho2Fe17N3
_symmetry_space_group_name_H-M   'P 1'
_cell_length_a   8.38893000
_cell_length_b   8.63502834
_cell_length_c   8.63502834
_cell_angle_alpha   120.00000259
_cell_angle_beta   90.00000000
_cell_angle_gamma   90.00000000
_symmetry_Int_Tables_number   1
_chemical_formula_structural   Ho2Fe17N3
_chemical_formula_sum   'Ho4 Fe34 N6'
_cell_volume   541.70734615
_cell_formula_units_Z   2
loop_
 _symmetry_equiv_pos_site_id
 _symmetry_equiv_pos_as_xyz
  1  'x, y, z'
loop_
 _atom_site_type_symbol
 _atom_site_label
 _atom_site_symmetry_multiplicity
 _atom_site_fract_x
 _atom_site_fract_y
 _atom_site_fract_z
 _atom_site_occupancy
  Ho  Ho0  1  0.75000000  0.66666700  0.33333300  1
  Ho  Ho1  1  0.25000000  0.33333300  0.66666700  1
  Ho  Ho2  1  0.75000000  0.00000000  0.00000000  1
  Ho  Ho3  1  0.25000000  0.00000000  0.00000000  1
  Fe  Fe0  1  0.75000000  0.61860000  0.67183100  1
  Fe  Fe1  1  0.25000000  0.38140000  0.32816900  1
  Fe  Fe2  1  0.75000000  0.05323100  0.38140000  1
  Fe  Fe3  1  0.25000000  0.94676900  0.32816900  1
  Fe  Fe4  1  0.25000000  0.94676900  0.61860000  1
  Fe  Fe5  1  0.75000000  0.05323100  0.67183100  1
  Fe  Fe6  1  0.75000000  0.32816900  0.94676900  1
  Fe  Fe7  1  0.25000000  0.67183100  0.61860000  1
  Fe  Fe8  1  0.25000000  0.67183100  0.05323100  1
  Fe  Fe9  1  0.75000000  0.32816900  0.38140000  1
  Fe  Fe10  1  0.25000000  0.38140000  0.05323100  1
  Fe  Fe11  1  0.75000000  0.61860000  0.94676900  1
  Fe  Fe12  1  0.39296700  0.66666700  0.33333300  1
  Fe  Fe13  1  0.60703300  0.33333300  0.66666700  1
  Fe  Fe14  1  0.89296700  0.33333300  0.66666700  1
  Fe  Fe15  1  0.10703300  0.66666700  0.33333300  1
  Fe  Fe16  1  0.97918100  0.83099700  0.16900300  1
  Fe  Fe17  1  0.02081900  0.16900300  0.83099700  1
  Fe  Fe18  1  0.97918100  0.33800500  0.16900300  1
  Fe  Fe19  1  0.47918100  0.16900300  0.83099700  1
  Fe  Fe20  1  0.02081900  0.66199500  0.83099700  1
  Fe  Fe21  1  0.52081900  0.83099700  0.16900300  1
  Fe  Fe22  1  0.97918100  0.83099700  0.66199500  1
  Fe  Fe23  1  0.47918100  0.66199500  0.83099700  1
  Fe  Fe24  1  0.02081900  0.16900300  0.33800500  1
  Fe  Fe25  1  0.52081900  0.33800500  0.16900300  1
  Fe  Fe26  1  0.47918100  0.16900300  0.33800500  1
  Fe  Fe27  1  0.52081900  0.83099700  0.66199500  1
  Fe  Fe28  1  0.00000000  0.50000000  0.50000000  1
  Fe  Fe29  1  0.00000000  0.00000000  0.50000000  1
  Fe  Fe30  1  0.50000000  0.50000000  0.50000000  1
  Fe  Fe31  1  0.00000000  0.50000000  0.00000000  1
  Fe  Fe32  1  0.50000000  0.00000000  0.50000000  1
  Fe  Fe33  1  0.50000000  0.50000000  0.00000000  1
  N  N0  1  0.75000000  0.83601800  0.16398200  1
  N  N1  1  0.25000000  0.16398200  0.83601800  1
  N  N2  1  0.75000000  0.32796300  0.16398200  1
  N  N3  1  0.25000000  0.67203700  0.83601800  1
  N  N4  1  0.75000000  0.83601800  0.67203700  1
  N  N5  1  0.25000000  0.16398200  0.32796300  1
loop_
_geom_bond_atom_site_label_1
_geom_bond_atom_site_label_2
_geom_bond_distance
_geom_bond_site_symmetry_2
Ho0 N0 2.532866 1_555
Ho0 N4 2.532881 1_555
Ho0 N2 2.532881 1_555
Ho1 N1 2.532866 1_555
Ho1 N5 2.532881 1_555
Ho1 N3 2.532881 1_555
Ho2 N4 2.452558 1_544
Ho2 N2 2.452558 1_555
Ho2 N0 2.452565 1_545
Ho3 N5 2.452558 1_555
Ho3 N3 2.452558 1_544
Ho3 N1 2.452565 1_554
Fe0 N4 1.876522 1_555
Fe0 Fe30 2.475724 1_555
Fe0 Fe28 2.475724 1_655
Fe0 Fe14 2.719992 1_555
Fe0 Fe13 2.719992 1_555
Fe1 N5 1.876522 1_555
Fe1 Fe28 2.475724 1_555
Fe1 Fe30 2.475724 1_555
Fe1 Fe12 2.719992 1_555
Fe1 Fe15 2.719992 1_555
Fe2 N0 1.876526 1_545
Fe2 Fe32 2.475724 1_555
Fe2 Fe29 2.475724 1_655
Fe3 N5 1.876530 1_565
Fe3 Fe32 2.475724 1_565
Fe4 N1 1.876526 1_565
Fe5 N4 1.876530 1_545
Fe6 N2 1.876530 1_556
Fe7 N3 1.876522 1_555
Fe8 N3 1.876530 1_554
Fe9 N2 1.876522 1_555
Fe10 N1 1.876526 1_554
Fe10 Fe31 2.475724 1_555
Fe10 Fe33 2.475724 1_555
Fe10 Fe12 2.719988 1_555
Fe10 Fe15 2.719988 1_555
Fe11 N0 1.876526 1_556
Fe11 Fe33 2.475724 1_556
Fe11 Fe31 2.475724 1_656
Fe11 Fe14 2.719988 1_555
Fe11 Fe13 2.719988 1_555
Fe12 Fe15 2.398680 1_555
Fe12 Fe32 2.649498 1_565
Fe12 Fe33 2.649498 1_555
Fe12 Fe30 2.649505 1_555
Fe12 Fe21 2.681600 1_555
Fe12 Fe27 2.681614 1_555
Fe12 Fe25 2.681614 1_555
Fe12 Fe8 2.719984 1_555
Fe12 Fe3 2.719984 1_555
Fe12 Fe4 2.719988 1_555
Fe12 Fe7 2.719992 1_555
Fe12 Ho0 2.995125 1_555
Fe13 Fe14 2.398680 1_555
Fe13 Fe33 2.649498 1_556
Fe13 Fe32 2.649498 1_555
Fe13 Fe30 2.649505 1_555
Fe13 Fe19 2.681600 1_555
Fe13 Fe23 2.681614 1_555
Fe13 Fe26 2.681614 1_555
Fe13 Fe5 2.719984 1_555
Fe13 Fe6 2.719984 1_555
Fe13 Fe2 2.719988 1_555
Fe13 Fe9 2.719992 1_555
Fe13 Ho1 2.995125 1_555
Fe14 Fe29 2.649498 1_655
Fe14 Fe31 2.649498 1_656
Fe14 Fe28 2.649505 1_655
Fe14 Fe17 2.681600 1_655
Fe14 Fe20 2.681614 1_655
Fe14 Fe24 2.681614 1_655
Fe14 Fe5 2.719984 1_555
Fe14 Fe6 2.719984 1_555
Fe14 Fe2 2.719988 1_555
Fe14 Fe9 2.719992 1_555
Fe14 Ho1 2.995125 1_655
Fe15 Fe29 2.649498 1_565
Fe15 Fe31 2.649498 1_555
Fe15 Fe28 2.649505 1_555
Fe15 Fe16 2.681600 1_455
Fe15 Fe18 2.681614 1_455
Fe15 Fe22 2.681614 1_455
Fe15 Fe8 2.719984 1_555
Fe15 Fe3 2.719984 1_555
Fe15 Fe4 2.719988 1_555
Fe15 Fe7 2.719992 1_555
Fe15 Ho0 2.995125 1_455
Fe16 N0 1.924049 1_555
Fe16 Fe29 2.481585 1_665
Fe16 Fe31 2.481585 1_655
Fe17 N1 1.924049 1_555
Fe17 Fe31 2.481585 1_556
Fe17 Fe29 2.481585 1_555
Fe18 N2 1.924049 1_555
Fe18 Fe28 2.481585 1_655
Fe18 Fe31 2.481592 1_655
Fe19 N1 1.924049 1_555
Fe19 Fe33 2.481585 1_556
Fe19 Fe32 2.481585 1_555
Fe20 N3 1.924049 1_555
Fe20 Fe28 2.481585 1_555
Fe20 Fe31 2.481592 1_556
Fe21 N0 1.924049 1_555
Fe21 Fe32 2.481585 1_565
Fe21 Fe33 2.481585 1_555
Fe22 N4 1.924049 1_555
Fe22 Fe28 2.481585 1_655
Fe22 Fe29 2.481592 1_665
Fe23 N3 1.924049 1_555
Fe23 Fe30 2.481585 1_555
Fe23 Fe33 2.481592 1_556
Fe24 N5 1.924049 1_555
Fe24 Fe28 2.481585 1_555
Fe24 Fe29 2.481592 1_555
Fe25 N2 1.924049 1_555
Fe25 Fe30 2.481585 1_555
Fe25 Fe33 2.481592 1_555
Fe26 N5 1.924049 1_555
Fe26 Fe30 2.481585 1_555
Fe26 Fe32 2.481592 1_555
Fe27 N4 1.924049 1_555
Fe27 Fe30 2.481585 1_555
Fe27 Fe32 2.481592 1_565
Fe28 Fe9 2.475724 1_455
Fe28 Fe7 2.475724 1_555
Fe28 Ho0 3.257614 1_455
Fe28 Ho1 3.257614 1_555
Fe29 Fe5 2.475724 1_455
Fe29 Fe3 2.475724 1_545
Fe29 Fe4 2.475724 1_545
Fe29 Ho0 3.257609 1_445
Fe29 Ho1 3.257609 1_555
Fe30 Fe7 2.475724 1_555
Fe30 Fe9 2.475724 1_555
Fe30 Ho0 3.257614 1_555
Fe30 Ho1 3.257614 1_555
Fe31 Fe8 2.475724 1_555
Fe31 Fe6 2.475724 1_454
Fe31 Ho0 3.257609 1_455
Fe31 Ho1 3.257609 1_554
Fe32 Fe5 2.475724 1_555
Fe32 Fe4 2.475724 1_545
Fe32 Ho0 3.257609 1_545
Fe32 Ho1 3.257609 1_555
Fe33 Fe8 2.475724 1_555
Fe33 Fe6 2.475724 1_554
Fe33 Ho0 3.257609 1_555
Fe33 Ho1 3.257609 1_554
