# generated using pymatgen
data_YCu2
_symmetry_space_group_name_H-M   'P 1'
_cell_length_a   5.27229977
_cell_length_b   5.27229977
_cell_length_c   8.40739200
_cell_angle_alpha   90.00000000
_cell_angle_beta   90.00000000
_cell_angle_gamma   119.75643165
_symmetry_Int_Tables_number   1
_chemical_formula_structural   YCu2
_chemical_formula_sum   'Y4 Cu8'
_cell_volume   202.88634068
_cell_formula_units_Z   4
loop_
 _symmetry_equiv_pos_site_id
 _symmetry_equiv_pos_as_xyz
  1  'x, y, z'
loop_
 _atom_site_type_symbol
 _atom_site_label
 _atom_site_symmetry_multiplicity
 _atom_site_fract_x
 _atom_site_fract_y
 _atom_site_fract_z
 _atom_site_occupancy
  Y  Y0  1  0.66679800  0.33320200  0.55756900  1
  Y  Y1  1  0.33320200  0.66679800  0.44243100  1
  Y  Y2  1  0.33320200  0.66679800  0.05756900  1
  Y  Y3  1  0.66679800  0.33320200  0.94243100  1
  Cu  Cu0  1  0.00000000  0.00000000  0.50000000  1
  Cu  Cu1  1  0.00000000  0.00000000  0.00000000  1
  Cu  Cu2  1  0.16539900  0.33129800  0.75000000  1
  Cu  Cu3  1  0.16547800  0.83452200  0.75000000  1
  Cu  Cu4  1  0.66870200  0.83460100  0.75000000  1
  Cu  Cu5  1  0.83460100  0.66870200  0.25000000  1
  Cu  Cu6  1  0.83452200  0.16547800  0.25000000  1
  Cu  Cu7  1  0.33129800  0.16539900  0.25000000  1
loop_
_geom_bond_atom_site_label_1
_geom_bond_atom_site_label_2
_geom_bond_distance
_geom_bond_site_symmetry_2
Y0 Y1 3.192892 1_555
Y0 Y1 3.200159 1_545
Y0 Y1 3.200159 1_655
Y0 Y3 3.235686 1_555
Y1 Y2 3.235686 1_555
Y2 Y3 3.192892 1_554
Y2 Y3 3.200159 1_454
Y2 Y3 3.200159 1_564
Cu0 Cu3 2.587597 1_545
Cu0 Cu6 2.587597 1_455
Cu0 Cu4 2.591761 1_445
Cu0 Cu2 2.591761 1_555
Cu0 Cu7 2.591761 1_555
Cu0 Cu5 2.591761 1_445
Cu0 Y0 3.077324 1_455
Cu0 Y1 3.077324 1_545
Cu0 Y0 3.090171 1_445
Cu0 Y0 3.090171 1_555
Cu0 Y1 3.090171 1_445
Cu0 Y1 3.090171 1_555
Cu1 Cu3 2.587597 1_544
Cu1 Cu6 2.587597 1_455
Cu1 Cu2 2.591761 1_554
Cu1 Cu4 2.591761 1_444
Cu1 Cu7 2.591761 1_555
Cu1 Cu5 2.591761 1_445
Cu1 Y2 3.077324 1_545
Cu1 Y3 3.077324 1_454
Cu1 Y2 3.090171 1_555
Cu1 Y2 3.090171 1_445
Cu1 Y3 3.090171 1_554
Cu1 Y3 3.090171 1_444
Cu2 Cu3 2.619359 1_545
Cu2 Cu4 2.628371 1_445
Cu2 Cu3 2.652941 1_555
Cu2 Cu4 2.663327 1_555
Cu2 Y2 3.007460 1_556
Cu2 Y1 3.007460 1_555
Cu2 Y3 3.090981 1_455
Cu2 Y0 3.090981 1_455
Cu2 Y3 3.095061 1_555
Cu2 Y0 3.095061 1_555
Cu3 Cu4 2.619359 1_455
Cu3 Cu4 2.652941 1_555
Cu3 Y2 3.004461 1_556
Cu3 Y1 3.004461 1_555
Cu3 Y3 3.101303 1_565
Cu3 Y3 3.101303 1_455
Cu3 Y0 3.101303 1_565
Cu3 Y0 3.101303 1_455
Cu4 Y2 3.007460 1_556
Cu4 Y1 3.007460 1_555
Cu4 Y3 3.090981 1_565
Cu4 Y0 3.090981 1_565
Cu4 Y3 3.095061 1_555
Cu4 Y0 3.095061 1_555
Cu5 Cu6 2.619359 1_565
Cu5 Cu7 2.628371 1_665
Cu5 Cu6 2.652941 1_555
Cu5 Cu7 2.663327 1_555
Cu5 Y0 3.007460 1_555
Cu5 Y3 3.007460 1_554
Cu5 Y1 3.090981 1_655
Cu5 Y2 3.090981 1_655
Cu5 Y1 3.095061 1_555
Cu5 Y2 3.095061 1_555
Cu6 Cu7 2.619359 1_655
Cu6 Cu7 2.652941 1_555
Cu6 Y0 3.004461 1_555
Cu6 Y3 3.004461 1_554
Cu6 Y1 3.101303 1_545
Cu6 Y1 3.101303 1_655
Cu6 Y2 3.101303 1_655
Cu6 Y2 3.101303 1_545
Cu7 Y0 3.007460 1_555
Cu7 Y3 3.007460 1_554
Cu7 Y1 3.090981 1_545
Cu7 Y2 3.090981 1_545
Cu7 Y1 3.095061 1_555
Cu7 Y2 3.095061 1_555
