# generated using pymatgen
data_CaFeO2
_symmetry_space_group_name_H-M   'P 1'
_cell_length_a   3.13458600
_cell_length_b   8.88264753
_cell_length_c   9.26747312
_cell_angle_alpha   90.80059280
_cell_angle_beta   98.65305982
_cell_angle_gamma   99.26434817
_symmetry_Int_Tables_number   1
_chemical_formula_structural   CaFeO2
_chemical_formula_sum   'Ca4 Fe4 O8'
_cell_volume   251.58056449
_cell_formula_units_Z   4
loop_
 _symmetry_equiv_pos_site_id
 _symmetry_equiv_pos_as_xyz
  1  'x, y, z'
loop_
 _atom_site_type_symbol
 _atom_site_label
 _atom_site_symmetry_multiplicity
 _atom_site_fract_x
 _atom_site_fract_y
 _atom_site_fract_z
 _atom_site_occupancy
  Ca  Ca0  1  0.59485600  0.23365200  0.93125200  1
  Ca  Ca1  1  0.40514400  0.76634800  0.06874800  1
  Ca  Ca2  1  0.22380200  0.12326300  0.31057600  1
  Ca  Ca3  1  0.77619800  0.87673700  0.68942400  1
  Fe  Fe0  1  0.17054200  0.54996600  0.79626800  1
  Fe  Fe1  1  0.40991600  0.20873300  0.62478100  1
  Fe  Fe2  1  0.59008400  0.79126700  0.37521900  1
  Fe  Fe3  1  0.82945800  0.45003400  0.20373200  1
  O  O0  1  0.41215100  0.58771500  0.24314200  1
  O  O1  1  0.17568000  0.81830600  0.52337100  1
  O  O2  1  0.82432000  0.18169400  0.47662900  1
  O  O3  1  0.58784900  0.41228500  0.75685800  1
  O  O4  1  0.78708700  0.70546500  0.87541800  1
  O  O5  1  0.97315100  0.11537500  0.78261100  1
  O  O6  1  0.21291300  0.29453500  0.12458200  1
  O  O7  1  0.02684900  0.88462500  0.21738900  1
loop_
_geom_bond_atom_site_label_1
_geom_bond_atom_site_label_2
_geom_bond_distance
_geom_bond_site_symmetry_2
Ca0 O3 2.280896 1_555
Ca0 O5 2.293399 1_555
Ca0 O5 2.300369 1_455
Ca0 O6 2.400583 1_556
Ca0 O6 2.418064 1_656
Ca1 O0 2.280896 1_555
Ca1 O7 2.293399 1_555
Ca1 O7 2.300369 1_655
Ca1 O4 2.400583 1_554
Ca1 O4 2.418064 1_454
Ca2 O2 2.229882 1_555
Ca2 O2 2.229885 1_455
Ca2 O7 2.233226 1_545
Ca2 O6 2.314970 1_555
Ca3 O1 2.229882 1_555
Ca3 O1 2.229885 1_655
Ca3 O5 2.233226 1_565
Ca3 O4 2.314970 1_555
Fe0 O3 1.996622 1_555
Fe0 O3 2.008164 1_455
Fe0 O4 2.159204 1_455
Fe0 O4 2.206016 1_555
Fe1 O2 2.063506 1_555
Fe1 O2 2.098264 1_455
Fe1 O3 2.118134 1_555
Fe1 O5 2.229891 1_455
Fe1 O5 2.381681 1_555
Fe2 O1 2.063506 1_555
Fe2 O1 2.098264 1_655
Fe2 O0 2.118134 1_555
Fe2 O7 2.229891 1_655
Fe2 O7 2.381681 1_555
Fe3 O0 1.996622 1_555
Fe3 O0 2.008164 1_655
Fe3 O6 2.159204 1_655
Fe3 O6 2.206016 1_555
