# generated using pymatgen
data_BaNd2CoO5
_symmetry_space_group_name_H-M   'P 1'
_cell_length_a   3.80929669
_cell_length_b   5.96899947
_cell_length_c   6.90632598
_cell_angle_alpha   115.61030914
_cell_angle_beta   106.00631968
_cell_angle_gamma   89.99825348
_symmetry_Int_Tables_number   1
_chemical_formula_structural   BaNd2CoO5
_chemical_formula_sum   'Ba1 Nd2 Co1 O5'
_cell_volume   134.82386918
_cell_formula_units_Z   1
loop_
 _symmetry_equiv_pos_site_id
 _symmetry_equiv_pos_as_xyz
  1  'x, y, z'
loop_
 _atom_site_type_symbol
 _atom_site_label
 _atom_site_symmetry_multiplicity
 _atom_site_fract_x
 _atom_site_fract_y
 _atom_site_fract_z
 _atom_site_occupancy
  Ba  Ba0  1  0.00000000  -0.00000000  0.00000000  1
  Nd  Nd0  1  0.79736857  0.29739500  0.59476370  1
  Nd  Nd1  1  0.20263143  0.70260400  0.40523630  1
  Co  Co0  1  0.50000100  0.50000000  0.00000000  1
  O  O0  1  0.35425337  0.59702828  0.70851122  1
  O  O1  1  0.64574663  0.40297072  0.29148778  1
  O  O2  1  0.64578632  0.88849309  0.29147964  1
  O  O3  1  0.35421468  0.11150591  0.70851936  1
  O  O4  1  0.00000000  0.50000000  0.00000000  1
loop_
_geom_bond_atom_site_label_1
_geom_bond_atom_site_label_2
_geom_bond_distance
_geom_bond_site_symmetry_2
Ba0 O4 2.984500 1_545
Ba0 O4 2.984500 1_555
Ba0 O1 2.995192 1_455
Ba0 O0 2.995199 1_544
Ba0 O2 2.995384 1_445
Ba0 O3 2.995390 1_554
Ba0 O1 2.995401 1_555
Ba0 O0 2.995404 1_444
Ba0 O3 2.995684 1_454
Ba0 O2 2.995686 1_545
Nd0 O2 2.364610 1_545
Nd0 O1 2.364665 1_555
Nd0 O4 2.402862 1_656
Nd0 O0 2.486277 1_555
Nd0 O3 2.486410 1_655
Nd0 O0 2.486473 1_655
Nd0 O3 2.486599 1_555
Nd1 O3 2.364607 1_565
Nd1 O0 2.364658 1_555
Nd1 O4 2.402862 1_555
Nd1 O1 2.486278 1_555
Nd1 O2 2.486409 1_455
Nd1 O1 2.486471 1_455
Nd1 O2 2.486607 1_555
Co0 O4 1.904645 1_655
Co0 O4 1.904652 1_555
Co0 O2 2.255251 1_555
Co0 O3 2.255257 1_554
Co0 O1 2.255622 1_555
Co0 O0 2.255624 1_554
