# generated using pymatgen
data_VRu(NF)6
_symmetry_space_group_name_H-M   'P 1'
_cell_length_a   9.62632100
_cell_length_b   9.62632100
_cell_length_c   9.62632100
_cell_angle_alpha   90.00000000
_cell_angle_beta   90.00000000
_cell_angle_gamma   90.00000000
_symmetry_Int_Tables_number   1
_chemical_formula_structural   VRu(NF)6
_chemical_formula_sum   'V4 Ru4 N24 F24'
_cell_volume   892.03320081
_cell_formula_units_Z   4
loop_
 _symmetry_equiv_pos_site_id
 _symmetry_equiv_pos_as_xyz
  1  'x, y, z'
loop_
 _atom_site_type_symbol
 _atom_site_label
 _atom_site_symmetry_multiplicity
 _atom_site_fract_x
 _atom_site_fract_y
 _atom_site_fract_z
 _atom_site_occupancy
  V  V0  1  0.50000000  0.50000000  0.50000000  1
  V  V1  1  0.00000000  0.50000000  0.00000000  1
  V  V2  1  0.50000000  0.00000000  0.00000000  1
  V  V3  1  0.00000000  0.00000000  0.50000000  1
  Ru  Ru0  1  0.00000000  0.00000000  0.00000000  1
  Ru  Ru1  1  0.50000000  0.00000000  0.50000000  1
  Ru  Ru2  1  0.00000000  0.50000000  0.50000000  1
  Ru  Ru3  1  0.50000000  0.50000000  0.00000000  1
  N  N0  1  0.11465300  0.34442400  0.44229700  1
  N  N1  1  0.88534700  0.65557600  0.55770300  1
  N  N2  1  0.38534700  0.65557600  0.94229700  1
  N  N3  1  0.88534700  0.84442400  0.05770300  1
  N  N4  1  0.44229700  0.11465300  0.34442400  1
  N  N5  1  0.61465300  0.34442400  0.05770300  1
  N  N6  1  0.11465300  0.15557600  0.94229700  1
  N  N7  1  0.55770300  0.88534700  0.65557600  1
  N  N8  1  0.61465300  0.15557600  0.55770300  1
  N  N9  1  0.94229700  0.38534700  0.65557600  1
  N  N10  1  0.38534700  0.84442400  0.44229700  1
  N  N11  1  0.05770300  0.61465300  0.34442400  1
  N  N12  1  0.05770300  0.88534700  0.84442400  1
  N  N13  1  0.94229700  0.11465300  0.15557600  1
  N  N14  1  0.55770300  0.61465300  0.15557600  1
  N  N15  1  0.44229700  0.38534700  0.84442400  1
  N  N16  1  0.34442400  0.44229700  0.11465300  1
  N  N17  1  0.65557600  0.55770300  0.88534700  1
  N  N18  1  0.84442400  0.05770300  0.88534700  1
  N  N19  1  0.15557600  0.94229700  0.11465300  1
  N  N20  1  0.15557600  0.55770300  0.61465300  1
  N  N21  1  0.84442400  0.44229700  0.38534700  1
  N  N22  1  0.65557600  0.94229700  0.38534700  1
  N  N23  1  0.34442400  0.05770300  0.61465300  1
  F  F0  1  0.06193800  0.37832900  0.13046300  1
  F  F1  1  0.93806200  0.62167100  0.86953700  1
  F  F2  1  0.43806200  0.62167100  0.63046300  1
  F  F3  1  0.93806200  0.87832900  0.36953700  1
  F  F4  1  0.13046300  0.06193800  0.37832900  1
  F  F5  1  0.56193800  0.37832900  0.36953700  1
  F  F6  1  0.06193800  0.12167100  0.63046300  1
  F  F7  1  0.86953700  0.93806200  0.62167100  1
  F  F8  1  0.56193800  0.12167100  0.86953700  1
  F  F9  1  0.63046300  0.43806200  0.62167100  1
  F  F10  1  0.43806200  0.87832900  0.13046300  1
  F  F11  1  0.36953700  0.56193800  0.37832900  1
  F  F12  1  0.36953700  0.93806200  0.87832900  1
  F  F13  1  0.63046300  0.06193800  0.12167100  1
  F  F14  1  0.86953700  0.56193800  0.12167100  1
  F  F15  1  0.13046300  0.43806200  0.87832900  1
  F  F16  1  0.37832900  0.13046300  0.06193800  1
  F  F17  1  0.62167100  0.86953700  0.93806200  1
  F  F18  1  0.87832900  0.36953700  0.93806200  1
  F  F19  1  0.12167100  0.63046300  0.06193800  1
  F  F20  1  0.12167100  0.86953700  0.56193800  1
  F  F21  1  0.87832900  0.13046300  0.43806200  1
  F  F22  1  0.62167100  0.63046300  0.43806200  1
  F  F23  1  0.37832900  0.36953700  0.56193800  1
loop_
_geom_bond_atom_site_label_1
_geom_bond_atom_site_label_2
_geom_bond_distance
_geom_bond_site_symmetry_2
N0 Ru2 1.941532 1_555
N1 Ru2 1.941532 1_655
N2 Ru3 1.941532 1_556
N3 Ru0 1.941532 1_665
N4 Ru1 1.941532 1_555
N5 Ru3 1.941532 1_555
N6 Ru0 1.941532 1_556
N7 Ru1 1.941532 1_565
N8 Ru1 1.941532 1_555
N9 Ru2 1.941532 1_655
N10 Ru1 1.941532 1_565
N11 Ru2 1.941532 1_555
N12 Ru0 1.941532 1_566
N13 Ru0 1.941532 1_655
N14 Ru3 1.941532 1_555
N15 Ru3 1.941532 1_556
N16 Ru3 1.941532 1_555
N17 Ru3 1.941532 1_556
N18 Ru0 1.941532 1_656
N19 Ru0 1.941532 1_565
N20 Ru2 1.941532 1_555
N21 Ru2 1.941532 1_655
N22 Ru1 1.941532 1_565
N23 Ru1 1.941532 1_555
F0 V1 1.817839 1_555
F1 V1 1.817839 1_656
F2 V0 1.817839 1_555
F3 V3 1.817839 1_665
F4 V3 1.817839 1_555
F5 V0 1.817839 1_555
F6 V3 1.817839 1_555
F7 V3 1.817839 1_665
F8 V2 1.817839 1_556
F9 V0 1.817839 1_555
F10 V2 1.817839 1_565
F11 V0 1.817839 1_555
F12 V2 1.817839 1_566
F13 V2 1.817839 1_555
F14 V1 1.817839 1_655
F15 V1 1.817839 1_556
F16 V2 1.817839 1_555
F17 V2 1.817839 1_566
F18 V1 1.817839 1_656
F19 V1 1.817839 1_555
F20 V3 1.817839 1_565
F21 V3 1.817839 1_655
F22 V0 1.817839 1_555
F23 V0 1.817839 1_555
