# generated using pymatgen
data_Li9Mn2Co5O16
_symmetry_space_group_name_H-M   'P 1'
_cell_length_a   19.33236188
_cell_length_b   19.33236188
_cell_length_c   5.19868653
_cell_angle_alpha   89.02395783
_cell_angle_beta   89.02395783
_cell_angle_gamma   8.56394374
_symmetry_Int_Tables_number   1
_chemical_formula_structural   Li9Mn2Co5O16
_chemical_formula_sum   'Li9 Mn2 Co5 O16'
_cell_volume   289.28969561
_cell_formula_units_Z   1
loop_
 _symmetry_equiv_pos_site_id
 _symmetry_equiv_pos_as_xyz
  1  'x, y, z'
loop_
 _atom_site_type_symbol
 _atom_site_label
 _atom_site_symmetry_multiplicity
 _atom_site_fract_x
 _atom_site_fract_y
 _atom_site_fract_z
 _atom_site_occupancy
  Li  Li0  1  0.43404900  0.43404900  0.19751100  1
  Li  Li1  1  0.31418700  0.31418700  0.55669900  1
  Li  Li2  1  0.18881300  0.18881300  0.93611900  1
  Li  Li3  1  0.06179500  0.06179500  0.31412300  1
  Li  Li4  1  0.93426900  0.93426900  0.70017300  1
  Li  Li5  1  0.81511300  0.81511300  0.04934200  1
  Li  Li6  1  0.68814900  0.68814900  0.43691800  1
  Li  Li7  1  0.56316600  0.56316600  0.81302200  1
  Li  Li8  1  0.87461800  0.87461800  0.37554700  1
  Mn  Mn0  1  0.99958400  0.99958400  0.00329600  1
  Mn  Mn1  1  0.62519100  0.62519100  0.12441800  1
  Co  Co0  1  0.75065400  0.75065400  0.74753500  1
  Co  Co1  1  0.49889700  0.49889700  0.50409500  1
  Co  Co2  1  0.37482200  0.37482200  0.87450100  1
  Co  Co3  1  0.25089900  0.25089900  0.24781000  1
  Co  Co4  1  0.12527500  0.12527500  0.62394800  1
  O  O0  1  0.47101100  0.47101100  0.86762100  1
  O  O1  1  0.34825900  0.34825900  0.16241200  1
  O  O2  1  0.22173300  0.22173300  0.59203100  1
  O  O3  1  0.09591300  0.09591300  0.98866900  1
  O  O4  1  0.97084100  0.97084100  0.36875000  1
  O  O5  1  0.84713000  0.84713000  0.73039300  1
  O  O6  1  0.72186800  0.72186800  0.09401100  1
  O  O7  1  0.59656800  0.59656800  0.49596500  1
  O  O8  1  0.40166000  0.40166000  0.58497900  1
  O  O9  1  0.27875600  0.27875600  0.90115300  1
  O  O10  1  0.15417400  0.15417400  0.26003100  1
  O  O11  1  0.02769900  0.02769900  0.63395300  1
  O  O12  1  0.90268900  0.90268900  0.01864300  1
  O  O13  1  0.77977700  0.77977700  0.40246200  1
  O  O14  1  0.65357800  0.65357800  0.75364400  1
  O  O15  1  0.52886200  0.52886200  0.14022900  1
loop_
_geom_bond_atom_site_label_1
_geom_bond_atom_site_label_2
_geom_bond_distance
_geom_bond_site_symmetry_2
Li0 O12 2.109184 1_455
Li0 O12 2.109184 1_545
Li0 O0 2.211045 1_554
Li0 O4 2.220710 1_455
Li0 O4 2.220710 1_545
Li0 O8 2.351830 1_555
Li1 O13 2.126749 1_545
Li1 O13 2.126749 1_455
Li1 O5 2.133414 1_455
Li1 O5 2.133414 1_545
Li1 O9 2.233676 1_555
Li1 O1 2.415658 1_555
Li2 O6 2.101759 1_456
Li2 O6 2.101759 1_546
Li2 O10 2.131311 1_556
Li2 O2 2.175627 1_555
Li2 O14 2.207517 1_545
Li2 O14 2.207517 1_455
Li3 O11 2.101937 1_555
Li3 O3 2.125344 1_554
Li3 O15 2.133632 1_455
Li3 O15 2.133632 1_545
Li3 O7 2.195014 1_545
Li3 O7 2.195014 1_455
Li4 O8 2.012139 1_565
Li4 O8 2.012139 1_655
Li4 O12 2.038340 1_556
Li4 O4 2.207710 1_555
Li4 O0 2.211419 1_655
Li4 O0 2.211419 1_565
Li5 O1 2.021889 1_565
Li5 O1 2.021889 1_655
Li5 O5 2.050205 1_554
Li5 O9 2.163102 1_654
Li5 O9 2.163102 1_564
Li5 O13 2.267337 1_555
Li6 O14 2.100696 1_555
Li6 O2 2.108606 1_655
Li6 O2 2.108606 1_565
Li6 O10 2.164797 1_655
Li6 O10 2.164797 1_565
Li6 O6 2.188371 1_555
Li7 O7 2.074349 1_555
Li7 O3 2.133297 1_565
Li7 O3 2.133297 1_655
Li7 O15 2.136844 1_556
Li7 O11 2.205379 1_655
Li7 O11 2.205379 1_565
Li8 O1 2.093475 1_565
Li8 O1 2.093475 1_655
Li8 O8 2.096397 1_565
Li8 O8 2.096397 1_655
Li8 O5 2.111759 1_555
Li8 O12 2.132007 1_555
Mn0 O0 1.954813 1_564
Mn0 O0 1.954813 1_654
Mn0 O15 1.972841 1_655
Mn0 O15 1.972841 1_565
Mn0 O4 2.183073 1_555
Mn0 O11 2.188784 1_664
Mn1 O10 1.963744 1_565
Mn1 O10 1.963744 1_655
Mn1 O3 1.970568 1_654
Mn1 O3 1.970568 1_564
Mn1 O14 2.200291 1_554
Mn1 O7 2.208176 1_555
Co0 O9 1.981140 1_655
Co0 O9 1.981140 1_565
Co0 O2 2.002831 1_565
Co0 O2 2.002831 1_655
Co0 O6 2.099515 1_556
Co0 O13 2.100056 1_555
Co1 O4 1.942887 1_545
Co1 O4 1.942887 1_455
Co1 O11 1.948884 1_655
Co1 O11 1.948884 1_565
Co1 O0 2.158283 1_555
Co1 O15 2.199642 1_555
Co2 O1 1.799130 1_556
Co2 O8 1.811906 1_555
Co2 O5 1.952473 1_455
Co2 O5 1.952473 1_545
Co2 O12 1.956284 1_546
Co2 O12 1.956284 1_456
Co3 O13 2.000071 1_455
Co3 O13 2.000071 1_545
Co3 O6 2.001583 1_545
Co3 O6 2.001583 1_455
Co3 O9 2.082137 1_554
Co3 O2 2.097178 1_555
Co4 O14 1.937569 1_455
Co4 O14 1.937569 1_545
Co4 O7 1.943324 1_455
Co4 O7 1.943324 1_545
Co4 O10 2.179172 1_555
Co4 O3 2.191668 1_555
