# generated using pymatgen
data_Y8Rh5C12
_symmetry_space_group_name_H-M   'P 1'
_cell_length_a   3.57105100
_cell_length_b   7.43882036
_cell_length_c   14.12280529
_cell_angle_alpha   93.77543876
_cell_angle_beta   97.26325697
_cell_angle_gamma   90.00000000
_symmetry_Int_Tables_number   1
_chemical_formula_structural   Y8Rh5C12
_chemical_formula_sum   'Y8 Rh5 C12'
_cell_volume   371.33274028
_cell_formula_units_Z   1
loop_
 _symmetry_equiv_pos_site_id
 _symmetry_equiv_pos_as_xyz
  1  'x, y, z'
loop_
 _atom_site_type_symbol
 _atom_site_label
 _atom_site_symmetry_multiplicity
 _atom_site_fract_x
 _atom_site_fract_y
 _atom_site_fract_z
 _atom_site_occupancy
  Y  Y0  1  0.29361500  0.88388600  0.58723100  1
  Y  Y1  1  0.70638500  0.11611400  0.41276900  1
  Y  Y2  1  0.30025100  0.39070500  0.60050200  1
  Y  Y3  1  0.69974900  0.60929500  0.39949800  1
  Y  Y4  1  0.41199700  0.17148100  0.82399300  1
  Y  Y5  1  0.58800300  0.82851900  0.17600700  1
  Y  Y6  1  0.45316900  0.70293800  0.90633800  1
  Y  Y7  1  0.54683100  0.29706200  0.09366200  1
  Rh  Rh0  1  0.00000000  0.00000000  0.00000000  1
  Rh  Rh1  1  0.10994800  0.49242100  0.21989600  1
  Rh  Rh2  1  0.89005200  0.50757900  0.78010400  1
  Rh  Rh3  1  0.11680100  0.12800500  0.23360300  1
  Rh  Rh4  1  0.88319900  0.87199500  0.76639700  1
  C  C0  1  0.02276000  0.75554400  0.04552100  1
  C  C1  1  0.97724000  0.24445600  0.95447900  1
  C  C2  1  0.04787900  0.61413900  0.09575800  1
  C  C3  1  0.95212100  0.38586100  0.90424200  1
  C  C4  1  0.16825700  0.34704500  0.33651500  1
  C  C5  1  0.83174300  0.65295500  0.66348500  1
  C  C6  1  0.21617500  0.36458300  0.43235000  1
  C  C7  1  0.78382500  0.63541700  0.56765000  1
  C  C8  1  0.15870000  0.87421500  0.31740000  1
  C  C9  1  0.84130000  0.12578500  0.68260000  1
  C  C10  1  0.20692500  0.86891900  0.41385000  1
  C  C11  1  0.79307500  0.13108100  0.58615000  1
loop_
_geom_bond_atom_site_label_1
_geom_bond_atom_site_label_2
_geom_bond_distance
_geom_bond_site_symmetry_2
Rh0 Y6 3.067261 1_544
Rh0 Y7 3.067261 1_455
Rh0 Y7 3.067261 1_555
Rh0 Y6 3.067261 1_444
Rh1 Y7 2.843645 1_555
Rh1 Y7 2.843645 1_455
Rh1 Y3 3.159821 1_455
Rh1 Y3 3.159821 1_555
Rh2 Y6 2.843645 1_555
Rh2 Y6 2.843645 1_655
Rh2 Y2 3.159821 1_655
Rh2 Y2 3.159821 1_555
Rh3 Y5 2.926383 1_545
Rh3 Y5 2.926383 1_445
Rh3 Y7 2.990065 1_455
Rh3 Y7 2.990067 1_555
Rh4 Y4 2.926383 1_565
Rh4 Y4 2.926383 1_665
Rh4 Y6 2.990065 1_655
Rh4 Y6 2.990067 1_555
C0 C2 1.303869 1_555
C0 Rh0 1.966587 1_565
C0 Y5 2.587040 1_455
C0 Y5 2.587040 1_555
C0 Y6 2.653671 1_454
C0 Y6 2.653673 1_554
C1 C3 1.303869 1_555
C1 Rh0 1.966587 1_656
C1 Y4 2.587040 1_655
C1 Y4 2.587040 1_555
C1 Y7 2.653671 1_656
C1 Y7 2.653673 1_556
C2 Rh1 2.013297 1_555
C2 Y5 2.599459 1_555
C2 Y5 2.599461 1_455
C2 Y7 2.956879 1_555
C2 Y7 2.956879 1_455
C3 Rh2 2.013297 1_555
C3 Y4 2.599459 1_555
C3 Y4 2.599461 1_655
C3 Y6 2.956879 1_555
C3 Y6 2.956879 1_655
C4 C6 1.340275 1_555
C4 Rh1 2.018229 1_555
C4 Rh3 2.102783 1_555
C4 Y1 2.742984 1_455
C4 Y1 2.742989 1_555
C4 Y3 2.746611 1_455
C4 Y3 2.746613 1_555
C5 C7 1.340275 1_555
C5 Rh2 2.018229 1_555
C5 Rh4 2.102783 1_555
C5 Y0 2.742984 1_655
C5 Y0 2.742989 1_555
C5 Y2 2.746611 1_655
C5 Y2 2.746613 1_555
C6 Y2 2.350833 1_555
C6 Y1 2.571441 1_455
C6 Y1 2.571443 1_555
C6 Y3 2.612449 1_555
C6 Y3 2.612449 1_455
C7 Y3 2.350833 1_555
C7 Y0 2.571441 1_655
C7 Y0 2.571443 1_555
C7 Y2 2.612449 1_555
C7 Y2 2.612449 1_655
C8 Rh3 2.288352 1_565
C8 Y5 2.671702 1_555
C8 Y5 2.671704 1_455
C8 Y3 2.948810 1_455
C8 Y3 2.948810 1_555
C9 Rh4 2.288352 1_545
C9 Y4 2.671702 1_555
C9 Y4 2.671704 1_655
C9 Y2 2.948810 1_655
C9 Y2 2.948810 1_555
C10 C8 1.354400 1_555
C10 Y0 2.424134 1_555
C10 Y1 2.563855 1_465
C10 Y1 2.563857 1_565
C10 Y3 2.628095 1_555
C10 Y3 2.628095 1_455
C11 C9 1.354400 1_555
C11 Y1 2.424134 1_555
C11 Y0 2.563855 1_645
C11 Y0 2.563857 1_545
C11 Y2 2.628095 1_555
C11 Y2 2.628095 1_655
