# generated using pymatgen
data_KLaZr4O12
_symmetry_space_group_name_H-M   'P 1'
_cell_length_a   5.85754347
_cell_length_b   5.85754347
_cell_length_c   8.45050746
_cell_angle_alpha   90.00000000
_cell_angle_beta   90.00000000
_cell_angle_gamma   89.75040838
_symmetry_Int_Tables_number   1
_chemical_formula_structural   KLaZr4O12
_chemical_formula_sum   'K1 La1 Zr4 O12'
_cell_volume   289.94105147
_cell_formula_units_Z   1
loop_
 _symmetry_equiv_pos_site_id
 _symmetry_equiv_pos_as_xyz
  1  'x, y, z'
loop_
 _atom_site_type_symbol
 _atom_site_label
 _atom_site_symmetry_multiplicity
 _atom_site_fract_x
 _atom_site_fract_y
 _atom_site_fract_z
 _atom_site_occupancy
  K  K0  1  0.99745576  0.00254424  -0.00000000  1
  La  La0  1  0.51005212  0.48994788  0.50000000  1
  Zr  Zr0  1  0.49950471  0.99524808  0.24210319  1
  Zr  Zr1  1  0.49950471  0.99524808  0.75789681  1
  Zr  Zr2  1  0.00475192  0.50049529  0.75789681  1
  Zr  Zr3  1  0.00475192  0.50049529  0.24210319  1
  O  O0  1  0.28247152  0.27956992  0.28459332  1
  O  O1  1  0.72043008  0.71752848  0.28459332  1
  O  O2  1  0.72043008  0.71752848  0.71540668  1
  O  O3  1  0.28247152  0.27956992  0.71540668  1
  O  O4  1  0.22070344  0.77929656  0.23692548  1
  O  O5  1  0.74663377  0.25336623  0.29559600  1
  O  O6  1  0.74663377  0.25336623  0.70440400  1
  O  O7  1  0.22070344  0.77929656  0.76307452  1
  O  O8  1  0.52613342  0.00823160  -0.00000000  1
  O  O9  1  0.47642843  0.93892899  0.50000000  1
  O  O10  1  0.99176840  0.47386658  0.00000000  1
  O  O11  1  0.06107101  0.52357157  0.50000000  1
loop_
_geom_bond_atom_site_label_1
_geom_bond_atom_site_label_2
_geom_bond_distance
_geom_bond_site_symmetry_2
K0 O7 2.722818 1_644
K0 O4 2.722818 1_645
K0 O10 2.760847 1_555
K0 O8 2.760847 1_555
K0 O8 3.097077 1_655
K0 O10 3.097077 1_545
La0 O3 2.573598 1_555
La0 O2 2.573598 1_555
La0 O0 2.573598 1_555
La0 O1 2.573598 1_555
La0 O6 2.609158 1_555
La0 O5 2.609158 1_555
La0 O9 2.636435 1_555
La0 O11 2.636435 1_555
O0 Zr3 2.105127 1_555
O0 Zr0 2.121388 1_545
O1 Zr0 2.105127 1_555
O1 Zr3 2.121388 1_655
O2 Zr1 2.105127 1_555
O2 Zr2 2.121388 1_655
O3 Zr2 2.105127 1_555
O3 Zr1 2.121388 1_545
O4 Zr3 2.070503 1_555
O4 Zr0 2.070503 1_555
O5 Zr3 2.145885 1_655
O5 Zr0 2.145885 1_545
O6 Zr2 2.145885 1_655
O6 Zr1 2.145885 1_545
O7 Zr2 2.070503 1_555
O7 Zr1 2.070503 1_555
O8 Zr0 2.053266 1_545
O8 Zr1 2.053266 1_544
O9 Zr0 2.208414 1_555
O9 Zr1 2.208414 1_555
O10 Zr3 2.053266 1_655
O10 Zr2 2.053266 1_654
O11 Zr2 2.208414 1_555
O11 Zr3 2.208414 1_555
