# generated using pymatgen
data_SrMg6Fe
_symmetry_space_group_name_H-M   'P 1'
_cell_length_a   6.89835721
_cell_length_b   6.89835721
_cell_length_c   5.01109900
_cell_angle_alpha   90.00000000
_cell_angle_beta   90.00000000
_cell_angle_gamma   124.80154722
_symmetry_Int_Tables_number   1
_chemical_formula_structural   SrMg6Fe
_chemical_formula_sum   'Sr1 Mg6 Fe1'
_cell_volume   195.81153351
_cell_formula_units_Z   1
loop_
 _symmetry_equiv_pos_site_id
 _symmetry_equiv_pos_as_xyz
  1  'x, y, z'
loop_
 _atom_site_type_symbol
 _atom_site_label
 _atom_site_symmetry_multiplicity
 _atom_site_fract_x
 _atom_site_fract_y
 _atom_site_fract_z
 _atom_site_occupancy
  Sr  Sr0  1  0.30935900  0.69064100  0.50000000  1
  Mg  Mg0  1  0.18084000  0.29900500  0.00000000  1
  Mg  Mg1  1  0.70099500  0.81916000  0.00000000  1
  Mg  Mg2  1  0.67817200  0.32182800  0.00000000  1
  Mg  Mg3  1  0.31698800  0.16206100  0.50000000  1
  Mg  Mg4  1  0.83793900  0.68301200  0.50000000  1
  Mg  Mg5  1  0.84110000  0.15890000  0.50000000  1
  Fe  Fe0  1  0.13460700  0.86539300  0.00000000  1
loop_
_geom_bond_atom_site_label_1
_geom_bond_atom_site_label_2
_geom_bond_distance
_geom_bond_site_symmetry_2
Mg0 Mg3 3.010827 1_555
Mg0 Mg3 3.010827 1_554
Mg0 Mg1 3.067072 1_445
Mg0 Mg5 3.181038 1_455
Mg0 Mg5 3.181038 1_454
Mg0 Mg1 3.324726 1_555
Mg0 Mg2 3.343417 1_555
Mg0 Sr0 3.410076 1_554
Mg0 Sr0 3.410076 1_555
Mg1 Mg4 3.010827 1_555
Mg1 Mg4 3.010827 1_554
Mg1 Mg5 3.181038 1_565
Mg1 Mg5 3.181038 1_564
Mg1 Mg2 3.343417 1_555
Mg1 Sr0 3.410076 1_554
Mg1 Sr0 3.410076 1_555
Mg2 Mg5 3.200966 1_554
Mg2 Mg5 3.200966 1_555
Mg2 Mg3 3.250522 1_555
Mg2 Mg3 3.250522 1_554
Mg2 Mg4 3.250522 1_555
Mg2 Mg4 3.250522 1_554
Mg3 Mg4 3.061984 1_445
Mg3 Sr0 3.222277 1_545
Mg3 Mg5 3.270449 1_455
Mg3 Mg4 3.329814 1_555
Mg3 Sr0 3.676624 1_555
Mg4 Sr0 3.222277 1_655
Mg4 Mg5 3.270449 1_565
Mg4 Sr0 3.676624 1_555
Mg5 Sr0 3.219376 1_655
Mg5 Sr0 3.219376 1_545
Fe0 Mg0 2.821365 1_565
Fe0 Mg1 2.821365 1_455
Fe0 Mg3 3.018256 1_564
Fe0 Mg3 3.018256 1_565
Fe0 Mg4 3.018256 1_455
Fe0 Mg4 3.018256 1_454
Fe0 Mg2 3.239984 1_455
Fe0 Mg2 3.239984 1_565
Fe0 Sr0 3.292882 1_555
Fe0 Sr0 3.292882 1_554
