# generated using pymatgen
data_Sr(GeRh)2
_symmetry_space_group_name_H-M   'P 1'
_cell_length_a   4.19836551
_cell_length_b   4.19836566
_cell_length_c   6.17994906
_cell_angle_alpha   109.85716975
_cell_angle_beta   109.85716072
_cell_angle_gamma   89.99999414
_symmetry_Int_Tables_number   1
_chemical_formula_structural   Sr(GeRh)2
_chemical_formula_sum   'Sr1 Ge2 Rh2'
_cell_volume   95.53802784
_cell_formula_units_Z   1
loop_
 _symmetry_equiv_pos_site_id
 _symmetry_equiv_pos_as_xyz
  1  'x, y, z'
loop_
 _atom_site_type_symbol
 _atom_site_label
 _atom_site_symmetry_multiplicity
 _atom_site_fract_x
 _atom_site_fract_y
 _atom_site_fract_z
 _atom_site_occupancy
  Sr  Sr0  1  -0.00000000  -0.00000000  0.00000000  1
  Ge  Ge0  1  0.63366887  0.63366887  0.26733874  1
  Ge  Ge1  1  0.36633113  0.36633113  0.73266126  1
  Rh  Rh0  1  0.75000000  0.25000000  0.50000000  1
  Rh  Rh1  1  0.25000000  0.75000000  0.50000000  1
loop_
_geom_bond_atom_site_label_1
_geom_bond_atom_site_label_2
_geom_bond_distance
_geom_bond_site_symmetry_2
Ge0 Rh1 2.448849 1_555
Ge0 Rh0 2.448849 1_555
Ge0 Rh0 2.448853 1_565
Ge0 Rh1 2.448853 1_655
Ge0 Ge1 2.898062 1_554
Ge0 Sr0 3.303454 1_555
Ge0 Sr0 3.303457 1_655
Ge0 Sr0 3.303457 1_565
Ge0 Sr0 3.303460 1_665
Ge1 Rh0 2.448849 1_555
Ge1 Rh1 2.448849 1_555
Ge1 Rh1 2.448853 1_545
Ge1 Rh0 2.448853 1_455
Ge1 Sr0 3.303454 1_666
Ge1 Sr0 3.303457 1_566
Ge1 Sr0 3.303457 1_656
Ge1 Sr0 3.303460 1_556
Rh0 Sr0 3.428006 1_666
Rh0 Sr0 3.428006 1_655
Rh0 Sr0 3.428006 1_555
Rh0 Sr0 3.428006 1_656
Rh1 Sr0 3.428006 1_555
Rh1 Sr0 3.428006 1_566
Rh1 Sr0 3.428006 1_666
Rh1 Sr0 3.428006 1_565
