# generated using pymatgen
data_CsRbMg6
_symmetry_space_group_name_H-M   'P 1'
_cell_length_a   5.43662900
_cell_length_b   8.18237000
_cell_length_c   12.49640500
_cell_angle_alpha   90.00000000
_cell_angle_beta   90.00000000
_cell_angle_gamma   90.00000000
_symmetry_Int_Tables_number   1
_chemical_formula_structural   CsRbMg6
_chemical_formula_sum   'Cs2 Rb2 Mg12'
_cell_volume   555.89645357
_cell_formula_units_Z   2
loop_
 _symmetry_equiv_pos_site_id
 _symmetry_equiv_pos_as_xyz
  1  'x, y, z'
loop_
 _atom_site_type_symbol
 _atom_site_label
 _atom_site_symmetry_multiplicity
 _atom_site_fract_x
 _atom_site_fract_y
 _atom_site_fract_z
 _atom_site_occupancy
  Cs  Cs0  1  0.00000000  0.00000000  0.66149800  1
  Cs  Cs1  1  0.00000000  0.50000000  0.16149800  1
  Rb  Rb0  1  0.50000000  0.00000000  0.84206900  1
  Rb  Rb1  1  0.50000000  0.50000000  0.34206900  1
  Mg  Mg0  1  0.50000000  0.30993500  0.59068100  1
  Mg  Mg1  1  0.50000000  0.69006500  0.59068100  1
  Mg  Mg2  1  0.50000000  0.00000000  0.33401900  1
  Mg  Mg3  1  0.00000000  0.19193300  0.40780900  1
  Mg  Mg4  1  0.00000000  0.80806700  0.40780900  1
  Mg  Mg5  1  0.00000000  0.00000000  0.16543400  1
  Mg  Mg6  1  0.50000000  0.80993500  0.09068100  1
  Mg  Mg7  1  0.50000000  0.19006500  0.09068100  1
  Mg  Mg8  1  0.50000000  0.50000000  0.83401900  1
  Mg  Mg9  1  0.00000000  0.69193300  0.90780900  1
  Mg  Mg10  1  0.00000000  0.30806700  0.90780900  1
  Mg  Mg11  1  0.00000000  0.50000000  0.66543400  1
loop_
_geom_bond_atom_site_label_1
_geom_bond_atom_site_label_2
_geom_bond_distance
_geom_bond_site_symmetry_2
Cs0 Rb0 3.532842 1_555
Cs0 Rb0 3.532842 1_455
Cs0 Mg3 3.537872 1_555
Cs0 Mg4 3.537872 1_545
Cs0 Mg1 3.821478 1_545
Cs0 Mg1 3.821478 1_445
Cs0 Mg0 3.821478 1_455
Cs0 Mg0 3.821478 1_555
Cs0 Mg9 3.978457 1_545
Cs0 Mg10 3.978457 1_555
Cs0 Mg11 4.091481 1_555
Cs0 Mg11 4.091481 1_545
Cs1 Rb1 3.532842 1_555
Cs1 Rb1 3.532842 1_455
Cs1 Mg9 3.537872 1_554
Cs1 Mg10 3.537872 1_554
Cs1 Mg7 3.821478 1_455
Cs1 Mg6 3.821478 1_555
Cs1 Mg7 3.821478 1_555
Cs1 Mg6 3.821478 1_455
Cs1 Mg3 3.978457 1_555
Cs1 Mg4 3.978457 1_555
Cs1 Mg5 4.091481 1_565
Cs1 Mg5 4.091481 1_555
Mg0 Mg1 3.110364 1_555
Mg0 Mg11 3.268096 1_555
Mg0 Mg11 3.268096 1_655
Mg0 Mg8 3.415459 1_555
Mg0 Rb1 3.474266 1_555
Mg0 Rb0 4.037325 1_555
Mg1 Mg11 3.268096 1_555
Mg1 Mg11 3.268096 1_655
Mg1 Mg8 3.415459 1_555
Mg1 Rb1 3.474266 1_555
Mg1 Rb0 4.037325 1_565
Mg2 Mg3 3.271985 1_555
Mg2 Mg4 3.271985 1_545
Mg2 Mg4 3.271985 1_645
Mg2 Mg3 3.271985 1_655
Mg2 Mg6 3.415459 1_545
Mg2 Mg7 3.415459 1_555
Mg2 Mg5 3.439105 1_555
Mg2 Mg5 3.439105 1_655
Mg2 Rb1 4.092422 1_545
Mg2 Rb1 4.092422 1_555
Mg3 Mg4 3.140934 1_545
Mg3 Mg5 3.411758 1_555
Mg3 Rb1 3.797122 1_455
Mg3 Rb1 3.797122 1_555
Mg4 Mg5 3.411758 1_565
Mg4 Rb1 3.797122 1_455
Mg4 Rb1 3.797122 1_555
Mg5 Mg6 3.268096 1_445
Mg5 Mg6 3.268096 1_545
Mg5 Mg7 3.268096 1_455
Mg5 Mg7 3.268096 1_555
Mg6 Mg7 3.110364 1_565
Mg6 Rb0 3.474266 1_564
Mg6 Rb1 4.037325 1_555
Mg7 Rb0 3.474266 1_554
Mg7 Rb1 4.037325 1_555
Mg8 Mg9 3.271985 1_555
Mg8 Mg9 3.271985 1_655
Mg8 Rb0 4.092422 1_565
Mg8 Rb0 4.092422 1_555
Mg9 Rb0 3.797122 1_565
Mg9 Rb0 3.797122 1_465
Mg10 Mg9 3.140934 1_555
Mg10 Mg8 3.271985 1_555
Mg10 Mg8 3.271985 1_455
Mg10 Mg11 3.411758 1_555
Mg10 Rb0 3.797122 1_555
Mg10 Rb0 3.797122 1_455
Mg11 Mg9 3.411758 1_555
Mg11 Mg8 3.439105 1_455
Mg11 Mg8 3.439105 1_555
