# generated using pymatgen
data_Ba2V3InO11
_symmetry_space_group_name_H-M   'P 1'
_cell_length_a   7.70674300
_cell_length_b   12.28105223
_cell_length_c   11.60128467
_cell_angle_alpha   103.49460412
_cell_angle_beta   90.00000000
_cell_angle_gamma   90.00000000
_symmetry_Int_Tables_number   1
_chemical_formula_structural   Ba2V3InO11
_chemical_formula_sum   'Ba8 V12 In4 O44'
_cell_volume   1067.71138000
_cell_formula_units_Z   4
loop_
 _symmetry_equiv_pos_site_id
 _symmetry_equiv_pos_as_xyz
  1  'x, y, z'
loop_
 _atom_site_type_symbol
 _atom_site_label
 _atom_site_symmetry_multiplicity
 _atom_site_fract_x
 _atom_site_fract_y
 _atom_site_fract_z
 _atom_site_occupancy
  Ba  Ba0  1  0.27435700  0.77557700  0.94373600  1
  Ba  Ba1  1  0.72564300  0.22442300  0.05626400  1
  Ba  Ba2  1  0.77435700  0.22442300  0.55626400  1
  Ba  Ba3  1  0.22564300  0.77557700  0.44373600  1
  Ba  Ba4  1  0.74716600  0.55757500  0.89013600  1
  Ba  Ba5  1  0.25283400  0.44242500  0.10986400  1
  Ba  Ba6  1  0.24716600  0.44242500  0.60986400  1
  Ba  Ba7  1  0.75283400  0.55757500  0.39013600  1
  V  V0  1  0.76345100  0.90619300  0.97452700  1
  V  V1  1  0.23654900  0.09380700  0.02547300  1
  V  V2  1  0.26345100  0.09380700  0.52547300  1
  V  V3  1  0.73654900  0.90619300  0.47452700  1
  V  V4  1  0.51859800  0.68699200  0.67186900  1
  V  V5  1  0.48140200  0.31300800  0.32813100  1
  V  V6  1  0.01859800  0.31300800  0.82813100  1
  V  V7  1  0.98140200  0.68699200  0.17186900  1
  V  V8  1  0.98239200  0.69063600  0.67364000  1
  V  V9  1  0.01760800  0.30936400  0.32636000  1
  V  V10  1  0.48239200  0.30936400  0.82636000  1
  V  V11  1  0.51760800  0.69063600  0.17364000  1
  In  In0  1  0.49184500  0.99865500  0.74820700  1
  In  In1  1  0.50815500  0.00134500  0.25179300  1
  In  In2  1  0.99184500  0.00134500  0.75179300  1
  In  In3  1  0.00815500  0.99865500  0.24820700  1
  O  O0  1  0.44796700  0.82556700  0.71462100  1
  O  O1  1  0.55203300  0.17443300  0.28537900  1
  O  O2  1  0.94796700  0.17443300  0.78537900  1
  O  O3  1  0.05203300  0.82556700  0.21462100  1
  O  O4  1  0.54821900  0.16976500  0.79975500  1
  O  O5  1  0.45178100  0.83023500  0.20024500  1
  O  O6  1  0.04821900  0.83023500  0.70024500  1
  O  O7  1  0.95178100  0.16976500  0.29975500  1
  O  O8  1  0.75078500  0.66562300  0.66691700  1
  O  O9  1  0.24921500  0.33437700  0.33308300  1
  O  O10  1  0.25078500  0.33437700  0.83308300  1
  O  O11  1  0.74921500  0.66562300  0.16691700  1
  O  O12  1  0.94472300  0.37520800  0.96550400  1
  O  O13  1  0.05527700  0.62479200  0.03449600  1
  O  O14  1  0.44472300  0.62479200  0.53449600  1
  O  O15  1  0.55527700  0.37520800  0.46550400  1
  O  O16  1  0.93814200  0.38771200  0.73325600  1
  O  O17  1  0.06185800  0.61228800  0.26674400  1
  O  O18  1  0.43814200  0.61228800  0.76674400  1
  O  O19  1  0.56185800  0.38771200  0.23325600  1
  O  O20  1  0.77516300  0.99130300  0.62173900  1
  O  O21  1  0.22483700  0.00869700  0.37826100  1
  O  O22  1  0.27516300  0.00869700  0.87826100  1
  O  O23  1  0.72483700  0.99130300  0.12173900  1
  O  O24  1  0.97262500  0.86783900  0.97032300  1
  O  O25  1  0.02737500  0.13216100  0.02967700  1
  O  O26  1  0.47262500  0.13216100  0.52967700  1
  O  O27  1  0.52737500  0.86783900  0.47032300  1
  O  O28  1  0.63817200  0.78845600  0.94602500  1
  O  O29  1  0.36182800  0.21154400  0.05397500  1
  O  O30  1  0.13817200  0.21154400  0.55397500  1
  O  O31  1  0.86182800  0.78845600  0.44602500  1
  O  O32  1  0.73518100  0.98606500  0.86119300  1
  O  O33  1  0.26481900  0.01393500  0.13880700  1
  O  O34  1  0.23518100  0.01393500  0.63880700  1
  O  O35  1  0.76481900  0.98606500  0.36119300  1
  O  O36  1  0.55861800  0.37039000  0.71969300  1
  O  O37  1  0.44138200  0.62961000  0.28030700  1
  O  O38  1  0.05861800  0.62961000  0.78030700  1
  O  O39  1  0.94138200  0.37039000  0.21969300  1
  O  O40  1  0.56532800  0.38304600  0.95750000  1
  O  O41  1  0.43467200  0.61695400  0.04250000  1
  O  O42  1  0.06532800  0.61695400  0.54250000  1
  O  O43  1  0.93467200  0.38304600  0.45750000  1
loop_
_geom_bond_atom_site_label_1
_geom_bond_atom_site_label_2
_geom_bond_distance
_geom_bond_site_symmetry_2
Ba0 O24 2.573565 1_455
Ba0 O41 2.770552 1_556
Ba0 O28 2.808063 1_555
Ba0 O18 2.812326 1_555
Ba0 O38 2.826026 1_555
Ba0 O13 2.880710 1_556
Ba0 O22 3.128658 1_565
Ba0 O0 3.161293 1_555
Ba0 O5 3.200559 1_556
Ba0 O33 3.256399 1_566
Ba1 O25 2.573565 1_655
Ba1 O40 2.770552 1_554
Ba1 O29 2.808063 1_555
Ba1 O19 2.812326 1_555
Ba1 O39 2.826026 1_555
Ba1 O12 2.880710 1_554
Ba1 O23 3.128658 1_545
Ba1 O1 3.161293 1_555
Ba1 O4 3.200559 1_554
Ba1 O32 3.256399 1_544
Ba2 O26 2.573565 1_555
Ba2 O43 2.770552 1_555
Ba2 O30 2.808063 1_655
Ba2 O16 2.812326 1_555
Ba2 O36 2.826026 1_555
Ba2 O15 2.880710 1_555
Ba2 O20 3.128658 1_545
Ba2 O2 3.161293 1_555
Ba2 O7 3.200559 1_555
Ba2 O35 3.256399 1_545
Ba3 O27 2.573565 1_555
Ba3 O42 2.770552 1_555
Ba3 O31 2.808063 1_455
Ba3 O17 2.812326 1_555
Ba3 O37 2.826026 1_555
Ba3 O14 2.880710 1_555
Ba3 O21 3.128658 1_565
Ba3 O3 3.161293 1_555
Ba3 O6 3.200559 1_555
Ba3 O34 3.256399 1_565
Ba4 O40 2.819673 1_555
Ba4 O16 2.838746 1_555
Ba4 O28 2.882325 1_555
Ba4 O13 2.911949 1_656
Ba4 O18 2.936237 1_555
Ba4 O38 2.948480 1_655
Ba4 O41 2.975673 1_556
Ba4 O12 3.002099 1_555
Ba4 O36 3.030604 1_555
Ba4 O8 3.173557 1_555
Ba4 O11 3.175387 1_556
Ba5 O41 2.819673 1_555
Ba5 O17 2.838746 1_555
Ba5 O29 2.882325 1_555
Ba5 O12 2.911949 1_454
Ba5 O19 2.936237 1_555
Ba5 O39 2.948480 1_455
Ba5 O40 2.975673 1_554
Ba5 O13 3.002099 1_555
Ba5 O37 3.030604 1_555
Ba5 O9 3.173557 1_555
Ba5 O10 3.175387 1_554
Ba6 O42 2.819673 1_555
Ba6 O18 2.838746 1_555
Ba6 O30 2.882325 1_555
Ba6 O15 2.911949 1_555
Ba6 O16 2.936237 1_455
Ba6 O36 2.948480 1_555
Ba6 O43 2.975673 1_455
Ba6 O14 3.002099 1_555
Ba6 O38 3.030604 1_555
Ba6 O10 3.173557 1_555
Ba6 O9 3.175387 1_555
Ba7 O43 2.819673 1_555
Ba7 O19 2.838746 1_555
Ba7 O31 2.882325 1_555
Ba7 O14 2.911949 1_555
Ba7 O17 2.936237 1_655
Ba7 O37 2.948480 1_555
Ba7 O42 2.975673 1_655
Ba7 O15 3.002099 1_555
Ba7 O39 3.030604 1_555
Ba7 O11 3.173557 1_555
Ba7 O8 3.175387 1_555
In0 O4 2.091843 1_565
In0 O0 2.097195 1_555
In0 O22 2.234599 1_565
In0 O32 2.313764 1_555
In0 O34 2.381143 1_565
In0 O20 2.620395 1_555
In1 O5 2.091843 1_545
In1 O1 2.097195 1_555
In1 O23 2.234599 1_545
In1 O33 2.313764 1_555
In1 O35 2.381143 1_545
In1 O21 2.620395 1_555
In2 O6 2.091843 1_645
In2 O2 2.097195 1_555
In2 O20 2.234599 1_545
In2 O34 2.313764 1_655
In2 O32 2.381143 1_545
In2 O22 2.620395 1_655
In3 O7 2.091843 1_465
In3 O3 2.097195 1_555
In3 O21 2.234599 1_565
In3 O35 2.313764 1_455
In3 O33 2.381143 1_565
In3 O23 2.620395 1_455
O0 V4 1.744890 1_555
O1 V5 1.744890 1_555
O2 V6 1.744890 1_655
O3 V7 1.744890 1_455
O4 V10 1.744968 1_555
O5 V11 1.744968 1_555
O6 V8 1.744968 1_455
O7 V9 1.744968 1_655
O8 V4 1.807514 1_555
O8 V8 1.809768 1_555
O9 V5 1.807514 1_555
O9 V9 1.809768 1_555
O10 V6 1.807514 1_555
O10 V10 1.809768 1_555
O11 V7 1.807514 1_555
O11 V11 1.809768 1_555
O12 V6 1.696873 1_655
O13 V7 1.696873 1_455
O14 V4 1.696873 1_555
O15 V5 1.696873 1_555
O16 V6 1.705559 1_655
O17 V7 1.705559 1_455
O18 V4 1.705559 1_555
O19 V5 1.705559 1_555
O20 V3 1.806850 1_555
O21 V2 1.806850 1_555
O22 V1 1.806850 1_556
O23 V0 1.806850 1_554
O24 V0 1.676970 1_555
O25 V1 1.676970 1_555
O26 V2 1.676970 1_555
O27 V3 1.676970 1_555
O28 V0 1.705608 1_555
O29 V1 1.705608 1_555
O30 V2 1.705608 1_555
O31 V3 1.705608 1_555
O32 V0 1.827657 1_555
O33 V1 1.827657 1_555
O34 V2 1.827657 1_555
O35 V3 1.827657 1_555
O36 V10 1.694398 1_555
O37 V11 1.694398 1_555
O38 V8 1.694398 1_455
O39 V9 1.694398 1_655
O40 V10 1.702787 1_555
O41 V11 1.702787 1_555
O42 V8 1.702787 1_455
O43 V9 1.702787 1_655
