# generated using pymatgen
data_MgCrAsO5
_symmetry_space_group_name_H-M   'P 1'
_cell_length_a   6.05044900
_cell_length_b   7.72152500
_cell_length_c   8.49629800
_cell_angle_alpha   90.00000000
_cell_angle_beta   90.00000000
_cell_angle_gamma   90.00000000
_symmetry_Int_Tables_number   1
_chemical_formula_structural   MgCrAsO5
_chemical_formula_sum   'Mg4 Cr4 As4 O20'
_cell_volume   396.93593972
_cell_formula_units_Z   4
loop_
 _symmetry_equiv_pos_site_id
 _symmetry_equiv_pos_as_xyz
  1  'x, y, z'
loop_
 _atom_site_type_symbol
 _atom_site_label
 _atom_site_symmetry_multiplicity
 _atom_site_fract_x
 _atom_site_fract_y
 _atom_site_fract_z
 _atom_site_occupancy
  Mg  Mg0  1  0.05330100  0.82611500  0.68533900  1
  Mg  Mg1  1  0.44669900  0.17388500  0.18533900  1
  Mg  Mg2  1  0.94669900  0.32611500  0.81466100  1
  Mg  Mg3  1  0.55330100  0.67388500  0.31466100  1
  Cr  Cr0  1  0.25691700  0.75530600  0.00025800  1
  Cr  Cr1  1  0.24308300  0.24469400  0.50025800  1
  Cr  Cr2  1  0.74308300  0.25530600  0.49974200  1
  Cr  Cr3  1  0.75691700  0.74469400  0.99974200  1
  As  As0  1  0.48163500  0.10092500  0.81964500  1
  As  As1  1  0.01836500  0.89907500  0.31964500  1
  As  As2  1  0.51836500  0.60092500  0.68035500  1
  As  As3  1  0.98163500  0.39907500  0.18035500  1
  O  O0  1  0.50982600  0.90329900  0.91660800  1
  O  O1  1  0.99017400  0.09670100  0.41660800  1
  O  O2  1  0.49017400  0.40329900  0.58339200  1
  O  O3  1  0.00982600  0.59670100  0.08339200  1
  O  O4  1  0.43042600  0.24780000  0.96273500  1
  O  O5  1  0.06957400  0.75220000  0.46273500  1
  O  O6  1  0.56957400  0.74780000  0.53726500  1
  O  O7  1  0.93042600  0.25220000  0.03726500  1
  O  O8  1  0.72762000  0.14033100  0.72211800  1
  O  O9  1  0.77238000  0.85966900  0.22211800  1
  O  O10  1  0.27238000  0.64033100  0.77788200  1
  O  O11  1  0.22762000  0.35966900  0.27788200  1
  O  O12  1  0.25399200  0.08705100  0.69652100  1
  O  O13  1  0.24600800  0.91294900  0.19652100  1
  O  O14  1  0.74600800  0.58705100  0.80347900  1
  O  O15  1  0.75399200  0.41294900  0.30347900  1
  O  O16  1  0.00018900  0.87056600  0.90598500  1
  O  O17  1  0.49981100  0.12943400  0.40598500  1
  O  O18  1  0.99981100  0.37056600  0.59401500  1
  O  O19  1  0.50018900  0.62943400  0.09401500  1
loop_
_geom_bond_atom_site_label_1
_geom_bond_atom_site_label_2
_geom_bond_distance
_geom_bond_site_symmetry_2
Mg0 O16 1.932738 1_555
Mg0 O5 1.978001 1_555
Mg0 O10 2.105502 1_555
Mg0 O12 2.354356 1_565
Mg1 O17 1.932738 1_555
Mg1 O4 1.978001 1_554
Mg1 O11 2.105502 1_555
Mg1 O13 2.354356 1_545
Mg2 O18 1.932738 1_555
Mg2 O7 1.978001 1_556
Mg2 O8 2.105502 1_555
Mg2 O14 2.354356 1_555
Mg3 O19 1.932738 1_555
Mg3 O6 1.978001 1_555
Mg3 O9 2.105502 1_555
Mg3 O15 2.354356 1_555
Cr0 O19 1.935379 1_555
Cr0 O16 1.961231 1_554
Cr0 O0 2.037769 1_554
Cr0 O3 2.057617 1_555
Cr0 O13 2.065581 1_555
Cr0 O10 2.089651 1_554
Cr1 O18 1.935379 1_455
Cr1 O17 1.961231 1_555
Cr1 O1 2.037769 1_455
Cr1 O2 2.057617 1_555
Cr1 O12 2.065581 1_555
Cr1 O11 2.089651 1_555
Cr2 O17 1.935379 1_555
Cr2 O18 1.961231 1_555
Cr2 O2 2.037769 1_555
Cr2 O1 2.057617 1_555
Cr2 O15 2.065581 1_555
Cr2 O8 2.089651 1_555
Cr3 O16 1.935379 1_655
Cr3 O19 1.961231 1_556
Cr3 O3 2.037769 1_656
Cr3 O0 2.057617 1_555
Cr3 O14 2.065581 1_555
Cr3 O9 2.089651 1_556
As0 O4 1.691210 1_555
As0 O8 1.730401 1_555
As0 O12 1.732879 1_555
As0 O0 1.742521 1_545
As1 O5 1.691210 1_555
As1 O9 1.730401 1_455
As1 O13 1.732879 1_555
As1 O1 1.742521 1_465
As2 O6 1.691210 1_555
As2 O10 1.730401 1_555
As2 O14 1.732879 1_555
As2 O2 1.742521 1_555
As3 O7 1.691210 1_555
As3 O11 1.730401 1_655
As3 O15 1.732879 1_555
As3 O3 1.742521 1_655
