# generated using pymatgen
data_CeMg6Mo
_symmetry_space_group_name_H-M   'P 1'
_cell_length_a   5.17732700
_cell_length_b   5.76638900
_cell_length_c   11.80889700
_cell_angle_alpha   90.00000000
_cell_angle_beta   90.00000000
_cell_angle_gamma   90.00000000
_symmetry_Int_Tables_number   1
_chemical_formula_structural   CeMg6Mo
_chemical_formula_sum   'Ce2 Mg12 Mo2'
_cell_volume   352.54849658
_cell_formula_units_Z   2
loop_
 _symmetry_equiv_pos_site_id
 _symmetry_equiv_pos_as_xyz
  1  'x, y, z'
loop_
 _atom_site_type_symbol
 _atom_site_label
 _atom_site_symmetry_multiplicity
 _atom_site_fract_x
 _atom_site_fract_y
 _atom_site_fract_z
 _atom_site_occupancy
  Ce  Ce0  1  0.50000000  0.00000000  0.17755400  1
  Ce  Ce1  1  0.50000000  0.50000000  0.67755400  1
  Mg  Mg0  1  0.50000000  0.24981000  0.42563200  1
  Mg  Mg1  1  0.50000000  0.75019000  0.42563200  1
  Mg  Mg2  1  0.00000000  0.74013400  0.08091600  1
  Mg  Mg3  1  0.00000000  0.25986600  0.08091600  1
  Mg  Mg4  1  0.00000000  0.00000000  0.33664300  1
  Mg  Mg5  1  0.00000000  0.50000000  0.30509800  1
  Mg  Mg6  1  0.50000000  0.74981000  0.92563200  1
  Mg  Mg7  1  0.50000000  0.25019000  0.92563200  1
  Mg  Mg8  1  0.00000000  0.24013400  0.58091600  1
  Mg  Mg9  1  0.00000000  0.75986600  0.58091600  1
  Mg  Mg10  1  0.00000000  0.50000000  0.83664300  1
  Mg  Mg11  1  0.00000000  0.00000000  0.80509800  1
  Mo  Mo0  1  0.50000000  0.50000000  0.16760500  1
  Mo  Mo1  1  0.50000000  0.00000000  0.66760500  1
loop_
_geom_bond_atom_site_label_1
_geom_bond_atom_site_label_2
_geom_bond_distance
_geom_bond_site_symmetry_2
Ce0 Mo0 2.885587 1_555
Ce0 Mo0 2.885587 1_545
Ce0 Mg4 3.198525 1_655
Ce0 Mg4 3.198525 1_555
Ce0 Mg3 3.201399 1_555
Ce0 Mg2 3.201399 1_645
Ce0 Mg2 3.201399 1_545
Ce0 Mg3 3.201399 1_655
Ce0 Mg1 3.264533 1_545
Ce0 Mg0 3.264533 1_555
Ce0 Mg6 3.306285 1_544
Ce0 Mg7 3.306285 1_554
Ce1 Mo1 2.885587 1_565
Ce1 Mo1 2.885587 1_555
Ce1 Mg10 3.198525 1_555
Ce1 Mg10 3.198525 1_655
Ce1 Mg9 3.201399 1_555
Ce1 Mg9 3.201399 1_655
Ce1 Mg8 3.201399 1_555
Ce1 Mg8 3.201399 1_655
Ce1 Mg7 3.264533 1_555
Ce1 Mg6 3.264533 1_555
Ce1 Mg0 3.306285 1_555
Ce1 Mg1 3.306285 1_555
Mg0 Mg1 2.881003 1_545
Mg0 Mg1 2.885386 1_555
Mg0 Mg4 3.143332 1_655
Mg0 Mg4 3.143332 1_555
Mg0 Mg8 3.172833 1_555
Mg0 Mg8 3.172833 1_655
Mg0 Mo1 3.199996 1_555
Mg0 Mg5 3.287633 1_555
Mg0 Mg5 3.287633 1_655
Mg0 Mo0 3.371299 1_555
Mg1 Mg4 3.143332 1_665
Mg1 Mg4 3.143332 1_565
Mg1 Mg9 3.172833 1_655
Mg1 Mg9 3.172833 1_555
Mg1 Mo1 3.199996 1_565
Mg1 Mg5 3.287633 1_555
Mg1 Mg5 3.287633 1_655
Mg1 Mo0 3.371299 1_555
Mg2 Mg3 2.769412 1_555
Mg2 Mg5 2.987613 1_555
Mg2 Mg3 2.996977 1_565
Mg2 Mo0 3.109108 1_455
Mg2 Mo0 3.109108 1_555
Mg2 Mg6 3.172833 1_454
Mg2 Mg6 3.172833 1_554
Mg2 Mg4 3.371199 1_565
Mg3 Mg5 2.987613 1_555
Mg3 Mo0 3.109108 1_455
Mg3 Mo0 3.109108 1_555
Mg3 Mg7 3.172833 1_554
Mg3 Mg7 3.172833 1_454
Mg3 Mg4 3.371199 1_555
Mg4 Mg5 2.907159 1_545
Mg4 Mg5 2.907159 1_555
Mg4 Mg8 3.199734 1_555
Mg4 Mg9 3.199734 1_545
Mg5 Mo0 3.055714 1_555
Mg5 Mo0 3.055714 1_455
Mg6 Mg7 2.881003 1_555
Mg6 Mg7 2.885386 1_565
Mg6 Mo0 3.199996 1_556
Mg6 Mo1 3.371299 1_565
Mg7 Mo0 3.199996 1_556
Mg7 Mo1 3.371299 1_555
Mg8 Mg9 2.769412 1_545
Mg8 Mg9 2.996977 1_555
Mg8 Mo1 3.109108 1_555
Mg8 Mo1 3.109108 1_455
Mg9 Mo1 3.109108 1_465
Mg9 Mo1 3.109108 1_565
Mg10 Mg11 2.907159 1_555
Mg10 Mg11 2.907159 1_565
Mg10 Mg7 3.143332 1_455
Mg10 Mg7 3.143332 1_555
Mg10 Mg6 3.143332 1_455
Mg10 Mg6 3.143332 1_555
Mg10 Mg2 3.199734 1_556
Mg10 Mg3 3.199734 1_556
Mg10 Mg9 3.371199 1_555
Mg10 Mg8 3.371199 1_555
Mg11 Mg8 2.987613 1_555
Mg11 Mg9 2.987613 1_545
Mg11 Mo1 3.055714 1_455
Mg11 Mo1 3.055714 1_555
Mg11 Mg6 3.287633 1_445
Mg11 Mg6 3.287633 1_545
Mg11 Mg7 3.287633 1_455
Mg11 Mg7 3.287633 1_555
