# generated using pymatgen
data_BaSrCeVO6
_symmetry_space_group_name_H-M   'P 1'
_cell_length_a   5.91535425
_cell_length_b   5.90570280
_cell_length_c   8.40456022
_cell_angle_alpha   90.42366386
_cell_angle_beta   90.40979408
_cell_angle_gamma   90.96803934
_symmetry_Int_Tables_number   1
_chemical_formula_structural   BaSrCeVO6
_chemical_formula_sum   'Ba2 Sr2 Ce2 V2 O12'
_cell_volume   293.54992457
_cell_formula_units_Z   2
loop_
 _symmetry_equiv_pos_site_id
 _symmetry_equiv_pos_as_xyz
  1  'x, y, z'
loop_
 _atom_site_type_symbol
 _atom_site_label
 _atom_site_symmetry_multiplicity
 _atom_site_fract_x
 _atom_site_fract_y
 _atom_site_fract_z
 _atom_site_occupancy
  Ba  Ba0  1  0.50455759  0.51478602  0.24942449  1
  Ba  Ba1  1  0.49544241  0.48521398  0.75057551  1
  Sr  Sr0  1  -0.00005540  0.02415091  0.25170409  1
  Sr  Sr1  1  0.00005540  0.97584909  0.74829591  1
  Ce  Ce0  1  0.00000000  0.50000000  0.00000000  1
  Ce  Ce1  1  0.50000000  0.00000000  0.50000000  1
  V  V0  1  0.50000000  0.00000000  0.00000000  1
  V  V1  1  0.00000000  0.50000000  0.50000000  1
  O  O0  1  0.23551032  0.21311292  0.97001656  1
  O  O1  1  0.24900797  0.70432871  0.52157071  1
  O  O2  1  0.76448968  0.78688708  0.02998344  1
  O  O3  1  0.75099203  0.29567129  0.47842929  1
  O  O4  1  0.29384721  0.75321538  0.97443374  1
  O  O5  1  0.20832706  0.23036886  0.52848887  1
  O  O6  1  0.70615279  0.24678462  0.02556626  1
  O  O7  1  0.79167294  0.76963114  0.47151113  1
  O  O8  1  0.44001094  0.00115133  0.23862189  1
  O  O9  1  0.04140696  0.48067848  0.26160098  1
  O  O10  1  0.55998906  0.99884867  0.76137811  1
  O  O11  1  0.95859304  0.51932152  0.73839902  1
loop_
_geom_bond_atom_site_label_1
_geom_bond_atom_site_label_2
_geom_bond_distance
_geom_bond_site_symmetry_2
Ba0 O6 2.742032 1_555
Ba0 O9 2.746392 1_555
Ba0 O3 2.750342 1_555
Ba0 O2 2.889435 1_555
Ba0 O8 2.905980 1_565
Ba0 O7 2.908674 1_555
Ba0 O1 2.972966 1_555
Ba0 O4 2.990663 1_554
Ba0 O8 3.051505 1_555
Ba0 O9 3.186392 1_655
Ba0 O0 3.318185 1_554
Ba0 O5 3.377940 1_555
Ba1 O4 2.742032 1_555
Ba1 O11 2.746392 1_555
Ba1 O1 2.750342 1_555
Ba1 O0 2.889435 1_555
Ba1 O10 2.905980 1_545
Ba1 O5 2.908674 1_555
Ba1 O3 2.972966 1_555
Ba1 O6 2.990663 1_556
Ba1 O10 3.051505 1_555
Ba1 O11 3.186392 1_455
Ba1 O2 3.318185 1_556
Ba1 O7 3.377940 1_555
Ce0 O9 2.214495 1_555
Ce0 O11 2.214495 1_454
Ce0 O0 2.225605 1_554
Ce0 O2 2.225605 1_455
Ce0 O4 2.286061 1_554
Ce0 O6 2.286061 1_455
Ce1 O8 2.222816 1_555
Ce1 O10 2.222816 1_545
Ce1 O5 2.228340 1_555
Ce1 O7 2.228340 1_545
Ce1 O3 2.281925 1_555
Ce1 O1 2.281925 1_545
O0 V0 2.039837 1_556
O0 Sr1 2.689627 1_545
O0 Sr0 2.970800 1_556
O1 V1 1.895134 1_555
O1 Sr1 2.906152 1_555
O2 V0 2.039837 1_565
O2 Sr0 2.689627 1_665
O2 Sr1 2.970800 1_654
O3 V1 1.895134 1_655
O3 Sr0 2.906152 1_655
O4 V0 1.894455 1_566
O4 Sr1 2.903121 1_555
O5 V1 2.044334 1_555
O5 Sr1 2.683479 1_545
O5 Sr0 2.877577 1_555
O6 V0 1.894455 1_555
O6 Sr0 2.903121 1_655
O7 V1 2.044334 1_655
O7 Sr0 2.683479 1_665
O7 Sr1 2.877577 1_655
O8 V0 2.039144 1_555
O8 Sr0 2.612038 1_555
O9 V1 2.022910 1_555
O9 Sr0 2.703731 1_555
O10 V0 2.039144 1_566
O10 Sr1 2.612038 1_655
O11 V1 2.022910 1_655
O11 Sr1 2.703731 1_655
