# generated using pymatgen
data_Co5SbO8
_symmetry_space_group_name_H-M   'P 1'
_cell_length_a   6.02294068
_cell_length_b   6.00276551
_cell_length_c   10.71155191
_cell_angle_alpha   74.05083784
_cell_angle_beta   90.25502960
_cell_angle_gamma   59.78608341
_symmetry_Int_Tables_number   1
_chemical_formula_structural   Co5SbO8
_chemical_formula_sum   'Co10 Sb2 O16'
_cell_volume   316.99365241
_cell_formula_units_Z   2
loop_
 _symmetry_equiv_pos_site_id
 _symmetry_equiv_pos_as_xyz
  1  'x, y, z'
loop_
 _atom_site_type_symbol
 _atom_site_label
 _atom_site_symmetry_multiplicity
 _atom_site_fract_x
 _atom_site_fract_y
 _atom_site_fract_z
 _atom_site_occupancy
  Co  Co0  1  0.67854400  0.14582200  0.54698700  1
  Co  Co1  1  0.32406300  0.85911100  0.45289100  1
  Co  Co2  1  0.82154200  0.85408200  0.95310700  1
  Co  Co3  1  0.25117600  0.49925300  0.25011600  1
  Co  Co4  1  0.74965900  0.50012500  0.75019300  1
  Co  Co5  1  0.17784500  0.13975900  0.04697100  1
  Co  Co6  1  0.75082900  0.49934100  0.25031900  1
  Co  Co7  1  0.25001200  0.50036800  0.74990900  1
  Co  Co8  1  0.75117000  0.99880300  0.24988400  1
  Co  Co9  1  0.24959300  0.00006300  0.74999300  1
  Sb  Sb0  1  0.49887600  0.49672900  0.00003100  1
  Sb  Sb1  1  0.00103300  0.50328900  0.50024100  1
  O  O0  1  0.63151700  0.27624800  0.35134500  1
  O  O1  1  0.09112500  0.28128000  0.85019400  1
  O  O2  1  0.86930400  0.72303400  0.14870500  1
  O  O3  1  0.40798600  0.71997500  0.64908900  1
  O  O4  1  0.38276200  0.26796600  0.12095900  1
  O  O5  1  0.87914300  0.27859200  0.62472500  1
  O  O6  1  0.84577200  0.26984500  0.12389900  1
  O  O7  1  0.34851300  0.26575900  0.62154300  1
  O  O8  1  0.38542100  0.73179400  0.11781400  1
  O  O9  1  0.88368500  0.73766700  0.61783400  1
  O  O10  1  0.65362200  0.73115700  0.37575500  1
  O  O11  1  0.15145500  0.73436700  0.87846200  1
  O  O12  1  0.11331100  0.26827200  0.38236700  1
  O  O13  1  0.61569900  0.26261700  0.88223600  1
  O  O14  1  0.11631000  0.73282100  0.37924000  1
  O  O15  1  0.62003300  0.72186300  0.87519000  1
loop_
_geom_bond_atom_site_label_1
_geom_bond_atom_site_label_2
_geom_bond_distance
_geom_bond_site_symmetry_2
Co0 O0 1.988642 1_555
Co0 O7 1.999266 1_555
Co0 O9 2.007084 1_545
Co0 O5 2.028104 1_555
Co1 O3 1.992671 1_555
Co1 O14 2.009329 1_555
Co1 O10 2.010339 1_555
Co1 O12 2.012049 1_565
Co2 O2 1.988055 1_556
Co2 O11 1.999208 1_655
Co2 O13 2.008936 1_565
Co2 O15 2.030772 1_555
Co3 O0 2.075859 1_555
Co3 O2 2.083434 1_455
Co3 O4 2.104179 1_555
Co3 O14 2.113784 1_555
Co3 O8 2.160922 1_555
Co3 O12 2.169907 1_555
Co4 O1 1.894920 1_655
Co4 O3 1.900184 1_555
Co4 O15 2.028969 1_555
Co4 O5 2.032378 1_555
Co4 O13 2.178025 1_555
Co4 O9 2.180036 1_555
Co5 O1 1.999204 1_554
Co5 O8 2.006214 1_545
Co5 O4 2.006513 1_555
Co5 O6 2.021239 1_455
Co6 O0 1.913082 1_555
Co6 O2 1.914416 1_555
Co6 O6 2.073113 1_555
Co6 O10 2.073405 1_555
Co6 O12 2.130135 1_655
Co6 O8 2.144338 1_555
Co7 O3 2.073278 1_555
Co7 O1 2.073334 1_555
Co7 O11 2.110114 1_555
Co7 O7 2.111034 1_555
Co7 O13 2.143312 1_555
Co7 O9 2.144789 1_455
Co8 O2 2.056334 1_555
Co8 O0 2.065890 1_565
Co8 O10 2.123881 1_555
Co8 O6 2.127473 1_565
Co8 O14 2.128080 1_655
Co8 O4 2.139950 1_565
Co9 O1 2.072637 1_555
Co9 O3 2.073317 1_545
Co9 O11 2.129941 1_545
Co9 O7 2.132950 1_555
Co9 O15 2.134899 1_545
Co9 O5 2.135415 1_455
O4 Sb0 2.012396 1_555
O5 Sb1 2.037924 1_655
O6 Sb0 2.024584 1_555
O7 Sb1 2.013853 1_555
O8 Sb0 2.016259 1_555
O9 Sb1 2.011615 1_655
O10 Sb1 2.029658 1_655
O11 Sb0 2.014894 1_556
O12 Sb1 2.016942 1_555
O13 Sb0 2.012276 1_556
O14 Sb1 2.012402 1_555
O15 Sb0 2.038409 1_556
