# generated using pymatgen
data_NaCl
_symmetry_space_group_name_H-M   'P 1'
_cell_length_a   6.79963400
_cell_length_b   6.79963469
_cell_length_c   7.09483800
_cell_angle_alpha   90.00000000
_cell_angle_beta   90.00000000
_cell_angle_gamma   120.00000637
_symmetry_Int_Tables_number   1
_chemical_formula_structural   NaCl
_chemical_formula_sum   'Na6 Cl6'
_cell_volume   284.08231930
_cell_formula_units_Z   6
loop_
 _symmetry_equiv_pos_site_id
 _symmetry_equiv_pos_as_xyz
  1  'x, y, z'
loop_
 _atom_site_type_symbol
 _atom_site_label
 _atom_site_symmetry_multiplicity
 _atom_site_fract_x
 _atom_site_fract_y
 _atom_site_fract_z
 _atom_site_occupancy
  Na  Na0  1  0.00000000  0.66920000  0.50000000  1
  Na  Na1  1  0.33080000  0.33080000  0.50000000  1
  Na  Na2  1  0.66920000  0.00000000  0.50000000  1
  Na  Na3  1  0.00000000  0.33657100  0.00000000  1
  Na  Na4  1  0.66342900  0.66342900  0.00000000  1
  Na  Na5  1  0.33657100  0.00000000  0.00000000  1
  Cl  Cl0  1  0.66666700  0.33333300  0.25044700  1
  Cl  Cl1  1  0.66666700  0.33333300  0.74955300  1
  Cl  Cl2  1  0.33333300  0.66666700  0.74955300  1
  Cl  Cl3  1  0.33333300  0.66666700  0.25044700  1
  Cl  Cl4  1  0.00000000  0.00000000  0.75091200  1
  Cl  Cl5  1  0.00000000  0.00000000  0.24908800  1
loop_
_geom_bond_atom_site_label_1
_geom_bond_atom_site_label_2
_geom_bond_distance
_geom_bond_site_symmetry_2
Cl0 Na3 2.871429 1_655
Cl0 Na5 2.871431 1_555
Cl0 Na4 2.871434 1_555
Cl0 Na2 2.882942 1_555
Cl0 Na0 2.882945 1_655
Cl0 Na1 2.882947 1_555
Cl1 Na3 2.871429 1_656
Cl1 Na5 2.871431 1_556
Cl1 Na4 2.871434 1_556
Cl1 Na2 2.882942 1_555
Cl1 Na0 2.882945 1_655
Cl1 Na1 2.882947 1_555
Cl2 Na5 2.871429 1_566
Cl2 Na3 2.871431 1_556
Cl2 Na4 2.871434 1_556
Cl2 Na0 2.882942 1_555
Cl2 Na2 2.882945 1_565
Cl2 Na1 2.882947 1_555
Cl3 Na5 2.871429 1_565
Cl3 Na3 2.871431 1_555
Cl3 Na4 2.871434 1_555
Cl3 Na0 2.882942 1_555
Cl3 Na2 2.882945 1_565
Cl3 Na1 2.882947 1_555
Cl4 Na1 2.868532 1_555
Cl4 Na2 2.868532 1_455
Cl4 Na0 2.868532 1_545
Cl4 Na4 2.891477 1_446
Cl4 Na5 2.891477 1_556
Cl4 Na3 2.891477 1_556
Cl5 Na1 2.868532 1_555
Cl5 Na2 2.868532 1_455
Cl5 Na0 2.868532 1_545
Cl5 Na4 2.891477 1_445
Cl5 Na5 2.891477 1_555
Cl5 Na3 2.891477 1_555
