# generated using pymatgen
data_PtO2
_symmetry_space_group_name_H-M   'P 1'
_cell_length_a   3.15683565
_cell_length_b   4.54716258
_cell_length_c   4.51006709
_cell_angle_alpha   90.00000000
_cell_angle_beta   90.00000000
_cell_angle_gamma   90.00000000
_symmetry_Int_Tables_number   1
_chemical_formula_structural   PtO2
_chemical_formula_sum   'Pt2 O4'
_cell_volume   64.74041173
_cell_formula_units_Z   2
loop_
 _symmetry_equiv_pos_site_id
 _symmetry_equiv_pos_as_xyz
  1  'x, y, z'
loop_
 _atom_site_type_symbol
 _atom_site_label
 _atom_site_symmetry_multiplicity
 _atom_site_fract_x
 _atom_site_fract_y
 _atom_site_fract_z
 _atom_site_occupancy
  Pt  Pt0  1  -0.00000000  -0.00000000  0.00000000  1
  Pt  Pt1  1  0.50000000  0.50000000  0.50000000  1
  O  O0  1  -0.00000000  0.73860307  0.64080937  1
  O  O1  1  0.00000000  0.26139693  0.35919063  1
  O  O2  1  0.50000000  0.23860307  0.85919063  1
  O  O3  1  0.50000000  0.76139693  0.14080937  1
loop_
_geom_bond_atom_site_label_1
_geom_bond_atom_site_label_2
_geom_bond_distance
_geom_bond_site_symmetry_2
O0 Pt0 2.009258 1_566
O0 Pt1 2.017884 1_555
O0 Pt1 2.017884 1_455
O1 Pt0 2.009258 1_555
O1 Pt1 2.017884 1_455
O1 Pt1 2.017884 1_555
O2 Pt1 2.009258 1_555
O2 Pt0 2.017884 1_556
O2 Pt0 2.017884 1_656
O3 Pt1 2.009258 1_555
O3 Pt0 2.017884 1_665
O3 Pt0 2.017884 1_565
