# generated using pymatgen
data_Ag3Br
_symmetry_space_group_name_H-M   'P 1'
_cell_length_a   6.54539308
_cell_length_b   6.54539308
_cell_length_c   4.72219400
_cell_angle_alpha   90.00000000
_cell_angle_beta   90.00000000
_cell_angle_gamma   120.00001094
_symmetry_Int_Tables_number   1
_chemical_formula_structural   Ag3Br
_chemical_formula_sum   'Ag6 Br2'
_cell_volume   175.20474959
_cell_formula_units_Z   2
loop_
 _symmetry_equiv_pos_site_id
 _symmetry_equiv_pos_as_xyz
  1  'x, y, z'
loop_
 _atom_site_type_symbol
 _atom_site_label
 _atom_site_symmetry_multiplicity
 _atom_site_fract_x
 _atom_site_fract_y
 _atom_site_fract_z
 _atom_site_occupancy
  Ag  Ag0  1  0.14734400  0.29468900  0.25000000  1
  Ag  Ag1  1  0.70531100  0.85265600  0.25000000  1
  Ag  Ag2  1  0.14734400  0.85265600  0.25000000  1
  Ag  Ag3  1  0.85265600  0.70531100  0.75000000  1
  Ag  Ag4  1  0.29468900  0.14734400  0.75000000  1
  Ag  Ag5  1  0.85265600  0.14734400  0.75000000  1
  Br  Br0  1  0.33333300  0.66666700  0.75000000  1
  Br  Br1  1  0.66666700  0.33333300  0.25000000  1
loop_
_geom_bond_atom_site_label_1
_geom_bond_atom_site_label_2
_geom_bond_distance
_geom_bond_site_symmetry_2
Ag0 Ag5 2.892252 1_454
Ag0 Ag5 2.892252 1_455
Ag0 Ag4 2.892259 1_554
Ag0 Ag4 2.892259 1_555
Ag0 Ag1 2.893279 1_445
Ag0 Ag2 2.893280 1_545
Ag0 Br0 3.165558 1_554
Ag0 Br0 3.165558 1_555
Ag0 Br1 3.280013 1_455
Ag0 Br1 3.280026 1_555
Ag1 Ag5 2.892252 1_565
Ag1 Ag5 2.892252 1_564
Ag1 Ag3 2.892259 1_555
Ag1 Ag3 2.892259 1_554
Ag1 Ag2 2.893280 1_655
Ag1 Br0 3.165558 1_554
Ag1 Br0 3.165558 1_555
Ag1 Br1 3.280013 1_565
Ag1 Br1 3.280026 1_555
Ag2 Ag4 2.892252 1_565
Ag2 Ag4 2.892252 1_564
Ag2 Ag3 2.892252 1_455
Ag2 Ag3 2.892252 1_454
Ag2 Br0 3.165558 1_555
Ag2 Br0 3.165558 1_554
Ag2 Br1 3.280020 1_455
Ag2 Br1 3.280020 1_565
Ag3 Ag4 2.893279 1_665
Ag3 Ag5 2.893280 1_565
Ag3 Br1 3.165558 1_556
Ag3 Br1 3.165558 1_555
Ag3 Br0 3.280013 1_655
Ag3 Br0 3.280026 1_555
Ag4 Ag5 2.893280 1_455
Ag4 Br1 3.165558 1_556
Ag4 Br1 3.165558 1_555
Ag4 Br0 3.280013 1_545
Ag4 Br0 3.280026 1_555
Ag5 Br1 3.165558 1_556
Ag5 Br1 3.165558 1_555
Ag5 Br0 3.280020 1_545
Ag5 Br0 3.280020 1_655
