# generated using pymatgen
data_GaH9(NF)3
_symmetry_space_group_name_H-M   'P 1'
_cell_length_a   7.42902900
_cell_length_b   8.30124659
_cell_length_c   8.69567298
_cell_angle_alpha   90.57827138
_cell_angle_beta   90.00000000
_cell_angle_gamma   90.00000000
_symmetry_Int_Tables_number   1
_chemical_formula_structural   GaH9(NF)3
_chemical_formula_sum   'Ga4 H36 N12 F12'
_cell_volume   536.23659369
_cell_formula_units_Z   4
loop_
 _symmetry_equiv_pos_site_id
 _symmetry_equiv_pos_as_xyz
  1  'x, y, z'
loop_
 _atom_site_type_symbol
 _atom_site_label
 _atom_site_symmetry_multiplicity
 _atom_site_fract_x
 _atom_site_fract_y
 _atom_site_fract_z
 _atom_site_occupancy
  Ga  Ga0  1  0.50000000  0.00000000  0.50000000  1
  Ga  Ga1  1  0.00000000  0.50000000  0.50000000  1
  Ga  Ga2  1  0.00000000  0.00000000  0.00000000  1
  Ga  Ga3  1  0.50000000  0.50000000  0.00000000  1
  H  H0  1  0.33561500  0.39437300  0.49212100  1
  H  H1  1  0.83561500  0.10562700  0.50787900  1
  H  H2  1  0.66438500  0.60562700  0.50787900  1
  H  H3  1  0.16438500  0.89437300  0.49212100  1
  H  H4  1  0.33663400  0.59270700  0.46786400  1
  H  H5  1  0.83663400  0.90729300  0.53213600  1
  H  H6  1  0.66336600  0.40729300  0.53213600  1
  H  H7  1  0.16336600  0.09270700  0.46786400  1
  H  H8  1  0.28718700  0.47250500  0.32215900  1
  H  H9  1  0.78718700  0.02749500  0.67784100  1
  H  H10  1  0.71281300  0.52749500  0.67784100  1
  H  H11  1  0.21281300  0.97250500  0.32215900  1
  H  H12  1  0.58120200  0.20303900  0.27572800  1
  H  H13  1  0.08120200  0.29696100  0.72427200  1
  H  H14  1  0.41879800  0.79696100  0.72427200  1
  H  H15  1  0.91879800  0.70303900  0.27572800  1
  H  H16  1  0.68016800  0.02485800  0.24339600  1
  H  H17  1  0.18016800  0.47514200  0.75660400  1
  H  H18  1  0.31983200  0.97514200  0.75660400  1
  H  H19  1  0.81983200  0.52485800  0.24339600  1
  H  H20  1  0.46191800  0.05072700  0.20634900  1
  H  H21  1  0.96191800  0.44927300  0.79365100  1
  H  H22  1  0.53808200  0.94927300  0.79365100  1
  H  H23  1  0.03808200  0.55072700  0.20634900  1
  H  H24  1  0.96892000  0.22471000  0.20876400  1
  H  H25  1  0.46892000  0.27529000  0.79123600  1
  H  H26  1  0.03108000  0.77529000  0.79123600  1
  H  H27  1  0.53108000  0.72471000  0.20876400  1
  H  H28  1  0.87117300  0.28765500  0.04940600  1
  H  H29  1  0.37117300  0.21234500  0.95059400  1
  H  H30  1  0.12882700  0.71234500  0.95059400  1
  H  H31  1  0.62882700  0.78765500  0.04940600  1
  H  H32  1  0.09203900  0.29748900  0.06758200  1
  H  H33  1  0.59204000  0.20251100  0.93241800  1
  H  H34  1  0.90796000  0.70251100  0.93241800  1
  H  H35  1  0.40796100  0.79748900  0.06758200  1
  N  N0  1  0.27023300  0.48837700  0.43935800  1
  N  N1  1  0.77023300  0.01162300  0.56064200  1
  N  N2  1  0.72976700  0.51162300  0.56064200  1
  N  N3  1  0.22976700  0.98837700  0.43935800  1
  N  N4  1  0.56384800  0.08000300  0.28184200  1
  N  N5  1  0.06384800  0.41999700  0.71815800  1
  N  N6  1  0.43615200  0.91999700  0.71815800  1
  N  N7  1  0.93615200  0.58000300  0.28184200  1
  N  N8  1  0.98089500  0.22715800  0.09044400  1
  N  N9  1  0.48089500  0.27284200  0.90955600  1
  N  N10  1  0.01910500  0.77284200  0.90955600  1
  N  N11  1  0.51910500  0.72715800  0.09044400  1
  F  F0  1  0.52959800  0.77488000  0.42716000  1
  F  F1  1  0.02959800  0.72512000  0.57284000  1
  F  F2  1  0.47040200  0.22512000  0.57284000  1
  F  F3  1  0.97040200  0.27488000  0.42716000  1
  F  F4  1  0.88950800  0.91589900  0.18569600  1
  F  F5  1  0.38950800  0.58410100  0.81430400  1
  F  F6  1  0.11049200  0.08410100  0.81430400  1
  F  F7  1  0.61049200  0.41589900  0.18569600  1
  F  F8  1  0.24214500  0.98101700  0.09291200  1
  F  F9  1  0.74214500  0.51898300  0.90708800  1
  F  F10  1  0.75785500  0.01898300  0.90708800  1
  F  F11  1  0.25785500  0.48101700  0.09291200  1
loop_
_geom_bond_atom_site_label_1
_geom_bond_atom_site_label_2
_geom_bond_distance
_geom_bond_site_symmetry_2
Ga0 N6 2.071281 1_545
Ga0 N4 2.071281 1_555
Ga0 N1 2.077663 1_555
Ga0 N3 2.077663 1_545
Ga1 N5 2.071281 1_555
Ga1 N7 2.071281 1_455
Ga1 N2 2.077663 1_455
Ga1 N0 2.077663 1_555
Ga2 N10 2.040733 1_544
Ga2 N8 2.040733 1_455
Ga3 N11 2.040733 1_555
Ga3 N9 2.040733 1_554
H0 N0 1.030829 1_555
H1 N1 1.030829 1_555
H2 N2 1.030829 1_555
H3 N3 1.030829 1_555
H4 N0 1.024952 1_555
H5 N1 1.024952 1_565
H6 N2 1.024952 1_555
H7 N3 1.024952 1_545
H8 N0 1.033986 1_555
H9 N1 1.033986 1_555
H10 N2 1.033986 1_555
H11 N3 1.033986 1_555
H12 N4 1.031360 1_555
H13 N5 1.031360 1_555
H14 N6 1.031360 1_555
H15 N7 1.031360 1_555
H16 N4 1.031978 1_555
H17 N5 1.031978 1_555
H18 N6 1.031978 1_555
H19 N7 1.031978 1_555
H20 N4 1.029660 1_555
H21 N5 1.029660 1_655
H22 N6 1.029660 1_555
H23 N7 1.029660 1_455
H24 N8 1.033115 1_555
H25 N9 1.033115 1_555
H26 N10 1.033115 1_555
H27 N11 1.033115 1_555
H28 N8 1.023524 1_555
H29 N9 1.023524 1_555
H30 N10 1.023524 1_555
H31 N11 1.023524 1_555
H32 N8 1.031744 1_455
H33 N9 1.031750 1_555
H34 N10 1.031750 1_655
H35 N11 1.031744 1_555
F0 Ga0 1.979386 1_565
F1 Ga1 1.979386 1_555
F2 Ga0 1.979386 1_555
F3 Ga1 1.979386 1_655
F4 Ga2 1.947145 1_665
F5 Ga3 1.947145 1_556
F6 Ga2 1.947145 1_556
F7 Ga3 1.947145 1_555
F8 Ga2 1.978941 1_565
F9 Ga3 1.978941 1_556
F10 Ga2 1.978941 1_656
F11 Ga3 1.978941 1_555
