# generated using pymatgen
data_Y2O3
_symmetry_space_group_name_H-M   'P 1'
_cell_length_a   11.43482522
_cell_length_b   11.58734690
_cell_length_c   12.05990394
_cell_angle_alpha   94.83433519
_cell_angle_beta   85.52794331
_cell_angle_gamma   90.80127150
_symmetry_Int_Tables_number   1
_chemical_formula_structural   Y2O3
_chemical_formula_sum   'Y40 O60'
_cell_volume   1587.35227481
_cell_formula_units_Z   20
loop_
 _symmetry_equiv_pos_site_id
 _symmetry_equiv_pos_as_xyz
  1  'x, y, z'
loop_
 _atom_site_type_symbol
 _atom_site_label
 _atom_site_symmetry_multiplicity
 _atom_site_fract_x
 _atom_site_fract_y
 _atom_site_fract_z
 _atom_site_occupancy
  Y  Y0  1  0.91683455  0.48804163  0.69152699  1
  Y  Y1  1  0.90546373  0.29003442  0.94231647  1
  Y  Y2  1  0.62259276  0.20549618  0.00522135  1
  Y  Y3  1  0.15730333  0.52306772  0.91535318  1
  Y  Y4  1  0.21233832  0.83307318  0.32664927  1
  Y  Y5  1  0.85737805  0.99842931  0.34349553  1
  Y  Y6  1  0.64076307  0.89839073  0.51244953  1
  Y  Y7  1  0.43171982  0.59002934  0.77828078  1
  Y  Y8  1  0.12427070  0.32439835  0.41382878  1
  Y  Y9  1  0.34516127  0.56656803  0.36338392  1
  Y  Y10  1  0.30948371  0.03968238  0.13429380  1
  Y  Y11  1  0.04919843  0.05476440  0.53061668  1
  Y  Y12  1  0.56791179  0.86458922  0.98127722  1
  Y  Y13  1  0.69935940  0.55912532  0.93487396  1
  Y  Y14  1  0.70638901  0.76823958  0.74014010  1
  Y  Y15  1  0.42093226  0.58866760  0.07190511  1
  Y  Y16  1  0.16818730  0.60645486  0.60296513  1
  Y  Y17  1  0.65274732  0.33193480  0.72627411  1
  Y  Y18  1  0.87359854  0.46829147  0.18174201  1
  Y  Y19  1  0.48288851  0.08230211  0.70387335  1
  Y  Y20  1  0.11943169  0.06978578  0.83489351  1
  Y  Y21  1  0.01346818  0.17679832  0.18389983  1
  Y  Y22  1  0.21255239  0.30946283  0.67126357  1
  Y  Y23  1  0.34754472  0.10334886  0.45246182  1
  Y  Y24  1  0.35709642  0.31574777  0.91071962  1
  Y  Y25  1  0.34231526  0.31209158  0.19844477  1
  Y  Y26  1  0.93249606  0.78051721  0.52453990  1
  Y  Y27  1  0.69687390  0.73461424  0.20039170  1
  Y  Y28  1  0.60613675  0.40692861  0.26682090  1
  Y  Y29  1  0.99788212  0.79961944  0.15262244  1
  Y  Y30  1  0.13700393  0.54128033  0.17376119  1
  Y  Y31  1  0.45298052  0.37350017  0.51630450  1
  Y  Y32  1  0.68278091  0.53687688  0.50826642  1
  Y  Y33  1  0.28936402  0.86067566  0.60866872  1
  Y  Y34  1  0.23030219  0.81321660  0.97125136  1
  Y  Y35  1  0.59084719  0.07816207  0.25163094  1
  Y  Y36  1  0.79257461  0.03662453  0.72678790  1
  Y  Y37  1  0.84348470  0.99314520  0.01101225  1
  Y  Y38  1  0.81396535  0.29415326  0.41927814  1
  Y  Y39  1  0.98753376  0.76436367  0.79484065  1
  O  O0  1  0.71718060  0.55439968  0.12114330  1
  O  O1  1  0.40313841  0.01196770  0.27912823  1
  O  O2  1  0.36159223  0.19515020  0.04156360  1
  O  O3  1  0.18915563  0.18022199  0.23073494  1
  O  O4  1  0.44973044  0.47792844  0.20640536  1
  O  O5  1  0.79308004  0.40122702  0.83703453  1
  O  O6  1  0.78661918  0.40016153  0.58838853  1
  O  O7  1  0.78148387  0.14130600  0.89638569  1
  O  O8  1  0.45840221  0.97307080  0.53493812  1
  O  O9  1  0.82102905  0.80733044  0.08738031  1
  O  O10  1  0.99841126  0.13938026  0.99783448  1
  O  O11  1  0.96554014  0.61075797  0.56676838  1
  O  O12  1  0.39849769  0.22461117  0.61601296  1
  O  O13  1  0.18071195  0.19049149  0.51983466  1
  O  O14  1  0.61437867  0.93106580  0.69873887  1
  O  O15  1  0.54865212  0.74042019  0.10720371  1
  O  O16  1  0.67179521  0.15741385  0.65395659  1
  O  O17  1  0.01402559  0.43332005  0.03387881  1
  O  O18  1  0.32884522  0.69853587  0.68252728  1
  O  O19  1  0.27977605  0.46315137  0.51546347  1
  O  O20  1  0.87431781  0.85287590  0.69427141  1
  O  O21  1  0.21505949  0.96150228  0.47123800  1
  O  O22  1  0.37912724  0.27056225  0.37136418  1
  O  O23  1  0.99463618  0.09241067  0.70951115  1
  O  O24  1  0.77802257  0.31207081  0.08431046  1
  O  O25  1  0.10007617  0.80313033  0.63824254  1
  O  O26  1  0.96998839  0.15471903  0.40822913  1
  O  O27  1  0.01391275  0.85819550  0.35954919  1
  O  O28  1  0.27385232  0.44473835  0.04695511  1
  O  O29  1  0.97050512  0.34279302  0.28748050  1
  O  O30  1  0.18002408  0.25300731  0.83996274  1
  O  O31  1  0.68289682  0.89711315  0.32503469  1
  O  O32  1  0.93850956  0.99845430  0.17244185  1
  O  O33  1  0.64632160  0.02946823  0.07696403  1
  O  O34  1  0.54458972  0.24117650  0.18063573  1
  O  O35  1  0.74302945  0.89910104  0.88235684  1
  O  O36  1  0.06637929  0.39347438  0.60025496  1
  O  O37  1  0.10212772  0.67749888  0.03100653  1
  O  O38  1  0.57841206  0.69783088  0.86362911  1
  O  O39  1  0.30111255  0.44519161  0.78301949  1
  O  O40  1  0.62112196  0.32825432  0.43108051  1
  O  O41  1  0.52318941  0.47193786  0.92856501  1
  O  O42  1  0.18398501  0.89048729  0.14852606  1
  O  O43  1  0.55644639  0.47869479  0.65516070  1
  O  O44  1  0.52478691  0.22322826  0.84623807  1
  O  O45  1  0.25457410  0.71576267  0.45598734  1
  O  O46  1  0.06661567  0.89627743  0.91084016  1
  O  O47  1  0.28918892  0.00802795  0.74252034  1
  O  O48  1  0.27990898  0.66523254  0.21821231  1
  O  O49  1  0.32090123  0.64939888  0.93337863  1
  O  O50  1  0.20991626  0.44052496  0.29572349  1
  O  O51  1  0.82465190  0.63995160  0.80508403  1
  O  O52  1  0.52378684  0.53885905  0.41534959  1
  O  O53  1  0.38787947  0.92365431  0.99139513  1
  O  O54  1  0.71653515  0.72766386  0.54430797  1
  O  O55  1  0.82930221  0.96673204  0.52278070  1
  O  O56  1  0.96974748  0.63219432  0.22913932  1
  O  O57  1  0.75022963  0.14473760  0.31619696  1
  O  O58  1  0.07464220  0.58907199  0.77590494  1
  O  O59  1  0.77017131  0.47444739  0.34466688  1
loop_
_geom_bond_atom_site_label_1
_geom_bond_atom_site_label_2
_geom_bond_distance
_geom_bond_site_symmetry_2
O0 Y27 2.229466 1_555
O0 Y18 2.259517 1_555
O0 Y13 2.276670 1_554
O0 Y28 2.777821 1_555
O1 Y10 2.167212 1_555
O1 Y35 2.278424 1_555
O1 Y23 2.309448 1_555
O1 Y4 3.043726 1_545
O2 Y24 2.198109 1_554
O2 Y25 2.230580 1_555
O2 Y10 2.248678 1_555
O3 Y21 2.127781 1_555
O3 Y10 2.322012 1_555
O3 Y25 2.339405 1_555
O3 Y8 2.715615 1_555
O4 Y28 2.179852 1_555
O4 Y15 2.198178 1_555
O4 Y25 2.265334 1_555
O4 Y9 2.328584 1_555
O5 Y17 2.263047 1_555
O5 Y13 2.319921 1_555
O5 Y1 2.345229 1_555
O5 Y0 2.442190 1_555
O6 Y0 2.198656 1_555
O6 Y38 2.292391 1_555
O6 Y32 2.311416 1_555
O6 Y17 2.350384 1_555
O7 Y2 2.253544 1_556
O7 Y1 2.275938 1_555
O7 Y36 2.283962 1_555
O7 Y37 2.438829 1_546
O8 Y6 2.256861 1_555
O8 Y23 2.319114 1_565
O8 Y19 2.339995 1_565
O8 Y33 2.465712 1_555
O9 Y27 2.107452 1_555
O9 Y29 2.231979 1_555
O9 Y37 2.414931 1_555
O10 Y1 2.232753 1_555
O10 Y21 2.268707 1_656
O10 Y20 2.401421 1_655
O10 Y37 2.439764 1_546
O11 Y26 2.119221 1_555
O11 Y0 2.191728 1_555
O11 Y16 2.393171 1_655
O12 Y31 2.239032 1_555
O12 Y19 2.295985 1_555
O12 Y22 2.378809 1_555
O12 Y23 2.427631 1_555
O13 Y11 2.165569 1_555
O13 Y8 2.224737 1_555
O13 Y23 2.234497 1_555
O13 Y22 2.243521 1_555
O14 Y6 2.244070 1_555
O14 Y14 2.283025 1_555
O14 Y19 2.318714 1_565
O14 Y36 2.393852 1_565
O15 Y27 2.110253 1_555
O15 Y12 2.175366 1_554
O15 Y15 2.303282 1_555
O16 Y17 2.140779 1_555
O16 Y36 2.255724 1_555
O16 Y19 2.370429 1_555
O17 Y1 2.316047 1_454
O17 Y18 2.317843 1_455
O17 Y3 2.376253 1_554
O17 Y30 2.520583 1_555
O18 Y7 2.189990 1_555
O18 Y33 2.212574 1_555
O18 Y16 2.341266 1_555
O19 Y16 2.247880 1_555
O19 Y31 2.250407 1_555
O19 Y9 2.343143 1_555
O19 Y8 2.678990 1_555
O19 Y22 2.755565 1_555
O20 Y39 2.165775 1_555
O20 Y14 2.197321 1_555
O20 Y26 2.202161 1_555
O20 Y36 2.327782 1_565
O21 Y4 2.196802 1_555
O21 Y23 2.233256 1_565
O21 Y11 2.234453 1_565
O21 Y33 2.325425 1_555
O22 Y31 2.245416 1_555
O22 Y25 2.251514 1_555
O22 Y23 2.255183 1_555
O22 Y8 2.984706 1_555
O23 Y20 2.192104 1_655
O23 Y11 2.207536 1_655
O23 Y36 2.388662 1_555
O24 Y1 2.160742 1_554
O24 Y2 2.366021 1_555
O24 Y18 2.374503 1_555
O24 Y28 2.982268 1_555
O25 Y33 2.266297 1_555
O25 Y39 2.274283 1_455
O25 Y16 2.411585 1_555
O25 Y26 2.440521 1_455
O26 Y11 2.205973 1_655
O26 Y5 2.323896 1_545
O26 Y38 2.412139 1_555
O26 Y8 2.623318 1_655
O26 Y21 2.745018 1_655
O27 Y4 2.291063 1_555
O27 Y26 2.371841 1_455
O27 Y5 2.463784 1_455
O27 Y29 2.550345 1_455
O27 Y11 2.986480 1_565
O28 Y24 2.285057 1_554
O28 Y30 2.329425 1_555
O28 Y15 2.369895 1_555
O28 Y3 2.392763 1_554
O28 Y25 2.653876 1_555
O29 Y21 2.242130 1_655
O29 Y18 2.355143 1_555
O29 Y38 2.393170 1_555
O29 Y8 2.437586 1_655
O30 Y22 2.192024 1_555
O30 Y20 2.221426 1_555
O30 Y24 2.340976 1_555
O31 Y6 2.272798 1_555
O31 Y27 2.307471 1_555
O31 Y5 2.316935 1_555
O31 Y35 2.610121 1_565
O32 Y5 2.194957 1_555
O32 Y21 2.223768 1_665
O32 Y37 2.298354 1_555
O32 Y29 2.398322 1_555
O33 Y35 2.181571 1_555
O33 Y2 2.309137 1_555
O33 Y12 2.351051 1_544
O33 Y37 2.362864 1_545
O34 Y35 2.225304 1_555
O34 Y28 2.237014 1_555
O34 Y2 2.238394 1_555
O34 Y25 2.452985 1_555
O35 Y37 2.207329 1_556
O35 Y14 2.252200 1_555
O35 Y12 2.297465 1_555
O35 Y36 2.587111 1_565
O36 Y22 2.209982 1_555
O36 Y0 2.211807 1_455
O36 Y8 2.369187 1_555
O36 Y16 2.712700 1_555
O37 Y29 2.235883 1_455
O37 Y3 2.240364 1_554
O37 Y34 2.258849 1_554
O37 Y30 2.489388 1_555
O38 Y14 2.203765 1_555
O38 Y12 2.297617 1_555
O38 Y7 2.329675 1_555
O38 Y13 2.390477 1_555
O39 Y7 2.232289 1_555
O39 Y22 2.264177 1_555
O39 Y3 2.335583 1_555
O39 Y24 2.366695 1_555
O40 Y31 2.158028 1_555
O40 Y38 2.237172 1_555
O40 Y28 2.268545 1_555
O40 Y32 2.623497 1_555
O41 Y13 2.244675 1_555
O41 Y15 2.349458 1_556
O41 Y24 2.613595 1_555
O41 Y7 2.646681 1_555
O41 Y17 3.100761 1_555
O42 Y10 2.240474 1_565
O42 Y34 2.273084 1_554
O42 Y4 2.348994 1_555
O42 Y29 2.359956 1_455
O43 Y17 2.299019 1_555
O43 Y7 2.302486 1_555
O43 Y32 2.335533 1_555
O43 Y31 2.369470 1_555
O44 Y24 2.261708 1_555
O44 Y2 2.318700 1_556
O44 Y19 2.340449 1_555
O44 Y17 2.397123 1_555
O45 Y9 2.202978 1_555
O45 Y4 2.237676 1_555
O45 Y16 2.406716 1_555
O45 Y33 2.437767 1_555
O46 Y39 2.215714 1_455
O46 Y34 2.311211 1_555
O46 Y20 2.331502 1_565
O46 Y37 2.932598 1_456
O47 Y33 2.248576 1_545
O47 Y20 2.255752 1_555
O47 Y19 2.391049 1_555
O48 Y30 2.227493 1_555
O48 Y9 2.343899 1_555
O48 Y4 2.354849 1_555
O48 Y15 2.415210 1_555
O49 Y34 2.172595 1_555
O49 Y7 2.239540 1_555
O49 Y15 2.261239 1_556
O49 Y3 2.371256 1_555
O50 Y30 2.174731 1_555
O50 Y8 2.206160 1_555
O50 Y9 2.263474 1_555
O50 Y25 2.318386 1_555
O51 Y14 2.251567 1_555
O51 Y13 2.289025 1_555
O51 Y39 2.341266 1_555
O51 Y0 2.346379 1_555
O52 Y32 2.210155 1_555
O52 Y9 2.218049 1_555
O52 Y28 2.397486 1_555
O52 Y31 2.450567 1_555
O53 Y12 2.169666 1_555
O53 Y34 2.212397 1_555
O53 Y10 2.232343 1_566
O54 Y6 2.244963 1_555
O54 Y32 2.250667 1_555
O54 Y14 2.363019 1_555
O54 Y26 2.533913 1_555
O55 Y5 2.221535 1_555
O55 Y6 2.295231 1_555
O55 Y26 2.476190 1_555
O55 Y36 2.529410 1_565
O55 Y11 2.705755 1_665
O56 Y30 2.225356 1_655
O56 Y29 2.226359 1_555
O56 Y18 2.235867 1_555
O57 Y35 2.145624 1_555
O57 Y5 2.167661 1_545
O57 Y38 2.194838 1_555
O58 Y3 2.188949 1_555
O58 Y39 2.261166 1_455
O58 Y16 2.291621 1_555
O58 Y0 2.385095 1_455
O59 Y18 2.209258 1_555
O59 Y32 2.210607 1_555
O59 Y28 2.263075 1_555
O59 Y38 2.416871 1_555
