# generated using pymatgen
data_Li5Co7O3F13
_symmetry_space_group_name_H-M   'P 1'
_cell_length_a   6.06719600
_cell_length_b   6.13954941
_cell_length_c   10.51739920
_cell_angle_alpha   73.07516468
_cell_angle_beta   73.34244358
_cell_angle_gamma   60.38783341
_symmetry_Int_Tables_number   1
_chemical_formula_structural   Li5Co7O3F13
_chemical_formula_sum   'Li5 Co7 O3 F13'
_cell_volume   321.01126490
_cell_formula_units_Z   1
loop_
 _symmetry_equiv_pos_site_id
 _symmetry_equiv_pos_as_xyz
  1  'x, y, z'
loop_
 _atom_site_type_symbol
 _atom_site_label
 _atom_site_symmetry_multiplicity
 _atom_site_fract_x
 _atom_site_fract_y
 _atom_site_fract_z
 _atom_site_occupancy
  Li  Li0  1  0.26720600  0.66437200  0.12824000  1
  Li  Li1  1  0.00381300  0.99045100  0.98764400  1
  Li  Li2  1  0.23550400  0.12527300  0.63532300  1
  Li  Li3  1  0.98454100  0.45918400  0.49744000  1
  Li  Li4  1  0.12205000  0.56178200  0.81012700  1
  Co  Co0  1  0.61886500  0.29487500  0.06540600  1
  Co  Co1  1  0.62852900  0.56695100  0.31442700  1
  Co  Co2  1  0.62410400  0.06203300  0.31290900  1
  Co  Co3  1  0.12639500  0.06340500  0.31233600  1
  Co  Co4  1  0.64399400  0.83984300  0.56727300  1
  Co  Co5  1  0.63627300  0.05408700  0.80545300  1
  Co  Co6  1  0.63542900  0.57967400  0.80443200  1
  O  O0  1  0.39514700  0.98983100  0.20175400  1
  O  O1  1  0.85789400  0.13679800  0.42282000  1
  O  O2  1  0.84539600  0.92158600  0.69496400  1
  F  F0  1  0.86965000  0.45092700  0.19003300  1
  F  F1  1  0.39699000  0.45259300  0.18881100  1
  F  F2  1  0.38537600  0.20626900  0.43513100  1
  F  F3  1  0.87227000  0.92569200  0.18571100  1
  F  F4  1  0.38604400  0.67941400  0.43848200  1
  F  F5  1  0.86401100  0.67560800  0.43357000  1
  F  F6  1  0.36402900  0.92423400  0.69946900  1
  F  F7  1  0.37729900  0.46500100  0.69182500  1
  F  F8  1  0.37215500  0.68832700  0.92943800  1
  F  F9  1  0.85309000  0.64770500  0.93861700  1
  F  F10  1  0.86322300  0.42813700  0.69898200  1
  F  F11  1  0.86847800  0.19500200  0.93422400  1
  F  F12  1  0.40224800  0.20094700  0.92515800  1
loop_
_geom_bond_atom_site_label_1
_geom_bond_atom_site_label_2
_geom_bond_distance
_geom_bond_site_symmetry_2
Li4 O2 2.260013 1_455
Co0 F1 1.695939 1_555
Co0 F11 1.717571 1_554
Co0 F3 2.259174 1_545
Co0 F8 2.400687 1_554
Co0 F12 2.567341 1_554
Co1 F4 1.662435 1_555
Co1 F0 1.665749 1_555
Co2 F2 1.691827 1_555
Co2 F3 1.734673 1_545
Co2 F5 2.291519 1_545
Co2 F1 2.301208 1_555
Co2 O0 2.309587 1_545
Co2 O1 2.334829 1_555
Co3 O1 1.643559 1_455
Co3 O0 1.645061 1_545
Co3 F0 2.333663 1_455
Co3 F4 2.346634 1_545
Co4 F5 1.787534 1_555
Co4 F6 1.811776 1_555
Co4 F2 2.322919 1_565
Co4 O2 2.342625 1_555
Co4 F10 2.402567 1_555
Co5 O2 1.518905 1_545
Co5 F12 1.668823 1_555
Co6 F10 1.567482 1_555
Co6 F8 1.725874 1_555
F1 Li0 1.228809 1_555
F2 Li2 2.060799 1_555
F2 Li3 2.168366 1_455
F3 Li1 2.003188 1_654
F3 Li0 2.148502 1_655
F5 Li3 1.246292 1_555
F6 Li2 1.205107 1_565
F7 Li4 1.647988 1_555
F8 Li0 1.987231 1_556
F8 Li1 2.142414 1_555
F9 Li4 1.751422 1_655
F10 Li3 2.019941 1_555
F10 Li2 2.171363 1_655
F11 Li1 1.183905 1_645
F12 Li4 2.271184 1_555
