# generated using pymatgen
data_Li2Eu5O8
_symmetry_space_group_name_H-M   'P 1'
_cell_length_a   6.96507550
_cell_length_b   6.96507550
_cell_length_c   9.65843201
_cell_angle_alpha   61.46135028
_cell_angle_beta   61.46135028
_cell_angle_gamma   29.05739529
_symmetry_Int_Tables_number   1
_chemical_formula_structural   Li2Eu5O8
_chemical_formula_sum   'Li2 Eu5 O8'
_cell_volume   197.92299043
_cell_formula_units_Z   1
loop_
 _symmetry_equiv_pos_site_id
 _symmetry_equiv_pos_as_xyz
  1  'x, y, z'
loop_
 _atom_site_type_symbol
 _atom_site_label
 _atom_site_symmetry_multiplicity
 _atom_site_fract_x
 _atom_site_fract_y
 _atom_site_fract_z
 _atom_site_occupancy
  Li  Li0  1  0.19200367  0.19200367  0.73510349  1
  Li  Li1  1  0.80799633  0.80799633  0.26489651  1
  Eu  Eu0  1  0.50000000  0.50000000  0.00000000  1
  Eu  Eu1  1  0.60921280  0.60921280  0.56631408  1
  Eu  Eu2  1  0.39078720  0.39078720  0.43368592  1
  Eu  Eu3  1  0.16788210  0.16788210  0.18541601  1
  Eu  Eu4  1  0.83211790  0.83211790  0.81458399  1
  O  O0  1  0.04043428  0.04043428  0.77578995  1
  O  O1  1  0.95956572  0.95956572  0.22421005  1
  O  O2  1  0.23480780  0.23480780  0.38277060  1
  O  O3  1  0.76519220  0.76519220  0.61722940  1
  O  O4  1  0.81986738  0.81986738  0.06478294  1
  O  O5  1  0.18013262  0.18013262  0.93521706  1
  O  O6  1  0.58130367  0.58130367  0.34312021  1
  O  O7  1  0.41869633  0.41869633  0.65687979  1
loop_
_geom_bond_atom_site_label_1
_geom_bond_atom_site_label_2
_geom_bond_distance
_geom_bond_site_symmetry_2
Li0 O5 1.859000 1_555
Li0 O0 1.881231 1_555
Li0 O3 2.052833 1_455
Li0 O3 2.052833 1_545
Li1 O4 1.859000 1_555
Li1 O1 1.881231 1_555
Li1 O2 2.052833 1_565
Li1 O2 2.052833 1_655
Eu0 O0 2.621893 1_564
Eu0 O0 2.621893 1_654
Eu0 O1 2.621893 1_545
Eu0 O1 2.621893 1_455
Eu0 O5 2.800811 1_654
Eu0 O5 2.800811 1_564
Eu0 O4 2.800811 1_545
Eu0 O4 2.800811 1_455
Eu1 O7 2.268709 1_555
Eu1 O6 2.364210 1_555
Eu1 O3 2.384703 1_555
Eu1 O2 2.469910 1_565
Eu1 O2 2.469910 1_655
Eu1 O0 2.480808 1_565
Eu1 O0 2.480808 1_655
Eu2 O6 2.268709 1_555
Eu2 O7 2.364210 1_555
Eu2 O2 2.384703 1_555
Eu2 O3 2.469910 1_455
Eu2 O3 2.469910 1_545
Eu2 O1 2.480808 1_455
Eu2 O1 2.480808 1_545
Eu3 O6 2.231777 1_455
Eu3 O6 2.231777 1_545
Eu3 O5 2.339417 1_554
Eu3 O2 2.479072 1_555
Eu3 O4 2.500777 1_545
Eu3 O4 2.500777 1_455
Eu3 O1 2.644318 1_445
Eu4 O7 2.231777 1_565
Eu4 O7 2.231777 1_655
Eu4 O4 2.339417 1_556
Eu4 O3 2.479072 1_555
Eu4 O5 2.500777 1_655
Eu4 O5 2.500777 1_565
Eu4 O0 2.644318 1_665
