# generated using pymatgen
data_DyMgGa
_symmetry_space_group_name_H-M   'P 1'
_cell_length_a   7.23205850
_cell_length_b   7.23205850
_cell_length_c   4.41722149
_cell_angle_alpha   90.00000000
_cell_angle_beta   90.00000000
_cell_angle_gamma   120.00000218
_symmetry_Int_Tables_number   1
_chemical_formula_structural   DyMgGa
_chemical_formula_sum   'Dy3 Mg3 Ga3'
_cell_volume   200.07999104
_cell_formula_units_Z   3
loop_
 _symmetry_equiv_pos_site_id
 _symmetry_equiv_pos_as_xyz
  1  'x, y, z'
loop_
 _atom_site_type_symbol
 _atom_site_label
 _atom_site_symmetry_multiplicity
 _atom_site_fract_x
 _atom_site_fract_y
 _atom_site_fract_z
 _atom_site_occupancy
  Dy  Dy0  1  0.57484097  0.00000000  0.00000000  1
  Dy  Dy1  1  0.00000000  0.57484097  0.00000000  1
  Dy  Dy2  1  0.42515903  0.42515903  0.00000000  1
  Mg  Mg0  1  0.24476434  0.00000000  0.50000000  1
  Mg  Mg1  1  0.00000000  0.24476434  0.50000000  1
  Mg  Mg2  1  0.75523566  0.75523566  0.50000000  1
  Ga  Ga0  1  0.33333300  0.66666700  0.50000000  1
  Ga  Ga1  1  0.66666700  0.33333300  0.50000000  1
  Ga  Ga2  1  -0.00000000  -0.00000000  0.00000000  1
loop_
_geom_bond_atom_site_label_1
_geom_bond_atom_site_label_2
_geom_bond_distance
_geom_bond_site_symmetry_2
Dy0 Ga2 3.074775 1_655
Dy0 Ga1 3.086982 1_555
Dy0 Ga1 3.086982 1_554
Dy0 Ga0 3.086984 1_545
Dy0 Ga0 3.086984 1_544
Dy1 Ga2 3.074775 1_565
Dy1 Ga0 3.086982 1_554
Dy1 Ga0 3.086982 1_555
Dy1 Ga1 3.086984 1_455
Dy1 Ga1 3.086984 1_454
Dy2 Ga2 3.074775 1_555
Dy2 Ga0 3.086987 1_554
Dy2 Ga1 3.086987 1_555
Dy2 Ga1 3.086987 1_554
Dy2 Ga0 3.086987 1_555
Ga0 Mg0 2.786719 1_565
Ga0 Mg1 2.786724 1_555
Ga0 Mg2 2.786726 1_555
Ga1 Mg1 2.786719 1_655
Ga1 Mg0 2.786724 1_555
Ga1 Mg2 2.786726 1_555
Ga2 Mg2 2.830440 1_445
Ga2 Mg2 2.830440 1_444
Ga2 Mg0 2.830440 1_555
Ga2 Mg1 2.830440 1_555
Ga2 Mg0 2.830440 1_554
Ga2 Mg1 2.830440 1_554
