# generated using pymatgen
data_Ca7(Si2O5)8
_symmetry_space_group_name_H-M   'P 1'
_cell_length_a   9.82961800
_cell_length_b   9.84387103
_cell_length_c   12.55231293
_cell_angle_alpha   108.56142079
_cell_angle_beta   83.91564380
_cell_angle_gamma   119.92392516
_symmetry_Int_Tables_number   1
_chemical_formula_structural   Ca7(Si2O5)8
_chemical_formula_sum   'Ca7 Si16 O40'
_cell_volume   995.84367957
_cell_formula_units_Z   1
loop_
 _symmetry_equiv_pos_site_id
 _symmetry_equiv_pos_as_xyz
  1  'x, y, z'
loop_
 _atom_site_type_symbol
 _atom_site_label
 _atom_site_symmetry_multiplicity
 _atom_site_fract_x
 _atom_site_fract_y
 _atom_site_fract_z
 _atom_site_occupancy
  Ca  Ca0  1  0.29094600  0.43999000  0.51803400  1
  Ca  Ca1  1  0.70905400  0.56001000  0.48196600  1
  Ca  Ca2  1  0.85840200  0.28450200  0.50232300  1
  Ca  Ca3  1  0.14159800  0.71549800  0.49767700  1
  Ca  Ca4  1  0.43476500  0.14587900  0.50058900  1
  Ca  Ca5  1  0.56523500  0.85412100  0.49941100  1
  Ca  Ca6  1  0.00000000  0.00000000  0.50000000  1
  Si  Si0  1  0.65765500  0.00473900  0.26874400  1
  Si  Si1  1  0.34234500  0.99526100  0.73125600  1
  Si  Si2  1  0.15767100  0.90105400  0.27080600  1
  Si  Si3  1  0.84232900  0.09894600  0.72919400  1
  Si  Si4  1  0.27127600  0.50972200  0.27691400  1
  Si  Si5  1  0.72872400  0.49027800  0.72308600  1
  Si  Si6  1  0.90615600  0.37521100  0.26738000  1
  Si  Si7  1  0.09384400  0.62478900  0.73262000  1
  Si  Si8  1  0.78189000  0.76370500  0.26648400  1
  Si  Si9  1  0.21811000  0.23629500  0.73351600  1
  Si  Si10  1  0.39768100  0.26495800  0.27313400  1
  Si  Si11  1  0.60231900  0.73504200  0.72686600  1
  Si  Si12  1  0.68371200  0.40137900  0.13167000  1
  Si  Si13  1  0.31628800  0.59862100  0.86833000  1
  Si  Si14  1  0.35003400  0.74679300  0.13871000  1
  Si  Si15  1  0.64996600  0.25320700  0.86129000  1
  O  O0  1  0.79803000  0.17912100  0.25449300  1
  O  O1  1  0.20197000  0.82087900  0.74550700  1
  O  O2  1  0.97242300  0.84632500  0.25684100  1
  O  O3  1  0.02757700  0.15367500  0.74315900  1
  O  O4  1  0.32767800  0.37405100  0.25216100  1
  O  O5  1  0.67232200  0.62594900  0.74783900  1
  O  O6  1  0.72703200  0.87759100  0.23494300  1
  O  O7  1  0.27296800  0.12240900  0.76505700  1
  O  O8  1  0.08448900  0.41155900  0.23923300  1
  O  O9  1  0.91551100  0.58844100  0.76076700  1
  O  O10  1  0.25873400  0.07415900  0.24186900  1
  O  O11  1  0.74126600  0.92584100  0.75813100  1
  O  O12  1  0.84461000  0.42084200  0.17532700  1
  O  O13  1  0.15539000  0.57915800  0.82467300  1
  O  O14  1  0.69304200  0.58061700  0.17524400  1
  O  O15  1  0.30695800  0.41938300  0.82475600  1
  O  O16  1  0.53678800  0.27557000  0.18701700  1
  O  O17  1  0.46321200  0.72443000  0.81298300  1
  O  O18  1  0.90227300  0.47923800  0.39688300  1
  O  O19  1  0.09772700  0.52076200  0.60311700  1
  O  O20  1  0.74555900  0.76290100  0.39647500  1
  O  O21  1  0.25444100  0.23709900  0.60352500  1
  O  O22  1  0.46140100  0.33304500  0.40478400  1
  O  O23  1  0.53859900  0.66695500  0.59521600  1
  O  O24  1  0.61140500  0.04027400  0.39995600  1
  O  O25  1  0.38859500  0.95972600  0.60004400  1
  O  O26  1  0.19420100  0.92183200  0.40072500  1
  O  O27  1  0.80579900  0.07816800  0.59927500  1
  O  O28  1  0.31139800  0.61797600  0.40984000  1
  O  O29  1  0.68860200  0.38202400  0.59016000  1
  O  O30  1  0.50866700  0.92735300  0.17896900  1
  O  O31  1  0.49133300  0.07264700  0.82103100  1
  O  O32  1  0.19494400  0.76523400  0.17880600  1
  O  O33  1  0.80505600  0.23476600  0.82119400  1
  O  O34  1  0.36342700  0.62841600  0.19797300  1
  O  O35  1  0.63657300  0.37158400  0.80202700  1
  O  O36  1  0.33632600  0.66734300  0.00379800  1
  O  O37  1  0.66367400  0.33265700  0.99620200  1
  O  O38  1  0.05089600  0.21571600  0.43652100  1
  O  O39  1  0.94910400  0.78428400  0.56347900  1
loop_
_geom_bond_atom_site_label_1
_geom_bond_atom_site_label_2
_geom_bond_distance
_geom_bond_site_symmetry_2
Ca0 O38 2.316241 1_555
Ca0 O23 2.356247 1_555
Ca0 O21 2.416009 1_555
Ca0 O19 2.432297 1_555
Ca0 O28 2.461734 1_555
Ca0 O22 2.497716 1_555
Ca1 O39 2.316241 1_555
Ca1 O22 2.356247 1_555
Ca1 O20 2.416009 1_555
Ca1 O18 2.432297 1_555
Ca1 O29 2.461734 1_555
Ca1 O23 2.497716 1_555
Ca2 O38 2.304738 1_655
Ca2 O29 2.336165 1_555
Ca2 O19 2.417196 1_655
Ca2 O24 2.489315 1_555
Ca2 O27 2.503260 1_555
Ca2 O18 2.506366 1_555
Ca3 O39 2.304738 1_455
Ca3 O28 2.336165 1_555
Ca3 O18 2.417196 1_455
Ca3 O25 2.489315 1_555
Ca3 O26 2.503260 1_555
Ca3 O19 2.506366 1_555
Ca4 O25 2.372542 1_545
Ca4 O26 2.385821 1_545
Ca4 O22 2.402473 1_555
Ca4 O21 2.445701 1_555
Ca4 O29 2.457115 1_555
Ca4 O24 2.488163 1_555
Ca5 O24 2.372542 1_565
Ca5 O27 2.385821 1_565
Ca5 O23 2.402473 1_555
Ca5 O20 2.445701 1_555
Ca5 O28 2.457115 1_555
Ca5 O25 2.488163 1_555
Ca6 O39 2.308062 1_445
Ca6 O38 2.308062 1_555
Ca6 O27 2.477839 1_455
Ca6 O26 2.477839 1_545
Ca6 O21 2.515046 1_555
Ca6 O20 2.515046 1_445
Ca6 O3 2.916268 1_555
Ca6 O2 2.916268 1_445
O0 Si0 1.631759 1_555
O0 Si6 1.634805 1_555
O1 Si1 1.631759 1_555
O1 Si7 1.634805 1_555
O2 Si2 1.632636 1_655
O2 Si8 1.636660 1_555
O3 Si3 1.632636 1_455
O3 Si9 1.636660 1_555
O4 Si4 1.620362 1_555
O4 Si10 1.628400 1_555
O5 Si5 1.620362 1_555
O5 Si11 1.628400 1_555
O6 Si8 1.623361 1_555
O6 Si0 1.632118 1_565
O7 Si9 1.623361 1_555
O7 Si1 1.632118 1_545
O8 Si6 1.627603 1_455
O8 Si4 1.628355 1_555
O9 Si7 1.627603 1_655
O9 Si5 1.628355 1_555
O10 Si10 1.622367 1_555
O10 Si2 1.628235 1_545
O11 Si11 1.622367 1_555
O11 Si3 1.628235 1_565
O12 Si6 1.628689 1_555
O12 Si12 1.628780 1_555
O13 Si7 1.628689 1_555
O13 Si13 1.628780 1_555
O14 Si8 1.627934 1_555
O14 Si12 1.629560 1_555
O15 Si9 1.627934 1_555
O15 Si13 1.629560 1_555
O16 Si12 1.628726 1_555
O16 Si10 1.632528 1_555
O17 Si13 1.628726 1_555
O17 Si11 1.632528 1_555
O18 Si6 1.630527 1_555
O19 Si7 1.630527 1_555
O20 Si8 1.634588 1_555
O21 Si9 1.634588 1_555
O22 Si10 1.633331 1_555
O23 Si11 1.633331 1_555
O24 Si0 1.635494 1_555
O25 Si1 1.635494 1_555
O26 Si2 1.633625 1_555
O27 Si3 1.633625 1_555
O28 Si4 1.631969 1_555
O29 Si5 1.631969 1_555
O30 Si14 1.635862 1_555
O30 Si0 1.638656 1_565
O31 Si15 1.635862 1_555
O31 Si1 1.638656 1_545
O32 Si14 1.632659 1_555
O32 Si2 1.634457 1_555
O33 Si15 1.632659 1_555
O33 Si3 1.634457 1_555
O34 Si14 1.629196 1_555
O34 Si4 1.630469 1_555
O35 Si15 1.629196 1_555
O35 Si5 1.630469 1_555
O36 Si13 1.610476 1_554
O36 Si14 1.611726 1_555
O37 Si12 1.610476 1_556
O37 Si15 1.611726 1_555
