# generated using pymatgen
data_Zn(FeO2)2
_symmetry_space_group_name_H-M   'P 1'
_cell_length_a   5.99808803
_cell_length_b   6.00644099
_cell_length_c   5.98949876
_cell_angle_alpha   90.06980954
_cell_angle_beta   119.92775922
_cell_angle_gamma   119.99750859
_symmetry_Int_Tables_number   1
_chemical_formula_structural   Zn(FeO2)2
_chemical_formula_sum   'Zn2 Fe4 O8'
_cell_volume   152.66202435
_cell_formula_units_Z   2
loop_
 _symmetry_equiv_pos_site_id
 _symmetry_equiv_pos_as_xyz
  1  'x, y, z'
loop_
 _atom_site_type_symbol
 _atom_site_label
 _atom_site_symmetry_multiplicity
 _atom_site_fract_x
 _atom_site_fract_y
 _atom_site_fract_z
 _atom_site_occupancy
  Zn  Zn0  1  0.25451700  0.12734600  0.88160500  1
  Zn  Zn1  1  0.74548100  0.87265700  0.11842400  1
  Fe  Fe0  1  0.50002900  0.00005800  0.49998900  1
  Fe  Fe1  1  0.50003400  0.49997200  0.49999700  1
  Fe  Fe2  1  0.99999400  0.49999800  0.99999400  1
  Fe  Fe3  1  0.99992000  0.49995900  0.49995500  1
  O  O0  1  0.01797600  0.73509200  0.25231100  1
  O  O1  1  0.47615600  0.73830600  0.71577700  1
  O  O2  1  0.47268900  0.73609500  0.25541900  1
  O  O3  1  0.98219500  0.71711200  0.74872900  1
  O  O4  1  0.52729600  0.26389300  0.74456700  1
  O  O5  1  0.52390900  0.26172600  0.28431700  1
  O  O6  1  0.01779800  0.28287600  0.25125200  1
  O  O7  1  0.98200900  0.26490900  0.74766600  1
loop_
_geom_bond_atom_site_label_1
_geom_bond_atom_site_label_2
_geom_bond_distance
_geom_bond_site_symmetry_2
Fe0 O5 2.030730 1_555
Fe0 O1 2.031570 1_545
Fe0 O4 2.044531 1_555
Fe0 O2 2.044772 1_545
Fe0 O7 2.050695 1_555
Fe0 O0 2.051033 1_545
Fe1 O5 2.030291 1_555
Fe1 O1 2.031097 1_555
Fe1 O4 2.044784 1_555
Fe1 O2 2.045046 1_555
Fe1 O3 2.051570 1_555
Fe1 O6 2.051918 1_555
Fe2 O3 1.990122 1_555
Fe2 O6 1.990124 1_656
Fe2 O0 1.992322 1_656
Fe2 O7 1.992337 1_555
Fe2 O2 2.009093 1_656
Fe2 O4 2.009106 1_555
Fe3 O5 2.024433 1_555
Fe3 O1 2.025357 1_655
Fe3 O7 2.053901 1_555
Fe3 O0 2.053990 1_655
Fe3 O3 2.055415 1_555
Fe3 O6 2.055489 1_655
O0 Zn1 2.010327 1_455
O1 Zn1 1.970100 1_556
O2 Zn1 2.005642 1_555
O3 Zn0 2.011603 1_665
O4 Zn0 2.005789 1_555
O5 Zn0 1.970419 1_554
O6 Zn1 2.011532 1_445
O7 Zn0 2.010380 1_655
