# generated using pymatgen
data_Y9Al5S21
_symmetry_space_group_name_H-M   'P 1'
_cell_length_a   11.40508659
_cell_length_b   11.40508660
_cell_length_c   11.40508670
_cell_angle_alpha   94.11298346
_cell_angle_beta   94.11298341
_cell_angle_gamma   94.11297479
_symmetry_Int_Tables_number   1
_chemical_formula_structural   Y9Al5S21
_chemical_formula_sum   'Y18 Al10 S42'
_cell_volume   1471.48435128
_cell_formula_units_Z   2
loop_
 _symmetry_equiv_pos_site_id
 _symmetry_equiv_pos_as_xyz
  1  'x, y, z'
loop_
 _atom_site_type_symbol
 _atom_site_label
 _atom_site_symmetry_multiplicity
 _atom_site_fract_x
 _atom_site_fract_y
 _atom_site_fract_z
 _atom_site_occupancy
  Y  Y0  1  0.26245617  0.11860666  0.88531406  1
  Y  Y1  1  0.93115818  0.77600186  0.54630078  1
  Y  Y2  1  0.60309065  0.44915817  0.23354005  1
  Y  Y3  1  0.44915817  0.23354005  0.60309065  1
  Y  Y4  1  0.11860666  0.88531406  0.26245617  1
  Y  Y5  1  0.77600186  0.54630078  0.93115818  1
  Y  Y6  1  0.54630078  0.93115818  0.77600186  1
  Y  Y7  1  0.23354005  0.60309065  0.44915817  1
  Y  Y8  1  0.88531406  0.26245617  0.11860666  1
  Y  Y9  1  0.41470578  0.56667935  0.79188327  1
  Y  Y10  1  0.07033366  0.22564518  0.45477783  1
  Y  Y11  1  0.75518814  0.90115580  0.12545061  1
  Y  Y12  1  0.22564518  0.45477783  0.07033366  1
  Y  Y13  1  0.90115580  0.12545061  0.75518814  1
  Y  Y14  1  0.56667935  0.79188327  0.41470578  1
  Y  Y15  1  0.12545061  0.75518814  0.90115580  1
  Y  Y16  1  0.79188327  0.41470578  0.56667935  1
  Y  Y17  1  0.45477783  0.07033366  0.22564518  1
  Al  Al0  1  0.95254799  0.61229933  0.27988020  1
  Al  Al1  1  0.61229933  0.27988020  0.95254799  1
  Al  Al2  1  0.27988020  0.95254799  0.61229933  1
  Al  Al3  1  0.45178192  0.77631549  0.11672147  1
  Al  Al4  1  0.11672147  0.45178192  0.77631549  1
  Al  Al5  1  0.77631549  0.11672147  0.45178192  1
  Al  Al6  1  0.13957701  0.13957701  0.13957701  1
  Al  Al7  1  0.82300385  0.82300385  0.82300385  1
  Al  Al8  1  0.32202968  0.32202968  0.32202968  1
  Al  Al9  1  0.64099501  0.64099501  0.64099501  1
  S  S0  1  0.82814381  0.49106686  0.16087408  1
  S  S1  1  0.49106686  0.16087408  0.82814381  1
  S  S2  1  0.16087408  0.82814381  0.49106686  1
  S  S3  1  0.66103820  0.99217552  0.32712872  1
  S  S4  1  0.32712872  0.66103820  0.99217552  1
  S  S5  1  0.99217552  0.32712872  0.66103820  1
  S  S6  1  0.99190129  0.55310909  0.46026771  1
  S  S7  1  0.64654640  0.21710783  0.13161600  1
  S  S8  1  0.30896103  0.89400248  0.79531202  1
  S  S9  1  0.89400248  0.79531202  0.30896103  1
  S  S10  1  0.55310909  0.46026771  0.99190129  1
  S  S11  1  0.21710783  0.13161600  0.64654640  1
  S  S12  1  0.13161600  0.64654640  0.21710783  1
  S  S13  1  0.79531202  0.30896103  0.89400248  1
  S  S14  1  0.46026771  0.99190129  0.55310909  1
  S  S15  1  0.52327184  0.93733375  0.03698824  1
  S  S16  1  0.18751601  0.61584855  0.70244842  1
  S  S17  1  0.84224706  0.28125321  0.37188873  1
  S  S18  1  0.61584855  0.70244842  0.18751601  1
  S  S19  1  0.28125321  0.37188873  0.84224706  1
  S  S20  1  0.93733375  0.03698824  0.52327184  1
  S  S21  1  0.37188873  0.84224706  0.28125321  1
  S  S22  1  0.03698824  0.52327184  0.93733375  1
  S  S23  1  0.70244842  0.18751601  0.61584855  1
  S  S24  1  0.68759888  0.58585382  0.44446351  1
  S  S25  1  0.33283996  0.23652411  0.10601807  1
  S  S26  1  0.00010050  0.89702317  0.76159922  1
  S  S27  1  0.89702317  0.76159922  0.00010050  1
  S  S28  1  0.58585382  0.44446351  0.68759888  1
  S  S29  1  0.23652411  0.10601807  0.33283996  1
  S  S30  1  0.10601807  0.33283996  0.23652411  1
  S  S31  1  0.76159922  0.00010050  0.89702317  1
  S  S32  1  0.44446351  0.68759888  0.58585382  1
  S  S33  1  0.61892255  0.71495390  0.84544963  1
  S  S34  1  0.27078060  0.37705006  0.50929346  1
  S  S35  1  0.95733392  0.05603525  0.20062641  1
  S  S36  1  0.37705006  0.50929346  0.27078060  1
  S  S37  1  0.05603525  0.20062641  0.95733392  1
  S  S38  1  0.71495390  0.84544963  0.61892255  1
  S  S39  1  0.20062641  0.95733392  0.05603525  1
  S  S40  1  0.84544963  0.61892255  0.71495390  1
  S  S41  1  0.50929346  0.27078060  0.37705006  1
loop_
_geom_bond_atom_site_label_1
_geom_bond_atom_site_label_2
_geom_bond_distance
_geom_bond_site_symmetry_2
Al0 S0 2.222660 1_555
Al0 S12 2.229678 1_655
Al0 S6 2.236074 1_555
Al0 S9 2.246097 1_555
Al1 S1 2.222660 1_555
Al1 S7 2.229678 1_556
Al1 S10 2.236073 1_555
Al1 S13 2.246098 1_555
Al2 S2 2.222660 1_555
Al2 S11 2.229678 1_565
Al2 S14 2.236074 1_555
Al2 S8 2.246098 1_555
Al3 S4 2.223002 1_554
Al3 S18 2.229352 1_555
Al3 S15 2.235023 1_555
Al3 S21 2.249021 1_555
Al4 S5 2.223002 1_455
Al4 S16 2.229352 1_555
Al4 S22 2.235023 1_555
Al4 S19 2.249021 1_555
Al5 S3 2.223002 1_545
Al5 S23 2.229352 1_555
Al5 S20 2.235023 1_555
Al5 S17 2.249022 1_555
Al6 S39 2.394047 1_545
Al6 S37 2.394047 1_554
Al6 S35 2.394047 1_455
Al6 S30 2.461621 1_555
Al6 S29 2.461621 1_555
Al6 S25 2.461621 1_555
Al7 S31 2.307780 1_565
Al7 S27 2.307780 1_556
Al7 S26 2.307780 1_655
Al7 S40 2.592485 1_555
Al7 S38 2.592485 1_555
Al7 S33 2.592485 1_555
Al8 S41 2.310047 1_555
Al8 S34 2.310047 1_555
Al8 S36 2.310047 1_555
Al8 S30 2.598437 1_555
Al8 S25 2.598437 1_555
Al8 S29 2.598437 1_555
Al9 S32 2.391401 1_555
Al9 S24 2.391401 1_555
Al9 S28 2.391401 1_555
Al9 S40 2.458616 1_555
Al9 S33 2.458616 1_555
Al9 S38 2.458616 1_555
S0 Y8 2.750333 1_555
S0 Y5 2.771553 1_554
S0 Y2 2.772994 1_555
S1 Y0 2.750333 1_555
S1 Y6 2.771553 1_545
S1 Y3 2.772994 1_555
S2 Y4 2.750333 1_555
S2 Y1 2.771553 1_455
S2 Y7 2.772994 1_555
S3 Y14 2.739142 1_555
S3 Y11 2.773634 1_555
S3 Y17 2.779628 1_565
S4 Y9 2.739142 1_555
S4 Y15 2.773634 1_555
S4 Y12 2.779628 1_556
S5 Y16 2.739141 1_555
S5 Y13 2.773634 1_555
S5 Y10 2.779628 1_655
S6 Y7 2.787678 1_655
S6 Y1 2.810229 1_555
S6 Y16 3.053516 1_555
S7 Y8 2.751741 1_555
S7 Y2 2.903561 1_555
S7 Y17 2.967254 1_555
S8 Y6 2.736720 1_555
S8 Y0 2.791547 1_565
S8 Y15 2.916406 1_555
S9 Y1 2.736720 1_555
S9 Y4 2.791547 1_655
S9 Y11 2.916406 1_555
S10 Y2 2.787678 1_556
S10 Y5 2.810229 1_555
S10 Y9 3.053516 1_555
S11 Y0 2.751741 1_555
S11 Y3 2.903561 1_555
S11 Y10 2.967254 1_555
S12 Y4 2.751741 1_555
S12 Y7 2.903561 1_555
S12 Y12 2.967254 1_555
S13 Y5 2.736720 1_555
S13 Y8 2.791547 1_556
S13 Y13 2.916406 1_555
S14 Y3 2.787678 1_565
S14 Y6 2.810229 1_555
S14 Y14 3.053516 1_555
S15 Y17 2.735627 1_565
S15 Y11 2.831571 1_555
S15 Y6 3.003107 1_554
S16 Y9 2.824917 1_555
S16 Y15 2.835034 1_555
S16 Y7 2.968169 1_555
S17 Y16 2.721301 1_555
S17 Y10 2.834226 1_655
S17 Y8 2.960006 1_555
S18 Y14 2.824917 1_555
S18 Y11 2.835035 1_555
S18 Y2 2.968169 1_555
S19 Y9 2.721301 1_555
S19 Y12 2.834226 1_556
S19 Y0 2.960006 1_555
S20 Y10 2.735627 1_655
S20 Y13 2.831571 1_555
S20 Y1 3.003107 1_545
S21 Y14 2.721301 1_555
S21 Y17 2.834226 1_565
S21 Y4 2.960006 1_555
S22 Y12 2.735627 1_556
S22 Y15 2.831571 1_555
S22 Y5 3.003107 1_455
S23 Y16 2.824917 1_555
S23 Y13 2.835034 1_555
S23 Y3 2.968169 1_555
S24 Y16 2.766434 1_555
S24 Y14 2.837373 1_555
S24 Y2 2.839068 1_555
S25 Y0 2.803347 1_554
S25 Y17 2.804470 1_555
S25 Y12 2.892563 1_555
S26 Y15 2.751114 1_555
S26 Y1 2.762974 1_455
S26 Y13 2.916035 1_465
S27 Y11 2.751114 1_555
S27 Y5 2.762974 1_554
S27 Y15 2.916035 1_654
S28 Y9 2.766434 1_555
S28 Y16 2.837373 1_555
S28 Y3 2.839068 1_555
S29 Y4 2.803347 1_545
S29 Y10 2.804470 1_555
S29 Y17 2.892563 1_555
S30 Y8 2.803347 1_455
S30 Y12 2.804471 1_555
S30 Y10 2.892563 1_555
S31 Y13 2.751115 1_555
S31 Y6 2.762974 1_545
S31 Y11 2.916035 1_546
S32 Y14 2.766435 1_555
S32 Y9 2.837373 1_555
S32 Y7 2.839068 1_555
S33 Y9 2.782165 1_555
S33 Y6 2.805833 1_555
S33 Y5 2.894426 1_555
S34 Y7 2.768727 1_555
S34 Y10 2.769568 1_555
S34 Y3 2.894613 1_555
S35 Y8 2.752327 1_555
S35 Y11 2.843525 1_545
S35 Y4 2.862900 1_645
S36 Y2 2.768727 1_555
S36 Y12 2.769568 1_555
S36 Y7 2.894613 1_555
S37 Y0 2.752327 1_555
S37 Y13 2.843525 1_455
S37 Y8 2.862900 1_456
S38 Y14 2.782165 1_555
S38 Y1 2.805833 1_555
S38 Y6 2.894426 1_555
S39 Y4 2.752327 1_555
S39 Y15 2.843525 1_554
S39 Y0 2.862900 1_564
S40 Y16 2.782165 1_555
S40 Y5 2.805834 1_555
S40 Y1 2.894426 1_555
S41 Y3 2.768727 1_555
S41 Y17 2.769568 1_555
S41 Y2 2.894613 1_555
