# generated using pymatgen
data_Tm6Nb4Al43
_symmetry_space_group_name_H-M   'P 1'
_cell_length_a   11.11415425
_cell_length_b   11.11415425
_cell_length_c   17.65543600
_cell_angle_alpha   90.00000000
_cell_angle_beta   90.00000000
_cell_angle_gamma   120.00000152
_symmetry_Int_Tables_number   1
_chemical_formula_structural   Tm6Nb4Al43
_chemical_formula_sum   'Tm12 Nb8 Al86'
_cell_volume   1888.69535495
_cell_formula_units_Z   2
loop_
 _symmetry_equiv_pos_site_id
 _symmetry_equiv_pos_as_xyz
  1  'x, y, z'
loop_
 _atom_site_type_symbol
 _atom_site_label
 _atom_site_symmetry_multiplicity
 _atom_site_fract_x
 _atom_site_fract_y
 _atom_site_fract_z
 _atom_site_occupancy
  Tm  Tm0  1  0.53026900  0.00000000  0.59612500  1
  Tm  Tm1  1  0.46973100  0.00000000  0.40387500  1
  Tm  Tm2  1  0.00000000  0.53026900  0.59612500  1
  Tm  Tm3  1  0.46973100  0.00000000  0.09612500  1
  Tm  Tm4  1  0.00000000  0.53026900  0.90387500  1
  Tm  Tm5  1  0.00000000  0.46973100  0.40387500  1
  Tm  Tm6  1  0.53026900  0.00000000  0.90387500  1
  Tm  Tm7  1  0.00000000  0.46973100  0.09612500  1
  Tm  Tm8  1  0.46973100  0.46973100  0.59612500  1
  Tm  Tm9  1  0.53026900  0.53026900  0.40387500  1
  Tm  Tm10  1  0.53026900  0.53026900  0.09612500  1
  Tm  Tm11  1  0.46973100  0.46973100  0.90387500  1
  Nb  Nb0  1  0.00000000  0.00000000  0.50000000  1
  Nb  Nb1  1  0.00000000  0.00000000  0.00000000  1
  Nb  Nb2  1  0.72523500  0.00000000  0.75000000  1
  Nb  Nb3  1  0.27476500  0.00000000  0.25000000  1
  Nb  Nb4  1  0.00000000  0.72523500  0.75000000  1
  Nb  Nb5  1  0.00000000  0.27476500  0.25000000  1
  Nb  Nb6  1  0.27476500  0.27476500  0.75000000  1
  Nb  Nb7  1  0.72523500  0.72523500  0.25000000  1
  Al  Al0  1  0.14984500  0.59544200  0.75000000  1
  Al  Al1  1  0.85015500  0.40455800  0.25000000  1
  Al  Al2  1  0.40455800  0.55440300  0.75000000  1
  Al  Al3  1  0.59544200  0.14984500  0.75000000  1
  Al  Al4  1  0.59544200  0.44559700  0.25000000  1
  Al  Al5  1  0.40455800  0.85015500  0.25000000  1
  Al  Al6  1  0.44559700  0.85015500  0.75000000  1
  Al  Al7  1  0.55440300  0.40455800  0.75000000  1
  Al  Al8  1  0.55440300  0.14984500  0.25000000  1
  Al  Al9  1  0.44559700  0.59544200  0.25000000  1
  Al  Al10  1  0.85015500  0.44559700  0.75000000  1
  Al  Al11  1  0.14984500  0.55440300  0.25000000  1
  Al  Al12  1  0.15919600  0.00000000  0.11516200  1
  Al  Al13  1  0.84080400  0.00000000  0.88483800  1
  Al  Al14  1  0.00000000  0.15919600  0.11516200  1
  Al  Al15  1  0.84080400  0.00000000  0.61516200  1
  Al  Al16  1  0.00000000  0.15919600  0.38483800  1
  Al  Al17  1  0.00000000  0.84080400  0.88483800  1
  Al  Al18  1  0.15919600  0.00000000  0.38483800  1
  Al  Al19  1  0.00000000  0.84080400  0.61516200  1
  Al  Al20  1  0.84080400  0.84080400  0.11516200  1
  Al  Al21  1  0.15919600  0.15919600  0.88483800  1
  Al  Al22  1  0.15919600  0.15919600  0.61516200  1
  Al  Al23  1  0.84080400  0.84080400  0.38483800  1
  Al  Al24  1  0.24717000  0.49433900  0.50000000  1
  Al  Al25  1  0.75283000  0.50566100  0.50000000  1
  Al  Al26  1  0.50566100  0.75283000  0.50000000  1
  Al  Al27  1  0.75283000  0.50566100  0.00000000  1
  Al  Al28  1  0.49433900  0.24717000  0.00000000  1
  Al  Al29  1  0.49433900  0.24717000  0.50000000  1
  Al  Al30  1  0.24717000  0.49433900  0.00000000  1
  Al  Al31  1  0.50566100  0.75283000  0.00000000  1
  Al  Al32  1  0.24717000  0.75283000  0.50000000  1
  Al  Al33  1  0.75283000  0.24717000  0.50000000  1
  Al  Al34  1  0.75283000  0.24717000  0.00000000  1
  Al  Al35  1  0.24717000  0.75283000  0.00000000  1
  Al  Al36  1  0.14718300  0.00000000  0.75000000  1
  Al  Al37  1  0.85281700  0.00000000  0.25000000  1
  Al  Al38  1  0.00000000  0.14718300  0.75000000  1
  Al  Al39  1  0.00000000  0.85281700  0.25000000  1
  Al  Al40  1  0.85281700  0.85281700  0.75000000  1
  Al  Al41  1  0.14718300  0.14718300  0.25000000  1
  Al  Al42  1  0.33333300  0.66666700  0.62625500  1
  Al  Al43  1  0.66666700  0.33333300  0.37374500  1
  Al  Al44  1  0.66666700  0.33333300  0.12625500  1
  Al  Al45  1  0.66666700  0.33333300  0.87374500  1
  Al  Al46  1  0.33333300  0.66666700  0.87374500  1
  Al  Al47  1  0.33333300  0.66666700  0.12625500  1
  Al  Al48  1  0.33333300  0.66666700  0.37374500  1
  Al  Al49  1  0.66666700  0.33333300  0.62625500  1
  Al  Al50  1  0.25709200  0.00000000  0.53034700  1
  Al  Al51  1  0.74290800  0.00000000  0.46965300  1
  Al  Al52  1  0.00000000  0.25709200  0.53034700  1
  Al  Al53  1  0.74290800  0.00000000  0.03034700  1
  Al  Al54  1  0.00000000  0.25709200  0.96965300  1
  Al  Al55  1  0.00000000  0.74290800  0.46965300  1
  Al  Al56  1  0.25709200  0.00000000  0.96965300  1
  Al  Al57  1  0.00000000  0.74290800  0.03034700  1
  Al  Al58  1  0.74290800  0.74290800  0.53034700  1
  Al  Al59  1  0.25709200  0.25709200  0.46965300  1
  Al  Al60  1  0.25709200  0.25709200  0.03034700  1
  Al  Al61  1  0.74290800  0.74290800  0.96965300  1
  Al  Al62  1  0.15676000  0.39470500  0.66328800  1
  Al  Al63  1  0.84324000  0.60529500  0.33671200  1
  Al  Al64  1  0.60529500  0.76205500  0.66328800  1
  Al  Al65  1  0.84324000  0.60529500  0.16328800  1
  Al  Al66  1  0.39470500  0.15676000  0.83671200  1
  Al  Al67  1  0.39470500  0.23794500  0.33671200  1
  Al  Al68  1  0.15676000  0.39470500  0.83671200  1
  Al  Al69  1  0.60529500  0.84324000  0.16328800  1
  Al  Al70  1  0.23794500  0.84324000  0.66328800  1
  Al  Al71  1  0.39470500  0.23794500  0.16328800  1
  Al  Al72  1  0.76205500  0.60529500  0.83671200  1
  Al  Al73  1  0.76205500  0.15676000  0.33671200  1
  Al  Al74  1  0.60529500  0.76205500  0.83671200  1
  Al  Al75  1  0.23794500  0.39470500  0.16328800  1
  Al  Al76  1  0.60529500  0.84324000  0.33671200  1
  Al  Al77  1  0.39470500  0.15676000  0.66328800  1
  Al  Al78  1  0.76205500  0.15676000  0.16328800  1
  Al  Al79  1  0.23794500  0.39470500  0.33671200  1
  Al  Al80  1  0.23794500  0.84324000  0.83671200  1
  Al  Al81  1  0.76205500  0.60529500  0.66328800  1
  Al  Al82  1  0.84324000  0.23794500  0.83671200  1
  Al  Al83  1  0.15676000  0.76205500  0.16328800  1
  Al  Al84  1  0.15676000  0.76205500  0.33671200  1
  Al  Al85  1  0.84324000  0.23794500  0.66328800  1
loop_
_geom_bond_atom_site_label_1
_geom_bond_atom_site_label_2
_geom_bond_distance
_geom_bond_site_symmetry_2
Tm0 Tm1 3.460301 1_555
Tm2 Tm5 3.460301 1_555
Tm3 Tm6 3.460301 1_554
Tm4 Tm7 3.460301 1_556
Tm8 Tm9 3.460301 1_555
Tm10 Tm11 3.460301 1_554
Nb2 Tm6 3.475054 1_555
Nb2 Tm0 3.475054 1_555
Nb3 Tm1 3.475054 1_555
Nb3 Tm3 3.475054 1_555
Nb4 Tm2 3.475054 1_555
Nb4 Tm4 3.475054 1_555
Nb5 Tm7 3.475054 1_555
Nb5 Tm5 3.475054 1_555
Nb6 Tm11 3.475054 1_555
Nb6 Tm8 3.475054 1_555
Nb7 Tm10 3.475054 1_555
Nb7 Tm9 3.475054 1_555
Al0 Nb4 2.693861 1_555
Al0 Al68 2.738357 1_555
Al0 Al62 2.738357 1_555
Al0 Al42 2.818570 1_555
Al0 Al46 2.818570 1_555
Al0 Al70 2.861946 1_555
Al0 Al80 2.861946 1_555
Al0 Al10 2.884558 1_455
Al0 Tm2 3.077748 1_555
Al0 Tm4 3.077748 1_555
Al1 Nb5 2.693861 1_655
Al1 Al65 2.738357 1_555
Al1 Al63 2.738357 1_555
Al1 Al44 2.818570 1_555
Al1 Al43 2.818570 1_555
Al1 Al73 2.861946 1_555
Al1 Al78 2.861946 1_555
Al1 Al11 2.884558 1_655
Al1 Tm5 3.077748 1_655
Al1 Tm7 3.077748 1_655
Al2 Nb6 2.693860 1_555
Al2 Al74 2.738357 1_555
Al2 Al64 2.738357 1_555
Al2 Al42 2.818576 1_555
Al2 Al46 2.818576 1_555
Al2 Al68 2.861946 1_555
Al2 Al62 2.861946 1_555
Al2 Al7 2.884558 1_555
Al2 Tm11 3.077748 1_555
Al2 Tm8 3.077748 1_555
Al3 Nb2 2.693861 1_555
Al3 Al77 2.738357 1_555
Al3 Al66 2.738357 1_555
Al3 Al49 2.818570 1_555
Al3 Al45 2.818570 1_555
Al3 Al85 2.861946 1_555
Al3 Al82 2.861946 1_555
Al3 Al6 2.884558 1_545
Al3 Tm0 3.077748 1_555
Al3 Tm6 3.077748 1_555
Al4 Nb7 2.693860 1_555
Al4 Al67 2.738357 1_555
Al4 Al71 2.738357 1_555
Al4 Al43 2.818576 1_555
Al4 Al44 2.818576 1_555
Al4 Al65 2.861946 1_555
Al4 Al63 2.861946 1_555
Al4 Al9 2.884558 1_555
Al4 Tm10 3.077748 1_555
Al4 Tm9 3.077748 1_555
Al5 Nb3 2.693861 1_565
Al5 Al69 2.738357 1_555
Al5 Al76 2.738357 1_555
Al5 Al83 2.861946 1_555
Al5 Al84 2.861946 1_555
Al5 Al8 2.884558 1_565
Al5 Tm1 3.077748 1_565
Al5 Tm3 3.077748 1_565
Al6 Nb2 2.693860 1_565
Al6 Al70 2.738357 1_555
Al6 Al80 2.738357 1_555
Al6 Al74 2.861946 1_555
Al6 Al64 2.861946 1_555
Al6 Tm6 3.077748 1_565
Al6 Tm0 3.077748 1_565
Al7 Nb6 2.693860 1_555
Al7 Al72 2.738357 1_555
Al7 Al81 2.738357 1_555
Al7 Al77 2.861946 1_555
Al7 Tm11 3.077748 1_555
Al7 Tm8 3.077748 1_555
Al8 Nb3 2.693860 1_555
Al8 Tm3 3.077748 1_555
Al8 Tm1 3.077748 1_555
Al9 Nb7 2.693860 1_555
Al9 Tm9 3.077748 1_555
Al9 Tm10 3.077748 1_555
Al10 Nb4 2.693860 1_655
Al10 Al82 2.738357 1_555
Al10 Al85 2.738357 1_555
Al10 Al49 2.818571 1_555
Al10 Al45 2.818571 1_555
Al10 Al72 2.861946 1_555
Al10 Al81 2.861946 1_555
Al10 Tm4 3.077748 1_655
Al10 Tm2 3.077748 1_655
Al11 Nb5 2.693860 1_555
Al11 Al83 2.738357 1_555
Al11 Al84 2.738357 1_555
Al11 Al47 2.818571 1_555
Al11 Al48 2.818571 1_555
Al11 Al79 2.861946 1_555
Al11 Al75 2.861946 1_555
Al11 Tm7 3.077748 1_555
Al11 Tm5 3.077748 1_555
Al12 Nb1 2.695287 1_555
Al12 Nb3 2.705030 1_555
Al12 Al71 2.764920 1_555
Al12 Al83 2.764920 1_545
Al12 Al56 2.789928 1_554
Al12 Al57 2.912347 1_545
Al12 Al60 2.912347 1_555
Al12 Al39 2.929076 1_545
Al12 Al41 2.929077 1_555
Al12 Al20 3.064568 1_445
Al12 Al14 3.064568 1_555
Al12 Tm3 3.467661 1_555
Al13 Nb1 2.695287 1_656
Al13 Nb2 2.705030 1_555
Al13 Al74 2.764920 1_545
Al13 Al82 2.764920 1_555
Al13 Al53 2.789928 1_556
Al13 Al54 2.912347 1_655
Al13 Al61 2.912347 1_545
Al13 Al38 2.929076 1_655
Al13 Al40 2.929077 1_545
Al13 Al21 3.064568 1_655
Al13 Al17 3.064568 1_645
Al13 Tm6 3.467661 1_555
Al14 Nb1 2.695287 1_555
Al14 Nb5 2.705030 1_555
Al14 Al75 2.764920 1_555
Al14 Al78 2.764920 1_455
Al14 Al54 2.789928 1_554
Al14 Al53 2.912347 1_455
Al14 Al60 2.912347 1_555
Al14 Al37 2.929076 1_455
Al14 Al41 2.929077 1_555
Al14 Al20 3.064568 1_445
Al14 Tm7 3.467661 1_555
Al15 Nb0 2.695287 1_655
Al15 Nb2 2.705030 1_555
Al15 Al64 2.764920 1_545
Al15 Al85 2.764920 1_555
Al15 Al51 2.789928 1_555
Al15 Al52 2.912347 1_655
Al15 Al58 2.912347 1_545
Al15 Al38 2.929076 1_655
Al15 Al40 2.929077 1_545
Al15 Al22 3.064568 1_655
Al15 Al19 3.064568 1_645
Al15 Tm0 3.467661 1_555
Al16 Nb0 2.695287 1_555
Al16 Nb5 2.705030 1_555
Al16 Al79 2.764920 1_555
Al16 Al73 2.764920 1_455
Al16 Al52 2.789928 1_555
Al16 Al51 2.912347 1_455
Al16 Al59 2.912347 1_555
Al16 Al37 2.929076 1_455
Al16 Al41 2.929077 1_555
Al16 Al23 3.064568 1_445
Al16 Al18 3.064568 1_555
Al16 Tm5 3.467661 1_555
Al17 Nb1 2.695287 1_566
Al17 Nb4 2.705030 1_555
Al17 Al72 2.764920 1_455
Al17 Al80 2.764920 1_555
Al17 Al57 2.789928 1_556
Al17 Al56 2.912347 1_565
Al17 Al61 2.912347 1_455
Al17 Al36 2.929076 1_565
Al17 Al40 2.929077 1_455
Al17 Al21 3.064568 1_565
Al17 Tm4 3.467661 1_555
Al18 Nb0 2.695287 1_555
Al18 Nb3 2.705030 1_555
Al18 Al67 2.764920 1_555
Al18 Al84 2.764920 1_545
Al18 Al50 2.789928 1_555
Al18 Al55 2.912347 1_545
Al18 Al59 2.912347 1_555
Al18 Al39 2.929076 1_545
Al18 Al41 2.929077 1_555
Al18 Al23 3.064568 1_445
Al18 Tm1 3.467661 1_555
Al19 Nb0 2.695287 1_565
Al19 Nb4 2.705030 1_555
Al19 Al81 2.764920 1_455
Al19 Al70 2.764920 1_555
Al19 Al55 2.789928 1_555
Al19 Al50 2.912347 1_565
Al19 Al58 2.912347 1_455
Al19 Al36 2.929076 1_565
Al19 Al40 2.929077 1_455
Al19 Al22 3.064568 1_565
Al19 Tm2 3.467661 1_555
Al20 Nb1 2.695287 1_665
Al20 Nb7 2.705030 1_555
Al20 Al65 2.764920 1_555
Al20 Al69 2.764920 1_555
Al20 Al61 2.789928 1_554
Al20 Al53 2.912347 1_565
Al20 Al57 2.912347 1_655
Al20 Al39 2.929077 1_655
Al20 Al37 2.929077 1_565
Al20 Tm10 3.467661 1_555
Al21 Nb1 2.695287 1_556
Al21 Nb6 2.705030 1_555
Al21 Al66 2.764920 1_555
Al21 Al68 2.764920 1_555
Al21 Al60 2.789928 1_556
Al21 Al56 2.912347 1_555
Al21 Al54 2.912347 1_555
Al21 Al36 2.929077 1_555
Al21 Al38 2.929077 1_555
Al21 Tm11 3.467661 1_555
Al22 Nb0 2.695287 1_555
Al22 Nb6 2.705030 1_555
Al22 Al77 2.764920 1_555
Al22 Al62 2.764920 1_555
Al22 Al59 2.789928 1_555
Al22 Al50 2.912347 1_555
Al22 Al52 2.912347 1_555
Al22 Al38 2.929077 1_555
Al22 Al36 2.929077 1_555
Al22 Tm8 3.467661 1_555
Al23 Nb0 2.695287 1_665
Al23 Nb7 2.705030 1_555
Al23 Al76 2.764920 1_555
Al23 Al63 2.764920 1_555
Al23 Al58 2.789928 1_555
Al23 Al51 2.912347 1_565
Al23 Al55 2.912347 1_655
Al23 Al37 2.929077 1_565
Al23 Al39 2.929077 1_655
Al23 Tm9 3.467661 1_555
Al24 Al59 2.746401 1_555
Al24 Al52 2.746406 1_555
Al24 Al48 2.778498 1_555
Al24 Al42 2.778498 1_555
Al24 Al26 2.872909 1_555
Al24 Al32 2.872909 1_555
Al24 Al79 3.071552 1_555
Al24 Al62 3.071553 1_555
Al24 Tm8 3.122523 1_555
Al24 Tm5 3.122532 1_555
Al24 Tm9 3.418058 1_555
Al24 Tm2 3.418068 1_555
Al25 Al58 2.746401 1_555
Al25 Al55 2.746406 1_655
Al25 Al43 2.778498 1_555
Al25 Al49 2.778498 1_555
Al25 Al29 2.872909 1_555
Al25 Al33 2.872909 1_555
Al25 Al81 3.071552 1_555
Al25 Al63 3.071553 1_555
Al25 Tm9 3.122523 1_555
Al25 Tm2 3.122532 1_655
Al25 Tm8 3.418058 1_555
Al25 Tm5 3.418068 1_655
Al26 Al58 2.746401 1_555
Al26 Al51 2.746406 1_565
Al26 Al42 2.778498 1_555
Al26 Al48 2.778498 1_555
Al26 Al32 2.872909 1_555
Al26 Al64 3.071552 1_555
Al26 Al76 3.071553 1_555
Al26 Tm9 3.122523 1_555
Al26 Tm0 3.122532 1_565
Al26 Tm8 3.418058 1_555
Al26 Tm1 3.418068 1_565
Al27 Al61 2.746401 1_554
Al27 Al57 2.746406 1_655
Al27 Al44 2.778498 1_555
Al27 Al45 2.778498 1_554
Al27 Al28 2.872909 1_555
Al27 Al34 2.872909 1_555
Al27 Al72 3.071552 1_554
Al27 Al65 3.071553 1_555
Al27 Tm10 3.122523 1_555
Al27 Tm4 3.122532 1_654
Al27 Tm11 3.418058 1_554
Al27 Tm7 3.418068 1_655
Al28 Al60 2.746401 1_555
Al28 Al56 2.746406 1_554
Al28 Al44 2.778498 1_555
Al28 Al45 2.778498 1_554
Al28 Al34 2.872909 1_555
Al28 Al71 3.071552 1_555
Al28 Al66 3.071553 1_554
Al28 Tm11 3.122523 1_554
Al28 Tm3 3.122532 1_555
Al28 Tm10 3.418058 1_555
Al28 Tm6 3.418068 1_554
Al29 Al59 2.746401 1_555
Al29 Al50 2.746406 1_555
Al29 Al43 2.778498 1_555
Al29 Al49 2.778498 1_555
Al29 Al33 2.872909 1_555
Al29 Al67 3.071552 1_555
Al29 Al77 3.071553 1_555
Al29 Tm8 3.122523 1_555
Al29 Tm1 3.122532 1_555
Al29 Tm9 3.418058 1_555
Al29 Tm0 3.418068 1_555
Al30 Al60 2.746401 1_555
Al30 Al54 2.746406 1_554
Al30 Al47 2.778498 1_555
Al30 Al46 2.778498 1_554
Al30 Al31 2.872909 1_555
Al30 Al35 2.872909 1_555
Al30 Al75 3.071552 1_555
Al30 Al68 3.071553 1_554
Al30 Tm11 3.122523 1_554
Al30 Tm7 3.122532 1_555
Al30 Tm10 3.418058 1_555
Al30 Tm4 3.418068 1_554
Al31 Al61 2.746401 1_554
Al31 Al53 2.746406 1_565
Al31 Al46 2.778498 1_554
Al31 Al47 2.778498 1_555
Al31 Al35 2.872909 1_555
Al31 Al74 3.071552 1_554
Al31 Al69 3.071553 1_555
Al31 Tm10 3.122523 1_555
Al31 Tm6 3.122532 1_564
Al31 Tm11 3.418058 1_554
Al31 Tm3 3.418068 1_565
Al32 Al50 2.746411 1_565
Al32 Al55 2.746411 1_555
Al32 Al42 2.778487 1_555
Al32 Al48 2.778487 1_555
Al32 Al84 3.071555 1_555
Al32 Al70 3.071555 1_555
Al32 Tm1 3.122528 1_565
Al32 Tm2 3.122528 1_555
Al32 Tm0 3.418062 1_565
Al32 Tm5 3.418062 1_555
Al33 Al52 2.746411 1_655
Al33 Al51 2.746411 1_555
Al33 Al43 2.778487 1_555
Al33 Al49 2.778487 1_555
Al33 Al73 3.071555 1_555
Al33 Al85 3.071555 1_555
Al33 Tm5 3.122528 1_655
Al33 Tm0 3.122528 1_555
Al33 Tm2 3.418062 1_655
Al33 Tm1 3.418062 1_555
Al34 Al54 2.746411 1_654
Al34 Al53 2.746411 1_555
Al34 Al45 2.778487 1_554
Al34 Al44 2.778487 1_555
Al34 Al78 3.071555 1_555
Al34 Al82 3.071555 1_554
Al34 Tm7 3.122528 1_655
Al34 Tm6 3.122528 1_554
Al34 Tm4 3.418062 1_654
Al34 Tm3 3.418062 1_555
Al35 Al56 2.746411 1_564
Al35 Al57 2.746411 1_555
Al35 Al46 2.778487 1_554
Al35 Al47 2.778487 1_555
Al35 Al83 3.071555 1_555
Al35 Al80 3.071555 1_554
Al35 Tm3 3.122528 1_565
Al35 Tm4 3.122528 1_554
Al35 Tm6 3.418062 1_564
Al35 Tm7 3.418062 1_555
Al36 Nb4 2.646894 1_545
Al36 Nb6 2.646894 1_555
Al36 Al40 2.833314 1_445
Al36 Al38 2.833314 1_555
Al36 Al77 2.855569 1_555
Al36 Al66 2.855569 1_555
Al36 Al80 2.855569 1_545
Al36 Al70 2.855569 1_545
Al37 Nb5 2.646894 1_655
Al37 Nb7 2.646894 1_545
Al37 Al41 2.833314 1_655
Al37 Al39 2.833314 1_645
Al37 Al69 2.855569 1_545
Al37 Al76 2.855569 1_545
Al37 Al73 2.855569 1_555
Al37 Al78 2.855569 1_555
Al38 Nb2 2.646894 1_455
Al38 Nb6 2.646894 1_555
Al38 Al40 2.833314 1_445
Al38 Al68 2.855569 1_555
Al38 Al62 2.855569 1_555
Al38 Al85 2.855569 1_455
Al38 Al82 2.855569 1_455
Al39 Nb3 2.646894 1_565
Al39 Nb7 2.646894 1_455
Al39 Al41 2.833314 1_565
Al39 Al65 2.855569 1_455
Al39 Al63 2.855569 1_455
Al39 Al84 2.855569 1_555
Al39 Al83 2.855569 1_555
Al40 Nb4 2.646894 1_655
Al40 Nb2 2.646894 1_565
Al40 Al74 2.855569 1_555
Al40 Al72 2.855569 1_555
Al40 Al64 2.855569 1_555
Al40 Al81 2.855569 1_555
Al41 Nb5 2.646894 1_555
Al41 Nb3 2.646894 1_555
Al41 Al79 2.855569 1_555
Al41 Al67 2.855569 1_555
Al41 Al71 2.855569 1_555
Al41 Al75 2.855569 1_555
Al42 Al70 2.735543 1_555
Al42 Al62 2.735551 1_555
Al42 Al64 2.735553 1_555
Al42 Al6 2.818571 1_555
Al42 Tm2 3.269531 1_555
Al42 Tm0 3.269532 1_565
Al42 Tm8 3.269541 1_555
Al43 Al73 2.735543 1_555
Al43 Al63 2.735551 1_555
Al43 Al67 2.735553 1_555
Al43 Al8 2.818571 1_555
Al43 Tm5 3.269531 1_655
Al43 Tm1 3.269532 1_555
Al43 Tm9 3.269541 1_555
Al44 Al78 2.735543 1_555
Al44 Al65 2.735551 1_555
Al44 Al71 2.735553 1_555
Al44 Al8 2.818571 1_555
Al44 Tm7 3.269531 1_655
Al44 Tm3 3.269532 1_555
Al44 Tm10 3.269541 1_555
Al45 Al82 2.735543 1_555
Al45 Al66 2.735551 1_555
Al45 Al72 2.735553 1_555
Al45 Al7 2.818576 1_555
Al45 Tm6 3.269531 1_555
Al45 Tm4 3.269532 1_655
Al45 Tm11 3.269541 1_555
Al46 Al80 2.735543 1_555
Al46 Al68 2.735551 1_555
Al46 Al74 2.735553 1_555
Al46 Al6 2.818571 1_555
Al46 Tm4 3.269531 1_555
Al46 Tm6 3.269532 1_565
Al46 Tm11 3.269541 1_555
Al47 Al83 2.735543 1_555
Al47 Al69 2.735551 1_555
Al47 Al75 2.735553 1_555
Al47 Al5 2.818570 1_555
Al47 Al9 2.818576 1_555
Al47 Tm3 3.269531 1_565
Al47 Tm7 3.269532 1_555
Al47 Tm10 3.269541 1_555
Al48 Al84 2.735543 1_555
Al48 Al76 2.735551 1_555
Al48 Al79 2.735553 1_555
Al48 Al5 2.818570 1_555
Al48 Al9 2.818576 1_555
Al48 Tm1 3.269531 1_565
Al48 Tm5 3.269532 1_555
Al48 Tm9 3.269541 1_555
Al49 Al85 2.735543 1_555
Al49 Al77 2.735551 1_555
Al49 Al81 2.735553 1_555
Al49 Al7 2.818576 1_555
Al49 Tm0 3.269531 1_555
Al49 Tm2 3.269532 1_655
Al49 Tm8 3.269541 1_555
Al50 Al77 2.866881 1_555
Al50 Al70 2.866881 1_545
Al50 Nb0 2.907160 1_555
Al50 Al55 3.051686 1_545
Al50 Al59 3.051686 1_555
Al50 Tm0 3.250662 1_555
Al50 Tm1 3.251326 1_555
Al51 Al76 2.866881 1_545
Al51 Al73 2.866881 1_555
Al51 Nb0 2.907160 1_655
Al51 Al52 3.051686 1_655
Al51 Al58 3.051686 1_545
Al51 Tm1 3.250662 1_555
Al51 Tm0 3.251326 1_555
Al52 Al62 2.866881 1_555
Al52 Al85 2.866881 1_455
Al52 Nb0 2.907160 1_555
Al52 Al59 3.051686 1_555
Al52 Tm2 3.250662 1_555
Al52 Tm5 3.251326 1_555
Al53 Al69 2.866881 1_545
Al53 Al78 2.866881 1_555
Al53 Nb1 2.907160 1_655
Al53 Al54 3.051686 1_654
Al53 Al61 3.051686 1_544
Al53 Tm3 3.250662 1_555
Al53 Tm6 3.251326 1_554
Al54 Al68 2.866881 1_555
Al54 Al82 2.866881 1_455
Al54 Nb1 2.907160 1_556
Al54 Al60 3.051686 1_556
Al54 Tm4 3.250662 1_555
Al54 Tm7 3.251326 1_556
Al55 Al63 2.866881 1_455
Al55 Al84 2.866881 1_555
Al55 Nb0 2.907160 1_565
Al55 Al58 3.051686 1_455
Al55 Tm5 3.250662 1_555
Al55 Tm2 3.251326 1_555
Al56 Al66 2.866881 1_555
Al56 Al80 2.866881 1_545
Al56 Nb1 2.907160 1_556
Al56 Al57 3.051686 1_546
Al56 Al60 3.051686 1_556
Al56 Tm6 3.250662 1_555
Al56 Tm3 3.251326 1_556
Al57 Al65 2.866881 1_455
Al57 Al83 2.866881 1_555
Al57 Nb1 2.907160 1_565
Al57 Al61 3.051686 1_454
Al57 Tm7 3.250662 1_555
Al57 Tm4 3.251326 1_554
Al58 Al64 2.866881 1_555
Al58 Al81 2.866881 1_555
Al58 Nb0 2.907160 1_665
Al58 Tm8 3.250662 1_555
Al58 Tm9 3.251326 1_555
Al59 Al67 2.866881 1_555
Al59 Al79 2.866881 1_555
Al59 Nb0 2.907160 1_555
Al59 Tm9 3.250662 1_555
Al59 Tm8 3.251326 1_555
Al60 Al71 2.866881 1_555
Al60 Al75 2.866881 1_555
Al60 Nb1 2.907160 1_555
Al60 Tm10 3.250662 1_555
Al60 Tm11 3.251326 1_554
Al61 Al72 2.866881 1_555
Al61 Al74 2.866881 1_555
Al61 Nb1 2.907160 1_666
Al61 Tm11 3.250662 1_555
Al61 Tm10 3.251326 1_556
Al62 Nb6 2.754841 1_555
Al62 Al85 3.017674 1_455
Al62 Tm2 3.055594 1_555
Al62 Al68 3.061876 1_555
Al62 Tm8 3.361586 1_555
Al63 Nb7 2.754841 1_555
Al63 Al84 3.017674 1_655
Al63 Tm5 3.055594 1_655
Al63 Al65 3.061876 1_555
Al63 Tm9 3.361586 1_555
Al64 Nb2 2.754841 1_565
Al64 Al81 3.017674 1_555
Al64 Tm8 3.055594 1_555
Al64 Al74 3.061876 1_555
Al64 Tm0 3.361586 1_565
Al65 Nb7 2.754841 1_555
Al65 Al83 3.017674 1_655
Al65 Tm7 3.055594 1_655
Al65 Tm10 3.361586 1_555
Al66 Nb6 2.754841 1_555
Al66 Al7 2.861946 1_555
Al66 Al80 3.017674 1_545
Al66 Tm6 3.055594 1_555
Al66 Al77 3.061876 1_555
Al66 Tm11 3.361586 1_555
Al67 Nb3 2.754841 1_555
Al67 Al8 2.861946 1_555
Al67 Al79 3.017674 1_555
Al67 Tm9 3.055594 1_555
Al67 Al71 3.061876 1_555
Al67 Tm1 3.361586 1_555
Al68 Nb6 2.754841 1_555
Al68 Al82 3.017674 1_455
Al68 Tm4 3.055594 1_555
Al68 Tm11 3.361586 1_555
Al69 Nb7 2.754841 1_555
Al69 Al9 2.861946 1_555
Al69 Al78 3.017674 1_565
Al69 Tm3 3.055594 1_565
Al69 Al76 3.061876 1_555
Al69 Tm10 3.361586 1_555
Al70 Nb4 2.754841 1_555
Al70 Al77 3.017674 1_565
Al70 Tm0 3.055594 1_565
Al70 Al80 3.061876 1_555
Al70 Tm2 3.361586 1_555
Al71 Nb3 2.754841 1_555
Al71 Al8 2.861946 1_555
Al71 Al75 3.017674 1_555
Al71 Tm10 3.055594 1_555
Al71 Tm3 3.361586 1_555
Al72 Nb4 2.754841 1_655
Al72 Al74 3.017674 1_555
Al72 Tm11 3.055594 1_555
Al72 Al81 3.061876 1_555
Al72 Tm4 3.361586 1_655
Al73 Al8 2.738357 1_555
Al73 Nb5 2.754841 1_655
Al73 Al76 3.017674 1_545
Al73 Tm1 3.055594 1_555
Al73 Al78 3.061876 1_555
Al73 Tm5 3.361586 1_655
Al74 Nb2 2.754841 1_565
Al74 Tm11 3.055594 1_555
Al74 Tm6 3.361586 1_565
Al75 Al9 2.738357 1_555
Al75 Nb5 2.754841 1_555
Al75 Tm10 3.055594 1_555
Al75 Al79 3.061876 1_555
Al75 Tm7 3.361586 1_555
Al76 Nb7 2.754841 1_555
Al76 Al9 2.861946 1_555
Al76 Tm1 3.055594 1_565
Al76 Tm9 3.361586 1_555
Al77 Nb6 2.754841 1_555
Al77 Tm0 3.055594 1_555
Al77 Tm8 3.361586 1_555
Al78 Al8 2.738357 1_555
Al78 Nb5 2.754841 1_655
Al78 Tm3 3.055594 1_555
Al78 Tm7 3.361586 1_655
Al79 Al9 2.738357 1_555
Al79 Nb5 2.754841 1_555
Al79 Tm9 3.055594 1_555
Al79 Tm5 3.361586 1_555
Al80 Nb4 2.754841 1_555
Al80 Tm6 3.055594 1_565
Al80 Tm4 3.361586 1_555
Al81 Nb4 2.754841 1_655
Al81 Tm8 3.055594 1_555
Al81 Tm2 3.361586 1_655
Al82 Nb2 2.754841 1_555
Al82 Tm4 3.055594 1_655
Al82 Al85 3.061876 1_555
Al82 Tm6 3.361586 1_555
Al83 Nb3 2.754841 1_565
Al83 Tm7 3.055594 1_555
Al83 Al84 3.061876 1_555
Al83 Tm3 3.361586 1_565
Al84 Nb3 2.754841 1_565
Al84 Tm5 3.055594 1_555
Al84 Tm1 3.361586 1_565
Al85 Nb2 2.754841 1_555
Al85 Tm2 3.055594 1_655
Al85 Tm0 3.361586 1_555
