# generated using pymatgen
data_YV(WO4)2
_symmetry_space_group_name_H-M   'P 1'
_cell_length_a   5.31624056
_cell_length_b   5.78138100
_cell_length_c   9.77002876
_cell_angle_alpha   89.99733558
_cell_angle_beta   92.87435329
_cell_angle_gamma   90.00272117
_symmetry_Int_Tables_number   1
_chemical_formula_structural   YV(WO4)2
_chemical_formula_sum   'Y2 V2 W4 O16'
_cell_volume   299.90612022
_cell_formula_units_Z   2
loop_
 _symmetry_equiv_pos_site_id
 _symmetry_equiv_pos_as_xyz
  1  'x, y, z'
loop_
 _atom_site_type_symbol
 _atom_site_label
 _atom_site_symmetry_multiplicity
 _atom_site_fract_x
 _atom_site_fract_y
 _atom_site_fract_z
 _atom_site_occupancy
  Y  Y0  1  0.25003200  0.66472700  0.25002400  1
  Y  Y1  1  0.75001100  0.33548900  0.75001000  1
  V  V0  1  0.24982100  0.66474000  0.74982600  1
  V  V1  1  0.74976000  0.33537200  0.24998900  1
  W  W0  1  0.25265800  0.15821200  0.49681300  1
  W  W1  1  0.24735100  0.15824800  0.00319100  1
  W  W2  1  0.74716000  0.84183600  0.50331100  1
  W  W3  1  0.75283000  0.84184300  0.99668300  1
  O  O0  1  0.42731200  0.35766300  0.14131700  1
  O  O1  1  0.07277900  0.35757300  0.35871600  1
  O  O2  1  0.57273500  0.64221800  0.85878200  1
  O  O3  1  0.92732100  0.64232800  0.64124500  1
  O  O4  1  0.43737900  0.89538600  0.61405200  1
  O  O5  1  0.06262300  0.89550700  0.88597800  1
  O  O6  1  0.56256400  0.10441200  0.38601800  1
  O  O7  1  0.93745200  0.10450900  0.11403200  1
  O  O8  1  0.87556000  0.61429300  0.12414200  1
  O  O9  1  0.62457200  0.61426200  0.37587000  1
  O  O10  1  0.12461900  0.38564200  0.87583600  1
  O  O11  1  0.37549700  0.38561000  0.62413900  1
  O  O12  1  0.42119900  0.88530000  0.09688000  1
  O  O13  1  0.57891900  0.11482200  0.90305000  1
  O  O14  1  0.07877100  0.88521800  0.40317300  1
  O  O15  1  0.92107300  0.11478900  0.59692100  1
loop_
_geom_bond_atom_site_label_1
_geom_bond_atom_site_label_2
_geom_bond_distance
_geom_bond_site_symmetry_2
O0 V1 1.974809 1_555
O0 W1 1.983976 1_555
O0 Y0 2.295317 1_555
O1 V1 1.977590 1_455
O1 W0 1.983394 1_555
O1 Y0 2.295441 1_555
O2 V0 1.978351 1_555
O2 W3 1.983561 1_555
O2 Y1 2.294117 1_555
O3 V0 1.974644 1_655
O3 W2 1.983516 1_555
O3 Y1 2.294509 1_555
O4 W2 2.038973 1_555
O4 W0 2.114808 1_565
O4 V0 2.159703 1_555
O5 W3 2.038887 1_455
O5 W1 2.114349 1_566
O5 V0 2.161684 1_555
O6 W0 2.040049 1_555
O6 W2 2.113753 1_545
O6 V1 2.161466 1_555
O7 W1 2.040182 1_655
O7 W3 2.114480 1_544
O7 V1 2.162103 1_555
O8 W3 1.904087 1_554
O8 V1 2.154416 1_555
O8 Y0 2.305481 1_655
O9 W2 1.903874 1_555
O9 V1 2.153508 1_555
O9 Y0 2.305643 1_555
O10 W1 1.902820 1_556
O10 V0 2.155040 1_555
O10 Y1 2.305613 1_455
O11 W0 1.902869 1_555
O11 V0 2.154314 1_555
O11 Y1 2.305396 1_555
O12 W1 2.024186 1_565
O12 W3 2.074332 1_554
O12 Y0 2.197533 1_555
O13 W3 2.024236 1_545
O13 W1 2.073736 1_556
O13 Y1 2.196957 1_555
O14 W0 2.024276 1_565
O14 W2 2.073859 1_455
O14 Y0 2.197647 1_555
O15 W2 2.024025 1_545
O15 W0 2.073616 1_655
O15 Y1 2.197463 1_555
