# generated using pymatgen
data_SrTiCu4P4O17
_symmetry_space_group_name_H-M   'P 1'
_cell_length_a   9.64085300
_cell_length_b   9.64085300
_cell_length_c   7.12910100
_cell_angle_alpha   90.00000000
_cell_angle_beta   90.00000000
_cell_angle_gamma   90.00000000
_symmetry_Int_Tables_number   1
_chemical_formula_structural   SrTiCu4P4O17
_chemical_formula_sum   'Sr2 Ti2 Cu8 P8 O34'
_cell_volume   662.62175353
_cell_formula_units_Z   2
loop_
 _symmetry_equiv_pos_site_id
 _symmetry_equiv_pos_as_xyz
  1  'x, y, z'
loop_
 _atom_site_type_symbol
 _atom_site_label
 _atom_site_symmetry_multiplicity
 _atom_site_fract_x
 _atom_site_fract_y
 _atom_site_fract_z
 _atom_site_occupancy
  Sr  Sr0  1  0.50000000  0.50000000  0.00000000  1
  Sr  Sr1  1  0.00000000  0.00000000  0.00000000  1
  Ti  Ti0  1  0.00000000  0.50000000  0.98120900  1
  Ti  Ti1  1  0.50000000  0.00000000  0.01879100  1
  Cu  Cu0  1  0.76635800  0.51952200  0.40184800  1
  Cu  Cu1  1  0.23364200  0.48047800  0.40184800  1
  Cu  Cu2  1  0.73364200  0.01952200  0.59815200  1
  Cu  Cu3  1  0.26635800  0.98047800  0.59815200  1
  Cu  Cu4  1  0.51952200  0.76635800  0.59815200  1
  Cu  Cu5  1  0.48047800  0.23364200  0.59815200  1
  Cu  Cu6  1  0.01952200  0.73364200  0.40184800  1
  Cu  Cu7  1  0.98047800  0.26635800  0.40184800  1
  P  P0  1  0.77344100  0.31562000  0.74196500  1
  P  P1  1  0.22655900  0.68438000  0.74196500  1
  P  P2  1  0.72655900  0.81562000  0.25803500  1
  P  P3  1  0.27344100  0.18438000  0.25803500  1
  P  P4  1  0.31562000  0.77344100  0.25803500  1
  P  P5  1  0.68438000  0.22655900  0.25803500  1
  P  P6  1  0.81562000  0.72655900  0.74196500  1
  P  P7  1  0.18438000  0.27344100  0.74196500  1
  O  O0  1  0.84218400  0.36875800  0.55387900  1
  O  O1  1  0.15781600  0.63124200  0.55387900  1
  O  O2  1  0.65781600  0.86875800  0.44612100  1
  O  O3  1  0.34218400  0.13124200  0.44612100  1
  O  O4  1  0.36875800  0.84218400  0.44612100  1
  O  O5  1  0.63124200  0.15781600  0.44612100  1
  O  O6  1  0.86875800  0.65781600  0.55387900  1
  O  O7  1  0.13124200  0.34218400  0.55387900  1
  O  O8  1  0.61541500  0.34571100  0.73729100  1
  O  O9  1  0.38458500  0.65428900  0.73729100  1
  O  O10  1  0.88458500  0.84571100  0.26270900  1
  O  O11  1  0.11541500  0.15428900  0.26270900  1
  O  O12  1  0.34571100  0.61541500  0.26270900  1
  O  O13  1  0.65428900  0.38458500  0.26270900  1
  O  O14  1  0.84571100  0.88458500  0.73729100  1
  O  O15  1  0.15428900  0.11541500  0.73729100  1
  O  O16  1  0.82915100  0.40119200  0.90784900  1
  O  O17  1  0.17084900  0.59880800  0.90784900  1
  O  O18  1  0.67084900  0.90119200  0.09215100  1
  O  O19  1  0.32915100  0.09880800  0.09215100  1
  O  O20  1  0.40119200  0.82915100  0.09215100  1
  O  O21  1  0.59880800  0.17084900  0.09215100  1
  O  O22  1  0.90119200  0.67084900  0.90784900  1
  O  O23  1  0.09880800  0.32915100  0.90784900  1
  O  O24  1  0.00000000  0.50000000  0.22047000  1
  O  O25  1  0.50000000  0.00000000  0.77953000  1
  O  O26  1  0.81321300  0.16114700  0.76291700  1
  O  O27  1  0.18678700  0.83885300  0.76291700  1
  O  O28  1  0.68678700  0.66114700  0.23708300  1
  O  O29  1  0.31321300  0.33885300  0.23708300  1
  O  O30  1  0.16114700  0.81321300  0.23708300  1
  O  O31  1  0.83885300  0.18678700  0.23708300  1
  O  O32  1  0.66114700  0.68678700  0.76291700  1
  O  O33  1  0.33885300  0.31321300  0.76291700  1
loop_
_geom_bond_atom_site_label_1
_geom_bond_atom_site_label_2
_geom_bond_distance
_geom_bond_site_symmetry_2
Cu0 O0 1.954933 1_555
Cu0 O28 1.957682 1_555
Cu0 O13 1.960523 1_555
Cu0 O6 1.981652 1_555
Cu0 O24 2.604079 1_655
Cu1 O1 1.954933 1_555
Cu1 O29 1.957682 1_555
Cu1 O12 1.960523 1_555
Cu1 O7 1.981652 1_555
Cu1 O24 2.604079 1_555
Cu2 O2 1.954933 1_545
Cu2 O26 1.957682 1_555
Cu2 O14 1.960523 1_545
Cu2 O5 1.981652 1_555
Cu2 O25 2.604079 1_555
Cu3 O3 1.954933 1_565
Cu3 O27 1.957682 1_555
Cu3 O15 1.960523 1_565
Cu3 O4 1.981652 1_555
Cu3 O25 2.604079 1_565
Cu4 O4 1.954933 1_555
Cu4 O32 1.957682 1_555
Cu4 O9 1.960523 1_555
Cu4 O2 1.981652 1_555
Cu4 O25 2.604079 1_565
Cu5 O5 1.954933 1_555
Cu5 O33 1.957682 1_555
Cu5 O8 1.960523 1_555
Cu5 O3 1.981652 1_555
Cu5 O25 2.604079 1_555
Cu6 O6 1.954933 1_455
Cu6 O30 1.957682 1_555
Cu6 O10 1.960523 1_455
Cu6 O1 1.981652 1_555
Cu6 O24 2.604079 1_555
Cu7 O7 1.954933 1_655
Cu7 O31 1.957682 1_555
Cu7 O11 1.960523 1_655
Cu7 O0 1.981652 1_555
Cu7 O24 2.604079 1_655
O0 P0 1.581026 1_555
O1 P1 1.581026 1_555
O2 P2 1.581026 1_555
O3 P3 1.581026 1_555
O4 P4 1.581026 1_555
O5 P5 1.581026 1_555
O6 P6 1.581026 1_555
O7 P7 1.581026 1_555
O8 P0 1.551238 1_555
O8 Sr0 2.637871 1_556
O9 P1 1.551238 1_555
O9 Sr0 2.637871 1_556
O10 P2 1.551238 1_555
O10 Sr1 2.637871 1_665
O11 P3 1.551238 1_555
O11 Sr1 2.637871 1_555
O12 P4 1.551238 1_555
O12 Sr0 2.637871 1_555
O13 P5 1.551238 1_555
O13 Sr0 2.637871 1_555
O14 P6 1.551238 1_555
O14 Sr1 2.637871 1_666
O15 P7 1.551238 1_555
O15 Sr1 2.637871 1_556
O16 P0 1.538708 1_555
O16 Ti0 1.973320 1_655
O17 P1 1.538708 1_555
O17 Ti0 1.973320 1_555
O18 P2 1.538708 1_555
O18 Ti1 1.973320 1_565
O19 P3 1.538708 1_555
O19 Ti1 1.973320 1_555
O20 P4 1.538708 1_555
O20 Ti1 1.973320 1_565
O21 P5 1.538708 1_555
O21 Ti1 1.973320 1_555
O22 P6 1.538708 1_555
O22 Ti0 1.973320 1_655
O23 P7 1.538708 1_555
O23 Ti0 1.973320 1_555
O24 Ti0 1.705716 1_554
O25 Ti1 1.705716 1_556
O26 P0 1.545058 1_555
O26 Sr1 2.917743 1_656
O27 P1 1.545058 1_555
O27 Sr1 2.917743 1_566
O28 P2 1.545058 1_555
O28 Sr0 2.917743 1_555
O29 P3 1.545058 1_555
O29 Sr0 2.917743 1_555
O30 P4 1.545058 1_555
O30 Sr1 2.917743 1_565
O31 P5 1.545058 1_555
O31 Sr1 2.917743 1_655
O32 P6 1.545058 1_555
O32 Sr0 2.917743 1_556
O33 P7 1.545058 1_555
O33 Sr0 2.917743 1_556
