# generated using pymatgen
data_Mn3In8N9
_symmetry_space_group_name_H-M   'P 1'
_cell_length_a   7.14848932
_cell_length_b   11.41523106
_cell_length_c   18.08871383
_cell_angle_alpha   90.00000000
_cell_angle_beta   112.29965589
_cell_angle_gamma   90.00000000
_symmetry_Int_Tables_number   1
_chemical_formula_structural   Mn3In8N9
_chemical_formula_sum   'Mn12 In32 N36'
_cell_volume   1365.67677247
_cell_formula_units_Z   4
loop_
 _symmetry_equiv_pos_site_id
 _symmetry_equiv_pos_as_xyz
  1  'x, y, z'
loop_
 _atom_site_type_symbol
 _atom_site_label
 _atom_site_symmetry_multiplicity
 _atom_site_fract_x
 _atom_site_fract_y
 _atom_site_fract_z
 _atom_site_occupancy
  Mn  Mn0  1  0.49979681  0.11546715  0.77672114  1
  Mn  Mn1  1  0.50020319  0.61546715  0.72327886  1
  Mn  Mn2  1  0.50020319  0.88453285  0.22327886  1
  Mn  Mn3  1  0.49979681  0.38453285  0.27672114  1
  Mn  Mn4  1  0.80409881  0.87708368  0.57540905  1
  Mn  Mn5  1  0.19590119  0.37708368  0.92459095  1
  Mn  Mn6  1  0.19590119  0.12291632  0.42459095  1
  Mn  Mn7  1  0.80409881  0.62291632  0.07540905  1
  Mn  Mn8  1  0.85211340  0.28190174  0.59177285  1
  Mn  Mn9  1  0.14788660  0.78190174  0.90822715  1
  Mn  Mn10  1  0.14788660  0.71809826  0.40822715  1
  Mn  Mn11  1  0.85211340  0.21809826  0.09177285  1
  In  In0  1  0.42918597  0.95853758  0.06591816  1
  In  In1  1  0.57081403  0.45853758  0.43408184  1
  In  In2  1  0.57081403  0.04146242  0.93408184  1
  In  In3  1  0.42918597  0.54146242  0.56591816  1
  In  In4  1  0.52845600  0.11293384  0.60651395  1
  In  In5  1  0.47154400  0.61293384  0.89348605  1
  In  In6  1  0.47154400  0.88706616  0.39348605  1
  In  In7  1  0.52845600  0.38706616  0.10651395  1
  In  In8  1  0.74815956  0.87291338  0.73350305  1
  In  In9  1  0.25184044  0.37291338  0.76649695  1
  In  In10  1  0.25184044  0.12708662  0.26649695  1
  In  In11  1  0.74815956  0.62708662  0.23350305  1
  In  In12  1  0.73873668  0.36112343  0.74679806  1
  In  In13  1  0.26126332  0.86112343  0.75320194  1
  In  In14  1  0.26126332  0.63887657  0.25320194  1
  In  In15  1  0.73873668  0.13887657  0.24679806  1
  In  In16  1  0.70419899  0.35007762  0.91924635  1
  In  In17  1  0.29580101  0.85007762  0.58075365  1
  In  In18  1  0.29580101  0.64992238  0.08075365  1
  In  In19  1  0.70419899  0.14992238  0.41924635  1
  In  In20  1  0.06194995  0.10726552  0.82950102  1
  In  In21  1  0.93805005  0.60726552  0.67049898  1
  In  In22  1  0.93805005  0.89273448  0.17049898  1
  In  In23  1  0.06194995  0.39273448  0.32950102  1
  In  In24  1  0.04576743  0.07000049  0.60265635  1
  In  In25  1  0.95423257  0.57000049  0.89734365  1
  In  In26  1  0.95423257  0.92999951  0.39734365  1
  In  In27  1  0.04576743  0.42999951  0.10265635  1
  In  In28  1  0.13266468  0.34802523  0.51973034  1
  In  In29  1  0.86733532  0.84802523  0.98026966  1
  In  In30  1  0.86733532  0.65197477  0.48026966  1
  In  In31  1  0.13266468  0.15197477  0.01973034  1
  N  N0  1  0.66323793  0.28843681  0.62854017  1
  N  N1  1  0.33676207  0.78843681  0.87145983  1
  N  N2  1  0.33676207  0.71156319  0.37145983  1
  N  N3  1  0.66323793  0.21156319  0.12854017  1
  N  N4  1  0.52881358  0.27023673  0.79282107  1
  N  N5  1  0.47118642  0.77023673  0.70717893  1
  N  N6  1  0.47118642  0.72976327  0.20717893  1
  N  N7  1  0.52881358  0.22976327  0.29282107  1
  N  N8  1  0.79003642  0.18851471  0.98962083  1
  N  N9  1  0.20996358  0.68851471  0.51037917  1
  N  N10  1  0.20996358  0.81148529  0.01037917  1
  N  N11  1  0.79003642  0.31148529  0.48962083  1
  N  N12  1  0.58131607  0.93211989  0.57665045  1
  N  N13  1  0.41868393  0.43211989  0.92334955  1
  N  N14  1  0.41868393  0.06788011  0.42334955  1
  N  N15  1  0.58131607  0.56788011  0.07665045  1
  N  N16  1  0.67273531  0.05922596  0.74070804  1
  N  N17  1  0.32726469  0.55922596  0.75929196  1
  N  N18  1  0.32726469  0.94077404  0.25929196  1
  N  N19  1  0.67273531  0.44077404  0.24070804  1
  N  N20  1  0.08762140  0.32589969  0.64226595  1
  N  N21  1  0.91237860  0.82589969  0.85773405  1
  N  N22  1  0.91237860  0.67410031  0.35773405  1
  N  N23  1  0.08762140  0.17410031  0.14226595  1
  N  N24  1  0.04745344  0.31000949  0.82456141  1
  N  N25  1  0.95254656  0.81000949  0.67543859  1
  N  N26  1  0.95254656  0.68999051  0.17543859  1
  N  N27  1  0.04745344  0.18999051  0.32456141  1
  N  N28  1  0.20833133  0.14981548  0.52514097  1
  N  N29  1  0.79166867  0.64981548  0.97485903  1
  N  N30  1  0.79166867  0.85018452  0.47485903  1
  N  N31  1  0.20833133  0.35018452  0.02514097  1
  N  N32  1  0.26023607  0.05506885  0.73503825  1
  N  N33  1  0.73976393  0.55506885  0.76496175  1
  N  N34  1  0.73976393  0.94493115  0.26496175  1
  N  N35  1  0.26023607  0.44493115  0.23503825  1
loop_
_geom_bond_atom_site_label_1
_geom_bond_atom_site_label_2
_geom_bond_distance
_geom_bond_site_symmetry_2
Mn0 N16 1.725112 1_555
Mn0 N32 1.731071 1_555
Mn0 N4 1.789785 1_555
Mn1 N17 1.725112 1_555
Mn1 N33 1.731071 1_555
Mn1 N5 1.789785 1_555
Mn2 N18 1.725112 1_555
Mn2 N34 1.731071 1_555
Mn2 N6 1.789785 1_555
Mn3 N19 1.725112 1_555
Mn3 N35 1.731071 1_555
Mn3 N7 1.789785 1_555
Mn4 N12 1.720055 1_555
Mn4 N30 1.813185 1_555
Mn4 N25 1.878597 1_555
Mn5 N13 1.720055 1_555
Mn5 N31 1.813185 1_556
Mn5 N24 1.878597 1_555
Mn6 N14 1.720055 1_555
Mn6 N28 1.813185 1_555
Mn6 N27 1.878597 1_555
Mn7 N15 1.720055 1_555
Mn7 N29 1.813185 1_554
Mn7 N26 1.878597 1_555
Mn8 N20 1.659458 1_655
Mn8 N0 1.718233 1_555
Mn8 N11 1.761546 1_555
Mn9 N21 1.659458 1_455
Mn9 N1 1.718233 1_555
Mn9 N10 1.761546 1_556
Mn10 N22 1.659458 1_455
Mn10 N2 1.718233 1_555
Mn10 N9 1.761546 1_555
Mn11 N23 1.659458 1_655
Mn11 N3 1.718233 1_555
Mn11 N8 1.761546 1_554
In0 N10 2.255691 1_555
In1 N11 2.255691 1_555
In2 N8 2.255691 1_555
In3 N9 2.255691 1_555
In4 N0 2.193026 1_555
In4 N12 2.202211 1_545
In4 N28 2.241512 1_555
In4 N16 2.330648 1_555
In5 N1 2.193026 1_555
In5 N13 2.202211 1_555
In5 N29 2.241512 1_555
In5 N17 2.330648 1_555
In6 N2 2.193026 1_555
In6 N14 2.202211 1_565
In6 N30 2.241512 1_555
In6 N18 2.330648 1_555
In7 N3 2.193026 1_555
In7 N15 2.202211 1_555
In7 N31 2.241512 1_555
In7 N19 2.330648 1_555
In8 N21 2.171159 1_555
In8 N5 2.192073 1_555
In8 N16 2.210045 1_565
In8 N25 2.217666 1_555
In8 N12 2.713161 1_555
In9 N20 2.171159 1_555
In9 N4 2.192073 1_555
In9 N17 2.210045 1_555
In9 N24 2.217666 1_555
In9 N13 2.713161 1_555
In10 N23 2.171159 1_555
In10 N7 2.192073 1_555
In10 N18 2.210045 1_545
In10 N27 2.217666 1_555
In10 N14 2.713161 1_555
In11 N22 2.171159 1_555
In11 N6 2.192073 1_555
In11 N19 2.210045 1_555
In11 N26 2.217666 1_555
In11 N15 2.713161 1_555
In12 N0 2.163211 1_555
In12 N24 2.198518 1_655
In12 N4 2.229219 1_555
In12 N33 2.237782 1_555
In13 N1 2.163211 1_555
In13 N25 2.198518 1_455
In13 N5 2.229219 1_555
In13 N32 2.237782 1_565
In14 N2 2.163211 1_555
In14 N26 2.198518 1_455
In14 N6 2.229219 1_555
In14 N35 2.237782 1_555
In15 N3 2.163211 1_555
In15 N27 2.198518 1_655
In15 N7 2.229219 1_555
In15 N34 2.237782 1_545
In16 N8 2.192162 1_555
In16 N13 2.272279 1_555
In16 N4 2.335898 1_555
In17 N9 2.192162 1_555
In17 N12 2.272279 1_555
In17 N5 2.335898 1_555
In18 N10 2.192162 1_555
In18 N15 2.272279 1_555
In18 N6 2.335898 1_555
In19 N11 2.192162 1_555
In19 N14 2.272279 1_555
In19 N7 2.335898 1_555
In20 N24 2.316895 1_555
In20 N32 2.668694 1_555
In20 N16 2.688912 1_455
In21 N25 2.316895 1_555
In21 N33 2.668694 1_555
In21 N17 2.688912 1_655
In22 N26 2.316895 1_555
In22 N34 2.668694 1_555
In22 N18 2.688912 1_655
In23 N27 2.316895 1_555
In23 N35 2.668694 1_555
In23 N19 2.688912 1_455
In24 N32 2.308161 1_555
In24 N28 2.320165 1_555
In25 N33 2.308161 1_555
In25 N29 2.320165 1_555
In26 N34 2.308161 1_555
In26 N30 2.320165 1_555
In27 N35 2.308161 1_555
In27 N31 2.320165 1_555
In28 N28 2.319781 1_555
In28 N11 2.336066 1_455
In28 N20 2.371080 1_555
In29 N29 2.319781 1_555
In29 N10 2.336066 1_656
In29 N21 2.371080 1_555
In30 N30 2.319781 1_555
In30 N9 2.336066 1_655
In30 N22 2.371080 1_555
In31 N31 2.319781 1_555
In31 N8 2.336066 1_454
In31 N23 2.371080 1_555
