# generated using pymatgen
data_Mg3Si4
_symmetry_space_group_name_H-M   'P 1'
_cell_length_a   9.19312298
_cell_length_b   9.19312298
_cell_length_c   9.06638424
_cell_angle_alpha   62.53281403
_cell_angle_beta   62.53281403
_cell_angle_gamma   22.75679036
_symmetry_Int_Tables_number   1
_chemical_formula_structural   Mg3Si4
_chemical_formula_sum   'Mg6 Si8'
_cell_volume   261.54004671
_cell_formula_units_Z   2
loop_
 _symmetry_equiv_pos_site_id
 _symmetry_equiv_pos_as_xyz
  1  'x, y, z'
loop_
 _atom_site_type_symbol
 _atom_site_label
 _atom_site_symmetry_multiplicity
 _atom_site_fract_x
 _atom_site_fract_y
 _atom_site_fract_z
 _atom_site_occupancy
  Mg  Mg0  1  0.95346200  0.95346200  0.65328500  1
  Mg  Mg1  1  0.32648500  0.32648500  0.92536000  1
  Mg  Mg2  1  0.70777300  0.70777300  0.83886700  1
  Mg  Mg3  1  0.76539400  0.76539400  0.47969000  1
  Mg  Mg4  1  0.52415600  0.52415600  0.34115900  1
  Mg  Mg5  1  0.03231300  0.03231300  0.04788200  1
  Si  Si0  1  0.34810000  0.34810000  0.58849200  1
  Si  Si1  1  0.39393900  0.39393900  0.27197800  1
  Si  Si2  1  0.70629100  0.70629100  0.23469500  1
  Si  Si3  1  0.60084500  0.60084500  0.53921800  1
  Si  Si4  1  0.11662600  0.11662600  0.70326600  1
  Si  Si5  1  0.86060800  0.86060800  0.13418700  1
  Si  Si6  1  0.49217500  0.49217500  0.85883500  1
  Si  Si7  1  0.15822400  0.15822400  0.12971400  1
loop_
_geom_bond_atom_site_label_1
_geom_bond_atom_site_label_2
_geom_bond_distance
_geom_bond_site_symmetry_2
Mg0 Si0 2.879419 1_655
Mg0 Si0 2.879419 1_565
Mg0 Si6 2.910848 1_565
Mg0 Si6 2.910848 1_655
Mg0 Si3 2.971719 1_565
Mg0 Si3 2.971719 1_655
Mg0 Si4 3.179455 1_665
Mg1 Si7 2.709901 1_556
Mg1 Si6 2.754673 1_555
Mg1 Si5 2.889316 1_456
Mg1 Si5 2.889316 1_546
Mg1 Si0 2.891381 1_555
Mg1 Si2 3.182961 1_546
Mg1 Si2 3.182961 1_456
Mg2 Mg3 2.915571 1_555
Mg2 Si7 2.970598 1_566
Mg2 Si7 2.970598 1_656
Mg2 Si4 3.066053 1_565
Mg2 Si4 3.066053 1_655
Mg2 Si0 3.072023 1_565
Mg2 Si0 3.072023 1_655
Mg3 Si3 2.753548 1_555
Mg3 Si5 2.774717 1_555
Mg3 Si0 2.805115 1_565
Mg3 Si0 2.805115 1_655
Mg3 Si1 2.845802 1_565
Mg3 Si1 2.845802 1_655
Mg3 Si2 2.880169 1_555
Mg3 Si4 3.078017 1_565
Mg3 Si4 3.078017 1_655
Mg4 Si1 2.699589 1_555
Mg4 Si3 2.733298 1_555
Mg4 Si0 2.898756 1_555
Mg4 Si7 2.906041 1_655
Mg4 Si7 2.906041 1_565
Mg4 Si2 2.954270 1_555
Mg5 Si7 2.699192 1_555
Mg5 Si4 2.757458 1_554
Mg5 Si5 2.812875 1_445
Mg5 Si6 2.813794 1_544
Mg5 Si6 2.813794 1_454
Mg5 Si1 2.978244 1_545
Mg5 Si1 2.978244 1_455
Si0 Si1 2.585813 1_555
Si1 Si5 2.432555 1_455
Si1 Si5 2.432555 1_545
Si2 Si7 2.392072 1_565
Si2 Si7 2.392072 1_655
Si2 Si5 2.486423 1_555
Si2 Si3 2.509453 1_555
Si3 Si4 2.445528 1_565
Si3 Si4 2.445528 1_655
Si3 Si6 2.625416 1_555
Si4 Si6 2.708073 1_545
Si4 Si6 2.708073 1_455
