# generated using pymatgen
data_W5(O2F11)2
_symmetry_space_group_name_H-M   'P 1'
_cell_length_a   12.70625625
_cell_length_b   12.70625625
_cell_length_c   12.70625625
_cell_angle_alpha   132.54313897
_cell_angle_beta   132.54313897
_cell_angle_gamma   69.37253885
_symmetry_Int_Tables_number   1
_chemical_formula_structural   W5(O2F11)2
_chemical_formula_sum   'W10 O8 F44'
_cell_volume   1092.57994347
_cell_formula_units_Z   2
loop_
 _symmetry_equiv_pos_site_id
 _symmetry_equiv_pos_as_xyz
  1  'x, y, z'
loop_
 _atom_site_type_symbol
 _atom_site_label
 _atom_site_symmetry_multiplicity
 _atom_site_fract_x
 _atom_site_fract_y
 _atom_site_fract_z
 _atom_site_occupancy
  W  W0  1  0.23417100  0.31948400  0.49690800  1
  W  W1  1  0.26273700  0.76582900  0.08531300  1
  W  W2  1  0.75000000  0.25000000  0.50000000  1
  W  W3  1  0.92742400  0.51273700  0.99690800  1
  W  W4  1  0.68051600  0.17742400  0.91468700  1
  W  W5  1  0.06948400  0.07257600  0.58531300  1
  W  W6  1  0.82257600  0.73726300  0.50309200  1
  W  W7  1  0.00000000  0.00000000  0.00000000  1
  W  W8  1  0.48726300  0.48417100  0.41468700  1
  W  W9  1  0.51582900  0.93051600  0.00309200  1
  O  O0  1  0.17319200  0.92885500  0.10678000  1
  O  O1  1  0.67885500  0.07207600  0.25566400  1
  O  O2  1  0.81641200  0.42319200  0.74433600  1
  O  O3  1  0.92792400  0.18358800  0.60678000  1
  O  O4  1  0.82207600  0.06641200  0.89322000  1
  O  O5  1  0.93358800  0.82680800  0.75566400  1
  O  O6  1  0.07114500  0.17792400  0.24433600  1
  O  O7  1  0.57680800  0.32114500  0.39322000  1
  F  F0  1  0.12102900  0.38854300  0.57084900  1
  F  F1  1  0.07475800  0.65186000  0.90010200  1
  F  F2  1  0.24885300  0.71812000  0.89902300  1
  F  F3  1  0.34814000  0.24824200  0.42289800  1
  F  F4  1  0.28188000  0.18090300  0.53073300  1
  F  F5  1  0.40066800  0.45328300  0.74360600  1
  F  F6  1  0.27177300  0.81176600  0.26676800  1
  F  F7  1  0.34293900  0.59933200  0.05261600  1
  F  F8  1  0.56176600  0.79499800  0.03999300  1
  F  F9  1  0.44982000  0.87897100  0.26751500  1
  F  F10  1  0.84044500  0.34044500  0.50000000  1
  F  F11  1  0.65955500  0.15955500  0.50000000  1
  F  F12  1  0.61145700  0.18230600  0.73248500  1
  F  F13  1  0.75500500  0.52177300  0.96000700  1
  F  F14  1  0.54671700  0.29032300  0.94738400  1
  F  F15  1  0.54499800  0.00500500  0.73323200  1
  F  F16  1  0.93230600  0.69982000  0.07084900  1
  F  F17  1  0.70967700  0.65706100  0.25639400  1
  F  F18  1  0.99824200  0.07534400  0.40010200  1
  F  F19  1  0.65017000  0.75114700  0.46926700  1
  F  F20  1  0.93090300  0.90017000  0.39902300  1
  F  F21  1  0.82534400  0.92524200  0.57710200  1
  F  F22  1  0.92465600  0.32475800  0.92289800  1
  F  F23  1  0.81909700  0.34983000  0.10097700  1
  F  F24  1  0.09983000  0.49885300  0.03073300  1
  F  F25  1  0.75175800  0.17465600  0.09989800  1
  F  F26  1  0.04032300  0.59293900  0.24360600  1
  F  F27  1  0.81769400  0.55018000  0.42915100  1
  F  F28  1  0.20500200  0.24499500  0.76676800  1
  F  F29  1  0.20328300  0.95967700  0.55261600  1
  F  F30  1  0.99499500  0.72822700  0.53999300  1
  F  F31  1  0.13854300  0.06769400  0.76751500  1
  F  F32  1  0.09044500  0.09044500  0.00000000  1
  F  F33  1  0.90955500  0.90955500  0.00000000  1
  F  F34  1  0.30018000  0.37102900  0.23248500  1
  F  F35  1  0.18823400  0.45500200  0.46000700  1
  F  F36  1  0.40706100  0.65066800  0.44738400  1
  F  F37  1  0.47822700  0.43823400  0.23323200  1
  F  F38  1  0.34933200  0.79671700  0.75639400  1
  F  F39  1  0.46812000  0.06909700  0.96926700  1
  F  F40  1  0.40186000  0.00175800  0.07710200  1
  F  F41  1  0.50114700  0.53188000  0.60097700  1
  F  F42  1  0.67524200  0.59814000  0.59989800  1
  F  F43  1  0.62897100  0.86145700  0.92915100  1
loop_
_geom_bond_atom_site_label_1
_geom_bond_atom_site_label_2
_geom_bond_distance
_geom_bond_site_symmetry_2
O0 W1 1.911771 1_555
O0 W7 1.928760 1_565
O1 W9 1.911777 1_545
O1 W2 1.928750 1_555
O2 W3 1.911780 1_555
O2 W2 1.928753 1_555
O3 W5 1.911780 1_655
O3 W2 1.928753 1_555
O4 W4 1.911780 1_555
O4 W7 1.928753 1_656
O5 W6 1.911780 1_555
O5 W7 1.928753 1_666
O6 W0 1.911777 1_555
O6 W7 1.928750 1_555
O7 W8 1.911771 1_555
O7 W2 1.928760 1_555
F0 W0 1.882077 1_555
F1 W1 1.888806 1_556
F2 W1 1.889912 1_556
F3 W0 1.888806 1_555
F4 W0 1.889912 1_555
F5 W0 1.884575 1_555
F6 W1 1.881254 1_555
F7 W1 1.884581 1_555
F8 W9 1.881254 1_555
F9 W1 1.882075 1_555
F10 W2 1.889958 1_555
F11 W2 1.889958 1_555
F12 W4 1.882089 1_555
F13 W3 1.881254 1_555
F14 W4 1.884571 1_555
F15 W4 1.881254 1_555
F16 W3 1.882077 1_554
F17 W6 1.884571 1_555
F18 W5 1.888806 1_655
F19 W6 1.889912 1_555
F20 W5 1.889912 1_665
F21 W6 1.888806 1_555
F22 W3 1.888806 1_555
F23 W4 1.889912 1_554
F24 W3 1.889912 1_454
F25 W4 1.888806 1_554
F26 W3 1.884571 1_454
F27 W6 1.882077 1_555
F28 W5 1.881254 1_555
F29 W5 1.884571 1_565
F30 W6 1.881254 1_555
F31 W5 1.882089 1_555
F32 W7 1.889958 1_555
F33 W7 1.889958 1_665
F34 W8 1.882075 1_555
F35 W0 1.881254 1_555
F36 W8 1.884581 1_555
F37 W8 1.881254 1_555
F38 W9 1.884575 1_556
F39 W9 1.889912 1_546
F40 W9 1.888806 1_545
F41 W8 1.889912 1_555
F42 W8 1.888806 1_555
F43 W9 1.882077 1_556
