# generated using pymatgen
data_Cs2NaUBr6
_symmetry_space_group_name_H-M   'P 1'
_cell_length_a   11.68716381
_cell_length_b   11.68716381
_cell_length_c   11.68716381
_cell_angle_alpha   90.00000000
_cell_angle_beta   90.00000000
_cell_angle_gamma   90.00000000
_symmetry_Int_Tables_number   1
_chemical_formula_structural   Cs2NaUBr6
_chemical_formula_sum   'Cs8 Na4 U4 Br24'
_cell_volume   1596.34734309
_cell_formula_units_Z   4
loop_
 _symmetry_equiv_pos_site_id
 _symmetry_equiv_pos_as_xyz
  1  'x, y, z'
loop_
 _atom_site_type_symbol
 _atom_site_label
 _atom_site_symmetry_multiplicity
 _atom_site_fract_x
 _atom_site_fract_y
 _atom_site_fract_z
 _atom_site_occupancy
  Cs  Cs0  1  0.24914722  0.24914722  0.24914722  1
  Cs  Cs1  1  0.75085278  0.75085278  0.75085278  1
  Cs  Cs2  1  0.25085278  0.75085278  0.74914722  1
  Cs  Cs3  1  0.75085278  0.74914722  0.25085278  1
  Cs  Cs4  1  0.74914722  0.24914722  0.25085278  1
  Cs  Cs5  1  0.24914722  0.25085278  0.74914722  1
  Cs  Cs6  1  0.74914722  0.25085278  0.75085278  1
  Cs  Cs7  1  0.25085278  0.74914722  0.24914722  1
  Na  Na0  1  0.50000000  0.50000000  0.50000000  1
  Na  Na1  1  0.00000000  0.50000000  -0.00000000  1
  Na  Na2  1  0.50000000  0.00000000  -0.00000000  1
  Na  Na3  1  0.00000000  0.00000000  0.50000000  1
  U  U0  1  0.00000000  0.00000000  -0.00000000  1
  U  U1  1  0.50000000  0.00000000  0.50000000  1
  U  U2  1  0.00000000  0.50000000  0.50000000  1
  U  U3  1  0.50000000  0.50000000  -0.00000000  1
  Br  Br0  1  0.99315354  0.24730333  0.00663241  1
  Br  Br1  1  0.00684646  0.75269667  0.99336759  1
  Br  Br2  1  0.50684646  0.75269667  0.50663241  1
  Br  Br3  1  0.00684646  0.74730333  0.49336759  1
  Br  Br4  1  0.00663241  0.99315354  0.24730333  1
  Br  Br5  1  0.49315354  0.24730333  0.49336759  1
  Br  Br6  1  0.99315354  0.25269667  0.50663241  1
  Br  Br7  1  0.99336759  0.00684646  0.75269667  1
  Br  Br8  1  0.49315354  0.25269667  0.99336759  1
  Br  Br9  1  0.50663241  0.50684646  0.75269667  1
  Br  Br10  1  0.50684646  0.74730333  0.00663241  1
  Br  Br11  1  0.49336759  0.49315354  0.24730333  1
  Br  Br12  1  0.49336759  0.00684646  0.74730333  1
  Br  Br13  1  0.50663241  0.99315354  0.25269667  1
  Br  Br14  1  0.99336759  0.49315354  0.25269667  1
  Br  Br15  1  0.00663241  0.50684646  0.74730333  1
  Br  Br16  1  0.24730333  0.00663241  0.99315354  1
  Br  Br17  1  0.75269667  0.99336759  0.00684646  1
  Br  Br18  1  0.74730333  0.49336759  0.00684646  1
  Br  Br19  1  0.25269667  0.50663241  0.99315354  1
  Br  Br20  1  0.25269667  0.99336759  0.49315354  1
  Br  Br21  1  0.74730333  0.00663241  0.50684646  1
  Br  Br22  1  0.75269667  0.50663241  0.50684646  1
  Br  Br23  1  0.24730333  0.49336759  0.49315354  1
loop_
_geom_bond_atom_site_label_1
_geom_bond_atom_site_label_2
_geom_bond_distance
_geom_bond_site_symmetry_2
Br0 U0 2.892421 1_655
Br0 Na1 2.955408 1_655
Br0 Cs4 4.034799 1_555
Br0 Cs0 4.121272 1_655
Br0 Cs6 4.131622 1_554
Br0 Cs5 4.243647 1_654
Br1 U0 2.892421 1_566
Br1 Na1 2.955408 1_556
Br1 Cs2 4.034799 1_555
Br1 Cs1 4.121272 1_455
Br1 Cs7 4.131622 1_556
Br1 Cs3 4.243647 1_456
Br2 U1 2.892421 1_565
Br2 Na0 2.955408 1_555
Br2 Cs1 4.034799 1_555
Br2 Cs2 4.121272 1_555
Br2 Cs3 4.131622 1_555
Br2 Cs7 4.243647 1_555
Br3 U2 2.892421 1_555
Br3 Na3 2.955408 1_565
Br3 Cs7 4.034799 1_555
Br3 Cs3 4.121272 1_455
Br3 Cs2 4.131622 1_555
Br3 Cs1 4.243647 1_455
Br4 U0 2.892421 1_565
Br4 Na3 2.955408 1_565
Br4 Cs7 4.034799 1_555
Br4 Cs0 4.121272 1_565
Br4 Cs3 4.131622 1_455
Br4 Cs4 4.243647 1_465
Br5 U1 2.892421 1_555
Br5 Na0 2.955408 1_555
Br5 Cs0 4.034799 1_555
Br5 Cs4 4.121272 1_555
Br5 Cs5 4.131622 1_555
Br5 Cs6 4.243647 1_555
Br6 U2 2.892421 1_655
Br6 Na3 2.955408 1_655
Br6 Cs6 4.034799 1_555
Br6 Cs5 4.121272 1_655
Br6 Cs4 4.131622 1_555
Br6 Cs0 4.243647 1_655
Br7 U0 2.892421 1_656
Br7 Na3 2.955408 1_655
Br7 Cs6 4.034799 1_555
Br7 Cs1 4.121272 1_545
Br7 Cs5 4.131622 1_655
Br7 Cs2 4.243647 1_645
Br8 U3 2.892421 1_556
Br8 Na2 2.955408 1_556
Br8 Cs5 4.034799 1_555
Br8 Cs6 4.121272 1_555
Br8 Cs0 4.131622 1_556
Br8 Cs4 4.243647 1_556
Br9 U3 2.892421 1_556
Br9 Na0 2.955408 1_555
Br9 Cs1 4.034799 1_555
Br9 Cs6 4.121272 1_555
Br9 Cs2 4.131622 1_555
Br9 Cs5 4.243647 1_555
Br10 U3 2.892421 1_555
Br10 Na2 2.955408 1_565
Br10 Cs3 4.034799 1_555
Br10 Cs7 4.121272 1_555
Br10 Cs1 4.131622 1_554
Br10 Cs2 4.243647 1_554
Br11 U3 2.892421 1_555
Br11 Na0 2.955408 1_555
Br11 Cs0 4.034799 1_555
Br11 Cs7 4.121272 1_555
Br11 Cs4 4.131622 1_555
Br11 Cs3 4.243647 1_555
Br12 U1 2.892421 1_555
Br12 Na2 2.955408 1_556
Br12 Cs5 4.034799 1_555
Br12 Cs2 4.121272 1_545
Br12 Cs6 4.131622 1_555
Br12 Cs1 4.243647 1_545
Br13 U1 2.892421 1_565
Br13 Na2 2.955408 1_565
Br13 Cs3 4.034799 1_555
Br13 Cs4 4.121272 1_565
Br13 Cs7 4.131622 1_555
Br13 Cs0 4.243647 1_565
Br14 U2 2.892421 1_655
Br14 Na1 2.955408 1_655
Br14 Cs4 4.034799 1_555
Br14 Cs3 4.121272 1_555
Br14 Cs0 4.131622 1_655
Br14 Cs7 4.243647 1_655
Br15 U2 2.892421 1_555
Br15 Na1 2.955408 1_556
Br15 Cs2 4.034799 1_555
Br15 Cs5 4.121272 1_555
Br15 Cs1 4.131622 1_455
Br15 Cs6 4.243647 1_455
Br16 U0 2.892421 1_556
Br16 Na2 2.955408 1_556
Br16 Cs5 4.034799 1_555
Br16 Cs0 4.121272 1_556
Br16 Cs2 4.131622 1_545
Br16 Cs7 4.243647 1_546
Br17 U0 2.892421 1_665
Br17 Na2 2.955408 1_565
Br17 Cs3 4.034799 1_555
Br17 Cs1 4.121272 1_554
Br17 Cs4 4.131622 1_565
Br17 Cs6 4.243647 1_564
Br18 U3 2.892421 1_555
Br18 Na1 2.955408 1_655
Br18 Cs4 4.034799 1_555
Br18 Cs6 4.121272 1_554
Br18 Cs3 4.131622 1_555
Br18 Cs1 4.243647 1_554
Br19 U3 2.892421 1_556
Br19 Na1 2.955408 1_556
Br19 Cs2 4.034799 1_555
Br19 Cs7 4.121272 1_556
Br19 Cs5 4.131622 1_555
Br19 Cs0 4.243647 1_556
Br20 U1 2.892421 1_565
Br20 Na3 2.955408 1_565
Br20 Cs7 4.034799 1_555
Br20 Cs2 4.121272 1_555
Br20 Cs0 4.131622 1_565
Br20 Cs5 4.243647 1_565
Br21 U1 2.892421 1_555
Br21 Na3 2.955408 1_655
Br21 Cs6 4.034799 1_555
Br21 Cs4 4.121272 1_555
Br21 Cs1 4.131622 1_545
Br21 Cs3 4.243647 1_545
Br22 U2 2.892421 1_655
Br22 Na0 2.955408 1_555
Br22 Cs1 4.034799 1_555
Br22 Cs3 4.121272 1_555
Br22 Cs6 4.131622 1_555
Br22 Cs4 4.243647 1_555
Br23 U2 2.892421 1_555
Br23 Na0 2.955408 1_555
Br23 Cs0 4.034799 1_555
Br23 Cs5 4.121272 1_555
Br23 Cs7 4.131622 1_555
Br23 Cs2 4.243647 1_555
