# generated using pymatgen
data_Nb3Ge
_symmetry_space_group_name_H-M   'P 1'
_cell_length_a   5.17152664
_cell_length_b   5.17152664
_cell_length_c   5.17152664
_cell_angle_alpha   90.00000000
_cell_angle_beta   90.00000000
_cell_angle_gamma   90.00000000
_symmetry_Int_Tables_number   1
_chemical_formula_structural   Nb3Ge
_chemical_formula_sum   'Nb6 Ge2'
_cell_volume   138.31086538
_cell_formula_units_Z   2
loop_
 _symmetry_equiv_pos_site_id
 _symmetry_equiv_pos_as_xyz
  1  'x, y, z'
loop_
 _atom_site_type_symbol
 _atom_site_label
 _atom_site_symmetry_multiplicity
 _atom_site_fract_x
 _atom_site_fract_y
 _atom_site_fract_z
 _atom_site_occupancy
  Nb  Nb0  1  0.25000000  0.00000000  0.50000000  1
  Nb  Nb1  1  0.75000000  0.00000000  0.50000000  1
  Nb  Nb2  1  -0.00000000  0.50000000  0.25000000  1
  Nb  Nb3  1  -0.00000000  0.50000000  0.75000000  1
  Nb  Nb4  1  0.50000000  0.75000000  0.00000000  1
  Nb  Nb5  1  0.50000000  0.25000000  0.00000000  1
  Ge  Ge0  1  -0.00000000  0.00000000  0.00000000  1
  Ge  Ge1  1  0.50000000  0.50000000  0.50000000  1
loop_
_geom_bond_atom_site_label_1
_geom_bond_atom_site_label_2
_geom_bond_distance
_geom_bond_site_symmetry_2
Nb0 Nb1 2.585763 1_455
Nb0 Nb1 2.585763 1_555
Nb2 Nb3 2.585763 1_555
Nb2 Nb3 2.585763 1_554
Nb4 Nb5 2.585763 1_555
Nb4 Nb5 2.585763 1_565
Ge0 Nb1 2.890971 1_455
Ge0 Nb1 2.890971 1_454
Ge0 Nb4 2.890971 1_545
Ge0 Nb3 2.890971 1_544
Ge0 Nb5 2.890971 1_455
Ge0 Nb2 2.890971 1_555
Ge0 Nb4 2.890971 1_445
Ge0 Nb2 2.890971 1_545
Ge0 Nb3 2.890971 1_554
Ge0 Nb5 2.890971 1_555
Ge0 Nb0 2.890971 1_555
Ge0 Nb0 2.890971 1_554
Ge1 Nb0 2.890971 1_565
Ge1 Nb4 2.890971 1_556
Ge1 Nb4 2.890971 1_555
Ge1 Nb1 2.890971 1_555
Ge1 Nb2 2.890971 1_555
Ge1 Nb3 2.890971 1_655
Ge1 Nb5 2.890971 1_556
Ge1 Nb1 2.890971 1_565
Ge1 Nb5 2.890971 1_555
Ge1 Nb2 2.890971 1_655
Ge1 Nb3 2.890971 1_555
Ge1 Nb0 2.890971 1_555
