# generated using pymatgen
data_Th2Mn17C2
_symmetry_space_group_name_H-M   'P 1'
_cell_length_a   6.88746727
_cell_length_b   6.98888972
_cell_length_c   6.88746727
_cell_angle_alpha   82.17038810
_cell_angle_beta   84.23564597
_cell_angle_gamma   82.17038810
_symmetry_Int_Tables_number   1
_chemical_formula_structural   Th2Mn17C2
_chemical_formula_sum   'Th2 Mn17 C2'
_cell_volume   324.24648430
_cell_formula_units_Z   1
loop_
 _symmetry_equiv_pos_site_id
 _symmetry_equiv_pos_as_xyz
  1  'x, y, z'
loop_
 _atom_site_type_symbol
 _atom_site_label
 _atom_site_symmetry_multiplicity
 _atom_site_fract_x
 _atom_site_fract_y
 _atom_site_fract_z
 _atom_site_occupancy
  Th  Th0  1  0.65295351  0.64543622  0.65295351  1
  Th  Th1  1  0.34704649  0.35456378  0.34704649  1
  Mn  Mn0  1  0.34271623  0.85186287  0.34271623  1
  Mn  Mn1  1  0.86709480  0.34175076  0.34477626  1
  Mn  Mn2  1  0.34477626  0.34175076  0.86709480  1
  Mn  Mn3  1  0.65728377  0.14813713  0.65728377  1
  Mn  Mn4  1  0.13290520  0.65824924  0.65522374  1
  Mn  Mn5  1  0.65522374  0.65824924  0.13290520  1
  Mn  Mn6  1  -0.00000000  0.50000000  0.00000000  1
  Mn  Mn7  1  0.50000000  -0.00000000  0.00000000  1
  Mn  Mn8  1  -0.00000000  -0.00000000  0.50000000  1
  Mn  Mn9  1  0.71356487  -0.00000000  0.28643513  1
  Mn  Mn10  1  0.01117096  0.28085781  0.71818477  1
  Mn  Mn11  1  0.28181523  0.71914219  -0.01117096  1
  Mn  Mn12  1  -0.01117096  0.71914219  0.28181523  1
  Mn  Mn13  1  0.71818477  0.28085781  0.01117096  1
  Mn  Mn14  1  0.28643513  -0.00000000  0.71356487  1
  Mn  Mn15  1  0.90322266  0.90018417  0.90322266  1
  Mn  Mn16  1  0.09677734  0.09981583  0.09677734  1
  C  C0  1  -0.00000000  0.50000000  0.50000000  1
  C  C1  1  0.50000000  0.50000000  0.00000000  1
loop_
_geom_bond_atom_site_label_1
_geom_bond_atom_site_label_2
_geom_bond_distance
_geom_bond_site_symmetry_2
Mn0 Mn7 2.634994 1_565
Mn0 Mn8 2.634994 1_565
Mn0 Mn5 2.768831 1_555
Mn0 Mn4 2.768831 1_555
Mn0 Mn16 2.778203 1_565
Mn0 Mn11 2.811500 1_555
Mn0 Mn12 2.811500 1_555
Mn0 Mn9 2.856286 1_565
Mn0 Mn14 2.856286 1_565
Mn0 Th0 3.232663 1_555
Mn0 Th1 3.467715 1_555
Mn0 Th1 3.521716 1_565
Mn1 Mn8 2.567258 1_655
Mn1 Mn6 2.612214 1_655
Mn1 Mn3 2.768831 1_555
Mn1 Mn16 2.791844 1_655
Mn1 Mn9 2.831840 1_555
Mn2 Mn7 2.567258 1_556
Mn2 Mn6 2.612214 1_556
Mn2 Mn3 2.768831 1_555
Mn3 Mn7 2.634994 1_556
Mn3 Mn8 2.634994 1_655
Mn3 Mn9 2.856286 1_555
Mn3 Th1 3.232663 1_555
Mn3 Th0 3.467715 1_555
Mn3 Th0 3.521716 1_545
Mn4 Mn8 2.567258 1_565
Mn4 Mn6 2.612214 1_556
Mn5 Mn7 2.567258 1_565
Mn5 Mn6 2.612214 1_655
Mn5 Mn9 2.831840 1_565
Mn6 Th0 3.504814 1_454
Mn6 Th1 3.504814 1_555
Mn7 Mn9 2.576530 1_555
Mn8 Mn9 2.576530 1_455
Mn9 Th1 3.324625 1_555
Mn9 Th0 3.324625 1_545
Mn10 Mn14 2.537568 1_555
Mn10 Mn6 2.620475 1_556
Mn10 Mn8 2.642934 1_555
Mn10 Mn3 2.811500 1_455
Mn10 Mn16 2.820378 1_556
Mn10 Mn15 2.946178 1_445
Mn11 Mn14 2.537568 1_564
Mn11 Mn6 2.620475 1_555
Mn11 Mn7 2.642934 1_565
Mn11 Mn15 2.820378 1_454
Mn11 Mn16 2.946178 1_565
Mn12 Mn9 2.537568 1_465
Mn12 Mn6 2.620475 1_555
Mn12 Mn8 2.642934 1_565
Mn12 Mn15 2.820378 1_454
Mn12 Mn16 2.946178 1_565
Mn13 Mn9 2.537568 1_555
Mn13 Mn6 2.620475 1_655
Mn13 Mn7 2.642934 1_555
Mn13 Mn3 2.811500 1_554
Mn13 Mn16 2.820378 1_655
Mn13 Mn15 2.946178 1_544
Mn14 Mn7 2.576530 1_556
Mn14 Mn8 2.576530 1_555
Mn14 Mn2 2.831840 1_555
Mn14 Mn4 2.831840 1_545
Mn14 Mn3 2.856286 1_555
Mn14 Mn15 2.952969 1_445
Mn14 Mn16 2.952969 1_556
Mn14 Th0 3.324625 1_545
Mn14 Th1 3.324625 1_555
Mn15 Mn16 2.621336 1_666
Mn15 Mn3 2.778203 1_565
Mn15 Mn6 2.790038 1_656
Mn15 Mn5 2.791844 1_556
Mn15 Mn4 2.791844 1_655
Mn15 Mn8 2.805473 1_665
Mn15 Mn7 2.805473 1_566
Mn15 Mn9 2.952969 1_566
Mn15 Th0 3.373633 1_555
Mn16 Mn6 2.790038 1_555
Mn16 Mn2 2.791844 1_554
Mn16 Mn7 2.805473 1_555
Mn16 Mn8 2.805473 1_555
Mn16 Mn9 2.952969 1_455
Mn16 Th1 3.373633 1_555
C0 Mn12 1.993459 1_555
C0 Mn10 1.993459 1_555
C0 Mn4 1.999667 1_555
C0 Mn1 1.999667 1_455
C0 Th0 2.642026 1_455
C0 Th1 2.642026 1_555
C1 Mn13 1.993459 1_555
C1 Mn11 1.993459 1_555
C1 Mn5 1.999667 1_555
C1 Mn2 1.999667 1_554
C1 Th1 2.642026 1_555
C1 Th0 2.642026 1_554
