# generated using pymatgen
data_Mg2Mn3MoS8
_symmetry_space_group_name_H-M   'P 1'
_cell_length_a   7.38105774
_cell_length_b   7.38870976
_cell_length_c   7.37328947
_cell_angle_alpha   59.40831423
_cell_angle_beta   59.38679584
_cell_angle_gamma   59.44338595
_symmetry_Int_Tables_number   1
_chemical_formula_structural   Mg2Mn3MoS8
_chemical_formula_sum   'Mg2 Mn3 Mo1 S8'
_cell_volume   280.53796065
_cell_formula_units_Z   1
loop_
 _symmetry_equiv_pos_site_id
 _symmetry_equiv_pos_as_xyz
  1  'x, y, z'
loop_
 _atom_site_type_symbol
 _atom_site_label
 _atom_site_symmetry_multiplicity
 _atom_site_fract_x
 _atom_site_fract_y
 _atom_site_fract_z
 _atom_site_occupancy
  Mg  Mg0  1  0.87251200  0.87274000  0.87230200  1
  Mg  Mg1  1  0.12748300  0.12726300  0.12768200  1
  Mn  Mn0  1  0.50001600  0.49999600  0.99999300  1
  Mn  Mn1  1  0.00002700  0.50001700  0.50002600  1
  Mn  Mn2  1  0.49995000  0.99998700  0.50003700  1
  Mo  Mo0  1  0.50001200  0.49999600  0.49998900  1
  S  S0  1  0.73623300  0.73625600  0.73618000  1
  S  S1  1  0.26213700  0.26209600  0.71845900  1
  S  S2  1  0.26200200  0.71874400  0.26209200  1
  S  S3  1  0.71860900  0.26201100  0.26216200  1
  S  S4  1  0.73799900  0.28125200  0.73788800  1
  S  S5  1  0.28138800  0.73798600  0.73783300  1
  S  S6  1  0.26377100  0.26373800  0.26381900  1
  S  S7  1  0.73786600  0.73791400  0.28153800  1
loop_
_geom_bond_atom_site_label_1
_geom_bond_atom_site_label_2
_geom_bond_distance
_geom_bond_site_symmetry_2
Mg0 S7 2.444955 1_556
Mg0 S5 2.446287 1_655
Mg0 S4 2.447221 1_565
Mg0 S0 2.475058 1_555
Mg1 S1 2.444875 1_554
Mg1 S3 2.446275 1_455
Mg1 S2 2.447263 1_545
Mg1 S6 2.475148 1_555
Mn0 S0 2.460750 1_555
Mn0 S6 2.460884 1_556
Mn0 S3 2.502796 1_556
Mn0 S5 2.502922 1_555
Mn0 S2 2.503521 1_556
Mn0 S4 2.503538 1_555
Mn1 S0 2.460626 1_455
Mn1 S6 2.461058 1_555
Mn1 S1 2.502156 1_555
Mn1 S7 2.502715 1_455
Mn1 S2 2.503043 1_555
Mn1 S4 2.503536 1_455
Mn2 S6 2.460405 1_565
Mn2 S0 2.460538 1_555
Mn2 S5 2.502802 1_555
Mn2 S1 2.502870 1_565
Mn2 S7 2.503043 1_555
Mn2 S3 2.503403 1_565
Mo0 S4 2.478020 1_555
Mo0 S2 2.478133 1_555
Mo0 S3 2.478382 1_555
Mo0 S7 2.478464 1_555
Mo0 S1 2.478470 1_555
Mo0 S5 2.478488 1_555
