# generated using pymatgen
data_ErInPt4
_symmetry_space_group_name_H-M   'P 1'
_cell_length_a   5.39803903
_cell_length_b   5.39803903
_cell_length_c   5.39803903
_cell_angle_alpha   60.00000000
_cell_angle_beta   60.00000000
_cell_angle_gamma   60.00000000
_symmetry_Int_Tables_number   1
_chemical_formula_structural   ErInPt4
_chemical_formula_sum   'Er1 In1 Pt4'
_cell_volume   111.22260486
_cell_formula_units_Z   1
loop_
 _symmetry_equiv_pos_site_id
 _symmetry_equiv_pos_as_xyz
  1  'x, y, z'
loop_
 _atom_site_type_symbol
 _atom_site_label
 _atom_site_symmetry_multiplicity
 _atom_site_fract_x
 _atom_site_fract_y
 _atom_site_fract_z
 _atom_site_occupancy
  Er  Er0  1  0.00000000  0.00000000  0.00000000  1
  In  In0  1  0.25000000  0.25000000  0.25000000  1
  Pt  Pt0  1  0.62464800  0.62464800  0.12605600  1
  Pt  Pt1  1  0.62464800  0.12605600  0.62464800  1
  Pt  Pt2  1  0.12605600  0.62464800  0.62464800  1
  Pt  Pt3  1  0.62464800  0.62464800  0.62464800  1
loop_
_geom_bond_atom_site_label_1
_geom_bond_atom_site_label_2
_geom_bond_distance
_geom_bond_site_symmetry_2
Er0 Pt0 3.165694 1_455
Er0 Pt3 3.165694 1_454
Er0 Pt1 3.165694 1_554
Er0 Pt1 3.165694 1_455
Er0 Pt3 3.165694 1_544
Er0 Pt3 3.165694 1_445
Er0 Pt2 3.165694 1_545
Er0 Pt0 3.165694 1_545
Er0 Pt2 3.165694 1_554
Er0 Pt0 3.165694 1_445
Er0 Pt1 3.165694 1_454
Er0 Pt2 3.165694 1_544
Er0 In0 3.305610 1_554
Er0 In0 3.305610 1_455
Er0 In0 3.305610 1_555
Er0 In0 3.305610 1_545
In0 Pt2 3.164074 1_555
In0 Pt3 3.164074 1_455
In0 Pt0 3.164074 1_555
In0 Pt0 3.164074 1_455
In0 Pt1 3.164074 1_554
In0 Pt3 3.164074 1_545
In0 Pt1 3.164074 1_455
In0 Pt1 3.164074 1_555
In0 Pt0 3.164074 1_545
In0 Pt2 3.164074 1_554
In0 Pt3 3.164074 1_554
In0 Pt2 3.164074 1_545
Pt0 Pt2 2.691419 1_555
Pt0 Pt1 2.691419 1_555
Pt0 Pt3 2.691419 1_555
Pt0 Pt1 2.706620 1_564
Pt0 Pt2 2.706620 1_654
Pt0 Pt3 2.706620 1_554
Pt1 Pt2 2.691419 1_555
Pt1 Pt3 2.691419 1_555
Pt1 Pt2 2.706620 1_645
Pt1 Pt3 2.706620 1_545
Pt2 Pt3 2.691419 1_555
Pt2 Pt3 2.706620 1_455
