# generated using pymatgen
data_HfAlW4
_symmetry_space_group_name_H-M   'P 1'
_cell_length_a   5.33170392
_cell_length_b   5.33170392
_cell_length_c   5.33170392
_cell_angle_alpha   60.00000000
_cell_angle_beta   60.00000000
_cell_angle_gamma   60.00000000
_symmetry_Int_Tables_number   1
_chemical_formula_structural   HfAlW4
_chemical_formula_sum   'Hf1 Al1 W4'
_cell_volume   107.17242946
_cell_formula_units_Z   1
loop_
 _symmetry_equiv_pos_site_id
 _symmetry_equiv_pos_as_xyz
  1  'x, y, z'
loop_
 _atom_site_type_symbol
 _atom_site_label
 _atom_site_symmetry_multiplicity
 _atom_site_fract_x
 _atom_site_fract_y
 _atom_site_fract_z
 _atom_site_occupancy
  Hf  Hf0  1  0.00000000  0.00000000  0.00000000  1
  Al  Al0  1  0.25000000  0.25000000  0.25000000  1
  W  W0  1  0.62453000  0.62453000  0.12641000  1
  W  W1  1  0.62453000  0.12641000  0.62453000  1
  W  W2  1  0.12641000  0.62453000  0.62453000  1
  W  W3  1  0.62453000  0.62453000  0.62453000  1
loop_
_geom_bond_atom_site_label_1
_geom_bond_atom_site_label_2
_geom_bond_distance
_geom_bond_site_symmetry_2
Hf0 W1 3.127063 1_454
Hf0 W0 3.127063 1_455
Hf0 W3 3.127063 1_544
Hf0 W3 3.127063 1_454
Hf0 W2 3.127063 1_544
Hf0 W2 3.127063 1_545
Hf0 W3 3.127063 1_445
Hf0 W0 3.127063 1_445
Hf0 W1 3.127063 1_554
Hf0 W1 3.127063 1_455
Hf0 W2 3.127063 1_554
Hf0 W0 3.127063 1_545
Al0 W2 3.124926 1_545
Al0 W1 3.124926 1_455
Al0 W2 3.124926 1_554
Al0 W1 3.124926 1_554
Al0 W0 3.124926 1_545
Al0 W3 3.124926 1_545
Al0 W0 3.124926 1_555
Al0 W1 3.124926 1_555
Al0 W3 3.124926 1_455
Al0 W0 3.124926 1_455
Al0 W3 3.124926 1_554
Al0 W2 3.124926 1_555
Al0 Hf0 3.264989 1_655
Al0 Hf0 3.264989 1_555
Al0 Hf0 3.264989 1_565
Al0 Hf0 3.264989 1_556
W0 W3 2.655828 1_555
W0 W2 2.655828 1_555
W0 W1 2.655828 1_555
W0 W1 2.675876 1_564
W0 W2 2.675876 1_654
W0 W3 2.675876 1_554
W1 W3 2.655828 1_555
W1 W2 2.655828 1_555
W1 W2 2.675876 1_645
W1 W3 2.675876 1_545
W2 W3 2.655828 1_555
W2 W3 2.675876 1_455
