# generated using pymatgen
data_Mg9Si4(HO9)2
_symmetry_space_group_name_H-M   'P 1'
_cell_length_a   4.81917500
_cell_length_b   10.36622586
_cell_length_c   13.89962821
_cell_angle_alpha   101.60375927
_cell_angle_beta   90.00000000
_cell_angle_gamma   90.00000000
_symmetry_Int_Tables_number   1
_chemical_formula_structural   Mg9Si4(HO9)2
_chemical_formula_sum   'Mg18 Si8 H4 O36'
_cell_volume   680.18727287
_cell_formula_units_Z   2
loop_
 _symmetry_equiv_pos_site_id
 _symmetry_equiv_pos_as_xyz
  1  'x, y, z'
loop_
 _atom_site_type_symbol
 _atom_site_label
 _atom_site_symmetry_multiplicity
 _atom_site_fract_x
 _atom_site_fract_y
 _atom_site_fract_z
 _atom_site_occupancy
  Mg  Mg0  1  0.48681300  0.64239700  0.17468000  1
  Mg  Mg1  1  0.51318700  0.35760300  0.82532000  1
  Mg  Mg2  1  0.98681300  0.85760300  0.82532000  1
  Mg  Mg3  1  0.01318700  0.14239700  0.17468000  1
  Mg  Mg4  1  0.99089700  0.75102700  0.38764300  1
  Mg  Mg5  1  0.00910300  0.24897300  0.61235700  1
  Mg  Mg6  1  0.49089700  0.74897300  0.61235700  1
  Mg  Mg7  1  0.50910300  0.25102700  0.38764300  1
  Mg  Mg8  1  0.99935100  0.44791600  0.27426500  1
  Mg  Mg9  1  0.00064900  0.55208400  0.72573500  1
  Mg  Mg10  1  0.49935100  0.05208400  0.72573500  1
  Mg  Mg11  1  0.50064900  0.94791600  0.27426500  1
  Mg  Mg12  1  0.00000000  0.50000000  0.50000000  1
  Mg  Mg13  1  0.50000000  0.00000000  0.50000000  1
  Mg  Mg14  1  0.98230800  0.37682400  0.04359700  1
  Mg  Mg15  1  0.01769200  0.62317600  0.95640300  1
  Mg  Mg16  1  0.48230800  0.12317600  0.95640300  1
  Mg  Mg17  1  0.51769200  0.87682400  0.04359700  1
  Si  Si0  1  0.43001800  0.67811600  0.83378400  1
  Si  Si1  1  0.56998200  0.32188400  0.16621600  1
  Si  Si2  1  0.93001800  0.82188400  0.16621600  1
  Si  Si3  1  0.06998200  0.17811600  0.83378400  1
  Si  Si4  1  0.42473300  0.56634000  0.39091800  1
  Si  Si5  1  0.57526700  0.43366000  0.60908200  1
  Si  Si6  1  0.92473300  0.93366000  0.60908200  1
  Si  Si7  1  0.07526700  0.06634000  0.39091800  1
  H  H0  1  0.37748700  0.47760700  0.02708800  1
  H  H1  1  0.62251300  0.52239300  0.97291200  1
  H  H2  1  0.87748700  0.02239300  0.97291200  1
  H  H3  1  0.12251300  0.97760700  0.02708800  1
  O  O0  1  0.22396800  0.91959700  0.38718100  1
  O  O1  1  0.77603200  0.08040300  0.61281900  1
  O  O2  1  0.72396800  0.58040300  0.61281900  1
  O  O3  1  0.27603200  0.41959700  0.38718100  1
  O  O4  1  0.76376900  0.56512300  0.38855300  1
  O  O5  1  0.23623100  0.43487700  0.61144700  1
  O  O6  1  0.26376900  0.93487700  0.61144700  1
  O  O7  1  0.73623100  0.06512300  0.38855300  1
  O  O8  1  0.24273600  0.54263600  0.05821300  1
  O  O9  1  0.75726400  0.45736400  0.94178700  1
  O  O10  1  0.74273600  0.95736400  0.94178700  1
  O  O11  1  0.25726400  0.04263600  0.05821300  1
  O  O12  1  0.27390800  0.61413100  0.29660200  1
  O  O13  1  0.72609200  0.38586900  0.70339800  1
  O  O14  1  0.77390800  0.88586900  0.70339800  1
  O  O15  1  0.22609200  0.11413100  0.29660200  1
  O  O16  1  0.27695500  0.65794400  0.48859600  1
  O  O17  1  0.72304500  0.34205600  0.51140400  1
  O  O18  1  0.77695500  0.84205600  0.51140400  1
  O  O19  1  0.22304500  0.15794400  0.48859600  1
  O  O20  1  0.78399300  0.72537400  0.06977200  1
  O  O21  1  0.21600700  0.27462600  0.93022800  1
  O  O22  1  0.28399300  0.77462600  0.93022800  1
  O  O23  1  0.71600700  0.22537400  0.06977200  1
  O  O24  1  0.71323200  0.46787500  0.16430000  1
  O  O25  1  0.28676800  0.53212500  0.83570000  1
  O  O26  1  0.21323200  0.03212500  0.83570000  1
  O  O27  1  0.78676800  0.96787500  0.16430000  1
  O  O28  1  0.26910900  0.82160600  0.16461000  1
  O  O29  1  0.73089100  0.17839400  0.83539000  1
  O  O30  1  0.76910900  0.67839400  0.83539000  1
  O  O31  1  0.23089100  0.32160600  0.16461000  1
  O  O32  1  0.77746900  0.77931200  0.26227200  1
  O  O33  1  0.22253100  0.22068800  0.73772800  1
  O  O34  1  0.27746900  0.72068800  0.73772800  1
  O  O35  1  0.72253100  0.27931200  0.26227200  1
loop_
_geom_bond_atom_site_label_1
_geom_bond_atom_site_label_2
_geom_bond_distance
_geom_bond_site_symmetry_2
Mg0 O12 2.051890 1_555
Mg0 O24 2.092700 1_555
Mg0 O8 2.097669 1_555
Mg0 O28 2.162417 1_555
Mg0 O32 2.182560 1_555
Mg0 O20 2.328482 1_555
Mg1 O13 2.051890 1_555
Mg1 O25 2.092700 1_555
Mg1 O9 2.097669 1_555
Mg1 O29 2.162417 1_555
Mg1 O33 2.182560 1_555
Mg1 O21 2.328482 1_555
Mg2 O14 2.051890 1_555
Mg2 O26 2.092700 1_665
Mg2 O10 2.097669 1_555
Mg2 O30 2.162417 1_555
Mg2 O34 2.182560 1_655
Mg2 O22 2.328482 1_655
Mg3 O15 2.051890 1_555
Mg3 O27 2.092700 1_445
Mg3 O11 2.097669 1_555
Mg3 O31 2.162417 1_555
Mg3 O35 2.182560 1_455
Mg3 O23 2.328482 1_455
Mg4 O18 2.063887 1_555
Mg4 O0 2.078385 1_655
Mg4 O32 2.094306 1_555
Mg4 O12 2.180118 1_655
Mg4 O4 2.218524 1_555
Mg4 O16 2.311967 1_655
Mg5 O19 2.063887 1_555
Mg5 O1 2.078385 1_455
Mg5 O33 2.094306 1_555
Mg5 O13 2.180118 1_455
Mg5 O5 2.218524 1_555
Mg5 O17 2.311967 1_455
Mg6 O16 2.063887 1_555
Mg6 O2 2.078385 1_555
Mg6 O34 2.094306 1_555
Mg6 O14 2.180118 1_555
Mg6 O6 2.218524 1_555
Mg6 O18 2.311967 1_555
Mg7 O17 2.063887 1_555
Mg7 O3 2.078385 1_555
Mg7 O35 2.094306 1_555
Mg7 O15 2.180118 1_555
Mg7 O7 2.218524 1_555
Mg7 O19 2.311967 1_555
Mg8 O24 2.099405 1_555
Mg8 O31 2.116541 1_655
Mg8 O4 2.124199 1_555
Mg8 O3 2.124315 1_655
Mg8 O12 2.144922 1_655
Mg8 O35 2.178306 1_555
Mg9 O25 2.099405 1_555
Mg9 O30 2.116541 1_455
Mg9 O5 2.124199 1_555
Mg9 O2 2.124315 1_455
Mg9 O13 2.144922 1_455
Mg9 O34 2.178306 1_555
Mg10 O26 2.099405 1_555
Mg10 O29 2.116541 1_555
Mg10 O6 2.124199 1_545
Mg10 O1 2.124315 1_555
Mg10 O14 2.144922 1_545
Mg10 O33 2.178306 1_555
Mg11 O27 2.099405 1_555
Mg11 O28 2.116541 1_555
Mg11 O7 2.124199 1_565
Mg11 O0 2.124315 1_555
Mg11 O15 2.144922 1_565
Mg11 O32 2.178306 1_555
Mg12 O2 2.097026 1_455
Mg12 O3 2.097026 1_555
Mg12 O5 2.138244 1_555
Mg12 O4 2.138244 1_455
Mg12 O17 2.142810 1_455
Mg12 O16 2.142810 1_555
Mg13 O1 2.097026 1_555
Mg13 O0 2.097026 1_545
Mg13 O7 2.138244 1_555
Mg13 O6 2.138244 1_545
Mg13 O18 2.142810 1_545
Mg13 O19 2.142810 1_555
Mg14 O21 2.049947 1_654
Mg14 O9 2.085931 1_554
Mg14 O8 2.104844 1_655
Mg14 O23 2.115166 1_555
Mg14 O24 2.179471 1_555
Mg14 O31 2.231441 1_655
Mg15 O20 2.049947 1_456
Mg15 O8 2.085931 1_556
Mg15 O9 2.104844 1_455
Mg15 O22 2.115166 1_555
Mg15 O25 2.179471 1_555
Mg15 O30 2.231441 1_455
Mg16 O23 2.049947 1_556
Mg16 O11 2.085931 1_556
Mg16 O10 2.104844 1_545
Mg16 O21 2.115166 1_555
Mg16 O26 2.179471 1_555
Mg16 O29 2.231441 1_555
Mg17 O22 2.049947 1_554
Mg17 O10 2.085931 1_554
Mg17 O11 2.104844 1_565
Mg17 O20 2.115166 1_555
Mg17 O27 2.179471 1_555
Mg17 O28 2.231441 1_555
H0 O8 0.972609 1_555
H0 Mg14 2.206231 1_455
H1 O9 0.972609 1_555
H1 Mg15 2.206231 1_655
H2 O10 0.972609 1_545
H2 Mg16 2.206231 1_555
H3 O11 0.972609 1_565
H3 Mg17 2.206231 1_555
O0 Si7 1.672846 1_565
O1 Si6 1.672846 1_545
O2 Si5 1.672846 1_555
O3 Si4 1.672846 1_555
O4 Si4 1.634202 1_555
O5 Si5 1.634202 1_555
O6 Si6 1.634202 1_455
O7 Si7 1.634202 1_655
O12 Si4 1.659405 1_555
O13 Si5 1.659405 1_555
O14 Si6 1.659405 1_555
O15 Si7 1.659405 1_555
O16 Si4 1.653352 1_555
O17 Si5 1.653352 1_555
O18 Si6 1.653352 1_555
O19 Si7 1.653352 1_555
O20 Si2 1.659407 1_555
O21 Si3 1.659407 1_555
O22 Si0 1.659407 1_555
O23 Si1 1.659407 1_555
O24 Si1 1.668475 1_555
O25 Si0 1.668475 1_555
O26 Si3 1.668475 1_555
O27 Si2 1.668475 1_555
O28 Si2 1.634286 1_455
O29 Si3 1.634286 1_655
O30 Si0 1.634286 1_555
O31 Si1 1.634286 1_555
O32 Si2 1.659775 1_555
O33 Si3 1.659775 1_555
O34 Si0 1.659775 1_555
O35 Si1 1.659775 1_555
