# generated using pymatgen
data_Sr2ZnGe2S6O
_symmetry_space_group_name_H-M   'P 1'
_cell_length_a   6.26032700
_cell_length_b   9.53866000
_cell_length_c   9.53866000
_cell_angle_alpha   90.00000000
_cell_angle_beta   90.00000000
_cell_angle_gamma   90.00000000
_symmetry_Int_Tables_number   1
_chemical_formula_structural   Sr2ZnGe2S6O
_chemical_formula_sum   'Sr4 Zn2 Ge4 S12 O2'
_cell_volume   569.60232900
_cell_formula_units_Z   2
loop_
 _symmetry_equiv_pos_site_id
 _symmetry_equiv_pos_as_xyz
  1  'x, y, z'
loop_
 _atom_site_type_symbol
 _atom_site_label
 _atom_site_symmetry_multiplicity
 _atom_site_fract_x
 _atom_site_fract_y
 _atom_site_fract_z
 _atom_site_occupancy
  Sr  Sr0  1  0.50075900  0.15980800  0.65980800  1
  Sr  Sr1  1  0.50075900  0.84019200  0.34019200  1
  Sr  Sr2  1  0.49924100  0.65980800  0.84019200  1
  Sr  Sr3  1  0.49924100  0.34019200  0.15980800  1
  Zn  Zn0  1  0.00000000  0.00000000  0.00000000  1
  Zn  Zn1  1  0.00000000  0.50000000  0.50000000  1
  Ge  Ge0  1  0.93007800  0.62660600  0.12660600  1
  Ge  Ge1  1  0.93007800  0.37339400  0.87339400  1
  Ge  Ge2  1  0.06992200  0.12660600  0.37339400  1
  Ge  Ge3  1  0.06992200  0.87339400  0.62660600  1
  S  S0  1  0.24057200  0.06201600  0.17744400  1
  S  S1  1  0.24057200  0.93798400  0.82255600  1
  S  S2  1  0.75942800  0.17744400  0.93798400  1
  S  S3  1  0.75942800  0.43798400  0.67744400  1
  S  S4  1  0.75942800  0.82255600  0.06201600  1
  S  S5  1  0.75942800  0.56201600  0.32255600  1
  S  S6  1  0.24057200  0.32255600  0.43798400  1
  S  S7  1  0.24057200  0.67744400  0.56201600  1
  S  S8  1  0.27701900  0.63363900  0.13363900  1
  S  S9  1  0.27701900  0.36636100  0.86636100  1
  S  S10  1  0.72298100  0.13363900  0.36636100  1
  S  S11  1  0.72298100  0.86636100  0.63363900  1
  O  O0  1  0.18916700  0.00000000  0.50000000  1
  O  O1  1  0.81083300  0.50000000  0.00000000  1
loop_
_geom_bond_atom_site_label_1
_geom_bond_atom_site_label_2
_geom_bond_distance
_geom_bond_site_symmetry_2
Ge0 O1 1.863901 1_555
Ge0 S8 2.174035 1_655
Ge0 S4 2.239294 1_555
Ge0 S5 2.239294 1_555
Ge1 O1 1.863901 1_556
Ge1 S9 2.174035 1_655
Ge1 S3 2.239294 1_555
Ge1 S2 2.239294 1_555
Ge2 O0 1.863901 1_555
Ge2 S10 2.174035 1_455
Ge2 S0 2.239294 1_555
Ge2 S6 2.239294 1_555
Ge3 O0 1.863901 1_565
Ge3 S11 2.174035 1_455
Ge3 S1 2.239294 1_555
Ge3 S7 2.239294 1_555
S0 Zn0 2.341573 1_555
S0 Sr1 3.088715 1_545
S0 Sr3 3.113081 1_555
S1 Zn0 2.341573 1_566
S1 Sr0 3.088715 1_565
S1 Sr2 3.113081 1_555
S2 Zn0 2.341573 1_656
S2 Sr3 3.088715 1_556
S2 Sr0 3.113081 1_555
S3 Zn1 2.341573 1_655
S3 Sr2 3.088715 1_555
S3 Sr0 3.113081 1_555
S4 Zn0 2.341573 1_665
S4 Sr2 3.088715 1_554
S4 Sr1 3.113081 1_555
S5 Zn1 2.341573 1_655
S5 Sr3 3.088715 1_555
S5 Sr1 3.113081 1_555
S6 Zn1 2.341573 1_555
S6 Sr0 3.088715 1_555
S6 Sr3 3.113081 1_555
S7 Zn1 2.341573 1_555
S7 Sr1 3.088715 1_555
S7 Sr2 3.113081 1_555
S8 Sr1 3.118590 1_555
S8 Sr3 3.135699 1_555
S8 Sr2 3.135699 1_554
S9 Sr0 3.118590 1_555
S9 Sr3 3.135699 1_556
S9 Sr2 3.135699 1_555
S10 Sr3 3.118590 1_555
S10 Sr1 3.135699 1_545
S10 Sr0 3.135699 1_555
S11 Sr2 3.118590 1_555
S11 Sr0 3.135699 1_565
S11 Sr1 3.135699 1_555
O0 Sr0 2.907304 1_555
O0 Sr1 2.907304 1_545
O1 Sr2 2.907304 1_554
O1 Sr3 2.907304 1_555
