# generated using pymatgen
data_Ba3V4ZnO14
_symmetry_space_group_name_H-M   'P 1'
_cell_length_a   14.17197600
_cell_length_b   7.36760000
_cell_length_c   14.22645946
_cell_angle_alpha   70.98594379
_cell_angle_beta   90.00000000
_cell_angle_gamma   90.00000000
_symmetry_Int_Tables_number   1
_chemical_formula_structural   Ba3V4ZnO14
_chemical_formula_sum   'Ba12 V16 Zn4 O56'
_cell_volume   1404.38648887
_cell_formula_units_Z   4
loop_
 _symmetry_equiv_pos_site_id
 _symmetry_equiv_pos_as_xyz
  1  'x, y, z'
loop_
 _atom_site_type_symbol
 _atom_site_label
 _atom_site_symmetry_multiplicity
 _atom_site_fract_x
 _atom_site_fract_y
 _atom_site_fract_z
 _atom_site_occupancy
  Ba  Ba0  1  0.73074200  0.55655400  0.70238400  1
  Ba  Ba1  1  0.23074200  0.44344600  0.79761600  1
  Ba  Ba2  1  0.26925800  0.44344600  0.29761600  1
  Ba  Ba3  1  0.76925800  0.55655400  0.20238400  1
  Ba  Ba4  1  0.89503100  0.23068900  0.01435500  1
  Ba  Ba5  1  0.39503100  0.76931100  0.48564500  1
  Ba  Ba6  1  0.10496900  0.76931100  0.98564500  1
  Ba  Ba7  1  0.60496900  0.23068900  0.51435500  1
  Ba  Ba8  1  0.94564200  0.11506200  0.71626900  1
  Ba  Ba9  1  0.44564200  0.88493800  0.78373100  1
  Ba  Ba10  1  0.05435800  0.88493800  0.28373100  1
  Ba  Ba11  1  0.55435800  0.11506200  0.21626900  1
  V  V0  1  0.68785200  0.98365800  0.76800500  1
  V  V1  1  0.18785200  0.01634200  0.73199500  1
  V  V2  1  0.31214800  0.01634200  0.23199500  1
  V  V3  1  0.81214800  0.98365800  0.26800500  1
  V  V4  1  0.83154800  0.80372900  0.94847500  1
  V  V5  1  0.33154800  0.19627100  0.55152500  1
  V  V6  1  0.16845200  0.19627100  0.05152500  1
  V  V7  1  0.66845200  0.80372900  0.44847500  1
  V  V8  1  0.97364500  0.60138600  0.73775500  1
  V  V9  1  0.47364500  0.39861400  0.76224500  1
  V  V10  1  0.02635500  0.39861400  0.26224500  1
  V  V11  1  0.52635500  0.60138600  0.23775500  1
  V  V12  1  0.11258600  0.61541800  0.54811700  1
  V  V13  1  0.61258600  0.38458200  0.95188300  1
  V  V14  1  0.88741400  0.38458200  0.45188300  1
  V  V15  1  0.38741400  0.61541800  0.04811700  1
  Zn  Zn0  1  0.59951400  0.89377300  0.00703700  1
  Zn  Zn1  1  0.09951400  0.10622700  0.49296300  1
  Zn  Zn2  1  0.40048600  0.10622700  0.99296300  1
  Zn  Zn3  1  0.90048600  0.89377300  0.50703700  1
  O  O0  1  0.62512000  0.89799300  0.68872200  1
  O  O1  1  0.12512000  0.10200700  0.81127800  1
  O  O2  1  0.37488000  0.10200700  0.31127800  1
  O  O3  1  0.87488000  0.89799300  0.18872200  1
  O  O4  1  0.60898300  0.99600700  0.85826300  1
  O  O5  1  0.10898300  0.00399300  0.64173700  1
  O  O6  1  0.39101700  0.00399300  0.14173700  1
  O  O7  1  0.89101700  0.99600700  0.35826300  1
  O  O8  1  0.74360300  0.19294400  0.70049600  1
  O  O9  1  0.24360300  0.80705600  0.79950400  1
  O  O10  1  0.25639700  0.80705600  0.29950400  1
  O  O11  1  0.75639700  0.19294400  0.20049600  1
  O  O12  1  0.77828600  0.80723700  0.82841100  1
  O  O13  1  0.27828600  0.19276300  0.67158900  1
  O  O14  1  0.22171400  0.19276300  0.17158900  1
  O  O15  1  0.72171400  0.80723700  0.32841100  1
  O  O16  1  0.87207400  0.58724600  0.02204700  1
  O  O17  1  0.37207400  0.41275400  0.47795300  1
  O  O18  1  0.12792600  0.41275400  0.97795300  1
  O  O19  1  0.62792600  0.58724600  0.52204700  1
  O  O20  1  0.74950400  0.88051700  0.01619200  1
  O  O21  1  0.24950400  0.11948300  0.48380800  1
  O  O22  1  0.25049600  0.11948300  0.98380800  1
  O  O23  1  0.75049600  0.88051700  0.51619200  1
  O  O24  1  0.92456800  0.96304600  0.92115000  1
  O  O25  1  0.42456800  0.03695400  0.57885000  1
  O  O26  1  0.07543200  0.03695400  0.07885000  1
  O  O27  1  0.57543200  0.96304600  0.42115000  1
  O  O28  1  0.02564000  0.69500600  0.81833500  1
  O  O29  1  0.52564000  0.30499400  0.68166500  1
  O  O30  1  0.97436000  0.30499400  0.18166500  1
  O  O31  1  0.47436000  0.69500600  0.31833500  1
  O  O32  1  0.90233900  0.41102700  0.79881700  1
  O  O33  1  0.40233900  0.58897300  0.70118300  1
  O  O34  1  0.09766100  0.58897300  0.20118300  1
  O  O35  1  0.59766100  0.41102700  0.29881700  1
  O  O36  1  0.90238800  0.77765900  0.65671800  1
  O  O37  1  0.40238800  0.22234100  0.84328200  1
  O  O38  1  0.09761200  0.22234100  0.34328200  1
  O  O39  1  0.59761200  0.77765900  0.15671800  1
  O  O40  1  0.05898700  0.49707300  0.67244900  1
  O  O41  1  0.55898700  0.50292700  0.82755100  1
  O  O42  1  0.94101300  0.50292700  0.32755100  1
  O  O43  1  0.44101300  0.49707300  0.17244900  1
  O  O44  1  0.22441400  0.65607700  0.57568300  1
  O  O45  1  0.72441400  0.34392300  0.92431700  1
  O  O46  1  0.77558600  0.34392300  0.42431700  1
  O  O47  1  0.27558600  0.65607700  0.07568300  1
  O  O48  1  0.11347500  0.47402800  0.47478300  1
  O  O49  1  0.61347500  0.52597200  0.02521700  1
  O  O50  1  0.88652500  0.52597200  0.52521700  1
  O  O51  1  0.38652500  0.47402800  0.97478300  1
  O  O52  1  0.05375700  0.83725200  0.48633400  1
  O  O53  1  0.55375600  0.16274800  0.01366600  1
  O  O54  1  0.94624300  0.16274800  0.51366600  1
  O  O55  1  0.44624300  0.83725200  0.98633400  1
loop_
_geom_bond_atom_site_label_1
_geom_bond_atom_site_label_2
_geom_bond_distance
_geom_bond_site_symmetry_2
Ba0 O8 2.693977 1_555
Ba0 O32 2.826166 1_555
Ba0 O0 2.878886 1_555
Ba0 O36 2.881582 1_555
Ba0 O19 2.894539 1_555
Ba0 O23 2.944843 1_555
Ba0 O41 2.965364 1_555
Ba0 O45 3.034460 1_555
Ba0 O12 3.039312 1_555
Ba1 O9 2.693977 1_555
Ba1 O33 2.826166 1_555
Ba1 O1 2.878886 1_555
Ba1 O37 2.881582 1_555
Ba1 O18 2.894539 1_555
Ba1 O22 2.944843 1_555
Ba1 O40 2.965364 1_555
Ba1 O44 3.034460 1_555
Ba1 O13 3.039312 1_555
Ba2 O10 2.693977 1_555
Ba2 O34 2.826166 1_555
Ba2 O2 2.878886 1_555
Ba2 O38 2.881582 1_555
Ba2 O17 2.894539 1_555
Ba2 O21 2.944843 1_555
Ba2 O43 2.965364 1_555
Ba2 O47 3.034460 1_555
Ba2 O14 3.039312 1_555
Ba3 O11 2.693977 1_555
Ba3 O35 2.826166 1_555
Ba3 O3 2.878886 1_555
Ba3 O39 2.881582 1_555
Ba3 O16 2.894539 1_555
Ba3 O20 2.944843 1_555
Ba3 O42 2.965364 1_555
Ba3 O46 3.034460 1_555
Ba3 O15 3.039312 1_555
Ba4 O16 2.684419 1_555
Ba4 O45 2.736250 1_554
Ba4 O24 2.743264 1_544
Ba4 O30 2.842217 1_555
Ba4 O3 2.877722 1_545
Ba4 O32 2.919558 1_554
Ba4 O26 2.926135 1_655
Ba5 O17 2.684419 1_555
Ba5 O44 2.736250 1_555
Ba5 O25 2.743264 1_565
Ba5 O31 2.842217 1_555
Ba5 O2 2.877722 1_565
Ba5 O33 2.919558 1_555
Ba5 O27 2.926135 1_555
Ba6 O18 2.684419 1_555
Ba6 O47 2.736250 1_556
Ba6 O26 2.743264 1_566
Ba6 O28 2.842217 1_555
Ba6 O1 2.877722 1_565
Ba6 O34 2.919558 1_556
Ba6 O24 2.926135 1_455
Ba7 O19 2.684419 1_555
Ba7 O46 2.736250 1_555
Ba7 O27 2.743264 1_545
Ba7 O29 2.842217 1_555
Ba7 O0 2.877722 1_545
Ba7 O35 2.919558 1_555
Ba7 O25 2.926135 1_555
Ba8 O24 2.777068 1_545
Ba8 O5 2.778112 1_655
Ba8 O54 2.787732 1_555
Ba8 O32 2.859921 1_555
Ba8 O1 2.867257 1_655
Ba8 O8 2.914472 1_555
Ba8 O36 2.940279 1_545
Ba8 O40 3.122028 1_655
Ba8 O28 3.169137 1_645
Ba8 O12 3.310045 1_545
Ba8 O50 3.448620 1_555
Ba9 O25 2.777068 1_565
Ba9 O4 2.778112 1_555
Ba9 O55 2.787732 1_555
Ba9 O33 2.859921 1_555
Ba9 O0 2.867257 1_555
Ba9 O9 2.914472 1_555
Ba9 O37 2.940279 1_565
Ba9 O41 3.122028 1_555
Ba9 O29 3.169137 1_565
Ba9 O13 3.310045 1_565
Ba9 O51 3.448620 1_555
Ba10 O26 2.777068 1_565
Ba10 O7 2.778112 1_455
Ba10 O52 2.787732 1_555
Ba10 O34 2.859921 1_555
Ba10 O3 2.867257 1_455
Ba10 O10 2.914472 1_555
Ba10 O38 2.940279 1_565
Ba10 O42 3.122028 1_455
Ba10 O30 3.169137 1_465
Ba10 O14 3.310045 1_565
Ba10 O48 3.448620 1_555
Ba11 O27 2.777068 1_545
Ba11 O6 2.778112 1_555
Ba11 O53 2.787732 1_555
Ba11 O35 2.859921 1_555
Ba11 O2 2.867257 1_555
Ba11 O11 2.914472 1_555
Ba11 O39 2.940279 1_545
Ba11 O43 3.122028 1_555
Ba11 O31 3.169137 1_545
Ba11 O15 3.310045 1_545
Ba11 O49 3.448620 1_555
O0 V0 1.710201 1_555
O1 V1 1.710201 1_555
O2 V2 1.710201 1_555
O3 V3 1.710201 1_555
O4 V0 1.726995 1_555
O4 Zn0 2.006551 1_556
O5 V1 1.726995 1_555
O5 Zn1 2.006551 1_555
O6 V2 1.726995 1_555
O6 Zn2 2.006551 1_554
O7 V3 1.726995 1_555
O7 Zn3 2.006551 1_555
O8 V0 1.720253 1_545
O9 V1 1.720253 1_565
O10 V2 1.720253 1_565
O11 V3 1.720253 1_545
O12 V0 1.828310 1_555
O12 V4 1.859899 1_555
O13 V1 1.828310 1_555
O13 V5 1.859899 1_555
O14 V2 1.828310 1_555
O14 V6 1.859899 1_555
O15 V3 1.828310 1_555
O15 V7 1.859899 1_555
O16 V4 1.697497 1_554
O17 V5 1.697497 1_555
O18 V6 1.697497 1_556
O19 V7 1.697497 1_555
O20 V4 1.719075 1_554
O20 Zn0 2.129935 1_555
O21 V5 1.719075 1_555
O21 Zn1 2.129935 1_555
O22 V6 1.719075 1_556
O22 Zn2 2.129935 1_555
O23 V7 1.719075 1_555
O23 Zn3 2.129935 1_555
O24 V4 1.723200 1_555
O25 V5 1.723200 1_555
O26 V6 1.723200 1_555
O27 V7 1.723200 1_555
O28 V8 1.687640 1_455
O29 V9 1.687640 1_555
O30 V10 1.687640 1_655
O31 V11 1.687640 1_555
O32 V8 1.717249 1_555
O33 V9 1.717249 1_555
O34 V10 1.717249 1_555
O35 V11 1.717249 1_555
O36 V8 1.749272 1_555
O36 Zn3 2.019910 1_555
O37 V9 1.749272 1_555
O37 Zn2 2.019910 1_555
O38 V10 1.749272 1_555
O38 Zn1 2.019910 1_555
O39 V11 1.749272 1_555
O39 Zn0 2.019910 1_555
O40 V8 1.838992 1_455
O40 V12 1.860370 1_555
O41 V9 1.838992 1_555
O41 V13 1.860370 1_555
O42 V10 1.838992 1_655
O42 V14 1.860370 1_555
O43 V11 1.838992 1_555
O43 V15 1.860370 1_555
O44 V12 1.682779 1_555
O45 V13 1.682779 1_555
O46 V14 1.682779 1_555
O47 V15 1.682779 1_555
O48 V12 1.697617 1_555
O49 V13 1.697617 1_554
O50 V14 1.697617 1_555
O51 V15 1.697617 1_556
O52 V12 1.789640 1_555
O52 Zn1 2.116203 1_565
O52 Zn3 2.249072 1_455
O53 V13 1.789646 1_554
O53 Zn0 2.116208 1_545
O53 Zn2 2.249058 1_554
O54 V14 1.789640 1_555
O54 Zn3 2.116203 1_545
O54 Zn1 2.249072 1_655
O55 V15 1.789640 1_556
O55 Zn2 2.116203 1_565
O55 Zn0 2.249072 1_556
