# generated using pymatgen
data_Na2FeO3
_symmetry_space_group_name_H-M   'P 1'
_cell_length_a   5.21877864
_cell_length_b   8.28408298
_cell_length_c   6.34022463
_cell_angle_alpha   78.02114541
_cell_angle_beta   77.70832004
_cell_angle_gamma   76.57708461
_symmetry_Int_Tables_number   1
_chemical_formula_structural   Na2FeO3
_chemical_formula_sum   'Na8 Fe4 O12'
_cell_volume   256.87480829
_cell_formula_units_Z   4
loop_
 _symmetry_equiv_pos_site_id
 _symmetry_equiv_pos_as_xyz
  1  'x, y, z'
loop_
 _atom_site_type_symbol
 _atom_site_label
 _atom_site_symmetry_multiplicity
 _atom_site_fract_x
 _atom_site_fract_y
 _atom_site_fract_z
 _atom_site_occupancy
  Na  Na0  1  0.50031541  0.50001648  0.00011787  1
  Na  Na1  1  0.00031491  0.00001839  0.50011737  1
  Na  Na2  1  0.00002310  0.00008008  0.99984437  1
  Na  Na3  1  0.50002098  0.50008104  0.49984562  1
  Na  Na4  1  0.99006713  0.32523760  0.16476798  1
  Na  Na5  1  0.49005712  0.82522652  0.66477878  1
  Na  Na6  1  0.01023884  0.67436415  0.83535563  1
  Na  Na7  1  0.51025637  0.17437078  0.33534819  1
  Fe  Fe0  1  0.50020016  0.83540674  0.16127909  1
  Fe  Fe1  1  0.50010905  0.16496338  0.83810332  1
  Fe  Fe2  1  0.00017690  0.33540653  0.66128065  1
  Fe  Fe3  1  0.00012540  0.66496844  0.33809682  1
  O  O0  1  0.28211818  0.75675264  0.03305041  1
  O  O1  1  0.78213122  0.25675992  0.53301801  1
  O  O2  1  0.71733260  0.24314388  0.96723718  1
  O  O3  1  0.21732170  0.74314273  0.46726546  1
  O  O4  1  0.24442076  0.37423701  0.82463558  1
  O  O5  1  0.74442500  0.87423943  0.32464293  1
  O  O6  1  0.80437005  0.54982440  0.65832751  1
  O  O7  1  0.30437941  0.04983316  0.15831632  1
  O  O8  1  0.75548607  0.62594030  0.17530100  1
  O  O9  1  0.25548523  0.12593620  0.67529219  1
  O  O10  1  0.19531544  0.45002830  0.34198393  1
  O  O11  1  0.69530497  0.95002188  0.84199281  1
loop_
_geom_bond_atom_site_label_1
_geom_bond_atom_site_label_2
_geom_bond_distance
_geom_bond_site_symmetry_2
Na0 O2 2.195233 1_554
Na0 O0 2.195988 1_555
Na0 O8 2.418860 1_555
Na0 O6 2.419277 1_554
Na0 O4 2.422170 1_554
Na0 O10 2.422321 1_555
Na1 O3 2.195206 1_545
Na1 O1 2.195969 1_455
Na1 O9 2.418791 1_555
Na1 O7 2.419359 1_555
Na1 O5 2.422116 1_445
Na1 O11 2.422400 1_445
Na2 O2 2.202627 1_455
Na2 O0 2.202940 1_546
Na2 O7 2.204008 1_556
Na2 O11 2.204224 1_445
Na2 O9 2.384414 1_555
Na2 O5 2.385723 1_446
Na3 O3 2.202628 1_555
Na3 O1 2.202929 1_555
Na3 O6 2.203980 1_555
Na3 O10 2.204188 1_555
Na3 O8 2.384400 1_555
Na3 O4 2.385703 1_555
Na4 O10 2.233202 1_655
Na4 O4 2.290268 1_654
Na4 O1 2.368096 1_555
Na4 O2 2.370403 1_554
Na4 O7 2.483979 1_655
Na4 O8 2.515332 1_555
Na5 O11 2.233218 1_555
Na5 O5 2.290329 1_555
Na5 O0 2.368211 1_556
Na5 O3 2.370283 1_555
Na5 O6 2.483966 1_555
Na5 O9 2.515355 1_565
Na6 O6 2.233207 1_455
Na6 O8 2.289667 1_456
Na6 O3 2.366249 1_555
Na6 O0 2.368981 1_556
Na6 O11 2.487110 1_455
Na6 O4 2.510752 1_555
Na7 O7 2.233241 1_555
Na7 O9 2.289711 1_555
Na7 O2 2.366343 1_554
Na7 O1 2.368852 1_555
Na7 O10 2.487124 1_555
Na7 O5 2.510753 1_545
Fe0 O0 1.827291 1_555
Fe0 O7 1.830733 1_565
Fe0 O5 1.921338 1_555
Fe0 O8 1.925357 1_555
Fe0 O11 2.193084 1_554
Fe0 O3 2.283900 1_555
Fe1 O2 1.825131 1_555
Fe1 O11 1.832806 1_545
Fe1 O9 1.921235 1_555
Fe1 O4 1.925205 1_555
Fe1 O7 2.200090 1_556
Fe1 O1 2.276609 1_555
Fe2 O1 1.827243 1_455
Fe2 O6 1.830653 1_455
Fe2 O4 1.921371 1_555
Fe2 O9 1.925438 1_555
Fe2 O10 2.193217 1_555
Fe2 O2 2.283678 1_455
Fe3 O3 1.825131 1_555
Fe3 O10 1.832787 1_555
Fe3 O8 1.921236 1_455
Fe3 O5 1.925220 1_455
Fe3 O6 2.200262 1_455
Fe3 O0 2.276335 1_555
