# generated using pymatgen
data_H3Os4C12IO12
_symmetry_space_group_name_H-M   'P 1'
_cell_length_a   9.74503972
_cell_length_b   9.74503972
_cell_length_c   17.97643978
_cell_angle_alpha   64.15666800
_cell_angle_beta   64.15666800
_cell_angle_gamma   49.84195879
_symmetry_Int_Tables_number   1
_chemical_formula_structural   H3Os4C12IO12
_chemical_formula_sum   'H6 Os8 C24 I2 O24'
_cell_volume   1144.11207389
_cell_formula_units_Z   2
loop_
 _symmetry_equiv_pos_site_id
 _symmetry_equiv_pos_as_xyz
  1  'x, y, z'
loop_
 _atom_site_type_symbol
 _atom_site_label
 _atom_site_symmetry_multiplicity
 _atom_site_fract_x
 _atom_site_fract_y
 _atom_site_fract_z
 _atom_site_occupancy
  H  H0  1  0.21622200  0.54650700  0.33860800  1
  H  H1  1  0.45349300  0.78377800  0.16139200  1
  H  H2  1  0.78377800  0.45349300  0.66139200  1
  H  H3  1  0.54650700  0.21622200  0.83860800  1
  H  H4  1  0.61542800  0.38457200  0.25000000  1
  H  H5  1  0.38457200  0.61542800  0.75000000  1
  Os  Os0  1  0.31941700  0.76867600  0.12674100  1
  Os  Os1  1  0.23132400  0.68058300  0.37325900  1
  Os  Os2  1  0.68058300  0.23132400  0.87325900  1
  Os  Os3  1  0.76867600  0.31941700  0.62674100  1
  Os  Os4  1  0.40501200  0.42093000  0.25559600  1
  Os  Os5  1  0.57907000  0.59498800  0.24440400  1
  Os  Os6  1  0.59498800  0.57907000  0.74440400  1
  Os  Os7  1  0.42093000  0.40501200  0.75559600  1
  C  C0  1  0.28319100  0.99569600  0.05006300  1
  C  C1  1  0.00430400  0.71680900  0.44993700  1
  C  C2  1  0.71680900  0.00430400  0.94993700  1
  C  C3  1  0.99569600  0.28319100  0.55006300  1
  C  C4  1  0.14743200  0.77712900  0.09664100  1
  C  C5  1  0.22287100  0.85256800  0.40335900  1
  C  C6  1  0.85256800  0.22287100  0.90335900  1
  C  C7  1  0.77712900  0.14743200  0.59664100  1
  C  C8  1  0.52282300  0.63106200  0.04772400  1
  C  C9  1  0.36893800  0.47717700  0.45227600  1
  C  C10  1  0.47717700  0.36893800  0.95227600  1
  C  C11  1  0.63106200  0.52282300  0.54772400  1
  C  C12  1  0.48251700  0.19900200  0.34397100  1
  C  C13  1  0.80099800  0.51748300  0.15602900  1
  C  C14  1  0.51748300  0.80099800  0.65602900  1
  C  C15  1  0.19900200  0.48251700  0.84397100  1
  C  C16  1  0.19952500  0.44511500  0.24968000  1
  C  C17  1  0.55488500  0.80047500  0.25032000  1
  C  C18  1  0.80047500  0.55488500  0.75032000  1
  C  C19  1  0.44511500  0.19952500  0.74968000  1
  C  C20  1  0.56152100  0.28759800  0.16851800  1
  C  C21  1  0.71240200  0.43847900  0.33148200  1
  C  C22  1  0.43847900  0.71240200  0.83148200  1
  C  C23  1  0.28759800  0.56152100  0.66851800  1
  I  I0  1  0.03593600  0.96406400  0.25000000  1
  I  I1  1  0.96406400  0.03593600  0.75000000  1
  O  O0  1  0.26921200  0.12786900  0.00055100  1
  O  O1  1  0.87213100  0.73078800  0.49944900  1
  O  O2  1  0.73078800  0.87213100  0.99944900  1
  O  O3  1  0.12786900  0.26921200  0.50055100  1
  O  O4  1  0.03693700  0.79069500  0.07928700  1
  O  O5  1  0.20930500  0.96306300  0.42071300  1
  O  O6  1  0.96306300  0.20930500  0.92071300  1
  O  O7  1  0.79069500  0.03693700  0.57928700  1
  O  O8  1  0.64914200  0.55321400  0.99643500  1
  O  O9  1  0.44678600  0.35085800  0.50356500  1
  O  O10  1  0.35085800  0.44678600  0.00356500  1
  O  O11  1  0.55321400  0.64914200  0.49643500  1
  O  O12  1  0.53477400  0.06051800  0.39404800  1
  O  O13  1  0.93948200  0.46522600  0.10595200  1
  O  O14  1  0.46522600  0.93948200  0.60595200  1
  O  O15  1  0.06051800  0.53477400  0.89404800  1
  O  O16  1  0.07367100  0.45860900  0.24754200  1
  O  O17  1  0.54139100  0.92632900  0.25245800  1
  O  O18  1  0.92632900  0.54139100  0.75245800  1
  O  O19  1  0.45860900  0.07367100  0.74754200  1
  O  O20  1  0.65970400  0.20078700  0.11704100  1
  O  O21  1  0.79921300  0.34029600  0.38295900  1
  O  O22  1  0.34029600  0.79921300  0.88295900  1
  O  O23  1  0.20078700  0.65970400  0.61704100  1
loop_
_geom_bond_atom_site_label_1
_geom_bond_atom_site_label_2
_geom_bond_distance
_geom_bond_site_symmetry_2
H0 Os1 1.776032 1_555
H0 Os4 1.844953 1_555
H1 Os0 1.776032 1_555
H1 Os5 1.844953 1_555
H2 Os3 1.776032 1_555
H2 Os6 1.844953 1_555
H3 Os2 1.776032 1_555
H3 Os7 1.844953 1_555
H4 Os5 1.804006 1_555
H4 Os4 1.804006 1_555
H5 Os6 1.804006 1_555
H5 Os7 1.804006 1_555
C0 O0 1.161764 1_565
C0 Os0 1.917623 1_555
C1 O1 1.161764 1_455
C1 Os1 1.917623 1_555
C2 O2 1.161764 1_545
C2 Os2 1.917623 1_555
C3 O3 1.161764 1_655
C3 Os3 1.917623 1_555
C4 O4 1.160839 1_555
C4 Os0 1.918917 1_555
C5 O5 1.160839 1_555
C5 Os1 1.918917 1_555
C6 O6 1.160839 1_555
C6 Os2 1.918917 1_555
C7 O7 1.160839 1_555
C7 Os3 1.918917 1_555
C8 O8 1.164791 1_554
C8 Os0 1.876869 1_555
C9 O9 1.164791 1_555
C9 Os1 1.876869 1_555
C10 O10 1.164791 1_556
C10 Os2 1.876869 1_555
C11 O11 1.164791 1_555
C11 Os3 1.876869 1_555
C12 O12 1.159768 1_555
C12 Os4 1.927547 1_555
C13 O13 1.159768 1_555
C13 Os5 1.927547 1_555
C14 O14 1.159768 1_555
C14 Os6 1.927547 1_555
C15 O15 1.159768 1_555
C15 Os7 1.927547 1_555
C16 O16 1.162595 1_555
C16 Os4 1.905746 1_555
C17 O17 1.162595 1_555
C17 Os5 1.905746 1_555
C18 O18 1.162595 1_555
C18 Os6 1.905746 1_555
C19 O19 1.162595 1_555
C19 Os7 1.905746 1_555
C20 O20 1.163636 1_555
C20 Os4 1.897505 1_555
C21 O21 1.163636 1_555
C21 Os5 1.897505 1_555
C22 O22 1.163636 1_555
C22 Os6 1.897505 1_555
C23 O23 1.163636 1_555
C23 Os7 1.897505 1_555
I0 Os0 2.779191 1_555
I0 Os1 2.779191 1_555
I1 Os2 2.779191 1_555
I1 Os3 2.779191 1_555
