# generated using pymatgen
data_Rb2Cd3H10S4O21
_symmetry_space_group_name_H-M   'P 1'
_cell_length_a   10.02181283
_cell_length_b   20.16700085
_cell_length_c   10.12157985
_cell_angle_alpha   101.37641265
_cell_angle_beta   90.00000000
_cell_angle_gamma   90.00000000
_symmetry_Int_Tables_number   1
_chemical_formula_structural   Rb2Cd3H10S4O21
_chemical_formula_sum   'Rb8 Cd12 H40 S16 O84'
_cell_volume   2005.47916132
_cell_formula_units_Z   4
loop_
 _symmetry_equiv_pos_site_id
 _symmetry_equiv_pos_as_xyz
  1  'x, y, z'
loop_
 _atom_site_type_symbol
 _atom_site_label
 _atom_site_symmetry_multiplicity
 _atom_site_fract_x
 _atom_site_fract_y
 _atom_site_fract_z
 _atom_site_occupancy
  Rb  Rb0  1  0.50974862  0.25481307  0.76488970  1
  Rb  Rb1  1  0.49025138  0.74518693  0.23511030  1
  Rb  Rb2  1  0.00974862  0.74518693  0.73511030  1
  Rb  Rb3  1  0.99025138  0.25481307  0.26488970  1
  Rb  Rb4  1  0.33593049  0.87474103  0.63348928  1
  Rb  Rb5  1  0.66406951  0.12525897  0.36651072  1
  Rb  Rb6  1  0.83593049  0.12525897  0.86651072  1
  Rb  Rb7  1  0.16406951  0.87474103  0.13348928  1
  Cd  Cd0  1  0.72131166  0.93771941  0.55945101  1
  Cd  Cd1  1  0.27868834  0.06228059  0.44054899  1
  Cd  Cd2  1  0.22131166  0.06228059  0.94054899  1
  Cd  Cd3  1  0.77868834  0.93771941  0.05945101  1
  Cd  Cd4  1  0.86271386  0.34284062  0.94135301  1
  Cd  Cd5  1  0.13728614  0.65715938  0.05864699  1
  Cd  Cd6  1  0.36271386  0.65715938  0.55864699  1
  Cd  Cd7  1  0.63728614  0.34284062  0.44135301  1
  Cd  Cd8  1  0.65384674  0.67588904  0.83240838  1
  Cd  Cd9  1  0.34615326  0.32411096  0.16759162  1
  Cd  Cd10  1  0.15384674  0.32411096  0.66759162  1
  Cd  Cd11  1  0.84615326  0.67588904  0.33240838  1
  H  H0  1  0.88656159  0.60840455  0.56535611  1
  H  H1  1  0.11343841  0.39159545  0.43464389  1
  H  H2  1  0.38656159  0.39159545  0.93464389  1
  H  H3  1  0.61343841  0.60840455  0.06535611  1
  H  H4  1  0.41018968  0.95246434  0.96851788  1
  H  H5  1  0.58981032  0.04753566  0.03148212  1
  H  H6  1  0.91018968  0.04753566  0.53148212  1
  H  H7  1  0.08981032  0.95246434  0.46851788  1
  H  H8  1  0.67820141  0.41795483  0.82181959  1
  H  H9  1  0.32179859  0.58204517  0.17818041  1
  H  H10  1  0.17820141  0.58204517  0.67818041  1
  H  H11  1  0.82179859  0.41795483  0.32181959  1
  H  H12  1  0.15028388  0.98549827  0.60874350  1
  H  H13  1  0.84971612  0.01450173  0.39125650  1
  H  H14  1  0.65028388  0.01450173  0.89125650  1
  H  H15  1  0.34971612  0.98549827  0.10874350  1
  H  H16  1  0.49357402  0.58660634  0.96431757  1
  H  H17  1  0.50642598  0.41339366  0.03568243  1
  H  H18  1  0.99357402  0.41339366  0.53568243  1
  H  H19  1  0.00642598  0.58660634  0.46431757  1
  H  H20  1  0.99309042  0.43590220  0.79526787  1
  H  H21  1  0.00690958  0.56409780  0.20473213  1
  H  H22  1  0.49309042  0.56409780  0.70473213  1
  H  H23  1  0.50690958  0.43590220  0.29526787  1
  H  H24  1  0.56246500  0.84770861  0.94757376  1
  H  H25  1  0.43753500  0.15229139  0.05242624  1
  H  H26  1  0.06246500  0.15229139  0.55242624  1
  H  H27  1  0.93753500  0.84770861  0.44757376  1
  H  H28  1  0.58711431  0.58265863  0.58618120  1
  H  H29  1  0.41288569  0.41734137  0.41381880  1
  H  H30  1  0.08711431  0.41734137  0.91381880  1
  H  H31  1  0.91288569  0.58265863  0.08618120  1
  H  H32  1  0.74967721  0.47325335  0.92991419  1
  H  H33  1  0.25032279  0.52674665  0.07008581  1
  H  H34  1  0.24967721  0.52674665  0.57008581  1
  H  H35  1  0.75032279  0.47325335  0.42991419  1
  H  H36  1  0.62837963  0.87091888  0.82516262  1
  H  H37  1  0.37162037  0.12908112  0.17483738  1
  H  H38  1  0.12837963  0.12908112  0.67483738  1
  H  H39  1  0.87162037  0.87091888  0.32516262  1
  S  S0  1  0.92130400  0.56408488  0.81974182  1
  S  S1  1  0.07869600  0.43591512  0.18025818  1
  S  S2  1  0.42130400  0.43591512  0.68025818  1
  S  S3  1  0.57869600  0.56408488  0.31974182  1
  S  S4  1  0.33953629  0.74739705  0.88934598  1
  S  S5  1  0.66046371  0.25260295  0.11065402  1
  S  S6  1  0.83953629  0.25260295  0.61065402  1
  S  S7  1  0.16046371  0.74739705  0.38934598  1
  S  S8  1  0.64443274  0.76899000  0.57250302  1
  S  S9  1  0.35556726  0.23101000  0.42749698  1
  S  S10  1  0.14443274  0.23101000  0.92749698  1
  S  S11  1  0.85556726  0.76899000  0.07250302  1
  S  S12  1  0.97430311  0.93808589  0.78657724  1
  S  S13  1  0.02569689  0.06191411  0.21342276  1
  S  S14  1  0.47430311  0.06191411  0.71342276  1
  S  S15  1  0.52569689  0.93808589  0.28657724  1
  O  O0  1  0.50058530  0.74981436  0.55316145  1
  O  O1  1  0.49941470  0.25018564  0.44683855  1
  O  O2  1  0.00058530  0.25018564  0.94683855  1
  O  O3  1  0.99941470  0.74981436  0.05316145  1
  O  O4  1  0.83924657  0.60920790  0.74964993  1
  O  O5  1  0.16075343  0.39079210  0.25035007  1
  O  O6  1  0.33924657  0.39079210  0.75035007  1
  O  O7  1  0.66075343  0.60920790  0.24964993  1
  O  O8  1  0.84234770  0.96660392  0.75321972  1
  O  O9  1  0.15765230  0.03339608  0.24678028  1
  O  O10  1  0.34234770  0.03339608  0.74678028  1
  O  O11  1  0.65765230  0.96660392  0.25321972  1
  O  O12  1  0.70732358  0.42798545  0.91646403  1
  O  O13  1  0.29267642  0.57201455  0.08353597  1
  O  O14  1  0.20732358  0.57201455  0.58353597  1
  O  O15  1  0.79267642  0.42798545  0.41646403  1
  O  O16  1  0.55346277  0.40151906  0.64305894  1
  O  O17  1  0.44653723  0.59848094  0.35694106  1
  O  O18  1  0.05346277  0.59848094  0.85694106  1
  O  O19  1  0.94653723  0.40151906  0.14305894  1
  O  O20  1  0.71560331  0.72525619  0.65141023  1
  O  O21  1  0.28439669  0.27474381  0.34858977  1
  O  O22  1  0.21560331  0.27474381  0.84858977  1
  O  O23  1  0.78439669  0.72525619  0.15141023  1
  O  O24  1  0.53061304  0.60313625  0.66714062  1
  O  O25  1  0.46938696  0.39686375  0.33285938  1
  O  O26  1  0.03061304  0.39686375  0.83285938  1
  O  O27  1  0.96938696  0.60313625  0.16714062  1
  O  O28  1  0.56167227  0.62140911  0.99144845  1
  O  O29  1  0.43832773  0.37859089  0.00855155  1
  O  O30  1  0.06167227  0.37859089  0.50855155  1
  O  O31  1  0.93832773  0.62140911  0.49144845  1
  O  O32  1  0.27773263  0.81045497  0.86755722  1
  O  O33  1  0.72226737  0.18954503  0.13244278  1
  O  O34  1  0.77773263  0.18954503  0.63244278  1
  O  O35  1  0.22226737  0.81045497  0.36755722  1
  O  O36  1  0.65028132  0.84168483  0.64438293  1
  O  O37  1  0.34971868  0.15831517  0.35561707  1
  O  O38  1  0.15028132  0.15831517  0.85561707  1
  O  O39  1  0.84971868  0.84168483  0.14438293  1
  O  O40  1  0.79910208  0.31115630  0.71841212  1
  O  O41  1  0.20089792  0.68884370  0.28158788  1
  O  O42  1  0.29910208  0.68884370  0.78158788  1
  O  O43  1  0.70089792  0.31115630  0.21841212  1
  O  O44  1  0.29514960  0.73168580  0.02213998  1
  O  O45  1  0.70485040  0.26831420  0.97786002  1
  O  O46  1  0.79514960  0.26831420  0.47786002  1
  O  O47  1  0.20485040  0.73168580  0.52213998  1
  O  O48  1  0.79045135  0.76234237  0.93808306  1
  O  O49  1  0.20954865  0.23765763  0.06191694  1
  O  O50  1  0.29045135  0.23765763  0.56191694  1
  O  O51  1  0.70954865  0.76234237  0.43808306  1
  O  O52  1  0.48755997  0.87803025  0.18652932  1
  O  O53  1  0.51244003  0.12196975  0.81347068  1
  O  O54  1  0.98755997  0.12196975  0.31347068  1
  O  O55  1  0.01244003  0.87803025  0.68652932  1
  O  O56  1  0.84919955  0.55336738  0.94365083  1
  O  O57  1  0.15080045  0.44663262  0.05634917  1
  O  O58  1  0.34919955  0.44663262  0.55634917  1
  O  O59  1  0.65080045  0.55336738  0.44365083  1
  O  O60  1  0.48867236  0.75527075  0.89473058  1
  O  O61  1  0.51132764  0.24472925  0.10526942  1
  O  O62  1  0.98867236  0.24472925  0.60526942  1
  O  O63  1  0.01132764  0.75527075  0.39473058  1
  O  O64  1  0.59974844  0.88810629  0.91951408  1
  O  O65  1  0.40025156  0.11189371  0.08048592  1
  O  O66  1  0.09974844  0.11189371  0.58048592  1
  O  O67  1  0.90025156  0.88810629  0.41951408  1
  O  O68  1  0.17345851  0.97003464  0.51247822  1
  O  O69  1  0.82654149  0.02996536  0.48752178  1
  O  O70  1  0.67345851  0.02996536  0.98752178  1
  O  O71  1  0.32654149  0.97003464  0.01247822  1
  O  O72  1  0.94372540  0.49865720  0.72727976  1
  O  O73  1  0.05627460  0.50134280  0.27272024  1
  O  O74  1  0.44372540  0.50134280  0.77272024  1
  O  O75  1  0.55627460  0.49865720  0.22727976  1
  O  O76  1  0.96228013  0.92067283  0.92385561  1
  O  O77  1  0.03771987  0.07932717  0.07614439  1
  O  O78  1  0.46228013  0.07932717  0.57614439  1
  O  O79  1  0.53771987  0.92067283  0.42385561  1
  O  O80  1  0.42270547  0.99266765  0.28794102  1
  O  O81  1  0.57729453  0.00733235  0.71205898  1
  O  O82  1  0.92270547  0.00733235  0.21205898  1
  O  O83  1  0.07729453  0.99266765  0.78794102  1
loop_
_geom_bond_atom_site_label_1
_geom_bond_atom_site_label_2
_geom_bond_distance
_geom_bond_site_symmetry_2
Cd0 O79 2.280560 1_555
Cd0 O8 2.281769 1_555
Cd0 O81 2.363144 1_565
Cd0 O69 2.374306 1_565
Cd0 O36 2.377701 1_555
Cd0 O67 2.379935 1_555
Cd1 O78 2.280560 1_555
Cd1 O9 2.281769 1_555
Cd1 O80 2.363144 1_545
Cd1 O68 2.374306 1_545
Cd1 O37 2.377701 1_555
Cd1 O66 2.379935 1_555
Cd2 O77 2.280560 1_556
Cd2 O10 2.281769 1_555
Cd2 O83 2.363144 1_545
Cd2 O71 2.374306 1_546
Cd2 O38 2.377701 1_555
Cd2 O65 2.379935 1_556
Cd3 O76 2.280560 1_554
Cd3 O11 2.281769 1_555
Cd3 O82 2.363144 1_565
Cd3 O70 2.374306 1_564
Cd3 O39 2.377701 1_555
Cd3 O64 2.379935 1_554
Cd4 O45 2.262197 1_555
Cd4 O19 2.306733 1_556
Cd4 O40 2.310354 1_555
Cd4 O2 2.333395 1_655
Cd4 O12 2.368071 1_555
Cd4 O26 2.386665 1_655
Cd5 O44 2.262197 1_555
Cd5 O18 2.306733 1_554
Cd5 O41 2.310354 1_555
Cd5 O3 2.333395 1_455
Cd5 O13 2.368071 1_555
Cd5 O27 2.386665 1_455
Cd6 O47 2.262197 1_555
Cd6 O17 2.306733 1_555
Cd6 O42 2.310354 1_555
Cd6 O0 2.333395 1_555
Cd6 O14 2.368071 1_555
Cd6 O24 2.386665 1_555
Cd7 O46 2.262197 1_555
Cd7 O16 2.306733 1_555
Cd7 O43 2.310354 1_555
Cd7 O1 2.333395 1_555
Cd7 O15 2.368071 1_555
Cd7 O25 2.386665 1_555
Cd8 O60 2.302725 1_555
Cd8 O48 2.307028 1_555
Cd8 O28 2.312886 1_555
Cd8 O20 2.334517 1_555
Cd8 O24 2.346892 1_555
Cd8 O4 2.349034 1_555
Cd9 O61 2.302725 1_555
Cd9 O49 2.307028 1_555
Cd9 O29 2.312886 1_555
Cd9 O21 2.334517 1_555
Cd9 O25 2.346892 1_555
Cd9 O5 2.349034 1_555
Cd10 O62 2.302725 1_455
Cd10 O50 2.307028 1_555
Cd10 O30 2.312886 1_555
Cd10 O22 2.334517 1_555
Cd10 O26 2.346892 1_555
Cd10 O6 2.349034 1_555
Cd11 O63 2.302725 1_655
Cd11 O51 2.307028 1_555
Cd11 O31 2.312886 1_555
Cd11 O23 2.334517 1_555
Cd11 O27 2.346892 1_555
Cd11 O7 2.349034 1_555
H0 O31 0.987381 1_555
H0 Rb2 3.196208 1_655
H1 O30 0.987381 1_555
H1 Rb3 3.196208 1_455
H2 O29 0.987381 1_556
H2 Rb0 3.196208 1_555
H3 O28 0.987381 1_554
H3 Rb1 3.196208 1_555
H4 O71 0.981883 1_556
H5 O70 0.981883 1_554
H6 O69 0.981883 1_555
H7 O68 0.981883 1_555
H8 O12 0.983526 1_555
H9 O13 0.983526 1_555
H10 O14 0.983526 1_555
H11 O15 0.983526 1_555
H12 O68 0.990299 1_555
H12 Rb4 2.955353 1_555
H13 O69 0.990299 1_555
H13 Rb5 2.955353 1_555
H14 O70 0.990299 1_555
H14 Rb6 2.955353 1_555
H15 O71 0.990299 1_555
H15 Rb7 2.955353 1_555
H16 O28 0.978649 1_555
H17 O29 0.978649 1_555
H18 O30 0.978649 1_655
H19 O31 0.978649 1_455
H20 O26 1.012016 1_655
H20 O72 1.632046 1_555
H21 O27 1.012016 1_455
H21 O73 1.632046 1_555
H22 O24 1.012016 1_555
H22 O74 1.632046 1_555
H23 O25 1.012016 1_555
H23 O75 1.632046 1_555
H24 O64 0.987568 1_555
H25 O65 0.987568 1_555
H26 O66 0.987568 1_555
H27 O67 0.987568 1_555
H28 O24 1.014472 1_555
H28 O59 1.581551 1_555
H29 O25 1.014472 1_555
H29 O58 1.581551 1_555
H30 O26 1.014472 1_555
H30 O57 1.581551 1_556
H31 O27 1.014472 1_555
H31 O56 1.581551 1_554
H32 O12 0.991508 1_555
H33 O13 0.991508 1_555
H34 O14 0.991508 1_555
H35 O15 0.991508 1_555
H36 O64 0.991911 1_555
H37 O65 0.991911 1_555
H38 O66 0.991911 1_555
H39 O67 0.991911 1_555
O0 S8 1.495410 1_555
O0 Rb4 2.987182 1_555
O0 Rb1 3.203754 1_555
O1 S9 1.495410 1_555
O1 Rb5 2.987182 1_555
O1 Rb0 3.203754 1_555
O2 S10 1.495410 1_555
O2 Rb6 2.987182 1_455
O2 Rb3 3.203754 1_456
O3 S11 1.495410 1_555
O3 Rb7 2.987182 1_655
O3 Rb2 3.203754 1_654
O4 S0 1.504118 1_555
O4 Rb2 3.258958 1_655
O5 S1 1.504118 1_555
O5 Rb3 3.258958 1_455
O6 S2 1.504118 1_555
O6 Rb0 3.258958 1_555
O7 S3 1.504118 1_555
O7 Rb1 3.258958 1_555
O8 S12 1.506716 1_555
O8 Rb6 3.179468 1_565
O9 S13 1.506716 1_555
O9 Rb7 3.179468 1_545
O10 S14 1.506716 1_555
O10 Rb4 3.179468 1_545
O11 S15 1.506716 1_555
O11 Rb5 3.179468 1_565
O16 S2 1.508019 1_555
O16 Rb0 3.450397 1_555
O17 S3 1.508019 1_555
O17 Rb1 3.450397 1_555
O18 S0 1.508019 1_455
O18 Rb2 3.450397 1_555
O19 S1 1.508019 1_655
O19 Rb3 3.450397 1_555
O20 S8 1.484044 1_555
O20 Rb2 3.071622 1_655
O21 S9 1.484044 1_555
O21 Rb3 3.071622 1_455
O22 S10 1.484044 1_555
O22 Rb0 3.071622 1_555
O23 S11 1.484044 1_555
O23 Rb1 3.071622 1_555
O28 Rb1 3.224456 1_556
O29 Rb0 3.224456 1_554
O30 Rb3 3.224456 1_455
O31 Rb2 3.224456 1_655
O32 S4 1.469731 1_555
O32 Rb4 2.974141 1_555
O32 Rb7 2.974338 1_556
O32 Rb2 3.169615 1_555
O33 S5 1.469731 1_555
O33 Rb5 2.974141 1_555
O33 Rb6 2.974338 1_554
O33 Rb3 3.169615 1_555
O34 S6 1.469731 1_555
O34 Rb6 2.974141 1_555
O34 Rb5 2.974338 1_555
O34 Rb0 3.169615 1_555
O35 S7 1.469731 1_555
O35 Rb7 2.974141 1_555
O35 Rb4 2.974338 1_555
O35 Rb1 3.169615 1_555
O36 S8 1.503739 1_555
O36 Rb4 3.226511 1_555
O37 S9 1.503739 1_555
O37 Rb5 3.226511 1_555
O38 S10 1.503739 1_555
O38 Rb6 3.226511 1_455
O39 S11 1.503739 1_555
O39 Rb7 3.226511 1_655
O40 S6 1.496694 1_555
O40 Rb0 3.183144 1_555
O41 S7 1.496694 1_555
O41 Rb1 3.183144 1_555
O42 S4 1.496694 1_555
O42 Rb2 3.183144 1_555
O43 S5 1.496694 1_555
O43 Rb3 3.183144 1_555
O44 S4 1.507596 1_554
O44 Rb1 2.883102 1_555
O44 Rb7 3.168022 1_555
O45 S5 1.507596 1_556
O45 Rb0 2.883102 1_555
O45 Rb6 3.168022 1_555
O46 S6 1.507596 1_555
O46 Rb3 2.883102 1_555
O46 Rb5 3.168022 1_555
O47 S7 1.507596 1_555
O47 Rb2 2.883102 1_555
O47 Rb4 3.168022 1_555
O48 S11 1.490956 1_556
O48 Rb2 2.981611 1_655
O49 S10 1.490956 1_554
O49 Rb3 2.981611 1_455
O50 S9 1.490956 1_555
O50 Rb0 2.981611 1_555
O51 S8 1.490956 1_555
O51 Rb1 2.981611 1_555
O52 S15 1.467836 1_555
O52 Rb1 2.817717 1_555
O52 Rb7 3.284641 1_555
O53 S14 1.467836 1_555
O53 Rb0 2.817717 1_555
O53 Rb6 3.284641 1_555
O54 S13 1.467836 1_655
O54 Rb3 2.817717 1_555
O54 Rb5 3.284641 1_555
O55 S12 1.467836 1_455
O55 Rb2 2.817717 1_555
O55 Rb4 3.284641 1_555
O56 S0 1.499579 1_555
O57 S1 1.499579 1_555
O58 S2 1.499579 1_555
O59 S3 1.499579 1_555
O60 S4 1.502877 1_555
O60 Rb1 3.491027 1_556
O61 S5 1.502877 1_555
O61 Rb0 3.491027 1_554
O62 S6 1.502877 1_555
O62 Rb3 3.491027 1_555
O63 S7 1.502877 1_555
O63 Rb2 3.491027 1_555
O68 Rb4 2.961977 1_555
O69 Rb5 2.961977 1_555
O70 Rb6 2.961977 1_555
O71 Rb7 2.961977 1_555
O72 S0 1.476550 1_555
O73 S1 1.476550 1_555
O74 S2 1.476550 1_555
O75 S3 1.476550 1_555
O76 S12 1.503653 1_555
O76 Rb7 3.197694 1_656
O77 S13 1.503653 1_555
O77 Rb6 3.197694 1_454
O78 S14 1.503653 1_555
O78 Rb5 3.197694 1_555
O79 S15 1.503653 1_555
O79 Rb4 3.197694 1_555
O80 S15 1.507051 1_555
O81 S14 1.507051 1_555
O82 S13 1.507051 1_655
O83 S12 1.507051 1_455
