# generated using pymatgen
data_Li9Co7O16
_symmetry_space_group_name_H-M   'P 1'
_cell_length_a   7.68041877
_cell_length_b   7.68041877
_cell_length_c   5.10019797
_cell_angle_alpha   76.01834502
_cell_angle_beta   76.01834502
_cell_angle_gamma   95.72578195
_symmetry_Int_Tables_number   1
_chemical_formula_structural   Li9Co7O16
_chemical_formula_sum   'Li9 Co7 O16'
_cell_volume   279.26813441
_cell_formula_units_Z   1
loop_
 _symmetry_equiv_pos_site_id
 _symmetry_equiv_pos_as_xyz
  1  'x, y, z'
loop_
 _atom_site_type_symbol
 _atom_site_label
 _atom_site_symmetry_multiplicity
 _atom_site_fract_x
 _atom_site_fract_y
 _atom_site_fract_z
 _atom_site_occupancy
  Li  Li0  1  0.24372800  0.24372800  0.01123500  1
  Li  Li1  1  0.75627200  0.75627200  0.98876500  1
  Li  Li2  1  0.36686700  0.12160200  0.50234400  1
  Li  Li3  1  0.87839800  0.63313300  0.49765600  1
  Li  Li4  1  0.50000000  0.00000000  0.00000000  1
  Li  Li5  1  0.00000000  0.50000000  0.00000000  1
  Li  Li6  1  0.63313300  0.87839800  0.49765600  1
  Li  Li7  1  0.12160200  0.36686700  0.50234400  1
  Li  Li8  1  0.00000000  0.00000000  0.50000000  1
  Co  Co0  1  0.87729600  0.12270400  0.00000000  1
  Co  Co1  1  0.12270400  0.87729600  0.00000000  1
  Co  Co2  1  0.37532400  0.62467600  0.00000000  1
  Co  Co3  1  0.50000000  0.50000000  0.50000000  1
  Co  Co4  1  0.62467600  0.37532400  0.00000000  1
  Co  Co5  1  0.24516000  0.75484000  0.50000000  1
  Co  Co6  1  0.75484000  0.24516000  0.50000000  1
  O  O0  1  0.11289500  0.11289500  0.78569400  1
  O  O1  1  0.62297900  0.62297900  0.76354100  1
  O  O2  1  0.25410400  0.97664100  0.26430900  1
  O  O3  1  0.73434900  0.48279900  0.27180400  1
  O  O4  1  0.35368800  0.86131300  0.74595300  1
  O  O5  1  0.86131300  0.35368800  0.74595300  1
  O  O6  1  0.48279900  0.73434900  0.27180400  1
  O  O7  1  0.97664100  0.25410400  0.26430900  1
  O  O8  1  0.37702100  0.37702100  0.23645900  1
  O  O9  1  0.88710500  0.88710500  0.21430600  1
  O  O10  1  0.51720100  0.26565100  0.72819600  1
  O  O11  1  0.02335900  0.74589600  0.73569100  1
  O  O12  1  0.64631200  0.13868700  0.25404700  1
  O  O13  1  0.13868700  0.64631200  0.25404700  1
  O  O14  1  0.74589600  0.02335900  0.73569100  1
  O  O15  1  0.26565100  0.51720100  0.72819600  1
loop_
_geom_bond_atom_site_label_1
_geom_bond_atom_site_label_2
_geom_bond_distance
_geom_bond_site_symmetry_2
Li0 O0 2.063560 1_554
Li0 O8 2.083980 1_555
Li0 O2 2.164072 1_545
Li0 O7 2.164072 1_455
Li0 O10 2.206958 1_554
Li0 O15 2.206958 1_554
Li1 O9 2.063560 1_556
Li1 O1 2.083980 1_555
Li1 O11 2.164072 1_655
Li1 O14 2.164072 1_565
Li1 O6 2.206958 1_556
Li1 O3 2.206958 1_556
Li2 O4 2.061326 1_545
Li2 O8 2.079964 1_555
Li2 O2 2.105308 1_545
Li2 O0 2.112558 1_555
Li2 O12 2.185736 1_555
Li2 O10 2.210804 1_555
Li3 O13 2.061326 1_655
Li3 O1 2.079964 1_555
Li3 O11 2.105308 1_655
Li3 O9 2.112558 1_555
Li3 O5 2.185736 1_555
Li3 O3 2.210804 1_555
Li4 O2 2.000356 1_545
Li4 O14 2.000356 1_554
Li4 O10 2.143129 1_554
Li4 O6 2.143129 1_545
Li4 O12 2.282071 1_555
Li4 O4 2.282071 1_544
Li5 O7 2.000356 1_455
Li5 O11 2.000356 1_554
Li5 O15 2.143129 1_554
Li5 O3 2.143129 1_455
Li5 O13 2.282071 1_555
Li5 O5 2.282071 1_454
Li6 O12 2.061326 1_565
Li6 O1 2.079964 1_555
Li6 O14 2.105308 1_565
Li6 O9 2.112558 1_555
Li6 O4 2.185736 1_555
Li6 O6 2.210804 1_555
Li7 O5 2.061326 1_455
Li7 O8 2.079964 1_555
Li7 O7 2.105308 1_455
Li7 O0 2.112558 1_555
Li7 O13 2.185736 1_555
Li7 O15 2.210804 1_555
Li8 O11 2.080010 1_545
Li8 O14 2.080010 1_455
Li8 O7 2.080010 1_455
Li8 O2 2.080010 1_545
Li8 O0 2.167440 1_555
Li8 O9 2.167440 1_445
Co0 O0 1.893647 1_654
Co0 O9 1.893647 1_545
Co0 O12 1.962324 1_555
Co0 O5 1.962324 1_554
Co0 O7 2.102055 1_555
Co0 O14 2.102055 1_554
Co1 O0 1.893647 1_564
Co1 O9 1.893647 1_455
Co1 O13 1.962324 1_555
Co1 O4 1.962324 1_554
Co1 O2 2.102055 1_555
Co1 O11 2.102055 1_554
Co2 O8 1.994145 1_555
Co2 O1 1.994145 1_554
Co2 O13 2.008980 1_555
Co2 O4 2.008980 1_554
Co2 O6 2.071488 1_555
Co2 O15 2.071488 1_554
Co3 O6 1.929018 1_555
Co3 O3 1.929018 1_555
Co3 O15 1.929018 1_555
Co3 O10 1.929018 1_555
Co3 O1 2.154031 1_555
Co3 O8 2.154031 1_555
Co4 O8 1.994145 1_555
Co4 O1 1.994145 1_554
Co4 O12 2.008980 1_555
Co4 O5 2.008980 1_554
Co4 O3 2.071488 1_555
Co4 O10 2.071488 1_554
Co5 O2 1.816292 1_555
Co5 O11 1.816292 1_555
Co5 O4 1.949871 1_555
Co5 O13 1.949871 1_555
Co5 O15 1.957012 1_555
Co5 O6 1.957012 1_555
Co6 O7 1.816292 1_555
Co6 O14 1.816292 1_555
Co6 O5 1.949871 1_555
Co6 O12 1.949871 1_555
Co6 O10 1.957012 1_555
Co6 O3 1.957012 1_555
