# generated using pymatgen
data_TiCrSO8
_symmetry_space_group_name_H-M   'P 1'
_cell_length_a   9.27800022
_cell_length_b   9.20447218
_cell_length_c   9.05971360
_cell_angle_alpha   57.38768515
_cell_angle_beta   56.33747737
_cell_angle_gamma   55.43298146
_symmetry_Int_Tables_number   1
_chemical_formula_structural   TiCrSO8
_chemical_formula_sum   'Ti3 Cr3 S3 O24'
_cell_volume   501.03136910
_cell_formula_units_Z   3
loop_
 _symmetry_equiv_pos_site_id
 _symmetry_equiv_pos_as_xyz
  1  'x, y, z'
loop_
 _atom_site_type_symbol
 _atom_site_label
 _atom_site_symmetry_multiplicity
 _atom_site_fract_x
 _atom_site_fract_y
 _atom_site_fract_z
 _atom_site_occupancy
  Ti  Ti0  1  0.15534400  0.14297500  0.14209300  1
  Ti  Ti1  1  0.35614100  0.34283300  0.37022800  1
  Ti  Ti2  1  0.63711500  0.64792600  0.63206400  1
  Cr  Cr0  1  0.03517100  0.74969700  0.47222500  1
  Cr  Cr1  1  0.74317100  0.46057200  0.04355900  1
  Cr  Cr2  1  0.25736000  0.52875500  0.96319600  1
  S  S0  1  0.46964700  0.03298000  0.74585700  1
  S  S1  1  0.53054300  0.96880100  0.24793700  1
  S  S2  1  0.97263500  0.25976400  0.52039100  1
  O  O0  1  0.11257600  0.31970300  0.48698000  1
  O  O1  1  0.31598600  0.48520500  0.13197300  1
  O  O2  1  0.04352600  0.96314700  0.30866800  1
  O  O3  1  0.48255600  0.11168000  0.32039500  1
  O  O4  1  0.01577700  0.72504300  0.66841600  1
  O  O5  1  0.24188800  0.58216500  0.39757500  1
  O  O6  1  0.37134600  0.21595100  0.62101800  1
  O  O7  1  0.32712100  0.02257600  0.94412900  1
  O  O8  1  0.59537800  0.36579600  0.24731200  1
  O  O9  1  0.04736700  0.67345600  0.99304400  1
  O  O10  1  0.27904900  0.32475200  0.98383100  1
  O  O11  1  0.34870400  0.98528400  0.27100400  1
  O  O12  1  0.64138700  0.02382700  0.71794200  1
  O  O13  1  0.70465900  0.65071500  0.04500400  1
  O  O14  1  0.96944500  0.30710900  0.03077700  1
  O  O15  1  0.40910300  0.61748300  0.75054700  1
  O  O16  1  0.66475000  0.98891000  0.06184600  1
  O  O17  1  0.60085200  0.78350100  0.38950400  1
  O  O18  1  0.78294900  0.41192400  0.58059800  1
  O  O19  1  0.99627900  0.28053700  0.33211000  1
  O  O20  1  0.49171000  0.88009600  0.70737400  1
  O  O21  1  0.98549200  0.07862500  0.65544100  1
  O  O22  1  0.69863000  0.50658500  0.86281700  1
  O  O23  1  0.86399200  0.70927800  0.50179400  1
loop_
_geom_bond_atom_site_label_1
_geom_bond_atom_site_label_2
_geom_bond_distance
_geom_bond_site_symmetry_2
Cr0 O4 1.581186 1_555
Cr0 O23 1.680458 1_455
Cr0 O5 1.686377 1_555
Cr0 O2 1.723121 1_555
Cr1 O13 1.581397 1_555
Cr1 O22 1.683893 1_554
Cr1 O8 1.692420 1_555
Cr1 O14 1.719836 1_555
Cr2 O9 1.581948 1_555
Cr2 O1 1.675870 1_556
Cr2 O10 1.684013 1_555
Cr2 O15 1.721199 1_555
O0 S2 1.509607 1_455
O0 Ti1 1.980948 1_555
O1 Ti1 1.950335 1_555
O2 Ti0 1.901024 1_565
O3 S1 1.516855 1_545
O3 Ti1 1.929508 1_555
O5 Ti1 1.919705 1_555
O6 S0 1.514843 1_555
O6 Ti1 1.963252 1_555
O7 S0 1.519680 1_555
O7 Ti0 1.988521 1_556
O8 Ti1 1.936495 1_555
O10 Ti0 1.985304 1_556
O11 S1 1.505281 1_555
O11 Ti0 2.056671 1_565
O12 S0 1.426146 1_555
O14 Ti0 1.898292 1_655
O15 Ti2 1.880714 1_555
O16 S1 1.423019 1_555
O17 S1 1.512144 1_555
O17 Ti2 1.971513 1_555
O18 S2 1.522708 1_555
O18 Ti2 1.955523 1_555
O19 S2 1.508491 1_555
O19 Ti0 2.038971 1_655
O20 S0 1.505511 1_565
O20 Ti2 2.032755 1_555
O21 S2 1.424189 1_555
O22 Ti2 1.984247 1_555
O23 Ti2 2.004755 1_555
