# generated using pymatgen
data_Pa
_symmetry_space_group_name_H-M   'P 1'
_cell_length_a   6.34081758
_cell_length_b   6.34081484
_cell_length_c   11.37442822
_cell_angle_alpha   90.00000000
_cell_angle_beta   90.00000000
_cell_angle_gamma   119.99999275
_symmetry_Int_Tables_number   1
_chemical_formula_structural   Pa
_chemical_formula_sum   Pa16
_cell_volume   396.05050193
_cell_formula_units_Z   16
loop_
 _symmetry_equiv_pos_site_id
 _symmetry_equiv_pos_as_xyz
  1  'x, y, z'
loop_
 _atom_site_type_symbol
 _atom_site_label
 _atom_site_symmetry_multiplicity
 _atom_site_fract_x
 _atom_site_fract_y
 _atom_site_fract_z
 _atom_site_occupancy
  Pa  Pa0_0  1  0.16666650  0.33333300  0.12500000  1
  Pa  Pa0_1  1  0.16666650  0.33333300  0.62500000  1
  Pa  Pa0_2  1  0.16666650  0.83333300  0.12500000  1
  Pa  Pa0_3  1  0.16666650  0.83333300  0.62500000  1
  Pa  Pa0_4  1  0.66666650  0.33333300  0.12500000  1
  Pa  Pa0_5  1  0.66666650  0.33333300  0.62500000  1
  Pa  Pa0_6  1  0.66666650  0.83333300  0.12500000  1
  Pa  Pa0_7  1  0.66666650  0.83333300  0.62500000  1
  Pa  Pa1_0  1  0.33333350  0.16666650  0.37500000  1
  Pa  Pa1_1  1  0.33333350  0.16666650  0.87500000  1
  Pa  Pa1_2  1  0.33333350  0.66666650  0.37500000  1
  Pa  Pa1_3  1  0.33333350  0.66666650  0.87500000  1
  Pa  Pa1_4  1  0.83333350  0.16666650  0.37500000  1
  Pa  Pa1_5  1  0.83333350  0.16666650  0.87500000  1
  Pa  Pa1_6  1  0.83333350  0.66666650  0.37500000  1
  Pa  Pa1_7  1  0.83333350  0.66666650  0.87500000  1
loop_
_geom_bond_atom_site_label_1
_geom_bond_atom_site_label_2
_geom_bond_distance
_geom_bond_site_symmetry_2
Pa0_0 Pa0_2 3.170407 1_555
Pa0_0 Pa0_2 3.170407 1_545
Pa0_0 Pa0_6 3.170408 1_445
Pa0_0 Pa0_6 3.170408 1_555
Pa0_0 Pa0_4 3.170409 1_555
Pa0_0 Pa0_4 3.170409 1_455
Pa0_0 Pa1_5 3.381803 1_454
Pa0_0 Pa1_4 3.381803 1_455
Pa0_0 Pa1_2 3.381804 1_555
Pa0_0 Pa1_3 3.381804 1_554
Pa0_0 Pa1_1 3.381804 1_554
Pa0_0 Pa1_0 3.381804 1_555
Pa0_1 Pa0_3 3.170407 1_545
Pa0_1 Pa0_3 3.170407 1_555
Pa0_1 Pa0_7 3.170408 1_555
Pa0_1 Pa0_7 3.170408 1_445
Pa0_1 Pa0_5 3.170409 1_555
Pa0_1 Pa0_5 3.170409 1_455
Pa0_1 Pa1_4 3.381803 1_455
Pa0_1 Pa1_5 3.381803 1_455
Pa0_1 Pa1_2 3.381804 1_555
Pa0_1 Pa1_3 3.381804 1_555
Pa0_1 Pa1_1 3.381804 1_555
Pa0_1 Pa1_0 3.381804 1_555
Pa0_2 Pa0_4 3.170408 1_455
Pa0_2 Pa0_4 3.170408 1_565
Pa0_2 Pa0_6 3.170409 1_455
Pa0_2 Pa0_6 3.170409 1_555
Pa0_2 Pa1_7 3.381803 1_454
Pa0_2 Pa1_6 3.381803 1_455
Pa0_2 Pa1_1 3.381804 1_564
Pa0_2 Pa1_0 3.381804 1_565
Pa0_2 Pa1_2 3.381804 1_555
Pa0_2 Pa1_3 3.381804 1_554
Pa0_3 Pa0_5 3.170408 1_455
Pa0_3 Pa0_5 3.170408 1_565
Pa0_3 Pa0_7 3.170409 1_455
Pa0_3 Pa0_7 3.170409 1_555
Pa0_3 Pa1_6 3.381803 1_455
Pa0_3 Pa1_7 3.381803 1_455
Pa0_3 Pa1_1 3.381804 1_565
Pa0_3 Pa1_0 3.381804 1_565
Pa0_3 Pa1_2 3.381804 1_555
Pa0_3 Pa1_3 3.381804 1_555
Pa0_4 Pa0_6 3.170407 1_555
Pa0_4 Pa0_6 3.170407 1_545
Pa0_4 Pa1_1 3.381803 1_554
Pa0_4 Pa1_0 3.381803 1_555
Pa0_4 Pa1_6 3.381804 1_555
Pa0_4 Pa1_7 3.381804 1_554
Pa0_4 Pa1_5 3.381804 1_554
Pa0_4 Pa1_4 3.381804 1_555
Pa0_5 Pa0_7 3.170407 1_555
Pa0_5 Pa0_7 3.170407 1_545
Pa0_5 Pa1_1 3.381803 1_555
Pa0_5 Pa1_0 3.381803 1_555
Pa0_5 Pa1_7 3.381804 1_555
Pa0_5 Pa1_6 3.381804 1_555
Pa0_5 Pa1_5 3.381804 1_555
Pa0_5 Pa1_4 3.381804 1_555
Pa0_6 Pa1_2 3.381803 1_555
Pa0_6 Pa1_3 3.381803 1_554
Pa0_6 Pa1_4 3.381804 1_565
Pa0_6 Pa1_5 3.381804 1_564
Pa0_6 Pa1_6 3.381804 1_555
Pa0_6 Pa1_7 3.381804 1_554
Pa0_7 Pa1_2 3.381803 1_555
Pa0_7 Pa1_3 3.381803 1_555
Pa0_7 Pa1_4 3.381804 1_565
Pa0_7 Pa1_5 3.381804 1_565
Pa0_7 Pa1_6 3.381804 1_555
Pa0_7 Pa1_7 3.381804 1_555
Pa1_0 Pa1_2 3.170407 1_545
Pa1_0 Pa1_2 3.170407 1_555
Pa1_0 Pa1_6 3.170408 1_555
Pa1_0 Pa1_6 3.170408 1_445
Pa1_0 Pa1_4 3.170409 1_455
Pa1_0 Pa1_4 3.170409 1_555
Pa1_1 Pa1_3 3.170407 1_545
Pa1_1 Pa1_3 3.170407 1_555
Pa1_1 Pa1_7 3.170408 1_445
Pa1_1 Pa1_7 3.170408 1_555
Pa1_1 Pa1_5 3.170409 1_455
Pa1_1 Pa1_5 3.170409 1_555
Pa1_2 Pa1_4 3.170408 1_455
Pa1_2 Pa1_4 3.170408 1_565
Pa1_2 Pa1_6 3.170409 1_455
Pa1_2 Pa1_6 3.170409 1_555
Pa1_3 Pa1_5 3.170408 1_565
Pa1_3 Pa1_5 3.170408 1_455
Pa1_3 Pa1_7 3.170409 1_455
Pa1_3 Pa1_7 3.170409 1_555
Pa1_4 Pa1_6 3.170407 1_555
Pa1_4 Pa1_6 3.170407 1_545
Pa1_5 Pa1_7 3.170407 1_555
Pa1_5 Pa1_7 3.170407 1_545
