# generated using pymatgen
data_Ru2W3
_symmetry_space_group_name_H-M   'P 1'
_cell_length_a   4.98114800
_cell_length_b   9.63760982
_cell_length_c   9.63760982
_cell_angle_alpha   90.33351607
_cell_angle_beta   90.00000000
_cell_angle_gamma   90.00000000
_symmetry_Int_Tables_number   1
_chemical_formula_structural   Ru2W3
_chemical_formula_sum   'Ru12 W18'
_cell_volume   462.65873663
_cell_formula_units_Z   6
loop_
 _symmetry_equiv_pos_site_id
 _symmetry_equiv_pos_as_xyz
  1  'x, y, z'
loop_
 _atom_site_type_symbol
 _atom_site_label
 _atom_site_symmetry_multiplicity
 _atom_site_fract_x
 _atom_site_fract_y
 _atom_site_fract_z
 _atom_site_occupancy
  Ru  Ru0  1  0.50814000  0.50000000  0.50000000  1
  Ru  Ru1  1  0.00100400  0.00000000  0.00000000  1
  Ru  Ru2  1  0.49828600  0.43369600  0.23567600  1
  Ru  Ru3  1  0.49828600  0.56630400  0.76432400  1
  Ru  Ru4  1  0.00093200  0.06785800  0.73631800  1
  Ru  Ru5  1  0.00093200  0.93214200  0.26368200  1
  Ru  Ru6  1  0.49828600  0.23567600  0.43369600  1
  Ru  Ru7  1  0.49828600  0.76432400  0.56630400  1
  Ru  Ru8  1  0.00093200  0.73631800  0.06785800  1
  Ru  Ru9  1  0.00093200  0.26368200  0.93214200  1
  Ru  Ru10  1  0.25032400  0.31772600  0.68227400  1
  Ru  Ru11  1  0.25032400  0.68227400  0.31772600  1
  W  W0  1  0.49833900  0.10234500  0.89765500  1
  W  W1  1  0.49833900  0.89765500  0.10234500  1
  W  W2  1  0.99904600  0.39708900  0.39708900  1
  W  W3  1  0.99904600  0.60291100  0.60291100  1
  W  W4  1  0.49852500  0.37037200  0.96039000  1
  W  W5  1  0.49852500  0.62962800  0.03961000  1
  W  W6  1  0.00144300  0.13176800  0.46460300  1
  W  W7  1  0.00144300  0.86823200  0.53539700  1
  W  W8  1  0.49852500  0.96039000  0.37037200  1
  W  W9  1  0.49852500  0.03961000  0.62962800  1
  W  W10  1  0.00144300  0.46460300  0.13176800  1
  W  W11  1  0.00144300  0.53539700  0.86823200  1
  W  W12  1  0.74888000  0.18089500  0.18089500  1
  W  W13  1  0.74888000  0.81910500  0.81910500  1
  W  W14  1  0.74977200  0.68067900  0.31932100  1
  W  W15  1  0.74977200  0.31932100  0.68067900  1
  W  W16  1  0.25069400  0.81782400  0.81782400  1
  W  W17  1  0.25069400  0.18217600  0.18217600  1
loop_
_geom_bond_atom_site_label_1
_geom_bond_atom_site_label_2
_geom_bond_distance
_geom_bond_site_symmetry_2
Ru0 Ru3 2.623224 1_555
Ru0 Ru7 2.623224 1_555
Ru0 Ru6 2.623224 1_555
Ru0 Ru2 2.623224 1_555
Ru0 W15 2.747419 1_555
Ru0 W14 2.747419 1_555
Ru0 Ru10 2.803040 1_555
Ru0 Ru11 2.803040 1_555
Ru0 W3 2.816970 1_555
Ru0 W2 2.816970 1_555
Ru0 W3 2.895962 1_455
Ru0 W2 2.895962 1_455
Ru1 Ru5 2.627751 1_545
Ru1 Ru9 2.627751 1_554
Ru1 Ru8 2.627751 1_545
Ru1 Ru4 2.627751 1_554
Ru1 W12 2.760557 1_455
Ru1 W13 2.760557 1_444
Ru1 W16 2.770607 1_544
Ru1 W17 2.770607 1_555
Ru1 W1 2.845023 1_545
Ru1 W0 2.845023 1_554
Ru1 W1 2.868170 1_445
Ru1 W0 2.868170 1_454
Ru2 W5 2.679160 1_555
Ru2 W10 2.686992 1_555
Ru2 Ru6 2.706785 1_555
Ru2 W10 2.715987 1_655
Ru2 W4 2.718923 1_554
Ru2 W17 2.765563 1_555
Ru2 W12 2.785303 1_555
Ru2 W14 2.804051 1_555
Ru2 W2 2.955500 1_455
Ru2 W2 2.961873 1_555
Ru3 W4 2.679160 1_555
Ru3 W11 2.686992 1_555
Ru3 Ru7 2.706785 1_555
Ru3 W11 2.715987 1_655
Ru3 W5 2.718923 1_556
Ru3 W16 2.765563 1_555
Ru3 W13 2.785303 1_555
Ru3 W15 2.804051 1_555
Ru3 W3 2.955500 1_455
Ru3 W3 2.961873 1_555
Ru4 Ru9 2.661231 1_555
Ru4 W6 2.693635 1_555
Ru4 W9 2.696573 1_555
Ru4 W9 2.718631 1_455
Ru4 W7 2.721715 1_545
Ru4 W15 2.782300 1_455
Ru4 W13 2.825352 1_445
Ru4 W16 2.827308 1_545
Ru4 W0 2.942952 1_555
Ru4 W0 2.964733 1_455
Ru5 Ru8 2.661231 1_555
Ru5 W7 2.693635 1_555
Ru5 W8 2.696573 1_555
Ru5 W8 2.718631 1_455
Ru5 W6 2.721715 1_565
Ru5 W14 2.782300 1_455
Ru5 W12 2.825352 1_465
Ru5 W17 2.827308 1_565
Ru5 W1 2.942952 1_555
Ru5 W1 2.964733 1_455
Ru6 W9 2.679160 1_555
Ru6 W6 2.686992 1_555
Ru6 W6 2.715987 1_655
Ru6 W8 2.718923 1_545
Ru6 W17 2.765563 1_555
Ru6 W12 2.785303 1_555
Ru6 W15 2.804051 1_555
Ru6 W2 2.955500 1_455
Ru6 W2 2.961873 1_555
Ru7 W8 2.679160 1_555
Ru7 W7 2.686992 1_555
Ru7 W7 2.715987 1_655
Ru7 W9 2.718923 1_565
Ru7 W16 2.765563 1_555
Ru7 W13 2.785303 1_555
Ru7 W14 2.804051 1_555
Ru7 W3 2.955500 1_455
Ru7 W3 2.961873 1_555
Ru8 W10 2.693635 1_555
Ru8 W5 2.696573 1_555
Ru8 W5 2.718631 1_455
Ru8 W11 2.721715 1_554
Ru8 W14 2.782300 1_455
Ru8 W13 2.825352 1_454
Ru8 W16 2.827308 1_554
Ru8 W1 2.942952 1_555
Ru8 W1 2.964733 1_455
Ru9 W11 2.693635 1_555
Ru9 W4 2.696573 1_555
Ru9 W4 2.718631 1_455
Ru9 W10 2.721715 1_556
Ru9 W15 2.782300 1_455
Ru9 W12 2.825352 1_456
Ru9 W17 2.827308 1_556
Ru9 W0 2.942952 1_555
Ru9 W0 2.964733 1_455
Ru10 W15 2.487920 1_555
Ru10 W15 2.493419 1_455
Ru10 Ru4 2.761918 1_555
Ru10 Ru9 2.761918 1_555
Ru10 Ru6 2.805028 1_555
Ru10 Ru3 2.805028 1_555
Ru10 W9 2.992408 1_555
Ru10 W4 2.992408 1_555
Ru10 W6 3.017606 1_555
Ru10 W11 3.017606 1_555
Ru10 W2 3.119358 1_455
Ru10 W3 3.119358 1_455
Ru10 W0 3.192791 1_555
Ru11 W14 2.487920 1_555
Ru11 W14 2.493419 1_455
Ru11 Ru8 2.761918 1_555
Ru11 Ru5 2.761918 1_555
Ru11 Ru2 2.805028 1_555
Ru11 Ru7 2.805028 1_555
Ru11 W5 2.992408 1_555
Ru11 W8 2.992408 1_555
Ru11 W10 3.017606 1_555
Ru11 W7 3.017606 1_555
Ru11 W3 3.119358 1_455
Ru11 W2 3.119358 1_455
Ru11 W1 3.192791 1_555
W0 W9 2.649526 1_555
W0 W4 2.649526 1_555
W0 W1 2.797959 1_546
W0 W13 3.091613 1_545
W0 W12 3.091613 1_556
W0 W16 3.099705 1_545
W0 W17 3.099705 1_556
W0 W15 3.219492 1_555
W1 W5 2.649526 1_555
W1 W8 2.649526 1_555
W1 W13 3.091613 1_554
W1 W12 3.091613 1_565
W1 W16 3.099705 1_554
W1 W17 3.099705 1_565
W1 W14 3.219492 1_555
W2 W6 2.642243 1_655
W2 W3 2.797103 1_555
W3 W7 2.642243 1_655
W4 W5 2.608401 1_556
W6 W7 2.633735 1_545
W6 W9 3.076622 1_555
W6 W9 3.100065 1_455
W6 W8 3.109034 1_545
W6 W8 3.132235 1_445
W7 W8 3.076622 1_555
W7 W8 3.100065 1_455
W7 W9 3.109034 1_565
W7 W9 3.132235 1_465
W8 W9 2.608401 1_565
W10 W11 2.633735 1_554
W10 W2 2.642243 1_455
W10 W14 3.021858 1_455
W10 W17 3.033435 1_555
W10 W12 3.049288 1_455
W10 W5 3.076622 1_555
W10 W5 3.100065 1_455
W10 W4 3.109034 1_554
W10 W4 3.132235 1_454
W11 W3 2.642243 1_455
W11 W15 3.021858 1_455
W11 W16 3.033435 1_555
W11 W13 3.049288 1_455
W11 W4 3.076622 1_555
W11 W4 3.100065 1_455
W11 W5 3.109034 1_556
W11 W5 3.132235 1_456
W12 W17 2.481599 1_555
W12 W17 2.499670 1_655
W12 W6 3.049288 1_655
W12 W8 3.074282 1_545
W12 W4 3.074282 1_554
W12 W2 3.191392 1_555
W13 W16 2.481599 1_555
W13 W16 2.499670 1_655
W13 W7 3.049288 1_655
W13 W5 3.074282 1_556
W13 W9 3.074282 1_565
W13 W3 3.191392 1_555
W14 W5 3.009971 1_555
W14 W8 3.009971 1_555
W14 W7 3.021858 1_655
W14 W2 3.097957 1_555
W14 W3 3.097957 1_555
W15 W9 3.009971 1_555
W15 W4 3.009971 1_555
W15 W6 3.021858 1_655
W15 W2 3.097957 1_555
W15 W3 3.097957 1_555
W16 W7 3.033435 1_555
W16 W9 3.070449 1_565
W16 W5 3.070449 1_556
W16 W3 3.178276 1_455
W17 W6 3.033435 1_555
W17 W8 3.070449 1_545
W17 W4 3.070449 1_554
W17 W2 3.178276 1_455
