# generated using pymatgen
data_Ba3SrCoCu3O10
_symmetry_space_group_name_H-M   'P 1'
_cell_length_a   11.42472549
_cell_length_b   11.41716939
_cell_length_c   18.04246999
_cell_angle_alpha   108.42399399
_cell_angle_beta   108.48131282
_cell_angle_gamma   89.86002642
_symmetry_Int_Tables_number   1
_chemical_formula_structural   Ba3SrCoCu3O10
_chemical_formula_sum   'Ba24 Sr8 Co8 Cu24 O80'
_cell_volume   2105.11415135
_cell_formula_units_Z   8
loop_
 _symmetry_equiv_pos_site_id
 _symmetry_equiv_pos_as_xyz
  1  'x, y, z'
loop_
 _atom_site_type_symbol
 _atom_site_label
 _atom_site_symmetry_multiplicity
 _atom_site_fract_x
 _atom_site_fract_y
 _atom_site_fract_z
 _atom_site_occupancy
  Ba  Ba0  1  0.30247132  0.05437394  0.11863043  1
  Ba  Ba1  1  0.30412881  0.06112321  0.62018239  1
  Ba  Ba2  1  0.30689230  0.55218008  0.11944574  1
  Ba  Ba3  1  0.80571819  0.05743123  0.12140195  1
  Ba  Ba4  1  0.80497538  0.55490700  0.12010916  1
  Ba  Ba5  1  0.80434659  0.55184789  0.61621890  1
  Ba  Ba6  1  0.18638720  0.44764691  0.38395838  1
  Ba  Ba7  1  0.18630402  0.95217409  0.38649877  1
  Ba  Ba8  1  0.18317181  0.94517661  0.87739213  1
  Ba  Ba9  1  0.69366981  0.44590577  0.38554524  1
  Ba  Ba10  1  0.68424828  0.44261591  0.87886730  1
  Ba  Ba11  1  0.69250540  0.94698314  0.38458978  1
  Ba  Ba12  1  0.68354339  0.94402183  0.87832828  1
  Ba  Ba13  1  0.05824904  0.31291385  0.11850890  1
  Ba  Ba14  1  0.05923265  0.81425309  0.11986957  1
  Ba  Ba15  1  0.55167529  0.31688621  0.12017989  1
  Ba  Ba16  1  0.55072524  0.81260817  0.11957999  1
  Ba  Ba17  1  0.55770192  0.81004820  0.61883709  1
  Ba  Ba18  1  0.43753010  0.18839473  0.38426928  1
  Ba  Ba19  1  0.44174533  0.68863586  0.38542488  1
  Ba  Ba20  1  0.43841324  0.69043400  0.87979255  1
  Ba  Ba21  1  0.93458156  0.18744753  0.87875520  1
  Ba  Ba22  1  0.93992553  0.68785352  0.38476182  1
  Ba  Ba23  1  0.93303495  0.68676805  0.87800353  1
  Sr  Sr0  1  0.30394124  0.55310785  0.60782693  1
  Sr  Sr1  1  0.80767987  0.05427527  0.61182797  1
  Sr  Sr2  1  0.19186504  0.43571349  0.88602701  1
  Sr  Sr3  1  0.05272399  0.30781001  0.61153204  1
  Sr  Sr4  1  0.05504276  0.80236981  0.60952685  1
  Sr  Sr5  1  0.54873233  0.30766409  0.60864514  1
  Sr  Sr6  1  0.44064546  0.19487781  0.88764824  1
  Sr  Sr7  1  0.94470963  0.19500425  0.39347359  1
  Co  Co0  1  0.99882741  0.00478978  0.99846974  1
  Co  Co1  1  0.99759421  0.50092272  0.99745959  1
  Co  Co2  1  0.49605481  0.00385956  0.99880180  1
  Co  Co3  1  0.50156564  0.00462562  0.50649936  1
  Co  Co4  1  0.48738354  0.49132526  0.99470703  1
  Co  Co5  1  0.24223099  0.74220281  0.99055142  1
  Co  Co6  1  0.74455446  0.24995082  0.00004089  1
  Co  Co7  1  0.74861385  0.75158047  0.00470865  1
  Cu  Cu0  1  0.00115251  0.00524127  0.50836751  1
  Cu  Cu1  1  0.00379854  0.50341447  0.50938049  1
  Cu  Cu2  1  0.49854938  0.50031615  0.50307272  1
  Cu  Cu3  1  0.24510779  0.24574303  0.99528706  1
  Cu  Cu4  1  0.24928960  0.25625440  0.50682821  1
  Cu  Cu5  1  0.24953619  0.75328343  0.50670683  1
  Cu  Cu6  1  0.75215858  0.25160179  0.50614589  1
  Cu  Cu7  1  0.75475335  0.75430573  0.50915543  1
  Cu  Cu8  1  0.11833746  0.10863292  0.25072908  1
  Cu  Cu9  1  0.11733928  0.10611870  0.74520947  1
  Cu  Cu10  1  0.12001993  0.60644229  0.24791605  1
  Cu  Cu11  1  0.12109043  0.59501925  0.75101867  1
  Cu  Cu12  1  0.62038155  0.10566023  0.24836826  1
  Cu  Cu13  1  0.61562219  0.11025936  0.74975164  1
  Cu  Cu14  1  0.62191991  0.60685386  0.24921839  1
  Cu  Cu15  1  0.61027198  0.59378170  0.74335217  1
  Cu  Cu16  1  0.37364260  0.39484560  0.25392048  1
  Cu  Cu17  1  0.36203079  0.39606316  0.74888910  1
  Cu  Cu18  1  0.37156085  0.89475388  0.25387303  1
  Cu  Cu19  1  0.36606555  0.89899008  0.75131287  1
  Cu  Cu20  1  0.87030609  0.38800014  0.24698321  1
  Cu  Cu21  1  0.86755073  0.39108207  0.74824445  1
  Cu  Cu22  1  0.87093782  0.89557099  0.24991737  1
  Cu  Cu23  1  0.86944080  0.90008023  0.74767604  1
  O  O0  1  0.11592156  0.13101788  0.50005292  1
  O  O1  1  0.12158668  0.12669369  0.99377646  1
  O  O2  1  0.12314845  0.62636983  0.50315066  1
  O  O3  1  0.13081042  0.63003697  0.99266825  1
  O  O4  1  0.61587818  0.11875271  0.50274224  1
  O  O5  1  0.62555797  0.13609421  0.99422955  1
  O  O6  1  0.62256582  0.62555840  0.50053093  1
  O  O7  1  0.63254793  0.63761718  0.99589902  1
  O  O8  1  0.10967902  0.38749414  0.99954546  1
  O  O9  1  0.12503696  0.37862756  0.50832072  1
  O  O10  1  0.10477652  0.88382789  0.99991184  1
  O  O11  1  0.12758163  0.87832864  0.50950463  1
  O  O12  1  0.60924506  0.38700636  0.00066133  1
  O  O13  1  0.62545807  0.36948233  0.50609618  1
  O  O14  1  0.60942321  0.88891070  0.00297049  1
  O  O15  1  0.63389874  0.88089176  0.51102245  1
  O  O16  1  0.37062367  0.13131657  0.50136694  1
  O  O17  1  0.37990288  0.11270882  0.99383190  1
  O  O18  1  0.36773856  0.62803294  0.50032574  1
  O  O19  1  0.37707120  0.60796611  0.99042813  1
  O  O20  1  0.87026521  0.12507365  0.49936817  1
  O  O21  1  0.87638307  0.10893375  0.99517446  1
  O  O22  1  0.87655118  0.62525244  0.50179638  1
  O  O23  1  0.88059253  0.61156611  0.99528367  1
  O  O24  1  0.36502323  0.36924629  0.99863422  1
  O  O25  1  0.37409202  0.37967080  0.50723004  1
  O  O26  1  0.35606760  0.86326952  0.00148138  1
  O  O27  1  0.38613981  0.89007340  0.50797168  1
  O  O28  1  0.85825315  0.36348030  0.00125128  1
  O  O29  1  0.88057985  0.37458500  0.50693635  1
  O  O30  1  0.85628502  0.86273293  0.00150285  1
  O  O31  1  0.88101043  0.88147214  0.51169985  1
  O  O32  1  0.06346819  0.08565604  0.13772731  1
  O  O33  1  0.06341916  0.09849827  0.63680648  1
  O  O34  1  0.06437788  0.58438374  0.13506432  1
  O  O35  1  0.08294869  0.58942990  0.64357857  1
  O  O36  1  0.56246019  0.08835140  0.13615944  1
  O  O37  1  0.56871027  0.09841164  0.64047242  1
  O  O38  1  0.56425316  0.58623130  0.13710700  1
  O  O39  1  0.56022989  0.57765586  0.63274610  1
  O  O40  1  0.43088154  0.41536424  0.36541698  1
  O  O41  1  0.42906304  0.40513981  0.85960115  1
  O  O42  1  0.43117064  0.91691394  0.36527303  1
  O  O43  1  0.42606221  0.91991285  0.86399630  1
  O  O44  1  0.92603689  0.39573384  0.35443290  1
  O  O45  1  0.93424973  0.41594067  0.86122075  1
  O  O46  1  0.92642882  0.91025364  0.35925303  1
  O  O47  1  0.92708264  0.91415498  0.85823138  1
  O  O48  1  0.31748582  0.30135200  0.14307100  1
  O  O49  1  0.31811699  0.30669901  0.63792299  1
  O  O50  1  0.31688464  0.79921930  0.14339953  1
  O  O51  1  0.32291643  0.79731242  0.64338876  1
  O  O52  1  0.81258896  0.30036357  0.13374824  1
  O  O53  1  0.82441383  0.29209411  0.63946581  1
  O  O54  1  0.82093184  0.80110283  0.13728599  1
  O  O55  1  0.82791443  0.80046363  0.63988308  1
  O  O56  1  0.17589140  0.20133905  0.36051457  1
  O  O57  1  0.18768316  0.19755784  0.85623799  1
  O  O58  1  0.17586239  0.70153893  0.35698300  1
  O  O59  1  0.18099650  0.69528838  0.86177266  1
  O  O60  1  0.68511895  0.19568989  0.35851650  1
  O  O61  1  0.67537777  0.20006383  0.86190608  1
  O  O62  1  0.67902660  0.69930515  0.35858054  1
  O  O63  1  0.67561093  0.69275544  0.85286783  1
  O  O64  1  0.49019858  0.00646510  0.24970567  1
  O  O65  1  0.48197725  0.02690498  0.75916351  1
  O  O66  1  0.49473248  0.50294507  0.25027298  1
  O  O67  1  0.46306909  0.52323571  0.74273178  1
  O  O68  1  0.98708799  0.02201423  0.25928332  1
  O  O69  1  0.97574526  0.02446981  0.74344649  1
  O  O70  1  0.99381789  0.50171829  0.24960448  1
  O  O71  1  0.97764221  0.51530079  0.74816207  1
  O  O72  1  0.24401267  0.49706680  0.24958320  1
  O  O73  1  0.21182710  0.45202650  0.75238409  1
  O  O74  1  0.23895939  0.99425657  0.24993000  1
  O  O75  1  0.21776990  0.97133625  0.73667414  1
  O  O76  1  0.74508559  0.49620544  0.25017611  1
  O  O77  1  0.71859764  0.46385808  0.73913626  1
  O  O78  1  0.73556314  0.98773261  0.24552866  1
  O  O79  1  0.73434813  0.99317004  0.74799755  1
loop_
_geom_bond_atom_site_label_1
_geom_bond_atom_site_label_2
_geom_bond_distance
_geom_bond_site_symmetry_2
Ba0 O48 2.709896 1_555
Ba0 O26 2.738982 1_545
Ba0 O10 2.792631 1_544
Ba0 O64 2.843970 1_555
Ba0 O32 2.866370 1_555
Ba0 O1 2.871047 1_554
Ba0 O36 2.899260 1_555
Ba0 O17 2.917164 1_554
Ba0 O74 2.954593 1_545
Ba0 O50 3.080121 1_545
Ba1 O11 2.691508 1_545
Ba1 O49 2.718762 1_555
Ba1 O27 2.735890 1_545
Ba1 O16 2.817150 1_555
Ba1 O65 2.820307 1_555
Ba1 O0 2.843977 1_555
Ba1 O33 2.875950 1_555
Ba1 O37 2.942552 1_555
Ba1 O75 3.020494 1_545
Ba1 O51 3.167075 1_545
Ba2 O50 2.711966 1_555
Ba2 O24 2.754610 1_554
Ba2 O8 2.766073 1_554
Ba2 O66 2.848576 1_555
Ba2 O38 2.869005 1_555
Ba2 O34 2.883693 1_555
Ba2 O3 2.903156 1_554
Ba2 O72 2.903551 1_555
Ba2 O19 2.930879 1_554
Ba2 O48 3.022347 1_555
Ba3 O52 2.710735 1_555
Ba3 O14 2.771534 1_545
Ba3 O30 2.775120 1_545
Ba3 O68 2.830109 1_555
Ba3 O21 2.863360 1_554
Ba3 O32 2.873453 1_655
Ba3 O36 2.885162 1_555
Ba3 O78 2.925552 1_545
Ba3 O5 2.933808 1_554
Ba3 O54 3.028710 1_545
Ba4 O54 2.728785 1_555
Ba4 O28 2.757621 1_555
Ba4 O12 2.770194 1_555
Ba4 O70 2.859534 1_555
Ba4 O38 2.871598 1_555
Ba4 O7 2.885204 1_554
Ba4 O23 2.897269 1_554
Ba4 O34 2.899914 1_655
Ba4 O76 2.904971 1_555
Ba4 O52 2.991849 1_555
Ba5 O13 2.700225 1_555
Ba5 O29 2.701843 1_555
Ba5 O71 2.719708 1_555
Ba5 O55 2.734339 1_555
Ba5 O6 2.780581 1_555
Ba5 O22 2.796707 1_555
Ba5 O39 2.902029 1_555
Ba5 O35 3.071746 1_655
Ba5 O77 3.110910 1_555
Ba5 O53 3.121786 1_555
Ba6 O56 2.705373 1_555
Ba6 O18 2.733525 1_555
Ba6 O2 2.741264 1_555
Ba6 O25 2.864770 1_555
Ba6 O9 2.874767 1_555
Ba6 O44 2.878677 1_455
Ba6 O72 2.916889 1_555
Ba6 O40 2.925686 1_555
Ba6 O70 2.942046 1_455
Ba6 O58 3.083330 1_555
Ba7 O0 2.721322 1_565
Ba7 O58 2.735767 1_555
Ba7 O16 2.736363 1_565
Ba7 O11 2.866321 1_555
Ba7 O46 2.866813 1_455
Ba7 O27 2.884532 1_555
Ba7 O74 2.890279 1_555
Ba7 O42 2.951474 1_555
Ba7 O68 2.986679 1_465
Ba7 O56 3.022018 1_565
Ba8 O1 2.716282 1_565
Ba8 O17 2.758852 1_565
Ba8 O59 2.776226 1_555
Ba8 O75 2.794207 1_555
Ba8 O47 2.844535 1_455
Ba8 O43 2.866920 1_555
Ba8 O26 2.880872 1_556
Ba8 O10 2.901091 1_555
Ba8 O57 3.026486 1_565
Ba8 O69 3.165042 1_465
Ba9 O22 2.735944 1_555
Ba9 O60 2.738428 1_555
Ba9 O6 2.746208 1_555
Ba9 O29 2.858950 1_555
Ba9 O13 2.894296 1_555
Ba9 O44 2.902572 1_555
Ba9 O76 2.904814 1_555
Ba9 O40 2.915648 1_555
Ba9 O66 3.004513 1_555
Ba9 O62 3.077409 1_555
Ba10 O61 2.686773 1_555
Ba10 O7 2.752629 1_555
Ba10 O77 2.753710 1_555
Ba10 O23 2.763599 1_555
Ba10 O12 2.836293 1_556
Ba10 O41 2.841332 1_555
Ba10 O28 2.848391 1_556
Ba10 O45 2.977077 1_555
Ba10 O63 3.033471 1_555
Ba10 O67 3.278454 1_555
Ba11 O20 2.690627 1_565
Ba11 O62 2.712528 1_555
Ba11 O4 2.772913 1_565
Ba11 O46 2.859203 1_555
Ba11 O78 2.876631 1_555
Ba11 O15 2.877538 1_555
Ba11 O31 2.898646 1_555
Ba11 O42 2.902286 1_555
Ba11 O60 3.018168 1_565
Ba11 O64 3.032624 1_565
Ba12 O21 2.722121 1_565
Ba12 O63 2.755151 1_555
Ba12 O5 2.755584 1_565
Ba12 O79 2.807530 1_555
Ba12 O30 2.865179 1_556
Ba12 O43 2.876223 1_555
Ba12 O14 2.876574 1_556
Ba12 O47 2.923382 1_555
Ba12 O65 2.992913 1_565
Ba12 O61 3.028311 1_565
Ba13 O32 2.722273 1_555
Ba13 O8 2.763069 1_554
Ba13 O28 2.780432 1_455
Ba13 O1 2.847653 1_554
Ba13 O48 2.861552 1_555
Ba13 O72 2.866065 1_555
Ba13 O52 2.913630 1_455
Ba13 O21 2.917049 1_454
Ba13 O70 2.942173 1_455
Ba13 O34 3.017139 1_555
Ba14 O10 2.718230 1_554
Ba14 O34 2.722170 1_555
Ba14 O30 2.800865 1_455
Ba14 O74 2.804247 1_555
Ba14 O54 2.847387 1_455
Ba14 O50 2.850580 1_555
Ba14 O23 2.898238 1_454
Ba14 O3 2.913726 1_554
Ba14 O32 3.011243 1_565
Ba14 O68 3.188491 1_465
Ba15 O36 2.712517 1_555
Ba15 O24 2.751637 1_554
Ba15 O12 2.777878 1_555
Ba15 O48 2.847772 1_555
Ba15 O66 2.873109 1_555
Ba15 O76 2.876868 1_555
Ba15 O17 2.882563 1_554
Ba15 O5 2.894795 1_554
Ba15 O52 2.923163 1_555
Ba15 O38 2.991858 1_555
Ba16 O38 2.699564 1_555
Ba16 O26 2.754826 1_555
Ba16 O14 2.773268 1_555
Ba16 O78 2.779807 1_555
Ba16 O50 2.848991 1_555
Ba16 O7 2.887977 1_554
Ba16 O19 2.911222 1_554
Ba16 O64 2.937039 1_565
Ba16 O54 3.008058 1_555
Ba16 O36 3.065948 1_565
Ba17 O15 2.695839 1_555
Ba17 O27 2.708968 1_555
Ba17 O39 2.742174 1_555
Ba17 O6 2.774058 1_555
Ba17 O79 2.798920 1_555
Ba17 O18 2.805698 1_555
Ba17 O51 2.865023 1_555
Ba17 O55 2.994628 1_555
Ba17 O37 3.188409 1_565
Ba17 O65 3.271787 1_565
Ba18 O16 2.714619 1_555
Ba18 O40 2.715945 1_555
Ba18 O4 2.767331 1_555
Ba18 O13 2.805873 1_555
Ba18 O25 2.857528 1_555
Ba18 O64 2.881576 1_555
Ba18 O56 2.892440 1_555
Ba18 O42 3.007279 1_545
Ba18 O74 3.012803 1_545
Ba18 O60 3.013781 1_555
Ba19 O6 2.705081 1_555
Ba19 O42 2.740280 1_555
Ba19 O18 2.740831 1_555
Ba19 O27 2.872412 1_555
Ba19 O66 2.910180 1_555
Ba19 O62 2.910254 1_555
Ba19 O15 2.915152 1_555
Ba19 O58 2.927392 1_555
Ba19 O72 3.003253 1_555
Ba19 O40 3.023510 1_555
Ba20 O67 2.700704 1_555
Ba20 O43 2.722172 1_555
Ba20 O19 2.727702 1_555
Ba20 O7 2.741811 1_555
Ba20 O14 2.824318 1_556
Ba20 O26 2.856813 1_556
Ba20 O59 2.856949 1_555
Ba20 O63 2.902319 1_555
Ba20 O41 3.159239 1_555
Ba21 O45 2.725164 1_555
Ba21 O1 2.728388 1_655
Ba21 O69 2.737835 1_555
Ba21 O21 2.781406 1_555
Ba21 O8 2.842516 1_655
Ba21 O28 2.844298 1_556
Ba21 O61 2.887473 1_555
Ba21 O79 3.002403 1_545
Ba21 O47 3.021778 1_545
Ba21 O57 3.052193 1_655
Ba22 O46 2.715661 1_555
Ba22 O22 2.723906 1_555
Ba22 O2 2.746453 1_655
Ba22 O11 2.874195 1_655
Ba22 O62 2.875633 1_555
Ba22 O31 2.890492 1_555
Ba22 O58 2.906799 1_655
Ba22 O70 2.917490 1_555
Ba22 O76 2.979534 1_555
Ba22 O44 3.200310 1_555
Ba23 O71 2.726428 1_555
Ba23 O47 2.727794 1_555
Ba23 O23 2.743789 1_555
Ba23 O3 2.771513 1_655
Ba23 O10 2.811959 1_655
Ba23 O63 2.834225 1_555
Ba23 O30 2.858415 1_556
Ba23 O59 2.943775 1_655
Ba23 O45 3.010562 1_555
Ba23 O77 3.296193 1_555
Co0 O21 1.832500 1_555
Co0 O10 1.835129 1_645
Co0 O1 2.017567 1_655
Co0 O32 2.251969 1_656
Co0 O47 2.275758 1_545
Co0 O30 2.326168 1_546
Co1 O8 1.819466 1_655
Co1 O23 1.836826 1_555
Co1 O3 2.161431 1_655
Co1 O45 2.208034 1_555
Co1 O34 2.227397 1_656
Co1 O28 2.269458 1_556
Co2 O17 1.816686 1_555
Co2 O14 1.843340 1_546
Co2 O5 2.154574 1_555
Co2 O43 2.184248 1_545
Co2 O36 2.224498 1_556
Co2 O26 2.290685 1_546
Co3 O27 1.871576 1_545
Co3 O4 1.878379 1_555
Co3 O15 2.066958 1_545
Co3 O16 2.079666 1_555
Co3 O37 2.184099 1_555
Co3 O42 2.287822 1_545
Co4 O12 1.829304 1_556
Co4 O19 1.833803 1_555
Co4 O24 2.009141 1_555
Co4 O41 2.193542 1_555
Co4 O38 2.315347 1_556
Co4 O7 2.347100 1_555
Co5 O26 1.820658 1_556
Co5 O3 1.825251 1_555
Co5 O59 2.087953 1_555
Co5 O19 2.170377 1_555
Co5 O10 2.256610 1_555
Co5 O50 2.476528 1_556
Co6 O28 1.827638 1_555
Co6 O5 1.838788 1_554
Co6 O52 2.165844 1_555
Co6 O12 2.196926 1_555
Co6 O21 2.202465 1_554
Co6 O61 2.239796 1_554
Co7 O7 1.794614 1_554
Co7 O30 1.796145 1_555
Co7 O54 2.149073 1_555
Co7 O23 2.199276 1_554
Co7 O14 2.230567 1_555
Co7 O63 2.458273 1_554
Cu0 O31 1.999988 1_445
Cu0 O0 2.018408 1_555
Cu0 O20 2.027499 1_455
Cu0 O11 2.043549 1_545
Cu0 O33 2.099716 1_555
Cu0 O46 2.418111 1_445
Cu1 O9 1.984603 1_555
Cu1 O2 2.012161 1_555
Cu1 O22 2.012829 1_455
Cu1 O29 2.019131 1_455
Cu1 O35 2.181259 1_555
Cu1 O44 2.524782 1_455
Cu2 O25 2.016731 1_555
Cu2 O6 2.036362 1_555
Cu2 O13 2.080205 1_555
Cu2 O18 2.085722 1_555
Cu2 O39 2.098112 1_555
Cu2 O40 2.229484 1_555
Cu3 O24 1.942156 1_555
Cu3 O1 1.949674 1_555
Cu3 O17 2.160615 1_555
Cu3 O8 2.236870 1_555
Cu3 O57 2.261184 1_555
Cu3 O48 2.393980 1_556
Cu4 O16 1.988491 1_555
Cu4 O9 1.989638 1_555
Cu4 O25 2.003828 1_555
Cu4 O0 2.040373 1_555
Cu4 O49 2.122860 1_555
Cu4 O56 2.370245 1_555
Cu5 O18 1.966444 1_555
Cu5 O11 1.992828 1_555
Cu5 O2 2.020247 1_555
Cu5 O27 2.200467 1_555
Cu5 O51 2.223693 1_555
Cu5 O58 2.430451 1_555
Cu6 O13 1.974101 1_555
Cu6 O20 1.976344 1_555
Cu6 O29 2.026946 1_555
Cu6 O4 2.149540 1_555
Cu6 O53 2.172850 1_555
Cu6 O60 2.392303 1_555
Cu7 O15 1.996316 1_555
Cu7 O22 2.026908 1_555
Cu7 O31 2.029003 1_555
Cu7 O6 2.045216 1_555
Cu7 O55 2.122772 1_555
Cu7 O62 2.440838 1_555
Cu8 O56 1.824463 1_555
Cu8 O32 1.863076 1_555
Cu8 O68 1.871026 1_455
Cu8 O74 1.896431 1_545
Cu9 O33 1.827914 1_555
Cu9 O57 1.846672 1_555
Cu9 O69 1.855499 1_455
Cu9 O75 1.913593 1_545
Cu10 O58 1.820761 1_555
Cu10 O34 1.862627 1_555
Cu10 O72 1.885496 1_555
Cu10 O70 1.889090 1_455
Cu11 O35 1.827043 1_555
Cu11 O71 1.854989 1_455
Cu11 O59 1.860872 1_555
Cu11 O73 1.934293 1_555
Cu12 O60 1.825852 1_555
Cu12 O36 1.863877 1_555
Cu12 O78 1.880835 1_545
Cu12 O64 1.882428 1_555
Cu13 O37 1.831621 1_555
Cu13 O61 1.851542 1_555
Cu13 O65 1.881339 1_555
Cu13 O79 1.902519 1_545
Cu14 O62 1.817663 1_555
Cu14 O38 1.853618 1_555
Cu14 O66 1.886648 1_555
Cu14 O76 1.888367 1_555
Cu15 O39 1.840691 1_555
Cu15 O63 1.842849 1_555
Cu15 O67 1.861754 1_555
Cu15 O77 1.927995 1_555
Cu16 O48 1.841585 1_555
Cu16 O40 1.843417 1_555
Cu16 O72 1.880776 1_555
Cu16 O66 1.886480 1_555
Cu17 O49 1.837281 1_555
Cu17 O73 1.842494 1_555
Cu17 O41 1.867352 1_555
Cu17 O67 1.909042 1_555
Cu18 O42 1.838266 1_555
Cu18 O50 1.841889 1_555
Cu18 O74 1.888127 1_555
Cu18 O64 1.898199 1_565
Cu19 O51 1.829669 1_555
Cu19 O75 1.862744 1_555
Cu19 O43 1.862968 1_555
Cu19 O65 1.914770 1_565
Cu20 O44 1.811378 1_555
Cu20 O52 1.861974 1_555
Cu20 O76 1.890715 1_555
Cu20 O70 1.899189 1_555
Cu21 O53 1.832905 1_555
Cu21 O45 1.861934 1_555
Cu21 O77 1.874951 1_555
Cu21 O71 1.898571 1_555
Cu22 O46 1.822119 1_555
Cu22 O78 1.863477 1_555
Cu22 O54 1.871056 1_555
Cu22 O68 1.893802 1_565
Cu23 O55 1.822242 1_555
Cu23 O47 1.844831 1_555
Cu23 O79 1.872288 1_555
Cu23 O69 1.906154 1_565
O0 Sr7 2.560053 1_455
O0 Sr3 2.643567 1_555
O2 Sr4 2.613092 1_555
O2 Sr0 2.655139 1_555
O3 Sr2 2.693686 1_555
O4 Sr5 2.684701 1_555
O4 Sr1 2.718639 1_555
O5 Sr6 2.616216 1_555
O8 Sr2 2.704466 1_555
O9 Sr3 2.595061 1_555
O9 Sr0 2.608071 1_555
O9 Sr7 2.738969 1_455
O11 Sr4 2.576161 1_555
O12 Sr6 2.717175 1_554
O13 Sr5 2.558631 1_555
O15 Sr1 2.573420 1_565
O16 Sr5 2.645834 1_555
O17 Sr6 2.648430 1_555
O18 Sr0 2.640661 1_555
O19 Sr2 2.654215 1_555
O20 Sr7 2.647446 1_555
O20 Sr1 2.690914 1_555
O20 Sr3 2.733400 1_655
O22 Sr4 2.654885 1_655
O24 Sr2 2.652615 1_555
O24 Sr6 2.699657 1_555
O25 Sr0 2.549583 1_555
O25 Sr5 2.575482 1_555
O29 Sr3 2.561165 1_655
O29 Sr7 2.687352 1_555
O31 Sr1 2.560570 1_565
O31 Sr4 2.580335 1_655
O33 Sr3 2.566290 1_555
O33 Sr1 2.832530 1_455
O35 Sr4 2.684373 1_555
O35 Sr0 2.796585 1_555
O35 Sr3 3.081469 1_555
O37 Sr5 2.621244 1_555
O37 Sr1 2.949242 1_555
O39 Sr0 2.818471 1_555
O39 Sr5 2.971011 1_555
O41 Sr6 2.600059 1_555
O41 Sr2 2.898652 1_555
O43 Sr6 3.029173 1_565
O44 Sr7 2.591637 1_555
O45 Sr2 2.831582 1_655
O46 Sr7 3.105948 1_565
O49 Sr5 2.847295 1_555
O49 Sr3 2.916931 1_555
O49 Sr0 3.023793 1_555
O51 Sr0 2.648833 1_555
O51 Sr4 2.928920 1_555
O53 Sr1 2.596899 1_555
O53 Sr3 2.825377 1_655
O53 Sr5 3.034811 1_555
O55 Sr4 2.818279 1_655
O55 Sr1 3.091388 1_565
O56 Sr7 2.891125 1_455
O57 Sr2 2.597127 1_555
O57 Sr6 2.765232 1_555
O59 Sr2 3.126247 1_555
O60 Sr7 2.830309 1_555
O61 Sr6 2.866852 1_555
O65 Sr6 2.674744 1_555
O67 Sr0 2.657465 1_555
O67 Sr5 3.254817 1_555
O68 Sr7 2.777233 1_555
O69 Sr1 2.656819 1_555
O71 Sr3 3.172393 1_655
O71 Sr2 3.249782 1_655
O73 Sr2 2.556078 1_555
O73 Sr3 2.629550 1_555
O75 Sr4 2.637567 1_555
O77 Sr5 2.637369 1_555
O78 Sr7 3.228907 1_565
O79 Sr1 3.100949 1_565
