# generated using pymatgen
data_Pr2Cu(GeO4)2
_symmetry_space_group_name_H-M   'P 1'
_cell_length_a   9.23740118
_cell_length_b   9.23740118
_cell_length_c   5.22617142
_cell_angle_alpha   73.97896431
_cell_angle_beta   73.97896431
_cell_angle_gamma   114.62281220
_symmetry_Int_Tables_number   1
_chemical_formula_structural   Pr2Cu(GeO4)2
_chemical_formula_sum   'Pr4 Cu2 Ge4 O16'
_cell_volume   348.46577160
_cell_formula_units_Z   2
loop_
 _symmetry_equiv_pos_site_id
 _symmetry_equiv_pos_as_xyz
  1  'x, y, z'
loop_
 _atom_site_type_symbol
 _atom_site_label
 _atom_site_symmetry_multiplicity
 _atom_site_fract_x
 _atom_site_fract_y
 _atom_site_fract_z
 _atom_site_occupancy
  Pr  Pr0  1  0.46051200  0.70168200  0.18168400  1
  Pr  Pr1  1  0.70168200  0.46051200  0.18168400  1
  Pr  Pr2  1  0.19925500  0.95689500  0.67593000  1
  Pr  Pr3  1  0.95689500  0.19925500  0.67593000  1
  Cu  Cu0  1  0.65971600  0.07355800  0.37915000  1
  Cu  Cu1  1  0.07355800  0.65971600  0.37915000  1
  Ge  Ge0  1  0.83722900  0.83722900  0.37599200  1
  Ge  Ge1  1  0.53223600  0.11121400  0.91933400  1
  Ge  Ge2  1  0.11121400  0.53223600  0.91933400  1
  Ge  Ge3  1  0.33346300  0.33346300  0.97297800  1
  O  O0  1  0.37859400  0.91191200  0.92593500  1
  O  O1  1  0.91191200  0.37859400  0.92593500  1
  O  O2  1  0.74853700  0.93494200  0.57679000  1
  O  O3  1  0.93494200  0.74853700  0.57679000  1
  O  O4  1  0.50151000  0.50151000  0.00624400  1
  O  O5  1  0.72585700  0.24407700  0.55892800  1
  O  O6  1  0.24407700  0.72585700  0.55892800  1
  O  O7  1  0.42610000  0.24172500  0.76075500  1
  O  O8  1  0.24172500  0.42610000  0.76075500  1
  O  O9  1  0.66934300  0.66934300  0.33823800  1
  O  O10  1  0.16993200  0.16993200  0.33984500  1
  O  O11  1  0.50563200  0.15922700  0.23760100  1
  O  O12  1  0.15922700  0.50563200  0.23760100  1
  O  O13  1  0.99877800  0.99877800  0.00114600  1
  O  O14  1  0.65252000  0.00115300  0.07427300  1
  O  O15  1  0.00115300  0.65252000  0.07427300  1
loop_
_geom_bond_atom_site_label_1
_geom_bond_atom_site_label_2
_geom_bond_distance
_geom_bond_site_symmetry_2
Cu0 O14 1.897403 1_555
Cu0 O2 1.998199 1_545
Cu0 O5 2.017168 1_555
Cu0 O11 2.096669 1_555
Cu1 O15 1.897403 1_555
Cu1 O3 1.998199 1_455
Cu1 O6 2.017168 1_555
Cu1 O12 2.096669 1_555
Ge0 O9 1.784032 1_555
Ge0 O13 1.791251 1_555
Ge0 O3 1.803239 1_555
Ge0 O2 1.803239 1_555
Ge1 O0 1.779186 1_545
Ge1 O5 1.813358 1_555
Ge1 O11 1.815522 1_556
Ge1 O14 1.976715 1_556
Ge1 O7 1.995851 1_555
Ge2 O1 1.779186 1_455
Ge2 O6 1.813358 1_555
Ge2 O12 1.815522 1_556
Ge2 O15 1.976715 1_556
Ge2 O8 1.995851 1_555
Ge3 O4 1.771885 1_556
Ge3 O10 1.772295 1_556
Ge3 O8 1.810995 1_555
Ge3 O7 1.810995 1_555
O0 Pr2 2.468377 1_555
O0 Pr0 2.545668 1_556
O1 Pr3 2.468377 1_555
O1 Pr1 2.545668 1_556
O2 Pr3 2.695740 1_565
O2 Pr0 2.921582 1_556
O3 Pr2 2.695740 1_655
O3 Pr1 2.921582 1_556
O4 Pr1 2.393913 1_555
O4 Pr0 2.393913 1_555
O5 Pr1 2.524550 1_555
O5 Pr3 2.533181 1_555
O6 Pr0 2.524550 1_555
O6 Pr2 2.533181 1_555
O7 Pr1 2.794267 1_555
O7 Pr2 2.841213 1_545
O8 Pr0 2.794267 1_555
O8 Pr3 2.841213 1_455
O9 Pr1 2.386711 1_555
O9 Pr0 2.386711 1_555
O10 Pr2 2.414533 1_545
O10 Pr3 2.414533 1_455
O11 Pr1 2.483897 1_555
O11 Pr2 2.530001 1_545
O12 Pr0 2.483897 1_555
O12 Pr3 2.530001 1_455
O13 Pr3 2.385487 1_564
O13 Pr2 2.385487 1_654
O14 Pr0 2.370296 1_545
O14 Pr3 2.442708 1_554
O15 Pr1 2.370296 1_455
O15 Pr2 2.442708 1_554
