# generated using pymatgen
data_BaSrPrSnO6
_symmetry_space_group_name_H-M   'P 1'
_cell_length_a   6.12901918
_cell_length_b   6.18612534
_cell_length_c   8.66617400
_cell_angle_alpha   90.41027218
_cell_angle_beta   90.44246078
_cell_angle_gamma   90.07607300
_symmetry_Int_Tables_number   1
_chemical_formula_structural   BaSrPrSnO6
_chemical_formula_sum   'Ba2 Sr2 Pr2 Sn2 O12'
_cell_volume   328.55841938
_cell_formula_units_Z   2
loop_
 _symmetry_equiv_pos_site_id
 _symmetry_equiv_pos_as_xyz
  1  'x, y, z'
loop_
 _atom_site_type_symbol
 _atom_site_label
 _atom_site_symmetry_multiplicity
 _atom_site_fract_x
 _atom_site_fract_y
 _atom_site_fract_z
 _atom_site_occupancy
  Ba  Ba0  1  0.50738171  0.53205785  0.24994917  1
  Ba  Ba1  1  0.49261829  0.46794215  0.75005083  1
  Sr  Sr0  1  0.98855991  0.03988631  0.25340640  1
  Sr  Sr1  1  0.01144009  0.96011369  0.74659360  1
  Pr  Pr0  1  0.00000000  0.50000000  0.00000000  1
  Pr  Pr1  1  0.50000000  0.00000000  0.50000000  1
  Sn  Sn0  1  0.50000000  0.00000000  0.00000000  1
  Sn  Sn1  1  0.00000000  0.50000000  0.50000000  1
  O  O0  1  0.22621313  0.19542539  0.94977979  1
  O  O1  1  0.27042217  0.70136166  0.53906881  1
  O  O2  1  0.77378687  0.80457461  0.05022021  1
  O  O3  1  0.72957783  0.29863834  0.46093119  1
  O  O4  1  0.30271640  0.73101762  0.95600783  1
  O  O5  1  0.18959710  0.22323136  0.54950478  1
  O  O6  1  0.69728360  0.26898238  0.04399217  1
  O  O7  1  0.81040290  0.77676864  0.45049522  1
  O  O8  1  0.40207032  0.98208057  0.23339975  1
  O  O9  1  0.07541441  0.45658354  0.26592692  1
  O  O10  1  0.59792968  0.01791943  0.76660025  1
  O  O11  1  0.92458559  0.54341646  0.73407308  1
loop_
_geom_bond_atom_site_label_1
_geom_bond_atom_site_label_2
_geom_bond_distance
_geom_bond_site_symmetry_2
Ba0 O6 2.680377 1_555
Ba0 O9 2.692566 1_555
Ba0 O3 2.699499 1_555
Ba0 O8 2.862922 1_555
Ba0 O2 2.929528 1_555
Ba0 O7 2.943881 1_555
Ba0 O1 3.083288 1_555
Ba0 O4 3.094670 1_554
Ba1 O4 2.680377 1_555
Ba1 O11 2.692566 1_555
Ba1 O1 2.699499 1_555
Ba1 O10 2.862922 1_555
Ba1 O0 2.929528 1_555
Ba1 O5 2.943881 1_555
Ba1 O3 3.083288 1_555
Ba1 O6 3.094670 1_556
O0 Sn0 2.113857 1_556
O0 Pr0 2.380374 1_556
O0 Sr1 2.621970 1_545
O0 Sr0 3.172191 1_456
O1 Sn1 2.095981 1_555
O1 Pr1 2.348804 1_565
O1 Sr1 2.885431 1_555
O2 Sn0 2.113857 1_565
O2 Pr0 2.380374 1_655
O2 Sr0 2.621970 1_565
O2 Sr1 3.172191 1_654
O3 Sn1 2.095981 1_655
O3 Pr1 2.348804 1_555
O3 Sr0 2.885431 1_555
O4 Sn0 2.086771 1_566
O4 Pr0 2.375229 1_556
O4 Sr1 2.912501 1_555
O5 Sn1 2.115155 1_555
O5 Pr1 2.391969 1_555
O5 Sr1 2.612054 1_545
O5 Sr0 3.048763 1_455
O6 Sn0 2.086771 1_555
O6 Pr0 2.375229 1_655
O6 Sr0 2.912501 1_555
O7 Sn1 2.115155 1_655
O7 Pr1 2.391969 1_565
O7 Sr0 2.612054 1_565
O7 Sr1 3.048763 1_655
O8 Sn0 2.117917 1_565
O8 Pr1 2.384376 1_565
O8 Sr0 2.567000 1_465
O9 Sn1 2.099446 1_555
O9 Pr0 2.364225 1_555
O9 Sr0 2.632748 1_455
O10 Sn0 2.117917 1_556
O10 Pr1 2.384376 1_555
O10 Sr1 2.567000 1_645
O11 Sn1 2.099446 1_655
O11 Pr0 2.364225 1_656
O11 Sr1 2.632748 1_655
