# generated using pymatgen
data_K2BaLiCo(NO2)6
_symmetry_space_group_name_H-M   'P 1'
_cell_length_a   8.02564485
_cell_length_b   8.02564505
_cell_length_c   8.24666703
_cell_angle_alpha   125.10307048
_cell_angle_beta   125.10307207
_cell_angle_gamma   79.52704468
_symmetry_Int_Tables_number   1
_chemical_formula_structural   K2BaLiCo(NO2)6
_chemical_formula_sum   'K2 Ba1 Li1 Co1 N6 O12'
_cell_volume   346.61538918
_cell_formula_units_Z   1
loop_
 _symmetry_equiv_pos_site_id
 _symmetry_equiv_pos_as_xyz
  1  'x, y, z'
loop_
 _atom_site_type_symbol
 _atom_site_label
 _atom_site_symmetry_multiplicity
 _atom_site_fract_x
 _atom_site_fract_y
 _atom_site_fract_z
 _atom_site_occupancy
  K  K0  1  0.28687700  0.78687700  0.50000000  1
  K  K1  1  0.78687800  0.28687800  0.50000000  1
  Ba  Ba0  1  0.58246800  0.58246800  0.00000000  1
  Li  Li0  1  0.33306600  0.33306600  0.00000000  1
  Co  Co0  1  0.98930300  0.98930300  0.00000000  1
  N  N0  1  0.18019400  0.79954800  0.00000000  1
  N  N1  1  0.79954900  0.18019500  0.00000100  1
  N  N2  1  0.20299300  0.20299400  0.42748700  1
  N  N3  1  0.77550600  0.77550600  0.57251300  1
  N  N4  1  0.14505500  0.14505600  0.99999900  1
  N  N5  1  0.83662300  0.83662300  0.00000000  1
  O  O0  1  0.63847000  0.14702700  0.80339100  1
  O  O1  1  0.83507900  0.34363700  0.19661000  1
  O  O2  1  0.14702700  0.63847000  0.80339100  1
  O  O3  1  0.34363600  0.83507900  0.19660900  1
  O  O4  1  0.30930800  0.09596900  0.00000100  1
  O  O5  1  0.61890900  0.61891000  0.41386000  1
  O  O6  1  0.88762600  0.67104600  0.00000000  1
  O  O7  1  0.67104700  0.88762600  0.00000000  1
  O  O8  1  0.82930700  0.82930700  0.48995800  1
  O  O9  1  0.33934800  0.33934800  0.51004200  1
  O  O10  1  0.20504900  0.20505000  0.58614000  1
  O  O11  1  0.09596800  0.30930700  0.00000000  1
loop_
_geom_bond_atom_site_label_1
_geom_bond_atom_site_label_2
_geom_bond_distance
_geom_bond_site_symmetry_2
K0 O3 3.017450 1_555
K0 O0 3.017450 1_565
K0 O5 3.031943 1_555
K0 O10 3.031951 1_565
K0 O6 3.100385 1_455
K0 O7 3.100387 1_556
K0 O11 3.276087 1_555
K0 O4 3.276089 1_566
K1 O1 3.017436 1_555
K1 O2 3.017440 1_655
K1 O10 3.031936 1_655
K1 O5 3.031945 1_555
K1 O6 3.100385 1_556
K1 O7 3.100388 1_545
K1 O4 3.276084 1_555
K1 O11 3.276090 1_656
Ba0 O6 2.671396 1_555
Ba0 O7 2.671400 1_555
Ba0 O9 2.681382 1_554
Ba0 O8 2.681382 1_555
Ba0 O1 2.965492 1_555
Ba0 O2 2.965494 1_554
Ba0 O3 2.965494 1_555
Ba0 O0 2.965494 1_554
Li0 O4 1.946571 1_555
Li0 O11 1.946577 1_555
Li0 O10 2.465266 1_554
Li0 O5 2.465266 1_555
Co0 N5 1.883839 1_555
Co0 N4 1.921755 1_664
Co0 N0 1.954008 1_655
Co0 N1 1.954008 1_565
Co0 N2 2.339413 1_665
Co0 N3 2.339413 1_554
N0 O3 1.260554 1_555
N0 O2 1.260554 1_554
N1 O1 1.260557 1_555
N1 O0 1.260559 1_554
N2 O9 1.257093 1_555
N2 O10 1.289491 1_555
N3 O8 1.257110 1_555
N3 O5 1.289486 1_555
N4 O11 1.305412 1_556
N4 O4 1.305424 1_556
N5 O7 1.317444 1_555
N5 O6 1.317452 1_555
