# generated using pymatgen
data_KCeMg14O16
_symmetry_space_group_name_H-M   'P 1'
_cell_length_a   8.77164092
_cell_length_b   8.92328584
_cell_length_c   4.48305906
_cell_angle_alpha   90.00000000
_cell_angle_beta   90.00000000
_cell_angle_gamma   90.00000000
_symmetry_Int_Tables_number   1
_chemical_formula_structural   KCeMg14O16
_chemical_formula_sum   'K1 Ce1 Mg14 O16'
_cell_volume   350.89736760
_cell_formula_units_Z   1
loop_
 _symmetry_equiv_pos_site_id
 _symmetry_equiv_pos_as_xyz
  1  'x, y, z'
loop_
 _atom_site_type_symbol
 _atom_site_label
 _atom_site_symmetry_multiplicity
 _atom_site_fract_x
 _atom_site_fract_y
 _atom_site_fract_z
 _atom_site_occupancy
  K  K0  1  -0.00000000  0.00000000  0.00000000  1
  Ce  Ce0  1  -0.00000000  0.50000000  0.00000000  1
  Mg  Mg0  1  0.50000000  0.00000000  0.00000000  1
  Mg  Mg1  1  0.50000000  0.50000000  0.00000000  1
  Mg  Mg2  1  -0.00000000  0.23121252  0.50000000  1
  Mg  Mg3  1  -0.00000000  0.76878748  0.50000000  1
  Mg  Mg4  1  0.50000000  0.24570747  0.50000000  1
  Mg  Mg5  1  0.50000000  0.75429253  0.50000000  1
  Mg  Mg6  1  0.25476451  -0.00000000  0.50000000  1
  Mg  Mg7  1  0.26649797  0.50000000  0.50000000  1
  Mg  Mg8  1  0.74523549  0.00000000  0.50000000  1
  Mg  Mg9  1  0.73350203  0.50000000  0.50000000  1
  Mg  Mg10  1  0.26152333  0.23947855  0.00000000  1
  Mg  Mg11  1  0.26152333  0.76052145  0.00000000  1
  Mg  Mg12  1  0.73847667  0.23947855  -0.00000000  1
  Mg  Mg13  1  0.73847667  0.76052145  -0.00000000  1
  O  O0  1  0.27681890  0.00000000  -0.00000000  1
  O  O1  1  0.26806918  0.50000000  -0.00000000  1
  O  O2  1  0.72318110  0.00000000  0.00000000  1
  O  O3  1  0.73193082  0.50000000  0.00000000  1
  O  O4  1  0.25034627  0.25060091  0.50000000  1
  O  O5  1  0.25034627  0.74939909  0.50000000  1
  O  O6  1  0.74965373  0.25060091  0.50000000  1
  O  O7  1  0.74965373  0.74939909  0.50000000  1
  O  O8  1  -0.00000000  0.00000000  0.50000000  1
  O  O9  1  -0.00000000  0.50000000  0.50000000  1
  O  O10  1  0.50000000  0.00000000  0.50000000  1
  O  O11  1  0.50000000  0.50000000  0.50000000  1
  O  O12  1  -0.00000000  0.25764280  0.00000000  1
  O  O13  1  -0.00000000  0.74235720  0.00000000  1
  O  O14  1  0.50000000  0.25325221  0.00000000  1
  O  O15  1  0.50000000  0.74674779  -0.00000000  1
loop_
_geom_bond_atom_site_label_1
_geom_bond_atom_site_label_2
_geom_bond_distance
_geom_bond_site_symmetry_2
K0 O8 2.241530 1_555
K0 O8 2.241530 1_554
K0 O12 2.299020 1_555
K0 O13 2.299020 1_545
K0 O0 2.428156 1_555
K0 O2 2.428156 1_455
Ce0 O13 2.162623 1_555
Ce0 O12 2.162623 1_555
Ce0 O9 2.241530 1_554
Ce0 O9 2.241530 1_555
Ce0 O1 2.351407 1_555
Ce0 O3 2.351407 1_455
Mg0 O0 1.957664 1_555
Mg0 O2 1.957664 1_555
Mg0 O10 2.241530 1_555
Mg0 O10 2.241530 1_554
Mg0 O14 2.259842 1_555
Mg0 O15 2.259842 1_545
Mg1 O3 2.034414 1_555
Mg1 O1 2.034414 1_555
Mg1 O15 2.201801 1_555
Mg1 O14 2.201801 1_555
Mg1 O11 2.241530 1_554
Mg1 O11 2.241530 1_555
Mg2 O8 2.063175 1_555
Mg2 O6 2.202752 1_455
Mg2 O4 2.202752 1_555
Mg2 O12 2.253903 1_556
Mg2 O12 2.253903 1_555
Mg2 O9 2.398468 1_555
Mg3 O8 2.063175 1_565
Mg3 O7 2.202752 1_455
Mg3 O5 2.202752 1_555
Mg3 O13 2.253903 1_555
Mg3 O13 2.253903 1_556
Mg3 O9 2.398468 1_555
Mg4 O4 2.190308 1_555
Mg4 O6 2.190308 1_555
Mg4 O10 2.192518 1_555
Mg4 O14 2.242540 1_556
Mg4 O14 2.242540 1_555
Mg4 O11 2.269125 1_555
Mg5 O5 2.190308 1_555
Mg5 O7 2.190308 1_555
Mg5 O10 2.192518 1_565
Mg5 O15 2.242540 1_556
Mg5 O15 2.242540 1_555
Mg5 O11 2.269125 1_555
Mg6 O10 2.151118 1_555
Mg6 O8 2.234703 1_555
Mg6 O5 2.236519 1_545
Mg6 O4 2.236519 1_555
Mg6 O0 2.249862 1_555
Mg6 O0 2.249862 1_556
Mg7 O11 2.048196 1_555
Mg7 O4 2.229965 1_555
Mg7 O5 2.229965 1_555
Mg7 O1 2.241572 1_556
Mg7 O1 2.241572 1_555
Mg7 O9 2.337624 1_555
Mg8 O10 2.151118 1_555
Mg8 O8 2.234703 1_655
Mg8 O7 2.236519 1_545
Mg8 O6 2.236519 1_555
Mg8 O2 2.249862 1_555
Mg8 O2 2.249862 1_556
Mg9 O11 2.048196 1_555
Mg9 O6 2.229965 1_555
Mg9 O7 2.229965 1_555
Mg9 O3 2.241572 1_556
Mg9 O3 2.241572 1_555
Mg9 O9 2.337624 1_655
Mg10 O14 2.095439 1_555
Mg10 O0 2.141143 1_555
Mg10 O4 2.245867 1_554
Mg10 O4 2.245867 1_555
Mg10 O12 2.299708 1_555
Mg10 O1 2.325416 1_555
Mg11 O15 2.095439 1_555
Mg11 O0 2.141143 1_565
Mg11 O5 2.245867 1_555
Mg11 O5 2.245867 1_554
Mg11 O13 2.299708 1_555
Mg11 O1 2.325416 1_555
Mg12 O14 2.095439 1_555
Mg12 O2 2.141143 1_555
Mg12 O6 2.245867 1_555
Mg12 O6 2.245867 1_554
Mg12 O12 2.299708 1_655
Mg12 O3 2.325416 1_555
Mg13 O15 2.095439 1_555
Mg13 O2 2.141143 1_565
Mg13 O7 2.245867 1_555
Mg13 O7 2.245867 1_554
Mg13 O13 2.299708 1_655
Mg13 O3 2.325416 1_555
