# generated using pymatgen
data_Li(RuO2)2
_symmetry_space_group_name_H-M   'P 1'
_cell_length_a   2.77247300
_cell_length_b   9.36898700
_cell_length_c   11.09514600
_cell_angle_alpha   90.00000000
_cell_angle_beta   90.00000000
_cell_angle_gamma   90.00000000
_symmetry_Int_Tables_number   1
_chemical_formula_structural   Li(RuO2)2
_chemical_formula_sum   'Li4 Ru8 O16'
_cell_volume   288.19934086
_cell_formula_units_Z   4
loop_
 _symmetry_equiv_pos_site_id
 _symmetry_equiv_pos_as_xyz
  1  'x, y, z'
loop_
 _atom_site_type_symbol
 _atom_site_label
 _atom_site_symmetry_multiplicity
 _atom_site_fract_x
 _atom_site_fract_y
 _atom_site_fract_z
 _atom_site_occupancy
  Li  Li0  1  0.25000000  0.75546500  0.36733900  1
  Li  Li1  1  0.25000000  0.25546500  0.13266100  1
  Li  Li2  1  0.75000000  0.24453500  0.63266100  1
  Li  Li3  1  0.75000000  0.74453500  0.86733900  1
  Ru  Ru0  1  0.25000000  0.40919600  0.89574200  1
  Ru  Ru1  1  0.25000000  0.90919600  0.60425800  1
  Ru  Ru2  1  0.75000000  0.59080400  0.10425800  1
  Ru  Ru3  1  0.75000000  0.09080400  0.39574200  1
  Ru  Ru4  1  0.25000000  0.44335100  0.37984700  1
  Ru  Ru5  1  0.25000000  0.94335100  0.12015300  1
  Ru  Ru6  1  0.75000000  0.55664900  0.62015300  1
  Ru  Ru7  1  0.75000000  0.05664900  0.87984700  1
  O  O0  1  0.25000000  0.53640700  0.22247200  1
  O  O1  1  0.25000000  0.03640700  0.27752800  1
  O  O2  1  0.75000000  0.46359300  0.77752800  1
  O  O3  1  0.75000000  0.96359300  0.72247200  1
  O  O4  1  0.25000000  0.40533500  0.56212000  1
  O  O5  1  0.25000000  0.90533500  0.93788000  1
  O  O6  1  0.75000000  0.59466500  0.43788000  1
  O  O7  1  0.75000000  0.09466500  0.06212000  1
  O  O8  1  0.25000000  0.20444900  0.83188500  1
  O  O9  1  0.25000000  0.70444900  0.66811500  1
  O  O10  1  0.75000000  0.79555100  0.16811500  1
  O  O11  1  0.75000000  0.29555100  0.33188500  1
  O  O12  1  0.25000000  0.61488700  0.96462200  1
  O  O13  1  0.25000000  0.11488700  0.53537800  1
  O  O14  1  0.75000000  0.38511300  0.03537800  1
  O  O15  1  0.75000000  0.88511300  0.46462200  1
loop_
_geom_bond_atom_site_label_1
_geom_bond_atom_site_label_2
_geom_bond_distance
_geom_bond_site_symmetry_2
Li0 O15 2.135910 1_455
Li0 O15 2.135910 1_555
Li0 O6 2.191770 1_555
Li0 O6 2.191770 1_455
Li1 O14 2.135910 1_555
Li1 O14 2.135910 1_455
Li1 O7 2.191770 1_555
Li1 O7 2.191770 1_455
Li2 O13 2.135910 1_555
Li2 O13 2.135910 1_655
Li2 O4 2.191770 1_555
Li2 O4 2.191770 1_655
Li3 O12 2.135910 1_555
Li3 O12 2.135910 1_655
Li3 O5 2.191770 1_655
Li3 O5 2.191770 1_555
O0 Ru4 1.951657 1_555
O0 Ru2 1.975269 1_455
O0 Ru2 1.975269 1_555
O1 Ru5 1.951657 1_545
O1 Ru3 1.975269 1_455
O1 Ru3 1.975269 1_555
O2 Ru6 1.951657 1_555
O2 Ru0 1.975269 1_655
O2 Ru0 1.975269 1_555
O3 Ru7 1.951657 1_565
O3 Ru1 1.975269 1_555
O3 Ru1 1.975269 1_655
O4 Ru4 2.053470 1_555
O4 Ru6 2.084705 1_455
O4 Ru6 2.084705 1_555
O5 Ru5 2.053470 1_556
O5 Ru7 2.084705 1_465
O5 Ru7 2.084705 1_565
O6 Ru6 2.053470 1_555
O6 Ru4 2.084705 1_655
O6 Ru4 2.084705 1_555
O7 Ru7 2.053470 1_554
O7 Ru5 2.084705 1_645
O7 Ru5 2.084705 1_545
O8 Ru7 2.030351 1_555
O8 Ru7 2.030351 1_455
O8 Ru0 2.044931 1_555
O9 Ru6 2.030351 1_455
O9 Ru6 2.030351 1_555
O9 Ru1 2.044931 1_555
O10 Ru5 2.030351 1_555
O10 Ru5 2.030351 1_655
O10 Ru2 2.044931 1_555
O11 Ru4 2.030351 1_555
O11 Ru4 2.030351 1_655
O11 Ru3 2.044931 1_555
O12 Ru0 2.073121 1_555
O12 Ru2 2.091133 1_556
O12 Ru2 2.091133 1_456
O13 Ru1 2.073121 1_545
O13 Ru3 2.091133 1_555
O13 Ru3 2.091133 1_455
O14 Ru2 2.073121 1_555
O14 Ru0 2.091133 1_554
O14 Ru0 2.091133 1_654
O15 Ru3 2.073121 1_565
O15 Ru1 2.091133 1_655
O15 Ru1 2.091133 1_555
