# generated using pymatgen
data_Yb2RhAu
_symmetry_space_group_name_H-M   'P 1'
_cell_length_a   4.88583916
_cell_length_b   4.88583916
_cell_length_c   4.88583916
_cell_angle_alpha   60.00000000
_cell_angle_beta   60.00000000
_cell_angle_gamma   60.00000000
_symmetry_Int_Tables_number   1
_chemical_formula_structural   Yb2RhAu
_chemical_formula_sum   'Yb2 Rh1 Au1'
_cell_volume   82.47123529
_cell_formula_units_Z   1
loop_
 _symmetry_equiv_pos_site_id
 _symmetry_equiv_pos_as_xyz
  1  'x, y, z'
loop_
 _atom_site_type_symbol
 _atom_site_label
 _atom_site_symmetry_multiplicity
 _atom_site_fract_x
 _atom_site_fract_y
 _atom_site_fract_z
 _atom_site_occupancy
  Yb  Yb0  1  0.25000000  0.25000000  0.25000000  1
  Yb  Yb1  1  0.75000000  0.75000000  0.75000000  1
  Rh  Rh0  1  0.00000000  0.00000000  0.00000000  1
  Au  Au0  1  0.50000000  0.50000000  0.50000000  1
loop_
_geom_bond_atom_site_label_1
_geom_bond_atom_site_label_2
_geom_bond_distance
_geom_bond_site_symmetry_2
Rh0 Yb1 2.991953 1_445
Rh0 Yb0 2.991953 1_545
Rh0 Yb0 2.991953 1_555
Rh0 Yb1 2.991953 1_454
Rh0 Yb0 2.991953 1_554
Rh0 Yb1 2.991953 1_444
Rh0 Yb1 2.991953 1_544
Rh0 Yb0 2.991953 1_455
Au0 Yb1 2.991953 1_455
Au0 Yb0 2.991953 1_555
Au0 Yb0 2.991953 1_556
Au0 Yb1 2.991953 1_545
Au0 Yb1 2.991953 1_555
Au0 Yb1 2.991953 1_554
Au0 Yb0 2.991953 1_655
Au0 Yb0 2.991953 1_565
