# generated using pymatgen
data_Sm2Ga3Cu
_symmetry_space_group_name_H-M   'P 1'
_cell_length_a   4.37765389
_cell_length_b   4.37765389
_cell_length_c   7.49561600
_cell_angle_alpha   90.00000000
_cell_angle_beta   90.00000000
_cell_angle_gamma   119.99998349
_symmetry_Int_Tables_number   1
_chemical_formula_structural   Sm2Ga3Cu
_chemical_formula_sum   'Sm2 Ga3 Cu1'
_cell_volume   124.40014227
_cell_formula_units_Z   1
loop_
 _symmetry_equiv_pos_site_id
 _symmetry_equiv_pos_as_xyz
  1  'x, y, z'
loop_
 _atom_site_type_symbol
 _atom_site_label
 _atom_site_symmetry_multiplicity
 _atom_site_fract_x
 _atom_site_fract_y
 _atom_site_fract_z
 _atom_site_occupancy
  Sm  Sm0  1  0.00000000  0.00000000  0.73152166  1
  Sm  Sm1  1  0.00000000  0.00000000  0.26299731  1
  Ga  Ga0  1  0.33333300  0.66666700  0.48102492  1
  Ga  Ga1  1  0.33333300  0.66666700  0.04137646  1
  Ga  Ga2  1  0.66666700  0.33333300  0.95600419  1
  Cu  Cu0  1  0.66666700  0.33333300  0.52707447  1
loop_
_geom_bond_atom_site_label_1
_geom_bond_atom_site_label_2
_geom_bond_distance
_geom_bond_site_symmetry_2
Sm0 Sm1 3.511879 1_555
Ga0 Sm1 3.009770 1_565
Ga0 Sm1 3.009774 1_665
Ga0 Sm1 3.009774 1_555
Ga0 Sm0 3.148559 1_565
Ga0 Sm0 3.148562 1_555
Ga0 Sm0 3.148562 1_665
Ga1 Ga2 2.607189 1_454
Ga1 Ga2 2.607189 1_564
Ga1 Ga2 2.607196 1_554
Ga1 Sm1 3.024479 1_565
Ga1 Sm1 3.024483 1_555
Ga1 Sm1 3.024483 1_665
Ga2 Sm0 3.036313 1_655
Ga2 Sm0 3.036317 1_555
Ga2 Sm0 3.036317 1_665
Ga2 Sm1 3.418042 1_656
Ga2 Sm1 3.418045 1_666
Ga2 Sm1 3.418045 1_556
Cu0 Ga0 2.550898 1_545
Cu0 Ga0 2.550898 1_655
Cu0 Ga0 2.550905 1_555
Cu0 Sm0 2.955734 1_655
Cu0 Sm0 2.955738 1_555
Cu0 Sm0 2.955738 1_665
Cu0 Sm1 3.210303 1_655
Cu0 Sm1 3.210306 1_665
Cu0 Sm1 3.210306 1_555
Cu0 Ga2 3.215092 1_555
