# generated using pymatgen
data_Sr2GdS3
_symmetry_space_group_name_H-M   'P 1'
_cell_length_a   4.10148900
_cell_length_b   4.10148900
_cell_length_c   14.05459200
_cell_angle_alpha   90.00000000
_cell_angle_beta   90.00000000
_cell_angle_gamma   90.00000000
_symmetry_Int_Tables_number   1
_chemical_formula_structural   Sr2GdS3
_chemical_formula_sum   'Sr2 Gd1 S3'
_cell_volume   236.42932644
_cell_formula_units_Z   1
loop_
 _symmetry_equiv_pos_site_id
 _symmetry_equiv_pos_as_xyz
  1  'x, y, z'
loop_
 _atom_site_type_symbol
 _atom_site_label
 _atom_site_symmetry_multiplicity
 _atom_site_fract_x
 _atom_site_fract_y
 _atom_site_fract_z
 _atom_site_occupancy
  Sr  Sr0  1  0.00000000  0.00000000  0.20534600  1
  Sr  Sr1  1  0.00000000  0.00000000  0.79465400  1
  Gd  Gd0  1  0.50000000  0.50000000  0.00000000  1
  S  S0  1  0.50000000  0.50000000  0.20775300  1
  S  S1  1  0.50000000  0.50000000  0.79224700  1
  S  S2  1  0.00000000  0.00000000  0.00000000  1
loop_
_geom_bond_atom_site_label_1
_geom_bond_atom_site_label_2
_geom_bond_distance
_geom_bond_site_symmetry_2
Gd0 S2 2.900191 1_555
Gd0 S2 2.900191 1_565
Gd0 S2 2.900191 1_655
Gd0 S2 2.900191 1_665
Gd0 S1 2.919884 1_554
Gd0 S0 2.919884 1_555
S0 Sr0 2.900388 1_565
S0 Sr0 2.900388 1_665
S0 Sr0 2.900388 1_655
S0 Sr0 2.900388 1_555
S1 Sr1 2.900388 1_655
S1 Sr1 2.900388 1_555
S1 Sr1 2.900388 1_565
S1 Sr1 2.900388 1_665
S2 Sr0 2.886054 1_555
S2 Sr1 2.886054 1_554
