# generated using pymatgen
data_Si3(TeO6)2
_symmetry_space_group_name_H-M   'P 1'
_cell_length_a   10.27659692
_cell_length_b   10.27659692
_cell_length_c   10.27659692
_cell_angle_alpha   109.47122063
_cell_angle_beta   109.47122063
_cell_angle_gamma   109.47122063
_symmetry_Int_Tables_number   1
_chemical_formula_structural   Si3(TeO6)2
_chemical_formula_sum   'Si12 Te8 O48'
_cell_volume   835.46079923
_cell_formula_units_Z   4
loop_
 _symmetry_equiv_pos_site_id
 _symmetry_equiv_pos_as_xyz
  1  'x, y, z'
loop_
 _atom_site_type_symbol
 _atom_site_label
 _atom_site_symmetry_multiplicity
 _atom_site_fract_x
 _atom_site_fract_y
 _atom_site_fract_z
 _atom_site_occupancy
  Si  Si0  1  0.12500000  0.75000000  0.87500000  1
  Si  Si1  1  0.87500000  0.25000000  0.12500000  1
  Si  Si2  1  0.75000000  0.37500000  0.62500000  1
  Si  Si3  1  0.12500000  0.87500000  0.25000000  1
  Si  Si4  1  0.25000000  0.12500000  0.87500000  1
  Si  Si5  1  0.37500000  0.62500000  0.75000000  1
  Si  Si6  1  0.37500000  0.25000000  0.62500000  1
  Si  Si7  1  0.87500000  0.12500000  0.75000000  1
  Si  Si8  1  0.62500000  0.37500000  0.25000000  1
  Si  Si9  1  0.75000000  0.87500000  0.12500000  1
  Si  Si10  1  0.25000000  0.62500000  0.37500000  1
  Si  Si11  1  0.62500000  0.75000000  0.37500000  1
  Te  Te0  1  0.50000000  0.00000000  0.00000000  1
  Te  Te1  1  0.50000000  0.50000000  0.00000000  1
  Te  Te2  1  0.00000000  0.50000000  0.50000000  1
  Te  Te3  1  0.00000000  0.00000000  0.50000000  1
  Te  Te4  1  0.50000000  0.50000000  0.50000000  1
  Te  Te5  1  0.00000000  0.50000000  0.00000000  1
  Te  Te6  1  0.50000000  0.00000000  0.50000000  1
  Te  Te7  1  0.00000000  0.00000000  0.00000000  1
  O  O0  1  0.58420700  0.89433400  0.38703800  1
  O  O1  1  0.38703800  0.58420700  0.89433400  1
  O  O2  1  0.30283100  0.31012700  0.91579300  1
  O  O3  1  0.49270400  0.60566600  0.18987300  1
  O  O4  1  0.31012700  0.89433400  0.00729600  1
  O  O5  1  0.11296200  0.00729600  0.19716900  1
  O  O6  1  0.38703800  0.30283100  0.49270400  1
  O  O7  1  0.89433400  0.38703800  0.58420700  1
  O  O8  1  0.18987300  0.19716900  0.58420700  1
  O  O9  1  0.49270400  0.38703800  0.30283100  1
  O  O10  1  0.89433400  0.00729600  0.31012700  1
  O  O11  1  0.60566600  0.91579300  0.11296200  1
  O  O12  1  0.91579300  0.11296200  0.60566600  1
  O  O13  1  0.30283100  0.49270400  0.38703800  1
  O  O14  1  0.58420700  0.18987300  0.19716900  1
  O  O15  1  0.19716900  0.58420700  0.18987300  1
  O  O16  1  0.00729600  0.31012700  0.89433400  1
  O  O17  1  0.91579300  0.30283100  0.31012700  1
  O  O18  1  0.00729600  0.19716900  0.11296200  1
  O  O19  1  0.81012700  0.80283100  0.41579300  1
  O  O20  1  0.18987300  0.49270400  0.60566600  1
  O  O21  1  0.60566600  0.18987300  0.49270400  1
  O  O22  1  0.19716900  0.11296200  0.00729600  1
  O  O23  1  0.11296200  0.60566600  0.91579300  1
  O  O24  1  0.41579300  0.10566600  0.61296200  1
  O  O25  1  0.61296200  0.41579300  0.10566600  1
  O  O26  1  0.69716900  0.68987300  0.08420700  1
  O  O27  1  0.50729600  0.39433400  0.81012700  1
  O  O28  1  0.68987300  0.10566600  0.99270400  1
  O  O29  1  0.88703800  0.99270400  0.80283100  1
  O  O30  1  0.61296200  0.69716900  0.50729600  1
  O  O31  1  0.10566600  0.61296200  0.41579300  1
  O  O32  1  0.88703800  0.39433400  0.08420700  1
  O  O33  1  0.80283100  0.88703800  0.99270400  1
  O  O34  1  0.39433400  0.81012700  0.50729600  1
  O  O35  1  0.68987300  0.08420700  0.69716900  1
  O  O36  1  0.81012700  0.50729600  0.39433400  1
  O  O37  1  0.99270400  0.80283100  0.88703800  1
  O  O38  1  0.08420700  0.69716900  0.68987300  1
  O  O39  1  0.99270400  0.68987300  0.10566600  1
  O  O40  1  0.80283100  0.41579300  0.81012700  1
  O  O41  1  0.41579300  0.81012700  0.80283100  1
  O  O42  1  0.69716900  0.50729600  0.61296200  1
  O  O43  1  0.08420700  0.88703800  0.39433400  1
  O  O44  1  0.39433400  0.08420700  0.88703800  1
  O  O45  1  0.10566600  0.99270400  0.68987300  1
  O  O46  1  0.50729600  0.61296200  0.69716900  1
  O  O47  1  0.31012700  0.91579300  0.30283100  1
loop_
_geom_bond_atom_site_label_1
_geom_bond_atom_site_label_2
_geom_bond_distance
_geom_bond_site_symmetry_2
O0 Si11 1.648603 1_555
O0 Te6 1.931683 1_565
O1 Si5 1.648603 1_555
O1 Te1 1.931683 1_556
O2 Si4 1.648603 1_555
O2 Te1 1.931683 1_556
O3 Si11 1.648603 1_555
O3 Te1 1.931683 1_555
O4 Si0 1.648603 1_554
O4 Te0 1.931683 1_565
O5 Si3 1.648603 1_545
O5 Te7 1.931683 1_555
O6 Si6 1.648603 1_555
O6 Te4 1.931683 1_555
O7 Si2 1.648603 1_555
O7 Te2 1.931683 1_655
O8 Si6 1.648603 1_555
O8 Te3 1.931683 1_555
O9 Si8 1.648603 1_555
O9 Te4 1.931683 1_555
O10 Si9 1.648603 1_545
O10 Te3 1.931683 1_655
O11 Si9 1.648603 1_555
O11 Te0 1.931683 1_565
O12 Si7 1.648603 1_555
O12 Te3 1.931683 1_655
O13 Si10 1.648603 1_555
O13 Te4 1.931683 1_555
O14 Si8 1.648603 1_555
O14 Te0 1.931683 1_555
O15 Si10 1.648603 1_555
O15 Te5 1.931683 1_555
O16 Si7 1.648603 1_455
O16 Te5 1.931683 1_556
O17 Si1 1.648603 1_555
O17 Te2 1.931683 1_655
O18 Si1 1.648603 1_455
O18 Te7 1.931683 1_555
O19 Si11 1.648603 1_555
O19 Te3 1.931683 1_665
O20 Si5 1.648603 1_555
O20 Te2 1.931683 1_555
O21 Si2 1.648603 1_555
O21 Te6 1.931683 1_555
O22 Si4 1.648603 1_554
O22 Te7 1.931683 1_555
O23 Si0 1.648603 1_555
O23 Te5 1.931683 1_556
O24 Si6 1.648603 1_555
O24 Te6 1.931683 1_555
O25 Si8 1.648603 1_555
O25 Te1 1.931683 1_555
O26 Si9 1.648603 1_555
O26 Te1 1.931683 1_555
O27 Si6 1.648603 1_555
O27 Te1 1.931683 1_556
O28 Si1 1.648603 1_556
O28 Te0 1.931683 1_556
O29 Si7 1.648603 1_565
O29 Te7 1.931683 1_666
O30 Si11 1.648603 1_555
O30 Te4 1.931683 1_555
O31 Si10 1.648603 1_555
O31 Te2 1.931683 1_555
O32 Si1 1.648603 1_555
O32 Te5 1.931683 1_655
O33 Si9 1.648603 1_556
O33 Te7 1.931683 1_666
O34 Si10 1.648603 1_555
O34 Te6 1.931683 1_565
O35 Si7 1.648603 1_555
O35 Te6 1.931683 1_555
O36 Si8 1.648603 1_555
O36 Te2 1.931683 1_655
O37 Si0 1.648603 1_655
O37 Te7 1.931683 1_666
O38 Si0 1.648603 1_555
O38 Te2 1.931683 1_555
O39 Si3 1.648603 1_655
O39 Te5 1.931683 1_655
O40 Si2 1.648603 1_555
O40 Te5 1.931683 1_656
O41 Si5 1.648603 1_555
O41 Te0 1.931683 1_566
O42 Si2 1.648603 1_555
O42 Te4 1.931683 1_555
O43 Si3 1.648603 1_555
O43 Te3 1.931683 1_565
O44 Si4 1.648603 1_555
O44 Te0 1.931683 1_556
O45 Si4 1.648603 1_565
O45 Te3 1.931683 1_565
O46 Si5 1.648603 1_555
O46 Te4 1.931683 1_555
O47 Si3 1.648603 1_555
O47 Te6 1.931683 1_565
