# generated using pymatgen
data_Li2Cu3(Se2O7)2
_symmetry_space_group_name_H-M   'P 1'
_cell_length_a   5.06406600
_cell_length_b   10.94332944
_cell_length_c   11.79950721
_cell_angle_alpha   81.67281437
_cell_angle_beta   77.60864097
_cell_angle_gamma   76.62185429
_symmetry_Int_Tables_number   1
_chemical_formula_structural   Li2Cu3(Se2O7)2
_chemical_formula_sum   'Li4 Cu6 Se8 O28'
_cell_volume   618.21369380
_cell_formula_units_Z   2
loop_
 _symmetry_equiv_pos_site_id
 _symmetry_equiv_pos_as_xyz
  1  'x, y, z'
loop_
 _atom_site_type_symbol
 _atom_site_label
 _atom_site_symmetry_multiplicity
 _atom_site_fract_x
 _atom_site_fract_y
 _atom_site_fract_z
 _atom_site_occupancy
  Li  Li0  1  0.68760400  0.01588600  0.12440200  1
  Li  Li1  1  0.32789100  0.48411400  0.37559800  1
  Li  Li2  1  0.31239600  0.98411400  0.87559800  1
  Li  Li3  1  0.67210900  0.51588600  0.62440200  1
  Cu  Cu0  1  0.11452900  0.24406800  0.02955400  1
  Cu  Cu1  1  0.88815100  0.25593200  0.47044600  1
  Cu  Cu2  1  0.88547100  0.75593200  0.97044600  1
  Cu  Cu3  1  0.11184900  0.74406800  0.52955400  1
  Cu  Cu4  1  0.50000000  0.00000000  0.50000000  1
  Cu  Cu5  1  0.50000000  0.50000000  0.00000000  1
  Se  Se0  1  0.71222400  0.72808100  0.40284400  1
  Se  Se1  1  0.34314800  0.77191900  0.09715600  1
  Se  Se2  1  0.28777600  0.27191900  0.59715600  1
  Se  Se3  1  0.65685200  0.22808100  0.90284400  1
  Se  Se4  1  0.94421700  0.45863800  0.20706800  1
  Se  Se5  1  0.10992200  0.04136200  0.29293200  1
  Se  Se6  1  0.05578300  0.54136200  0.79293200  1
  Se  Se7  1  0.89007800  0.95863800  0.70706800  1
  O  O0  1  0.14382100  0.55116000  0.11458200  1
  O  O1  1  0.30956200  0.94884000  0.38541800  1
  O  O2  1  0.85617900  0.44884000  0.88541800  1
  O  O3  1  0.69043800  0.05116000  0.61458200  1
  O  O4  1  0.84943500  0.36022300  0.13157900  1
  O  O5  1  0.84123700  0.13977700  0.36842100  1
  O  O6  1  0.15056500  0.63977700  0.86842100  1
  O  O7  1  0.15876300  0.86022300  0.63157900  1
  O  O8  1  0.11456300  0.38200700  0.31083300  1
  O  O9  1  0.30740300  0.11799300  0.18916700  1
  O  O10  1  0.88543700  0.61799300  0.68916700  1
  O  O11  1  0.69259700  0.88200700  0.81083300  1
  O  O12  1  0.65097600  0.55135000  0.26579300  1
  O  O13  1  0.96812000  0.94865000  0.23420700  1
  O  O14  1  0.34902400  0.44865000  0.73420700  1
  O  O15  1  0.03188000  0.05135000  0.76579300  1
  O  O16  1  0.03536100  0.64047900  0.42032200  1
  O  O17  1  0.59616200  0.85952100  0.07967800  1
  O  O18  1  0.96463900  0.35952100  0.57967800  1
  O  O19  1  0.40383800  0.14047900  0.92032200  1
  O  O20  1  0.49901400  0.64900300  0.50785600  1
  O  O21  1  0.15587300  0.85099700  0.99214400  1
  O  O22  1  0.50098600  0.35099700  0.49214400  1
  O  O23  1  0.84412700  0.14900300  0.00785600  1
  O  O24  1  0.75680200  0.84144300  0.48965700  1
  O  O25  1  0.58790200  0.65855700  0.01034300  1
  O  O26  1  0.24319800  0.15855700  0.51034300  1
  O  O27  1  0.41209800  0.34144300  0.98965700  1
loop_
_geom_bond_atom_site_label_1
_geom_bond_atom_site_label_2
_geom_bond_distance
_geom_bond_site_symmetry_2
Li0 O23 2.031693 1_555
Li0 O17 2.038157 1_545
Li0 O9 2.039579 1_555
Li0 O13 2.065949 1_545
Li1 O22 2.031695 1_555
Li1 O16 2.038154 1_555
Li1 O8 2.039575 1_555
Li1 O12 2.065949 1_555
Li2 O21 2.031693 1_555
Li2 O19 2.038157 1_565
Li2 O11 2.039579 1_555
Li2 O15 2.065949 1_565
Li3 O20 2.031695 1_555
Li3 O18 2.038154 1_555
Li3 O10 2.039575 1_555
Li3 O14 2.065949 1_555
Cu0 O4 1.956314 1_455
Cu0 O23 1.977305 1_455
Cu0 O27 1.980209 1_554
Cu0 O19 1.984183 1_554
Cu0 O9 2.412009 1_555
Cu1 O5 1.956314 1_555
Cu1 O22 1.977305 1_555
Cu1 O26 1.980209 1_655
Cu1 O18 1.984183 1_555
Cu1 O8 2.412009 1_655
Cu2 O6 1.956314 1_655
Cu2 O21 1.977305 1_655
Cu2 O25 1.980209 1_556
Cu2 O17 1.984183 1_556
Cu2 O11 2.412009 1_555
Cu3 O7 1.956314 1_555
Cu3 O20 1.977305 1_555
Cu3 O24 1.980209 1_455
Cu3 O16 1.984183 1_555
Cu3 O10 2.412009 1_455
Cu4 O26 1.914638 1_555
Cu4 O24 1.914638 1_545
Cu4 O1 2.024874 1_545
Cu4 O3 2.024874 1_555
Cu5 O25 1.914638 1_555
Cu5 O27 1.914638 1_554
Cu5 O0 2.024871 1_555
Cu5 O2 2.024871 1_554
O0 Se4 1.708197 1_455
O1 Se5 1.708197 1_565
O2 Se6 1.708197 1_655
O3 Se7 1.708197 1_545
O4 Se4 1.698310 1_555
O5 Se5 1.698308 1_655
O6 Se6 1.698310 1_555
O7 Se7 1.698308 1_455
O8 Se4 1.663619 1_455
O9 Se5 1.663622 1_555
O10 Se6 1.663619 1_655
O11 Se7 1.663622 1_555
O12 Se4 1.667192 1_555
O13 Se5 1.667185 1_665
O14 Se6 1.667192 1_555
O15 Se7 1.667185 1_445
O16 Se0 1.732325 1_455
O17 Se1 1.732330 1_555
O18 Se2 1.732325 1_655
O19 Se3 1.732330 1_555
O20 Se0 1.731360 1_555
O21 Se1 1.731357 1_556
O22 Se2 1.731360 1_555
O23 Se3 1.731357 1_554
O24 Se0 1.798932 1_555
O25 Se1 1.798934 1_555
O26 Se2 1.798932 1_555
O27 Se3 1.798934 1_555
