# generated using pymatgen
data_MnV(CrTe2)2
_symmetry_space_group_name_H-M   'P 1'
_cell_length_a   4.14472200
_cell_length_b   6.11019300
_cell_length_c   7.10423612
_cell_angle_alpha   89.51921455
_cell_angle_beta   90.00000000
_cell_angle_gamma   90.00000000
_symmetry_Int_Tables_number   1
_chemical_formula_structural   MnV(CrTe2)2
_chemical_formula_sum   'Mn1 V1 Cr2 Te4'
_cell_volume   179.90881025
_cell_formula_units_Z   1
loop_
 _symmetry_equiv_pos_site_id
 _symmetry_equiv_pos_as_xyz
  1  'x, y, z'
loop_
 _atom_site_type_symbol
 _atom_site_label
 _atom_site_symmetry_multiplicity
 _atom_site_fract_x
 _atom_site_fract_y
 _atom_site_fract_z
 _atom_site_occupancy
  Mn  Mn0  1  0.50000000  0.50000000  0.50000000  1
  V  V0  1  0.00000000  0.50000000  0.00000000  1
  Cr  Cr0  1  0.00000000  0.00000000  0.00000000  1
  Cr  Cr1  1  0.50000000  0.00000000  0.50000000  1
  Te  Te0  1  0.50000000  0.75033300  0.83639200  1
  Te  Te1  1  0.00000000  0.75088000  0.33071800  1
  Te  Te2  1  0.00000000  0.24912000  0.66928200  1
  Te  Te3  1  0.50000000  0.24966700  0.16360800  1
loop_
_geom_bond_atom_site_label_1
_geom_bond_atom_site_label_2
_geom_bond_distance
_geom_bond_site_symmetry_2
Mn0 Te1 2.838995 1_555
Mn0 Te1 2.838995 1_655
Mn0 Te2 2.838995 1_555
Mn0 Te2 2.838995 1_655
Mn0 Te3 2.848184 1_555
Mn0 Te0 2.848184 1_555
Cr0 Te2 2.788751 1_554
Cr0 Te1 2.788751 1_545
Cr0 Te0 2.828885 1_444
Cr0 Te0 2.828885 1_544
Cr0 Te3 2.828885 1_455
Cr0 Te3 2.828885 1_555
Cr1 Te3 2.824392 1_555
Cr1 Te0 2.824392 1_545
Cr1 Te1 2.844064 1_645
Cr1 Te1 2.844064 1_545
Cr1 Te2 2.844064 1_555
Cr1 Te2 2.844064 1_655
Cr1 Mn0 3.055096 1_555
Cr1 Mn0 3.055096 1_545
Te0 V0 2.820537 1_556
Te0 V0 2.820537 1_656
Te1 V0 2.816105 1_555
Te2 V0 2.816105 1_556
Te3 V0 2.820537 1_655
Te3 V0 2.820537 1_555
