# generated using pymatgen
data_NaSr2(SnAs)6
_symmetry_space_group_name_H-M   'P 1'
_cell_length_a   7.24540610
_cell_length_b   7.24540610
_cell_length_c   9.52130852
_cell_angle_alpha   82.68267595
_cell_angle_beta   82.68267595
_cell_angle_gamma   119.99545347
_symmetry_Int_Tables_number   1
_chemical_formula_structural   NaSr2(SnAs)6
_chemical_formula_sum   'Na1 Sr2 Sn6 As6'
_cell_volume   418.60727853
_cell_formula_units_Z   1
loop_
 _symmetry_equiv_pos_site_id
 _symmetry_equiv_pos_as_xyz
  1  'x, y, z'
loop_
 _atom_site_type_symbol
 _atom_site_label
 _atom_site_symmetry_multiplicity
 _atom_site_fract_x
 _atom_site_fract_y
 _atom_site_fract_z
 _atom_site_occupancy
  Na  Na0  1  0.00000000  0.00000000  0.00000000  1
  Sr  Sr0  1  0.66653900  0.33346100  0.00000000  1
  Sr  Sr1  1  0.33346100  0.66653900  0.00000000  1
  Sn  Sn0  1  0.54137900  0.87538300  0.37285000  1
  Sn  Sn1  1  0.21031300  0.21031300  0.37285500  1
  Sn  Sn2  1  0.87538300  0.54137900  0.37285000  1
  Sn  Sn3  1  0.45862100  0.12461700  0.62715000  1
  Sn  Sn4  1  0.12461700  0.45862100  0.62715000  1
  Sn  Sn5  1  0.78968700  0.78968700  0.62714500  1
  As  As0  1  0.40596100  0.40596100  0.77773600  1
  As  As1  1  0.07405700  0.74219900  0.77749000  1
  As  As2  1  0.74219900  0.07405700  0.77749000  1
  As  As3  1  0.59403900  0.59403900  0.22226400  1
  As  As4  1  0.25780100  0.92594300  0.22251000  1
  As  As5  1  0.92594300  0.25780100  0.22251000  1
loop_
_geom_bond_atom_site_label_1
_geom_bond_atom_site_label_2
_geom_bond_distance
_geom_bond_site_symmetry_2
As0 Sn4 2.781972 1_555
As0 Sn3 2.781972 1_555
As0 Sn5 2.784925 1_555
As0 Na0 3.155955 1_556
As0 Sr0 3.169407 1_556
As0 Sr1 3.169407 1_556
As1 Sn3 2.782859 1_565
As1 Sn5 2.783401 1_455
As1 Sn4 2.787993 1_555
As1 Na0 3.160038 1_566
As1 Sr0 3.168942 1_456
As1 Sr1 3.173329 1_556
As2 Sn4 2.782859 1_655
As2 Sn5 2.783401 1_545
As2 Sn3 2.787993 1_555
As2 Na0 3.160038 1_656
As2 Sr1 3.168942 1_546
As2 Sr0 3.173329 1_556
As3 Sn2 2.781972 1_555
As3 Sn0 2.781972 1_555
As3 Sn1 2.784925 1_555
As3 Na0 3.155955 1_665
As3 Sr1 3.169407 1_555
As3 Sr0 3.169407 1_555
As4 Sn2 2.782859 1_455
As4 Sn1 2.783401 1_565
As4 Sn0 2.787993 1_555
As4 Na0 3.160038 1_565
As4 Sr0 3.168942 1_565
As4 Sr1 3.173329 1_555
As5 Sn0 2.782859 1_545
As5 Sn1 2.783401 1_655
As5 Sn2 2.787993 1_555
As5 Na0 3.160038 1_655
As5 Sr1 3.168942 1_655
As5 Sr0 3.173329 1_555
