# generated using pymatgen
data_BaV(AsO5)2
_symmetry_space_group_name_H-M   'P 1'
_cell_length_a   6.45763100
_cell_length_b   11.44718700
_cell_length_c   14.26634750
_cell_angle_alpha   51.88373434
_cell_angle_beta   90.00000000
_cell_angle_gamma   90.00000000
_symmetry_Int_Tables_number   1
_chemical_formula_structural   BaV(AsO5)2
_chemical_formula_sum   'Ba4 V4 As8 O40'
_cell_volume   829.71124014
_cell_formula_units_Z   4
loop_
 _symmetry_equiv_pos_site_id
 _symmetry_equiv_pos_as_xyz
  1  'x, y, z'
loop_
 _atom_site_type_symbol
 _atom_site_label
 _atom_site_symmetry_multiplicity
 _atom_site_fract_x
 _atom_site_fract_y
 _atom_site_fract_z
 _atom_site_occupancy
  Ba  Ba0  1  0.35141900  0.72213200  0.32948100  1
  Ba  Ba1  1  0.14858100  0.72213200  0.82948100  1
  Ba  Ba2  1  0.64858100  0.27786800  0.67051900  1
  Ba  Ba3  1  0.85141900  0.27786800  0.17051900  1
  V  V0  1  0.01165500  0.68764500  0.12790900  1
  V  V1  1  0.48834500  0.68764500  0.62790900  1
  V  V2  1  0.98834500  0.31235500  0.87209100  1
  V  V3  1  0.51165500  0.31235500  0.37209100  1
  As  As0  1  0.14523700  0.02575200  0.85704600  1
  As  As1  1  0.35476300  0.02575200  0.35704600  1
  As  As2  1  0.85476300  0.97424800  0.14295400  1
  As  As3  1  0.64523700  0.97424800  0.64295400  1
  As  As4  1  0.51170800  0.63893400  0.10344300  1
  As  As5  1  0.98829200  0.63893400  0.60344300  1
  As  As6  1  0.48829200  0.36106600  0.89655700  1
  As  As7  1  0.01170800  0.36106600  0.39655700  1
  O  O0  1  0.02205900  0.55373200  0.30389400  1
  O  O1  1  0.47794100  0.55373200  0.80389400  1
  O  O2  1  0.97794100  0.44626800  0.69610600  1
  O  O3  1  0.52205900  0.44626800  0.19610600  1
  O  O4  1  0.31349600  0.69671700  0.14750800  1
  O  O5  1  0.18650400  0.69671700  0.64750800  1
  O  O6  1  0.68650400  0.30328300  0.85249200  1
  O  O7  1  0.81349600  0.30328300  0.35249200  1
  O  O8  1  0.03946400  0.84969800  0.96604200  1
  O  O9  1  0.46053600  0.84969800  0.46604200  1
  O  O10  1  0.96053600  0.15030200  0.03395800  1
  O  O11  1  0.53946400  0.15030200  0.53395800  1
  O  O12  1  0.01203300  0.55851400  0.10970600  1
  O  O13  1  0.48796700  0.55851400  0.60970600  1
  O  O14  1  0.98796700  0.44148600  0.89029400  1
  O  O15  1  0.51203300  0.44148600  0.39029400  1
  O  O16  1  0.02727800  0.84708700  0.16587200  1
  O  O17  1  0.47272200  0.84708700  0.66587200  1
  O  O18  1  0.97272200  0.15291300  0.83412800  1
  O  O19  1  0.52727800  0.15291300  0.33412800  1
  O  O20  1  0.40088500  0.04675000  0.87643400  1
  O  O21  1  0.09911500  0.04675000  0.37643400  1
  O  O22  1  0.59911500  0.95325000  0.12356600  1
  O  O23  1  0.90088500  0.95325000  0.62356600  1
  O  O24  1  0.19545700  0.01851000  0.74209000  1
  O  O25  1  0.30454300  0.01851000  0.24209000  1
  O  O26  1  0.80454300  0.98149000  0.25791000  1
  O  O27  1  0.69545700  0.98149000  0.75791000  1
  O  O28  1  0.72246600  0.70727000  0.13224700  1
  O  O29  1  0.77753400  0.70727000  0.63224700  1
  O  O30  1  0.27753400  0.29273000  0.86775300  1
  O  O31  1  0.22246600  0.29273000  0.36775300  1
  O  O32  1  0.48677900  0.70552800  0.96006400  1
  O  O33  1  0.01322100  0.70552800  0.46006400  1
  O  O34  1  0.51322100  0.29447200  0.03993600  1
  O  O35  1  0.98677900  0.29447200  0.53993600  1
  O  O36  1  0.25509500  0.41194700  0.54440600  1
  O  O37  1  0.24490500  0.41194700  0.04440600  1
  O  O38  1  0.74490500  0.58805300  0.45559400  1
  O  O39  1  0.75509500  0.58805300  0.95559400  1
loop_
_geom_bond_atom_site_label_1
_geom_bond_atom_site_label_2
_geom_bond_distance
_geom_bond_site_symmetry_2
Ba0 O16 2.784566 1_555
Ba0 O4 2.795837 1_555
Ba0 O33 2.799862 1_555
Ba0 O25 2.816838 1_565
Ba0 O22 2.931397 1_555
Ba0 O38 2.939440 1_555
Ba0 O15 2.951009 1_555
Ba0 O36 2.992610 1_555
Ba0 O0 3.040007 1_555
Ba0 O9 3.152242 1_555
Ba0 O13 3.320257 1_555
Ba1 O17 2.784566 1_555
Ba1 O5 2.795837 1_555
Ba1 O32 2.799862 1_555
Ba1 O24 2.816838 1_565
Ba1 O23 2.931397 1_455
Ba1 O39 2.939440 1_455
Ba1 O14 2.951009 1_455
Ba1 O37 2.992610 1_556
Ba1 O1 3.040007 1_555
Ba1 O8 3.152242 1_555
Ba1 O12 3.320257 1_556
Ba2 O18 2.784566 1_555
Ba2 O6 2.795837 1_555
Ba2 O35 2.799862 1_555
Ba2 O27 2.816838 1_545
Ba2 O20 2.931397 1_555
Ba2 O36 2.939440 1_555
Ba2 O13 2.951009 1_555
Ba2 O38 2.992610 1_555
Ba2 O2 3.040007 1_555
Ba2 O11 3.152242 1_555
Ba2 O15 3.320257 1_555
Ba3 O19 2.784566 1_555
Ba3 O7 2.795837 1_555
Ba3 O34 2.799862 1_555
Ba3 O26 2.816838 1_545
Ba3 O21 2.931397 1_655
Ba3 O37 2.939440 1_655
Ba3 O12 2.951009 1_655
Ba3 O39 2.992610 1_554
Ba3 O3 3.040007 1_555
Ba3 O10 3.152242 1_555
Ba3 O14 3.320257 1_554
As0 O18 1.696854 1_455
As0 O20 1.715157 1_555
As0 O24 1.723222 1_555
As0 O8 1.754228 1_545
As1 O19 1.696854 1_555
As1 O21 1.715157 1_555
As1 O25 1.723222 1_555
As1 O9 1.754228 1_545
As2 O16 1.696854 1_655
As2 O22 1.715157 1_555
As2 O26 1.723222 1_555
As2 O10 1.754228 1_565
As3 O17 1.696854 1_555
As3 O23 1.715157 1_555
As3 O27 1.723222 1_555
As3 O11 1.754228 1_565
As4 O32 1.692953 1_554
As4 O4 1.727542 1_555
As4 O3 1.736920 1_555
As4 O28 1.740671 1_555
As5 O33 1.692953 1_655
As5 O5 1.727542 1_655
As5 O2 1.736920 1_555
As5 O29 1.740671 1_555
As6 O34 1.692953 1_556
As6 O6 1.727542 1_555
As6 O1 1.736920 1_555
As6 O30 1.740671 1_555
As7 O35 1.692953 1_455
As7 O7 1.727542 1_455
As7 O0 1.736920 1_555
As7 O31 1.740671 1_555
O0 V0 1.976503 1_555
O1 V1 1.976503 1_555
O2 V2 1.976503 1_555
O3 V3 1.976503 1_555
O4 V0 1.980935 1_555
O5 V1 1.980935 1_555
O6 V2 1.980935 1_555
O7 V3 1.980935 1_555
O8 V0 1.875553 1_556
O9 V1 1.875553 1_555
O10 V2 1.875553 1_554
O11 V3 1.875553 1_555
O12 V0 1.651174 1_555
O13 V1 1.651174 1_555
O14 V2 1.651174 1_555
O15 V3 1.651174 1_555
O16 V0 2.203415 1_555
O17 V1 2.203415 1_555
O18 V2 2.203415 1_555
O19 V3 2.203415 1_555
O28 V0 1.886512 1_655
O29 V1 1.886512 1_555
O30 V2 1.886512 1_455
O31 V3 1.886512 1_555
