# generated using pymatgen
data_LiCa3OsO6
_symmetry_space_group_name_H-M   'P 1'
_cell_length_a   6.49427559
_cell_length_b   6.49427732
_cell_length_c   6.49427869
_cell_angle_alpha   91.95634834
_cell_angle_beta   91.95631834
_cell_angle_gamma   91.95629456
_symmetry_Int_Tables_number   1
_chemical_formula_structural   LiCa3OsO6
_chemical_formula_sum   'Li2 Ca6 Os2 O12'
_cell_volume   273.41014363
_cell_formula_units_Z   2
loop_
 _symmetry_equiv_pos_site_id
 _symmetry_equiv_pos_as_xyz
  1  'x, y, z'
loop_
 _atom_site_type_symbol
 _atom_site_label
 _atom_site_symmetry_multiplicity
 _atom_site_fract_x
 _atom_site_fract_y
 _atom_site_fract_z
 _atom_site_occupancy
  Li  Li0  1  0.25000100  0.25000100  0.25000100  1
  Li  Li1  1  0.74999900  0.74999900  0.74999900  1
  Ca  Ca0  1  0.60391100  0.24999900  0.89608900  1
  Ca  Ca1  1  0.39608900  0.75000100  0.10391100  1
  Ca  Ca2  1  0.89608900  0.60391100  0.24999900  1
  Ca  Ca3  1  0.10391100  0.39608900  0.75000100  1
  Ca  Ca4  1  0.24999900  0.89608900  0.60391100  1
  Ca  Ca5  1  0.75000100  0.10391100  0.39608900  1
  Os  Os0  1  0.00000000  0.00000000  0.00000000  1
  Os  Os1  1  0.50000000  0.50000100  0.50000000  1
  O  O0  1  0.20860600  0.55016300  0.42174400  1
  O  O1  1  0.79139400  0.44983700  0.57825600  1
  O  O2  1  0.07825100  0.94983500  0.29139000  1
  O  O3  1  0.92174800  0.05016600  0.70861000  1
  O  O4  1  0.42174400  0.20860600  0.55016400  1
  O  O5  1  0.57825600  0.79139300  0.44983700  1
  O  O6  1  0.94983400  0.29139000  0.07825100  1
  O  O7  1  0.05016600  0.70861000  0.92174900  1
  O  O8  1  0.55016400  0.42174400  0.20860600  1
  O  O9  1  0.44983700  0.57825600  0.79139400  1
  O  O10  1  0.29139100  0.07825100  0.94983400  1
  O  O11  1  0.70860900  0.92174900  0.05016600  1
loop_
_geom_bond_atom_site_label_1
_geom_bond_atom_site_label_2
_geom_bond_distance
_geom_bond_site_symmetry_2
Li0 O0 2.241424 1_555
Li0 O8 2.241430 1_555
Li0 O4 2.241430 1_555
Li0 O2 2.241462 1_545
Li0 O6 2.241467 1_455
Li0 O10 2.241468 1_554
Li1 O5 2.241424 1_555
Li1 O1 2.241424 1_555
Li1 O9 2.241425 1_555
Li1 O3 2.241465 1_565
Li1 O7 2.241467 1_655
Li1 O11 2.241468 1_556
Ca0 O8 2.324955 1_556
Ca0 O10 2.324979 1_555
Ca0 O11 2.491193 1_546
Ca0 O9 2.491219 1_555
Ca0 O6 2.504841 1_556
Ca0 O4 2.504868 1_555
Ca0 O3 2.770163 1_555
Ca0 O1 2.770172 1_555
Ca1 O9 2.324956 1_554
Ca1 O11 2.324979 1_555
Ca1 O10 2.491193 1_564
Ca1 O8 2.491222 1_555
Ca1 O7 2.504841 1_554
Ca1 O5 2.504873 1_555
Ca1 O2 2.770171 1_555
Ca1 O0 2.770172 1_555
Ca2 O0 2.324956 1_655
Ca2 O6 2.324984 1_555
Ca2 O7 2.491195 1_654
Ca2 O1 2.491220 1_555
Ca2 O2 2.504847 1_655
Ca2 O8 2.504867 1_555
Ca2 O5 2.770167 1_555
Ca2 O11 2.770172 1_555
Ca3 O1 2.324956 1_455
Ca3 O7 2.324984 1_555
Ca3 O6 2.491195 1_456
Ca3 O0 2.491220 1_555
Ca3 O3 2.504844 1_455
Ca3 O9 2.504873 1_555
Ca3 O4 2.770167 1_555
Ca3 O10 2.770172 1_555
Ca4 O4 2.324956 1_565
Ca4 O2 2.324986 1_555
Ca4 O3 2.491200 1_465
Ca4 O5 2.491220 1_555
Ca4 O10 2.504841 1_565
Ca4 O0 2.504873 1_555
Ca4 O7 2.770170 1_555
Ca4 O9 2.770171 1_555
Ca5 O5 2.324963 1_545
Ca5 O3 2.324981 1_555
Ca5 O2 2.491191 1_645
Ca5 O4 2.491221 1_555
Ca5 O11 2.504841 1_545
Ca5 O1 2.504873 1_555
Ca5 O8 2.770168 1_555
Ca5 O6 2.770170 1_555
O0 Os1 1.983252 1_555
O1 Os1 1.983255 1_555
O2 Os0 1.983225 1_565
O3 Os0 1.983228 1_656
O4 Os1 1.983262 1_555
O5 Os1 1.983242 1_555
O6 Os0 1.983225 1_655
O7 Os0 1.983225 1_566
O8 Os1 1.983257 1_555
O9 Os1 1.983252 1_555
O10 Os0 1.983232 1_556
O11 Os0 1.983232 1_665
