# generated using pymatgen
data_K2Fe3(S3O19)2
_symmetry_space_group_name_H-M   'P 1'
_cell_length_a   9.71408802
_cell_length_b   9.71408802
_cell_length_c   19.11794500
_cell_angle_alpha   90.00000000
_cell_angle_beta   90.00000000
_cell_angle_gamma   120.00000010
_symmetry_Int_Tables_number   1
_chemical_formula_structural   K2Fe3(S3O19)2
_chemical_formula_sum   'K4 Fe6 S12 O76'
_cell_volume   1562.34127829
_cell_formula_units_Z   2
loop_
 _symmetry_equiv_pos_site_id
 _symmetry_equiv_pos_as_xyz
  1  'x, y, z'
loop_
 _atom_site_type_symbol
 _atom_site_label
 _atom_site_symmetry_multiplicity
 _atom_site_fract_x
 _atom_site_fract_y
 _atom_site_fract_z
 _atom_site_occupancy
  K  K0  1  0.00000000  0.00000000  0.00000000  1
  K  K1  1  0.00000000  0.00000000  0.50000000  1
  K  K2  1  0.33333300  0.66666700  0.75000000  1
  K  K3  1  0.66666700  0.33333300  0.25000000  1
  Fe  Fe0  1  0.81975700  0.04029100  0.75000000  1
  Fe  Fe1  1  0.18024300  0.95970900  0.25000000  1
  Fe  Fe2  1  0.22053400  0.18024300  0.75000000  1
  Fe  Fe3  1  0.77946600  0.81975700  0.25000000  1
  Fe  Fe4  1  0.95970900  0.77946600  0.75000000  1
  Fe  Fe5  1  0.04029100  0.22053400  0.25000000  1
  S  S0  1  0.67775900  0.73509700  0.86046900  1
  S  S1  1  0.32224100  0.26490300  0.13953100  1
  S  S2  1  0.05733900  0.32224100  0.86046900  1
  S  S3  1  0.32224100  0.26490300  0.36046900  1
  S  S4  1  0.94266100  0.67775900  0.13953100  1
  S  S5  1  0.67775900  0.73509700  0.63953100  1
  S  S6  1  0.26490300  0.94266100  0.86046900  1
  S  S7  1  0.94266100  0.67775900  0.36046900  1
  S  S8  1  0.73509700  0.05733900  0.13953100  1
  S  S9  1  0.05733900  0.32224100  0.63953100  1
  S  S10  1  0.73509700  0.05733900  0.36046900  1
  S  S11  1  0.26490300  0.94266100  0.63953100  1
  O  O0  1  0.66666700  0.33333300  0.88050600  1
  O  O1  1  0.33333300  0.66666700  0.11949400  1
  O  O2  1  0.33333300  0.66666700  0.38050600  1
  O  O3  1  0.66666700  0.33333300  0.61949400  1
  O  O4  1  0.72256300  0.77456700  0.93358800  1
  O  O5  1  0.27743700  0.22543300  0.06641200  1
  O  O6  1  0.05200400  0.27743700  0.93358800  1
  O  O7  1  0.27743700  0.22543300  0.43358800  1
  O  O8  1  0.94799600  0.72256300  0.06641200  1
  O  O9  1  0.72256300  0.77456700  0.56641200  1
  O  O10  1  0.22543300  0.94799600  0.93358800  1
  O  O11  1  0.94799600  0.72256300  0.43358800  1
  O  O12  1  0.77456700  0.05200400  0.06641200  1
  O  O13  1  0.05200400  0.27743700  0.56641200  1
  O  O14  1  0.77456700  0.05200400  0.43358800  1
  O  O15  1  0.22543300  0.94799600  0.56641200  1
  O  O16  1  0.63070900  0.09286800  0.75000000  1
  O  O17  1  0.36929100  0.90713200  0.25000000  1
  O  O18  1  0.46215900  0.36929100  0.75000000  1
  O  O19  1  0.53784100  0.63070900  0.25000000  1
  O  O20  1  0.90713200  0.53784100  0.75000000  1
  O  O21  1  0.09286800  0.46215900  0.25000000  1
  O  O22  1  0.64295800  0.14393100  0.94106500  1
  O  O23  1  0.35704200  0.85606900  0.05893500  1
  O  O24  1  0.50097300  0.35704200  0.94106500  1
  O  O25  1  0.35704200  0.85606900  0.44106500  1
  O  O26  1  0.49902700  0.64295800  0.05893500  1
  O  O27  1  0.64295800  0.14393100  0.55893500  1
  O  O28  1  0.85606900  0.49902700  0.94106500  1
  O  O29  1  0.49902700  0.64295800  0.44106500  1
  O  O30  1  0.14393100  0.50097300  0.05893500  1
  O  O31  1  0.50097300  0.35704200  0.55893500  1
  O  O32  1  0.14393100  0.50097300  0.44106500  1
  O  O33  1  0.85606900  0.49902700  0.55893500  1
  O  O34  1  0.51592200  0.60147500  0.85055900  1
  O  O35  1  0.48407800  0.39852500  0.14944100  1
  O  O36  1  0.08555200  0.48407800  0.85055900  1
  O  O37  1  0.48407800  0.39852500  0.35055900  1
  O  O38  1  0.91444800  0.51592200  0.14944100  1
  O  O39  1  0.51592200  0.60147500  0.64944100  1
  O  O40  1  0.39852500  0.91444800  0.85055900  1
  O  O41  1  0.91444800  0.51592200  0.35055900  1
  O  O42  1  0.60147500  0.08555200  0.14944100  1
  O  O43  1  0.08555200  0.48407800  0.64944100  1
  O  O44  1  0.60147500  0.08555200  0.35055900  1
  O  O45  1  0.39852500  0.91444800  0.64944100  1
  O  O46  1  0.90157600  0.20563500  0.82599000  1
  O  O47  1  0.09842400  0.79436500  0.17401000  1
  O  O48  1  0.30405900  0.09842400  0.82599000  1
  O  O49  1  0.09842400  0.79436500  0.32599000  1
  O  O50  1  0.69594100  0.90157600  0.17401000  1
  O  O51  1  0.90157600  0.20563500  0.67401000  1
  O  O52  1  0.79436500  0.69594100  0.82599000  1
  O  O53  1  0.69594100  0.90157600  0.32599000  1
  O  O54  1  0.20563500  0.30405900  0.17401000  1
  O  O55  1  0.30405900  0.09842400  0.67401000  1
  O  O56  1  0.20563500  0.30405900  0.32599000  1
  O  O57  1  0.79436500  0.69594100  0.67401000  1
  O  O58  1  0.66666700  0.33333300  0.49991200  1
  O  O59  1  0.33333300  0.66666700  0.50008800  1
  O  O60  1  0.33333300  0.66666700  0.99991200  1
  O  O61  1  0.66666700  0.33333300  0.00008800  1
  O  O62  1  0.68974300  0.87896800  0.82373900  1
  O  O63  1  0.31025700  0.12103200  0.17626100  1
  O  O64  1  0.18922500  0.31025700  0.82373900  1
  O  O65  1  0.31025700  0.12103200  0.32373900  1
  O  O66  1  0.81077500  0.68974300  0.17626100  1
  O  O67  1  0.68974300  0.87896800  0.67626100  1
  O  O68  1  0.12103200  0.81077500  0.82373900  1
  O  O69  1  0.81077500  0.68974300  0.32373900  1
  O  O70  1  0.87896800  0.18922500  0.17626100  1
  O  O71  1  0.18922500  0.31025700  0.67626100  1
  O  O72  1  0.87896800  0.18922500  0.32373900  1
  O  O73  1  0.12103200  0.81077500  0.67626100  1
  O  O74  1  0.00000000  0.00000000  0.75000000  1
  O  O75  1  0.00000000  0.00000000  0.25000000  1
loop_
_geom_bond_atom_site_label_1
_geom_bond_atom_site_label_2
_geom_bond_distance
_geom_bond_site_symmetry_2
K0 O5 2.787303 1_555
K0 O4 2.787303 1_444
K0 O8 2.787303 1_445
K0 O6 2.787303 1_554
K0 O12 2.787303 1_455
K0 O10 2.787303 1_544
K1 O7 2.787303 1_555
K1 O9 2.787303 1_445
K1 O11 2.787303 1_445
K1 O13 2.787303 1_555
K1 O14 2.787303 1_455
K1 O15 2.787303 1_545
K2 O36 2.892435 1_555
K2 O43 2.892435 1_555
K2 O40 2.892435 1_555
K2 O45 2.892435 1_555
K2 O34 2.892435 1_555
K2 O39 2.892435 1_555
K3 O41 2.892435 1_555
K3 O38 2.892435 1_555
K3 O42 2.892435 1_555
K3 O44 2.892435 1_555
K3 O37 2.892435 1_555
K3 O35 2.892435 1_555
Fe0 O74 1.975882 1_655
Fe0 O51 2.011329 1_555
Fe0 O46 2.011329 1_555
Fe0 O67 2.014712 1_545
Fe0 O62 2.014712 1_545
Fe0 O16 2.138050 1_555
Fe1 O75 1.975882 1_565
Fe1 O47 2.011329 1_555
Fe1 O49 2.011329 1_555
Fe1 O65 2.014712 1_565
Fe1 O63 2.014712 1_565
Fe1 O17 2.138050 1_555
Fe2 O74 1.975882 1_555
Fe2 O55 2.011329 1_555
Fe2 O48 2.011329 1_555
Fe2 O64 2.014712 1_555
Fe2 O71 2.014712 1_555
Fe2 O18 2.138050 1_555
Fe3 O75 1.975882 1_665
Fe3 O53 2.011329 1_555
Fe3 O50 2.011329 1_555
Fe3 O66 2.014712 1_555
Fe3 O69 2.014712 1_555
Fe3 O19 2.138050 1_555
Fe4 O74 1.975882 1_665
Fe4 O57 2.011329 1_555
Fe4 O52 2.011329 1_555
Fe4 O68 2.014712 1_655
Fe4 O73 2.014712 1_655
Fe4 O20 2.138050 1_555
Fe5 O75 1.975882 1_555
Fe5 O54 2.011329 1_555
Fe5 O56 2.011329 1_555
Fe5 O72 2.014712 1_455
Fe5 O70 2.014712 1_455
Fe5 O21 2.138050 1_555
O0 O22 2.086823 1_555
O0 O28 2.086826 1_555
O0 O24 2.086831 1_555
O1 O23 2.086823 1_555
O1 O30 2.086826 1_555
O1 O26 2.086831 1_555
O2 O25 2.086823 1_555
O2 O32 2.086826 1_555
O2 O29 2.086831 1_555
O3 O33 2.086826 1_555
O3 O31 2.086831 1_555
O4 S0 1.457272 1_555
O5 S1 1.457272 1_555
O6 S2 1.457271 1_555
O7 S3 1.457272 1_555
O8 S4 1.457271 1_555
O9 S5 1.457272 1_555
O10 S6 1.457273 1_555
O11 S7 1.457271 1_555
O12 S8 1.457273 1_555
O13 S9 1.457271 1_555
O14 S10 1.457273 1_555
O15 S11 1.457273 1_555
O22 O61 2.070676 1_556
O23 O60 2.070676 1_554
O24 O61 2.070684 1_556
O25 O59 2.070676 1_555
O26 O60 2.070684 1_554
O27 O58 2.070676 1_555
O27 O3 2.086823 1_555
O28 O61 2.070679 1_556
O29 O59 2.070684 1_555
O30 O60 2.070679 1_554
O31 O58 2.070684 1_555
O32 O59 2.070679 1_555
O33 O58 2.070679 1_555
O34 S0 1.466842 1_555
O35 S1 1.466842 1_555
O36 S2 1.466849 1_555
O37 S3 1.466842 1_555
O38 S4 1.466849 1_555
O39 S5 1.466842 1_555
O40 S6 1.466830 1_555
O41 S7 1.466849 1_555
O42 S8 1.466830 1_555
O43 S9 1.466849 1_555
O44 S10 1.466830 1_555
O45 S11 1.466830 1_555
O46 S2 1.514299 1_655
O47 S4 1.514299 1_455
O48 S6 1.514301 1_545
O49 S7 1.514299 1_455
O50 S8 1.514301 1_565
O51 S9 1.514299 1_655
O52 S0 1.514293 1_555
O53 S10 1.514301 1_565
O54 S1 1.514293 1_555
O55 S11 1.514301 1_545
O56 S3 1.514293 1_555
O57 S5 1.514293 1_555
O62 S0 1.515639 1_555
O63 S1 1.515639 1_555
O64 S2 1.515630 1_555
O65 S3 1.515639 1_555
O66 S4 1.515630 1_555
O67 S5 1.515639 1_555
O68 S6 1.515635 1_555
O69 S7 1.515630 1_555
O70 S8 1.515635 1_555
O71 S9 1.515630 1_555
O72 S10 1.515635 1_555
O73 S11 1.515635 1_555
