# generated using pymatgen
data_Lu2SnAu2
_symmetry_space_group_name_H-M   'P 1'
_cell_length_a   8.26448900
_cell_length_b   8.26448900
_cell_length_c   3.49567400
_cell_angle_alpha   90.00000000
_cell_angle_beta   90.00000000
_cell_angle_gamma   90.00000000
_symmetry_Int_Tables_number   1
_chemical_formula_structural   Lu2SnAu2
_chemical_formula_sum   'Lu4 Sn2 Au4'
_cell_volume   238.76075102
_cell_formula_units_Z   2
loop_
 _symmetry_equiv_pos_site_id
 _symmetry_equiv_pos_as_xyz
  1  'x, y, z'
loop_
 _atom_site_type_symbol
 _atom_site_label
 _atom_site_symmetry_multiplicity
 _atom_site_fract_x
 _atom_site_fract_y
 _atom_site_fract_z
 _atom_site_occupancy
  Lu  Lu0  1  0.84212800  0.34212800  0.50000000  1
  Lu  Lu1  1  0.15787200  0.65787200  0.50000000  1
  Lu  Lu2  1  0.34212800  0.15787200  0.50000000  1
  Lu  Lu3  1  0.65787200  0.84212800  0.50000000  1
  Sn  Sn0  1  0.00000000  0.00000000  0.50000000  1
  Sn  Sn1  1  0.50000000  0.50000000  0.50000000  1
  Au  Au0  1  0.63425900  0.13425900  0.00000000  1
  Au  Au1  1  0.36574100  0.86574100  0.00000000  1
  Au  Au2  1  0.13425900  0.36574100  0.00000000  1
  Au  Au3  1  0.86574100  0.63425900  0.00000000  1
loop_
_geom_bond_atom_site_label_1
_geom_bond_atom_site_label_2
_geom_bond_distance
_geom_bond_site_symmetry_2
Lu0 Sn0 3.114025 1_655
Lu0 Sn1 3.114025 1_555
Lu1 Sn1 3.114025 1_555
Lu1 Sn0 3.114025 1_565
Lu2 Sn1 3.114025 1_555
Lu2 Sn0 3.114025 1_555
Lu3 Sn0 3.114025 1_665
Lu3 Sn1 3.114025 1_555
Au0 Lu3 2.986959 1_545
Au0 Lu3 2.986959 1_544
Au0 Lu2 2.986959 1_555
Au0 Lu2 2.986959 1_554
Au0 Lu0 2.992910 1_555
Au0 Lu0 2.992910 1_554
Au1 Lu2 2.986959 1_564
Au1 Lu3 2.986959 1_555
Au1 Lu3 2.986959 1_554
Au1 Lu2 2.986959 1_565
Au1 Lu1 2.992910 1_555
Au1 Lu1 2.992910 1_554
Au2 Lu1 2.986959 1_554
Au2 Lu1 2.986959 1_555
Au2 Lu0 2.986959 1_455
Au2 Lu0 2.986959 1_454
Au2 Lu2 2.992910 1_555
Au2 Lu2 2.992910 1_554
Au3 Lu0 2.986959 1_555
Au3 Lu1 2.986959 1_655
Au3 Lu1 2.986959 1_654
Au3 Lu0 2.986959 1_554
Au3 Lu3 2.992910 1_555
Au3 Lu3 2.992910 1_554
