# generated using pymatgen
data_AlCo(WO4)2
_symmetry_space_group_name_H-M   'P 1'
_cell_length_a   5.09135046
_cell_length_b   5.62849925
_cell_length_c   9.17197556
_cell_angle_alpha   90.14410492
_cell_angle_beta   90.80812596
_cell_angle_gamma   88.93575475
_symmetry_Int_Tables_number   1
_chemical_formula_structural   AlCo(WO4)2
_chemical_formula_sum   'Al2 Co2 W4 O16'
_cell_volume   262.76605931
_cell_formula_units_Z   2
loop_
 _symmetry_equiv_pos_site_id
 _symmetry_equiv_pos_as_xyz
  1  'x, y, z'
loop_
 _atom_site_type_symbol
 _atom_site_label
 _atom_site_symmetry_multiplicity
 _atom_site_fract_x
 _atom_site_fract_y
 _atom_site_fract_z
 _atom_site_occupancy
  Al  Al0  1  0.24916900  0.65344300  0.26127100  1
  Al  Al1  1  0.75083000  0.34655600  0.73872900  1
  Co  Co0  1  0.75186600  0.35442900  0.25922800  1
  Co  Co1  1  0.24813400  0.64557000  0.74077200  1
  W  W0  1  0.24946500  0.16422800  0.50151400  1
  W  W1  1  0.24473200  0.17218600  0.00048000  1
  W  W2  1  0.75053500  0.83577200  0.49848600  1
  W  W3  1  0.75526800  0.82781400  0.99952000  1
  O  O0  1  0.38058400  0.39560600  0.12570400  1
  O  O1  1  0.11357100  0.39198800  0.36652600  1
  O  O2  1  0.61941600  0.60439300  0.87429600  1
  O  O3  1  0.88642800  0.60801100  0.63347400  1
  O  O4  1  0.41116900  0.88504700  0.61123000  1
  O  O5  1  0.06840700  0.88294500  0.88924900  1
  O  O6  1  0.58883100  0.11495300  0.38877000  1
  O  O7  1  0.93159300  0.11705500  0.11075100  1
  O  O8  1  0.93000600  0.63988200  0.13723500  1
  O  O9  1  0.56888400  0.63114000  0.35520600  1
  O  O10  1  0.06999400  0.36011900  0.86276500  1
  O  O11  1  0.43111600  0.36886100  0.64479400  1
  O  O12  1  0.42353100  0.88361500  0.11007800  1
  O  O13  1  0.57646900  0.11638600  0.88992200  1
  O  O14  1  0.08229200  0.88109400  0.38030100  1
  O  O15  1  0.91770800  0.11890700  0.61969900  1
loop_
_geom_bond_atom_site_label_1
_geom_bond_atom_site_label_2
_geom_bond_distance
_geom_bond_site_symmetry_2
Al0 O9 1.833337 1_555
Al0 O14 1.879965 1_555
Al0 O1 1.907328 1_555
Al0 O8 1.972977 1_455
Al0 O0 2.019445 1_555
Al0 O12 2.115653 1_555
Al1 O11 1.833333 1_555
Al1 O15 1.879960 1_555
Al1 O3 1.907328 1_555
Al1 O10 1.972982 1_655
Al1 O2 2.019444 1_555
Al1 O13 2.115644 1_555
Co0 O6 1.998743 1_555
Co0 O9 2.007713 1_555
Co0 O1 2.089706 1_655
Co0 O7 2.111288 1_555
Co0 O8 2.178938 1_555
Co0 O0 2.246495 1_555
Co1 O4 1.998747 1_555
Co1 O11 2.007704 1_555
Co1 O3 2.089711 1_455
Co1 O5 2.111291 1_555
Co1 O10 2.178929 1_555
Co1 O2 2.246495 1_555
O0 W1 1.838904 1_555
O1 W0 1.898913 1_555
O2 W3 1.838908 1_555
O3 W2 1.898915 1_555
O4 W0 2.023908 1_565
O4 W2 2.040296 1_555
O5 W3 1.930404 1_455
O5 W1 2.125373 1_566
O6 W2 2.023908 1_545
O6 W0 2.040296 1_555
O7 W1 1.930404 1_655
O7 W3 2.125373 1_544
O8 W3 1.856314 1_554
O9 W2 1.976515 1_555
O10 W1 1.856318 1_556
O11 W0 1.976518 1_555
O12 W3 2.001649 1_554
O12 W1 2.098751 1_565
O13 W1 2.001649 1_556
O13 W3 2.098756 1_545
O14 W2 2.040142 1_455
O14 W0 2.124819 1_565
O15 W0 2.040142 1_655
O15 W2 2.124823 1_545
