# generated using pymatgen
data_Na3LuBr6
_symmetry_space_group_name_H-M   'P 1'
_cell_length_a   7.63097612
_cell_length_b   7.10313246
_cell_length_c   12.71566337
_cell_angle_alpha   56.77059275
_cell_angle_beta   90.00000000
_cell_angle_gamma   90.00000000
_symmetry_Int_Tables_number   1
_chemical_formula_structural   Na3LuBr6
_chemical_formula_sum   'Na6 Lu2 Br12'
_cell_volume   576.53573950
_cell_formula_units_Z   2
loop_
 _symmetry_equiv_pos_site_id
 _symmetry_equiv_pos_as_xyz
  1  'x, y, z'
loop_
 _atom_site_type_symbol
 _atom_site_label
 _atom_site_symmetry_multiplicity
 _atom_site_fract_x
 _atom_site_fract_y
 _atom_site_fract_z
 _atom_site_occupancy
  Na  Na0  1  0.50000000  0.50000000  0.00000000  1
  Na  Na1  1  0.00000000  0.50000000  0.50000000  1
  Na  Na2  1  0.08894211  0.70595065  0.76030997  1
  Na  Na3  1  0.91105789  0.29404935  0.23969003  1
  Na  Na4  1  0.58894211  0.29404935  0.73969003  1
  Na  Na5  1  0.41105789  0.70595065  0.26030997  1
  Lu  Lu0  1  0.50000000  0.00000000  0.50000000  1
  Lu  Lu1  1  0.00000000  0.00000000  0.00000000  1
  Br  Br0  1  0.80345254  0.75485058  0.57858865  1
  Br  Br1  1  0.19654746  0.24514942  0.42141135  1
  Br  Br2  1  0.30345254  0.24514942  0.92141135  1
  Br  Br3  1  0.69654746  0.75485058  0.07858865  1
  Br  Br4  1  0.44168695  0.90522719  0.73757783  1
  Br  Br5  1  0.55831305  0.09477281  0.26242217  1
  Br  Br6  1  0.94168695  0.09477281  0.76242217  1
  Br  Br7  1  0.05831305  0.90522719  0.23757783  1
  Br  Br8  1  0.32207918  0.61991730  0.56513420  1
  Br  Br9  1  0.67792082  0.38008270  0.43486580  1
  Br  Br10  1  0.82207918  0.38008270  0.93486580  1
  Br  Br11  1  0.17792082  0.61991730  0.06513420  1
loop_
_geom_bond_atom_site_label_1
_geom_bond_atom_site_label_2
_geom_bond_distance
_geom_bond_site_symmetry_2
Br0 Lu0 2.736033 1_565
Br0 Na1 2.916803 1_655
Br0 Na2 3.053934 1_655
Br0 Na4 3.200106 1_555
Br1 Lu0 2.736033 1_555
Br1 Na1 2.916803 1_555
Br1 Na3 3.053934 1_455
Br1 Na5 3.200106 1_555
Br2 Lu1 2.736033 1_556
Br2 Na0 2.916803 1_556
Br2 Na4 3.053934 1_555
Br2 Na2 3.200106 1_555
Br3 Lu1 2.736033 1_665
Br3 Na0 2.916803 1_555
Br3 Na5 3.053934 1_555
Br3 Na3 3.200106 1_555
Br4 Lu0 2.747458 1_565
Br4 Na2 2.980680 1_555
Br4 Na4 2.995424 1_565
Br4 Na0 3.015145 1_556
Br5 Lu0 2.747458 1_555
Br5 Na3 2.980680 1_555
Br5 Na5 2.995424 1_545
Br5 Na0 3.015145 1_555
Br6 Lu1 2.747458 1_656
Br6 Na4 2.980680 1_555
Br6 Na2 2.995424 1_645
Br6 Na1 3.015145 1_655
Br7 Lu1 2.747458 1_565
Br7 Na5 2.980680 1_555
Br7 Na3 2.995424 1_465
Br7 Na1 3.015145 1_555
Br8 Lu0 2.714311 1_565
Br8 Na1 2.867989 1_555
Br8 Na4 2.966578 1_555
Br8 Na2 3.370461 1_555
Br9 Lu0 2.714311 1_555
Br9 Na1 2.867989 1_655
Br9 Na5 2.966578 1_555
Br9 Na3 3.370461 1_555
Br10 Lu1 2.714311 1_656
Br10 Na0 2.867989 1_556
Br10 Na2 2.966578 1_655
Br10 Na4 3.370461 1_555
Br11 Lu1 2.714311 1_565
Br11 Na0 2.867989 1_555
Br11 Na3 2.966578 1_455
Br11 Na5 3.370461 1_555
