# generated using pymatgen
data_Sr3AlAs3
_symmetry_space_group_name_H-M   'P 1'
_cell_length_a   10.16103245
_cell_length_b   10.16103245
_cell_length_c   12.74786368
_cell_angle_alpha   90.00000000
_cell_angle_beta   90.00000000
_cell_angle_gamma   142.10374855
_symmetry_Int_Tables_number   1
_chemical_formula_structural   Sr3AlAs3
_chemical_formula_sum   'Sr12 Al4 As12'
_cell_volume   808.43785009
_cell_formula_units_Z   4
loop_
 _symmetry_equiv_pos_site_id
 _symmetry_equiv_pos_as_xyz
  1  'x, y, z'
loop_
 _atom_site_type_symbol
 _atom_site_label
 _atom_site_symmetry_multiplicity
 _atom_site_fract_x
 _atom_site_fract_y
 _atom_site_fract_z
 _atom_site_occupancy
  Sr  Sr0  1  0.82529117  0.82529117  0.34910272  1
  Sr  Sr1  1  0.17470883  0.17470883  0.65089728  1
  Sr  Sr2  1  0.67470883  0.67470883  0.84910272  1
  Sr  Sr3  1  0.32529117  0.32529117  0.15089728  1
  Sr  Sr4  1  0.86488618  0.51088481  0.13109486  1
  Sr  Sr5  1  0.48911519  0.13511382  0.86890514  1
  Sr  Sr6  1  0.98911519  0.63511382  0.63109486  1
  Sr  Sr7  1  0.36488618  0.01088481  0.36890514  1
  Sr  Sr8  1  0.13511382  0.48911519  0.86890514  1
  Sr  Sr9  1  0.51088481  0.86488618  0.13109486  1
  Sr  Sr10  1  0.01088481  0.36488618  0.36890514  1
  Sr  Sr11  1  0.63511382  0.98911519  0.63109486  1
  Al  Al0  1  0.08478421  0.91521579  -0.00000000  1
  Al  Al1  1  0.58478421  0.41521579  0.50000000  1
  Al  Al2  1  0.91521579  0.08478421  -0.00000000  1
  Al  Al3  1  0.41521579  0.58478421  0.50000000  1
  As  As0  1  0.79147660  0.79147660  0.10204210  1
  As  As1  1  0.20852340  0.20852340  0.89795790  1
  As  As2  1  0.70852340  0.70852340  0.60204210  1
  As  As3  1  0.29147660  0.29147660  0.39795790  1
  As  As4  1  0.04533678  0.36227451  0.11990997  1
  As  As5  1  0.63772549  0.95466322  0.88009003  1
  As  As6  1  0.13772549  0.45466322  0.61990997  1
  As  As7  1  0.54533678  0.86227451  0.38009003  1
  As  As8  1  0.95466322  0.63772549  0.88009003  1
  As  As9  1  0.36227451  0.04533678  0.11990997  1
  As  As10  1  0.86227451  0.54533678  0.38009003  1
  As  As11  1  0.45466322  0.13772549  0.61990997  1
loop_
_geom_bond_atom_site_label_1
_geom_bond_atom_site_label_2
_geom_bond_distance
_geom_bond_site_symmetry_2
Al0 As9 2.480152 1_565
Al0 As8 2.480152 1_454
Al0 As1 2.498241 1_564
Al0 As0 2.498241 1_455
Al0 Sr5 3.190051 1_564
Al0 Sr4 3.190051 1_455
Al0 Sr2 3.311134 1_454
Al0 Sr3 3.311134 1_565
Al1 As10 2.480152 1_555
Al1 As11 2.480152 1_555
Al1 As3 2.498241 1_555
Al1 As2 2.498241 1_555
Al1 Sr7 3.190051 1_555
Al1 Sr6 3.190051 1_555
Al1 Sr1 3.311134 1_555
Al1 Sr0 3.311134 1_555
Al2 As5 2.480152 1_544
Al2 As4 2.480152 1_655
Al2 As1 2.498241 1_654
Al2 As0 2.498241 1_545
Al2 Sr8 3.190051 1_654
Al2 Sr9 3.190051 1_545
Al2 Sr2 3.311134 1_544
Al2 Sr3 3.311134 1_655
Al3 As7 2.480152 1_555
Al3 As6 2.480152 1_555
Al3 As3 2.498241 1_555
Al3 As2 2.498241 1_555
Al3 Sr10 3.190051 1_555
Al3 Sr11 3.190051 1_555
Al3 Sr1 3.311134 1_555
Al3 Sr0 3.311134 1_555
As0 Sr3 3.138683 1_555
As0 Sr0 3.157390 1_555
As0 Sr2 3.315224 1_554
As0 Sr9 3.489811 1_555
As0 Sr4 3.489811 1_555
As0 Sr3 3.577178 1_665
As1 Sr2 3.138683 1_555
As1 Sr1 3.157390 1_555
As1 Sr3 3.315224 1_556
As1 Sr8 3.489811 1_555
As1 Sr5 3.489811 1_555
As1 Sr2 3.577178 1_445
As2 Sr1 3.138683 1_665
As2 Sr2 3.157390 1_555
As2 Sr0 3.315224 1_555
As2 Sr6 3.489811 1_555
As2 Sr11 3.489811 1_555
As2 Sr1 3.577178 1_555
As3 Sr0 3.138683 1_445
As3 Sr3 3.157390 1_555
As3 Sr1 3.315224 1_555
As3 Sr7 3.489811 1_555
As3 Sr10 3.489811 1_555
As3 Sr0 3.577178 1_555
As4 Sr4 3.167374 1_455
As4 Sr3 3.174314 1_555
As4 Sr10 3.195807 1_555
As4 Sr9 3.217314 1_555
As4 Sr8 3.297916 1_554
As4 Sr9 3.426015 1_445
As5 Sr5 3.167374 1_565
As5 Sr2 3.174314 1_555
As5 Sr11 3.195807 1_555
As5 Sr8 3.217314 1_555
As5 Sr9 3.297916 1_556
As5 Sr8 3.426015 1_665
As6 Sr6 3.167374 1_455
As6 Sr1 3.174314 1_555
As6 Sr8 3.195807 1_555
As6 Sr11 3.217314 1_445
As6 Sr10 3.297916 1_555
As6 Sr11 3.426015 1_555
As7 Sr7 3.167374 1_565
As7 Sr0 3.174314 1_555
As7 Sr9 3.195807 1_555
As7 Sr10 3.217314 1_665
As7 Sr11 3.297916 1_555
As7 Sr10 3.426015 1_555
As8 Sr8 3.167374 1_655
As8 Sr2 3.174314 1_555
As8 Sr6 3.195807 1_555
As8 Sr5 3.217314 1_555
As8 Sr4 3.297916 1_556
As8 Sr5 3.426015 1_665
As9 Sr9 3.167374 1_545
As9 Sr3 3.174314 1_555
As9 Sr7 3.195807 1_555
As9 Sr4 3.217314 1_555
As9 Sr5 3.297916 1_554
As9 Sr4 3.426015 1_445
As10 Sr10 3.167374 1_655
As10 Sr0 3.174314 1_555
As10 Sr4 3.195807 1_555
As10 Sr7 3.217314 1_665
As10 Sr6 3.297916 1_555
As10 Sr7 3.426015 1_555
As11 Sr11 3.167374 1_545
As11 Sr1 3.174314 1_555
As11 Sr5 3.195807 1_555
As11 Sr6 3.217314 1_445
As11 Sr7 3.297916 1_555
As11 Sr6 3.426015 1_555
