# generated using pymatgen
data_Mg6VB
_symmetry_space_group_name_H-M   'P 1'
_cell_length_a   13.84660017
_cell_length_b   13.84660017
_cell_length_c   6.64677800
_cell_angle_alpha   90.00000000
_cell_angle_beta   90.00000000
_cell_angle_gamma   96.35568255
_symmetry_Int_Tables_number   1
_chemical_formula_structural   Mg6VB
_chemical_formula_sum   'Mg48 V8 B8'
_cell_volume   1266.54317171
_cell_formula_units_Z   8
loop_
 _symmetry_equiv_pos_site_id
 _symmetry_equiv_pos_as_xyz
  1  'x, y, z'
loop_
 _atom_site_type_symbol
 _atom_site_label
 _atom_site_symmetry_multiplicity
 _atom_site_fract_x
 _atom_site_fract_y
 _atom_site_fract_z
 _atom_site_occupancy
  Mg  Mg0_0  1  0.39580350  0.27320100  0.00000000  1
  Mg  Mg0_1  1  0.39580350  0.27320100  0.50000000  1
  Mg  Mg0_2  1  0.39580350  0.77320100  0.00000000  1
  Mg  Mg0_3  1  0.39580350  0.77320100  0.50000000  1
  Mg  Mg0_4  1  0.89580350  0.27320100  0.00000000  1
  Mg  Mg0_5  1  0.89580350  0.27320100  0.50000000  1
  Mg  Mg0_6  1  0.89580350  0.77320100  0.00000000  1
  Mg  Mg0_7  1  0.89580350  0.77320100  0.50000000  1
  Mg  Mg1_0  1  0.22679900  0.10419650  0.00000000  1
  Mg  Mg1_1  1  0.22679900  0.10419650  0.50000000  1
  Mg  Mg1_2  1  0.22679900  0.60419650  0.00000000  1
  Mg  Mg1_3  1  0.22679900  0.60419650  0.50000000  1
  Mg  Mg1_4  1  0.72679900  0.10419650  0.00000000  1
  Mg  Mg1_5  1  0.72679900  0.10419650  0.50000000  1
  Mg  Mg1_6  1  0.72679900  0.60419650  0.00000000  1
  Mg  Mg1_7  1  0.72679900  0.60419650  0.50000000  1
  Mg  Mg2_0  1  0.16663550  0.33336450  0.00000000  1
  Mg  Mg2_1  1  0.16663550  0.33336450  0.50000000  1
  Mg  Mg2_2  1  0.16663550  0.83336450  0.00000000  1
  Mg  Mg2_3  1  0.16663550  0.83336450  0.50000000  1
  Mg  Mg2_4  1  0.66663550  0.33336450  0.00000000  1
  Mg  Mg2_5  1  0.66663550  0.33336450  0.50000000  1
  Mg  Mg2_6  1  0.66663550  0.83336450  0.00000000  1
  Mg  Mg2_7  1  0.66663550  0.83336450  0.50000000  1
  Mg  Mg3_0  1  0.31559050  0.44430350  0.25000000  1
  Mg  Mg3_1  1  0.31559050  0.44430350  0.75000000  1
  Mg  Mg3_2  1  0.31559050  0.94430350  0.25000000  1
  Mg  Mg3_3  1  0.31559050  0.94430350  0.75000000  1
  Mg  Mg3_4  1  0.81559050  0.44430350  0.25000000  1
  Mg  Mg3_5  1  0.81559050  0.44430350  0.75000000  1
  Mg  Mg3_6  1  0.81559050  0.94430350  0.25000000  1
  Mg  Mg3_7  1  0.81559050  0.94430350  0.75000000  1
  Mg  Mg4_0  1  0.05569650  0.18440950  0.25000000  1
  Mg  Mg4_1  1  0.05569650  0.18440950  0.75000000  1
  Mg  Mg4_2  1  0.05569650  0.68440950  0.25000000  1
  Mg  Mg4_3  1  0.05569650  0.68440950  0.75000000  1
  Mg  Mg4_4  1  0.55569650  0.18440950  0.25000000  1
  Mg  Mg4_5  1  0.55569650  0.18440950  0.75000000  1
  Mg  Mg4_6  1  0.55569650  0.68440950  0.25000000  1
  Mg  Mg4_7  1  0.55569650  0.68440950  0.75000000  1
  Mg  Mg5_0  1  0.04440000  0.45560000  0.25000000  1
  Mg  Mg5_1  1  0.04440000  0.45560000  0.75000000  1
  Mg  Mg5_2  1  0.04440000  0.95560000  0.25000000  1
  Mg  Mg5_3  1  0.04440000  0.95560000  0.75000000  1
  Mg  Mg5_4  1  0.54440000  0.45560000  0.25000000  1
  Mg  Mg5_5  1  0.54440000  0.45560000  0.75000000  1
  Mg  Mg5_6  1  0.54440000  0.95560000  0.25000000  1
  Mg  Mg5_7  1  0.54440000  0.95560000  0.75000000  1
  V  V0_0  1  0.42702150  0.07297850  0.00000000  1
  V  V0_1  1  0.42702150  0.07297850  0.50000000  1
  V  V0_2  1  0.42702150  0.57297850  0.00000000  1
  V  V0_3  1  0.42702150  0.57297850  0.50000000  1
  V  V0_4  1  0.92702150  0.07297850  0.00000000  1
  V  V0_5  1  0.92702150  0.07297850  0.50000000  1
  V  V0_6  1  0.92702150  0.57297850  0.00000000  1
  V  V0_7  1  0.92702150  0.57297850  0.50000000  1
  B  B0_0  1  0.36805450  0.13194550  0.25000000  1
  B  B0_1  1  0.36805450  0.13194550  0.75000000  1
  B  B0_2  1  0.36805450  0.63194550  0.25000000  1
  B  B0_3  1  0.36805450  0.63194550  0.75000000  1
  B  B0_4  1  0.86805450  0.13194550  0.25000000  1
  B  B0_5  1  0.86805450  0.13194550  0.75000000  1
  B  B0_6  1  0.86805450  0.63194550  0.25000000  1
  B  B0_7  1  0.86805450  0.63194550  0.75000000  1
loop_
_geom_bond_atom_site_label_1
_geom_bond_atom_site_label_2
_geom_bond_distance
_geom_bond_site_symmetry_2
Mg0_0 Mg2_0 3.368744 1_555
Mg0_1 Mg2_1 3.368744 1_555
Mg0_2 Mg2_2 3.368744 1_555
Mg0_3 Mg2_3 3.368744 1_555
Mg0_4 Mg2_4 3.368744 1_555
Mg0_5 Mg2_5 3.368744 1_555
Mg0_6 Mg2_6 3.368744 1_555
Mg0_7 Mg2_7 3.368744 1_555
Mg1_0 Mg2_0 3.368744 1_555
Mg1_1 Mg2_1 3.368744 1_555
Mg1_2 Mg2_2 3.368744 1_555
Mg1_3 Mg2_3 3.368744 1_555
Mg1_4 Mg2_4 3.368744 1_555
Mg1_5 Mg2_5 3.368744 1_555
Mg1_6 Mg2_6 3.368744 1_555
Mg1_7 Mg2_7 3.368744 1_555
Mg2_0 Mg3_1 2.945071 1_554
Mg2_0 Mg3_0 2.945071 1_555
Mg2_0 Mg4_1 2.945071 1_554
Mg2_0 Mg4_0 2.945071 1_555
Mg2_0 Mg5_0 3.020745 1_555
Mg2_0 Mg5_1 3.020745 1_554
Mg2_0 Mg2_1 3.323389 1_554
Mg2_0 Mg2_1 3.323389 1_555
Mg2_1 Mg3_0 2.945071 1_555
Mg2_1 Mg3_1 2.945071 1_555
Mg2_1 Mg4_1 2.945071 1_555
Mg2_1 Mg4_0 2.945071 1_555
Mg2_1 Mg5_0 3.020745 1_555
Mg2_1 Mg5_1 3.020745 1_555
Mg2_2 Mg3_3 2.945071 1_554
Mg2_2 Mg3_2 2.945071 1_555
Mg2_2 Mg4_2 2.945071 1_555
Mg2_2 Mg4_3 2.945071 1_554
Mg2_2 Mg5_3 3.020745 1_554
Mg2_2 Mg5_2 3.020745 1_555
Mg2_2 Mg2_3 3.323389 1_554
Mg2_2 Mg2_3 3.323389 1_555
Mg2_3 Mg3_3 2.945071 1_555
Mg2_3 Mg3_2 2.945071 1_555
Mg2_3 Mg4_3 2.945071 1_555
Mg2_3 Mg4_2 2.945071 1_555
Mg2_3 Mg5_2 3.020745 1_555
Mg2_3 Mg5_3 3.020745 1_555
Mg2_4 Mg3_4 2.945071 1_555
Mg2_4 Mg3_5 2.945071 1_554
Mg2_4 Mg4_5 2.945071 1_554
Mg2_4 Mg4_4 2.945071 1_555
Mg2_4 Mg5_4 3.020745 1_555
Mg2_4 Mg5_5 3.020745 1_554
Mg2_4 Mg2_5 3.323389 1_555
Mg2_4 Mg2_5 3.323389 1_554
Mg2_5 Mg3_5 2.945071 1_555
Mg2_5 Mg3_4 2.945071 1_555
Mg2_5 Mg4_4 2.945071 1_555
Mg2_5 Mg4_5 2.945071 1_555
Mg2_5 Mg5_4 3.020745 1_555
Mg2_5 Mg5_5 3.020745 1_555
Mg2_6 Mg3_7 2.945071 1_554
Mg2_6 Mg3_6 2.945071 1_555
Mg2_6 Mg4_7 2.945071 1_554
Mg2_6 Mg4_6 2.945071 1_555
Mg2_6 Mg5_6 3.020745 1_555
Mg2_6 Mg5_7 3.020745 1_554
Mg2_6 Mg2_7 3.323389 1_554
Mg2_6 Mg2_7 3.323389 1_555
Mg2_7 Mg3_6 2.945071 1_555
Mg2_7 Mg3_7 2.945071 1_555
Mg2_7 Mg4_7 2.945071 1_555
Mg2_7 Mg4_6 2.945071 1_555
Mg2_7 Mg5_6 3.020745 1_555
Mg2_7 Mg5_7 3.020745 1_555
Mg3_0 V0_3 2.776282 1_555
Mg3_0 V0_2 2.776282 1_555
Mg3_1 V0_3 2.776282 1_555
Mg3_1 V0_2 2.776282 1_556
Mg3_2 V0_0 2.776282 1_565
Mg3_2 V0_1 2.776282 1_565
Mg3_3 V0_0 2.776282 1_566
Mg3_3 V0_1 2.776282 1_565
Mg3_4 V0_7 2.776282 1_555
Mg3_4 V0_6 2.776282 1_555
Mg3_5 V0_7 2.776282 1_555
Mg3_5 V0_6 2.776282 1_556
Mg3_6 V0_4 2.776282 1_565
Mg3_6 V0_5 2.776282 1_565
Mg3_7 V0_4 2.776282 1_566
Mg3_7 V0_5 2.776282 1_565
Mg4_0 V0_5 2.776282 1_455
Mg4_0 V0_4 2.776282 1_455
Mg4_1 V0_5 2.776282 1_455
Mg4_1 V0_4 2.776282 1_456
Mg4_2 V0_6 2.776282 1_455
Mg4_2 V0_7 2.776282 1_455
Mg4_3 V0_6 2.776282 1_456
Mg4_3 V0_7 2.776282 1_455
Mg4_4 V0_0 2.776282 1_555
Mg4_4 V0_1 2.776282 1_555
Mg4_5 V0_0 2.776282 1_556
Mg4_5 V0_1 2.776282 1_555
Mg4_6 V0_3 2.776282 1_555
Mg4_6 V0_2 2.776282 1_555
Mg4_7 V0_3 2.776282 1_555
Mg4_7 V0_2 2.776282 1_556
Mg5_0 V0_7 2.937555 1_455
Mg5_0 V0_6 2.937555 1_455
Mg5_1 V0_7 2.937555 1_455
Mg5_1 V0_6 2.937555 1_456
Mg5_2 V0_5 2.937555 1_465
Mg5_2 V0_4 2.937555 1_465
Mg5_3 V0_5 2.937555 1_465
Mg5_3 V0_4 2.937555 1_466
Mg5_4 V0_3 2.937555 1_555
Mg5_4 V0_2 2.937555 1_555
Mg5_5 V0_3 2.937555 1_555
Mg5_5 V0_2 2.937555 1_556
Mg5_6 V0_0 2.937555 1_565
Mg5_6 V0_1 2.937555 1_565
Mg5_7 V0_0 2.937555 1_566
Mg5_7 V0_1 2.937555 1_565
B0_0 V0_0 2.059647 1_555
B0_0 V0_1 2.059647 1_555
B0_0 Mg0_0 2.562821 1_555
B0_0 Mg0_1 2.562821 1_555
B0_0 Mg1_0 2.562821 1_555
B0_0 Mg1_1 2.562821 1_555
B0_0 Mg4_4 2.619257 1_555
B0_0 Mg3_2 2.619257 1_545
B0_1 V0_0 2.059647 1_556
B0_1 V0_1 2.059647 1_555
B0_1 Mg0_0 2.562821 1_556
B0_1 Mg0_1 2.562821 1_555
B0_1 Mg1_0 2.562821 1_556
B0_1 Mg1_1 2.562821 1_555
B0_1 Mg4_5 2.619257 1_555
B0_1 Mg3_3 2.619257 1_545
B0_2 V0_3 2.059647 1_555
B0_2 V0_2 2.059647 1_555
B0_2 Mg0_3 2.562821 1_555
B0_2 Mg0_2 2.562821 1_555
B0_2 Mg1_2 2.562821 1_555
B0_2 Mg1_3 2.562821 1_555
B0_2 Mg4_6 2.619257 1_555
B0_2 Mg3_0 2.619257 1_555
B0_3 V0_3 2.059647 1_555
B0_3 V0_2 2.059647 1_556
B0_3 Mg0_2 2.562821 1_556
B0_3 Mg0_3 2.562821 1_555
B0_3 Mg1_3 2.562821 1_555
B0_3 Mg1_2 2.562821 1_556
B0_3 Mg4_7 2.619257 1_555
B0_3 Mg3_1 2.619257 1_555
B0_4 V0_4 2.059647 1_555
B0_4 V0_5 2.059647 1_555
B0_4 Mg0_5 2.562821 1_555
B0_4 Mg0_4 2.562821 1_555
B0_4 Mg1_4 2.562821 1_555
B0_4 Mg1_5 2.562821 1_555
B0_4 Mg4_0 2.619257 1_655
B0_4 Mg3_6 2.619257 1_545
B0_5 V0_4 2.059647 1_556
B0_5 V0_5 2.059647 1_555
B0_5 Mg0_5 2.562821 1_555
B0_5 Mg0_4 2.562821 1_556
B0_5 Mg1_4 2.562821 1_556
B0_5 Mg1_5 2.562821 1_555
B0_5 Mg4_1 2.619257 1_655
B0_5 Mg3_7 2.619257 1_545
B0_6 V0_6 2.059647 1_555
B0_6 V0_7 2.059647 1_555
B0_6 Mg0_6 2.562821 1_555
B0_6 Mg0_7 2.562821 1_555
B0_6 Mg1_6 2.562821 1_555
B0_6 Mg1_7 2.562821 1_555
B0_6 Mg4_2 2.619257 1_655
B0_6 Mg3_4 2.619257 1_555
B0_7 V0_6 2.059647 1_556
B0_7 V0_7 2.059647 1_555
B0_7 Mg0_7 2.562821 1_555
B0_7 Mg0_6 2.562821 1_556
B0_7 Mg1_7 2.562821 1_555
B0_7 Mg1_6 2.562821 1_556
B0_7 Mg4_3 2.619257 1_655
B0_7 Mg3_5 2.619257 1_555
