# generated using pymatgen
data_Yb19Mg8
_symmetry_space_group_name_H-M   'P 1'
_cell_length_a   10.73056224
_cell_length_b   10.73056224
_cell_length_c   10.73056224
_cell_angle_alpha   109.47122063
_cell_angle_beta   109.47122063
_cell_angle_gamma   109.47122063
_symmetry_Int_Tables_number   1
_chemical_formula_structural   Yb19Mg8
_chemical_formula_sum   'Yb19 Mg8'
_cell_volume   951.14240302
_cell_formula_units_Z   1
loop_
 _symmetry_equiv_pos_site_id
 _symmetry_equiv_pos_as_xyz
  1  'x, y, z'
loop_
 _atom_site_type_symbol
 _atom_site_label
 _atom_site_symmetry_multiplicity
 _atom_site_fract_x
 _atom_site_fract_y
 _atom_site_fract_z
 _atom_site_occupancy
  Yb  Yb0  1  0.33488000  0.02762100  0.69274000  1
  Yb  Yb1  1  0.66512000  0.97237900  0.30726000  1
  Yb  Yb2  1  0.66512000  0.35786000  0.69274000  1
  Yb  Yb3  1  0.33488000  0.64214000  0.30726000  1
  Yb  Yb4  1  0.02762100  0.69274000  0.33488000  1
  Yb  Yb5  1  0.97237900  0.30726000  0.66512000  1
  Yb  Yb6  1  0.35786000  0.69274000  0.66512000  1
  Yb  Yb7  1  0.64214000  0.30726000  0.33488000  1
  Yb  Yb8  1  0.69274000  0.33488000  0.02762100  1
  Yb  Yb9  1  0.30726000  0.66512000  0.97237900  1
  Yb  Yb10  1  0.69274000  0.66512000  0.35786000  1
  Yb  Yb11  1  0.30726000  0.33488000  0.64214000  1
  Yb  Yb12  1  0.68022700  0.00000000  0.68022700  1
  Yb  Yb13  1  0.31977300  0.00000000  0.31977300  1
  Yb  Yb14  1  0.00000000  0.68022700  0.68022700  1
  Yb  Yb15  1  0.00000000  0.31977300  0.31977300  1
  Yb  Yb16  1  0.68022700  0.68022700  0.00000000  1
  Yb  Yb17  1  0.31977300  0.31977300  0.00000000  1
  Yb  Yb18  1  0.00000000  0.00000000  0.00000000  1
  Mg  Mg0  1  0.00000000  0.00000000  0.66621500  1
  Mg  Mg1  1  0.66621500  0.00000000  0.00000000  1
  Mg  Mg2  1  0.00000000  0.66621500  0.00000000  1
  Mg  Mg3  1  0.33378500  0.33378500  0.33378500  1
  Mg  Mg4  1  0.00000000  0.00000000  0.33378500  1
  Mg  Mg5  1  0.33378500  0.00000000  0.00000000  1
  Mg  Mg6  1  0.00000000  0.33378500  0.00000000  1
  Mg  Mg7  1  0.66621500  0.66621500  0.66621500  1
loop_
_geom_bond_atom_site_label_1
_geom_bond_atom_site_label_2
_geom_bond_distance
_geom_bond_site_symmetry_2
Mg0 Yb0 3.410807 1_555
Mg0 Yb10 3.410810 1_445
Mg0 Yb5 3.410814 1_455
Mg0 Yb17 3.484348 1_556
Mg0 Yb12 3.484348 1_455
Mg0 Yb14 3.484348 1_545
Mg0 Yb18 3.581701 1_556
Mg1 Yb8 3.410807 1_555
Mg1 Yb6 3.410810 1_544
Mg1 Yb1 3.410814 1_545
Mg1 Yb16 3.484348 1_545
Mg1 Yb12 3.484348 1_554
Mg1 Yb15 3.484348 1_655
Mg1 Yb18 3.581701 1_655
Mg2 Yb4 3.410807 1_555
Mg2 Yb2 3.410810 1_454
Mg2 Yb9 3.410814 1_554
Mg2 Yb14 3.484348 1_554
Mg2 Yb16 3.484348 1_455
Mg2 Yb13 3.484348 1_565
Mg2 Yb18 3.581701 1_565
Mg3 Yb11 3.410810 1_555
Mg3 Yb3 3.410810 1_555
Mg3 Yb7 3.410810 1_555
Mg3 Yb15 3.484348 1_555
Mg3 Yb13 3.484348 1_555
Mg3 Yb17 3.484348 1_555
Mg3 Yb18 3.581701 1_555
Mg4 Yb1 3.410807 1_445
Mg4 Yb11 3.410810 1_555
Mg4 Yb4 3.410814 1_545
Mg4 Yb15 3.484348 1_555
Mg4 Yb13 3.484348 1_555
Mg4 Yb16 3.484348 1_445
Mg4 Yb18 3.581701 1_555
Mg5 Yb9 3.410807 1_544
Mg5 Yb7 3.410810 1_555
Mg5 Yb0 3.410814 1_554
Mg5 Yb13 3.484348 1_555
Mg5 Yb17 3.484348 1_555
Mg5 Yb14 3.484348 1_544
Mg5 Yb18 3.581701 1_555
Mg6 Yb5 3.410807 1_454
Mg6 Yb3 3.410810 1_555
Mg6 Yb8 3.410814 1_455
Mg6 Yb15 3.484348 1_555
Mg6 Yb17 3.484348 1_555
Mg6 Yb12 3.484348 1_454
Mg6 Yb18 3.581701 1_555
Mg7 Yb6 3.410810 1_555
Mg7 Yb10 3.410810 1_555
Mg7 Yb2 3.410810 1_555
Mg7 Yb12 3.484348 1_565
Mg7 Yb16 3.484348 1_556
Mg7 Yb14 3.484348 1_655
Mg7 Yb18 3.581701 1_666
