# generated using pymatgen
data_Si2AgN3
_symmetry_space_group_name_H-M   'P 1'
_cell_length_a   2.85677600
_cell_length_b   2.85677549
_cell_length_c   25.74472700
_cell_angle_alpha   90.00000000
_cell_angle_beta   90.00000000
_cell_angle_gamma   120.00000591
_symmetry_Int_Tables_number   1
_chemical_formula_structural   Si2AgN3
_chemical_formula_sum   'Si6 Ag3 N9'
_cell_volume   181.95801755
_cell_formula_units_Z   3
loop_
 _symmetry_equiv_pos_site_id
 _symmetry_equiv_pos_as_xyz
  1  'x, y, z'
loop_
 _atom_site_type_symbol
 _atom_site_label
 _atom_site_symmetry_multiplicity
 _atom_site_fract_x
 _atom_site_fract_y
 _atom_site_fract_z
 _atom_site_occupancy
  Si  Si0  1  0.33137600  0.02246100  0.11506900  1
  Si  Si1  1  0.69108400  0.66862400  0.78173500  1
  Si  Si2  1  0.97753900  0.30891600  0.44840200  1
  Si  Si3  1  0.66862400  0.69108400  0.21826500  1
  Si  Si4  1  0.02246100  0.33137600  0.88493100  1
  Si  Si5  1  0.30891600  0.97753900  0.55159800  1
  Ag  Ag0  1  0.00000000  0.35092200  0.66666700  1
  Ag  Ag1  1  0.35092200  0.00000000  0.33333300  1
  Ag  Ag2  1  0.64907800  0.64907800  0.00000000  1
  N  N0  1  0.00000000  0.20616300  0.16666700  1
  N  N1  1  0.20616300  0.00000000  0.83333300  1
  N  N2  1  0.79383700  0.79383700  0.50000000  1
  N  N3  1  0.32795800  0.98434200  0.41839000  1
  N  N4  1  0.65638500  0.67204200  0.08505600  1
  N  N5  1  0.01565800  0.34361500  0.75172300  1
  N  N6  1  0.67204200  0.65638500  0.91494400  1
  N  N7  1  0.98434200  0.32795800  0.58161000  1
  N  N8  1  0.34361500  0.01565800  0.24827700  1
loop_
_geom_bond_atom_site_label_1
_geom_bond_atom_site_label_2
_geom_bond_distance
_geom_bond_site_symmetry_2
Ag0 N5 2.190513 1_555
Ag0 N7 2.190539 1_455
Ag1 N8 2.190513 1_555
Ag1 N3 2.190539 1_545
Ag2 N4 2.190513 1_555
Ag2 N6 2.190513 1_554
N0 Si0 1.852830 1_555
N0 Si3 1.852831 1_445
N0 Si3 2.164738 1_555
N0 Si0 2.164739 1_455
N0 Si3 2.427195 1_455
N0 Si0 2.427197 1_565
N1 Si4 1.852830 1_555
N1 Si1 1.852831 1_445
N1 Si1 2.164738 1_555
N1 Si4 2.164738 1_545
N1 Si1 2.427195 1_545
N1 Si4 2.427197 1_655
N2 Si2 1.852832 1_565
N2 Si5 1.852832 1_655
N2 Si2 2.164736 1_555
N2 Si5 2.164737 1_555
N2 Si5 2.427197 1_545
N2 Si2 2.427197 1_455
N3 Si2 1.783179 1_565
N3 Si2 1.840413 1_465
N3 Si2 1.841372 1_455
N4 Si0 1.783190 1_555
N4 Si0 1.840419 1_665
N4 Si0 1.841388 1_565
N5 Si1 1.783183 1_455
N5 Si1 1.840408 1_445
N5 Si1 1.841372 1_555
N6 Si4 1.783190 1_555
N6 Si4 1.840419 1_665
N6 Si4 1.841388 1_655
N7 Si5 1.783179 1_655
N7 Si5 1.840413 1_645
N7 Si5 1.841372 1_545
N8 Si3 1.783183 1_545
N8 Si3 1.840408 1_445
N8 Si3 1.841372 1_555
