# generated using pymatgen
data_Ho2Te(Mo3O23)2
_symmetry_space_group_name_H-M   'P 1'
_cell_length_a   8.81911710
_cell_length_b   10.32414029
_cell_length_c   12.09292553
_cell_angle_alpha   97.36978377
_cell_angle_beta   97.79186658
_cell_angle_gamma   121.68304815
_symmetry_Int_Tables_number   1
_chemical_formula_structural   Ho2Te(Mo3O23)2
_chemical_formula_sum   'Ho2 Te1 Mo6 O46'
_cell_volume   901.95569838
_cell_formula_units_Z   1
loop_
 _symmetry_equiv_pos_site_id
 _symmetry_equiv_pos_as_xyz
  1  'x, y, z'
loop_
 _atom_site_type_symbol
 _atom_site_label
 _atom_site_symmetry_multiplicity
 _atom_site_fract_x
 _atom_site_fract_y
 _atom_site_fract_z
 _atom_site_occupancy
  Ho  Ho0  1  0.01518200  0.99985300  0.31006900  1
  Ho  Ho1  1  0.98481800  0.00014700  0.68993100  1
  Te  Te0  1  0.50000000  0.50000000  0.50000000  1
  Mo  Mo0  1  0.47672400  0.23399100  0.64790600  1
  Mo  Mo1  1  0.52327700  0.76600900  0.35209400  1
  Mo  Mo2  1  0.31465000  0.45525400  0.74234400  1
  Mo  Mo3  1  0.68534900  0.54474600  0.25765600  1
  Mo  Mo4  1  0.34321400  0.71634800  0.60241100  1
  Mo  Mo5  1  0.65678600  0.28365200  0.39758900  1
  O  O0  1  0.28093700  0.30777300  0.53557600  1
  O  O1  1  0.71906300  0.69222700  0.46442400  1
  O  O2  1  0.51896500  0.61122700  0.64942000  1
  O  O3  1  0.48103500  0.38877300  0.35058000  1
  O  O4  1  0.63886300  0.41594100  0.56412400  1
  O  O5  1  0.36113700  0.58405900  0.43587600  1
  O  O6  1  0.49156800  0.38990300  0.75541600  1
  O  O7  1  0.50843200  0.61009700  0.24458400  1
  O  O8  1  0.19096200  0.52793600  0.65332000  1
  O  O9  1  0.80903800  0.47206400  0.34668000  1
  O  O10  1  0.42918800  0.13302500  0.46956900  1
  O  O11  1  0.57081200  0.86697500  0.53043100  1
  O  O12  1  0.64126600  0.20848000  0.71049100  1
  O  O13  1  0.35873400  0.79152000  0.28950900  1
  O  O14  1  0.25774000  0.07249100  0.65661200  1
  O  O15  1  0.74226000  0.92750900  0.34338800  1
  O  O16  1  0.38246300  0.57018300  0.87704000  1
  O  O17  1  0.61753700  0.42981700  0.12296000  1
  O  O18  1  0.12614700  0.26480700  0.74270100  1
  O  O19  1  0.87385300  0.73519300  0.25729900  1
  O  O20  1  0.18654500  0.73833300  0.52115700  1
  O  O21  1  0.81345500  0.26166700  0.47884300  1
  O  O22  1  0.44103800  0.85909700  0.72807100  1
  O  O23  1  0.55896200  0.14090300  0.27192900  1
  O  O24  1  0.13786100  0.89019400  0.12056600  1
  O  O25  1  0.86213900  0.10980600  0.87943400  1
  O  O26  1  0.11692200  0.20220400  0.45202000  1
  O  O27  1  0.88307800  0.79779600  0.54798000  1
  O  O28  1  0.25866500  0.01605700  0.40128000  1
  O  O29  1  0.74133500  0.98394300  0.59872000  1
  O  O30  1  0.01688400  0.15287000  0.18941900  1
  O  O31  1  0.98311600  0.84713000  0.81058100  1
  O  O32  1  0.98117800  0.26450700  0.23815400  1
  O  O33  1  0.01882200  0.73549300  0.76184600  1
  O  O34  1  0.75361300  0.83066400  0.05131100  1
  O  O35  1  0.24638700  0.16933600  0.94868900  1
  O  O36  1  0.99579400  0.63526300  0.81893000  1
  O  O37  1  0.00420600  0.36473700  0.18107000  1
  O  O38  1  0.78620200  0.28910000  0.97565700  1
  O  O39  1  0.21379800  0.71090000  0.02434300  1
  O  O40  1  0.74375400  0.06298900  0.93544500  1
  O  O41  1  0.25624600  0.93701100  0.06455500  1
  O  O42  1  0.24149400  0.26959400  0.01280000  1
  O  O43  1  0.75850600  0.73040600  0.98720000  1
  O  O44  1  0.90773600  0.34268700  0.92378300  1
  O  O45  1  0.09226400  0.65731300  0.07621700  1
loop_
_geom_bond_atom_site_label_1
_geom_bond_atom_site_label_2
_geom_bond_distance
_geom_bond_site_symmetry_2
Ho0 O28 2.188294 1_565
Ho0 O26 2.193053 1_565
Ho0 O15 2.228293 1_455
Ho0 O19 2.277336 1_455
Ho0 O30 2.279682 1_565
Ho0 O24 2.999545 1_555
Ho1 O29 2.188294 1_545
Ho1 O27 2.193053 1_545
Ho1 O14 2.228293 1_655
Ho1 O18 2.277336 1_655
Ho1 O31 2.279682 1_545
Ho1 O25 2.999545 1_555
Mo0 O12 1.703738 1_555
Mo0 O14 1.799592 1_555
Mo0 O6 1.869235 1_555
Mo0 O10 2.152303 1_555
Mo0 O4 2.158563 1_555
Mo0 O0 2.533368 1_555
Mo1 O13 1.703745 1_555
Mo1 O15 1.799587 1_555
Mo1 O7 1.869231 1_555
Mo1 O11 2.152304 1_555
Mo1 O5 2.158566 1_555
Mo1 O1 2.533361 1_555
Mo2 O16 1.706864 1_555
Mo2 O18 1.788916 1_555
Mo2 O8 1.913263 1_555
Mo2 O6 1.995217 1_555
Mo2 O2 2.251199 1_555
Mo2 O0 2.646710 1_555
Mo3 O17 1.706866 1_555
Mo3 O19 1.788919 1_555
Mo3 O9 1.913269 1_555
Mo3 O7 1.995209 1_555
Mo3 O3 2.251195 1_555
Mo3 O1 2.646707 1_555
Mo4 O20 1.715979 1_555
Mo4 O22 1.720420 1_555
Mo4 O8 1.937385 1_555
Mo4 O11 2.178777 1_555
Mo4 O5 2.356595 1_555
Mo4 O2 2.364271 1_555
Mo5 O21 1.715979 1_555
Mo5 O23 1.720420 1_555
Mo5 O9 1.937385 1_555
Mo5 O10 2.178777 1_555
Mo5 O4 2.356595 1_555
Mo5 O3 2.364271 1_555
O0 O26 1.402242 1_555
O0 Te0 2.067115 1_555
O1 O27 1.402242 1_555
O1 Te0 2.067115 1_555
O2 Te0 1.948227 1_555
O3 Te0 1.948227 1_555
O4 Te0 1.971237 1_555
O5 Te0 1.971237 1_555
O10 O28 1.378990 1_555
O11 O29 1.378990 1_555
O24 O41 1.236163 1_555
O25 O40 1.236163 1_555
O30 O32 1.425545 1_455
O31 O33 1.425545 1_655
O32 O37 1.260588 1_655
O33 O36 1.260588 1_455
O34 O43 1.234681 1_554
O35 O42 1.234681 1_556
O38 O44 1.223460 1_555
O39 O45 1.223460 1_555
