# generated using pymatgen
data_LiYb3
_symmetry_space_group_name_H-M   'P 1'
_cell_length_a   7.44592730
_cell_length_b   7.44592730
_cell_length_c   6.07788300
_cell_angle_alpha   90.00000000
_cell_angle_beta   90.00000000
_cell_angle_gamma   119.99999382
_symmetry_Int_Tables_number   1
_chemical_formula_structural   LiYb3
_chemical_formula_sum   'Li2 Yb6'
_cell_volume   291.82371243
_cell_formula_units_Z   2
loop_
 _symmetry_equiv_pos_site_id
 _symmetry_equiv_pos_as_xyz
  1  'x, y, z'
loop_
 _atom_site_type_symbol
 _atom_site_label
 _atom_site_symmetry_multiplicity
 _atom_site_fract_x
 _atom_site_fract_y
 _atom_site_fract_z
 _atom_site_occupancy
  Li  Li0  1  0.33333300  0.66666700  0.75000000  1
  Li  Li1  1  0.66666700  0.33333300  0.25000000  1
  Yb  Yb0  1  0.83134600  0.16865400  0.75000000  1
  Yb  Yb1  1  0.33730700  0.16865400  0.75000000  1
  Yb  Yb2  1  0.83134600  0.66269300  0.75000000  1
  Yb  Yb3  1  0.16865400  0.83134600  0.25000000  1
  Yb  Yb4  1  0.66269300  0.83134600  0.25000000  1
  Yb  Yb5  1  0.16865400  0.33730700  0.25000000  1
loop_
_geom_bond_atom_site_label_1
_geom_bond_atom_site_label_2
_geom_bond_distance
_geom_bond_site_symmetry_2
Li0 Yb3 3.707530 1_556
Li0 Yb3 3.707530 1_555
Li0 Yb5 3.707537 1_555
Li0 Yb5 3.707537 1_556
Li0 Yb4 3.707537 1_555
Li0 Yb4 3.707537 1_556
Li0 Yb1 3.723052 1_555
Li0 Yb2 3.723052 1_555
Li0 Yb2 3.723052 1_455
Li0 Yb1 3.723052 1_565
Li0 Yb0 3.723052 1_455
Li0 Yb0 3.723052 1_565
Li1 Yb0 3.707530 1_554
Li1 Yb0 3.707530 1_555
Li1 Yb1 3.707537 1_555
Li1 Yb1 3.707537 1_554
Li1 Yb2 3.707537 1_554
Li1 Yb2 3.707537 1_555
Li1 Yb4 3.723052 1_555
Li1 Yb5 3.723052 1_555
Li1 Yb4 3.723052 1_545
Li1 Yb5 3.723052 1_655
Li1 Yb3 3.723052 1_545
Li1 Yb3 3.723052 1_655
Yb0 Yb1 3.678578 1_555
Yb0 Yb2 3.678578 1_555
Yb0 Yb4 3.737132 1_545
Yb0 Yb4 3.737132 1_546
Yb0 Yb5 3.737132 1_656
Yb0 Yb5 3.737132 1_655
Yb0 Yb1 3.767349 1_655
Yb0 Yb2 3.767349 1_545
Yb1 Yb2 3.678579 1_555
Yb1 Yb5 3.737125 1_556
Yb1 Yb5 3.737125 1_555
Yb1 Yb3 3.737132 1_546
Yb1 Yb3 3.737132 1_545
Yb1 Yb2 3.767349 1_445
Yb2 Yb4 3.737125 1_555
Yb2 Yb4 3.737125 1_556
Yb2 Yb3 3.737132 1_655
Yb2 Yb3 3.737132 1_656
Yb3 Yb4 3.678578 1_555
Yb3 Yb5 3.678578 1_555
Yb3 Yb5 3.767349 1_565
Yb3 Yb4 3.767349 1_455
Yb4 Yb5 3.678579 1_555
Yb4 Yb5 3.767349 1_665
