# generated using pymatgen
data_Ti2O
_symmetry_space_group_name_H-M   'P 1'
_cell_length_a   11.55155748
_cell_length_b   10.98421613
_cell_length_c   11.07932645
_cell_angle_alpha   84.16063107
_cell_angle_beta   89.71169472
_cell_angle_gamma   85.31591368
_symmetry_Int_Tables_number   1
_chemical_formula_structural   Ti2O
_chemical_formula_sum   'Ti68 O34'
_cell_volume   1393.82506561
_cell_formula_units_Z   34
loop_
 _symmetry_equiv_pos_site_id
 _symmetry_equiv_pos_as_xyz
  1  'x, y, z'
loop_
 _atom_site_type_symbol
 _atom_site_label
 _atom_site_symmetry_multiplicity
 _atom_site_fract_x
 _atom_site_fract_y
 _atom_site_fract_z
 _atom_site_occupancy
  Ti  Ti0  1  0.17380071  0.73696932  0.18719593  1
  Ti  Ti1  1  0.70632180  0.91415877  0.75502040  1
  Ti  Ti2  1  0.82221530  0.47791218  0.34029685  1
  Ti  Ti3  1  0.90274061  0.47457541  0.08084747  1
  Ti  Ti4  1  0.03407680  0.03923649  0.89746793  1
  Ti  Ti5  1  0.66859122  0.13557330  0.03374773  1
  Ti  Ti6  1  0.06392925  0.03813223  0.35409909  1
  Ti  Ti7  1  0.27453929  0.92250785  0.01982010  1
  Ti  Ti8  1  0.28587961  0.91654884  0.28828194  1
  Ti  Ti9  1  0.46515334  0.73003308  0.87104627  1
  Ti  Ti10  1  0.95643669  0.69764434  0.44748605  1
  Ti  Ti11  1  0.43748110  0.71259969  0.37247151  1
  Ti  Ti12  1  0.42271372  0.22346615  0.32407102  1
  Ti  Ti13  1  0.04625689  0.55253708  0.28145240  1
  Ti  Ti14  1  0.24195948  0.38517954  0.63527552  1
  Ti  Ti15  1  0.44768594  0.95309156  0.71432827  1
  Ti  Ti16  1  0.43963473  0.75437392  0.12859841  1
  Ti  Ti17  1  0.21544294  0.85076271  0.78885522  1
  Ti  Ti18  1  0.81900089  0.44458622  0.84444081  1
  Ti  Ti19  1  0.86546822  0.19730605  0.57365945  1
  Ti  Ti20  1  0.84637594  0.92631759  0.04574354  1
  Ti  Ti21  1  0.43906788  0.08911090  0.92458342  1
  Ti  Ti22  1  0.95399825  0.87307297  0.26435044  1
  Ti  Ti23  1  0.26608647  0.62963785  0.99642270  1
  Ti  Ti24  1  0.01140767  0.30697519  0.72718297  1
  Ti  Ti25  1  0.69926336  0.33823805  0.12883097  1
  Ti  Ti26  1  0.62199230  0.88701721  -0.00003598  1
  Ti  Ti27  1  0.84249392  0.92742292  0.48964778  1
  Ti  Ti28  1  0.00046137  0.29597029  0.30529610  1
  Ti  Ti29  1  0.34869737  0.53588211  0.80081071  1
  Ti  Ti30  1  0.91005063  0.14997781  0.11036643  1
  Ti  Ti31  1  0.06675145  0.06567852  0.62604535  1
  Ti  Ti32  1  0.29475045  0.31083633  0.89542316  1
  Ti  Ti33  1  0.32399276  0.98248552  0.51132598  1
  Ti  Ti34  1  0.21155812  0.62182236  0.46491422  1
  Ti  Ti35  1  0.70464783  0.39491320  0.62473893  1
  Ti  Ti36  1  0.63494377  0.58867134  0.16813997  1
  Ti  Ti37  1  0.15379188  0.42018941  0.10921502  1
  Ti  Ti38  1  0.64006727  0.09924083  0.55716116  1
  Ti  Ti39  1  0.70166044  0.28458273  0.38869366  1
  Ti  Ti40  1  0.25186427  0.40839611  0.35336838  1
  Ti  Ti41  1  0.49333060  0.42952593  0.46495184  1
  Ti  Ti42  1  0.67645096  0.63381681  0.47391679  1
  Ti  Ti43  1  0.11725494  0.63620609  0.67990237  1
  Ti  Ti44  1  0.06557767  0.49891102  0.86714225  1
  Ti  Ti45  1  0.00823722  0.71013059  0.98829595  1
  Ti  Ti46  1  0.86028577  0.69138370  0.18296535  1
  Ti  Ti47  1  0.27560739  0.14903573  0.14434681  1
  Ti  Ti48  1  0.82484861  0.14723266  0.84281411  1
  Ti  Ti49  1  0.76689946  0.05377890  0.27067940  1
  Ti  Ti50  1  0.42552107  0.20892397  0.59223200  1
  Ti  Ti51  1  0.59609564  0.61171256  0.71215542  1
  Ti  Ti52  1  0.12035940  0.84406999  0.53749413  1
  Ti  Ti53  1  0.47207560  0.28385760  0.06665022  1
  Ti  Ti54  1  0.96010447  0.86437714  0.73339985  1
  Ti  Ti55  1  0.36373049  0.73787256  0.62598733  1
  Ti  Ti56  1  0.00039252  0.47332579  0.52366824  1
  Ti  Ti57  1  0.24391908  0.12724955  0.76000140  1
  Ti  Ti58  1  0.19696796  0.20269671  0.46783191  1
  Ti  Ti59  1  0.74887121  0.67860132  0.93134376  1
  Ti  Ti60  1  0.40654749  0.52038094  0.20626973  1
  Ti  Ti61  1  0.49136659  0.01011324  0.17811349  1
  Ti  Ti62  1  0.84588502  0.65225384  0.66446084  1
  Ti  Ti63  1  0.55119411  0.50074656  0.94583214  1
  Ti  Ti64  1  0.57400878  0.86019390  0.53273371  1
  Ti  Ti65  1  0.04668701  0.27094830  0.95550018  1
  Ti  Ti66  1  0.67457623  0.82574041  0.27862340  1
  Ti  Ti67  1  0.52029816  0.31379658  0.80644170  1
  O  O0  1  0.96334543  0.88316450  0.91573269  1
  O  O1  1  0.99981928  0.30960522  0.12479100  1
  O  O2  1  0.68872454  0.73603992  0.61737464  1
  O  O3  1  0.72741116  0.49724615  0.01074551  1
  O  O4  1  0.75246145  0.09268180  0.68718801  1
  O  O5  1  0.54274283  0.43909852  0.12505562  1
  O  O6  1  0.95282717  0.49959666  0.70890400  1
  O  O7  1  0.32960631  0.97239098  0.84463413  1
  O  O8  1  0.48418581  0.03101299  0.54470442  1
  O  O9  1  0.28424314  0.56810009  0.63131752  1
  O  O10  1  0.01491027  0.17308116  0.45784074  1
  O  O11  1  0.22372559  0.54743681  0.19112501  1
  O  O12  1  0.12313512  0.89321755  0.26007798  1
  O  O13  1  0.28241415  0.79801364  0.45807184  1
  O  O14  1  0.66980679  0.45066641  0.44911682  1
  O  O15  1  0.83474485  0.30329212  0.72620737  1
  O  O16  1  0.78024530  0.10962000  0.44292870  1
  O  O17  1  0.19493085  0.27039559  0.03484243  1
  O  O18  1  0.73290529  0.64459899  0.30001165  1
  O  O19  1  0.72844500  0.00344330  0.91030890  1
  O  O20  1  0.55443435  0.31631861  0.63285871  1
  O  O21  1  0.82344390  0.77318845  0.79336438  1
  O  O22  1  0.16372626  0.78890160  0.00236063  1
  O  O23  1  0.64481111  0.43732487  0.79952772  1
  O  O24  1  0.82621674  0.30219264  0.26172083  1
  O  O25  1  0.45429942  0.91592173  0.03010334  1
  O  O26  1  0.54038401  0.24263148  0.44141700  1
  O  O27  1  0.36437571  0.54434378  0.38823714  1
  O  O28  1  0.14206192  0.23623381  0.63385709  1
  O  O29  1  0.67189846  0.97324015  0.14798269  1
  O  O30  1  0.91249985  0.57898500  0.92148814  1
  O  O31  1  0.50783428  0.66154019  0.54419784  1
  O  O32  1  0.79668551  0.25698125  0.98688253  1
  O  O33  1  0.37052473  0.06448066  0.30025435  1
loop_
_geom_bond_atom_site_label_1
_geom_bond_atom_site_label_2
_geom_bond_distance
_geom_bond_site_symmetry_2
Ti10 Ti56 2.533407 1_655
Ti10 Ti22 2.650844 1_555
Ti10 Ti13 2.703375 1_655
Ti10 Ti62 2.736336 1_555
Ti10 Ti52 2.830138 1_655
Ti10 Ti27 2.830554 1_555
O0 Ti4 1.950377 1_665
O0 Ti45 2.014942 1_655
O0 Ti20 2.034687 1_556
O0 Ti54 2.052253 1_555
O1 Ti28 1.990228 1_655
O1 Ti65 2.026248 1_654
O1 Ti3 2.066950 1_555
O1 Ti30 2.128575 1_555
O1 Ti37 2.230660 1_655
O2 Ti64 1.988044 1_555
O2 Ti51 2.012003 1_555
O2 Ti62 2.013445 1_555
O2 Ti42 2.049031 1_555
O2 Ti1 2.621085 1_555
O3 Ti25 2.119301 1_555
O3 Ti59 2.127315 1_554
O3 Ti63 2.158388 1_554
O3 Ti3 2.159006 1_555
O3 Ti18 2.224009 1_554
O3 Ti36 2.313598 1_555
O4 Ti38 1.936138 1_555
O4 Ti48 2.082736 1_555
O4 Ti19 2.131020 1_555
O4 Ti1 2.135637 1_545
O5 Ti60 2.000438 1_555
O5 Ti63 2.036227 1_554
O5 Ti25 2.040191 1_555
O5 Ti53 2.109500 1_555
O5 Ti36 2.124137 1_555
O6 Ti62 2.019917 1_555
O6 Ti24 2.157748 1_655
O6 Ti56 2.163403 1_655
O6 Ti44 2.188315 1_655
O6 Ti18 2.225863 1_555
O6 Ti43 2.514725 1_655
O7 Ti15 1.996234 1_555
O7 Ti57 2.040144 1_565
O7 Ti7 2.073697 1_556
O7 Ti17 2.090426 1_555
O7 Ti21 2.129388 1_565
O8 Ti33 2.013270 1_545
O8 Ti38 2.016697 1_555
O8 Ti15 2.041041 1_545
O8 Ti64 2.084714 1_545
O8 Ti50 2.131893 1_555
O9 Ti29 2.010422 1_555
O9 Ti34 2.040948 1_555
O9 Ti43 2.099081 1_555
O9 Ti14 2.102304 1_555
O9 Ti55 2.140287 1_555
O10 Ti6 2.010474 1_555
O10 Ti28 2.051383 1_555
O10 Ti58 2.159236 1_555
O10 Ti19 2.160931 1_455
O10 Ti31 2.161448 1_555
O11 Ti37 1.969689 1_555
O11 Ti0 2.110539 1_555
O11 Ti60 2.113626 1_555
O11 Ti40 2.243996 1_555
O11 Ti13 2.275816 1_555
O11 Ti23 2.318038 1_554
O12 Ti8 1.948958 1_555
O12 Ti22 1.983951 1_455
O12 Ti0 2.013284 1_555
O12 Ti6 2.058892 1_565
O13 Ti55 2.108544 1_555
O13 Ti52 2.110424 1_555
O13 Ti34 2.156246 1_555
O13 Ti8 2.178296 1_555
O13 Ti11 2.208572 1_555
O13 Ti33 2.256033 1_555
O14 Ti39 2.011967 1_555
O14 Ti35 2.012019 1_555
O14 Ti42 2.065548 1_555
O14 Ti41 2.075070 1_555
O14 Ti2 2.152670 1_555
O15 Ti35 2.018637 1_555
O15 Ti24 2.044537 1_655
O15 Ti48 2.049507 1_555
O15 Ti18 2.126721 1_555
O15 Ti19 2.159778 1_555
O16 Ti38 2.053535 1_555
O16 Ti49 2.073305 1_555
O16 Ti27 2.085206 1_545
O16 Ti39 2.089050 1_555
O16 Ti19 2.108982 1_555
O17 Ti47 1.896535 1_555
O17 Ti65 1.928114 1_554
O17 Ti37 1.938110 1_555
O17 Ti32 1.959341 1_554
O18 Ti46 2.019802 1_555
O18 Ti42 2.026133 1_555
O18 Ti36 2.026180 1_555
O18 Ti2 2.036096 1_555
O18 Ti66 2.038566 1_555
O19 Ti26 2.029865 1_546
O19 Ti48 2.081450 1_555
O19 Ti1 2.091867 1_545
O19 Ti20 2.097262 1_546
O19 Ti5 2.164556 1_556
O20 Ti67 1.959133 1_555
O20 Ti35 1.997894 1_555
O20 Ti50 2.052664 1_555
O20 Ti41 2.214577 1_555
O20 Ti38 2.716749 1_555
O21 Ti1 1.984540 1_555
O21 Ti59 1.992042 1_555
O21 Ti54 2.012228 1_555
O21 Ti62 2.048777 1_555
O22 Ti23 2.036566 1_554
O22 Ti7 2.048605 1_555
O22 Ti45 2.069568 1_554
O22 Ti0 2.070384 1_555
O22 Ti17 2.477741 1_554
O23 Ti67 2.052361 1_555
O23 Ti18 2.084979 1_555
O23 Ti63 2.090780 1_555
O23 Ti51 2.091665 1_555
O23 Ti35 2.136000 1_555
O24 Ti39 2.014037 1_555
O24 Ti28 2.066325 1_655
O24 Ti25 2.069649 1_555
O24 Ti2 2.193720 1_555
O25 Ti26 1.969602 1_555
O25 Ti16 2.005373 1_555
O25 Ti7 2.075157 1_555
O25 Ti61 2.089867 1_565
O25 Ti21 2.124033 1_564
O25 Ti9 2.824619 1_554
O26 Ti12 1.924176 1_555
O26 Ti39 2.024546 1_555
O26 Ti41 2.122035 1_555
O26 Ti50 2.149801 1_555
O26 Ti38 2.181470 1_555
O27 Ti41 2.004939 1_555
O27 Ti11 2.084966 1_555
O27 Ti60 2.109102 1_555
O27 Ti34 2.109229 1_555
O27 Ti40 2.123138 1_555
O28 Ti24 1.976620 1_555
O28 Ti58 2.002379 1_555
O28 Ti57 2.053487 1_555
O28 Ti14 2.079021 1_555
O28 Ti31 2.138675 1_555
O29 Ti66 2.058154 1_555
O29 Ti49 2.062319 1_565
O29 Ti5 2.076759 1_565
O29 Ti26 2.081702 1_555
O29 Ti61 2.122978 1_565
O29 Ti20 2.353103 1_555
O30 Ti3 2.013058 1_556
O30 Ti44 2.026332 1_655
O30 Ti45 2.081213 1_655
O30 Ti59 2.113382 1_555
O30 Ti18 2.144921 1_555
O31 Ti55 2.050997 1_555
O31 Ti11 2.078205 1_555
O31 Ti42 2.104527 1_555
O31 Ti51 2.126630 1_555
O31 Ti64 2.361543 1_555
O31 Ti41 2.796476 1_555
O32 Ti30 2.099416 1_556
O32 Ti5 2.100273 1_556
O32 Ti48 2.104549 1_555
O32 Ti25 2.154120 1_556
O32 Ti18 2.494878 1_555
O33 Ti12 1.936507 1_555
O33 Ti8 1.979560 1_545
O33 Ti61 2.036107 1_555
O33 Ti47 2.138887 1_555
O33 Ti33 2.491320 1_545
