# generated using pymatgen
data_Ce4S4Cl2O
_symmetry_space_group_name_H-M   'P 1'
_cell_length_a   9.21901823
_cell_length_b   9.21901823
_cell_length_c   6.97789000
_cell_angle_alpha   90.00000000
_cell_angle_beta   90.00000000
_cell_angle_gamma   120.60823507
_symmetry_Int_Tables_number   1
_chemical_formula_structural   Ce4S4Cl2O
_chemical_formula_sum   'Ce8 S8 Cl4 O2'
_cell_volume   510.42219838
_cell_formula_units_Z   2
loop_
 _symmetry_equiv_pos_site_id
 _symmetry_equiv_pos_as_xyz
  1  'x, y, z'
loop_
 _atom_site_type_symbol
 _atom_site_label
 _atom_site_symmetry_multiplicity
 _atom_site_fract_x
 _atom_site_fract_y
 _atom_site_fract_z
 _atom_site_occupancy
  Ce  Ce0  1  0.32399400  0.67600600  0.71256900  1
  Ce  Ce1  1  0.67600600  0.32399400  0.21256900  1
  Ce  Ce2  1  0.19676600  0.80323400  0.26339000  1
  Ce  Ce3  1  0.18832500  0.39292500  0.24394900  1
  Ce  Ce4  1  0.60707500  0.81167500  0.24394900  1
  Ce  Ce5  1  0.80323400  0.19676600  0.76339000  1
  Ce  Ce6  1  0.81167500  0.60707500  0.74394900  1
  Ce  Ce7  1  0.39292500  0.18832500  0.74394900  1
  S  S0  1  0.46417800  0.53582200  0.96890400  1
  S  S1  1  0.46761000  0.94361000  0.97394800  1
  S  S2  1  0.05639000  0.53239000  0.97394800  1
  S  S3  1  0.53582200  0.46417800  0.46890400  1
  S  S4  1  0.53239000  0.05639000  0.47394800  1
  S  S5  1  0.94361000  0.46761000  0.47394800  1
  S  S6  1  0.13435800  0.86564200  0.63883500  1
  S  S7  1  0.86564200  0.13435800  0.13883500  1
  Cl  Cl0  1  0.13202700  0.26281400  0.63945600  1
  Cl  Cl1  1  0.73718600  0.86797300  0.63945600  1
  Cl  Cl2  1  0.86797300  0.73718600  0.13945600  1
  Cl  Cl3  1  0.26281400  0.13202700  0.13945600  1
  O  O0  1  0.33361300  0.66638700  0.36549700  1
  O  O1  1  0.66638700  0.33361300  0.86549700  1
loop_
_geom_bond_atom_site_label_1
_geom_bond_atom_site_label_2
_geom_bond_distance
_geom_bond_site_symmetry_2
Ce0 O0 2.426726 1_555
Ce0 S1 2.799923 1_555
Ce0 S2 2.799923 1_555
Ce0 S0 2.870637 1_555
Ce0 S6 3.080578 1_555
Ce0 Cl1 3.322279 1_555
Ce0 Cl0 3.322279 1_555
Ce0 S4 3.449666 1_565
Ce0 S5 3.449666 1_455
Ce1 O1 2.426726 1_554
Ce1 S5 2.799923 1_555
Ce1 S4 2.799923 1_555
Ce1 S3 2.870637 1_555
Ce1 S7 3.080578 1_555
Ce1 Cl2 3.322279 1_555
Ce1 Cl3 3.322279 1_555
Ce1 S2 3.449666 1_654
Ce1 S1 3.449666 1_544
Ce2 O0 2.304709 1_555
Ce2 S6 2.804023 1_555
Ce2 Cl3 2.902930 1_565
Ce2 Cl2 2.902930 1_455
Ce2 S2 2.949231 1_554
Ce2 S1 2.949231 1_554
Ce2 S4 3.134576 1_565
Ce2 S5 3.134576 1_455
Ce3 O0 2.330334 1_555
Ce3 S7 2.801529 1_455
Ce3 S2 2.876565 1_554
Ce3 Cl3 2.910379 1_555
Ce3 S0 2.911124 1_554
Ce3 Cl0 2.948003 1_555
Ce3 S5 3.117896 1_455
Ce3 S3 3.318956 1_555
Ce4 O0 2.330334 1_555
Ce4 S7 2.801529 1_565
Ce4 S1 2.876565 1_554
Ce4 Cl2 2.910379 1_555
Ce4 S0 2.911124 1_554
Ce4 Cl1 2.948003 1_555
Ce4 S4 3.117896 1_565
Ce4 S3 3.318956 1_555
Ce5 O1 2.304709 1_555
Ce5 S7 2.804023 1_556
Ce5 Cl0 2.902930 1_655
Ce5 Cl1 2.902930 1_545
Ce5 S4 2.949231 1_555
Ce5 S5 2.949231 1_555
Ce5 S2 3.134576 1_655
Ce5 S1 3.134576 1_545
Ce6 O1 2.330334 1_555
Ce6 S6 2.801529 1_655
Ce6 S5 2.876565 1_555
Ce6 Cl1 2.910379 1_555
Ce6 S3 2.911124 1_555
Ce6 Cl2 2.948003 1_556
Ce6 S2 3.117896 1_655
Ce6 S0 3.318956 1_555
Ce7 O1 2.330334 1_555
Ce7 S6 2.801529 1_545
Ce7 S4 2.876565 1_555
Ce7 Cl0 2.910379 1_555
Ce7 S3 2.911124 1_555
Ce7 Cl3 2.948003 1_556
Ce7 S1 3.117896 1_545
Ce7 S0 3.318956 1_555
