# generated using pymatgen
data_Sr3Li6Ta2O11
_symmetry_space_group_name_H-M   'P 1'
_cell_length_a   5.87904000
_cell_length_b   8.43252300
_cell_length_c   10.67961500
_cell_angle_alpha   90.00000000
_cell_angle_beta   90.00000000
_cell_angle_gamma   90.00000000
_symmetry_Int_Tables_number   1
_chemical_formula_structural   Sr3Li6Ta2O11
_chemical_formula_sum   'Sr6 Li12 Ta4 O22'
_cell_volume   529.44340896
_cell_formula_units_Z   2
loop_
 _symmetry_equiv_pos_site_id
 _symmetry_equiv_pos_as_xyz
  1  'x, y, z'
loop_
 _atom_site_type_symbol
 _atom_site_label
 _atom_site_symmetry_multiplicity
 _atom_site_fract_x
 _atom_site_fract_y
 _atom_site_fract_z
 _atom_site_occupancy
  Sr  Sr0  1  0.61675000  0.00000000  0.75000000  1
  Sr  Sr1  1  0.38325000  0.00000000  0.25000000  1
  Sr  Sr2  1  0.50000000  0.26314300  0.50000000  1
  Sr  Sr3  1  0.50000000  0.73685700  0.50000000  1
  Sr  Sr4  1  0.50000000  0.73685700  0.00000000  1
  Sr  Sr5  1  0.50000000  0.26314300  0.00000000  1
  Li  Li0  1  0.78142800  0.31654400  0.75000000  1
  Li  Li1  1  0.21857200  0.68345600  0.25000000  1
  Li  Li2  1  0.78142800  0.68345600  0.75000000  1
  Li  Li3  1  0.21857200  0.31654400  0.25000000  1
  Li  Li4  1  0.00000000  0.35487400  0.50000000  1
  Li  Li5  1  0.00000000  0.64512600  0.50000000  1
  Li  Li6  1  0.00000000  0.64512600  0.00000000  1
  Li  Li7  1  0.00000000  0.35487400  0.00000000  1
  Li  Li8  1  0.14818600  0.14598200  0.75000000  1
  Li  Li9  1  0.85181400  0.85401800  0.25000000  1
  Li  Li10  1  0.14818600  0.85401800  0.75000000  1
  Li  Li11  1  0.85181400  0.14598200  0.25000000  1
  Ta  Ta0  1  0.26499800  0.50000000  0.75000000  1
  Ta  Ta1  1  0.73500200  0.50000000  0.25000000  1
  Ta  Ta2  1  0.00000000  0.00000000  0.50000000  1
  Ta  Ta3  1  0.00000000  0.00000000  0.00000000  1
  O  O0  1  0.25350400  0.50000000  0.56145000  1
  O  O1  1  0.74649600  0.50000000  0.43855000  1
  O  O2  1  0.25350400  0.50000000  0.93855000  1
  O  O3  1  0.74649600  0.50000000  0.06145000  1
  O  O4  1  0.28066800  0.00000000  0.60687700  1
  O  O5  1  0.71933200  0.00000000  0.39312300  1
  O  O6  1  0.28066800  0.00000000  0.89312300  1
  O  O7  1  0.71933200  0.00000000  0.10687700  1
  O  O8  1  0.13286000  0.17295200  0.11025000  1
  O  O9  1  0.86714000  0.82704800  0.88975000  1
  O  O10  1  0.13286000  0.82704800  0.38975000  1
  O  O11  1  0.86714000  0.17295200  0.88975000  1
  O  O12  1  0.86714000  0.17295200  0.61025000  1
  O  O13  1  0.13286000  0.82704800  0.11025000  1
  O  O14  1  0.86714000  0.82704800  0.61025000  1
  O  O15  1  0.13286000  0.17295200  0.38975000  1
  O  O16  1  0.43163500  0.30163100  0.75000000  1
  O  O17  1  0.56836500  0.69836900  0.25000000  1
  O  O18  1  0.43163500  0.69836900  0.75000000  1
  O  O19  1  0.56836500  0.30163100  0.25000000  1
  O  O20  1  0.94572500  0.50000000  0.75000000  1
  O  O21  1  0.05427500  0.50000000  0.25000000  1
loop_
_geom_bond_atom_site_label_1
_geom_bond_atom_site_label_2
_geom_bond_distance
_geom_bond_site_symmetry_2
Li0 O20 1.823782 1_555
Li0 O11 1.986843 1_555
Li0 O12 1.986843 1_555
Li0 O16 2.060288 1_555
Li1 O21 1.823782 1_555
Li1 O13 1.986843 1_555
Li1 O10 1.986843 1_555
Li1 O17 2.060288 1_555
Li2 O20 1.823782 1_555
Li2 O9 1.986843 1_555
Li2 O14 1.986843 1_555
Li2 O18 2.060288 1_555
Li3 O21 1.823782 1_555
Li3 O15 1.986843 1_555
Li3 O8 1.986843 1_555
Li3 O19 2.060288 1_555
Li4 O0 2.037029 1_555
Li4 O1 2.037029 1_455
Li4 O12 2.085613 1_455
Li4 O15 2.085613 1_555
Li5 O0 2.037029 1_555
Li5 O1 2.037029 1_455
Li5 O14 2.085613 1_455
Li5 O10 2.085613 1_555
Li6 O2 2.037029 1_554
Li6 O3 2.037029 1_455
Li6 O9 2.085613 1_454
Li6 O13 2.085613 1_555
Li7 O2 2.037029 1_554
Li7 O3 2.037029 1_455
Li7 O11 2.085613 1_454
Li7 O8 2.085613 1_555
Li8 O4 2.111467 1_555
Li8 O6 2.111467 1_555
Li8 O16 2.121228 1_555
Li8 O12 2.238133 1_455
Li8 O11 2.238133 1_455
Li9 O5 2.111467 1_565
Li9 O7 2.111467 1_565
Li9 O17 2.121228 1_555
Li9 O13 2.238133 1_655
Li9 O10 2.238133 1_655
Li10 O6 2.111467 1_565
Li10 O4 2.111467 1_565
Li10 O18 2.121228 1_555
Li10 O14 2.238133 1_455
Li10 O9 2.238133 1_455
Li11 O5 2.111467 1_555
Li11 O7 2.111467 1_555
Li11 O19 2.121228 1_555
Li11 O8 2.238133 1_655
Li11 O15 2.238133 1_655
O0 Ta0 2.014775 1_555
O0 Sr2 2.553421 1_555
O0 Sr3 2.553421 1_555
O1 Ta1 2.014775 1_555
O1 Sr2 2.553421 1_555
O1 Sr3 2.553421 1_555
O2 Ta0 2.014775 1_555
O2 Sr5 2.553421 1_556
O2 Sr4 2.553421 1_556
O3 Ta1 2.014775 1_555
O3 Sr4 2.553421 1_555
O3 Sr5 2.553421 1_555
O4 Ta2 2.006365 1_555
O4 Sr0 2.498049 1_555
O4 Sr3 2.808789 1_545
O4 Sr2 2.808789 1_555
O5 Ta2 2.006365 1_655
O5 Sr1 2.498049 1_555
O5 Sr3 2.808789 1_545
O5 Sr2 2.808789 1_555
O6 Ta3 2.006365 1_556
O6 Sr0 2.498049 1_555
O6 Sr5 2.808789 1_556
O6 Sr4 2.808789 1_546
O7 Ta3 2.006365 1_655
O7 Sr1 2.498049 1_555
O7 Sr5 2.808789 1_555
O7 Sr4 2.808789 1_545
O8 Ta3 2.030623 1_555
O8 Sr1 2.553707 1_555
O8 Sr5 2.573631 1_555
O9 Ta3 2.030623 1_666
O9 Sr0 2.553707 1_565
O9 Sr4 2.573631 1_556
O10 Ta2 2.030623 1_565
O10 Sr1 2.553707 1_565
O10 Sr3 2.573631 1_555
O11 Ta3 2.030623 1_656
O11 Sr0 2.553707 1_555
O11 Sr5 2.573631 1_556
O12 Ta2 2.030623 1_655
O12 Sr0 2.553707 1_555
O12 Sr2 2.573631 1_555
O13 Ta3 2.030623 1_565
O13 Sr1 2.553707 1_565
O13 Sr4 2.573631 1_555
O14 Ta2 2.030623 1_665
O14 Sr0 2.553707 1_565
O14 Sr3 2.573631 1_555
O15 Ta2 2.030623 1_555
O15 Sr1 2.553707 1_555
O15 Sr2 2.573631 1_555
O16 Ta0 1.938515 1_555
O16 Sr2 2.719423 1_555
O16 Sr5 2.719423 1_556
O16 Sr0 2.766557 1_555
O17 Ta1 1.938515 1_555
O17 Sr3 2.719423 1_555
O17 Sr4 2.719423 1_555
O17 Sr1 2.766557 1_565
O18 Ta0 1.938515 1_555
O18 Sr3 2.719423 1_555
O18 Sr4 2.719423 1_556
O18 Sr0 2.766557 1_565
O19 Ta1 1.938515 1_555
O19 Sr5 2.719423 1_555
O19 Sr2 2.719423 1_555
O19 Sr1 2.766557 1_555
O20 Ta0 1.877019 1_655
O21 Ta1 1.877019 1_455
