# generated using pymatgen
data_SrVCuHO5
_symmetry_space_group_name_H-M   'P 1'
_cell_length_a   5.94640200
_cell_length_b   7.62538800
_cell_length_c   9.86337100
_cell_angle_alpha   90.00000000
_cell_angle_beta   90.00000000
_cell_angle_gamma   90.00000000
_symmetry_Int_Tables_number   1
_chemical_formula_structural   SrVCuHO5
_chemical_formula_sum   'Sr4 V4 Cu4 H4 O20'
_cell_volume   447.24097075
_cell_formula_units_Z   4
loop_
 _symmetry_equiv_pos_site_id
 _symmetry_equiv_pos_as_xyz
  1  'x, y, z'
loop_
 _atom_site_type_symbol
 _atom_site_label
 _atom_site_symmetry_multiplicity
 _atom_site_fract_x
 _atom_site_fract_y
 _atom_site_fract_z
 _atom_site_occupancy
  Sr  Sr0  1  0.02139600  0.36479200  0.82668400  1
  Sr  Sr1  1  0.52139600  0.13520800  0.17331600  1
  Sr  Sr2  1  0.97860400  0.86479200  0.67331600  1
  Sr  Sr3  1  0.47860400  0.63520800  0.32668400  1
  V  V0  1  0.99007800  0.39059300  0.16604600  1
  V  V1  1  0.49007800  0.10940700  0.83395400  1
  V  V2  1  0.00992200  0.89059300  0.33395400  1
  V  V3  1  0.50992200  0.60940700  0.66604600  1
  Cu  Cu0  1  0.25103400  0.75253300  0.00045300  1
  Cu  Cu1  1  0.75103400  0.74746700  0.99954700  1
  Cu  Cu2  1  0.74896600  0.25253300  0.49954700  1
  Cu  Cu3  1  0.24896600  0.24746700  0.50045300  1
  H  H0  1  0.99220100  0.00265100  0.98594100  1
  H  H1  1  0.49220100  0.49734900  0.01405900  1
  H  H2  1  0.00779900  0.50265100  0.51405900  1
  H  H3  1  0.50779900  0.99734900  0.48594100  1
  O  O0  1  0.00342200  0.57511100  0.04913600  1
  O  O1  1  0.50342200  0.92488900  0.95086400  1
  O  O2  1  0.99657800  0.07511100  0.45086400  1
  O  O3  1  0.49657800  0.42488900  0.54913600  1
  O  O4  1  0.94801300  0.21025000  0.06184300  1
  O  O5  1  0.44801300  0.28975000  0.93815700  1
  O  O6  1  0.05198700  0.71025000  0.43815700  1
  O  O7  1  0.55198700  0.78975000  0.56184300  1
  O  O8  1  0.26255200  0.62974000  0.75637000  1
  O  O9  1  0.76255200  0.87026000  0.24363000  1
  O  O10  1  0.73744800  0.12974000  0.74363000  1
  O  O11  1  0.23744800  0.37026000  0.25637000  1
  O  O12  1  0.74138700  0.60441300  0.77214100  1
  O  O13  1  0.24138700  0.89558700  0.22785900  1
  O  O14  1  0.25861300  0.10441300  0.72785900  1
  O  O15  1  0.75861300  0.39558700  0.27214100  1
  O  O16  1  0.99920300  0.88939200  0.93629300  1
  O  O17  1  0.49920300  0.61060800  0.06370700  1
  O  O18  1  0.00079700  0.38939200  0.56370700  1
  O  O19  1  0.50079700  0.11060800  0.43629300  1
loop_
_geom_bond_atom_site_label_1
_geom_bond_atom_site_label_2
_geom_bond_distance
_geom_bond_site_symmetry_2
Cu0 O16 1.931853 1_454
Cu0 O17 1.933444 1_555
Cu0 O1 2.054013 1_554
Cu0 O0 2.056430 1_555
Cu0 O13 2.494841 1_555
Cu0 O8 2.584066 1_554
Cu1 O17 1.931853 1_556
Cu1 O16 1.933444 1_555
Cu1 O0 2.054013 1_656
Cu1 O1 2.056430 1_555
Cu1 O12 2.494841 1_555
Cu1 O9 2.584066 1_556
Cu2 O18 1.931853 1_655
Cu2 O19 1.933444 1_555
Cu2 O3 2.054013 1_555
Cu2 O2 2.056430 1_555
Cu2 O15 2.494841 1_555
Cu2 O10 2.584066 1_555
Cu3 O19 1.931853 1_555
Cu3 O18 1.933444 1_555
Cu3 O2 2.054013 1_455
Cu3 O3 2.056430 1_555
Cu3 O14 2.494841 1_555
Cu3 O11 2.584066 1_555
H0 O16 0.993689 1_545
H1 O17 0.993689 1_555
H2 O18 0.993689 1_555
H3 O19 0.993689 1_565
O0 V0 1.820908 1_455
O0 Sr0 2.719867 1_554
O1 V1 1.820908 1_565
O1 Sr1 2.719867 1_566
O2 V2 1.820908 1_645
O2 Sr2 2.719867 1_545
O3 V3 1.820908 1_555
O3 Sr3 2.719867 1_555
O4 V0 1.734953 1_555
O4 Sr0 2.637999 1_654
O4 Sr1 2.823451 1_555
O5 V1 1.734953 1_555
O5 Sr1 2.637999 1_556
O5 Sr0 2.823451 1_555
O6 V2 1.734953 1_555
O6 Sr2 2.637999 1_455
O6 Sr3 2.823451 1_555
O7 V3 1.734953 1_555
O7 Sr3 2.637999 1_555
O7 Sr2 2.823451 1_555
O8 V3 1.726693 1_555
O8 Sr0 2.572764 1_555
O8 Sr2 2.595105 1_455
O9 V2 1.726693 1_655
O9 Sr1 2.572764 1_565
O9 Sr3 2.595105 1_555
O10 V1 1.726693 1_555
O10 Sr2 2.572764 1_545
O10 Sr0 2.595105 1_655
O11 V0 1.726693 1_455
O11 Sr3 2.572764 1_555
O11 Sr1 2.595105 1_555
O12 V3 1.729436 1_555
O12 Sr0 2.529915 1_655
O12 Sr2 2.623369 1_555
O13 V2 1.729436 1_555
O13 Sr1 2.529915 1_565
O13 Sr3 2.623369 1_555
O14 V1 1.729436 1_555
O14 Sr2 2.529915 1_445
O14 Sr0 2.623369 1_555
O15 V0 1.729436 1_555
O15 Sr3 2.529915 1_555
O15 Sr1 2.623369 1_555
O16 Sr2 2.603497 1_555
O17 Sr3 2.603497 1_555
O18 Sr0 2.603497 1_555
O19 Sr1 2.603497 1_555
