# generated using pymatgen
data_Ho2Al
_symmetry_space_group_name_H-M   'P 1'
_cell_length_a   5.06142405
_cell_length_b   6.51988689
_cell_length_c   9.36085113
_cell_angle_alpha   90.00001223
_cell_angle_beta   90.00000000
_cell_angle_gamma   90.00000000
_symmetry_Int_Tables_number   1
_chemical_formula_structural   Ho2Al
_chemical_formula_sum   'Ho8 Al4'
_cell_volume   308.90726645
_cell_formula_units_Z   4
loop_
 _symmetry_equiv_pos_site_id
 _symmetry_equiv_pos_as_xyz
  1  'x, y, z'
loop_
 _atom_site_type_symbol
 _atom_site_label
 _atom_site_symmetry_multiplicity
 _atom_site_fract_x
 _atom_site_fract_y
 _atom_site_fract_z
 _atom_site_occupancy
  Ho  Ho0  1  0.75000000  0.18966531  0.92635302  1
  Ho  Ho1  1  0.25000000  0.81032438  0.07362668  1
  Ho  Ho2  1  0.75000000  0.68960461  0.57363668  1
  Ho  Ho3  1  0.25000000  0.31038256  0.42638388  1
  Ho  Ho4  1  0.75000000  0.02553885  0.29011120  1
  Ho  Ho5  1  0.25000000  0.97446318  0.70989345  1
  Ho  Ho6  1  0.75000000  0.52552315  0.20983120  1
  Ho  Ho7  1  0.25000000  0.47448005  0.79016370  1
  Al  Al0  1  0.75000000  0.71035998  0.89748080  1
  Al  Al1  1  0.25000000  0.28965214  0.10248364  1
  Al  Al2  1  0.75000000  0.21026409  0.60252935  1
  Al  Al3  1  0.25000000  0.78974169  0.39750441  1
loop_
_geom_bond_atom_site_label_1
_geom_bond_atom_site_label_2
_geom_bond_distance
_geom_bond_site_symmetry_2
Al0 Ho2 3.034475 1_555
Al0 Ho1 3.089997 1_556
Al0 Ho1 3.089997 1_656
Al0 Ho7 3.127115 1_655
Al0 Ho7 3.127115 1_555
Al0 Ho0 3.136682 1_565
Al0 Ho6 3.162482 1_556
Al0 Ho0 3.405612 1_555
Al0 Ho5 3.528878 1_555
Al0 Ho5 3.528878 1_655
Al1 Ho3 3.034993 1_555
Al1 Ho0 3.089951 1_454
Al1 Ho0 3.089951 1_554
Al1 Ho6 3.127178 1_455
Al1 Ho6 3.127178 1_555
Al1 Ho1 3.136815 1_545
Al1 Ho7 3.162197 1_554
Al1 Ho1 3.405454 1_555
Al1 Ho4 3.529097 1_555
Al1 Ho4 3.529097 1_455
Al2 Ho0 3.034239 1_555
Al2 Ho3 3.090207 1_555
Al2 Ho3 3.090207 1_655
Al2 Ho5 3.127004 1_545
Al2 Ho5 3.127004 1_645
Al2 Ho2 3.136927 1_555
Al2 Ho4 3.162791 1_555
Al2 Ho2 3.405398 1_545
Al2 Ho7 3.529455 1_655
Al2 Ho7 3.529455 1_555
Al3 Ho1 3.034740 1_555
Al3 Ho2 3.090167 1_455
Al3 Ho2 3.090167 1_555
Al3 Ho4 3.127079 1_565
Al3 Ho4 3.127079 1_465
Al3 Ho3 3.137037 1_555
Al3 Ho5 3.162530 1_555
Al3 Ho3 3.405267 1_565
Al3 Ho6 3.529645 1_555
Al3 Ho6 3.529645 1_455
