# generated using pymatgen
data_MnTe2O5
_symmetry_space_group_name_H-M   'P 1'
_cell_length_a   6.09747400
_cell_length_b   7.43506702
_cell_length_c   11.03111608
_cell_angle_alpha   89.99214956
_cell_angle_beta   89.99476885
_cell_angle_gamma   90.00050370
_symmetry_Int_Tables_number   1
_chemical_formula_structural   MnTe2O5
_chemical_formula_sum   'Mn4 Te8 O20'
_cell_volume   500.09705062
_cell_formula_units_Z   4
loop_
 _symmetry_equiv_pos_site_id
 _symmetry_equiv_pos_as_xyz
  1  'x, y, z'
loop_
 _atom_site_type_symbol
 _atom_site_label
 _atom_site_symmetry_multiplicity
 _atom_site_fract_x
 _atom_site_fract_y
 _atom_site_fract_z
 _atom_site_occupancy
  Mn  Mn0  1  0.24978500  0.99986100  0.05847700  1
  Mn  Mn1  1  0.75038600  0.49999600  0.44148700  1
  Mn  Mn2  1  0.74979500  0.00053900  0.93670900  1
  Mn  Mn3  1  0.25018000  0.50052400  0.56322900  1
  Te  Te0  1  0.01324700  0.86358500  0.34738800  1
  Te  Te1  1  0.51333200  0.63667400  0.15252500  1
  Te  Te2  1  0.98681600  0.36350300  0.15258000  1
  Te  Te3  1  0.48669900  0.13678200  0.34750700  1
  Te  Te4  1  0.51132200  0.86668400  0.65435400  1
  Te  Te5  1  0.01115900  0.63316300  0.84555200  1
  Te  Te6  1  0.48860700  0.36671800  0.84564800  1
  Te  Te7  1  0.98875000  0.13320200  0.65444000  1
  O  O0  1  0.95258500  0.34844400  0.56637100  1
  O  O1  1  0.45265400  0.15152200  0.93390400  1
  O  O2  1  0.04733900  0.84834100  0.93365300  1
  O  O3  1  0.54730500  0.65148000  0.56616000  1
  O  O4  1  0.04775600  0.64687300  0.43633800  1
  O  O5  1  0.54784400  0.85318900  0.06355200  1
  O  O6  1  0.95234100  0.14681900  0.06365800  1
  O  O7  1  0.45219300  0.35326000  0.43645400  1
  O  O8  1  0.81282100  0.19205200  0.79129400  1
  O  O9  1  0.31264300  0.30744400  0.70897800  1
  O  O10  1  0.18716600  0.69204400  0.70872300  1
  O  O11  1  0.68731400  0.80744100  0.79104000  1
  O  O12  1  0.24991300  0.99997000  0.43993100  1
  O  O13  1  0.75006100  0.49997900  0.06005800  1
  O  O14  1  0.74990300  0.99996900  0.56229100  1
  O  O15  1  0.25008100  0.49996400  0.93772700  1
  O  O16  1  0.31049700  0.19533100  0.21119700  1
  O  O17  1  0.81043800  0.30467000  0.28878100  1
  O  O18  1  0.68949000  0.69522700  0.28882900  1
  O  O19  1  0.18957700  0.80474900  0.21116600  1
loop_
_geom_bond_atom_site_label_1
_geom_bond_atom_site_label_2
_geom_bond_distance
_geom_bond_site_symmetry_2
Mn0 O6 2.118140 1_465
Mn0 O5 2.120227 1_555
Mn0 O1 2.165468 1_564
Mn0 O2 2.165549 1_554
Mn0 O19 2.252864 1_555
Mn0 O16 2.255684 1_565
Mn1 O4 2.117410 1_655
Mn1 O7 2.121152 1_555
Mn1 O0 2.165051 1_555
Mn1 O3 2.166430 1_555
Mn1 O18 2.253920 1_555
Mn1 O17 2.254176 1_555
Mn2 O1 2.131621 1_555
Mn2 O2 2.138518 1_645
Mn2 O6 2.161006 1_556
Mn2 O5 2.161857 1_546
Mn2 O8 2.178891 1_555
Mn2 O11 2.188425 1_545
Mn3 O3 2.131441 1_555
Mn3 O0 2.138311 1_455
Mn3 O4 2.160243 1_555
Mn3 O7 2.161469 1_555
Mn3 O10 2.179846 1_555
Mn3 O9 2.188681 1_555
O0 Te7 1.884978 1_555
O1 Te6 1.885577 1_555
O2 Te5 1.884989 1_555
O3 Te4 1.885525 1_555
O4 Te0 1.898120 1_555
O5 Te1 1.896987 1_555
O6 Te2 1.897986 1_555
O7 Te3 1.896833 1_555
O8 Te7 1.902927 1_555
O8 Te6 2.440108 1_555
O9 Te6 1.902317 1_555
O9 Te7 2.437415 1_455
O10 Te5 1.902930 1_555
O10 Te4 2.439653 1_555
O11 Te4 1.902408 1_555
O11 Te5 2.437181 1_655
O12 Te0 2.037980 1_555
O12 Te3 2.039152 1_565
O13 Te2 2.038459 1_555
O13 Te1 2.038861 1_555
O14 Te4 2.032020 1_555
O14 Te7 2.033736 1_565
O15 Te6 2.031875 1_555
O15 Te5 2.033960 1_555
O16 Te3 1.898657 1_555
O16 Te2 2.424217 1_455
O17 Te2 1.898638 1_555
O17 Te3 2.423623 1_555
O18 Te1 1.898550 1_555
O18 Te0 2.425210 1_655
O19 Te0 1.898760 1_555
O19 Te1 2.424278 1_555
