# generated using pymatgen
data_Ba(Cd2Pt)2
_symmetry_space_group_name_H-M   'P 1'
_cell_length_a   8.45315357
_cell_length_b   8.45315357
_cell_length_c   4.47822281
_cell_angle_alpha   90.00000000
_cell_angle_beta   90.00000000
_cell_angle_gamma   90.00000000
_symmetry_Int_Tables_number   1
_chemical_formula_structural   Ba(Cd2Pt)2
_chemical_formula_sum   'Ba2 Cd8 Pt4'
_cell_volume   319.99501710
_cell_formula_units_Z   2
loop_
 _symmetry_equiv_pos_site_id
 _symmetry_equiv_pos_as_xyz
  1  'x, y, z'
loop_
 _atom_site_type_symbol
 _atom_site_label
 _atom_site_symmetry_multiplicity
 _atom_site_fract_x
 _atom_site_fract_y
 _atom_site_fract_z
 _atom_site_occupancy
  Ba  Ba0  1  0.50000000  0.50000000  0.50000000  1
  Ba  Ba1  1  0.00000000  0.00000000  -0.00000000  1
  Cd  Cd0  1  0.34325877  0.08938831  0.50000000  1
  Cd  Cd1  1  0.65674123  0.91061169  0.50000000  1
  Cd  Cd2  1  0.84325877  0.41061169  0.00000000  1
  Cd  Cd3  1  0.15674123  0.58938831  -0.00000000  1
  Cd  Cd4  1  0.08938831  0.34325877  0.50000000  1
  Cd  Cd5  1  0.91061169  0.65674123  0.50000000  1
  Cd  Cd6  1  0.41061169  0.84325877  0.00000000  1
  Cd  Cd7  1  0.58938831  0.15674123  0.00000000  1
  Pt  Pt0  1  0.77878558  0.22121442  0.50000000  1
  Pt  Pt1  1  0.22121442  0.77878558  0.50000000  1
  Pt  Pt2  1  0.27878558  0.27878558  -0.00000000  1
  Pt  Pt3  1  0.72121442  0.72121442  -0.00000000  1
loop_
_geom_bond_atom_site_label_1
_geom_bond_atom_site_label_2
_geom_bond_distance
_geom_bond_site_symmetry_2
Ba0 Pt1 3.332760 1_555
Ba0 Pt0 3.332760 1_555
Ba0 Pt2 3.465129 1_556
Ba0 Pt2 3.465129 1_555
Ba0 Pt3 3.465129 1_555
Ba0 Pt3 3.465129 1_556
Ba0 Cd0 3.715253 1_555
Ba0 Cd4 3.715253 1_555
Ba0 Cd1 3.715253 1_555
Ba0 Cd5 3.715253 1_555
Ba0 Cd3 3.742187 1_555
Ba0 Cd3 3.742187 1_556
Ba0 Cd7 3.742187 1_555
Ba0 Cd7 3.742187 1_556
Ba0 Cd2 3.742187 1_556
Ba0 Cd2 3.742187 1_555
Ba0 Cd6 3.742187 1_556
Ba0 Cd6 3.742187 1_555
Ba1 Pt3 3.332760 1_445
Ba1 Pt2 3.332760 1_555
Ba1 Pt1 3.465129 1_544
Ba1 Pt0 3.465129 1_455
Ba1 Pt0 3.465129 1_454
Ba1 Pt1 3.465129 1_545
Ba1 Cd3 3.715253 1_545
Ba1 Cd7 3.715253 1_455
Ba1 Cd6 3.715253 1_545
Ba1 Cd2 3.715253 1_455
Ba1 Cd1 3.742187 1_444
Ba1 Cd1 3.742187 1_445
Ba1 Cd0 3.742187 1_555
Ba1 Cd0 3.742187 1_554
Ba1 Cd5 3.742187 1_445
Ba1 Cd5 3.742187 1_444
Ba1 Cd4 3.742187 1_554
Ba1 Cd4 3.742187 1_555
Cd0 Pt2 2.806040 1_556
Cd0 Pt2 2.806040 1_555
Cd0 Pt1 2.820984 1_545
Cd0 Cd4 3.034911 1_555
Cd0 Cd1 3.050550 1_545
Cd0 Cd6 3.109107 1_545
Cd0 Cd7 3.109107 1_555
Cd0 Cd7 3.109107 1_556
Cd0 Cd6 3.109107 1_546
Cd1 Pt3 2.806040 1_555
Cd1 Pt3 2.806040 1_556
Cd1 Pt0 2.820984 1_565
Cd1 Cd5 3.034911 1_555
Cd1 Cd6 3.109107 1_556
Cd1 Cd6 3.109107 1_555
Cd1 Cd7 3.109107 1_565
Cd1 Cd7 3.109107 1_566
Cd2 Pt0 2.806040 1_555
Cd2 Pt0 2.806040 1_554
Cd2 Pt3 2.820984 1_555
Cd2 Cd7 3.034911 1_555
Cd2 Cd3 3.050550 1_655
Cd2 Cd4 3.109107 1_655
Cd2 Cd4 3.109107 1_654
Cd2 Cd5 3.109107 1_555
Cd2 Cd5 3.109107 1_554
Cd3 Pt1 2.806040 1_554
Cd3 Pt1 2.806040 1_555
Cd3 Pt2 2.820984 1_555
Cd3 Cd6 3.034911 1_555
Cd3 Cd5 3.109107 1_454
Cd3 Cd4 3.109107 1_554
Cd3 Cd5 3.109107 1_455
Cd3 Cd4 3.109107 1_555
Cd4 Pt2 2.806040 1_556
Cd4 Pt2 2.806040 1_555
Cd4 Pt0 2.820984 1_455
Cd4 Cd5 3.050550 1_455
Cd5 Pt3 2.806040 1_555
Cd5 Pt3 2.806040 1_556
Cd5 Pt1 2.820984 1_655
Cd6 Pt1 2.806040 1_555
Cd6 Pt1 2.806040 1_554
Cd6 Pt3 2.820984 1_555
Cd6 Cd7 3.050550 1_565
Cd7 Pt0 2.806040 1_554
Cd7 Pt0 2.806040 1_555
Cd7 Pt2 2.820984 1_555
