# generated using pymatgen
data_Mg3Sn3(AsO4)4
_symmetry_space_group_name_H-M   'P 1'
_cell_length_a   5.54763400
_cell_length_b   9.18492400
_cell_length_c   17.80994659
_cell_angle_alpha   59.31280639
_cell_angle_beta   90.00000000
_cell_angle_gamma   90.00000000
_symmetry_Int_Tables_number   1
_chemical_formula_structural   Mg3Sn3(AsO4)4
_chemical_formula_sum   'Mg6 Sn6 As8 O32'
_cell_volume   780.41830964
_cell_formula_units_Z   2
loop_
 _symmetry_equiv_pos_site_id
 _symmetry_equiv_pos_as_xyz
  1  'x, y, z'
loop_
 _atom_site_type_symbol
 _atom_site_label
 _atom_site_symmetry_multiplicity
 _atom_site_fract_x
 _atom_site_fract_y
 _atom_site_fract_z
 _atom_site_occupancy
  Mg  Mg0  1  0.56567000  0.32494600  0.22133100  1
  Mg  Mg1  1  0.06567000  0.67505400  0.27866900  1
  Mg  Mg2  1  0.43433000  0.67505400  0.77866900  1
  Mg  Mg3  1  0.93433000  0.32494600  0.72133100  1
  Mg  Mg4  1  0.50000000  0.00000000  0.50000000  1
  Mg  Mg5  1  0.00000000  0.00000000  0.00000000  1
  Sn  Sn0  1  0.54111900  0.16987500  0.63527500  1
  Sn  Sn1  1  0.45888100  0.83012500  0.36472500  1
  Sn  Sn2  1  0.04111900  0.83012500  0.86472500  1
  Sn  Sn3  1  0.95888100  0.16987500  0.13527500  1
  Sn  Sn4  1  0.00000000  0.50000000  0.50000000  1
  Sn  Sn5  1  0.50000000  0.50000000  0.00000000  1
  As  As0  1  0.99399400  0.01784100  0.36682500  1
  As  As1  1  0.54023300  0.43630200  0.37981400  1
  As  As2  1  0.04023300  0.56369800  0.12018600  1
  As  As3  1  0.95976700  0.43630200  0.87981400  1
  As  As4  1  0.00600600  0.98215900  0.63317500  1
  As  As5  1  0.45976700  0.56369800  0.62018600  1
  As  As6  1  0.50600600  0.01784100  0.86682500  1
  As  As7  1  0.49399400  0.98215900  0.13317500  1
  O  O0  1  0.34272300  0.85140600  0.23077600  1
  O  O1  1  0.06239300  0.74974200  0.02243800  1
  O  O2  1  0.47391600  0.42325500  0.29134800  1
  O  O3  1  0.55201800  0.17609100  0.12992800  1
  O  O4  1  0.52608400  0.57674500  0.70865200  1
  O  O5  1  0.15727700  0.85140600  0.73077600  1
  O  O6  1  0.97391600  0.57674500  0.20865200  1
  O  O7  1  0.70891900  0.55959500  0.86669500  1
  O  O8  1  0.68731600  0.99259300  0.94734000  1
  O  O9  1  0.65727700  0.14859400  0.76922400  1
  O  O10  1  0.94798200  0.17609100  0.62992800  1
  O  O11  1  0.29108100  0.44040500  0.13330500  1
  O  O12  1  0.30319400  0.55537700  0.38861100  1
  O  O13  1  0.31268400  0.00740700  0.05266000  1
  O  O14  1  0.70746300  0.92415200  0.63334000  1
  O  O15  1  0.20746300  0.07584800  0.86666000  1
  O  O16  1  0.80319400  0.44462300  0.11138900  1
  O  O17  1  0.02608400  0.42325500  0.79134800  1
  O  O18  1  0.18731600  0.00740700  0.55266000  1
  O  O19  1  0.20891900  0.44040500  0.63330500  1
  O  O20  1  0.79253700  0.92415200  0.13334000  1
  O  O21  1  0.29253700  0.07584800  0.36666000  1
  O  O22  1  0.93760700  0.25025800  0.97756200  1
  O  O23  1  0.56239300  0.25025800  0.47756200  1
  O  O24  1  0.69680600  0.44462300  0.61138900  1
  O  O25  1  0.84272300  0.14859400  0.26922400  1
  O  O26  1  0.44798200  0.82390900  0.87007200  1
  O  O27  1  0.81268400  0.99259300  0.44734000  1
  O  O28  1  0.43760700  0.74974200  0.52243800  1
  O  O29  1  0.79108100  0.55959500  0.36669500  1
  O  O30  1  0.19680600  0.55537700  0.88861100  1
  O  O31  1  0.05201800  0.82390900  0.37007200  1
loop_
_geom_bond_atom_site_label_1
_geom_bond_atom_site_label_2
_geom_bond_distance
_geom_bond_site_symmetry_2
Mg0 O2 1.943899 1_555
Mg0 O11 2.050842 1_555
Mg0 O25 2.074453 1_555
Mg0 O16 2.140494 1_555
Mg0 O3 2.607064 1_555
Mg1 O6 1.943899 1_455
Mg1 O29 2.050842 1_455
Mg1 O0 2.074453 1_555
Mg1 O12 2.140494 1_555
Mg1 O31 2.607064 1_555
Mg2 O4 1.943899 1_555
Mg2 O7 2.050842 1_555
Mg2 O5 2.074453 1_555
Mg2 O30 2.140494 1_555
Mg2 O26 2.607064 1_555
Mg3 O17 1.943899 1_655
Mg3 O19 2.050842 1_655
Mg3 O9 2.074453 1_555
Mg3 O24 2.140494 1_555
Mg3 O10 2.607064 1_555
Mg4 O27 1.989571 1_545
Mg4 O18 1.989571 1_555
Mg4 O23 2.150695 1_555
Mg4 O28 2.150695 1_545
Mg4 O14 2.400184 1_545
Mg4 O21 2.400184 1_555
Mg5 O8 1.989571 1_444
Mg5 O13 1.989571 1_555
Mg5 O1 2.150695 1_545
Mg5 O22 2.150695 1_454
Mg5 O20 2.400184 1_445
Mg5 O15 2.400184 1_554
As0 O27 1.668034 1_545
As0 O21 1.739338 1_655
As0 O25 1.742792 1_555
As0 O31 1.781762 1_645
As1 O2 1.680734 1_555
As1 O23 1.711545 1_555
As1 O29 1.733067 1_555
As1 O12 1.767726 1_555
As2 O6 1.680734 1_455
As2 O1 1.711545 1_555
As2 O11 1.733067 1_555
As2 O16 1.767726 1_455
As3 O17 1.680734 1_655
As3 O22 1.711545 1_555
As3 O7 1.733067 1_555
As3 O30 1.767726 1_655
As4 O18 1.668034 1_565
As4 O14 1.739338 1_455
As4 O5 1.742792 1_555
As4 O10 1.781762 1_465
As5 O4 1.680734 1_555
As5 O28 1.711545 1_555
As5 O19 1.733067 1_555
As5 O24 1.767726 1_555
As6 O8 1.668034 1_545
As6 O15 1.739338 1_555
As6 O9 1.742792 1_555
As6 O26 1.781762 1_545
As7 O13 1.668034 1_565
As7 O20 1.739338 1_555
As7 O0 1.742792 1_555
As7 O3 1.781762 1_565
O0 Sn1 2.380905 1_555
O1 Sn2 2.516343 1_554
O3 Sn3 2.258628 1_555
O3 Sn5 2.694835 1_555
O5 Sn2 2.380905 1_555
O7 Sn5 2.439891 1_556
O9 Sn0 2.380905 1_555
O10 Sn0 2.258628 1_555
O10 Sn4 2.694835 1_655
O11 Sn5 2.439891 1_555
O12 Sn4 2.448167 1_555
O12 Sn1 2.489866 1_555
O14 Sn0 2.454786 1_565
O15 Sn2 2.454786 1_545
O16 Sn5 2.448167 1_555
O16 Sn3 2.489866 1_555
O19 Sn4 2.439891 1_555
O20 Sn3 2.454786 1_565
O21 Sn1 2.454786 1_545
O22 Sn3 2.516343 1_556
O23 Sn0 2.516343 1_555
O24 Sn4 2.448167 1_655
O24 Sn0 2.489866 1_555
O25 Sn3 2.380905 1_555
O26 Sn2 2.258628 1_555
O26 Sn5 2.694835 1_556
O28 Sn1 2.516343 1_555
O29 Sn4 2.439891 1_655
O30 Sn5 2.448167 1_556
O30 Sn2 2.489866 1_555
O31 Sn1 2.258628 1_555
O31 Sn4 2.694835 1_555
