# generated using pymatgen
data_BaMg14C
_symmetry_space_group_name_H-M   'P 1'
_cell_length_a   6.48874201
_cell_length_b   6.48874146
_cell_length_c   10.34440247
_cell_angle_alpha   90.00000000
_cell_angle_beta   90.00000000
_cell_angle_gamma   120.00000274
_symmetry_Int_Tables_number   1
_chemical_formula_structural   BaMg14C
_chemical_formula_sum   'Ba1 Mg14 C1'
_cell_volume   377.18725232
_cell_formula_units_Z   1
loop_
 _symmetry_equiv_pos_site_id
 _symmetry_equiv_pos_as_xyz
  1  'x, y, z'
loop_
 _atom_site_type_symbol
 _atom_site_label
 _atom_site_symmetry_multiplicity
 _atom_site_fract_x
 _atom_site_fract_y
 _atom_site_fract_z
 _atom_site_occupancy
  Ba  Ba0  1  0.16666700  0.33333300  0.12500000  1
  Mg  Mg0  1  0.18062327  0.84031114  0.12500000  1
  Mg  Mg1  1  0.14793219  0.82396559  0.62500000  1
  Mg  Mg2  1  0.65968886  0.31937673  0.12500000  1
  Mg  Mg3  1  0.67603441  0.35206781  0.62500000  1
  Mg  Mg4  1  0.65968886  0.84031114  0.12500000  1
  Mg  Mg5  1  0.67603441  0.82396559  0.62500000  1
  Mg  Mg6  1  0.32604100  0.17395900  0.41127412  1
  Mg  Mg7  1  0.32604100  0.17395900  0.83872588  1
  Mg  Mg8  1  0.32604100  0.65208301  0.41127412  1
  Mg  Mg9  1  0.32604100  0.65208301  0.83872588  1
  Mg  Mg10  1  0.84791699  0.17395900  0.41127412  1
  Mg  Mg11  1  0.84791699  0.17395900  0.83872588  1
  Mg  Mg12  1  0.83333300  0.66666700  0.36484806  1
  Mg  Mg13  1  0.83333300  0.66666700  0.88515194  1
  C  C0  1  0.16666700  0.33333300  0.62500000  1
loop_
_geom_bond_atom_site_label_1
_geom_bond_atom_site_label_2
_geom_bond_distance
_geom_bond_site_symmetry_2
Ba0 Mg0 3.245318 1_545
Ba0 Mg4 3.245318 1_555
Ba0 Mg4 3.245318 1_445
Ba0 Mg0 3.245319 1_555
Ba0 Mg2 3.245319 1_555
Ba0 Mg2 3.245319 1_455
Ba0 Mg7 3.460899 1_554
Ba0 Mg6 3.460899 1_555
Ba0 Mg9 3.460904 1_554
Ba0 Mg8 3.460904 1_555
Ba0 Mg11 3.460905 1_454
Ba0 Mg10 3.460905 1_455
Mg0 Mg12 3.156644 1_455
Mg0 Mg13 3.156644 1_454
Mg1 Mg8 2.959127 1_555
Mg1 Mg9 2.959127 1_555
Mg1 Mg6 2.959134 1_565
Mg1 Mg7 2.959134 1_565
Mg1 Mg3 3.062023 1_455
Mg1 Mg5 3.062023 1_455
Mg1 Mg12 3.219852 1_455
Mg1 Mg13 3.219852 1_455
Mg1 Mg3 3.426719 1_565
Mg1 Mg5 3.426719 1_555
Mg3 Mg6 2.959134 1_555
Mg3 Mg7 2.959134 1_555
Mg3 Mg5 3.062023 1_555
Mg3 Mg5 3.426719 1_545
Mg5 Mg8 2.959135 1_555
Mg5 Mg9 2.959135 1_555
Mg10 Mg3 2.959127 1_555
Mg10 Mg5 2.959134 1_545
Mg10 Mg12 3.280746 1_555
Mg10 Mg12 3.280747 1_545
Mg11 Mg3 2.959127 1_555
Mg11 Mg5 2.959134 1_545
Mg11 Mg13 3.280746 1_555
Mg11 Mg13 3.280747 1_545
Mg12 Mg4 3.156637 1_555
Mg12 Mg2 3.156644 1_555
Mg12 Mg5 3.219846 1_555
Mg12 Mg3 3.219852 1_555
Mg12 Mg6 3.280747 1_665
Mg12 Mg6 3.280747 1_555
Mg12 Mg8 3.280747 1_655
Mg12 Mg8 3.280747 1_555
Mg13 Mg4 3.156637 1_556
Mg13 Mg2 3.156644 1_556
Mg13 Mg5 3.219846 1_555
Mg13 Mg3 3.219852 1_555
Mg13 Mg7 3.280747 1_665
Mg13 Mg7 3.280747 1_555
Mg13 Mg9 3.280747 1_655
Mg13 Mg9 3.280747 1_555
C0 Mg6 2.845391 1_555
C0 Mg7 2.845391 1_555
C0 Mg8 2.845398 1_555
C0 Mg9 2.845398 1_555
C0 Mg10 2.845398 1_455
C0 Mg11 2.845398 1_455
