# generated using pymatgen
data_KMg6MnO8
_symmetry_space_group_name_H-M   'P 1'
_cell_length_a   8.85088150
_cell_length_b   4.40422591
_cell_length_c   4.40422591
_cell_angle_alpha   90.00000000
_cell_angle_beta   90.00000000
_cell_angle_gamma   90.00000000
_symmetry_Int_Tables_number   1
_chemical_formula_structural   KMg6MnO8
_chemical_formula_sum   'K1 Mg6 Mn1 O8'
_cell_volume   171.68237055
_cell_formula_units_Z   1
loop_
 _symmetry_equiv_pos_site_id
 _symmetry_equiv_pos_as_xyz
  1  'x, y, z'
loop_
 _atom_site_type_symbol
 _atom_site_label
 _atom_site_symmetry_multiplicity
 _atom_site_fract_x
 _atom_site_fract_y
 _atom_site_fract_z
 _atom_site_occupancy
  K  K0  1  0.00000000  0.50000000  0.50000000  1
  Mg  Mg0  1  0.50000000  0.00000000  0.00000000  1
  Mg  Mg1  1  0.50000000  0.50000000  0.50000000  1
  Mg  Mg2  1  0.26064318  0.00000000  0.50000000  1
  Mg  Mg3  1  0.73935682  0.00000000  0.50000000  1
  Mg  Mg4  1  0.26064318  0.50000000  0.00000000  1
  Mg  Mg5  1  0.73935682  0.50000000  0.00000000  1
  Mn  Mn0  1  0.00000000  0.00000000  0.00000000  1
  O  O0  1  0.24925967  0.00000000  0.00000000  1
  O  O1  1  0.75074033  0.00000000  0.00000000  1
  O  O2  1  0.27587521  0.50000000  0.50000000  1
  O  O3  1  0.72412479  0.50000000  0.50000000  1
  O  O4  1  0.00000000  0.00000000  0.50000000  1
  O  O5  1  0.50000000  0.00000000  0.50000000  1
  O  O6  1  0.00000000  0.50000000  0.00000000  1
  O  O7  1  0.50000000  0.50000000  0.00000000  1
loop_
_geom_bond_atom_site_label_1
_geom_bond_atom_site_label_2
_geom_bond_distance
_geom_bond_site_symmetry_2
K0 O6 2.202113 1_556
K0 O6 2.202113 1_555
K0 O4 2.202113 1_555
K0 O4 2.202113 1_565
K0 O2 2.441739 1_555
K0 O3 2.441739 1_455
Mg0 O5 2.202113 1_555
Mg0 O7 2.202113 1_545
Mg0 O7 2.202113 1_555
Mg0 O5 2.202113 1_554
Mg0 O1 2.219273 1_555
Mg0 O0 2.219273 1_555
Mg1 O3 1.983702 1_555
Mg1 O2 1.983702 1_555
Mg1 O5 2.202113 1_555
Mg1 O5 2.202113 1_565
Mg1 O7 2.202113 1_555
Mg1 O7 2.202113 1_556
Mg2 O5 2.118519 1_555
Mg2 O0 2.204417 1_555
Mg2 O0 2.204417 1_556
Mg2 O2 2.206236 1_555
Mg2 O2 2.206236 1_545
Mg2 O4 2.306922 1_555
Mg3 O5 2.118519 1_555
Mg3 O1 2.204417 1_555
Mg3 O1 2.204417 1_556
Mg3 O3 2.206236 1_545
Mg3 O3 2.206236 1_555
Mg3 O4 2.306922 1_655
Mg4 O7 2.118519 1_555
Mg4 O0 2.204417 1_555
Mg4 O0 2.204417 1_565
Mg4 O2 2.206236 1_555
Mg4 O2 2.206236 1_554
Mg4 O6 2.306922 1_555
Mg5 O7 2.118519 1_555
Mg5 O1 2.204417 1_565
Mg5 O1 2.204417 1_555
Mg5 O3 2.206236 1_555
Mg5 O3 2.206236 1_554
Mg5 O6 2.306922 1_655
Mn0 O6 2.202113 1_555
Mn0 O4 2.202113 1_555
Mn0 O4 2.202113 1_554
Mn0 O6 2.202113 1_545
Mn0 O0 2.206168 1_555
Mn0 O1 2.206168 1_455
