# generated using pymatgen
data_LaCuPb
_symmetry_space_group_name_H-M   'P 1'
_cell_length_a   4.70056258
_cell_length_b   4.70056258
_cell_length_c   7.96279248
_cell_angle_alpha   90.00000000
_cell_angle_beta   90.00000000
_cell_angle_gamma   119.99998595
_symmetry_Int_Tables_number   1
_chemical_formula_structural   LaCuPb
_chemical_formula_sum   'La2 Cu2 Pb2'
_cell_volume   152.36870241
_cell_formula_units_Z   2
loop_
 _symmetry_equiv_pos_site_id
 _symmetry_equiv_pos_as_xyz
  1  'x, y, z'
loop_
 _atom_site_type_symbol
 _atom_site_label
 _atom_site_symmetry_multiplicity
 _atom_site_fract_x
 _atom_site_fract_y
 _atom_site_fract_z
 _atom_site_occupancy
  La  La0  1  -0.00000000  -0.00000000  0.00697645  1
  La  La1  1  -0.00000000  -0.00000000  0.50697645  1
  Cu  Cu0  1  0.66666700  0.33333300  0.31344243  1
  Cu  Cu1  1  0.33333300  0.66666700  0.81344243  1
  Pb  Pb0  1  0.66666700  0.33333300  0.73748012  1
  Pb  Pb1  1  0.33333300  0.66666700  0.23748012  1
loop_
_geom_bond_atom_site_label_1
_geom_bond_atom_site_label_2
_geom_bond_distance
_geom_bond_site_symmetry_2
La0 Pb1 3.276273 1_545
La0 Pb1 3.276277 1_555
La0 Pb1 3.276277 1_445
La0 Pb0 3.459791 1_454
La0 Pb0 3.459795 1_444
La0 Pb0 3.459795 1_554
La1 Pb0 3.276273 1_455
La1 Pb0 3.276277 1_555
La1 Pb0 3.276277 1_445
La1 Pb1 3.459791 1_545
La1 Pb1 3.459795 1_555
La1 Pb1 3.459795 1_445
Cu0 Pb1 2.780459 1_655
Cu0 Pb1 2.780459 1_545
Cu0 Pb1 2.780467 1_555
Cu0 La1 3.120894 1_655
Cu0 La1 3.120898 1_555
Cu0 La1 3.120898 1_665
Cu0 Pb0 3.376524 1_555
Cu0 La0 3.649694 1_655
Cu0 La0 3.649697 1_555
Cu0 La0 3.649697 1_665
Cu1 Pb0 2.780459 1_455
Cu1 Pb0 2.780459 1_565
Cu1 Pb0 2.780467 1_555
Cu1 La0 3.120894 1_566
Cu1 La0 3.120898 1_556
Cu1 La0 3.120898 1_666
Cu1 Pb1 3.376524 1_556
Cu1 La1 3.649694 1_565
Cu1 La1 3.649697 1_555
Cu1 La1 3.649697 1_665
