# generated using pymatgen
data_NaHfMg6O7
_symmetry_space_group_name_H-M   'P 1'
_cell_length_a   8.75620243
_cell_length_b   4.36713992
_cell_length_c   4.36713992
_cell_angle_alpha   90.00000000
_cell_angle_beta   90.00000000
_cell_angle_gamma   90.00000000
_symmetry_Int_Tables_number   1
_chemical_formula_structural   NaHfMg6O7
_chemical_formula_sum   'Na1 Hf1 Mg6 O7'
_cell_volume   166.99751415
_cell_formula_units_Z   1
loop_
 _symmetry_equiv_pos_site_id
 _symmetry_equiv_pos_as_xyz
  1  'x, y, z'
loop_
 _atom_site_type_symbol
 _atom_site_label
 _atom_site_symmetry_multiplicity
 _atom_site_fract_x
 _atom_site_fract_y
 _atom_site_fract_z
 _atom_site_occupancy
  Na  Na0  1  0.00427321  0.00000000  -0.00000000  1
  Hf  Hf0  1  0.49481585  0.00000000  -0.00000000  1
  Mg  Mg0  1  0.00168206  0.50000000  0.50000000  1
  Mg  Mg1  1  0.49780101  0.50000000  0.50000000  1
  Mg  Mg2  1  0.23395147  0.00000000  0.50000000  1
  Mg  Mg3  1  0.76808518  0.00000000  0.50000000  1
  Mg  Mg4  1  0.23395147  0.50000000  -0.00000000  1
  Mg  Mg5  1  0.76808518  0.50000000  0.00000000  1
  O  O0  1  0.73731225  0.00000000  -0.00000000  1
  O  O1  1  0.25405293  0.50000000  0.50000000  1
  O  O2  1  0.74571398  0.50000000  0.50000000  1
  O  O3  1  0.00025103  0.00000000  0.50000000  1
  O  O4  1  0.50488667  0.00000000  0.50000000  1
  O  O5  1  0.00025103  0.50000000  -0.00000000  1
  O  O6  1  0.50488667  0.50000000  -0.00000000  1
loop_
_geom_bond_atom_site_label_1
_geom_bond_atom_site_label_2
_geom_bond_distance
_geom_bond_site_symmetry_2
Na0 O3 2.183854 1_555
Na0 O3 2.183854 1_554
Na0 O5 2.183854 1_545
Na0 O5 2.183854 1_555
Na0 O0 2.337564 1_455
Hf0 O0 2.123348 1_555
Hf0 O6 2.185350 1_555
Hf0 O4 2.185350 1_554
Hf0 O4 2.185350 1_555
Hf0 O6 2.185350 1_545
Mg0 O3 2.183606 1_565
Mg0 O5 2.183606 1_556
Mg0 O5 2.183606 1_555
Mg0 O3 2.183606 1_555
Mg0 O1 2.209810 1_555
Mg0 O2 2.241308 1_455
Mg1 O1 2.134308 1_555
Mg1 O2 2.170776 1_555
Mg1 O4 2.184451 1_555
Mg1 O4 2.184451 1_565
Mg1 O6 2.184451 1_556
Mg1 O6 2.184451 1_555
Mg2 O3 2.046328 1_555
Mg2 O1 2.190652 1_555
Mg2 O1 2.190652 1_545
Mg2 O4 2.372363 1_555
Mg3 O3 2.032891 1_655
Mg3 O2 2.192339 1_555
Mg3 O2 2.192339 1_545
Mg3 O0 2.200133 1_555
Mg3 O0 2.200133 1_556
Mg3 O4 2.304619 1_555
Mg4 O5 2.046328 1_555
Mg4 O1 2.190652 1_555
Mg4 O1 2.190652 1_554
Mg4 O6 2.372363 1_555
Mg5 O5 2.032891 1_655
Mg5 O2 2.192339 1_555
Mg5 O2 2.192339 1_554
Mg5 O0 2.200133 1_565
Mg5 O0 2.200133 1_555
Mg5 O6 2.304619 1_555
