# generated using pymatgen
data_Y3ReO8
_symmetry_space_group_name_H-M   'P 1'
_cell_length_a   6.00804550
_cell_length_b   7.20558818
_cell_length_c   14.39813124
_cell_angle_alpha   68.68253237
_cell_angle_beta   90.00000000
_cell_angle_gamma   90.00000000
_symmetry_Int_Tables_number   1
_chemical_formula_structural   Y3ReO8
_chemical_formula_sum   'Y12 Re4 O32'
_cell_volume   580.66966645
_cell_formula_units_Z   4
loop_
 _symmetry_equiv_pos_site_id
 _symmetry_equiv_pos_as_xyz
  1  'x, y, z'
loop_
 _atom_site_type_symbol
 _atom_site_label
 _atom_site_symmetry_multiplicity
 _atom_site_fract_x
 _atom_site_fract_y
 _atom_site_fract_z
 _atom_site_occupancy
  Y  Y0  1  0.80049029  0.66192702  0.05476428  1
  Y  Y1  1  0.30049029  0.33807298  0.44523572  1
  Y  Y2  1  0.19950971  0.33807298  0.94523572  1
  Y  Y3  1  0.69950971  0.66192702  0.55476428  1
  Y  Y4  1  0.75868295  0.59460428  0.29804340  1
  Y  Y5  1  0.25868295  0.40539572  0.20195660  1
  Y  Y6  1  0.24131705  0.40539572  0.70195660  1
  Y  Y7  1  0.74131705  0.59460428  0.79804340  1
  Y  Y8  1  0.31160209  0.89298549  0.16665577  1
  Y  Y9  1  0.81160209  0.10701451  0.33334423  1
  Y  Y10  1  0.68839791  0.10701451  0.83334423  1
  Y  Y11  1  0.18839791  0.89298549  0.66665577  1
  Re  Re0  1  0.75464827  0.17907382  0.09013143  1
  Re  Re1  1  0.25464827  0.82092618  0.40986857  1
  Re  Re2  1  0.24535173  0.82092618  0.90986857  1
  Re  Re3  1  0.74535173  0.17907382  0.59013143  1
  O  O0  1  0.69672783  0.02259618  0.01927783  1
  O  O1  1  0.19672783  0.97740382  0.48072217  1
  O  O2  1  0.30327217  0.97740382  0.98072217  1
  O  O3  1  0.80327217  0.02259618  0.51927783  1
  O  O4  1  0.45404268  0.25168432  0.09602334  1
  O  O5  1  0.95404268  0.74831568  0.40397666  1
  O  O6  1  0.54595732  0.74831568  0.90397666  1
  O  O7  1  0.04595732  0.25168432  0.59602334  1
  O  O8  1  0.85431392  0.33286040  0.17039519  1
  O  O9  1  0.35431392  0.66713960  0.32960481  1
  O  O10  1  0.14568608  0.66713960  0.82960481  1
  O  O11  1  0.64568608  0.33286040  0.67039519  1
  O  O12  1  0.05383615  0.11984009  0.08851024  1
  O  O13  1  0.55383615  0.88015991  0.41148976  1
  O  O14  1  0.94616385  0.88015991  0.91148976  1
  O  O15  1  0.44616385  0.11984009  0.58851024  1
  O  O16  1  0.97110982  0.31174032  0.82691820  1
  O  O17  1  0.47110982  0.68825968  0.67308180  1
  O  O18  1  0.02889018  0.68825968  0.17308180  1
  O  O19  1  0.52889018  0.31174032  0.32691820  1
  O  O20  1  0.97099464  0.64779691  0.65735078  1
  O  O21  1  0.47099464  0.35220309  0.84264922  1
  O  O22  1  0.02900536  0.35220309  0.34264922  1
  O  O23  1  0.52900536  0.64779691  0.15735078  1
  O  O24  1  0.69443311  0.41595968  0.47972492  1
  O  O25  1  0.19443311  0.58404032  0.02027508  1
  O  O26  1  0.30556689  0.58404032  0.52027508  1
  O  O27  1  0.80556689  0.41595968  0.97972492  1
  O  O28  1  0.79662901  0.96638927  0.71406278  1
  O  O29  1  0.29662901  0.03361073  0.78593722  1
  O  O30  1  0.20337099  0.03361073  0.28593722  1
  O  O31  1  0.70337099  0.96638927  0.21406278  1
loop_
_geom_bond_atom_site_label_1
_geom_bond_atom_site_label_2
_geom_bond_distance
_geom_bond_site_symmetry_2
O0 Re0 1.808153 1_555
O0 Y10 2.520986 1_554
O0 Y0 2.537360 1_545
O1 Re1 1.808153 1_555
O1 Y11 2.520986 1_555
O1 Y1 2.537360 1_565
O2 Re2 1.808153 1_555
O2 Y8 2.520986 1_556
O2 Y2 2.537360 1_565
O3 Re3 1.808153 1_555
O3 Y9 2.520986 1_555
O3 Y3 2.537360 1_545
O4 Re0 1.890775 1_555
O4 Y5 2.481733 1_555
O4 Y2 2.541059 1_554
O4 Y8 2.556530 1_545
O5 Re1 1.890775 1_655
O5 Y4 2.481733 1_555
O5 Y3 2.541059 1_555
O5 Y9 2.556530 1_565
O6 Re2 1.890775 1_555
O6 Y7 2.481733 1_555
O6 Y0 2.541059 1_556
O6 Y10 2.556530 1_565
O7 Re3 1.890775 1_455
O7 Y6 2.481733 1_555
O7 Y1 2.541059 1_555
O7 Y11 2.556530 1_545
O8 Re0 1.962932 1_555
O8 Y9 2.332943 1_555
O8 Y0 2.372420 1_555
O8 Y5 2.560210 1_655
O9 Re1 1.962932 1_555
O9 Y8 2.332943 1_555
O9 Y1 2.372420 1_555
O9 Y4 2.560210 1_555
O10 Re2 1.962932 1_555
O10 Y11 2.332943 1_555
O10 Y2 2.372420 1_555
O10 Y7 2.560210 1_455
O11 Re3 1.962932 1_555
O11 Y10 2.332943 1_555
O11 Y3 2.372420 1_555
O11 Y6 2.560210 1_555
O12 Re0 1.849618 1_455
O12 Y8 2.235867 1_545
O12 Y2 2.266210 1_554
O13 Re1 1.849618 1_555
O13 Y9 2.235867 1_565
O13 Y3 2.266210 1_555
O14 Re2 1.849618 1_655
O14 Y10 2.235867 1_565
O14 Y0 2.266210 1_556
O15 Re3 1.849618 1_555
O15 Y11 2.235867 1_545
O15 Y1 2.266210 1_555
O16 Y10 2.229464 1_555
O16 Y2 2.248586 1_655
O16 Y6 2.333510 1_655
O16 Y7 2.370038 1_555
O17 Y11 2.229464 1_555
O17 Y3 2.248586 1_555
O17 Y7 2.333510 1_555
O17 Y6 2.370038 1_555
O18 Y8 2.229464 1_555
O18 Y0 2.248586 1_455
O18 Y4 2.333510 1_455
O18 Y5 2.370038 1_555
O19 Y9 2.229464 1_555
O19 Y1 2.248586 1_555
O19 Y5 2.333510 1_555
O19 Y4 2.370038 1_555
O20 Y3 2.177884 1_555
O20 Y11 2.239966 1_655
O20 Y6 2.298992 1_655
O20 Y7 2.364330 1_555
O21 Y2 2.177884 1_555
O21 Y10 2.239966 1_555
O21 Y7 2.298992 1_555
O21 Y6 2.364330 1_555
O22 Y1 2.177884 1_555
O22 Y9 2.239966 1_455
O22 Y4 2.298992 1_455
O22 Y5 2.364330 1_555
O23 Y0 2.177884 1_555
O23 Y8 2.239966 1_555
O23 Y5 2.298992 1_555
O23 Y4 2.364330 1_555
O24 Re3 1.887132 1_555
O24 Y3 2.387822 1_555
O24 Y4 2.490092 1_555
O24 Y1 2.523104 1_555
O25 Re2 1.887132 1_554
O25 Y2 2.387822 1_554
O25 Y5 2.490092 1_555
O25 Y0 2.523104 1_455
O26 Re1 1.887132 1_555
O26 Y1 2.387822 1_555
O26 Y6 2.490092 1_555
O26 Y3 2.523104 1_555
O27 Re0 1.887132 1_556
O27 Y0 2.387822 1_556
O27 Y7 2.490092 1_555
O27 Y2 2.523104 1_655
O28 Re3 1.907692 1_565
O28 Y10 2.380008 1_565
O28 Y7 2.528636 1_555
O28 Y11 2.558976 1_655
O29 Re2 1.907692 1_545
O29 Y11 2.380008 1_545
O29 Y6 2.528636 1_555
O29 Y10 2.558976 1_555
O30 Re1 1.907692 1_545
O30 Y8 2.380008 1_545
O30 Y5 2.528636 1_555
O30 Y9 2.558976 1_455
O31 Re0 1.907692 1_565
O31 Y9 2.380008 1_565
O31 Y4 2.528636 1_555
O31 Y8 2.558976 1_555
