# generated using pymatgen
data_Zn(SnO2)2
_symmetry_space_group_name_H-M   'P 1'
_cell_length_a   6.58889287
_cell_length_b   6.58889287
_cell_length_c   16.07662528
_cell_angle_alpha   89.45578567
_cell_angle_beta   89.45578567
_cell_angle_gamma   60.23969581
_symmetry_Int_Tables_number   1
_chemical_formula_structural   Zn(SnO2)2
_chemical_formula_sum   'Zn6 Sn12 O24'
_cell_volume   605.85421728
_cell_formula_units_Z   6
loop_
 _symmetry_equiv_pos_site_id
 _symmetry_equiv_pos_as_xyz
  1  'x, y, z'
loop_
 _atom_site_type_symbol
 _atom_site_label
 _atom_site_symmetry_multiplicity
 _atom_site_fract_x
 _atom_site_fract_y
 _atom_site_fract_z
 _atom_site_occupancy
  Zn  Zn0  1  0.16657800  0.16657800  0.95051100  1
  Zn  Zn1  1  0.49400800  0.49400800  0.61436700  1
  Zn  Zn2  1  0.50006100  0.50006100  0.00034500  1
  Zn  Zn3  1  0.82951400  0.82951400  0.28664600  1
  Zn  Zn4  1  0.17103700  0.17103700  0.71763700  1
  Zn  Zn5  1  0.50490000  0.50490000  0.38212200  1
  Sn  Sn0  1  0.17466000  0.66328800  0.83464600  1
  Sn  Sn1  1  0.66272000  0.66272000  0.83474900  1
  Sn  Sn2  1  0.49805000  0.99903700  0.50084100  1
  Sn  Sn3  1  0.66328800  0.17466000  0.83464600  1
  Sn  Sn4  1  0.83619900  0.83619900  0.66813800  1
  Sn  Sn5  1  0.99927000  0.99927000  0.50029100  1
  Sn  Sn6  1  0.83033200  0.33382900  0.16668300  1
  Sn  Sn7  1  0.99903700  0.49805000  0.50084100  1
  Sn  Sn8  1  0.33382900  0.83033200  0.16668300  1
  Sn  Sn9  1  0.16302300  0.16302300  0.33468600  1
  Sn  Sn10  1  0.33419600  0.33419600  0.16688200  1
  Sn  Sn11  1  0.83461300  0.83461300  0.04854500  1
  O  O0  1  0.34655200  0.34655200  0.91514600  1
  O  O1  1  0.50137600  0.50137600  0.75338900  1
  O  O2  1  0.34782500  0.80481200  0.91539000  1
  O  O3  1  0.80481200  0.34782500  0.91539000  1
  O  O4  1  0.49950100  0.99958600  0.76922100  1
  O  O5  1  0.67138700  0.67138700  0.57181500  1
  O  O6  1  0.99958600  0.49950100  0.76922100  1
  O  O7  1  0.83217900  0.83217900  0.89306400  1
  O  O8  1  0.64360700  0.16109100  0.57362100  1
  O  O9  1  0.82217600  0.82217600  0.42332200  1
  O  O10  1  0.00326400  0.00326400  0.76853200  1
  O  O11  1  0.16109100  0.64360700  0.57362100  1
  O  O12  1  0.83676100  0.36301800  0.42228400  1
  O  O13  1  0.99257000  0.99257000  0.22916100  1
  O  O14  1  0.36301800  0.83676100  0.42228400  1
  O  O15  1  0.18277500  0.18277500  0.58149800  1
  O  O16  1  0.16742200  0.16742200  0.09332500  1
  O  O17  1  0.99647300  0.50883300  0.22818900  1
  O  O18  1  0.32525300  0.32525300  0.42733000  1
  O  O19  1  0.50883300  0.99647300  0.22818900  1
  O  O20  1  0.22401700  0.63652400  0.09113500  1
  O  O21  1  0.49764200  0.49764200  0.24384700  1
  O  O22  1  0.63652400  0.22401700  0.09113500  1
  O  O23  1  0.63986100  0.63986100  0.09065300  1
loop_
_geom_bond_atom_site_label_1
_geom_bond_atom_site_label_2
_geom_bond_distance
_geom_bond_site_symmetry_2
O0 Zn0 2.122736 1_555
O0 Sn3 2.223282 1_555
O0 Sn0 2.223282 1_555
O0 Zn2 2.233930 1_556
O1 Zn1 2.237503 1_555
O1 Sn1 2.268454 1_555
O1 Sn3 2.274182 1_555
O1 Sn0 2.274182 1_555
O2 Zn0 2.147909 1_565
O2 Zn2 2.208593 1_556
O2 Sn1 2.214872 1_555
O2 Sn0 2.227941 1_555
O3 Zn0 2.147909 1_655
O3 Zn2 2.208593 1_556
O3 Sn1 2.214872 1_555
O3 Sn3 2.227941 1_555
O4 Zn4 2.058372 1_565
O4 Sn1 2.190954 1_555
O4 Sn3 2.209536 1_565
O4 Sn4 2.513007 1_555
O5 Zn1 2.127321 1_555
O5 Sn2 2.190248 1_555
O5 Sn7 2.190248 1_555
O5 Sn4 2.447664 1_555
O6 Zn4 2.058372 1_655
O6 Sn1 2.190954 1_555
O6 Sn0 2.209536 1_655
O6 Sn4 2.513007 1_555
O7 Sn1 2.156312 1_555
O7 Sn0 2.167756 1_655
O7 Sn3 2.167756 1_565
O7 Sn11 2.500068 1_556
O8 Zn1 2.020128 1_555
O8 Sn2 2.119102 1_545
O8 Sn5 2.347166 1_545
O8 Sn4 2.404122 1_545
O9 Zn3 2.197962 1_555
O9 Sn2 2.231234 1_555
O9 Sn7 2.231234 1_555
O9 Sn5 2.379240 1_555
O10 Zn4 2.071771 1_555
O10 Sn0 2.211146 1_545
O10 Sn3 2.211146 1_455
O10 Sn4 2.509741 1_445
O11 Zn1 2.020128 1_555
O11 Sn7 2.119102 1_455
O11 Sn5 2.347166 1_455
O11 Sn4 2.404122 1_455
O12 Zn5 2.014468 1_555
O12 Sn7 2.126312 1_555
O12 Sn9 2.346587 1_655
O12 Sn5 2.425730 1_545
O13 Zn3 2.066573 1_555
O13 Sn6 2.190606 1_565
O13 Sn8 2.190606 1_655
O13 Sn9 2.593326 1_665
O14 Zn5 2.014468 1_555
O14 Sn2 2.126312 1_555
O14 Sn9 2.346587 1_565
O14 Sn5 2.425730 1_455
O15 Zn4 2.191274 1_555
O15 Sn7 2.223579 1_455
O15 Sn2 2.223579 1_545
O15 Sn5 2.477805 1_445
O16 Sn10 2.249774 1_555
O16 Sn6 2.254624 1_455
O16 Sn8 2.254624 1_545
O16 Zn0 2.296093 1_554
O17 Zn3 2.066015 1_555
O17 Sn10 2.164495 1_655
O17 Sn6 2.191120 1_555
O17 Sn9 2.608926 1_655
O18 Zn5 2.165326 1_555
O18 Sn7 2.204712 1_455
O18 Sn2 2.204712 1_545
O18 Sn9 2.387103 1_555
O19 Zn3 2.066015 1_555
O19 Sn10 2.164495 1_565
O19 Sn8 2.191120 1_555
O19 Sn9 2.608926 1_565
O20 Sn10 2.124412 1_555
O20 Sn8 2.143067 1_555
O20 Zn2 2.144291 1_555
O20 Sn11 2.333941 1_455
O21 Zn5 2.225442 1_555
O21 Sn10 2.247785 1_555
O21 Sn6 2.265832 1_555
O21 Sn8 2.265832 1_555
O22 Sn10 2.124412 1_555
O22 Sn6 2.143067 1_555
O22 Zn2 2.144291 1_555
O22 Sn11 2.333941 1_545
O23 Sn6 2.145939 1_555
O23 Sn8 2.145939 1_555
O23 Zn2 2.167474 1_555
O23 Sn11 2.313682 1_555
