# generated using pymatgen
data_Mn7(AsO8)2
_symmetry_space_group_name_H-M   'P 1'
_cell_length_a   5.16794091
_cell_length_b   9.95517567
_cell_length_c   11.55332900
_cell_angle_alpha   90.00000000
_cell_angle_beta   90.00000000
_cell_angle_gamma   94.65012367
_symmetry_Int_Tables_number   1
_chemical_formula_structural   Mn7(AsO8)2
_chemical_formula_sum   'Mn14 As4 O32'
_cell_volume   592.43635194
_cell_formula_units_Z   2
loop_
 _symmetry_equiv_pos_site_id
 _symmetry_equiv_pos_as_xyz
  1  'x, y, z'
loop_
 _atom_site_type_symbol
 _atom_site_label
 _atom_site_symmetry_multiplicity
 _atom_site_fract_x
 _atom_site_fract_y
 _atom_site_fract_z
 _atom_site_occupancy
  Mn  Mn0  1  0.50000000  0.50000000  0.50000000  1
  Mn  Mn1  1  0.00000000  0.00000000  0.00000000  1
  Mn  Mn2  1  0.75832800  0.71298400  0.67725500  1
  Mn  Mn3  1  0.74167200  0.78701600  0.17725500  1
  Mn  Mn4  1  0.24167200  0.28701600  0.32274500  1
  Mn  Mn5  1  0.25832800  0.21298400  0.82274500  1
  Mn  Mn6  1  0.76360000  0.49668200  0.92118600  1
  Mn  Mn7  1  0.73640000  0.00331800  0.42118600  1
  Mn  Mn8  1  0.23640000  0.50331800  0.07881400  1
  Mn  Mn9  1  0.26360000  0.99668200  0.57881400  1
  Mn  Mn10  1  0.25118000  0.49951600  0.78596200  1
  Mn  Mn11  1  0.24882000  0.00048400  0.28596200  1
  Mn  Mn12  1  0.74882000  0.50048400  0.21403800  1
  Mn  Mn13  1  0.75118000  0.99951600  0.71403800  1
  As  As0  1  0.93855600  0.29067400  0.57365200  1
  As  As1  1  0.56144400  0.20932600  0.07365200  1
  As  As2  1  0.06144400  0.70932600  0.42634800  1
  As  As3  1  0.43855600  0.79067400  0.92634800  1
  O  O0  1  0.93475200  0.59288400  0.79123000  1
  O  O1  1  0.56524800  0.90711600  0.29123000  1
  O  O2  1  0.06524800  0.40711600  0.20877000  1
  O  O3  1  0.43475200  0.09288400  0.70877000  1
  O  O4  1  0.56026500  0.38567700  0.06478700  1
  O  O5  1  0.93973500  0.11432300  0.56478700  1
  O  O6  1  0.43973500  0.61432300  0.93521300  1
  O  O7  1  0.06026500  0.88567700  0.43521300  1
  O  O8  1  0.44727600  0.58379700  0.65560400  1
  O  O9  1  0.05272400  0.91620300  0.15560400  1
  O  O10  1  0.55272400  0.41620300  0.34439600  1
  O  O11  1  0.94727600  0.08379700  0.84439600  1
  O  O12  1  0.09034000  0.32342700  0.70314200  1
  O  O13  1  0.40966000  0.17657300  0.20314200  1
  O  O14  1  0.90966000  0.67657300  0.29685800  1
  O  O15  1  0.59034000  0.82342700  0.79685800  1
  O  O16  1  0.07275800  0.40810000  0.92858500  1
  O  O17  1  0.42724200  0.09190000  0.42858500  1
  O  O18  1  0.92724200  0.59190000  0.07141500  1
  O  O19  1  0.57275800  0.90810000  0.57141500  1
  O  O20  1  0.48789200  0.62446000  0.17425500  1
  O  O21  1  0.01210800  0.87554000  0.67425500  1
  O  O22  1  0.51210800  0.37554000  0.82574500  1
  O  O23  1  0.98789200  0.12446000  0.32574500  1
  O  O24  1  0.13034200  0.36992000  0.46780500  1
  O  O25  1  0.36965800  0.13008000  0.96780500  1
  O  O26  1  0.86965800  0.63008000  0.53219500  1
  O  O27  1  0.63034200  0.86992000  0.03219500  1
  O  O28  1  0.13574900  0.84061200  0.92761800  1
  O  O29  1  0.36425100  0.65938800  0.42761800  1
  O  O30  1  0.86425100  0.15938800  0.07238200  1
  O  O31  1  0.63574900  0.34061200  0.57238200  1
loop_
_geom_bond_atom_site_label_1
_geom_bond_atom_site_label_2
_geom_bond_distance
_geom_bond_site_symmetry_2
Mn0 O29 1.972233 1_555
Mn0 O31 1.972233 1_555
Mn0 O8 2.009700 1_555
Mn0 O10 2.009700 1_555
Mn0 O26 2.250266 1_555
Mn0 O24 2.250266 1_555
Mn1 O30 1.972233 1_455
Mn1 O28 1.972233 1_544
Mn1 O9 2.009700 1_545
Mn1 O11 2.009700 1_454
Mn1 O27 2.250266 1_445
Mn1 O25 2.250266 1_554
Mn2 O26 1.974311 1_555
Mn2 O8 1.991335 1_555
Mn2 O21 1.998991 1_655
Mn2 O15 2.006668 1_555
Mn2 O0 2.042419 1_555
Mn2 O19 2.547542 1_555
Mn3 O27 1.974311 1_555
Mn3 O9 1.991335 1_655
Mn3 O20 1.998991 1_555
Mn3 O14 2.006668 1_555
Mn3 O1 2.042419 1_555
Mn3 O18 2.547542 1_555
Mn4 O24 1.974311 1_555
Mn4 O10 1.991335 1_555
Mn4 O23 1.998991 1_455
Mn4 O13 2.006668 1_555
Mn4 O2 2.042419 1_555
Mn4 O17 2.547542 1_555
Mn5 O25 1.974311 1_555
Mn5 O11 1.991335 1_455
Mn5 O22 1.998991 1_555
Mn5 O12 2.006668 1_555
Mn5 O3 2.042419 1_555
Mn5 O16 2.547542 1_555
Mn6 O16 1.888410 1_655
Mn6 O0 1.953580 1_555
Mn6 O22 2.026163 1_555
Mn6 O18 2.120428 1_556
Mn6 O6 2.125316 1_555
Mn6 O4 2.211254 1_556
Mn7 O17 1.888410 1_555
Mn7 O1 1.953580 1_545
Mn7 O23 2.026163 1_555
Mn7 O19 2.120428 1_545
Mn7 O7 2.125316 1_645
Mn7 O5 2.211254 1_555
Mn8 O18 1.888410 1_455
Mn8 O2 1.953580 1_555
Mn8 O20 2.026163 1_555
Mn8 O16 2.120428 1_554
Mn8 O4 2.125316 1_555
Mn8 O6 2.211254 1_554
Mn9 O19 1.888410 1_555
Mn9 O3 1.953580 1_565
Mn9 O21 2.026163 1_555
Mn9 O17 2.120428 1_565
Mn9 O5 2.125316 1_465
Mn9 O7 2.211254 1_555
Mn10 O0 1.946346 1_455
Mn10 O22 1.955174 1_555
Mn10 O8 1.965033 1_555
Mn10 O16 2.063376 1_555
Mn10 O12 2.107892 1_555
Mn10 O6 2.246909 1_555
Mn11 O1 1.946346 1_545
Mn11 O23 1.955174 1_455
Mn11 O9 1.965033 1_545
Mn11 O17 2.063376 1_555
Mn11 O13 2.107892 1_555
Mn11 O7 2.246909 1_545
Mn12 O2 1.946346 1_655
Mn12 O20 1.955174 1_555
Mn12 O10 1.965033 1_555
Mn12 O18 2.063376 1_555
Mn12 O14 2.107892 1_555
Mn12 O4 2.246909 1_555
Mn13 O3 1.946346 1_565
Mn13 O21 1.955174 1_655
Mn13 O11 1.965033 1_565
Mn13 O19 2.063376 1_555
Mn13 O15 2.107892 1_555
Mn13 O5 2.246909 1_565
As0 O31 1.679995 1_555
As0 O12 1.708298 1_655
As0 O24 1.724354 1_655
As0 O5 1.759094 1_555
As1 O30 1.679995 1_555
As1 O13 1.708298 1_555
As1 O25 1.724354 1_554
As1 O4 1.759094 1_555
As2 O29 1.679995 1_555
As2 O14 1.708298 1_455
As2 O26 1.724354 1_455
As2 O7 1.759094 1_555
As3 O28 1.679995 1_555
As3 O15 1.708298 1_555
As3 O27 1.724354 1_556
As3 O6 1.759094 1_555
