# generated using pymatgen
data_Ni15Cl16
_symmetry_space_group_name_H-M   'P 1'
_cell_length_a   8.57062734
_cell_length_b   8.57062734
_cell_length_c   8.57062734
_cell_angle_alpha   109.47122063
_cell_angle_beta   109.47122063
_cell_angle_gamma   109.47122063
_symmetry_Int_Tables_number   1
_chemical_formula_structural   Ni15Cl16
_chemical_formula_sum   'Ni15 Cl16'
_cell_volume   484.63630468
_cell_formula_units_Z   1
loop_
 _symmetry_equiv_pos_site_id
 _symmetry_equiv_pos_as_xyz
  1  'x, y, z'
loop_
 _atom_site_type_symbol
 _atom_site_label
 _atom_site_symmetry_multiplicity
 _atom_site_fract_x
 _atom_site_fract_y
 _atom_site_fract_z
 _atom_site_occupancy
  Ni  Ni0  1  0.24548000  0.75452000  0.00000000  1
  Ni  Ni1  1  0.50000000  0.50000000  0.00000000  1
  Ni  Ni2  1  0.49096100  0.24548000  0.24548000  1
  Ni  Ni3  1  0.75452000  0.00000000  0.24548000  1
  Ni  Ni4  1  0.00000000  0.75452000  0.24548000  1
  Ni  Ni5  1  0.00000000  0.50000000  0.50000000  1
  Ni  Ni6  1  0.24548000  0.49096100  0.24548000  1
  Ni  Ni7  1  0.24548000  0.24548000  0.49096100  1
  Ni  Ni8  1  0.50000000  0.00000000  0.50000000  1
  Ni  Ni9  1  0.50903900  0.75452000  0.75452000  1
  Ni  Ni10  1  0.75452000  0.75452000  0.50903900  1
  Ni  Ni11  1  0.75452000  0.50903900  0.75452000  1
  Ni  Ni12  1  0.00000000  0.24548000  0.75452000  1
  Ni  Ni13  1  0.24548000  0.00000000  0.75452000  1
  Ni  Ni14  1  0.75452000  0.24548000  0.00000000  1
  Cl  Cl0  1  0.73735000  0.73735000  0.00000000  1
  Cl  Cl1  1  0.00000000  0.50000000  0.00000000  1
  Cl  Cl2  1  0.00000000  0.26265000  0.26265000  1
  Cl  Cl3  1  0.26265000  0.26265000  0.00000000  1
  Cl  Cl4  1  0.26265000  0.00000000  0.26265000  1
  Cl  Cl5  1  0.50000000  0.75000000  0.25000000  1
  Cl  Cl6  1  0.50000000  0.50000000  0.50000000  1
  Cl  Cl7  1  0.75000000  0.50000000  0.25000000  1
  Cl  Cl8  1  0.75000000  0.25000000  0.50000000  1
  Cl  Cl9  1  0.00000000  0.00000000  0.50000000  1
  Cl  Cl10  1  0.00000000  0.73735000  0.73735000  1
  Cl  Cl11  1  0.25000000  0.75000000  0.50000000  1
  Cl  Cl12  1  0.25000000  0.50000000  0.75000000  1
  Cl  Cl13  1  0.50000000  0.25000000  0.75000000  1
  Cl  Cl14  1  0.50000000  0.00000000  0.00000000  1
  Cl  Cl15  1  0.73735000  0.00000000  0.73735000  1
loop_
_geom_bond_atom_site_label_1
_geom_bond_atom_site_label_2
_geom_bond_distance
_geom_bond_site_symmetry_2
Cl0 Ni1 2.348936 1_555
Cl0 Ni3 2.435330 1_565
Cl0 Ni4 2.435330 1_655
Cl0 Ni11 2.435335 1_554
Cl0 Ni9 2.435335 1_554
Cl1 Ni11 2.474931 1_454
Cl1 Ni6 2.474931 1_555
Cl1 Ni14 2.474936 1_455
Cl1 Ni12 2.474936 1_554
Cl1 Ni0 2.474936 1_555
Cl1 Ni4 2.474936 1_555
Cl2 Ni5 2.348936 1_555
Cl2 Ni3 2.435330 1_455
Cl2 Ni14 2.435330 1_455
Cl2 Ni6 2.435335 1_555
Cl2 Ni7 2.435335 1_555
Cl3 Ni1 2.348936 1_555
Cl3 Ni12 2.435330 1_554
Cl3 Ni13 2.435330 1_554
Cl3 Ni2 2.435335 1_555
Cl3 Ni6 2.435335 1_555
Cl4 Ni8 2.348936 1_555
Cl4 Ni4 2.435330 1_545
Cl4 Ni0 2.435330 1_545
Cl4 Ni2 2.435335 1_555
Cl4 Ni7 2.435335 1_555
Cl5 Ni1 2.474127 1_555
Cl5 Ni8 2.474127 1_565
Cl5 Ni10 2.519251 1_555
Cl5 Ni6 2.519251 1_555
Cl5 Ni0 2.519256 1_555
Cl5 Ni3 2.519256 1_565
Cl6 Ni7 2.474940 1_555
Cl6 Ni2 2.474940 1_555
Cl6 Ni6 2.474940 1_555
Cl6 Ni10 2.474940 1_555
Cl6 Ni11 2.474940 1_555
Cl6 Ni9 2.474940 1_555
Cl7 Ni5 2.474127 1_655
Cl7 Ni1 2.474127 1_555
Cl7 Ni10 2.519251 1_555
Cl7 Ni2 2.519251 1_555
Cl7 Ni4 2.519256 1_655
Cl7 Ni14 2.519256 1_555
Cl8 Ni8 2.474127 1_555
Cl8 Ni5 2.474127 1_655
Cl8 Ni11 2.519251 1_555
Cl8 Ni2 2.519251 1_555
Cl8 Ni3 2.519256 1_555
Cl8 Ni12 2.519256 1_655
Cl9 Ni10 2.474931 1_445
Cl9 Ni7 2.474931 1_555
Cl9 Ni3 2.474936 1_455
Cl9 Ni4 2.474936 1_545
Cl9 Ni12 2.474936 1_555
Cl9 Ni13 2.474936 1_555
Cl10 Ni5 2.348936 1_555
Cl10 Ni0 2.435330 1_556
Cl10 Ni13 2.435330 1_565
Cl10 Ni11 2.435335 1_455
Cl10 Ni10 2.435335 1_455
Cl11 Ni8 2.474127 1_565
Cl11 Ni5 2.474127 1_555
Cl11 Ni9 2.519251 1_555
Cl11 Ni6 2.519251 1_555
Cl11 Ni13 2.519256 1_565
Cl11 Ni4 2.519256 1_555
Cl12 Ni1 2.474127 1_556
Cl12 Ni5 2.474127 1_555
Cl12 Ni7 2.519251 1_555
Cl12 Ni9 2.519251 1_555
Cl12 Ni0 2.519256 1_556
Cl12 Ni12 2.519256 1_555
Cl13 Ni8 2.474127 1_555
Cl13 Ni1 2.474127 1_556
Cl13 Ni7 2.519251 1_555
Cl13 Ni11 2.519251 1_555
Cl13 Ni14 2.519256 1_556
Cl13 Ni13 2.519256 1_555
Cl14 Ni9 2.474931 1_544
Cl14 Ni2 2.474931 1_555
Cl14 Ni13 2.474936 1_554
Cl14 Ni0 2.474936 1_545
Cl14 Ni3 2.474936 1_555
Cl14 Ni14 2.474936 1_555
Cl15 Ni8 2.348936 1_555
Cl15 Ni14 2.435330 1_556
Cl15 Ni12 2.435330 1_655
Cl15 Ni9 2.435335 1_545
Cl15 Ni10 2.435335 1_545
