# generated using pymatgen
data_CaSnO2
_symmetry_space_group_name_H-M   'P 1'
_cell_length_a   3.29428800
_cell_length_b   9.10185675
_cell_length_c   9.44864293
_cell_angle_alpha   78.72732371
_cell_angle_beta   80.41826722
_cell_angle_gamma   80.90860049
_symmetry_Int_Tables_number   1
_chemical_formula_structural   CaSnO2
_chemical_formula_sum   'Ca4 Sn4 O8'
_cell_volume   271.65172814
_cell_formula_units_Z   4
loop_
 _symmetry_equiv_pos_site_id
 _symmetry_equiv_pos_as_xyz
  1  'x, y, z'
loop_
 _atom_site_type_symbol
 _atom_site_label
 _atom_site_symmetry_multiplicity
 _atom_site_fract_x
 _atom_site_fract_y
 _atom_site_fract_z
 _atom_site_occupancy
  Ca  Ca0  1  0.99362100  0.93308200  0.23641800  1
  Ca  Ca1  1  0.00637900  0.06691800  0.76358200  1
  Ca  Ca2  1  0.14912200  0.23677400  0.39958100  1
  Ca  Ca3  1  0.85087800  0.76322600  0.60041900  1
  Sn  Sn0  1  0.38853400  0.68821700  0.94877700  1
  Sn  Sn1  1  0.66244900  0.61170800  0.32572900  1
  Sn  Sn2  1  0.33755100  0.38829200  0.67427100  1
  Sn  Sn3  1  0.61146600  0.31178300  0.05122300  1
  O  O0  1  0.39434500  0.22924800  0.86780900  1
  O  O1  1  0.38110000  0.59972800  0.72288600  1
  O  O2  1  0.61890000  0.40027200  0.27711400  1
  O  O3  1  0.60565500  0.77075200  0.13219100  1
  O  O4  1  0.56945700  0.87677100  0.80646400  1
  O  O5  1  0.39993700  0.83629400  0.42443100  1
  O  O6  1  0.43054300  0.12322900  0.19353600  1
  O  O7  1  0.60006300  0.16370600  0.57556900  1
loop_
_geom_bond_atom_site_label_1
_geom_bond_atom_site_label_2
_geom_bond_distance
_geom_bond_site_symmetry_2
Ca0 O5 2.351739 1_655
Ca0 O6 2.355865 1_665
Ca0 O6 2.358345 1_565
Ca0 O3 2.486849 1_655
Ca0 O3 2.524076 1_555
Ca0 O5 2.555960 1_555
Ca1 O7 2.351739 1_455
Ca1 O4 2.355865 1_445
Ca1 O4 2.358345 1_545
Ca1 O0 2.486849 1_455
Ca1 O0 2.524076 1_555
Ca1 O7 2.555960 1_555
Ca2 O2 2.325287 1_555
Ca2 O7 2.329265 1_455
Ca2 O7 2.343490 1_555
Ca2 O6 2.366583 1_555
Ca2 O2 2.404728 1_455
Ca3 O1 2.325287 1_555
Ca3 O5 2.329265 1_655
Ca3 O5 2.343490 1_555
Ca3 O4 2.366583 1_555
Ca3 O1 2.404728 1_655
O0 Sn2 2.113754 1_555
O0 Sn3 2.273918 1_556
O1 Sn2 2.095213 1_555
O1 Sn0 2.429096 1_555
O2 Sn1 2.095213 1_555
O2 Sn3 2.429096 1_555
O3 Sn1 2.113754 1_555
O3 Sn0 2.273918 1_554
O4 Sn0 2.064678 1_555
O5 Sn1 2.390465 1_555
O6 Sn3 2.064678 1_555
O7 Sn2 2.390465 1_555
