# generated using pymatgen
data_MgSc3
_symmetry_space_group_name_H-M   'P 1'
_cell_length_a   6.56146561
_cell_length_b   6.56146561
_cell_length_c   21.29024304
_cell_angle_alpha   90.00000000
_cell_angle_beta   90.00000000
_cell_angle_gamma   120.00001022
_symmetry_Int_Tables_number   1
_chemical_formula_structural   MgSc3
_chemical_formula_sum   'Mg8 Sc24'
_cell_volume   793.80333744
_cell_formula_units_Z   8
loop_
 _symmetry_equiv_pos_site_id
 _symmetry_equiv_pos_as_xyz
  1  'x, y, z'
loop_
 _atom_site_type_symbol
 _atom_site_label
 _atom_site_symmetry_multiplicity
 _atom_site_fract_x
 _atom_site_fract_y
 _atom_site_fract_z
 _atom_site_occupancy
  Mg  Mg0_0  1  0.16666650  0.33333350  0.25000000  1
  Mg  Mg0_1  1  0.16666650  0.33333350  0.75000000  1
  Mg  Mg0_2  1  0.16666650  0.83333350  0.25000000  1
  Mg  Mg0_3  1  0.16666650  0.83333350  0.75000000  1
  Mg  Mg0_4  1  0.66666650  0.33333350  0.25000000  1
  Mg  Mg0_5  1  0.66666650  0.33333350  0.75000000  1
  Mg  Mg0_6  1  0.66666650  0.83333350  0.25000000  1
  Mg  Mg0_7  1  0.66666650  0.83333350  0.75000000  1
  Sc  Sc0_0  1  0.33333350  0.16666650  0.37684021  1
  Sc  Sc0_1  1  0.33333350  0.16666650  0.87684021  1
  Sc  Sc0_2  1  0.33333350  0.66666650  0.37684021  1
  Sc  Sc0_3  1  0.33333350  0.66666650  0.87684021  1
  Sc  Sc0_4  1  0.83333350  0.16666650  0.37684021  1
  Sc  Sc0_5  1  0.83333350  0.16666650  0.87684021  1
  Sc  Sc0_6  1  0.83333350  0.66666650  0.37684021  1
  Sc  Sc0_7  1  0.83333350  0.66666650  0.87684021  1
  Sc  Sc1_0  1  0.16666650  0.33333350  0.00000000  1
  Sc  Sc1_1  1  0.16666650  0.33333350  0.50000000  1
  Sc  Sc1_2  1  0.16666650  0.83333350  0.00000000  1
  Sc  Sc1_3  1  0.16666650  0.83333350  0.50000000  1
  Sc  Sc1_4  1  0.66666650  0.33333350  0.00000000  1
  Sc  Sc1_5  1  0.66666650  0.33333350  0.50000000  1
  Sc  Sc1_6  1  0.66666650  0.83333350  0.00000000  1
  Sc  Sc1_7  1  0.66666650  0.83333350  0.50000000  1
  Sc  Sc2_0  1  0.33333350  0.16666650  0.12315979  1
  Sc  Sc2_1  1  0.33333350  0.16666650  0.62315979  1
  Sc  Sc2_2  1  0.33333350  0.66666650  0.12315979  1
  Sc  Sc2_3  1  0.33333350  0.66666650  0.62315979  1
  Sc  Sc2_4  1  0.83333350  0.16666650  0.12315979  1
  Sc  Sc2_5  1  0.83333350  0.16666650  0.62315979  1
  Sc  Sc2_6  1  0.83333350  0.66666650  0.12315979  1
  Sc  Sc2_7  1  0.83333350  0.66666650  0.62315979  1
loop_
_geom_bond_atom_site_label_1
_geom_bond_atom_site_label_2
_geom_bond_distance
_geom_bond_site_symmetry_2
Mg0_0 Mg0_6 3.280732 1_445
Mg0_0 Mg0_6 3.280732 1_555
Mg0_0 Mg0_4 3.280733 1_555
Mg0_0 Mg0_2 3.280733 1_555
Mg0_0 Mg0_2 3.280733 1_545
Mg0_0 Mg0_4 3.280733 1_455
Mg0_0 Sc2_2 3.298516 1_555
Mg0_0 Sc2_4 3.298516 1_455
Mg0_0 Sc0_2 3.298516 1_555
Mg0_0 Sc0_4 3.298516 1_455
Mg0_0 Sc2_0 3.298519 1_555
Mg0_0 Sc0_0 3.298519 1_555
Mg0_1 Mg0_7 3.280732 1_445
Mg0_1 Mg0_7 3.280732 1_555
Mg0_1 Mg0_5 3.280733 1_555
Mg0_1 Mg0_3 3.280733 1_555
Mg0_1 Mg0_5 3.280733 1_455
Mg0_1 Mg0_3 3.280733 1_545
Mg0_1 Sc0_3 3.298516 1_555
Mg0_1 Sc2_3 3.298516 1_555
Mg0_1 Sc0_5 3.298516 1_455
Mg0_1 Sc2_5 3.298516 1_455
Mg0_1 Sc0_1 3.298519 1_555
Mg0_1 Sc2_1 3.298519 1_555
Mg0_2 Mg0_4 3.280732 1_565
Mg0_2 Mg0_4 3.280732 1_455
Mg0_2 Mg0_6 3.280733 1_455
Mg0_2 Mg0_6 3.280733 1_555
Mg0_2 Sc2_6 3.298516 1_455
Mg0_2 Sc2_0 3.298516 1_565
Mg0_2 Sc0_6 3.298516 1_455
Mg0_2 Sc0_0 3.298516 1_565
Mg0_2 Sc2_2 3.298519 1_555
Mg0_2 Sc0_2 3.298519 1_555
Mg0_3 Mg0_5 3.280732 1_565
Mg0_3 Mg0_5 3.280732 1_455
Mg0_3 Mg0_7 3.280733 1_455
Mg0_3 Mg0_7 3.280733 1_555
Mg0_3 Sc2_7 3.298516 1_455
Mg0_3 Sc0_7 3.298516 1_455
Mg0_3 Sc0_1 3.298516 1_565
Mg0_3 Sc2_1 3.298516 1_565
Mg0_3 Sc0_3 3.298519 1_555
Mg0_3 Sc2_3 3.298519 1_555
Mg0_4 Mg0_6 3.280733 1_555
Mg0_4 Mg0_6 3.280733 1_545
Mg0_4 Sc2_0 3.298516 1_555
Mg0_4 Sc2_6 3.298516 1_555
Mg0_4 Sc0_0 3.298516 1_555
Mg0_4 Sc0_6 3.298516 1_555
Mg0_4 Sc2_4 3.298519 1_555
Mg0_4 Sc0_4 3.298519 1_555
Mg0_5 Mg0_7 3.280733 1_555
Mg0_5 Mg0_7 3.280733 1_545
Mg0_5 Sc2_1 3.298516 1_555
Mg0_5 Sc0_1 3.298516 1_555
Mg0_5 Sc2_7 3.298516 1_555
Mg0_5 Sc0_7 3.298516 1_555
Mg0_5 Sc2_5 3.298519 1_555
Mg0_5 Sc0_5 3.298519 1_555
Mg0_6 Sc2_4 3.298516 1_565
Mg0_6 Sc2_2 3.298516 1_555
Mg0_6 Sc0_2 3.298516 1_555
Mg0_6 Sc0_4 3.298516 1_565
Mg0_6 Sc2_6 3.298519 1_555
Mg0_6 Sc0_6 3.298519 1_555
Mg0_7 Sc0_5 3.298516 1_565
Mg0_7 Sc2_3 3.298516 1_555
Mg0_7 Sc2_5 3.298516 1_565
Mg0_7 Sc0_3 3.298516 1_555
Mg0_7 Sc0_7 3.298519 1_555
Mg0_7 Sc2_7 3.298519 1_555
Sc0_0 Sc1_5 3.234679 1_555
Sc0_0 Sc1_3 3.234679 1_545
Sc0_0 Sc1_1 3.234682 1_555
Sc0_0 Sc0_6 3.280732 1_555
Sc0_0 Sc0_6 3.280732 1_445
Sc0_0 Sc0_2 3.280733 1_555
Sc0_0 Sc0_4 3.280733 1_555
Sc0_0 Sc0_2 3.280733 1_545
Sc0_0 Sc0_4 3.280733 1_455
Sc0_1 Sc1_4 3.234679 1_556
Sc0_1 Sc1_2 3.234679 1_546
Sc0_1 Sc1_0 3.234682 1_556
Sc0_1 Sc0_7 3.280732 1_555
Sc0_1 Sc0_7 3.280732 1_445
Sc0_1 Sc0_3 3.280733 1_555
Sc0_1 Sc0_5 3.280733 1_555
Sc0_1 Sc0_3 3.280733 1_545
Sc0_1 Sc0_5 3.280733 1_455
Sc0_2 Sc1_1 3.234679 1_555
Sc0_2 Sc1_7 3.234679 1_555
Sc0_2 Sc1_3 3.234682 1_555
Sc0_2 Sc0_4 3.280732 1_565
Sc0_2 Sc0_4 3.280732 1_455
Sc0_2 Sc0_6 3.280733 1_555
Sc0_2 Sc0_6 3.280733 1_455
Sc0_3 Sc1_0 3.234679 1_556
Sc0_3 Sc1_6 3.234679 1_556
Sc0_3 Sc1_2 3.234682 1_556
Sc0_3 Sc0_5 3.280732 1_565
Sc0_3 Sc0_5 3.280732 1_455
Sc0_3 Sc0_7 3.280733 1_555
Sc0_3 Sc0_7 3.280733 1_455
Sc0_4 Sc1_7 3.234679 1_545
Sc0_4 Sc1_1 3.234679 1_655
Sc0_4 Sc1_5 3.234682 1_555
Sc0_4 Sc0_6 3.280733 1_545
Sc0_4 Sc0_6 3.280733 1_555
Sc0_5 Sc1_6 3.234679 1_546
Sc0_5 Sc1_0 3.234679 1_656
Sc0_5 Sc1_4 3.234682 1_556
Sc0_5 Sc0_7 3.280733 1_545
Sc0_5 Sc0_7 3.280733 1_555
Sc0_6 Sc1_3 3.234679 1_655
Sc0_6 Sc1_5 3.234679 1_555
Sc0_6 Sc1_7 3.234682 1_555
Sc0_7 Sc1_4 3.234679 1_556
Sc0_7 Sc1_2 3.234679 1_656
Sc0_7 Sc1_6 3.234682 1_556
Sc1_0 Sc2_2 3.234679 1_555
Sc1_0 Sc2_4 3.234679 1_455
Sc1_0 Sc2_0 3.234682 1_555
Sc1_0 Sc1_6 3.280732 1_445
Sc1_0 Sc1_6 3.280732 1_555
Sc1_0 Sc1_2 3.280733 1_555
Sc1_0 Sc1_4 3.280733 1_555
Sc1_0 Sc1_2 3.280733 1_545
Sc1_0 Sc1_4 3.280733 1_455
Sc1_1 Sc2_3 3.234679 1_555
Sc1_1 Sc2_5 3.234679 1_455
Sc1_1 Sc2_1 3.234682 1_555
Sc1_1 Sc1_7 3.280732 1_445
Sc1_1 Sc1_7 3.280732 1_555
Sc1_1 Sc1_3 3.280733 1_555
Sc1_1 Sc1_5 3.280733 1_555
Sc1_1 Sc1_5 3.280733 1_455
Sc1_1 Sc1_3 3.280733 1_545
Sc1_2 Sc2_6 3.234679 1_455
Sc1_2 Sc2_0 3.234679 1_565
Sc1_2 Sc2_2 3.234682 1_555
Sc1_2 Sc1_4 3.280732 1_565
Sc1_2 Sc1_4 3.280732 1_455
Sc1_2 Sc1_6 3.280733 1_455
Sc1_2 Sc1_6 3.280733 1_555
Sc1_3 Sc2_7 3.234679 1_455
Sc1_3 Sc2_1 3.234679 1_565
Sc1_3 Sc2_3 3.234682 1_555
Sc1_3 Sc1_5 3.280732 1_565
Sc1_3 Sc1_5 3.280732 1_455
Sc1_3 Sc1_7 3.280733 1_455
Sc1_3 Sc1_7 3.280733 1_555
Sc1_4 Sc2_0 3.234679 1_555
Sc1_4 Sc2_6 3.234679 1_555
Sc1_4 Sc2_4 3.234682 1_555
Sc1_4 Sc1_6 3.280733 1_555
Sc1_4 Sc1_6 3.280733 1_545
Sc1_5 Sc2_1 3.234679 1_555
Sc1_5 Sc2_7 3.234679 1_555
Sc1_5 Sc2_5 3.234682 1_555
Sc1_5 Sc1_7 3.280733 1_555
Sc1_5 Sc1_7 3.280733 1_545
Sc1_6 Sc2_4 3.234679 1_565
Sc1_6 Sc2_2 3.234679 1_555
Sc1_6 Sc2_6 3.234682 1_555
Sc1_7 Sc2_5 3.234679 1_565
Sc1_7 Sc2_3 3.234679 1_555
Sc1_7 Sc2_7 3.234682 1_555
Sc2_0 Sc2_6 3.280732 1_555
Sc2_0 Sc2_6 3.280732 1_445
Sc2_0 Sc2_4 3.280733 1_555
Sc2_0 Sc2_2 3.280733 1_555
Sc2_0 Sc2_2 3.280733 1_545
Sc2_0 Sc2_4 3.280733 1_455
Sc2_1 Sc2_7 3.280732 1_555
Sc2_1 Sc2_7 3.280732 1_445
Sc2_1 Sc2_5 3.280733 1_555
Sc2_1 Sc2_3 3.280733 1_555
Sc2_1 Sc2_3 3.280733 1_545
Sc2_1 Sc2_5 3.280733 1_455
Sc2_2 Sc2_4 3.280732 1_565
Sc2_2 Sc2_4 3.280732 1_455
Sc2_2 Sc2_6 3.280733 1_555
Sc2_2 Sc2_6 3.280733 1_455
Sc2_3 Sc2_5 3.280732 1_455
Sc2_3 Sc2_5 3.280732 1_565
Sc2_3 Sc2_7 3.280733 1_555
Sc2_3 Sc2_7 3.280733 1_455
Sc2_4 Sc2_6 3.280733 1_545
Sc2_4 Sc2_6 3.280733 1_555
Sc2_5 Sc2_7 3.280733 1_545
Sc2_5 Sc2_7 3.280733 1_555
