# generated using pymatgen
data_Nb2V4Si5
_symmetry_space_group_name_H-M   'P 1'
_cell_length_a   9.39057014
_cell_length_b   9.39057014
_cell_length_c   9.39057014
_cell_angle_alpha   148.27202815
_cell_angle_beta   132.43025208
_cell_angle_gamma   58.31514962
_symmetry_Int_Tables_number   1
_chemical_formula_structural   Nb2V4Si5
_chemical_formula_sum   'Nb4 V8 Si10'
_cell_volume   318.89640639
_cell_formula_units_Z   2
loop_
 _symmetry_equiv_pos_site_id
 _symmetry_equiv_pos_as_xyz
  1  'x, y, z'
loop_
 _atom_site_type_symbol
 _atom_site_label
 _atom_site_symmetry_multiplicity
 _atom_site_fract_x
 _atom_site_fract_y
 _atom_site_fract_z
 _atom_site_occupancy
  Nb  Nb0  1  0.31092700  0.56092700  0.25000000  1
  Nb  Nb1  1  0.68907300  0.93907300  0.25000000  1
  Nb  Nb2  1  0.68907300  0.43907300  0.75000000  1
  Nb  Nb3  1  0.31092700  0.06092700  0.75000000  1
  V  V0  1  0.97467900  0.35893800  0.61574200  1
  V  V1  1  0.02532100  0.64106200  0.38425800  1
  V  V2  1  0.18738400  0.93623500  0.25114900  1
  V  V3  1  0.81261600  0.06376500  0.74885100  1
  V  V4  1  0.31491400  0.56376500  0.75114900  1
  V  V5  1  0.68508600  0.43623500  0.24885100  1
  V  V6  1  0.25680400  0.14106200  0.11574200  1
  V  V7  1  0.74319600  0.85893800  0.88425800  1
  Si  Si0  1  0.65306900  0.56013200  0.09293700  1
  Si  Si1  1  0.34693100  0.43986900  0.90706300  1
  Si  Si2  1  0.53280600  0.93986800  0.59293700  1
  Si  Si3  1  0.46719400  0.06013200  0.40706300  1
  Si  Si4  1  0.40258100  0.70791600  0.69466400  1
  Si  Si5  1  0.59741900  0.29208400  0.30533600  1
  Si  Si6  1  0.00000000  0.25000000  0.25000000  1
  Si  Si7  1  0.00000000  0.75000000  0.75000000  1
  Si  Si8  1  0.01325200  0.20791600  0.80533600  1
  Si  Si9  1  0.98674800  0.79208400  0.19466400  1
loop_
_geom_bond_atom_site_label_1
_geom_bond_atom_site_label_2
_geom_bond_distance
_geom_bond_site_symmetry_2
Nb0 Si1 2.572013 1_554
Nb0 Si2 2.572013 1_555
Nb0 Si4 2.583764 1_555
Nb0 Si8 2.583768 1_554
Nb0 Si5 2.663026 1_555
Nb0 Si9 2.663030 1_455
Nb1 Si0 2.572006 1_555
Nb1 Si3 2.572015 1_565
Nb1 Si5 2.583766 1_565
Nb1 Si9 2.583768 1_555
Nb1 Si4 2.663028 1_554
Nb1 Si8 2.663030 1_665
Nb2 Si0 2.572006 1_556
Nb2 Si3 2.572013 1_555
Nb2 Si5 2.583764 1_555
Nb2 Si9 2.583768 1_556
Nb2 Si4 2.663026 1_555
Nb2 Si8 2.663030 1_655
Nb3 Si2 2.572015 1_545
Nb3 Si1 2.572015 1_555
Nb3 Si4 2.583766 1_545
Nb3 Si8 2.583768 1_555
Nb3 Si5 2.663028 1_556
Nb3 Si9 2.663030 1_445
Si0 V5 2.350316 1_555
Si0 Si1 2.423396 1_554
Si0 V1 2.575081 1_655
Si0 V4 2.589560 1_554
Si0 V3 2.826218 1_554
Si0 V3 2.826218 1_565
Si1 V4 2.350307 1_555
Si1 V0 2.575082 1_455
Si1 V5 2.589564 1_556
Si1 V2 2.826214 1_556
Si1 V2 2.826219 1_545
Si2 V3 2.350307 1_565
Si2 Si3 2.423392 1_565
Si2 V7 2.575075 1_555
Si2 V2 2.589564 1_555
Si2 V5 2.826214 1_555
Si2 V5 2.826219 1_566
Si3 V2 2.350307 1_545
Si3 V6 2.575075 1_555
Si3 V3 2.589564 1_555
Si3 V4 2.826214 1_555
Si3 V4 2.826219 1_544
Si4 V4 2.402665 1_555
Si4 V1 2.594281 1_555
Si4 V6 2.854631 1_555
Si4 V6 2.854636 1_566
Si4 V7 2.863138 1_555
Si5 V5 2.402665 1_555
Si5 V0 2.594281 1_555
Si5 V7 2.854631 1_555
Si5 V7 2.854636 1_544
Si5 V6 2.863138 1_555
Si6 V2 2.521889 1_545
Si6 V3 2.521889 1_454
Si6 V4 2.521889 1_555
Si6 V5 2.521889 1_455
Si6 Si7 2.566956 1_544
Si6 Si7 2.566956 1_555
Si6 V6 2.787223 1_555
Si6 V7 2.787223 1_444
Si6 V1 2.787228 1_555
Si6 V0 2.787230 1_455
Si7 V5 2.521889 1_455
Si7 V4 2.521889 1_555
Si7 V2 2.521889 1_556
Si7 V3 2.521889 1_465
Si7 V6 2.787223 1_566
Si7 V7 2.787223 1_455
Si7 V0 2.787228 1_455
Si7 V1 2.787230 1_555
Si8 V3 2.402657 1_455
Si8 V6 2.594281 1_556
Si8 V1 2.854625 1_556
Si8 V1 2.854630 1_545
Si8 V0 2.863141 1_455
Si9 V2 2.402657 1_655
Si9 V7 2.594281 1_554
Si9 V0 2.854625 1_554
Si9 V0 2.854630 1_565
Si9 V1 2.863141 1_655
