# generated using pymatgen
data_CeSe2
_symmetry_space_group_name_H-M   'P 1'
_cell_length_a   22.73601214
_cell_length_b   22.73601232
_cell_length_c   22.73601232
_cell_angle_alpha   59.99999949
_cell_angle_beta   60.00000026
_cell_angle_gamma   60.00000026
_symmetry_Int_Tables_number   1
_chemical_formula_structural   CeSe2
_chemical_formula_sum   'Ce24 Se48'
_cell_volume   8310.51401654
_cell_formula_units_Z   24
loop_
 _symmetry_equiv_pos_site_id
 _symmetry_equiv_pos_as_xyz
  1  'x, y, z'
loop_
 _atom_site_type_symbol
 _atom_site_label
 _atom_site_symmetry_multiplicity
 _atom_site_fract_x
 _atom_site_fract_y
 _atom_site_fract_z
 _atom_site_occupancy
  Ce  Ce0  1  0.91862427  0.70042157  0.46232989  1
  Ce  Ce1  1  0.91862427  0.70042157  0.91862427  1
  Ce  Ce2  1  0.46232989  0.70042157  0.91862427  1
  Ce  Ce3  1  0.70042157  0.91862427  0.91862427  1
  Ce  Ce4  1  0.70042157  0.91862427  0.46232989  1
  Ce  Ce5  1  0.70042157  0.46232989  0.91862427  1
  Ce  Ce6  1  0.46232989  0.91862427  0.91862427  1
  Ce  Ce7  1  0.91862427  0.46232989  0.91862427  1
  Ce  Ce8  1  0.91862427  0.91862427  0.46232989  1
  Ce  Ce9  1  0.91862427  0.46232989  0.70042157  1
  Ce  Ce10  1  0.46232989  0.91862427  0.70042157  1
  Ce  Ce11  1  0.91862427  0.91862427  0.70042157  1
  Ce  Ce12  1  0.08137573  0.29957843  0.53767011  1
  Ce  Ce13  1  0.08137573  0.29957843  0.08137573  1
  Ce  Ce14  1  0.53767011  0.29957843  0.08137573  1
  Ce  Ce15  1  0.29957843  0.08137573  0.08137573  1
  Ce  Ce16  1  0.29957843  0.08137573  0.53767011  1
  Ce  Ce17  1  0.29957843  0.53767011  0.08137573  1
  Ce  Ce18  1  0.53767011  0.08137573  0.08137573  1
  Ce  Ce19  1  0.08137573  0.53767011  0.08137573  1
  Ce  Ce20  1  0.08137573  0.08137573  0.53767011  1
  Ce  Ce21  1  0.08137573  0.53767011  0.29957843  1
  Ce  Ce22  1  0.53767011  0.08137573  0.29957843  1
  Ce  Ce23  1  0.08137573  0.08137573  0.29957843  1
  Se  Se0  1  0.00000000  0.34796913  1.00000000  1
  Se  Se1  1  0.65203087  0.34796913  1.00000000  1
  Se  Se2  1  -0.00000000  0.34796913  0.65203087  1
  Se  Se3  1  0.34796913  0.00000000  0.65203087  1
  Se  Se4  1  0.34796913  0.65203087  0.00000000  1
  Se  Se5  1  0.34796913  0.00000000  0.00000000  1
  Se  Se6  1  1.00000000  0.65203087  0.00000000  1
  Se  Se7  1  1.00000000  0.00000000  0.65203087  1
  Se  Se8  1  0.65203087  0.00000000  0.00000000  1
  Se  Se9  1  0.65203087  1.00000000  0.34796913  1
  Se  Se10  1  0.00000000  1.00000000  0.34796913  1
  Se  Se11  1  0.00000000  0.65203087  0.34796913  1
  Se  Se12  1  0.97687172  0.78286564  0.45739701  1
  Se  Se13  1  0.78286564  0.78286564  0.97687172  1
  Se  Se14  1  0.45739701  0.78286564  0.78286564  1
  Se  Se15  1  0.97687172  0.78286564  0.78286564  1
  Se  Se16  1  0.78286564  0.78286564  0.45739701  1
  Se  Se17  1  0.45739701  0.78286564  0.97687172  1
  Se  Se18  1  0.78286564  0.97687172  0.78286564  1
  Se  Se19  1  0.78286564  0.45739701  0.97687172  1
  Se  Se20  1  0.78286564  0.97687172  0.45739701  1
  Se  Se21  1  0.78286564  0.45739701  0.78286564  1
  Se  Se22  1  0.97687172  0.45739701  0.78286564  1
  Se  Se23  1  0.45739701  0.97687172  0.78286564  1
  Se  Se24  1  0.02312828  0.21713436  0.54260299  1
  Se  Se25  1  0.21713436  0.21713436  0.02312828  1
  Se  Se26  1  0.54260299  0.21713436  0.21713436  1
  Se  Se27  1  0.02312828  0.21713436  0.21713436  1
  Se  Se28  1  0.21713436  0.21713436  0.54260299  1
  Se  Se29  1  0.54260299  0.21713436  0.02312828  1
  Se  Se30  1  0.21713436  0.02312828  0.21713436  1
  Se  Se31  1  0.21713436  0.54260299  0.02312828  1
  Se  Se32  1  0.21713436  0.02312828  0.54260299  1
  Se  Se33  1  0.21713436  0.54260299  0.21713436  1
  Se  Se34  1  0.02312828  0.54260299  0.21713436  1
  Se  Se35  1  0.54260299  0.02312828  0.21713436  1
  Se  Se36  1  0.91199935  0.58800065  0.58800065  1
  Se  Se37  1  0.91199935  0.58800065  0.91199935  1
  Se  Se38  1  0.58800065  0.58800065  0.91199935  1
  Se  Se39  1  0.58800065  0.91199935  0.91199935  1
  Se  Se40  1  0.58800065  0.91199935  0.58800065  1
  Se  Se41  1  0.91199935  0.91199935  0.58800065  1
  Se  Se42  1  0.08800065  0.41199935  0.41199935  1
  Se  Se43  1  0.08800065  0.41199935  0.08800065  1
  Se  Se44  1  0.41199935  0.41199935  0.08800065  1
  Se  Se45  1  0.41199935  0.08800065  0.08800065  1
  Se  Se46  1  0.41199935  0.08800065  0.41199935  1
  Se  Se47  1  0.08800065  0.08800065  0.41199935  1
loop_
_geom_bond_atom_site_label_1
_geom_bond_atom_site_label_2
_geom_bond_distance
_geom_bond_site_symmetry_2
Ce0 Se36 2.714997 1_555
Ce0 Se16 2.720947 1_555
Ce0 Se12 2.720947 1_555
Ce0 Se11 2.721875 1_655
Ce1 Se37 2.714997 1_555
Ce1 Se15 2.720947 1_555
Ce1 Se13 2.720947 1_555
Ce1 Se6 2.721875 1_556
Ce2 Se38 2.714997 1_555
Ce2 Se14 2.720947 1_555
Ce2 Se17 2.720948 1_555
Ce2 Se4 2.721875 1_556
Ce3 Se39 2.714997 1_555
Ce3 Se13 2.720947 1_555
Ce3 Se18 2.720947 1_555
Ce3 Se8 2.721875 1_566
Ce4 Se40 2.714997 1_555
Ce4 Se16 2.720947 1_555
Ce4 Se20 2.720947 1_555
Ce4 Se9 2.721875 1_555
Ce5 Se38 2.714997 1_555
Ce5 Se21 2.720947 1_555
Ce5 Se19 2.720947 1_555
Ce5 Se1 2.721875 1_555
Ce6 Se39 2.714997 1_555
Ce6 Se17 2.720947 1_555
Ce6 Se23 2.720947 1_555
Ce6 Se5 2.721875 1_566
Ce7 Se37 2.714997 1_555
Ce7 Se19 2.720947 1_555
Ce7 Se22 2.720947 1_555
Ce7 Se0 2.721875 1_655
Ce8 Se41 2.714997 1_555
Ce8 Se20 2.720947 1_555
Ce8 Se12 2.720947 1_555
Ce8 Se10 2.721875 1_655
Ce9 Se36 2.714997 1_555
Ce9 Se21 2.720947 1_555
Ce9 Se22 2.720947 1_555
Ce9 Se2 2.721875 1_655
Ce10 Se40 2.714997 1_555
Ce10 Se14 2.720947 1_555
Ce10 Se23 2.720948 1_555
Ce10 Se3 2.721875 1_565
Ce11 Se41 2.714997 1_555
Ce11 Se15 2.720947 1_555
Ce11 Se18 2.720947 1_555
Ce11 Se7 2.721875 1_565
Ce12 Se42 2.714997 1_555
Ce12 Se28 2.720947 1_555
Ce12 Se24 2.720947 1_555
Ce12 Se2 2.721875 1_555
Ce13 Se43 2.714997 1_555
Ce13 Se27 2.720947 1_555
Ce13 Se25 2.720947 1_555
Ce13 Se0 2.721875 1_554
Ce14 Se44 2.714997 1_555
Ce14 Se26 2.720947 1_555
Ce14 Se29 2.720948 1_555
Ce14 Se1 2.721875 1_554
Ce15 Se45 2.714997 1_555
Ce15 Se30 2.720947 1_555
Ce15 Se25 2.720947 1_555
Ce15 Se5 2.721875 1_555
Ce16 Se46 2.714997 1_555
Ce16 Se28 2.720947 1_555
Ce16 Se32 2.720947 1_555
Ce16 Se3 2.721875 1_555
Ce17 Se44 2.714997 1_555
Ce17 Se33 2.720947 1_555
Ce17 Se31 2.720947 1_555
Ce17 Se4 2.721875 1_555
Ce18 Se45 2.714997 1_555
Ce18 Se35 2.720947 1_555
Ce18 Se29 2.720947 1_555
Ce18 Se8 2.721875 1_555
Ce19 Se43 2.714997 1_555
Ce19 Se31 2.720947 1_555
Ce19 Se34 2.720947 1_555
Ce19 Se6 2.721875 1_455
Ce20 Se47 2.714997 1_555
Ce20 Se32 2.720947 1_555
Ce20 Se24 2.720947 1_555
Ce20 Se7 2.721875 1_455
Ce21 Se42 2.714997 1_555
Ce21 Se33 2.720947 1_555
Ce21 Se34 2.720947 1_555
Ce21 Se11 2.721875 1_555
Ce22 Se46 2.714997 1_555
Ce22 Se26 2.720947 1_555
Ce22 Se35 2.720948 1_555
Ce22 Se9 2.721875 1_545
Ce23 Se47 2.714997 1_555
Ce23 Se27 2.720947 1_555
Ce23 Se30 2.720947 1_555
Ce23 Se10 2.721875 1_545
