# generated using pymatgen
data_Li9Mn2Co5O16
_symmetry_space_group_name_H-M   'P 1'
_cell_length_a   5.92538200
_cell_length_b   7.64271250
_cell_length_c   7.72205518
_cell_angle_alpha   65.24671223
_cell_angle_beta   68.91891269
_cell_angle_gamma   69.25127903
_symmetry_Int_Tables_number   1
_chemical_formula_structural   Li9Mn2Co5O16
_chemical_formula_sum   'Li9 Mn2 Co5 O16'
_cell_volume   287.62925083
_cell_formula_units_Z   1
loop_
 _symmetry_equiv_pos_site_id
 _symmetry_equiv_pos_as_xyz
  1  'x, y, z'
loop_
 _atom_site_type_symbol
 _atom_site_label
 _atom_site_symmetry_multiplicity
 _atom_site_fract_x
 _atom_site_fract_y
 _atom_site_fract_z
 _atom_site_occupancy
  Li  Li0  1  0.37739100  0.61834800  0.13184700  1
  Li  Li1  1  0.23420200  0.25943600  0.25243400  1
  Li  Li2  1  0.62394300  0.37571600  0.87572100  1
  Li  Li3  1  0.49899400  0.99797300  0.00367000  1
  Li  Li4  1  0.87395200  0.12806300  0.62097900  1
  Li  Li5  1  0.75371000  0.74467100  0.75748000  1
  Li  Li6  1  0.12614300  0.87594800  0.37322200  1
  Li  Li7  1  0.00679600  0.50053200  0.48724900  1
  Li  Li8  1  0.87519800  0.62061400  0.12868800  1
  Mn  Mn0  1  0.00482000  0.99531500  0.00320300  1
  Mn  Mn1  1  0.24505100  0.74937000  0.75301500  1
  Co  Co0  1  0.75255300  0.25407100  0.24659600  1
  Co  Co1  1  0.63507500  0.86859200  0.37086200  1
  Co  Co2  1  0.50791300  0.49972300  0.49279900  1
  Co  Co3  1  0.37399200  0.13343200  0.61925000  1
  Co  Co4  1  0.11375800  0.37974800  0.88103200  1
  O  O0  1  0.99385100  0.76825400  0.23828000  1
  O  O1  1  0.85275900  0.37120800  0.37416300  1
  O  O2  1  0.24979600  0.50629300  0.97614200  1
  O  O3  1  0.12943700  0.11994100  0.11046100  1
  O  O4  1  0.49094900  0.25385200  0.73429000  1
  O  O5  1  0.34818400  0.87644700  0.87632800  1
  O  O6  1  0.73207100  0.01670800  0.47953700  1
  O  O7  1  0.59350400  0.63884700  0.63207800  1
  O  O8  1  0.76011700  0.47585000  0.01701000  1
  O  O9  1  0.66608900  0.11313600  0.11857800  1
  O  O10  1  0.01063700  0.24009700  0.76593600  1
  O  O11  1  0.90829900  0.87375400  0.87224200  1
  O  O12  1  0.25907400  0.99015100  0.51921800  1
  O  O13  1  0.12683700  0.63188400  0.63717600  1
  O  O14  1  0.50329800  0.74747700  0.27046500  1
  O  O15  1  0.37160900  0.37455400  0.38004200  1
loop_
_geom_bond_atom_site_label_1
_geom_bond_atom_site_label_2
_geom_bond_distance
_geom_bond_site_symmetry_2
Li0 O15 2.038047 1_555
Li0 O5 2.135098 1_554
Li0 O14 2.158042 1_555
Li0 O2 2.173875 1_554
Li0 O8 2.174275 1_555
Li0 O0 2.180120 1_455
Li1 O15 2.053949 1_555
Li1 O1 2.120815 1_455
Li1 O3 2.158981 1_555
Li1 O2 2.175055 1_554
Li1 O12 2.225848 1_545
Li1 O9 2.430050 1_555
Li2 O8 2.048696 1_556
Li2 O2 2.087084 1_555
Li2 O7 2.105986 1_555
Li2 O9 2.106377 1_556
Li2 O4 2.161530 1_555
Li2 O10 2.167685 1_655
Li3 O3 2.059722 1_565
Li3 O9 2.108507 1_565
Li3 O14 2.147213 1_555
Li3 O5 2.147830 1_554
Li3 O4 2.180005 1_564
Li3 O11 2.284318 1_554
Li4 O1 2.035298 1_555
Li4 O11 2.104625 1_545
Li4 O6 2.137742 1_555
Li4 O4 2.137817 1_555
Li4 O10 2.142021 1_655
Li4 O12 2.152982 1_645
Li5 O13 2.082533 1_655
Li5 O7 2.086655 1_555
Li5 O11 2.134024 1_555
Li5 O8 2.188683 1_556
Li5 O5 2.259072 1_555
Li5 O6 2.284266 1_565
Li6 O0 2.034878 1_455
Li6 O14 2.100005 1_555
Li6 O3 2.103219 1_565
Li6 O13 2.109655 1_555
Li6 O12 2.145507 1_555
Li6 O6 2.205534 1_465
Li7 O15 2.047091 1_555
Li7 O1 2.123186 1_455
Li7 O0 2.142277 1_455
Li7 O13 2.219395 1_555
Li7 O10 2.238223 1_555
Li7 O7 2.356050 1_455
Li8 O8 2.046801 1_555
Li8 O1 2.053460 1_555
Li8 O0 2.067240 1_555
Li8 O11 2.117566 1_554
Li8 O14 2.152733 1_555
Li8 O2 2.164404 1_654
Mn0 O0 1.915191 1_455
Mn0 O3 1.933232 1_565
Mn0 O9 1.933382 1_465
Mn0 O11 1.947382 1_454
Mn0 O5 1.981521 1_554
Mn0 O10 1.996960 1_564
Mn1 O13 1.914693 1_555
Mn1 O2 1.933422 1_555
Mn1 O11 1.949424 1_455
Mn1 O5 1.958838 1_555
Mn1 O12 1.967484 1_555
Mn1 O7 1.971411 1_555
Co0 O8 1.870373 1_555
Co0 O1 1.913191 1_555
Co0 O6 1.951306 1_555
Co0 O9 2.011711 1_555
Co0 O15 2.157204 1_555
Co0 O3 2.175927 1_655
Co1 O14 1.901608 1_555
Co1 O6 1.979772 1_565
Co1 O0 2.022940 1_555
Co1 O7 2.048312 1_555
Co1 O9 2.063699 1_565
Co1 O12 2.174373 1_555
Co2 O14 1.951534 1_555
Co2 O1 1.991008 1_555
Co2 O15 2.019024 1_555
Co2 O4 2.020692 1_555
Co2 O7 2.068011 1_555
Co2 O13 2.208598 1_555
Co3 O4 1.922469 1_555
Co3 O12 1.968393 1_545
Co3 O15 1.989469 1_555
Co3 O6 2.068758 1_555
Co3 O10 2.087675 1_555
Co3 O5 2.133339 1_545
Co4 O2 1.922924 1_555
Co4 O10 1.987355 1_555
Co4 O8 2.001368 1_456
Co4 O3 2.032708 1_556
Co4 O13 2.056061 1_555
Co4 O4 2.184607 1_555
