# generated using pymatgen
data_Tm2InAu2
_symmetry_space_group_name_H-M   'P 1'
_cell_length_a   3.68820503
_cell_length_b   7.79930748
_cell_length_c   7.79930748
_cell_angle_alpha   90.00000000
_cell_angle_beta   90.00000000
_cell_angle_gamma   90.00000000
_symmetry_Int_Tables_number   1
_chemical_formula_structural   Tm2InAu2
_chemical_formula_sum   'Tm4 In2 Au4'
_cell_volume   224.35055096
_cell_formula_units_Z   2
loop_
 _symmetry_equiv_pos_site_id
 _symmetry_equiv_pos_as_xyz
  1  'x, y, z'
loop_
 _atom_site_type_symbol
 _atom_site_label
 _atom_site_symmetry_multiplicity
 _atom_site_fract_x
 _atom_site_fract_y
 _atom_site_fract_z
 _atom_site_occupancy
  Tm  Tm0  1  0.00000000  0.33121674  0.66878326  1
  Tm  Tm1  1  -0.00000000  0.66878326  0.33121674  1
  Tm  Tm2  1  -0.00000000  0.16878326  0.16878326  1
  Tm  Tm3  1  0.00000000  0.83121674  0.83121674  1
  In  In0  1  0.50000000  0.00000000  0.50000000  1
  In  In1  1  0.50000000  0.50000000  0.00000000  1
  Au  Au0  1  0.50000000  0.12963473  0.87036527  1
  Au  Au1  1  0.50000000  0.87036527  0.12963473  1
  Au  Au2  1  0.50000000  0.37036527  0.37036527  1
  Au  Au3  1  0.50000000  0.62963473  0.62963473  1
loop_
_geom_bond_atom_site_label_1
_geom_bond_atom_site_label_2
_geom_bond_distance
_geom_bond_site_symmetry_2
In0 Tm1 3.436109 1_545
In0 Tm1 3.436109 1_645
In0 Tm0 3.436109 1_555
In0 Tm0 3.436109 1_655
In0 Tm3 3.436109 1_645
In0 Tm3 3.436109 1_545
In0 Tm2 3.436109 1_655
In0 Tm2 3.436109 1_555
In1 Tm2 3.436109 1_555
In1 Tm3 3.436109 1_554
In1 Tm2 3.436109 1_655
In1 Tm3 3.436109 1_654
In1 Tm0 3.436109 1_554
In1 Tm1 3.436109 1_655
In1 Tm0 3.436109 1_654
In1 Tm1 3.436109 1_555
Au0 Tm0 2.888657 1_655
Au0 Tm0 2.888657 1_555
Au0 Tm3 2.985127 1_545
Au0 Tm3 2.985127 1_645
Au0 Tm2 2.985127 1_656
Au0 Tm2 2.985127 1_556
Au0 In1 3.060427 1_556
Au0 In0 3.060427 1_555
Au1 Tm1 2.888657 1_655
Au1 Tm1 2.888657 1_555
Au1 Tm3 2.985127 1_654
Au1 Tm3 2.985127 1_554
Au1 Tm2 2.985127 1_665
Au1 Tm2 2.985127 1_565
Au1 In1 3.060427 1_555
Au1 In0 3.060427 1_565
Au2 Tm2 2.888657 1_655
Au2 Tm2 2.888657 1_555
Au2 Tm0 2.985127 1_555
Au2 Tm0 2.985127 1_655
Au2 Tm1 2.985127 1_655
Au2 Tm1 2.985127 1_555
Au2 In0 3.060427 1_555
Au2 In1 3.060427 1_555
Au3 Tm3 2.888657 1_555
Au3 Tm3 2.888657 1_655
Au3 Tm1 2.985127 1_655
Au3 Tm1 2.985127 1_555
Au3 Tm0 2.985127 1_555
Au3 Tm0 2.985127 1_655
Au3 In1 3.060427 1_556
Au3 In0 3.060427 1_565
