# generated using pymatgen
data_Cu9O13
_symmetry_space_group_name_H-M   'P 1'
_cell_length_a   5.13490074
_cell_length_b   5.13490074
_cell_length_c   16.22035609
_cell_angle_alpha   81.39080103
_cell_angle_beta   81.39080103
_cell_angle_gamma   33.33349332
_symmetry_Int_Tables_number   1
_chemical_formula_structural   Cu9O13
_chemical_formula_sum   'Cu9 O13'
_cell_volume   232.13107906
_cell_formula_units_Z   1
loop_
 _symmetry_equiv_pos_site_id
 _symmetry_equiv_pos_as_xyz
  1  'x, y, z'
loop_
 _atom_site_type_symbol
 _atom_site_label
 _atom_site_symmetry_multiplicity
 _atom_site_fract_x
 _atom_site_fract_y
 _atom_site_fract_z
 _atom_site_occupancy
  Cu  Cu0  1  0.50000000  0.50000000  0.50000000  1
  Cu  Cu1  1  0.35252800  0.35252800  0.04187700  1
  Cu  Cu2  1  0.64747200  0.64747200  0.95812300  1
  Cu  Cu3  1  0.25117300  0.25117300  0.41752700  1
  Cu  Cu4  1  0.74882700  0.74882700  0.58247300  1
  Cu  Cu5  1  0.06063800  0.06063800  0.12392800  1
  Cu  Cu6  1  0.93936200  0.93936200  0.87607200  1
  Cu  Cu7  1  0.00607900  0.00607900  0.32985700  1
  Cu  Cu8  1  0.99392100  0.99392100  0.67014300  1
  O  O0  1  0.00000000  0.00000000  0.00000000  1
  O  O1  1  0.11655000  0.11655000  0.22611900  1
  O  O2  1  0.88345000  0.88345000  0.77388100  1
  O  O3  1  0.69863000  0.69863000  0.06804200  1
  O  O4  1  0.30137000  0.30137000  0.93195800  1
  O  O5  1  0.43171700  0.43171700  0.13802000  1
  O  O6  1  0.56828300  0.56828300  0.86198000  1
  O  O7  1  0.38295500  0.38295500  0.32333900  1
  O  O8  1  0.61704500  0.61704500  0.67666100  1
  O  O9  1  0.60740300  0.60740300  0.38866100  1
  O  O10  1  0.39259700  0.39259700  0.61133900  1
  O  O11  1  0.86538700  0.86538700  0.47391400  1
  O  O12  1  0.13461300  0.13461300  0.52608600  1
loop_
_geom_bond_atom_site_label_1
_geom_bond_atom_site_label_2
_geom_bond_distance
_geom_bond_site_symmetry_2
Cu0 O10 1.944649 1_555
Cu0 O9 1.944649 1_555
Cu0 O12 2.068091 1_565
Cu0 O12 2.068091 1_655
Cu0 O11 2.068091 1_455
Cu0 O11 2.068091 1_545
Cu1 O5 1.848956 1_555
Cu1 O4 1.926807 1_554
Cu1 O0 2.104125 1_655
Cu1 O0 2.104125 1_565
Cu1 O3 2.107295 1_455
Cu1 O3 2.107295 1_545
Cu2 O6 1.848956 1_555
Cu2 O3 1.926807 1_556
Cu2 O0 2.104125 1_566
Cu2 O0 2.104125 1_656
Cu2 O4 2.107295 1_565
Cu2 O4 2.107295 1_655
Cu3 O7 1.842822 1_555
Cu3 O12 1.945415 1_555
Cu3 O11 2.142253 1_545
Cu3 O11 2.142253 1_455
Cu3 O9 2.143777 1_455
Cu3 O9 2.143777 1_545
Cu4 O8 1.842822 1_555
Cu4 O11 1.945415 1_555
Cu4 O12 2.142253 1_655
Cu4 O12 2.142253 1_565
Cu4 O10 2.143777 1_655
Cu4 O10 2.143777 1_565
Cu5 O1 1.826225 1_555
Cu5 O5 1.933725 1_545
Cu5 O5 1.933725 1_455
Cu5 O3 2.109294 1_455
Cu5 O3 2.109294 1_545
Cu5 O0 2.184356 1_555
Cu6 O2 1.826225 1_555
Cu6 O6 1.933725 1_655
Cu6 O6 1.933725 1_565
Cu6 O4 2.109294 1_655
Cu6 O4 2.109294 1_565
Cu6 O0 2.184356 1_666
Cu7 O1 1.855016 1_555
Cu7 O7 1.920267 1_545
Cu7 O7 1.920267 1_455
Cu7 O9 2.090345 1_545
Cu7 O9 2.090345 1_455
Cu7 O11 2.522919 1_445
Cu8 O2 1.855016 1_555
Cu8 O8 1.920267 1_655
Cu8 O8 1.920267 1_565
Cu8 O10 2.090345 1_565
Cu8 O10 2.090345 1_655
Cu8 O12 2.522919 1_665
