# generated using pymatgen
data_Mg6VBiO8
_symmetry_space_group_name_H-M   'P 1'
_cell_length_a   8.82929747
_cell_length_b   4.55114010
_cell_length_c   4.55114010
_cell_angle_alpha   90.00000000
_cell_angle_beta   90.00000000
_cell_angle_gamma   90.00000000
_symmetry_Int_Tables_number   1
_chemical_formula_structural   Mg6VBiO8
_chemical_formula_sum   'Mg6 V1 Bi1 O8'
_cell_volume   182.88014552
_cell_formula_units_Z   1
loop_
 _symmetry_equiv_pos_site_id
 _symmetry_equiv_pos_as_xyz
  1  'x, y, z'
loop_
 _atom_site_type_symbol
 _atom_site_label
 _atom_site_symmetry_multiplicity
 _atom_site_fract_x
 _atom_site_fract_y
 _atom_site_fract_z
 _atom_site_occupancy
  Mg  Mg0  1  0.50000000  0.00000000  0.00000000  1
  Mg  Mg1  1  0.50000000  0.50000000  0.50000000  1
  Mg  Mg2  1  0.26512921  0.00000000  0.50000000  1
  Mg  Mg3  1  0.73487079  0.00000000  0.50000000  1
  Mg  Mg4  1  0.26512921  0.50000000  0.00000000  1
  Mg  Mg5  1  0.73487079  0.50000000  0.00000000  1
  V  V0  1  0.00000000  0.00000000  0.00000000  1
  Bi  Bi0  1  0.00000000  0.50000000  0.50000000  1
  O  O0  1  0.25772177  0.00000000  0.00000000  1
  O  O1  1  0.74227823  0.00000000  0.00000000  1
  O  O2  1  0.27423175  0.50000000  0.50000000  1
  O  O3  1  0.72576825  0.50000000  0.50000000  1
  O  O4  1  0.00000000  0.00000000  0.50000000  1
  O  O5  1  0.50000000  0.00000000  0.50000000  1
  O  O6  1  0.00000000  0.50000000  0.00000000  1
  O  O7  1  0.50000000  0.50000000  0.00000000  1
loop_
_geom_bond_atom_site_label_1
_geom_bond_atom_site_label_2
_geom_bond_distance
_geom_bond_site_symmetry_2
Mg0 O0 2.139147 1_555
Mg0 O1 2.139147 1_555
Mg0 O7 2.275570 1_555
Mg0 O5 2.275570 1_554
Mg0 O5 2.275570 1_555
Mg0 O7 2.275570 1_545
Mg1 O2 1.993375 1_555
Mg1 O3 1.993375 1_555
Mg1 O7 2.275570 1_555
Mg1 O7 2.275570 1_556
Mg1 O5 2.275570 1_555
Mg1 O5 2.275570 1_565
Mg2 O5 2.073744 1_555
Mg2 O0 2.276510 1_556
Mg2 O0 2.276510 1_555
Mg2 O2 2.276989 1_545
Mg2 O2 2.276989 1_555
Mg2 O4 2.340905 1_555
Mg3 O5 2.073744 1_555
Mg3 O1 2.276510 1_555
Mg3 O1 2.276510 1_556
Mg3 O3 2.276989 1_545
Mg3 O3 2.276989 1_555
Mg3 O4 2.340905 1_655
Mg4 O7 2.073744 1_555
Mg4 O0 2.276510 1_555
Mg4 O0 2.276510 1_565
Mg4 O2 2.276989 1_554
Mg4 O2 2.276989 1_555
Mg4 O6 2.340905 1_555
Mg5 O7 2.073744 1_555
Mg5 O1 2.276510 1_555
Mg5 O1 2.276510 1_565
Mg5 O3 2.276989 1_555
Mg5 O3 2.276989 1_554
Mg5 O6 2.340905 1_655
Bi0 O4 2.275570 1_565
Bi0 O6 2.275570 1_556
Bi0 O6 2.275570 1_555
Bi0 O4 2.275570 1_555
Bi0 O3 2.421274 1_455
Bi0 O2 2.421274 1_555
O0 V0 2.275502 1_555
O1 V0 2.275502 1_655
O4 V0 2.275570 1_555
O4 V0 2.275570 1_556
O6 V0 2.275570 1_555
O6 V0 2.275570 1_565
