# generated using pymatgen
data_Mo3Os3C2
_symmetry_space_group_name_H-M   'P 1'
_cell_length_a   5.77273774
_cell_length_b   5.77273774
_cell_length_c   28.29791008
_cell_angle_alpha   90.00000000
_cell_angle_beta   90.00000000
_cell_angle_gamma   120.00000000
_symmetry_Int_Tables_number   1
_chemical_formula_structural   Mo3Os3C2
_chemical_formula_sum   'Mo24 Os24 C16'
_cell_volume   816.67384815
_cell_formula_units_Z   8
loop_
 _symmetry_equiv_pos_site_id
 _symmetry_equiv_pos_as_xyz
  1  'x, y, z'
loop_
 _atom_site_type_symbol
 _atom_site_label
 _atom_site_symmetry_multiplicity
 _atom_site_fract_x
 _atom_site_fract_y
 _atom_site_fract_z
 _atom_site_occupancy
  Mo  Mo0_0  1  0.00000000  0.00000000  0.48920500  1
  Mo  Mo0_1  1  0.00000000  0.00000000  0.98920500  1
  Mo  Mo0_2  1  0.00000000  0.50000000  0.48920500  1
  Mo  Mo0_3  1  0.00000000  0.50000000  0.98920500  1
  Mo  Mo0_4  1  0.50000000  0.00000000  0.48920500  1
  Mo  Mo0_5  1  0.50000000  0.00000000  0.98920500  1
  Mo  Mo0_6  1  0.50000000  0.50000000  0.48920500  1
  Mo  Mo0_7  1  0.50000000  0.50000000  0.98920500  1
  Mo  Mo1_0  1  0.33333350  0.16666650  0.08333350  1
  Mo  Mo1_1  1  0.33333350  0.16666650  0.58333350  1
  Mo  Mo1_2  1  0.33333350  0.66666650  0.08333350  1
  Mo  Mo1_3  1  0.33333350  0.66666650  0.58333350  1
  Mo  Mo1_4  1  0.83333350  0.16666650  0.08333350  1
  Mo  Mo1_5  1  0.83333350  0.16666650  0.58333350  1
  Mo  Mo1_6  1  0.83333350  0.66666650  0.08333350  1
  Mo  Mo1_7  1  0.83333350  0.66666650  0.58333350  1
  Mo  Mo2_0  1  0.16666650  0.33333350  0.17746150  1
  Mo  Mo2_1  1  0.16666650  0.33333350  0.67746150  1
  Mo  Mo2_2  1  0.16666650  0.83333350  0.17746150  1
  Mo  Mo2_3  1  0.16666650  0.83333350  0.67746150  1
  Mo  Mo2_4  1  0.66666650  0.33333350  0.17746150  1
  Mo  Mo2_5  1  0.66666650  0.33333350  0.67746150  1
  Mo  Mo2_6  1  0.66666650  0.83333350  0.17746150  1
  Mo  Mo2_7  1  0.66666650  0.83333350  0.67746150  1
  Os  Os0_0  1  0.00000000  0.00000000  0.25684450  1
  Os  Os0_1  1  1.00000000  1.00000000  0.75684450  1
  Os  Os0_2  1  0.00000000  0.50000000  0.25684450  1
  Os  Os0_3  1  0.00000000  0.50000000  0.75684450  1
  Os  Os0_4  1  0.50000000  0.00000000  0.25684450  1
  Os  Os0_5  1  0.50000000  0.00000000  0.75684450  1
  Os  Os0_6  1  0.50000000  0.50000000  0.25684450  1
  Os  Os0_7  1  0.50000000  0.50000000  0.75684450  1
  Os  Os1_0  1  0.33333350  0.16666650  0.33333350  1
  Os  Os1_1  1  0.33333350  0.16666650  0.83333350  1
  Os  Os1_2  1  0.33333350  0.66666650  0.33333350  1
  Os  Os1_3  1  0.33333350  0.66666650  0.83333350  1
  Os  Os1_4  1  0.83333350  0.16666650  0.33333350  1
  Os  Os1_5  1  0.83333350  0.16666650  0.83333350  1
  Os  Os1_6  1  0.83333350  0.66666650  0.33333350  1
  Os  Os1_7  1  0.83333350  0.66666650  0.83333350  1
  Os  Os2_0  1  0.16666650  0.33333350  0.40982200  1
  Os  Os2_1  1  0.16666650  0.33333350  0.90982200  1
  Os  Os2_2  1  0.16666650  0.83333350  0.40982200  1
  Os  Os2_3  1  0.16666650  0.83333350  0.90982200  1
  Os  Os2_4  1  0.66666650  0.33333350  0.40982200  1
  Os  Os2_5  1  0.66666650  0.33333350  0.90982200  1
  Os  Os2_6  1  0.66666650  0.83333350  0.40982200  1
  Os  Os2_7  1  0.66666650  0.83333350  0.90982200  1
  C  C0_0  1  0.16666650  0.33333350  0.03423350  1
  C  C0_1  1  0.16666650  0.33333350  0.53423350  1
  C  C0_2  1  0.16666650  0.83333350  0.03423350  1
  C  C0_3  1  0.16666650  0.83333350  0.53423350  1
  C  C0_4  1  0.66666650  0.33333350  0.03423350  1
  C  C0_5  1  0.66666650  0.33333350  0.53423350  1
  C  C0_6  1  0.66666650  0.83333350  0.03423350  1
  C  C0_7  1  0.66666650  0.83333350  0.53423350  1
  C  C1_0  1  0.00000000  0.00000000  0.13243300  1
  C  C1_1  1  0.00000000  0.00000000  0.63243300  1
  C  C1_2  1  1.00000000  0.50000000  0.13243300  1
  C  C1_3  1  0.00000000  0.50000000  0.63243300  1
  C  C1_4  1  0.50000000  0.00000000  0.13243300  1
  C  C1_5  1  0.50000000  0.00000000  0.63243300  1
  C  C1_6  1  0.50000000  0.50000000  0.13243300  1
  C  C1_7  1  0.50000000  0.50000000  0.63243300  1
loop_
_geom_bond_atom_site_label_1
_geom_bond_atom_site_label_2
_geom_bond_distance
_geom_bond_site_symmetry_2
Mo0_0 Os2_2 2.797003 1_545
Mo0_0 Os2_0 2.797005 1_555
Mo0_0 Os2_6 2.797005 1_445
Mo0_1 Os2_3 2.797003 1_545
Mo0_1 Os2_7 2.797005 1_445
Mo0_1 Os2_1 2.797005 1_555
Mo0_2 Os2_0 2.797003 1_555
Mo0_2 Os2_2 2.797005 1_555
Mo0_2 Os2_4 2.797005 1_455
Mo0_3 Os2_1 2.797003 1_555
Mo0_3 Os2_3 2.797005 1_555
Mo0_3 Os2_5 2.797005 1_455
Mo0_4 Os2_6 2.797003 1_545
Mo0_4 Os2_4 2.797005 1_555
Mo0_4 Os2_2 2.797005 1_545
Mo0_5 Os2_7 2.797003 1_545
Mo0_5 Os2_3 2.797005 1_545
Mo0_5 Os2_5 2.797005 1_555
Mo0_6 Os2_4 2.797003 1_555
Mo0_6 Os2_6 2.797005 1_555
Mo0_6 Os2_0 2.797005 1_555
Mo0_7 Os2_5 2.797003 1_555
Mo0_7 Os2_7 2.797005 1_555
Mo0_7 Os2_1 2.797005 1_555
Mo2_0 Os0_2 2.797003 1_555
Mo2_0 Os0_0 2.797005 1_555
Mo2_0 Os0_6 2.797005 1_555
Mo2_1 Os0_3 2.797003 1_555
Mo2_1 Os0_7 2.797005 1_555
Mo2_1 Os0_1 2.797005 1_445
Mo2_2 Os0_0 2.797003 1_565
Mo2_2 Os0_2 2.797005 1_555
Mo2_2 Os0_4 2.797005 1_565
Mo2_3 Os0_1 2.797003 1_455
Mo2_3 Os0_3 2.797005 1_555
Mo2_3 Os0_5 2.797005 1_565
Mo2_4 Os0_6 2.797003 1_555
Mo2_4 Os0_4 2.797005 1_555
Mo2_4 Os0_2 2.797005 1_655
Mo2_5 Os0_7 2.797003 1_555
Mo2_5 Os0_5 2.797005 1_555
Mo2_5 Os0_3 2.797005 1_655
Mo2_6 Os0_4 2.797003 1_565
Mo2_6 Os0_6 2.797005 1_555
Mo2_6 Os0_0 2.797005 1_665
Mo2_7 Os0_5 2.797003 1_565
Mo2_7 Os0_7 2.797005 1_555
Mo2_7 Os0_1 2.797005 1_555
Os0_0 Os1_4 2.731667 1_455
Os0_0 Os1_6 2.731669 1_445
Os0_0 Os1_0 2.731669 1_555
Os0_0 Os0_2 2.886369 1_555
Os0_0 Os0_6 2.886369 1_555
Os0_0 Os0_4 2.886369 1_555
Os0_0 Os0_4 2.886369 1_455
Os0_0 Os0_6 2.886369 1_445
Os0_0 Os0_2 2.886369 1_545
Os0_1 Os1_5 2.731667 1_565
Os0_1 Os1_7 2.731669 1_555
Os0_1 Os1_1 2.731669 1_665
Os0_1 Os0_7 2.886369 1_555
Os0_1 Os0_5 2.886369 1_665
Os0_1 Os0_3 2.886369 1_665
Os0_1 Os0_3 2.886369 1_655
Os0_1 Os0_7 2.886369 1_665
Os0_1 Os0_5 2.886369 1_565
Os0_2 Os1_6 2.731667 1_455
Os0_2 Os1_2 2.731669 1_555
Os0_2 Os1_4 2.731669 1_455
Os0_2 Os0_4 2.886369 1_455
Os0_2 Os0_6 2.886369 1_555
Os0_2 Os0_6 2.886369 1_455
Os0_2 Os0_4 2.886369 1_565
Os0_3 Os1_7 2.731667 1_455
Os0_3 Os1_5 2.731669 1_455
Os0_3 Os1_3 2.731669 1_555
Os0_3 Os0_5 2.886369 1_455
Os0_3 Os0_7 2.886369 1_455
Os0_3 Os0_7 2.886369 1_555
Os0_3 Os0_5 2.886369 1_565
Os0_4 Os1_0 2.731667 1_555
Os0_4 Os1_2 2.731669 1_545
Os0_4 Os1_4 2.731669 1_555
Os0_4 Os0_6 2.886369 1_555
Os0_4 Os0_6 2.886369 1_545
Os0_5 Os1_1 2.731667 1_555
Os0_5 Os1_5 2.731669 1_555
Os0_5 Os1_3 2.731669 1_545
Os0_5 Os0_7 2.886369 1_555
Os0_5 Os0_7 2.886369 1_545
Os0_6 Os1_2 2.731667 1_555
Os0_6 Os1_6 2.731669 1_555
Os0_6 Os1_0 2.731669 1_555
Os0_7 Os1_3 2.731667 1_555
Os0_7 Os1_1 2.731669 1_555
Os0_7 Os1_7 2.731669 1_555
Os1_0 Os2_4 2.731656 1_555
Os1_0 Os2_2 2.731656 1_545
Os1_0 Os2_0 2.731659 1_555
Os1_0 Os1_2 2.886369 1_555
Os1_0 Os1_4 2.886369 1_455
Os1_0 Os1_6 2.886369 1_555
Os1_0 Os1_4 2.886369 1_555
Os1_0 Os1_6 2.886369 1_445
Os1_0 Os1_2 2.886369 1_545
Os1_1 Os2_5 2.731656 1_555
Os1_1 Os2_3 2.731656 1_545
Os1_1 Os2_1 2.731659 1_555
Os1_1 Os1_3 2.886369 1_555
Os1_1 Os1_7 2.886369 1_555
Os1_1 Os1_5 2.886369 1_555
Os1_1 Os1_5 2.886369 1_455
Os1_1 Os1_3 2.886369 1_545
Os1_1 Os1_7 2.886369 1_445
Os1_2 Os2_0 2.731656 1_555
Os1_2 Os2_6 2.731656 1_555
Os1_2 Os2_2 2.731659 1_555
Os1_2 Os1_4 2.886369 1_455
Os1_2 Os1_6 2.886369 1_455
Os1_2 Os1_6 2.886369 1_555
Os1_2 Os1_4 2.886369 1_565
Os1_3 Os2_1 2.731656 1_555
Os1_3 Os2_7 2.731656 1_555
Os1_3 Os2_3 2.731659 1_555
Os1_3 Os1_5 2.886369 1_455
Os1_3 Os1_7 2.886369 1_455
Os1_3 Os1_7 2.886369 1_555
Os1_3 Os1_5 2.886369 1_565
Os1_4 Os2_0 2.731656 1_655
Os1_4 Os2_6 2.731656 1_545
Os1_4 Os2_4 2.731659 1_555
Os1_4 Os1_6 2.886369 1_555
Os1_4 Os1_6 2.886369 1_545
Os1_5 Os2_1 2.731656 1_655
Os1_5 Os2_7 2.731656 1_545
Os1_5 Os2_5 2.731659 1_555
Os1_5 Os1_7 2.886369 1_555
Os1_5 Os1_7 2.886369 1_545
Os1_6 Os2_4 2.731656 1_555
Os1_6 Os2_2 2.731656 1_655
Os1_6 Os2_6 2.731659 1_555
Os1_7 Os2_5 2.731656 1_555
Os1_7 Os2_3 2.731656 1_655
Os1_7 Os2_7 2.731659 1_555
Os2_0 Os2_4 2.886369 1_555
Os2_0 Os2_6 2.886369 1_555
Os2_0 Os2_2 2.886369 1_555
Os2_0 Os2_2 2.886369 1_545
Os2_0 Os2_6 2.886369 1_445
Os2_0 Os2_4 2.886369 1_455
Os2_1 Os2_5 2.886369 1_555
Os2_1 Os2_3 2.886369 1_555
Os2_1 Os2_7 2.886369 1_445
Os2_1 Os2_7 2.886369 1_555
Os2_1 Os2_5 2.886369 1_455
Os2_1 Os2_3 2.886369 1_545
Os2_2 Os2_4 2.886369 1_455
Os2_2 Os2_6 2.886369 1_555
Os2_2 Os2_6 2.886369 1_455
Os2_2 Os2_4 2.886369 1_565
Os2_3 Os2_5 2.886369 1_455
Os2_3 Os2_7 2.886369 1_555
Os2_3 Os2_7 2.886369 1_455
Os2_3 Os2_5 2.886369 1_565
Os2_4 Os2_6 2.886369 1_555
Os2_4 Os2_6 2.886369 1_545
Os2_5 Os2_7 2.886369 1_555
Os2_5 Os2_7 2.886369 1_545
C0_0 Mo0_3 2.097773 1_554
C0_0 Mo0_1 2.097775 1_554
C0_0 Mo0_7 2.097775 1_554
C0_0 Mo1_2 2.169688 1_555
C0_0 Mo1_4 2.169688 1_455
C0_0 Mo1_0 2.169692 1_555
C0_1 Mo0_2 2.097773 1_555
C0_1 Mo0_6 2.097775 1_555
C0_1 Mo0_0 2.097775 1_555
C0_1 Mo1_3 2.169688 1_555
C0_1 Mo1_5 2.169688 1_455
C0_1 Mo1_1 2.169692 1_555
C0_2 Mo0_1 2.097773 1_564
C0_2 Mo0_3 2.097775 1_554
C0_2 Mo0_5 2.097775 1_564
C0_2 Mo1_0 2.169688 1_565
C0_2 Mo1_6 2.169688 1_455
C0_2 Mo1_2 2.169692 1_555
C0_3 Mo0_0 2.097773 1_565
C0_3 Mo0_2 2.097775 1_555
C0_3 Mo0_4 2.097775 1_565
C0_3 Mo1_7 2.169688 1_455
C0_3 Mo1_1 2.169688 1_565
C0_3 Mo1_3 2.169692 1_555
C0_4 Mo0_7 2.097773 1_554
C0_4 Mo0_5 2.097775 1_554
C0_4 Mo0_3 2.097775 1_654
C0_4 Mo1_0 2.169688 1_555
C0_4 Mo1_6 2.169688 1_555
C0_4 Mo1_4 2.169692 1_555
C0_5 Mo0_6 2.097773 1_555
C0_5 Mo0_4 2.097775 1_555
C0_5 Mo0_2 2.097775 1_655
C0_5 Mo1_1 2.169688 1_555
C0_5 Mo1_7 2.169688 1_555
C0_5 Mo1_5 2.169692 1_555
C0_6 Mo0_5 2.097773 1_564
C0_6 Mo0_7 2.097775 1_554
C0_6 Mo0_1 2.097775 1_664
C0_6 Mo1_4 2.169688 1_565
C0_6 Mo1_2 2.169688 1_555
C0_6 Mo1_6 2.169692 1_555
C0_7 Mo0_4 2.097773 1_565
C0_7 Mo0_6 2.097775 1_555
C0_7 Mo0_0 2.097775 1_665
C0_7 Mo1_3 2.169688 1_555
C0_7 Mo1_5 2.169688 1_565
C0_7 Mo1_7 2.169692 1_555
C1_0 Mo2_2 2.097773 1_545
C1_0 Mo2_0 2.097775 1_555
C1_0 Mo2_6 2.097775 1_445
C1_0 Mo1_4 2.169679 1_455
C1_0 Mo1_0 2.169681 1_555
C1_0 Mo1_6 2.169681 1_445
C1_1 Mo2_3 2.097773 1_545
C1_1 Mo2_1 2.097775 1_555
C1_1 Mo2_7 2.097775 1_445
C1_1 Mo1_5 2.169679 1_455
C1_1 Mo1_1 2.169681 1_555
C1_1 Mo1_7 2.169681 1_445
C1_2 Mo2_0 2.097773 1_655
C1_2 Mo2_2 2.097775 1_655
C1_2 Mo2_4 2.097775 1_555
C1_2 Mo1_6 2.169679 1_555
C1_2 Mo1_2 2.169681 1_655
C1_2 Mo1_4 2.169681 1_555
C1_3 Mo2_1 2.097773 1_555
C1_3 Mo2_3 2.097775 1_555
C1_3 Mo2_5 2.097775 1_455
C1_3 Mo1_7 2.169679 1_455
C1_3 Mo1_5 2.169681 1_455
C1_3 Mo1_3 2.169681 1_555
C1_4 Mo2_6 2.097773 1_545
C1_4 Mo2_4 2.097775 1_555
C1_4 Mo2_2 2.097775 1_545
C1_4 Mo1_0 2.169679 1_555
C1_4 Mo1_4 2.169681 1_555
C1_4 Mo1_2 2.169681 1_545
C1_5 Mo2_7 2.097773 1_545
C1_5 Mo2_5 2.097775 1_555
C1_5 Mo2_3 2.097775 1_545
C1_5 Mo1_1 2.169679 1_555
C1_5 Mo1_5 2.169681 1_555
C1_5 Mo1_3 2.169681 1_545
C1_6 Mo2_4 2.097773 1_555
C1_6 Mo2_0 2.097775 1_555
C1_6 Mo2_6 2.097775 1_555
C1_6 Mo1_2 2.169679 1_555
C1_6 Mo1_6 2.169681 1_555
C1_6 Mo1_0 2.169681 1_555
C1_7 Mo2_5 2.097773 1_555
C1_7 Mo2_7 2.097775 1_555
C1_7 Mo2_1 2.097775 1_555
C1_7 Mo1_3 2.169679 1_555
C1_7 Mo1_1 2.169681 1_555
C1_7 Mo1_7 2.169681 1_555
