# generated using pymatgen
data_Li12Mn7V(PO4)12
_symmetry_space_group_name_H-M   'P 1'
_cell_length_a   8.60848973
_cell_length_b   12.33331188
_cell_length_c   17.50080678
_cell_angle_alpha   90.00844733
_cell_angle_beta   89.92326797
_cell_angle_gamma   92.09473375
_symmetry_Int_Tables_number   1
_chemical_formula_structural   Li12Mn7V(PO4)12
_chemical_formula_sum   'Li24 Mn14 V2 P24 O96'
_cell_volume   1856.83813528
_cell_formula_units_Z   2
loop_
 _symmetry_equiv_pos_site_id
 _symmetry_equiv_pos_as_xyz
  1  'x, y, z'
loop_
 _atom_site_type_symbol
 _atom_site_label
 _atom_site_symmetry_multiplicity
 _atom_site_fract_x
 _atom_site_fract_y
 _atom_site_fract_z
 _atom_site_occupancy
  Li  Li0  1  0.07783204  0.69520811  0.04347167  1
  Li  Li1  1  0.08141923  0.69634093  0.54243547  1
  Li  Li2  1  0.07561903  0.76153374  0.84592368  1
  Li  Li3  1  0.07774871  0.75871365  0.34934089  1
  Li  Li4  1  0.20830826  0.17401140  0.39073081  1
  Li  Li5  1  0.21100058  0.17399406  0.88868496  1
  Li  Li6  1  0.28966921  0.32437059  0.13899423  1
  Li  Li7  1  0.29148284  0.32727920  0.64032519  1
  Li  Li8  1  0.42649324  0.74151471  0.09809984  1
  Li  Li9  1  0.41992442  0.73802771  0.59710266  1
  Li  Li10  1  0.42128479  0.80340984  0.29467465  1
  Li  Li11  1  0.41868862  0.80484856  0.79111103  1
  Li  Li12  1  0.58040338  0.19869576  0.20898816  1
  Li  Li13  1  0.58187169  0.19634223  0.70780089  1
  Li  Li14  1  0.57871220  0.26362116  0.40262562  1
  Li  Li15  1  0.58240940  0.26284159  0.90277795  1
  Li  Li16  1  0.70850344  0.67196355  0.35984756  1
  Li  Li17  1  0.70652439  0.67126055  0.85836977  1
  Li  Li18  1  0.79350816  0.83008943  0.10906846  1
  Li  Li19  1  0.79104796  0.82732575  0.60888765  1
  Li  Li20  1  0.91992432  0.23628374  0.15213987  1
  Li  Li21  1  0.91918964  0.23780602  0.65289964  1
  Li  Li22  1  0.91836846  0.30367006  0.45803979  1
  Li  Li23  1  0.91993967  0.30147842  0.95846256  1
  Mn  Mn0  1  0.24783756  0.60137724  0.76887833  1
  Mn  Mn1  1  0.25123571  0.89888751  0.51898886  1
  Mn  Mn2  1  0.24941310  0.10842127  0.22961887  1
  Mn  Mn3  1  0.24787954  0.11008960  0.72785750  1
  Mn  Mn4  1  0.25132983  0.39144911  0.47865964  1
  Mn  Mn5  1  0.25159097  0.38983734  0.97843334  1
  Mn  Mn6  1  0.74729935  0.60942204  0.02119440  1
  Mn  Mn7  1  0.74771363  0.60919969  0.52149369  1
  Mn  Mn8  1  0.75269059  0.89053771  0.27176166  1
  Mn  Mn9  1  0.75216812  0.89097546  0.77057938  1
  Mn  Mn10  1  0.74931134  0.10138079  0.48110736  1
  Mn  Mn11  1  0.74884386  0.10037685  0.98112308  1
  Mn  Mn12  1  0.75100865  0.39920455  0.23145101  1
  Mn  Mn13  1  0.75147288  0.39931338  0.73048948  1
  V  V0  1  0.24741875  0.60685112  0.26626017  1
  V  V1  1  0.25277317  0.89260810  0.01595109  1
  P  P0  1  0.03540942  0.49299646  0.12515474  1
  P  P1  1  0.03832499  0.49613889  0.62685944  1
  P  P2  1  0.10434974  0.85428444  0.19333483  1
  P  P3  1  0.10251033  0.86133884  0.69200847  1
  P  P4  1  0.10252556  0.15168971  0.04832718  1
  P  P5  1  0.09976084  0.15706034  0.54864957  1
  P  P6  1  0.39697605  0.34751561  0.29857745  1
  P  P7  1  0.40110057  0.34404894  0.79844937  1
  P  P8  1  0.39491525  0.64453825  0.94234078  1
  P  P9  1  0.39683287  0.64023644  0.44300082  1
  P  P10  1  0.46283441  0.00486314  0.37745894  1
  P  P11  1  0.46508232  0.00590680  0.87502807  1
  P  P12  1  0.53935714  0.99681413  0.12435273  1
  P  P13  1  0.53787342  0.99636249  0.62265889  1
  P  P14  1  0.60306513  0.36100188  0.05792900  1
  P  P15  1  0.60312132  0.36071925  0.55790231  1
  P  P16  1  0.60493326  0.65790129  0.20032491  1
  P  P17  1  0.59895075  0.65691064  0.70118686  1
  P  P18  1  0.90008985  0.84317987  0.45161138  1
  P  P19  1  0.89580056  0.84192307  0.94993552  1
  P  P20  1  0.89751959  0.13888168  0.30771403  1
  P  P21  1  0.89773420  0.13885905  0.80795058  1
  P  P22  1  0.95966050  0.50390841  0.37394650  1
  P  P23  1  0.96124028  0.50289924  0.87315413  1
  O  O0  1  0.04766115  0.43368747  0.43243153  1
  O  O1  1  0.04893400  0.43115079  0.93099450  1
  O  O2  1  0.08287944  0.84907008  0.44752491  1
  O  O3  1  0.07741019  0.84860582  0.94578924  1
  O  O4  1  0.06835876  0.59510014  0.33987466  1
  O  O5  1  0.07157180  0.59498095  0.83965326  1
  O  O6  1  0.07491401  0.16429073  0.29575992  1
  O  O7  1  0.07460534  0.16555636  0.79643908  1
  O  O8  1  0.10199833  0.57411739  0.18428836  1
  O  O9  1  0.10035377  0.57838409  0.68697840  1
  O  O10  1  0.13942366  0.82386853  0.60802229  1
  O  O11  1  0.14125977  0.81993228  0.10920942  1
  O  O12  1  0.14336214  0.97613100  0.20277854  1
  O  O13  1  0.13286852  0.98519717  0.69611773  1
  O  O14  1  0.13950406  0.24826766  0.48744102  1
  O  O15  1  0.14443687  0.24219424  0.98663774  1
  O  O16  1  0.14994091  0.19216242  0.12866976  1
  O  O17  1  0.14849864  0.19686123  0.62903722  1
  O  O18  1  0.16746969  0.43274605  0.08717129  1
  O  O19  1  0.17185880  0.43779004  0.58872346  1
  O  O20  1  0.17338533  0.04696266  0.02294716  1
  O  O21  1  0.17202055  0.05446645  0.52076768  1
  O  O22  1  0.19555378  0.78607672  0.25247164  1
  O  O23  1  0.19639611  0.80088607  0.75259734  1
  O  O24  1  0.30427266  0.71310842  0.00155415  1
  O  O25  1  0.30195126  0.70020754  0.50369063  1
  O  O26  1  0.32910513  0.44685792  0.77113998  1
  O  O27  1  0.32636804  0.45217896  0.27300047  1
  O  O28  1  0.33060877  0.06476329  0.33970986  1
  O  O29  1  0.33176544  0.06452526  0.83706298  1
  O  O30  1  0.34858521  0.30615509  0.37874696  1
  O  O31  1  0.35254717  0.30531064  0.87919953  1
  O  O32  1  0.36675985  0.51617635  0.44731974  1
  O  O33  1  0.35628598  0.52266030  0.95188428  1
  O  O34  1  0.35912712  0.67770586  0.35947366  1
  O  O35  1  0.35784471  0.67853944  0.85788721  1
  O  O36  1  0.35586479  0.25700046  0.23697300  1
  O  O37  1  0.36053961  0.25300543  0.73727391  1
  O  O38  1  0.40006231  0.92465451  0.93466462  1
  O  O39  1  0.39958140  0.92229596  0.43701896  1
  O  O40  1  0.43011243  0.90562433  0.09083107  1
  O  O41  1  0.42765965  0.90442412  0.58904763  1
  O  O42  1  0.42341252  0.65180250  0.19608806  1
  O  O43  1  0.41610170  0.65109870  0.69737410  1
  O  O44  1  0.42616044  0.33465915  0.04585930  1
  O  O45  1  0.42638196  0.33448379  0.54684472  1
  O  O46  1  0.45169821  0.06852745  0.18280843  1
  O  O47  1  0.45007914  0.06663884  0.68120629  1
  O  O48  1  0.54964539  0.93445832  0.31874210  1
  O  O49  1  0.55182104  0.93590041  0.81617867  1
  O  O50  1  0.57367758  0.66640111  0.45430812  1
  O  O51  1  0.57220326  0.66689758  0.95325579  1
  O  O52  1  0.58007276  0.35134107  0.30195465  1
  O  O53  1  0.58376546  0.34898870  0.80207571  1
  O  O54  1  0.57344508  0.09646113  0.41116217  1
  O  O55  1  0.57414310  0.09709359  0.91002459  1
  O  O56  1  0.60084945  0.07895053  0.06368192  1
  O  O57  1  0.60012181  0.07893274  0.56285840  1
  O  O58  1  0.64080225  0.74865849  0.26256629  1
  O  O59  1  0.63757530  0.74848001  0.76213939  1
  O  O60  1  0.63850324  0.32421575  0.14214680  1
  O  O61  1  0.64121860  0.32304556  0.64191801  1
  O  O62  1  0.63180515  0.48505098  0.05326886  1
  O  O63  1  0.63346333  0.48466769  0.55458548  1
  O  O64  1  0.64849660  0.69638513  0.62085585  1
  O  O65  1  0.65558204  0.69825867  0.12034265  1
  O  O66  1  0.67488089  0.94091716  0.16290458  1
  O  O67  1  0.67117948  0.93779755  0.66054251  1
  O  O68  1  0.67788894  0.55573375  0.22840964  1
  O  O69  1  0.67150692  0.55467910  0.72963939  1
  O  O70  1  0.69743270  0.30070633  0.49710116  1
  O  O71  1  0.69875560  0.30047389  0.99791928  1
  O  O72  1  0.80296041  0.19956623  0.24749654  1
  O  O73  1  0.80288035  0.19888503  0.74756291  1
  O  O74  1  0.82743765  0.94544069  0.47977885  1
  O  O75  1  0.82229201  0.94365281  0.97890190  1
  O  O76  1  0.82387639  0.55983892  0.41233687  1
  O  O77  1  0.82793487  0.56141824  0.91152883  1
  O  O78  1  0.85081613  0.80329410  0.37131691  1
  O  O79  1  0.84540310  0.80191246  0.87006946  1
  O  O80  1  0.86041414  0.75084370  0.01196847  1
  O  O81  1  0.86127688  0.75156457  0.51271745  1
  O  O82  1  0.86738442  0.01507328  0.30384586  1
  O  O83  1  0.86820049  0.01487929  0.80405096  1
  O  O84  1  0.86184677  0.17640941  0.39183288  1
  O  O85  1  0.86098057  0.17613791  0.89215313  1
  O  O86  1  0.89839053  0.42105335  0.31363051  1
  O  O87  1  0.89870615  0.42150878  0.81281943  1
  O  O88  1  0.92686568  0.83230005  0.20442805  1
  O  O89  1  0.92540123  0.83504551  0.70335142  1
  O  O90  1  0.92568529  0.40220221  0.16024641  1
  O  O91  1  0.92869584  0.40405634  0.66084281  1
  O  O92  1  0.91951762  0.14796566  0.05148967  1
  O  O93  1  0.91693902  0.15142564  0.55251516  1
  O  O94  1  0.95051364  0.56636479  0.56869311  1
  O  O95  1  0.94937265  0.56323969  0.06635146  1
loop_
_geom_bond_atom_site_label_1
_geom_bond_atom_site_label_2
_geom_bond_distance
_geom_bond_site_symmetry_2
Li0 O95 1.974779 1_455
Li0 O11 1.981845 1_555
Li0 O24 2.086017 1_555
Li0 O80 2.091553 1_455
Li1 O94 1.979284 1_455
Li1 O10 1.996055 1_555
Li1 O25 2.013975 1_555
Li1 O81 2.103059 1_455
Li1 O2 2.511257 1_555
Li2 O23 1.985692 1_555
Li2 O3 2.050934 1_555
Li2 O5 2.056086 1_555
Li2 O79 2.103329 1_455
Li3 O22 1.996720 1_555
Li3 O4 2.023338 1_555
Li3 O2 2.047540 1_555
Li3 O78 2.083990 1_455
Li4 O28 1.954997 1_555
Li4 O30 2.003476 1_555
Li4 O6 2.022492 1_555
Li4 O14 2.022535 1_555
Li5 O29 1.954352 1_555
Li5 O31 1.997643 1_555
Li5 O7 1.997945 1_555
Li5 O15 2.001672 1_555
Li6 O18 1.954848 1_555
Li6 O36 1.998245 1_555
Li6 O16 1.998837 1_555
Li6 O44 2.009331 1_555
Li7 O19 1.959368 1_555
Li7 O17 1.999284 1_555
Li7 O45 2.005072 1_555
Li7 O37 2.028356 1_555
Li8 O24 2.015492 1_555
Li8 O40 2.027127 1_555
Li8 O42 2.040591 1_555
Li8 O65 2.098662 1_555
Li9 O25 1.972581 1_555
Li9 O41 2.055719 1_555
Li9 O43 2.056157 1_555
Li9 O64 2.093897 1_555
Li10 O48 1.970077 1_555
Li10 O34 1.978427 1_555
Li10 O22 2.083429 1_555
Li10 O58 2.105490 1_555
Li11 O49 1.996019 1_555
Li11 O35 2.001517 1_555
Li11 O23 2.028590 1_555
Li11 O59 2.093805 1_555
Li11 O43 2.506688 1_555
Li12 O46 1.971275 1_555
Li12 O60 1.989331 1_555
Li12 O72 2.031463 1_555
Li12 O36 2.142936 1_555
Li12 O52 2.488140 1_555
Li13 O47 1.982741 1_555
Li13 O61 1.993228 1_555
Li13 O73 2.025856 1_555
Li13 O37 2.116445 1_555
Li13 O53 2.502723 1_555
Li14 O70 1.989359 1_555
Li14 O54 2.065904 1_555
Li14 O52 2.067413 1_555
Li14 O30 2.110124 1_555
Li15 O71 1.990276 1_555
Li15 O55 2.046804 1_555
Li15 O53 2.057799 1_555
Li15 O31 2.106694 1_555
Li16 O76 1.961072 1_555
Li16 O78 2.005047 1_555
Li16 O50 2.018351 1_555
Li16 O58 2.043608 1_555
Li17 O77 1.974745 1_555
Li17 O79 1.981785 1_555
Li17 O51 2.021830 1_555
Li17 O59 2.034701 1_555
Li18 O66 1.974329 1_555
Li18 O65 1.987616 1_555
Li18 O88 2.026480 1_555
Li18 O80 2.052492 1_555
Li19 O67 1.959154 1_555
Li19 O64 2.003076 1_555
Li19 O89 2.019111 1_555
Li19 O81 2.027156 1_555
Li20 O72 1.991539 1_555
Li20 O90 2.050011 1_555
Li20 O92 2.070845 1_555
Li20 O16 2.112375 1_655
Li21 O73 1.984484 1_555
Li21 O91 2.053755 1_555
Li21 O93 2.054208 1_555
Li21 O17 2.096832 1_655
Li22 O0 1.969623 1_655
Li22 O84 1.996970 1_555
Li22 O70 2.019259 1_555
Li22 O14 2.110290 1_655
Li22 O93 2.501742 1_555
Li23 O1 1.972530 1_655
Li23 O85 1.984358 1_555
Li23 O71 2.024150 1_555
Li23 O15 2.149087 1_655
Li23 O92 2.497121 1_556
Mn0 O9 1.930067 1_555
Mn0 O5 1.956806 1_555
Mn0 O43 1.992635 1_555
Mn0 O35 2.041228 1_555
Mn0 O26 2.054357 1_555
Mn0 O23 2.532205 1_555
Mn1 O39 1.933993 1_555
Mn1 O41 1.952412 1_555
Mn1 O2 1.995415 1_555
Mn1 O10 2.035112 1_555
Mn1 O21 2.059945 1_565
Mn1 O25 2.518801 1_555
Mn2 O12 1.899520 1_545
Mn2 O46 2.001067 1_555
Mn2 O36 2.022814 1_555
Mn2 O6 2.035179 1_555
Mn2 O28 2.126503 1_555
Mn2 O16 2.233917 1_555
Mn3 O13 1.884453 1_545
Mn3 O37 1.987450 1_555
Mn3 O47 2.011915 1_555
Mn3 O7 2.050135 1_555
Mn3 O29 2.126870 1_555
Mn3 O17 2.222518 1_555
Mn4 O32 1.881922 1_555
Mn4 O14 1.985984 1_555
Mn4 O0 2.017570 1_555
Mn4 O45 2.066608 1_555
Mn4 O19 2.128305 1_555
Mn4 O30 2.219214 1_555
Mn5 O33 1.898120 1_555
Mn5 O1 2.015291 1_555
Mn5 O15 2.015990 1_555
Mn5 O44 2.047837 1_556
Mn5 O18 2.109480 1_556
Mn5 O31 2.218058 1_555
Mn6 O62 1.882479 1_555
Mn6 O80 1.972810 1_555
Mn6 O95 2.012769 1_555
Mn6 O51 2.066716 1_554
Mn6 O77 2.131190 1_554
Mn6 O65 2.212165 1_555
Mn7 O63 1.884140 1_555
Mn7 O81 1.984047 1_555
Mn7 O94 2.020064 1_555
Mn7 O50 2.051100 1_555
Mn7 O76 2.115500 1_555
Mn7 O64 2.229840 1_555
Mn8 O82 1.881380 1_565
Mn8 O58 1.972991 1_555
Mn8 O48 2.022341 1_555
Mn8 O88 2.055824 1_555
Mn8 O66 2.120915 1_555
Mn8 O78 2.231112 1_555
Mn9 O83 1.888335 1_565
Mn9 O59 1.989250 1_555
Mn9 O49 1.996102 1_555
Mn9 O89 2.038197 1_555
Mn9 O67 2.135733 1_555
Mn9 O79 2.225117 1_555
Mn10 O57 1.934476 1_555
Mn10 O54 1.947394 1_555
Mn10 O93 1.991104 1_555
Mn10 O84 2.041232 1_555
Mn10 O74 2.060652 1_545
Mn10 O70 2.530014 1_555
Mn11 O56 1.936771 1_556
Mn11 O55 1.952477 1_555
Mn11 O92 1.990296 1_556
Mn11 O85 2.039556 1_555
Mn11 O75 2.055905 1_545
Mn11 O71 2.537694 1_555
Mn12 O86 1.931456 1_555
Mn12 O90 1.950968 1_555
Mn12 O52 1.992002 1_555
Mn12 O60 2.043074 1_555
Mn12 O68 2.053026 1_555
Mn12 O72 2.534234 1_555
Mn13 O87 1.933084 1_555
Mn13 O91 1.950670 1_555
Mn13 O53 1.992223 1_555
Mn13 O61 2.031403 1_555
Mn13 O69 2.059680 1_555
Mn13 O73 2.544834 1_555
O0 P22 1.556234 1_455
O1 P23 1.558439 1_455
O2 P18 1.574094 1_455
O3 P19 1.564132 1_455
O3 V1 2.006497 1_556
O4 P22 1.554944 1_455
O4 V0 2.008777 1_555
O5 P23 1.566984 1_455
O6 P20 1.561467 1_455
O7 P21 1.558795 1_455
O8 P0 1.536203 1_555
O8 V0 1.937991 1_555
O9 P1 1.543573 1_555
O10 P3 1.576139 1_555
O11 P2 1.567297 1_555
O11 V1 2.078945 1_555
O12 P2 1.536752 1_555
O13 P3 1.542016 1_555
O14 P5 1.581497 1_555
O15 P4 1.584790 1_556
O16 P4 1.542469 1_555
O17 P5 1.543546 1_555
O18 P0 1.531682 1_555
O19 P1 1.530684 1_555
O20 P4 1.514727 1_555
O20 V1 2.049619 1_545
O21 P5 1.510837 1_555
O22 P2 1.563941 1_555
O22 V0 2.283908 1_555
O23 P3 1.542737 1_555
O24 P8 1.563254 1_554
O24 V1 2.287430 1_555
O25 P9 1.543995 1_555
O26 P7 1.509544 1_555
O27 P6 1.514713 1_555
O27 V0 2.051802 1_555
O28 P10 1.530195 1_555
O29 P11 1.531039 1_555
O30 P6 1.544459 1_555
O31 P7 1.544053 1_555
O32 P9 1.544305 1_555
O33 P8 1.536668 1_555
O34 P9 1.571047 1_555
O34 V0 2.071698 1_555
O35 P8 1.572711 1_555
O36 P6 1.582920 1_555
O37 P7 1.581443 1_555
O38 P11 1.537706 1_565
O38 V1 1.935538 1_556
O39 P10 1.542152 1_565
O40 P12 1.554808 1_555
O40 V1 2.015201 1_555
O41 P13 1.566707 1_555
O42 P16 1.563538 1_555
O42 V0 2.011137 1_555
O43 P17 1.574569 1_555
O44 P14 1.560133 1_555
O45 P15 1.556202 1_555
O46 P12 1.563567 1_545
O47 P13 1.554943 1_545
O48 P10 1.553552 1_565
O49 P11 1.551950 1_565
O50 P9 1.557487 1_555
O51 P8 1.552986 1_555
O52 P6 1.576355 1_555
O53 P7 1.572787 1_555
O54 P10 1.566358 1_555
O55 P11 1.563812 1_555
O56 P12 1.547068 1_545
O57 P13 1.542212 1_545
O58 P16 1.584314 1_555
O59 P17 1.580198 1_555
O60 P14 1.575673 1_555
O61 P15 1.580503 1_555
O62 P14 1.543010 1_555
O63 P15 1.542497 1_555
O64 P17 1.542333 1_555
O65 P16 1.542682 1_555
O66 P12 1.533817 1_555
O67 P13 1.530018 1_555
O68 P16 1.510838 1_555
O69 P17 1.512088 1_555
O70 P15 1.542922 1_555
O71 P14 1.543116 1_556
O72 P20 1.542873 1_555
O73 P21 1.542223 1_555
O74 P18 1.510456 1_555
O75 P19 1.512810 1_555
O76 P22 1.533055 1_555
O77 P23 1.532044 1_555
O78 P18 1.543596 1_555
O79 P19 1.539845 1_555
O80 P19 1.583561 1_554
O81 P18 1.582335 1_555
O82 P20 1.540964 1_555
O83 P21 1.542395 1_555
O84 P20 1.576301 1_555
O85 P21 1.578675 1_555
O86 P22 1.548692 1_555
O87 P23 1.540805 1_555
O88 P2 1.553876 1_655
O89 P3 1.559540 1_655
O90 P0 1.563527 1_655
O91 P1 1.566678 1_655
O92 P4 1.575311 1_655
O93 P5 1.574178 1_655
O94 P1 1.551774 1_655
O95 P0 1.551566 1_655
