# generated using pymatgen
data_W3(SeS2)2
_symmetry_space_group_name_H-M   'P 1'
_cell_length_a   3.22530369
_cell_length_b   3.22525429
_cell_length_c   28.50950404
_cell_angle_alpha   90.00261877
_cell_angle_beta   89.99900997
_cell_angle_gamma   120.00147447
_symmetry_Int_Tables_number   1
_chemical_formula_structural   W3(SeS2)2
_chemical_formula_sum   'W3 Se2 S4'
_cell_volume   256.83157552
_cell_formula_units_Z   1
loop_
 _symmetry_equiv_pos_site_id
 _symmetry_equiv_pos_as_xyz
  1  'x, y, z'
loop_
 _atom_site_type_symbol
 _atom_site_label
 _atom_site_symmetry_multiplicity
 _atom_site_fract_x
 _atom_site_fract_y
 _atom_site_fract_z
 _atom_site_occupancy
  W  W0  1  -0.00000286  0.00000250  0.11685963  1
  W  W1  1  -0.00010343  0.00001387  0.57882249  1
  W  W2  1  0.33332881  0.66667288  0.34529874  1
  Se  Se0  1  0.33333480  0.66658941  0.51928500  1
  Se  Se1  1  0.33344150  0.66671333  0.63827240  1
  S  S0  1  -0.00001287  0.00002326  0.39952593  1
  S  S1  1  0.33334639  0.66665095  0.06263696  1
  S  S2  1  0.33331702  0.66668703  0.17107899  1
  S  S3  1  0.00001563  -0.00001822  0.29105886  1
loop_
_geom_bond_atom_site_label_1
_geom_bond_atom_site_label_2
_geom_bond_distance
_geom_bond_site_symmetry_2
Se0 W1 2.519406 1_665
Se0 W1 2.519475 1_555
Se0 W1 2.520010 1_565
Se1 W1 2.517520 1_665
Se1 W1 2.517942 1_555
Se1 W1 2.518384 1_565
S0 W2 2.420204 1_445
S0 W2 2.420222 1_555
S0 W2 2.420262 1_545
S1 W0 2.420105 1_665
S1 W0 2.420137 1_555
S1 W0 2.420198 1_565
S2 W0 2.420052 1_555
S2 W0 2.420084 1_565
S2 W0 2.420123 1_665
S3 W2 2.420429 1_545
S3 W2 2.420440 1_555
S3 W2 2.420512 1_445
