# generated using pymatgen
data_MgP6H24(N2O11)2
_symmetry_space_group_name_H-M   'P 1'
_cell_length_a   14.95351200
_cell_length_b   8.70498600
_cell_length_c   8.98164631
_cell_angle_alpha   85.69904941
_cell_angle_beta   90.00000000
_cell_angle_gamma   90.00000000
_symmetry_Int_Tables_number   1
_chemical_formula_structural   MgP6H24(N2O11)2
_chemical_formula_sum   'Mg2 P12 H48 N8 O44'
_cell_volume   1165.84947859
_cell_formula_units_Z   2
loop_
 _symmetry_equiv_pos_site_id
 _symmetry_equiv_pos_as_xyz
  1  'x, y, z'
loop_
 _atom_site_type_symbol
 _atom_site_label
 _atom_site_symmetry_multiplicity
 _atom_site_fract_x
 _atom_site_fract_y
 _atom_site_fract_z
 _atom_site_occupancy
  Mg  Mg0  1  0.00000000  0.00000000  0.00000000  1
  Mg  Mg1  1  0.50000000  0.00000000  0.50000000  1
  P  P0  1  0.33851600  0.85250100  0.30359500  1
  P  P1  1  0.83851600  0.14749900  0.19640500  1
  P  P2  1  0.66148400  0.14749900  0.69640500  1
  P  P3  1  0.16148400  0.85250100  0.80359500  1
  P  P4  1  0.33835500  0.52290700  0.25286700  1
  P  P5  1  0.83835500  0.47709300  0.24713300  1
  P  P6  1  0.66164500  0.47709300  0.74713300  1
  P  P7  1  0.16164500  0.52290700  0.75286700  1
  P  P8  1  0.45290100  0.74028000  0.06760700  1
  P  P9  1  0.95290100  0.25972000  0.43239300  1
  P  P10  1  0.54709900  0.25972000  0.93239300  1
  P  P11  1  0.04709900  0.74028000  0.56760700  1
  H  H0  1  0.42900600  0.26613400  0.36160400  1
  H  H1  1  0.92900600  0.73386600  0.13839600  1
  H  H2  1  0.57099400  0.73386600  0.63839600  1
  H  H3  1  0.07099400  0.26613400  0.86160400  1
  H  H4  1  0.48354900  0.17762500  0.24275500  1
  H  H5  1  0.98354900  0.82237500  0.25724500  1
  H  H6  1  0.51645100  0.82237500  0.75724500  1
  H  H7  1  0.01645100  0.17762500  0.74275500  1
  H  H8  1  0.13645800  0.00997500  0.20060400  1
  H  H9  1  0.63645800  0.99002500  0.29939600  1
  H  H10  1  0.86354200  0.99002500  0.79939600  1
  H  H11  1  0.36354200  0.00997500  0.70060400  1
  H  H12  1  0.07033900  0.14814600  0.22643400  1
  H  H13  1  0.57033900  0.85185400  0.27356600  1
  H  H14  1  0.92966100  0.85185400  0.77356600  1
  H  H15  1  0.42966100  0.14814600  0.72643400  1
  H  H16  1  0.15801400  0.51242100  0.18311700  1
  H  H17  1  0.65801400  0.48757900  0.31688300  1
  H  H18  1  0.84198600  0.48757900  0.81688300  1
  H  H19  1  0.34198600  0.51242100  0.68311700  1
  H  H20  1  0.10088800  0.65277900  0.07997200  1
  H  H21  1  0.60088800  0.34722100  0.42002800  1
  H  H22  1  0.89911200  0.34722100  0.92002800  1
  H  H23  1  0.39911200  0.65277900  0.57997200  1
  H  H24  1  0.09269200  0.64275400  0.26787400  1
  H  H25  1  0.59269200  0.35724600  0.23212600  1
  H  H26  1  0.90730800  0.35724600  0.73212600  1
  H  H27  1  0.40730800  0.64275400  0.76787400  1
  H  H28  1  0.04388600  0.50947500  0.16936700  1
  H  H29  1  0.54388600  0.49052500  0.33063300  1
  H  H30  1  0.95611400  0.49052500  0.83063300  1
  H  H31  1  0.45611400  0.50947500  0.66936700  1
  H  H32  1  0.23659700  0.27749000  0.54080100  1
  H  H33  1  0.73659700  0.72251000  0.95919900  1
  H  H34  1  0.76340300  0.72251000  0.45919900  1
  H  H35  1  0.26340300  0.27749000  0.04080100  1
  H  H36  1  0.24410000  0.12502000  0.42700600  1
  H  H37  1  0.74410000  0.87498000  0.07299400  1
  H  H38  1  0.75590000  0.87498000  0.57299400  1
  H  H39  1  0.25590000  0.12502000  0.92700600  1
  H  H40  1  0.14429700  0.20784900  0.46114300  1
  H  H41  1  0.64429700  0.79215100  0.03885700  1
  H  H42  1  0.85570300  0.79215100  0.53885700  1
  H  H43  1  0.35570300  0.20784900  0.96114300  1
  H  H44  1  0.20111700  0.10274300  0.60008800  1
  H  H45  1  0.70111700  0.89725700  0.89991200  1
  H  H46  1  0.79888300  0.89725700  0.39991200  1
  H  H47  1  0.29888300  0.10274300  0.10008800  1
  N  N0  1  0.09937500  0.57851500  0.17530200  1
  N  N1  1  0.59937500  0.42148500  0.32469800  1
  N  N2  1  0.90062500  0.42148500  0.82469800  1
  N  N3  1  0.40062500  0.57851500  0.67530200  1
  N  N4  1  0.20692200  0.17856300  0.50630400  1
  N  N5  1  0.70692200  0.82143700  0.99369600  1
  N  N6  1  0.79307800  0.82143700  0.49369600  1
  N  N7  1  0.29307800  0.17856300  0.00630400  1
  O  O0  1  0.29296000  0.68309900  0.30094700  1
  O  O1  1  0.79296000  0.31690100  0.19905300  1
  O  O2  1  0.70704000  0.31690100  0.69905300  1
  O  O3  1  0.20704000  0.68309900  0.80094700  1
  O  O4  1  0.39085000  0.86718200  0.14337900  1
  O  O5  1  0.89085000  0.13281800  0.35662100  1
  O  O6  1  0.60915000  0.13281800  0.85662100  1
  O  O7  1  0.10915000  0.86718200  0.64337900  1
  O  O8  1  0.26640100  0.97262500  0.29133100  1
  O  O9  1  0.76640100  0.02737500  0.20866900  1
  O  O10  1  0.73359900  0.02737500  0.70866900  1
  O  O11  1  0.23359900  0.97262500  0.79133100  1
  O  O12  1  0.40386400  0.84443200  0.43119300  1
  O  O13  1  0.90386400  0.15556800  0.06880700  1
  O  O14  1  0.59613600  0.15556800  0.56880700  1
  O  O15  1  0.09613600  0.84443200  0.93119300  1
  O  O16  1  0.39676600  0.58317200  0.10621500  1
  O  O17  1  0.89676600  0.41682800  0.39378500  1
  O  O18  1  0.60323400  0.41682800  0.89378500  1
  O  O19  1  0.10323400  0.58317200  0.60621500  1
  O  O20  1  0.26325200  0.42604900  0.20111000  1
  O  O21  1  0.76325200  0.57395100  0.29889000  1
  O  O22  1  0.73674800  0.57395100  0.79889000  1
  O  O23  1  0.23674800  0.42604900  0.70111000  1
  O  O24  1  0.40104600  0.45843200  0.37212100  1
  O  O25  1  0.90104600  0.54156800  0.12787900  1
  O  O26  1  0.59895400  0.54156800  0.62787900  1
  O  O27  1  0.09895400  0.45843200  0.87212100  1
  O  O28  1  0.04270100  0.26731500  0.35573000  1
  O  O29  1  0.54270100  0.73268500  0.14427000  1
  O  O30  1  0.95729900  0.73268500  0.64427000  1
  O  O31  1  0.45729900  0.26731500  0.85573000  1
  O  O32  1  0.05043000  0.77229800  0.40185000  1
  O  O33  1  0.55043000  0.22770200  0.09815000  1
  O  O34  1  0.94957000  0.22770200  0.59815000  1
  O  O35  1  0.44957000  0.77229800  0.90185000  1
  O  O36  1  0.45146500  0.16268600  0.33970500  1
  O  O37  1  0.95146500  0.83731400  0.16029500  1
  O  O38  1  0.54853500  0.83731400  0.66029500  1
  O  O39  1  0.04853500  0.16268600  0.83970500  1
  O  O40  1  0.09186300  0.07819800  0.15071900  1
  O  O41  1  0.59186300  0.92180200  0.34928100  1
  O  O42  1  0.90813700  0.92180200  0.84928100  1
  O  O43  1  0.40813700  0.07819800  0.65071900  1
loop_
_geom_bond_atom_site_label_1
_geom_bond_atom_site_label_2
_geom_bond_distance
_geom_bond_site_symmetry_2
Mg0 O37 2.073466 1_445
Mg0 O39 2.073466 1_554
Mg0 O40 2.078721 1_555
Mg0 O42 2.078721 1_444
Mg0 O13 2.099516 1_455
Mg0 O15 2.099516 1_544
Mg1 O36 2.073466 1_555
Mg1 O38 2.073466 1_545
Mg1 O41 2.078721 1_545
Mg1 O43 2.078721 1_555
Mg1 O14 2.099516 1_555
Mg1 O12 2.099516 1_545
H0 O36 0.994468 1_555
H1 O37 0.994468 1_555
H2 O38 0.994468 1_555
H3 O39 0.994468 1_555
H4 O36 0.994156 1_555
H4 O33 1.670980 1_555
H5 O37 0.994156 1_555
H5 O32 1.670980 1_655
H6 O38 0.994156 1_555
H6 O35 1.670980 1_555
H7 O39 0.994156 1_555
H7 O34 1.670980 1_455
H8 O40 0.978889 1_555
H9 O41 0.978889 1_555
H10 O42 0.978889 1_555
H11 O43 0.978889 1_555
H12 O40 0.999459 1_555
H12 O28 1.666198 1_555
H13 O41 0.999459 1_555
H13 O29 1.666198 1_555
H14 O42 0.999459 1_555
H14 O30 1.666198 1_555
H15 O43 0.999459 1_555
H15 O31 1.666198 1_555
H16 N0 1.048225 1_555
H17 N1 1.048225 1_555
H18 N2 1.048225 1_555
H19 N3 1.048225 1_555
H20 N0 1.033694 1_555
H21 N1 1.033694 1_555
H22 N2 1.033694 1_555
H23 N3 1.033694 1_555
H24 N0 1.041026 1_555
H25 N1 1.041026 1_555
H26 N2 1.041026 1_555
H27 N3 1.041026 1_555
H28 N0 1.028267 1_555
H29 N1 1.028267 1_555
H30 N2 1.028267 1_555
H31 N3 1.028267 1_555
H32 N4 1.036593 1_555
H33 N5 1.036593 1_555
H34 N6 1.036593 1_555
H35 N7 1.036593 1_555
H36 N4 1.040851 1_555
H37 N5 1.040851 1_554
H38 N6 1.040851 1_555
H39 N7 1.040851 1_556
H40 N4 1.044497 1_555
H41 N5 1.044497 1_554
H42 N6 1.044497 1_555
H43 N7 1.044497 1_556
H44 N4 1.034065 1_555
H45 N5 1.034065 1_555
H46 N6 1.034065 1_555
H47 N7 1.034065 1_555
O0 P0 1.626179 1_555
O0 P4 1.637724 1_555
O1 P1 1.626179 1_555
O1 P5 1.637724 1_555
O2 P2 1.626179 1_555
O2 P6 1.637724 1_555
O3 P3 1.626179 1_555
O3 P7 1.637724 1_555
O4 P8 1.630092 1_555
O4 P0 1.634597 1_555
O5 P9 1.630092 1_555
O5 P1 1.634597 1_555
O6 P10 1.630092 1_555
O6 P2 1.634597 1_555
O7 P11 1.630092 1_555
O7 P3 1.634597 1_555
O8 P0 1.500395 1_555
O9 P1 1.500395 1_555
O10 P2 1.500395 1_555
O11 P3 1.500395 1_555
O12 P0 1.503713 1_555
O13 P1 1.503713 1_555
O14 P2 1.503713 1_555
O15 P3 1.503713 1_555
O16 P8 1.619915 1_555
O16 P4 1.633841 1_555
O17 P9 1.619915 1_555
O17 P5 1.633841 1_555
O18 P10 1.619915 1_555
O18 P6 1.633841 1_555
O19 P11 1.619915 1_555
O19 P7 1.633841 1_555
O20 P4 1.499011 1_555
O21 P5 1.499011 1_555
O22 P6 1.499011 1_555
O23 P7 1.499011 1_555
O24 P4 1.500300 1_555
O25 P5 1.500300 1_555
O26 P6 1.500300 1_555
O27 P7 1.500300 1_555
O28 P9 1.508257 1_455
O29 P8 1.508257 1_555
O30 P11 1.508257 1_655
O31 P10 1.508257 1_555
O32 P11 1.494779 1_555
O33 P10 1.494779 1_554
O34 P9 1.494779 1_555
O35 P8 1.494779 1_556
