# generated using pymatgen
data_NbSI
_symmetry_space_group_name_H-M   'P 1'
_cell_length_a   7.66364592
_cell_length_b   7.66364592
_cell_length_c   7.66364592
_cell_angle_alpha   60.00000000
_cell_angle_beta   60.00000000
_cell_angle_gamma   60.00000000
_symmetry_Int_Tables_number   1
_chemical_formula_structural   NbSI
_chemical_formula_sum   'Nb4 S4 I4'
_cell_volume   318.26676922
_cell_formula_units_Z   4
loop_
 _symmetry_equiv_pos_site_id
 _symmetry_equiv_pos_as_xyz
  1  'x, y, z'
loop_
 _atom_site_type_symbol
 _atom_site_label
 _atom_site_symmetry_multiplicity
 _atom_site_fract_x
 _atom_site_fract_y
 _atom_site_fract_z
 _atom_site_occupancy
  Nb  Nb0  1  0.34718700  0.34718700  0.34718700  1
  Nb  Nb1  1  0.34718700  0.34718700  0.95843900  1
  Nb  Nb2  1  0.34718700  0.95843900  0.34718700  1
  Nb  Nb3  1  0.95843900  0.34718700  0.34718700  1
  S  S0  1  0.12588100  0.12588100  0.12588100  1
  S  S1  1  0.12588100  0.12588100  0.62235700  1
  S  S2  1  0.12588100  0.62235700  0.12588100  1
  S  S3  1  0.62235700  0.12588100  0.12588100  1
  I  I0  1  0.62381400  0.62381400  0.62381400  1
  I  I1  1  0.62381400  0.62381400  0.12855700  1
  I  I2  1  0.62381400  0.12855700  0.62381400  1
  I  I3  1  0.12855700  0.62381400  0.62381400  1
loop_
_geom_bond_atom_site_label_1
_geom_bond_atom_site_label_2
_geom_bond_distance
_geom_bond_site_symmetry_2
Nb0 S2 2.433784 1_555
Nb0 S3 2.433784 1_555
Nb0 S1 2.433784 1_555
Nb1 S0 2.433784 1_556
Nb1 S2 2.433784 1_556
Nb1 S3 2.433784 1_556
Nb2 S0 2.433784 1_565
Nb2 S3 2.433784 1_565
Nb2 S1 2.433784 1_565
Nb3 S0 2.433784 1_655
Nb3 S2 2.433784 1_655
Nb3 S1 2.433784 1_655
I0 Nb3 3.030861 1_555
I0 Nb1 3.030861 1_555
I0 Nb2 3.030861 1_555
I1 Nb0 3.030860 1_555
I1 Nb3 3.030865 1_555
I1 Nb2 3.030865 1_555
I2 Nb0 3.030860 1_555
I2 Nb1 3.030865 1_555
I2 Nb3 3.030865 1_555
I3 Nb0 3.030860 1_555
I3 Nb1 3.030865 1_555
I3 Nb2 3.030865 1_555
