# generated using pymatgen
data_Na4TiP2O9
_symmetry_space_group_name_H-M   'P 1'
_cell_length_a   8.66428106
_cell_length_b   8.66428106
_cell_length_c   7.61464600
_cell_angle_alpha   90.00000000
_cell_angle_beta   90.00000000
_cell_angle_gamma   131.75532573
_symmetry_Int_Tables_number   1
_chemical_formula_structural   Na4TiP2O9
_chemical_formula_sum   'Na8 Ti2 P4 O18'
_cell_volume   426.43316727
_cell_formula_units_Z   2
loop_
 _symmetry_equiv_pos_site_id
 _symmetry_equiv_pos_as_xyz
  1  'x, y, z'
loop_
 _atom_site_type_symbol
 _atom_site_label
 _atom_site_symmetry_multiplicity
 _atom_site_fract_x
 _atom_site_fract_y
 _atom_site_fract_z
 _atom_site_occupancy
  Na  Na0  1  0.00000000  0.50000000  0.00000000  1
  Na  Na1  1  0.50000000  0.00000000  0.00000000  1
  Na  Na2  1  0.25000000  0.25000000  0.50000000  1
  Na  Na3  1  0.75000000  0.75000000  0.50000000  1
  Na  Na4  1  0.88649400  0.11350600  0.23585200  1
  Na  Na5  1  0.11350600  0.88649400  0.76414800  1
  Na  Na6  1  0.38649400  0.61350600  0.76414800  1
  Na  Na7  1  0.61350600  0.38649400  0.23585200  1
  Ti  Ti0  1  0.00000000  0.50000000  0.50000000  1
  Ti  Ti1  1  0.50000000  0.00000000  0.50000000  1
  P  P0  1  0.38027800  0.61972200  0.24088400  1
  P  P1  1  0.61972200  0.38027800  0.75911600  1
  P  P2  1  0.88027800  0.11972200  0.75911600  1
  P  P3  1  0.11972200  0.88027800  0.24088400  1
  O  O0  1  0.35535300  0.64464700  0.04704800  1
  O  O1  1  0.64464700  0.35535300  0.95295200  1
  O  O2  1  0.85535300  0.14464700  0.95295200  1
  O  O3  1  0.14464700  0.85535300  0.04704800  1
  O  O4  1  0.84278200  0.52374600  0.67345800  1
  O  O5  1  0.52374600  0.84278200  0.32654200  1
  O  O6  1  0.97625400  0.65721800  0.32654200  1
  O  O7  1  0.65721800  0.97625400  0.67345800  1
  O  O8  1  0.15721800  0.47625400  0.32654200  1
  O  O9  1  0.47625400  0.15721800  0.67345800  1
  O  O10  1  0.02374600  0.34278200  0.67345800  1
  O  O11  1  0.34278200  0.02374600  0.32654200  1
  O  O12  1  0.47414000  0.52586000  0.29024700  1
  O  O13  1  0.52586000  0.47414000  0.70975300  1
  O  O14  1  0.97414000  0.02586000  0.70975300  1
  O  O15  1  0.02586000  0.97414000  0.29024700  1
  O  O16  1  0.25000000  0.75000000  0.59250300  1
  O  O17  1  0.75000000  0.25000000  0.40749700  1
loop_
_geom_bond_atom_site_label_1
_geom_bond_atom_site_label_2
_geom_bond_distance
_geom_bond_site_symmetry_2
Na0 O1 2.457472 1_454
Na0 O0 2.457472 1_555
Na0 O2 2.457472 1_454
Na0 O3 2.457472 1_555
Na0 O8 2.907548 1_555
Na0 O6 2.907548 1_455
Na0 O4 2.907548 1_454
Na0 O10 2.907548 1_554
Na1 O1 2.457472 1_554
Na1 O2 2.457472 1_554
Na1 O3 2.457472 1_545
Na1 O0 2.457472 1_545
Na1 O5 2.907548 1_545
Na1 O9 2.907548 1_554
Na1 O11 2.907548 1_555
Na1 O7 2.907548 1_544
Na2 O14 2.419281 1_455
Na2 O13 2.419281 1_555
Na2 O12 2.419281 1_555
Na2 O15 2.419281 1_545
Na2 O10 2.886628 1_555
Na2 O8 2.886628 1_555
Na2 O11 2.886628 1_555
Na2 O9 2.886628 1_555
Na3 O13 2.419281 1_555
Na3 O14 2.419281 1_565
Na3 O12 2.419281 1_555
Na3 O15 2.419281 1_655
Na3 O4 2.886628 1_555
Na3 O5 2.886628 1_555
Na3 O6 2.886628 1_555
Na3 O7 2.886628 1_555
Na4 O2 2.209766 1_554
Na4 O15 2.242702 1_645
Na4 O5 2.457226 1_545
Na4 O8 2.457226 1_655
Na4 O17 2.523544 1_555
Na5 O3 2.209766 1_556
Na5 O14 2.242702 1_465
Na5 O4 2.457226 1_455
Na5 O9 2.457226 1_565
Na5 O16 2.523544 1_555
Na6 O0 2.209766 1_556
Na6 O13 2.242702 1_555
Na6 O7 2.457226 1_555
Na6 O10 2.457226 1_555
Na6 O16 2.523544 1_555
Na7 O1 2.209766 1_554
Na7 O12 2.242702 1_555
Na7 O11 2.457226 1_555
Na7 O6 2.457226 1_555
Na7 O17 2.523544 1_555
O0 P0 1.527726 1_555
O1 P1 1.527726 1_555
O2 P2 1.527726 1_555
O3 P3 1.527726 1_555
O4 P1 1.583042 1_555
O4 Ti0 2.003924 1_655
O5 P0 1.583042 1_555
O5 Ti1 2.003924 1_565
O6 P3 1.583042 1_655
O6 Ti0 2.003924 1_655
O7 P2 1.583042 1_565
O7 Ti1 2.003924 1_565
O8 P0 1.583042 1_555
O8 Ti0 2.003924 1_555
O9 P1 1.583042 1_555
O9 Ti1 2.003924 1_555
O10 P2 1.583042 1_455
O10 Ti0 2.003924 1_555
O11 P3 1.583042 1_545
O11 Ti1 2.003924 1_555
O12 P0 1.531309 1_555
O13 P1 1.531309 1_555
O14 P2 1.531309 1_555
O15 P3 1.531309 1_555
O16 Ti1 1.905458 1_565
O16 Ti0 1.905458 1_555
O17 Ti0 1.905458 1_655
O17 Ti1 1.905458 1_555
