# generated using pymatgen
data_Al3Bi(BO3)4
_symmetry_space_group_name_H-M   'P 1'
_cell_length_a   5.96973543
_cell_length_b   5.96973543
_cell_length_c   5.96973603
_cell_angle_alpha   104.27298733
_cell_angle_beta   104.27298733
_cell_angle_gamma   104.27298789
_symmetry_Int_Tables_number   1
_chemical_formula_structural   Al3Bi(BO3)4
_chemical_formula_sum   'Al3 Bi1 B4 O12'
_cell_volume   188.81658714
_cell_formula_units_Z   1
loop_
 _symmetry_equiv_pos_site_id
 _symmetry_equiv_pos_as_xyz
  1  'x, y, z'
loop_
 _atom_site_type_symbol
 _atom_site_label
 _atom_site_symmetry_multiplicity
 _atom_site_fract_x
 _atom_site_fract_y
 _atom_site_fract_z
 _atom_site_occupancy
  Al  Al0  1  0.05590900  0.94409100  0.50000000  1
  Al  Al1  1  0.94409100  0.50000000  0.05590900  1
  Al  Al2  1  0.50000000  0.05590900  0.94409100  1
  Bi  Bi0  1  0.50000000  0.50000000  0.50000000  1
  B  B0  1  0.44347900  0.55652100  0.00000000  1
  B  B1  1  0.55652100  0.00000000  0.44347900  1
  B  B2  1  0.00000000  0.44347900  0.55652100  1
  B  B3  1  0.00000000  0.00000000  0.00000000  1
  O  O0  1  0.59110900  0.40889100  0.00000000  1
  O  O1  1  0.40889100  0.00000000  0.59110900  1
  O  O2  1  0.00000000  0.59110900  0.40889100  1
  O  O3  1  0.27543100  0.52924200  0.12145200  1
  O  O4  1  0.52924200  0.12145200  0.27543100  1
  O  O5  1  0.72456900  0.87854800  0.47075800  1
  O  O6  1  0.12145200  0.27543100  0.52924200  1
  O  O7  1  0.47075800  0.72456900  0.87854800  1
  O  O8  1  0.87854800  0.47075800  0.72456900  1
  O  O9  1  0.85162400  0.14837600  0.00000000  1
  O  O10  1  0.14837600  0.00000000  0.85162400  1
  O  O11  1  0.00000000  0.85162400  0.14837600  1
loop_
_geom_bond_atom_site_label_1
_geom_bond_atom_site_label_2
_geom_bond_distance
_geom_bond_site_symmetry_2
Al0 O5 1.873644 1_455
Al0 O6 1.873644 1_565
Al0 O10 1.953124 1_565
Al0 O11 1.953124 1_555
Al0 O2 1.961154 1_555
Al0 O1 1.961154 1_565
Al1 O3 1.873644 1_655
Al1 O8 1.873644 1_554
Al1 O9 1.953124 1_555
Al1 O11 1.953124 1_655
Al1 O0 1.961154 1_555
Al1 O2 1.961154 1_655
Al2 O7 1.873644 1_545
Al2 O4 1.873644 1_556
Al2 O9 1.953124 1_556
Al2 O10 1.953124 1_555
Al2 O0 1.961154 1_556
Al2 O1 1.961154 1_555
Bi0 O5 2.398051 1_555
Bi0 O6 2.398051 1_555
Bi0 O8 2.398051 1_555
Bi0 O4 2.398051 1_555
Bi0 O7 2.398051 1_555
Bi0 O3 2.398051 1_555
B0 O3 1.376563 1_555
B0 O7 1.376563 1_554
B0 O0 1.391548 1_555
B1 O5 1.376563 1_545
B1 O4 1.376563 1_555
B1 O1 1.391548 1_555
B2 O6 1.376563 1_555
B2 O8 1.376563 1_455
B2 O2 1.391548 1_555
B3 O9 1.398580 1_455
B3 O11 1.398580 1_545
B3 O10 1.398580 1_554
