# generated using pymatgen
data_HgPt4
_symmetry_space_group_name_H-M   'P 1'
_cell_length_a   5.81141365
_cell_length_b   5.81141365
_cell_length_c   23.05404416
_cell_angle_alpha   82.75924396
_cell_angle_beta   90.00000000
_cell_angle_gamma   120.00000000
_symmetry_Int_Tables_number   1
_chemical_formula_structural   HgPt4
_chemical_formula_sum   'Hg8 Pt32'
_cell_volume   667.10240836
_cell_formula_units_Z   8
loop_
 _symmetry_equiv_pos_site_id
 _symmetry_equiv_pos_as_xyz
  1  'x, y, z'
loop_
 _atom_site_type_symbol
 _atom_site_label
 _atom_site_symmetry_multiplicity
 _atom_site_fract_x
 _atom_site_fract_y
 _atom_site_fract_z
 _atom_site_occupancy
  Hg  Hg0_0  1  0.00000000  0.00000000  0.00000000  1
  Hg  Hg0_1  1  0.00000000  1.00000000  0.50000000  1
  Hg  Hg0_2  1  0.00000000  0.50000000  0.00000000  1
  Hg  Hg0_3  1  0.00000000  0.50000000  0.50000000  1
  Hg  Hg0_4  1  0.50000000  0.00000000  0.00000000  1
  Hg  Hg0_5  1  0.50000000  1.00000000  0.50000000  1
  Hg  Hg0_6  1  0.50000000  0.50000000  0.00000000  1
  Hg  Hg0_7  1  0.50000000  0.50000000  0.50000000  1
  Pt  Pt0_0  1  0.29847800  0.09695600  0.10456600  1
  Pt  Pt0_1  1  0.29847800  0.09695600  0.60456600  1
  Pt  Pt0_2  1  0.29847800  0.59695600  0.10456600  1
  Pt  Pt0_3  1  0.29847800  0.59695600  0.60456600  1
  Pt  Pt0_4  1  0.79847800  0.09695600  0.10456600  1
  Pt  Pt0_5  1  0.79847800  0.09695600  0.60456600  1
  Pt  Pt0_6  1  0.79847800  0.59695600  0.10456600  1
  Pt  Pt0_7  1  0.79847800  0.59695600  0.60456600  1
  Pt  Pt1_0  1  0.09933800  0.19867600  0.20198600  1
  Pt  Pt1_1  1  0.09933800  0.19867600  0.70198600  1
  Pt  Pt1_2  1  0.09933800  0.69867600  0.20198600  1
  Pt  Pt1_3  1  0.09933800  0.69867600  0.70198600  1
  Pt  Pt1_4  1  0.59933800  0.19867600  0.20198600  1
  Pt  Pt1_5  1  0.59933800  0.19867600  0.70198600  1
  Pt  Pt1_6  1  0.59933800  0.69867600  0.20198600  1
  Pt  Pt1_7  1  0.59933800  0.69867600  0.70198600  1
  Pt  Pt2_0  1  0.40066200  0.30132400  0.29801400  1
  Pt  Pt2_1  1  0.40066200  0.30132400  0.79801400  1
  Pt  Pt2_2  1  0.40066200  0.80132400  0.29801400  1
  Pt  Pt2_3  1  0.40066200  0.80132400  0.79801400  1
  Pt  Pt2_4  1  0.90066200  0.30132400  0.29801400  1
  Pt  Pt2_5  1  0.90066200  0.30132400  0.79801400  1
  Pt  Pt2_6  1  0.90066200  0.80132400  0.29801400  1
  Pt  Pt2_7  1  0.90066200  0.80132400  0.79801400  1
  Pt  Pt3_0  1  0.20152200  0.40304400  0.39543400  1
  Pt  Pt3_1  1  0.20152200  0.40304400  0.89543400  1
  Pt  Pt3_2  1  0.20152200  0.90304400  0.39543400  1
  Pt  Pt3_3  1  0.20152200  0.90304400  0.89543400  1
  Pt  Pt3_4  1  0.70152200  0.40304400  0.39543400  1
  Pt  Pt3_5  1  0.70152200  0.40304400  0.89543400  1
  Pt  Pt3_6  1  0.70152200  0.90304400  0.39543400  1
  Pt  Pt3_7  1  0.70152200  0.90304400  0.89543400  1
loop_
_geom_bond_atom_site_label_1
_geom_bond_atom_site_label_2
_geom_bond_distance
_geom_bond_site_symmetry_2
Hg0_0 Hg0_6 2.905707 1_555
Hg0_0 Hg0_4 2.905707 1_455
Hg0_0 Hg0_6 2.905707 1_445
Hg0_0 Hg0_2 2.905707 1_555
Hg0_0 Hg0_4 2.905707 1_555
Hg0_0 Hg0_2 2.905707 1_545
Hg0_0 Pt0_0 2.915924 1_555
Hg0_0 Pt0_4 2.915924 1_455
Hg0_0 Pt0_6 2.915924 1_445
Hg0_0 Pt3_3 2.915924 1_544
Hg0_0 Pt3_1 2.915924 1_554
Hg0_0 Pt3_7 2.915924 1_444
Hg0_1 Hg0_5 2.905707 1_555
Hg0_1 Hg0_3 2.905707 1_555
Hg0_1 Hg0_7 2.905707 1_455
Hg0_1 Hg0_7 2.905707 1_565
Hg0_1 Hg0_3 2.905707 1_565
Hg0_1 Hg0_5 2.905707 1_455
Hg0_1 Pt0_1 2.915924 1_565
Hg0_1 Pt0_7 2.915924 1_455
Hg0_1 Pt0_5 2.915924 1_465
Hg0_1 Pt3_0 2.915924 1_565
Hg0_1 Pt3_2 2.915924 1_555
Hg0_1 Pt3_6 2.915924 1_455
Hg0_2 Hg0_6 2.905707 1_555
Hg0_2 Hg0_4 2.905707 1_455
Hg0_2 Hg0_6 2.905707 1_455
Hg0_2 Hg0_4 2.905707 1_565
Hg0_2 Pt0_2 2.915924 1_555
Hg0_2 Pt0_6 2.915924 1_455
Hg0_2 Pt0_4 2.915924 1_455
Hg0_2 Pt3_3 2.915924 1_554
Hg0_2 Pt3_1 2.915924 1_554
Hg0_2 Pt3_5 2.915924 1_454
Hg0_3 Hg0_7 2.905707 1_555
Hg0_3 Hg0_5 2.905707 1_555
Hg0_3 Hg0_7 2.905707 1_455
Hg0_3 Hg0_5 2.905707 1_445
Hg0_3 Pt0_3 2.915924 1_555
Hg0_3 Pt0_5 2.915924 1_455
Hg0_3 Pt0_7 2.915924 1_455
Hg0_3 Pt3_0 2.915924 1_555
Hg0_3 Pt3_2 2.915924 1_555
Hg0_3 Pt3_4 2.915924 1_455
Hg0_4 Hg0_6 2.905707 1_555
Hg0_4 Hg0_6 2.905707 1_545
Hg0_4 Pt0_4 2.915924 1_555
Hg0_4 Pt0_0 2.915924 1_555
Hg0_4 Pt0_2 2.915924 1_545
Hg0_4 Pt3_7 2.915924 1_544
Hg0_4 Pt3_3 2.915924 1_544
Hg0_4 Pt3_5 2.915924 1_554
Hg0_5 Hg0_7 2.905707 1_555
Hg0_5 Hg0_7 2.905707 1_565
Hg0_5 Pt0_5 2.915924 1_565
Hg0_5 Pt0_3 2.915924 1_555
Hg0_5 Pt0_1 2.915924 1_565
Hg0_5 Pt3_4 2.915924 1_565
Hg0_5 Pt3_6 2.915924 1_555
Hg0_5 Pt3_2 2.915924 1_555
Hg0_6 Pt0_6 2.915924 1_555
Hg0_6 Pt0_2 2.915924 1_555
Hg0_6 Pt0_0 2.915924 1_555
Hg0_6 Pt3_7 2.915924 1_554
Hg0_6 Pt3_5 2.915924 1_554
Hg0_6 Pt3_1 2.915924 1_554
Hg0_7 Pt0_7 2.915924 1_555
Hg0_7 Pt0_3 2.915924 1_555
Hg0_7 Pt0_1 2.915924 1_555
Hg0_7 Pt3_6 2.915924 1_555
Hg0_7 Pt3_4 2.915924 1_555
Hg0_7 Pt3_0 2.915924 1_555
Pt0_0 Pt1_2 2.784190 1_545
Pt0_0 Pt1_0 2.784190 1_555
Pt0_0 Pt1_4 2.784190 1_555
Pt0_0 Pt0_2 2.905707 1_555
Pt0_0 Pt0_6 2.905707 1_555
Pt0_0 Pt0_4 2.905707 1_455
Pt0_0 Pt0_2 2.905707 1_545
Pt0_0 Pt0_6 2.905707 1_445
Pt0_0 Pt0_4 2.905707 1_555
Pt0_1 Pt1_3 2.784190 1_545
Pt0_1 Pt1_1 2.784190 1_555
Pt0_1 Pt1_5 2.784190 1_555
Pt0_1 Pt0_7 2.905707 1_445
Pt0_1 Pt0_3 2.905707 1_545
Pt0_1 Pt0_5 2.905707 1_455
Pt0_1 Pt0_5 2.905707 1_555
Pt0_1 Pt0_7 2.905707 1_555
Pt0_1 Pt0_3 2.905707 1_555
Pt0_2 Pt1_0 2.784190 1_555
Pt0_2 Pt1_2 2.784190 1_555
Pt0_2 Pt1_6 2.784190 1_555
Pt0_2 Pt0_4 2.905707 1_565
Pt0_2 Pt0_6 2.905707 1_555
Pt0_2 Pt0_4 2.905707 1_455
Pt0_2 Pt0_6 2.905707 1_455
Pt0_3 Pt1_1 2.784190 1_555
Pt0_3 Pt1_3 2.784190 1_555
Pt0_3 Pt1_7 2.784190 1_555
Pt0_3 Pt0_7 2.905707 1_455
Pt0_3 Pt0_5 2.905707 1_455
Pt0_3 Pt0_5 2.905707 1_565
Pt0_3 Pt0_7 2.905707 1_555
Pt0_4 Pt1_4 2.784190 1_555
Pt0_4 Pt1_6 2.784190 1_545
Pt0_4 Pt1_0 2.784190 1_655
Pt0_4 Pt0_6 2.905707 1_545
Pt0_4 Pt0_6 2.905707 1_555
Pt0_5 Pt1_7 2.784190 1_545
Pt0_5 Pt1_5 2.784190 1_555
Pt0_5 Pt1_1 2.784190 1_655
Pt0_5 Pt0_7 2.905707 1_555
Pt0_5 Pt0_7 2.905707 1_545
Pt0_6 Pt1_4 2.784190 1_555
Pt0_6 Pt1_6 2.784190 1_555
Pt0_6 Pt1_2 2.784190 1_655
Pt0_7 Pt1_5 2.784190 1_555
Pt0_7 Pt1_7 2.784190 1_555
Pt0_7 Pt1_3 2.784190 1_655
Pt1_0 Pt2_0 2.758918 1_555
Pt1_0 Pt2_6 2.758918 1_445
Pt1_0 Pt2_4 2.758918 1_455
Pt1_0 Pt1_6 2.905707 1_445
Pt1_0 Pt1_4 2.905707 1_455
Pt1_0 Pt1_2 2.905707 1_545
Pt1_0 Pt1_4 2.905707 1_555
Pt1_0 Pt1_2 2.905707 1_555
Pt1_0 Pt1_6 2.905707 1_555
Pt1_1 Pt2_1 2.758918 1_555
Pt1_1 Pt2_5 2.758918 1_455
Pt1_1 Pt2_7 2.758918 1_445
Pt1_1 Pt1_5 2.905707 1_455
Pt1_1 Pt1_7 2.905707 1_445
Pt1_1 Pt1_3 2.905707 1_545
Pt1_1 Pt1_3 2.905707 1_555
Pt1_1 Pt1_5 2.905707 1_555
Pt1_1 Pt1_7 2.905707 1_555
Pt1_2 Pt2_2 2.758918 1_555
Pt1_2 Pt2_4 2.758918 1_455
Pt1_2 Pt2_6 2.758918 1_455
Pt1_2 Pt1_4 2.905707 1_565
Pt1_2 Pt1_4 2.905707 1_455
Pt1_2 Pt1_6 2.905707 1_555
Pt1_2 Pt1_6 2.905707 1_455
Pt1_3 Pt2_3 2.758918 1_555
Pt1_3 Pt2_5 2.758918 1_455
Pt1_3 Pt2_7 2.758918 1_455
Pt1_3 Pt1_5 2.905707 1_565
Pt1_3 Pt1_7 2.905707 1_455
Pt1_3 Pt1_5 2.905707 1_455
Pt1_3 Pt1_7 2.905707 1_555
Pt1_4 Pt2_4 2.758918 1_555
Pt1_4 Pt2_2 2.758918 1_545
Pt1_4 Pt2_0 2.758918 1_555
Pt1_4 Pt1_6 2.905707 1_545
Pt1_4 Pt1_6 2.905707 1_555
Pt1_5 Pt2_1 2.758918 1_555
Pt1_5 Pt2_5 2.758918 1_555
Pt1_5 Pt2_3 2.758918 1_545
Pt1_5 Pt1_7 2.905707 1_545
Pt1_5 Pt1_7 2.905707 1_555
Pt1_6 Pt2_6 2.758918 1_555
Pt1_6 Pt2_0 2.758918 1_555
Pt1_6 Pt2_2 2.758918 1_555
Pt1_7 Pt2_7 2.758918 1_555
Pt1_7 Pt2_1 2.758918 1_555
Pt1_7 Pt2_3 2.758918 1_555
Pt2_0 Pt3_0 2.784190 1_555
Pt2_0 Pt3_4 2.784190 1_555
Pt2_0 Pt3_2 2.784190 1_545
Pt2_0 Pt2_2 2.905707 1_545
Pt2_0 Pt2_6 2.905707 1_445
Pt2_0 Pt2_4 2.905707 1_555
Pt2_0 Pt2_4 2.905707 1_455
Pt2_0 Pt2_6 2.905707 1_555
Pt2_0 Pt2_2 2.905707 1_555
Pt2_1 Pt3_1 2.784190 1_555
Pt2_1 Pt3_5 2.784190 1_555
Pt2_1 Pt3_3 2.784190 1_545
Pt2_1 Pt2_7 2.905707 1_445
Pt2_1 Pt2_5 2.905707 1_455
Pt2_1 Pt2_5 2.905707 1_555
Pt2_1 Pt2_3 2.905707 1_555
Pt2_1 Pt2_7 2.905707 1_555
Pt2_1 Pt2_3 2.905707 1_545
Pt2_2 Pt3_2 2.784190 1_555
Pt2_2 Pt3_6 2.784190 1_555
Pt2_2 Pt3_0 2.784190 1_555
Pt2_2 Pt2_4 2.905707 1_565
Pt2_2 Pt2_6 2.905707 1_555
Pt2_2 Pt2_6 2.905707 1_455
Pt2_2 Pt2_4 2.905707 1_455
Pt2_3 Pt3_3 2.784190 1_555
Pt2_3 Pt3_1 2.784190 1_555
Pt2_3 Pt3_7 2.784190 1_555
Pt2_3 Pt2_7 2.905707 1_555
Pt2_3 Pt2_5 2.905707 1_565
Pt2_3 Pt2_5 2.905707 1_455
Pt2_3 Pt2_7 2.905707 1_455
Pt2_4 Pt3_4 2.784190 1_555
Pt2_4 Pt3_0 2.784190 1_655
Pt2_4 Pt3_6 2.784190 1_545
Pt2_4 Pt2_6 2.905707 1_545
Pt2_4 Pt2_6 2.905707 1_555
Pt2_5 Pt3_5 2.784190 1_555
Pt2_5 Pt3_1 2.784190 1_655
Pt2_5 Pt3_7 2.784190 1_545
Pt2_5 Pt2_7 2.905707 1_545
Pt2_5 Pt2_7 2.905707 1_555
Pt2_6 Pt3_6 2.784190 1_555
Pt2_6 Pt3_2 2.784190 1_655
Pt2_6 Pt3_4 2.784190 1_555
Pt2_7 Pt3_7 2.784190 1_555
Pt2_7 Pt3_5 2.784190 1_555
Pt2_7 Pt3_3 2.784190 1_655
Pt3_0 Pt3_6 2.905707 1_555
Pt3_0 Pt3_2 2.905707 1_555
Pt3_0 Pt3_4 2.905707 1_555
Pt3_0 Pt3_4 2.905707 1_455
Pt3_0 Pt3_6 2.905707 1_445
Pt3_0 Pt3_2 2.905707 1_545
Pt3_1 Pt3_3 2.905707 1_545
Pt3_1 Pt3_7 2.905707 1_445
Pt3_1 Pt3_5 2.905707 1_455
Pt3_1 Pt3_5 2.905707 1_555
Pt3_1 Pt3_3 2.905707 1_555
Pt3_1 Pt3_7 2.905707 1_555
Pt3_2 Pt3_4 2.905707 1_455
Pt3_2 Pt3_6 2.905707 1_555
Pt3_2 Pt3_4 2.905707 1_565
Pt3_2 Pt3_6 2.905707 1_455
Pt3_3 Pt3_5 2.905707 1_565
Pt3_3 Pt3_7 2.905707 1_455
Pt3_3 Pt3_5 2.905707 1_455
Pt3_3 Pt3_7 2.905707 1_555
Pt3_4 Pt3_6 2.905707 1_555
Pt3_4 Pt3_6 2.905707 1_545
Pt3_5 Pt3_7 2.905707 1_545
Pt3_5 Pt3_7 2.905707 1_555
