# generated using pymatgen
data_LaPb8N7O33
_symmetry_space_group_name_H-M   'P 1'
_cell_length_a   16.00817625
_cell_length_b   16.00817625
_cell_length_c   9.72173628
_cell_angle_alpha   82.26849314
_cell_angle_beta   82.26849314
_cell_angle_gamma   135.08842145
_symmetry_Int_Tables_number   1
_chemical_formula_structural   LaPb8N7O33
_chemical_formula_sum   'La2 Pb16 N14 O66'
_cell_volume   1646.19667659
_cell_formula_units_Z   2
loop_
 _symmetry_equiv_pos_site_id
 _symmetry_equiv_pos_as_xyz
  1  'x, y, z'
loop_
 _atom_site_type_symbol
 _atom_site_label
 _atom_site_symmetry_multiplicity
 _atom_site_fract_x
 _atom_site_fract_y
 _atom_site_fract_z
 _atom_site_occupancy
  La  La0  1  0.92321300  0.17426000  0.81358800  1
  La  La1  1  0.17426000  0.92321300  0.31358800  1
  Pb  Pb0  1  0.21845300  0.49606300  0.47414900  1
  Pb  Pb1  1  0.49606300  0.21845300  0.97414900  1
  Pb  Pb2  1  0.61594800  0.89328000  0.74455400  1
  Pb  Pb3  1  0.89328000  0.61594800  0.24455400  1
  Pb  Pb4  1  0.81774100  0.85524300  0.84885100  1
  Pb  Pb5  1  0.85524300  0.81774100  0.34885100  1
  Pb  Pb6  1  0.61428700  0.83598600  0.14151500  1
  Pb  Pb7  1  0.83598600  0.61428700  0.64151500  1
  Pb  Pb8  1  0.21980000  0.45370400  0.84896700  1
  Pb  Pb9  1  0.45370400  0.21980000  0.34896700  1
  Pb  Pb10  1  0.00672800  0.47389700  0.78385400  1
  Pb  Pb11  1  0.47389700  0.00672800  0.28385400  1
  Pb  Pb12  1  0.22025200  0.26313800  0.57437300  1
  Pb  Pb13  1  0.26313800  0.22025200  0.07437300  1
  Pb  Pb14  1  0.91086900  0.28991000  0.16374100  1
  Pb  Pb15  1  0.28991000  0.91086900  0.66374100  1
  N  N0  1  0.68232900  0.61509900  0.12450400  1
  N  N1  1  0.61509900  0.68232900  0.62450400  1
  N  N2  1  0.99806000  0.11599800  0.32610300  1
  N  N3  1  0.11599800  0.99806000  0.82610300  1
  N  N4  1  0.01844600  0.48567600  0.37262700  1
  N  N5  1  0.48567600  0.01844600  0.87262700  1
  N  N6  1  0.71399600  0.00121200  0.37029400  1
  N  N7  1  0.00121200  0.71399600  0.87029400  1
  N  N8  1  0.45986600  0.35874900  0.68653400  1
  N  N9  1  0.35874900  0.45986600  0.18653400  1
  N  N10  1  0.73124800  0.34135600  0.59514600  1
  N  N11  1  0.34135600  0.73124800  0.09514600  1
  N  N12  1  0.36290700  0.75872000  0.61432600  1
  N  N13  1  0.75872000  0.36290700  0.11432600  1
  O  O0  1  0.82111900  0.96621100  0.99239800  1
  O  O1  1  0.96621100  0.82111900  0.49239800  1
  O  O2  1  0.09122400  0.47315400  0.96960800  1
  O  O3  1  0.47315400  0.09122400  0.46960800  1
  O  O4  1  0.62964800  0.78719000  0.92847200  1
  O  O5  1  0.78719000  0.62964800  0.42847200  1
  O  O6  1  0.01716200  0.27103000  0.00804900  1
  O  O7  1  0.27103000  0.01716200  0.50804900  1
  O  O8  1  0.71787700  0.03249200  0.23679400  1
  O  O9  1  0.03249200  0.71787700  0.73679400  1
  O  O10  1  0.87538800  0.26938200  0.93842800  1
  O  O11  1  0.26938200  0.87538800  0.43842800  1
  O  O12  1  0.29107500  0.43904700  0.62267400  1
  O  O13  1  0.43904700  0.29107500  0.12267400  1
  O  O14  1  0.68443700  0.98405700  0.92990400  1
  O  O15  1  0.98405700  0.68443700  0.42990400  1
  O  O16  1  0.81658100  0.99143800  0.72130800  1
  O  O17  1  0.99143800  0.81658100  0.22130800  1
  O  O18  1  0.82017400  0.19610200  0.66443300  1
  O  O19  1  0.19610200  0.82017400  0.16443300  1
  O  O20  1  0.09446500  0.28660500  0.55436500  1
  O  O21  1  0.28660500  0.09446500  0.05436500  1
  O  O22  1  0.11072500  0.22296000  0.79608000  1
  O  O23  1  0.22296000  0.11072500  0.29608000  1
  O  O24  1  0.95532000  0.48076500  0.30259700  1
  O  O25  1  0.48076500  0.95532000  0.80259700  1
  O  O26  1  0.03388300  0.41691500  0.36163700  1
  O  O27  1  0.41691500  0.03388300  0.86163700  1
  O  O28  1  0.65019600  0.59365200  0.01222900  1
  O  O29  1  0.59365200  0.65019600  0.51222900  1
  O  O30  1  0.66039600  0.53570900  0.22116800  1
  O  O31  1  0.53570900  0.66039600  0.72116800  1
  O  O32  1  0.73983700  0.72193100  0.13922900  1
  O  O33  1  0.72193100  0.73983700  0.63922900  1
  O  O34  1  0.99570600  0.06207100  0.43646300  1
  O  O35  1  0.06207100  0.99570600  0.93646300  1
  O  O36  1  0.01056500  0.09760300  0.20453900  1
  O  O37  1  0.09760300  0.01056500  0.70453900  1
  O  O38  1  0.98765100  0.18572600  0.33436200  1
  O  O39  1  0.18572600  0.98765100  0.83436200  1
  O  O40  1  0.69215300  0.90834100  0.41651200  1
  O  O41  1  0.90834100  0.69215300  0.91651200  1
  O  O42  1  0.73273400  0.06626300  0.44799000  1
  O  O43  1  0.06626300  0.73273400  0.94799000  1
  O  O44  1  0.06741100  0.55361500  0.45191200  1
  O  O45  1  0.55361500  0.06741100  0.95191200  1
  O  O46  1  0.10194900  0.42276800  0.70837900  1
  O  O47  1  0.42276800  0.10194900  0.20837900  1
  O  O48  1  0.49359500  0.39039600  0.54934500  1
  O  O49  1  0.39039600  0.49359500  0.04934500  1
  O  O50  1  0.53577200  0.39905400  0.75692200  1
  O  O51  1  0.39905400  0.53577200  0.25692200  1
  O  O52  1  0.34275100  0.28196000  0.76012400  1
  O  O53  1  0.28196000  0.34275100  0.26012400  1
  O  O54  1  0.70517300  0.24846500  0.58325100  1
  O  O55  1  0.24846500  0.70517300  0.08325100  1
  O  O56  1  0.70045000  0.38094800  0.51941000  1
  O  O57  1  0.38094800  0.70045000  0.01941000  1
  O  O58  1  0.78744700  0.39543200  0.68420000  1
  O  O59  1  0.39543200  0.78744700  0.18420000  1
  O  O60  1  0.45621800  0.87236700  0.53765700  1
  O  O61  1  0.87236700  0.45621800  0.03765700  1
  O  O62  1  0.37559300  0.68882100  0.63923500  1
  O  O63  1  0.68882100  0.37559300  0.13923500  1
  O  O64  1  0.25653100  0.71459000  0.66763200  1
  O  O65  1  0.71459000  0.25653100  0.16763200  1
loop_
_geom_bond_atom_site_label_1
_geom_bond_atom_site_label_2
_geom_bond_distance
_geom_bond_site_symmetry_2
La0 O22 2.481807 1_655
La0 O18 2.503925 1_555
La0 O10 2.505248 1_555
La0 O16 2.515238 1_545
La0 O6 2.547289 1_656
La0 O14 2.566350 1_545
La0 O0 2.598699 1_545
La0 O20 2.653142 1_655
La0 O46 2.655998 1_655
La1 O23 2.481807 1_565
La1 O19 2.503925 1_555
La1 O11 2.505248 1_555
La1 O17 2.515238 1_455
La1 O7 2.547289 1_565
La1 O15 2.566350 1_455
La1 O1 2.598699 1_455
La1 O21 2.653142 1_565
La1 O47 2.655998 1_565
N0 O28 1.255236 1_555
N0 O30 1.256745 1_555
N0 O32 1.289998 1_555
N1 O29 1.255236 1_555
N1 O31 1.256745 1_555
N1 O33 1.289998 1_555
N2 O38 1.250644 1_555
N2 O34 1.261584 1_555
N2 O36 1.279431 1_655
N3 O39 1.250644 1_555
N3 O35 1.261584 1_555
N3 O37 1.279431 1_565
N4 O44 1.253795 1_555
N4 O24 1.256125 1_455
N4 O26 1.301508 1_555
N5 O45 1.253795 1_555
N5 O25 1.256125 1_545
N5 O27 1.301508 1_555
N6 O42 1.255025 1_555
N6 O40 1.255429 1_545
N6 O8 1.303226 1_555
N7 O43 1.255025 1_555
N7 O41 1.255429 1_455
N7 O9 1.303226 1_555
N8 O48 1.250596 1_555
N8 O50 1.262189 1_555
N8 O52 1.294615 1_555
N9 O49 1.250596 1_555
N9 O51 1.262189 1_555
N9 O53 1.294615 1_555
N10 O54 1.256551 1_555
N10 O56 1.265535 1_555
N10 O58 1.271382 1_555
N11 O55 1.256551 1_555
N11 O57 1.265535 1_555
N11 O59 1.271382 1_555
N12 O60 1.258206 1_555
N12 O62 1.270483 1_555
N12 O64 1.275769 1_555
N13 O61 1.258206 1_555
N13 O63 1.270483 1_555
N13 O65 1.275769 1_555
O0 Pb6 2.351406 1_556
O0 Pb4 2.378498 1_555
O1 Pb7 2.351406 1_555
O1 Pb5 2.378498 1_555
O2 Pb14 2.356065 1_456
O2 Pb10 2.401056 1_555
O2 Pb8 2.462805 1_555
O3 Pb15 2.356065 1_545
O3 Pb11 2.401056 1_555
O3 Pb9 2.462805 1_555
O4 Pb4 2.313473 1_555
O4 Pb6 2.351728 1_556
O4 Pb2 2.438304 1_555
O5 Pb5 2.313473 1_555
O5 Pb7 2.351728 1_555
O5 Pb3 2.438304 1_555
O6 Pb14 2.331555 1_455
O6 Pb8 2.337379 1_554
O7 Pb15 2.331555 1_545
O7 Pb9 2.337379 1_555
O8 Pb6 2.704079 1_545
O8 Pb14 2.760459 1_555
O9 Pb7 2.704079 1_455
O9 Pb15 2.760459 1_555
O10 Pb10 2.339604 1_655
O10 Pb14 2.343641 1_556
O11 Pb11 2.339604 1_565
O11 Pb15 2.343641 1_555
O12 Pb12 2.326512 1_555
O12 Pb0 2.422695 1_555
O12 Pb8 2.457522 1_555
O13 Pb13 2.326512 1_555
O13 Pb1 2.422695 1_554
O13 Pb9 2.457522 1_555
O14 Pb6 2.325501 1_556
O14 Pb2 2.353753 1_555
O15 Pb7 2.325501 1_555
O15 Pb3 2.353753 1_555
O16 Pb2 2.323054 1_555
O16 Pb4 2.372210 1_555
O17 Pb3 2.323054 1_555
O17 Pb5 2.372210 1_555
O20 Pb0 2.290013 1_555
O20 Pb12 2.321804 1_555
O21 Pb1 2.290013 1_554
O21 Pb13 2.321804 1_555
O22 Pb12 2.268570 1_555
O23 Pb13 2.268570 1_555
O26 Pb0 2.733436 1_555
O26 Pb14 2.848476 1_455
O27 Pb1 2.733436 1_555
O27 Pb15 2.848476 1_545
O46 Pb0 2.253722 1_555
O46 Pb10 2.271478 1_555
O46 Pb8 2.285834 1_555
O47 Pb1 2.253722 1_554
O47 Pb11 2.271478 1_555
O47 Pb9 2.285834 1_555
O52 Pb12 2.731219 1_555
O53 Pb13 2.731219 1_555
O62 Pb8 2.795523 1_555
O63 Pb9 2.795523 1_555
O64 Pb15 2.782824 1_555
O65 Pb14 2.782824 1_555
