# generated using pymatgen
data_Gd4Si2Ni2Bi
_symmetry_space_group_name_H-M   'P 1'
_cell_length_a   4.21545242
_cell_length_b   11.33647470
_cell_length_c   16.84167213
_cell_angle_alpha   90.00000000
_cell_angle_beta   90.00000000
_cell_angle_gamma   90.00000000
_symmetry_Int_Tables_number   1
_chemical_formula_structural   Gd4Si2Ni2Bi
_chemical_formula_sum   'Gd16 Si8 Ni8 Bi4'
_cell_volume   804.83605426
_cell_formula_units_Z   4
loop_
 _symmetry_equiv_pos_site_id
 _symmetry_equiv_pos_as_xyz
  1  'x, y, z'
loop_
 _atom_site_type_symbol
 _atom_site_label
 _atom_site_symmetry_multiplicity
 _atom_site_fract_x
 _atom_site_fract_y
 _atom_site_fract_z
 _atom_site_occupancy
  Gd  Gd0  1  0.75000000  0.80305310  0.18829058  1
  Gd  Gd1  1  0.25000000  0.19694690  0.81170942  1
  Gd  Gd2  1  0.25000000  0.69694690  0.68829058  1
  Gd  Gd3  1  0.75000000  0.30305310  0.31170942  1
  Gd  Gd4  1  0.75000000  0.95332045  0.39697366  1
  Gd  Gd5  1  0.25000000  0.04667955  0.60302634  1
  Gd  Gd6  1  0.25000000  0.54667955  0.89697366  1
  Gd  Gd7  1  0.75000000  0.45332045  0.10302634  1
  Gd  Gd8  1  0.75000000  0.94132189  0.77760617  1
  Gd  Gd9  1  0.25000000  0.05867811  0.22239383  1
  Gd  Gd10  1  0.25000000  0.55867811  0.27760617  1
  Gd  Gd11  1  0.75000000  0.44132189  0.72239383  1
  Gd  Gd12  1  0.75000000  0.81427791  0.96874829  1
  Gd  Gd13  1  0.25000000  0.18572209  0.03125171  1
  Gd  Gd14  1  0.25000000  0.68572209  0.46874829  1
  Gd  Gd15  1  0.75000000  0.31427791  0.53125171  1
  Si  Si0  1  0.75000000  0.68342116  0.81419698  1
  Si  Si1  1  0.25000000  0.31657884  0.18580302  1
  Si  Si2  1  0.25000000  0.81657884  0.31419698  1
  Si  Si3  1  0.75000000  0.18342116  0.68580302  1
  Si  Si4  1  0.75000000  0.52081661  0.40818830  1
  Si  Si5  1  0.25000000  0.47918339  0.59181170  1
  Si  Si6  1  0.25000000  0.97918339  0.90818830  1
  Si  Si7  1  0.75000000  0.02081661  0.09181170  1
  Ni  Ni0  1  0.75000000  0.56264368  0.56008134  1
  Ni  Ni1  1  0.25000000  0.43735632  0.43991866  1
  Ni  Ni2  1  0.25000000  0.93735632  0.06008134  1
  Ni  Ni3  1  0.75000000  0.06264368  0.93991866  1
  Ni  Ni4  1  0.75000000  0.71119359  0.34639685  1
  Ni  Ni5  1  0.25000000  0.28880641  0.65360315  1
  Ni  Ni6  1  0.25000000  0.78880641  0.84639685  1
  Ni  Ni7  1  0.75000000  0.21119359  0.15360315  1
  Bi  Bi0  1  0.75000000  0.83669992  0.57804956  1
  Bi  Bi1  1  0.25000000  0.16330008  0.42195044  1
  Bi  Bi2  1  0.25000000  0.66330008  0.07804956  1
  Bi  Bi3  1  0.75000000  0.33669992  0.92195044  1
loop_
_geom_bond_atom_site_label_1
_geom_bond_atom_site_label_2
_geom_bond_distance
_geom_bond_site_symmetry_2
Gd0 Ni4 2.859161 1_555
Gd0 Si7 2.955423 1_565
Gd0 Si2 2.993732 1_655
Gd0 Si2 2.993732 1_555
Gd0 Ni2 3.379791 1_655
Gd0 Ni2 3.379791 1_555
Gd1 Ni5 2.859161 1_555
Gd1 Si6 2.955423 1_545
Gd1 Si3 2.993732 1_555
Gd1 Si3 2.993732 1_455
Gd1 Ni3 3.379791 1_555
Gd1 Ni3 3.379791 1_455
Gd2 Ni6 2.859161 1_555
Gd2 Si5 2.955423 1_555
Gd2 Si0 2.993732 1_555
Gd2 Si0 2.993732 1_455
Gd2 Ni0 3.379791 1_555
Gd2 Ni0 3.379791 1_455
Gd3 Ni7 2.859161 1_555
Gd3 Si4 2.955423 1_555
Gd3 Si1 2.993732 1_555
Gd3 Si1 2.993732 1_655
Gd3 Ni1 3.379791 1_555
Gd3 Ni1 3.379791 1_655
Gd4 Ni4 2.873994 1_555
Gd4 Si2 2.964631 1_655
Gd4 Si2 2.964631 1_555
Gd5 Ni5 2.873994 1_555
Gd5 Si3 2.964631 1_555
Gd5 Si3 2.964631 1_455
Gd6 Ni6 2.873994 1_555
Gd6 Si0 2.964631 1_455
Gd6 Si0 2.964631 1_555
Gd7 Ni7 2.873994 1_555
Gd7 Si1 2.964631 1_655
Gd7 Si1 2.964631 1_555
Gd8 Ni6 2.962119 1_555
Gd8 Ni6 2.962119 1_655
Gd8 Si0 2.987926 1_555
Gd8 Ni3 3.060108 1_565
Gd8 Si6 3.076249 1_555
Gd8 Si6 3.076249 1_655
Gd8 Si3 3.150087 1_565
Gd9 Ni7 2.962119 1_555
Gd9 Ni7 2.962119 1_455
Gd9 Si1 2.987926 1_555
Gd9 Ni2 3.060108 1_545
Gd9 Si7 3.076249 1_555
Gd9 Si7 3.076249 1_455
Gd9 Si2 3.150087 1_545
Gd10 Ni4 2.962119 1_455
Gd10 Ni4 2.962119 1_555
Gd10 Si2 2.987926 1_555
Gd10 Ni1 3.060108 1_555
Gd10 Si4 3.076249 1_455
Gd10 Si4 3.076249 1_555
Gd10 Si1 3.150087 1_555
Gd11 Ni5 2.962119 1_655
Gd11 Ni5 2.962119 1_555
Gd11 Si3 2.987926 1_555
Gd11 Ni0 3.060108 1_555
Gd11 Si5 3.076249 1_555
Gd11 Si5 3.076249 1_655
Gd11 Si0 3.150087 1_555
Gd12 Ni3 2.857150 1_565
Gd12 Ni2 2.958947 1_556
Gd12 Ni2 2.958947 1_656
Gd12 Ni6 2.961752 1_555
Gd12 Ni6 2.961752 1_655
Gd12 Si0 2.995954 1_555
Gd12 Si6 2.996265 1_655
Gd12 Si6 2.996265 1_555
Gd12 Si7 3.126963 1_566
Gd13 Ni2 2.857150 1_545
Gd13 Ni3 2.958947 1_454
Gd13 Ni3 2.958947 1_554
Gd13 Ni7 2.961752 1_555
Gd13 Ni7 2.961752 1_455
Gd13 Si1 2.995954 1_555
Gd13 Si7 2.996265 1_455
Gd13 Si7 2.996265 1_555
Gd13 Si6 3.126963 1_544
Gd14 Ni1 2.857150 1_555
Gd14 Ni0 2.958947 1_555
Gd14 Ni0 2.958947 1_455
Gd14 Ni4 2.961752 1_555
Gd14 Ni4 2.961752 1_455
Gd14 Si2 2.995954 1_555
Gd14 Si4 2.996265 1_555
Gd14 Si4 2.996265 1_455
Gd14 Si5 3.126963 1_555
Gd15 Ni0 2.857150 1_555
Gd15 Ni1 2.958947 1_655
Gd15 Ni1 2.958947 1_555
Gd15 Ni5 2.961752 1_555
Gd15 Ni5 2.961752 1_655
Gd15 Si3 2.995954 1_555
Gd15 Si5 2.996265 1_555
Gd15 Si5 2.996265 1_655
Gd15 Si4 3.126963 1_555
Ni0 Si5 2.371345 1_555
Ni0 Si5 2.371345 1_655
Ni0 Si4 2.601708 1_555
Ni1 Si4 2.371345 1_555
Ni1 Si4 2.371345 1_455
Ni1 Si5 2.601708 1_555
Ni2 Si7 2.371345 1_565
Ni2 Si7 2.371345 1_465
Ni2 Si6 2.601708 1_554
Ni3 Si6 2.371345 1_545
Ni3 Si6 2.371345 1_645
Ni3 Si7 2.601708 1_556
Ni4 Si4 2.396005 1_555
Ni4 Si2 2.482720 1_655
Ni4 Si2 2.482720 1_555
Ni5 Si5 2.396005 1_555
Ni5 Si3 2.482720 1_455
Ni5 Si3 2.482720 1_555
Ni6 Si6 2.396005 1_555
Ni6 Si0 2.482720 1_455
Ni6 Si0 2.482720 1_555
Ni7 Si7 2.396005 1_555
Ni7 Si1 2.482720 1_555
Ni7 Si1 2.482720 1_655
Bi0 Ni0 3.121535 1_555
Bi0 Gd5 3.207164 1_565
Bi0 Gd5 3.207164 1_665
Bi0 Gd2 3.224851 1_555
Bi0 Gd2 3.224851 1_655
Bi0 Gd14 3.280326 1_655
Bi0 Gd14 3.280326 1_555
Bi0 Gd4 3.323860 1_555
Bi0 Gd8 3.564005 1_555
Bi1 Ni1 3.121535 1_555
Bi1 Gd4 3.207164 1_545
Bi1 Gd4 3.207164 1_445
Bi1 Gd3 3.224851 1_455
Bi1 Gd3 3.224851 1_555
Bi1 Gd15 3.280326 1_455
Bi1 Gd15 3.280326 1_555
Bi1 Gd5 3.323860 1_555
Bi1 Gd9 3.564005 1_555
Bi2 Ni2 3.121535 1_555
Bi2 Gd7 3.207164 1_455
Bi2 Gd7 3.207164 1_555
Bi2 Gd0 3.224851 1_455
Bi2 Gd0 3.224851 1_555
Bi2 Gd12 3.280326 1_454
Bi2 Gd12 3.280326 1_554
Bi2 Gd6 3.323860 1_554
Bi2 Gd10 3.564005 1_555
Bi3 Ni3 3.121535 1_555
Bi3 Gd6 3.207164 1_655
Bi3 Gd6 3.207164 1_555
Bi3 Gd1 3.224851 1_655
Bi3 Gd1 3.224851 1_555
Bi3 Gd13 3.280326 1_556
Bi3 Gd13 3.280326 1_656
Bi3 Gd7 3.323860 1_556
Bi3 Gd11 3.564005 1_555
