# generated using pymatgen
data_Sr2Pr2CrNiO8
_symmetry_space_group_name_H-M   'P 1'
_cell_length_a   6.86815371
_cell_length_b   6.86815371
_cell_length_c   5.46850900
_cell_angle_alpha   90.00000000
_cell_angle_beta   90.00000000
_cell_angle_gamma   133.37284614
_symmetry_Int_Tables_number   1
_chemical_formula_structural   Sr2Pr2CrNiO8
_chemical_formula_sum   'Sr2 Pr2 Cr1 Ni1 O8'
_cell_volume   187.50970141
_cell_formula_units_Z   1
loop_
 _symmetry_equiv_pos_site_id
 _symmetry_equiv_pos_as_xyz
  1  'x, y, z'
loop_
 _atom_site_type_symbol
 _atom_site_label
 _atom_site_symmetry_multiplicity
 _atom_site_fract_x
 _atom_site_fract_y
 _atom_site_fract_z
 _atom_site_occupancy
  Sr  Sr0  1  0.85432900  0.14567100  0.50000000  1
  Sr  Sr1  1  0.64526300  0.35473700  0.00000000  1
  Pr  Pr0  1  0.36135900  0.63864100  0.00000000  1
  Pr  Pr1  1  0.13790700  0.86209300  0.50000000  1
  Cr  Cr0  1  0.50171600  0.49828400  0.50000000  1
  Ni  Ni0  1  0.99797600  0.00202400  0.00000000  1
  O  O0  1  0.74472400  0.74372800  0.74144000  1
  O  O1  1  0.25627200  0.25527600  0.25856000  1
  O  O2  1  0.25627200  0.25527600  0.74144000  1
  O  O3  1  0.74472400  0.74372800  0.25856000  1
  O  O4  1  0.17803100  0.82196900  0.00000000  1
  O  O5  1  0.65959700  0.34040300  0.50000000  1
  O  O6  1  0.32776400  0.67223600  0.50000000  1
  O  O7  1  0.83406500  0.16593500  0.00000000  1
loop_
_geom_bond_atom_site_label_1
_geom_bond_atom_site_label_2
_geom_bond_distance
_geom_bond_site_symmetry_2
Cr0 O2 1.872495 1_555
Cr0 O3 1.872495 1_555
Cr0 O1 1.872495 1_555
Cr0 O0 1.872495 1_555
Cr0 O5 1.991633 1_555
Cr0 O6 2.194365 1_555
Ni0 O2 1.983341 1_654
Ni0 O0 1.983341 1_544
Ni0 O3 1.983341 1_545
Ni0 O1 1.983341 1_655
Ni0 O7 2.067700 1_555
Ni0 O4 2.271353 1_645
O0 Pr1 2.584814 1_655
O0 Pr0 2.615863 1_556
O0 Sr0 2.660182 1_565
O0 Sr1 2.664003 1_556
O1 Pr1 2.584814 1_545
O1 Pr0 2.615863 1_555
O1 Sr0 2.660182 1_455
O1 Sr1 2.664003 1_555
O2 Pr1 2.584814 1_545
O2 Pr0 2.615863 1_556
O2 Sr0 2.660182 1_455
O2 Sr1 2.664003 1_556
O3 Pr1 2.584814 1_655
O3 Pr0 2.615863 1_555
O3 Sr0 2.660182 1_565
O3 Sr1 2.664003 1_555
O4 Pr0 2.312641 1_555
O4 Sr1 2.749413 1_455
O4 Sr1 2.749413 1_565
O4 Pr1 2.780709 1_555
O4 Pr1 2.780709 1_554
O5 Sr0 2.456500 1_555
O5 Pr1 2.731899 1_655
O5 Pr1 2.731899 1_545
O5 Sr1 2.740227 1_555
O5 Sr1 2.740227 1_556
O6 Pr1 2.395003 1_555
O6 Sr0 2.738741 1_455
O6 Sr0 2.738741 1_565
O6 Pr0 2.766902 1_555
O6 Pr0 2.766902 1_556
O7 Sr1 2.381695 1_555
O7 Pr0 2.739882 1_545
O7 Pr0 2.739882 1_655
O7 Sr0 2.746178 1_555
O7 Sr0 2.746178 1_554
