# generated using pymatgen
data_Mg14AlCr
_symmetry_space_group_name_H-M   'P 1'
_cell_length_a   6.25858342
_cell_length_b   6.25858292
_cell_length_c   10.28247889
_cell_angle_alpha   90.00000000
_cell_angle_beta   90.00000000
_cell_angle_gamma   120.00000262
_symmetry_Int_Tables_number   1
_chemical_formula_structural   Mg14AlCr
_chemical_formula_sum   'Mg14 Al1 Cr1'
_cell_volume   348.80323395
_cell_formula_units_Z   1
loop_
 _symmetry_equiv_pos_site_id
 _symmetry_equiv_pos_as_xyz
  1  'x, y, z'
loop_
 _atom_site_type_symbol
 _atom_site_label
 _atom_site_symmetry_multiplicity
 _atom_site_fract_x
 _atom_site_fract_y
 _atom_site_fract_z
 _atom_site_occupancy
  Mg  Mg0  1  0.16582268  0.83291084  0.12500000  1
  Mg  Mg1  1  0.16695106  0.83347503  0.62500000  1
  Mg  Mg2  1  0.66708916  0.33417732  0.12500000  1
  Mg  Mg3  1  0.66652497  0.33304894  0.62500000  1
  Mg  Mg4  1  0.66708916  0.83291084  0.12500000  1
  Mg  Mg5  1  0.66652497  0.83347503  0.62500000  1
  Mg  Mg6  1  0.33151308  0.16848692  0.37530989  1
  Mg  Mg7  1  0.33151308  0.16848692  0.87469011  1
  Mg  Mg8  1  0.33151308  0.66302715  0.37530989  1
  Mg  Mg9  1  0.33151308  0.66302715  0.87469011  1
  Mg  Mg10  1  0.83697285  0.16848692  0.37530989  1
  Mg  Mg11  1  0.83697285  0.16848692  0.87469011  1
  Mg  Mg12  1  0.83333300  0.66666700  0.37504699  1
  Mg  Mg13  1  0.83333300  0.66666700  0.87495301  1
  Al  Al0  1  0.16666700  0.33333300  0.12500000  1
  Cr  Cr0  1  0.16666700  0.33333300  0.62500000  1
loop_
_geom_bond_atom_site_label_1
_geom_bond_atom_site_label_2
_geom_bond_distance
_geom_bond_site_symmetry_2
Mg0 Mg2 3.121365 1_455
Mg0 Mg4 3.121365 1_455
Mg0 Mg2 3.137218 1_565
Mg0 Mg4 3.137218 1_555
Mg0 Mg13 3.139781 1_454
Mg0 Mg12 3.139781 1_455
Mg0 Mg8 3.151641 1_555
Mg0 Mg9 3.151641 1_554
Mg0 Mg6 3.151647 1_565
Mg0 Mg7 3.151647 1_564
Mg1 Mg3 3.126625 1_565
Mg1 Mg5 3.126625 1_555
Mg1 Mg3 3.131958 1_455
Mg1 Mg5 3.131958 1_455
Mg1 Mg12 3.142505 1_455
Mg1 Mg13 3.142505 1_455
Mg1 Mg9 3.144698 1_555
Mg1 Mg8 3.144698 1_555
Mg1 Mg7 3.144704 1_565
Mg1 Mg6 3.144704 1_565
Mg2 Mg4 3.121365 1_555
Mg2 Mg4 3.137218 1_545
Mg2 Mg6 3.151647 1_555
Mg2 Mg7 3.151647 1_554
Mg3 Mg5 3.126625 1_545
Mg3 Mg5 3.131958 1_555
Mg3 Mg6 3.144704 1_555
Mg3 Mg7 3.144704 1_555
Mg4 Mg8 3.151647 1_555
Mg4 Mg9 3.151647 1_554
Mg5 Mg9 3.144704 1_555
Mg5 Mg8 3.144704 1_555
Mg6 Mg8 3.095121 1_555
Mg6 Mg8 3.163462 1_545
Mg7 Mg9 3.095121 1_555
Mg7 Mg9 3.163462 1_545
Mg10 Mg8 3.095121 1_655
Mg10 Mg6 3.095121 1_655
Mg10 Mg12 3.129355 1_545
Mg10 Mg12 3.129355 1_555
Mg10 Mg3 3.144698 1_555
Mg10 Mg5 3.144704 1_545
Mg10 Mg2 3.151641 1_555
Mg10 Mg4 3.151647 1_545
Mg10 Mg8 3.163462 1_545
Mg10 Mg6 3.163462 1_555
Mg11 Mg9 3.095121 1_655
Mg11 Mg7 3.095121 1_655
Mg11 Mg13 3.129355 1_545
Mg11 Mg13 3.129355 1_555
Mg11 Mg3 3.144698 1_555
Mg11 Mg5 3.144704 1_545
Mg11 Mg2 3.151641 1_556
Mg11 Mg4 3.151647 1_546
Mg11 Mg9 3.163462 1_545
Mg11 Mg7 3.163462 1_555
Mg12 Mg6 3.129355 1_665
Mg12 Mg6 3.129355 1_555
Mg12 Mg8 3.129355 1_555
Mg12 Mg8 3.129355 1_655
Mg12 Mg4 3.139775 1_555
Mg12 Mg2 3.139781 1_555
Mg12 Mg5 3.142498 1_555
Mg12 Mg3 3.142505 1_555
Mg13 Mg7 3.129355 1_665
Mg13 Mg7 3.129355 1_555
Mg13 Mg9 3.129355 1_555
Mg13 Mg9 3.129355 1_655
Mg13 Mg4 3.139775 1_556
Mg13 Mg2 3.139781 1_556
Mg13 Mg5 3.142498 1_555
Mg13 Mg3 3.142505 1_555
Al0 Mg4 3.129295 1_445
Al0 Mg0 3.129295 1_545
Al0 Mg4 3.129295 1_555
Al0 Mg0 3.129295 1_555
Al0 Mg2 3.129295 1_555
Al0 Mg2 3.129295 1_455
Al0 Mg6 3.133323 1_555
Al0 Mg7 3.133323 1_554
Al0 Mg8 3.133329 1_555
Al0 Mg9 3.133329 1_554
Al0 Mg10 3.133329 1_455
Al0 Mg11 3.133329 1_454
Cr0 Mg7 3.128090 1_555
Cr0 Mg6 3.128090 1_555
Cr0 Mg9 3.128096 1_555
Cr0 Mg8 3.128096 1_555
Cr0 Mg11 3.128096 1_455
Cr0 Mg10 3.128096 1_455
Cr0 Mg5 3.129292 1_555
Cr0 Mg1 3.129292 1_555
Cr0 Mg1 3.129292 1_545
Cr0 Mg5 3.129292 1_445
Cr0 Mg3 3.129292 1_455
Cr0 Mg3 3.129292 1_555
