# generated using pymatgen
data_Bi3O7
_symmetry_space_group_name_H-M   'P 1'
_cell_length_a   6.90934800
_cell_length_b   7.93915300
_cell_length_c   12.08179200
_cell_angle_alpha   90.00000000
_cell_angle_beta   90.00000000
_cell_angle_gamma   90.00000000
_symmetry_Int_Tables_number   1
_chemical_formula_structural   Bi3O7
_chemical_formula_sum   'Bi12 O28'
_cell_volume   662.73909953
_cell_formula_units_Z   4
loop_
 _symmetry_equiv_pos_site_id
 _symmetry_equiv_pos_as_xyz
  1  'x, y, z'
loop_
 _atom_site_type_symbol
 _atom_site_label
 _atom_site_symmetry_multiplicity
 _atom_site_fract_x
 _atom_site_fract_y
 _atom_site_fract_z
 _atom_site_occupancy
  Bi  Bi0  1  0.24185500  0.75531400  0.03714600  1
  Bi  Bi1  1  0.74185500  0.74468600  0.96285400  1
  Bi  Bi2  1  0.75814500  0.24468600  0.53714600  1
  Bi  Bi3  1  0.25814500  0.25531400  0.46285400  1
  Bi  Bi4  1  0.24311100  0.73448600  0.75000000  1
  Bi  Bi5  1  0.74311100  0.76551400  0.25000000  1
  Bi  Bi6  1  0.75688900  0.26551400  0.25000000  1
  Bi  Bi7  1  0.25688900  0.23448500  0.75000000  1
  Bi  Bi8  1  0.74185500  0.74468600  0.53714600  1
  Bi  Bi9  1  0.24185500  0.75531400  0.46285400  1
  Bi  Bi10  1  0.25814500  0.25531400  0.03714600  1
  Bi  Bi11  1  0.75814500  0.24468600  0.96285400  1
  O  O0  1  0.56177000  0.21546200  0.10835000  1
  O  O1  1  0.06177000  0.28453800  0.89165000  1
  O  O2  1  0.43823000  0.78453800  0.60835000  1
  O  O3  1  0.93823000  0.71546200  0.39165000  1
  O  O4  1  0.43823000  0.78453800  0.89165000  1
  O  O5  1  0.93823000  0.71546200  0.10835000  1
  O  O6  1  0.56177000  0.21546200  0.39165000  1
  O  O7  1  0.06177000  0.28453800  0.60835000  1
  O  O8  1  0.94933700  0.29884100  0.10705000  1
  O  O9  1  0.44933700  0.20115900  0.89295000  1
  O  O10  1  0.05066300  0.70115900  0.60705000  1
  O  O11  1  0.55066300  0.79884100  0.39295000  1
  O  O12  1  0.05066300  0.70115900  0.89295000  1
  O  O13  1  0.55066300  0.79884100  0.10705000  1
  O  O14  1  0.94933700  0.29884100  0.39295000  1
  O  O15  1  0.44933700  0.20115900  0.60705000  1
  O  O16  1  0.15222000  0.98743000  0.75000000  1
  O  O17  1  0.65222000  0.51257000  0.25000000  1
  O  O18  1  0.84778000  0.01257000  0.25000000  1
  O  O19  1  0.34778000  0.48743000  0.75000000  1
  O  O20  1  0.31656800  0.50699100  0.41662000  1
  O  O21  1  0.81656800  0.99300900  0.58338000  1
  O  O22  1  0.68343200  0.49300900  0.91662000  1
  O  O23  1  0.18343200  0.00699100  0.08338000  1
  O  O24  1  0.68343200  0.49300900  0.58338000  1
  O  O25  1  0.18343200  0.00699100  0.41662000  1
  O  O26  1  0.31656800  0.50699100  0.08338000  1
  O  O27  1  0.81656800  0.99300900  0.91662000  1
loop_
_geom_bond_atom_site_label_1
_geom_bond_atom_site_label_2
_geom_bond_distance
_geom_bond_site_symmetry_2
Bi0 O26 2.113105 1_555
Bi0 O23 2.113618 1_565
Bi0 O12 2.228228 1_554
Bi0 O4 2.232677 1_554
Bi0 O5 2.289356 1_455
Bi0 O13 2.320608 1_555
Bi1 O27 2.113105 1_555
Bi1 O22 2.113618 1_555
Bi1 O13 2.228228 1_556
Bi1 O5 2.232677 1_556
Bi1 O4 2.289356 1_555
Bi1 O12 2.320608 1_655
Bi2 O24 2.113105 1_555
Bi2 O21 2.113618 1_545
Bi2 O14 2.228228 1_555
Bi2 O6 2.232677 1_555
Bi2 O7 2.289356 1_655
Bi2 O15 2.320608 1_555
Bi3 O25 2.113105 1_555
Bi3 O20 2.113618 1_555
Bi3 O15 2.228228 1_555
Bi3 O7 2.232677 1_555
Bi3 O6 2.289356 1_555
Bi3 O14 2.320608 1_455
Bi4 O19 2.090493 1_555
Bi4 O16 2.104066 1_555
Bi4 O10 2.195662 1_555
Bi4 O12 2.195662 1_555
Bi4 O2 2.214552 1_555
Bi4 O4 2.214552 1_555
Bi5 O18 2.090493 1_565
Bi5 O17 2.104066 1_555
Bi5 O13 2.195662 1_555
Bi5 O11 2.195662 1_555
Bi5 O5 2.214552 1_555
Bi5 O3 2.214552 1_555
Bi6 O17 2.090493 1_555
Bi6 O18 2.104066 1_555
Bi6 O8 2.195662 1_555
Bi6 O14 2.195662 1_555
Bi6 O0 2.214552 1_555
Bi6 O6 2.214552 1_555
Bi7 O16 2.090485 1_545
Bi7 O19 2.104073 1_555
Bi7 O15 2.195661 1_555
Bi7 O9 2.195661 1_555
Bi7 O7 2.214553 1_555
Bi7 O1 2.214553 1_555
Bi8 O21 2.113105 1_555
Bi8 O24 2.113618 1_555
Bi8 O11 2.228228 1_555
Bi8 O3 2.232677 1_555
Bi8 O2 2.289356 1_555
Bi8 O10 2.320608 1_655
Bi9 O20 2.113105 1_555
Bi9 O25 2.113618 1_565
Bi9 O10 2.228228 1_555
Bi9 O2 2.232677 1_555
Bi9 O3 2.289356 1_455
Bi9 O11 2.320608 1_555
Bi10 O23 2.113105 1_555
Bi10 O26 2.113618 1_555
Bi10 O9 2.228228 1_554
Bi10 O1 2.232677 1_554
Bi10 O0 2.289356 1_555
Bi10 O8 2.320608 1_455
Bi11 O22 2.113105 1_555
Bi11 O27 2.113618 1_545
Bi11 O8 2.228228 1_556
Bi11 O0 2.232677 1_556
Bi11 O1 2.289356 1_655
Bi11 O9 2.320608 1_555
