# generated using pymatgen
data_Ce(AsRh)2
_symmetry_space_group_name_H-M   'P 1'
_cell_length_a   4.29569885
_cell_length_b   4.29569885
_cell_length_c   9.87584478
_cell_angle_alpha   90.00000000
_cell_angle_beta   90.00000000
_cell_angle_gamma   90.00000000
_symmetry_Int_Tables_number   1
_chemical_formula_structural   Ce(AsRh)2
_chemical_formula_sum   'Ce2 As4 Rh4'
_cell_volume   182.23924627
_cell_formula_units_Z   2
loop_
 _symmetry_equiv_pos_site_id
 _symmetry_equiv_pos_as_xyz
  1  'x, y, z'
loop_
 _atom_site_type_symbol
 _atom_site_label
 _atom_site_symmetry_multiplicity
 _atom_site_fract_x
 _atom_site_fract_y
 _atom_site_fract_z
 _atom_site_occupancy
  Ce  Ce0  1  0.00000000  0.50000000  0.25413435  1
  Ce  Ce1  1  0.50000000  0.00000000  0.74586565  1
  As  As0  1  -0.00000000  0.00000000  0.50000000  1
  As  As1  1  0.50000000  0.50000000  0.50000000  1
  As  As2  1  0.00000000  0.50000000  0.86323945  1
  As  As3  1  0.50000000  0.00000000  0.13676055  1
  Rh  Rh0  1  0.00000000  -0.00000000  0.00000000  1
  Rh  Rh1  1  0.50000000  0.50000000  0.00000000  1
  Rh  Rh2  1  -0.00000000  0.50000000  0.61828151  1
  Rh  Rh3  1  0.50000000  -0.00000000  0.38171849  1
loop_
_geom_bond_atom_site_label_1
_geom_bond_atom_site_label_2
_geom_bond_distance
_geom_bond_site_symmetry_2
Ce0 Rh3 3.288483 1_555
Ce0 Rh3 3.288483 1_465
Ce0 Rh3 3.288483 1_455
Ce0 Rh3 3.288483 1_565
Ce0 Rh0 3.303379 1_565
Ce0 Rh0 3.303379 1_555
Ce0 Rh1 3.303379 1_555
Ce0 Rh1 3.303379 1_455
Ce1 Rh2 3.288483 1_545
Ce1 Rh2 3.288483 1_645
Ce1 Rh2 3.288483 1_555
Ce1 Rh2 3.288483 1_655
Ce1 Rh0 3.303379 1_656
Ce1 Rh1 3.303379 1_556
Ce1 Rh1 3.303379 1_546
Ce1 Rh0 3.303379 1_556
As0 Rh2 2.444951 1_545
As0 Rh3 2.444951 1_555
As0 Rh3 2.444951 1_455
As0 Rh2 2.444951 1_555
As0 Ce0 3.241771 1_555
As0 Ce0 3.241771 1_545
As0 Ce1 3.241771 1_555
As0 Ce1 3.241771 1_455
As1 Rh3 2.444951 1_565
As1 Rh3 2.444951 1_555
As1 Rh2 2.444951 1_655
As1 Rh2 2.444951 1_555
As1 Ce0 3.241771 1_555
As1 Ce0 3.241771 1_655
As1 Ce1 3.241771 1_565
As1 Ce1 3.241771 1_555
As2 Rh2 2.419167 1_555
As2 Rh1 2.537213 1_456
As2 Rh1 2.537213 1_556
As2 Rh0 2.537213 1_566
As2 Rh0 2.537213 1_556
As2 Ce1 3.251181 1_565
As2 Ce1 3.251181 1_455
As2 Ce1 3.251181 1_555
As2 Ce1 3.251181 1_465
As3 Rh3 2.419167 1_555
As3 Rh0 2.537213 1_555
As3 Rh1 2.537213 1_555
As3 Rh1 2.537213 1_545
As3 Rh0 2.537213 1_655
As3 Ce0 3.251181 1_645
As3 Ce0 3.251181 1_555
As3 Ce0 3.251181 1_545
As3 Ce0 3.251181 1_655
