# generated using pymatgen
data_MnCrSb
_symmetry_space_group_name_H-M   'P 1'
_cell_length_a   4.54508469
_cell_length_b   4.54508469
_cell_length_c   5.53827300
_cell_angle_alpha   90.00000000
_cell_angle_beta   90.00000000
_cell_angle_gamma   120.00001001
_symmetry_Int_Tables_number   1
_chemical_formula_structural   MnCrSb
_chemical_formula_sum   'Mn2 Cr2 Sb2'
_cell_volume   99.08066371
_cell_formula_units_Z   2
loop_
 _symmetry_equiv_pos_site_id
 _symmetry_equiv_pos_as_xyz
  1  'x, y, z'
loop_
 _atom_site_type_symbol
 _atom_site_label
 _atom_site_symmetry_multiplicity
 _atom_site_fract_x
 _atom_site_fract_y
 _atom_site_fract_z
 _atom_site_occupancy
  Mn  Mn0  1  0.00000000  0.00000000  0.50000000  1
  Mn  Mn1  1  0.00000000  0.00000000  0.00000000  1
  Cr  Cr0  1  0.33333300  0.66666700  0.75000000  1
  Cr  Cr1  1  0.66666700  0.33333300  0.25000000  1
  Sb  Sb0  1  0.33333300  0.66666700  0.25000000  1
  Sb  Sb1  1  0.66666700  0.33333300  0.75000000  1
loop_
_geom_bond_atom_site_label_1
_geom_bond_atom_site_label_2
_geom_bond_distance
_geom_bond_site_symmetry_2
Mn0 Mn1 2.769137 1_556
Mn0 Mn1 2.769137 1_555
Mn0 Sb1 2.966976 1_455
Mn0 Sb0 2.966976 1_545
Mn0 Sb0 2.966979 1_445
Mn0 Sb1 2.966979 1_555
Mn0 Sb1 2.966979 1_445
Mn0 Sb0 2.966979 1_555
Mn1 Sb0 2.966976 1_545
Mn1 Sb1 2.966976 1_454
Mn1 Sb0 2.966979 1_445
Mn1 Sb1 2.966979 1_554
Mn1 Sb1 2.966979 1_444
Mn1 Sb0 2.966979 1_555
Cr0 Sb1 2.624103 1_455
Cr0 Sb1 2.624103 1_565
Cr0 Sb1 2.624111 1_555
Cr0 Sb0 2.769137 1_556
Cr0 Sb0 2.769137 1_555
Cr0 Mn0 2.966976 1_565
Cr0 Mn1 2.966976 1_566
Cr0 Mn0 2.966979 1_665
Cr0 Mn1 2.966979 1_666
Cr0 Mn1 2.966979 1_556
Cr0 Mn0 2.966979 1_555
Cr1 Sb0 2.624103 1_545
Cr1 Sb0 2.624103 1_655
Cr1 Sb0 2.624111 1_555
Cr1 Sb1 2.769137 1_555
Cr1 Sb1 2.769137 1_554
Cr1 Mn0 2.966976 1_655
Cr1 Mn1 2.966976 1_655
Cr1 Mn0 2.966979 1_555
Cr1 Mn1 2.966979 1_555
Cr1 Mn0 2.966979 1_665
Cr1 Mn1 2.966979 1_665
