# generated using pymatgen
data_NbCo
_symmetry_space_group_name_H-M   'P 1'
_cell_length_a   3.08203000
_cell_length_b   3.08203000
_cell_length_c   3.08203000
_cell_angle_alpha   90.00000000
_cell_angle_beta   90.00000000
_cell_angle_gamma   90.00000000
_symmetry_Int_Tables_number   1
_chemical_formula_structural   NbCo
_chemical_formula_sum   'Nb1 Co1'
_cell_volume   29.27592226
_cell_formula_units_Z   1
loop_
 _symmetry_equiv_pos_site_id
 _symmetry_equiv_pos_as_xyz
  1  'x, y, z'
loop_
 _atom_site_type_symbol
 _atom_site_label
 _atom_site_symmetry_multiplicity
 _atom_site_fract_x
 _atom_site_fract_y
 _atom_site_fract_z
 _atom_site_occupancy
  Nb  Nb0  1  0.00000000  0.00000000  0.00000000  1
  Co  Co0  1  0.50000000  0.50000000  0.50000000  1
loop_
_geom_bond_atom_site_label_1
_geom_bond_atom_site_label_2
_geom_bond_distance
_geom_bond_site_symmetry_2
Co0 Nb0 2.669116 1_555
Co0 Nb0 2.669116 1_566
Co0 Nb0 2.669116 1_565
Co0 Nb0 2.669116 1_655
Co0 Nb0 2.669116 1_656
Co0 Nb0 2.669116 1_665
Co0 Nb0 2.669116 1_666
Co0 Nb0 2.669116 1_556
