# generated using pymatgen
data_Sr6Sn12Pt11
_symmetry_space_group_name_H-M   'P 1'
_cell_length_a   14.89967320
_cell_length_b   14.89967320
_cell_length_c   14.89967320
_cell_angle_alpha   154.11296377
_cell_angle_beta   95.34601634
_cell_angle_gamma   90.41099489
_symmetry_Int_Tables_number   1
_chemical_formula_structural   Sr6Sn12Pt11
_chemical_formula_sum   'Sr12 Sn24 Pt22'
_cell_volume   1406.01286480
_cell_formula_units_Z   2
loop_
 _symmetry_equiv_pos_site_id
 _symmetry_equiv_pos_as_xyz
  1  'x, y, z'
loop_
 _atom_site_type_symbol
 _atom_site_label
 _atom_site_symmetry_multiplicity
 _atom_site_fract_x
 _atom_site_fract_y
 _atom_site_fract_z
 _atom_site_occupancy
  Sr  Sr0  1  0.87826900  0.61112000  0.73285100  1
  Sr  Sr1  1  0.12173100  0.38888000  0.26714900  1
  Sr  Sr2  1  0.62173100  0.85458300  0.23285100  1
  Sr  Sr3  1  0.37826900  0.14541700  0.76714900  1
  Sr  Sr4  1  0.21194500  0.63975600  0.09785700  1
  Sr  Sr5  1  0.45810100  0.36024400  0.57218800  1
  Sr  Sr6  1  0.28805500  0.88591200  0.92781200  1
  Sr  Sr7  1  0.04189900  0.11408800  0.40214300  1
  Sr  Sr8  1  0.78805500  0.36024400  0.90214300  1
  Sr  Sr9  1  0.54189900  0.63975600  0.42781200  1
  Sr  Sr10  1  0.71194500  0.11408800  0.07218800  1
  Sr  Sr11  1  0.95810100  0.88591200  0.59785700  1
  Sn  Sn0  1  0.66690900  0.73828500  0.90575500  1
  Sn  Sn1  1  0.16746900  0.26171500  0.92862400  1
  Sn  Sn2  1  0.83309100  0.23884500  0.57137600  1
  Sn  Sn3  1  0.33253100  0.76115500  0.59424500  1
  Sn  Sn4  1  0.33309100  0.26171500  0.09424500  1
  Sn  Sn5  1  0.83253100  0.73828500  0.07137600  1
  Sn  Sn6  1  0.16690900  0.76115500  0.42862400  1
  Sn  Sn7  1  0.66746900  0.23884500  0.40575500  1
  Sn  Sn8  1  0.55541100  0.26890900  0.71349800  1
  Sn  Sn9  1  0.44458900  0.73109100  0.28650200  1
  Sn  Sn10  1  0.94458900  0.15808600  0.21349800  1
  Sn  Sn11  1  0.05541100  0.84191400  0.78650200  1
  Sn  Sn12  1  0.00098200  0.75098200  0.25000000  1
  Sn  Sn13  1  0.49901800  0.24901800  0.25000000  1
  Sn  Sn14  1  0.99901800  0.24901800  0.75000000  1
  Sn  Sn15  1  0.50098200  0.75098200  0.75000000  1
  Sn  Sn16  1  0.88159200  0.34087800  0.11026500  1
  Sn  Sn17  1  0.76938700  0.65912200  0.54071400  1
  Sn  Sn18  1  0.61840800  0.22867300  0.95928600  1
  Sn  Sn19  1  0.73061300  0.77132700  0.38973500  1
  Sn  Sn20  1  0.11840800  0.65912200  0.88973500  1
  Sn  Sn21  1  0.23061300  0.34087800  0.45928600  1
  Sn  Sn22  1  0.38159200  0.77132700  0.04071400  1
  Sn  Sn23  1  0.26938700  0.22867300  0.61026500  1
  Pt  Pt0  1  0.68376100  0.42068000  0.73691800  1
  Pt  Pt1  1  0.31623900  0.57932000  0.26308200  1
  Pt  Pt2  1  0.81623900  0.05315700  0.23691800  1
  Pt  Pt3  1  0.18376100  0.94684300  0.76308200  1
  Pt  Pt4  1  0.89892200  0.00000000  0.89892200  1
  Pt  Pt5  1  0.60107800  0.00000000  0.60107800  1
  Pt  Pt6  1  0.10107800  0.00000000  0.10107800  1
  Pt  Pt7  1  0.39892200  0.00000000  0.39892200  1
  Pt  Pt8  1  0.42318700  0.50000000  0.92318700  1
  Pt  Pt9  1  0.07681300  0.50000000  0.57681300  1
  Pt  Pt10  1  0.57681300  0.50000000  0.07681300  1
  Pt  Pt11  1  0.92318700  0.50000000  0.42318700  1
  Pt  Pt12  1  0.25000000  0.00000000  0.25000000  1
  Pt  Pt13  1  0.75000000  0.00000000  0.75000000  1
  Pt  Pt14  1  0.01706400  0.44139400  0.09046500  1
  Pt  Pt15  1  0.64907100  0.55860600  0.57566900  1
  Pt  Pt16  1  0.48293600  0.07340100  0.92433100  1
  Pt  Pt17  1  0.85092900  0.92659900  0.40953500  1
  Pt  Pt18  1  0.98293600  0.55860600  0.90953500  1
  Pt  Pt19  1  0.35092900  0.44139400  0.42433100  1
  Pt  Pt20  1  0.51706400  0.92659900  0.07566900  1
  Pt  Pt21  1  0.14907100  0.07340100  0.59046500  1
loop_
_geom_bond_atom_site_label_1
_geom_bond_atom_site_label_2
_geom_bond_distance
_geom_bond_site_symmetry_2
Sn0 Sr5 3.550201 1_555
Sn0 Sr10 3.550273 1_566
Sn0 Sr2 3.555380 1_556
Sn0 Sr0 3.599839 1_555
Sn1 Sr4 3.550204 1_556
Sn1 Sr11 3.550251 1_445
Sn1 Sr3 3.555403 1_555
Sn1 Sr1 3.599834 1_556
Sn2 Sr7 3.550204 1_655
Sn2 Sr8 3.550251 1_555
Sn2 Sr0 3.555405 1_555
Sn2 Sr2 3.599829 1_545
Sn3 Sr6 3.550232 1_555
Sn3 Sr9 3.550241 1_555
Sn3 Sr1 3.555407 1_555
Sn3 Sr3 3.599809 1_565
Sn4 Sr9 3.550201 1_555
Sn4 Sr6 3.550273 1_544
Sn4 Sr3 3.555380 1_554
Sn4 Sr1 3.599839 1_555
Sn5 Sr8 3.550204 1_554
Sn5 Sr7 3.550251 1_665
Sn5 Sr2 3.555403 1_555
Sn5 Sr0 3.599834 1_554
Sn6 Sr11 3.550204 1_455
Sn6 Sr4 3.550251 1_555
Sn6 Sr1 3.555405 1_555
Sn6 Sr3 3.599829 1_565
Sn7 Sr10 3.550232 1_555
Sn7 Sr5 3.550241 1_555
Sn7 Sr0 3.555407 1_555
Sn7 Sr2 3.599809 1_545
Sn8 Sr2 3.497350 1_545
Sn8 Sr8 3.605828 1_555
Sn8 Sr5 3.605842 1_555
Sn8 Sr2 3.735767 1_556
Sn8 Sr3 3.736415 1_555
Sn9 Sr3 3.497350 1_565
Sn9 Sr4 3.605828 1_555
Sn9 Sr9 3.605842 1_555
Sn9 Sr3 3.735767 1_554
Sn9 Sr2 3.736415 1_555
Sn10 Sr0 3.497342 1_544
Sn10 Sr7 3.605815 1_655
Sn10 Sr10 3.605839 1_555
Sn10 Sr0 3.735759 1_555
Sn10 Sr1 3.736416 1_655
Sn11 Sr1 3.497342 1_566
Sn11 Sr11 3.605815 1_455
Sn11 Sr6 3.605839 1_555
Sn11 Sr1 3.735759 1_555
Sn11 Sr0 3.736416 1_455
Sn12 Sr4 3.522542 1_555
Sn12 Sr7 3.522542 1_565
Sn12 Sr8 3.633161 1_454
Sn12 Sr11 3.633161 1_455
Sn13 Sr5 3.522528 1_555
Sn13 Sr6 3.522543 1_544
Sn13 Sr9 3.633150 1_555
Sn13 Sr10 3.633165 1_555
Sn14 Sr8 3.522542 1_555
Sn14 Sr11 3.522542 1_545
Sn14 Sr7 3.633161 1_655
Sn14 Sr4 3.633161 1_656
Sn15 Sr9 3.522528 1_555
Sn15 Sr10 3.522543 1_566
Sn15 Sr5 3.633150 1_555
Sn15 Sr6 3.633165 1_555
Sn16 Sr11 3.492277 1_555
Sn16 Sr8 3.528725 1_554
Sn16 Sr11 3.761795 1_544
Sn16 Sr1 3.764867 1_655
Sn16 Sr10 3.780234 1_555
Sn17 Sr10 3.492276 1_555
Sn17 Sr9 3.528720 1_555
Sn17 Sr10 3.761787 1_566
Sn17 Sr0 3.764867 1_555
Sn17 Sr11 3.780245 1_555
Sn18 Sr9 3.492284 1_556
Sn18 Sr10 3.528712 1_556
Sn18 Sr9 3.761795 1_545
Sn18 Sr3 3.764862 1_555
Sn18 Sr8 3.780245 1_555
Sn19 Sr8 3.492277 1_554
Sn19 Sr11 3.528725 1_555
Sn19 Sr8 3.761795 1_565
Sn19 Sr2 3.764881 1_555
Sn19 Sr9 3.780255 1_555
Sn20 Sr7 3.492277 1_555
Sn20 Sr4 3.528725 1_556
Sn20 Sr7 3.761795 1_566
Sn20 Sr0 3.764867 1_455
Sn20 Sr6 3.780234 1_555
Sn21 Sr6 3.492276 1_555
Sn21 Sr5 3.528720 1_555
Sn21 Sr6 3.761787 1_544
Sn21 Sr1 3.764867 1_555
Sn21 Sr7 3.780245 1_555
Sn22 Sr5 3.492284 1_554
Sn22 Sr6 3.528712 1_554
Sn22 Sr5 3.761795 1_565
Sn22 Sr2 3.764862 1_555
Sn22 Sr4 3.780245 1_555
Sn23 Sr4 3.492277 1_556
Sn23 Sr7 3.528725 1_555
Sn23 Sr4 3.761795 1_545
Sn23 Sr3 3.764881 1_555
Sn23 Sr5 3.780255 1_555
Pt0 Sn8 2.699328 1_555
Pt0 Sn7 2.731203 1_555
Pt0 Sn2 2.731229 1_555
Pt0 Sn0 2.738639 1_555
Pt0 Sn5 2.738661 1_556
Pt0 Sr5 3.547097 1_555
Pt0 Sr8 3.547110 1_555
Pt0 Sr2 3.557219 1_556
Pt0 Sr2 3.607797 1_545
Pt1 Sn9 2.699328 1_555
Pt1 Sn3 2.731203 1_555
Pt1 Sn6 2.731229 1_555
Pt1 Sn4 2.738639 1_555
Pt1 Sn1 2.738661 1_554
Pt1 Sr9 3.547097 1_555
Pt1 Sr4 3.547110 1_555
Pt1 Sr3 3.557219 1_554
Pt1 Sr3 3.607797 1_565
Pt2 Sn10 2.699307 1_555
Pt2 Sn0 2.731223 1_544
Pt2 Sn5 2.731226 1_545
Pt2 Sn2 2.738662 1_555
Pt2 Sn7 2.738664 1_555
Pt2 Sr7 3.547097 1_655
Pt2 Sr10 3.547110 1_555
Pt2 Sr0 3.557219 1_555
Pt2 Sr0 3.607797 1_544
Pt3 Sn11 2.699307 1_555
Pt3 Sn4 2.731223 1_566
Pt3 Sn1 2.731226 1_565
Pt3 Sn6 2.738662 1_555
Pt3 Sn3 2.738664 1_555
Pt3 Sr11 3.547097 1_455
Pt3 Sr6 3.547110 1_555
Pt3 Sr1 3.557219 1_555
Pt3 Sr1 3.607797 1_566
Pt4 Sn16 2.677998 1_556
Pt4 Sn17 2.677998 1_545
Pt4 Sn11 2.738214 1_645
Pt4 Sn10 2.738229 1_556
Pt4 Sr10 3.290514 1_556
Pt4 Sr11 3.290520 1_545
Pt4 Sr1 3.718260 1_656
Pt4 Sr0 3.718260 1_545
Pt5 Sn18 2.677998 1_555
Pt5 Sn19 2.677998 1_545
Pt5 Sn8 2.738219 1_555
Pt5 Sn9 2.738219 1_545
Pt5 Sr8 3.290520 1_555
Pt5 Sr9 3.290531 1_545
Pt5 Sr3 3.718260 1_555
Pt5 Sr2 3.718271 1_545
Pt6 Sn21 2.677998 1_555
Pt6 Sn20 2.677998 1_544
Pt6 Sn10 2.738214 1_455
Pt6 Sn11 2.738229 1_544
Pt6 Sr6 3.290514 1_544
Pt6 Sr7 3.290520 1_555
Pt6 Sr0 3.718260 1_444
Pt6 Sr1 3.718260 1_555
Pt7 Sn22 2.677998 1_545
Pt7 Sn23 2.677998 1_555
Pt7 Sn8 2.738219 1_555
Pt7 Sn9 2.738219 1_545
Pt7 Sr4 3.290520 1_545
Pt7 Sr5 3.290531 1_555
Pt7 Sr2 3.718260 1_545
Pt7 Sr3 3.718271 1_555
Pt8 Sn22 2.700788 1_556
Pt8 Sn23 2.700788 1_555
Pt8 Sn8 2.717742 1_555
Pt8 Sn9 2.717742 1_556
Pt8 Sr2 3.365038 1_556
Pt8 Sr3 3.365047 1_555
Pt8 Sr4 3.589561 1_556
Pt8 Sr5 3.589575 1_555
Pt9 Sn20 2.700788 1_555
Pt9 Sn21 2.700788 1_555
Pt9 Sn10 2.717743 1_455
Pt9 Sn11 2.717755 1_555
Pt9 Sr0 3.365033 1_455
Pt9 Sr1 3.365033 1_555
Pt9 Sr6 3.589560 1_555
Pt9 Sr7 3.589561 1_555
Pt10 Sn19 2.700788 1_555
Pt10 Sn18 2.700788 1_554
Pt10 Sn8 2.717742 1_554
Pt10 Sn9 2.717742 1_555
Pt10 Sr3 3.365038 1_554
Pt10 Sr2 3.365047 1_555
Pt10 Sr8 3.589561 1_554
Pt10 Sr9 3.589575 1_555
Pt11 Sn16 2.700788 1_555
Pt11 Sn17 2.700788 1_555
Pt11 Sn11 2.717743 1_655
Pt11 Sn10 2.717755 1_555
Pt11 Sr0 3.365033 1_555
Pt11 Sr1 3.365033 1_655
Pt11 Sr10 3.589560 1_555
Pt11 Sr11 3.589561 1_555
Pt12 Sn21 2.700928 1_555
Pt12 Sn23 2.700928 1_555
Pt12 Sn22 2.700928 1_545
Pt12 Sn20 2.700928 1_544
Pt12 Pt6 2.988226 1_555
Pt12 Pt7 2.988226 1_555
Pt12 Sr6 3.477648 1_544
Pt12 Sr7 3.477662 1_555
Pt12 Sr4 3.477662 1_545
Pt12 Sr5 3.477664 1_555
Pt13 Sn16 2.700928 1_556
Pt13 Sn17 2.700928 1_545
Pt13 Sn19 2.700928 1_545
Pt13 Sn18 2.700928 1_555
Pt13 Pt5 2.988226 1_555
Pt13 Pt4 2.988226 1_555
Pt13 Sr10 3.477648 1_556
Pt13 Sr11 3.477662 1_545
Pt13 Sr8 3.477662 1_555
Pt13 Sr9 3.477664 1_545
Pt14 Sn16 2.695716 1_455
Pt14 Sn12 2.716321 1_555
Pt14 Sn1 2.735187 1_554
Pt14 Sn14 2.755665 1_454
Pt14 Sn6 2.761981 1_555
Pt14 Sr11 3.540434 1_444
Pt14 Sr1 3.596280 1_555
Pt14 Sr11 3.608198 1_455
Pt14 Sr8 3.609749 1_454
Pt15 Sn17 2.695704 1_555
Pt15 Sn13 2.716318 1_555
Pt15 Sn0 2.735214 1_555
Pt15 Sn15 2.755666 1_555
Pt15 Sn7 2.762000 1_555
Pt15 Sr10 3.540434 1_566
Pt15 Sr0 3.596285 1_555
Pt15 Sr10 3.608198 1_555
Pt15 Sr9 3.609723 1_555
Pt16 Sn18 2.695725 1_555
Pt16 Sn13 2.716307 1_556
Pt16 Sn3 2.735192 1_545
Pt16 Sn15 2.755656 1_545
Pt16 Sn4 2.761979 1_556
Pt16 Sr9 3.540434 1_545
Pt16 Sr3 3.596280 1_555
Pt16 Sr9 3.608198 1_556
Pt16 Sr10 3.609738 1_556
Pt17 Sn19 2.695716 1_555
Pt17 Sn12 2.716321 1_655
Pt17 Sn2 2.735187 1_565
Pt17 Sn14 2.755665 1_565
Pt17 Sn5 2.761981 1_555
Pt17 Sr8 3.540434 1_565
Pt17 Sr2 3.596285 1_555
Pt17 Sr8 3.608198 1_554
Pt17 Sr11 3.609749 1_555
Pt18 Sn20 2.695716 1_655
Pt18 Sn14 2.716321 1_555
Pt18 Sn5 2.735187 1_556
Pt18 Sn12 2.755665 1_656
Pt18 Sn2 2.761981 1_555
Pt18 Sr7 3.540434 1_666
Pt18 Sr0 3.596280 1_555
Pt18 Sr7 3.608198 1_655
Pt18 Sr4 3.609749 1_656
Pt19 Sn21 2.695704 1_555
Pt19 Sn15 2.716318 1_555
Pt19 Sn4 2.735214 1_555
Pt19 Sn13 2.755666 1_555
Pt19 Sn3 2.762000 1_555
Pt19 Sr6 3.540434 1_544
Pt19 Sr1 3.596285 1_555
Pt19 Sr6 3.608198 1_555
Pt19 Sr5 3.609723 1_555
Pt20 Sn22 2.695725 1_555
Pt20 Sn15 2.716307 1_554
Pt20 Sn7 2.735192 1_565
Pt20 Sn13 2.755656 1_565
Pt20 Sn0 2.761979 1_554
Pt20 Sr5 3.540434 1_565
Pt20 Sr2 3.596280 1_555
Pt20 Sr5 3.608198 1_554
Pt20 Sr6 3.609738 1_554
Pt21 Sn23 2.695716 1_555
Pt21 Sn14 2.716321 1_455
Pt21 Sn6 2.735187 1_545
Pt21 Sn12 2.755665 1_545
Pt21 Sn1 2.761981 1_555
Pt21 Sr4 3.540434 1_545
Pt21 Sr3 3.596285 1_555
Pt21 Sr4 3.608198 1_556
Pt21 Sr7 3.609749 1_555
