# generated using pymatgen
data_Na7Mg7Fe5(PO4)12
_symmetry_space_group_name_H-M   'P 1'
_cell_length_a   13.00300281
_cell_length_b   9.27027638
_cell_length_c   8.64756542
_cell_angle_alpha   104.43496355
_cell_angle_beta   106.07787863
_cell_angle_gamma   63.69257775
_symmetry_Int_Tables_number   1
_chemical_formula_structural   Na7Mg7Fe5(PO4)12
_chemical_formula_sum   'Na7 Mg7 Fe5 P12 O48'
_cell_volume   888.13740382
_cell_formula_units_Z   1
loop_
 _symmetry_equiv_pos_site_id
 _symmetry_equiv_pos_as_xyz
  1  'x, y, z'
loop_
 _atom_site_type_symbol
 _atom_site_label
 _atom_site_symmetry_multiplicity
 _atom_site_fract_x
 _atom_site_fract_y
 _atom_site_fract_z
 _atom_site_occupancy
  Na  Na0  1  0.37698900  0.01330200  0.99000000  1
  Na  Na1  1  0.25035300  0.49660500  0.49727700  1
  Na  Na2  1  0.12976000  0.98838700  0.01761800  1
  Na  Na3  1  0.50038200  0.49826900  0.50079300  1
  Na  Na4  1  0.86147100  0.01270200  0.99229400  1
  Na  Na5  1  0.75181200  0.49810900  0.49700000  1
  Na  Na6  1  0.00313600  0.49645400  0.49808900  1
  Mg  Mg0  1  0.11897600  0.62769400  0.93932900  1
  Mg  Mg1  1  0.00924900  0.72755300  0.26425500  1
  Mg  Mg2  1  0.28638200  0.05969000  0.37309600  1
  Mg  Mg3  1  0.49122300  0.26328000  0.73744200  1
  Mg  Mg4  1  0.50760800  0.73456000  0.26861300  1
  Mg  Mg5  1  0.99267400  0.26991800  0.73580100  1
  Mg  Mg6  1  0.88098700  0.37332400  0.06076700  1
  Fe  Fe0  1  0.21557600  0.94044000  0.62306100  1
  Fe  Fe1  1  0.37562800  0.37711300  0.06103800  1
  Fe  Fe2  1  0.62568000  0.62761500  0.94217000  1
  Fe  Fe3  1  0.78126400  0.06103100  0.36717900  1
  Fe  Fe4  1  0.71321300  0.94085600  0.62540600  1
  P  P0  1  0.00035800  0.87517000  0.65254000  1
  P  P1  1  0.22944600  0.29148800  0.70887000  1
  P  P2  1  0.14114800  0.34200900  0.12245200  1
  P  P3  1  0.36321800  0.65197700  0.87321000  1
  P  P4  1  0.26895800  0.71192400  0.28881900  1
  P  P5  1  0.49769700  0.12698000  0.34696100  1
  P  P6  1  0.50173500  0.86988300  0.65376600  1
  P  P7  1  0.73140200  0.28814600  0.71026000  1
  P  P8  1  0.63673300  0.35129200  0.12769500  1
  P  P9  1  0.85946700  0.65617500  0.87251000  1
  P  P10  1  0.77039200  0.70971400  0.29060900  1
  P  P11  1  0.99901700  0.12446700  0.34752100  1
  O  O0  1  0.05365500  0.00416300  0.67204900  1
  O  O1  1  0.03553800  0.32435900  0.99081400  1
  O  O2  1  0.13462700  0.04103300  0.40459400  1
  O  O3  1  0.18097400  0.17389500  0.74048300  1
  O  O4  1  0.14022300  0.46637500  0.73832900  1
  O  O5  1  0.02701700  0.83163300  0.82449900  1
  O  O6  1  0.09810800  0.47438000  0.26614700  1
  O  O7  1  0.04870200  0.73130000  0.52192600  1
  O  O8  1  0.22051300  0.17081200  0.17031300  1
  O  O9  1  0.24517400  0.26106400  0.53367100  1
  O  O10  1  0.35303400  0.26070400  0.82519200  1
  O  O11  1  0.21087500  0.39786000  0.04479900  1
  O  O12  1  0.29539700  0.60036300  0.95663400  1
  O  O13  1  0.14629200  0.74239100  0.18001400  1
  O  O14  1  0.25965800  0.73691500  0.47035100  1
  O  O15  1  0.55143000  0.00154000  0.67027800  1
  O  O16  1  0.28207000  0.82488200  0.82292100  1
  O  O17  1  0.45187300  0.26680900  0.48249700  1
  O  O18  1  0.40555100  0.52113400  0.72999000  1
  O  O19  1  0.46453000  0.18614500  0.17987800  1
  O  O20  1  0.53044000  0.32962900  0.99879900  1
  O  O21  1  0.35639300  0.53084400  0.26381800  1
  O  O22  1  0.32256900  0.81991600  0.25855200  1
  O  O23  1  0.63545700  0.04644200  0.40004000  1
  O  O24  1  0.36594800  0.95260100  0.60480600  1
  O  O25  1  0.67827400  0.17634500  0.74025600  1
  O  O26  1  0.64287100  0.46715600  0.73959500  1
  O  O27  1  0.46881800  0.67646200  0.00332100  1
  O  O28  1  0.53275800  0.81693900  0.82333700  1
  O  O29  1  0.59431600  0.48147200  0.27146600  1
  O  O30  1  0.54948700  0.72787000  0.52140100  1
  O  O31  1  0.72036200  0.18187400  0.18087700  1
  O  O32  1  0.45121900  0.99282200  0.32108900  1
  O  O33  1  0.73854700  0.26267200  0.52854200  1
  O  O34  1  0.85346100  0.25699700  0.81929000  1
  O  O35  1  0.70461300  0.40268100  0.04373900  1
  O  O36  1  0.78851500  0.60617600  0.95318700  1
  O  O37  1  0.64731600  0.73706200  0.18006000  1
  O  O38  1  0.75516800  0.74181800  0.47022300  1
  O  O39  1  0.78209600  0.82543600  0.81389700  1
  O  O40  1  0.94959800  0.26831700  0.47809800  1
  O  O41  1  0.90182900  0.52266200  0.73051700  1
  O  O42  1  0.97227000  0.16916800  0.17566100  1
  O  O43  1  0.85853300  0.53400400  0.26559700  1
  O  O44  1  0.82163600  0.82390800  0.26363900  1
  O  O45  1  0.86327900  0.95964800  0.59537700  1
  O  O46  1  0.96129200  0.68149500  0.00560100  1
  O  O47  1  0.94501100  0.99520200  0.32589800  1
loop_
_geom_bond_atom_site_label_1
_geom_bond_atom_site_label_2
_geom_bond_distance
_geom_bond_site_symmetry_2
Na0 O19 2.414313 1_556
Na0 O16 2.515309 1_545
Na0 O28 2.556186 1_545
Na0 O8 2.586890 1_556
Na0 O32 2.782625 1_546
Na0 O27 2.826291 1_546
Na0 O10 2.852854 1_555
Na0 O3 2.925823 1_555
Na1 O9 2.314319 1_555
Na1 O14 2.354743 1_555
Na1 O6 2.433293 1_555
Na1 O18 2.470456 1_555
Na1 O17 2.553947 1_555
Na1 O7 2.583808 1_555
Na2 O8 2.405938 1_565
Na2 O5 2.441415 1_554
Na2 O42 2.497275 1_465
Na2 O16 2.639748 1_554
Na2 O1 2.841753 1_564
Na2 O13 2.865961 1_555
Na2 O22 2.885142 1_555
Na2 O0 2.895244 1_564
Na3 O21 2.340584 1_555
Na3 O26 2.341902 1_555
Na3 O30 2.433580 1_555
Na3 O17 2.449904 1_555
Na3 O18 2.531068 1_555
Na3 O29 2.543226 1_555
Na3 O33 2.876232 1_555
Na3 O14 2.908148 1_555
Na4 O39 2.414525 1_545
Na4 O42 2.476729 1_556
Na4 O31 2.513421 1_556
Na4 O5 2.621014 1_645
Na4 O46 2.772398 1_546
Na4 O47 2.805374 1_546
Na4 O25 2.880227 1_555
Na4 O34 2.961695 1_555
Na5 O38 2.348092 1_555
Na5 O33 2.350381 1_555
Na5 O41 2.432549 1_555
Na5 O29 2.437053 1_555
Na5 O40 2.526266 1_555
Na5 O30 2.572753 1_555
Na6 O4 2.316950 1_555
Na6 O43 2.318101 1_455
Na6 O7 2.446469 1_555
Na6 O40 2.458324 1_455
Na6 O6 2.556010 1_555
Na6 O41 2.602598 1_455
Mg0 O4 1.984386 1_555
Mg0 O5 2.065099 1_555
Mg0 O46 2.093585 1_456
Mg0 O13 2.100150 1_556
Mg0 O12 2.159309 1_555
Mg0 O11 2.215353 1_556
Mg1 O6 2.109181 1_555
Mg1 O46 2.135748 1_455
Mg1 O7 2.138560 1_555
Mg1 O13 2.170544 1_555
Mg1 O44 2.193835 1_455
Mg1 O47 2.210955 1_455
Mg2 O9 1.983258 1_555
Mg2 O8 2.038738 1_555
Mg2 O22 2.092049 1_545
Mg2 O32 2.097100 1_545
Mg2 O2 2.149791 1_555
Mg2 O24 2.236955 1_545
Mg3 O17 2.125954 1_555
Mg3 O10 2.146493 1_555
Mg3 O18 2.153086 1_555
Mg3 O20 2.166332 1_555
Mg3 O15 2.168679 1_555
Mg3 O25 2.192114 1_555
Mg4 O29 2.108361 1_555
Mg4 O30 2.111231 1_555
Mg4 O32 2.135928 1_555
Mg4 O22 2.157236 1_555
Mg4 O37 2.168820 1_555
Mg4 O27 2.188919 1_555
Mg5 O1 2.107632 1_655
Mg5 O41 2.111256 1_555
Mg5 O40 2.140019 1_555
Mg5 O34 2.184391 1_555
Mg5 O3 2.195493 1_655
Mg5 O0 2.198993 1_655
Mg6 O43 2.006736 1_555
Mg6 O42 2.066641 1_555
Mg6 O1 2.082898 1_654
Mg6 O34 2.111159 1_554
Mg6 O35 2.152928 1_555
Mg6 O36 2.247626 1_554
Fe0 O14 1.962320 1_555
Fe0 O16 2.038768 1_555
Fe0 O3 2.052212 1_565
Fe0 O0 2.056261 1_565
Fe0 O24 2.058155 1_555
Fe0 O2 2.110334 1_565
Fe1 O21 1.962029 1_555
Fe1 O19 1.990371 1_555
Fe1 O11 2.031678 1_555
Fe1 O20 2.057245 1_554
Fe1 O10 2.064521 1_554
Fe1 O12 2.163975 1_554
Fe2 O28 1.981926 1_555
Fe2 O26 1.988564 1_555
Fe2 O36 2.014059 1_555
Fe2 O37 2.057269 1_556
Fe2 O27 2.074689 1_556
Fe2 O35 2.165578 1_556
Fe3 O31 1.970886 1_555
Fe3 O33 1.989568 1_555
Fe3 O44 2.040972 1_545
Fe3 O47 2.047932 1_545
Fe3 O23 2.058747 1_555
Fe3 O45 2.187548 1_545
Fe4 O38 1.944680 1_555
Fe4 O39 1.953294 1_555
Fe4 O15 2.046163 1_565
Fe4 O25 2.061156 1_565
Fe4 O45 2.123654 1_555
Fe4 O23 2.181940 1_565
O0 P0 1.583633 1_545
O1 P2 1.564884 1_556
O2 P11 1.565427 1_455
O3 P1 1.585363 1_555
O4 P1 1.526410 1_555
O5 P0 1.544021 1_555
O6 P2 1.542514 1_555
O7 P0 1.532580 1_555
O8 P2 1.547317 1_555
O9 P1 1.524529 1_555
O10 P1 1.586518 1_555
O11 P2 1.570884 1_555
O12 P3 1.557425 1_555
O13 P4 1.552772 1_555
O14 P4 1.559357 1_555
O15 P6 1.577535 1_545
O16 P3 1.570333 1_555
O17 P5 1.534202 1_555
O18 P3 1.531333 1_555
O19 P5 1.553941 1_555
O20 P8 1.572941 1_556
O21 P4 1.555888 1_555
O22 P4 1.551443 1_555
O23 P5 1.583304 1_555
O24 P6 1.559637 1_555
O25 P7 1.576902 1_555
O26 P7 1.549835 1_555
O27 P3 1.579912 1_554
O28 P6 1.552277 1_555
O29 P8 1.532351 1_555
O30 P6 1.531900 1_555
O31 P8 1.558825 1_555
O32 P5 1.553913 1_565
O33 P7 1.552469 1_555
O34 P7 1.546607 1_555
O35 P8 1.559867 1_555
O36 P9 1.565088 1_555
O37 P10 1.566245 1_555
O38 P10 1.558167 1_555
O39 P9 1.563956 1_555
O40 P11 1.535540 1_555
O41 P9 1.534822 1_555
O42 P11 1.547380 1_555
O43 P10 1.523317 1_555
O44 P10 1.566345 1_555
O45 P0 1.581908 1_655
O46 P9 1.558685 1_554
O47 P11 1.589192 1_565
