# generated using pymatgen
data_Tb4CoSn8
_symmetry_space_group_name_H-M   'P 1'
_cell_length_a   4.43216100
_cell_length_b   4.44798100
_cell_length_c   16.74194800
_cell_angle_alpha   90.00000000
_cell_angle_beta   90.00000000
_cell_angle_gamma   90.00000000
_symmetry_Int_Tables_number   1
_chemical_formula_structural   Tb4CoSn8
_chemical_formula_sum   'Tb4 Co1 Sn8'
_cell_volume   330.05357413
_cell_formula_units_Z   1
loop_
 _symmetry_equiv_pos_site_id
 _symmetry_equiv_pos_as_xyz
  1  'x, y, z'
loop_
 _atom_site_type_symbol
 _atom_site_label
 _atom_site_symmetry_multiplicity
 _atom_site_fract_x
 _atom_site_fract_y
 _atom_site_fract_z
 _atom_site_occupancy
  Tb  Tb0  1  0.25000000  0.00000000  0.09879600  1
  Tb  Tb1  1  0.25000000  0.50000000  0.60351600  1
  Tb  Tb2  1  0.75000000  0.50000000  0.39699500  1
  Tb  Tb3  1  0.75000000  0.00000000  0.89954900  1
  Co  Co0  1  0.25000000  0.00000000  0.30761500  1
  Sn  Sn0  1  0.25000000  0.00000000  0.45421700  1
  Sn  Sn1  1  0.25000000  0.50000000  0.93736400  1
  Sn  Sn2  1  0.75000000  0.50000000  0.06186600  1
  Sn  Sn3  1  0.75000000  0.00000000  0.57218100  1
  Sn  Sn4  1  0.25000000  0.50000000  0.23799700  1
  Sn  Sn5  1  0.25000000  0.00000000  0.74848900  1
  Sn  Sn6  1  0.75000000  0.00000000  0.23928200  1
  Sn  Sn7  1  0.75000000  0.50000000  0.75313300  1
loop_
_geom_bond_atom_site_label_1
_geom_bond_atom_site_label_2
_geom_bond_distance
_geom_bond_site_symmetry_2
Co0 Sn0 2.454403 1_555
Co0 Sn6 2.493955 1_555
Co0 Sn6 2.493955 1_455
Co0 Sn4 2.510900 1_555
Co0 Sn4 2.510900 1_545
Co0 Tb2 3.477980 1_555
Co0 Tb2 3.477980 1_455
Co0 Tb2 3.477980 1_445
Co0 Tb2 3.477980 1_545
Sn0 Sn3 2.968405 1_555
Sn0 Sn3 2.968405 1_455
Sn0 Tb2 3.282518 1_445
Sn0 Tb2 3.282518 1_545
Sn0 Tb2 3.282518 1_455
Sn0 Tb2 3.282518 1_555
Sn0 Tb1 3.345731 1_555
Sn0 Tb1 3.345731 1_545
Sn1 Sn2 3.042328 1_456
Sn1 Sn2 3.042328 1_556
Sn1 Tb3 3.202805 1_555
Sn1 Tb3 3.202805 1_565
Sn1 Tb3 3.202805 1_465
Sn1 Tb3 3.202805 1_455
Sn1 Tb0 3.500092 1_556
Sn1 Tb0 3.500092 1_566
Sn2 Tb0 3.199909 1_655
Sn2 Tb0 3.199909 1_555
Sn2 Tb0 3.199909 1_565
Sn2 Tb0 3.199909 1_665
Sn2 Tb3 3.511546 1_564
Sn2 Tb3 3.511546 1_554
Sn3 Tb1 3.183137 1_655
Sn3 Tb1 3.183137 1_545
Sn3 Tb1 3.183137 1_645
Sn3 Tb1 3.183137 1_555
Sn3 Tb2 3.680809 1_545
Sn3 Tb2 3.680809 1_555
Sn4 Tb0 3.221389 1_565
Sn4 Tb0 3.221389 1_555
Sn4 Tb2 3.463657 1_555
Sn4 Tb2 3.463657 1_455
Sn5 Sn7 3.140572 1_545
Sn5 Sn7 3.140572 1_455
Sn5 Sn7 3.140572 1_555
Sn5 Sn7 3.140572 1_445
Sn5 Tb1 3.291974 1_555
Sn5 Tb1 3.291974 1_545
Sn5 Tb3 3.362596 1_555
Sn5 Tb3 3.362596 1_455
Sn6 Tb0 3.231557 1_655
Sn6 Tb0 3.231557 1_555
Sn6 Tb2 3.452241 1_545
Sn6 Tb2 3.452241 1_555
Sn7 Tb3 3.309827 1_555
Sn7 Tb3 3.309827 1_565
Sn7 Tb1 3.344464 1_555
Sn7 Tb1 3.344464 1_655
