# generated using pymatgen
data_CaTi(Si2O5)2
_symmetry_space_group_name_H-M   'P 1'
_cell_length_a   7.48449600
_cell_length_b   7.48449600
_cell_length_c   15.53227900
_cell_angle_alpha   90.00000000
_cell_angle_beta   90.00000000
_cell_angle_gamma   90.00000000
_symmetry_Int_Tables_number   1
_chemical_formula_structural   CaTi(Si2O5)2
_chemical_formula_sum   'Ca4 Ti4 Si16 O40'
_cell_volume   870.08224050
_cell_formula_units_Z   4
loop_
 _symmetry_equiv_pos_site_id
 _symmetry_equiv_pos_as_xyz
  1  'x, y, z'
loop_
 _atom_site_type_symbol
 _atom_site_label
 _atom_site_symmetry_multiplicity
 _atom_site_fract_x
 _atom_site_fract_y
 _atom_site_fract_z
 _atom_site_occupancy
  Ca  Ca0  1  0.50000000  0.50000000  0.50000000  1
  Ca  Ca1  1  0.00000000  0.00000000  0.50000000  1
  Ca  Ca2  1  0.00000000  0.00000000  0.00000000  1
  Ca  Ca3  1  0.50000000  0.50000000  0.00000000  1
  Ti  Ti0  1  0.50000000  0.00000000  0.58047900  1
  Ti  Ti1  1  0.00000000  0.50000000  0.91952100  1
  Ti  Ti2  1  0.00000000  0.50000000  0.41952100  1
  Ti  Ti3  1  0.50000000  0.00000000  0.08047900  1
  Si  Si0  1  0.17019000  0.25289900  0.64954200  1
  Si  Si1  1  0.82981000  0.74710100  0.64954200  1
  Si  Si2  1  0.25289900  0.17019000  0.85045800  1
  Si  Si3  1  0.75289900  0.32981000  0.64954200  1
  Si  Si4  1  0.24710100  0.67019000  0.64954200  1
  Si  Si5  1  0.32981000  0.75289900  0.85045800  1
  Si  Si6  1  0.67019000  0.24710100  0.85045800  1
  Si  Si7  1  0.74710100  0.82981000  0.85045800  1
  Si  Si8  1  0.32981000  0.24710100  0.35045800  1
  Si  Si9  1  0.67019000  0.75289900  0.35045800  1
  Si  Si10  1  0.24710100  0.32981000  0.14954200  1
  Si  Si11  1  0.74710100  0.17019000  0.35045800  1
  Si  Si12  1  0.25289900  0.82981000  0.35045800  1
  Si  Si13  1  0.17019000  0.74710100  0.14954200  1
  Si  Si14  1  0.82981000  0.25289900  0.14954200  1
  Si  Si15  1  0.75289900  0.67019000  0.14954200  1
  O  O0  1  0.24875600  0.10695100  0.58295900  1
  O  O1  1  0.75124400  0.89304900  0.58295900  1
  O  O2  1  0.10695100  0.24875600  0.91704100  1
  O  O3  1  0.60695100  0.25124400  0.58295900  1
  O  O4  1  0.39304900  0.74875600  0.58295900  1
  O  O5  1  0.25124400  0.60695100  0.91704100  1
  O  O6  1  0.74875600  0.39304900  0.91704100  1
  O  O7  1  0.89304900  0.75124400  0.91704100  1
  O  O8  1  0.25124400  0.39304900  0.41704100  1
  O  O9  1  0.74875600  0.60695100  0.41704100  1
  O  O10  1  0.39304900  0.25124400  0.08295900  1
  O  O11  1  0.89304900  0.24875600  0.41704100  1
  O  O12  1  0.10695100  0.75124400  0.41704100  1
  O  O13  1  0.24875600  0.89304900  0.08295900  1
  O  O14  1  0.75124400  0.10695100  0.08295900  1
  O  O15  1  0.25025900  0.04657600  0.37017100  1
  O  O16  1  0.60695100  0.74875600  0.08295900  1
  O  O17  1  0.75025900  0.54657600  0.62982900  1
  O  O18  1  0.45342400  0.24974100  0.87017100  1
  O  O19  1  0.95342400  0.25025900  0.62982900  1
  O  O20  1  0.04657600  0.74974100  0.62982900  1
  O  O21  1  0.25025900  0.95342400  0.87017100  1
  O  O22  1  0.74974100  0.04657600  0.87017100  1
  O  O23  1  0.54657600  0.75025900  0.87017100  1
  O  O24  1  0.70611300  0.70611300  0.25000000  1
  O  O25  1  0.79388700  0.20611300  0.25000000  1
  O  O26  1  0.20611300  0.79388700  0.25000000  1
  O  O27  1  0.29388700  0.29388700  0.25000000  1
  O  O28  1  0.79388700  0.79388700  0.75000000  1
  O  O29  1  0.70611300  0.29388700  0.75000000  1
  O  O30  1  0.29388700  0.70611300  0.75000000  1
  O  O31  1  0.20611300  0.20611300  0.75000000  1
  O  O32  1  0.95342400  0.74974100  0.12982900  1
  O  O33  1  0.75025900  0.45342400  0.12982900  1
  O  O34  1  0.24974100  0.54657600  0.12982900  1
  O  O35  1  0.45342400  0.75025900  0.37017100  1
  O  O36  1  0.54657600  0.24974100  0.37017100  1
  O  O37  1  0.04657600  0.25025900  0.12982900  1
  O  O38  1  0.74974100  0.95342400  0.37017100  1
  O  O39  1  0.24974100  0.45342400  0.62982900  1
loop_
_geom_bond_atom_site_label_1
_geom_bond_atom_site_label_2
_geom_bond_distance
_geom_bond_site_symmetry_2
Ca0 O3 2.401551 1_555
Ca0 O9 2.401551 1_555
Ca0 O4 2.401551 1_555
Ca0 O8 2.401551 1_555
Ca0 O39 2.774224 1_555
Ca0 O17 2.774224 1_555
Ca0 O35 2.774224 1_555
Ca0 O36 2.774224 1_555
Ca1 O1 2.401551 1_445
Ca1 O12 2.401551 1_545
Ca1 O0 2.401551 1_555
Ca1 O11 2.401551 1_455
Ca1 O20 2.774224 1_545
Ca1 O19 2.774224 1_455
Ca1 O15 2.774224 1_555
Ca1 O38 2.774224 1_445
Ca2 O2 2.401551 1_554
Ca2 O14 2.401551 1_455
Ca2 O7 2.401551 1_444
Ca2 O13 2.401551 1_545
Ca2 O21 2.774224 1_544
Ca2 O22 2.774224 1_454
Ca2 O37 2.774224 1_555
Ca2 O32 2.774224 1_445
Ca3 O6 2.401551 1_554
Ca3 O16 2.401551 1_555
Ca3 O10 2.401551 1_555
Ca3 O5 2.401551 1_554
Ca3 O18 2.774224 1_554
Ca3 O23 2.774224 1_554
Ca3 O33 2.774224 1_555
Ca3 O34 2.774224 1_555
O0 Si0 1.615097 1_555
O0 Ti0 2.044084 1_555
O1 Si1 1.615097 1_555
O1 Ti0 2.044084 1_565
O2 Si2 1.615097 1_555
O2 Ti1 2.044084 1_555
O3 Si3 1.615097 1_555
O3 Ti0 2.044084 1_555
O4 Si4 1.615097 1_555
O4 Ti0 2.044084 1_565
O5 Si5 1.615097 1_555
O5 Ti1 2.044084 1_555
O6 Si6 1.615097 1_555
O6 Ti1 2.044084 1_655
O7 Si7 1.615097 1_555
O7 Ti1 2.044084 1_655
O8 Si8 1.615097 1_555
O8 Ti2 2.044084 1_555
O9 Si9 1.615097 1_555
O9 Ti2 2.044084 1_655
O10 Si10 1.615097 1_555
O10 Ti3 2.044084 1_555
O11 Si11 1.615097 1_555
O11 Ti2 2.044084 1_655
O12 Si12 1.615097 1_555
O12 Ti2 2.044084 1_555
O13 Si13 1.615097 1_555
O13 Ti3 2.044084 1_565
O14 Si14 1.615097 1_555
O14 Ti3 2.044084 1_555
O15 Si8 1.643392 1_555
O15 Si12 1.651143 1_545
O16 Si15 1.615097 1_555
O16 Ti3 2.044084 1_565
O17 Si1 1.643392 1_555
O17 Si3 1.651143 1_555
O18 Si2 1.643392 1_555
O18 Si6 1.651143 1_555
O19 Si3 1.643392 1_555
O19 Si0 1.651143 1_655
O20 Si4 1.643392 1_555
O20 Si1 1.651143 1_455
O21 Si5 1.643392 1_555
O21 Si2 1.651143 1_565
O22 Si6 1.643392 1_555
O22 Si7 1.651143 1_545
O23 Si7 1.643392 1_555
O23 Si5 1.651143 1_555
O24 Si15 1.621596 1_555
O24 Si9 1.621596 1_555
O25 Si11 1.621596 1_555
O25 Si14 1.621596 1_555
O26 Si13 1.621596 1_555
O26 Si12 1.621596 1_555
O27 Si8 1.621596 1_555
O27 Si10 1.621596 1_555
O28 Si1 1.621596 1_555
O28 Si7 1.621596 1_555
O29 Si6 1.621596 1_555
O29 Si3 1.621596 1_555
O30 Si4 1.621596 1_555
O30 Si5 1.621596 1_555
O31 Si0 1.621596 1_555
O31 Si2 1.621596 1_555
O32 Si15 1.643392 1_555
O32 Si13 1.651143 1_655
O33 Si14 1.643392 1_555
O33 Si15 1.651143 1_555
O34 Si13 1.643392 1_555
O34 Si10 1.651143 1_555
O35 Si12 1.643392 1_555
O35 Si9 1.651143 1_555
O36 Si11 1.643392 1_555
O36 Si8 1.651143 1_555
O37 Si10 1.643392 1_555
O37 Si14 1.651143 1_455
O38 Si9 1.643392 1_555
O38 Si11 1.651143 1_565
O39 Si0 1.643392 1_555
O39 Si4 1.651143 1_555
