# generated using pymatgen
data_Cs2LaNb2O7
_symmetry_space_group_name_H-M   'P 1'
_cell_length_a   12.25729699
_cell_length_b   12.25729699
_cell_length_c   5.79406700
_cell_angle_alpha   90.00000000
_cell_angle_beta   90.00000000
_cell_angle_gamma   152.60382493
_symmetry_Int_Tables_number   1
_chemical_formula_structural   Cs2LaNb2O7
_chemical_formula_sum   'Cs4 La2 Nb4 O14'
_cell_volume   400.55615143
_cell_formula_units_Z   2
loop_
 _symmetry_equiv_pos_site_id
 _symmetry_equiv_pos_as_xyz
  1  'x, y, z'
loop_
 _atom_site_type_symbol
 _atom_site_label
 _atom_site_symmetry_multiplicity
 _atom_site_fract_x
 _atom_site_fract_y
 _atom_site_fract_z
 _atom_site_occupancy
  Cs  Cs0  1  0.92810600  0.54370800  0.75000000  1
  Cs  Cs1  1  0.07189400  0.45629200  0.25000000  1
  Cs  Cs2  1  0.54370800  0.92810600  0.75000000  1
  Cs  Cs3  1  0.45629200  0.07189400  0.25000000  1
  La  La0  1  0.73721500  0.73721500  0.75000000  1
  La  La1  1  0.26278500  0.26278500  0.25000000  1
  Nb  Nb0  1  0.16084500  0.33767600  0.75000000  1
  Nb  Nb1  1  0.83915500  0.66232400  0.25000000  1
  Nb  Nb2  1  0.33767600  0.16084500  0.75000000  1
  Nb  Nb3  1  0.66232400  0.83915500  0.25000000  1
  O  O0  1  0.30912600  0.30912600  0.75000000  1
  O  O1  1  0.69087400  0.69087400  0.25000000  1
  O  O2  1  0.93140100  0.06859900  0.50000000  1
  O  O3  1  0.06859900  0.93140100  0.50000000  1
  O  O4  1  0.06859900  0.93140100  0.00000000  1
  O  O5  1  0.93140100  0.06859900  0.00000000  1
  O  O6  1  0.05930500  0.39377800  0.75000000  1
  O  O7  1  0.94069500  0.60622200  0.25000000  1
  O  O8  1  0.39377800  0.05930500  0.75000000  1
  O  O9  1  0.60622200  0.94069500  0.25000000  1
  O  O10  1  0.58340800  0.41659200  0.50000000  1
  O  O11  1  0.41659200  0.58340800  0.50000000  1
  O  O12  1  0.41659200  0.58340800  0.00000000  1
  O  O13  1  0.58340800  0.41659200  0.00000000  1
loop_
_geom_bond_atom_site_label_1
_geom_bond_atom_site_label_2
_geom_bond_distance
_geom_bond_site_symmetry_2
Cs0 O8 2.909620 1_665
Cs0 O7 2.965435 1_556
Cs0 O7 2.965435 1_555
Cs0 O8 3.016145 1_555
Cs0 O13 3.269182 1_556
Cs0 O10 3.269182 1_555
Cs0 O6 3.348312 1_655
Cs1 O9 2.909620 1_445
Cs1 O6 2.965435 1_555
Cs1 O6 2.965435 1_554
Cs1 O9 3.016145 1_555
Cs1 O11 3.269182 1_555
Cs1 O12 3.269182 1_555
Cs1 O7 3.348312 1_455
Cs2 O6 2.909620 1_665
Cs2 O9 2.965435 1_556
Cs2 O9 2.965435 1_555
Cs2 O6 3.016145 1_555
Cs2 O11 3.269182 1_555
Cs2 O12 3.269182 1_556
Cs2 O8 3.348312 1_565
Cs3 O7 2.909620 1_445
Cs3 O8 2.965435 1_555
Cs3 O8 2.965435 1_554
Cs3 O7 3.016145 1_555
Cs3 O13 3.269182 1_555
Cs3 O10 3.269182 1_555
Cs3 O9 3.348312 1_545
La0 O0 2.485141 1_555
La0 O4 2.663617 1_656
La0 O5 2.663617 1_566
La0 O2 2.663617 1_565
La0 O3 2.663617 1_655
La0 O13 2.817969 1_556
La0 O10 2.817969 1_555
La0 O11 2.817969 1_555
La0 O12 2.817969 1_556
La0 O1 2.909497 1_555
La0 O1 2.909497 1_556
La1 O1 2.485141 1_555
La1 O3 2.663617 1_545
La1 O4 2.663617 1_545
La1 O5 2.663617 1_455
La1 O2 2.663617 1_455
La1 O10 2.817969 1_555
La1 O12 2.817969 1_555
La1 O11 2.817969 1_555
La1 O13 2.817969 1_555
La1 O0 2.909497 1_554
La1 O0 2.909497 1_555
Nb0 O6 1.881933 1_555
Nb0 O12 2.056981 1_556
Nb0 O11 2.056981 1_555
Nb0 O2 2.101140 1_455
Nb0 O5 2.101140 1_456
Nb0 O0 2.134305 1_555
Nb1 O7 1.881933 1_555
Nb1 O10 2.056981 1_555
Nb1 O13 2.056981 1_555
Nb1 O4 2.101140 1_655
Nb1 O3 2.101140 1_655
Nb1 O1 2.134305 1_555
Nb2 O8 1.881933 1_555
Nb2 O10 2.056981 1_555
Nb2 O13 2.056981 1_556
Nb2 O3 2.101140 1_545
Nb2 O4 2.101140 1_546
Nb2 O0 2.134305 1_555
Nb3 O9 1.881933 1_555
Nb3 O11 2.056981 1_555
Nb3 O12 2.056981 1_555
Nb3 O2 2.101140 1_565
Nb3 O5 2.101140 1_565
Nb3 O1 2.134305 1_555
