# generated using pymatgen
data_Ta3Al2C
_symmetry_space_group_name_H-M   'P 1'
_cell_length_a   7.09531400
_cell_length_b   7.09531400
_cell_length_c   7.09531400
_cell_angle_alpha   90.00000000
_cell_angle_beta   90.00000000
_cell_angle_gamma   90.00000000
_symmetry_Int_Tables_number   1
_chemical_formula_structural   Ta3Al2C
_chemical_formula_sum   'Ta12 Al8 C4'
_cell_volume   357.20280384
_cell_formula_units_Z   4
loop_
 _symmetry_equiv_pos_site_id
 _symmetry_equiv_pos_as_xyz
  1  'x, y, z'
loop_
 _atom_site_type_symbol
 _atom_site_label
 _atom_site_symmetry_multiplicity
 _atom_site_fract_x
 _atom_site_fract_y
 _atom_site_fract_z
 _atom_site_occupancy
  Ta  Ta0  1  0.79523000  0.95477000  0.37500000  1
  Ta  Ta1  1  0.70477000  0.04523000  0.87500000  1
  Ta  Ta2  1  0.20477000  0.45477000  0.12500000  1
  Ta  Ta3  1  0.29523000  0.54523000  0.62500000  1
  Ta  Ta4  1  0.95477000  0.37500000  0.79523000  1
  Ta  Ta5  1  0.04523000  0.87500000  0.70477000  1
  Ta  Ta6  1  0.45477000  0.12500000  0.20477000  1
  Ta  Ta7  1  0.54523000  0.62500000  0.29523000  1
  Ta  Ta8  1  0.37500000  0.79523000  0.95477000  1
  Ta  Ta9  1  0.87500000  0.70477000  0.04523000  1
  Ta  Ta10  1  0.12500000  0.20477000  0.45477000  1
  Ta  Ta11  1  0.62500000  0.29523000  0.54523000  1
  Al  Al0  1  0.18025700  0.81974300  0.31974300  1
  Al  Al1  1  0.31974300  0.18025700  0.81974300  1
  Al  Al2  1  0.81974300  0.31974300  0.18025700  1
  Al  Al3  1  0.68025700  0.68025700  0.68025700  1
  Al  Al4  1  0.56974300  0.43025700  0.93025700  1
  Al  Al5  1  0.43025700  0.93025700  0.56974300  1
  Al  Al6  1  0.93025700  0.56974300  0.43025700  1
  Al  Al7  1  0.06974300  0.06974300  0.06974300  1
  C  C0  1  0.87500000  0.12500000  0.62500000  1
  C  C1  1  0.62500000  0.87500000  0.12500000  1
  C  C2  1  0.12500000  0.62500000  0.87500000  1
  C  C3  1  0.37500000  0.37500000  0.37500000  1
loop_
_geom_bond_atom_site_label_1
_geom_bond_atom_site_label_2
_geom_bond_distance
_geom_bond_site_symmetry_2
Al0 Al7 2.628269 1_565
Al0 Al6 2.628269 1_455
Al0 Al5 2.628269 1_555
Al0 Ta10 2.921438 1_565
Al0 Ta5 2.921438 1_555
Al0 Ta0 2.921438 1_455
Al0 Ta7 2.940329 1_555
Al0 Ta2 2.940329 1_555
Al0 Ta8 2.940329 1_554
Al0 Ta3 3.024951 1_555
Al0 Ta6 3.024951 1_565
Al0 Ta9 3.024951 1_455
Al1 Al7 2.628269 1_556
Al1 Al4 2.628269 1_555
Al1 Al5 2.628269 1_545
Al1 Ta6 2.921438 1_556
Al1 Ta8 2.921438 1_545
Al1 Ta1 2.921438 1_555
Al1 Ta3 2.940329 1_555
Al1 Ta4 2.940329 1_455
Al1 Ta10 2.940329 1_555
Al1 Ta5 3.024951 1_545
Al1 Ta2 3.024951 1_556
Al1 Ta11 3.024951 1_555
Al2 Al7 2.628269 1_655
Al2 Al4 2.628269 1_554
Al2 Al6 2.628269 1_555
Al2 Ta2 2.921438 1_655
Al2 Ta9 2.921438 1_555
Al2 Ta4 2.921438 1_554
Al2 Ta11 2.940329 1_555
Al2 Ta0 2.940329 1_545
Al2 Ta6 2.940329 1_555
Al2 Ta7 3.024951 1_555
Al2 Ta10 3.024951 1_655
Al2 Ta1 3.024951 1_554
Al3 Al6 2.628269 1_555
Al3 Al4 2.628269 1_555
Al3 Al5 2.628269 1_555
Al3 Ta3 2.921438 1_555
Al3 Ta7 2.921438 1_555
Al3 Ta11 2.921438 1_555
Al3 Ta9 2.940329 1_556
Al3 Ta1 2.940329 1_565
Al3 Ta5 2.940329 1_655
Al3 Ta0 3.024951 1_555
Al3 Ta4 3.024951 1_555
Al3 Ta8 3.024951 1_555
Al4 Ta1 2.921438 1_555
Al4 Ta4 2.921438 1_555
Al4 Ta11 2.921438 1_555
Al4 Ta8 2.940329 1_555
Al4 Ta2 2.940329 1_556
Al4 Ta7 2.940329 1_556
Al4 Ta6 3.024951 1_556
Al4 Ta3 3.024951 1_555
Al4 Ta9 3.024951 1_556
Al5 Ta3 2.921438 1_555
Al5 Ta5 2.921438 1_555
Al5 Ta8 2.921438 1_555
Al5 Ta6 2.940329 1_565
Al5 Ta0 2.940329 1_555
Al5 Ta11 2.940329 1_565
Al5 Ta10 3.024951 1_565
Al5 Ta7 3.024951 1_555
Al5 Ta1 3.024951 1_565
Al6 Ta9 2.921438 1_555
Al6 Ta0 2.921438 1_555
Al6 Ta7 2.921438 1_555
Al6 Ta4 2.940329 1_555
Al6 Ta10 2.940329 1_655
Al6 Ta3 2.940329 1_655
Al6 Ta2 3.024951 1_655
Al6 Ta5 3.024951 1_655
Al6 Ta11 3.024951 1_555
Al7 Ta6 2.921438 1_555
Al7 Ta10 2.921438 1_555
Al7 Ta2 2.921438 1_555
Al7 Ta5 2.940329 1_544
Al7 Ta9 2.940329 1_445
Al7 Ta1 2.940329 1_454
Al7 Ta4 3.024951 1_454
Al7 Ta8 3.024951 1_544
Al7 Ta0 3.024951 1_445
C0 Ta10 2.219388 1_655
C0 Ta0 2.219388 1_545
C0 Ta11 2.219388 1_555
C0 Ta4 2.219388 1_555
C0 Ta1 2.219388 1_555
C0 Ta5 2.219388 1_645
C1 Ta9 2.219388 1_555
C1 Ta8 2.219388 1_554
C1 Ta0 2.219388 1_555
C1 Ta6 2.219388 1_565
C1 Ta7 2.219388 1_555
C1 Ta1 2.219388 1_564
C2 Ta2 2.219388 1_556
C2 Ta5 2.219388 1_555
C2 Ta8 2.219388 1_555
C2 Ta3 2.219388 1_555
C2 Ta4 2.219388 1_455
C2 Ta9 2.219388 1_456
C3 Ta10 2.219388 1_555
C3 Ta2 2.219388 1_555
C3 Ta11 2.219388 1_555
C3 Ta6 2.219388 1_555
C3 Ta3 2.219388 1_555
C3 Ta7 2.219388 1_555
