# generated using pymatgen
data_Be3Tl2Zn2F12
_symmetry_space_group_name_H-M   'P 1'
_cell_length_a   10.22472300
_cell_length_b   10.22472300
_cell_length_c   10.22472300
_cell_angle_alpha   90.00000000
_cell_angle_beta   90.00000000
_cell_angle_gamma   90.00000000
_symmetry_Int_Tables_number   1
_chemical_formula_structural   Be3Tl2Zn2F12
_chemical_formula_sum   'Be12 Tl8 Zn8 F48'
_cell_volume   1068.94326141
_cell_formula_units_Z   4
loop_
 _symmetry_equiv_pos_site_id
 _symmetry_equiv_pos_as_xyz
  1  'x, y, z'
loop_
 _atom_site_type_symbol
 _atom_site_label
 _atom_site_symmetry_multiplicity
 _atom_site_fract_x
 _atom_site_fract_y
 _atom_site_fract_z
 _atom_site_occupancy
  Be  Be0  1  0.01961100  0.21528200  0.37585600  1
  Be  Be1  1  0.48038900  0.78471800  0.87585600  1
  Be  Be2  1  0.98038900  0.71528200  0.12414400  1
  Be  Be3  1  0.37585600  0.01961100  0.21528200  1
  Be  Be4  1  0.51961100  0.28471800  0.62414400  1
  Be  Be5  1  0.87585600  0.48038900  0.78471800  1
  Be  Be6  1  0.12414400  0.98038900  0.71528200  1
  Be  Be7  1  0.62414400  0.51961100  0.28471800  1
  Be  Be8  1  0.21528200  0.37585600  0.01961100  1
  Be  Be9  1  0.71528200  0.12414400  0.98038900  1
  Be  Be10  1  0.28471800  0.62414400  0.51961100  1
  Be  Be11  1  0.78471800  0.87585600  0.48038900  1
  Tl  Tl0  1  0.04894000  0.04894000  0.04894000  1
  Tl  Tl1  1  0.45106000  0.95106000  0.54894000  1
  Tl  Tl2  1  0.95106000  0.54894000  0.45106000  1
  Tl  Tl3  1  0.54894000  0.45106000  0.95106000  1
  Tl  Tl4  1  0.81670800  0.81670800  0.81670800  1
  Tl  Tl5  1  0.68329200  0.18329200  0.31670800  1
  Tl  Tl6  1  0.18329200  0.31670800  0.68329200  1
  Tl  Tl7  1  0.31670800  0.68329200  0.18329200  1
  Zn  Zn0  1  0.33471700  0.33471700  0.33471700  1
  Zn  Zn1  1  0.16528300  0.66528300  0.83471700  1
  Zn  Zn2  1  0.66528300  0.83471700  0.16528300  1
  Zn  Zn3  1  0.83471700  0.16528300  0.66528300  1
  Zn  Zn4  1  0.59801700  0.59801700  0.59801700  1
  Zn  Zn5  1  0.90198300  0.40198300  0.09801700  1
  Zn  Zn6  1  0.40198300  0.09801700  0.90198300  1
  Zn  Zn7  1  0.09801700  0.90198300  0.40198300  1
  F  F0  1  0.01259300  0.06906700  0.32979000  1
  F  F1  1  0.48740700  0.93093300  0.82979000  1
  F  F2  1  0.98740700  0.56906700  0.17021000  1
  F  F3  1  0.32979000  0.01259300  0.06906700  1
  F  F4  1  0.51259300  0.43093300  0.67021000  1
  F  F5  1  0.82979000  0.48740700  0.93093300  1
  F  F6  1  0.17021000  0.98740700  0.56906700  1
  F  F7  1  0.67021000  0.51259300  0.43093300  1
  F  F8  1  0.06906700  0.32979000  0.01259300  1
  F  F9  1  0.56906700  0.17021000  0.98740700  1
  F  F10  1  0.43093300  0.67021000  0.51259300  1
  F  F11  1  0.93093300  0.82979000  0.48740700  1
  F  F12  1  0.26681700  0.49591200  0.43779500  1
  F  F13  1  0.23318300  0.50408800  0.93779500  1
  F  F14  1  0.73318300  0.99591200  0.06220500  1
  F  F15  1  0.43779500  0.26681700  0.49591200  1
  F  F16  1  0.76681700  0.00408800  0.56220500  1
  F  F17  1  0.93779500  0.23318300  0.50408800  1
  F  F18  1  0.06220500  0.73318300  0.99591200  1
  F  F19  1  0.56220500  0.76681700  0.00408800  1
  F  F20  1  0.49591200  0.43779500  0.26681700  1
  F  F21  1  0.99591200  0.06220500  0.73318300  1
  F  F22  1  0.00408800  0.56220500  0.76681700  1
  F  F23  1  0.50408800  0.93779500  0.23318300  1
  F  F24  1  0.04511100  0.80604300  0.23005400  1
  F  F25  1  0.45488900  0.19395700  0.73005400  1
  F  F26  1  0.95488900  0.30604300  0.26994600  1
  F  F27  1  0.23005400  0.04511100  0.80604300  1
  F  F28  1  0.54511100  0.69395700  0.76994600  1
  F  F29  1  0.73005400  0.45488900  0.19395700  1
  F  F30  1  0.26994600  0.95488900  0.30604300  1
  F  F31  1  0.76994600  0.54511100  0.69395700  1
  F  F32  1  0.80604300  0.23005400  0.04511100  1
  F  F33  1  0.30604300  0.26994600  0.95488900  1
  F  F34  1  0.69395700  0.76994600  0.54511100  1
  F  F35  1  0.19395700  0.73005400  0.45488900  1
  F  F36  1  0.16339800  0.25617800  0.40160800  1
  F  F37  1  0.33660200  0.74382200  0.90160800  1
  F  F38  1  0.83660200  0.75617800  0.09839200  1
  F  F39  1  0.40160800  0.16339800  0.25617800  1
  F  F40  1  0.66339800  0.24382200  0.59839200  1
  F  F41  1  0.90160800  0.33660200  0.74382200  1
  F  F42  1  0.09839200  0.83660200  0.75617800  1
  F  F43  1  0.59839200  0.66339800  0.24382200  1
  F  F44  1  0.25617800  0.40160800  0.16339800  1
  F  F45  1  0.75617800  0.09839200  0.83660200  1
  F  F46  1  0.24382200  0.59839200  0.66339800  1
  F  F47  1  0.74382200  0.90160800  0.33660200  1
loop_
_geom_bond_atom_site_label_1
_geom_bond_atom_site_label_2
_geom_bond_distance
_geom_bond_site_symmetry_2
Be0 F36 1.551005 1_555
Be0 F17 1.566011 1_455
Be0 F0 1.569092 1_555
Be0 F26 1.572196 1_455
Be1 F37 1.551005 1_555
Be1 F19 1.566011 1_556
Be1 F1 1.569092 1_555
Be1 F28 1.572196 1_555
Be2 F38 1.551005 1_555
Be2 F18 1.566011 1_654
Be2 F2 1.569092 1_555
Be2 F24 1.572196 1_655
Be3 F39 1.551005 1_555
Be3 F23 1.566011 1_545
Be3 F3 1.569092 1_555
Be3 F30 1.572196 1_545
Be4 F40 1.551005 1_555
Be4 F15 1.566011 1_555
Be4 F4 1.569092 1_555
Be4 F25 1.572196 1_555
Be5 F41 1.551005 1_555
Be5 F22 1.566011 1_655
Be5 F5 1.569092 1_555
Be5 F31 1.572196 1_555
Be6 F42 1.551005 1_555
Be6 F21 1.566011 1_465
Be6 F6 1.569092 1_555
Be6 F27 1.572196 1_565
Be7 F43 1.551005 1_555
Be7 F20 1.566011 1_555
Be7 F7 1.569092 1_555
Be7 F29 1.572196 1_555
Be8 F44 1.551005 1_555
Be8 F13 1.566011 1_554
Be8 F8 1.569092 1_555
Be8 F33 1.572196 1_554
Be9 F45 1.551005 1_555
Be9 F14 1.566011 1_546
Be9 F9 1.569092 1_555
Be9 F32 1.572196 1_556
Be10 F46 1.551005 1_555
Be10 F12 1.566011 1_555
Be10 F10 1.569092 1_555
Be10 F35 1.572196 1_555
Be11 F47 1.551005 1_555
Be11 F16 1.566011 1_565
Be11 F11 1.569092 1_555
Be11 F34 1.572196 1_555
F0 Zn7 2.055809 1_545
F1 Zn6 2.055809 1_565
F2 Zn5 2.055809 1_555
F3 Zn6 2.055809 1_554
F4 Zn4 2.055809 1_555
F5 Zn5 2.055809 1_556
F6 Zn7 2.055809 1_555
F7 Zn4 2.055809 1_555
F8 Zn5 2.055809 1_455
F9 Zn6 2.055809 1_555
F10 Zn4 2.055809 1_555
F11 Zn7 2.055809 1_655
F12 Zn0 2.075878 1_555
F13 Zn1 2.075878 1_555
F14 Zn2 2.075878 1_555
F15 Zn0 2.075878 1_555
F16 Zn3 2.075878 1_555
F17 Zn3 2.075878 1_555
F18 Zn1 2.075878 1_555
F19 Zn2 2.075878 1_555
F20 Zn0 2.075878 1_555
F21 Zn3 2.075878 1_555
F22 Zn1 2.075878 1_555
F23 Zn2 2.075878 1_555
F24 Zn7 2.084518 1_555
F25 Zn6 2.084518 1_555
F26 Zn5 2.084518 1_555
F27 Zn6 2.084518 1_555
F28 Zn4 2.084518 1_555
F29 Zn5 2.084518 1_555
F30 Zn7 2.084518 1_555
F31 Zn4 2.084518 1_555
F32 Zn5 2.084518 1_555
F33 Zn6 2.084518 1_555
F34 Zn4 2.084518 1_555
F35 Zn7 2.084518 1_555
F36 Zn0 2.044765 1_555
F37 Zn1 2.044765 1_555
F38 Zn2 2.044765 1_555
F39 Zn0 2.044765 1_555
F40 Zn3 2.044765 1_555
F41 Zn3 2.044765 1_555
F42 Zn1 2.044765 1_555
F43 Zn2 2.044765 1_555
F44 Zn0 2.044765 1_555
F45 Zn3 2.044765 1_555
F46 Zn1 2.044765 1_555
F47 Zn2 2.044765 1_555
