# generated using pymatgen
data_Ho9Al5Se21
_symmetry_space_group_name_H-M   'P 1'
_cell_length_a   11.93810869
_cell_length_b   11.93810869
_cell_length_c   11.93810872
_cell_angle_alpha   93.90145158
_cell_angle_beta   93.90145158
_cell_angle_gamma   93.90145363
_symmetry_Int_Tables_number   1
_chemical_formula_structural   Ho9Al5Se21
_chemical_formula_sum   'Ho18 Al10 Se42'
_cell_volume   1689.00452648
_cell_formula_units_Z   2
loop_
 _symmetry_equiv_pos_site_id
 _symmetry_equiv_pos_as_xyz
  1  'x, y, z'
loop_
 _atom_site_type_symbol
 _atom_site_label
 _atom_site_symmetry_multiplicity
 _atom_site_fract_x
 _atom_site_fract_y
 _atom_site_fract_z
 _atom_site_occupancy
  Ho  Ho0  1  0.11959800  0.88724300  0.26155000  1
  Ho  Ho1  1  0.77614100  0.54612500  0.92714900  1
  Ho  Ho2  1  0.45058600  0.23207800  0.60329500  1
  Ho  Ho3  1  0.23207800  0.60329500  0.45058600  1
  Ho  Ho4  1  0.88724300  0.26155000  0.11959800  1
  Ho  Ho5  1  0.54612500  0.92714900  0.77614100  1
  Ho  Ho6  1  0.92714900  0.77614100  0.54612500  1
  Ho  Ho7  1  0.60329500  0.45058600  0.23207800  1
  Ho  Ho8  1  0.26155000  0.11959800  0.88724300  1
  Ho  Ho9  1  0.56513400  0.79103800  0.41662900  1
  Ho  Ho10  1  0.22312900  0.45338400  0.07194700  1
  Ho  Ho11  1  0.90141500  0.12648500  0.75522400  1
  Ho  Ho12  1  0.45338400  0.07194700  0.22312900  1
  Ho  Ho13  1  0.12648500  0.75522400  0.90141500  1
  Ho  Ho14  1  0.79103800  0.41662900  0.56513400  1
  Ho  Ho15  1  0.75522400  0.90141500  0.12648500  1
  Ho  Ho16  1  0.41662900  0.56513400  0.79103800  1
  Ho  Ho17  1  0.07194700  0.22312900  0.45338400  1
  Al  Al0  1  0.61343500  0.28052100  0.95153100  1
  Al  Al1  1  0.28052100  0.95153100  0.61343500  1
  Al  Al2  1  0.95153100  0.61343500  0.28052100  1
  Al  Al3  1  0.77765100  0.11755700  0.45086300  1
  Al  Al4  1  0.45086300  0.77765100  0.11755700  1
  Al  Al5  1  0.11755700  0.45086300  0.77765100  1
  Al  Al6  1  0.14111600  0.14111600  0.14111600  1
  Al  Al7  1  0.82686000  0.82686000  0.82686000  1
  Al  Al8  1  0.32717100  0.32717100  0.32717100  1
  Al  Al9  1  0.64105800  0.64105800  0.64105800  1
  Se  Se0  1  0.48997700  0.15716900  0.82610600  1
  Se  Se1  1  0.15716900  0.82610600  0.48997700  1
  Se  Se2  1  0.82610600  0.48997700  0.15716900  1
  Se  Se3  1  0.99116300  0.32511800  0.65781200  1
  Se  Se4  1  0.65781200  0.99116300  0.32511800  1
  Se  Se5  1  0.32511800  0.65781200  0.99116300  1
  Se  Se6  1  0.55264800  0.46463700  0.99123500  1
  Se  Se7  1  0.21820500  0.13545000  0.64794900  1
  Se  Se8  1  0.89361100  0.80103500  0.30977500  1
  Se  Se9  1  0.80103500  0.30977500  0.89361100  1
  Se  Se10  1  0.46463700  0.99123500  0.55264800  1
  Se  Se11  1  0.13545000  0.64794900  0.21820500  1
  Se  Se12  1  0.64794900  0.21820500  0.13545000  1
  Se  Se13  1  0.30977500  0.89361100  0.80103500  1
  Se  Se14  1  0.99123500  0.55264800  0.46463700  1
  Se  Se15  1  0.94058700  0.03523300  0.52625600  1
  Se  Se16  1  0.61869100  0.70262200  0.18976000  1
  Se  Se17  1  0.28547200  0.37066800  0.84618300  1
  Se  Se18  1  0.70262200  0.18976000  0.61869100  1
  Se  Se19  1  0.37066800  0.84618300  0.28547200  1
  Se  Se20  1  0.03523300  0.52625600  0.94058700  1
  Se  Se21  1  0.84618300  0.28547200  0.37066800  1
  Se  Se22  1  0.52625600  0.94058700  0.03523300  1
  Se  Se23  1  0.18976000  0.61869100  0.70262200  1
  Se  Se24  1  0.58675100  0.43954600  0.68948400  1
  Se  Se25  1  0.23878500  0.10368300  0.33676600  1
  Se  Se26  1  0.89938700  0.75982500  0.00487200  1
  Se  Se27  1  0.75982500  0.00487200  0.89938700  1
  Se  Se28  1  0.43954600  0.68948400  0.58675100  1
  Se  Se29  1  0.10368300  0.33676600  0.23878500  1
  Se  Se30  1  0.33676600  0.23878500  0.10368300  1
  Se  Se31  1  0.00487200  0.89938700  0.75982500  1
  Se  Se32  1  0.68948400  0.58675100  0.43954600  1
  Se  Se33  1  0.71371900  0.84902800  0.61642000  1
  Se  Se34  1  0.37837300  0.51588100  0.27035500  1
  Se  Se35  1  0.05529300  0.20441800  0.95484600  1
  Se  Se36  1  0.51588100  0.27035500  0.37837300  1
  Se  Se37  1  0.20441800  0.95484600  0.05529300  1
  Se  Se38  1  0.84902800  0.61642000  0.71371900  1
  Se  Se39  1  0.95484600  0.05529300  0.20441800  1
  Se  Se40  1  0.61642000  0.71371900  0.84902800  1
  Se  Se41  1  0.27035500  0.37837300  0.51588100  1
loop_
_geom_bond_atom_site_label_1
_geom_bond_atom_site_label_2
_geom_bond_distance
_geom_bond_site_symmetry_2
Ho0 Se37 2.870225 1_555
Ho0 Se1 2.884315 1_555
Ho0 Se11 2.889662 1_555
Ho0 Se25 2.918458 1_565
Ho0 Se8 2.929712 1_455
Ho0 Se39 2.983127 1_465
Ho0 Se19 3.067270 1_555
Ho1 Se9 2.861200 1_555
Ho1 Se2 2.903038 1_556
Ho1 Se38 2.906325 1_555
Ho1 Se26 2.918137 1_556
Ho1 Se6 2.945541 1_555
Ho1 Se40 3.006598 1_555
Ho1 Se20 3.112325 1_655
Ho1 Se24 3.609050 1_555
Ho2 Se0 2.882162 1_555
Ho2 Se36 2.903403 1_555
Ho2 Se10 2.916061 1_545
Ho2 Se24 2.951823 1_555
Ho2 Se7 3.026622 1_555
Ho2 Se41 3.036859 1_555
Ho2 Se18 3.079986 1_555
Ho3 Se1 2.882162 1_555
Ho3 Se41 2.903403 1_555
Ho3 Se14 2.916061 1_455
Ho3 Se28 2.951823 1_555
Ho3 Se11 3.026622 1_555
Ho3 Se34 3.036859 1_555
Ho3 Se23 3.079986 1_555
Ho4 Se39 2.870225 1_555
Ho4 Se2 2.884315 1_555
Ho4 Se12 2.889662 1_555
Ho4 Se29 2.918458 1_655
Ho4 Se9 2.929712 1_554
Ho4 Se35 2.983127 1_654
Ho4 Se21 3.067270 1_555
Ho5 Se13 2.861200 1_555
Ho5 Se0 2.903038 1_565
Ho5 Se40 2.906325 1_555
Ho5 Se27 2.918137 1_565
Ho5 Se10 2.945541 1_555
Ho5 Se33 3.006598 1_555
Ho5 Se22 3.112325 1_556
Ho5 Se28 3.609050 1_555
Ho6 Se8 2.861200 1_555
Ho6 Se1 2.903038 1_655
Ho6 Se33 2.906325 1_555
Ho6 Se31 2.918137 1_655
Ho6 Se14 2.945541 1_555
Ho6 Se38 3.006598 1_555
Ho6 Se15 3.112325 1_565
Ho6 Se32 3.609050 1_555
Ho7 Se2 2.882162 1_555
Ho7 Se34 2.903403 1_555
Ho7 Se6 2.916061 1_554
Ho7 Se32 2.951823 1_555
Ho7 Se12 3.026622 1_555
Ho7 Se36 3.036859 1_555
Ho7 Se16 3.079986 1_555
Ho8 Se35 2.870225 1_555
Ho8 Se0 2.884315 1_555
Ho8 Se7 2.889662 1_555
Ho8 Se30 2.918459 1_556
Ho8 Se13 2.929712 1_545
Ho8 Se37 2.983126 1_546
Ho8 Se17 3.067270 1_555
Ho9 Se19 2.851006 1_555
Ho9 Se4 2.878442 1_555
Ho9 Se28 2.888675 1_555
Ho9 Se33 2.889119 1_555
Ho9 Se32 2.958808 1_555
Ho9 Se16 2.965929 1_555
Ho9 Se10 3.148858 1_555
Ho10 Se20 2.867081 1_554
Ho10 Se29 2.903832 1_555
Ho10 Se5 2.905891 1_554
Ho10 Se34 2.928442 1_555
Ho10 Se17 2.967138 1_554
Ho10 Se30 3.013700 1_555
Ho10 Se11 3.093068 1_555
Ho10 Se35 3.611896 1_554
Ho11 Se3 2.884869 1_555
Ho11 Se27 2.885979 1_555
Ho11 Se15 2.952153 1_555
Ho11 Se18 2.957123 1_555
Ho11 Se35 2.964690 1_655
Ho11 Se9 3.014572 1_555
Ho11 Se31 3.057010 1_645
Ho12 Se22 2.867081 1_545
Ho12 Se30 2.903832 1_555
Ho12 Se4 2.905891 1_545
Ho12 Se36 2.928442 1_555
Ho12 Se19 2.967138 1_545
Ho12 Se25 3.013700 1_555
Ho12 Se12 3.093068 1_555
Ho12 Se37 3.611896 1_545
Ho13 Se5 2.884869 1_555
Ho13 Se31 2.885979 1_555
Ho13 Se20 2.952153 1_555
Ho13 Se23 2.957123 1_555
Ho13 Se37 2.964690 1_556
Ho13 Se13 3.014572 1_555
Ho13 Se26 3.057010 1_456
Ho14 Se21 2.851006 1_555
Ho14 Se3 2.878442 1_555
Ho14 Se32 2.888675 1_555
Ho14 Se38 2.889119 1_555
Ho14 Se24 2.958808 1_555
Ho14 Se18 2.965929 1_555
Ho14 Se14 3.148858 1_555
Ho15 Se4 2.884869 1_555
Ho15 Se26 2.885979 1_555
Ho15 Se22 2.952153 1_555
Ho15 Se16 2.957123 1_555
Ho15 Se39 2.964690 1_565
Ho15 Se8 3.014572 1_555
Ho15 Se27 3.057010 1_564
Ho16 Se17 2.851006 1_555
Ho16 Se5 2.878442 1_555
Ho16 Se24 2.888675 1_555
Ho16 Se40 2.889119 1_555
Ho16 Se28 2.958808 1_555
Ho16 Se23 2.965929 1_555
Ho16 Se6 3.148858 1_555
Ho17 Se15 2.867081 1_455
Ho17 Se25 2.903832 1_555
Ho17 Se3 2.905891 1_455
Ho17 Se41 2.928442 1_555
Ho17 Se21 2.967138 1_455
Ho17 Se29 3.013700 1_555
Ho17 Se7 3.093068 1_555
Ho17 Se39 3.611896 1_455
Al0 Se12 2.384313 1_556
Al0 Se0 2.384759 1_555
Al0 Se6 2.388422 1_555
Al0 Se9 2.398540 1_555
Al1 Se7 2.384313 1_565
Al1 Se1 2.384759 1_555
Al1 Se10 2.388422 1_555
Al1 Se13 2.398540 1_555
Al2 Se11 2.384313 1_655
Al2 Se2 2.384759 1_555
Al2 Se14 2.388422 1_555
Al2 Se8 2.398540 1_555
Al3 Se18 2.381962 1_555
Al3 Se4 2.383858 1_545
Al3 Se15 2.387854 1_555
Al3 Se21 2.397680 1_555
Al4 Se16 2.381962 1_555
Al4 Se5 2.383858 1_554
Al4 Se22 2.387854 1_555
Al4 Se19 2.397680 1_555
Al5 Se23 2.381962 1_555
Al5 Se3 2.383858 1_455
Al5 Se20 2.387854 1_555
Al5 Se17 2.397680 1_555
Al6 Se39 2.567045 1_455
Al6 Se35 2.567045 1_554
Al6 Se37 2.567045 1_545
Al6 Se30 2.618590 1_555
Al6 Se25 2.618590 1_555
Al6 Se29 2.618590 1_555
Al7 Se31 2.445731 1_655
Al7 Se26 2.445731 1_556
Al7 Se27 2.445731 1_565
Al7 Se40 2.807700 1_555
Al7 Se33 2.807701 1_555
Al7 Se38 2.807701 1_555
Al8 Se34 2.446619 1_555
Al8 Se41 2.446619 1_555
Al8 Se36 2.446619 1_555
Al8 Se25 2.814210 1_555
Al8 Se29 2.814210 1_555
Al8 Se30 2.814210 1_555
Al9 Se24 2.563166 1_555
Al9 Se32 2.563166 1_555
Al9 Se28 2.563166 1_555
Al9 Se33 2.616127 1_555
Al9 Se40 2.616127 1_555
Al9 Se38 2.616127 1_555
