# generated using pymatgen
data_HfMg6Cd
_symmetry_space_group_name_H-M   'P 1'
_cell_length_a   5.05102800
_cell_length_b   6.25881400
_cell_length_c   11.18699000
_cell_angle_alpha   90.00000000
_cell_angle_beta   90.00000000
_cell_angle_gamma   90.00000000
_symmetry_Int_Tables_number   1
_chemical_formula_structural   HfMg6Cd
_chemical_formula_sum   'Hf2 Mg12 Cd2'
_cell_volume   353.65929040
_cell_formula_units_Z   2
loop_
 _symmetry_equiv_pos_site_id
 _symmetry_equiv_pos_as_xyz
  1  'x, y, z'
loop_
 _atom_site_type_symbol
 _atom_site_label
 _atom_site_symmetry_multiplicity
 _atom_site_fract_x
 _atom_site_fract_y
 _atom_site_fract_z
 _atom_site_occupancy
  Hf  Hf0  1  0.50000000  0.00000000  0.66960800  1
  Hf  Hf1  1  0.50000000  0.50000000  0.16960800  1
  Mg  Mg0  1  0.50000000  0.75234200  0.91863800  1
  Mg  Mg1  1  0.50000000  0.24765800  0.91863800  1
  Mg  Mg2  1  0.00000000  0.24452300  0.58374800  1
  Mg  Mg3  1  0.00000000  0.75547700  0.58374800  1
  Mg  Mg4  1  0.00000000  0.50000000  0.83167000  1
  Mg  Mg5  1  0.00000000  0.00000000  0.82887700  1
  Mg  Mg6  1  0.50000000  0.25234200  0.41863800  1
  Mg  Mg7  1  0.50000000  0.74765800  0.41863800  1
  Mg  Mg8  1  0.00000000  0.74452300  0.08374800  1
  Mg  Mg9  1  0.00000000  0.25547700  0.08374800  1
  Mg  Mg10  1  0.00000000  0.00000000  0.33167000  1
  Mg  Mg11  1  0.00000000  0.50000000  0.32887700  1
  Cd  Cd0  1  0.50000000  0.50000000  0.66507000  1
  Cd  Cd1  1  0.50000000  0.00000000  0.16507000  1
loop_
_geom_bond_atom_site_label_1
_geom_bond_atom_site_label_2
_geom_bond_distance
_geom_bond_site_symmetry_2
Hf0 Mg5 3.090764 1_655
Hf0 Mg5 3.090764 1_555
Hf0 Mg2 3.105319 1_555
Hf0 Mg2 3.105319 1_655
Hf0 Mg3 3.105319 1_545
Hf0 Mg3 3.105319 1_645
Hf0 Mg0 3.188081 1_545
Hf0 Mg1 3.188081 1_555
Hf0 Mg7 3.221334 1_545
Hf0 Mg6 3.221334 1_555
Hf1 Mg11 3.090764 1_555
Hf1 Mg11 3.090764 1_655
Hf1 Mg9 3.105319 1_655
Hf1 Mg9 3.105319 1_555
Hf1 Mg8 3.105319 1_655
Hf1 Mg8 3.105319 1_555
Hf1 Mg7 3.188081 1_555
Hf1 Mg6 3.188081 1_555
Hf1 Mg0 3.221334 1_554
Hf1 Mg1 3.221334 1_554
Mg0 Mg1 3.100091 1_565
Mg0 Mg5 3.128768 1_665
Mg0 Mg5 3.128768 1_565
Mg0 Mg8 3.129271 1_656
Mg0 Mg8 3.129271 1_556
Mg0 Mg4 3.133554 1_555
Mg0 Mg4 3.133554 1_655
Mg0 Mg1 3.158723 1_555
Mg1 Mg5 3.128768 1_555
Mg1 Mg5 3.128768 1_655
Mg1 Mg9 3.129271 1_656
Mg1 Mg9 3.129271 1_556
Mg1 Mg4 3.133554 1_655
Mg1 Mg4 3.133554 1_555
Mg2 Mg3 3.060848 1_545
Mg2 Mg6 3.129271 1_455
Mg2 Mg6 3.129271 1_555
Mg2 Mg5 3.140408 1_555
Mg2 Mg3 3.197966 1_555
Mg2 Mg4 3.201414 1_555
Mg3 Mg7 3.129271 1_455
Mg3 Mg7 3.129271 1_555
Mg3 Mg5 3.140408 1_565
Mg3 Mg4 3.201414 1_555
Mg4 Mg5 3.129563 1_555
Mg4 Mg5 3.129563 1_565
Mg4 Mg8 3.208514 1_556
Mg4 Mg9 3.208514 1_556
Mg5 Mg9 3.268993 1_556
Mg5 Mg8 3.268993 1_546
Mg6 Mg7 3.100091 1_555
Mg6 Mg7 3.158723 1_545
Mg8 Mg9 3.060848 1_555
Mg8 Mg9 3.197966 1_565
Mg10 Mg11 3.129563 1_545
Mg10 Mg11 3.129563 1_555
Mg10 Mg6 3.133554 1_555
Mg10 Mg6 3.133554 1_455
Mg10 Mg7 3.133554 1_545
Mg10 Mg7 3.133554 1_445
Mg10 Mg8 3.201414 1_545
Mg10 Mg9 3.201414 1_555
Mg10 Mg2 3.208514 1_555
Mg10 Mg3 3.208514 1_545
Mg11 Mg7 3.128768 1_555
Mg11 Mg6 3.128768 1_455
Mg11 Mg6 3.128768 1_555
Mg11 Mg7 3.128768 1_455
Mg11 Mg8 3.140408 1_555
Mg11 Mg9 3.140408 1_555
Mg11 Mg3 3.268993 1_555
Mg11 Mg2 3.268993 1_555
Cd0 Mg2 3.124518 1_555
Cd0 Mg3 3.124518 1_655
Cd0 Mg2 3.124518 1_655
Cd0 Mg3 3.124518 1_555
Cd0 Hf0 3.129819 1_565
Cd0 Hf0 3.129819 1_555
Cd0 Mg4 3.138757 1_655
Cd0 Mg4 3.138757 1_555
Cd0 Mg6 3.162715 1_555
Cd0 Mg7 3.162715 1_555
Cd0 Mg0 3.246697 1_555
Cd0 Mg1 3.246697 1_555
Cd1 Mg8 3.124518 1_545
Cd1 Mg8 3.124518 1_645
Cd1 Mg9 3.124518 1_555
Cd1 Mg9 3.124518 1_655
Cd1 Hf1 3.129819 1_545
Cd1 Hf1 3.129819 1_555
Cd1 Mg10 3.138757 1_655
Cd1 Mg10 3.138757 1_555
Cd1 Mg1 3.162715 1_554
Cd1 Mg0 3.162715 1_544
Cd1 Mg7 3.246697 1_545
Cd1 Mg6 3.246697 1_555
