# generated using pymatgen
data_In(Mo3S4)2
_symmetry_space_group_name_H-M   'P 1'
_cell_length_a   6.58636664
_cell_length_b   6.58636664
_cell_length_c   6.58636617
_cell_angle_alpha   89.99083394
_cell_angle_beta   89.99083394
_cell_angle_gamma   89.99083467
_symmetry_Int_Tables_number   1
_chemical_formula_structural   In(Mo3S4)2
_chemical_formula_sum   'In1 Mo6 S8'
_cell_volume   285.71803880
_cell_formula_units_Z   1
loop_
 _symmetry_equiv_pos_site_id
 _symmetry_equiv_pos_as_xyz
  1  'x, y, z'
loop_
 _atom_site_type_symbol
 _atom_site_label
 _atom_site_symmetry_multiplicity
 _atom_site_fract_x
 _atom_site_fract_y
 _atom_site_fract_z
 _atom_site_occupancy
  In  In0  1  0.00000000  0.00000000  0.00000000  1
  Mo  Mo0  1  0.77593900  0.58538800  0.44028200  1
  Mo  Mo1  1  0.44028200  0.77593900  0.58538800  1
  Mo  Mo2  1  0.58538800  0.44028200  0.77593900  1
  Mo  Mo3  1  0.22406100  0.41461200  0.55971800  1
  Mo  Mo4  1  0.55971800  0.22406100  0.41461200  1
  Mo  Mo5  1  0.41461200  0.55971800  0.22406100  1
  S  S0  1  0.75998600  0.75998600  0.75998600  1
  S  S1  1  0.24001400  0.24001400  0.24001400  1
  S  S2  1  0.26379800  0.61963400  0.87226800  1
  S  S3  1  0.87226800  0.26379800  0.61963400  1
  S  S4  1  0.61963400  0.87226800  0.26379800  1
  S  S5  1  0.73620200  0.38036600  0.12773200  1
  S  S6  1  0.12773200  0.73620200  0.38036600  1
  S  S7  1  0.38036600  0.12773200  0.73620200  1
loop_
_geom_bond_atom_site_label_1
_geom_bond_atom_site_label_2
_geom_bond_distance
_geom_bond_site_symmetry_2
In0 S1 2.738499 1_555
In0 S0 2.738499 1_444
In0 S6 3.162525 1_545
In0 S3 3.162525 1_454
In0 S4 3.162525 1_445
In0 S7 3.162525 1_554
In0 S2 3.162525 1_544
In0 S5 3.162525 1_455
Mo0 S0 2.401676 1_555
Mo0 S4 2.445452 1_555
Mo0 S5 2.476050 1_555
Mo0 S3 2.506662 1_555
Mo0 S6 2.551743 1_655
Mo1 S0 2.401676 1_555
Mo1 S2 2.445452 1_555
Mo1 S6 2.476050 1_555
Mo1 S4 2.506662 1_555
Mo1 S7 2.551743 1_565
Mo2 S0 2.401676 1_555
Mo2 S3 2.445452 1_555
Mo2 S7 2.476050 1_555
Mo2 S2 2.506662 1_555
Mo2 S5 2.551743 1_556
Mo3 S1 2.401676 1_555
Mo3 S7 2.445452 1_555
Mo3 S2 2.476050 1_555
Mo3 S6 2.506662 1_555
Mo3 S3 2.551743 1_455
Mo4 S1 2.401676 1_555
Mo4 S5 2.445452 1_555
Mo4 S3 2.476050 1_555
Mo4 S7 2.506662 1_555
Mo4 S4 2.551743 1_545
Mo5 S1 2.401676 1_555
Mo5 S6 2.445452 1_555
Mo5 S4 2.476050 1_555
Mo5 S5 2.506662 1_555
Mo5 S2 2.551743 1_554
