# generated using pymatgen
data_Ba6NaNd(SiO4)4
_symmetry_space_group_name_H-M   'P 1'
_cell_length_a   5.78340600
_cell_length_b   7.45388900
_cell_length_c   20.33386500
_cell_angle_alpha   90.00000000
_cell_angle_beta   90.00000000
_cell_angle_gamma   90.00000000
_symmetry_Int_Tables_number   1
_chemical_formula_structural   Ba6NaNd(SiO4)4
_chemical_formula_sum   'Ba12 Na2 Nd2 Si8 O32'
_cell_volume   876.56986899
_cell_formula_units_Z   2
loop_
 _symmetry_equiv_pos_site_id
 _symmetry_equiv_pos_as_xyz
  1  'x, y, z'
loop_
 _atom_site_type_symbol
 _atom_site_label
 _atom_site_symmetry_multiplicity
 _atom_site_fract_x
 _atom_site_fract_y
 _atom_site_fract_z
 _atom_site_occupancy
  Ba  Ba0  1  0.50000000  0.67130100  0.02878600  1
  Ba  Ba1  1  0.50000000  0.17130100  0.97121400  1
  Ba  Ba2  1  0.50000000  0.00495800  0.16984000  1
  Ba  Ba3  1  0.50000000  0.50495800  0.83016000  1
  Ba  Ba4  1  0.00000000  0.66181600  0.24310200  1
  Ba  Ba5  1  0.00000000  0.16181600  0.75689800  1
  Ba  Ba6  1  0.00000000  0.32388800  0.08649800  1
  Ba  Ba7  1  0.00000000  0.82388800  0.91350200  1
  Ba  Ba8  1  0.00000000  0.99839900  0.41233300  1
  Ba  Ba9  1  0.00000000  0.49839900  0.58766700  1
  Ba  Ba10  1  0.50000000  0.82096400  0.67028200  1
  Ba  Ba11  1  0.50000000  0.32096400  0.32971800  1
  Na  Na0  1  0.00000000  0.65678600  0.74718400  1
  Na  Na1  1  0.00000000  0.15678600  0.25281600  1
  Nd  Nd0  1  0.50000000  0.66772300  0.47507500  1
  Nd  Nd1  1  0.50000000  0.16772300  0.52492500  1
  Si  Si0  1  0.00000000  0.94230100  0.57679100  1
  Si  Si1  1  0.00000000  0.44230100  0.42320900  1
  Si  Si2  1  0.00000000  0.88583400  0.08770400  1
  Si  Si3  1  0.00000000  0.38583400  0.91229600  1
  Si  Si4  1  0.50000000  0.44081300  0.17156600  1
  Si  Si5  1  0.50000000  0.94081300  0.82843400  1
  Si  Si6  1  0.50000000  0.87948600  0.34095700  1
  Si  Si7  1  0.50000000  0.37948600  0.65904300  1
  O  O0  1  0.75680800  0.87424600  0.53786600  1
  O  O1  1  0.24319200  0.37424600  0.46213400  1
  O  O2  1  0.75680800  0.37424600  0.46213400  1
  O  O3  1  0.24319200  0.87424600  0.53786600  1
  O  O4  1  0.50000000  0.66364200  0.35798600  1
  O  O5  1  0.50000000  0.16364200  0.64201400  1
  O  O6  1  0.00000000  0.65984600  0.42899700  1
  O  O7  1  0.00000000  0.15984600  0.57100300  1
  O  O8  1  0.50000000  0.66021600  0.17355300  1
  O  O9  1  0.50000000  0.16021600  0.82644700  1
  O  O10  1  0.50000000  0.97334100  0.41773900  1
  O  O11  1  0.50000000  0.47334100  0.58226100  1
  O  O12  1  0.76788500  0.97159200  0.05224600  1
  O  O13  1  0.23211500  0.47159200  0.94775400  1
  O  O14  1  0.76788500  0.47159200  0.94775400  1
  O  O15  1  0.23211500  0.97159200  0.05224600  1
  O  O16  1  0.73071100  0.95208800  0.30293300  1
  O  O17  1  0.26928900  0.45208800  0.69706700  1
  O  O18  1  0.73071100  0.45208800  0.69706700  1
  O  O19  1  0.26928900  0.95208800  0.30293300  1
  O  O20  1  0.72984300  0.35825400  0.20950000  1
  O  O21  1  0.27015700  0.85825400  0.79050000  1
  O  O22  1  0.72984300  0.85825400  0.79050000  1
  O  O23  1  0.27015700  0.35825400  0.20950000  1
  O  O24  1  0.50000000  0.35982900  0.09543100  1
  O  O25  1  0.50000000  0.85982900  0.90456900  1
  O  O26  1  0.00000000  0.85104100  0.64977600  1
  O  O27  1  0.00000000  0.35104100  0.35022400  1
  O  O28  1  0.00000000  0.66685700  0.08167200  1
  O  O29  1  0.00000000  0.16685700  0.91832800  1
  O  O30  1  0.00000000  0.95500000  0.16518300  1
  O  O31  1  0.00000000  0.45500000  0.83481700  1
loop_
_geom_bond_atom_site_label_1
_geom_bond_atom_site_label_2
_geom_bond_distance
_geom_bond_site_symmetry_2
Ba0 O24 2.688237 1_555
Ba0 O13 2.707608 1_554
Ba0 O14 2.707608 1_554
Ba0 O12 2.763693 1_555
Ba0 O15 2.763693 1_555
Ba0 O25 2.890415 1_554
Ba0 O8 2.944832 1_555
Ba0 O28 3.085365 1_555
Ba0 O28 3.085365 1_655
Ba1 O25 2.688237 1_545
Ba1 O12 2.707608 1_546
Ba1 O15 2.707608 1_546
Ba1 O13 2.763693 1_555
Ba1 O14 2.763693 1_555
Ba1 O24 2.890415 1_556
Ba1 O9 2.944832 1_555
Ba1 O29 3.085365 1_555
Ba1 O29 3.085365 1_655
Ba2 O8 2.570777 1_545
Ba2 O15 2.860018 1_545
Ba2 O12 2.860018 1_545
Ba2 O30 2.917119 1_545
Ba2 O30 2.917119 1_645
Ba2 O16 3.042973 1_545
Ba2 O19 3.042973 1_545
Ba2 O24 3.047320 1_555
Ba2 O23 3.058148 1_555
Ba2 O20 3.058148 1_555
Ba3 O9 2.570777 1_555
Ba3 O14 2.860018 1_555
Ba3 O13 2.860018 1_555
Ba3 O31 2.917119 1_555
Ba3 O31 2.917119 1_655
Ba3 O17 3.042973 1_555
Ba3 O18 3.042973 1_555
Ba3 O25 3.047320 1_555
Ba3 O22 3.058148 1_555
Ba3 O21 3.058148 1_555
Ba4 O30 2.699279 1_555
Ba4 O23 2.833357 1_555
Ba4 O20 2.833357 1_455
Ba4 O16 2.930363 1_455
Ba4 O19 2.930363 1_555
Ba4 O27 3.179727 1_555
Ba4 O8 3.219014 1_555
Ba4 O8 3.219014 1_455
Ba4 O28 3.282711 1_555
Ba5 O31 2.699279 1_555
Ba5 O21 2.833357 1_545
Ba5 O22 2.833357 1_445
Ba5 O17 2.930363 1_555
Ba5 O18 2.930363 1_455
Ba5 O26 3.179727 1_545
Ba5 O9 3.219014 1_455
Ba5 O9 3.219014 1_555
Ba5 O29 3.282711 1_555
Ba6 O28 2.558336 1_555
Ba6 O24 2.909761 1_555
Ba6 O24 2.909761 1_455
Ba6 O23 2.960123 1_555
Ba6 O20 2.960123 1_455
Ba6 O12 3.030331 1_445
Ba6 O15 3.030331 1_545
Ba6 O30 3.181270 1_545
Ba6 O14 3.312611 1_454
Ba6 O13 3.312611 1_554
Ba7 O29 2.558336 1_565
Ba7 O25 2.909761 1_555
Ba7 O25 2.909761 1_455
Ba7 O22 2.960123 1_455
Ba7 O21 2.960123 1_555
Ba7 O14 3.030331 1_455
Ba7 O13 3.030331 1_555
Ba7 O31 3.181270 1_555
Ba7 O12 3.312611 1_456
Ba7 O15 3.312611 1_556
Ba8 O6 2.546184 1_555
Ba8 O16 2.737369 1_455
Ba8 O19 2.737369 1_555
Ba8 O10 2.899813 1_555
Ba8 O10 2.899813 1_455
Ba8 O27 2.916206 1_565
Ba9 O7 2.546184 1_555
Ba9 O17 2.737369 1_555
Ba9 O18 2.737369 1_455
Ba9 O11 2.899813 1_455
Ba9 O11 2.899813 1_555
Ba9 O26 2.916206 1_555
Ba10 O5 2.618159 1_565
Ba10 O22 2.796390 1_555
Ba10 O21 2.796390 1_555
Ba10 O26 2.930199 1_555
Ba10 O26 2.930199 1_655
Ba10 O3 3.100539 1_555
Ba10 O0 3.100539 1_555
Ba10 O17 3.104362 1_555
Ba10 O18 3.104362 1_555
Ba10 O11 3.149196 1_555
Ba11 O4 2.618159 1_555
Ba11 O23 2.796390 1_555
Ba11 O20 2.796390 1_555
Ba11 O27 2.930199 1_555
Ba11 O27 2.930199 1_655
Ba11 O2 3.100539 1_555
Ba11 O1 3.100539 1_555
Ba11 O16 3.104362 1_545
Ba11 O19 3.104362 1_545
Ba11 O10 3.149196 1_545
Na0 O31 2.331849 1_555
Na0 O22 2.339256 1_455
Na0 O21 2.339256 1_555
Na0 O17 2.406674 1_555
Na0 O18 2.406674 1_455
Na0 O26 2.453502 1_555
Na1 O30 2.331849 1_545
Na1 O20 2.339256 1_455
Na1 O23 2.339256 1_555
Na1 O16 2.406674 1_445
Na1 O19 2.406674 1_545
Na1 O27 2.453502 1_555
Nd0 O4 2.381066 1_555
Nd0 O3 2.491148 1_555
Nd0 O0 2.491148 1_555
Nd0 O10 2.559045 1_555
Nd0 O11 2.617167 1_555
Nd0 O2 2.657158 1_555
Nd0 O1 2.657158 1_555
Nd0 O6 3.040273 1_555
Nd0 O6 3.040273 1_655
Nd1 O5 2.381066 1_555
Nd1 O1 2.491148 1_555
Nd1 O2 2.491148 1_555
Nd1 O11 2.559045 1_555
Nd1 O10 2.617167 1_545
Nd1 O0 2.657158 1_545
Nd1 O3 2.657158 1_545
Nd1 O7 3.040273 1_555
Nd1 O7 3.040273 1_655
O0 Si0 1.691737 1_655
O1 Si1 1.691737 1_555
O2 Si1 1.691737 1_655
O3 Si0 1.691737 1_555
O4 Si6 1.645717 1_555
O5 Si7 1.645717 1_555
O6 Si1 1.625822 1_555
O7 Si0 1.625822 1_545
O8 Si4 1.635905 1_555
O9 Si5 1.635905 1_545
O10 Si6 1.710847 1_555
O11 Si7 1.710847 1_555
O12 Si2 1.652432 1_655
O13 Si3 1.652432 1_555
O14 Si3 1.652432 1_655
O15 Si2 1.652432 1_555
O16 Si6 1.634321 1_555
O17 Si7 1.634321 1_555
O18 Si7 1.634321 1_555
O19 Si6 1.634321 1_555
O20 Si4 1.655489 1_555
O21 Si5 1.655489 1_555
O22 Si5 1.655489 1_555
O23 Si4 1.655489 1_555
O24 Si4 1.661644 1_555
O25 Si5 1.661644 1_555
O26 Si0 1.632539 1_555
O27 Si1 1.632539 1_555
O28 Si2 1.636832 1_555
O29 Si3 1.636832 1_555
O30 Si2 1.657659 1_555
O31 Si3 1.657659 1_555
