# generated using pymatgen
data_ZnS
_symmetry_space_group_name_H-M   'P 1'
_cell_length_a   13.39543514
_cell_length_b   13.93740409
_cell_length_c   13.08936754
_cell_angle_alpha   86.68242368
_cell_angle_beta   90.13681641
_cell_angle_gamma   91.44004179
_symmetry_Int_Tables_number   1
_chemical_formula_structural   ZnS
_chemical_formula_sum   'Zn50 S50'
_cell_volume   2438.88636813
_cell_formula_units_Z   50
loop_
 _symmetry_equiv_pos_site_id
 _symmetry_equiv_pos_as_xyz
  1  'x, y, z'
loop_
 _atom_site_type_symbol
 _atom_site_label
 _atom_site_symmetry_multiplicity
 _atom_site_fract_x
 _atom_site_fract_y
 _atom_site_fract_z
 _atom_site_occupancy
  Zn  Zn0  1  0.29406575  0.30982152  0.15477046  1
  Zn  Zn1  1  0.52107394  0.29225811  0.65883478  1
  Zn  Zn2  1  0.72711885  0.17331829  0.65551957  1
  Zn  Zn3  1  0.81986159  0.97953816  0.00611114  1
  Zn  Zn4  1  0.31080260  0.31235654  0.43236034  1
  Zn  Zn5  1  0.70960883  0.73528169  0.23510416  1
  Zn  Zn6  1  0.80218580  0.98364920  0.22132216  1
  Zn  Zn7  1  0.99299401  0.24316915  0.43938616  1
  Zn  Zn8  1  0.80586409  0.81073591  0.74915395  1
  Zn  Zn9  1  0.11209083  0.00130005  0.13110247  1
  Zn  Zn10  1  0.55778739  0.07882431  0.05497466  1
  Zn  Zn11  1  0.79947907  0.48013569  0.86348426  1
  Zn  Zn12  1  0.15100173  0.46705328  0.66059802  1
  Zn  Zn13  1  0.86587006  0.79792660  0.06836779  1
  Zn  Zn14  1  0.54428215  0.80278384  0.65586801  1
  Zn  Zn15  1  0.62972278  0.29602426  0.10694434  1
  Zn  Zn16  1  0.53346049  0.80582082  0.10319507  1
  Zn  Zn17  1  0.02924745  0.88727718  0.79024315  1
  Zn  Zn18  1  0.02804694  0.34147453  0.13168755  1
  Zn  Zn19  1  0.02517917  0.67250514  0.65657805  1
  Zn  Zn20  1  0.19289578  0.78136473  0.20454240  1
  Zn  Zn21  1  0.22997113  0.79016510  0.91755449  1
  Zn  Zn22  1  0.81428229  0.32355785  0.72000107  1
  Zn  Zn23  1  0.11556106  0.13548296  0.50496336  1
  Zn  Zn24  1  0.79727424  0.60984779  0.42662993  1
  Zn  Zn25  1  0.98186614  0.62736520  0.22390184  1
  Zn  Zn26  1  0.76582375  0.18706727  0.85114529  1
  Zn  Zn27  1  0.11890916  0.40802754  0.41710614  1
  Zn  Zn28  1  0.70995086  0.34554972  0.44167671  1
  Zn  Zn29  1  0.48467033  0.22851545  0.85501598  1
  Zn  Zn30  1  0.68306024  0.05814041  0.35034838  1
  Zn  Zn31  1  0.34274549  0.29090031  0.73912732  1
  Zn  Zn32  1  0.79746810  0.16122230  0.22804651  1
  Zn  Zn33  1  0.11430301  0.11521149  0.98922463  1
  Zn  Zn34  1  0.58037688  0.68301710  0.83712230  1
  Zn  Zn35  1  0.47473238  0.93542251  0.89683499  1
  Zn  Zn36  1  0.84971649  0.86623534  0.49332393  1
  Zn  Zn37  1  0.10026165  0.61026535  0.44583880  1
  Zn  Zn38  1  0.15997653  0.42204855  0.93064439  1
  Zn  Zn39  1  0.41638574  0.10018746  0.38747548  1
  Zn  Zn40  1  0.07096822  0.57851015  0.90430811  1
  Zn  Zn41  1  0.52768143  0.84177932  0.36702991  1
  Zn  Zn42  1  0.08105411  0.29455268  0.66135482  1
  Zn  Zn43  1  0.19820287  0.93784312  0.39837368  1
  Zn  Zn44  1  0.34869592  0.91628279  0.69614030  1
  Zn  Zn45  1  0.84560125  0.40587323  0.25269975  1
  Zn  Zn46  1  0.97970494  0.42898700  0.57772642  1
  Zn  Zn47  1  0.18161330  0.54835006  0.07279593  1
  Zn  Zn48  1  0.36550418  0.11992606  0.55873304  1
  Zn  Zn49  1  0.36811264  0.48336338  0.28536828  1
  S  S0  1  0.45245520  0.94846697  0.06412353  1
  S  S1  1  0.66171079  0.25002308  0.27510509  1
  S  S2  1  0.72963279  0.48475928  0.34055716  1
  S  S3  1  0.26914560  0.94509845  0.85132733  1
  S  S4  1  0.38175293  0.45825937  0.44836164  1
  S  S5  1  0.73112924  0.11739111  0.01464312  1
  S  S6  1  0.23918357  0.93628728  0.23471640  1
  S  S7  1  0.07532110  0.72648526  0.32123811  1
  S  S8  1  0.54590579  0.07110800  0.80680760  1
  S  S9  1  0.85818575  0.30942277  0.53992789  1
  S  S10  1  0.95519444  0.33984074  0.83703523  1
  S  S11  1  0.94289477  0.54590504  0.79120413  1
  S  S12  1  0.10153900  0.73357826  0.82434348  1
  S  S13  1  0.25970977  0.42159587  0.78925681  1
  S  S14  1  0.93746885  0.58085378  0.51985522  1
  S  S15  1  0.88416483  0.43130156  0.07914877  1
  S  S16  1  0.94716327  0.93286155  0.14301307  1
  S  S17  1  0.48866055  0.23157308  0.03442972  1
  S  S18  1  0.44575431  0.80303325  0.80468708  1
  S  S19  1  0.99632972  0.15070645  0.71759724  1
  S  S20  1  0.74596138  0.76465938  0.41206895  1
  S  S21  1  0.96295051  0.18752063  0.86419605  1
  S  S22  1  0.30055887  0.21190517  0.30047204  1
  S  S23  1  0.12761454  0.97826257  0.53816732  1
  S  S24  1  0.15759942  0.28307605  0.03895773  1
  S  S25  1  0.24981670  0.23989288  0.59374978  1
  S  S26  1  0.53552340  0.71972033  0.26021356  1
  S  S27  1  0.68036105  0.71466760  0.69854916  1
  S  S28  1  0.33899287  0.46826933  0.12276103  1
  S  S29  1  0.18156352  0.62027739  0.59637286  1
  S  S30  1  0.83417217  0.65224087  0.14667566  1
  S  S31  1  0.87764996  0.87111611  0.89316224  1
  S  S32  1  0.44887663  0.77840736  0.51598992  1
  S  S33  1  0.13744295  0.02033656  0.80980966  1
  S  S34  1  0.76177331  0.01657539  0.63135119  1
  S  S35  1  0.80852092  0.03043385  0.47712381  1
  S  S36  1  0.94327358  0.82310095  0.63815527  1
  S  S37  1  0.70885445  0.87933889  0.11951372  1
  S  S38  1  0.07251141  0.48885003  0.20947714  1
  S  S39  1  0.70278858  0.45590026  0.72163009  1
  S  S40  1  0.61525834  0.69097178  0.01215688  1
  S  S41  1  0.32068239  0.86195289  0.53516324  1
  S  S42  1  0.60809881  0.23326514  0.53381081  1
  S  S43  1  0.24967633  0.70683196  0.07022678  1
  S  S44  1  0.52860955  0.57298415  0.95620390  1
  S  S45  1  0.52918222  0.00258695  0.31248882  1
  S  S46  1  0.48076221  0.03812005  0.66275389  1
  S  S47  1  0.75457738  0.37998669  0.00444171  1
  S  S48  1  0.56583012  0.39575504  0.77525726  1
  S  S49  1  0.93499550  0.25988406  0.26774466  1
loop_
_geom_bond_atom_site_label_1
_geom_bond_atom_site_label_2
_geom_bond_distance
_geom_bond_site_symmetry_2
Zn27 Zn7 2.817692 1_455
Zn27 Zn46 2.846013 1_455
Zn27 Zn37 2.882234 1_555
Zn27 Zn4 2.926482 1_555
Zn33 Zn9 2.372106 1_556
Zn39 Zn48 2.377676 1_555
S0 Zn35 2.229085 1_554
S0 Zn10 2.269995 1_565
S0 Zn16 2.319419 1_555
S1 Zn15 2.299033 1_555
S1 Zn32 2.329153 1_555
S1 Zn28 2.688860 1_555
S1 Zn30 2.817119 1_555
S2 Zn45 2.277112 1_555
S2 Zn28 2.294468 1_555
S2 Zn24 2.296268 1_555
S3 S33 2.128342 1_565
S3 Zn21 2.327719 1_555
S3 Zn44 2.355689 1_555
S3 Zn35 2.821106 1_555
S4 Zn49 2.149999 1_555
S4 Zn4 2.243547 1_555
S5 Zn3 2.292805 1_545
S5 Zn26 2.341051 1_554
S5 Zn10 2.422713 1_555
S6 Zn43 2.214115 1_555
S6 Zn20 2.287556 1_555
S6 Zn9 2.341597 1_565
S7 Zn37 2.261458 1_555
S7 Zn25 2.282123 1_455
S7 Zn20 2.283515 1_555
S8 Zn35 2.351742 1_545
S8 Zn29 2.477330 1_555
S9 Zn46 2.372068 1_555
S9 Zn28 2.411108 1_555
S9 Zn22 2.450821 1_555
S9 Zn7 2.466046 1_555
S9 Zn2 2.912595 1_555
S10 S21 2.137205 1_555
S10 Zn22 2.442557 1_555
S11 Zn11 2.290380 1_555
S11 Zn40 2.316916 1_655
S11 Zn19 2.642952 1_655
S12 Zn21 2.259098 1_555
S12 Zn40 2.372758 1_555
S12 Zn17 2.391105 1_555
S12 Zn19 2.599006 1_555
S13 Zn38 2.285483 1_555
S13 Zn31 2.286808 1_555
S13 Zn12 2.295457 1_555
S14 Zn24 2.269190 1_555
S14 Zn46 2.290543 1_555
S14 Zn37 2.404418 1_655
S14 Zn19 2.528630 1_655
S15 S47 2.119304 1_555
S15 Zn45 2.335845 1_555
S15 Zn18 2.402156 1_655
S16 Zn6 2.342176 1_555
S16 Zn9 2.386119 1_665
S16 Zn13 2.404569 1_555
S16 Zn3 2.539388 1_555
S17 Zn15 2.298519 1_555
S17 Zn10 2.343865 1_555
S17 Zn29 2.351719 1_554
S18 Zn35 2.286804 1_555
S18 Zn14 2.355788 1_555
S18 Zn44 2.456661 1_555
S18 Zn34 2.509177 1_555
S19 S21 2.067582 1_555
S19 Zn42 2.359704 1_655
S20 Zn36 2.266142 1_555
S20 Zn24 2.278301 1_555
S20 Zn5 2.421704 1_555
S21 Zn26 2.645584 1_555
S21 Zn33 2.774957 1_655
S22 Zn0 2.282783 1_555
S22 Zn4 2.286503 1_555
S22 Zn39 2.456908 1_555
S23 Zn43 2.171172 1_555
S23 Zn23 2.218949 1_565
S24 Zn18 2.311443 1_555
S24 Zn38 2.332802 1_554
S24 Zn0 2.407602 1_555
S24 Zn33 2.517960 1_554
S25 Zn48 2.372678 1_555
S25 Zn31 2.403494 1_555
S25 Zn4 2.422772 1_555
S25 Zn42 2.578390 1_555
S25 Zn23 2.599372 1_555
S26 Zn41 2.268235 1_555
S26 Zn16 2.319674 1_555
S26 Zn5 2.358610 1_555
S27 Zn8 2.245449 1_555
S27 Zn34 2.273257 1_555
S27 Zn14 2.274059 1_555
S28 Zn49 2.184112 1_555
S28 Zn0 2.289511 1_555
S28 Zn47 2.478914 1_555
S29 Zn37 2.258750 1_555
S29 Zn12 2.277014 1_555
S29 Zn19 2.385402 1_555
S30 Zn25 2.245113 1_555
S30 Zn13 2.252028 1_555
S30 Zn5 2.392646 1_555
S31 Zn8 2.306574 1_555
S31 Zn3 2.321919 1_556
S31 Zn17 2.438092 1_655
S31 Zn13 2.459205 1_556
S32 S41 2.122274 1_555
S32 Zn14 2.267147 1_555
S32 Zn41 2.336620 1_555
S33 Zn17 2.350197 1_545
S33 Zn33 2.782660 1_555
S34 S35 2.111770 1_555
S34 Zn2 2.284657 1_555
S35 Zn36 2.365052 1_545
S35 Zn30 2.381662 1_555
S36 Zn36 2.328199 1_555
S36 Zn8 2.344462 1_555
S36 Zn19 2.392333 1_655
S36 Zn17 2.496546 1_655
S37 Zn6 2.361647 1_555
S37 Zn5 2.443324 1_555
S37 Zn3 2.455807 1_555
S37 Zn13 2.524701 1_555
S37 Zn16 2.552943 1_555
S38 Zn25 2.323382 1_455
S38 Zn18 2.405879 1_555
S38 Zn47 2.409194 1_555
S38 Zn27 2.951957 1_555
S39 S48 2.102854 1_555
S39 Zn11 2.297481 1_555
S39 Zn22 2.403414 1_555
S40 S44 2.151093 1_554
S40 Zn16 2.344776 1_555
S40 Zn34 2.345507 1_554
S41 Zn44 2.306647 1_555
S41 Zn43 2.621144 1_555
S42 Zn1 2.219475 1_555
S42 Zn28 2.333887 1_555
S42 Zn2 2.382991 1_555
S43 Zn20 2.237413 1_555
S43 Zn21 2.270777 1_554
S43 Zn47 2.366777 1_555
S44 Zn34 2.222007 1_555
S45 Zn30 2.247931 1_555
S45 Zn41 2.312108 1_545
S45 Zn39 2.315539 1_555
S46 S8 2.144891 1_555
S46 Zn48 2.331592 1_555
S46 Zn44 2.443559 1_545
S47 Zn11 2.319331 1_554
S47 Zn15 2.386917 1_555
S48 Zn1 2.229132 1_555
S48 Zn29 2.702091 1_555
S49 Zn32 2.346386 1_555
S49 Zn7 2.376051 1_555
S49 Zn45 2.384897 1_555
S49 Zn18 2.392359 1_655
