# generated using pymatgen
data_MgV2O6
_symmetry_space_group_name_H-M   'P 1'
_cell_length_a   4.80548237
_cell_length_b   5.56755229
_cell_length_c   13.59193481
_cell_angle_alpha   90.00000000
_cell_angle_beta   90.00000000
_cell_angle_gamma   90.00000000
_symmetry_Int_Tables_number   1
_chemical_formula_structural   MgV2O6
_chemical_formula_sum   'Mg4 V8 O24'
_cell_volume   363.64914914
_cell_formula_units_Z   4
loop_
 _symmetry_equiv_pos_site_id
 _symmetry_equiv_pos_as_xyz
  1  'x, y, z'
loop_
 _atom_site_type_symbol
 _atom_site_label
 _atom_site_symmetry_multiplicity
 _atom_site_fract_x
 _atom_site_fract_y
 _atom_site_fract_z
 _atom_site_occupancy
  Mg  Mg0  1  0.25000000  0.18364501  0.00000000  1
  Mg  Mg1  1  0.75000000  0.31635499  0.50000000  1
  Mg  Mg2  1  0.75000000  0.81635499  0.00000000  1
  Mg  Mg3  1  0.25000000  0.68364501  0.50000000  1
  V  V0  1  0.74268560  0.31644292  0.83739297  1
  V  V1  1  0.24268560  0.18355708  0.66260703  1
  V  V2  1  0.25731440  0.18355708  0.33739297  1
  V  V3  1  0.75731440  0.31644292  0.16260703  1
  V  V4  1  0.25731440  0.68355708  0.16260703  1
  V  V5  1  0.75731440  0.81644292  0.33739297  1
  V  V6  1  0.74268560  0.81644292  0.66260703  1
  V  V7  1  0.24268560  0.68355708  0.83739297  1
  O  O0  1  0.04822539  0.40112684  0.90123187  1
  O  O1  1  0.54822539  0.09887316  0.59876813  1
  O  O2  1  0.95177461  0.09887316  0.40123187  1
  O  O3  1  0.45177461  0.40112684  0.09876813  1
  O  O4  1  0.95177461  0.59887316  0.09876813  1
  O  O5  1  0.45177461  0.90112684  0.40123187  1
  O  O6  1  0.04822539  0.90112684  0.59876813  1
  O  O7  1  0.54822539  0.59887316  0.90123187  1
  O  O8  1  0.60123382  0.12034722  0.91661274  1
  O  O9  1  0.10123382  0.37965278  0.58338726  1
  O  O10  1  0.39876618  0.37965278  0.41661274  1
  O  O11  1  0.89876618  0.12034722  0.08338726  1
  O  O12  1  0.39876618  0.87965278  0.08338726  1
  O  O13  1  0.89876618  0.62034722  0.41661274  1
  O  O14  1  0.60123382  0.62034722  0.58338726  1
  O  O15  1  0.10123382  0.87965278  0.91661274  1
  O  O16  1  0.90151625  0.13748142  0.74595348  1
  O  O17  1  0.40151625  0.36251858  0.75404652  1
  O  O18  1  0.09848375  0.36251858  0.24595348  1
  O  O19  1  0.59848375  0.13748142  0.25404652  1
  O  O20  1  0.09848375  0.86251858  0.25404652  1
  O  O21  1  0.59848375  0.63748142  0.24595348  1
  O  O22  1  0.90151625  0.63748142  0.75404652  1
  O  O23  1  0.40151625  0.86251858  0.74595348  1
loop_
_geom_bond_atom_site_label_1
_geom_bond_atom_site_label_2
_geom_bond_distance
_geom_bond_site_symmetry_2
Mg0 O0 2.051458 1_554
Mg0 O3 2.051458 1_555
Mg0 O8 2.063397 1_554
Mg0 O11 2.063397 1_455
Mg0 O15 2.158746 1_544
Mg0 O12 2.158746 1_545
Mg1 O1 2.051458 1_555
Mg1 O2 2.051458 1_555
Mg1 O9 2.063397 1_655
Mg1 O10 2.063397 1_555
Mg1 O14 2.158746 1_555
Mg1 O13 2.158746 1_555
Mg2 O7 2.051458 1_554
Mg2 O4 2.051458 1_555
Mg2 O15 2.063397 1_654
Mg2 O12 2.063397 1_555
Mg2 O8 2.158746 1_564
Mg2 O11 2.158746 1_565
Mg3 O6 2.051458 1_555
Mg3 O5 2.051458 1_555
Mg3 O14 2.063397 1_555
Mg3 O13 2.063397 1_455
Mg3 O9 2.158746 1_555
Mg3 O10 2.158746 1_555
O0 V0 1.769461 1_455
O0 V7 2.024530 1_555
O1 V1 1.769461 1_555
O1 V6 2.024530 1_545
O2 V2 1.769461 1_655
O2 V5 2.024530 1_545
O3 V3 1.769461 1_555
O3 V4 2.024530 1_555
O4 V4 1.769461 1_655
O4 V3 2.024530 1_555
O5 V5 1.769461 1_555
O5 V2 2.024530 1_565
O6 V6 1.769461 1_455
O6 V1 2.024530 1_565
O7 V7 1.769461 1_555
O7 V0 2.024530 1_555
O8 V0 1.677323 1_555
O9 V1 1.677323 1_555
O10 V2 1.677323 1_555
O11 V3 1.677323 1_555
O12 V4 1.677323 1_555
O13 V5 1.677323 1_555
O14 V6 1.677323 1_555
O15 V7 1.677323 1_555
O16 V0 1.766347 1_555
O16 V1 2.009238 1_655
O16 V6 2.249596 1_545
O17 V1 1.766347 1_555
O17 V0 2.009238 1_555
O17 V7 2.249596 1_555
O18 V2 1.766347 1_555
O18 V3 2.009238 1_455
O18 V4 2.249596 1_555
O19 V3 1.766347 1_555
O19 V2 2.009238 1_555
O19 V5 2.249596 1_545
O20 V4 1.766347 1_555
O20 V5 2.009238 1_455
O20 V2 2.249596 1_565
O21 V5 1.766347 1_555
O21 V4 2.009238 1_555
O21 V3 2.249596 1_555
O22 V6 1.766347 1_555
O22 V7 2.009238 1_655
O22 V0 2.249596 1_555
O23 V7 1.766347 1_555
O23 V6 2.009238 1_555
O23 V1 2.249596 1_565
