# generated using pymatgen
data_Ni3(AsO4)2
_symmetry_space_group_name_H-M   'P 1'
_cell_length_a   9.55258043
_cell_length_b   5.76382832
_cell_length_c   10.17200395
_cell_angle_alpha   87.11365739
_cell_angle_beta   90.00000000
_cell_angle_gamma   90.00000000
_symmetry_Int_Tables_number   1
_chemical_formula_structural   Ni3(AsO4)2
_chemical_formula_sum   'Ni12 As8 O32'
_cell_volume   559.35427187
_cell_formula_units_Z   4
loop_
 _symmetry_equiv_pos_site_id
 _symmetry_equiv_pos_as_xyz
  1  'x, y, z'
loop_
 _atom_site_type_symbol
 _atom_site_label
 _atom_site_symmetry_multiplicity
 _atom_site_fract_x
 _atom_site_fract_y
 _atom_site_fract_z
 _atom_site_occupancy
  Ni  Ni0  1  0.86486197  0.61511589  0.03520815  1
  Ni  Ni1  1  0.36486197  0.38488411  0.46479185  1
  Ni  Ni2  1  0.13513803  0.38488411  0.96479185  1
  Ni  Ni3  1  0.63513803  0.61511589  0.53520815  1
  Ni  Ni4  1  0.86349398  0.85813709  0.28464499  1
  Ni  Ni5  1  0.36349398  0.14186291  0.21535501  1
  Ni  Ni6  1  0.13650602  0.14186291  0.71535501  1
  Ni  Ni7  1  0.63650602  0.85813709  0.78464499  1
  Ni  Ni8  1  0.62271469  0.13632746  0.05783758  1
  Ni  Ni9  1  0.12271469  0.86367254  0.44216242  1
  Ni  Ni10  1  0.87728531  0.13632746  0.55783758  1
  Ni  Ni11  1  0.37728531  0.86367254  0.94216242  1
  As  As0  1  0.84462721  0.13198583  0.88218186  1
  As  As1  1  0.34462721  0.86801417  0.61781814  1
  As  As2  1  0.15537279  0.86801417  0.11781814  1
  As  As3  1  0.65537279  0.13198583  0.38218186  1
  As  As4  1  0.94364824  0.62447492  0.70500222  1
  As  As5  1  0.44364824  0.37552508  0.79499778  1
  As  As6  1  0.05635176  0.37552508  0.29499778  1
  As  As7  1  0.55635176  0.62447492  0.20500222  1
  O  O0  1  0.00749347  0.38351236  0.13353732  1
  O  O1  1  0.50749347  0.61648764  0.36646268  1
  O  O2  1  0.99250653  0.61648764  0.86646268  1
  O  O3  1  0.49250653  0.38351236  0.63353732  1
  O  O4  1  0.49582712  0.38287116  0.13217596  1
  O  O5  1  0.99582712  0.61712884  0.36782404  1
  O  O6  1  0.50417288  0.61712884  0.86782404  1
  O  O7  1  0.00417288  0.38287116  0.63217596  1
  O  O8  1  0.73485988  0.63052020  0.19570713  1
  O  O9  1  0.23485988  0.36947980  0.30429287  1
  O  O10  1  0.26514012  0.36947980  0.80429287  1
  O  O11  1  0.76514012  0.63052020  0.69570713  1
  O  O12  1  0.98807683  0.12671977  0.37721360  1
  O  O13  1  0.48807683  0.87328023  0.12278640  1
  O  O14  1  0.01192317  0.87328023  0.62278640  1
  O  O15  1  0.51192317  0.12671977  0.87721360  1
  O  O16  1  0.52163110  0.86951360  0.61808598  1
  O  O17  1  0.02163110  0.13048640  0.88191402  1
  O  O18  1  0.47836890  0.13048640  0.38191402  1
  O  O19  1  0.97836890  0.86951360  0.11808598  1
  O  O20  1  0.77520485  0.11313356  0.72862095  1
  O  O21  1  0.27520485  0.88686644  0.77137905  1
  O  O22  1  0.22479515  0.88686644  0.27137905  1
  O  O23  1  0.72479515  0.11313356  0.22862095  1
  O  O24  1  0.75442095  0.89367770  0.95380255  1
  O  O25  1  0.25442095  0.10632230  0.54619745  1
  O  O26  1  0.73316948  0.34408505  0.46654722  1
  O  O27  1  0.74557905  0.89367770  0.45380255  1
  O  O28  1  0.76683052  0.34408505  0.96654722  1
  O  O29  1  0.26683052  0.65591495  0.53345278  1
  O  O30  1  0.23316948  0.65591495  0.03345278  1
  O  O31  1  0.24557905  0.10632230  0.04619745  1
loop_
_geom_bond_atom_site_label_1
_geom_bond_atom_site_label_2
_geom_bond_distance
_geom_bond_site_symmetry_2
Ni0 O28 1.978637 1_554
Ni0 O19 2.039833 1_555
Ni0 O8 2.056710 1_555
Ni0 O24 2.059781 1_554
Ni0 O2 2.105178 1_554
Ni0 O0 2.122349 1_655
Ni1 O29 1.978637 1_555
Ni1 O18 2.039833 1_555
Ni1 O9 2.056710 1_555
Ni1 O25 2.059781 1_555
Ni1 O3 2.105178 1_555
Ni1 O1 2.122349 1_555
Ni2 O30 1.978637 1_556
Ni2 O17 2.039833 1_555
Ni2 O10 2.056710 1_555
Ni2 O31 2.059781 1_556
Ni2 O0 2.105178 1_556
Ni2 O2 2.122349 1_455
Ni3 O26 1.978637 1_555
Ni3 O16 2.039833 1_555
Ni3 O11 2.056710 1_555
Ni3 O27 2.059781 1_555
Ni3 O1 2.105178 1_555
Ni3 O3 2.122349 1_555
Ni4 O19 2.016863 1_555
Ni4 O5 2.031059 1_555
Ni4 O23 2.038635 1_565
Ni4 O8 2.041834 1_555
Ni4 O27 2.075314 1_555
Ni4 O12 2.201418 1_565
Ni5 O18 2.016863 1_555
Ni5 O4 2.031059 1_555
Ni5 O22 2.038635 1_545
Ni5 O9 2.041834 1_555
Ni5 O31 2.075314 1_555
Ni5 O13 2.201418 1_545
Ni6 O17 2.016863 1_555
Ni6 O7 2.031059 1_555
Ni6 O21 2.038635 1_545
Ni6 O10 2.041834 1_555
Ni6 O25 2.075314 1_555
Ni6 O14 2.201418 1_545
Ni7 O16 2.016863 1_555
Ni7 O6 2.031059 1_555
Ni7 O20 2.038635 1_565
Ni7 O11 2.041834 1_555
Ni7 O24 2.075314 1_555
Ni7 O15 2.201418 1_565
Ni8 O23 1.990794 1_555
Ni8 O28 2.019782 1_554
Ni8 O4 2.041702 1_555
Ni8 O13 2.070866 1_545
Ni8 O15 2.123466 1_554
Ni8 O24 2.192692 1_544
Ni9 O22 1.990794 1_555
Ni9 O29 2.019782 1_555
Ni9 O5 2.041702 1_455
Ni9 O12 2.070866 1_465
Ni9 O14 2.123466 1_555
Ni9 O25 2.192692 1_565
Ni10 O20 1.990794 1_555
Ni10 O26 2.019782 1_555
Ni10 O7 2.041702 1_655
Ni10 O14 2.070866 1_645
Ni10 O12 2.123466 1_555
Ni10 O27 2.192692 1_545
Ni11 O21 1.990794 1_555
Ni11 O30 2.019782 1_556
Ni11 O6 2.041702 1_555
Ni11 O15 2.070866 1_565
Ni11 O13 2.123466 1_556
Ni11 O31 2.192692 1_566
As0 O17 1.690869 1_655
As0 O28 1.699677 1_555
As0 O20 1.705461 1_555
As0 O24 1.749054 1_545
As1 O16 1.690869 1_555
As1 O29 1.699677 1_555
As1 O21 1.705461 1_555
As1 O25 1.749054 1_565
As2 O19 1.690869 1_455
As2 O30 1.699677 1_555
As2 O22 1.705461 1_555
As2 O31 1.749054 1_565
As3 O18 1.690869 1_555
As3 O26 1.699677 1_555
As3 O23 1.705461 1_555
As3 O27 1.749054 1_545
As4 O2 1.705795 1_555
As4 O11 1.708091 1_555
As4 O7 1.710604 1_655
As4 O14 1.749440 1_655
As5 O3 1.705795 1_555
As5 O10 1.708091 1_555
As5 O6 1.710604 1_555
As5 O15 1.749440 1_555
As6 O0 1.705795 1_555
As6 O9 1.708091 1_555
As6 O5 1.710604 1_455
As6 O12 1.749440 1_455
As7 O1 1.705795 1_555
As7 O8 1.708091 1_555
As7 O4 1.710604 1_555
As7 O13 1.749440 1_555
