# generated using pymatgen
data_EuCdAg
_symmetry_space_group_name_H-M   'P 1'
_cell_length_a   5.99632674
_cell_length_b   5.99632674
_cell_length_c   7.55829197
_cell_angle_alpha   54.42628537
_cell_angle_beta   54.42628537
_cell_angle_gamma   47.79933863
_symmetry_Int_Tables_number   1
_chemical_formula_structural   EuCdAg
_chemical_formula_sum   'Eu2 Cd2 Ag2'
_cell_volume   155.30738623
_cell_formula_units_Z   2
loop_
 _symmetry_equiv_pos_site_id
 _symmetry_equiv_pos_as_xyz
  1  'x, y, z'
loop_
 _atom_site_type_symbol
 _atom_site_label
 _atom_site_symmetry_multiplicity
 _atom_site_fract_x
 _atom_site_fract_y
 _atom_site_fract_z
 _atom_site_occupancy
  Eu  Eu0  1  0.55043301  0.55043301  0.69793649  1
  Eu  Eu1  1  0.44956623  0.44956623  0.30206348  1
  Cd  Cd0  1  0.82910881  0.82910881  0.10780965  1
  Cd  Cd1  1  0.17088793  0.17088793  0.89219483  1
  Ag  Ag0  1  0.15747610  0.15747610  0.29562661  1
  Ag  Ag1  1  0.84252793  0.84252793  0.70436794  1
loop_
_geom_bond_atom_site_label_1
_geom_bond_atom_site_label_2
_geom_bond_distance
_geom_bond_site_symmetry_2
Cd0 Cd1 2.987782 1_664
Cd0 Eu1 3.420184 1_555
Cd0 Eu0 3.438092 1_564
Cd0 Eu0 3.438092 1_654
Cd0 Eu0 3.447723 1_555
Cd0 Eu1 3.502781 1_655
Cd0 Eu1 3.502781 1_565
Cd1 Eu0 3.420198 1_555
Cd1 Eu1 3.438073 1_456
Cd1 Eu1 3.438073 1_546
Cd1 Eu1 3.447750 1_555
Cd1 Eu0 3.502786 1_455
Cd1 Eu0 3.502786 1_545
Ag0 Ag1 2.809319 1_445
Ag0 Cd0 2.838745 1_455
Ag0 Cd0 2.838745 1_545
Ag0 Cd1 2.957861 1_554
Ag0 Eu1 3.233756 1_555
Ag0 Eu1 3.310504 1_455
Ag0 Eu1 3.310504 1_545
Ag0 Eu0 3.461744 1_545
Ag0 Eu0 3.461744 1_455
Ag1 Cd1 2.838778 1_655
Ag1 Cd1 2.838778 1_565
Ag1 Cd0 2.957887 1_556
Ag1 Eu0 3.233782 1_555
Ag1 Eu0 3.310486 1_565
Ag1 Eu0 3.310486 1_655
Ag1 Eu1 3.461728 1_565
Ag1 Eu1 3.461728 1_655
