# generated using pymatgen
data_Y2V10O53
_symmetry_space_group_name_H-M   'P 1'
_cell_length_a   8.68219068
_cell_length_b   10.60357816
_cell_length_c   12.28741504
_cell_angle_alpha   69.40531630
_cell_angle_beta   70.44991744
_cell_angle_gamma   91.12589951
_symmetry_Int_Tables_number   1
_chemical_formula_structural   Y2V10O53
_chemical_formula_sum   'Y2 V10 O53'
_cell_volume   985.69596541
_cell_formula_units_Z   1
loop_
 _symmetry_equiv_pos_site_id
 _symmetry_equiv_pos_as_xyz
  1  'x, y, z'
loop_
 _atom_site_type_symbol
 _atom_site_label
 _atom_site_symmetry_multiplicity
 _atom_site_fract_x
 _atom_site_fract_y
 _atom_site_fract_z
 _atom_site_occupancy
  Y  Y0  1  0.98546100  0.22304300  0.10574300  1
  Y  Y1  1  0.91010800  0.83958600  0.84015400  1
  V  V0  1  0.47699000  0.21025700  0.61464800  1
  V  V1  1  0.51909000  0.78494900  0.38699000  1
  V  V2  1  0.37911400  0.34327200  0.82381700  1
  V  V3  1  0.61851100  0.66687000  0.17926900  1
  V  V4  1  0.24117700  0.63627900  0.33283000  1
  V  V5  1  0.75567100  0.35573900  0.66664300  1
  V  V6  1  0.59569400  0.63239400  0.63695800  1
  V  V7  1  0.39918000  0.36135500  0.36703200  1
  V  V8  1  0.30072200  0.48705800  0.58477200  1
  V  V9  1  0.69675400  0.50409300  0.41244300  1
  O  O0  1  0.51739800  0.44039300  0.59905500  1
  O  O1  1  0.48576700  0.56145100  0.37972400  1
  O  O2  1  0.08513400  0.96759700  0.37430600  1
  O  O3  1  0.90379300  0.01504000  0.64782200  1
  O  O4  1  0.58565700  0.11783700  0.16235300  1
  O  O5  1  0.51459400  0.86403900  0.86489100  1
  O  O6  1  0.42708900  0.06155200  0.61646800  1
  O  O7  1  0.56423100  0.93329200  0.38900300  1
  O  O8  1  0.81979700  0.18661500  0.36373000  1
  O  O9  1  0.20001400  0.79308500  0.60362200  1
  O  O10  1  0.64423600  0.77586000  0.64698100  1
  O  O11  1  0.36118200  0.21858700  0.35325300  1
  O  O12  1  0.57711400  0.30538800  0.82419600  1
  O  O13  1  0.41978300  0.69236100  0.17573500  1
  O  O14  1  0.43873600  0.52527700  0.78855900  1
  O  O15  1  0.56328000  0.46833300  0.20701400  1
  O  O16  1  0.07736200  0.28616900  0.23836500  1
  O  O17  1  0.95058500  0.68735400  0.75431600  1
  O  O18  1  0.74541300  0.09948300  0.11385500  1
  O  O19  1  0.12798000  0.81212800  0.88972300  1
  O  O20  1  0.31151800  0.32246000  0.54763300  1
  O  O21  1  0.67917500  0.67116100  0.45224400  1
  O  O22  1  0.16047700  0.55320600  0.51497900  1
  O  O23  1  0.83811300  0.44238000  0.48158300  1
  O  O24  1  0.95690300  0.95089900  0.35528900  1
  O  O25  1  0.03682800  0.06397500  0.65107600  1
  O  O26  1  0.34859400  0.20476500  0.77057400  1
  O  O27  1  0.65381400  0.80483500  0.22386700  1
  O  O28  1  0.04463500  0.87805200  0.10744500  1
  O  O29  1  0.98982600  0.14544100  0.89377600  1
  O  O30  1  0.08326600  0.68761400  0.29889200  1
  O  O31  1  0.91323600  0.30594100  0.70245300  1
  O  O32  1  0.48699500  0.07213800  0.12560100  1
  O  O33  1  0.52359800  0.94988700  0.91018600  1
  O  O34  1  0.20720000  0.62603200  0.00849700  1
  O  O35  1  0.75203400  0.46223400  0.00420300  1
  O  O36  1  0.96113400  0.23969300  0.35513900  1
  O  O37  1  0.05553300  0.73916900  0.62634400  1
  O  O38  1  0.39616700  0.66711800  0.56702400  1
  O  O39  1  0.59771900  0.32880500  0.43113200  1
  O  O40  1  0.23503700  0.27946000  0.97574500  1
  O  O41  1  0.74079700  0.72670000  0.02127100  1
  O  O42  1  0.66745000  0.20741100  0.64524900  1
  O  O43  1  0.33388200  0.78825400  0.35239900  1
  O  O44  1  0.88286600  0.39598900  0.03781700  1
  O  O45  1  0.17646200  0.67674300  0.91101200  1
  O  O46  1  0.20528400  0.42167700  0.74123500  1
  O  O47  1  0.79106200  0.57902700  0.25365100  1
  O  O48  1  0.75962200  0.53821400  0.65667100  1
  O  O49  1  0.23631500  0.45451000  0.34078800  1
  O  O50  1  0.10274600  0.99015900  0.09798400  1
  O  O51  1  0.90460000  0.04454800  0.90308900  1
  O  O52  1  0.60679400  0.40836500  0.08628100  1
loop_
_geom_bond_atom_site_label_1
_geom_bond_atom_site_label_2
_geom_bond_distance
_geom_bond_site_symmetry_2
O0 V8 2.002771 1_555
O0 V9 2.149013 1_555
O0 V6 2.376643 1_555
O0 V0 2.388960 1_555
O0 V2 2.420880 1_555
O0 V5 2.544298 1_555
O1 V9 2.061985 1_555
O1 V3 2.181079 1_555
O1 V7 2.310798 1_555
O1 V8 2.322556 1_555
O1 V1 2.418097 1_555
O1 V4 2.456552 1_555
O2 O24 1.233254 1_455
O3 Y1 2.459036 1_545
O6 V0 1.617523 1_555
O7 V1 1.624214 1_555
O8 Y0 2.886538 1_555
O10 V6 1.627374 1_555
O11 V7 1.620901 1_555
O12 V2 1.774200 1_555
O12 V5 1.915179 1_555
O13 V3 1.764127 1_555
O13 V4 1.907150 1_555
O14 V6 1.835455 1_555
O14 V2 1.844622 1_555
O15 O52 1.745225 1_555
O15 V7 1.917080 1_555
O15 V3 2.030778 1_555
O16 O36 1.354225 1_455
O16 Y0 2.314480 1_455
O17 O37 1.420679 1_655
O17 Y1 2.193989 1_555
O18 O4 1.362302 1_555
O18 Y0 2.394147 1_555
O19 O45 1.462775 1_555
O19 Y1 2.168382 1_455
O20 V8 1.949699 1_555
O20 V7 1.971622 1_555
O20 V0 2.080204 1_555
O21 V9 1.992714 1_555
O21 V6 2.019064 1_555
O21 V1 2.040003 1_555
O22 V8 1.737609 1_555
O22 V4 1.953300 1_555
O23 V9 1.730463 1_555
O23 V5 1.985500 1_555
O25 O3 1.275499 1_455
O25 Y1 2.562581 1_445
O26 V0 1.845645 1_555
O26 V2 1.852536 1_555
O27 V3 1.786942 1_555
O27 V1 1.885208 1_555
O28 O50 1.233335 1_555
O29 O51 1.237434 1_555
O29 Y0 2.984123 1_556
O30 V4 1.613117 1_555
O31 V5 1.616067 1_555
O32 O4 1.252611 1_555
O33 O5 1.235820 1_555
O34 O45 1.249653 1_554
O35 O52 1.284059 1_555
O35 O44 1.447597 1_555
O36 O8 1.295409 1_555
O37 O9 1.266284 1_555
O38 V8 1.975744 1_555
O38 V1 2.004192 1_555
O38 V6 2.161874 1_555
O39 V9 1.936884 1_555
O39 V0 2.033669 1_555
O39 V7 2.109875 1_555
O40 V2 1.738619 1_555
O40 Y0 2.136591 1_456
O41 V3 1.739619 1_555
O41 Y1 2.100884 1_554
O42 V0 1.812960 1_555
O42 V5 1.872910 1_555
O43 V1 1.793525 1_555
O43 V4 1.911457 1_555
O44 Y0 2.082790 1_555
O46 V8 1.684322 1_555
O46 V2 2.116448 1_555
O47 V9 1.709764 1_555
O47 V3 2.078364 1_555
O48 V6 1.788301 1_555
O48 V5 1.894141 1_555
O49 V7 1.793078 1_555
O49 V4 1.894115 1_555
O50 Y0 2.709877 1_465
O51 Y1 2.546635 1_545
