# generated using pymatgen
data_Mg5Si6
_symmetry_space_group_name_H-M   'P 1'
_cell_length_a   13.82238889
_cell_length_b   13.82238889
_cell_length_c   7.83514172
_cell_angle_alpha   87.50025927
_cell_angle_beta   87.50025927
_cell_angle_gamma   16.03298771
_symmetry_Int_Tables_number   1
_chemical_formula_structural   Mg5Si6
_chemical_formula_sum   'Mg10 Si12'
_cell_volume   413.04800646
_cell_formula_units_Z   2
loop_
 _symmetry_equiv_pos_site_id
 _symmetry_equiv_pos_as_xyz
  1  'x, y, z'
loop_
 _atom_site_type_symbol
 _atom_site_label
 _atom_site_symmetry_multiplicity
 _atom_site_fract_x
 _atom_site_fract_y
 _atom_site_fract_z
 _atom_site_occupancy
  Mg  Mg0  1  0.15291800  0.15291800  0.09255800  1
  Mg  Mg1  1  0.94188800  0.94188800  0.55949000  1
  Mg  Mg2  1  0.46689900  0.46689900  0.87964700  1
  Mg  Mg3  1  0.34519000  0.34519000  0.09376900  1
  Mg  Mg4  1  0.74127200  0.74127200  0.17611000  1
  Mg  Mg5  1  0.59518400  0.59518400  0.80729700  1
  Mg  Mg6  1  0.47609100  0.47609100  0.26425200  1
  Mg  Mg7  1  0.35030800  0.35030800  0.66675100  1
  Mg  Mg8  1  0.74047800  0.74047800  0.61629900  1
  Mg  Mg9  1  0.62888500  0.62888500  0.44726000  1
  Si  Si0  1  0.16631900  0.16631900  0.70104100  1
  Si  Si1  1  0.20114000  0.20114000  0.40386500  1
  Si  Si2  1  0.91448700  0.91448700  0.17285100  1
  Si  Si3  1  0.89156500  0.89156500  0.87985100  1
  Si  Si4  1  0.03173300  0.03173300  0.07496900  1
  Si  Si5  1  0.23653000  0.23653000  0.89350300  1
  Si  Si6  1  0.84967600  0.84967600  0.39418100  1
  Si  Si7  1  0.52123300  0.52123300  0.56654800  1
  Si  Si8  1  0.05027500  0.05027500  0.38842200  1
  Si  Si9  1  0.29032500  0.29032500  0.38962100  1
  Si  Si10  1  0.79902300  0.79902300  0.88281400  1
  Si  Si11  1  0.58411600  0.58411600  0.14527300  1
loop_
_geom_bond_atom_site_label_1
_geom_bond_atom_site_label_2
_geom_bond_distance
_geom_bond_site_symmetry_2
Mg0 Si5 2.712340 1_554
Mg0 Si11 2.713888 1_545
Mg0 Si11 2.713888 1_455
Mg0 Si1 2.824105 1_555
Mg0 Si0 3.073363 1_554
Mg1 Si3 2.809551 1_555
Mg1 Si6 2.887480 1_555
Mg1 Si7 2.906409 1_565
Mg1 Si7 2.906409 1_655
Mg1 Mg6 3.122933 1_655
Mg1 Mg6 3.122933 1_565
Mg1 Si8 3.201500 1_665
Mg2 Si7 2.812281 1_555
Mg2 Si3 2.822829 1_545
Mg2 Si3 2.822829 1_455
Mg2 Mg6 3.034947 1_556
Mg2 Si4 3.073608 1_656
Mg2 Si4 3.073608 1_566
Mg3 Si9 2.705987 1_555
Mg3 Si2 2.793173 1_545
Mg3 Si2 2.793173 1_455
Mg3 Si3 2.819440 1_454
Mg3 Si3 2.819440 1_544
Mg3 Si10 2.868620 1_454
Mg3 Si10 2.868620 1_544
Mg3 Si6 3.049032 1_455
Mg3 Si6 3.049032 1_545
Mg4 Si10 2.731324 1_554
Mg4 Si1 2.816816 1_655
Mg4 Si1 2.816816 1_565
Mg4 Si9 2.918114 1_655
Mg4 Si9 2.918114 1_565
Mg4 Si5 2.942951 1_654
Mg4 Si5 2.942951 1_564
Mg5 Si11 2.652075 1_556
Mg5 Si7 2.827126 1_555
Mg5 Si0 2.838674 1_565
Mg5 Si0 2.838674 1_655
Mg5 Mg9 2.929088 1_555
Mg6 Si2 2.679358 1_545
Mg6 Si2 2.679358 1_455
Mg6 Si7 2.719346 1_555
Mg6 Si4 2.834848 1_565
Mg6 Si4 2.834848 1_655
Mg6 Si8 2.993385 1_655
Mg6 Si8 2.993385 1_565
Mg6 Si11 3.061192 1_555
Mg7 Si9 2.779398 1_555
Mg7 Si3 2.818733 1_545
Mg7 Si3 2.818733 1_455
Mg7 Si6 2.877544 1_455
Mg7 Si6 2.877544 1_545
Mg7 Si10 2.888472 1_455
Mg7 Si10 2.888472 1_545
Mg8 Si10 2.687712 1_555
Mg8 Si1 2.793517 1_565
Mg8 Si1 2.793517 1_655
Mg8 Si0 2.856420 1_655
Mg8 Si0 2.856420 1_565
Mg8 Si5 2.902432 1_655
Mg8 Si5 2.902432 1_565
Mg8 Si9 2.918677 1_565
Mg8 Si9 2.918677 1_655
Mg9 Si11 2.712168 1_555
Mg9 Si1 2.772089 1_565
Mg9 Si1 2.772089 1_655
Mg9 Si8 2.940491 1_655
Mg9 Si8 2.940491 1_565
Mg9 Si0 2.983149 1_655
Mg9 Si0 2.983149 1_565
Mg9 Si7 3.052104 1_555
Si0 Si1 2.476816 1_555
Si0 Si5 2.494667 1_555
Si1 Si9 2.439041 1_555
Si2 Si3 2.406419 1_554
Si2 Si6 2.425688 1_555
Si4 Si8 2.529651 1_555
Si6 Si9 2.522279 1_565
Si6 Si9 2.522279 1_655
Si7 Si8 2.489566 1_565
Si7 Si8 2.489566 1_655
Si10 Si3 2.532387 1_555
Si10 Si5 2.576195 1_565
Si10 Si5 2.576195 1_655
Si11 Si4 2.478927 1_655
Si11 Si4 2.478927 1_565
Si11 Si8 2.836894 1_565
Si11 Si8 2.836894 1_655
