# generated using pymatgen
data_Cr7FeO12
_symmetry_space_group_name_H-M   'P 1'
_cell_length_a   9.25651783
_cell_length_b   10.84874449
_cell_length_c   9.69085896
_cell_angle_alpha   94.50500206
_cell_angle_beta   91.15680001
_cell_angle_gamma   96.72879894
_symmetry_Int_Tables_number   1
_chemical_formula_structural   Cr7FeO12
_chemical_formula_sum   'Cr28 Fe4 O48'
_cell_volume   963.05761433
_cell_formula_units_Z   4
loop_
 _symmetry_equiv_pos_site_id
 _symmetry_equiv_pos_as_xyz
  1  'x, y, z'
loop_
 _atom_site_type_symbol
 _atom_site_label
 _atom_site_symmetry_multiplicity
 _atom_site_fract_x
 _atom_site_fract_y
 _atom_site_fract_z
 _atom_site_occupancy
  Cr  Cr0  1  0.15970800  0.84911700  0.28067400  1
  Cr  Cr1  1  0.68280100  0.01710700  0.06119200  1
  Cr  Cr2  1  0.46718000  0.81141600  0.10409500  1
  Cr  Cr3  1  0.38443400  0.29272700  0.75937000  1
  Cr  Cr4  1  0.75530200  0.73426000  0.14365600  1
  Cr  Cr5  1  0.10315400  0.27919600  0.50813300  1
  Cr  Cr6  1  0.42155300  0.56105500  0.11390100  1
  Cr  Cr7  1  0.13811300  0.09562900  0.79597100  1
  Cr  Cr8  1  0.27504200  0.30311800  0.04042100  1
  Cr  Cr9  1  0.58021400  0.98779600  0.49711600  1
  Cr  Cr10  1  0.11153700  0.60661200  0.40118500  1
  Cr  Cr11  1  0.63978300  0.53719500  0.77688900  1
  Cr  Cr12  1  0.24444600  0.49553000  0.62268700  1
  Cr  Cr13  1  0.39957500  0.38866200  0.36627500  1
  Cr  Cr14  1  0.26096800  0.89848100  0.93236800  1
  Cr  Cr15  1  0.78516700  0.18399500  0.29805100  1
  Cr  Cr16  1  0.85686800  0.06197600  0.64600100  1
  Cr  Cr17  1  0.73169900  0.50684900  0.42604500  1
  Cr  Cr18  1  0.48861100  0.71719200  0.44072700  1
  Cr  Cr19  1  0.94173700  0.53146600  0.69853100  1
  Cr  Cr20  1  0.63169900  0.26838100  0.54415500  1
  Cr  Cr21  1  0.11490300  0.61014000  0.02484800  1
  Cr  Cr22  1  0.54218700  0.10936600  0.83320400  1
  Cr  Cr23  1  0.23413500  0.79169100  0.62160000  1
  Cr  Cr24  1  0.99950400  0.31540800  0.87406900  1
  Cr  Cr25  1  0.39195000  0.08691700  0.26173200  1
  Cr  Cr26  1  0.08532900  0.15926100  0.20027500  1
  Cr  Cr27  1  0.97302100  0.93166700  0.06976200  1
  Fe  Fe0  1  0.40056600  0.65984300  0.83177700  1
  Fe  Fe1  1  0.26702200  0.05306400  0.53199300  1
  Fe  Fe2  1  0.93279100  0.81213900  0.80099300  1
  Fe  Fe3  1  0.86493700  0.77503300  0.46117900  1
  O  O0  1  0.64664200  0.01715600  0.68738800  1
  O  O1  1  0.11596600  0.66735000  0.22126300  1
  O  O2  1  0.31642300  0.91380200  0.15661400  1
  O  O3  1  0.93777700  0.13021700  0.82277400  1
  O  O4  1  0.15452200  0.44583900  0.43398000  1
  O  O5  1  0.31958400  0.33257800  0.56510200  1
  O  O6  1  0.81591800  0.89038000  0.95624400  1
  O  O7  1  0.98283400  0.24086700  0.34789700  1
  O  O8  1  0.75222700  0.13182000  0.48486100  1
  O  O9  1  0.82193600  0.65636600  0.77453700  1
  O  O10  1  0.13603900  0.63390100  0.70789100  1
  O  O11  1  0.88781000  0.88525500  0.63405700  1
  O  O12  1  0.08532700  0.78771100  0.45609500  1
  O  O13  1  0.13341800  0.03809800  0.01912600  1
  O  O14  1  0.98006800  0.49267600  0.90276500  1
  O  O15  1  0.41626200  0.48641700  0.77664600  1
  O  O16  1  0.58302000  0.65464700  0.02108500  1
  O  O17  1  0.65416700  0.87382700  0.18196400  1
  O  O18  1  0.48080600  0.43444600  0.18745900  1
  O  O19  1  0.58368000  0.25987400  0.73164400  1
  O  O20  1  0.34241100  0.10313300  0.72856600  1
  O  O21  1  0.49278600  0.95835600  0.96579400  1
  O  O22  1  0.39087400  0.88033300  0.48566000  1
  O  O23  1  0.77701500  0.63738700  0.29488500  1
  O  O24  1  0.43127900  0.23819000  0.94767000  1
  O  O25  1  0.70122700  0.14766700  0.95119300  1
  O  O26  1  0.67045100  0.82517800  0.46069300  1
  O  O27  1  0.42911600  0.69485400  0.25039600  1
  O  O28  1  0.69996600  0.33921400  0.36633500  1
  O  O29  1  0.94887500  0.84878400  0.22711700  1
  O  O30  1  0.90795900  0.59289300  0.50452000  1
  O  O31  1  0.18597600  0.03463000  0.33276500  1
  O  O32  1  0.06177200  0.79131000  0.97061900  1
  O  O33  1  0.31016400  0.69454500  0.01014500  1
  O  O34  1  0.37050600  0.81474200  0.77316700  1
  O  O35  1  0.73465200  0.43846300  0.61880600  1
  O  O36  1  0.07470600  0.11766700  0.59807500  1
  O  O37  1  0.04667700  0.38039500  0.66839400  1
  O  O38  1  0.54667100  0.54719100  0.45941000  1
  O  O39  1  0.47083500  0.13336000  0.46068200  1
  O  O40  1  0.88061800  0.07145300  0.16117800  1
  O  O41  1  0.13650200  0.91015200  0.76226700  1
  O  O42  1  0.29450800  0.23733500  0.23531600  1
  O  O43  1  0.24115400  0.47957100  0.06290000  1
  O  O44  1  0.30420800  0.64590900  0.51047500  1
  O  O45  1  0.06328000  0.28201400  0.06975400  1
  O  O46  1  0.19189800  0.27723000  0.84553600  1
  O  O47  1  0.59553000  0.10386200  0.21505400  1
loop_
_geom_bond_atom_site_label_1
_geom_bond_atom_site_label_2
_geom_bond_distance
_geom_bond_site_symmetry_2
Cr0 O12 1.981275 1_555
Cr0 O2 2.001649 1_555
Cr0 O1 2.002278 1_555
Cr0 O29 2.008782 1_455
Cr0 O31 2.021190 1_565
Cr1 O25 1.832909 1_554
Cr1 O47 1.941134 1_555
Cr1 O21 1.983341 1_544
Cr1 O17 2.014449 1_545
Cr1 O40 2.055485 1_555
Cr1 O6 2.161196 1_544
Cr2 O17 1.901602 1_555
Cr2 O2 1.934763 1_555
Cr2 O33 1.970363 1_555
Cr2 O27 1.982610 1_555
Cr2 O21 2.157216 1_554
Cr2 O16 2.221868 1_555
Cr3 O19 1.939011 1_555
Cr3 O46 1.978317 1_555
Cr3 O24 2.016362 1_555
Cr3 O20 2.045103 1_555
Cr3 O5 2.057808 1_555
Cr3 O15 2.080368 1_555
Cr4 O17 1.888038 1_555
Cr4 O23 1.890042 1_555
Cr4 O16 2.034610 1_555
Cr4 O29 2.161100 1_555
Cr4 O6 2.604546 1_554
Cr5 O7 1.882766 1_455
Cr5 O37 1.946815 1_555
Cr5 O4 2.006815 1_555
Cr5 O36 2.010221 1_555
Cr5 O5 2.070501 1_555
Cr6 O18 1.734985 1_555
Cr6 O43 1.834749 1_555
Cr6 O27 1.879469 1_555
Cr6 O16 1.978890 1_555
Cr6 O33 2.169838 1_555
Cr7 O3 1.953029 1_455
Cr7 O46 1.992956 1_555
Cr7 O20 2.007905 1_555
Cr7 O41 2.011305 1_545
Cr7 O36 2.034453 1_555
Cr7 O13 2.297301 1_556
Cr8 O24 1.894028 1_554
Cr8 O43 1.971887 1_555
Cr8 O45 1.975621 1_555
Cr8 O46 2.011307 1_554
Cr8 O42 2.082572 1_555
Cr9 O0 1.922387 1_565
Cr9 O22 1.983986 1_555
Cr9 O39 2.022727 1_565
Cr9 O26 2.047948 1_555
Cr9 O8 2.108190 1_565
Cr10 O4 1.883111 1_555
Cr10 O1 1.911295 1_555
Cr10 O12 2.038316 1_555
Cr10 O44 2.039323 1_555
Cr10 O30 2.147067 1_455
Cr11 O9 2.002569 1_555
Cr11 O35 2.069377 1_555
Cr11 O15 2.077702 1_555
Cr11 O16 2.689472 1_556
Cr12 O4 2.001563 1_555
Cr12 O5 2.017224 1_555
Cr12 O10 2.033207 1_555
Cr12 O44 2.059504 1_555
Cr12 O37 2.165980 1_555
Cr12 O15 2.174732 1_555
Cr13 O18 1.978703 1_555
Cr13 O42 2.121414 1_555
Cr13 O5 2.183397 1_555
Cr13 O38 2.187277 1_555
Cr13 O4 2.507290 1_555
Cr14 O41 2.012712 1_555
Cr14 O34 2.071820 1_555
Cr14 O32 2.117064 1_555
Cr14 O13 2.157355 1_566
Cr14 O21 2.178000 1_555
Cr14 O2 2.211757 1_556
Cr14 O33 2.480850 1_556
Cr15 O7 1.901260 1_555
Cr15 O8 1.957945 1_555
Cr15 O47 1.989867 1_555
Cr15 O28 2.013143 1_555
Cr15 O40 2.019018 1_555
Cr16 O3 1.913812 1_555
Cr16 O11 1.966278 1_545
Cr16 O0 2.006108 1_555
Cr16 O8 2.060993 1_555
Cr16 O36 2.107866 1_655
Cr17 O38 1.845338 1_555
Cr17 O28 1.852339 1_555
Cr17 O30 1.895563 1_555
Cr17 O23 1.990520 1_555
Cr17 O35 2.064235 1_555
Cr18 O27 1.903045 1_555
Cr18 O26 1.931892 1_555
Cr18 O44 1.946248 1_555
Cr18 O38 2.000962 1_555
Cr18 O22 2.100148 1_555
Cr19 O9 1.958734 1_555
Cr19 O10 1.996800 1_655
Cr19 O37 2.006066 1_655
Cr19 O30 2.073325 1_555
Cr19 O14 2.087511 1_555
Cr19 O35 2.157288 1_555
Cr20 O19 1.885910 1_555
Cr20 O8 2.012280 1_555
Cr20 O28 2.024239 1_555
Cr20 O35 2.046121 1_555
Cr20 O39 2.066726 1_555
Cr21 O33 1.941305 1_555
Cr21 O1 1.954632 1_555
Cr21 O14 1.977932 1_454
Cr21 O43 1.990174 1_555
Cr21 O32 2.181618 1_554
Cr22 O25 1.833398 1_555
Cr22 O19 1.975611 1_555
Cr22 O0 1.998041 1_555
Cr22 O20 2.082474 1_555
Cr22 O24 2.091969 1_555
Cr22 O21 2.173219 1_545
Cr23 O34 1.899175 1_555
Cr23 O44 2.020589 1_555
Cr23 O10 2.084567 1_555
Cr23 O12 2.087497 1_555
Cr23 O41 2.091254 1_555
Cr23 O22 2.171284 1_555
Cr24 O46 1.895877 1_655
Cr24 O14 1.951214 1_555
Cr24 O3 2.042706 1_555
Cr24 O45 2.046646 1_656
Cr24 O37 2.200954 1_655
Cr25 O47 1.937998 1_555
Cr25 O42 1.985758 1_555
Cr25 O39 2.051478 1_555
Cr25 O31 2.071629 1_555
Cr25 O2 2.101590 1_545
Cr26 O45 1.932065 1_555
Cr26 O7 1.945035 1_455
Cr26 O42 2.031209 1_555
Cr26 O40 2.032979 1_455
Cr26 O13 2.194057 1_555
Cr26 O31 2.205496 1_555
Cr27 O6 1.797484 1_554
Cr27 O29 1.834632 1_555
Cr27 O13 1.869511 1_665
Cr27 O40 1.984867 1_565
Cr27 O32 2.002948 1_654
Fe0 O34 1.864700 1_555
Fe0 O15 1.937964 1_555
Fe0 O33 1.964645 1_556
Fe0 O16 2.476807 1_556
Fe1 O20 2.026291 1_555
Fe1 O31 2.043543 1_555
Fe1 O36 2.082843 1_555
Fe1 O39 2.134888 1_555
Fe1 O22 2.327988 1_545
Fe2 O9 1.868027 1_555
Fe2 O11 1.916106 1_555
Fe2 O32 2.054501 1_655
Fe2 O6 2.057844 1_555
Fe2 O41 2.109165 1_655
Fe3 O26 1.940742 1_555
Fe3 O11 1.973091 1_555
Fe3 O12 2.030393 1_655
Fe3 O30 2.132502 1_555
Fe3 O23 2.184834 1_555
Fe3 O29 2.568939 1_555
