# generated using pymatgen
data_YbYCdS4
_symmetry_space_group_name_H-M   'P 1'
_cell_length_a   8.00362988
_cell_length_b   8.00362988
_cell_length_c   8.00362988
_cell_angle_alpha   120.95108660
_cell_angle_beta   119.15459388
_cell_angle_gamma   89.91555453
_symmetry_Int_Tables_number   1
_chemical_formula_structural   YbYCdS4
_chemical_formula_sum   'Yb2 Y2 Cd2 S8'
_cell_volume   362.13023280
_cell_formula_units_Z   2
loop_
 _symmetry_equiv_pos_site_id
 _symmetry_equiv_pos_as_xyz
  1  'x, y, z'
loop_
 _atom_site_type_symbol
 _atom_site_label
 _atom_site_symmetry_multiplicity
 _atom_site_fract_x
 _atom_site_fract_y
 _atom_site_fract_z
 _atom_site_occupancy
  Yb  Yb0  1  0.00000000  0.50000000  0.00000000  1
  Yb  Yb1  1  0.00000000  0.00000000  0.50000000  1
  Y  Y0  1  0.50000000  0.50000000  0.00000000  1
  Y  Y1  1  0.00000000  0.50000000  0.50000000  1
  Cd  Cd0  1  0.62155400  0.87155400  0.75000000  1
  Cd  Cd1  1  0.37844600  0.12844600  0.25000000  1
  S  S0  1  0.23311400  0.74129400  0.49182000  1
  S  S1  1  0.74947400  0.74129400  0.00818000  1
  S  S2  1  0.75389000  0.73810500  0.48421500  1
  S  S3  1  0.75389000  0.26967500  0.01578500  1
  S  S4  1  0.76688600  0.25870600  0.50818000  1
  S  S5  1  0.25052600  0.25870600  0.99182000  1
  S  S6  1  0.24611000  0.26189500  0.51578500  1
  S  S7  1  0.24611000  0.73032500  0.98421500  1
loop_
_geom_bond_atom_site_label_1
_geom_bond_atom_site_label_2
_geom_bond_distance
_geom_bond_site_symmetry_2
Cd0 S0 2.560574 1_555
Cd0 S1 2.560574 1_556
Cd0 S2 2.577339 1_555
Cd0 S3 2.577339 1_566
Cd1 S4 2.560574 1_555
Cd1 S5 2.560574 1_554
Cd1 S7 2.577339 1_544
Cd1 S6 2.577339 1_555
S0 Y1 2.733985 1_555
S0 Yb1 2.782240 1_565
S0 Yb0 2.782240 1_555
S1 Y0 2.733985 1_555
S1 Yb1 2.782240 1_665
S1 Yb0 2.782240 1_655
S2 Y0 2.742589 1_555
S2 Y1 2.742589 1_655
S2 Yb1 2.790512 1_665
S3 Y0 2.742589 1_555
S3 Y1 2.742589 1_655
S3 Yb0 2.790512 1_655
S4 Y1 2.733985 1_655
S4 Yb0 2.782240 1_656
S4 Yb1 2.782240 1_655
S5 Y0 2.733985 1_556
S5 Yb1 2.782240 1_555
S5 Yb0 2.782240 1_556
S6 Y0 2.742589 1_556
S6 Y1 2.742589 1_555
S6 Yb1 2.790512 1_555
S7 Y1 2.742589 1_555
S7 Y0 2.742589 1_556
S7 Yb0 2.790512 1_556
