# generated using pymatgen
data_Yb(ErSe2)2
_symmetry_space_group_name_H-M   'P 1'
_cell_length_a   4.01559600
_cell_length_b   13.42722800
_cell_length_c   13.71743000
_cell_angle_alpha   90.00000000
_cell_angle_beta   90.00000000
_cell_angle_gamma   90.00000000
_symmetry_Int_Tables_number   1
_chemical_formula_structural   Yb(ErSe2)2
_chemical_formula_sum   'Yb4 Er8 Se16'
_cell_volume   739.62082213
_cell_formula_units_Z   4
loop_
 _symmetry_equiv_pos_site_id
 _symmetry_equiv_pos_as_xyz
  1  'x, y, z'
loop_
 _atom_site_type_symbol
 _atom_site_label
 _atom_site_symmetry_multiplicity
 _atom_site_fract_x
 _atom_site_fract_y
 _atom_site_fract_z
 _atom_site_occupancy
  Yb  Yb0  1  0.25000000  0.37084400  0.58192100  1
  Yb  Yb1  1  0.25000000  0.87084400  0.91807900  1
  Yb  Yb2  1  0.75000000  0.62915600  0.41807900  1
  Yb  Yb3  1  0.75000000  0.12915600  0.08192100  1
  Er  Er0  1  0.25000000  0.10807600  0.41771500  1
  Er  Er1  1  0.25000000  0.60807600  0.08228500  1
  Er  Er2  1  0.75000000  0.89192400  0.58228500  1
  Er  Er3  1  0.75000000  0.39192400  0.91771500  1
  Er  Er4  1  0.25000000  0.14830100  0.79573900  1
  Er  Er5  1  0.25000000  0.64830100  0.70426100  1
  Er  Er6  1  0.75000000  0.85169900  0.20426100  1
  Er  Er7  1  0.75000000  0.35169900  0.29573900  1
  Se  Se0  1  0.25000000  0.21430300  0.23567700  1
  Se  Se1  1  0.25000000  0.71430300  0.26432300  1
  Se  Se2  1  0.75000000  0.78569700  0.76432300  1
  Se  Se3  1  0.75000000  0.28569700  0.73567700  1
  Se  Se4  1  0.25000000  0.25569900  0.97462600  1
  Se  Se5  1  0.25000000  0.75569900  0.52537400  1
  Se  Se6  1  0.75000000  0.74430100  0.02537400  1
  Se  Se7  1  0.75000000  0.24430100  0.47462600  1
  Se  Se8  1  0.25000000  0.46987800  0.38227700  1
  Se  Se9  1  0.25000000  0.96987800  0.11772300  1
  Se  Se10  1  0.75000000  0.53012200  0.61772300  1
  Se  Se11  1  0.75000000  0.03012200  0.88227700  1
  Se  Se12  1  0.25000000  0.03480300  0.61797800  1
  Se  Se13  1  0.25000000  0.53480300  0.88202200  1
  Se  Se14  1  0.75000000  0.96519700  0.38202200  1
  Se  Se15  1  0.75000000  0.46519700  0.11797800  1
loop_
_geom_bond_atom_site_label_1
_geom_bond_atom_site_label_2
_geom_bond_distance
_geom_bond_site_symmetry_2
Er0 Se14 2.819840 1_445
Er0 Se14 2.819840 1_545
Er0 Se7 2.826022 1_455
Er0 Se7 2.826022 1_555
Er0 Se0 2.875744 1_555
Er0 Se12 2.917960 1_555
Er1 Se15 2.819840 1_455
Er1 Se15 2.819840 1_555
Er1 Se6 2.826022 1_555
Er1 Se6 2.826022 1_455
Er1 Se1 2.875744 1_555
Er1 Se13 2.917960 1_554
Er2 Se12 2.819840 1_565
Er2 Se12 2.819840 1_665
Er2 Se5 2.826022 1_655
Er2 Se5 2.826022 1_555
Er2 Se2 2.875744 1_555
Er2 Se14 2.917960 1_555
Er3 Se13 2.819840 1_555
Er3 Se13 2.819840 1_655
Er3 Se4 2.826022 1_655
Er3 Se4 2.826022 1_555
Er3 Se3 2.875744 1_555
Er3 Se15 2.917960 1_556
Er4 Se11 2.821063 1_455
Er4 Se11 2.821063 1_555
Er4 Se4 2.846227 1_555
Er4 Se3 2.848424 1_455
Er4 Se3 2.848424 1_555
Er4 Se12 2.875479 1_555
Er5 Se10 2.821063 1_455
Er5 Se10 2.821063 1_555
Er5 Se5 2.846227 1_555
Er5 Se2 2.848424 1_455
Er5 Se2 2.848424 1_555
Er5 Se13 2.875479 1_555
Er6 Se9 2.821063 1_555
Er6 Se9 2.821063 1_655
Er6 Se6 2.846227 1_555
Er6 Se1 2.848424 1_555
Er6 Se1 2.848424 1_655
Er6 Se14 2.875479 1_555
Er7 Se8 2.821063 1_655
Er7 Se8 2.821063 1_555
Er7 Se7 2.846227 1_555
Er7 Se0 2.848424 1_655
Er7 Se0 2.848424 1_555
Er7 Se15 2.875479 1_555
Se0 Yb3 3.128389 1_455
Se0 Yb3 3.128389 1_555
Se1 Yb2 3.128389 1_455
Se1 Yb2 3.128389 1_555
Se2 Yb1 3.128389 1_555
Se2 Yb1 3.128389 1_655
Se3 Yb0 3.128389 1_655
Se3 Yb0 3.128389 1_555
Se4 Yb3 3.014050 1_456
Se4 Yb3 3.014050 1_556
Se5 Yb2 3.014050 1_455
Se5 Yb2 3.014050 1_555
Se6 Yb1 3.014050 1_554
Se6 Yb1 3.014050 1_654
Se7 Yb0 3.014050 1_655
Se7 Yb0 3.014050 1_555
Se8 Yb2 2.974276 1_555
Se8 Yb2 2.974276 1_455
Se8 Yb0 3.044369 1_555
Se9 Yb3 2.974276 1_565
Se9 Yb3 2.974276 1_465
Se9 Yb1 3.044369 1_554
Se10 Yb0 2.974276 1_655
Se10 Yb0 2.974276 1_555
Se10 Yb2 3.044369 1_555
Se11 Yb1 2.974276 1_545
Se11 Yb1 2.974276 1_645
Se11 Yb3 3.044369 1_556
