# generated using pymatgen
data_Ba3Nd3(Co3O8)2
_symmetry_space_group_name_H-M   'P 1'
_cell_length_a   8.65926246
_cell_length_b   8.65926246
_cell_length_c   9.55055864
_cell_angle_alpha   58.24691423
_cell_angle_beta   58.24691423
_cell_angle_gamma   38.04722424
_symmetry_Int_Tables_number   1
_chemical_formula_structural   Ba3Nd3(Co3O8)2
_chemical_formula_sum   'Ba3 Nd3 Co6 O16'
_cell_volume   366.65271172
_cell_formula_units_Z   1
loop_
 _symmetry_equiv_pos_site_id
 _symmetry_equiv_pos_as_xyz
  1  'x, y, z'
loop_
 _atom_site_type_symbol
 _atom_site_label
 _atom_site_symmetry_multiplicity
 _atom_site_fract_x
 _atom_site_fract_y
 _atom_site_fract_z
 _atom_site_occupancy
  Ba  Ba0  1  0.00000000  0.00000000  0.50000000  1
  Ba  Ba1  1  0.33566300  0.33566300  0.83280800  1
  Ba  Ba2  1  0.66433700  0.66433700  0.16719200  1
  Nd  Nd0  1  0.15851200  0.15851200  0.68365100  1
  Nd  Nd1  1  0.50000000  0.50000000  0.00000000  1
  Nd  Nd2  1  0.84148800  0.84148800  0.31634900  1
  Co  Co0  1  0.08124100  0.08124100  0.08023900  1
  Co  Co1  1  0.41326100  0.41326100  0.42140200  1
  Co  Co2  1  0.75087200  0.75087200  0.74156300  1
  Co  Co3  1  0.24912800  0.24912800  0.25843700  1
  Co  Co4  1  0.58673900  0.58673900  0.57859800  1
  Co  Co5  1  0.91875900  0.91875900  0.91976100  1
  O  O0  1  0.71880500  0.24111100  0.24365300  1
  O  O1  1  0.06473600  0.56690800  0.56539900  1
  O  O2  1  0.41908900  0.89593600  0.89418400  1
  O  O3  1  0.24111100  0.71880500  0.24365300  1
  O  O4  1  0.56690800  0.06473600  0.56539900  1
  O  O5  1  0.89593600  0.41908900  0.89418400  1
  O  O6  1  0.93526400  0.43309200  0.43460100  1
  O  O7  1  0.28119500  0.75888900  0.75634700  1
  O  O8  1  0.58091100  0.10406400  0.10581600  1
  O  O9  1  0.43309200  0.93526400  0.43460100  1
  O  O10  1  0.75888900  0.28119500  0.75634700  1
  O  O11  1  0.10406400  0.58091100  0.10581600  1
  O  O12  1  0.15745200  0.15745200  0.16347100  1
  O  O13  1  0.50000000  0.50000000  0.50000000  1
  O  O14  1  0.84254800  0.84254800  0.83652900  1
  O  O15  1  0.00000000  0.00000000  0.00000000  1
loop_
_geom_bond_atom_site_label_1
_geom_bond_atom_site_label_2
_geom_bond_distance
_geom_bond_site_symmetry_2
Ba0 O14 2.784100 1_445
Ba0 O12 2.784100 1_555
Ba0 O13 2.822554 1_455
Ba0 O13 2.822554 1_545
Ba0 O3 3.028106 1_545
Ba0 O7 3.028106 1_545
Ba0 O10 3.028106 1_455
Ba0 O0 3.028106 1_455
Ba0 O9 3.059542 1_545
Ba0 O6 3.059542 1_455
Ba0 O4 3.059542 1_455
Ba0 O1 3.059542 1_545
Ba1 O13 2.796611 1_555
Ba1 O14 2.825817 1_545
Ba1 O14 2.825817 1_455
Ba1 O12 2.868434 1_556
Ba1 O8 2.991117 1_556
Ba1 O11 2.991117 1_556
Ba1 O7 3.001659 1_555
Ba1 O10 3.001659 1_555
Ba1 O2 3.021296 1_545
Ba1 O5 3.021296 1_455
Ba1 O4 3.092031 1_555
Ba1 O1 3.092031 1_555
Ba2 O13 2.796611 1_555
Ba2 O12 2.825817 1_655
Ba2 O12 2.825817 1_565
Ba2 O14 2.868434 1_554
Ba2 O2 2.991117 1_554
Ba2 O5 2.991117 1_554
Ba2 O3 3.001659 1_555
Ba2 O0 3.001659 1_555
Ba2 O8 3.021296 1_565
Ba2 O11 3.021296 1_655
Ba2 O9 3.092031 1_555
Ba2 O6 3.092031 1_555
Nd0 O7 2.458219 1_545
Nd0 O10 2.458219 1_455
Nd0 O2 2.487370 1_545
Nd0 O5 2.487370 1_455
Nd0 O4 2.584517 1_555
Nd0 O1 2.584517 1_555
Nd0 O9 2.587626 1_545
Nd0 O6 2.587626 1_455
Nd0 O15 2.670959 1_556
Nd1 O3 2.547654 1_555
Nd1 O10 2.547654 1_554
Nd1 O0 2.547654 1_555
Nd1 O7 2.547654 1_554
Nd1 O2 2.565534 1_554
Nd1 O5 2.565534 1_554
Nd1 O8 2.565534 1_555
Nd1 O11 2.565534 1_555
Nd1 O15 2.822554 1_655
Nd1 O15 2.822554 1_565
Nd2 O3 2.458219 1_655
Nd2 O0 2.458219 1_565
Nd2 O11 2.487370 1_655
Nd2 O8 2.487370 1_565
Nd2 O6 2.584517 1_555
Nd2 O9 2.584517 1_555
Nd2 O1 2.587626 1_655
Nd2 O4 2.587626 1_565
Nd2 O15 2.670959 1_665
Co0 O12 1.814693 1_555
Co0 O15 1.868512 1_555
Co0 O5 2.104018 1_454
Co0 O2 2.104018 1_544
Co0 O3 2.116049 1_545
Co0 O0 2.116049 1_455
Co1 O13 1.940916 1_555
Co1 O3 1.956634 1_555
Co1 O0 1.956634 1_555
Co1 O1 2.000709 1_555
Co1 O4 2.000709 1_555
Co2 O2 1.947328 1_555
Co2 O5 1.947328 1_555
Co2 O1 1.985966 1_655
Co2 O4 1.985966 1_565
Co2 O14 2.142705 1_555
Co3 O8 1.947328 1_555
Co3 O11 1.947328 1_555
Co3 O9 1.985966 1_545
Co3 O6 1.985966 1_455
Co3 O12 2.142705 1_555
Co4 O13 1.940916 1_555
Co4 O10 1.956634 1_555
Co4 O7 1.956634 1_555
Co4 O9 2.000709 1_555
Co4 O6 2.000709 1_555
Co5 O14 1.814693 1_555
Co5 O15 1.868512 1_666
Co5 O11 2.104018 1_656
Co5 O8 2.104018 1_566
Co5 O10 2.116049 1_565
Co5 O7 2.116049 1_655
