# generated using pymatgen
data_Mn3V2O8
_symmetry_space_group_name_H-M   'P 1'
_cell_length_a   10.85135578
_cell_length_b   10.85137816
_cell_length_c   10.85129435
_cell_angle_alpha   142.54915376
_cell_angle_beta   142.54920475
_cell_angle_gamma   54.00216710
_symmetry_Int_Tables_number   1
_chemical_formula_structural   Mn3V2O8
_chemical_formula_sum   'Mn9 V6 O24'
_cell_volume   469.33895586
_cell_formula_units_Z   3
loop_
 _symmetry_equiv_pos_site_id
 _symmetry_equiv_pos_as_xyz
  1  'x, y, z'
loop_
 _atom_site_type_symbol
 _atom_site_label
 _atom_site_symmetry_multiplicity
 _atom_site_fract_x
 _atom_site_fract_y
 _atom_site_fract_z
 _atom_site_occupancy
  Mn  Mn0  1  0.47814447  0.97814232  0.49999504  1
  Mn  Mn1  1  0.77499587  0.77499598  0.00000160  1
  Mn  Mn2  1  0.02185520  0.52185311  0.50000346  1
  Mn  Mn3  1  0.22500358  0.22500312  -0.00000397  1
  Mn  Mn4  1  0.74999820  0.24999882  0.49999657  1
  Mn  Mn5  1  0.13128424  0.11833002  0.49542087  1
  Mn  Mn6  1  0.62291310  0.63587043  0.50458762  1
  Mn  Mn7  1  0.36413262  0.86871731  0.98704373  1
  Mn  Mn8  1  0.88167739  0.37709153  0.01296112  1
  V  V0  1  0.12297895  0.52945669  0.90290896  1
  V  V1  1  0.62654980  0.22007198  0.09709307  1
  V  V2  1  0.77992443  0.87702395  0.40647697  1
  V  V3  1  0.47054795  0.37344852  0.59352252  1
  V  V4  1  0.25000150  0.74999901  0.49999919  1
  V  V5  1  -0.00000226  -0.00000077  -0.00000002  1
  O  O0  1  0.08739813  0.84812100  0.34409325  1
  O  O1  1  0.16501070  0.00021174  0.25576596  1
  O  O2  1  0.50402911  0.74330240  0.65590596  1
  O  O3  1  0.74444645  0.90924654  0.74423474  1
  O  O4  1  0.25669688  0.91260370  0.76072622  1
  O  O5  1  -0.00021662  0.25555370  0.16479693  1
  O  O6  1  0.15187931  0.49597004  0.23927343  1
  O  O7  1  0.09075574  0.83498742  0.83520226  1
  O  O8  1  0.07903061  0.30054795  0.77571765  1
  O  O9  1  0.13814801  0.43219262  0.69177203  1
  O  O10  1  0.52483064  0.30330995  0.22428101  1
  O  O11  1  0.74041761  0.44637665  0.30822708  1
  O  O12  1  0.69668918  0.92096943  0.22151799  1
  O  O13  1  0.56780261  0.25958180  0.70595245  1
  O  O14  1  0.69945252  0.47516801  0.77848067  1
  O  O15  1  0.55362313  0.86185306  0.29404259  1
  O  O16  1  0.37456734  0.18652325  0.26281254  1
  O  O17  1  0.87838145  0.64643038  0.31926962  1
  O  O18  1  0.92370573  0.11175179  0.73718435  1
  O  O19  1  0.32716424  0.55911469  0.68073387  1
  O  O20  1  0.88824707  0.62543407  0.81195617  1
  O  O21  1  0.35356969  0.67283295  0.23194687  1
  O  O22  1  0.81347904  0.07629281  0.18804740  1
  O  O23  1  0.44088839  0.12162202  0.76805227  1
loop_
_geom_bond_atom_site_label_1
_geom_bond_atom_site_label_2
_geom_bond_distance
_geom_bond_site_symmetry_2
Mn0 O3 2.092834 1_555
Mn0 O1 2.092836 1_565
Mn0 O15 2.114573 1_555
Mn0 O13 2.114633 1_565
Mn0 O23 2.232723 1_565
Mn0 O21 2.232746 1_555
Mn1 O2 2.103290 1_554
Mn1 O0 2.103296 1_655
Mn1 O12 2.150461 1_555
Mn1 O14 2.150519 1_554
Mn1 O20 2.164926 1_554
Mn1 O22 2.164951 1_565
Mn2 O5 2.092840 1_555
Mn2 O7 2.092843 1_555
Mn2 O9 2.114538 1_555
Mn2 O11 2.114605 1_455
Mn2 O17 2.232733 1_455
Mn2 O19 2.232752 1_555
Mn3 O4 2.103284 1_544
Mn3 O6 2.103287 1_555
Mn3 O8 2.150465 1_554
Mn3 O10 2.150502 1_555
Mn3 O16 2.164916 1_555
Mn3 O18 2.164967 1_454
Mn4 O10 2.176155 1_555
Mn4 O14 2.176177 1_555
Mn4 O12 2.176199 1_545
Mn4 O8 2.176211 1_655
Mn5 O1 2.051118 1_555
Mn5 O23 2.057407 1_555
Mn5 O0 2.067780 1_545
Mn5 O22 2.096733 1_455
Mn5 O9 2.160885 1_555
Mn5 O8 2.313842 1_555
Mn6 O3 2.051120 1_555
Mn6 O21 2.057398 1_555
Mn6 O2 2.067742 1_555
Mn6 O20 2.096716 1_555
Mn6 O11 2.160859 1_555
Mn6 O10 2.313945 1_555
Mn7 O7 2.051126 1_555
Mn7 O19 2.057408 1_555
Mn7 O4 2.067734 1_555
Mn7 O16 2.096739 1_566
Mn7 O15 2.160852 1_556
Mn7 O12 2.313907 1_556
Mn8 O5 2.051109 1_655
Mn8 O17 2.057402 1_555
Mn8 O6 2.067749 1_655
Mn8 O18 2.096725 1_554
Mn8 O13 2.160952 1_554
Mn8 O14 2.313878 1_554
O0 V4 1.738161 1_555
O1 V5 1.735862 1_555
O2 V4 1.738167 1_555
O3 V5 1.735867 1_666
O4 V4 1.738183 1_555
O5 V5 1.735898 1_555
O6 V4 1.738190 1_555
O7 V5 1.735889 1_566
O8 V0 1.790685 1_555
O9 V0 1.716214 1_555
O10 V1 1.790675 1_555
O11 V1 1.716216 1_555
O12 V2 1.790666 1_555
O13 V3 1.716170 1_555
O14 V3 1.790669 1_555
O15 V2 1.716185 1_555
O16 V3 1.751827 1_555
O17 V2 1.732418 1_555
O18 V2 1.751827 1_545
O19 V3 1.732413 1_555
O20 V0 1.751832 1_655
O21 V0 1.732373 1_554
O22 V1 1.751835 1_555
O23 V1 1.732369 1_556
