# generated using pymatgen
data_Sr5Ca3Fe7CoO24
_symmetry_space_group_name_H-M   'P 1'
_cell_length_a   7.75407023
_cell_length_b   7.75407023
_cell_length_c   7.75979403
_cell_angle_alpha   89.97067715
_cell_angle_beta   89.97067715
_cell_angle_gamma   90.05544663
_symmetry_Int_Tables_number   1
_chemical_formula_structural   Sr5Ca3Fe7CoO24
_chemical_formula_sum   'Sr5 Ca3 Fe7 Co1 O24'
_cell_volume   466.56197130
_cell_formula_units_Z   1
loop_
 _symmetry_equiv_pos_site_id
 _symmetry_equiv_pos_as_xyz
  1  'x, y, z'
loop_
 _atom_site_type_symbol
 _atom_site_label
 _atom_site_symmetry_multiplicity
 _atom_site_fract_x
 _atom_site_fract_y
 _atom_site_fract_z
 _atom_site_occupancy
  Sr  Sr0  1  0.25105400  0.74908100  0.74938600  1
  Sr  Sr1  1  0.74893100  0.74893100  0.74951200  1
  Sr  Sr2  1  0.25106600  0.25106600  0.74943500  1
  Sr  Sr3  1  0.74908100  0.25105400  0.74938600  1
  Sr  Sr4  1  0.25111500  0.25111500  0.25041900  1
  Ca  Ca0  1  0.25075700  0.74901300  0.25041800  1
  Ca  Ca1  1  0.74897600  0.74897600  0.25031400  1
  Ca  Ca2  1  0.74901300  0.25075700  0.25041800  1
  Fe  Fe0  1  0.99929000  0.50066400  0.00208000  1
  Fe  Fe1  1  0.50064100  0.50064100  0.00271700  1
  Fe  Fe2  1  0.99906400  0.50059300  0.49807900  1
  Fe  Fe3  1  0.99935000  0.99935000  0.00203000  1
  Fe  Fe4  1  0.50066400  0.99929000  0.00208000  1
  Fe  Fe5  1  0.99932600  0.99932600  0.49791600  1
  Fe  Fe6  1  0.50059300  0.99906400  0.49807900  1
  Co  Co0  1  0.50060300  0.50060300  0.49788000  1
  O  O0  1  0.99935800  0.75069400  0.00636400  1
  O  O1  1  0.50037800  0.74951200  0.00644500  1
  O  O2  1  0.99923900  0.74892300  0.49392100  1
  O  O3  1  0.50020100  0.74191200  0.49401100  1
  O  O4  1  0.99709600  0.24930000  0.00402300  1
  O  O5  1  0.50309300  0.25047700  0.00402500  1
  O  O6  1  0.99715800  0.25105800  0.49578300  1
  O  O7  1  0.50378800  0.25804200  0.49529100  1
  O  O8  1  0.99957100  0.50069400  0.74918500  1
  O  O9  1  0.50094200  0.50094200  0.74437600  1
  O  O10  1  0.99700500  0.50258200  0.25083400  1
  O  O11  1  0.50280900  0.50280900  0.25574300  1
  O  O12  1  0.99952600  0.99952600  0.75051700  1
  O  O13  1  0.50069400  0.99957100  0.74918500  1
  O  O14  1  0.99712000  0.99712000  0.24945200  1
  O  O15  1  0.50258200  0.99700500  0.25083400  1
  O  O16  1  0.25047700  0.50309300  0.00402500  1
  O  O17  1  0.74951200  0.50037800  0.00644500  1
  O  O18  1  0.25804200  0.50378800  0.49529100  1
  O  O19  1  0.74191200  0.50020100  0.49401100  1
  O  O20  1  0.24930000  0.99709600  0.00402300  1
  O  O21  1  0.75069400  0.99935800  0.00636400  1
  O  O22  1  0.25105800  0.99715800  0.49578300  1
  O  O23  1  0.74892300  0.99923900  0.49392100  1
loop_
_geom_bond_atom_site_label_1
_geom_bond_atom_site_label_2
_geom_bond_distance
_geom_bond_site_symmetry_2
Ca0 O18 2.688142 1_555
Ca0 O16 2.701021 1_555
Ca0 O3 2.705735 1_555
Ca0 O1 2.706813 1_555
Ca0 O22 2.707617 1_555
Ca0 O20 2.711552 1_555
Ca0 O2 2.714808 1_455
Ca0 O0 2.718549 1_455
Ca0 O11 2.733738 1_555
Ca0 O15 2.739233 1_555
Ca0 O10 2.741448 1_455
Ca0 O14 2.752548 1_455
Ca1 O11 2.698437 1_555
Ca1 O19 2.701129 1_555
Ca1 O3 2.701129 1_555
Ca1 O1 2.701972 1_555
Ca1 O17 2.701972 1_555
Ca1 O2 2.709779 1_555
Ca1 O23 2.709779 1_555
Ca1 O21 2.710929 1_555
Ca1 O0 2.710929 1_555
Ca1 O15 2.712229 1_555
Ca1 O10 2.712229 1_555
Ca1 O14 2.719812 1_555
Ca2 O7 2.688142 1_555
Ca2 O5 2.701021 1_555
Ca2 O19 2.705735 1_555
Ca2 O17 2.706813 1_555
Ca2 O6 2.707617 1_555
Ca2 O4 2.711552 1_555
Ca2 O23 2.714808 1_545
Ca2 O21 2.718549 1_545
Ca2 O11 2.733738 1_555
Ca2 O10 2.739233 1_555
Ca2 O15 2.741448 1_545
Ca2 O14 2.752548 1_545
Fe0 O10 1.930417 1_555
Fe0 O17 1.937074 1_555
Fe0 O0 1.939052 1_555
Fe0 O16 1.947861 1_655
Fe0 O4 1.949202 1_555
Fe0 O8 1.962413 1_554
Fe1 O1 1.929998 1_555
Fe1 O17 1.929998 1_555
Fe1 O5 1.939922 1_555
Fe1 O16 1.939922 1_555
Fe1 O11 1.963591 1_555
Fe1 O9 2.004673 1_554
Fe2 O10 1.918699 1_555
Fe2 O2 1.925821 1_555
Fe2 O6 1.935045 1_555
Fe2 O8 1.948537 1_555
Fe2 O19 1.994240 1_555
Fe2 O18 2.008368 1_655
Fe3 O14 1.920082 1_555
Fe3 O21 1.928372 1_555
Fe3 O0 1.928372 1_555
Fe3 O20 1.938295 1_655
Fe3 O4 1.938295 1_565
Fe3 O12 1.951689 1_554
Fe4 O15 1.930417 1_555
Fe4 O1 1.937074 1_555
Fe4 O21 1.939052 1_555
Fe4 O5 1.947861 1_565
Fe4 O20 1.949202 1_555
Fe4 O13 1.962413 1_554
Fe5 O14 1.928199 1_555
Fe5 O2 1.941905 1_555
Fe5 O23 1.941905 1_555
Fe5 O6 1.952098 1_565
Fe5 O22 1.952098 1_655
Fe5 O12 1.960135 1_555
Fe6 O15 1.918699 1_555
Fe6 O23 1.925821 1_555
Fe6 O22 1.935045 1_555
Fe6 O13 1.948537 1_555
Fe6 O3 1.994240 1_555
Fe6 O7 2.008368 1_565
Co0 O19 1.871358 1_555
Co0 O3 1.871358 1_555
Co0 O11 1.879071 1_555
Co0 O18 1.881138 1_555
Co0 O7 1.881138 1_555
Co0 O9 1.912764 1_555
O0 Sr1 2.783405 1_554
O0 Sr0 2.789566 1_654
O1 Sr1 2.772294 1_554
O1 Sr0 2.778567 1_554
O2 Sr1 2.774308 1_555
O2 Sr0 2.783219 1_655
O3 Sr1 2.767199 1_555
O3 Sr0 2.767437 1_555
O4 Sr4 2.745787 1_655
O4 Sr3 2.758045 1_554
O4 Sr2 2.788740 1_654
O5 Sr4 2.733019 1_555
O5 Sr3 2.745670 1_554
O5 Sr2 2.779546 1_554
O6 Sr4 2.738435 1_655
O6 Sr3 2.751190 1_555
O6 Sr2 2.784668 1_655
O7 Sr4 2.730536 1_555
O7 Sr3 2.740847 1_555
O7 Sr2 2.779925 1_555
O8 Sr1 2.736677 1_555
O8 Sr0 2.739493 1_655
O8 Sr3 2.740867 1_555
O8 Sr2 2.748984 1_655
O9 Sr1 2.718430 1_555
O9 Sr0 2.732274 1_555
O9 Sr3 2.732274 1_555
O9 Sr2 2.739045 1_555
O10 Sr4 2.773437 1_655
O11 Sr4 2.759058 1_555
O12 Sr1 2.746689 1_555
O12 Sr3 2.753647 1_565
O12 Sr0 2.753647 1_655
O12 Sr2 2.757037 1_665
O13 Sr1 2.736677 1_555
O13 Sr3 2.739493 1_565
O13 Sr0 2.740867 1_555
O13 Sr2 2.748984 1_565
O14 Sr4 2.783954 1_665
O15 Sr4 2.773437 1_565
O16 Sr4 2.733019 1_555
O16 Sr0 2.745670 1_554
O16 Sr2 2.779546 1_554
O17 Sr1 2.772294 1_554
O17 Sr3 2.778567 1_554
O18 Sr4 2.730536 1_555
O18 Sr0 2.740847 1_555
O18 Sr2 2.779925 1_555
O19 Sr1 2.767199 1_555
O19 Sr3 2.767437 1_555
O20 Sr4 2.745787 1_565
O20 Sr0 2.758045 1_554
O20 Sr2 2.788740 1_564
O21 Sr1 2.783405 1_554
O21 Sr3 2.789566 1_564
O22 Sr4 2.738435 1_565
O22 Sr0 2.751190 1_555
O22 Sr2 2.784668 1_565
O23 Sr1 2.774308 1_555
O23 Sr3 2.783219 1_565
