# generated using pymatgen
data_Na2Mo3O13
_symmetry_space_group_name_H-M   'P 1'
_cell_length_a   8.73429023
_cell_length_b   8.73429023
_cell_length_c   10.98968974
_cell_angle_alpha   58.95237385
_cell_angle_beta   58.95237385
_cell_angle_gamma   25.22225776
_symmetry_Int_Tables_number   1
_chemical_formula_structural   Na2Mo3O13
_chemical_formula_sum   'Na2 Mo3 O13'
_cell_volume   303.28914237
_cell_formula_units_Z   1
loop_
 _symmetry_equiv_pos_site_id
 _symmetry_equiv_pos_as_xyz
  1  'x, y, z'
loop_
 _atom_site_type_symbol
 _atom_site_label
 _atom_site_symmetry_multiplicity
 _atom_site_fract_x
 _atom_site_fract_y
 _atom_site_fract_z
 _atom_site_occupancy
  Na  Na0  1  0.19818100  0.19818100  0.25982400  1
  Na  Na1  1  0.80481900  0.80481900  0.71214400  1
  Mo  Mo0  1  0.90435500  0.90435500  0.96733000  1
  Mo  Mo1  1  0.11189600  0.11189600  0.98458700  1
  Mo  Mo2  1  0.42979300  0.42979300  0.22869900  1
  O  O0  1  0.41504500  0.41504500  0.00692600  1
  O  O1  1  0.57256400  0.57256400  0.02422700  1
  O  O2  1  0.79081000  0.79081000  0.12353200  1
  O  O3  1  0.22422300  0.22422300  0.83101000  1
  O  O4  1  0.88923400  0.88923400  0.82293500  1
  O  O5  1  0.13080300  0.13080300  0.12664500  1
  O  O6  1  0.95010400  0.95010400  0.16977000  1
  O  O7  1  0.03979300  0.03979300  0.88541500  1
  O  O8  1  0.01248600  0.01248600  0.49510700  1
  O  O9  1  0.59593400  0.59593400  0.42053300  1
  O  O10  1  0.46229900  0.46229900  0.35242500  1
  O  O11  1  0.31023900  0.31023900  0.33377200  1
  O  O12  1  0.65782200  0.65782200  0.68211700  1
loop_
_geom_bond_atom_site_label_1
_geom_bond_atom_site_label_2
_geom_bond_distance
_geom_bond_site_symmetry_2
Na0 O5 2.288736 1_555
Na0 O2 2.423529 1_545
Na0 O2 2.423529 1_455
Na0 O11 2.439354 1_555
Na0 O9 2.557354 1_545
Na0 O9 2.557354 1_455
Na0 O8 2.838109 1_555
Na1 O3 2.309462 1_565
Na1 O3 2.309462 1_655
Na1 O4 2.324920 1_555
Na1 O12 2.694877 1_555
Na1 O8 3.049004 1_665
Mo0 O4 1.736928 1_555
Mo0 O2 1.783611 1_556
Mo0 O0 1.985689 1_566
Mo0 O0 1.985689 1_656
Mo0 O7 1.985992 1_665
Mo1 O5 1.753000 1_556
Mo1 O3 1.760447 1_555
Mo1 O1 1.991779 1_456
Mo1 O1 1.991779 1_546
Mo1 O7 2.028447 1_555
Mo1 O6 2.411589 1_446
Mo2 O10 1.718222 1_555
Mo2 O11 1.731910 1_555
Mo2 O6 1.984654 1_455
Mo2 O6 1.984654 1_545
Mo2 O1 2.278633 1_555
Mo2 O0 2.578934 1_555
