# generated using pymatgen
data_PH6NO4
_symmetry_space_group_name_H-M   'P 1'
_cell_length_a   6.50431336
_cell_length_b   6.50431336
_cell_length_c   6.72606480
_cell_angle_alpha   73.09824873
_cell_angle_beta   73.09824873
_cell_angle_gamma   113.49776643
_symmetry_Int_Tables_number   1
_chemical_formula_structural   PH6NO4
_chemical_formula_sum   'P2 H12 N2 O8'
_cell_volume   221.25309564
_cell_formula_units_Z   2
loop_
 _symmetry_equiv_pos_site_id
 _symmetry_equiv_pos_as_xyz
  1  'x, y, z'
loop_
 _atom_site_type_symbol
 _atom_site_label
 _atom_site_symmetry_multiplicity
 _atom_site_fract_x
 _atom_site_fract_y
 _atom_site_fract_z
 _atom_site_occupancy
  P  P0  1  0.27298000  0.77298000  0.50000000  1
  P  P1  1  0.02298000  0.02298000  0.00000000  1
  H  H0  1  0.00635100  0.42879900  0.84669900  1
  H  H1  1  0.27549800  0.85305000  0.15330100  1
  H  H2  1  0.67879900  0.75635100  0.34669900  1
  H  H3  1  0.10305000  0.02549800  0.65330100  1
  H  H4  1  0.68785700  0.04736000  0.54568900  1
  H  H5  1  0.60862400  0.65957200  0.86141000  1
  H  H6  1  0.59304900  0.23354600  0.45431100  1
  H  H7  1  0.52098200  0.47003400  0.13859000  1
  H  H8  1  0.72003400  0.27098200  0.63859000  1
  H  H9  1  0.29736000  0.43785700  0.04568900  1
  H  H10  1  0.90957200  0.35862400  0.36141000  1
  H  H11  1  0.48354600  0.34304900  0.95431100  1
  N  N0  1  0.73208700  0.23208700  0.50000000  1
  N  N1  1  0.48208700  0.48208700  0.00000000  1
  O  O0  1  0.00221800  0.55693100  0.71721100  1
  O  O1  1  0.99750200  0.22954700  0.04916200  1
  O  O2  1  0.27414200  0.71943000  0.28278900  1
  O  O3  1  0.27870900  0.04666400  0.95083800  1
  O  O4  1  0.29666400  0.02870900  0.45083800  1
  O  O5  1  0.80693100  0.75221800  0.21721100  1
  O  O6  1  0.47954700  0.74750200  0.54916200  1
  O  O7  1  0.96943000  0.02414200  0.78278900  1
loop_
_geom_bond_atom_site_label_1
_geom_bond_atom_site_label_2
_geom_bond_distance
_geom_bond_site_symmetry_2
H0 O0 1.031146 1_555
H0 O1 1.551163 1_456
H1 O2 1.031142 1_555
H1 O3 1.551163 1_564
H2 O5 1.031146 1_555
H2 O6 1.551163 1_555
H3 O7 1.031142 1_455
H3 O4 1.551163 1_555
H4 N0 1.038804 1_555
H5 N1 1.024464 1_556
H6 N0 1.038804 1_555
H7 N1 1.024464 1_555
H8 N0 1.024464 1_555
H9 N1 1.038804 1_555
H10 N0 1.024464 1_555
H11 N1 1.038804 1_556
O0 P0 1.596057 1_555
O1 P1 1.531672 1_655
O2 P0 1.596054 1_555
O3 P1 1.531672 1_556
O4 P0 1.531672 1_545
O5 P1 1.596057 1_665
O6 P0 1.531672 1_555
O7 P1 1.596054 1_656
