# generated using pymatgen
data_WO2
_symmetry_space_group_name_H-M   'P 1'
_cell_length_a   11.81198495
_cell_length_b   11.37265065
_cell_length_c   11.68176058
_cell_angle_alpha   93.25581562
_cell_angle_beta   88.12605638
_cell_angle_gamma   92.19302026
_symmetry_Int_Tables_number   1
_chemical_formula_structural   WO2
_chemical_formula_sum   'W34 O68'
_cell_volume   1564.83919891
_cell_formula_units_Z   34
loop_
 _symmetry_equiv_pos_site_id
 _symmetry_equiv_pos_as_xyz
  1  'x, y, z'
loop_
 _atom_site_type_symbol
 _atom_site_label
 _atom_site_symmetry_multiplicity
 _atom_site_fract_x
 _atom_site_fract_y
 _atom_site_fract_z
 _atom_site_occupancy
  W  W0  1  0.64568257  0.91804045  0.54534437  1
  W  W1  1  0.70936802  0.03639943  0.00250333  1
  W  W2  1  0.23587837  0.75734584  0.47448053  1
  W  W3  1  0.01707708  0.67875128  0.23446862  1
  W  W4  1  0.38183776  0.08334858  0.28095652  1
  W  W5  1  0.84392788  0.05462649  0.70711363  1
  W  W6  1  0.99085270  0.08771918  0.01443448  1
  W  W7  1  0.01519485  0.28783543  0.54404982  1
  W  W8  1  0.80746163  0.78290282  0.02730521  1
  W  W9  1  0.12992536  0.08196250  0.76778521  1
  W  W10  1  0.78765974  0.47000978  0.03734804  1
  W  W11  1  0.07293823  0.98323719  0.33439420  1
  W  W12  1  0.67340447  0.17491462  0.54611570  1
  W  W13  1  0.25163971  0.33033684  0.74206988  1
  W  W14  1  0.40413741  0.47539676  0.95414514  1
  W  W15  1  0.55379082  0.38578115  0.23006640  1
  W  W16  1  0.78851833  0.28181406  0.20211508  1
  W  W17  1  0.63207635  0.25299711  0.85325383  1
  W  W18  1  0.79452255  0.43730286  0.70783127  1
  W  W19  1  0.93271624  0.74245380  0.63551144  1
  W  W20  1  0.04410597  0.53053687  0.78771532  1
  W  W21  1  0.57243209  0.87826543  0.82040908  1
  W  W22  1  0.60597342  0.88271307  0.23734942  1
  W  W23  1  0.62542234  0.47060200  0.52064022  1
  W  W24  1  0.36282066  0.55744041  0.62227074  1
  W  W25  1  0.20023734  0.48325561  0.34703297  1
  W  W26  1  0.35123026  0.02432417  0.59845682  1
  W  W27  1  0.41738012  0.68366641  0.21130540  1
  W  W28  1  0.10238372  0.22968447  0.25126917  1
  W  W29  1  0.24481168  0.81205492  0.79588532  1
  W  W30  1  0.40538895  0.21586097  0.01564858  1
  W  W31  1  0.10434535  0.67900518  0.98141762  1
  W  W32  1  0.40461086  0.29307295  0.43261817  1
  W  W33  1  0.11467321  0.41599644  0.02898376  1
  O  O0  1  0.20459551  0.95200307  0.67816394  1
  O  O1  1  0.75714689  0.39418415  0.88225085  1
  O  O2  1  0.20806508  0.09184030  0.27225091  1
  O  O3  1  0.50606594  0.60022380  0.57823558  1
  O  O4  1  0.96226743  0.39784945  0.68099391  1
  O  O5  1  0.82949444  0.16375074  0.07241651  1
  O  O6  1  0.07425213  0.41393152  0.45665773  1
  O  O7  1  0.07212145  0.74313149  0.56576333  1
  O  O8  1  0.64028124  0.49449406  0.69469842  1
  O  O9  1  0.43292757  0.61281650  0.04849309  1
  O  O10  1  0.93536694  0.28172397  0.25258063  1
  O  O11  1  0.11820287  0.58494315  0.12515159  1
  O  O12  1  0.77748345  0.63134733  0.96240019  1
  O  O13  1  0.11340678  0.38559102  0.85241023  1
  O  O14  1  0.33242514  0.76986865  0.32267000  1
  O  O15  1  0.95902550  0.72826720  0.07315578  1
  O  O16  1  0.65033149  0.49015923  0.11527035  1
  O  O17  1  0.90610932  0.15253590  0.59269439  1
  O  O18  1  0.74436589  0.17266354  0.41275075  1
  O  O19  1  0.55259049  0.13045000  0.95491110  1
  O  O20  1  0.07332183  0.84549354  0.23512135  1
  O  O21  1  0.94433170  0.45867792  0.03181065  1
  O  O22  1  0.63946387  0.24641670  0.14647173  1
  O  O23  1  0.12824293  0.64908600  0.35722251  1
  O  O24  1  0.07844242  0.71788817  0.80708135  1
  O  O25  1  0.36751482  0.09106656  0.10996284  1
  O  O26  1  0.89976543  0.88573838  0.71121549  1
  O  O27  1  0.34226353  0.38398210  0.59116586  1
  O  O28  1  0.35082788  0.11471632  0.46045132  1
  O  O29  1  0.34296733  0.50000620  0.79032782  1
  O  O30  1  0.78690948  0.44407499  0.53476091  1
  O  O31  1  0.47250552  0.82682693  0.14215066  1
  O  O32  1  0.30373314  0.14867845  0.73304276  1
  O  O33  1  0.70725523  0.01620819  0.81923826  1
  O  O34  1  0.37612706  0.86763444  0.53347100  1
  O  O35  1  0.25191375  0.31569651  0.34105955  1
  O  O36  1  0.28010131  0.34235537  0.98069974  1
  O  O37  1  0.54667795  0.66193894  0.27998539  1
  O  O38  1  0.86836866  0.94391546  0.99941699  1
  O  O39  1  0.02016859  0.07420186  0.19269772  1
  O  O40  1  0.27781864  0.70514234  0.64994872  1
  O  O41  1  0.28298747  0.57759392  0.48024889  1
  O  O42  1  0.44927283  0.37489132  0.09763597  1
  O  O43  1  0.05910424  0.16885882  0.40492678  1
  O  O44  1  0.17056561  0.91860132  0.43295611  1
  O  O45  1  0.89049958  0.60763273  0.27886931  1
  O  O46  1  0.72775972  0.25512241  0.69840495  1
  O  O47  1  0.71472198  0.38485979  0.30933439  1
  O  O48  1  0.12545288  0.02195819  0.92566310  1
  O  O49  1  0.94065265  0.96055681  0.40398545  1
  O  O50  1  0.07750639  0.23727296  0.06092694  1
  O  O51  1  0.11656133  0.21839372  0.66648984  1
  O  O52  1  0.89161028  0.60746533  0.72041595  1
  O  O53  1  0.54455927  0.05453606  0.57218200  1
  O  O54  1  0.25500431  0.73810373  0.94855441  1
  O  O55  1  0.47876275  0.32425884  0.88483355  1
  O  O56  1  0.50609984  0.44670697  0.38815935  1
  O  O57  1  0.95954224  0.10097625  0.82961725  1
  O  O58  1  0.68822516  0.90089330  0.39775365  1
  O  O59  1  0.32827154  0.54513511  0.24204827  1
  O  O60  1  0.75465866  0.80486904  0.17849460  1
  O  O61  1  0.12974301  0.39088733  0.20420922  1
  O  O62  1  0.53790201  0.03255228  0.28907204  1
  O  O63  1  0.65688465  0.85205480  0.96188685  1
  O  O64  1  0.63411163  0.81741269  0.67147975  1
  O  O65  1  0.41746524  0.88261486  0.80530935  1
  O  O66  1  0.83305955  0.73287404  0.52686179  1
  O  O67  1  0.56123150  0.29819586  0.53136903  1
loop_
_geom_bond_atom_site_label_1
_geom_bond_atom_site_label_2
_geom_bond_distance
_geom_bond_site_symmetry_2
O0 W9 1.980416 1_565
O0 W26 2.101413 1_565
O0 W29 2.235877 1_555
O1 W10 1.999407 1_556
O1 W18 2.150578 1_555
O1 W17 2.159823 1_555
O2 W4 2.064649 1_555
O2 W28 2.071064 1_555
O2 W11 2.115480 1_545
O3 W24 1.809077 1_555
O3 W23 2.144243 1_555
O4 W18 2.058395 1_555
O4 W7 2.069426 1_655
O4 W20 2.125865 1_655
O5 W16 2.025670 1_555
O5 W1 2.135924 1_555
O5 W6 2.194154 1_555
O6 W7 1.904861 1_555
O6 W25 2.091970 1_555
O7 W19 1.813115 1_455
O7 W2 2.182995 1_555
O8 W18 1.971341 1_555
O8 W23 2.048390 1_555
O9 W14 1.887060 1_554
O9 W27 2.028478 1_555
O10 W16 1.850235 1_555
O10 W28 2.080572 1_655
O11 W3 2.009669 1_555
O11 W31 2.055671 1_554
O11 W33 2.169611 1_555
O12 W8 1.869071 1_556
O12 W10 2.086587 1_556
O13 W20 2.060037 1_555
O13 W33 2.072459 1_556
O13 W13 2.138046 1_555
O14 W27 1.872309 1_555
O14 W2 2.085618 1_555
O15 W8 2.015857 1_555
O15 W31 2.072161 1_654
O15 W3 2.138441 1_655
O16 W10 1.849475 1_555
O16 W15 2.117784 1_555
O17 W5 1.899509 1_555
O17 W7 2.061680 1_655
O18 W12 1.744162 1_555
O19 W17 2.061320 1_555
O19 W30 2.107238 1_556
O19 W1 2.273539 1_556
O20 W11 1.895438 1_555
O20 W3 1.984859 1_555
O21 W10 1.858767 1_555
O21 W33 2.086556 1_655
O22 W16 1.917099 1_555
O22 W15 2.090946 1_555
O23 W3 2.026408 1_555
O23 W25 2.093968 1_555
O23 W2 2.193426 1_555
O24 W31 2.142455 1_555
O24 W20 2.154203 1_555
O24 W29 2.205412 1_555
O25 W30 1.877510 1_555
O25 W4 2.017304 1_555
O26 W19 1.857758 1_555
O26 W5 2.058127 1_565
O27 W24 1.992524 1_555
O27 W13 2.138781 1_555
O27 W32 2.189326 1_555
O28 W26 1.960853 1_555
O28 W4 2.129053 1_555
O28 W32 2.141598 1_555
O29 W14 2.104588 1_555
O29 W24 2.107042 1_555
O29 W13 2.227499 1_555
O30 W23 1.956269 1_555
O30 W18 2.032650 1_555
O31 W27 1.939387 1_555
O31 W22 2.020843 1_555
O32 W26 2.130052 1_555
O32 W13 2.173970 1_555
O32 W9 2.194661 1_555
O33 W5 2.094145 1_555
O33 W1 2.140991 1_556
O33 W21 2.192533 1_545
O34 W26 1.926157 1_565
O34 W2 2.147071 1_555
O35 W25 2.019868 1_555
O35 W32 2.157843 1_555
O35 W28 2.247015 1_555
O36 W14 2.094275 1_555
O36 W30 2.166895 1_556
O36 W33 2.199385 1_556
O37 W27 1.780119 1_555
O37 W22 2.650909 1_555
O38 W8 1.982020 1_556
O38 W6 2.145112 1_566
O38 W1 2.185706 1_566
O39 W28 2.076668 1_555
O39 W11 2.123668 1_545
O39 W6 2.137205 1_455
O40 W24 1.995093 1_555
O40 W29 2.072211 1_555
O40 W2 2.242014 1_555
O41 W24 1.963749 1_555
O41 W25 2.087530 1_555
O41 W2 2.144369 1_555
O42 W15 2.006043 1_555
O42 W30 2.054501 1_555
O42 W14 2.173284 1_554
O43 W28 2.003950 1_555
O43 W7 2.118940 1_555
O43 W11 2.232034 1_545
O44 W11 1.855712 1_555
O44 W2 2.104155 1_555
O45 W3 1.750142 1_655
O46 W12 2.062692 1_555
O46 W17 2.102207 1_555
O46 W18 2.186642 1_555
O46 W5 2.714282 1_555
O47 W16 1.882024 1_555
O47 W15 2.142148 1_555
O48 W9 2.000927 1_555
O48 W6 2.014335 1_456
O49 W11 1.754677 1_655
O50 W6 2.008389 1_455
O50 W33 2.114337 1_555
O50 W28 2.259284 1_555
O51 W9 2.017935 1_555
O51 W7 2.101377 1_555
O51 W13 2.180606 1_555
O52 W19 1.913287 1_555
O52 W18 2.211474 1_555
O52 W20 2.217980 1_655
O53 W0 1.999215 1_545
O53 W12 2.034887 1_555
O53 W26 2.309368 1_555
O54 W31 1.912879 1_555
O54 W29 2.023524 1_555
O55 W17 2.026589 1_555
O55 W14 2.073205 1_555
O55 W30 2.156783 1_556
O56 W15 2.006139 1_555
O56 W23 2.126270 1_555
O56 W32 2.159091 1_555
O57 W5 2.043962 1_555
O57 W9 2.130584 1_655
O57 W6 2.216803 1_556
O58 W0 1.782072 1_555
O58 W22 2.134829 1_555
O59 W27 1.905668 1_555
O59 W25 2.044935 1_555
O60 W8 1.860241 1_555
O60 W22 2.076487 1_555
O61 W28 1.955806 1_555
O61 W33 2.096977 1_555
O61 W25 2.098893 1_555
O62 W4 1.959615 1_555
O62 W22 1.967630 1_545
O63 W21 2.000489 1_555
O63 W8 2.151783 1_556
O63 W1 2.193508 1_566
O64 W0 1.914652 1_555
O64 W21 1.963523 1_555
O65 W21 1.847486 1_555
O65 W29 2.166687 1_555
O66 W19 1.755177 1_555
O67 W12 1.983809 1_555
O67 W23 2.083970 1_555
O67 W32 2.209150 1_555
