# generated using pymatgen
data_CaMn7O12
_symmetry_space_group_name_H-M   'P 1'
_cell_length_a   6.51582861
_cell_length_b   6.51578357
_cell_length_c   10.58493657
_cell_angle_alpha   90.63539064
_cell_angle_beta   89.36616525
_cell_angle_gamma   110.03520255
_symmetry_Int_Tables_number   1
_chemical_formula_structural   CaMn7O12
_chemical_formula_sum   'Ca2 Mn14 O24'
_cell_volume   422.15650165
_cell_formula_units_Z   2
loop_
 _symmetry_equiv_pos_site_id
 _symmetry_equiv_pos_as_xyz
  1  'x, y, z'
loop_
 _atom_site_type_symbol
 _atom_site_label
 _atom_site_symmetry_multiplicity
 _atom_site_fract_x
 _atom_site_fract_y
 _atom_site_fract_z
 _atom_site_occupancy
  Ca  Ca0  1  0.99989100  0.99991600  0.00003100  1
  Ca  Ca1  1  0.49999400  0.50003500  0.50001700  1
  Mn  Mn0  1  0.74906900  0.75074000  0.25049600  1
  Mn  Mn1  1  0.25095600  0.24925600  0.74961300  1
  Mn  Mn2  1  0.49994800  0.99988700  0.00002400  1
  Mn  Mn3  1  0.00006200  0.49995000  0.49988700  1
  Mn  Mn4  1  0.00020800  0.50008900  0.00000100  1
  Mn  Mn5  1  0.49976700  0.00007200  0.50006800  1
  Mn  Mn6  1  0.24932800  0.25108700  0.25035100  1
  Mn  Mn7  1  0.75094300  0.74879200  0.74946600  1
  Mn  Mn8  1  0.74784800  0.25198800  0.24833100  1
  Mn  Mn9  1  0.25195400  0.74794800  0.75164700  1
  Mn  Mn10  1  0.99985800  0.00020700  0.50011000  1
  Mn  Mn11  1  0.24950400  0.75045800  0.25017000  1
  Mn  Mn12  1  0.75057800  0.24941900  0.74970600  1
  Mn  Mn13  1  0.50050700  0.50004000  0.99986000  1
  O  O0  1  0.83662900  0.51994700  0.34826100  1
  O  O1  1  0.33724700  0.01912500  0.84862700  1
  O  O2  1  0.66256900  0.98076900  0.15140300  1
  O  O3  1  0.16316000  0.48000300  0.65179000  1
  O  O4  1  0.47984900  0.16329100  0.34817800  1
  O  O5  1  0.98077000  0.66261900  0.84861600  1
  O  O6  1  0.01916100  0.33733600  0.15138600  1
  O  O7  1  0.51991800  0.83663300  0.65180500  1
  O  O8  1  0.77863800  0.60578100  0.09083500  1
  O  O9  1  0.28048800  0.10412900  0.58751200  1
  O  O10  1  0.71946000  0.89634200  0.41246900  1
  O  O11  1  0.22138400  0.39411700  0.90921200  1
  O  O12  1  0.10402300  0.28061200  0.41246800  1
  O  O13  1  0.60584100  0.77853800  0.90921600  1
  O  O14  1  0.39409400  0.22134800  0.09075700  1
  O  O15  1  0.89627400  0.71948600  0.58752300  1
  O  O16  1  0.25473200  0.74516600  0.43389400  1
  O  O17  1  0.75442800  0.24559600  0.93425900  1
  O  O18  1  0.24551300  0.75437000  0.06580800  1
  O  O19  1  0.74530700  0.25481400  0.56612600  1
  O  O20  1  0.43385400  0.56631700  0.25714000  1
  O  O21  1  0.93492800  0.06488300  0.75468700  1
  O  O22  1  0.06500500  0.93505600  0.24533700  1
  O  O23  1  0.56631100  0.43383700  0.74291300  1
loop_
_geom_bond_atom_site_label_1
_geom_bond_atom_site_label_2
_geom_bond_distance
_geom_bond_site_symmetry_2
Ca0 O13 2.661440 1_554
Ca0 O8 2.661689 1_555
Ca0 O14 2.661949 1_665
Ca0 O11 2.662408 1_664
Ca0 O2 2.674388 1_555
Ca0 O5 2.674515 1_554
Ca0 O6 2.674559 1_665
Ca0 O1 2.674673 1_664
Ca0 O22 2.696709 1_655
Ca0 O21 2.697034 1_564
Ca0 O17 2.721941 1_564
Ca0 O18 2.722084 1_655
Ca1 O9 2.655845 1_555
Ca1 O12 2.656247 1_555
Ca1 O15 2.657715 1_555
Ca1 O10 2.658057 1_555
Ca1 O7 2.672027 1_555
Ca1 O0 2.672086 1_555
Ca1 O4 2.672780 1_555
Ca1 O3 2.673050 1_555
Ca1 O20 2.675466 1_555
Ca1 O23 2.675797 1_555
Ca1 O16 2.719073 1_555
Ca1 O19 2.719760 1_555
Mn0 O8 1.966578 1_555
Mn0 O10 1.989652 1_555
Mn0 O20 1.993728 1_555
Mn0 O22 1.997007 1_655
Mn0 O2 2.071491 1_555
Mn0 O0 2.072012 1_555
Mn1 O11 1.965701 1_555
Mn1 O9 1.989139 1_555
Mn1 O23 1.994755 1_555
Mn1 O21 1.997573 1_455
Mn1 O1 2.070890 1_555
Mn1 O3 2.072893 1_555
Mn2 O2 1.959135 1_555
Mn2 O1 1.959792 1_564
Mn2 O18 1.993599 1_555
Mn2 O17 1.994344 1_564
Mn2 O13 2.028924 1_554
Mn2 O14 2.029011 1_565
Mn3 O0 1.965804 1_455
Mn3 O3 1.966884 1_555
Mn3 O16 1.994198 1_555
Mn3 O12 1.994422 1_555
Mn3 O19 1.995147 1_455
Mn3 O15 1.995877 1_455
Mn4 O5 1.959404 1_454
Mn4 O6 1.959419 1_555
Mn4 O18 1.992378 1_555
Mn4 O17 1.994515 1_454
Mn4 O11 2.028217 1_554
Mn4 O8 2.029493 1_455
Mn5 O7 1.967072 1_545
Mn5 O4 1.967189 1_555
Mn5 O9 1.994602 1_555
Mn5 O16 1.995077 1_545
Mn5 O19 1.995765 1_555
Mn5 O10 1.996342 1_545
Mn6 O14 1.965640 1_555
Mn6 O12 1.989872 1_555
Mn6 O20 1.994011 1_555
Mn6 O22 1.997483 1_545
Mn6 O6 2.070665 1_555
Mn6 O4 2.071693 1_555
Mn7 O13 1.968164 1_555
Mn7 O15 1.988024 1_555
Mn7 O23 1.992633 1_555
Mn7 O21 1.997308 1_565
Mn7 O5 2.069596 1_555
Mn7 O7 2.073663 1_555
Mn8 O4 1.944618 1_555
Mn8 O0 1.944838 1_555
Mn8 O2 1.945240 1_545
Mn8 O6 1.945861 1_655
Mn9 O3 1.944350 1_555
Mn9 O7 1.944410 1_555
Mn9 O1 1.945305 1_565
Mn9 O5 1.945320 1_455
Mn10 O10 1.957796 1_545
Mn10 O9 1.957830 1_655
Mn10 O12 1.957902 1_655
Mn10 O15 1.958351 1_545
Mn11 O16 1.946276 1_555
Mn11 O18 1.952486 1_555
Mn11 O20 1.969600 1_555
Mn11 O22 1.971810 1_555
Mn12 O19 1.944786 1_555
Mn12 O17 1.954465 1_555
Mn12 O23 1.970540 1_555
Mn12 O21 1.970747 1_555
Mn13 O8 1.963318 1_556
Mn13 O13 1.963463 1_555
Mn13 O14 1.966017 1_556
Mn13 O11 1.966866 1_555
