# generated using pymatgen
data_Sm2Cl2O
_symmetry_space_group_name_H-M   'P 1'
_cell_length_a   4.26135100
_cell_length_b   4.26135100
_cell_length_c   13.02815400
_cell_angle_alpha   90.00000000
_cell_angle_beta   90.00000000
_cell_angle_gamma   90.00000000
_symmetry_Int_Tables_number   1
_chemical_formula_structural   Sm2Cl2O
_chemical_formula_sum   'Sm2 Cl2 O1'
_cell_volume   236.57971214
_cell_formula_units_Z   1
loop_
 _symmetry_equiv_pos_site_id
 _symmetry_equiv_pos_as_xyz
  1  'x, y, z'
loop_
 _atom_site_type_symbol
 _atom_site_label
 _atom_site_symmetry_multiplicity
 _atom_site_fract_x
 _atom_site_fract_y
 _atom_site_fract_z
 _atom_site_occupancy
  Sm  Sm0  1  0.50000000  0.50000000  0.16359100  1
  Sm  Sm1  1  0.50000000  0.50000000  0.83640900  1
  Cl  Cl0  1  0.50000000  0.50000000  0.64325700  1
  Cl  Cl1  1  0.50000000  0.50000000  0.35674300  1
  O  O0  1  0.50000000  0.50000000  0.00000000  1
loop_
_geom_bond_atom_site_label_1
_geom_bond_atom_site_label_2
_geom_bond_distance
_geom_bond_site_symmetry_2
Cl0 Sm1 2.516414 1_555
Cl1 Sm0 2.516414 1_555
O0 Sm0 2.131289 1_555
O0 Sm1 2.131289 1_554
