# generated using pymatgen
data_CaMg
_symmetry_space_group_name_H-M   'P 1'
_cell_length_a   6.13653137
_cell_length_b   6.13653137
_cell_length_c   6.60191061
_cell_angle_alpha   66.00762715
_cell_angle_beta   66.00762715
_cell_angle_gamma   60.23189618
_symmetry_Int_Tables_number   1
_chemical_formula_structural   CaMg
_chemical_formula_sum   'Ca3 Mg3'
_cell_volume   190.47363459
_cell_formula_units_Z   3
loop_
 _symmetry_equiv_pos_site_id
 _symmetry_equiv_pos_as_xyz
  1  'x, y, z'
loop_
 _atom_site_type_symbol
 _atom_site_label
 _atom_site_symmetry_multiplicity
 _atom_site_fract_x
 _atom_site_fract_y
 _atom_site_fract_z
 _atom_site_occupancy
  Ca  Ca0  1  0.35366600  0.64633400  0.00000000  1
  Ca  Ca1  1  0.15513300  0.16820700  0.50929800  1
  Ca  Ca2  1  0.83179300  0.84486700  0.49070200  1
  Mg  Mg0  1  0.66018500  0.00261000  0.99672900  1
  Mg  Mg1  1  0.99739000  0.33981500  0.00327100  1
  Mg  Mg2  1  0.50183200  0.49816800  0.50000000  1
loop_
_geom_bond_atom_site_label_1
_geom_bond_atom_site_label_2
_geom_bond_distance
_geom_bond_site_symmetry_2
Ca0 Mg2 3.424733 1_554
Ca0 Mg2 3.424733 1_555
Ca0 Mg1 3.435269 1_555
Ca0 Mg0 3.435269 1_554
Ca0 Mg1 3.511474 1_455
Ca0 Mg0 3.511474 1_564
Ca0 Ca2 3.624008 1_455
Ca0 Ca1 3.624008 1_564
Ca0 Ca1 3.686959 1_555
Ca0 Ca2 3.686959 1_554
Ca0 Mg0 3.699719 1_464
Ca0 Mg1 3.699719 1_465
Ca1 Mg1 3.448857 1_456
Ca1 Mg1 3.458785 1_455
Ca1 Ca2 3.492080 1_445
Ca1 Mg2 3.494893 1_455
Ca1 Mg2 3.563757 1_555
Ca1 Ca2 3.577201 1_545
Ca1 Ca2 3.577201 1_455
Ca1 Mg2 3.584551 1_545
Ca1 Mg0 3.615253 1_455
Ca1 Mg0 3.637213 1_554
Ca2 Mg0 3.448857 1_564
Ca2 Mg0 3.458785 1_565
Ca2 Mg2 3.494893 1_565
Ca2 Mg2 3.563757 1_555
Ca2 Mg2 3.584551 1_655
Ca2 Mg1 3.615253 1_565
Ca2 Mg1 3.637213 1_556
