# generated using pymatgen
data_NaGaGeO4
_symmetry_space_group_name_H-M   'P 1'
_cell_length_a   8.43683100
_cell_length_b   9.01812700
_cell_length_c   18.12287932
_cell_angle_alpha   60.43312918
_cell_angle_beta   90.00000000
_cell_angle_gamma   90.00000000
_symmetry_Int_Tables_number   1
_chemical_formula_structural   NaGaGeO4
_chemical_formula_sum   'Na12 Ga12 Ge12 O48'
_cell_volume   1199.31290265
_cell_formula_units_Z   12
loop_
 _symmetry_equiv_pos_site_id
 _symmetry_equiv_pos_as_xyz
  1  'x, y, z'
loop_
 _atom_site_type_symbol
 _atom_site_label
 _atom_site_symmetry_multiplicity
 _atom_site_fract_x
 _atom_site_fract_y
 _atom_site_fract_z
 _atom_site_occupancy
  Na  Na0  1  0.46983500  0.85192200  0.91367400  1
  Na  Na1  1  0.53016500  0.14807800  0.08632600  1
  Na  Na2  1  0.96983500  0.14807800  0.58632600  1
  Na  Na3  1  0.03016500  0.85192200  0.41367400  1
  Na  Na4  1  0.97450600  0.50137800  0.75243200  1
  Na  Na5  1  0.02549400  0.49862200  0.24756800  1
  Na  Na6  1  0.47450600  0.49862200  0.74756800  1
  Na  Na7  1  0.52549400  0.50137800  0.25243200  1
  Na  Na8  1  0.03201200  0.80049900  0.93039200  1
  Na  Na9  1  0.96798800  0.19950100  0.06960800  1
  Na  Na10  1  0.53201200  0.19950100  0.56960800  1
  Na  Na11  1  0.46798800  0.80049900  0.43039200  1
  Ga  Ga0  1  0.67109400  0.84479200  0.59072900  1
  Ga  Ga1  1  0.32890600  0.15520800  0.40927100  1
  Ga  Ga2  1  0.17109400  0.15520800  0.90927100  1
  Ga  Ga3  1  0.82890600  0.84479200  0.09072900  1
  Ga  Ga4  1  0.17207600  0.51972500  0.57943200  1
  Ga  Ga5  1  0.82792400  0.48027500  0.42056800  1
  Ga  Ga6  1  0.67207600  0.48027500  0.92056800  1
  Ga  Ga7  1  0.32792400  0.51972500  0.07943200  1
  Ga  Ga8  1  0.17224900  0.81995400  0.76145200  1
  Ga  Ga9  1  0.82775100  0.18004600  0.23854800  1
  Ga  Ga10  1  0.67224900  0.18004600  0.73854800  1
  Ga  Ga11  1  0.32775100  0.81995400  0.26145200  1
  Ge  Ge0  1  0.28368800  0.47324300  0.91950300  1
  Ge  Ge1  1  0.71631200  0.52675700  0.08049700  1
  Ge  Ge2  1  0.78368800  0.52675700  0.58049700  1
  Ge  Ge3  1  0.21631200  0.47324300  0.41950300  1
  Ge  Ge4  1  0.28198300  0.84407800  0.59179000  1
  Ge  Ge5  1  0.71801700  0.15592200  0.40821000  1
  Ge  Ge6  1  0.78198300  0.15592200  0.90821000  1
  Ge  Ge7  1  0.21801700  0.84407800  0.09179000  1
  Ge  Ge8  1  0.78486000  0.81489500  0.76459400  1
  Ge  Ge9  1  0.21514000  0.18510500  0.23540600  1
  Ge  Ge10  1  0.28486000  0.18510500  0.73540600  1
  Ge  Ge11  1  0.71514000  0.81489500  0.26459400  1
  O  O0  1  0.27643400  0.61152000  0.80823900  1
  O  O1  1  0.72356600  0.38848000  0.19176100  1
  O  O2  1  0.77643400  0.38848000  0.69176100  1
  O  O3  1  0.22356600  0.61152000  0.30823900  1
  O  O4  1  0.24015000  0.58953300  0.97250000  1
  O  O5  1  0.75985000  0.41046700  0.02750000  1
  O  O6  1  0.74015000  0.41046700  0.52750000  1
  O  O7  1  0.25985000  0.58953300  0.47250000  1
  O  O8  1  0.14656900  0.90799000  0.64574800  1
  O  O9  1  0.85343100  0.09201000  0.35425200  1
  O  O10  1  0.64656900  0.09201000  0.85425200  1
  O  O11  1  0.35343100  0.90799000  0.14574800  1
  O  O12  1  0.26413100  0.94472800  0.98192600  1
  O  O13  1  0.73586900  0.05527200  0.01807400  1
  O  O14  1  0.76413100  0.05527200  0.51807400  1
  O  O15  1  0.23586900  0.94472800  0.48192600  1
  O  O16  1  0.14904200  0.30058800  0.95368100  1
  O  O17  1  0.85095800  0.69941200  0.04631900  1
  O  O18  1  0.64904200  0.69941200  0.54631900  1
  O  O19  1  0.35095800  0.30058800  0.45368100  1
  O  O20  1  0.25897100  0.96195800  0.79804400  1
  O  O21  1  0.74102900  0.03804200  0.20195600  1
  O  O22  1  0.75897100  0.03804200  0.70195600  1
  O  O23  1  0.24102900  0.96195800  0.29804400  1
  O  O24  1  0.77223300  0.72892800  0.69509600  1
  O  O25  1  0.22776700  0.27107200  0.30490400  1
  O  O26  1  0.27223300  0.27107200  0.80490400  1
  O  O27  1  0.72776700  0.72892800  0.19509600  1
  O  O28  1  0.14900800  0.28558300  0.64964500  1
  O  O29  1  0.85099200  0.71441700  0.35035500  1
  O  O30  1  0.64900800  0.71441700  0.85035500  1
  O  O31  1  0.35099200  0.28558300  0.14964500  1
  O  O32  1  0.47038200  0.90510800  0.61050800  1
  O  O33  1  0.52961800  0.09489200  0.38949200  1
  O  O34  1  0.97038200  0.09489200  0.88949200  1
  O  O35  1  0.02961800  0.90510800  0.11050800  1
  O  O36  1  0.97358500  0.76322800  0.81318800  1
  O  O37  1  0.02641500  0.23677200  0.18681200  1
  O  O38  1  0.47358500  0.23677200  0.68681200  1
  O  O39  1  0.52641500  0.76322800  0.31318800  1
  O  O40  1  0.28115100  0.61969900  0.63297000  1
  O  O41  1  0.71884900  0.38030100  0.36703000  1
  O  O42  1  0.78115100  0.38030100  0.86703000  1
  O  O43  1  0.21884900  0.61969900  0.13297000  1
  O  O44  1  0.97303400  0.62296400  0.55383400  1
  O  O45  1  0.02696600  0.37703600  0.44616600  1
  O  O46  1  0.47303400  0.37703600  0.94616600  1
  O  O47  1  0.52696600  0.62296400  0.05383400  1
loop_
_geom_bond_atom_site_label_1
_geom_bond_atom_site_label_2
_geom_bond_distance
_geom_bond_site_symmetry_2
Na0 O10 2.402045 1_565
Na0 O47 2.402462 1_556
Na0 O12 2.502800 1_555
Na0 O20 2.547309 1_555
Na0 O30 2.558103 1_555
Na0 O4 2.828657 1_555
Na1 O11 2.402045 1_545
Na1 O46 2.402462 1_554
Na1 O13 2.502800 1_555
Na1 O21 2.547309 1_555
Na1 O31 2.558103 1_555
Na1 O5 2.828657 1_555
Na2 O8 2.402045 1_645
Na2 O45 2.402462 1_655
Na2 O14 2.502800 1_555
Na2 O22 2.547309 1_555
Na2 O28 2.558103 1_655
Na2 O6 2.828657 1_555
Na3 O9 2.402045 1_465
Na3 O44 2.402462 1_455
Na3 O15 2.502800 1_555
Na3 O23 2.547309 1_555
Na3 O29 2.558103 1_455
Na3 O7 2.828657 1_555
Na4 O42 2.434899 1_555
Na4 O24 2.469554 1_555
Na4 O2 2.478490 1_555
Na5 O43 2.434899 1_555
Na5 O25 2.469554 1_555
Na5 O3 2.478490 1_555
Na6 O40 2.434899 1_555
Na6 O26 2.469554 1_555
Na6 O0 2.478490 1_555
Na7 O41 2.434899 1_555
Na7 O27 2.469554 1_555
Na7 O1 2.478490 1_555
Na8 O36 2.360554 1_455
Na8 O17 2.384988 1_456
Na8 O4 2.419247 1_555
Na8 O34 2.434356 1_465
Na8 O12 2.756439 1_555
Na8 O20 2.844817 1_555
Na9 O37 2.360554 1_655
Na9 O16 2.384988 1_654
Na9 O5 2.419247 1_555
Na9 O35 2.434356 1_645
Na9 O13 2.756439 1_555
Na9 O21 2.844817 1_555
Na10 O38 2.360554 1_555
Na10 O19 2.384988 1_555
Na10 O6 2.419247 1_555
Na10 O32 2.434356 1_545
Na10 O14 2.756439 1_555
Na10 O22 2.844817 1_555
Na11 O39 2.360554 1_555
Na11 O18 2.384988 1_555
Na11 O7 2.419247 1_555
Na11 O33 2.434356 1_565
Na11 O15 2.756439 1_555
Na11 O23 2.844817 1_555
Ga0 O18 1.855420 1_555
Ga0 O24 1.856612 1_555
Ga0 O32 1.866624 1_555
Ga0 O14 1.867158 1_565
Ga1 O19 1.855420 1_555
Ga1 O25 1.856612 1_555
Ga1 O33 1.866624 1_555
Ga1 O15 1.867158 1_545
Ga2 O16 1.855420 1_555
Ga2 O26 1.856612 1_555
Ga2 O34 1.866624 1_455
Ga2 O12 1.867158 1_545
Ga3 O17 1.855420 1_555
Ga3 O27 1.856612 1_555
Ga3 O35 1.866624 1_655
Ga3 O13 1.867158 1_565
Ga4 O28 1.861179 1_555
Ga4 O40 1.861289 1_555
Ga4 O44 1.864341 1_455
Ga4 O7 1.869825 1_555
Ga5 O29 1.861179 1_555
Ga5 O41 1.861289 1_555
Ga5 O45 1.864341 1_655
Ga5 O6 1.869825 1_555
Ga6 O30 1.861179 1_555
Ga6 O42 1.861289 1_555
Ga6 O46 1.864341 1_555
Ga6 O5 1.869825 1_556
Ga7 O31 1.861179 1_555
Ga7 O43 1.861289 1_555
Ga7 O47 1.864341 1_555
Ga7 O4 1.869825 1_554
Ga8 O8 1.852371 1_555
Ga8 O0 1.857929 1_555
Ga8 O20 1.858266 1_555
Ga8 O36 1.864603 1_455
Ga9 O9 1.852371 1_555
Ga9 O1 1.857929 1_555
Ga9 O21 1.858266 1_555
Ga9 O37 1.864603 1_655
Ga10 O10 1.852371 1_555
Ga10 O2 1.857929 1_555
Ga10 O22 1.858266 1_555
Ga10 O38 1.864603 1_555
Ga11 O11 1.852371 1_555
Ga11 O3 1.857929 1_555
Ga11 O23 1.858266 1_555
Ga11 O39 1.864603 1_555
Ge0 O46 1.767609 1_555
Ge0 O0 1.772917 1_555
Ge0 O16 1.773888 1_555
Ge0 O4 1.775176 1_555
Ge1 O47 1.767609 1_555
Ge1 O1 1.772917 1_555
Ge1 O17 1.773888 1_555
Ge1 O5 1.775176 1_555
Ge2 O44 1.767609 1_555
Ge2 O2 1.772917 1_555
Ge2 O18 1.773888 1_555
Ge2 O6 1.775176 1_555
Ge3 O45 1.767609 1_555
Ge3 O3 1.772917 1_555
Ge3 O19 1.773888 1_555
Ge3 O7 1.775176 1_555
Ge4 O32 1.768818 1_555
Ge4 O8 1.774790 1_555
Ge4 O15 1.776517 1_555
Ge4 O40 1.777968 1_555
Ge5 O33 1.768818 1_555
Ge5 O9 1.774790 1_555
Ge5 O14 1.776517 1_555
Ge5 O41 1.777968 1_555
Ge6 O34 1.768818 1_555
Ge6 O10 1.774790 1_555
Ge6 O13 1.776517 1_556
Ge6 O42 1.777968 1_555
Ge7 O35 1.768818 1_555
Ge7 O11 1.774790 1_555
Ge7 O12 1.776517 1_554
Ge7 O43 1.777968 1_555
Ge8 O36 1.767186 1_555
Ge8 O22 1.769616 1_565
Ge8 O30 1.777792 1_555
Ge8 O24 1.778303 1_555
Ge9 O37 1.767186 1_555
Ge9 O23 1.769616 1_545
Ge9 O31 1.777792 1_555
Ge9 O25 1.778303 1_555
Ge10 O38 1.767186 1_555
Ge10 O20 1.769616 1_545
Ge10 O28 1.777792 1_555
Ge10 O26 1.778303 1_555
Ge11 O39 1.767186 1_555
Ge11 O21 1.769616 1_565
Ge11 O29 1.777792 1_555
Ge11 O27 1.778303 1_555
