# generated using pymatgen
data_Co7CuAs4(HO5)4
_symmetry_space_group_name_H-M   'P 1'
_cell_length_a   6.15166200
_cell_length_b   8.45153496
_cell_length_c   8.57265106
_cell_angle_alpha   89.90366092
_cell_angle_beta   90.00000000
_cell_angle_gamma   90.00000000
_symmetry_Int_Tables_number   1
_chemical_formula_structural   Co7CuAs4(HO5)4
_chemical_formula_sum   'Co7 Cu1 As4 H4 O20'
_cell_volume   445.69995494
_cell_formula_units_Z   1
loop_
 _symmetry_equiv_pos_site_id
 _symmetry_equiv_pos_as_xyz
  1  'x, y, z'
loop_
 _atom_site_type_symbol
 _atom_site_label
 _atom_site_symmetry_multiplicity
 _atom_site_fract_x
 _atom_site_fract_y
 _atom_site_fract_z
 _atom_site_occupancy
  Co  Co0  1  0.74752700  0.49977900  0.49918500  1
  Co  Co1  1  0.75397900  0.99832400  0.00165700  1
  Co  Co2  1  0.25247300  0.49977900  0.49918500  1
  Co  Co3  1  0.24602100  0.99832400  0.00165700  1
  Co  Co4  1  0.50000000  0.36438600  0.87164000  1
  Co  Co5  1  0.00000000  0.13510300  0.37158200  1
  Co  Co6  1  0.00000000  0.86306400  0.62811100  1
  Cu  Cu0  1  0.50000000  0.63039300  0.13550100  1
  As  As0  1  0.00000000  0.75321200  0.25127900  1
  As  As1  1  0.00000000  0.24830400  0.74575400  1
  As  As2  1  0.50000000  0.25028000  0.24580500  1
  As  As3  1  0.50000000  0.74770800  0.75760700  1
  H  H0  1  0.50000000  0.71638800  0.40437600  1
  H  H1  1  0.50000000  0.28570900  0.59068900  1
  H  H2  1  0.00000000  0.21617800  0.09017500  1
  H  H3  1  0.00000000  0.78458000  0.90991400  1
  O  O0  1  0.77263300  0.77622300  0.13514000  1
  O  O1  1  0.77360700  0.22926300  0.86335600  1
  O  O2  1  0.72584600  0.27164600  0.36449600  1
  O  O3  1  0.72416700  0.72669400  0.63675200  1
  O  O4  1  0.22639300  0.22926300  0.86335600  1
  O  O5  1  0.22736600  0.77622300  0.13514000  1
  O  O6  1  0.27583300  0.72669400  0.63675200  1
  O  O7  1  0.27415400  0.27164600  0.36449600  1
  O  O8  1  0.00000000  0.89781500  0.39376000  1
  O  O9  1  0.00000000  0.10130700  0.60673200  1
  O  O10  1  0.50000000  0.39560700  0.10483700  1
  O  O11  1  0.50000000  0.60183800  0.90064400  1
  O  O12  1  0.00000000  0.57580700  0.35408700  1
  O  O13  1  0.00000000  0.42583600  0.64457200  1
  O  O14  1  0.50000000  0.07360300  0.14570500  1
  O  O15  1  0.50000000  0.92638500  0.85439000  1
  O  O16  1  0.50000000  0.60737600  0.36526400  1
  O  O17  1  0.50000000  0.39490300  0.62757900  1
  O  O18  1  0.00000000  0.10771800  0.12878500  1
  O  O19  1  0.00000000  0.89264200  0.87003700  1
loop_
_geom_bond_atom_site_label_1
_geom_bond_atom_site_label_2
_geom_bond_distance
_geom_bond_site_symmetry_2
Co0 O17 2.076649 1_555
Co0 O13 2.086510 1_655
Co0 O12 2.090363 1_655
Co0 O16 2.111891 1_555
Co0 O2 2.252985 1_555
Co0 O3 2.257635 1_555
Co1 O18 2.082399 1_665
Co1 O19 2.089205 1_654
Co1 O14 2.091269 1_565
Co1 O15 2.099318 1_554
Co1 O0 2.199740 1_555
Co1 O1 2.285156 1_564
Co2 O17 2.076649 1_555
Co2 O13 2.086510 1_555
Co2 O12 2.090363 1_555
Co2 O16 2.111891 1_555
Co2 O7 2.252985 1_555
Co2 O6 2.257635 1_555
Co3 O18 2.082399 1_565
Co3 O19 2.089205 1_554
Co3 O14 2.091269 1_565
Co3 O15 2.099318 1_554
Co3 O5 2.199741 1_555
Co3 O4 2.285156 1_564
Co4 O10 2.016895 1_556
Co4 O11 2.022593 1_555
Co4 O1 2.035295 1_555
Co4 O4 2.035295 1_555
Co4 O17 2.107656 1_555
Co5 O8 2.014122 1_545
Co5 O9 2.035518 1_555
Co5 O2 2.044372 1_455
Co5 O7 2.044372 1_555
Co5 O18 2.094629 1_555
Co6 O9 2.021536 1_565
Co6 O8 2.029875 1_555
Co6 O6 2.052505 1_555
Co6 O3 2.052505 1_455
Co6 O19 2.089376 1_555
Cu0 O16 1.978935 1_555
Cu0 O10 2.002077 1_555
Cu0 O11 2.028162 1_554
Cu0 O0 2.081307 1_555
Cu0 O5 2.081312 1_555
As0 O5 1.727637 1_555
As0 O0 1.727642 1_455
As0 O8 1.729308 1_555
As0 O12 1.737914 1_555
As1 O9 1.723012 1_555
As1 O4 1.726654 1_555
As1 O1 1.726654 1_455
As1 O13 1.731836 1_555
As2 O10 1.721619 1_555
As2 O14 1.723457 1_555
As2 O7 1.731692 1_555
As2 O2 1.731692 1_555
As3 O15 1.724233 1_555
As3 O3 1.734127 1_555
As3 O6 1.734127 1_555
As3 O11 1.737342 1_555
H0 O16 0.980963 1_555
H1 O17 0.976042 1_555
H2 O18 0.974057 1_555
H3 O19 0.974634 1_555
