# generated using pymatgen
data_Li5Co3(SbO5)2
_symmetry_space_group_name_H-M   'P 1'
_cell_length_a   6.82560233
_cell_length_b   8.05814995
_cell_length_c   8.17762059
_cell_angle_alpha   116.36524297
_cell_angle_beta   89.58928546
_cell_angle_gamma   90.67160251
_symmetry_Int_Tables_number   1
_chemical_formula_structural   Li5Co3(SbO5)2
_chemical_formula_sum   'Li10 Co6 Sb4 O20'
_cell_volume   402.96874384
_cell_formula_units_Z   2
loop_
 _symmetry_equiv_pos_site_id
 _symmetry_equiv_pos_as_xyz
  1  'x, y, z'
loop_
 _atom_site_type_symbol
 _atom_site_label
 _atom_site_symmetry_multiplicity
 _atom_site_fract_x
 _atom_site_fract_y
 _atom_site_fract_z
 _atom_site_occupancy
  Li  Li0  1  0.25025800  0.74956700  0.49990500  1
  Li  Li1  1  0.75155100  0.25025700  0.49869500  1
  Li  Li2  1  0.13172500  0.36425000  0.39307200  1
  Li  Li3  1  0.63460300  0.86406700  0.39523100  1
  Li  Li4  1  0.36645800  0.13414900  0.60533200  1
  Li  Li5  1  0.86630200  0.63578300  0.60484900  1
  Li  Li6  1  0.54707700  0.96237800  0.80931900  1
  Li  Li7  1  0.04465500  0.46353600  0.80924500  1
  Li  Li8  1  0.95135600  0.53750200  0.18971700  1
  Li  Li9  1  0.45122400  0.03808100  0.19152100  1
  Co  Co0  1  0.24750800  0.25314400  0.00132900  1
  Co  Co1  1  0.15405800  0.85772200  0.89720100  1
  Co  Co2  1  0.34586600  0.63962000  0.10197200  1
  Co  Co3  1  0.74879600  0.76174200  0.00159500  1
  Co  Co4  1  0.64989500  0.35440400  0.89526400  1
  Co  Co5  1  0.84207200  0.13690600  0.10301800  1
  Sb  Sb0  1  0.44452200  0.55033600  0.70036100  1
  Sb  Sb1  1  0.94376200  0.05151700  0.70129900  1
  Sb  Sb2  1  0.05828700  0.94926100  0.29962100  1
  Sb  Sb3  1  0.55818300  0.44847500  0.29835100  1
  O  O0  1  0.86200700  0.90635800  0.83625800  1
  O  O1  1  0.36206700  0.40454000  0.83469200  1
  O  O2  1  0.64339400  0.58901500  0.15892100  1
  O  O3  1  0.14004000  0.09249700  0.16292400  1
  O  O4  1  0.44480200  0.78968200  0.93222000  1
  O  O5  1  0.94570900  0.29199800  0.93080600  1
  O  O6  1  0.05440400  0.71113700  0.06699100  1
  O  O7  1  0.54983700  0.20936700  0.06620700  1
  O  O8  1  0.54445800  0.68086900  0.54702200  1
  O  O9  1  0.04244100  0.18175100  0.54727500  1
  O  O10  1  0.95747200  0.81906100  0.45344200  1
  O  O11  1  0.45981400  0.31822900  0.45332000  1
  O  O12  1  0.27706900  0.49365900  0.25434600  1
  O  O13  1  0.77588500  0.99321400  0.25717700  1
  O  O14  1  0.22435900  0.00794000  0.74780900  1
  O  O15  1  0.72597900  0.50971000  0.75044200  1
  O  O16  1  0.16672700  0.59766200  0.65838600  1
  O  O17  1  0.66425100  0.09687900  0.66128900  1
  O  O18  1  0.33581700  0.90171600  0.34195500  1
  O  O19  1  0.83531000  0.40201900  0.34162000  1
loop_
_geom_bond_atom_site_label_1
_geom_bond_atom_site_label_2
_geom_bond_distance
_geom_bond_site_symmetry_2
Li0 O12 2.154991 1_555
Li0 O10 2.162829 1_455
Li0 O8 2.171162 1_555
Li0 O14 2.174965 1_565
Li0 O16 2.210224 1_555
Li0 O18 2.211682 1_555
Li1 O13 2.142085 1_545
Li1 O11 2.149318 1_555
Li1 O9 2.153266 1_655
Li1 O15 2.195517 1_555
Li1 O19 2.200136 1_555
Li1 O17 2.254222 1_555
Li2 O12 2.090195 1_555
Li2 O19 2.122127 1_455
Li2 O16 2.162051 1_555
Li2 O3 2.163690 1_555
Li2 O11 2.364903 1_555
Li2 O9 2.395681 1_555
Li3 O13 2.071686 1_555
Li3 O18 2.141405 1_555
Li3 O17 2.160164 1_565
Li3 O2 2.201754 1_555
Li3 O10 2.324191 1_555
Li3 O8 2.386202 1_555
Li4 O14 2.084627 1_555
Li4 O17 2.140287 1_555
Li4 O18 2.145918 1_545
Li4 O1 2.153422 1_555
Li4 O9 2.336762 1_555
Li4 O11 2.399141 1_555
Li5 O15 2.098125 1_555
Li5 O19 2.149993 1_555
Li5 O16 2.153603 1_655
Li5 O0 2.161446 1_555
Li5 O8 2.316819 1_555
Li5 O10 2.385996 1_555
Li6 O17 2.100199 1_565
Li6 O4 2.154857 1_555
Li6 O7 2.158886 1_566
Li6 O0 2.234031 1_555
Li6 O8 2.329155 1_555
Li6 O14 2.332116 1_565
Li7 O16 2.129025 1_555
Li7 O5 2.131654 1_455
Li7 O6 2.166014 1_556
Li7 O1 2.254246 1_555
Li7 O15 2.300839 1_455
Li7 O9 2.329103 1_555
Li8 O19 2.128971 1_555
Li8 O6 2.161865 1_655
Li8 O5 2.162675 1_554
Li8 O2 2.185209 1_555
Li8 O10 2.335298 1_555
Li8 O12 2.355377 1_655
Li9 O18 2.123160 1_545
Li9 O7 2.152419 1_555
Li9 O4 2.175847 1_544
Li9 O3 2.208721 1_555
Li9 O11 2.321454 1_555
Li9 O13 2.353280 1_545
Co0 O12 2.124422 1_555
Co0 O14 2.141554 1_554
Co0 O7 2.205281 1_555
Co0 O5 2.206033 1_454
Co0 O1 2.322845 1_554
Co0 O3 2.333095 1_555
Co1 O14 2.116465 1_565
Co1 O4 2.119900 1_555
Co1 O16 2.140060 1_555
Co1 O0 2.140501 1_455
Co1 O3 2.158723 1_566
Co1 O6 2.282564 1_556
Co2 O12 2.106400 1_555
Co2 O6 2.133807 1_555
Co2 O18 2.153318 1_555
Co2 O1 2.168405 1_554
Co2 O2 2.170022 1_555
Co2 O4 2.302950 1_554
Co3 O13 2.101556 1_555
Co3 O15 2.158590 1_554
Co3 O4 2.195269 1_554
Co3 O6 2.243464 1_655
Co3 O0 2.268600 1_554
Co3 O2 2.379874 1_555
Co4 O17 2.110069 1_555
Co4 O1 2.116253 1_555
Co4 O15 2.128568 1_555
Co4 O5 2.139205 1_555
Co4 O2 2.145929 1_556
Co4 O7 2.281490 1_556
Co5 O13 2.100026 1_545
Co5 O7 2.145305 1_555
Co5 O0 2.151931 1_544
Co5 O19 2.161457 1_555
Co5 O3 2.165985 1_655
Co5 O5 2.360879 1_554
O0 Sb1 2.005023 1_565
O1 Sb0 2.006399 1_555
O2 Sb3 2.010678 1_555
O3 Sb2 2.003780 1_545
O4 Sb0 2.016638 1_555
O5 Sb1 2.011788 1_555
O6 Sb2 2.014694 1_555
O7 Sb3 2.017368 1_555
O8 Sb3 2.066394 1_555
O8 Sb0 2.070382 1_555
O9 Sb2 2.062697 1_545
O9 Sb1 2.070448 1_455
O10 Sb1 2.062763 1_565
O10 Sb2 2.073499 1_655
O11 Sb0 2.058131 1_555
O11 Sb3 2.076286 1_555
O12 Sb3 2.021485 1_555
O13 Sb2 2.023907 1_655
O14 Sb1 2.020138 1_455
O15 Sb0 2.027481 1_555
O16 Sb0 2.000268 1_555
O17 Sb1 2.003000 1_555
O18 Sb2 1.999815 1_555
O19 Sb3 1.996791 1_555
