# generated using pymatgen
data_LaCo4B
_symmetry_space_group_name_H-M   'P 1'
_cell_length_a   5.12253573
_cell_length_b   5.12253573
_cell_length_c   6.83388700
_cell_angle_alpha   90.00000000
_cell_angle_beta   90.00000000
_cell_angle_gamma   119.99999656
_symmetry_Int_Tables_number   1
_chemical_formula_structural   LaCo4B
_chemical_formula_sum   'La2 Co8 B2'
_cell_volume   155.29891922
_cell_formula_units_Z   2
loop_
 _symmetry_equiv_pos_site_id
 _symmetry_equiv_pos_as_xyz
  1  'x, y, z'
loop_
 _atom_site_type_symbol
 _atom_site_label
 _atom_site_symmetry_multiplicity
 _atom_site_fract_x
 _atom_site_fract_y
 _atom_site_fract_z
 _atom_site_occupancy
  La  La0  1  0.00000000  0.00000000  0.00000000  1
  La  La1  1  0.00000000  0.00000000  0.50000000  1
  Co  Co0  1  0.66666700  0.33333300  0.50000000  1
  Co  Co1  1  0.33333300  0.66666700  0.50000000  1
  Co  Co2  1  0.50000000  0.50000000  0.78960700  1
  Co  Co3  1  0.50000000  0.00000000  0.78960700  1
  Co  Co4  1  0.00000000  0.50000000  0.78960700  1
  Co  Co5  1  0.50000000  0.50000000  0.21039300  1
  Co  Co6  1  0.50000000  0.00000000  0.21039300  1
  Co  Co7  1  0.00000000  0.50000000  0.21039300  1
  B  B0  1  0.66666700  0.33333300  0.00000000  1
  B  B1  1  0.33333300  0.66666700  0.00000000  1
loop_
_geom_bond_atom_site_label_1
_geom_bond_atom_site_label_2
_geom_bond_distance
_geom_bond_site_symmetry_2
Co0 Co4 2.470566 1_655
Co0 Co3 2.470566 1_555
Co0 Co6 2.470566 1_555
Co0 Co7 2.470566 1_655
Co0 Co2 2.470568 1_555
Co0 Co5 2.470568 1_555
Co0 La1 2.957494 1_655
Co0 La1 2.957499 1_665
Co0 La1 2.957499 1_555
Co1 Co4 2.470566 1_555
Co1 Co3 2.470566 1_565
Co1 Co7 2.470566 1_555
Co1 Co6 2.470566 1_565
Co1 Co2 2.470568 1_555
Co1 Co5 2.470568 1_555
Co1 La1 2.957494 1_565
Co1 La1 2.957499 1_665
Co1 La1 2.957499 1_555
Co2 La0 2.937238 1_556
Co2 La0 2.937238 1_666
Co2 La1 3.236834 1_555
Co2 La1 3.236834 1_665
Co3 La0 2.937238 1_656
Co3 La0 2.937238 1_556
Co3 La1 3.236834 1_555
Co3 La1 3.236834 1_655
Co4 La0 2.937238 1_566
Co4 La0 2.937238 1_556
Co4 La1 3.236834 1_565
Co4 La1 3.236834 1_555
Co5 La0 2.937238 1_665
Co5 La0 2.937238 1_555
Co5 La1 3.236834 1_555
Co5 La1 3.236834 1_665
Co6 La0 2.937238 1_655
Co6 La0 2.937238 1_555
Co6 La1 3.236834 1_555
Co6 La1 3.236834 1_655
Co7 La0 2.937238 1_565
Co7 La0 2.937238 1_555
Co7 La1 3.236834 1_555
Co7 La1 3.236834 1_565
B0 Co7 2.062515 1_655
B0 Co6 2.062515 1_555
B0 Co4 2.062515 1_654
B0 Co3 2.062515 1_554
B0 Co5 2.062518 1_555
B0 Co2 2.062518 1_554
B0 La0 2.957494 1_655
B0 La0 2.957499 1_665
B0 La0 2.957499 1_555
B1 Co7 2.062515 1_555
B1 Co6 2.062515 1_565
B1 Co3 2.062515 1_564
B1 Co4 2.062515 1_554
B1 Co5 2.062518 1_555
B1 Co2 2.062518 1_554
B1 La0 2.957494 1_565
B1 La0 2.957499 1_665
B1 La0 2.957499 1_555
