# generated using pymatgen
data_LiIN4
_symmetry_space_group_name_H-M   'P 1'
_cell_length_a   5.35688000
_cell_length_b   11.35669400
_cell_length_c   8.63165000
_cell_angle_alpha   90.00000000
_cell_angle_beta   90.00000000
_cell_angle_gamma   90.00000000
_symmetry_Int_Tables_number   1
_chemical_formula_structural   LiIN4
_chemical_formula_sum   'Li4 I4 N16'
_cell_volume   525.11891736
_cell_formula_units_Z   4
loop_
 _symmetry_equiv_pos_site_id
 _symmetry_equiv_pos_as_xyz
  1  'x, y, z'
loop_
 _atom_site_type_symbol
 _atom_site_label
 _atom_site_symmetry_multiplicity
 _atom_site_fract_x
 _atom_site_fract_y
 _atom_site_fract_z
 _atom_site_occupancy
  Li  Li0  1  0.25000000  0.68384100  0.55646200  1
  Li  Li1  1  0.25000000  0.81615900  0.05646200  1
  Li  Li2  1  0.75000000  0.31615900  0.44353800  1
  Li  Li3  1  0.75000000  0.18384100  0.94353800  1
  I  I0  1  0.25000000  0.01936600  0.74465200  1
  I  I1  1  0.25000000  0.48063400  0.24465200  1
  I  I2  1  0.75000000  0.98063400  0.25534800  1
  I  I3  1  0.75000000  0.51936600  0.75534800  1
  N  N0  1  0.25000000  0.29208900  0.89592500  1
  N  N1  1  0.25000000  0.20791100  0.39592500  1
  N  N2  1  0.75000000  0.70791100  0.10407500  1
  N  N3  1  0.75000000  0.79208900  0.60407500  1
  N  N4  1  0.25000000  0.99130100  0.96597700  1
  N  N5  1  0.25000000  0.50869900  0.46597700  1
  N  N6  1  0.75000000  0.00869900  0.03402300  1
  N  N7  1  0.75000000  0.49130100  0.53402300  1
  N  N8  1  0.97065800  0.79242300  0.60473000  1
  N  N9  1  0.52934200  0.70757700  0.10473000  1
  N  N10  1  0.47065800  0.20757700  0.39527000  1
  N  N11  1  0.02934200  0.29242300  0.89527000  1
  N  N12  1  0.02934200  0.20757700  0.39527000  1
  N  N13  1  0.47065800  0.29242300  0.89527000  1
  N  N14  1  0.52934200  0.79242300  0.60473000  1
  N  N15  1  0.97065800  0.70757700  0.10473000  1
loop_
_geom_bond_atom_site_label_1
_geom_bond_atom_site_label_2
_geom_bond_distance
_geom_bond_site_symmetry_2
Li0 N8 1.983284 1_455
Li0 N14 1.983284 1_555
Li0 N5 2.136884 1_555
Li1 N9 1.983284 1_555
Li1 N15 1.983284 1_455
Li1 N4 2.136884 1_554
Li2 N10 1.983284 1_555
Li2 N12 1.983284 1_655
Li2 N7 2.136884 1_555
Li3 N13 1.983284 1_555
Li3 N11 1.983284 1_655
Li3 N6 2.136884 1_556
I0 N4 1.936805 1_545
I1 N5 1.936805 1_555
I2 N6 1.936805 1_565
I3 N7 1.936805 1_555
N0 N11 1.182058 1_555
N0 N13 1.182058 1_555
N1 N10 1.182058 1_555
N1 N12 1.182058 1_555
N2 N9 1.182058 1_555
N3 N8 1.182058 1_555
N14 N3 1.182058 1_555
N15 N2 1.182058 1_555
