# generated using pymatgen
data_TiVFe
_symmetry_space_group_name_H-M   'P 1'
_cell_length_a   4.97743635
_cell_length_b   4.98657463
_cell_length_c   7.57697300
_cell_angle_alpha   90.00000000
_cell_angle_beta   90.00000000
_cell_angle_gamma   60.11317244
_symmetry_Int_Tables_number   1
_chemical_formula_structural   TiVFe
_chemical_formula_sum   'Ti4 V4 Fe4'
_cell_volume   163.05290857
_cell_formula_units_Z   4
loop_
 _symmetry_equiv_pos_site_id
 _symmetry_equiv_pos_as_xyz
  1  'x, y, z'
loop_
 _atom_site_type_symbol
 _atom_site_label
 _atom_site_symmetry_multiplicity
 _atom_site_fract_x
 _atom_site_fract_y
 _atom_site_fract_z
 _atom_site_occupancy
  Ti  Ti0  1  0.83511700  0.33010100  0.75000000  1
  Ti  Ti1  1  0.33969400  0.82352700  0.75000000  1
  Ti  Ti2  1  0.83639200  0.82382100  0.75000000  1
  Ti  Ti3  1  0.16533700  0.66876300  0.25000000  1
  V  V0  1  0.34312400  0.31334200  0.54573500  1
  V  V1  1  0.66505300  0.66957400  0.42615200  1
  V  V2  1  0.66505300  0.66957400  0.07384800  1
  V  V3  1  0.34312400  0.31334200  0.95426500  1
  Fe  Fe0  1  0.65481900  0.18063500  0.25000000  1
  Fe  Fe1  1  0.16522000  0.18075500  0.25000000  1
  Fe  Fe2  1  0.99353300  0.01328400  0.49495800  1
  Fe  Fe3  1  0.99353300  0.01328400  0.00504200  1
loop_
_geom_bond_atom_site_label_1
_geom_bond_atom_site_label_2
_geom_bond_distance
_geom_bond_site_symmetry_2
Ti0 Ti2 2.465140 1_555
Ti0 Ti1 2.467438 1_555
Ti0 Ti2 2.521447 1_545
Ti0 Ti1 2.523123 1_645
Ti0 V2 2.859227 1_556
Ti0 V1 2.859227 1_555
Ti0 V0 2.930099 1_655
Ti0 V3 2.930099 1_655
Ti0 V0 2.933134 1_555
Ti0 V3 2.933134 1_555
Ti1 Ti2 2.473014 1_555
Ti1 Ti2 2.504423 1_455
Ti1 V2 2.827378 1_556
Ti1 V1 2.827378 1_555
Ti1 V3 2.898803 1_565
Ti1 V0 2.898803 1_565
Ti1 V3 2.970645 1_555
Ti1 V0 2.970645 1_555
Ti2 V2 2.827317 1_556
Ti2 V1 2.827317 1_555
Ti2 V3 2.899892 1_565
Ti2 V0 2.899892 1_565
Ti2 V0 2.972938 1_655
Ti2 V3 2.972938 1_655
Ti3 V0 2.717043 1_555
Ti3 V3 2.717043 1_554
Ti3 V1 2.823501 1_455
Ti3 V2 2.823501 1_455
Ti3 V2 2.824561 1_555
Ti3 V1 2.824561 1_555
V0 V1 2.927049 1_545
V0 V1 3.062810 1_555
V0 V1 3.064742 1_455
V0 V3 3.095421 1_555
V1 V2 2.669398 1_555
V2 V3 2.927049 1_564
V2 V3 3.062810 1_554
V2 V3 3.064742 1_654
Fe0 Fe3 2.362527 1_555
Fe0 Fe2 2.362527 1_555
Fe0 Fe1 2.436650 1_555
Fe0 Ti3 2.439391 1_555
Fe0 Fe1 2.540787 1_655
Fe0 Ti3 2.551154 1_645
Fe0 V0 2.615877 1_555
Fe0 V3 2.615877 1_554
Fe0 V2 2.802190 1_555
Fe0 V1 2.802190 1_555
Fe0 V1 2.854682 1_545
Fe0 V2 2.854682 1_545
Fe1 Fe2 2.363000 1_455
Fe1 Fe3 2.363000 1_455
Fe1 Ti3 2.433779 1_555
Fe1 Ti3 2.552796 1_545
Fe1 V3 2.612619 1_554
Fe1 V0 2.612619 1_555
Fe1 V1 2.805933 1_455
Fe1 V2 2.805933 1_455
Fe1 V2 2.854575 1_545
Fe1 V1 2.854575 1_545
Fe2 Ti0 2.368653 1_555
Fe2 Ti3 2.379815 1_645
Fe2 Ti1 2.444104 1_645
Fe2 Ti2 2.444411 1_545
Fe2 V0 2.830077 1_655
Fe2 V0 2.835491 1_555
Fe2 V1 2.884916 1_555
Fe2 V1 2.944860 1_645
Fe2 V1 2.945374 1_545
Fe2 V0 3.050500 1_645
Fe3 Ti0 2.368653 1_554
Fe3 Ti3 2.379815 1_645
Fe3 Ti1 2.444104 1_644
Fe3 Ti2 2.444411 1_544
Fe3 V3 2.830077 1_654
Fe3 V3 2.835491 1_554
Fe3 V2 2.884916 1_555
Fe3 V2 2.944860 1_645
Fe3 V2 2.945374 1_545
Fe3 V3 3.050500 1_644
