# generated using pymatgen
data_Nd4Ni3O10
_symmetry_space_group_name_H-M   'P 1'
_cell_length_a   5.52671900
_cell_length_b   5.44562200
_cell_length_c   14.08394375
_cell_angle_alpha   79.49330923
_cell_angle_beta   90.00000000
_cell_angle_gamma   90.00000000
_symmetry_Int_Tables_number   1
_chemical_formula_structural   Nd4Ni3O10
_chemical_formula_sum   'Nd8 Ni6 O20'
_cell_volume   416.76945120
_cell_formula_units_Z   2
loop_
 _symmetry_equiv_pos_site_id
 _symmetry_equiv_pos_as_xyz
  1  'x, y, z'
loop_
 _atom_site_type_symbol
 _atom_site_label
 _atom_site_symmetry_multiplicity
 _atom_site_fract_x
 _atom_site_fract_y
 _atom_site_fract_z
 _atom_site_occupancy
  Nd  Nd0  1  0.50718200  0.88850100  0.13694600  1
  Nd  Nd1  1  0.49281800  0.11149900  0.86305400  1
  Nd  Nd2  1  0.98403100  0.30665000  0.39971300  1
  Nd  Nd3  1  0.99281800  0.38850100  0.13694600  1
  Nd  Nd4  1  0.51596900  0.80665000  0.39971300  1
  Nd  Nd5  1  0.01596900  0.69335000  0.60028700  1
  Nd  Nd6  1  0.48403100  0.19335000  0.60028700  1
  Nd  Nd7  1  0.00718200  0.61149900  0.86305400  1
  Ni  Ni0  1  0.00430100  0.85169100  0.28004400  1
  Ni  Ni1  1  0.99569900  0.14830900  0.71995600  1
  Ni  Ni2  1  0.50430100  0.64830900  0.71995600  1
  Ni  Ni3  1  0.50000000  0.50000000  0.00000000  1
  Ni  Ni4  1  0.49569900  0.35169100  0.28004400  1
  Ni  Ni5  1  0.00000000  0.00000000  0.00000000  1
  O  O0  1  0.08266200  0.94470600  0.13679500  1
  O  O1  1  0.06150500  0.22992600  0.56459200  1
  O  O2  1  0.43849500  0.72992600  0.56459200  1
  O  O3  1  0.56150500  0.27007400  0.43540800  1
  O  O4  1  0.58266200  0.55529400  0.86320500  1
  O  O5  1  0.41733800  0.44470600  0.13679500  1
  O  O6  1  0.26202000  0.90248100  0.73753500  1
  O  O7  1  0.78721300  0.69287100  0.02542400  1
  O  O8  1  0.71278700  0.19287100  0.02542400  1
  O  O9  1  0.76060100  0.89831600  0.69626500  1
  O  O10  1  0.76202000  0.59751900  0.26246500  1
  O  O11  1  0.23798000  0.40248100  0.73753500  1
  O  O12  1  0.93849500  0.77007400  0.43540800  1
  O  O13  1  0.91733800  0.05529400  0.86320500  1
  O  O14  1  0.23939900  0.10168400  0.30373500  1
  O  O15  1  0.21278700  0.30712900  0.97457600  1
  O  O16  1  0.28721300  0.80712900  0.97457600  1
  O  O17  1  0.26060100  0.60168400  0.30373500  1
  O  O18  1  0.73939900  0.39831600  0.69626500  1
  O  O19  1  0.73798000  0.09751900  0.26246500  1
loop_
_geom_bond_atom_site_label_1
_geom_bond_atom_site_label_2
_geom_bond_distance
_geom_bond_site_symmetry_2
Nd0 O8 2.357124 1_565
Nd0 O0 2.366033 1_555
Nd0 O5 2.467603 1_555
Nd0 O10 2.568666 1_555
Nd0 O7 2.570486 1_555
Nd0 O19 2.604147 1_565
Nd0 O16 2.696917 1_554
Nd1 O16 2.357124 1_545
Nd1 O13 2.366033 1_555
Nd1 O4 2.467603 1_555
Nd1 O11 2.568666 1_555
Nd1 O15 2.570486 1_555
Nd1 O6 2.604147 1_545
Nd1 O8 2.696917 1_556
Nd2 O1 2.323021 1_655
Nd2 O14 2.369643 1_655
Nd2 O3 2.389344 1_555
Nd2 O17 2.439850 1_655
Nd2 O10 2.575708 1_555
Nd2 O12 2.673477 1_555
Nd2 O19 2.772272 1_555
Nd2 O12 2.884157 1_545
Nd3 O7 2.357124 1_555
Nd3 O5 2.366033 1_655
Nd3 O0 2.467603 1_645
Nd3 O19 2.568666 1_555
Nd3 O8 2.570486 1_555
Nd3 O10 2.604147 1_555
Nd3 O15 2.696917 1_654
Nd4 O2 2.323021 1_555
Nd4 O17 2.369643 1_555
Nd4 O12 2.389344 1_555
Nd4 O14 2.439850 1_565
Nd4 O19 2.575708 1_565
Nd4 O3 2.673477 1_565
Nd4 O10 2.772272 1_555
Nd4 O3 2.884157 1_555
Nd5 O12 2.323021 1_455
Nd5 O9 2.369643 1_455
Nd5 O2 2.389344 1_555
Nd5 O18 2.439850 1_455
Nd5 O11 2.575708 1_555
Nd5 O1 2.673477 1_555
Nd5 O6 2.772272 1_555
Nd5 O1 2.884157 1_565
Nd6 O3 2.323021 1_555
Nd6 O18 2.369643 1_555
Nd6 O1 2.389344 1_555
Nd6 O9 2.439850 1_545
Nd6 O6 2.575708 1_545
Nd6 O2 2.673477 1_545
Nd6 O11 2.772272 1_555
Nd6 O2 2.884157 1_555
Nd7 O15 2.357124 1_555
Nd7 O4 2.366033 1_455
Nd7 O13 2.467603 1_465
Nd7 O6 2.568666 1_555
Nd7 O16 2.570486 1_555
Nd7 O11 2.604147 1_555
Nd7 O7 2.696917 1_456
Ni0 O17 1.950809 1_555
Ni0 O14 1.954110 1_565
Ni0 O10 1.973587 1_455
Ni0 O19 1.974573 1_465
Ni0 O0 2.035136 1_555
Ni0 O12 2.182447 1_455
Ni1 O18 1.950809 1_555
Ni1 O9 1.954110 1_545
Ni1 O11 1.973587 1_655
Ni1 O6 1.974573 1_645
Ni1 O13 2.035136 1_555
Ni1 O1 2.182447 1_655
Ni2 O9 1.950809 1_555
Ni2 O18 1.954110 1_555
Ni2 O6 1.973587 1_555
Ni2 O11 1.974573 1_555
Ni2 O4 2.035136 1_555
Ni2 O2 2.182447 1_555
Ni3 O4 1.949268 1_554
Ni3 O5 1.949268 1_555
Ni3 O7 1.971845 1_555
Ni3 O15 1.971845 1_554
Ni3 O8 2.022399 1_555
Ni3 O16 2.022399 1_554
Ni4 O14 1.950809 1_555
Ni4 O17 1.954110 1_555
Ni4 O19 1.973587 1_555
Ni4 O10 1.974573 1_555
Ni4 O5 2.035136 1_555
Ni4 O3 2.182447 1_555
Ni5 O0 1.949268 1_545
Ni5 O13 1.949268 1_454
Ni5 O16 1.971845 1_544
Ni5 O8 1.971845 1_455
Ni5 O15 2.022399 1_554
Ni5 O7 2.022399 1_445
