# generated using pymatgen
data_Li7Mn4CoO12
_symmetry_space_group_name_H-M   'P 1'
_cell_length_a   5.07557958
_cell_length_b   5.22042602
_cell_length_c   16.53631014
_cell_angle_alpha   92.32747579
_cell_angle_beta   89.12724110
_cell_angle_gamma   97.20877131
_symmetry_Int_Tables_number   1
_chemical_formula_structural   Li7Mn4CoO12
_chemical_formula_sum   'Li14 Mn8 Co2 O24'
_cell_volume   434.31271789
_cell_formula_units_Z   2
loop_
 _symmetry_equiv_pos_site_id
 _symmetry_equiv_pos_as_xyz
  1  'x, y, z'
loop_
 _atom_site_type_symbol
 _atom_site_label
 _atom_site_symmetry_multiplicity
 _atom_site_fract_x
 _atom_site_fract_y
 _atom_site_fract_z
 _atom_site_occupancy
  Li  Li0  1  0.58289900  0.49846600  0.41724900  1
  Li  Li1  1  0.08373000  0.50148600  0.91607800  1
  Li  Li2  1  0.02590600  0.25258800  0.45583600  1
  Li  Li3  1  0.52494600  0.24844900  0.95579900  1
  Li  Li4  1  0.14174000  0.75153700  0.37753200  1
  Li  Li5  1  0.64078900  0.74744500  0.87749900  1
  Li  Li6  1  0.46618800  0.76498800  0.03998000  1
  Li  Li7  1  0.96811100  0.76474600  0.54127800  1
  Li  Li8  1  0.20047100  0.23500800  0.29334900  1
  Li  Li9  1  0.69854200  0.23525500  0.79204900  1
  Li  Li10  1  0.29874600  0.75236400  0.21022400  1
  Li  Li11  1  0.80478200  0.77311100  0.70946300  1
  Li  Li12  1  0.36790200  0.24764000  0.12312200  1
  Li  Li13  1  0.86191600  0.22688500  0.62387400  1
  Mn  Mn0  1  0.49822900  0.99986900  0.50043100  1
  Mn  Mn1  1  0.16843800  0.00014700  0.83289900  1
  Mn  Mn2  1  0.41740100  0.49918700  0.58164400  1
  Mn  Mn3  1  0.24927200  0.50082000  0.75168000  1
  Mn  Mn4  1  0.99717000  0.00219200  0.99782900  1
  Mn  Mn5  1  0.66954700  0.99781900  0.33550600  1
  Mn  Mn6  1  0.91491300  0.49776100  0.08082300  1
  Mn  Mn7  1  0.75173300  0.50222400  0.25251300  1
  Co  Co0  1  0.33332100  0.99999400  0.66665900  1
  Co  Co1  1  0.83328500  0.99999300  0.16667100  1
  O  O0  1  0.79330300  0.89516700  0.43694300  1
  O  O1  1  0.29218300  0.89467000  0.93489600  1
  O  O2  1  0.37451200  0.10535000  0.39843600  1
  O  O3  1  0.87340100  0.10484500  0.89640200  1
  O  O4  1  0.19239000  0.34669300  0.02081100  1
  O  O5  1  0.69433200  0.34414600  0.52230600  1
  O  O6  1  0.47428300  0.65331500  0.31252500  1
  O  O7  1  0.97234000  0.65587200  0.81102300  1
  O  O8  1  0.87090500  0.34481400  0.34840700  1
  O  O9  1  0.37111700  0.34689300  0.84752600  1
  O  O10  1  0.29556400  0.65312800  0.48580300  1
  O  O11  1  0.79579700  0.65520000  0.98493100  1
  O  O12  1  0.96732500  0.88686000  0.27437900  1
  O  O13  1  0.46310400  0.89201900  0.76910700  1
  O  O14  1  0.69933000  0.11311900  0.05895700  1
  O  O15  1  0.20354200  0.10798500  0.56421200  1
  O  O16  1  0.03945900  0.37514600  0.18524000  1
  O  O17  1  0.52521000  0.35180200  0.68393700  1
  O  O18  1  0.62718700  0.62482900  0.14810100  1
  O  O19  1  0.14143300  0.64818000  0.64938400  1
  O  O20  1  0.12844200  0.89549100  0.10167800  1
  O  O21  1  0.62880400  0.88964600  0.60236800  1
  O  O22  1  0.53821000  0.10450300  0.23167400  1
  O  O23  1  0.03785200  0.11035500  0.73096300  1
loop_
_geom_bond_atom_site_label_1
_geom_bond_atom_site_label_2
_geom_bond_distance
_geom_bond_site_symmetry_2
Li0 O6 2.052067 1_555
Li0 O10 2.057847 1_555
Li0 O5 2.060321 1_555
Li0 O8 2.060489 1_555
Li0 O2 2.200124 1_555
Li0 O0 2.221736 1_555
Li1 O4 2.052134 1_556
Li1 O9 2.057862 1_555
Li1 O7 2.060378 1_455
Li1 O11 2.060454 1_455
Li1 O1 2.200564 1_555
Li1 O3 2.221291 1_455
Li2 O8 2.052734 1_455
Li2 O5 2.090870 1_455
Li2 O0 2.093799 1_445
Li2 O2 2.203036 1_555
Li2 O15 2.219106 1_555
Li2 O10 2.389417 1_555
Li3 O9 2.073018 1_555
Li3 O1 2.083063 1_545
Li3 O4 2.094050 1_556
Li3 O14 2.119732 1_556
Li3 O3 2.207885 1_555
Li3 O11 2.415638 1_555
Li4 O10 2.072918 1_555
Li4 O2 2.083230 1_565
Li4 O6 2.093918 1_555
Li4 O12 2.119723 1_455
Li4 O0 2.207963 1_455
Li4 O8 2.415464 1_455
Li5 O11 2.052824 1_555
Li5 O7 2.090848 1_555
Li5 O3 2.093750 1_565
Li5 O1 2.202986 1_555
Li5 O13 2.219376 1_555
Li5 O9 2.389518 1_555
Li6 O11 2.026772 1_554
Li6 O14 2.055948 1_565
Li6 O1 2.133141 1_554
Li6 O20 2.151073 1_555
Li6 O18 2.168090 1_555
Li6 O4 2.448622 1_555
Li7 O10 2.023992 1_655
Li7 O15 2.050295 1_665
Li7 O0 2.126298 1_555
Li7 O21 2.141700 1_555
Li7 O19 2.147227 1_655
Li7 O5 2.458071 1_555
Li8 O8 2.026683 1_455
Li8 O12 2.056014 1_445
Li8 O2 2.133217 1_555
Li8 O22 2.150877 1_555
Li8 O16 2.167905 1_555
Li8 O6 2.448717 1_555
Li9 O9 2.023924 1_555
Li9 O13 2.050320 1_545
Li9 O3 2.126644 1_555
Li9 O23 2.141683 1_655
Li9 O17 2.147299 1_555
Li9 O7 2.458190 1_555
Li10 O6 2.038512 1_555
Li10 O22 2.093295 1_565
Li10 O18 2.109122 1_555
Li10 O12 2.151663 1_455
Li10 O20 2.201271 1_555
Li10 O16 2.254019 1_555
Li11 O23 2.016099 1_665
Li11 O7 2.043519 1_555
Li11 O19 2.123054 1_655
Li11 O13 2.129305 1_555
Li11 O21 2.139217 1_555
Li11 O17 2.487709 1_555
Li12 O4 2.038598 1_555
Li12 O20 2.093313 1_545
Li12 O16 2.109033 1_555
Li12 O14 2.151823 1_555
Li12 O22 2.201384 1_555
Li12 O18 2.253881 1_555
Li13 O21 2.016195 1_545
Li13 O5 2.043735 1_555
Li13 O17 2.123142 1_555
Li13 O15 2.129197 1_655
Li13 O23 2.139024 1_655
Li13 O19 2.487484 1_655
Mn0 O2 1.933053 1_565
Mn0 O0 1.937761 1_555
Mn0 O15 1.945137 1_565
Mn0 O21 1.954560 1_555
Mn0 O5 1.964927 1_565
Mn0 O10 1.974316 1_555
Mn1 O1 1.933128 1_545
Mn1 O3 1.937732 1_455
Mn1 O13 1.945169 1_545
Mn1 O23 1.954538 1_555
Mn1 O7 1.964911 1_445
Mn1 O9 1.974365 1_555
Mn2 O5 1.942312 1_555
Mn2 O10 1.948857 1_555
Mn2 O19 1.994136 1_555
Mn2 O17 1.998080 1_555
Mn2 O21 2.197551 1_555
Mn2 O15 2.199417 1_555
Mn3 O7 1.942384 1_455
Mn3 O9 1.948906 1_555
Mn3 O17 1.994109 1_555
Mn3 O19 1.998115 1_555
Mn3 O23 2.197596 1_555
Mn3 O13 2.199344 1_555
Mn4 O3 1.919505 1_555
Mn4 O1 1.938091 1_645
Mn4 O14 1.941133 1_556
Mn4 O4 1.967065 1_656
Mn4 O11 1.970301 1_545
Mn4 O20 1.977107 1_646
Mn5 O0 1.919626 1_555
Mn5 O2 1.938172 1_565
Mn5 O12 1.940933 1_555
Mn5 O6 1.967163 1_555
Mn5 O8 1.970287 1_565
Mn5 O22 1.976953 1_565
Mn6 O4 1.939804 1_655
Mn6 O11 1.953267 1_554
Mn6 O18 1.985986 1_555
Mn6 O16 2.003823 1_655
Mn6 O14 2.182141 1_555
Mn6 O20 2.234524 1_655
Mn7 O6 1.939755 1_555
Mn7 O8 1.953326 1_555
Mn7 O16 1.985963 1_655
Mn7 O18 2.003729 1_555
Mn7 O12 2.182132 1_555
Mn7 O22 2.234439 1_555
Co0 O13 1.956120 1_555
Co0 O15 1.956128 1_565
Co0 O21 1.957003 1_555
Co0 O23 1.957083 1_565
Co0 O17 1.979949 1_565
Co0 O19 1.979968 1_555
Co1 O22 1.950519 1_565
Co1 O20 1.950748 1_655
Co1 O14 2.051043 1_565
Co1 O12 2.051133 1_555
Co1 O18 2.114498 1_555
Co1 O16 2.114594 1_665
