# generated using pymatgen
data_ZnC2
_symmetry_space_group_name_H-M   'P 1'
_cell_length_a   6.45653400
_cell_length_b   6.45653400
_cell_length_c   6.45653400
_cell_angle_alpha   90.00000000
_cell_angle_beta   90.00000000
_cell_angle_gamma   90.00000000
_symmetry_Int_Tables_number   1
_chemical_formula_structural   ZnC2
_chemical_formula_sum   'Zn4 C8'
_cell_volume   269.15244360
_cell_formula_units_Z   4
loop_
 _symmetry_equiv_pos_site_id
 _symmetry_equiv_pos_as_xyz
  1  'x, y, z'
loop_
 _atom_site_type_symbol
 _atom_site_label
 _atom_site_symmetry_multiplicity
 _atom_site_fract_x
 _atom_site_fract_y
 _atom_site_fract_z
 _atom_site_occupancy
  Zn  Zn0  1  0.25000000  0.25000000  0.25000000  1
  Zn  Zn1  1  0.75000000  0.75000000  0.25000000  1
  Zn  Zn2  1  0.75000000  0.25000000  0.75000000  1
  Zn  Zn3  1  0.25000000  0.75000000  0.75000000  1
  C  C0  1  0.08275100  0.08275100  0.08275100  1
  C  C1  1  0.91724900  0.91724900  0.08275100  1
  C  C2  1  0.91724900  0.08275100  0.91724900  1
  C  C3  1  0.58275100  0.58275100  0.41724900  1
  C  C4  1  0.41724900  0.41724900  0.41724900  1
  C  C5  1  0.08275100  0.91724900  0.91724900  1
  C  C6  1  0.58275100  0.41724900  0.58275100  1
  C  C7  1  0.41724900  0.58275100  0.58275100  1
loop_
_geom_bond_atom_site_label_1
_geom_bond_atom_site_label_2
_geom_bond_distance
_geom_bond_site_symmetry_2
C0 Zn0 1.870353 1_555
C1 Zn1 1.870353 1_555
C2 Zn2 1.870353 1_555
C3 Zn1 1.870353 1_555
C4 Zn0 1.870353 1_555
C5 Zn3 1.870353 1_555
C6 Zn2 1.870353 1_555
C7 Zn3 1.870353 1_555
