# generated using pymatgen
data_HoNi4B
_symmetry_space_group_name_H-M   'P 1'
_cell_length_a   4.91850163
_cell_length_b   4.91850157
_cell_length_c   6.87656807
_cell_angle_alpha   90.00000000
_cell_angle_beta   90.00000000
_cell_angle_gamma   120.00000036
_symmetry_Int_Tables_number   1
_chemical_formula_structural   HoNi4B
_chemical_formula_sum   'Ho2 Ni8 B2'
_cell_volume   144.06816023
_cell_formula_units_Z   2
loop_
 _symmetry_equiv_pos_site_id
 _symmetry_equiv_pos_as_xyz
  1  'x, y, z'
loop_
 _atom_site_type_symbol
 _atom_site_label
 _atom_site_symmetry_multiplicity
 _atom_site_fract_x
 _atom_site_fract_y
 _atom_site_fract_z
 _atom_site_occupancy
  Ho  Ho0  1  -0.00000000  0.00000000  0.50000000  1
  Ho  Ho1  1  -0.00000000  0.00000000  0.00000000  1
  Ni  Ni0  1  -0.00000000  0.50000000  0.20860201  1
  Ni  Ni1  1  0.50000000  0.00000000  0.79139799  1
  Ni  Ni2  1  0.50000000  0.50000000  0.79139799  1
  Ni  Ni3  1  -0.00000000  0.50000000  0.79139799  1
  Ni  Ni4  1  0.33333300  0.66666700  0.50000000  1
  Ni  Ni5  1  0.66666700  0.33333300  0.50000000  1
  Ni  Ni6  1  0.50000000  0.00000000  0.20860201  1
  Ni  Ni7  1  0.50000000  0.50000000  0.20860201  1
  B  B0  1  0.33333300  0.66666700  0.00000000  1
  B  B1  1  0.66666700  0.33333300  0.00000000  1
loop_
_geom_bond_atom_site_label_1
_geom_bond_atom_site_label_2
_geom_bond_distance
_geom_bond_site_symmetry_2
Ho0 Ni4 2.839695 1_545
Ho0 Ni5 2.839695 1_455
Ho0 Ni4 2.839700 1_555
Ho0 Ni5 2.839700 1_445
Ho0 Ni5 2.839700 1_555
Ho0 Ni4 2.839700 1_445
Ho1 Ni0 2.847035 1_555
Ho1 Ni0 2.847035 1_545
Ho1 Ni3 2.847035 1_554
Ho1 Ni3 2.847035 1_544
Ho1 Ni2 2.847035 1_554
Ho1 Ni7 2.847035 1_445
Ho1 Ni7 2.847035 1_555
Ho1 Ni2 2.847035 1_444
Ho1 Ni6 2.847035 1_455
Ho1 Ni1 2.847035 1_554
Ho1 Ni6 2.847035 1_555
Ho1 Ni1 2.847035 1_454
Ni0 Ni4 2.455861 1_555
Ni0 Ni5 2.455861 1_455
Ni1 Ni4 2.455861 1_545
Ni1 Ni5 2.455861 1_555
Ni2 Ni4 2.455864 1_555
Ni2 Ni5 2.455864 1_555
Ni3 Ni4 2.455861 1_555
Ni3 Ni5 2.455861 1_455
Ni4 Ni6 2.455861 1_565
Ni4 Ni7 2.455864 1_555
Ni5 Ni6 2.455861 1_555
Ni5 Ni7 2.455864 1_555
B0 Ni1 2.018331 1_564
B0 Ni6 2.018331 1_565
B0 Ni3 2.018331 1_554
B0 Ni0 2.018331 1_555
B0 Ni2 2.018334 1_554
B0 Ni7 2.018334 1_555
B0 Ho1 2.839695 1_565
B0 Ho1 2.839700 1_555
B0 Ho1 2.839700 1_665
B1 Ni6 2.018331 1_555
B1 Ni1 2.018331 1_554
B1 Ni0 2.018331 1_655
B1 Ni3 2.018331 1_654
B1 Ni2 2.018334 1_554
B1 Ni7 2.018334 1_555
B1 Ho1 2.839695 1_655
B1 Ho1 2.839700 1_665
B1 Ho1 2.839700 1_555
