# generated using pymatgen
data_KLiMoO4
_symmetry_space_group_name_H-M   'P 1'
_cell_length_a   9.18056912
_cell_length_b   9.63325200
_cell_length_c   16.81115967
_cell_angle_alpha   89.75394821
_cell_angle_beta   90.00000000
_cell_angle_gamma   90.00000000
_symmetry_Int_Tables_number   1
_chemical_formula_structural   KLiMoO4
_chemical_formula_sum   'K12 Li12 Mo12 O48'
_cell_volume   1486.74399954
_cell_formula_units_Z   12
loop_
 _symmetry_equiv_pos_site_id
 _symmetry_equiv_pos_as_xyz
  1  'x, y, z'
loop_
 _atom_site_type_symbol
 _atom_site_label
 _atom_site_symmetry_multiplicity
 _atom_site_fract_x
 _atom_site_fract_y
 _atom_site_fract_z
 _atom_site_occupancy
  K  K0  1  0.97056053  0.26143815  0.58836507  1
  K  K1  1  0.02943947  0.73856185  0.41163493  1
  K  K2  1  0.47056053  0.23856185  0.91163493  1
  K  K3  1  0.52943947  0.76143815  0.08836507  1
  K  K4  1  0.50865577  0.75314287  0.74833408  1
  K  K5  1  0.49134423  0.24685713  0.25166592  1
  K  K6  1  0.00865577  0.74685713  0.75166592  1
  K  K7  1  0.99134423  0.25314287  0.24833408  1
  K  K8  1  0.53681494  0.23369823  0.56987679  1
  K  K9  1  0.46318506  0.76630177  0.43012321  1
  K  K10  1  0.03681494  0.26630177  0.93012321  1
  K  K11  1  0.96318506  0.73369823  0.06987679  1
  Li  Li0  1  0.17025010  0.93169612  0.90917458  1
  Li  Li1  1  0.82974990  0.06830388  0.09082542  1
  Li  Li2  1  0.67025010  0.56830388  0.59082542  1
  Li  Li3  1  0.32974990  0.43169612  0.40917458  1
  Li  Li4  1  0.67104249  0.59834306  0.92013547  1
  Li  Li5  1  0.32895751  0.40165694  0.07986453  1
  Li  Li6  1  0.17104249  0.90165694  0.57986453  1
  Li  Li7  1  0.82895751  0.09834306  0.42013547  1
  Li  Li8  1  0.66909643  0.08317930  0.73954657  1
  Li  Li9  1  0.33090357  0.91682070  0.26045343  1
  Li  Li10  1  0.16909643  0.41682070  0.76045343  1
  Li  Li11  1  0.83090357  0.58317930  0.23954657  1
  Mo  Mo0  1  0.78662456  0.89405139  0.58193639  1
  Mo  Mo1  1  0.21337544  0.10594861  0.41806361  1
  Mo  Mo2  1  0.28662456  0.60594861  0.91806361  1
  Mo  Mo3  1  0.71337544  0.39405139  0.08193639  1
  Mo  Mo4  1  0.78460264  0.93324516  0.90732411  1
  Mo  Mo5  1  0.21539736  0.06675484  0.09267589  1
  Mo  Mo6  1  0.28460264  0.56675484  0.59267589  1
  Mo  Mo7  1  0.71539736  0.43324516  0.40732411  1
  Mo  Mo8  1  0.28286429  0.07662087  0.73673010  1
  Mo  Mo9  1  0.71713571  0.92337913  0.26326990  1
  Mo  Mo10  1  0.78286429  0.42337913  0.76326990  1
  Mo  Mo11  1  0.21713571  0.57662087  0.23673010  1
  O  O0  1  0.76678134  0.92602836  0.68647087  1
  O  O1  1  0.23321866  0.07397164  0.31352913  1
  O  O2  1  0.26678134  0.57397164  0.81352913  1
  O  O3  1  0.73321866  0.42602836  0.18647087  1
  O  O4  1  0.75439554  0.05250092  0.52711929  1
  O  O5  1  0.24560446  0.94749908  0.47288071  1
  O  O6  1  0.25439554  0.44749908  0.97288071  1
  O  O7  1  0.74560446  0.55250092  0.02711929  1
  O  O8  1  0.65741164  0.04203068  0.85433449  1
  O  O9  1  0.34258836  0.95796932  0.14566551  1
  O  O10  1  0.15741164  0.45796932  0.64566551  1
  O  O11  1  0.84258836  0.54203068  0.35433449  1
  O  O12  1  0.75236765  0.43543053  0.51260687  1
  O  O13  1  0.24763235  0.56456947  0.48739313  1
  O  O14  1  0.25236765  0.06456947  0.98739313  1
  O  O15  1  0.74763235  0.93543053  0.01260687  1
  O  O16  1  0.66061000  0.76185813  0.55080272  1
  O  O17  1  0.33939000  0.23814187  0.44919728  1
  O  O18  1  0.16061000  0.73814187  0.94919728  1
  O  O19  1  0.83939000  0.26185813  0.05080272  1
  O  O20  1  0.75037928  0.26478011  0.70979303  1
  O  O21  1  0.24962072  0.73521989  0.29020697  1
  O  O22  1  0.25037928  0.23521989  0.79020697  1
  O  O23  1  0.74962072  0.76478011  0.20979303  1
  O  O24  1  0.26522837  0.93180170  0.80398292  1
  O  O25  1  0.73477163  0.06819830  0.19601708  1
  O  O26  1  0.76522837  0.56819830  0.69601708  1
  O  O27  1  0.23477163  0.43180170  0.30398292  1
  O  O28  1  0.65793058  0.44054561  0.84509375  1
  O  O29  1  0.34206942  0.55945439  0.15490625  1
  O  O30  1  0.15793058  0.05945439  0.65490625  1
  O  O31  1  0.84206942  0.94054561  0.34509375  1
  O  O32  1  0.96641724  0.99418179  0.89004517  1
  O  O33  1  0.03358276  0.00581821  0.10995483  1
  O  O34  1  0.46641724  0.50581821  0.60995483  1
  O  O35  1  0.53358276  0.49418179  0.39004517  1
  O  O36  1  0.46599944  0.07522046  0.69871043  1
  O  O37  1  0.53400056  0.92477954  0.30128957  1
  O  O38  1  0.96599944  0.42477954  0.80128957  1
  O  O39  1  0.03400056  0.57522046  0.19871043  1
  O  O40  1  0.77500496  0.75714021  0.87252312  1
  O  O41  1  0.22499504  0.24285979  0.12747688  1
  O  O42  1  0.27500496  0.74285979  0.62747688  1
  O  O43  1  0.72499504  0.25714021  0.37252312  1
  O  O44  1  0.46917543  0.66449971  0.93590812  1
  O  O45  1  0.53082457  0.33550029  0.06409188  1
  O  O46  1  0.96917543  0.83550029  0.56409188  1
  O  O47  1  0.03082457  0.16449971  0.43590812  1
loop_
_geom_bond_atom_site_label_1
_geom_bond_atom_site_label_2
_geom_bond_distance
_geom_bond_site_symmetry_2
K0 O10 2.733225 1_655
K0 O47 2.787033 1_655
K0 O30 2.824464 1_655
K0 O20 2.873100 1_555
K0 O12 2.902685 1_555
K0 O4 3.011205 1_555
K1 O11 2.733225 1_455
K1 O46 2.787033 1_455
K1 O31 2.824464 1_455
K1 O21 2.873100 1_555
K1 O13 2.902685 1_555
K1 O5 3.011205 1_555
K2 O8 2.733225 1_555
K2 O45 2.787033 1_556
K2 O28 2.824464 1_555
K2 O22 2.873100 1_555
K2 O14 2.902685 1_555
K2 O6 3.011205 1_555
K3 O9 2.733225 1_555
K3 O44 2.787033 1_554
K3 O29 2.824464 1_555
K3 O23 2.873100 1_555
K3 O15 2.902685 1_555
K3 O7 3.011205 1_555
K4 O42 2.956480 1_555
K4 O24 2.974128 1_555
K4 O2 3.015772 1_555
K4 O0 3.075077 1_555
K4 O26 3.083740 1_555
K4 O40 3.215604 1_555
K4 O36 3.233193 1_565
K4 O44 3.283438 1_555
K4 O34 3.359497 1_555
K5 O43 2.956480 1_555
K5 O25 2.974128 1_555
K5 O3 3.015772 1_555
K5 O1 3.075077 1_555
K5 O27 3.083740 1_555
K5 O41 3.215604 1_555
K5 O37 3.233193 1_545
K5 O45 3.283438 1_555
K5 O35 3.359497 1_555
K6 O40 2.956480 1_455
K6 O26 2.974128 1_455
K6 O0 3.015772 1_455
K6 O2 3.075077 1_555
K6 O24 3.083740 1_555
K6 O42 3.215604 1_555
K6 O38 3.233193 1_455
K6 O46 3.283438 1_455
K6 O32 3.359497 1_455
K7 O41 2.956480 1_655
K7 O27 2.974128 1_655
K7 O1 3.015772 1_655
K7 O3 3.075077 1_555
K7 O25 3.083740 1_555
K7 O43 3.215604 1_555
K7 O39 3.233193 1_655
K7 O47 3.283438 1_655
K7 O33 3.359497 1_655
K8 O17 2.720666 1_555
K8 O36 2.723200 1_555
K8 O4 2.750337 1_555
K8 O34 2.785418 1_555
K8 O12 2.933165 1_555
K8 O20 3.077734 1_555
K9 O16 2.720666 1_555
K9 O37 2.723200 1_555
K9 O5 2.750337 1_555
K9 O35 2.785418 1_555
K9 O13 2.933165 1_555
K9 O21 3.077734 1_555
K10 O19 2.720666 1_456
K10 O38 2.723200 1_455
K10 O6 2.750337 1_555
K10 O32 2.785418 1_445
K10 O14 2.933165 1_555
K10 O22 3.077734 1_555
K11 O18 2.720666 1_654
K11 O39 2.723200 1_655
K11 O7 2.750337 1_555
K11 O33 2.785418 1_665
K11 O15 2.933165 1_555
K11 O23 3.077734 1_555
Li0 O24 1.971676 1_555
Li0 O18 1.981496 1_555
Li0 O14 1.987532 1_565
Li0 O32 1.991446 1_455
Li1 O25 1.971676 1_555
Li1 O19 1.981496 1_555
Li1 O15 1.987532 1_545
Li1 O33 1.991446 1_655
Li2 O26 1.971676 1_555
Li2 O16 1.981496 1_555
Li2 O12 1.987532 1_555
Li2 O34 1.991446 1_555
Li3 O27 1.971676 1_555
Li3 O17 1.981496 1_555
Li3 O13 1.987532 1_555
Li3 O35 1.991446 1_555
Li4 O40 1.970072 1_555
Li4 O7 1.972675 1_556
Li4 O44 1.977996 1_555
Li4 O28 1.983217 1_555
Li5 O41 1.970072 1_555
Li5 O6 1.972675 1_554
Li5 O45 1.977996 1_555
Li5 O29 1.983217 1_555
Li6 O42 1.970072 1_555
Li6 O5 1.972675 1_555
Li6 O46 1.977996 1_455
Li6 O30 1.983217 1_565
Li7 O43 1.970072 1_555
Li7 O4 1.972675 1_555
Li7 O47 1.977996 1_655
Li7 O31 1.983217 1_545
Li8 O20 1.964675 1_555
Li8 O8 1.971263 1_555
Li8 O0 1.975806 1_545
Li8 O36 1.988504 1_555
Li9 O21 1.964675 1_555
Li9 O9 1.971263 1_555
Li9 O1 1.975806 1_565
Li9 O37 1.988504 1_555
Li10 O22 1.964675 1_555
Li10 O10 1.971263 1_555
Li10 O2 1.975806 1_555
Li10 O38 1.988504 1_455
Li11 O23 1.964675 1_555
Li11 O11 1.971263 1_555
Li11 O3 1.975806 1_555
Li11 O39 1.988504 1_655
Mo0 O46 1.793961 1_555
Mo0 O0 1.794712 1_555
Mo0 O16 1.799924 1_555
Mo0 O4 1.804036 1_565
Mo1 O47 1.793961 1_555
Mo1 O1 1.794712 1_555
Mo1 O17 1.799924 1_555
Mo1 O5 1.804036 1_545
Mo2 O44 1.793961 1_555
Mo2 O2 1.794712 1_555
Mo2 O18 1.799924 1_555
Mo2 O6 1.804036 1_555
Mo3 O45 1.793961 1_555
Mo3 O3 1.794712 1_555
Mo3 O19 1.799924 1_555
Mo3 O7 1.804036 1_555
Mo4 O32 1.792653 1_555
Mo4 O40 1.799042 1_555
Mo4 O8 1.802011 1_565
Mo4 O15 1.802386 1_556
Mo5 O33 1.792653 1_555
Mo5 O41 1.799042 1_555
Mo5 O9 1.802011 1_545
Mo5 O14 1.802386 1_554
Mo6 O34 1.792653 1_555
Mo6 O42 1.799042 1_555
Mo6 O10 1.802011 1_555
Mo6 O13 1.802386 1_555
Mo7 O35 1.792653 1_555
Mo7 O43 1.799042 1_555
Mo7 O11 1.802011 1_555
Mo7 O12 1.802386 1_555
Mo8 O36 1.798748 1_555
Mo8 O30 1.799159 1_555
Mo8 O24 1.799213 1_545
Mo8 O22 1.800889 1_555
Mo9 O37 1.798748 1_555
Mo9 O31 1.799159 1_555
Mo9 O25 1.799213 1_565
Mo9 O23 1.800889 1_555
Mo10 O38 1.798748 1_555
Mo10 O28 1.799159 1_555
Mo10 O26 1.799213 1_555
Mo10 O20 1.800889 1_555
Mo11 O39 1.798748 1_555
Mo11 O29 1.799159 1_555
Mo11 O27 1.799213 1_555
Mo11 O21 1.800889 1_555
