# generated using pymatgen
data_MgIn5
_symmetry_space_group_name_H-M   'P 1'
_cell_length_a   6.00158806
_cell_length_b   6.00158806
_cell_length_c   4.93787599
_cell_angle_alpha   90.00000000
_cell_angle_beta   90.00000000
_cell_angle_gamma   120.00000511
_symmetry_Int_Tables_number   1
_chemical_formula_structural   MgIn5
_chemical_formula_sum   'Mg1 In5'
_cell_volume   154.02923352
_cell_formula_units_Z   1
loop_
 _symmetry_equiv_pos_site_id
 _symmetry_equiv_pos_as_xyz
  1  'x, y, z'
loop_
 _atom_site_type_symbol
 _atom_site_label
 _atom_site_symmetry_multiplicity
 _atom_site_fract_x
 _atom_site_fract_y
 _atom_site_fract_z
 _atom_site_occupancy
  Mg  Mg0  1  -0.00000000  -0.00000000  0.50000000  1
  In  In0  1  0.33333300  0.66666700  0.50000000  1
  In  In1  1  0.00000000  0.67758457  -0.00000000  1
  In  In2  1  0.67758457  0.00000000  0.00000000  1
  In  In3  1  0.32241543  0.32241543  -0.00000000  1
  In  In4  1  0.66666700  0.33333300  0.50000000  1
loop_
_geom_bond_atom_site_label_1
_geom_bond_atom_site_label_2
_geom_bond_distance
_geom_bond_site_symmetry_2
In0 In1 3.198928 1_555
In0 In1 3.198928 1_556
In0 In2 3.198930 1_565
In0 In2 3.198930 1_566
In0 In3 3.198931 1_556
In0 In3 3.198931 1_555
In0 In4 3.465015 1_455
In0 In4 3.465015 1_565
In0 Mg0 3.465015 1_565
In0 Mg0 3.465020 1_555
In0 Mg0 3.465020 1_665
In0 In4 3.465026 1_555
In1 Mg0 3.136861 1_564
In1 Mg0 3.136861 1_565
In1 In4 3.198930 1_455
In1 In4 3.198930 1_454
In1 In3 3.351526 1_565
In1 In2 3.351526 1_465
In1 In3 3.523136 1_455
In1 In2 3.523136 1_455
In1 In2 3.523136 1_565
In1 In3 3.523136 1_555
In2 Mg0 3.136861 1_655
In2 Mg0 3.136861 1_654
In2 In4 3.198928 1_554
In2 In4 3.198928 1_555
In2 In3 3.351526 1_655
In2 In3 3.523136 1_545
In2 In3 3.523136 1_555
In3 Mg0 3.136861 1_554
In3 Mg0 3.136861 1_555
In3 In4 3.198931 1_555
In3 In4 3.198931 1_554
In4 Mg0 3.465015 1_655
In4 Mg0 3.465020 1_555
In4 Mg0 3.465020 1_665
