# generated using pymatgen
data_Li4Ni3SbO8
_symmetry_space_group_name_H-M   'P 1'
_cell_length_a   5.99885268
_cell_length_b   5.97161663
_cell_length_c   8.43339221
_cell_angle_alpha   90.07460501
_cell_angle_beta   89.97408433
_cell_angle_gamma   90.00005713
_symmetry_Int_Tables_number   1
_chemical_formula_structural   Li4Ni3SbO8
_chemical_formula_sum   'Li8 Ni6 Sb2 O16'
_cell_volume   302.10784385
_cell_formula_units_Z   2
loop_
 _symmetry_equiv_pos_site_id
 _symmetry_equiv_pos_as_xyz
  1  'x, y, z'
loop_
 _atom_site_type_symbol
 _atom_site_label
 _atom_site_symmetry_multiplicity
 _atom_site_fract_x
 _atom_site_fract_y
 _atom_site_fract_z
 _atom_site_occupancy
  Li  Li0  1  0.99709200  0.00066800  0.49892000  1
  Li  Li1  1  0.50332000  0.49990400  0.00046900  1
  Li  Li2  1  0.25017400  0.24997400  0.24999200  1
  Li  Li3  1  0.75033400  0.74981300  0.74997300  1
  Li  Li4  1  0.25019000  0.75014300  0.74997100  1
  Li  Li5  1  0.75064800  0.25069300  0.24995100  1
  Li  Li6  1  0.49897200  0.99988700  0.49924500  1
  Li  Li7  1  0.00115200  0.50014000  0.00035500  1
  Ni  Ni0  1  0.74986100  0.75001800  0.25004200  1
  Ni  Ni1  1  0.25002800  0.24982700  0.75001500  1
  Ni  Ni2  1  0.24987600  0.74986900  0.25004400  1
  Ni  Ni3  1  0.74988500  0.24979400  0.74997000  1
  Ni  Ni4  1  0.49842600  0.00009600  0.00021400  1
  Ni  Ni5  1  0.00143600  0.50005300  0.49993300  1
  Sb  Sb0  1  0.99743700  0.99999200  0.00004200  1
  Sb  Sb1  1  0.50249100  0.49999200  0.50006100  1
  O  O0  1  0.48219500  0.02905000  0.75669100  1
  O  O1  1  0.01728800  0.52721700  0.25671200  1
  O  O2  1  0.01739000  0.47058700  0.74350300  1
  O  O3  1  0.48217700  0.97270300  0.24336800  1
  O  O4  1  0.23841300  0.76197000  0.00972800  1
  O  O5  1  0.74153300  0.26324200  0.49952500  1
  O  O6  1  0.26152700  0.73813900  0.49039900  1
  O  O7  1  0.75845700  0.23671600  0.00049500  1
  O  O8  1  0.26181700  0.26179100  0.51019400  1
  O  O9  1  0.75908600  0.76317500  0.99881600  1
  O  O10  1  0.00017000  0.00043800  0.76096000  1
  O  O11  1  0.50013900  0.49966800  0.26129400  1
  O  O12  1  0.23817600  0.23821400  0.98980600  1
  O  O13  1  0.74092300  0.73684100  0.50120100  1
  O  O14  1  0.49967400  0.49932700  0.73909700  1
  O  O15  1  0.99971700  0.00006700  0.23902100  1
loop_
_geom_bond_atom_site_label_1
_geom_bond_atom_site_label_2
_geom_bond_distance
_geom_bond_site_symmetry_2
Li0 O15 2.191878 1_555
Li0 O5 2.192915 1_555
Li0 O13 2.200919 1_545
Li0 O10 2.209974 1_655
Li0 O8 2.227594 1_655
Li0 O6 2.231344 1_645
Li1 O7 2.193772 1_555
Li1 O9 2.196811 1_554
Li1 O11 2.199716 1_555
Li1 O14 2.204369 1_554
Li1 O12 2.231546 1_554
Li1 O4 2.231619 1_555
Li2 O11 2.116757 1_555
Li2 O15 2.119622 1_455
Li2 O3 2.163635 1_545
Li2 O1 2.166938 1_555
Li2 O12 2.196495 1_554
Li2 O8 2.196570 1_555
Li3 O13 2.100105 1_555
Li3 O9 2.100683 1_555
Li3 O10 2.120013 1_665
Li3 O14 2.122886 1_555
Li3 O2 2.312897 1_655
Li3 O0 2.317496 1_565
Li4 O14 2.119229 1_555
Li4 O10 2.119347 1_565
Li4 O0 2.171178 1_565
Li4 O2 2.177156 1_555
Li4 O6 2.191177 1_555
Li4 O4 2.192785 1_556
Li5 O7 2.105807 1_555
Li5 O5 2.106677 1_555
Li5 O11 2.116007 1_555
Li5 O15 2.116690 1_555
Li5 O1 2.299645 1_655
Li5 O3 2.313536 1_545
Li6 O6 2.115990 1_555
Li6 O8 2.116142 1_565
Li6 O13 2.138797 1_555
Li6 O5 2.142550 1_565
Li6 O3 2.166187 1_555
Li6 O0 2.180169 1_565
Li7 O12 2.115571 1_554
Li7 O4 2.115768 1_555
Li7 O9 2.139189 1_454
Li7 O7 2.143399 1_455
Li7 O1 2.169991 1_555
Li7 O2 2.175220 1_554
Ni0 O1 2.085009 1_655
Ni0 O3 2.085755 1_555
Ni0 O15 2.117795 1_565
Ni0 O11 2.118582 1_555
Ni0 O13 2.120340 1_555
Ni0 O9 2.120943 1_554
Ni1 O0 1.918676 1_555
Ni1 O2 1.920616 1_555
Ni1 O12 2.024747 1_555
Ni1 O8 2.025062 1_555
Ni1 O14 2.114554 1_555
Ni1 O10 2.114998 1_555
Ni2 O3 1.927680 1_555
Ni2 O1 1.928173 1_555
Ni2 O4 2.029258 1_555
Ni2 O6 2.029544 1_555
Ni2 O15 2.119771 1_465
Ni2 O11 2.120313 1_555
Ni3 O2 2.077651 1_655
Ni3 O0 2.078381 1_555
Ni3 O5 2.114348 1_555
Ni3 O7 2.114969 1_556
Ni3 O10 2.116754 1_655
Ni3 O14 2.117138 1_555
Ni4 O3 2.059604 1_545
Ni4 O0 2.063557 1_554
Ni4 O7 2.104715 1_555
Ni4 O9 2.108739 1_544
Ni4 O4 2.112251 1_545
Ni4 O12 2.113634 1_554
Ni5 O1 2.059946 1_555
Ni5 O2 2.064135 1_555
Ni5 O5 2.104913 1_455
Ni5 O13 2.107548 1_455
Ni5 O6 2.112443 1_555
Ni5 O8 2.114740 1_555
O4 Sb0 2.029063 1_455
O5 Sb1 2.013720 1_555
O6 Sb1 2.029526 1_555
O7 Sb0 2.013346 1_545
O8 Sb1 2.028625 1_555
O9 Sb0 2.011071 1_556
O10 Sb0 2.016337 1_446
O11 Sb1 2.013670 1_555
O12 Sb0 2.029028 1_446
O13 Sb1 2.011547 1_555
O14 Sb1 2.015957 1_555
O15 Sb0 2.015456 1_545
