# generated using pymatgen
data_Ca5P3O13
_symmetry_space_group_name_H-M   'P 1'
_cell_length_a   9.53673767
_cell_length_b   9.53673767
_cell_length_c   6.91594900
_cell_angle_alpha   90.00000000
_cell_angle_beta   90.00000000
_cell_angle_gamma   119.99999773
_symmetry_Int_Tables_number   1
_chemical_formula_structural   Ca5P3O13
_chemical_formula_sum   'Ca10 P6 O26'
_cell_volume   544.73100730
_cell_formula_units_Z   2
loop_
 _symmetry_equiv_pos_site_id
 _symmetry_equiv_pos_as_xyz
  1  'x, y, z'
loop_
 _atom_site_type_symbol
 _atom_site_label
 _atom_site_symmetry_multiplicity
 _atom_site_fract_x
 _atom_site_fract_y
 _atom_site_fract_z
 _atom_site_occupancy
  Ca  Ca0  1  0.66666700  0.33333300  0.50091500  1
  Ca  Ca1  1  0.33333300  0.66666700  0.00091500  1
  Ca  Ca2  1  0.33333300  0.66666700  0.49784100  1
  Ca  Ca3  1  0.66666700  0.33333300  0.99784100  1
  Ca  Ca4  1  0.24937800  0.00113500  0.74750400  1
  Ca  Ca5  1  0.99886500  0.24824300  0.74750400  1
  Ca  Ca6  1  0.75175700  0.75062200  0.74750400  1
  Ca  Ca7  1  0.75062200  0.99886500  0.24750400  1
  Ca  Ca8  1  0.00113500  0.75175700  0.24750400  1
  Ca  Ca9  1  0.24824300  0.24937800  0.24750400  1
  P  P0  1  0.03005200  0.63089700  0.74785300  1
  P  P1  1  0.36910300  0.39915500  0.74785300  1
  P  P2  1  0.60084500  0.96994800  0.74785300  1
  P  P3  1  0.96994800  0.36910300  0.24785300  1
  P  P4  1  0.63089700  0.60084500  0.24785300  1
  P  P5  1  0.39915500  0.03005200  0.24785300  1
  O  O0  1  0.12388800  0.53597500  0.75140000  1
  O  O1  1  0.46402500  0.58791300  0.75140000  1
  O  O2  1  0.41208700  0.87611200  0.75140000  1
  O  O3  1  0.87611200  0.46402500  0.25140000  1
  O  O4  1  0.53597500  0.41208700  0.25140000  1
  O  O5  1  0.58791300  0.12388800  0.25140000  1
  O  O6  1  0.08658400  0.74049300  0.56560600  1
  O  O7  1  0.25950700  0.34609100  0.56560600  1
  O  O8  1  0.65390900  0.91341600  0.56560600  1
  O  O9  1  0.91341600  0.25950700  0.06560600  1
  O  O10  1  0.74049300  0.65390900  0.06560600  1
  O  O11  1  0.34609100  0.08658400  0.06560600  1
  O  O12  1  0.91643200  0.25614200  0.42729700  1
  O  O13  1  0.74385800  0.66028900  0.42729700  1
  O  O14  1  0.33971100  0.08356800  0.42729700  1
  O  O15  1  0.08356800  0.74385800  0.92729700  1
  O  O16  1  0.25614200  0.33971100  0.92729700  1
  O  O17  1  0.66028900  0.91643200  0.92729700  1
  O  O18  1  0.84480200  0.51385300  0.74751300  1
  O  O19  1  0.48614700  0.33095000  0.74751300  1
  O  O20  1  0.66905000  0.15519800  0.74751300  1
  O  O21  1  0.15519800  0.48614700  0.24751300  1
  O  O22  1  0.51385300  0.66905000  0.24751300  1
  O  O23  1  0.33095000  0.84480200  0.24751300  1
  O  O24  1  0.00000000  0.00000000  0.73273200  1
  O  O25  1  0.00000000  0.00000000  0.23273200  1
loop_
_geom_bond_atom_site_label_1
_geom_bond_atom_site_label_2
_geom_bond_distance
_geom_bond_site_symmetry_2
Ca0 O20 2.415311 1_555
Ca0 O18 2.415318 1_555
Ca0 O19 2.415325 1_555
Ca0 O5 2.455894 1_555
Ca0 O3 2.455895 1_555
Ca0 O4 2.455900 1_555
Ca0 O12 2.868495 1_555
Ca0 O13 2.868495 1_555
Ca0 O14 2.868495 1_555
Ca1 O23 2.415311 1_555
Ca1 O21 2.415318 1_555
Ca1 O22 2.415325 1_555
Ca1 O2 2.455894 1_554
Ca1 O0 2.455895 1_554
Ca1 O1 2.455900 1_554
Ca1 O15 2.868495 1_554
Ca1 O16 2.868495 1_554
Ca1 O17 2.868495 1_554
Ca2 O23 2.433595 1_555
Ca2 O21 2.433601 1_555
Ca2 O22 2.433608 1_555
Ca2 O2 2.475625 1_555
Ca2 O0 2.475626 1_555
Ca2 O1 2.475632 1_555
Ca2 O6 2.812397 1_555
Ca2 O8 2.812404 1_555
Ca2 O7 2.812406 1_555
Ca3 O20 2.433595 1_555
Ca3 O18 2.433601 1_555
Ca3 O19 2.433608 1_555
Ca3 O5 2.475625 1_556
Ca3 O3 2.475626 1_556
Ca3 O4 2.475632 1_556
Ca3 O9 2.812397 1_556
Ca3 O11 2.812404 1_556
Ca3 O10 2.812406 1_556
Ca4 O14 2.363703 1_555
Ca4 O11 2.367076 1_556
Ca4 O24 2.375057 1_555
Ca4 O2 2.383332 1_545
Ca4 O15 2.487340 1_545
Ca4 O6 2.512448 1_545
Ca4 O19 2.808849 1_555
Ca5 O12 2.363701 1_555
Ca5 O9 2.367076 1_556
Ca5 O24 2.375057 1_655
Ca5 O0 2.383332 1_655
Ca5 O16 2.487339 1_655
Ca5 O7 2.512448 1_655
Ca5 O20 2.808851 1_555
Ca6 O13 2.363704 1_555
Ca6 O10 2.367076 1_556
Ca6 O24 2.375057 1_665
Ca6 O1 2.383332 1_555
Ca6 O17 2.487346 1_555
Ca6 O8 2.512448 1_555
Ca6 O18 2.808842 1_555
Ca7 O17 2.363703 1_554
Ca7 O8 2.367076 1_555
Ca7 O25 2.375057 1_665
Ca7 O5 2.383332 1_565
Ca7 O12 2.487340 1_565
Ca7 O9 2.512448 1_565
Ca7 O22 2.808849 1_555
Ca8 O15 2.363701 1_554
Ca8 O6 2.367076 1_555
Ca8 O25 2.375057 1_565
Ca8 O3 2.383332 1_455
Ca8 O13 2.487339 1_455
Ca8 O10 2.512448 1_455
Ca8 O23 2.808851 1_555
Ca9 O16 2.363704 1_554
Ca9 O7 2.367076 1_555
Ca9 O25 2.375057 1_555
Ca9 O4 2.383332 1_555
Ca9 O14 2.487346 1_555
Ca9 O11 2.512448 1_555
Ca9 O21 2.808842 1_555
O0 P0 1.559165 1_555
O1 P1 1.559165 1_555
O2 P2 1.559165 1_555
O3 P3 1.559165 1_555
O4 P4 1.559165 1_555
O5 P5 1.559165 1_555
O6 P0 1.551845 1_555
O7 P1 1.551845 1_555
O8 P2 1.551845 1_555
O9 P3 1.551845 1_555
O10 P4 1.551845 1_555
O11 P5 1.551845 1_555
O12 P3 1.552850 1_555
O13 P4 1.552849 1_555
O14 P5 1.552845 1_555
O15 P0 1.552850 1_555
O16 P1 1.552849 1_555
O17 P2 1.552845 1_555
O18 P0 1.547614 1_655
O19 P1 1.547606 1_555
O20 P2 1.547615 1_545
O21 P3 1.547614 1_455
O22 P4 1.547606 1_555
O23 P5 1.547615 1_565
