# generated using pymatgen
data_Mg5Zn
_symmetry_space_group_name_H-M   'P 1'
_cell_length_a   5.35023029
_cell_length_b   5.35023029
_cell_length_c   4.97302369
_cell_angle_alpha   90.00000000
_cell_angle_beta   90.00000000
_cell_angle_gamma   119.99998554
_symmetry_Int_Tables_number   1
_chemical_formula_structural   Mg5Zn
_chemical_formula_sum   'Mg5 Zn1'
_cell_volume   123.28100742
_cell_formula_units_Z   1
loop_
 _symmetry_equiv_pos_site_id
 _symmetry_equiv_pos_as_xyz
  1  'x, y, z'
loop_
 _atom_site_type_symbol
 _atom_site_label
 _atom_site_symmetry_multiplicity
 _atom_site_fract_x
 _atom_site_fract_y
 _atom_site_fract_z
 _atom_site_occupancy
  Mg  Mg0  1  -0.00000000  0.68074061  0.50000000  1
  Mg  Mg1  1  0.68074061  -0.00000000  0.50000000  1
  Mg  Mg2  1  0.31925939  0.31925939  0.50000000  1
  Mg  Mg3  1  0.66666700  0.33333300  0.00000000  1
  Mg  Mg4  1  0.33333300  0.66666700  0.00000000  1
  Zn  Zn0  1  0.00000000  -0.00000000  -0.00000000  1
loop_
_geom_bond_atom_site_label_1
_geom_bond_atom_site_label_2
_geom_bond_distance
_geom_bond_site_symmetry_2
Mg0 Mg1 2.958535 1_465
Mg0 Mg2 2.958536 1_565
Mg0 Zn0 3.016684 1_565
Mg0 Zn0 3.016684 1_566
Mg0 Mg4 3.082733 1_555
Mg0 Mg4 3.082733 1_556
Mg0 Mg3 3.082735 1_456
Mg0 Mg3 3.082735 1_455
Mg0 Mg2 3.156189 1_555
Mg0 Mg1 3.156190 1_565
Mg0 Mg1 3.156190 1_455
Mg0 Mg2 3.156190 1_455
Mg1 Mg2 2.958536 1_655
Mg1 Zn0 3.016684 1_656
Mg1 Zn0 3.016684 1_655
Mg1 Mg3 3.082733 1_555
Mg1 Mg3 3.082733 1_556
Mg1 Mg4 3.082735 1_545
Mg1 Mg4 3.082735 1_546
Mg1 Mg2 3.156189 1_555
Mg1 Mg2 3.156190 1_545
Mg2 Zn0 3.016685 1_555
Mg2 Zn0 3.016685 1_556
Mg2 Mg4 3.082736 1_555
Mg2 Mg3 3.082736 1_555
Mg2 Mg4 3.082736 1_556
Mg2 Mg3 3.082736 1_556
Mg3 Zn0 3.088954 1_655
Mg3 Mg4 3.088954 1_545
Mg3 Mg4 3.088954 1_655
Mg3 Zn0 3.088959 1_555
Mg3 Zn0 3.088959 1_665
Mg3 Mg4 3.088963 1_555
Mg4 Zn0 3.088954 1_565
Mg4 Zn0 3.088959 1_555
Mg4 Zn0 3.088959 1_665
