# generated using pymatgen
data_Mg5Bi
_symmetry_space_group_name_H-M   'P 1'
_cell_length_a   16.75897620
_cell_length_b   16.75897620
_cell_length_c   10.41369488
_cell_angle_alpha   90.00000000
_cell_angle_beta   90.00000000
_cell_angle_gamma   156.88442738
_symmetry_Int_Tables_number   1
_chemical_formula_structural   Mg5Bi
_chemical_formula_sum   'Mg40 Bi8'
_cell_volume   1148.24839253
_cell_formula_units_Z   8
loop_
 _symmetry_equiv_pos_site_id
 _symmetry_equiv_pos_as_xyz
  1  'x, y, z'
loop_
 _atom_site_type_symbol
 _atom_site_label
 _atom_site_symmetry_multiplicity
 _atom_site_fract_x
 _atom_site_fract_y
 _atom_site_fract_z
 _atom_site_occupancy
  Mg  Mg0_0  1  0.49995326  0.00004674  0.00000000  1
  Mg  Mg0_1  1  0.49995326  0.00004674  0.50000000  1
  Mg  Mg0_2  1  0.49995326  0.50004674  0.00000000  1
  Mg  Mg0_3  1  0.49995326  0.50004674  0.50000000  1
  Mg  Mg0_4  1  0.99995326  0.00004674  0.00000000  1
  Mg  Mg0_5  1  0.99995326  0.00004674  0.50000000  1
  Mg  Mg0_6  1  0.99995326  0.50004674  0.00000000  1
  Mg  Mg0_7  1  0.99995326  0.50004674  0.50000000  1
  Mg  Mg1_0  1  0.16740922  0.33259078  0.00000000  1
  Mg  Mg1_1  1  0.16740922  0.33259078  0.50000000  1
  Mg  Mg1_2  1  0.16740922  0.83259078  0.00000000  1
  Mg  Mg1_3  1  0.16740922  0.83259078  0.50000000  1
  Mg  Mg1_4  1  0.66740922  0.33259078  0.00000000  1
  Mg  Mg1_5  1  0.66740922  0.33259078  0.50000000  1
  Mg  Mg1_6  1  0.66740922  0.83259078  0.00000000  1
  Mg  Mg1_7  1  0.66740922  0.83259078  0.50000000  1
  Mg  Mg2_0  1  0.33089473  0.16910526  0.00000000  1
  Mg  Mg2_1  1  0.33089473  0.16910526  0.50000000  1
  Mg  Mg2_2  1  0.33089473  0.66910526  0.00000000  1
  Mg  Mg2_3  1  0.33089473  0.66910526  0.50000000  1
  Mg  Mg2_4  1  0.83089473  0.16910526  0.00000000  1
  Mg  Mg2_5  1  0.83089473  0.16910526  0.50000000  1
  Mg  Mg2_6  1  0.83089473  0.66910527  0.00000000  1
  Mg  Mg2_7  1  0.83089473  0.66910527  0.50000000  1
  Mg  Mg3_0  1  0.22530568  0.27469432  0.25000000  1
  Mg  Mg3_1  1  0.22530568  0.27469432  0.75000000  1
  Mg  Mg3_2  1  0.22530568  0.77469432  0.25000000  1
  Mg  Mg3_3  1  0.22530568  0.77469432  0.75000000  1
  Mg  Mg3_4  1  0.72530568  0.27469432  0.25000000  1
  Mg  Mg3_5  1  0.72530568  0.27469432  0.75000000  1
  Mg  Mg3_6  1  0.72530568  0.77469432  0.25000000  1
  Mg  Mg3_7  1  0.72530568  0.77469432  0.75000000  1
  Mg  Mg4_0  1  0.05438759  0.44561241  0.25000000  1
  Mg  Mg4_1  1  0.05438759  0.44561241  0.75000000  1
  Mg  Mg4_2  1  0.05438759  0.94561241  0.25000000  1
  Mg  Mg4_3  1  0.05438759  0.94561241  0.75000000  1
  Mg  Mg4_4  1  0.55438759  0.44561241  0.25000000  1
  Mg  Mg4_5  1  0.55438759  0.44561241  0.75000000  1
  Mg  Mg4_6  1  0.55438759  0.94561241  0.25000000  1
  Mg  Mg4_7  1  0.55438759  0.94561241  0.75000000  1
  Bi  Bi0_0  1  0.38871602  0.11128398  0.25000000  1
  Bi  Bi0_1  1  0.38871602  0.11128398  0.75000000  1
  Bi  Bi0_2  1  0.38871601  0.61128398  0.25000000  1
  Bi  Bi0_3  1  0.38871601  0.61128398  0.75000000  1
  Bi  Bi0_4  1  0.88871601  0.11128398  0.25000000  1
  Bi  Bi0_5  1  0.88871601  0.11128398  0.75000000  1
  Bi  Bi0_6  1  0.88871601  0.61128399  0.25000000  1
  Bi  Bi0_7  1  0.88871601  0.61128399  0.75000000  1
loop_
_geom_bond_atom_site_label_1
_geom_bond_atom_site_label_2
_geom_bond_distance
_geom_bond_site_symmetry_2
Mg0_0 Mg2_2 3.143805 1_545
Mg0_0 Mg2_4 3.143805 1_555
Mg0_0 Mg4_6 3.158019 1_545
Mg0_0 Mg4_7 3.158019 1_544
Mg0_0 Mg1_2 3.188422 1_545
Mg0_0 Mg1_4 3.188422 1_555
Mg0_0 Mg3_3 3.201806 1_544
Mg0_0 Mg3_5 3.201806 1_554
Mg0_0 Mg3_2 3.201806 1_545
Mg0_0 Mg3_4 3.201806 1_555
Mg0_0 Mg0_6 3.357764 1_445
Mg0_0 Mg0_6 3.357764 1_555
Mg0_1 Mg2_3 3.143805 1_545
Mg0_1 Mg2_5 3.143805 1_555
Mg0_1 Mg4_6 3.158019 1_545
Mg0_1 Mg4_7 3.158019 1_545
Mg0_1 Mg1_3 3.188422 1_545
Mg0_1 Mg1_5 3.188422 1_555
Mg0_1 Mg3_5 3.201806 1_555
Mg0_1 Mg3_3 3.201806 1_545
Mg0_1 Mg3_2 3.201806 1_545
Mg0_1 Mg3_4 3.201806 1_555
Mg0_1 Mg0_7 3.357764 1_555
Mg0_1 Mg0_7 3.357764 1_445
Mg0_2 Mg2_0 3.143805 1_555
Mg0_2 Mg2_6 3.143805 1_555
Mg0_2 Mg4_5 3.158019 1_554
Mg0_2 Mg4_4 3.158019 1_555
Mg0_2 Mg1_0 3.188422 1_555
Mg0_2 Mg1_6 3.188422 1_555
Mg0_2 Mg3_6 3.201806 1_555
Mg0_2 Mg3_7 3.201806 1_554
Mg0_2 Mg3_1 3.201806 1_554
Mg0_2 Mg3_0 3.201806 1_555
Mg0_2 Mg0_4 3.357764 1_565
Mg0_2 Mg0_4 3.357764 1_455
Mg0_3 Mg2_1 3.143805 1_555
Mg0_3 Mg2_7 3.143805 1_555
Mg0_3 Mg4_4 3.158019 1_555
Mg0_3 Mg4_5 3.158019 1_555
Mg0_3 Mg1_7 3.188422 1_555
Mg0_3 Mg1_1 3.188422 1_555
Mg0_3 Mg3_6 3.201806 1_555
Mg0_3 Mg3_7 3.201806 1_555
Mg0_3 Mg3_1 3.201806 1_555
Mg0_3 Mg3_0 3.201806 1_555
Mg0_3 Mg0_5 3.357764 1_565
Mg0_3 Mg0_5 3.357764 1_455
Mg0_4 Mg2_6 3.143805 1_545
Mg0_4 Mg2_0 3.143805 1_655
Mg0_4 Mg4_2 3.158019 1_645
Mg0_4 Mg4_3 3.158019 1_644
Mg0_4 Mg1_6 3.188422 1_545
Mg0_4 Mg1_0 3.188422 1_655
Mg0_4 Mg3_7 3.201806 1_544
Mg0_4 Mg3_6 3.201806 1_545
Mg0_4 Mg3_1 3.201806 1_654
Mg0_4 Mg3_0 3.201806 1_655
Mg0_5 Mg2_7 3.143805 1_545
Mg0_5 Mg2_1 3.143805 1_655
Mg0_5 Mg4_2 3.158019 1_645
Mg0_5 Mg4_3 3.158019 1_645
Mg0_5 Mg1_7 3.188422 1_545
Mg0_5 Mg1_1 3.188422 1_655
Mg0_5 Mg3_7 3.201806 1_545
Mg0_5 Mg3_6 3.201806 1_545
Mg0_5 Mg3_1 3.201806 1_655
Mg0_5 Mg3_0 3.201806 1_655
Mg0_6 Mg2_4 3.143805 1_555
Mg0_6 Mg2_2 3.143805 1_655
Mg0_6 Mg4_0 3.158019 1_655
Mg0_6 Mg4_1 3.158019 1_654
Mg0_6 Mg1_2 3.188422 1_655
Mg0_6 Mg1_4 3.188422 1_555
Mg0_6 Mg3_3 3.201806 1_654
Mg0_6 Mg3_2 3.201806 1_655
Mg0_6 Mg3_5 3.201806 1_554
Mg0_6 Mg3_4 3.201806 1_555
Mg0_7 Mg2_5 3.143805 1_555
Mg0_7 Mg2_3 3.143805 1_655
Mg0_7 Mg4_1 3.158019 1_655
Mg0_7 Mg4_0 3.158019 1_655
Mg0_7 Mg1_3 3.188422 1_655
Mg0_7 Mg1_5 3.188422 1_555
Mg0_7 Mg3_2 3.201806 1_655
Mg0_7 Mg3_5 3.201806 1_555
Mg0_7 Mg3_3 3.201806 1_655
Mg0_7 Mg3_4 3.201806 1_555
Mg1_0 Mg3_0 3.223734 1_555
Mg1_0 Mg3_1 3.223734 1_554
Mg1_1 Mg3_0 3.223734 1_555
Mg1_1 Mg3_1 3.223734 1_555
Mg1_2 Mg3_2 3.223734 1_555
Mg1_2 Mg3_3 3.223734 1_554
Mg1_3 Mg3_3 3.223734 1_555
Mg1_3 Mg3_2 3.223734 1_555
Mg1_4 Mg3_5 3.223734 1_554
Mg1_4 Mg3_4 3.223734 1_555
Mg1_5 Mg3_4 3.223734 1_555
Mg1_5 Mg3_5 3.223734 1_555
Mg1_6 Mg3_6 3.223734 1_555
Mg1_6 Mg3_7 3.223734 1_554
Mg1_7 Mg3_6 3.223734 1_555
Mg1_7 Mg3_7 3.223734 1_555
Mg3_0 Mg4_4 3.092349 1_555
Mg3_0 Mg4_2 3.092349 1_545
Mg3_0 Mg3_6 3.357764 1_445
Mg3_0 Mg3_6 3.357764 1_555
Mg3_1 Mg4_5 3.092349 1_555
Mg3_1 Mg4_3 3.092349 1_545
Mg3_1 Mg3_7 3.357764 1_445
Mg3_1 Mg3_7 3.357764 1_555
Mg3_2 Mg4_0 3.092349 1_555
Mg3_2 Mg4_6 3.092349 1_555
Mg3_2 Mg3_4 3.357764 1_455
Mg3_2 Mg3_4 3.357764 1_565
Mg3_3 Mg4_1 3.092349 1_555
Mg3_3 Mg4_7 3.092349 1_555
Mg3_3 Mg3_5 3.357764 1_455
Mg3_3 Mg3_5 3.357764 1_565
Mg3_4 Mg4_0 3.092349 1_655
Mg3_4 Mg4_6 3.092349 1_545
Mg3_5 Mg4_1 3.092349 1_655
Mg3_5 Mg4_7 3.092349 1_545
Mg3_6 Mg4_2 3.092349 1_655
Mg3_6 Mg4_4 3.092349 1_555
Mg3_7 Mg4_3 3.092349 1_655
Mg3_7 Mg4_5 3.092349 1_555
Bi0_0 Mg2_0 3.222279 1_555
Bi0_0 Mg2_1 3.222279 1_555
Bi0_0 Mg1_5 3.237942 1_555
Bi0_0 Mg1_4 3.237942 1_555
Bi0_0 Mg1_2 3.237942 1_545
Bi0_0 Mg1_3 3.237942 1_545
Bi0_0 Mg4_4 3.238384 1_555
Bi0_0 Mg4_2 3.238384 1_545
Bi0_0 Mg3_2 3.302106 1_545
Bi0_0 Mg3_4 3.302106 1_555
Bi0_1 Mg2_0 3.222279 1_556
Bi0_1 Mg2_1 3.222279 1_555
Bi0_1 Mg1_4 3.237942 1_556
Bi0_1 Mg1_5 3.237942 1_555
Bi0_1 Mg1_2 3.237942 1_546
Bi0_1 Mg1_3 3.237942 1_545
Bi0_1 Mg4_3 3.238384 1_545
Bi0_1 Mg4_5 3.238384 1_555
Bi0_1 Mg3_3 3.302106 1_545
Bi0_1 Mg3_5 3.302106 1_555
Bi0_2 Mg2_3 3.222279 1_555
Bi0_2 Mg2_2 3.222279 1_555
Bi0_2 Mg1_0 3.237942 1_555
Bi0_2 Mg1_1 3.237942 1_555
Bi0_2 Mg1_6 3.237942 1_555
Bi0_2 Mg1_7 3.237942 1_555
Bi0_2 Mg4_0 3.238384 1_555
Bi0_2 Mg4_6 3.238384 1_555
Bi0_2 Mg3_0 3.302106 1_555
Bi0_2 Mg3_6 3.302106 1_555
Bi0_3 Mg2_3 3.222279 1_555
Bi0_3 Mg2_2 3.222279 1_556
Bi0_3 Mg1_0 3.237942 1_556
Bi0_3 Mg1_1 3.237942 1_555
Bi0_3 Mg1_6 3.237942 1_556
Bi0_3 Mg1_7 3.237942 1_555
Bi0_3 Mg4_1 3.238384 1_555
Bi0_3 Mg4_7 3.238384 1_555
Bi0_3 Mg3_1 3.302106 1_555
Bi0_3 Mg3_7 3.302106 1_555
Bi0_4 Mg2_4 3.222279 1_555
Bi0_4 Mg2_5 3.222279 1_555
Bi0_4 Mg1_0 3.237942 1_655
Bi0_4 Mg1_1 3.237942 1_655
Bi0_4 Mg1_6 3.237942 1_545
Bi0_4 Mg1_7 3.237942 1_545
Bi0_4 Mg4_6 3.238384 1_545
Bi0_4 Mg4_0 3.238384 1_655
Bi0_4 Mg3_0 3.302106 1_655
Bi0_4 Mg3_6 3.302106 1_545
Bi0_5 Mg2_4 3.222279 1_556
Bi0_5 Mg2_5 3.222279 1_555
Bi0_5 Mg1_0 3.237942 1_656
Bi0_5 Mg1_1 3.237942 1_655
Bi0_5 Mg1_6 3.237942 1_546
Bi0_5 Mg1_7 3.237942 1_545
Bi0_5 Mg4_7 3.238384 1_545
Bi0_5 Mg4_1 3.238384 1_655
Bi0_5 Mg3_1 3.302106 1_655
Bi0_5 Mg3_7 3.302106 1_545
Bi0_6 Mg2_7 3.222279 1_555
Bi0_6 Mg2_6 3.222279 1_555
Bi0_6 Mg1_3 3.237942 1_655
Bi0_6 Mg1_2 3.237942 1_655
Bi0_6 Mg1_5 3.237942 1_555
Bi0_6 Mg1_4 3.237942 1_555
Bi0_6 Mg4_2 3.238384 1_655
Bi0_6 Mg4_4 3.238384 1_555
Bi0_6 Mg3_4 3.302106 1_555
Bi0_6 Mg3_2 3.302106 1_655
Bi0_7 Mg2_7 3.222279 1_555
Bi0_7 Mg2_6 3.222279 1_556
Bi0_7 Mg1_2 3.237942 1_656
Bi0_7 Mg1_3 3.237942 1_655
Bi0_7 Mg1_5 3.237942 1_555
Bi0_7 Mg1_4 3.237942 1_556
Bi0_7 Mg4_3 3.238384 1_655
Bi0_7 Mg4_5 3.238384 1_555
Bi0_7 Mg3_3 3.302106 1_655
Bi0_7 Mg3_5 3.302106 1_555
