# generated using pymatgen
data_Mg4Si3
_symmetry_space_group_name_H-M   'P 1'
_cell_length_a   6.55774327
_cell_length_b   7.18451785
_cell_length_c   8.25076350
_cell_angle_alpha   79.14306819
_cell_angle_beta   56.80294744
_cell_angle_gamma   108.96336090
_symmetry_Int_Tables_number   1
_chemical_formula_structural   Mg4Si3
_chemical_formula_sum   'Mg8 Si6'
_cell_volume   272.69654954
_cell_formula_units_Z   2
loop_
 _symmetry_equiv_pos_site_id
 _symmetry_equiv_pos_as_xyz
  1  'x, y, z'
loop_
 _atom_site_type_symbol
 _atom_site_label
 _atom_site_symmetry_multiplicity
 _atom_site_fract_x
 _atom_site_fract_y
 _atom_site_fract_z
 _atom_site_occupancy
  Mg  Mg0  1  0.86622007  0.76426316  0.68214875  1
  Mg  Mg1  1  0.40244895  0.94299459  0.16600827  1
  Mg  Mg2  1  0.78399328  0.50210330  0.41678772  1
  Mg  Mg3  1  0.31627310  0.63862673  0.53663719  1
  Mg  Mg4  1  0.80850647  0.41582499  0.04294685  1
  Mg  Mg5  1  0.37654956  0.89284952  0.80902771  1
  Mg  Mg6  1  0.93243398  0.06539475  0.24674820  1
  Mg  Mg7  1  0.09264042  0.15556304  0.79689059  1
  Si  Si0  1  0.75794233  0.30249778  0.75510841  1
  Si  Si1  1  0.34194402  0.48283231  0.85390547  1
  Si  Si2  1  0.74706582  0.74640044  0.12082793  1
  Si  Si3  1  0.06812415  0.20834170  0.47647967  1
  Si  Si4  1  0.33223242  0.54566654  0.14228109  1
  Si  Si5  1  0.42344745  0.08652216  0.45428316  1
loop_
_geom_bond_atom_site_label_1
_geom_bond_atom_site_label_2
_geom_bond_distance
_geom_bond_site_symmetry_2
Mg0 Si1 2.642755 1_555
Mg0 Si3 2.750725 1_665
Mg0 Si5 2.754377 1_665
Mg0 Si4 2.960348 1_556
Mg0 Si0 3.020161 1_555
Mg0 Si2 3.223391 1_556
Mg1 Si0 2.780802 1_564
Mg1 Si4 2.802516 1_555
Mg1 Si5 2.815991 1_565
Mg1 Si2 2.931129 1_555
Mg2 Si0 2.772768 1_555
Mg2 Si4 2.870230 1_655
Mg2 Si2 2.900219 1_555
Mg2 Si5 2.977180 1_555
Mg2 Si1 3.087439 1_555
Mg3 Si2 2.704602 1_555
Mg3 Si1 2.763116 1_555
Mg3 Si0 2.805929 1_455
Mg3 Si5 2.914463 1_565
Mg4 Si2 2.670081 1_555
Mg4 Si5 2.683260 1_555
Mg4 Si1 2.747624 1_654
Mg4 Si0 2.797901 1_554
Mg4 Si4 3.267317 1_555
Mg5 Si5 2.792753 1_565
Mg5 Si1 2.815814 1_555
Mg5 Si0 2.935903 1_565
Mg5 Si2 3.048628 1_456
Mg5 Si4 3.152243 1_556
Mg6 Si3 2.724996 1_655
Mg6 Si5 2.874826 1_555
Mg6 Si2 2.877290 1_545
Mg6 Si1 2.878193 1_654
Mg6 Si4 3.169892 1_655
Mg7 Si2 2.645476 1_446
Mg7 Si1 2.680125 1_555
Mg7 Si3 2.699230 1_555
Mg7 Si5 2.730432 1_555
Mg7 Si0 2.871939 1_455
Si0 Si3 2.497922 1_655
Si1 Si4 2.475155 1_556
Si2 Si4 2.517607 1_555
Si3 Si4 2.449757 1_555
Si3 Si5 2.673484 1_555
