# generated using pymatgen
data_Rb2NdBr5
_symmetry_space_group_name_H-M   'P 1'
_cell_length_a   8.65248665
_cell_length_b   9.35047739
_cell_length_c   13.81462711
_cell_angle_alpha   90.00000000
_cell_angle_beta   90.00000000
_cell_angle_gamma   90.00000000
_symmetry_Int_Tables_number   1
_chemical_formula_structural   Rb2NdBr5
_chemical_formula_sum   'Rb8 Nd4 Br20'
_cell_volume   1117.67075947
_cell_formula_units_Z   4
loop_
 _symmetry_equiv_pos_site_id
 _symmetry_equiv_pos_as_xyz
  1  'x, y, z'
loop_
 _atom_site_type_symbol
 _atom_site_label
 _atom_site_symmetry_multiplicity
 _atom_site_fract_x
 _atom_site_fract_y
 _atom_site_fract_z
 _atom_site_occupancy
  Rb  Rb0  1  0.94081070  0.00455344  0.82843868  1
  Rb  Rb1  1  0.05918930  0.99544656  0.17156132  1
  Rb  Rb2  1  0.44081070  0.99544656  0.67156132  1
  Rb  Rb3  1  0.05918930  0.50455344  0.17156132  1
  Rb  Rb4  1  0.55918930  0.00455344  0.32843868  1
  Rb  Rb5  1  0.94081070  0.49544656  0.82843868  1
  Rb  Rb6  1  0.55918930  0.49544656  0.32843868  1
  Rb  Rb7  1  0.44081070  0.50455344  0.67156132  1
  Nd  Nd0  1  0.92481587  0.75000000  0.50564122  1
  Nd  Nd1  1  0.07518413  0.25000000  0.49435878  1
  Nd  Nd2  1  0.42481587  0.25000000  0.99435878  1
  Nd  Nd3  1  0.57518413  0.75000000  0.00564122  1
  Br  Br0  1  0.11993869  0.75000000  0.67867038  1
  Br  Br1  1  0.88006131  0.25000000  0.32132962  1
  Br  Br2  1  0.61993869  0.25000000  0.82132962  1
  Br  Br3  1  0.38006131  0.75000000  0.17867038  1
  Br  Br4  1  0.83373344  0.04422034  0.57247108  1
  Br  Br5  1  0.16626656  0.95577966  0.42752892  1
  Br  Br6  1  0.33373344  0.95577966  0.92752892  1
  Br  Br7  1  0.16626656  0.54422034  0.42752892  1
  Br  Br8  1  0.66626656  0.04422034  0.07247108  1
  Br  Br9  1  0.83373344  0.45577966  0.57247108  1
  Br  Br10  1  0.66626656  0.45577966  0.07247108  1
  Br  Br11  1  0.33373344  0.54422034  0.92752892  1
  Br  Br12  1  0.58290998  0.75000000  0.50984794  1
  Br  Br13  1  0.41709002  0.25000000  0.49015206  1
  Br  Br14  1  0.08290998  0.25000000  0.99015206  1
  Br  Br15  1  0.91709002  0.75000000  0.00984794  1
  Br  Br16  1  0.65483060  0.75000000  0.79924871  1
  Br  Br17  1  0.34516940  0.25000000  0.20075129  1
  Br  Br18  1  0.15483060  0.25000000  0.70075129  1
  Br  Br19  1  0.84516940  0.75000000  0.29924871  1
loop_
_geom_bond_atom_site_label_1
_geom_bond_atom_site_label_2
_geom_bond_distance
_geom_bond_site_symmetry_2
Br0 Nd0 2.926438 1_455
Br0 Rb5 3.514010 1_455
Br0 Rb0 3.514010 1_465
Br0 Rb7 3.603461 1_555
Br0 Rb2 3.603461 1_555
Br1 Nd1 2.926438 1_655
Br1 Rb3 3.514010 1_655
Br1 Rb1 3.514010 1_645
Br1 Rb6 3.603461 1_555
Br1 Rb4 3.603461 1_555
Br2 Nd2 2.926438 1_555
Br2 Rb7 3.514010 1_555
Br2 Rb2 3.514010 1_545
Br2 Rb5 3.603461 1_555
Br2 Rb0 3.603461 1_555
Br3 Nd3 2.926438 1_555
Br3 Rb6 3.514010 1_555
Br3 Rb4 3.514010 1_565
Br3 Rb3 3.603461 1_555
Br3 Rb1 3.603461 1_555
Br4 Nd0 3.006991 1_545
Br4 Nd1 3.038304 1_655
Br4 Rb0 3.674224 1_555
Br4 Rb2 3.693267 1_545
Br5 Nd1 3.006991 1_565
Br5 Nd0 3.038304 1_455
Br5 Rb1 3.674224 1_555
Br5 Rb4 3.693267 1_565
Br6 Nd2 3.006991 1_565
Br6 Nd3 3.038304 1_556
Br6 Rb2 3.674224 1_555
Br6 Rb0 3.693267 1_465
Br7 Nd1 3.006991 1_555
Br7 Nd0 3.038304 1_455
Br7 Rb3 3.674224 1_555
Br7 Rb6 3.693267 1_555
Br8 Nd3 3.006991 1_545
Br8 Nd2 3.038304 1_554
Br8 Rb4 3.674224 1_555
Br8 Rb1 3.693267 1_645
Br9 Nd0 3.006991 1_555
Br9 Nd1 3.038304 1_655
Br9 Rb5 3.674224 1_555
Br9 Rb7 3.693267 1_555
Br10 Nd3 3.006991 1_555
Br10 Nd2 3.038304 1_554
Br10 Rb6 3.674224 1_555
Br10 Rb3 3.693267 1_655
Br11 Nd2 3.006991 1_555
Br11 Nd3 3.038304 1_556
Br11 Rb7 3.674224 1_555
Br11 Rb5 3.693267 1_455
Br12 Nd0 2.958907 1_555
Br12 Rb7 3.430703 1_555
Br12 Rb2 3.430703 1_555
Br12 Rb6 3.462369 1_555
Br12 Rb4 3.462369 1_565
Br13 Nd1 2.958907 1_555
Br13 Rb6 3.430703 1_555
Br13 Rb4 3.430703 1_555
Br13 Rb7 3.462369 1_555
Br13 Rb2 3.462369 1_545
Br14 Nd2 2.958907 1_555
Br14 Rb5 3.430703 1_455
Br14 Rb0 3.430703 1_455
Br14 Rb1 3.462369 1_546
Br14 Rb3 3.462369 1_556
Br15 Nd3 2.958907 1_555
Br15 Rb3 3.430703 1_655
Br15 Rb1 3.430703 1_655
Br15 Rb0 3.462369 1_564
Br15 Rb5 3.462369 1_554
Br16 Nd3 2.933336 1_556
Br16 Rb7 3.436267 1_555
Br16 Rb2 3.436267 1_555
Br16 Rb0 3.456992 1_565
Br16 Rb5 3.456992 1_555
Br17 Nd2 2.933336 1_554
Br17 Rb4 3.436267 1_555
Br17 Rb6 3.436267 1_555
Br17 Rb3 3.456992 1_555
Br17 Rb1 3.456992 1_545
Br18 Nd1 2.933336 1_555
Br18 Rb0 3.436267 1_455
Br18 Rb5 3.436267 1_455
Br18 Rb2 3.456992 1_545
Br18 Rb7 3.456992 1_555
Br19 Nd0 2.933336 1_555
Br19 Rb1 3.436267 1_655
Br19 Rb3 3.436267 1_655
Br19 Rb6 3.456992 1_555
Br19 Rb4 3.456992 1_565
