# generated using pymatgen
data_Ce3Sn6Ru
_symmetry_space_group_name_H-M   'P 1'
_cell_length_a   8.60933574
_cell_length_b   8.60933574
_cell_length_c   13.31656300
_cell_angle_alpha   90.00000000
_cell_angle_beta   90.00000000
_cell_angle_gamma   147.92698796
_symmetry_Int_Tables_number   1
_chemical_formula_structural   Ce3Sn6Ru
_chemical_formula_sum   'Ce6 Sn12 Ru2'
_cell_volume   524.11374618
_cell_formula_units_Z   2
loop_
 _symmetry_equiv_pos_site_id
 _symmetry_equiv_pos_as_xyz
  1  'x, y, z'
loop_
 _atom_site_type_symbol
 _atom_site_label
 _atom_site_symmetry_multiplicity
 _atom_site_fract_x
 _atom_site_fract_y
 _atom_site_fract_z
 _atom_site_occupancy
  Ce  Ce0  1  0.60228800  0.39771200  0.25000000  1
  Ce  Ce1  1  0.39771200  0.60228800  0.75000000  1
  Ce  Ce2  1  0.39899400  0.60100600  0.40558400  1
  Ce  Ce3  1  0.60100600  0.39899400  0.59441600  1
  Ce  Ce4  1  0.39899400  0.60100600  0.09441600  1
  Ce  Ce5  1  0.60100600  0.39899400  0.90558400  1
  Sn  Sn0  1  0.92611800  0.07388200  0.92425500  1
  Sn  Sn1  1  0.07388200  0.92611800  0.07574500  1
  Sn  Sn2  1  0.92611800  0.07388200  0.57574500  1
  Sn  Sn3  1  0.07388200  0.92611800  0.42425500  1
  Sn  Sn4  1  0.96007800  0.03992200  0.25000000  1
  Sn  Sn5  1  0.03992200  0.96007800  0.75000000  1
  Sn  Sn6  1  0.74410700  0.25589400  0.43397400  1
  Sn  Sn7  1  0.25589400  0.74410600  0.56602600  1
  Sn  Sn8  1  0.74410700  0.25589400  0.06602600  1
  Sn  Sn9  1  0.25589400  0.74410600  0.93397400  1
  Sn  Sn10  1  0.23235900  0.76764100  0.25000000  1
  Sn  Sn11  1  0.76764100  0.23235900  0.75000000  1
  Ru  Ru0  1  0.80153900  0.19846100  0.25000000  1
  Ru  Ru1  1  0.19846100  0.80153900  0.75000000  1
loop_
_geom_bond_atom_site_label_1
_geom_bond_atom_site_label_2
_geom_bond_distance
_geom_bond_site_symmetry_2
Ce0 Sn10 3.207753 1_545
Ce0 Sn10 3.207753 1_655
Ce0 Ru0 3.297329 1_555
Ce0 Sn4 3.345868 1_455
Ce0 Sn4 3.345868 1_565
Ce0 Sn3 3.355895 1_545
Ce0 Sn3 3.355895 1_655
Ce0 Sn1 3.355895 1_545
Ce0 Sn1 3.355895 1_655
Ce0 Sn6 3.392633 1_555
Ce0 Sn8 3.392633 1_555
Ce1 Sn11 3.207753 1_455
Ce1 Sn11 3.207753 1_565
Ce1 Ru1 3.297329 1_555
Ce1 Sn5 3.345868 1_545
Ce1 Sn5 3.345868 1_655
Ce1 Sn0 3.355895 1_455
Ce1 Sn0 3.355895 1_565
Ce1 Sn2 3.355895 1_455
Ce1 Sn2 3.355895 1_565
Ce1 Sn7 3.392627 1_555
Ce1 Sn9 3.392627 1_555
Ce2 Sn7 3.189470 1_555
Ce2 Sn4 3.312221 1_455
Ce2 Sn4 3.312221 1_565
Ce2 Sn2 3.315493 1_455
Ce2 Sn2 3.315493 1_565
Ce2 Sn10 3.449171 1_555
Ce2 Sn6 3.516990 1_455
Ce2 Sn6 3.516993 1_565
Ce2 Ru0 3.542588 1_455
Ce2 Ru0 3.542588 1_565
Ce2 Sn3 3.754250 1_545
Ce2 Sn3 3.754250 1_655
Ce3 Sn6 3.189476 1_555
Ce3 Sn5 3.312221 1_545
Ce3 Sn5 3.312221 1_655
Ce3 Sn3 3.315493 1_545
Ce3 Sn3 3.315493 1_655
Ce3 Sn11 3.449171 1_555
Ce3 Sn7 3.516998 1_545
Ce3 Sn7 3.516998 1_655
Ce3 Ru1 3.542588 1_545
Ce3 Ru1 3.542588 1_655
Ce3 Sn2 3.754250 1_455
Ce3 Sn2 3.754250 1_565
Ce4 Sn9 3.189470 1_554
Ce4 Sn4 3.312221 1_455
Ce4 Sn4 3.312221 1_565
Ce4 Sn0 3.315493 1_454
Ce4 Sn0 3.315493 1_564
Ce4 Sn10 3.449171 1_555
Ce4 Sn8 3.516990 1_455
Ce4 Sn8 3.516993 1_565
Ce4 Ru0 3.542588 1_455
Ce4 Ru0 3.542588 1_565
Ce4 Sn1 3.754250 1_545
Ce4 Sn1 3.754250 1_655
Ce5 Sn8 3.189476 1_556
Ce5 Sn5 3.312221 1_545
Ce5 Sn5 3.312221 1_655
Ce5 Sn1 3.315493 1_546
Ce5 Sn1 3.315493 1_656
Ce5 Sn11 3.449171 1_555
Ce5 Sn9 3.516998 1_545
Ce5 Sn9 3.516998 1_655
Ce5 Ru1 3.542588 1_545
Ce5 Ru1 3.542588 1_655
Ce5 Sn0 3.754250 1_455
Ce5 Sn0 3.754250 1_565
Sn0 Sn5 2.988550 1_645
Sn0 Sn1 3.170024 1_646
Sn1 Sn4 2.988550 1_465
Sn2 Sn5 2.988550 1_645
Sn2 Sn3 3.170024 1_645
Sn3 Sn4 2.988550 1_465
Sn6 Sn7 2.964241 1_655
Sn6 Sn7 2.964245 1_545
Sn8 Sn9 2.964241 1_654
Sn8 Sn9 2.964245 1_544
Ru0 Sn4 2.623602 1_555
Ru0 Sn6 2.627800 1_555
Ru0 Sn8 2.627800 1_555
Ru0 Sn10 2.639523 1_655
Ru0 Sn10 2.639523 1_545
Ru1 Sn5 2.623602 1_555
Ru1 Sn7 2.627803 1_555
Ru1 Sn9 2.627803 1_555
Ru1 Sn11 2.639523 1_565
Ru1 Sn11 2.639523 1_455
