# generated using pymatgen
data_Sm2InAu2
_symmetry_space_group_name_H-M   'P 1'
_cell_length_a   8.02911356
_cell_length_b   8.02911356
_cell_length_c   3.80318969
_cell_angle_alpha   90.00000000
_cell_angle_beta   90.00000000
_cell_angle_gamma   90.00000000
_symmetry_Int_Tables_number   1
_chemical_formula_structural   Sm2InAu2
_chemical_formula_sum   'Sm4 In2 Au4'
_cell_volume   245.17895400
_cell_formula_units_Z   2
loop_
 _symmetry_equiv_pos_site_id
 _symmetry_equiv_pos_as_xyz
  1  'x, y, z'
loop_
 _atom_site_type_symbol
 _atom_site_label
 _atom_site_symmetry_multiplicity
 _atom_site_fract_x
 _atom_site_fract_y
 _atom_site_fract_z
 _atom_site_occupancy
  Sm  Sm0  1  0.67288624  0.17288624  0.50000000  1
  Sm  Sm1  1  0.32711376  0.82711376  0.50000000  1
  Sm  Sm2  1  0.17288624  0.32711376  0.50000000  1
  Sm  Sm3  1  0.82711376  0.67288624  0.50000000  1
  In  In0  1  0.00000000  0.00000000  -0.00000000  1
  In  In1  1  0.50000000  0.50000000  -0.00000000  1
  Au  Au0  1  0.12649133  0.62649133  -0.00000000  1
  Au  Au1  1  0.87350867  0.37350867  0.00000000  1
  Au  Au2  1  0.62649133  0.87350867  0.00000000  1
  Au  Au3  1  0.37350867  0.12649133  -0.00000000  1
loop_
_geom_bond_atom_site_label_1
_geom_bond_atom_site_label_2
_geom_bond_distance
_geom_bond_site_symmetry_2
In0 Sm3 3.527195 1_444
In0 Sm3 3.527195 1_445
In0 Sm0 3.527195 1_454
In0 Sm2 3.527195 1_555
In0 Sm2 3.527195 1_554
In0 Sm1 3.527195 1_544
In0 Sm0 3.527195 1_455
In0 Sm1 3.527195 1_545
In1 Sm3 3.527195 1_554
In1 Sm3 3.527195 1_555
In1 Sm0 3.527195 1_555
In1 Sm1 3.527195 1_554
In1 Sm2 3.527195 1_555
In1 Sm2 3.527195 1_554
In1 Sm0 3.527195 1_554
In1 Sm1 3.527195 1_555
Au0 Au1 2.872588 1_455
Au0 Sm1 2.967414 1_555
Au0 Sm1 2.967414 1_554
Au0 Sm3 3.087519 1_455
Au0 Sm2 3.087519 1_555
Au0 Sm2 3.087519 1_554
Au0 Sm3 3.087519 1_454
Au0 In1 3.166249 1_555
Au0 In0 3.166249 1_565
Au1 Sm0 2.967414 1_554
Au1 Sm0 2.967414 1_555
Au1 Sm2 3.087519 1_654
Au1 Sm2 3.087519 1_655
Au1 Sm3 3.087519 1_554
Au1 Sm3 3.087519 1_555
Au1 In0 3.166249 1_655
Au1 In1 3.166249 1_555
Au2 Au3 2.872588 1_565
Au2 Sm3 2.967414 1_554
Au2 Sm3 2.967414 1_555
Au2 Sm1 3.087519 1_554
Au2 Sm1 3.087519 1_555
Au2 Sm0 3.087519 1_565
Au2 Sm0 3.087519 1_564
Au2 In1 3.166249 1_555
Au2 In0 3.166249 1_665
Au3 Sm2 2.967414 1_555
Au3 Sm2 2.967414 1_554
Au3 Sm0 3.087519 1_554
Au3 Sm1 3.087519 1_544
Au3 Sm1 3.087519 1_545
Au3 Sm0 3.087519 1_555
Au3 In1 3.166249 1_555
Au3 In0 3.166249 1_555
