# generated using pymatgen
data_Sr6(CoO3)5
_symmetry_space_group_name_H-M   'P 1'
_cell_length_a   6.85040555
_cell_length_b   6.85040555
_cell_length_c   6.85040608
_cell_angle_alpha   87.92936864
_cell_angle_beta   87.92936864
_cell_angle_gamma   87.92936213
_symmetry_Int_Tables_number   1
_chemical_formula_structural   Sr6(CoO3)5
_chemical_formula_sum   'Sr6 Co5 O15'
_cell_volume   320.86129308
_cell_formula_units_Z   1
loop_
 _symmetry_equiv_pos_site_id
 _symmetry_equiv_pos_as_xyz
  1  'x, y, z'
loop_
 _atom_site_type_symbol
 _atom_site_label
 _atom_site_symmetry_multiplicity
 _atom_site_fract_x
 _atom_site_fract_y
 _atom_site_fract_z
 _atom_site_occupancy
  Sr  Sr0  1  0.50000000  0.86016031  0.13983969  1
  Sr  Sr1  1  0.13983969  0.50000000  0.86016031  1
  Sr  Sr2  1  0.86016031  0.13983969  0.50000000  1
  Sr  Sr3  1  0.00000000  0.67834776  0.32165224  1
  Sr  Sr4  1  0.32165224  -0.00000000  0.67834776  1
  Sr  Sr5  1  0.67834776  0.32165224  -0.00000000  1
  Co  Co0  1  0.70602648  0.70602648  0.70602648  1
  Co  Co1  1  0.29397352  0.29397352  0.29397352  1
  Co  Co2  1  0.90442481  0.90442481  0.90442481  1
  Co  Co3  1  0.09557519  0.09557519  0.09557519  1
  Co  Co4  1  0.50000000  0.50000000  0.50000000  1
  O  O0  1  0.36214794  0.55413499  0.26556474  1
  O  O1  1  0.26556474  0.36214794  0.55413499  1
  O  O2  1  0.55413499  0.26556474  0.36214794  1
  O  O3  1  0.63785206  0.73443526  0.44586501  1
  O  O4  1  0.44586501  0.63785206  0.73443526  1
  O  O5  1  0.73443526  0.44586501  0.63785206  1
  O  O6  1  0.20507961  0.02992692  0.34001584  1
  O  O7  1  0.34001584  0.20507961  0.02992692  1
  O  O8  1  0.02992692  0.34001584  0.20507961  1
  O  O9  1  0.79492039  0.65998416  0.97007308  1
  O  O10  1  0.97007308  0.79492039  0.65998416  1
  O  O11  1  0.15609848  0.84390152  -0.00000000  1
  O  O12  1  0.84390152  -0.00000000  0.15609848  1
  O  O13  1  0.00000000  0.15609848  0.84390152  1
  O  O14  1  0.65998416  0.97007308  0.79492039  1
loop_
_geom_bond_atom_site_label_1
_geom_bond_atom_site_label_2
_geom_bond_distance
_geom_bond_site_symmetry_2
Co0 O5 1.860316 1_555
Co0 O4 1.860316 1_555
Co0 O3 1.860317 1_555
Co0 O14 1.940788 1_555
Co0 O10 1.940788 1_555
Co0 O9 1.940788 1_555
Co1 O2 1.860316 1_555
Co1 O0 1.860316 1_555
Co1 O1 1.860317 1_555
Co1 O8 1.940788 1_555
Co1 O6 1.940788 1_555
Co1 O7 1.940788 1_555
Co2 O14 1.892341 1_555
Co2 O9 1.892341 1_555
Co2 O10 1.892341 1_555
Co2 O11 1.892954 1_656
Co2 O13 1.892954 1_665
Co2 O12 1.892954 1_566
Co3 O8 1.892341 1_555
Co3 O7 1.892341 1_555
Co3 O6 1.892341 1_555
Co3 O11 1.892954 1_545
Co3 O12 1.892954 1_455
Co3 O13 1.892954 1_554
Co4 O2 1.910424 1_555
Co4 O5 1.910424 1_555
Co4 O0 1.910424 1_555
Co4 O4 1.910424 1_555
Co4 O1 1.910424 1_555
Co4 O3 1.910424 1_555
O0 Sr0 2.445866 1_555
O0 Sr3 2.613147 1_555
O1 Sr1 2.445866 1_555
O1 Sr4 2.613147 1_555
O2 Sr2 2.445866 1_555
O2 Sr5 2.613147 1_555
O3 Sr0 2.445866 1_555
O3 Sr3 2.613147 1_655
O4 Sr1 2.445866 1_555
O4 Sr4 2.613147 1_565
O5 Sr2 2.445866 1_555
O5 Sr5 2.613147 1_556
O6 Sr4 2.477723 1_555
O6 Sr0 2.657046 1_545
O6 Sr2 2.663642 1_455
O6 Sr3 2.840662 1_545
O7 Sr5 2.477722 1_555
O7 Sr1 2.657046 1_554
O7 Sr0 2.663642 1_545
O7 Sr4 2.840662 1_554
O8 Sr3 2.477722 1_555
O8 Sr2 2.657046 1_455
O8 Sr1 2.663642 1_554
O8 Sr5 2.840662 1_455
O9 Sr5 2.477722 1_556
O9 Sr0 2.657046 1_556
O9 Sr1 2.663642 1_655
O9 Sr3 2.840662 1_656
O10 Sr3 2.477723 1_655
O10 Sr1 2.657046 1_655
O10 Sr2 2.663642 1_565
O10 Sr4 2.840662 1_665
O11 Sr0 2.582624 1_555
O11 Sr1 2.582624 1_554
O11 Sr4 2.649842 1_564
O11 Sr3 2.649842 1_555
O12 Sr0 2.582624 1_545
O12 Sr2 2.582624 1_555
O12 Sr5 2.649842 1_555
O12 Sr3 2.649842 1_645
O13 Sr1 2.582624 1_555
O13 Sr2 2.582624 1_455
O13 Sr5 2.649842 1_456
O13 Sr4 2.649842 1_555
O14 Sr4 2.477722 1_565
O14 Sr2 2.657046 1_565
O14 Sr0 2.663642 1_556
O14 Sr5 2.840662 1_566
