# generated using pymatgen
data_BaNaEuWO6
_symmetry_space_group_name_H-M   'P 1'
_cell_length_a   8.47710104
_cell_length_b   8.42809095
_cell_length_c   8.46339245
_cell_angle_alpha   90.00000000
_cell_angle_beta   90.00000000
_cell_angle_gamma   90.00000000
_symmetry_Int_Tables_number   1
_chemical_formula_structural   BaNaEuWO6
_chemical_formula_sum   'Ba4 Na4 Eu4 W4 O24'
_cell_volume   604.67366283
_cell_formula_units_Z   4
loop_
 _symmetry_equiv_pos_site_id
 _symmetry_equiv_pos_as_xyz
  1  'x, y, z'
loop_
 _atom_site_type_symbol
 _atom_site_label
 _atom_site_symmetry_multiplicity
 _atom_site_fract_x
 _atom_site_fract_y
 _atom_site_fract_z
 _atom_site_occupancy
  Ba  Ba0  1  0.00000000  -0.00000000  -0.00000000  1
  Ba  Ba1  1  0.50000000  0.50000000  0.50000000  1
  Ba  Ba2  1  0.50000000  0.50000000  -0.00000000  1
  Ba  Ba3  1  0.00000000  -0.00000000  0.50000000  1
  Na  Na0  1  0.00000000  0.50000000  0.50000000  1
  Na  Na1  1  0.50000000  -0.00000000  0.50000000  1
  Na  Na2  1  0.50000000  -0.00000000  0.00000000  1
  Na  Na3  1  0.00000000  0.50000000  -0.00000000  1
  Eu  Eu0  1  0.75000000  0.75000000  0.75000000  1
  Eu  Eu1  1  0.25000000  0.25000000  0.75000000  1
  Eu  Eu2  1  0.25000000  0.75000000  0.25000000  1
  Eu  Eu3  1  0.75000000  0.25000000  0.25000000  1
  W  W0  1  0.25000000  0.25000000  0.25000000  1
  W  W1  1  0.75000000  0.75000000  0.25000000  1
  W  W2  1  0.75000000  0.25000000  0.75000000  1
  W  W3  1  0.25000000  0.75000000  0.75000000  1
  O  O0  1  0.02153595  0.21989165  0.26649553  1
  O  O1  1  0.97846405  0.78010835  0.26649553  1
  O  O2  1  0.97846405  0.21989165  0.73350447  1
  O  O3  1  0.02153595  0.78010835  0.73350447  1
  O  O4  1  0.26901774  0.02240512  0.20818982  1
  O  O5  1  0.26901774  0.97759488  0.79181018  1
  O  O6  1  0.73098226  0.97759488  0.20818982  1
  O  O7  1  0.73098226  0.02240512  0.79181018  1
  O  O8  1  0.22600472  0.28907615  0.02256016  1
  O  O9  1  0.77399528  0.28907615  0.97743984  1
  O  O10  1  0.22600472  0.71092385  0.97743984  1
  O  O11  1  0.77399528  0.71092385  0.02256016  1
  O  O12  1  0.47846405  0.28010835  0.23350447  1
  O  O13  1  0.52153595  0.71989165  0.23350447  1
  O  O14  1  0.52153595  0.28010835  0.76649553  1
  O  O15  1  0.47846405  0.71989165  0.76649553  1
  O  O16  1  0.23098226  0.47759488  0.29181018  1
  O  O17  1  0.23098226  0.52240512  0.70818982  1
  O  O18  1  0.76901774  0.52240512  0.29181018  1
  O  O19  1  0.76901774  0.47759488  0.70818982  1
  O  O20  1  0.27399528  0.21092385  0.47743984  1
  O  O21  1  0.72600472  0.21092385  0.52256016  1
  O  O22  1  0.27399528  0.78907615  0.52256016  1
  O  O23  1  0.72600472  0.78907615  0.47743984  1
loop_
_geom_bond_atom_site_label_1
_geom_bond_atom_site_label_2
_geom_bond_distance
_geom_bond_site_symmetry_2
Ba0 O5 2.888064 1_544
Ba0 O7 2.888064 1_454
Ba0 O6 2.888064 1_445
Ba0 O4 2.888064 1_555
Ba0 O1 2.924895 1_445
Ba0 O0 2.924895 1_555
Ba0 O2 2.924895 1_454
Ba0 O3 2.924895 1_544
Ba0 O10 3.105293 1_544
Ba0 O8 3.105293 1_555
Ba0 O9 3.105293 1_454
Ba0 O11 3.105293 1_445
Ba1 O19 2.888064 1_555
Ba1 O17 2.888064 1_555
Ba1 O18 2.888064 1_555
Ba1 O16 2.888064 1_555
Ba1 O15 2.924895 1_555
Ba1 O14 2.924895 1_555
Ba1 O13 2.924895 1_555
Ba1 O12 2.924895 1_555
Ba1 O22 3.105293 1_555
Ba1 O20 3.105293 1_555
Ba1 O23 3.105293 1_555
Ba1 O21 3.105293 1_555
Ba2 O15 2.715410 1_554
Ba2 O14 2.715410 1_554
Ba2 O12 2.715410 1_555
Ba2 O13 2.715410 1_555
Ba2 O11 2.931124 1_555
Ba2 O9 2.931124 1_554
Ba2 O10 2.931124 1_554
Ba2 O8 2.931124 1_555
Ba3 O2 2.715410 1_455
Ba3 O3 2.715410 1_545
Ba3 O1 2.715410 1_445
Ba3 O0 2.715410 1_555
Ba3 O23 2.931124 1_445
Ba3 O21 2.931124 1_455
Ba3 O20 2.931124 1_555
Ba3 O22 2.931124 1_545
Na0 O19 2.640885 1_455
Na0 O17 2.640885 1_555
Na0 O16 2.640885 1_555
Na0 O18 2.640885 1_455
Na1 O20 2.620527 1_555
Na1 O21 2.620527 1_555
Na1 O22 2.620527 1_545
Na1 O23 2.620527 1_545
Na2 O7 2.640885 1_554
Na2 O5 2.640885 1_544
Na2 O6 2.640885 1_545
Na2 O4 2.640885 1_555
Na3 O8 2.620527 1_555
Na3 O10 2.620527 1_554
Na3 O11 2.620527 1_455
Na3 O9 2.620527 1_454
Eu0 O15 2.319987 1_555
Eu0 O3 2.319987 1_655
Eu0 O7 2.328552 1_565
Eu0 O19 2.328552 1_555
Eu0 O23 2.339036 1_555
Eu0 O11 2.339036 1_556
Eu1 O14 2.319987 1_555
Eu1 O2 2.319987 1_455
Eu1 O17 2.328552 1_555
Eu1 O5 2.328552 1_545
Eu1 O20 2.339036 1_555
Eu1 O8 2.339036 1_556
Eu2 O1 2.319987 1_455
Eu2 O13 2.319987 1_555
Eu2 O4 2.328552 1_565
Eu2 O16 2.328552 1_555
Eu2 O22 2.339036 1_555
Eu2 O10 2.339036 1_554
Eu3 O12 2.319987 1_555
Eu3 O0 2.319987 1_655
Eu3 O6 2.328552 1_545
Eu3 O18 2.328552 1_555
Eu3 O21 2.339036 1_555
Eu3 O9 2.339036 1_554
O0 W0 1.958249 1_555
O1 W1 1.958249 1_555
O2 W2 1.958249 1_555
O3 W3 1.958249 1_555
O4 W0 1.957207 1_555
O5 W3 1.957207 1_555
O6 W1 1.957207 1_555
O7 W2 1.957207 1_555
O8 W0 1.963448 1_555
O9 W2 1.963448 1_555
O10 W3 1.963448 1_555
O11 W1 1.963448 1_555
O12 W0 1.958249 1_555
O13 W1 1.958249 1_555
O14 W2 1.958249 1_555
O15 W3 1.958249 1_555
O16 W0 1.957207 1_555
O17 W3 1.957207 1_555
O18 W1 1.957207 1_555
O19 W2 1.957207 1_555
O20 W0 1.963448 1_555
O21 W2 1.963448 1_555
O22 W3 1.963448 1_555
O23 W1 1.963448 1_555
