# generated using pymatgen
data_H3Se2NO6
_symmetry_space_group_name_H-M   'P 1'
_cell_length_a   6.29353700
_cell_length_b   6.60227100
_cell_length_c   18.79274200
_cell_angle_alpha   90.00000000
_cell_angle_beta   90.00000000
_cell_angle_gamma   90.00000000
_symmetry_Int_Tables_number   1
_chemical_formula_structural   H3Se2NO6
_chemical_formula_sum   'H12 Se8 N4 O24'
_cell_volume   780.86919048
_cell_formula_units_Z   4
loop_
 _symmetry_equiv_pos_site_id
 _symmetry_equiv_pos_as_xyz
  1  'x, y, z'
loop_
 _atom_site_type_symbol
 _atom_site_label
 _atom_site_symmetry_multiplicity
 _atom_site_fract_x
 _atom_site_fract_y
 _atom_site_fract_z
 _atom_site_occupancy
  H  H0  1  0.49094500  0.25015600  0.21619800  1
  H  H1  1  0.50905500  0.75015600  0.28380200  1
  H  H2  1  0.00905500  0.74984400  0.71619800  1
  H  H3  1  0.99094500  0.24984400  0.78380200  1
  H  H4  1  0.73431200  0.19332100  0.49912000  1
  H  H5  1  0.26568800  0.69332100  0.00088000  1
  H  H6  1  0.76568800  0.80667900  0.99912000  1
  H  H7  1  0.23431200  0.30667900  0.50088000  1
  H  H8  1  0.83805700  0.01249800  0.35849900  1
  H  H9  1  0.16194300  0.51249800  0.14150100  1
  H  H10  1  0.66194300  0.98750200  0.85849900  1
  H  H11  1  0.33805700  0.48750200  0.64150100  1
  Se  Se0  1  0.97017300  0.44989900  0.65212400  1
  Se  Se1  1  0.02982700  0.94989900  0.84787600  1
  Se  Se2  1  0.52982700  0.55010100  0.15212400  1
  Se  Se3  1  0.47017300  0.05010100  0.34787600  1
  Se  Se4  1  0.98883100  0.45115600  0.99326300  1
  Se  Se5  1  0.01116900  0.95115600  0.50673700  1
  Se  Se6  1  0.51116900  0.54884400  0.49326300  1
  Se  Se7  1  0.48883100  0.04884400  0.00673700  1
  N  N0  1  0.49174500  0.97608500  0.67136900  1
  N  N1  1  0.50825500  0.47608500  0.82863100  1
  N  N2  1  0.00825500  0.02391500  0.17136900  1
  N  N3  1  0.99174500  0.52391500  0.32863100  1
  O  O0  1  0.24111700  0.42504600  0.67797800  1
  O  O1  1  0.75888400  0.92504600  0.82202200  1
  O  O2  1  0.25888300  0.57495400  0.17797800  1
  O  O3  1  0.74111600  0.07495400  0.32202200  1
  O  O4  1  0.93210800  0.71041600  0.66967200  1
  O  O5  1  0.06789200  0.21041600  0.83032800  1
  O  O6  1  0.56789200  0.28958400  0.16967200  1
  O  O7  1  0.43210800  0.78958400  0.33032800  1
  O  O8  1  0.24490800  0.54968000  0.97648600  1
  O  O9  1  0.75509200  0.04968000  0.52351400  1
  O  O10  1  0.25509200  0.45032000  0.47648600  1
  O  O11  1  0.74490800  0.95032000  0.02351400  1
  O  O12  1  0.81294200  0.62342900  0.96145000  1
  O  O13  1  0.18705800  0.12342900  0.53855000  1
  O  O14  1  0.68705800  0.37657100  0.46145000  1
  O  O15  1  0.31294200  0.87657100  0.03855000  1
  O  O16  1  0.96650900  0.44141200  0.08239300  1
  O  O17  1  0.03349100  0.94141200  0.41760700  1
  O  O18  1  0.53349100  0.55858800  0.58239300  1
  O  O19  1  0.46650900  0.05858800  0.91760700  1
  O  O20  1  0.86009200  0.31563800  0.71720900  1
  O  O21  1  0.13990800  0.81563800  0.78279100  1
  O  O22  1  0.63990800  0.68436200  0.21720900  1
  O  O23  1  0.36009200  0.18436200  0.28279100  1
loop_
_geom_bond_atom_site_label_1
_geom_bond_atom_site_label_2
_geom_bond_distance
_geom_bond_site_symmetry_2
H0 O6 1.032845 1_555
H0 O23 1.559826 1_555
H1 O7 1.032845 1_555
H1 O22 1.559826 1_555
H2 O4 1.032845 1_455
H2 O21 1.559826 1_555
H3 O5 1.032845 1_655
H3 O20 1.559826 1_555
H4 O9 1.061434 1_555
H4 O14 1.432960 1_555
H5 O8 1.061434 1_554
H5 O15 1.432960 1_555
H6 O11 1.061434 1_556
H6 O12 1.432960 1_555
H7 O10 1.061434 1_555
H7 O13 1.432960 1_555
H8 O3 1.006068 1_555
H8 O17 1.722492 1_645
H9 O2 1.006064 1_555
H9 O16 1.722492 1_455
H10 O1 1.006068 1_555
H10 O19 1.722492 1_565
H11 O0 1.006064 1_555
H11 O18 1.722492 1_555
O0 Se0 1.780642 1_455
O1 Se1 1.780636 1_655
O2 Se2 1.780642 1_555
O3 Se3 1.780636 1_555
O4 Se0 1.767641 1_555
O5 Se1 1.767641 1_545
O6 Se2 1.767641 1_555
O7 Se3 1.767641 1_565
O8 Se4 1.766319 1_455
O9 Se5 1.766319 1_645
O10 Se6 1.766319 1_555
O11 Se7 1.766319 1_565
O12 Se4 1.696013 1_555
O13 Se5 1.696013 1_545
O14 Se6 1.696013 1_555
O15 Se7 1.696013 1_565
O16 Se4 1.682109 1_554
O17 Se5 1.682109 1_555
O18 Se6 1.682109 1_555
O19 Se7 1.682109 1_556
O20 Se0 1.661854 1_555
O21 Se1 1.661854 1_555
O22 Se2 1.661854 1_555
O23 Se3 1.661854 1_555
