# generated using pymatgen
data_Zr7Pt10
_symmetry_space_group_name_H-M   'P 1'
_cell_length_a   8.18835365
_cell_length_b   8.18835365
_cell_length_c   9.64726683
_cell_angle_alpha   90.00000000
_cell_angle_beta   90.00000000
_cell_angle_gamma   107.71719116
_symmetry_Int_Tables_number   1
_chemical_formula_structural   Zr7Pt10
_chemical_formula_sum   'Zr14 Pt20'
_cell_volume   616.16137648
_cell_formula_units_Z   2
loop_
 _symmetry_equiv_pos_site_id
 _symmetry_equiv_pos_as_xyz
  1  'x, y, z'
loop_
 _atom_site_type_symbol
 _atom_site_label
 _atom_site_symmetry_multiplicity
 _atom_site_fract_x
 _atom_site_fract_y
 _atom_site_fract_z
 _atom_site_occupancy
  Zr  Zr0  1  0.31042412  0.68957588  -0.00000000  1
  Zr  Zr1  1  0.68957588  0.31042412  -0.00000000  1
  Zr  Zr2  1  0.18957588  0.81042412  0.50000000  1
  Zr  Zr3  1  0.81042412  0.18957588  0.50000000  1
  Zr  Zr4  1  0.00000000  0.00000000  -0.00000000  1
  Zr  Zr5  1  0.50000000  0.50000000  0.50000000  1
  Zr  Zr6  1  0.50098857  0.00098857  0.25000000  1
  Zr  Zr7  1  0.49901143  0.99901143  0.75000000  1
  Zr  Zr8  1  0.99901143  0.49901143  0.75000000  1
  Zr  Zr9  1  0.00098857  0.50098857  0.25000000  1
  Zr  Zr10  1  0.31842921  0.31842921  0.18195486  1
  Zr  Zr11  1  0.68157079  0.68157079  0.81804514  1
  Zr  Zr12  1  0.18157079  0.18157079  0.68195486  1
  Zr  Zr13  1  0.81842921  0.81842921  0.31804514  1
  Pt  Pt0  1  0.14415565  0.85218376  0.20846724  1
  Pt  Pt1  1  0.85584435  0.14781624  0.79153276  1
  Pt  Pt2  1  0.35584435  0.64781624  0.70846724  1
  Pt  Pt3  1  0.35218376  0.64415565  0.29153276  1
  Pt  Pt4  1  0.64415565  0.35218376  0.29153276  1
  Pt  Pt5  1  0.64781624  0.35584435  0.70846724  1
  Pt  Pt6  1  0.14781624  0.85584435  0.79153276  1
  Pt  Pt7  1  0.85218376  0.14415565  0.20846724  1
  Pt  Pt8  1  0.64453194  0.93664075  0.99883088  1
  Pt  Pt9  1  0.35546806  0.06335925  0.00116912  1
  Pt  Pt10  1  0.85546806  0.56335925  0.49883088  1
  Pt  Pt11  1  0.43664075  0.14453194  0.50116912  1
  Pt  Pt12  1  0.14453194  0.43664075  0.50116912  1
  Pt  Pt13  1  0.56335925  0.85546806  0.49883088  1
  Pt  Pt14  1  0.06335925  0.35546806  0.00116912  1
  Pt  Pt15  1  0.93664075  0.64453194  0.99883088  1
  Pt  Pt16  1  0.10773026  0.10773026  0.39225499  1
  Pt  Pt17  1  0.89226974  0.89226974  0.60774501  1
  Pt  Pt18  1  0.39226974  0.39226974  0.89225499  1
  Pt  Pt19  1  0.60773026  0.60773026  0.10774501  1
loop_
_geom_bond_atom_site_label_1
_geom_bond_atom_site_label_2
_geom_bond_distance
_geom_bond_site_symmetry_2
Pt0 Zr9 2.784368 1_555
Pt0 Zr4 2.787937 1_565
Pt0 Zr13 2.803389 1_455
Pt0 Zr6 2.831197 1_565
Pt0 Zr2 2.871023 1_555
Pt0 Zr0 2.962172 1_555
Pt1 Zr8 2.784368 1_555
Pt1 Zr4 2.787937 1_656
Pt1 Zr12 2.803389 1_655
Pt1 Zr7 2.831197 1_545
Pt1 Zr3 2.871023 1_555
Pt1 Zr1 2.962172 1_556
Pt2 Zr7 2.784368 1_555
Pt2 Zr5 2.787937 1_555
Pt2 Zr11 2.803389 1_555
Pt2 Zr8 2.831197 1_455
Pt2 Zr0 2.871023 1_556
Pt2 Zr2 2.962172 1_555
Pt3 Zr9 2.784368 1_555
Pt3 Zr5 2.787937 1_555
Pt3 Zr10 2.803389 1_555
Pt3 Zr6 2.831197 1_565
Pt3 Zr0 2.871023 1_555
Pt3 Zr2 2.962172 1_555
Pt4 Zr6 2.784368 1_555
Pt4 Zr5 2.787937 1_555
Pt4 Zr10 2.803389 1_555
Pt4 Zr9 2.831197 1_655
Pt4 Zr1 2.871023 1_555
Pt4 Zr3 2.962172 1_555
Pt5 Zr8 2.784368 1_555
Pt5 Zr5 2.787937 1_555
Pt5 Zr11 2.803389 1_555
Pt5 Zr7 2.831197 1_545
Pt5 Zr1 2.871023 1_556
Pt5 Zr3 2.962172 1_555
Pt6 Zr7 2.784368 1_555
Pt6 Zr4 2.787937 1_566
Pt6 Zr12 2.803389 1_565
Pt6 Zr8 2.831197 1_455
Pt6 Zr2 2.871023 1_555
Pt6 Zr0 2.962172 1_556
Pt7 Zr6 2.784368 1_555
Pt7 Zr4 2.787937 1_655
Pt7 Zr13 2.803389 1_545
Pt7 Zr9 2.831197 1_655
Pt7 Zr3 2.871023 1_555
Pt7 Zr1 2.962172 1_555
Pt8 Zr7 2.795290 1_555
Pt8 Zr4 2.796847 1_666
Pt8 Zr11 2.807424 1_555
Pt8 Zr6 2.812025 1_566
Pt8 Zr0 2.865107 1_556
Pt8 Zr1 2.969308 1_566
Pt9 Zr6 2.795290 1_555
Pt9 Zr4 2.796847 1_555
Pt9 Zr10 2.807424 1_555
Pt9 Zr7 2.812025 1_544
Pt9 Zr1 2.865107 1_555
Pt9 Zr0 2.969308 1_545
Pt10 Zr9 2.795290 1_655
Pt10 Zr5 2.796847 1_555
Pt10 Zr13 2.807424 1_555
Pt10 Zr8 2.812025 1_555
Pt10 Zr2 2.865107 1_655
Pt10 Zr3 2.969308 1_555
Pt11 Zr7 2.795290 1_545
Pt11 Zr5 2.796847 1_555
Pt11 Zr12 2.807424 1_555
Pt11 Zr6 2.812025 1_555
Pt11 Zr2 2.865107 1_545
Pt11 Zr3 2.969308 1_555
Pt12 Zr8 2.795290 1_455
Pt12 Zr5 2.796847 1_555
Pt12 Zr12 2.807424 1_555
Pt12 Zr9 2.812025 1_555
Pt12 Zr3 2.865107 1_455
Pt12 Zr2 2.969308 1_555
Pt13 Zr6 2.795290 1_565
Pt13 Zr5 2.796847 1_555
Pt13 Zr13 2.807424 1_555
Pt13 Zr7 2.812025 1_555
Pt13 Zr3 2.865107 1_565
Pt13 Zr2 2.969308 1_555
Pt14 Zr9 2.795290 1_555
Pt14 Zr4 2.796847 1_555
Pt14 Zr10 2.807424 1_555
Pt14 Zr8 2.812025 1_454
Pt14 Zr0 2.865107 1_555
Pt14 Zr1 2.969308 1_455
Pt15 Zr8 2.795290 1_555
Pt15 Zr4 2.796847 1_666
Pt15 Zr11 2.807424 1_555
Pt15 Zr9 2.812025 1_656
Pt15 Zr1 2.865107 1_556
Pt15 Zr0 2.969308 1_656
Pt16 Zr10 2.873608 1_555
Pt16 Zr12 2.884377 1_555
Pt16 Zr13 2.884516 1_445
Pt16 Zr3 2.906739 1_455
Pt16 Zr2 2.906739 1_545
Pt17 Zr11 2.873608 1_555
Pt17 Zr13 2.884377 1_555
Pt17 Zr12 2.884516 1_665
Pt17 Zr2 2.906739 1_655
Pt17 Zr3 2.906739 1_565
Pt18 Zr12 2.873608 1_555
Pt18 Zr10 2.884377 1_556
Pt18 Zr11 2.884516 1_555
Pt18 Zr0 2.906739 1_556
Pt18 Zr1 2.906739 1_556
Pt19 Zr13 2.873608 1_555
Pt19 Zr11 2.884377 1_554
Pt19 Zr10 2.884516 1_555
Pt19 Zr0 2.906739 1_555
Pt19 Zr1 2.906739 1_555
