# generated using pymatgen
data_CoP(H4O3)3
_symmetry_space_group_name_H-M   'P 1'
_cell_length_a   7.96495700
_cell_length_b   13.25343800
_cell_length_c   10.86217600
_cell_angle_alpha   90.00000000
_cell_angle_beta   90.00000000
_cell_angle_gamma   90.00000000
_symmetry_Int_Tables_number   1
_chemical_formula_structural   CoP(H4O3)3
_chemical_formula_sum   'Co4 P4 H48 O36'
_cell_volume   1146.64457779
_cell_formula_units_Z   4
loop_
 _symmetry_equiv_pos_site_id
 _symmetry_equiv_pos_as_xyz
  1  'x, y, z'
loop_
 _atom_site_type_symbol
 _atom_site_label
 _atom_site_symmetry_multiplicity
 _atom_site_fract_x
 _atom_site_fract_y
 _atom_site_fract_z
 _atom_site_occupancy
  Co  Co0  1  0.50000000  0.50000000  0.64526800  1
  Co  Co1  1  0.00000000  0.00000000  0.35473200  1
  Co  Co2  1  0.50000000  0.50000000  0.35473200  1
  Co  Co3  1  0.00000000  0.00000000  0.64526800  1
  P  P0  1  0.13875700  0.51712700  0.50000000  1
  P  P1  1  0.86124300  0.48287300  0.50000000  1
  P  P2  1  0.63875700  0.98287300  0.50000000  1
  P  P3  1  0.36124300  0.01712700  0.50000000  1
  H  H0  1  0.98190700  0.28335600  0.25285000  1
  H  H1  1  0.01809300  0.71664400  0.25285000  1
  H  H2  1  0.48190700  0.21664400  0.74715000  1
  H  H3  1  0.51809300  0.78335600  0.74715000  1
  H  H4  1  0.01809300  0.71664400  0.74715000  1
  H  H5  1  0.98190700  0.28335600  0.74715000  1
  H  H6  1  0.51809300  0.78335600  0.25285000  1
  H  H7  1  0.48190700  0.21664400  0.25285000  1
  H  H8  1  0.36667100  0.33053600  0.12049900  1
  H  H9  1  0.63332900  0.66946400  0.12049900  1
  H  H10  1  0.86667100  0.16946400  0.87950100  1
  H  H11  1  0.13332900  0.83053600  0.87950100  1
  H  H12  1  0.63332900  0.66946400  0.87950100  1
  H  H13  1  0.36667100  0.33053600  0.87950100  1
  H  H14  1  0.13332900  0.83053600  0.12049900  1
  H  H15  1  0.86667100  0.16946400  0.12049900  1
  H  H16  1  0.92498600  0.61544900  0.27779400  1
  H  H17  1  0.07501400  0.38455100  0.27779400  1
  H  H18  1  0.42498600  0.88455100  0.72220600  1
  H  H19  1  0.57501400  0.11544900  0.72220600  1
  H  H20  1  0.07501400  0.38455100  0.72220600  1
  H  H21  1  0.92498600  0.61544900  0.72220600  1
  H  H22  1  0.57501400  0.11544900  0.27779400  1
  H  H23  1  0.42498600  0.88455100  0.27779400  1
  H  H24  1  0.53420800  0.74810100  0.46542100  1
  H  H25  1  0.46579200  0.25189900  0.46542100  1
  H  H26  1  0.03420800  0.75189900  0.53457900  1
  H  H27  1  0.96579200  0.24810100  0.53457900  1
  H  H28  1  0.46579200  0.25189900  0.53457900  1
  H  H29  1  0.53420800  0.74810100  0.53457900  1
  H  H30  1  0.96579200  0.24810100  0.46542100  1
  H  H31  1  0.03420800  0.75189900  0.46542100  1
  H  H32  1  0.82440100  0.99125400  0.00000000  1
  H  H33  1  0.17559900  0.00874600  0.00000000  1
  H  H34  1  0.32440100  0.50874600  0.00000000  1
  H  H35  1  0.67559900  0.49125400  0.00000000  1
  H  H36  1  0.16583300  0.35533700  0.00000000  1
  H  H37  1  0.83416700  0.64466300  0.00000000  1
  H  H38  1  0.66583300  0.14466300  0.00000000  1
  H  H39  1  0.33416700  0.85533700  0.00000000  1
  H  H40  1  0.14509400  0.55425100  0.00000000  1
  H  H41  1  0.85490600  0.44574900  0.00000000  1
  H  H42  1  0.64509400  0.94574900  0.00000000  1
  H  H43  1  0.35490600  0.05425100  0.00000000  1
  H  H44  1  0.65635200  0.26532300  0.00000000  1
  H  H45  1  0.34364800  0.73467700  0.00000000  1
  H  H46  1  0.15635200  0.23467700  0.00000000  1
  H  H47  1  0.84364800  0.76532300  0.00000000  1
  O  O0  1  0.66554200  0.47689300  0.50000000  1
  O  O1  1  0.33445800  0.52310700  0.50000000  1
  O  O2  1  0.16554200  0.02310700  0.50000000  1
  O  O3  1  0.83445800  0.97689300  0.50000000  1
  O  O4  1  0.61791300  0.59881400  0.27462900  1
  O  O5  1  0.38208700  0.40118600  0.27462900  1
  O  O6  1  0.11791300  0.90118600  0.72537100  1
  O  O7  1  0.88208700  0.09881400  0.72537100  1
  O  O8  1  0.38208700  0.40118600  0.72537100  1
  O  O9  1  0.61791300  0.59881400  0.72537100  1
  O  O10  1  0.88208700  0.09881400  0.27462900  1
  O  O11  1  0.11791300  0.90118600  0.27462900  1
  O  O12  1  0.03661100  0.64379600  0.73602400  1
  O  O13  1  0.96338900  0.35620400  0.73602400  1
  O  O14  1  0.53661100  0.85620400  0.26397600  1
  O  O15  1  0.46338900  0.14379600  0.26397600  1
  O  O16  1  0.96338900  0.35620400  0.26397600  1
  O  O17  1  0.03661100  0.64379600  0.26397600  1
  O  O18  1  0.46338900  0.14379600  0.73602400  1
  O  O19  1  0.53661100  0.85620400  0.73602400  1
  O  O20  1  0.53490900  0.64932800  0.17180500  1
  O  O21  1  0.46509100  0.35067200  0.17180500  1
  O  O22  1  0.03490900  0.85067200  0.82819500  1
  O  O23  1  0.96509100  0.14932800  0.82819500  1
  O  O24  1  0.46509100  0.35067200  0.82819500  1
  O  O25  1  0.53490900  0.64932800  0.82819500  1
  O  O26  1  0.96509100  0.14932800  0.17180500  1
  O  O27  1  0.03490900  0.85067200  0.17180500  1
  O  O28  1  0.79429300  0.50929400  0.00000000  1
  O  O29  1  0.20570700  0.49070600  0.00000000  1
  O  O30  1  0.29429300  0.99070600  0.00000000  1
  O  O31  1  0.70570700  0.00929400  0.00000000  1
  O  O32  1  0.73229100  0.20766300  0.00000000  1
  O  O33  1  0.26770900  0.79233700  0.00000000  1
  O  O34  1  0.23229100  0.29233700  0.00000000  1
  O  O35  1  0.76770900  0.70766300  0.00000000  1
loop_
_geom_bond_atom_site_label_1
_geom_bond_atom_site_label_2
_geom_bond_distance
_geom_bond_site_symmetry_2
Co0 O9 1.831454 1_555
Co0 O8 1.831454 1_555
Co0 O1 2.078984 1_555
Co0 O0 2.078984 1_555
Co1 O10 1.831454 1_455
Co1 O11 1.831454 1_545
Co1 O2 2.078984 1_555
Co1 O3 2.078984 1_445
Co2 O4 1.831454 1_555
Co2 O5 1.831454 1_555
Co2 O1 2.078984 1_555
Co2 O0 2.078984 1_555
Co3 O7 1.831454 1_455
Co3 O6 1.831454 1_545
Co3 O2 2.078984 1_555
Co3 O3 2.078984 1_445
H0 O16 0.984136 1_555
H1 O17 0.984136 1_555
H2 O18 0.984136 1_555
H3 O19 0.984136 1_555
H4 O12 0.984136 1_555
H5 O13 0.984136 1_555
H6 O14 0.984136 1_555
H7 O15 0.984136 1_555
H8 O21 0.998155 1_555
H9 O20 0.998155 1_555
H10 O23 0.998155 1_555
H11 O22 0.998155 1_555
H12 O25 0.998155 1_555
H13 O24 0.998155 1_555
H14 O27 0.998155 1_555
H15 O26 0.998155 1_555
H16 O17 0.976808 1_655
H17 O16 0.976808 1_455
H18 O19 0.976808 1_555
H19 O18 0.976808 1_555
H20 O13 0.976808 1_455
H21 O12 0.976808 1_655
H22 O15 0.976808 1_555
H23 O14 0.976808 1_555
H24 H29 0.751206 1_555
H25 H28 0.751206 1_555
H26 H31 0.751206 1_555
H27 H30 0.751206 1_555
H32 O31 0.975158 1_565
H33 O30 0.975158 1_545
H34 O29 0.975158 1_555
H35 O28 0.975158 1_555
H36 O34 0.988618 1_555
H37 O35 0.988618 1_555
H38 O32 0.988618 1_555
H39 O33 0.988618 1_555
H40 O29 0.970752 1_555
H41 O28 0.970752 1_555
H42 O31 0.970752 1_565
H43 O30 0.970752 1_545
H44 O32 0.974595 1_555
H45 O33 0.974595 1_555
H46 O34 0.974595 1_555
H47 O35 0.974595 1_555
O0 P1 1.560764 1_555
O1 P0 1.560764 1_555
O2 P3 1.560764 1_555
O3 P2 1.560764 1_555
O10 O26 1.460391 1_555
O11 O27 1.460391 1_555
O20 O4 1.460391 1_555
O21 O5 1.460391 1_555
O22 O6 1.460391 1_555
O23 O7 1.460391 1_555
O24 O8 1.460391 1_555
O25 O9 1.460391 1_555
