# generated using pymatgen
data_Ni4Mo4O19
_symmetry_space_group_name_H-M   'P 1'
_cell_length_a   6.82960100
_cell_length_b   6.97032916
_cell_length_c   9.42031758
_cell_angle_alpha   76.52231060
_cell_angle_beta   83.47478017
_cell_angle_gamma   74.72891325
_symmetry_Int_Tables_number   1
_chemical_formula_structural   Ni4Mo4O19
_chemical_formula_sum   'Ni4 Mo4 O19'
_cell_volume   420.04852917
_cell_formula_units_Z   1
loop_
 _symmetry_equiv_pos_site_id
 _symmetry_equiv_pos_as_xyz
  1  'x, y, z'
loop_
 _atom_site_type_symbol
 _atom_site_label
 _atom_site_symmetry_multiplicity
 _atom_site_fract_x
 _atom_site_fract_y
 _atom_site_fract_z
 _atom_site_occupancy
  Ni  Ni0  1  0.16678300  0.64579800  0.69918800  1
  Ni  Ni1  1  0.83395100  0.35471400  0.30082400  1
  Ni  Ni2  1  0.19224100  0.83030800  0.97104000  1
  Ni  Ni3  1  0.80811400  0.16950900  0.02923700  1
  Mo  Mo0  1  0.00094200  0.19672600  0.68254700  1
  Mo  Mo1  1  0.99866300  0.80377500  0.31731900  1
  Mo  Mo2  1  0.24628200  0.29540100  0.05510900  1
  Mo  Mo3  1  0.75377800  0.70450000  0.94503400  1
  O  O0  1  0.12808800  0.13055000  0.98652700  1
  O  O1  1  0.87193900  0.86950900  0.01327600  1
  O  O2  1  0.20141900  0.54843300  0.93075500  1
  O  O3  1  0.79844800  0.45166800  0.06926300  1
  O  O4  1  0.16176400  0.36441400  0.67253900  1
  O  O5  1  0.83818600  0.63573900  0.32765800  1
  O  O6  1  0.44334200  0.60058500  0.64369900  1
  O  O7  1  0.55740600  0.40039700  0.35621300  1
  O  O8  1  0.78718000  0.25730500  0.80622300  1
  O  O9  1  0.21260300  0.74270300  0.19362500  1
  O  O10  1  0.14309600  0.92829900  0.74782400  1
  O  O11  1  0.85711800  0.07173500  0.25223900  1
  O  O12  1  0.90886600  0.22451700  0.50875300  1
  O  O13  1  0.09122000  0.77546800  0.49132400  1
  O  O14  1  0.50920900  0.19177300  0.06460200  1
  O  O15  1  0.49076700  0.80842900  0.93531500  1
  O  O16  1  0.14575800  0.31042800  0.23455500  1
  O  O17  1  0.85392600  0.68995900  0.76521800  1
  O  O18  1  0.50691100  0.00235800  0.53409500  1
loop_
_geom_bond_atom_site_label_1
_geom_bond_atom_site_label_2
_geom_bond_distance
_geom_bond_site_symmetry_2
Ni0 O6 1.865183 1_555
Ni0 O13 2.019050 1_555
Ni0 O4 2.043999 1_555
Ni0 O10 2.085529 1_555
Ni0 O17 2.118447 1_455
Ni0 O2 2.148911 1_555
Ni1 O7 1.864797 1_555
Ni1 O12 2.019078 1_555
Ni1 O5 2.040612 1_555
Ni1 O11 2.089270 1_555
Ni1 O16 2.112168 1_655
Ni1 O3 2.149568 1_555
Ni2 O15 1.999366 1_555
Ni2 O9 2.052701 1_556
Ni2 O0 2.058587 1_565
Ni2 O2 2.070148 1_555
Ni2 O10 2.090686 1_555
Ni2 O1 2.134541 1_456
Ni3 O14 2.001259 1_555
Ni3 O8 2.057051 1_554
Ni3 O1 2.058352 1_545
Ni3 O3 2.070320 1_555
Ni3 O11 2.088518 1_555
Ni3 O0 2.132985 1_654
Mo0 O12 1.770697 1_455
Mo0 O4 1.784045 1_555
Mo0 O8 1.784663 1_455
Mo0 O10 1.861164 1_545
Mo1 O13 1.773267 1_655
Mo1 O5 1.783630 1_555
Mo1 O9 1.786194 1_655
Mo1 O11 1.857078 1_565
Mo2 O14 1.754242 1_555
Mo2 O16 1.766570 1_555
Mo2 O0 1.828259 1_554
Mo2 O2 1.846810 1_554
Mo3 O15 1.755197 1_555
Mo3 O17 1.768517 1_555
Mo3 O1 1.827265 1_556
Mo3 O3 1.845257 1_556
