# generated using pymatgen
data_Gd(BO2)3
_symmetry_space_group_name_H-M   'P 1'
_cell_length_a   7.48137639
_cell_length_b   12.41524079
_cell_length_c   16.17156441
_cell_angle_alpha   90.00000000
_cell_angle_beta   90.00000000
_cell_angle_gamma   90.00000000
_symmetry_Int_Tables_number   1
_chemical_formula_structural   Gd(BO2)3
_chemical_formula_sum   'Gd16 B48 O96'
_cell_volume   1502.06486158
_cell_formula_units_Z   16
loop_
 _symmetry_equiv_pos_site_id
 _symmetry_equiv_pos_as_xyz
  1  'x, y, z'
loop_
 _atom_site_type_symbol
 _atom_site_label
 _atom_site_symmetry_multiplicity
 _atom_site_fract_x
 _atom_site_fract_y
 _atom_site_fract_z
 _atom_site_occupancy
  Gd  Gd0  1  0.25000000  0.56698834  0.67165191  1
  Gd  Gd1  1  0.25000000  0.93301166  0.17165191  1
  Gd  Gd2  1  0.75000000  0.43301166  0.32834809  1
  Gd  Gd3  1  0.75000000  0.06698834  0.82834809  1
  Gd  Gd4  1  0.75000000  0.49268563  0.62038170  1
  Gd  Gd5  1  0.75000000  0.00731437  0.12038170  1
  Gd  Gd6  1  0.25000000  0.50731437  0.37961830  1
  Gd  Gd7  1  0.25000000  0.99268563  0.87961830  1
  Gd  Gd8  1  0.25000000  0.91240740  0.54803674  1
  Gd  Gd9  1  0.25000000  0.58759260  0.04803674  1
  Gd  Gd10  1  0.75000000  0.08759260  0.45196326  1
  Gd  Gd11  1  0.75000000  0.41240740  0.95196326  1
  Gd  Gd12  1  0.75000000  0.77062094  0.62751579  1
  Gd  Gd13  1  0.75000000  0.72937906  0.12751579  1
  Gd  Gd14  1  0.25000000  0.22937906  0.37248421  1
  Gd  Gd15  1  0.25000000  0.27062094  0.87248421  1
  B  B0  1  0.92947198  0.68624993  0.78279779  1
  B  B1  1  0.57052802  0.81375007  0.28279779  1
  B  B2  1  0.42947198  0.31375007  0.21720221  1
  B  B3  1  0.07052802  0.18624993  0.71720221  1
  B  B4  1  0.07052802  0.31375007  0.21720221  1
  B  B5  1  0.42947198  0.18624993  0.71720221  1
  B  B6  1  0.57052802  0.68624993  0.78279779  1
  B  B7  1  0.92947198  0.81375007  0.28279779  1
  B  B8  1  0.92672909  0.84550915  0.44186035  1
  B  B9  1  0.57327091  0.65449085  0.94186035  1
  B  B10  1  0.42672909  0.15449085  0.55813965  1
  B  B11  1  0.07327091  0.34550915  0.05813965  1
  B  B12  1  0.07327091  0.15449085  0.55813965  1
  B  B13  1  0.42672909  0.34550915  0.05813965  1
  B  B14  1  0.57327091  0.84550915  0.44186035  1
  B  B15  1  0.92672909  0.65449085  0.94186035  1
  B  B16  1  0.06127849  0.67918482  0.53006870  1
  B  B17  1  0.43872151  0.82081518  0.03006870  1
  B  B18  1  0.56127849  0.32081518  0.46993130  1
  B  B19  1  0.93872151  0.17918482  0.96993130  1
  B  B20  1  0.93872151  0.32081518  0.46993130  1
  B  B21  1  0.56127849  0.17918482  0.96993130  1
  B  B22  1  0.43872151  0.67918482  0.53006870  1
  B  B23  1  0.06127849  0.82081518  0.03006870  1
  B  B24  1  0.92363096  0.01754491  0.65383357  1
  B  B25  1  0.57636904  0.48245509  0.15383357  1
  B  B26  1  0.42363096  0.98245509  0.34616643  1
  B  B27  1  0.07636904  0.51754491  0.84616643  1
  B  B28  1  0.07636904  0.98245509  0.34616643  1
  B  B29  1  0.42363096  0.51754491  0.84616643  1
  B  B30  1  0.57636904  0.01754491  0.65383357  1
  B  B31  1  0.92363096  0.48245509  0.15383357  1
  B  B32  1  0.07707083  0.35549634  0.61026166  1
  B  B33  1  0.42292917  0.14450366  0.11026166  1
  B  B34  1  0.57707083  0.64450366  0.38973834  1
  B  B35  1  0.92292917  0.85549634  0.88973834  1
  B  B36  1  0.92292917  0.64450366  0.38973834  1
  B  B37  1  0.57707083  0.85549634  0.88973834  1
  B  B38  1  0.42292917  0.35549634  0.61026166  1
  B  B39  1  0.07707083  0.14450366  0.11026166  1
  B  B40  1  0.93113092  0.37066792  0.75719636  1
  B  B41  1  0.56886908  0.12933208  0.25719636  1
  B  B42  1  0.43113092  0.62933208  0.24280364  1
  B  B43  1  0.06886908  0.87066792  0.74280364  1
  B  B44  1  0.06886908  0.62933208  0.24280364  1
  B  B45  1  0.43113092  0.87066792  0.74280364  1
  B  B46  1  0.56886908  0.37066792  0.75719636  1
  B  B47  1  0.93113092  0.12933208  0.25719636  1
  O  O0  1  0.75000000  0.96222354  0.66000307  1
  O  O1  1  0.75000000  0.53777646  0.16000307  1
  O  O2  1  0.25000000  0.03777646  0.33999693  1
  O  O3  1  0.25000000  0.46222354  0.83999693  1
  O  O4  1  0.06123905  0.60079106  0.78193997  1
  O  O5  1  0.43876095  0.89920894  0.28193997  1
  O  O6  1  0.56123905  0.39920894  0.21806003  1
  O  O7  1  0.93876095  0.10079106  0.71806003  1
  O  O8  1  0.93876095  0.39920894  0.21806003  1
  O  O9  1  0.56123905  0.10079106  0.71806003  1
  O  O10  1  0.43876095  0.60079106  0.78193997  1
  O  O11  1  0.06123905  0.89920894  0.28193997  1
  O  O12  1  0.05486752  0.93263139  0.42880362  1
  O  O13  1  0.44513248  0.56736861  0.92880362  1
  O  O14  1  0.55486752  0.06736861  0.57119638  1
  O  O15  1  0.94513248  0.43263139  0.07119638  1
  O  O16  1  0.94513248  0.06736861  0.57119638  1
  O  O17  1  0.55486752  0.43263139  0.07119638  1
  O  O18  1  0.44513248  0.93263139  0.42880362  1
  O  O19  1  0.05486752  0.56736861  0.92880362  1
  O  O20  1  0.93720938  0.37626609  0.54906669  1
  O  O21  1  0.56279062  0.12373391  0.04906669  1
  O  O22  1  0.43720938  0.62373391  0.45093331  1
  O  O23  1  0.06279062  0.87626609  0.95093331  1
  O  O24  1  0.06279062  0.62373391  0.45093331  1
  O  O25  1  0.43720938  0.87626609  0.95093331  1
  O  O26  1  0.56279062  0.37626609  0.54906669  1
  O  O27  1  0.93720938  0.12373391  0.04906669  1
  O  O28  1  0.92681297  0.73417121  0.87063088  1
  O  O29  1  0.57318703  0.76582879  0.37063088  1
  O  O30  1  0.42681297  0.26582879  0.12936912  1
  O  O31  1  0.07318703  0.23417121  0.62936912  1
  O  O32  1  0.07318703  0.26582879  0.12936912  1
  O  O33  1  0.42681297  0.23417121  0.62936912  1
  O  O34  1  0.57318703  0.73417121  0.87063088  1
  O  O35  1  0.92681297  0.76582879  0.37063088  1
  O  O36  1  0.03372594  0.42047279  0.68496712  1
  O  O37  1  0.46627406  0.07952721  0.18496712  1
  O  O38  1  0.53372594  0.57952721  0.31503288  1
  O  O39  1  0.96627406  0.92047279  0.81503288  1
  O  O40  1  0.96627406  0.57952721  0.31503288  1
  O  O41  1  0.53372594  0.92047279  0.81503288  1
  O  O42  1  0.46627406  0.42047279  0.68496712  1
  O  O43  1  0.03372594  0.07952721  0.18496712  1
  O  O44  1  0.25000000  0.69754688  0.56266736  1
  O  O45  1  0.25000000  0.80245312  0.06266736  1
  O  O46  1  0.75000000  0.30245312  0.43733264  1
  O  O47  1  0.75000000  0.19754688  0.93733264  1
  O  O48  1  0.75000000  0.36180219  0.72503802  1
  O  O49  1  0.75000000  0.13819781  0.22503802  1
  O  O50  1  0.25000000  0.63819781  0.27496198  1
  O  O51  1  0.25000000  0.86180219  0.77496198  1
  O  O52  1  0.96107045  0.62464556  0.59461634  1
  O  O53  1  0.53892955  0.87535444  0.09461634  1
  O  O54  1  0.46107045  0.37535444  0.40538366  1
  O  O55  1  0.03892955  0.12464556  0.90538366  1
  O  O56  1  0.03892955  0.37535444  0.40538366  1
  O  O57  1  0.46107045  0.12464556  0.90538366  1
  O  O58  1  0.53892955  0.62464556  0.59461634  1
  O  O59  1  0.96107045  0.87535444  0.09461634  1
  O  O60  1  0.06241650  0.93420060  0.66564143  1
  O  O61  1  0.43758350  0.56579940  0.16564143  1
  O  O62  1  0.56241650  0.06579940  0.33435857  1
  O  O63  1  0.93758350  0.43420060  0.83435857  1
  O  O64  1  0.93758350  0.06579940  0.33435857  1
  O  O65  1  0.56241650  0.43420060  0.83435857  1
  O  O66  1  0.43758350  0.93420060  0.66564143  1
  O  O67  1  0.06241650  0.56579940  0.16564143  1
  O  O68  1  0.25000000  0.39208279  0.57933609  1
  O  O69  1  0.25000000  0.10791721  0.07933609  1
  O  O70  1  0.75000000  0.60791721  0.42066391  1
  O  O71  1  0.75000000  0.89208279  0.92066391  1
  O  O72  1  0.75000000  0.64692578  0.75506868  1
  O  O73  1  0.75000000  0.85307422  0.25506868  1
  O  O74  1  0.25000000  0.35307422  0.24493132  1
  O  O75  1  0.25000000  0.14692578  0.74493132  1
  O  O76  1  0.25000000  0.10451944  0.54833917  1
  O  O77  1  0.25000000  0.39548056  0.04833917  1
  O  O78  1  0.75000000  0.89548056  0.45166083  1
  O  O79  1  0.75000000  0.60451944  0.95166083  1
  O  O80  1  0.98049117  0.79125913  0.51947319  1
  O  O81  1  0.51950883  0.70874087  0.01947319  1
  O  O82  1  0.48049117  0.20874087  0.48052681  1
  O  O83  1  0.01950883  0.29125913  0.98052681  1
  O  O84  1  0.01950883  0.20874087  0.48052681  1
  O  O85  1  0.48049117  0.29125913  0.98052681  1
  O  O86  1  0.51950883  0.79125913  0.51947319  1
  O  O87  1  0.98049117  0.70874087  0.01947319  1
  O  O88  1  0.98261042  0.76876686  0.72436409  1
  O  O89  1  0.51738958  0.73123314  0.22436409  1
  O  O90  1  0.48261042  0.23123314  0.27563591  1
  O  O91  1  0.01738958  0.26876686  0.77563591  1
  O  O92  1  0.01738958  0.23123314  0.27563591  1
  O  O93  1  0.48261042  0.26876686  0.77563591  1
  O  O94  1  0.51738958  0.76876686  0.72436409  1
  O  O95  1  0.98261042  0.73123314  0.22436409  1
loop_
_geom_bond_atom_site_label_1
_geom_bond_atom_site_label_2
_geom_bond_distance
_geom_bond_site_symmetry_2
Gd0 O4 2.313307 1_555
Gd0 O10 2.313307 1_555
Gd0 O44 2.394494 1_555
Gd0 O42 2.444020 1_555
Gd0 O36 2.444020 1_555
Gd0 O52 2.595547 1_455
Gd0 O58 2.595547 1_555
Gd0 O68 2.635168 1_555
Gd1 O11 2.313307 1_555
Gd1 O5 2.313307 1_555
Gd1 O45 2.394494 1_555
Gd1 O37 2.444020 1_565
Gd1 O43 2.444020 1_565
Gd1 O53 2.595547 1_555
Gd1 O59 2.595547 1_455
Gd1 O69 2.635168 1_565
Gd2 O8 2.313307 1_555
Gd2 O6 2.313307 1_555
Gd2 O46 2.394494 1_555
Gd2 O38 2.444020 1_555
Gd2 O40 2.444020 1_555
Gd2 O54 2.595547 1_555
Gd2 O56 2.595547 1_655
Gd2 O70 2.635168 1_555
Gd3 O9 2.313307 1_555
Gd3 O7 2.313307 1_555
Gd3 O47 2.394494 1_555
Gd3 O41 2.444020 1_545
Gd3 O39 2.444020 1_545
Gd3 O55 2.595547 1_655
Gd3 O57 2.595547 1_555
Gd3 O71 2.635168 1_545
Gd4 O58 2.313273 1_555
Gd4 O52 2.313273 1_555
Gd4 O26 2.319654 1_555
Gd4 O20 2.319654 1_555
Gd4 O48 2.346246 1_555
Gd4 O42 2.529890 1_555
Gd4 O36 2.529890 1_655
Gd4 O72 2.900184 1_555
Gd5 O53 2.313273 1_545
Gd5 O59 2.313273 1_545
Gd5 O27 2.319654 1_555
Gd5 O21 2.319654 1_555
Gd5 O49 2.346246 1_555
Gd5 O37 2.529890 1_555
Gd5 O43 2.529890 1_655
Gd5 O73 2.900184 1_545
Gd6 O54 2.313273 1_555
Gd6 O56 2.313273 1_555
Gd6 O24 2.319654 1_555
Gd6 O22 2.319654 1_555
Gd6 O50 2.346246 1_555
Gd6 O40 2.529890 1_455
Gd6 O38 2.529890 1_555
Gd6 O74 2.900184 1_555
Gd7 O55 2.313273 1_565
Gd7 O57 2.313273 1_565
Gd7 O23 2.319654 1_555
Gd7 O25 2.319654 1_555
Gd7 O51 2.346246 1_555
Gd7 O39 2.529890 1_455
Gd7 O41 2.529890 1_555
Gd7 O75 2.900184 1_565
Gd8 O66 2.379019 1_555
Gd8 O60 2.379019 1_555
Gd8 O76 2.385122 1_565
Gd8 O18 2.431488 1_555
Gd8 O12 2.431488 1_555
Gd8 O86 2.557556 1_555
Gd8 O80 2.557556 1_455
Gd8 O44 2.678017 1_555
Gd9 O61 2.379019 1_555
Gd9 O67 2.379019 1_555
Gd9 O77 2.385122 1_555
Gd9 O13 2.431488 1_554
Gd9 O19 2.431488 1_554
Gd9 O87 2.557556 1_455
Gd9 O81 2.557556 1_555
Gd9 O45 2.678017 1_555
Gd10 O64 2.379019 1_555
Gd10 O62 2.379019 1_555
Gd10 O78 2.385122 1_545
Gd10 O14 2.431488 1_555
Gd10 O16 2.431488 1_555
Gd10 O82 2.557556 1_555
Gd10 O84 2.557556 1_655
Gd10 O46 2.678017 1_555
Gd11 O63 2.379019 1_555
Gd11 O65 2.379019 1_555
Gd11 O79 2.385122 1_555
Gd11 O17 2.431488 1_556
Gd11 O15 2.431488 1_556
Gd11 O83 2.557556 1_655
Gd11 O85 2.557556 1_555
Gd11 O47 2.678017 1_555
Gd12 O88 2.341353 1_555
Gd12 O94 2.341353 1_555
Gd12 O0 2.436117 1_555
Gd12 O52 2.461933 1_555
Gd12 O58 2.461933 1_555
Gd12 O86 2.468187 1_555
Gd12 O80 2.468187 1_555
Gd12 O72 2.571623 1_555
Gd13 O89 2.341353 1_555
Gd13 O95 2.341353 1_555
Gd13 O1 2.436117 1_555
Gd13 O53 2.461933 1_555
Gd13 O59 2.461933 1_555
Gd13 O87 2.468187 1_555
Gd13 O81 2.468187 1_555
Gd13 O73 2.571623 1_555
Gd14 O92 2.341353 1_555
Gd14 O90 2.341353 1_555
Gd14 O2 2.436117 1_555
Gd14 O56 2.461933 1_555
Gd14 O54 2.461933 1_555
Gd14 O84 2.468187 1_555
Gd14 O82 2.468187 1_555
Gd14 O74 2.571623 1_555
Gd15 O93 2.341353 1_555
Gd15 O91 2.341353 1_555
Gd15 O3 2.436117 1_555
Gd15 O55 2.461933 1_555
Gd15 O57 2.461933 1_555
Gd15 O85 2.468187 1_555
Gd15 O83 2.468187 1_555
Gd15 O75 2.571623 1_555
B0 O4 1.448343 1_655
B0 O88 1.449323 1_555
B0 O72 1.497424 1_555
B0 O28 1.540097 1_555
B1 O5 1.448343 1_555
B1 O89 1.449323 1_555
B1 O73 1.497424 1_555
B1 O29 1.540097 1_555
B2 O6 1.448343 1_555
B2 O90 1.449323 1_555
B2 O74 1.497424 1_555
B2 O30 1.540097 1_555
B3 O7 1.448343 1_455
B3 O91 1.449323 1_555
B3 O75 1.497424 1_555
B3 O31 1.540097 1_555
B4 O8 1.448343 1_455
B4 O92 1.449323 1_555
B4 O74 1.497424 1_555
B4 O32 1.540097 1_555
B5 O9 1.448343 1_555
B5 O93 1.449323 1_555
B5 O75 1.497424 1_555
B5 O33 1.540097 1_555
B6 O10 1.448343 1_555
B6 O94 1.449323 1_555
B6 O72 1.497424 1_555
B6 O34 1.540097 1_555
B7 O11 1.448343 1_655
B7 O95 1.449323 1_555
B7 O73 1.497424 1_555
B7 O35 1.540097 1_555
B8 O12 1.460667 1_655
B8 O78 1.469073 1_555
B8 O80 1.480116 1_555
B8 O35 1.518378 1_555
B9 O13 1.460667 1_555
B9 O79 1.469073 1_555
B9 O81 1.480116 1_556
B9 O34 1.518378 1_555
B10 O14 1.460667 1_555
B10 O76 1.469073 1_555
B10 O82 1.480116 1_555
B10 O33 1.518378 1_555
B11 O15 1.460667 1_455
B11 O77 1.469073 1_555
B11 O83 1.480116 1_554
B11 O32 1.518378 1_555
B12 O16 1.460667 1_455
B12 O76 1.469073 1_555
B12 O84 1.480116 1_555
B12 O31 1.518378 1_555
B13 O17 1.460667 1_555
B13 O77 1.469073 1_555
B13 O85 1.480116 1_554
B13 O30 1.518378 1_555
B14 O18 1.460667 1_555
B14 O78 1.469073 1_555
B14 O86 1.480116 1_555
B14 O29 1.518378 1_555
B15 O19 1.460667 1_655
B15 O79 1.469073 1_555
B15 O87 1.480116 1_556
B15 O28 1.518378 1_555
B16 O52 1.452627 1_455
B16 O24 1.453209 1_555
B16 O44 1.524248 1_555
B16 O80 1.526675 1_455
B17 O53 1.452627 1_555
B17 O25 1.453209 1_554
B17 O45 1.524248 1_555
B17 O81 1.526675 1_555
B18 O54 1.452627 1_555
B18 O26 1.453209 1_555
B18 O46 1.524248 1_555
B18 O82 1.526675 1_555
B19 O55 1.452627 1_655
B19 O27 1.453209 1_556
B19 O47 1.524248 1_555
B19 O83 1.526675 1_655
B20 O56 1.452627 1_655
B20 O20 1.453209 1_555
B20 O46 1.524248 1_555
B20 O84 1.526675 1_655
B21 O57 1.452627 1_555
B21 O21 1.453209 1_556
B21 O47 1.524248 1_555
B21 O85 1.526675 1_555
B22 O58 1.452627 1_555
B22 O22 1.453209 1_555
B22 O44 1.524248 1_555
B22 O86 1.526675 1_555
B23 O59 1.452627 1_455
B23 O23 1.453209 1_554
B23 O45 1.524248 1_555
B23 O87 1.526675 1_455
B24 O7 1.469611 1_555
B24 O0 1.472781 1_545
B24 O60 1.478252 1_645
B24 O16 1.481351 1_555
B25 O6 1.469611 1_555
B25 O1 1.472781 1_555
B25 O61 1.478252 1_555
B25 O17 1.481351 1_555
B26 O5 1.469611 1_555
B26 O2 1.472781 1_565
B26 O62 1.478252 1_565
B26 O18 1.481351 1_555
B27 O4 1.469611 1_555
B27 O3 1.472781 1_555
B27 O63 1.478252 1_455
B27 O19 1.481351 1_555
B28 O11 1.469611 1_555
B28 O2 1.472781 1_565
B28 O64 1.478252 1_465
B28 O12 1.481351 1_555
B29 O10 1.469611 1_555
B29 O3 1.472781 1_555
B29 O65 1.478252 1_555
B29 O13 1.481351 1_555
B30 O9 1.469611 1_555
B30 O0 1.472781 1_545
B30 O66 1.478252 1_545
B30 O14 1.481351 1_555
B31 O8 1.469611 1_555
B31 O1 1.472781 1_555
B31 O67 1.478252 1_655
B31 O15 1.481351 1_555
B32 O68 1.459529 1_555
B32 O20 1.463113 1_455
B32 O36 1.488434 1_555
B32 O31 1.537922 1_555
B33 O69 1.459529 1_555
B33 O21 1.463113 1_555
B33 O37 1.488434 1_555
B33 O30 1.537922 1_555
B34 O70 1.459529 1_555
B34 O22 1.463113 1_555
B34 O38 1.488434 1_555
B34 O29 1.537922 1_555
B35 O71 1.459529 1_555
B35 O23 1.463113 1_655
B35 O39 1.488434 1_555
B35 O28 1.537922 1_555
B36 O70 1.459529 1_555
B36 O24 1.463113 1_655
B36 O40 1.488434 1_555
B36 O35 1.537922 1_555
B37 O71 1.459529 1_555
B37 O25 1.463113 1_555
B37 O41 1.488434 1_555
B37 O34 1.537922 1_555
B38 O68 1.459529 1_555
B38 O26 1.463113 1_555
B38 O42 1.488434 1_555
B38 O33 1.537922 1_555
B39 O69 1.459529 1_555
B39 O27 1.463113 1_455
B39 O43 1.488434 1_555
B39 O32 1.537922 1_555
B40 O91 1.451179 1_655
B40 O48 1.455640 1_555
B40 O63 1.477018 1_555
B40 O36 1.528347 1_655
B41 O90 1.451179 1_555
B41 O49 1.455640 1_555
B41 O62 1.477018 1_555
B41 O37 1.528347 1_555
B42 O89 1.451179 1_555
B42 O50 1.455640 1_555
B42 O61 1.477018 1_555
B42 O38 1.528347 1_555
B43 O88 1.451179 1_455
B43 O51 1.455640 1_555
B43 O60 1.477018 1_555
B43 O39 1.528347 1_455
B44 O95 1.451179 1_455
B44 O50 1.455640 1_555
B44 O67 1.477018 1_555
B44 O40 1.528347 1_455
B45 O94 1.451179 1_555
B45 O51 1.455640 1_555
B45 O66 1.477018 1_555
B45 O41 1.528347 1_555
B46 O93 1.451179 1_555
B46 O48 1.455640 1_555
B46 O65 1.477018 1_555
B46 O42 1.528347 1_555
B47 O92 1.451179 1_655
B47 O49 1.455640 1_555
B47 O64 1.477018 1_555
B47 O43 1.528347 1_655
