# generated using pymatgen
data_SrEu(PPt)2
_symmetry_space_group_name_H-M   'P 1'
_cell_length_a   4.15158605
_cell_length_b   4.15158605
_cell_length_c   8.88323000
_cell_angle_alpha   90.00000000
_cell_angle_beta   90.00000000
_cell_angle_gamma   120.00000080
_symmetry_Int_Tables_number   1
_chemical_formula_structural   SrEu(PPt)2
_chemical_formula_sum   'Sr1 Eu1 P2 Pt2'
_cell_volume   132.59575575
_cell_formula_units_Z   1
loop_
 _symmetry_equiv_pos_site_id
 _symmetry_equiv_pos_as_xyz
  1  'x, y, z'
loop_
 _atom_site_type_symbol
 _atom_site_label
 _atom_site_symmetry_multiplicity
 _atom_site_fract_x
 _atom_site_fract_y
 _atom_site_fract_z
 _atom_site_occupancy
  Sr  Sr0  1  0.00000000  0.00000000  0.50000000  1
  Eu  Eu0  1  0.00000000  0.00000000  0.00000000  1
  P  P0  1  0.66666700  0.33333300  0.76252100  1
  P  P1  1  0.33333300  0.66666700  0.23747900  1
  Pt  Pt0  1  0.66666700  0.33333300  0.24350200  1
  Pt  Pt1  1  0.33333300  0.66666700  0.75649800  1
loop_
_geom_bond_atom_site_label_1
_geom_bond_atom_site_label_2
_geom_bond_distance
_geom_bond_site_symmetry_2
Eu0 P1 3.193046 1_545
Eu0 P0 3.193046 1_454
Eu0 P1 3.193048 1_445
Eu0 P0 3.193048 1_554
Eu0 P1 3.193048 1_555
Eu0 P0 3.193048 1_444
Eu0 Pt0 3.228644 1_455
Eu0 Pt1 3.228644 1_544
Eu0 Pt1 3.228647 1_444
Eu0 Pt0 3.228647 1_555
Eu0 Pt1 3.228647 1_554
Eu0 Pt0 3.228647 1_445
P0 Pt1 2.397514 1_545
P0 Pt1 2.397514 1_655
P0 Pt1 2.397521 1_555
P0 Sr0 3.344188 1_655
P0 Sr0 3.344191 1_555
P0 Sr0 3.344191 1_665
P1 Pt0 2.397514 1_455
P1 Pt0 2.397514 1_565
P1 Pt0 2.397521 1_555
P1 Sr0 3.344188 1_565
P1 Sr0 3.344191 1_555
P1 Sr0 3.344191 1_665
Pt0 Sr0 3.307100 1_655
Pt0 Sr0 3.307103 1_665
Pt0 Sr0 3.307103 1_555
Pt1 Sr0 3.307100 1_565
Pt1 Sr0 3.307103 1_665
Pt1 Sr0 3.307103 1_555
