# generated using pymatgen
data_Mg6ZrCo
_symmetry_space_group_name_H-M   'P 1'
_cell_length_a   4.89531000
_cell_length_b   5.77935500
_cell_length_c   11.36756000
_cell_angle_alpha   90.00000000
_cell_angle_beta   90.00000000
_cell_angle_gamma   90.00000000
_symmetry_Int_Tables_number   1
_chemical_formula_structural   Mg6ZrCo
_chemical_formula_sum   'Mg12 Zr2 Co2'
_cell_volume   321.60798744
_cell_formula_units_Z   2
loop_
 _symmetry_equiv_pos_site_id
 _symmetry_equiv_pos_as_xyz
  1  'x, y, z'
loop_
 _atom_site_type_symbol
 _atom_site_label
 _atom_site_symmetry_multiplicity
 _atom_site_fract_x
 _atom_site_fract_y
 _atom_site_fract_z
 _atom_site_occupancy
  Mg  Mg0  1  0.50000000  0.74806900  0.92962100  1
  Mg  Mg1  1  0.50000000  0.25193100  0.92962100  1
  Mg  Mg2  1  0.00000000  0.24649700  0.58120900  1
  Mg  Mg3  1  0.00000000  0.75350300  0.58120900  1
  Mg  Mg4  1  0.00000000  0.50000000  0.83194500  1
  Mg  Mg5  1  0.00000000  0.00000000  0.80242100  1
  Mg  Mg6  1  0.50000000  0.24806900  0.42962100  1
  Mg  Mg7  1  0.50000000  0.75193100  0.42962100  1
  Mg  Mg8  1  0.00000000  0.74649700  0.08120900  1
  Mg  Mg9  1  0.00000000  0.25350300  0.08120900  1
  Mg  Mg10  1  0.00000000  0.00000000  0.33194500  1
  Mg  Mg11  1  0.00000000  0.50000000  0.30242100  1
  Zr  Zr0  1  0.50000000  0.50000000  0.68183700  1
  Zr  Zr1  1  0.50000000  0.00000000  0.18183700  1
  Co  Co0  1  0.50000000  0.00000000  0.66213300  1
  Co  Co1  1  0.50000000  0.50000000  0.16213300  1
loop_
_geom_bond_atom_site_label_1
_geom_bond_atom_site_label_2
_geom_bond_distance
_geom_bond_site_symmetry_2
Mg0 Mg1 2.867358 1_555
Mg0 Mg1 2.911997 1_565
Mg0 Mg8 2.993404 1_656
Mg0 Mg8 2.993404 1_556
Mg0 Mg4 3.046194 1_655
Mg0 Mg4 3.046194 1_555
Mg0 Zr0 3.160574 1_555
Mg0 Mg5 3.194015 1_565
Mg0 Mg5 3.194015 1_665
Mg0 Zr1 3.215600 1_566
Mg1 Mg9 2.993404 1_656
Mg1 Mg9 2.993404 1_556
Mg1 Mg4 3.046194 1_655
Mg1 Mg4 3.046194 1_555
Mg1 Zr0 3.160574 1_555
Mg1 Mg5 3.194015 1_655
Mg1 Mg5 3.194015 1_555
Mg1 Zr1 3.215600 1_556
Mg2 Mg3 2.849187 1_545
Mg2 Mg5 2.890136 1_555
Mg2 Mg3 2.930168 1_555
Mg2 Mg6 2.993404 1_555
Mg2 Mg6 2.993404 1_455
Mg2 Zr0 3.073431 1_455
Mg2 Zr0 3.073431 1_555
Mg2 Mg4 3.204752 1_555
Mg3 Mg5 2.890136 1_565
Mg3 Mg7 2.993404 1_455
Mg3 Mg7 2.993404 1_555
Mg3 Zr0 3.073431 1_455
Mg3 Zr0 3.073431 1_555
Mg3 Mg4 3.204752 1_555
Mg4 Mg5 2.909102 1_565
Mg4 Mg5 2.909102 1_555
Mg4 Zr0 2.983737 1_555
Mg4 Zr0 2.983737 1_455
Mg4 Mg8 3.171486 1_556
Mg4 Mg9 3.171486 1_556
Mg5 Mg9 3.491406 1_556
Mg5 Mg8 3.491406 1_546
Mg6 Mg7 2.867358 1_545
Mg6 Mg7 2.911997 1_555
Mg6 Zr1 3.160574 1_555
Mg6 Zr0 3.215600 1_555
Mg7 Zr1 3.160574 1_565
Mg7 Zr0 3.215600 1_555
Mg8 Mg9 2.849187 1_555
Mg8 Mg9 2.930168 1_565
Mg8 Zr1 3.073431 1_465
Mg8 Zr1 3.073431 1_565
Mg9 Zr1 3.073431 1_455
Mg9 Zr1 3.073431 1_555
Mg10 Mg11 2.909102 1_545
Mg10 Mg11 2.909102 1_555
Mg10 Zr1 2.983737 1_455
Mg10 Zr1 2.983737 1_555
Mg10 Mg6 3.046194 1_455
Mg10 Mg6 3.046194 1_555
Mg10 Mg7 3.046194 1_445
Mg10 Mg7 3.046194 1_545
Mg10 Mg2 3.171486 1_555
Mg10 Mg3 3.171486 1_545
Mg10 Mg8 3.204752 1_545
Mg10 Mg9 3.204752 1_555
Mg11 Mg8 2.890136 1_555
Mg11 Mg9 2.890136 1_555
Mg11 Mg7 3.194015 1_555
Mg11 Mg7 3.194015 1_455
Mg11 Mg6 3.194015 1_455
Mg11 Mg6 3.194015 1_555
Mg11 Mg3 3.491406 1_555
Mg11 Mg2 3.491406 1_555
Co0 Zr0 2.898345 1_545
Co0 Zr0 2.898345 1_555
Co0 Mg5 2.921333 1_555
Co0 Mg5 2.921333 1_655
Co0 Mg2 2.977703 1_655
Co0 Mg2 2.977703 1_555
Co0 Mg3 2.977703 1_645
Co0 Mg3 2.977703 1_545
Co0 Mg6 3.006889 1_555
Co0 Mg7 3.006889 1_545
Co0 Mg1 3.371306 1_555
Co0 Mg0 3.371306 1_545
Co1 Zr1 2.898345 1_565
Co1 Zr1 2.898345 1_555
Co1 Mg11 2.921333 1_555
Co1 Mg11 2.921333 1_655
Co1 Mg8 2.977703 1_655
Co1 Mg8 2.977703 1_555
Co1 Mg9 2.977703 1_655
Co1 Mg9 2.977703 1_555
Co1 Mg0 3.006889 1_554
Co1 Mg1 3.006889 1_554
Co1 Mg7 3.371306 1_555
Co1 Mg6 3.371306 1_555
