# generated using pymatgen
data_Gd2Si4CN6
_symmetry_space_group_name_H-M   'P 1'
_cell_length_a   10.01411800
_cell_length_b   5.99959800
_cell_length_c   12.01640508
_cell_angle_alpha   60.42799393
_cell_angle_beta   90.00000000
_cell_angle_gamma   90.00000000
_symmetry_Int_Tables_number   1
_chemical_formula_structural   Gd2Si4CN6
_chemical_formula_sum   'Gd8 Si16 C4 N24'
_cell_volume   627.90933920
_cell_formula_units_Z   4
loop_
 _symmetry_equiv_pos_site_id
 _symmetry_equiv_pos_as_xyz
  1  'x, y, z'
loop_
 _atom_site_type_symbol
 _atom_site_label
 _atom_site_symmetry_multiplicity
 _atom_site_fract_x
 _atom_site_fract_y
 _atom_site_fract_z
 _atom_site_occupancy
  Gd  Gd0  1  0.56500800  0.66827700  0.09504300  1
  Gd  Gd1  1  0.06500800  0.33172300  0.40495700  1
  Gd  Gd2  1  0.43499200  0.33172300  0.90495700  1
  Gd  Gd3  1  0.93499200  0.66827700  0.59504300  1
  Gd  Gd4  1  0.41587200  0.33784600  0.41924700  1
  Gd  Gd5  1  0.91587200  0.66215400  0.08075300  1
  Gd  Gd6  1  0.58412800  0.66215400  0.58075300  1
  Gd  Gd7  1  0.08412800  0.33784600  0.91924700  1
  Si  Si0  1  0.48088200  0.99408300  0.24928000  1
  Si  Si1  1  0.98088200  0.00591700  0.25072000  1
  Si  Si2  1  0.51911800  0.00591700  0.75072000  1
  Si  Si3  1  0.01911800  0.99408300  0.74928000  1
  Si  Si4  1  0.21347900  0.83420500  0.42051400  1
  Si  Si5  1  0.71347900  0.16579500  0.07948600  1
  Si  Si6  1  0.78652100  0.16579500  0.57948600  1
  Si  Si7  1  0.28652100  0.83420500  0.92051400  1
  Si  Si8  1  0.20706800  0.79869100  0.17663300  1
  Si  Si9  1  0.70706800  0.20130900  0.32336700  1
  Si  Si10  1  0.79293200  0.20130900  0.82336700  1
  Si  Si11  1  0.29293200  0.79869100  0.67663300  1
  Si  Si12  1  0.22780900  0.32292400  0.15926300  1
  Si  Si13  1  0.72780900  0.67707600  0.34073700  1
  Si  Si14  1  0.77219100  0.67707600  0.84073700  1
  Si  Si15  1  0.27219100  0.32292400  0.65926300  1
  C  C0  1  0.29284800  0.97721700  0.25240300  1
  C  C1  1  0.79284800  0.02278300  0.24759700  1
  C  C2  1  0.70715200  0.02278300  0.74759700  1
  C  C3  1  0.20715200  0.97721700  0.75240300  1
  N  N0  1  0.21209600  0.95391400  0.01050800  1
  N  N1  1  0.71209600  0.04608600  0.48949200  1
  N  N2  1  0.78790400  0.04608600  0.98949200  1
  N  N3  1  0.28790400  0.95391400  0.51050800  1
  N  N4  1  0.04645400  0.93985100  0.39889400  1
  N  N5  1  0.54645400  0.06014900  0.10110600  1
  N  N6  1  0.95354600  0.06014900  0.60110600  1
  N  N7  1  0.45354600  0.93985100  0.89889400  1
  N  N8  1  0.03822900  0.76397900  0.22231100  1
  N  N9  1  0.53822900  0.23602100  0.27768900  1
  N  N10  1  0.96177100  0.23602100  0.77768900  1
  N  N11  1  0.46177100  0.76397900  0.72231100  1
  N  N12  1  0.28941000  0.49586600  0.00195900  1
  N  N13  1  0.78941000  0.50413400  0.49804100  1
  N  N14  1  0.71059000  0.50413400  0.99804100  1
  N  N15  1  0.21059000  0.49586600  0.50195900  1
  N  N16  1  0.26375900  0.48243100  0.24477200  1
  N  N17  1  0.76375900  0.51756900  0.25522800  1
  N  N18  1  0.73624100  0.51756900  0.75522800  1
  N  N19  1  0.23624100  0.48243100  0.74477200  1
  N  N20  1  0.05447300  0.29801100  0.13909200  1
  N  N21  1  0.55447300  0.70198900  0.36090800  1
  N  N22  1  0.94552700  0.70198900  0.86090800  1
  N  N23  1  0.44552700  0.29801100  0.63909200  1
loop_
_geom_bond_atom_site_label_1
_geom_bond_atom_site_label_2
_geom_bond_distance
_geom_bond_site_symmetry_2
Gd0 N14 2.363658 1_554
Gd0 N7 2.380239 1_554
Gd0 N5 2.395089 1_565
Gd0 N9 2.448752 1_555
Gd0 N17 2.601172 1_555
Gd1 N15 2.363658 1_555
Gd1 N6 2.380239 1_455
Gd1 N4 2.395089 1_545
Gd1 N8 2.448752 1_555
Gd1 N16 2.601172 1_555
Gd2 N12 2.363658 1_556
Gd2 N5 2.380239 1_556
Gd2 N7 2.395089 1_545
Gd2 N11 2.448752 1_555
Gd2 N19 2.601172 1_555
Gd3 N13 2.363658 1_555
Gd3 N4 2.380239 1_655
Gd3 N6 2.395089 1_565
Gd3 N10 2.448752 1_555
Gd3 N18 2.601172 1_555
Gd4 N3 2.378521 1_545
Gd4 N16 2.381876 1_555
Gd4 N21 2.383102 1_555
Gd4 N9 2.407015 1_555
Gd4 N23 2.549698 1_555
Gd4 N15 2.653806 1_555
Gd5 N2 2.378521 1_564
Gd5 N17 2.381876 1_555
Gd5 N20 2.383102 1_655
Gd5 N8 2.407015 1_655
Gd5 N22 2.549698 1_554
Gd5 N14 2.653806 1_554
Gd6 N1 2.378521 1_565
Gd6 N18 2.381876 1_555
Gd6 N23 2.383102 1_555
Gd6 N11 2.407015 1_555
Gd6 N21 2.549698 1_555
Gd6 N13 2.653806 1_555
Gd7 N0 2.378521 1_546
Gd7 N19 2.381876 1_555
Gd7 N22 2.383102 1_455
Gd7 N10 2.407015 1_455
Gd7 N20 2.549698 1_556
Gd7 N12 2.653806 1_556
C0 Si0 1.885091 1_555
C0 Si8 1.917462 1_555
C0 Si12 1.920281 1_565
C0 Si4 1.933361 1_555
C1 Si1 1.885091 1_555
C1 Si9 1.917462 1_555
C1 Si13 1.920281 1_545
C1 Si5 1.933361 1_555
C2 Si2 1.885091 1_555
C2 Si10 1.917462 1_555
C2 Si14 1.920281 1_545
C2 Si6 1.933361 1_555
C3 Si3 1.885091 1_555
C3 Si11 1.917462 1_555
C3 Si15 1.920281 1_565
C3 Si7 1.933361 1_555
N0 Si7 1.734165 1_554
N0 Si8 1.737755 1_555
N1 Si6 1.734165 1_555
N1 Si9 1.737755 1_555
N2 Si5 1.734165 1_556
N2 Si10 1.737755 1_555
N3 Si4 1.734165 1_555
N3 Si11 1.737755 1_555
N4 Si1 1.749842 1_465
N4 Si4 1.761909 1_555
N5 Si0 1.749842 1_545
N5 Si5 1.761909 1_555
N6 Si3 1.749842 1_645
N6 Si6 1.761909 1_555
N7 Si2 1.749842 1_565
N7 Si7 1.761909 1_555
N8 Si1 1.744238 1_465
N8 Si8 1.757992 1_555
N9 Si0 1.744238 1_545
N9 Si9 1.757992 1_555
N10 Si3 1.744238 1_645
N10 Si10 1.757992 1_555
N11 Si2 1.744238 1_565
N11 Si11 1.757992 1_555
N12 Si12 1.759046 1_555
N12 Si7 1.765864 1_554
N13 Si13 1.759046 1_555
N13 Si6 1.765864 1_555
N14 Si14 1.759046 1_555
N14 Si5 1.765864 1_556
N15 Si15 1.759046 1_555
N15 Si4 1.765864 1_555
N16 Si8 1.749145 1_555
N16 Si12 1.752640 1_555
N17 Si9 1.749145 1_555
N17 Si13 1.752640 1_555
N18 Si10 1.749145 1_555
N18 Si14 1.752640 1_555
N19 Si11 1.749145 1_555
N19 Si15 1.752640 1_555
N20 Si1 1.758759 1_455
N20 Si12 1.769145 1_555
N21 Si0 1.758759 1_555
N21 Si13 1.769145 1_555
N22 Si3 1.758759 1_655
N22 Si14 1.769145 1_555
N23 Si2 1.758759 1_555
N23 Si15 1.769145 1_555
