# generated using pymatgen
data_LaFe4(CuO4)3
_symmetry_space_group_name_H-M   'P 1'
_cell_length_a   6.50282367
_cell_length_b   6.50283061
_cell_length_c   6.50282366
_cell_angle_alpha   70.52023313
_cell_angle_beta   70.63494491
_cell_angle_gamma   109.56921742
_symmetry_Int_Tables_number   1
_chemical_formula_structural   LaFe4(CuO4)3
_chemical_formula_sum   'La1 Fe4 Cu3 O12'
_cell_volume   211.68078778
_cell_formula_units_Z   1
loop_
 _symmetry_equiv_pos_site_id
 _symmetry_equiv_pos_as_xyz
  1  'x, y, z'
loop_
 _atom_site_type_symbol
 _atom_site_label
 _atom_site_symmetry_multiplicity
 _atom_site_fract_x
 _atom_site_fract_y
 _atom_site_fract_z
 _atom_site_occupancy
  La  La0  1  0.00000000  0.00000000  0.00000000  1
  Fe  Fe0  1  0.00000000  0.50000000  0.00000000  1
  Fe  Fe1  1  0.50000000  0.50000000  0.50000000  1
  Fe  Fe2  1  0.50000000  0.00000000  0.00000000  1
  Fe  Fe3  1  0.00000000  0.00000000  0.50000000  1
  Cu  Cu0  1  0.50000000  0.50000000  0.00000000  1
  Cu  Cu1  1  0.50000000  0.00000000  0.50000000  1
  Cu  Cu2  1  0.00000000  0.50000000  0.50000000  1
  O  O0  1  0.14431300  0.83282800  0.68851600  1
  O  O1  1  0.47865700  0.16717300  0.68851500  1
  O  O2  1  0.52134300  0.83282700  0.31148500  1
  O  O3  1  0.85568700  0.16717200  0.31148400  1
  O  O4  1  0.68790600  0.85442700  0.83347800  1
  O  O5  1  0.68790600  0.52138300  0.16652300  1
  O  O6  1  0.31209400  0.47861700  0.83347700  1
  O  O7  1  0.31209400  0.14557300  0.16652200  1
  O  O8  1  0.16724700  0.31150800  0.52124600  1
  O  O9  1  0.83275500  0.31150800  0.85573700  1
  O  O10  1  0.16724500  0.68849200  0.14426300  1
  O  O11  1  0.83275300  0.68849200  0.47875400  1
loop_
_geom_bond_atom_site_label_1
_geom_bond_atom_site_label_2
_geom_bond_distance
_geom_bond_site_symmetry_2
La0 O6 2.653609 1_554
La0 O5 2.653609 1_445
La0 O7 2.653614 1_555
La0 O4 2.653614 1_444
La0 O11 2.655412 1_445
La0 O8 2.655412 1_554
La0 O10 2.655420 1_545
La0 O9 2.655420 1_454
La0 O1 2.656418 1_554
La0 O2 2.656418 1_445
La0 O0 2.656424 1_544
La0 O3 2.656424 1_455
Fe0 O10 2.028741 1_555
Fe0 O9 2.028741 1_454
Fe0 O3 2.030445 1_455
Fe0 O0 2.030445 1_554
Fe0 O5 2.035390 1_455
Fe0 O6 2.035390 1_554
Fe1 O11 2.028730 1_555
Fe1 O8 2.028730 1_555
Fe1 O2 2.030447 1_555
Fe1 O1 2.030447 1_555
Fe1 O6 2.035389 1_555
Fe1 O5 2.035389 1_555
Fe2 O9 2.028734 1_554
Fe2 O10 2.028734 1_545
Fe2 O2 2.030454 1_545
Fe2 O1 2.030454 1_554
Fe2 O7 2.035401 1_555
Fe2 O4 2.035401 1_544
Fe3 O8 2.028739 1_555
Fe3 O11 2.028739 1_445
Fe3 O0 2.030458 1_545
Fe3 O3 2.030458 1_455
Fe3 O4 2.035385 1_445
Fe3 O7 2.035385 1_555
Cu0 O4 1.883898 1_554
Cu0 O7 1.883898 1_555
Cu0 O5 1.883913 1_555
Cu0 O6 1.883913 1_554
Cu1 O3 1.892307 1_555
Cu1 O0 1.892307 1_545
Cu1 O1 1.892320 1_555
Cu1 O2 1.892320 1_545
Cu2 O9 1.893140 1_455
Cu2 O10 1.893140 1_555
Cu2 O8 1.893159 1_555
Cu2 O11 1.893159 1_455
