# generated using pymatgen
data_TiP3WO12
_symmetry_space_group_name_H-M   'P 1'
_cell_length_a   8.85195695
_cell_length_b   8.85195612
_cell_length_c   8.85195736
_cell_angle_alpha   59.06029515
_cell_angle_beta   59.06029756
_cell_angle_gamma   59.06029818
_symmetry_Int_Tables_number   1
_chemical_formula_structural   TiP3WO12
_chemical_formula_sum   'Ti2 P6 W2 O24'
_cell_volume   479.94985523
_cell_formula_units_Z   2
loop_
 _symmetry_equiv_pos_site_id
 _symmetry_equiv_pos_as_xyz
  1  'x, y, z'
loop_
 _atom_site_type_symbol
 _atom_site_label
 _atom_site_symmetry_multiplicity
 _atom_site_fract_x
 _atom_site_fract_y
 _atom_site_fract_z
 _atom_site_occupancy
  Ti  Ti0  1  0.13950800  0.13950800  0.13950800  1
  Ti  Ti1  1  0.63950800  0.63950800  0.63950800  1
  P  P0  1  0.03197100  0.46361700  0.75141400  1
  P  P1  1  0.46361700  0.75141400  0.03197100  1
  P  P2  1  0.75141400  0.03197100  0.46361700  1
  P  P3  1  0.25141400  0.96361700  0.53197100  1
  P  P4  1  0.53197100  0.25141400  0.96361700  1
  P  P5  1  0.96361700  0.53197100  0.25141400  1
  W  W0  1  0.35839200  0.35839200  0.35839200  1
  W  W1  1  0.85839200  0.85839200  0.85839200  1
  O  O0  1  0.13319100  0.50974000  0.28165300  1
  O  O1  1  0.28165300  0.13319100  0.50974000  1
  O  O2  1  0.06210500  0.28702800  0.92142000  1
  O  O3  1  0.50974000  0.28165300  0.13319100  1
  O  O4  1  0.00974000  0.63319100  0.78165300  1
  O  O5  1  0.21326800  0.44082100  0.57909700  1
  O  O6  1  0.28702800  0.92142000  0.06210500  1
  O  O7  1  0.44082100  0.57909700  0.21326800  1
  O  O8  1  0.21409300  0.00055200  0.36387300  1
  O  O9  1  0.57909700  0.21326800  0.44082100  1
  O  O10  1  0.07909700  0.94082100  0.71326800  1
  O  O11  1  0.36387300  0.21409300  0.00055200  1
  O  O12  1  0.63319100  0.78165300  0.00974000  1
  O  O13  1  0.92142000  0.06210500  0.28702800  1
  O  O14  1  0.42142000  0.78702800  0.56210500  1
  O  O15  1  0.78165300  0.00974000  0.63319100  1
  O  O16  1  0.56210500  0.42142000  0.78702800  1
  O  O17  1  0.71326800  0.07909700  0.94082100  1
  O  O18  1  0.78702800  0.56210500  0.42142000  1
  O  O19  1  0.00055200  0.36387300  0.21409300  1
  O  O20  1  0.50055200  0.71409300  0.86387300  1
  O  O21  1  0.94082100  0.71326800  0.07909700  1
  O  O22  1  0.71409300  0.86387300  0.50055200  1
  O  O23  1  0.86387300  0.50055200  0.71409300  1
loop_
_geom_bond_atom_site_label_1
_geom_bond_atom_site_label_2
_geom_bond_distance
_geom_bond_site_symmetry_2
O0 P5 1.555253 1_455
O0 W0 1.985107 1_555
O1 P3 1.555252 1_545
O1 W0 1.985107 1_555
O2 P0 1.531155 1_555
O2 Ti0 1.936343 1_556
O3 P4 1.555253 1_554
O3 W0 1.985107 1_555
O4 P0 1.555252 1_555
O4 W1 1.985107 1_455
O5 P0 1.552179 1_555
O5 W0 1.980096 1_555
O6 P1 1.531155 1_555
O6 Ti0 1.936343 1_565
O7 P1 1.552178 1_555
O7 W0 1.980096 1_555
O8 P3 1.524576 1_545
O8 Ti0 1.973478 1_555
O9 P2 1.552178 1_555
O9 W0 1.980096 1_555
O10 P3 1.552179 1_555
O10 W1 1.980096 1_455
O11 P4 1.524575 1_554
O11 Ti0 1.973478 1_555
O12 P1 1.555252 1_555
O12 W1 1.985107 1_554
O13 P2 1.531155 1_555
O13 Ti0 1.936343 1_655
O14 P3 1.531155 1_555
O14 Ti1 1.936343 1_555
O15 P2 1.555253 1_555
O15 W1 1.985107 1_545
O16 P4 1.531155 1_555
O16 Ti1 1.936343 1_555
O17 P4 1.552178 1_555
O17 W1 1.980096 1_545
O18 P5 1.531155 1_555
O18 Ti1 1.936343 1_555
O19 P5 1.524575 1_455
O19 Ti0 1.973478 1_555
O20 P1 1.524576 1_556
O20 Ti1 1.973478 1_555
O21 P5 1.552178 1_555
O21 W1 1.980096 1_554
O22 P2 1.524575 1_565
O22 Ti1 1.973478 1_555
O23 P0 1.524576 1_655
O23 Ti1 1.973478 1_555
