# generated using pymatgen
data_Sr6Ca2Fe5(CoO8)3
_symmetry_space_group_name_H-M   'P 1'
_cell_length_a   7.74909300
_cell_length_b   7.72996700
_cell_length_c   7.77663983
_cell_angle_alpha   89.94315099
_cell_angle_beta   90.00000000
_cell_angle_gamma   90.00000000
_symmetry_Int_Tables_number   1
_chemical_formula_structural   Sr6Ca2Fe5(CoO8)3
_chemical_formula_sum   'Sr6 Ca2 Fe5 Co3 O24'
_cell_volume   465.82230968
_cell_formula_units_Z   1
loop_
 _symmetry_equiv_pos_site_id
 _symmetry_equiv_pos_as_xyz
  1  'x, y, z'
loop_
 _atom_site_type_symbol
 _atom_site_label
 _atom_site_symmetry_multiplicity
 _atom_site_fract_x
 _atom_site_fract_y
 _atom_site_fract_z
 _atom_site_occupancy
  Sr  Sr0  1  0.74853600  0.74637400  0.25227600  1
  Sr  Sr1  1  0.74850700  0.74608200  0.74742800  1
  Sr  Sr2  1  0.25130000  0.74638000  0.74757400  1
  Sr  Sr3  1  0.74850700  0.25391800  0.25257200  1
  Sr  Sr4  1  0.74853600  0.25362600  0.74772400  1
  Sr  Sr5  1  0.25130000  0.25362000  0.25242600  1
  Ca  Ca0  1  0.25188400  0.74365000  0.25290300  1
  Ca  Ca1  1  0.25188400  0.25635000  0.74709700  1
  Fe  Fe0  1  0.00141500  0.00000000  0.00000000  1
  Fe  Fe1  1  0.00251200  0.00000000  0.50000000  1
  Fe  Fe2  1  0.49868200  0.00000000  0.00000000  1
  Fe  Fe3  1  0.00089600  0.50000000  0.00000000  1
  Fe  Fe4  1  0.49889800  0.50000000  0.00000000  1
  Co  Co0  1  0.49831500  0.00000000  0.50000000  1
  Co  Co1  1  0.00137800  0.50000000  0.50000000  1
  Co  Co2  1  0.49831700  0.50000000  0.50000000  1
  O  O0  1  0.00354200  0.75017100  0.00180200  1
  O  O1  1  0.00422900  0.74656000  0.49829300  1
  O  O2  1  0.49634600  0.74798800  0.00176700  1
  O  O3  1  0.49620100  0.73700700  0.49808100  1
  O  O4  1  0.00354200  0.24982900  0.99819800  1
  O  O5  1  0.00422900  0.25344000  0.50170700  1
  O  O6  1  0.49634600  0.25201200  0.99823300  1
  O  O7  1  0.49620100  0.26299300  0.50191900  1
  O  O8  1  0.75033700  0.00000000  0.00000000  1
  O  O9  1  0.73532900  0.00000000  0.50000000  1
  O  O10  1  0.24964300  0.00000000  0.00000000  1
  O  O11  1  0.26454100  0.00000000  0.50000000  1
  O  O12  1  0.74961700  0.50000000  0.00000000  1
  O  O13  1  0.75032100  0.50000000  0.50000000  1
  O  O14  1  0.25005900  0.50000000  0.00000000  1
  O  O15  1  0.24939700  0.50000000  0.50000000  1
  O  O16  1  0.00363600  0.99826100  0.25232300  1
  O  O17  1  0.00363600  0.00173900  0.74767700  1
  O  O18  1  0.49606100  0.99691600  0.25237600  1
  O  O19  1  0.49606100  0.00308400  0.74762400  1
  O  O20  1  0.00463700  0.50221500  0.25676800  1
  O  O21  1  0.00463700  0.49778500  0.74323200  1
  O  O22  1  0.49529400  0.50185700  0.25039100  1
  O  O23  1  0.49529400  0.49814300  0.74960900  1
loop_
_geom_bond_atom_site_label_1
_geom_bond_atom_site_label_2
_geom_bond_distance
_geom_bond_site_symmetry_2
Ca0 O22 2.655482 1_555
Ca0 O20 2.674815 1_555
Ca0 O3 2.687404 1_555
Ca0 O15 2.689404 1_555
Ca0 O1 2.706508 1_555
Ca0 O2 2.720988 1_555
Ca0 O18 2.722677 1_555
Ca0 O14 2.724485 1_555
Ca0 O0 2.742058 1_555
Ca0 O16 2.752120 1_555
Ca0 O11 2.763387 1_565
Ca0 O10 2.790567 1_565
Ca1 O23 2.655482 1_555
Ca1 O21 2.674815 1_555
Ca1 O7 2.687404 1_555
Ca1 O15 2.689404 1_555
Ca1 O5 2.706508 1_555
Ca1 O6 2.720988 1_555
Ca1 O19 2.722677 1_555
Ca1 O14 2.724485 1_556
Ca1 O4 2.742058 1_555
Ca1 O17 2.752120 1_555
Ca1 O11 2.763387 1_555
Ca1 O10 2.790567 1_556
Fe0 O10 1.923542 1_555
Fe0 O4 1.931277 1_554
Fe0 O0 1.931277 1_545
Fe0 O8 1.945627 1_455
Fe0 O16 1.962333 1_545
Fe0 O17 1.962333 1_554
Fe1 O17 1.926175 1_555
Fe1 O16 1.926175 1_545
Fe1 O1 1.959186 1_545
Fe1 O5 1.959186 1_555
Fe1 O11 2.030487 1_555
Fe1 O9 2.070426 1_455
Fe2 O10 1.929826 1_555
Fe2 O6 1.948163 1_554
Fe2 O2 1.948163 1_545
Fe2 O8 1.950098 1_555
Fe2 O18 1.962863 1_545
Fe2 O19 1.962863 1_554
Fe3 O14 1.930787 1_555
Fe3 O0 1.933987 1_555
Fe3 O4 1.933987 1_554
Fe3 O12 1.947184 1_455
Fe3 O20 1.997093 1_555
Fe3 O21 1.997093 1_554
Fe4 O6 1.917104 1_554
Fe4 O2 1.917104 1_555
Fe4 O14 1.928277 1_555
Fe4 O12 1.942845 1_555
Fe4 O22 1.947468 1_555
Fe4 O23 1.947468 1_554
Co0 O11 1.811536 1_555
Co0 O9 1.836644 1_555
Co0 O19 1.925933 1_555
Co0 O18 1.925933 1_545
Co0 O7 2.033063 1_555
Co0 O3 2.033063 1_545
Co1 O20 1.891757 1_555
Co1 O21 1.891757 1_555
Co1 O5 1.906062 1_555
Co1 O1 1.906062 1_555
Co1 O15 1.921922 1_555
Co1 O13 1.945464 1_455
Co2 O3 1.832176 1_555
Co2 O7 1.832176 1_555
Co2 O15 1.928904 1_555
Co2 O23 1.941299 1_555
Co2 O22 1.941299 1_555
Co2 O13 1.952802 1_555
O0 Sr2 2.756025 1_554
O0 Sr0 2.774831 1_455
O0 Sr1 2.796430 1_454
O1 Sr2 2.724637 1_555
O1 Sr0 2.754304 1_455
O1 Sr1 2.771360 1_455
O2 Sr2 2.741090 1_554
O2 Sr0 2.759410 1_555
O2 Sr1 2.780389 1_554
O3 Sr2 2.715044 1_555
O3 Sr0 2.735398 1_555
O3 Sr1 2.754598 1_555
O4 Sr5 2.756025 1_556
O4 Sr4 2.774831 1_455
O4 Sr3 2.796430 1_456
O5 Sr5 2.724637 1_555
O5 Sr4 2.754304 1_455
O5 Sr3 2.771360 1_455
O6 Sr5 2.741090 1_556
O6 Sr4 2.759410 1_555
O6 Sr3 2.780389 1_556
O7 Sr5 2.715044 1_555
O7 Sr4 2.735398 1_555
O7 Sr3 2.754598 1_555
O8 Sr0 2.772201 1_545
O8 Sr4 2.772201 1_554
O8 Sr3 2.778179 1_555
O8 Sr1 2.778179 1_544
O9 Sr3 2.749148 1_555
O9 Sr1 2.749148 1_545
O9 Sr4 2.751883 1_555
O9 Sr0 2.751883 1_545
O10 Sr2 2.775740 1_544
O10 Sr5 2.775740 1_555
O11 Sr2 2.748318 1_545
O11 Sr5 2.748318 1_555
O12 Sr3 2.732943 1_555
O12 Sr1 2.732943 1_554
O12 Sr0 2.735572 1_555
O12 Sr4 2.735572 1_554
O13 Sr1 2.707071 1_555
O13 Sr3 2.707071 1_555
O13 Sr0 2.707608 1_555
O13 Sr4 2.707608 1_555
O14 Sr5 2.733734 1_555
O14 Sr2 2.733734 1_554
O15 Sr5 2.709503 1_555
O15 Sr2 2.709503 1_555
O16 Sr5 2.753102 1_565
O16 Sr0 2.774676 1_455
O16 Sr3 2.795364 1_465
O17 Sr2 2.753102 1_545
O17 Sr4 2.774676 1_455
O17 Sr1 2.795364 1_445
O18 Sr5 2.744974 1_565
O18 Sr0 2.752897 1_555
O18 Sr3 2.788096 1_565
O19 Sr2 2.744974 1_545
O19 Sr4 2.752897 1_555
O19 Sr1 2.788096 1_545
O20 Sr5 2.710616 1_555
O20 Sr0 2.738902 1_455
O20 Sr3 2.761221 1_455
O21 Sr2 2.710616 1_555
O21 Sr4 2.738902 1_455
O21 Sr1 2.761221 1_455
O22 Sr5 2.693900 1_555
O22 Sr0 2.724661 1_555
O22 Sr3 2.742908 1_555
O23 Sr2 2.693900 1_555
O23 Sr4 2.724661 1_555
O23 Sr1 2.742908 1_555
