# generated using pymatgen
data_Pr2CdSb4
_symmetry_space_group_name_H-M   'P 1'
_cell_length_a   4.34914580
_cell_length_b   4.34914580
_cell_length_c   11.09948248
_cell_angle_alpha   90.00000000
_cell_angle_beta   90.00000000
_cell_angle_gamma   90.00000000
_symmetry_Int_Tables_number   1
_chemical_formula_structural   Pr2CdSb4
_chemical_formula_sum   'Pr2 Cd1 Sb4'
_cell_volume   209.94747908
_cell_formula_units_Z   1
loop_
 _symmetry_equiv_pos_site_id
 _symmetry_equiv_pos_as_xyz
  1  'x, y, z'
loop_
 _atom_site_type_symbol
 _atom_site_label
 _atom_site_symmetry_multiplicity
 _atom_site_fract_x
 _atom_site_fract_y
 _atom_site_fract_z
 _atom_site_occupancy
  Pr  Pr0  1  0.50000000  0.00000000  0.76584978  1
  Pr  Pr1  1  0.00000000  0.50000000  0.23415022  1
  Cd  Cd0  1  0.50000000  0.50000000  0.50000000  1
  Sb  Sb0  1  0.50000000  0.50000000  0.00000000  1
  Sb  Sb1  1  0.00000000  -0.00000000  0.00000000  1
  Sb  Sb2  1  0.50000000  0.00000000  0.33311350  1
  Sb  Sb3  1  0.00000000  0.50000000  0.66688650  1
loop_
_geom_bond_atom_site_label_1
_geom_bond_atom_site_label_2
_geom_bond_distance
_geom_bond_site_symmetry_2
Pr0 Sb3 3.265595 1_645
Pr0 Sb3 3.265595 1_545
Pr0 Sb3 3.265595 1_555
Pr0 Sb3 3.265595 1_655
Pr0 Sb1 3.388700 1_556
Pr0 Sb0 3.388700 1_546
Pr0 Sb1 3.388700 1_656
Pr0 Sb0 3.388700 1_556
Pr1 Sb2 3.265595 1_455
Pr1 Sb2 3.265595 1_565
Pr1 Sb2 3.265595 1_465
Pr1 Sb2 3.265595 1_555
Pr1 Sb0 3.388700 1_455
Pr1 Sb1 3.388700 1_555
Pr1 Sb1 3.388700 1_565
Pr1 Sb0 3.388700 1_555
Cd0 Sb3 2.856568 1_555
Cd0 Sb3 2.856568 1_655
Cd0 Sb2 2.856568 1_565
Cd0 Sb2 2.856568 1_555
Cd0 Pr1 3.665509 1_555
Cd0 Pr1 3.665509 1_655
Cd0 Pr0 3.665509 1_565
Cd0 Pr0 3.665509 1_555
Sb0 Sb1 3.075310 1_555
Sb0 Sb1 3.075310 1_655
Sb0 Sb1 3.075310 1_565
Sb0 Sb1 3.075310 1_665
