# generated using pymatgen
data_SrCa4Al10(SiO5)10
_symmetry_space_group_name_H-M   'P 1'
_cell_length_a   8.93133900
_cell_length_b   14.14179126
_cell_length_c   15.38973704
_cell_angle_alpha   73.13433898
_cell_angle_beta   73.33558475
_cell_angle_gamma   71.63832068
_symmetry_Int_Tables_number   1
_chemical_formula_structural   SrCa4Al10(SiO5)10
_chemical_formula_sum   'Sr2 Ca8 Al20 Si20 O100'
_cell_volume   1724.15909371
_cell_formula_units_Z   2
loop_
 _symmetry_equiv_pos_site_id
 _symmetry_equiv_pos_as_xyz
  1  'x, y, z'
loop_
 _atom_site_type_symbol
 _atom_site_label
 _atom_site_symmetry_multiplicity
 _atom_site_fract_x
 _atom_site_fract_y
 _atom_site_fract_z
 _atom_site_occupancy
  Sr  Sr0  1  0.43027100  0.25004200  0.54779200  1
  Sr  Sr1  1  0.83031200  0.25004900  0.74773500  1
  Ca  Ca0  1  0.36259400  0.74986600  0.85154600  1
  Ca  Ca1  1  0.76273500  0.74993300  0.05144400  1
  Ca  Ca2  1  0.16276600  0.74996300  0.25120000  1
  Ca  Ca3  1  0.56279100  0.74999900  0.45108400  1
  Ca  Ca4  1  0.96268800  0.74993000  0.65133600  1
  Ca  Ca5  1  0.23725600  0.25006000  0.94886300  1
  Ca  Ca6  1  0.63711900  0.25006400  0.14862000  1
  Ca  Ca7  1  0.03770300  0.25006800  0.34802900  1
  Al  Al0  1  0.59935400  0.50159400  0.80031500  1
  Al  Al1  1  0.19869200  0.50184700  0.60002900  1
  Al  Al2  1  0.79975200  0.50037300  0.39957900  1
  Al  Al3  1  0.40009500  0.50004200  0.19975400  1
  Al  Al4  1  0.00032600  0.50008900  0.00012000  1
  Al  Al5  1  0.00005300  0.99964000  0.49974600  1
  Al  Al6  1  0.60015000  0.99996400  0.29976300  1
  Al  Al7  1  0.20039700  0.99989700  0.10012300  1
  Al  Al8  1  0.80060000  0.99843400  0.90098800  1
  Al  Al9  1  0.40021400  0.99813200  0.70074100  1
  Al  Al10  1  0.09937900  0.50041700  0.80028200  1
  Al  Al11  1  0.49992400  0.49999400  0.00018400  1
  Al  Al12  1  0.90042500  0.50013100  0.19985000  1
  Al  Al13  1  0.29996600  0.50174700  0.39895600  1
  Al  Al14  1  0.69893800  0.50206900  0.59919600  1
  Al  Al15  1  0.29970300  0.99957900  0.90047000  1
  Al  Al16  1  0.69993400  0.99998700  0.10017700  1
  Al  Al17  1  0.10055000  0.99987000  0.29986500  1
  Al  Al18  1  0.50137800  0.99824600  0.49969000  1
  Al  Al19  1  0.90060500  0.99795700  0.69997900  1
  Si  Si0  1  0.42860800  0.37056700  0.72863400  1
  Si  Si1  1  0.03008400  0.37062000  0.52551000  1
  Si  Si2  1  0.63252500  0.36971200  0.32561400  1
  Si  Si3  1  0.23131900  0.36894900  0.12734300  1
  Si  Si4  1  0.83083900  0.36968800  0.92877700  1
  Si  Si5  1  0.27376600  0.86859000  0.62490500  1
  Si  Si6  1  0.87376300  0.86880800  0.42488500  1
  Si  Si7  1  0.47373500  0.86905200  0.22504600  1
  Si  Si8  1  0.07364600  0.86862600  0.02534800  1
  Si  Si9  1  0.67361300  0.86849800  0.82530300  1
  Si  Si10  1  0.36853200  0.63138700  0.67275900  1
  Si  Si11  1  0.96848500  0.63146200  0.47234100  1
  Si  Si12  1  0.56872200  0.63132300  0.27235800  1
  Si  Si13  1  0.16896900  0.63090100  0.07266700  1
  Si  Si14  1  0.76867900  0.63113000  0.87281200  1
  Si  Si15  1  0.52498300  0.12948800  0.77685800  1
  Si  Si16  1  0.12660300  0.12941600  0.57374300  1
  Si  Si17  1  0.72827600  0.13034100  0.37347700  1
  Si  Si18  1  0.32644700  0.13109200  0.17490500  1
  Si  Si19  1  0.92657700  0.13034800  0.97665900  1
  O  O0  1  0.99256700  0.10760300  0.66935000  1
  O  O1  1  0.59315000  0.10860800  0.46866700  1
  O  O2  1  0.18796200  0.11338900  0.27004300  1
  O  O3  1  0.78774500  0.11334600  0.07130400  1
  O  O4  1  0.38733300  0.11236100  0.87203700  1
  O  O5  1  0.92111000  0.61329000  0.78464500  1
  O  O6  1  0.52052800  0.61377600  0.58456100  1
  O  O7  1  0.12112300  0.61378300  0.38440600  1
  O  O8  1  0.72170800  0.61348200  0.18446000  1
  O  O9  1  0.32142300  0.61336000  0.98450300  1
  O  O10  1  0.81162500  0.88627400  0.73008900  1
  O  O11  1  0.41217100  0.88620500  0.52992700  1
  O  O12  1  0.01255600  0.88655700  0.32984500  1
  O  O13  1  0.61215000  0.88666500  0.12989000  1
  O  O14  1  0.21171200  0.88668000  0.92999700  1
  O  O15  1  0.87870800  0.39238900  0.61240000  1
  O  O16  1  0.48004800  0.39140100  0.41212900  1
  O  O17  1  0.07872100  0.38658600  0.21543300  1
  O  O18  1  0.67847600  0.38664200  0.01665900  1
  O  O19  1  0.27724400  0.38763600  0.81698800  1
  O  O20  1  0.07289600  0.44090600  0.71145300  1
  O  O21  1  0.67282600  0.44090900  0.51157500  1
  O  O22  1  0.27314300  0.44071500  0.31152100  1
  O  O23  1  0.87330900  0.44063200  0.11153600  1
  O  O24  1  0.47312200  0.44074900  0.91149300  1
  O  O25  1  0.57433900  0.93984300  0.61237600  1
  O  O26  1  0.17476600  0.94028400  0.41210800  1
  O  O27  1  0.77440400  0.94056800  0.21218700  1
  O  O28  1  0.37455900  0.94027200  0.01245600  1
  O  O29  1  0.97426000  0.93979200  0.81247200  1
  O  O30  1  0.72618500  0.56014700  0.68838500  1
  O  O31  1  0.32621000  0.56014200  0.48830200  1
  O  O32  1  0.92708500  0.55965400  0.28820600  1
  O  O33  1  0.52692000  0.55938900  0.08841800  1
  O  O34  1  0.12682600  0.55971600  0.88855200  1
  O  O35  1  0.22564600  0.05911300  0.78779500  1
  O  O36  1  0.82558000  0.05913600  0.58792100  1
  O  O37  1  0.42575300  0.05934400  0.38778300  1
  O  O38  1  0.02585700  0.05939900  0.18776100  1
  O  O39  1  0.62578100  0.05926800  0.98776100  1
  O  O40  1  0.25523200  0.75001700  0.64768400  1
  O  O41  1  0.85539600  0.75017300  0.44771800  1
  O  O42  1  0.45533700  0.75026900  0.24766400  1
  O  O43  1  0.05558300  0.74983000  0.04764300  1
  O  O44  1  0.65556400  0.74990500  0.84759100  1
  O  O45  1  0.53592000  0.24996100  0.75191100  1
  O  O46  1  0.13501500  0.24996700  0.55349400  1
  O  O47  1  0.74289700  0.24996200  0.35297100  1
  O  O48  1  0.34483100  0.24995400  0.15228500  1
  O  O49  1  0.94376600  0.24996100  0.95172600  1
  O  O50  1  0.56599000  0.43255300  0.71418700  1
  O  O51  1  0.16722400  0.43253000  0.51242800  1
  O  O52  1  0.76682500  0.43359700  0.31220900  1
  O  O53  1  0.36472300  0.43378100  0.11312800  1
  O  O54  1  0.96564700  0.43363600  0.91402200  1
  O  O55  1  0.08825100  0.93257200  0.61275900  1
  O  O56  1  0.68821600  0.93254900  0.41278000  1
  O  O57  1  0.28807300  0.93375400  0.21337000  1
  O  O58  1  0.88754900  0.93255700  0.01436600  1
  O  O59  1  0.48748800  0.93265700  0.81434800  1
  O  O60  1  0.23353300  0.56736700  0.68737400  1
  O  O61  1  0.83428300  0.56748900  0.48575000  1
  O  O62  1  0.43420200  0.56756400  0.28576700  1
  O  O63  1  0.03504300  0.56630100  0.08683200  1
  O  O64  1  0.63355900  0.56744100  0.88738100  1
  O  O65  1  0.71211000  0.06738700  0.78720600  1
  O  O66  1  0.31320200  0.06744400  0.58542000  1
  O  O67  1  0.91372200  0.06634100  0.38563100  1
  O  O68  1  0.51174900  0.06617000  0.18663200  1
  O  O69  1  0.11250000  0.06634400  0.98747300  1
  O  O70  1  0.76622900  0.38857700  0.83448400  1
  O  O71  1  0.36516800  0.38932400  0.63393600  1
  O  O72  1  0.96770200  0.38494800  0.43135500  1
  O  O73  1  0.56830300  0.38430500  0.23199600  1
  O  O74  1  0.16738500  0.38431100  0.03315800  1
  O  O75  1  0.92481300  0.88453800  0.51303300  1
  O  O76  1  0.52505400  0.88443200  0.31316000  1
  O  O77  1  0.12544700  0.88431200  0.11319200  1
  O  O78  1  0.72520200  0.88402300  0.91323300  1
  O  O79  1  0.32473100  0.88411700  0.71311400  1
  O  O80  1  0.03211200  0.61584000  0.56676000  1
  O  O81  1  0.63228400  0.61552600  0.36682000  1
  O  O82  1  0.23258800  0.61558400  0.16690100  1
  O  O83  1  0.83292800  0.61569800  0.96692000  1
  O  O84  1  0.43232700  0.61601000  0.76688100  1
  O  O85  1  0.87702800  0.11140500  0.88994800  1
  O  O86  1  0.47659700  0.11066900  0.68969300  1
  O  O87  1  0.07564500  0.11502800  0.48533200  1
  O  O88  1  0.67577200  0.11566900  0.28570600  1
  O  O89  1  0.27482100  0.11567000  0.08689700  1
  O  O90  1  0.69279200  0.74991100  0.63601900  1
  O  O91  1  0.29282400  0.74993700  0.43598600  1
  O  O92  1  0.89278400  0.74988000  0.23596500  1
  O  O93  1  0.49273800  0.74996000  0.03598500  1
  O  O94  1  0.09282600  0.74987600  0.83599600  1
  O  O95  1  0.11839100  0.25009100  0.76456200  1
  O  O96  1  0.71808500  0.25008100  0.56562400  1
  O  O97  1  0.30695700  0.25006800  0.36486400  1
  O  O98  1  0.90729100  0.25009000  0.16412900  1
  O  O99  1  0.50737800  0.25010000  0.96380600  1
loop_
_geom_bond_atom_site_label_1
_geom_bond_atom_site_label_2
_geom_bond_distance
_geom_bond_site_symmetry_2
Ca0 O9 2.402562 1_555
Ca0 O14 2.407640 1_555
Ca0 O84 2.427331 1_555
Ca0 O79 2.432962 1_555
Ca0 O94 2.488551 1_555
Ca0 O44 2.599985 1_555
Ca1 O8 2.402407 1_555
Ca1 O13 2.406269 1_555
Ca1 O78 2.429096 1_554
Ca1 O83 2.429834 1_554
Ca1 O93 2.489985 1_555
Ca1 O43 2.598902 1_655
Ca2 O7 2.402669 1_555
Ca2 O12 2.405983 1_555
Ca2 O77 2.428449 1_555
Ca2 O82 2.429667 1_555
Ca2 O92 2.489084 1_455
Ca2 O42 2.599317 1_555
Ca3 O11 2.404093 1_555
Ca3 O6 2.406344 1_555
Ca3 O76 2.428668 1_555
Ca3 O81 2.430857 1_555
Ca3 O91 2.488068 1_555
Ca3 O41 2.599740 1_555
Ca4 O10 2.405445 1_555
Ca4 O5 2.407412 1_555
Ca4 O80 2.429613 1_655
Ca4 O75 2.434052 1_555
Ca4 O90 2.488488 1_555
Ca4 O40 2.597633 1_655
Ca5 O19 2.400547 1_555
Ca5 O4 2.401903 1_555
Ca5 O74 2.428012 1_556
Ca5 O89 2.429317 1_556
Ca5 O99 2.488459 1_555
Ca5 O49 2.609402 1_455
Ca6 O18 2.394680 1_555
Ca6 O3 2.396226 1_555
Ca6 O73 2.419541 1_555
Ca6 O88 2.420742 1_555
Ca6 O98 2.492078 1_555
Ca6 O48 2.595395 1_555
Ca7 O17 2.399255 1_555
Ca7 O2 2.401156 1_555
Ca7 O72 2.425255 1_455
Ca7 O87 2.426574 1_555
Ca7 O97 2.491490 1_555
Ca7 O47 2.612682 1_455
Al0 O70 1.874394 1_555
Al0 O84 1.882716 1_555
Al0 O30 1.892158 1_555
Al0 O24 1.894609 1_555
Al0 O64 1.973283 1_555
Al0 O50 1.989918 1_555
Al1 O71 1.867541 1_555
Al1 O80 1.876509 1_555
Al1 O31 1.891857 1_555
Al1 O20 1.895541 1_555
Al1 O60 1.976501 1_555
Al1 O51 2.003788 1_555
Al2 O81 1.888057 1_555
Al2 O72 1.889062 1_555
Al2 O32 1.892853 1_555
Al2 O21 1.897883 1_555
Al2 O61 1.975859 1_555
Al2 O52 1.981095 1_555
Al3 O33 1.890677 1_555
Al3 O82 1.891567 1_555
Al3 O73 1.894513 1_555
Al3 O22 1.895138 1_555
Al3 O62 1.976054 1_555
Al3 O53 1.976890 1_555
Al4 O74 1.891679 1_555
Al4 O83 1.892803 1_454
Al4 O23 1.892819 1_455
Al4 O34 1.892918 1_554
Al4 O54 1.968778 1_454
Al4 O63 1.974594 1_555
Al5 O75 1.886838 1_455
Al5 O87 1.888366 1_565
Al5 O26 1.892941 1_555
Al5 O36 1.897702 1_465
Al5 O55 1.975577 1_555
Al5 O67 1.981334 1_465
Al6 O27 1.890618 1_555
Al6 O76 1.891397 1_555
Al6 O88 1.894056 1_565
Al6 O37 1.895286 1_565
Al6 O56 1.975534 1_555
Al6 O68 1.976876 1_565
Al7 O89 1.891690 1_565
Al7 O28 1.892346 1_555
Al7 O77 1.892562 1_555
Al7 O38 1.893007 1_565
Al7 O69 1.968593 1_564
Al7 O57 1.975078 1_555
Al8 O85 1.873561 1_565
Al8 O78 1.882440 1_555
Al8 O29 1.892733 1_555
Al8 O39 1.893624 1_565
Al8 O58 1.973222 1_556
Al8 O65 1.989759 1_565
Al9 O86 1.867509 1_565
Al9 O79 1.877120 1_555
Al9 O25 1.891362 1_555
Al9 O35 1.895987 1_565
Al9 O59 1.977196 1_555
Al9 O66 2.004041 1_565
Al10 O19 1.879755 1_555
Al10 O5 1.880570 1_455
Al10 O34 1.894797 1_555
Al10 O20 1.900398 1_555
Al10 O60 1.979241 1_555
Al10 O54 1.983646 1_455
Al11 O9 1.885734 1_554
Al11 O18 1.887458 1_555
Al11 O33 1.893339 1_555
Al11 O24 1.897266 1_554
Al11 O64 1.978916 1_554
Al11 O53 1.979986 1_555
Al12 O17 1.885812 1_655
Al12 O8 1.886254 1_555
Al12 O32 1.894832 1_555
Al12 O23 1.895950 1_555
Al12 O52 1.969531 1_555
Al12 O63 1.977748 1_655
Al13 O16 1.866884 1_555
Al13 O7 1.875272 1_555
Al13 O31 1.895584 1_555
Al13 O22 1.897904 1_555
Al13 O62 1.975491 1_555
Al13 O51 1.991267 1_555
Al14 O15 1.860174 1_555
Al14 O6 1.870510 1_555
Al14 O30 1.894589 1_555
Al14 O21 1.898690 1_555
Al14 O61 1.980464 1_555
Al14 O50 2.007216 1_555
Al15 O4 1.879607 1_565
Al15 O14 1.880936 1_555
Al15 O28 1.894587 1_556
Al15 O35 1.900799 1_565
Al15 O59 1.979432 1_555
Al15 O69 1.983628 1_565
Al16 O13 1.884892 1_555
Al16 O3 1.887156 1_565
Al16 O27 1.893389 1_555
Al16 O39 1.897438 1_564
Al16 O58 1.978888 1_555
Al16 O68 1.979928 1_565
Al17 O2 1.885186 1_565
Al17 O12 1.885425 1_555
Al17 O26 1.895648 1_555
Al17 O38 1.895715 1_565
Al17 O67 1.969436 1_465
Al17 O57 1.976904 1_555
Al18 O1 1.866747 1_565
Al18 O11 1.875293 1_555
Al18 O25 1.895309 1_555
Al18 O37 1.898637 1_565
Al18 O56 1.975082 1_555
Al18 O66 1.991032 1_565
Al19 O0 1.859396 1_565
Al19 O10 1.869678 1_555
Al19 O29 1.895386 1_555
Al19 O36 1.898242 1_565
Al19 O55 1.979682 1_655
Al19 O65 2.006875 1_565
O0 Si16 1.628572 1_655
O0 Sr1 2.486260 1_555
O1 Si17 1.629564 1_555
O1 Sr0 2.482682 1_555
O2 Si18 1.637065 1_555
O3 Si19 1.632683 1_554
O4 Si15 1.632357 1_555
O5 Si14 1.637365 1_555
O6 Si10 1.635124 1_555
O7 Si11 1.635813 1_455
O8 Si12 1.637457 1_555
O9 Si13 1.636893 1_556
O10 Si9 1.635636 1_555
O11 Si5 1.634952 1_555
O12 Si6 1.637705 1_455
O13 Si7 1.636732 1_555
O14 Si8 1.637757 1_556
O15 Si1 1.628051 1_655
O15 Sr1 2.485120 1_555
O16 Si2 1.629498 1_555
O16 Sr0 2.481668 1_555
O17 Si3 1.637050 1_555
O18 Si4 1.632642 1_554
O19 Si0 1.632589 1_555
O40 Si5 1.662098 1_555
O40 Si10 1.663166 1_555
O41 Si6 1.662333 1_555
O41 Si11 1.662580 1_555
O42 Si7 1.664848 1_555
O42 Si12 1.666138 1_555
O43 Si8 1.664526 1_555
O43 Si13 1.666524 1_555
O44 Si9 1.661680 1_555
O44 Si14 1.664372 1_555
O45 Si15 1.662331 1_555
O45 Si0 1.663860 1_555
O45 Sr1 2.611997 1_555
O46 Si16 1.663767 1_555
O46 Si1 1.665143 1_555
O46 Sr0 2.613547 1_555
O47 Si17 1.668565 1_555
O47 Si2 1.670158 1_555
O48 Si18 1.665895 1_555
O48 Si3 1.667484 1_555
O49 Si19 1.668927 1_555
O49 Si4 1.670381 1_555
O50 Si0 1.652721 1_555
O51 Si1 1.655060 1_555
O52 Si2 1.652331 1_555
O53 Si3 1.652402 1_555
O54 Si4 1.651994 1_555
O55 Si5 1.653452 1_555
O56 Si6 1.652872 1_555
O57 Si7 1.654916 1_555
O58 Si8 1.653549 1_655
O59 Si9 1.654318 1_555
O60 Si10 1.654713 1_555
O61 Si11 1.652482 1_555
O62 Si12 1.652695 1_555
O63 Si13 1.654150 1_555
O64 Si14 1.652362 1_555
O65 Si15 1.654273 1_555
O66 Si16 1.654697 1_555
O67 Si17 1.653001 1_555
O68 Si18 1.652985 1_555
O69 Si19 1.651820 1_455
O70 Si4 1.633521 1_555
O70 Sr1 2.514097 1_555
O71 Si0 1.633995 1_555
O71 Sr0 2.515335 1_555
O72 Si1 1.634832 1_655
O73 Si2 1.635308 1_555
O74 Si3 1.639536 1_555
O75 Si6 1.640552 1_555
O76 Si7 1.639112 1_555
O77 Si8 1.639594 1_555
O78 Si9 1.638730 1_555
O79 Si5 1.639690 1_555
O80 Si11 1.640554 1_455
O81 Si12 1.640285 1_555
O82 Si13 1.638824 1_555
O83 Si14 1.639762 1_555
O84 Si10 1.637875 1_555
O85 Si19 1.633772 1_555
O85 Sr1 2.515300 1_555
O86 Si15 1.633755 1_555
O86 Sr0 2.516323 1_555
O87 Si16 1.635230 1_555
O88 Si17 1.635466 1_555
O89 Si18 1.639377 1_555
O95 Sr1 2.658990 1_455
O96 Sr0 2.662459 1_555
