# generated using pymatgen
data_Tl(V3S4)4
_symmetry_space_group_name_H-M   'P 1'
_cell_length_a   6.75047535
_cell_length_b   18.65752656
_cell_length_c   31.74214101
_cell_angle_alpha   91.16757718
_cell_angle_beta   90.06384723
_cell_angle_gamma   89.99467573
_symmetry_Int_Tables_number   1
_chemical_formula_structural   Tl(V3S4)4
_chemical_formula_sum   'Tl8 V96 S128'
_cell_volume   3997.00038482
_cell_formula_units_Z   8
loop_
 _symmetry_equiv_pos_site_id
 _symmetry_equiv_pos_as_xyz
  1  'x, y, z'
loop_
 _atom_site_type_symbol
 _atom_site_label
 _atom_site_symmetry_multiplicity
 _atom_site_fract_x
 _atom_site_fract_y
 _atom_site_fract_z
 _atom_site_occupancy
  Tl  Tl0_0  1  0.25000000  0.00000000  0.00000000  1
  Tl  Tl0_1  1  0.25000000  0.00000000  0.50000000  1
  Tl  Tl0_2  1  0.25000000  0.50000000  0.00000000  1
  Tl  Tl0_3  1  0.25000000  0.50000000  0.50000000  1
  Tl  Tl0_4  1  0.75000000  0.00000000  0.00000000  1
  Tl  Tl0_5  1  0.75000000  0.00000000  0.50000000  1
  Tl  Tl0_6  1  0.75000000  0.50000000  0.00000000  1
  Tl  Tl0_7  1  0.75000000  0.50000000  0.50000000  1
  V  V0_0  1  0.37495072  0.03477688  0.28031871  1
  V  V0_1  1  0.37495072  0.03477688  0.78031871  1
  V  V0_2  1  0.37495072  0.53477688  0.28031871  1
  V  V0_3  1  0.37495072  0.53477688  0.78031871  1
  V  V0_4  1  0.87495071  0.03477688  0.28031871  1
  V  V0_5  1  0.87495071  0.03477688  0.78031871  1
  V  V0_6  1  0.87495072  0.53477688  0.28031871  1
  V  V0_7  1  0.87495072  0.53477688  0.78031871  1
  V  V1_0  1  0.37407156  0.28382215  0.03109442  1
  V  V1_1  1  0.37407156  0.28382215  0.53109442  1
  V  V1_2  1  0.37407156  0.78382215  0.03109442  1
  V  V1_3  1  0.37407156  0.78382215  0.53109442  1
  V  V1_4  1  0.87407157  0.28382215  0.03109442  1
  V  V1_5  1  0.87407156  0.28382215  0.53109442  1
  V  V1_6  1  0.87407156  0.78382215  0.03109442  1
  V  V1_7  1  0.87407156  0.78382214  0.53109442  1
  V  V2_0  1  0.37497107  0.05679595  0.37691615  1
  V  V2_1  1  0.37497107  0.05679595  0.87691615  1
  V  V2_2  1  0.37497107  0.55679594  0.37691615  1
  V  V2_3  1  0.37497107  0.55679594  0.87691615  1
  V  V2_4  1  0.87497107  0.05679595  0.37691615  1
  V  V2_5  1  0.87497107  0.05679595  0.87691615  1
  V  V2_6  1  0.87497107  0.55679595  0.37691615  1
  V  V2_7  1  0.87497107  0.55679594  0.87691615  1
  V  V3_0  1  0.37466307  0.30632399  0.12923170  1
  V  V3_1  1  0.37466307  0.30632399  0.62923170  1
  V  V3_2  1  0.37466307  0.80632399  0.12923170  1
  V  V3_3  1  0.37466307  0.80632399  0.62923170  1
  V  V3_4  1  0.87466307  0.30632399  0.12923170  1
  V  V3_5  1  0.87466307  0.30632399  0.62923170  1
  V  V3_6  1  0.87466307  0.80632399  0.12923170  1
  V  V3_7  1  0.87466307  0.80632399  0.62923170  1
  V  V4_0  1  0.37534936  0.40293961  0.33745445  1
  V  V4_1  1  0.37534936  0.40293961  0.83745446  1
  V  V4_2  1  0.37534936  0.90293961  0.33745445  1
  V  V4_3  1  0.37534936  0.90293961  0.83745446  1
  V  V4_4  1  0.87534936  0.40293961  0.33745446  1
  V  V4_5  1  0.87534936  0.40293961  0.83745446  1
  V  V4_6  1  0.87534936  0.90293961  0.33745445  1
  V  V4_7  1  0.87534936  0.90293961  0.83745446  1
  V  V5_0  1  0.37362477  0.15496338  0.08863503  1
  V  V5_1  1  0.37362477  0.15496338  0.58863503  1
  V  V5_2  1  0.37362477  0.65496338  0.08863503  1
  V  V5_3  1  0.37362477  0.65496338  0.58863503  1
  V  V5_4  1  0.87362477  0.15496338  0.08863503  1
  V  V5_5  1  0.87362476  0.15496338  0.58863503  1
  V  V5_6  1  0.87362476  0.65496338  0.08863503  1
  V  V5_7  1  0.87362477  0.65496338  0.58863503  1
  V  V6_0  1  0.12592844  0.21617785  0.46890558  1
  V  V6_1  1  0.12592844  0.21617785  0.96890558  1
  V  V6_2  1  0.12592844  0.71617785  0.46890558  1
  V  V6_3  1  0.12592844  0.71617785  0.96890558  1
  V  V6_4  1  0.62592844  0.21617785  0.46890558  1
  V  V6_5  1  0.62592844  0.21617785  0.96890558  1
  V  V6_6  1  0.62592843  0.71617786  0.46890558  1
  V  V6_7  1  0.62592843  0.71617785  0.96890558  1
  V  V7_0  1  0.12504929  0.46522312  0.21968129  1
  V  V7_1  1  0.12504929  0.46522312  0.71968129  1
  V  V7_2  1  0.12504929  0.96522312  0.21968129  1
  V  V7_3  1  0.12504929  0.96522312  0.71968129  1
  V  V7_4  1  0.62504929  0.46522312  0.21968129  1
  V  V7_5  1  0.62504929  0.46522312  0.71968129  1
  V  V7_6  1  0.62504929  0.96522312  0.21968129  1
  V  V7_7  1  0.62504929  0.96522312  0.71968129  1
  V  V8_0  1  0.12533693  0.19367601  0.37076830  1
  V  V8_1  1  0.12533693  0.19367601  0.87076830  1
  V  V8_2  1  0.12533693  0.69367601  0.37076830  1
  V  V8_3  1  0.12533693  0.69367601  0.87076830  1
  V  V8_4  1  0.62533693  0.19367601  0.37076830  1
  V  V8_5  1  0.62533693  0.19367601  0.87076830  1
  V  V8_6  1  0.62533693  0.69367601  0.37076830  1
  V  V8_7  1  0.62533693  0.69367601  0.87076830  1
  V  V9_0  1  0.12502893  0.44320405  0.12308386  1
  V  V9_1  1  0.12502893  0.44320405  0.62308386  1
  V  V9_2  1  0.12502893  0.94320405  0.12308386  1
  V  V9_3  1  0.12502893  0.94320406  0.62308386  1
  V  V9_4  1  0.62502893  0.44320405  0.12308386  1
  V  V9_5  1  0.62502893  0.44320405  0.62308386  1
  V  V9_6  1  0.62502893  0.94320405  0.12308386  1
  V  V9_7  1  0.62502893  0.94320405  0.62308386  1
  V  V10_0  1  0.12637524  0.34503662  0.41136497  1
  V  V10_1  1  0.12637524  0.34503662  0.91136497  1
  V  V10_2  1  0.12637524  0.84503662  0.41136497  1
  V  V10_3  1  0.12637524  0.84503662  0.91136497  1
  V  V10_4  1  0.62637524  0.34503662  0.41136497  1
  V  V10_5  1  0.62637524  0.34503662  0.91136497  1
  V  V10_6  1  0.62637524  0.84503662  0.41136497  1
  V  V10_7  1  0.62637523  0.84503662  0.91136497  1
  V  V11_0  1  0.12465064  0.09706039  0.16254555  1
  V  V11_1  1  0.12465064  0.09706039  0.66254555  1
  V  V11_2  1  0.12465064  0.59706039  0.16254555  1
  V  V11_3  1  0.12465064  0.59706039  0.66254555  1
  V  V11_4  1  0.62465064  0.09706039  0.16254555  1
  V  V11_5  1  0.62465064  0.09706039  0.66254555  1
  V  V11_6  1  0.62465064  0.59706039  0.16254555  1
  V  V11_7  1  0.62465064  0.59706039  0.66254555  1
  S  S0_0  1  0.37562583  0.25067484  0.41700672  1
  S  S0_1  1  0.37562583  0.25067484  0.91700672  1
  S  S0_2  1  0.37562583  0.75067484  0.41700672  1
  S  S0_3  1  0.37562583  0.75067484  0.91700672  1
  S  S0_4  1  0.87562583  0.25067484  0.41700672  1
  S  S0_5  1  0.87562583  0.25067484  0.91700672  1
  S  S0_6  1  0.87562583  0.75067484  0.41700672  1
  S  S0_7  1  0.87562583  0.75067484  0.91700672  1
  S  S1_0  1  0.37484126  0.50114130  0.16788742  1
  S  S1_1  1  0.37484125  0.50114130  0.66788742  1
  S  S1_2  1  0.37484126  0.00114130  0.16788742  1
  S  S1_3  1  0.37484125  0.00114130  0.66788742  1
  S  S1_4  1  0.87484126  0.50114130  0.16788742  1
  S  S1_5  1  0.87484126  0.50114130  0.66788742  1
  S  S1_6  1  0.87484125  0.00114130  0.16788742  1
  S  S1_7  1  0.87484126  0.00114130  0.66788742  1
  S  S2_0  1  0.12515874  0.99885870  0.33211259  1
  S  S2_1  1  0.12515874  0.99885870  0.83211259  1
  S  S2_2  1  0.12515874  0.49885870  0.33211259  1
  S  S2_3  1  0.12515874  0.49885870  0.83211259  1
  S  S2_4  1  0.62515875  0.99885870  0.33211259  1
  S  S2_5  1  0.62515875  0.99885870  0.83211259  1
  S  S2_6  1  0.62515875  0.49885870  0.33211259  1
  S  S2_7  1  0.62515875  0.49885870  0.83211259  1
  S  S3_0  1  0.12437417  0.24932515  0.08299329  1
  S  S3_1  1  0.12437417  0.24932515  0.58299329  1
  S  S3_2  1  0.12437417  0.74932515  0.08299329  1
  S  S3_3  1  0.12437417  0.74932515  0.58299329  1
  S  S3_4  1  0.62437418  0.24932515  0.08299329  1
  S  S3_5  1  0.62437418  0.24932515  0.58299329  1
  S  S3_6  1  0.62437418  0.74932516  0.08299329  1
  S  S3_7  1  0.62437418  0.74932515  0.58299329  1
  S  S4_0  1  0.37503104  0.14810175  0.32523758  1
  S  S4_1  1  0.37503104  0.14810175  0.82523758  1
  S  S4_2  1  0.37503104  0.64810175  0.32523758  1
  S  S4_3  1  0.37503104  0.64810175  0.82523758  1
  S  S4_4  1  0.87503104  0.14810175  0.32523758  1
  S  S4_5  1  0.87503104  0.14810175  0.82523758  1
  S  S4_6  1  0.87503104  0.64810175  0.32523758  1
  S  S4_7  1  0.87503104  0.64810175  0.82523758  1
  S  S5_0  1  0.37568302  0.39839671  0.07646121  1
  S  S5_1  1  0.37568302  0.39839671  0.57646121  1
  S  S5_2  1  0.37568302  0.89839671  0.07646121  1
  S  S5_3  1  0.37568302  0.89839671  0.57646121  1
  S  S5_4  1  0.87568302  0.39839671  0.07646121  1
  S  S5_5  1  0.87568302  0.39839671  0.57646121  1
  S  S5_6  1  0.87568302  0.89839671  0.07646121  1
  S  S5_7  1  0.87568302  0.89839671  0.57646121  1
  S  S6_0  1  0.37721388  0.43573742  0.41229436  1
  S  S6_1  1  0.37721388  0.43573742  0.91229436  1
  S  S6_2  1  0.37721388  0.93573742  0.41229436  1
  S  S6_3  1  0.37721388  0.93573741  0.91229436  1
  S  S6_4  1  0.87721388  0.43573742  0.41229436  1
  S  S6_5  1  0.87721388  0.43573742  0.91229436  1
  S  S6_6  1  0.87721388  0.93573741  0.41229436  1
  S  S6_7  1  0.87721388  0.93573742  0.91229436  1
  S  S7_0  1  0.37462738  0.18626824  0.16285134  1
  S  S7_1  1  0.37462738  0.18626824  0.66285134  1
  S  S7_2  1  0.37462738  0.68626824  0.16285134  1
  S  S7_3  1  0.37462738  0.68626824  0.66285134  1
  S  S7_4  1  0.87462738  0.18626824  0.16285134  1
  S  S7_5  1  0.87462738  0.18626824  0.66285134  1
  S  S7_6  1  0.87462738  0.68626824  0.16285134  1
  S  S7_7  1  0.87462738  0.68626824  0.66285134  1
  S  S8_0  1  0.37523159  0.41409577  0.25990065  1
  S  S8_1  1  0.37523158  0.41409577  0.75990065  1
  S  S8_2  1  0.37523159  0.91409577  0.25990065  1
  S  S8_3  1  0.37523158  0.91409577  0.75990065  1
  S  S8_4  1  0.87523159  0.41409577  0.25990065  1
  S  S8_5  1  0.87523158  0.41409577  0.75990065  1
  S  S8_6  1  0.87523158  0.91409577  0.25990065  1
  S  S8_7  1  0.87523158  0.91409577  0.75990065  1
  S  S9_0  1  0.37690446  0.16403155  0.00945874  1
  S  S9_1  1  0.37690446  0.16403155  0.50945874  1
  S  S9_2  1  0.37690446  0.66403155  0.00945874  1
  S  S9_3  1  0.37690446  0.66403155  0.50945874  1
  S  S9_4  1  0.87690446  0.16403155  0.00945874  1
  S  S9_5  1  0.87690446  0.16403155  0.50945874  1
  S  S9_6  1  0.87690446  0.66403155  0.00945874  1
  S  S9_7  1  0.87690446  0.66403155  0.50945874  1
  S  S10_0  1  0.12431698  0.10160329  0.42353879  1
  S  S10_1  1  0.12431698  0.10160329  0.92353879  1
  S  S10_2  1  0.12431698  0.60160329  0.42353879  1
  S  S10_3  1  0.12431698  0.60160329  0.92353879  1
  S  S10_4  1  0.62431698  0.10160329  0.42353879  1
  S  S10_5  1  0.62431699  0.10160329  0.92353879  1
  S  S10_6  1  0.62431699  0.60160329  0.42353879  1
  S  S10_7  1  0.62431698  0.60160329  0.92353879  1
  S  S11_0  1  0.12496897  0.35189825  0.17476243  1
  S  S11_1  1  0.12496897  0.35189825  0.67476243  1
  S  S11_2  1  0.12496897  0.85189825  0.17476243  1
  S  S11_3  1  0.12496896  0.85189825  0.67476243  1
  S  S11_4  1  0.62496897  0.35189825  0.17476243  1
  S  S11_5  1  0.62496897  0.35189825  0.67476243  1
  S  S11_6  1  0.62496896  0.85189825  0.17476243  1
  S  S11_7  1  0.62496896  0.85189825  0.67476243  1
  S  S12_0  1  0.12537262  0.31373176  0.33714866  1
  S  S12_1  1  0.12537262  0.31373176  0.83714866  1
  S  S12_2  1  0.12537262  0.81373176  0.33714866  1
  S  S12_3  1  0.12537262  0.81373176  0.83714866  1
  S  S12_4  1  0.62537262  0.31373176  0.33714866  1
  S  S12_5  1  0.62537262  0.31373176  0.83714866  1
  S  S12_6  1  0.62537262  0.81373176  0.33714866  1
  S  S12_7  1  0.62537262  0.81373176  0.83714866  1
  S  S13_0  1  0.12278613  0.06426258  0.08770564  1
  S  S13_1  1  0.12278613  0.06426258  0.58770564  1
  S  S13_2  1  0.12278613  0.56426259  0.08770564  1
  S  S13_3  1  0.12278613  0.56426258  0.58770564  1
  S  S13_4  1  0.62278613  0.06426258  0.08770564  1
  S  S13_5  1  0.62278613  0.06426258  0.58770564  1
  S  S13_6  1  0.62278612  0.56426258  0.08770564  1
  S  S13_7  1  0.62278613  0.56426258  0.58770564  1
  S  S14_0  1  0.12309554  0.33596845  0.49054127  1
  S  S14_1  1  0.12309554  0.33596845  0.99054127  1
  S  S14_2  1  0.12309554  0.83596845  0.49054127  1
  S  S14_3  1  0.12309554  0.83596845  0.99054127  1
  S  S14_4  1  0.62309554  0.33596845  0.49054127  1
  S  S14_5  1  0.62309554  0.33596845  0.99054127  1
  S  S14_6  1  0.62309554  0.83596845  0.49054127  1
  S  S14_7  1  0.62309554  0.83596845  0.99054127  1
  S  S15_0  1  0.12476841  0.08590423  0.24009935  1
  S  S15_1  1  0.12476842  0.08590423  0.74009935  1
  S  S15_2  1  0.12476841  0.58590423  0.24009935  1
  S  S15_3  1  0.12476841  0.58590423  0.74009935  1
  S  S15_4  1  0.62476842  0.08590423  0.24009935  1
  S  S15_5  1  0.62476841  0.08590423  0.74009935  1
  S  S15_6  1  0.62476842  0.58590423  0.24009935  1
  S  S15_7  1  0.62476842  0.58590423  0.74009935  1
loop_
_geom_bond_atom_site_label_1
_geom_bond_atom_site_label_2
_geom_bond_distance
_geom_bond_site_symmetry_2
Tl0_0 Tl0_4 3.375238 1_455
Tl0_0 Tl0_4 3.375238 1_555
Tl0_1 Tl0_5 3.375238 1_455
Tl0_1 Tl0_5 3.375238 1_555
Tl0_2 Tl0_6 3.375238 1_455
Tl0_2 Tl0_6 3.375238 1_555
Tl0_3 Tl0_7 3.375238 1_455
Tl0_3 Tl0_7 3.375238 1_555
S0_0 V10_0 2.444231 1_555
S0_0 V10_4 2.451707 1_555
S0_0 V6_0 2.453343 1_555
S0_0 V6_4 2.453545 1_555
S0_0 V8_4 2.463362 1_555
S0_0 V8_0 2.463929 1_555
S0_1 V10_1 2.444231 1_555
S0_1 V10_5 2.451707 1_555
S0_1 V6_1 2.453343 1_555
S0_1 V6_5 2.453545 1_555
S0_1 V8_5 2.463362 1_555
S0_1 V8_1 2.463929 1_555
S0_2 V10_2 2.444231 1_555
S0_2 V10_6 2.451707 1_555
S0_2 V6_2 2.453343 1_555
S0_2 V6_6 2.453545 1_555
S0_2 V8_6 2.463362 1_555
S0_2 V8_2 2.463929 1_555
S0_3 V10_3 2.444231 1_555
S0_3 V10_7 2.451707 1_555
S0_3 V6_3 2.453343 1_555
S0_3 V6_7 2.453545 1_555
S0_3 V8_7 2.463362 1_555
S0_3 V8_3 2.463929 1_555
S0_4 V10_4 2.444231 1_555
S0_4 V10_0 2.451707 1_655
S0_4 V6_4 2.453343 1_555
S0_4 V6_0 2.453545 1_655
S0_4 V8_0 2.463362 1_655
S0_4 V8_4 2.463929 1_555
S0_5 V10_5 2.444231 1_555
S0_5 V10_1 2.451707 1_655
S0_5 V6_5 2.453343 1_555
S0_5 V6_1 2.453545 1_655
S0_5 V8_1 2.463362 1_655
S0_5 V8_5 2.463929 1_555
S0_6 V10_6 2.444231 1_555
S0_6 V10_2 2.451707 1_655
S0_6 V6_6 2.453343 1_555
S0_6 V6_2 2.453545 1_655
S0_6 V8_2 2.463362 1_655
S0_6 V8_6 2.463929 1_555
S0_7 V10_7 2.444231 1_555
S0_7 V10_3 2.451707 1_655
S0_7 V6_7 2.453343 1_555
S0_7 V6_3 2.453545 1_655
S0_7 V8_3 2.463362 1_655
S0_7 V8_7 2.463929 1_555
S1_0 V9_0 2.442776 1_555
S1_0 V9_4 2.446575 1_555
S1_0 V7_4 2.458310 1_555
S1_0 V7_0 2.458983 1_555
S1_0 V11_6 2.467539 1_555
S1_0 V11_2 2.468812 1_555
S1_1 V9_1 2.442776 1_555
S1_1 V9_5 2.446575 1_555
S1_1 V7_5 2.458310 1_555
S1_1 V7_1 2.458983 1_555
S1_1 V11_7 2.467539 1_555
S1_1 V11_3 2.468812 1_555
S1_2 V9_2 2.442776 1_545
S1_2 V9_6 2.446575 1_545
S1_2 V7_6 2.458310 1_545
S1_2 V7_2 2.458983 1_545
S1_2 V11_4 2.467539 1_555
S1_2 V11_0 2.468812 1_555
S1_3 V9_3 2.442776 1_545
S1_3 V9_7 2.446575 1_545
S1_3 V7_7 2.458310 1_545
S1_3 V7_3 2.458983 1_545
S1_3 V11_5 2.467539 1_555
S1_3 V11_1 2.468812 1_555
S1_4 V9_4 2.442776 1_555
S1_4 V9_0 2.446575 1_655
S1_4 V7_0 2.458310 1_655
S1_4 V7_4 2.458983 1_555
S1_4 V11_2 2.467539 1_655
S1_4 V11_6 2.468812 1_555
S1_5 V9_5 2.442776 1_555
S1_5 V9_1 2.446575 1_655
S1_5 V7_1 2.458310 1_655
S1_5 V7_5 2.458983 1_555
S1_5 V11_3 2.467539 1_655
S1_5 V11_7 2.468812 1_555
S1_6 V9_6 2.442776 1_545
S1_6 V9_2 2.446575 1_645
S1_6 V7_2 2.458310 1_645
S1_6 V7_6 2.458983 1_545
S1_6 V11_0 2.467539 1_655
S1_6 V11_4 2.468812 1_555
S1_7 V9_7 2.442776 1_545
S1_7 V9_3 2.446575 1_645
S1_7 V7_3 2.458310 1_645
S1_7 V7_7 2.458983 1_545
S1_7 V11_1 2.467539 1_655
S1_7 V11_5 2.468812 1_555
S2_0 V2_0 2.442776 1_565
S2_0 V2_4 2.446575 1_465
S2_0 V0_4 2.458310 1_465
S2_0 V0_0 2.458983 1_565
S2_0 V4_6 2.467539 1_455
S2_0 V4_2 2.468812 1_555
S2_1 V2_1 2.442776 1_565
S2_1 V2_5 2.446575 1_465
S2_1 V0_5 2.458310 1_465
S2_1 V0_1 2.458983 1_565
S2_1 V4_7 2.467539 1_455
S2_1 V4_3 2.468812 1_555
S2_2 V2_2 2.442776 1_555
S2_2 V2_6 2.446575 1_455
S2_2 V0_6 2.458310 1_455
S2_2 V0_2 2.458983 1_555
S2_2 V4_4 2.467539 1_455
S2_2 V4_0 2.468812 1_555
S2_3 V2_3 2.442776 1_555
S2_3 V2_7 2.446575 1_455
S2_3 V0_7 2.458310 1_455
S2_3 V0_3 2.458983 1_555
S2_3 V4_5 2.467539 1_455
S2_3 V4_1 2.468812 1_555
S2_4 V2_4 2.442776 1_565
S2_4 V2_0 2.446575 1_565
S2_4 V0_0 2.458310 1_565
S2_4 V0_4 2.458983 1_565
S2_4 V4_2 2.467539 1_555
S2_4 V4_6 2.468812 1_555
S2_5 V2_5 2.442776 1_565
S2_5 V2_1 2.446575 1_565
S2_5 V0_1 2.458310 1_565
S2_5 V0_5 2.458983 1_565
S2_5 V4_3 2.467539 1_555
S2_5 V4_7 2.468812 1_555
S2_6 V2_6 2.442776 1_555
S2_6 V2_2 2.446575 1_555
S2_6 V0_2 2.458310 1_555
S2_6 V0_6 2.458983 1_555
S2_6 V4_0 2.467539 1_555
S2_6 V4_4 2.468812 1_555
S2_7 V2_7 2.442776 1_555
S2_7 V2_3 2.446575 1_555
S2_7 V0_3 2.458310 1_555
S2_7 V0_7 2.458983 1_555
S2_7 V4_1 2.467539 1_555
S2_7 V4_5 2.468812 1_555
S3_0 V5_0 2.444231 1_555
S3_0 V5_4 2.451707 1_455
S3_0 V1_0 2.453343 1_555
S3_0 V1_4 2.453545 1_455
S3_0 V3_4 2.463362 1_455
S3_0 V3_0 2.463929 1_555
S3_1 V5_1 2.444231 1_555
S3_1 V5_5 2.451707 1_455
S3_1 V1_1 2.453343 1_555
S3_1 V1_5 2.453545 1_455
S3_1 V3_5 2.463362 1_455
S3_1 V3_1 2.463929 1_555
S3_2 V5_2 2.444231 1_555
S3_2 V5_6 2.451707 1_455
S3_2 V1_2 2.453343 1_555
S3_2 V1_6 2.453545 1_455
S3_2 V3_6 2.463362 1_455
S3_2 V3_2 2.463929 1_555
S3_3 V5_3 2.444231 1_555
S3_3 V5_7 2.451707 1_455
S3_3 V1_3 2.453343 1_555
S3_3 V1_7 2.453545 1_455
S3_3 V3_7 2.463362 1_455
S3_3 V3_3 2.463929 1_555
S3_4 V5_4 2.444231 1_555
S3_4 V5_0 2.451707 1_555
S3_4 V1_4 2.453343 1_555
S3_4 V1_0 2.453545 1_555
S3_4 V3_0 2.463362 1_555
S3_4 V3_4 2.463929 1_555
S3_5 V5_5 2.444231 1_555
S3_5 V5_1 2.451707 1_555
S3_5 V1_5 2.453343 1_555
S3_5 V1_1 2.453545 1_555
S3_5 V3_1 2.463362 1_555
S3_5 V3_5 2.463929 1_555
S3_6 V5_6 2.444231 1_555
S3_6 V5_2 2.451707 1_555
S3_6 V1_6 2.453343 1_555
S3_6 V1_2 2.453545 1_555
S3_6 V3_2 2.463362 1_555
S3_6 V3_6 2.463929 1_555
S3_7 V5_7 2.444231 1_555
S3_7 V5_3 2.451707 1_555
S3_7 V1_7 2.453343 1_555
S3_7 V1_3 2.453545 1_555
S3_7 V3_3 2.463362 1_555
S3_7 V3_7 2.463929 1_555
S4_0 V8_0 2.368104 1_555
S4_0 V8_4 2.368864 1_555
S4_0 V2_0 2.388893 1_555
S4_0 V0_0 2.525991 1_555
S4_1 V8_1 2.368104 1_555
S4_1 V8_5 2.368864 1_555
S4_1 V2_1 2.388893 1_555
S4_1 V0_1 2.525991 1_555
S4_2 V8_2 2.368104 1_555
S4_2 V8_6 2.368864 1_555
S4_2 V2_2 2.388893 1_555
S4_2 V0_2 2.525991 1_555
S4_3 V8_3 2.368104 1_555
S4_3 V8_7 2.368864 1_555
S4_3 V2_3 2.388893 1_555
S4_3 V0_3 2.525991 1_555
S4_4 V8_4 2.368104 1_555
S4_4 V8_0 2.368864 1_655
S4_4 V2_4 2.388893 1_555
S4_4 V0_4 2.525991 1_555
S4_5 V8_5 2.368104 1_555
S4_5 V8_1 2.368864 1_655
S4_5 V2_5 2.388893 1_555
S4_5 V0_5 2.525991 1_555
S4_6 V8_6 2.368104 1_555
S4_6 V8_2 2.368864 1_655
S4_6 V2_6 2.388893 1_555
S4_6 V0_6 2.525991 1_555
S4_7 V8_7 2.368104 1_555
S4_7 V8_3 2.368864 1_655
S4_7 V2_7 2.388893 1_555
S4_7 V0_7 2.525991 1_555
S5_0 V9_4 2.380433 1_555
S5_0 V9_0 2.388907 1_555
S5_0 V3_0 2.423661 1_555
S5_0 V1_0 2.553040 1_555
S5_0 Tl0_2 3.222812 1_555
S5_1 V9_5 2.380433 1_555
S5_1 V9_1 2.388907 1_555
S5_1 V3_1 2.423661 1_555
S5_1 V1_1 2.553040 1_555
S5_1 Tl0_3 3.222812 1_555
S5_2 V9_6 2.380433 1_555
S5_2 V9_2 2.388907 1_555
S5_2 V3_2 2.423661 1_555
S5_2 V1_2 2.553040 1_555
S5_2 Tl0_0 3.222812 1_565
S5_3 V9_7 2.380433 1_555
S5_3 V9_3 2.388907 1_555
S5_3 V3_3 2.423661 1_555
S5_3 V1_3 2.553040 1_555
S5_3 Tl0_1 3.222812 1_565
S5_4 V9_0 2.380433 1_655
S5_4 V9_4 2.388907 1_555
S5_4 V3_4 2.423661 1_555
S5_4 V1_4 2.553040 1_555
S5_4 Tl0_6 3.222812 1_555
S5_5 V9_1 2.380433 1_655
S5_5 V9_5 2.388907 1_555
S5_5 V3_5 2.423661 1_555
S5_5 V1_5 2.553040 1_555
S5_5 Tl0_7 3.222812 1_555
S5_6 V9_2 2.380433 1_655
S5_6 V9_6 2.388907 1_555
S5_6 V3_6 2.423661 1_555
S5_6 V1_6 2.553040 1_555
S5_6 Tl0_4 3.222812 1_565
S5_7 V9_3 2.380433 1_655
S5_7 V9_7 2.388907 1_555
S5_7 V3_7 2.423661 1_555
S5_7 V1_7 2.553040 1_555
S5_7 Tl0_5 3.222812 1_565
S6_0 V10_4 2.385606 1_555
S6_0 V10_0 2.393778 1_555
S6_0 V4_0 2.441041 1_555
S6_0 V2_2 2.542862 1_555
S6_0 Tl0_3 3.129629 1_555
S6_1 V10_5 2.385606 1_555
S6_1 V10_1 2.393778 1_555
S6_1 V4_1 2.441041 1_555
S6_1 V2_3 2.542862 1_555
S6_1 Tl0_2 3.129629 1_556
S6_2 V10_6 2.385606 1_555
S6_2 V10_2 2.393778 1_555
S6_2 V4_2 2.441041 1_555
S6_2 V2_0 2.542862 1_565
S6_2 Tl0_1 3.129629 1_565
S6_3 V10_7 2.385606 1_555
S6_3 V10_3 2.393778 1_555
S6_3 V4_3 2.441041 1_555
S6_3 V2_1 2.542862 1_565
S6_3 Tl0_0 3.129629 1_566
S6_4 V10_0 2.385606 1_655
S6_4 V10_4 2.393778 1_555
S6_4 V4_4 2.441041 1_555
S6_4 V2_6 2.542862 1_555
S6_4 Tl0_7 3.129629 1_555
S6_5 V10_1 2.385606 1_655
S6_5 V10_5 2.393778 1_555
S6_5 V4_5 2.441041 1_555
S6_5 V2_7 2.542862 1_555
S6_5 Tl0_6 3.129629 1_556
S6_6 V10_2 2.385606 1_655
S6_6 V10_6 2.393778 1_555
S6_6 V4_6 2.441041 1_555
S6_6 V2_4 2.542862 1_565
S6_6 Tl0_5 3.129629 1_565
S6_7 V10_3 2.385606 1_655
S6_7 V10_7 2.393778 1_555
S6_7 V4_7 2.441041 1_555
S6_7 V2_5 2.542862 1_565
S6_7 Tl0_4 3.129629 1_566
S7_0 V11_0 2.370162 1_555
S7_0 V11_4 2.370181 1_555
S7_0 V5_0 2.415532 1_555
S7_0 V3_0 2.500718 1_555
S7_1 V11_1 2.370162 1_555
S7_1 V11_5 2.370181 1_555
S7_1 V5_1 2.415532 1_555
S7_1 V3_1 2.500718 1_555
S7_2 V11_2 2.370162 1_555
S7_2 V11_6 2.370181 1_555
S7_2 V5_2 2.415532 1_555
S7_2 V3_2 2.500718 1_555
S7_3 V11_3 2.370162 1_555
S7_3 V11_7 2.370181 1_555
S7_3 V5_3 2.415532 1_555
S7_3 V3_3 2.500718 1_555
S7_4 V11_4 2.370162 1_555
S7_4 V11_0 2.370181 1_655
S7_4 V5_4 2.415532 1_555
S7_4 V3_4 2.500718 1_555
S7_5 V11_5 2.370162 1_555
S7_5 V11_1 2.370181 1_655
S7_5 V5_5 2.415532 1_555
S7_5 V3_5 2.500718 1_555
S7_6 V11_6 2.370162 1_555
S7_6 V11_2 2.370181 1_655
S7_6 V5_6 2.415532 1_555
S7_6 V3_6 2.500718 1_555
S7_7 V11_7 2.370162 1_555
S7_7 V11_3 2.370181 1_655
S7_7 V5_7 2.415532 1_555
S7_7 V3_7 2.500718 1_555
S8_0 V0_2 2.330308 1_555
S8_0 V7_0 2.331633 1_555
S8_0 V7_4 2.332039 1_555
S8_0 V4_0 2.474730 1_555
S8_1 V0_3 2.330308 1_555
S8_1 V7_1 2.331633 1_555
S8_1 V7_5 2.332039 1_555
S8_1 V4_1 2.474730 1_555
S8_2 V0_0 2.330308 1_565
S8_2 V7_2 2.331633 1_555
S8_2 V7_6 2.332039 1_555
S8_2 V4_2 2.474730 1_555
S8_3 V0_1 2.330308 1_565
S8_3 V7_3 2.331633 1_555
S8_3 V7_7 2.332039 1_555
S8_3 V4_3 2.474730 1_555
S8_4 V0_6 2.330308 1_555
S8_4 V7_4 2.331633 1_555
S8_4 V7_0 2.332039 1_655
S8_4 V4_4 2.474730 1_555
S8_5 V0_7 2.330308 1_555
S8_5 V7_5 2.331633 1_555
S8_5 V7_1 2.332039 1_655
S8_5 V4_5 2.474730 1_555
S8_6 V0_4 2.330308 1_565
S8_6 V7_6 2.331633 1_555
S8_6 V7_2 2.332039 1_655
S8_6 V4_6 2.474730 1_555
S8_7 V0_5 2.330308 1_565
S8_7 V7_7 2.331633 1_555
S8_7 V7_3 2.332039 1_655
S8_7 V4_7 2.474730 1_555
S9_0 V1_0 2.324798 1_555
S9_0 V6_5 2.342136 1_554
S9_0 V6_1 2.349422 1_554
S9_0 V5_0 2.522473 1_555
S9_0 Tl0_0 3.186326 1_555
S9_1 V1_1 2.324798 1_555
S9_1 V6_4 2.342136 1_555
S9_1 V6_0 2.349422 1_555
S9_1 V5_1 2.522473 1_555
S9_1 Tl0_1 3.186326 1_555
S9_2 V1_2 2.324798 1_555
S9_2 V6_7 2.342136 1_554
S9_2 V6_3 2.349422 1_554
S9_2 V5_2 2.522473 1_555
S9_2 Tl0_2 3.186326 1_555
S9_3 V1_3 2.324798 1_555
S9_3 V6_6 2.342136 1_555
S9_3 V6_2 2.349422 1_555
S9_3 V5_3 2.522473 1_555
S9_3 Tl0_3 3.186326 1_555
S9_4 V1_4 2.324798 1_555
S9_4 V6_1 2.342136 1_654
S9_4 V6_5 2.349422 1_554
S9_4 V5_4 2.522473 1_555
S9_4 Tl0_4 3.186326 1_555
S9_5 V1_5 2.324798 1_555
S9_5 V6_0 2.342136 1_655
S9_5 V6_4 2.349422 1_555
S9_5 V5_5 2.522473 1_555
S9_5 Tl0_5 3.186326 1_555
S9_6 V1_6 2.324798 1_555
S9_6 V6_3 2.342136 1_654
S9_6 V6_7 2.349422 1_554
S9_6 V5_6 2.522473 1_555
S9_6 Tl0_6 3.186326 1_555
S9_7 V1_7 2.324798 1_555
S9_7 V6_2 2.342136 1_655
S9_7 V6_6 2.349422 1_555
S9_7 V5_7 2.522473 1_555
S9_7 Tl0_7 3.186326 1_555
S10_0 V2_4 2.380433 1_455
S10_0 V2_0 2.388907 1_555
S10_0 V8_0 2.423661 1_555
S10_0 V6_0 2.553040 1_555
S10_0 Tl0_1 3.222812 1_555
S10_1 V2_5 2.380433 1_455
S10_1 V2_1 2.388907 1_555
S10_1 V8_1 2.423661 1_555
S10_1 V6_1 2.553040 1_555
S10_1 Tl0_0 3.222812 1_556
S10_2 V2_6 2.380433 1_455
S10_2 V2_2 2.388907 1_555
S10_2 V8_2 2.423661 1_555
S10_2 V6_2 2.553040 1_555
S10_2 Tl0_3 3.222812 1_555
S10_3 V2_7 2.380433 1_455
S10_3 V2_3 2.388907 1_555
S10_3 V8_3 2.423661 1_555
S10_3 V6_3 2.553040 1_555
S10_3 Tl0_2 3.222812 1_556
S10_4 V2_0 2.380433 1_555
S10_4 V2_4 2.388907 1_555
S10_4 V8_4 2.423661 1_555
S10_4 V6_4 2.553040 1_555
S10_4 Tl0_5 3.222812 1_555
S10_5 V2_1 2.380433 1_555
S10_5 V2_5 2.388907 1_555
S10_5 V8_5 2.423661 1_555
S10_5 V6_5 2.553040 1_555
S10_5 Tl0_4 3.222812 1_556
S10_6 V2_2 2.380433 1_555
S10_6 V2_6 2.388907 1_555
S10_6 V8_6 2.423661 1_555
S10_6 V6_6 2.553040 1_555
S10_6 Tl0_7 3.222812 1_555
S10_7 V2_3 2.380433 1_555
S10_7 V2_7 2.388907 1_555
S10_7 V8_7 2.423661 1_555
S10_7 V6_7 2.553040 1_555
S10_7 Tl0_6 3.222812 1_556
S11_0 V3_0 2.368104 1_555
S11_0 V3_4 2.368864 1_455
S11_0 V9_0 2.388893 1_555
S11_0 V7_0 2.525991 1_555
S11_1 V3_1 2.368104 1_555
S11_1 V3_5 2.368864 1_455
S11_1 V9_1 2.388893 1_555
S11_1 V7_1 2.525991 1_555
S11_2 V3_2 2.368104 1_555
S11_2 V3_6 2.368864 1_455
S11_2 V9_2 2.388893 1_555
S11_2 V7_2 2.525991 1_555
S11_3 V3_3 2.368104 1_555
S11_3 V3_7 2.368864 1_455
S11_3 V9_3 2.388893 1_555
S11_3 V7_3 2.525991 1_555
S11_4 V3_4 2.368104 1_555
S11_4 V3_0 2.368864 1_555
S11_4 V9_4 2.388893 1_555
S11_4 V7_4 2.525991 1_555
S11_5 V3_5 2.368104 1_555
S11_5 V3_1 2.368864 1_555
S11_5 V9_5 2.388893 1_555
S11_5 V7_5 2.525991 1_555
S11_6 V3_6 2.368104 1_555
S11_6 V3_2 2.368864 1_555
S11_6 V9_6 2.388893 1_555
S11_6 V7_6 2.525991 1_555
S11_7 V3_7 2.368104 1_555
S11_7 V3_3 2.368864 1_555
S11_7 V9_7 2.388893 1_555
S11_7 V7_7 2.525991 1_555
S12_0 V4_0 2.370162 1_555
S12_0 V4_4 2.370181 1_455
S12_0 V10_0 2.415532 1_555
S12_0 V8_0 2.500718 1_555
S12_1 V4_1 2.370162 1_555
S12_1 V4_5 2.370181 1_455
S12_1 V10_1 2.415532 1_555
S12_1 V8_1 2.500718 1_555
S12_2 V4_2 2.370162 1_555
S12_2 V4_6 2.370181 1_455
S12_2 V10_2 2.415532 1_555
S12_2 V8_2 2.500718 1_555
S12_3 V4_3 2.370162 1_555
S12_3 V4_7 2.370181 1_455
S12_3 V10_3 2.415532 1_555
S12_3 V8_3 2.500718 1_555
S12_4 V4_4 2.370162 1_555
S12_4 V4_0 2.370181 1_555
S12_4 V10_4 2.415532 1_555
S12_4 V8_4 2.500718 1_555
S12_5 V4_5 2.370162 1_555
S12_5 V4_1 2.370181 1_555
S12_5 V10_5 2.415532 1_555
S12_5 V8_5 2.500718 1_555
S12_6 V4_6 2.370162 1_555
S12_6 V4_2 2.370181 1_555
S12_6 V10_6 2.415532 1_555
S12_6 V8_6 2.500718 1_555
S12_7 V4_7 2.370162 1_555
S12_7 V4_3 2.370181 1_555
S12_7 V10_7 2.415532 1_555
S12_7 V8_7 2.500718 1_555
S13_0 V5_4 2.385606 1_455
S13_0 V5_0 2.393778 1_555
S13_0 V11_0 2.441041 1_555
S13_0 V9_2 2.542862 1_545
S13_0 Tl0_0 3.129629 1_555
S13_1 V5_5 2.385606 1_455
S13_1 V5_1 2.393778 1_555
S13_1 V11_1 2.441041 1_555
S13_1 V9_3 2.542862 1_545
S13_1 Tl0_1 3.129629 1_555
S13_2 V5_6 2.385606 1_455
S13_2 V5_2 2.393778 1_555
S13_2 V11_2 2.441041 1_555
S13_2 V9_0 2.542862 1_555
S13_2 Tl0_2 3.129629 1_555
S13_3 V5_7 2.385606 1_455
S13_3 V5_3 2.393778 1_555
S13_3 V11_3 2.441041 1_555
S13_3 V9_1 2.542862 1_555
S13_3 Tl0_3 3.129629 1_555
S13_4 V5_0 2.385606 1_555
S13_4 V5_4 2.393778 1_555
S13_4 V11_4 2.441041 1_555
S13_4 V9_6 2.542862 1_545
S13_4 Tl0_4 3.129629 1_555
S13_5 V5_1 2.385606 1_555
S13_5 V5_5 2.393778 1_555
S13_5 V11_5 2.441041 1_555
S13_5 V9_7 2.542862 1_545
S13_5 Tl0_5 3.129629 1_555
S13_6 V5_2 2.385606 1_555
S13_6 V5_6 2.393778 1_555
S13_6 V11_6 2.441041 1_555
S13_6 V9_4 2.542862 1_555
S13_6 Tl0_6 3.129629 1_555
S13_7 V5_3 2.385606 1_555
S13_7 V5_7 2.393778 1_555
S13_7 V11_7 2.441041 1_555
S13_7 V9_5 2.542862 1_555
S13_7 Tl0_7 3.129629 1_555
S14_0 V6_0 2.324798 1_555
S14_0 V1_5 2.342136 1_455
S14_0 V1_1 2.349422 1_555
S14_0 V10_0 2.522473 1_555
S14_0 Tl0_3 3.186326 1_555
S14_1 V6_1 2.324798 1_555
S14_1 V1_4 2.342136 1_456
S14_1 V1_0 2.349422 1_556
S14_1 V10_1 2.522473 1_555
S14_1 Tl0_2 3.186326 1_556
S14_2 V6_2 2.324798 1_555
S14_2 V1_7 2.342136 1_455
S14_2 V1_3 2.349422 1_555
S14_2 V10_2 2.522473 1_555
S14_2 Tl0_1 3.186326 1_565
S14_3 V6_3 2.324798 1_555
S14_3 V1_6 2.342136 1_456
S14_3 V1_2 2.349422 1_556
S14_3 V10_3 2.522473 1_555
S14_3 Tl0_0 3.186326 1_566
S14_4 V6_4 2.324798 1_555
S14_4 V1_1 2.342136 1_555
S14_4 V1_5 2.349422 1_555
S14_4 V10_4 2.522473 1_555
S14_4 Tl0_7 3.186326 1_555
S14_5 V6_5 2.324798 1_555
S14_5 V1_0 2.342136 1_556
S14_5 V1_4 2.349422 1_556
S14_5 V10_5 2.522473 1_555
S14_5 Tl0_6 3.186326 1_556
S14_6 V6_6 2.324798 1_555
S14_6 V1_3 2.342136 1_555
S14_6 V1_7 2.349422 1_555
S14_6 V10_6 2.522473 1_555
S14_6 Tl0_5 3.186326 1_565
S14_7 V6_7 2.324798 1_555
S14_7 V1_2 2.342136 1_556
S14_7 V1_6 2.349422 1_556
S14_7 V10_7 2.522473 1_555
S14_7 Tl0_4 3.186326 1_566
S15_0 V7_2 2.330308 1_545
S15_0 V0_0 2.331633 1_555
S15_0 V0_4 2.332039 1_455
S15_0 V11_0 2.474730 1_555
S15_1 V7_3 2.330308 1_545
S15_1 V0_1 2.331633 1_555
S15_1 V0_5 2.332039 1_455
S15_1 V11_1 2.474730 1_555
S15_2 V7_0 2.330308 1_555
S15_2 V0_2 2.331633 1_555
S15_2 V0_6 2.332039 1_455
S15_2 V11_2 2.474730 1_555
S15_3 V7_1 2.330308 1_555
S15_3 V0_3 2.331633 1_555
S15_3 V0_7 2.332039 1_455
S15_3 V11_3 2.474730 1_555
S15_4 V7_6 2.330308 1_545
S15_4 V0_4 2.331633 1_555
S15_4 V0_0 2.332039 1_555
S15_4 V11_4 2.474730 1_555
S15_5 V7_7 2.330308 1_545
S15_5 V0_5 2.331633 1_555
S15_5 V0_1 2.332039 1_555
S15_5 V11_5 2.474730 1_555
S15_6 V7_4 2.330308 1_555
S15_6 V0_6 2.331633 1_555
S15_6 V0_2 2.332039 1_555
S15_6 V11_6 2.474730 1_555
S15_7 V7_5 2.330308 1_555
S15_7 V0_7 2.331633 1_555
S15_7 V0_3 2.332039 1_555
S15_7 V11_7 2.474730 1_555
