# generated using pymatgen
data_TbPt2
_symmetry_space_group_name_H-M   'P 1'
_cell_length_a   5.41091714
_cell_length_b   5.41091732
_cell_length_c   5.41091647
_cell_angle_alpha   59.99999264
_cell_angle_beta   59.99999159
_cell_angle_gamma   60.00000267
_symmetry_Int_Tables_number   1
_chemical_formula_structural   TbPt2
_chemical_formula_sum   'Tb2 Pt4'
_cell_volume   112.02051631
_cell_formula_units_Z   2
loop_
 _symmetry_equiv_pos_site_id
 _symmetry_equiv_pos_as_xyz
  1  'x, y, z'
loop_
 _atom_site_type_symbol
 _atom_site_label
 _atom_site_symmetry_multiplicity
 _atom_site_fract_x
 _atom_site_fract_y
 _atom_site_fract_z
 _atom_site_occupancy
  Tb  Tb0  1  0.12500000  0.12500000  0.12500000  1
  Tb  Tb1  1  0.87500000  0.87500000  0.87500000  1
  Pt  Pt0  1  -0.00000000  0.50000000  0.50000000  1
  Pt  Pt1  1  0.50000000  0.00000000  0.50000000  1
  Pt  Pt2  1  0.50000000  0.50000000  -0.00000000  1
  Pt  Pt3  1  0.50000000  0.50000000  0.50000000  1
loop_
_geom_bond_atom_site_label_1
_geom_bond_atom_site_label_2
_geom_bond_distance
_geom_bond_site_symmetry_2
Tb0 Tb1 3.313496 1_445
Tb0 Tb1 3.313496 1_544
Tb0 Tb1 3.313497 1_444
Tb0 Tb1 3.313497 1_454
Pt0 Pt2 2.705458 1_555
Pt0 Pt2 2.705458 1_456
Pt0 Pt3 2.705459 1_455
Pt0 Pt3 2.705459 1_555
Pt0 Pt1 2.705459 1_555
Pt0 Pt1 2.705459 1_465
Pt0 Tb0 3.172431 1_556
Pt0 Tb1 3.172431 1_454
Pt0 Tb1 3.172431 1_445
Pt0 Tb0 3.172431 1_565
Pt0 Tb1 3.172431 1_455
Pt0 Tb0 3.172431 1_555
Pt1 Pt2 2.705458 1_555
Pt1 Pt2 2.705458 1_546
Pt1 Pt3 2.705459 1_555
Pt1 Pt3 2.705459 1_545
Pt1 Tb0 3.172431 1_556
Pt1 Tb1 3.172431 1_544
Pt1 Tb1 3.172431 1_445
Pt1 Tb0 3.172431 1_655
Pt1 Tb1 3.172431 1_545
Pt1 Tb0 3.172431 1_555
Pt2 Pt3 2.705458 1_554
Pt2 Pt3 2.705458 1_555
Pt2 Tb0 3.172431 1_555
Pt2 Tb1 3.172431 1_554
Pt2 Tb1 3.172431 1_454
Pt2 Tb0 3.172431 1_655
Pt2 Tb0 3.172432 1_565
Pt2 Tb1 3.172432 1_544
Pt3 Tb1 3.172431 1_554
Pt3 Tb0 3.172431 1_556
Pt3 Tb1 3.172431 1_455
Pt3 Tb0 3.172431 1_655
Pt3 Tb0 3.172431 1_565
Pt3 Tb1 3.172431 1_545
