# generated using pymatgen
data_Mg5In
_symmetry_space_group_name_H-M   'P 1'
_cell_length_a   12.00734572
_cell_length_b   12.00734572
_cell_length_c   14.85380238
_cell_angle_alpha   75.10702992
_cell_angle_beta   75.10702992
_cell_angle_gamma   31.64804078
_symmetry_Int_Tables_number   1
_chemical_formula_structural   Mg5In
_chemical_formula_sum   'Mg40 In8'
_cell_volume   1082.84356536
_cell_formula_units_Z   8
loop_
 _symmetry_equiv_pos_site_id
 _symmetry_equiv_pos_as_xyz
  1  'x, y, z'
loop_
 _atom_site_type_symbol
 _atom_site_label
 _atom_site_symmetry_multiplicity
 _atom_site_fract_x
 _atom_site_fract_y
 _atom_site_fract_z
 _atom_site_occupancy
  Mg  Mg0_0  1  0.99958106  0.99958106  0.00145595  1
  Mg  Mg0_1  1  0.99958106  0.99958106  0.50145595  1
  Mg  Mg0_2  1  0.99958106  0.49958106  0.00145595  1
  Mg  Mg0_3  1  0.99958106  0.49958106  0.50145595  1
  Mg  Mg0_4  1  0.49958106  0.99958106  0.00145595  1
  Mg  Mg0_5  1  0.49958106  0.99958106  0.50145595  1
  Mg  Mg0_6  1  0.49958106  0.49958106  0.00145595  1
  Mg  Mg0_7  1  0.49958106  0.49958106  0.50145595  1
  Mg  Mg1_0  1  0.13942587  0.13942587  0.47164724  1
  Mg  Mg1_1  1  0.13942587  0.13942587  0.97164724  1
  Mg  Mg1_2  1  0.13942587  0.63942587  0.47164724  1
  Mg  Mg1_3  1  0.13942587  0.63942587  0.97164724  1
  Mg  Mg1_4  1  0.63942587  0.13942587  0.47164724  1
  Mg  Mg1_5  1  0.63942587  0.13942587  0.97164724  1
  Mg  Mg1_6  1  0.63942587  0.63942587  0.47164724  1
  Mg  Mg1_7  1  0.63942587  0.63942587  0.97164724  1
  Mg  Mg2_0  1  0.33388960  0.33388960  0.33449272  1
  Mg  Mg2_1  1  0.33388960  0.33388960  0.83449272  1
  Mg  Mg2_2  1  0.33388960  0.83388960  0.33449272  1
  Mg  Mg2_3  1  0.33388960  0.83388960  0.83449272  1
  Mg  Mg2_4  1  0.83388960  0.33388960  0.33449272  1
  Mg  Mg2_5  1  0.83388960  0.33388960  0.83449272  1
  Mg  Mg2_6  1  0.83388960  0.83388960  0.33449272  1
  Mg  Mg2_7  1  0.83388960  0.83388960  0.83449272  1
  Mg  Mg3_0  1  0.47350496  0.47350496  0.30321018  1
  Mg  Mg3_1  1  0.47350496  0.47350496  0.80321017  1
  Mg  Mg3_2  1  0.47350496  0.97350496  0.30321018  1
  Mg  Mg3_3  1  0.47350496  0.97350496  0.80321017  1
  Mg  Mg3_4  1  0.97350496  0.47350496  0.30321018  1
  Mg  Mg3_5  1  0.97350496  0.47350496  0.80321017  1
  Mg  Mg3_6  1  0.97350496  0.97350496  0.30321017  1
  Mg  Mg3_7  1  0.97350496  0.97350496  0.80321018  1
  Mg  Mg4_0  1  0.16518616  0.16518616  0.16691661  1
  Mg  Mg4_1  1  0.16518616  0.16518616  0.66691661  1
  Mg  Mg4_2  1  0.16518615  0.66518615  0.16691661  1
  Mg  Mg4_3  1  0.16518615  0.66518615  0.66691661  1
  Mg  Mg4_4  1  0.66518615  0.16518616  0.16691661  1
  Mg  Mg4_5  1  0.66518616  0.16518616  0.66691661  1
  Mg  Mg4_6  1  0.66518615  0.66518615  0.16691661  1
  Mg  Mg4_7  1  0.66518616  0.66518616  0.66691661  1
  In  In0_0  1  0.30507785  0.30507785  0.13894380  1
  In  In0_1  1  0.30507785  0.30507785  0.63894380  1
  In  In0_2  1  0.30507785  0.80507785  0.13894380  1
  In  In0_3  1  0.30507785  0.80507785  0.63894380  1
  In  In0_4  1  0.80507785  0.30507785  0.13894380  1
  In  In0_5  1  0.80507785  0.30507785  0.63894380  1
  In  In0_6  1  0.80507785  0.80507785  0.13894380  1
  In  In0_7  1  0.80507785  0.80507785  0.63894380  1
loop_
_geom_bond_atom_site_label_1
_geom_bond_atom_site_label_2
_geom_bond_distance
_geom_bond_site_symmetry_2
Mg0_0 Mg1_1 3.141888 1_664
Mg0_0 Mg1_5 3.155271 1_564
Mg0_0 Mg1_3 3.155271 1_654
Mg0_0 Mg4_2 3.156299 1_655
Mg0_0 Mg4_4 3.156299 1_565
Mg0_0 Mg3_7 3.159451 1_554
Mg0_0 Mg2_3 3.169234 1_654
Mg0_0 Mg2_5 3.169234 1_564
Mg0_0 Mg0_6 3.274206 1_655
Mg0_0 Mg0_6 3.274206 1_565
Mg0_1 Mg1_0 3.141888 1_665
Mg0_1 Mg1_2 3.155271 1_655
Mg0_1 Mg1_4 3.155271 1_565
Mg0_1 Mg4_5 3.156299 1_565
Mg0_1 Mg4_3 3.156299 1_655
Mg0_1 Mg3_6 3.159451 1_555
Mg0_1 Mg2_2 3.169234 1_655
Mg0_1 Mg2_4 3.169234 1_565
Mg0_1 Mg0_7 3.274206 1_655
Mg0_1 Mg0_7 3.274206 1_565
Mg0_2 Mg1_3 3.141888 1_654
Mg0_2 Mg1_1 3.155271 1_654
Mg0_2 Mg1_7 3.155271 1_554
Mg0_2 Mg4_0 3.156299 1_655
Mg0_2 Mg4_6 3.156299 1_555
Mg0_2 Mg3_5 3.159451 1_554
Mg0_2 Mg2_7 3.169234 1_554
Mg0_2 Mg2_1 3.169234 1_654
Mg0_2 Mg0_4 3.274206 1_645
Mg0_2 Mg0_4 3.274206 1_555
Mg0_3 Mg1_2 3.141888 1_655
Mg0_3 Mg1_6 3.155271 1_555
Mg0_3 Mg1_0 3.155271 1_655
Mg0_3 Mg4_1 3.156299 1_655
Mg0_3 Mg4_7 3.156299 1_555
Mg0_3 Mg3_4 3.159451 1_555
Mg0_3 Mg2_6 3.169234 1_555
Mg0_3 Mg2_0 3.169234 1_655
Mg0_3 Mg0_5 3.274206 1_645
Mg0_3 Mg0_5 3.274206 1_555
Mg0_4 Mg1_5 3.141888 1_564
Mg0_4 Mg1_1 3.155271 1_564
Mg0_4 Mg1_7 3.155271 1_554
Mg0_4 Mg4_0 3.156299 1_565
Mg0_4 Mg4_6 3.156299 1_555
Mg0_4 Mg3_3 3.159451 1_554
Mg0_4 Mg2_7 3.169234 1_554
Mg0_4 Mg2_1 3.169234 1_564
Mg0_5 Mg1_4 3.141888 1_565
Mg0_5 Mg1_6 3.155271 1_555
Mg0_5 Mg1_0 3.155271 1_565
Mg0_5 Mg4_1 3.156299 1_565
Mg0_5 Mg4_7 3.156299 1_555
Mg0_5 Mg3_2 3.159451 1_555
Mg0_5 Mg2_6 3.169234 1_555
Mg0_5 Mg2_0 3.169234 1_565
Mg0_6 Mg1_7 3.141888 1_554
Mg0_6 Mg1_5 3.155271 1_554
Mg0_6 Mg1_3 3.155271 1_554
Mg0_6 Mg4_4 3.156299 1_555
Mg0_6 Mg4_2 3.156299 1_555
Mg0_6 Mg3_1 3.159451 1_554
Mg0_6 Mg2_3 3.169234 1_554
Mg0_6 Mg2_5 3.169234 1_554
Mg0_7 Mg1_6 3.141888 1_555
Mg0_7 Mg1_4 3.155271 1_555
Mg0_7 Mg1_2 3.155271 1_555
Mg0_7 Mg4_5 3.156299 1_555
Mg0_7 Mg4_3 3.156299 1_555
Mg0_7 Mg3_0 3.159451 1_555
Mg0_7 Mg2_4 3.169234 1_555
Mg0_7 Mg2_2 3.169234 1_555
Mg1_0 Mg4_1 3.112785 1_555
Mg1_0 Mg2_4 3.142240 1_455
Mg1_0 Mg2_2 3.142240 1_545
Mg1_0 Mg3_2 3.180690 1_545
Mg1_0 Mg3_4 3.180690 1_455
Mg1_0 Mg1_6 3.274206 1_455
Mg1_0 Mg1_6 3.274206 1_545
Mg1_1 Mg4_0 3.112785 1_556
Mg1_1 Mg2_5 3.142240 1_455
Mg1_1 Mg2_3 3.142240 1_545
Mg1_1 Mg3_5 3.180690 1_455
Mg1_1 Mg3_3 3.180690 1_545
Mg1_1 Mg1_7 3.274206 1_455
Mg1_1 Mg1_7 3.274206 1_545
Mg1_2 Mg4_3 3.112785 1_555
Mg1_2 Mg2_0 3.142240 1_555
Mg1_2 Mg2_6 3.142240 1_455
Mg1_2 Mg3_6 3.180690 1_455
Mg1_2 Mg3_0 3.180690 1_555
Mg1_2 Mg1_4 3.274206 1_465
Mg1_2 Mg1_4 3.274206 1_555
Mg1_3 Mg4_2 3.112785 1_556
Mg1_3 Mg2_1 3.142240 1_555
Mg1_3 Mg2_7 3.142240 1_455
Mg1_3 Mg3_7 3.180690 1_455
Mg1_3 Mg3_1 3.180690 1_555
Mg1_3 Mg1_5 3.274206 1_555
Mg1_3 Mg1_5 3.274206 1_465
Mg1_4 Mg4_5 3.112785 1_555
Mg1_4 Mg2_0 3.142240 1_555
Mg1_4 Mg2_6 3.142240 1_545
Mg1_4 Mg3_0 3.180690 1_555
Mg1_4 Mg3_6 3.180690 1_545
Mg1_5 Mg4_4 3.112785 1_556
Mg1_5 Mg2_1 3.142240 1_555
Mg1_5 Mg2_7 3.142240 1_545
Mg1_5 Mg3_7 3.180690 1_545
Mg1_5 Mg3_1 3.180690 1_555
Mg1_6 Mg4_7 3.112785 1_555
Mg1_6 Mg2_4 3.142240 1_555
Mg1_6 Mg2_2 3.142240 1_555
Mg1_6 Mg3_4 3.180690 1_555
Mg1_6 Mg3_2 3.180690 1_555
Mg1_7 Mg4_6 3.112785 1_556
Mg1_7 Mg2_5 3.142240 1_555
Mg1_7 Mg2_3 3.142240 1_555
Mg1_7 Mg3_5 3.180690 1_555
Mg1_7 Mg3_3 3.180690 1_555
Mg2_0 Mg3_0 3.133787 1_555
Mg2_0 Mg4_4 3.147393 1_555
Mg2_0 Mg4_2 3.147393 1_555
Mg2_0 Mg3_4 3.167601 1_455
Mg2_0 Mg3_2 3.167601 1_545
Mg2_0 Mg2_6 3.274206 1_455
Mg2_0 Mg2_6 3.274206 1_545
Mg2_1 Mg3_1 3.133787 1_555
Mg2_1 Mg4_3 3.147393 1_555
Mg2_1 Mg4_5 3.147393 1_555
Mg2_1 Mg3_5 3.167601 1_455
Mg2_1 Mg3_3 3.167601 1_545
Mg2_1 Mg2_7 3.274206 1_545
Mg2_1 Mg2_7 3.274206 1_455
Mg2_2 Mg3_2 3.133787 1_555
Mg2_2 Mg4_6 3.147393 1_555
Mg2_2 Mg4_0 3.147393 1_565
Mg2_2 Mg3_6 3.167601 1_455
Mg2_2 Mg3_0 3.167601 1_555
Mg2_2 Mg2_4 3.274206 1_465
Mg2_2 Mg2_4 3.274206 1_555
Mg2_3 Mg3_3 3.133787 1_555
Mg2_3 Mg4_7 3.147393 1_555
Mg2_3 Mg4_1 3.147393 1_565
Mg2_3 Mg3_7 3.167601 1_455
Mg2_3 Mg3_1 3.167601 1_555
Mg2_3 Mg2_5 3.274206 1_465
Mg2_3 Mg2_5 3.274206 1_555
Mg2_4 Mg3_4 3.133787 1_555
Mg2_4 Mg4_6 3.147393 1_555
Mg2_4 Mg4_0 3.147393 1_655
Mg2_4 Mg3_0 3.167601 1_555
Mg2_4 Mg3_6 3.167601 1_545
Mg2_5 Mg3_5 3.133787 1_555
Mg2_5 Mg4_7 3.147393 1_555
Mg2_5 Mg4_1 3.147393 1_655
Mg2_5 Mg3_7 3.167601 1_545
Mg2_5 Mg3_1 3.167601 1_555
Mg2_6 Mg3_6 3.133787 1_555
Mg2_6 Mg4_2 3.147393 1_655
Mg2_6 Mg4_4 3.147393 1_565
Mg2_6 Mg3_4 3.167601 1_555
Mg2_6 Mg3_2 3.167601 1_555
Mg2_7 Mg3_7 3.133787 1_555
Mg2_7 Mg4_3 3.147393 1_655
Mg2_7 Mg4_5 3.147393 1_565
Mg2_7 Mg3_5 3.167601 1_555
Mg2_7 Mg3_3 3.167601 1_555
Mg3_0 Mg4_2 3.170429 1_555
Mg3_0 Mg4_4 3.170429 1_555
Mg3_0 Mg3_6 3.274206 1_455
Mg3_0 Mg3_6 3.274206 1_545
Mg3_1 Mg4_5 3.170429 1_555
Mg3_1 Mg4_3 3.170429 1_555
Mg3_1 Mg3_7 3.274206 1_455
Mg3_1 Mg3_7 3.274206 1_545
Mg3_2 Mg4_0 3.170429 1_565
Mg3_2 Mg4_6 3.170429 1_555
Mg3_2 Mg3_4 3.274206 1_465
Mg3_2 Mg3_4 3.274206 1_555
Mg3_3 Mg4_7 3.170429 1_555
Mg3_3 Mg4_1 3.170429 1_565
Mg3_3 Mg3_5 3.274206 1_555
Mg3_3 Mg3_5 3.274206 1_465
Mg3_4 Mg4_0 3.170429 1_655
Mg3_4 Mg4_6 3.170429 1_555
Mg3_5 Mg4_7 3.170429 1_555
Mg3_5 Mg4_1 3.170429 1_655
Mg3_6 Mg4_2 3.170429 1_655
Mg3_6 Mg4_4 3.170429 1_565
Mg3_7 Mg4_5 3.170429 1_565
Mg3_7 Mg4_3 3.170429 1_655
Mg4_0 Mg4_6 3.274206 1_455
Mg4_0 Mg4_6 3.274206 1_545
Mg4_1 Mg4_7 3.274206 1_455
Mg4_1 Mg4_7 3.274206 1_545
Mg4_2 Mg4_4 3.274206 1_555
Mg4_2 Mg4_4 3.274206 1_465
Mg4_3 Mg4_5 3.274206 1_555
Mg4_3 Mg4_5 3.274206 1_465
In0_0 Mg3_4 3.119102 1_455
In0_0 Mg3_2 3.119102 1_545
In0_0 Mg4_2 3.144757 1_555
In0_0 Mg4_4 3.144757 1_555
In0_0 Mg0_2 3.145462 1_455
In0_0 Mg0_4 3.145462 1_545
In0_0 Mg4_0 3.146727 1_555
In0_0 Mg2_0 3.148517 1_555
In0_0 Mg1_3 3.172667 1_554
In0_0 Mg1_5 3.172667 1_554
In0_1 Mg3_3 3.119102 1_545
In0_1 Mg3_5 3.119102 1_455
In0_1 Mg4_3 3.144757 1_555
In0_1 Mg4_5 3.144757 1_555
In0_1 Mg0_3 3.145462 1_455
In0_1 Mg0_5 3.145462 1_545
In0_1 Mg4_1 3.146727 1_555
In0_1 Mg2_1 3.148517 1_555
In0_1 Mg1_2 3.172667 1_555
In0_1 Mg1_4 3.172667 1_555
In0_2 Mg3_6 3.119102 1_455
In0_2 Mg3_0 3.119102 1_555
In0_2 Mg4_6 3.144757 1_555
In0_2 Mg4_0 3.144757 1_565
In0_2 Mg0_0 3.145462 1_455
In0_2 Mg0_6 3.145462 1_555
In0_2 Mg4_2 3.146727 1_555
In0_2 Mg2_2 3.148517 1_555
In0_2 Mg1_7 3.172667 1_554
In0_2 Mg1_1 3.172667 1_564
In0_3 Mg3_1 3.119102 1_555
In0_3 Mg3_7 3.119102 1_455
In0_3 Mg4_1 3.144757 1_565
In0_3 Mg4_7 3.144757 1_555
In0_3 Mg0_1 3.145462 1_455
In0_3 Mg0_7 3.145462 1_555
In0_3 Mg4_3 3.146727 1_555
In0_3 Mg2_3 3.148517 1_555
In0_3 Mg1_0 3.172667 1_565
In0_3 Mg1_6 3.172667 1_555
In0_4 Mg3_6 3.119102 1_545
In0_4 Mg3_0 3.119102 1_555
In0_4 Mg4_6 3.144757 1_555
In0_4 Mg4_0 3.144757 1_655
In0_4 Mg0_0 3.145462 1_545
In0_4 Mg0_6 3.145462 1_555
In0_4 Mg4_4 3.146727 1_555
In0_4 Mg2_4 3.148517 1_555
In0_4 Mg1_7 3.172667 1_554
In0_4 Mg1_1 3.172667 1_654
In0_5 Mg3_1 3.119102 1_555
In0_5 Mg3_7 3.119102 1_545
In0_5 Mg4_1 3.144757 1_655
In0_5 Mg4_7 3.144757 1_555
In0_5 Mg0_1 3.145462 1_545
In0_5 Mg0_7 3.145462 1_555
In0_5 Mg4_5 3.146727 1_555
In0_5 Mg2_5 3.148517 1_555
In0_5 Mg1_0 3.172667 1_655
In0_5 Mg1_6 3.172667 1_555
In0_6 Mg3_4 3.119102 1_555
In0_6 Mg3_2 3.119102 1_555
In0_6 Mg4_2 3.144757 1_655
In0_6 Mg4_4 3.144757 1_565
In0_6 Mg0_4 3.145462 1_555
In0_6 Mg0_2 3.145462 1_555
In0_6 Mg4_6 3.146727 1_555
In0_6 Mg2_6 3.148517 1_555
In0_6 Mg1_3 3.172667 1_654
In0_6 Mg1_5 3.172667 1_564
In0_7 Mg3_3 3.119102 1_555
In0_7 Mg3_5 3.119102 1_555
In0_7 Mg4_3 3.144757 1_655
In0_7 Mg4_5 3.144757 1_565
In0_7 Mg0_5 3.145462 1_555
In0_7 Mg0_3 3.145462 1_555
In0_7 Mg4_7 3.146727 1_555
In0_7 Mg2_7 3.148517 1_555
In0_7 Mg1_2 3.172667 1_655
In0_7 Mg1_4 3.172667 1_565
