# generated using pymatgen
data_Mg14TiCo
_symmetry_space_group_name_H-M   'P 1'
_cell_length_a   6.25084537
_cell_length_b   6.25084488
_cell_length_c   10.01877243
_cell_angle_alpha   90.00000000
_cell_angle_beta   90.00000000
_cell_angle_gamma   120.00000255
_symmetry_Int_Tables_number   1
_chemical_formula_structural   Mg14TiCo
_chemical_formula_sum   'Mg14 Ti1 Co1'
_cell_volume   339.01788465
_cell_formula_units_Z   1
loop_
 _symmetry_equiv_pos_site_id
 _symmetry_equiv_pos_as_xyz
  1  'x, y, z'
loop_
 _atom_site_type_symbol
 _atom_site_label
 _atom_site_symmetry_multiplicity
 _atom_site_fract_x
 _atom_site_fract_y
 _atom_site_fract_z
 _atom_site_occupancy
  Mg  Mg0  1  0.16417924  0.83208912  0.12500000  1
  Mg  Mg1  1  0.17308426  0.83654163  0.62500000  1
  Mg  Mg2  1  0.66791088  0.33582076  0.12500000  1
  Mg  Mg3  1  0.66345837  0.32691574  0.62500000  1
  Mg  Mg4  1  0.66791088  0.83208912  0.12500000  1
  Mg  Mg5  1  0.66345837  0.83654163  0.62500000  1
  Mg  Mg6  1  0.32483599  0.17516401  0.36565542  1
  Mg  Mg7  1  0.32483599  0.17516401  0.88434458  1
  Mg  Mg8  1  0.32483599  0.64967299  0.36565542  1
  Mg  Mg9  1  0.32483599  0.64967299  0.88434458  1
  Mg  Mg10  1  0.85032701  0.17516401  0.36565542  1
  Mg  Mg11  1  0.85032701  0.17516401  0.88434458  1
  Mg  Mg12  1  0.83333300  0.66666700  0.38080559  1
  Mg  Mg13  1  0.83333300  0.66666700  0.86919441  1
  Ti  Ti0  1  0.16666700  0.33333300  0.62500000  1
  Co  Co0  1  0.16666700  0.33333300  0.12500000  1
loop_
_geom_bond_atom_site_label_1
_geom_bond_atom_site_label_2
_geom_bond_distance
_geom_bond_site_symmetry_2
Mg0 Mg9 3.044181 1_554
Mg0 Mg8 3.044181 1_555
Mg0 Mg7 3.044188 1_564
Mg0 Mg6 3.044188 1_565
Mg0 Mg2 3.102097 1_455
Mg0 Mg4 3.102097 1_455
Mg0 Mg13 3.126647 1_454
Mg0 Mg12 3.126647 1_455
Mg0 Mg2 3.148748 1_565
Mg0 Mg4 3.148749 1_555
Mg1 Mg12 3.060748 1_455
Mg1 Mg13 3.060748 1_455
Mg1 Mg3 3.065252 1_565
Mg1 Mg5 3.065253 1_555
Mg1 Ti0 3.125615 1_555
Mg1 Ti0 3.125615 1_565
Mg1 Mg8 3.181742 1_555
Mg1 Mg9 3.181742 1_555
Mg1 Mg6 3.181748 1_565
Mg1 Mg7 3.181748 1_565
Mg1 Mg3 3.185592 1_455
Mg1 Mg5 3.185593 1_455
Mg2 Mg7 3.044188 1_554
Mg2 Mg6 3.044188 1_555
Mg2 Mg4 3.102097 1_555
Mg2 Mg4 3.148748 1_545
Mg3 Mg5 3.065252 1_545
Mg3 Ti0 3.125616 1_555
Mg3 Ti0 3.125616 1_655
Mg3 Mg6 3.181748 1_555
Mg3 Mg7 3.181748 1_555
Mg3 Mg5 3.185592 1_555
Mg4 Mg9 3.044188 1_554
Mg4 Mg8 3.044188 1_555
Mg5 Ti0 3.125615 1_555
Mg5 Ti0 3.125616 1_665
Mg5 Mg8 3.181748 1_555
Mg5 Mg9 3.181748 1_555
Mg6 Mg8 2.966082 1_555
Mg6 Ti0 3.111874 1_555
Mg6 Mg8 3.284763 1_545
Mg7 Mg9 2.966082 1_555
Mg7 Ti0 3.111874 1_555
Mg7 Mg9 3.284763 1_545
Mg8 Ti0 3.111880 1_555
Mg9 Ti0 3.111880 1_555
Mg10 Mg8 2.966082 1_655
Mg10 Mg6 2.966082 1_655
Mg10 Mg2 3.044181 1_555
Mg10 Mg4 3.044187 1_545
Mg10 Ti0 3.111880 1_655
Mg10 Mg12 3.130458 1_555
Mg10 Mg12 3.130458 1_545
Mg10 Mg3 3.181742 1_555
Mg10 Mg5 3.181748 1_545
Mg10 Mg8 3.284763 1_545
Mg10 Mg6 3.284763 1_555
Mg11 Mg9 2.966082 1_655
Mg11 Mg7 2.966082 1_655
Mg11 Mg2 3.044181 1_556
Mg11 Mg4 3.044187 1_546
Mg11 Ti0 3.111880 1_655
Mg11 Mg13 3.130458 1_555
Mg11 Mg13 3.130458 1_545
Mg11 Mg3 3.181742 1_555
Mg11 Mg5 3.181748 1_545
Mg11 Mg9 3.284763 1_545
Mg11 Mg7 3.284763 1_555
Mg12 Mg5 3.060742 1_555
Mg12 Mg3 3.060748 1_555
Mg12 Mg4 3.126641 1_555
Mg12 Mg2 3.126647 1_555
Mg12 Mg6 3.130458 1_665
Mg12 Mg6 3.130458 1_555
Mg12 Mg8 3.130458 1_655
Mg12 Mg8 3.130458 1_555
Mg13 Mg5 3.060742 1_555
Mg13 Mg3 3.060748 1_555
Mg13 Mg4 3.126641 1_556
Mg13 Mg2 3.126647 1_556
Mg13 Mg7 3.130458 1_665
Mg13 Mg7 3.130458 1_555
Mg13 Mg9 3.130458 1_655
Mg13 Mg9 3.130458 1_555
Co0 Mg7 2.957328 1_554
Co0 Mg6 2.957328 1_555
Co0 Mg9 2.957335 1_554
Co0 Mg8 2.957335 1_555
Co0 Mg11 2.957335 1_454
Co0 Mg10 2.957335 1_455
Co0 Mg0 3.125451 1_545
Co0 Mg0 3.125451 1_555
Co0 Mg4 3.125451 1_445
Co0 Mg4 3.125451 1_555
Co0 Mg2 3.125452 1_455
Co0 Mg2 3.125452 1_555
