# generated using pymatgen
data_Sm2Co5B2
_symmetry_space_group_name_H-M   'P 1'
_cell_length_a   5.09497947
_cell_length_b   5.09497947
_cell_length_c   19.93241000
_cell_angle_alpha   90.00000000
_cell_angle_beta   90.00000000
_cell_angle_gamma   119.98791650
_symmetry_Int_Tables_number   1
_chemical_formula_structural   Sm2Co5B2
_chemical_formula_sum   'Sm8 Co20 B8'
_cell_volume   448.15493979
_cell_formula_units_Z   4
loop_
 _symmetry_equiv_pos_site_id
 _symmetry_equiv_pos_as_xyz
  1  'x, y, z'
loop_
 _atom_site_type_symbol
 _atom_site_label
 _atom_site_symmetry_multiplicity
 _atom_site_fract_x
 _atom_site_fract_y
 _atom_site_fract_z
 _atom_site_occupancy
  Sm  Sm0  1  0.66671700  0.33328300  0.52188000  1
  Sm  Sm1  1  0.33328300  0.66671700  0.47812000  1
  Sm  Sm2  1  0.33328300  0.66671700  0.02188000  1
  Sm  Sm3  1  0.66671700  0.33328300  0.97812000  1
  Sm  Sm4  1  0.66669000  0.33331000  0.67473600  1
  Sm  Sm5  1  0.33331000  0.66669000  0.32526400  1
  Sm  Sm6  1  0.33331000  0.66669000  0.17473600  1
  Sm  Sm7  1  0.66669000  0.33331000  0.82526400  1
  Co  Co0  1  0.00000000  0.00000000  0.50000000  1
  Co  Co1  1  0.00000000  0.00000000  0.00000000  1
  Co  Co2  1  0.16743800  0.33483900  0.75000000  1
  Co  Co3  1  0.16744700  0.83255300  0.75000000  1
  Co  Co4  1  0.66516100  0.83256200  0.75000000  1
  Co  Co5  1  0.83256200  0.66516100  0.25000000  1
  Co  Co6  1  0.83255300  0.16744700  0.25000000  1
  Co  Co7  1  0.33483900  0.16743800  0.25000000  1
  Co  Co8  1  0.16151700  0.32278800  0.60712600  1
  Co  Co9  1  0.16151500  0.83848500  0.60708100  1
  Co  Co10  1  0.67721200  0.83848400  0.60712600  1
  Co  Co11  1  0.83848400  0.67721200  0.39287400  1
  Co  Co12  1  0.83848500  0.16151500  0.39291900  1
  Co  Co13  1  0.32278800  0.16151700  0.39287400  1
  Co  Co14  1  0.83848400  0.67721200  0.10712600  1
  Co  Co15  1  0.83848500  0.16151500  0.10708100  1
  Co  Co16  1  0.32278800  0.16151700  0.10712600  1
  Co  Co17  1  0.16151700  0.32278800  0.89287400  1
  Co  Co18  1  0.16151500  0.83848500  0.89291900  1
  Co  Co19  1  0.67721200  0.83848400  0.89287400  1
  B  B0  1  0.00012500  0.99987500  0.67776900  1
  B  B1  1  0.99987500  0.00012500  0.32223100  1
  B  B2  1  0.99987500  0.00012500  0.17776900  1
  B  B3  1  0.00012500  0.99987500  0.82223100  1
  B  B4  1  0.66668100  0.33331900  0.32530100  1
  B  B5  1  0.33331900  0.66668100  0.67469900  1
  B  B6  1  0.33331900  0.66668100  0.82530100  1
  B  B7  1  0.66668100  0.33331900  0.17469900  1
loop_
_geom_bond_atom_site_label_1
_geom_bond_atom_site_label_2
_geom_bond_distance
_geom_bond_site_symmetry_2
Sm0 Sm4 3.046788 1_555
Sm0 Sm1 3.068100 1_655
Sm0 Sm1 3.068100 1_545
Sm0 Sm1 3.068863 1_555
Sm1 Sm5 3.046788 1_555
Sm2 Sm6 3.046788 1_555
Sm2 Sm3 3.068100 1_454
Sm2 Sm3 3.068100 1_564
Sm2 Sm3 3.068863 1_554
Sm3 Sm7 3.046788 1_555
Sm4 Sm7 3.000386 1_555
Sm5 Sm6 3.000386 1_555
Co0 Co9 2.566498 1_545
Co0 Co12 2.566498 1_455
Co0 Co11 2.566796 1_445
Co0 Co10 2.566796 1_445
Co0 Co13 2.566796 1_555
Co0 Co8 2.566796 1_555
Co0 Sm0 2.973125 1_455
Co0 Sm1 2.973125 1_545
Co0 Sm1 2.974316 1_555
Co0 Sm1 2.974316 1_445
Co0 Sm0 2.974316 1_555
Co0 Sm0 2.974316 1_445
Co1 Co18 2.566498 1_544
Co1 Co15 2.566498 1_455
Co1 Co14 2.566796 1_445
Co1 Co19 2.566796 1_444
Co1 Co16 2.566796 1_555
Co1 Co17 2.566796 1_554
Co1 Sm3 2.973125 1_454
Co1 Sm2 2.973125 1_545
Co1 Sm2 2.974316 1_555
Co1 Sm2 2.974316 1_445
Co1 Sm3 2.974316 1_444
Co1 Sm3 2.974316 1_554
Co2 Sm7 2.956333 1_455
Co2 Sm4 2.956333 1_455
Co2 Sm7 2.956476 1_555
Co2 Sm4 2.956476 1_555
Co3 Sm4 2.956805 1_455
Co3 Sm7 2.956805 1_565
Co3 Sm4 2.956805 1_565
Co3 Sm7 2.956805 1_455
Co4 Sm7 2.956333 1_565
Co4 Sm4 2.956333 1_565
Co4 Sm7 2.956476 1_555
Co4 Sm4 2.956476 1_555
Co5 Sm5 2.956333 1_655
Co5 Sm6 2.956333 1_655
Co5 Sm6 2.956476 1_555
Co5 Sm5 2.956476 1_555
Co6 Sm6 2.956805 1_545
Co6 Sm5 2.956805 1_545
Co6 Sm6 2.956805 1_655
Co6 Sm5 2.956805 1_655
Co7 Sm6 2.956333 1_545
Co7 Sm5 2.956333 1_545
Co7 Sm6 2.956476 1_555
Co7 Sm5 2.956476 1_555
Co8 Sm4 2.881967 1_555
Co8 Sm4 2.882742 1_455
Co8 Sm1 2.985901 1_555
Co8 Sm0 3.062320 1_555
Co8 Sm0 3.062706 1_455
Co9 Sm4 2.883173 1_565
Co9 Sm4 2.883173 1_455
Co9 Sm1 2.984107 1_555
Co9 Sm0 3.062397 1_455
Co9 Sm0 3.062397 1_565
Co10 Sm4 2.881971 1_555
Co10 Sm4 2.882738 1_565
Co10 Sm1 2.985901 1_555
Co10 Sm0 3.062324 1_555
Co10 Sm0 3.062702 1_565
Co11 Sm5 2.881971 1_555
Co11 Sm5 2.882738 1_655
Co11 Sm0 2.985901 1_555
Co11 Sm1 3.062324 1_555
Co11 Sm1 3.062702 1_655
Co12 Sm5 2.883173 1_655
Co12 Sm5 2.883173 1_545
Co12 Sm0 2.984107 1_555
Co12 Sm1 3.062397 1_545
Co12 Sm1 3.062397 1_655
Co13 Sm5 2.881967 1_555
Co13 Sm5 2.882742 1_545
Co13 Sm0 2.985901 1_555
Co13 Sm1 3.062320 1_555
Co13 Sm1 3.062706 1_545
Co14 Sm6 2.881971 1_555
Co14 Sm6 2.882738 1_655
Co14 Sm3 2.985901 1_554
Co14 Sm2 3.062324 1_555
Co14 Sm2 3.062702 1_655
Co15 Sm6 2.883173 1_545
Co15 Sm6 2.883173 1_655
Co15 Sm3 2.984107 1_554
Co15 Sm2 3.062397 1_655
Co15 Sm2 3.062397 1_545
Co16 Sm6 2.881967 1_555
Co16 Sm6 2.882742 1_545
Co16 Sm3 2.985901 1_554
Co16 Sm2 3.062320 1_555
Co16 Sm2 3.062706 1_545
Co17 Sm7 2.881967 1_555
Co17 Sm7 2.882742 1_455
Co17 Sm2 2.985901 1_556
Co17 Sm3 3.062320 1_555
Co17 Sm3 3.062706 1_455
Co18 Sm7 2.883173 1_565
Co18 Sm7 2.883173 1_455
Co18 Sm2 2.984107 1_556
Co18 Sm3 3.062397 1_455
Co18 Sm3 3.062397 1_565
Co19 Sm7 2.881971 1_555
Co19 Sm7 2.882738 1_565
Co19 Sm2 2.985901 1_556
Co19 Sm3 3.062324 1_555
Co19 Sm3 3.062702 1_565
B0 Co8 2.003322 1_565
B0 Co10 2.003322 1_455
B0 Co9 2.003350 1_555
B0 Co3 2.062246 1_555
B0 Co4 2.063451 1_455
B0 Co2 2.063451 1_565
B0 Sm4 2.942119 1_565
B0 Sm4 2.942119 1_455
B0 Sm4 2.942927 1_465
B1 Co13 2.003322 1_655
B1 Co11 2.003322 1_545
B1 Co12 2.003350 1_555
B1 Co6 2.062246 1_555
B1 Co5 2.063451 1_545
B1 Co7 2.063451 1_655
B1 Sm5 2.942119 1_655
B1 Sm5 2.942119 1_545
B1 Sm5 2.942927 1_645
B2 Co16 2.003322 1_655
B2 Co14 2.003322 1_545
B2 Co15 2.003350 1_555
B2 Co6 2.062246 1_555
B2 Co5 2.063451 1_545
B2 Co7 2.063451 1_655
B2 Sm6 2.942119 1_655
B2 Sm6 2.942119 1_545
B2 Sm6 2.942927 1_645
B3 Co17 2.003322 1_565
B3 Co19 2.003322 1_455
B3 Co18 2.003350 1_555
B3 Co3 2.062246 1_555
B3 Co4 2.063451 1_455
B3 Co2 2.063451 1_565
B3 Sm7 2.942119 1_565
B3 Sm7 2.942119 1_455
B3 Sm7 2.942927 1_465
B4 Co12 2.028523 1_555
B4 Co11 2.029075 1_555
B4 Co13 2.029075 1_555
B4 Co6 2.096470 1_555
B4 Co7 2.096959 1_555
B4 Co5 2.096959 1_555
B4 Sm5 2.941741 1_555
B4 Sm5 2.941780 1_545
B4 Sm5 2.941780 1_655
B5 Co9 2.028523 1_555
B5 Co10 2.029075 1_555
B5 Co8 2.029075 1_555
B5 Co3 2.096470 1_555
B5 Co2 2.096959 1_555
B5 Co4 2.096959 1_555
B5 Sm4 2.941741 1_555
B5 Sm4 2.941780 1_455
B5 Sm4 2.941780 1_565
B6 Co18 2.028523 1_555
B6 Co19 2.029075 1_555
B6 Co17 2.029075 1_555
B6 Co3 2.096470 1_555
B6 Co2 2.096959 1_555
B6 Co4 2.096959 1_555
B6 Sm7 2.941741 1_555
B6 Sm7 2.941780 1_455
B6 Sm7 2.941780 1_565
B7 Co15 2.028523 1_555
B7 Co14 2.029075 1_555
B7 Co16 2.029075 1_555
B7 Co6 2.096470 1_555
B7 Co7 2.096959 1_555
B7 Co5 2.096959 1_555
B7 Sm6 2.941741 1_555
B7 Sm6 2.941780 1_545
B7 Sm6 2.941780 1_655
