# generated using pymatgen
data_Ag2SeO3
_symmetry_space_group_name_H-M   'P 1'
_cell_length_a   10.19754900
_cell_length_b   5.00653500
_cell_length_c   7.43944868
_cell_angle_alpha   86.43121292
_cell_angle_beta   90.00000000
_cell_angle_gamma   90.00000000
_symmetry_Int_Tables_number   1
_chemical_formula_structural   Ag2SeO3
_chemical_formula_sum   'Ag8 Se4 O12'
_cell_volume   379.07993912
_cell_formula_units_Z   4
loop_
 _symmetry_equiv_pos_site_id
 _symmetry_equiv_pos_as_xyz
  1  'x, y, z'
loop_
 _atom_site_type_symbol
 _atom_site_label
 _atom_site_symmetry_multiplicity
 _atom_site_fract_x
 _atom_site_fract_y
 _atom_site_fract_z
 _atom_site_occupancy
  Ag  Ag0  1  0.06328600  0.72749000  0.88951700  1
  Ag  Ag1  1  0.43671400  0.72749000  0.38951700  1
  Ag  Ag2  1  0.93671400  0.27251000  0.11048300  1
  Ag  Ag3  1  0.56328600  0.27251000  0.61048300  1
  Ag  Ag4  1  0.24602900  0.27221700  0.61898200  1
  Ag  Ag5  1  0.74602900  0.72778300  0.88101800  1
  Ag  Ag6  1  0.75397100  0.72778300  0.38101800  1
  Ag  Ag7  1  0.25397100  0.27221700  0.11898200  1
  Se  Se0  1  0.39375800  0.73527600  0.84583500  1
  Se  Se1  1  0.60624200  0.26472400  0.15416500  1
  Se  Se2  1  0.89375800  0.26472400  0.65416500  1
  Se  Se3  1  0.10624200  0.73527600  0.34583500  1
  O  O0  1  0.24340200  0.80428600  0.21183700  1
  O  O1  1  0.74340200  0.19571400  0.28816300  1
  O  O2  1  0.75659800  0.19571400  0.78816300  1
  O  O3  1  0.25659800  0.80428600  0.71183700  1
  O  O4  1  0.98126800  0.77255700  0.18663200  1
  O  O5  1  0.48126800  0.22744300  0.31336800  1
  O  O6  1  0.01873200  0.22744300  0.81336800  1
  O  O7  1  0.38187900  0.38536200  0.86635900  1
  O  O8  1  0.11812100  0.38536200  0.36635900  1
  O  O9  1  0.61812100  0.61463800  0.13364100  1
  O  O10  1  0.88187900  0.61463800  0.63364100  1
  O  O11  1  0.51873200  0.77255700  0.68663200  1
loop_
_geom_bond_atom_site_label_1
_geom_bond_atom_site_label_2
_geom_bond_distance
_geom_bond_site_symmetry_2
Ag0 O4 2.387106 1_456
Ag0 O3 2.391208 1_555
Ag0 O6 2.572158 1_565
Ag0 O6 2.640350 1_555
Ag0 O10 2.738407 1_455
Ag1 O11 2.387106 1_555
Ag1 O0 2.391208 1_555
Ag1 O5 2.572158 1_565
Ag1 O5 2.640350 1_555
Ag1 O9 2.738407 1_555
Ag2 O6 2.387106 1_654
Ag2 O1 2.391208 1_555
Ag2 O4 2.572158 1_545
Ag2 O4 2.640350 1_555
Ag2 O8 2.738407 1_655
Ag3 O5 2.387106 1_555
Ag3 O2 2.391208 1_555
Ag3 O11 2.572158 1_545
Ag3 O11 2.640350 1_555
Ag3 O7 2.738407 1_555
Ag4 O8 2.328459 1_555
Ag4 O7 2.399314 1_555
Ag4 O3 2.403256 1_545
Ag4 O6 2.733807 1_555
Ag4 O3 2.795325 1_555
Ag5 O9 2.328459 1_556
Ag5 O10 2.399314 1_555
Ag5 O2 2.403256 1_565
Ag5 O11 2.733807 1_555
Ag5 O2 2.795325 1_555
Ag6 O10 2.328459 1_555
Ag6 O9 2.399314 1_555
Ag6 O1 2.403256 1_565
Ag6 O4 2.733807 1_555
Ag6 O1 2.795325 1_555
Ag7 O7 2.328459 1_554
Ag7 O8 2.399314 1_555
Ag7 O0 2.403256 1_545
Ag7 O5 2.733807 1_555
Ag7 O0 2.795325 1_555
O0 Se3 1.739711 1_555
O1 Se1 1.739711 1_555
O2 Se2 1.739711 1_555
O3 Se0 1.739711 1_555
O4 Se3 1.741909 1_655
O5 Se1 1.741909 1_555
O6 Se2 1.741909 1_455
O7 Se0 1.753194 1_555
O8 Se3 1.753194 1_555
O9 Se1 1.753194 1_555
O10 Se2 1.753194 1_555
O11 Se0 1.741909 1_555
