# generated using pymatgen
data_SrNi5N4
_symmetry_space_group_name_H-M   'P 1'
_cell_length_a   8.45534300
_cell_length_b   5.56612600
_cell_length_c   5.21181500
_cell_angle_alpha   90.00000000
_cell_angle_beta   90.00000000
_cell_angle_gamma   90.00000000
_symmetry_Int_Tables_number   1
_chemical_formula_structural   SrNi5N4
_chemical_formula_sum   'Sr2 Ni10 N8'
_cell_volume   245.28627876
_cell_formula_units_Z   2
loop_
 _symmetry_equiv_pos_site_id
 _symmetry_equiv_pos_as_xyz
  1  'x, y, z'
loop_
 _atom_site_type_symbol
 _atom_site_label
 _atom_site_symmetry_multiplicity
 _atom_site_fract_x
 _atom_site_fract_y
 _atom_site_fract_z
 _atom_site_occupancy
  Sr  Sr0  1  0.75000000  0.25000000  0.85087000  1
  Sr  Sr1  1  0.25000000  0.75000000  0.14913000  1
  Ni  Ni0  1  0.59497500  0.51904800  0.34273800  1
  Ni  Ni1  1  0.90502500  0.51904800  0.34273800  1
  Ni  Ni2  1  0.59497500  0.98095200  0.34273800  1
  Ni  Ni3  1  0.90502500  0.98095200  0.34273800  1
  Ni  Ni4  1  0.40502500  0.48095200  0.65726200  1
  Ni  Ni5  1  0.09497500  0.48095200  0.65726200  1
  Ni  Ni6  1  0.40502500  0.01904800  0.65726200  1
  Ni  Ni7  1  0.09497500  0.01904800  0.65726200  1
  Ni  Ni8  1  0.75000000  0.75000000  0.69973800  1
  Ni  Ni9  1  0.25000000  0.25000000  0.30026200  1
  N  N0  1  0.75000000  0.86941900  0.09985700  1
  N  N1  1  0.75000000  0.63058100  0.09985700  1
  N  N2  1  0.25000000  0.13058100  0.90014300  1
  N  N3  1  0.25000000  0.36941900  0.90014300  1
  N  N4  1  0.53374500  0.75000000  0.62322300  1
  N  N5  1  0.96625500  0.75000000  0.62322300  1
  N  N6  1  0.46625500  0.25000000  0.37677700  1
  N  N7  1  0.03374500  0.25000000  0.37677700  1
loop_
_geom_bond_atom_site_label_1
_geom_bond_atom_site_label_2
_geom_bond_distance
_geom_bond_site_symmetry_2
N0 N1 1.329402 1_555
N0 Ni2 1.925084 1_555
N0 Ni3 1.925084 1_555
N0 Ni8 2.188720 1_554
N0 Sr0 2.484233 1_564
N1 Ni1 1.925084 1_555
N1 Ni0 1.925084 1_555
N1 Ni8 2.188720 1_554
N1 Sr0 2.484233 1_554
N2 N3 1.329402 1_555
N2 Ni6 1.925084 1_555
N2 Ni7 1.925084 1_555
N2 Ni9 2.188720 1_556
N2 Sr1 2.484233 1_546
N3 Ni5 1.925084 1_555
N3 Ni4 1.925084 1_555
N3 Ni9 2.188720 1_556
N3 Sr1 2.484233 1_556
N4 Ni6 1.859757 1_565
N4 Ni4 1.859757 1_555
N4 Ni8 1.871490 1_555
N4 Ni0 2.014331 1_555
N4 Ni2 2.014331 1_555
N5 Ni7 1.859757 1_665
N5 Ni5 1.859757 1_655
N5 Ni8 1.871490 1_555
N5 Ni3 2.014331 1_555
N5 Ni1 2.014331 1_555
N6 Ni0 1.859757 1_555
N6 Ni2 1.859757 1_545
N6 Ni9 1.871490 1_555
N6 Ni6 2.014331 1_555
N6 Ni4 2.014331 1_555
N7 Ni3 1.859757 1_445
N7 Ni1 1.859757 1_455
N7 Ni9 1.871490 1_555
N7 Ni7 2.014331 1_555
N7 Ni5 2.014331 1_555
