# generated using pymatgen
data_Np2CoH8F10
_symmetry_space_group_name_H-M   'P 1'
_cell_length_a   6.96113300
_cell_length_b   8.67923600
_cell_length_c   10.70264929
_cell_angle_alpha   82.17370711
_cell_angle_beta   90.00000000
_cell_angle_gamma   90.00000000
_symmetry_Int_Tables_number   1
_chemical_formula_structural   Np2CoH8F10
_chemical_formula_sum   'Np4 Co2 H16 F20'
_cell_volume   640.60232586
_cell_formula_units_Z   2
loop_
 _symmetry_equiv_pos_site_id
 _symmetry_equiv_pos_as_xyz
  1  'x, y, z'
loop_
 _atom_site_type_symbol
 _atom_site_label
 _atom_site_symmetry_multiplicity
 _atom_site_fract_x
 _atom_site_fract_y
 _atom_site_fract_z
 _atom_site_occupancy
  Np  Np0  1  0.63480300  0.69515700  0.44230300  1
  Np  Np1  1  0.36519700  0.30484300  0.55769700  1
  Np  Np2  1  0.13480300  0.80484300  0.55769700  1
  Np  Np3  1  0.86519700  0.19515700  0.44230300  1
  Co  Co0  1  0.00000000  0.00000000  0.00000000  1
  Co  Co1  1  0.50000000  0.50000000  0.00000000  1
  H  H0  1  0.71477600  0.51092900  0.02773200  1
  H  H1  1  0.28522400  0.48907100  0.97226800  1
  H  H2  1  0.21477600  0.98907100  0.97226800  1
  H  H3  1  0.78522400  0.01092900  0.02773200  1
  H  H4  1  0.57246400  0.96243500  0.80460500  1
  H  H5  1  0.42753600  0.03756500  0.19539500  1
  H  H6  1  0.07246400  0.53756500  0.19539500  1
  H  H7  1  0.92753600  0.46243500  0.80460500  1
  H  H8  1  0.97509000  0.02344100  0.14170500  1
  H  H9  1  0.02491000  0.97655900  0.85829500  1
  H  H10  1  0.47509000  0.47655900  0.85829500  1
  H  H11  1  0.52491000  0.52344100  0.14170500  1
  H  H12  1  0.39817500  0.51962600  0.12767500  1
  H  H13  1  0.60182500  0.48037400  0.87232500  1
  H  H14  1  0.89817500  0.98037400  0.87232500  1
  H  H15  1  0.10182500  0.01962600  0.12767500  1
  F  F0  1  0.96806400  0.72297600  0.40044800  1
  F  F1  1  0.03193600  0.27702400  0.59955200  1
  F  F2  1  0.46806400  0.77702400  0.59955200  1
  F  F3  1  0.53193600  0.22297600  0.40044800  1
  F  F4  1  0.92977900  0.99002000  0.60397400  1
  F  F5  1  0.07022100  0.00998000  0.39602600  1
  F  F6  1  0.42977900  0.50998000  0.39602600  1
  F  F7  1  0.57022100  0.49002000  0.60397400  1
  F  F8  1  0.84599700  0.69956800  0.61363700  1
  F  F9  1  0.15400300  0.30043200  0.38636300  1
  F  F10  1  0.34599700  0.80043200  0.38636300  1
  F  F11  1  0.65400300  0.19956800  0.61363700  1
  F  F12  1  0.66349900  0.71102200  0.25072800  1
  F  F13  1  0.33650100  0.28897800  0.74927200  1
  F  F14  1  0.16349900  0.78897800  0.74927200  1
  F  F15  1  0.83650100  0.21102200  0.25072800  1
  F  F16  1  0.69717500  0.93897200  0.41700500  1
  F  F17  1  0.30282500  0.06102800  0.58299500  1
  F  F18  1  0.19717500  0.56102800  0.58299500  1
  F  F19  1  0.80282500  0.43897200  0.41700500  1
loop_
_geom_bond_atom_site_label_1
_geom_bond_atom_site_label_2
_geom_bond_distance
_geom_bond_site_symmetry_2
Co0 H2 1.529718 1_544
Co0 H3 1.529718 1_455
Co0 H8 1.567043 1_455
Co0 H9 1.567043 1_544
Co0 H15 1.569090 1_555
Co0 H14 1.569090 1_444
Co1 H0 1.529718 1_555
Co1 H1 1.529718 1_554
Co1 H11 1.567043 1_555
Co1 H10 1.567043 1_554
Co1 H12 1.569090 1_555
Co1 H13 1.569090 1_554
H10 H13 0.896275 1_555
H11 H12 0.896275 1_555
H14 H9 0.896275 1_655
H15 H8 0.896275 1_455
F0 Np2 2.238342 1_655
F0 Np0 2.368823 1_555
F1 Np3 2.238342 1_455
F1 Np1 2.368823 1_555
F2 Np0 2.238342 1_555
F2 Np2 2.368823 1_555
F3 Np1 2.238342 1_555
F3 Np3 2.368823 1_555
F4 Np2 2.254345 1_655
F4 Np3 2.350960 1_565
F5 Np3 2.254345 1_455
F5 Np2 2.350960 1_545
F6 Np0 2.254345 1_555
F6 Np1 2.350960 1_555
F7 Np1 2.254345 1_555
F7 Np0 2.350960 1_555
F8 Np2 2.255239 1_655
F8 Np0 2.354672 1_555
F9 Np3 2.255239 1_455
F9 Np1 2.354672 1_555
F10 Np0 2.255239 1_555
F10 Np2 2.354672 1_555
F11 Np1 2.255239 1_555
F11 Np3 2.354672 1_555
F12 Np0 2.045960 1_555
F13 Np1 2.045960 1_555
F14 Np2 2.045960 1_555
F15 Np3 2.045960 1_555
F16 Np0 2.140976 1_555
F16 Np3 2.559139 1_565
F17 Np1 2.140976 1_555
F17 Np2 2.559139 1_545
F18 Np2 2.140976 1_555
F18 Np1 2.559139 1_555
F19 Np3 2.140976 1_555
F19 Np0 2.559139 1_555
