# generated using pymatgen
data_K2Ca2(SO4)3
_symmetry_space_group_name_H-M   'P 1'
_cell_length_a   10.07824682
_cell_length_b   10.30073088
_cell_length_c   10.48149714
_cell_angle_alpha   90.00000000
_cell_angle_beta   90.00000000
_cell_angle_gamma   90.00000000
_symmetry_Int_Tables_number   1
_chemical_formula_structural   K2Ca2(SO4)3
_chemical_formula_sum   'K8 Ca8 S12 O48'
_cell_volume   1088.11889336
_cell_formula_units_Z   4
loop_
 _symmetry_equiv_pos_site_id
 _symmetry_equiv_pos_as_xyz
  1  'x, y, z'
loop_
 _atom_site_type_symbol
 _atom_site_label
 _atom_site_symmetry_multiplicity
 _atom_site_fract_x
 _atom_site_fract_y
 _atom_site_fract_z
 _atom_site_occupancy
  K  K0  1  0.31064409  0.66884858  0.18619224  1
  K  K1  1  0.18935591  0.33115142  0.68619224  1
  K  K2  1  0.43736195  0.97448071  0.56225791  1
  K  K3  1  0.68935591  0.16884858  0.31380776  1
  K  K4  1  0.06263805  0.02551929  0.06225791  1
  K  K5  1  0.56263805  0.47448071  0.93774209  1
  K  K6  1  0.93736195  0.52551929  0.43774209  1
  K  K7  1  0.81064409  0.83115142  0.81380776  1
  Ca  Ca0  1  0.32091792  0.30173288  0.33827639  1
  Ca  Ca1  1  0.82091792  0.19826712  0.66172361  1
  Ca  Ca2  1  0.67908208  0.80173288  0.16172361  1
  Ca  Ca3  1  0.17908208  0.69826712  0.83827639  1
  Ca  Ca4  1  0.57334366  0.60077991  0.59402524  1
  Ca  Ca5  1  0.42665634  0.10077991  0.90597476  1
  Ca  Ca6  1  0.92665634  0.39922009  0.09402524  1
  Ca  Ca7  1  0.07334366  0.89922009  0.40597476  1
  S  S0  1  0.12936445  0.00171691  0.71737803  1
  S  S1  1  0.62936445  0.49828309  0.28262197  1
  S  S2  1  0.87063555  0.50171691  0.78262197  1
  S  S3  1  0.37063555  0.99828309  0.21737803  1
  S  S4  1  0.24463090  0.60831398  0.50212292  1
  S  S5  1  0.74463090  0.89168602  0.49787708  1
  S  S6  1  0.75536910  0.10831398  0.99787708  1
  S  S7  1  0.25536910  0.39168602  0.00212292  1
  S  S8  1  0.48072763  0.79522071  0.87039694  1
  S  S9  1  0.01927237  0.20477929  0.37039694  1
  S  S10  1  0.51927237  0.29522071  0.62960306  1
  S  S11  1  0.98072763  0.70477929  0.12960306  1
  O  O0  1  0.07741346  0.90752167  0.81150792  1
  O  O1  1  0.57741346  0.59247833  0.18849208  1
  O  O2  1  0.92258654  0.40752167  0.68849208  1
  O  O3  1  0.42258654  0.09247833  0.31150792  1
  O  O4  1  0.24297951  0.07300509  0.77279062  1
  O  O5  1  0.74297951  0.42699491  0.22720938  1
  O  O6  1  0.75702049  0.57300509  0.72720938  1
  O  O7  1  0.25702049  0.92699491  0.27279062  1
  O  O8  1  0.02555414  0.09482637  0.68264883  1
  O  O9  1  0.52555414  0.40517363  0.31735117  1
  O  O10  1  0.97444586  0.59482637  0.81735117  1
  O  O11  1  0.47444586  0.90517363  0.18264883  1
  O  O12  1  0.17613338  0.92942561  0.60422216  1
  O  O13  1  0.67613338  0.57057439  0.39577784  1
  O  O14  1  0.82386662  0.42942561  0.89577784  1
  O  O15  1  0.32386662  0.07057439  0.10422216  1
  O  O16  1  0.38095163  0.65630857  0.48395750  1
  O  O17  1  0.88095163  0.84369143  0.51604250  1
  O  O18  1  0.15304404  0.69093316  0.42846285  1
  O  O19  1  0.61904837  0.15630857  0.01604250  1
  O  O20  1  0.23231944  0.47409902  0.45276594  1
  O  O21  1  0.73231944  0.02590098  0.54723406  1
  O  O22  1  0.76768056  0.97409902  0.04723406  1
  O  O23  1  0.26768056  0.52590098  0.95276594  1
  O  O24  1  0.20619611  0.60720625  0.63726586  1
  O  O25  1  0.70619611  0.89279375  0.36273414  1
  O  O26  1  0.79380389  0.10720625  0.86273414  1
  O  O27  1  0.29380389  0.39279375  0.13726586  1
  O  O28  1  0.04327708  0.30113687  0.26849396  1
  O  O29  1  0.54327708  0.19886313  0.73150604  1
  O  O30  1  0.95672292  0.80113687  0.23150604  1
  O  O31  1  0.45672292  0.69886313  0.76849396  1
  O  O32  1  0.96917669  0.08189536  0.31564399  1
  O  O33  1  0.46917669  0.41810464  0.68435601  1
  O  O34  1  0.03082331  0.58189536  0.18435601  1
  O  O35  1  0.53082331  0.91810464  0.81564399  1
  O  O36  1  0.92064242  0.25680537  0.46051499  1
  O  O37  1  0.42064242  0.24319463  0.53948501  1
  O  O38  1  0.07935758  0.75680537  0.03948501  1
  O  O39  1  0.57935758  0.74319463  0.96051499  1
  O  O40  1  0.14731565  0.17873624  0.43470303  1
  O  O41  1  0.64731565  0.32126376  0.56529697  1
  O  O42  1  0.85268435  0.67873624  0.06529697  1
  O  O43  1  0.35268435  0.82126376  0.93470303  1
  O  O44  1  0.34695596  0.30906684  0.92846285  1
  O  O45  1  0.84695596  0.19093316  0.07153715  1
  O  O46  1  0.65304404  0.80906684  0.57153715  1
  O  O47  1  0.11904837  0.34369143  0.98395750  1
loop_
_geom_bond_atom_site_label_1
_geom_bond_atom_site_label_2
_geom_bond_distance
_geom_bond_site_symmetry_2
K0 O1 2.801397 1_555
K0 O7 2.861248 1_555
K0 O23 2.888212 1_554
K0 O27 2.894419 1_555
K0 O38 2.935782 1_555
K0 O11 2.941522 1_555
K0 O34 2.958986 1_555
K0 O18 3.003813 1_555
K0 O43 3.097222 1_554
K0 O16 3.203056 1_555
K1 O2 2.801397 1_455
K1 O4 2.861248 1_555
K1 O20 2.888212 1_555
K1 O24 2.894419 1_555
K1 O37 2.935782 1_555
K1 O8 2.941522 1_555
K1 O33 2.958986 1_555
K1 O44 3.003813 1_555
K1 O40 3.097222 1_555
K1 O47 3.203056 1_555
K2 O12 2.709262 1_555
K2 O46 2.763628 1_555
K2 O37 2.783328 1_565
K2 O35 2.877165 1_555
K2 O3 2.899507 1_565
K2 O21 3.023577 1_565
K2 O29 3.102987 1_565
K2 O4 3.120464 1_565
K3 O3 2.801397 1_555
K3 O5 2.861248 1_555
K3 O21 2.888212 1_555
K3 O25 2.894419 1_545
K3 O36 2.935782 1_555
K3 O9 2.941522 1_555
K3 O32 2.958986 1_555
K3 O45 3.003813 1_555
K3 O41 3.097222 1_555
K3 O19 3.203056 1_555
K4 O15 2.709262 1_555
K4 O45 2.763628 1_455
K4 O38 2.783328 1_545
K4 O32 2.877165 1_455
K4 O0 2.899507 1_544
K4 O22 3.023577 1_445
K4 O30 3.102987 1_445
K4 O7 3.120464 1_545
K5 O14 2.709262 1_555
K5 O44 2.763628 1_555
K5 O39 2.783328 1_555
K5 O33 2.877165 1_555
K5 O1 2.899507 1_556
K5 O23 3.023577 1_555
K5 O31 3.102987 1_555
K5 O6 3.120464 1_555
K6 O13 2.709262 1_555
K6 O18 2.763628 1_655
K6 O36 2.783328 1_555
K6 O34 2.877165 1_655
K6 O2 2.899507 1_555
K6 O20 3.023577 1_655
K6 O28 3.102987 1_655
K6 O5 3.120464 1_555
K7 O0 2.801397 1_655
K7 O6 2.861248 1_555
K7 O22 2.888212 1_556
K7 O26 2.894419 1_565
K7 O39 2.935782 1_555
K7 O10 2.941522 1_555
K7 O35 2.958986 1_555
K7 O46 3.003813 1_555
K7 O42 3.097222 1_556
K7 O17 3.203056 1_555
Ca0 O20 2.321582 1_555
Ca0 O27 2.322390 1_555
Ca0 O9 2.331698 1_555
Ca0 O40 2.384912 1_555
Ca0 O3 2.403057 1_555
Ca0 O37 2.412770 1_555
Ca1 O21 2.321582 1_555
Ca1 O26 2.322390 1_555
Ca1 O8 2.331698 1_655
Ca1 O41 2.384912 1_555
Ca1 O2 2.403057 1_555
Ca1 O36 2.412770 1_555
Ca2 O22 2.321582 1_555
Ca2 O25 2.322390 1_555
Ca2 O11 2.331698 1_555
Ca2 O42 2.384912 1_555
Ca2 O1 2.403057 1_555
Ca2 O39 2.412770 1_554
Ca3 O23 2.321582 1_555
Ca3 O24 2.322390 1_555
Ca3 O10 2.331698 1_455
Ca3 O43 2.384912 1_555
Ca3 O0 2.403057 1_555
Ca3 O38 2.412770 1_556
Ca4 O46 2.303032 1_555
Ca4 O16 2.327607 1_555
Ca4 O6 2.336087 1_555
Ca4 O13 2.342599 1_555
Ca4 O33 2.353574 1_555
Ca4 O31 2.397142 1_555
Ca5 O44 2.303032 1_555
Ca5 O19 2.327607 1_556
Ca5 O4 2.336087 1_555
Ca5 O15 2.342599 1_556
Ca5 O35 2.353574 1_545
Ca5 O29 2.397142 1_555
Ca6 O45 2.303032 1_555
Ca6 O47 2.327607 1_654
Ca6 O5 2.336087 1_555
Ca6 O14 2.342599 1_554
Ca6 O34 2.353574 1_655
Ca6 O28 2.397142 1_655
Ca7 O18 2.303032 1_555
Ca7 O17 2.327607 1_455
Ca7 O7 2.336087 1_555
Ca7 O12 2.342599 1_555
Ca7 O32 2.353574 1_465
Ca7 O30 2.397142 1_455
O0 S0 1.479526 1_565
O1 S1 1.479526 1_555
O2 S2 1.479526 1_555
O3 S3 1.479526 1_545
O4 S0 1.479081 1_555
O5 S1 1.479081 1_555
O6 S2 1.479081 1_555
O7 S3 1.479081 1_555
O8 S0 1.465251 1_555
O9 S1 1.465251 1_555
O10 S2 1.465251 1_555
O11 S3 1.465251 1_555
O12 S0 1.477625 1_565
O13 S1 1.477625 1_555
O14 S2 1.477625 1_555
O15 S3 1.477625 1_545
O16 S4 1.472479 1_555
O17 S5 1.472479 1_555
O18 S4 1.473889 1_555
O19 S6 1.472479 1_554
O20 S4 1.481341 1_555
O21 S5 1.481341 1_545
O22 S6 1.481341 1_564
O23 S7 1.481341 1_556
O24 S4 1.468553 1_555
O25 S5 1.468553 1_555
O26 S6 1.468553 1_555
O27 S7 1.468553 1_555
O28 S9 1.478012 1_555
O29 S10 1.478012 1_555
O30 S11 1.478012 1_555
O31 S8 1.478012 1_555
O32 S9 1.478678 1_655
O33 S10 1.478678 1_555
O34 S11 1.478678 1_455
O35 S8 1.478678 1_555
O36 S9 1.472237 1_655
O37 S10 1.472237 1_555
O38 S11 1.472237 1_455
O39 S8 1.472237 1_555
O40 S9 1.480385 1_555
O41 S10 1.480385 1_555
O42 S11 1.480385 1_555
O43 S8 1.480385 1_555
O44 S7 1.473889 1_556
O45 S6 1.473889 1_554
O46 S5 1.473889 1_555
O47 S7 1.472479 1_556
