# generated using pymatgen
data_ZrS2N
_symmetry_space_group_name_H-M   'P 1'
_cell_length_a   8.50490086
_cell_length_b   8.50490086
_cell_length_c   8.50490045
_cell_angle_alpha   25.12740068
_cell_angle_beta   25.12740068
_cell_angle_gamma   25.12740389
_symmetry_Int_Tables_number   1
_chemical_formula_structural   ZrS2N
_chemical_formula_sum   'Zr1 S2 N1'
_cell_volume   97.60351361
_cell_formula_units_Z   1
loop_
 _symmetry_equiv_pos_site_id
 _symmetry_equiv_pos_as_xyz
  1  'x, y, z'
loop_
 _atom_site_type_symbol
 _atom_site_label
 _atom_site_symmetry_multiplicity
 _atom_site_fract_x
 _atom_site_fract_y
 _atom_site_fract_z
 _atom_site_occupancy
  Zr  Zr0  1  0.99687400  0.99687400  0.99687400  1
  S  S0  1  0.38909100  0.38909100  0.38909100  1
  S  S1  1  0.60450000  0.60450000  0.60450000  1
  N  N0  1  0.16953500  0.16953500  0.16953500  1
loop_
_geom_bond_atom_site_label_1
_geom_bond_atom_site_label_2
_geom_bond_distance
_geom_bond_site_symmetry_2
S0 Zr0 2.584235 1_445
S0 Zr0 2.584235 1_544
S0 Zr0 2.584235 1_454
S1 Zr0 2.586418 1_554
S1 Zr0 2.586419 1_545
S1 Zr0 2.586419 1_455
