# generated using pymatgen
data_Li5Mn2CoO8
_symmetry_space_group_name_H-M   'P 1'
_cell_length_a   2.90092027
_cell_length_b   9.79695657
_cell_length_c   10.15193556
_cell_angle_alpha   101.24791010
_cell_angle_beta   89.06731876
_cell_angle_gamma   90.95197940
_symmetry_Int_Tables_number   1
_chemical_formula_structural   Li5Mn2CoO8
_chemical_formula_sum   'Li10 Mn4 Co2 O16'
_cell_volume   282.91409693
_cell_formula_units_Z   2
loop_
 _symmetry_equiv_pos_site_id
 _symmetry_equiv_pos_as_xyz
  1  'x, y, z'
loop_
 _atom_site_type_symbol
 _atom_site_label
 _atom_site_symmetry_multiplicity
 _atom_site_fract_x
 _atom_site_fract_y
 _atom_site_fract_z
 _atom_site_occupancy
  Li  Li0  1  0.99999900  0.49999900  0.24999800  1
  Li  Li1  1  0.49999300  0.99999400  0.75000000  1
  Li  Li2  1  0.00282000  0.24073700  0.86622000  1
  Li  Li3  1  0.50254600  0.74079100  0.36632400  1
  Li  Li4  1  0.49744400  0.25920900  0.13367300  1
  Li  Li5  1  0.99716800  0.75926200  0.63378100  1
  Li  Li6  1  0.48451800  0.76091800  0.87033900  1
  Li  Li7  1  0.98422600  0.26094000  0.37022100  1
  Li  Li8  1  0.01577300  0.73906200  0.12978000  1
  Li  Li9  1  0.51546800  0.23907800  0.62965700  1
  Mn  Mn0  1  0.99102400  0.99867400  0.99120900  1
  Mn  Mn1  1  0.00896600  0.00132700  0.50879800  1
  Mn  Mn2  1  0.49036300  0.49871700  0.49124600  1
  Mn  Mn3  1  0.50966300  0.50128500  0.00875200  1
  Co  Co0  1  0.99999700  0.49999500  0.74999800  1
  Co  Co1  1  0.49999100  0.99998800  0.25000000  1
  O  O0  1  0.49801600  0.11315300  0.94759100  1
  O  O1  1  0.99737100  0.61312200  0.44760200  1
  O  O2  1  0.00265000  0.38688000  0.05239400  1
  O  O3  1  0.50198200  0.88685500  0.55240700  1
  O  O4  1  0.02014300  0.60752600  0.94315300  1
  O  O5  1  0.51947000  0.10754500  0.44310400  1
  O  O6  1  0.48052600  0.89245800  0.05690200  1
  O  O7  1  0.97987200  0.39247300  0.55684300  1
  O  O8  1  0.50712200  0.61737200  0.17312700  1
  O  O9  1  0.00657500  0.11754800  0.67321400  1
  O  O10  1  0.49289400  0.38262800  0.32687300  1
  O  O11  1  0.99341300  0.88246800  0.82681100  1
  O  O12  1  0.47757800  0.61225900  0.68505300  1
  O  O13  1  0.97782600  0.11229200  0.18503700  1
  O  O14  1  0.52242600  0.38773500  0.81494000  1
  O  O15  1  0.02217700  0.88771100  0.31495500  1
loop_
_geom_bond_atom_site_label_1
_geom_bond_atom_site_label_2
_geom_bond_distance
_geom_bond_site_symmetry_2
Li0 O10 2.086107 1_555
Li0 O8 2.086136 1_655
Li0 O2 2.094041 1_655
Li0 O1 2.094055 1_555
Li0 O8 2.101576 1_555
Li0 O10 2.101620 1_655
Li1 O11 2.085682 1_455
Li1 O9 2.085735 1_665
Li1 O3 2.094020 1_555
Li1 O0 2.094070 1_565
Li1 O11 2.103320 1_555
Li1 O9 2.103365 1_565
Li2 O9 2.091195 1_555
Li2 O2 2.136928 1_556
Li2 O14 2.160985 1_455
Li2 O0 2.166054 1_455
Li2 O0 2.193042 1_555
Li2 O14 2.193594 1_555
Li3 O8 2.093682 1_555
Li3 O3 2.135844 1_555
Li3 O15 2.160729 1_555
Li3 O1 2.166842 1_455
Li3 O1 2.192395 1_555
Li3 O15 2.193434 1_655
Li4 O10 2.093708 1_555
Li4 O0 2.135797 1_554
Li4 O13 2.160713 1_555
Li4 O2 2.166919 1_655
Li4 O2 2.192353 1_555
Li4 O13 2.193371 1_455
Li5 O11 2.091461 1_555
Li5 O1 2.136952 1_555
Li5 O12 2.161020 1_655
Li5 O3 2.166144 1_655
Li5 O3 2.193096 1_555
Li5 O12 2.193568 1_555
Li6 O11 1.979471 1_555
Li6 O11 1.981191 1_455
Li6 O6 2.072589 1_556
Li6 O12 2.142726 1_555
Li6 O4 2.225565 1_555
Li6 O4 2.401541 1_655
Li7 O10 1.979245 1_655
Li7 O10 1.981919 1_555
Li7 O7 2.073035 1_555
Li7 O13 2.141881 1_555
Li7 O5 2.226555 1_555
Li7 O5 2.401139 1_655
Li8 O8 1.979218 1_455
Li8 O8 1.981964 1_555
Li8 O4 2.073088 1_554
Li8 O15 2.141818 1_555
Li8 O6 2.226534 1_555
Li8 O6 2.401129 1_455
Li9 O9 1.979440 1_555
Li9 O9 1.981170 1_655
Li9 O5 2.072479 1_555
Li9 O14 2.142694 1_555
Li9 O7 2.225636 1_555
Li9 O7 2.401506 1_455
Mn0 O11 1.827630 1_555
Mn0 O0 1.932552 1_665
Mn0 O0 1.940877 1_565
Mn0 O6 1.973495 1_656
Mn0 O6 1.976887 1_556
Mn0 O13 2.063237 1_566
Mn1 O9 1.827840 1_555
Mn1 O3 1.932462 1_445
Mn1 O3 1.940819 1_545
Mn1 O5 1.973499 1_455
Mn1 O5 1.976915 1_555
Mn1 O15 2.063360 1_545
Mn2 O10 1.826919 1_555
Mn2 O1 1.932229 1_555
Mn2 O1 1.940476 1_455
Mn2 O7 1.973235 1_555
Mn2 O7 1.976614 1_455
Mn2 O12 2.062779 1_555
Mn3 O8 1.826926 1_555
Mn3 O2 1.932234 1_555
Mn3 O2 1.940458 1_655
Mn3 O4 1.973250 1_554
Mn3 O4 1.976582 1_654
Mn3 O14 2.062849 1_554
Co0 O14 1.940632 1_555
Co0 O12 1.940690 1_655
Co0 O7 2.038144 1_555
Co0 O4 2.038175 1_655
Co0 O14 2.076494 1_655
Co0 O12 2.076509 1_555
Co1 O15 1.941286 1_555
Co1 O13 1.941529 1_565
Co1 O6 2.037604 1_555
Co1 O5 2.037745 1_565
Co1 O15 2.076127 1_655
Co1 O13 2.076277 1_465
