# generated using pymatgen
data_Ce2Co3Si5
_symmetry_space_group_name_H-M   'P 1'
_cell_length_a   7.94072235
_cell_length_b   7.94072235
_cell_length_c   7.94072235
_cell_angle_alpha   138.48187882
_cell_angle_beta   105.13258944
_cell_angle_gamma   89.43850760
_symmetry_Int_Tables_number   1
_chemical_formula_structural   Ce2Co3Si5
_chemical_formula_sum   'Ce4 Co6 Si10'
_cell_volume   306.60237457
_cell_formula_units_Z   2
loop_
 _symmetry_equiv_pos_site_id
 _symmetry_equiv_pos_as_xyz
  1  'x, y, z'
loop_
 _atom_site_type_symbol
 _atom_site_label
 _atom_site_symmetry_multiplicity
 _atom_site_fract_x
 _atom_site_fract_y
 _atom_site_fract_z
 _atom_site_occupancy
  Ce  Ce0  1  0.86691200  0.63182000  0.23509200  1
  Ce  Ce1  1  0.13308800  0.36818000  0.76490800  1
  Ce  Ce2  1  0.39672800  0.13182000  0.26490800  1
  Ce  Ce3  1  0.60327200  0.86818000  0.73509200  1
  Co  Co0  1  0.00000000  0.75000000  0.75000000  1
  Co  Co1  1  0.00000000  0.25000000  0.25000000  1
  Co  Co2  1  0.24717500  0.86349500  0.38368000  1
  Co  Co3  1  0.75282500  0.13650500  0.61632000  1
  Co  Co4  1  0.47981500  0.36349500  0.11632000  1
  Co  Co5  1  0.52018500  0.63650500  0.88368000  1
  Si  Si0  1  0.50000000  0.75000000  0.25000000  1
  Si  Si1  1  0.50000000  0.25000000  0.75000000  1
  Si  Si2  1  0.23430100  0.98430100  0.75000000  1
  Si  Si3  1  0.76569900  0.51569900  0.75000000  1
  Si  Si4  1  0.76569900  0.01569900  0.25000000  1
  Si  Si5  1  0.23430100  0.48430100  0.25000000  1
  Si  Si6  1  0.04450200  0.89552100  0.14898000  1
  Si  Si7  1  0.95549800  0.10447900  0.85102000  1
  Si  Si8  1  0.74654100  0.39552100  0.35102000  1
  Si  Si9  1  0.25345900  0.60447900  0.64898000  1
loop_
_geom_bond_atom_site_label_1
_geom_bond_atom_site_label_2
_geom_bond_distance
_geom_bond_site_symmetry_2
Ce0 Si8 2.891891 1_555
Ce0 Co2 2.982035 1_655
Ce0 Co3 3.039540 1_554
Ce0 Co3 3.039540 1_565
Ce0 Si7 3.044500 1_554
Ce0 Si7 3.044505 1_565
Ce0 Si0 3.056723 1_555
Ce0 Si1 3.056723 1_554
Ce0 Si4 3.068098 1_565
Ce0 Si3 3.068098 1_554
Ce0 Si6 3.089734 1_655
Ce0 Si5 3.139652 1_655
Ce0 Si2 3.139652 1_655
Ce0 Co1 3.276097 1_655
Ce0 Co0 3.276097 1_655
Ce1 Si9 2.891891 1_555
Ce1 Co3 2.982035 1_455
Ce1 Co2 3.039540 1_545
Ce1 Co2 3.039540 1_556
Ce1 Si6 3.044500 1_556
Ce1 Si6 3.044505 1_545
Ce1 Si0 3.056723 1_556
Ce1 Si1 3.056723 1_555
Ce1 Si2 3.068098 1_545
Ce1 Si5 3.068098 1_556
Ce1 Si7 3.089734 1_455
Ce1 Si4 3.139652 1_455
Ce1 Si3 3.139652 1_455
Ce1 Co0 3.276097 1_555
Ce1 Co1 3.276097 1_555
Ce2 Si6 2.891884 1_545
Ce2 Co4 2.982035 1_555
Ce2 Co5 3.039540 1_555
Ce2 Co5 3.039540 1_544
Ce2 Si9 3.044503 1_555
Ce2 Si9 3.044503 1_544
Ce2 Si1 3.056723 1_555
Ce2 Si0 3.056723 1_545
Ce2 Si3 3.068098 1_555
Ce2 Si4 3.068098 1_555
Ce2 Si8 3.089730 1_555
Ce2 Si2 3.139652 1_544
Ce2 Si5 3.139652 1_555
Ce2 Co1 3.276097 1_555
Ce2 Co0 3.276097 1_544
Ce3 Si7 2.891884 1_565
Ce3 Co5 2.982035 1_555
Ce3 Co4 3.039540 1_566
Ce3 Co4 3.039540 1_555
Ce3 Si8 3.044503 1_566
Ce3 Si8 3.044503 1_555
Ce3 Si1 3.056723 1_565
Ce3 Si0 3.056723 1_555
Ce3 Si5 3.068098 1_555
Ce3 Si2 3.068098 1_555
Ce3 Si9 3.089730 1_555
Ce3 Si3 3.139652 1_555
Ce3 Si4 3.139652 1_566
Ce3 Co1 3.276097 1_666
Ce3 Co0 3.276097 1_655
Co0 Si6 2.332116 1_556
Co0 Si9 2.332117 1_555
Co0 Si8 2.332117 1_455
Co0 Si7 2.332119 1_465
Co0 Si2 2.644032 1_555
Co0 Si3 2.644032 1_455
Co0 Co1 2.814501 1_566
Co0 Co1 2.814501 1_555
Co1 Si7 2.332116 1_454
Co1 Si8 2.332117 1_455
Co1 Si9 2.332117 1_555
Co1 Si6 2.332119 1_545
Co1 Si5 2.644032 1_555
Co1 Si4 2.644032 1_455
Co2 Si6 2.294299 1_555
Co2 Si2 2.316629 1_555
Co2 Si5 2.316629 1_555
Co2 Si1 2.369419 1_565
Co2 Si0 2.369419 1_555
Co3 Si7 2.294299 1_555
Co3 Si4 2.316629 1_555
Co3 Si3 2.316629 1_555
Co3 Si1 2.369419 1_555
Co3 Si0 2.369419 1_545
Co4 Si8 2.294303 1_555
Co4 Si2 2.316629 1_544
Co4 Si5 2.316629 1_555
Co4 Si1 2.369419 1_554
Co4 Si0 2.369419 1_555
Co5 Si9 2.294303 1_555
Co5 Si4 2.316629 1_566
Co5 Si3 2.316629 1_555
Co5 Si1 2.369419 1_555
Co5 Si0 2.369419 1_556
Si2 Si9 2.488963 1_555
Si2 Si7 2.488971 1_465
Si3 Si8 2.488963 1_555
Si3 Si6 2.488968 1_656
Si4 Si8 2.488963 1_555
Si4 Si6 2.488971 1_645
Si5 Si9 2.488963 1_555
Si5 Si7 2.488968 1_454
