# generated using pymatgen
data_Co2Ni2Te5
_symmetry_space_group_name_H-M   'P 1'
_cell_length_a   6.63095900
_cell_length_b   6.63777011
_cell_length_c   9.43766429
_cell_angle_alpha   77.85182727
_cell_angle_beta   77.81577910
_cell_angle_gamma   61.41310937
_symmetry_Int_Tables_number   1
_chemical_formula_structural   Co2Ni2Te5
_chemical_formula_sum   'Co4 Ni4 Te10'
_cell_volume   353.62944056
_cell_formula_units_Z   2
loop_
 _symmetry_equiv_pos_site_id
 _symmetry_equiv_pos_as_xyz
  1  'x, y, z'
loop_
 _atom_site_type_symbol
 _atom_site_label
 _atom_site_symmetry_multiplicity
 _atom_site_fract_x
 _atom_site_fract_y
 _atom_site_fract_z
 _atom_site_occupancy
  Co  Co0  1  0.39693600  0.40390400  0.19387900  1
  Co  Co1  1  0.80805500  0.79989600  0.39882200  1
  Co  Co2  1  0.19194500  0.20010400  0.60117800  1
  Co  Co3  1  0.60306400  0.59609600  0.80612100  1
  Ni  Ni0  1  0.80464900  0.81389500  0.89714100  1
  Ni  Ni1  1  0.19535100  0.18610500  0.10285900  1
  Ni  Ni2  1  0.59388200  0.60143800  0.30684800  1
  Ni  Ni3  1  0.40611800  0.39856200  0.69315200  1
  Te  Te0  1  0.56127500  0.22612900  0.44598600  1
  Te  Te1  1  0.96266500  0.62863300  0.64681400  1
  Te  Te2  1  0.36587500  0.02954200  0.84967400  1
  Te  Te3  1  0.76432100  0.43739800  0.05236200  1
  Te  Te4  1  0.16503500  0.82613800  0.25181600  1
  Te  Te5  1  0.03733500  0.37136700  0.35318600  1
  Te  Te6  1  0.43872500  0.77387100  0.55401400  1
  Te  Te7  1  0.83496500  0.17386200  0.74818400  1
  Te  Te8  1  0.23567900  0.56260200  0.94763800  1
  Te  Te9  1  0.63412500  0.97045800  0.15032600  1
loop_
_geom_bond_atom_site_label_1
_geom_bond_atom_site_label_2
_geom_bond_distance
_geom_bond_site_symmetry_2
Co0 Te8 2.567954 1_554
Co0 Te4 2.585414 1_555
Co0 Te3 2.605344 1_555
Co0 Te9 2.610522 1_545
Co0 Te5 2.614541 1_555
Co0 Te0 2.631200 1_555
Co0 Ni2 2.715907 1_555
Co0 Ni1 2.733393 1_555
Co1 Te4 2.542649 1_655
Co1 Te1 2.568825 1_555
Co1 Te0 2.583115 1_565
Co1 Te5 2.586246 1_655
Co1 Te9 2.624242 1_555
Co1 Te6 2.637610 1_555
Co1 Ni2 2.701412 1_555
Co2 Te7 2.542649 1_455
Co2 Te5 2.568825 1_555
Co2 Te6 2.583115 1_545
Co2 Te1 2.586246 1_455
Co2 Te2 2.624242 1_555
Co2 Te0 2.637610 1_555
Co2 Ni3 2.701412 1_555
Co3 Te3 2.567954 1_556
Co3 Te7 2.585414 1_555
Co3 Te8 2.605344 1_555
Co3 Te2 2.610522 1_565
Co3 Te1 2.614541 1_555
Co3 Te6 2.631200 1_555
Co3 Ni3 2.715907 1_555
Co3 Ni0 2.733393 1_555
Ni0 Te7 2.579236 1_565
Ni0 Te9 2.616918 1_556
Ni0 Te8 2.618479 1_655
Ni0 Te2 2.647552 1_565
Ni0 Te1 2.671386 1_555
Ni0 Te3 2.719625 1_556
Ni1 Te4 2.579236 1_545
Ni1 Te2 2.616918 1_554
Ni1 Te3 2.618479 1_455
Ni1 Te9 2.647552 1_545
Ni1 Te5 2.671386 1_555
Ni1 Te8 2.719625 1_554
Ni2 Te6 2.606463 1_555
Ni2 Te4 2.611375 1_555
Ni2 Te0 2.644999 1_555
Ni2 Te3 2.647369 1_555
Ni2 Te5 2.671026 1_655
Ni2 Te9 2.681318 1_555
Ni3 Te0 2.606463 1_555
Ni3 Te7 2.611375 1_555
Ni3 Te6 2.644999 1_555
Ni3 Te8 2.647369 1_555
Ni3 Te1 2.671026 1_455
Ni3 Te2 2.681318 1_555
