# generated using pymatgen
data_UH18N5F7
_symmetry_space_group_name_H-M   'P 1'
_cell_length_a   12.33610500
_cell_length_b   6.66697300
_cell_length_c   14.61748620
_cell_angle_alpha   67.64087176
_cell_angle_beta   90.00000000
_cell_angle_gamma   90.00000000
_symmetry_Int_Tables_number   1
_chemical_formula_structural   UH18N5F7
_chemical_formula_sum   'U4 H72 N20 F28'
_cell_volume   1111.82272902
_cell_formula_units_Z   4
loop_
 _symmetry_equiv_pos_site_id
 _symmetry_equiv_pos_as_xyz
  1  'x, y, z'
loop_
 _atom_site_type_symbol
 _atom_site_label
 _atom_site_symmetry_multiplicity
 _atom_site_fract_x
 _atom_site_fract_y
 _atom_site_fract_z
 _atom_site_occupancy
  U  U0  1  0.25885700  0.10862000  0.59623500  1
  U  U1  1  0.24114300  0.10862000  0.09623500  1
  U  U2  1  0.74114300  0.89138000  0.40376500  1
  U  U3  1  0.75885700  0.89138000  0.90376500  1
  H  H0  1  0.30639600  0.60518900  0.65669700  1
  H  H1  1  0.19360400  0.60518900  0.15669700  1
  H  H2  1  0.69360400  0.39481100  0.34330300  1
  H  H3  1  0.80639600  0.39481100  0.84330300  1
  H  H4  1  0.24066400  0.62339000  0.75115900  1
  H  H5  1  0.25933600  0.62339000  0.25115900  1
  H  H6  1  0.75933600  0.37661000  0.24884100  1
  H  H7  1  0.74066400  0.37661000  0.74884100  1
  H  H8  1  0.17551900  0.62297700  0.65265100  1
  H  H9  1  0.32448100  0.62297700  0.15265100  1
  H  H10  1  0.82448100  0.37702300  0.34734900  1
  H  H11  1  0.67551900  0.37702300  0.84734900  1
  H  H12  1  0.58066700  0.82104800  0.71350700  1
  H  H13  1  0.91933300  0.82104800  0.21350700  1
  H  H14  1  0.41933300  0.17895200  0.28649300  1
  H  H15  1  0.08066700  0.17895200  0.78649300  1
  H  H16  1  0.61325500  0.69237200  0.63781500  1
  H  H17  1  0.88674500  0.69237200  0.13781500  1
  H  H18  1  0.38674500  0.30762800  0.36218500  1
  H  H19  1  0.11325500  0.30762800  0.86218500  1
  H  H20  1  0.49218800  0.81990700  0.62489100  1
  H  H21  1  0.00781200  0.81990700  0.12489100  1
  H  H22  1  0.50781200  0.18009300  0.37510900  1
  H  H23  1  0.99218800  0.18009300  0.87510900  1
  H  H24  1  0.51327500  0.58479000  0.72788900  1
  H  H25  1  0.98672500  0.58479000  0.22788900  1
  H  H26  1  0.48672500  0.41521000  0.27211100  1
  H  H27  1  0.01327500  0.41521000  0.77211100  1
  H  H28  1  0.01511300  0.67313000  0.90827500  1
  H  H29  1  0.48488700  0.67313000  0.40827500  1
  H  H30  1  0.98488700  0.32687000  0.09172500  1
  H  H31  1  0.51511300  0.32687000  0.59172500  1
  H  H32  1  0.14426900  0.57773700  0.93597900  1
  H  H33  1  0.35573100  0.57773700  0.43597900  1
  H  H34  1  0.85573100  0.42226300  0.06402100  1
  H  H35  1  0.64426900  0.42226300  0.56402100  1
  H  H36  1  0.12068100  0.82242300  0.84101000  1
  H  H37  1  0.37931900  0.82242300  0.34101000  1
  H  H38  1  0.87931900  0.17757700  0.15899000  1
  H  H39  1  0.62068100  0.17757700  0.65899000  1
  H  H40  1  0.10197900  0.79568400  0.96059500  1
  H  H41  1  0.39802100  0.79568400  0.46059500  1
  H  H42  1  0.89802100  0.20431600  0.03940500  1
  H  H43  1  0.60197900  0.20431600  0.53940500  1
  H  H44  1  0.91449400  0.14800100  0.54504200  1
  H  H45  1  0.58550600  0.14800100  0.04504200  1
  H  H46  1  0.08550600  0.85199900  0.45495800  1
  H  H47  1  0.41449400  0.85199900  0.95495800  1
  H  H48  1  0.89317300  0.18431200  0.65305100  1
  H  H49  1  0.60682700  0.18431200  0.15305100  1
  H  H50  1  0.10682700  0.81568800  0.34694900  1
  H  H51  1  0.39317300  0.81568800  0.84694900  1
  H  H52  1  0.12269800  0.60340500  0.46368500  1
  H  H53  1  0.37730200  0.60340500  0.96368500  1
  H  H54  1  0.87730200  0.39659500  0.53631500  1
  H  H55  1  0.62269800  0.39659500  0.03631500  1
  H  H56  1  0.00120900  0.30250400  0.58076900  1
  H  H57  1  0.49879100  0.30250400  0.08076900  1
  H  H58  1  0.99879100  0.69749600  0.41923100  1
  H  H59  1  0.50120900  0.69749600  0.91923100  1
  H  H60  1  0.89231700  0.65904700  0.65157400  1
  H  H61  1  0.60768300  0.65904700  0.15157400  1
  H  H62  1  0.10768300  0.34095300  0.34842600  1
  H  H63  1  0.39231700  0.34095300  0.84842600  1
  H  H64  1  0.01217000  0.76897600  0.64239500  1
  H  H65  1  0.48783000  0.76897600  0.14239500  1
  H  H66  1  0.98783000  0.23102400  0.35760500  1
  H  H67  1  0.51217000  0.23102400  0.85760500  1
  H  H68  1  0.93358300  0.74793100  0.73576200  1
  H  H69  1  0.56641700  0.74793100  0.23576200  1
  H  H70  1  0.06641700  0.25206900  0.26423800  1
  H  H71  1  0.43358300  0.25206900  0.76423800  1
  N  N0  1  0.24276900  0.68032300  0.67567500  1
  N  N1  1  0.25723100  0.68032300  0.17567500  1
  N  N2  1  0.75723100  0.31967700  0.32432500  1
  N  N3  1  0.74276900  0.31967700  0.82432500  1
  N  N4  1  0.09589400  0.71630800  0.91158300  1
  N  N5  1  0.40410600  0.71630800  0.41158300  1
  N  N6  1  0.90410600  0.28369200  0.08841700  1
  N  N7  1  0.59589400  0.28369200  0.58841700  1
  N  N8  1  0.92031700  0.25822700  0.57963700  1
  N  N9  1  0.57968300  0.25822700  0.07963700  1
  N  N10  1  0.07968300  0.74177300  0.42036300  1
  N  N11  1  0.42031700  0.74177300  0.92036300  1
  N  N12  1  0.95894800  0.66716100  0.69225500  1
  N  N13  1  0.54105200  0.66716100  0.19225500  1
  N  N14  1  0.04105200  0.33283900  0.30774500  1
  N  N15  1  0.45894800  0.33283900  0.80774500  1
  N  N16  1  0.54960200  0.72938700  0.67571800  1
  N  N17  1  0.95039800  0.72938700  0.17571800  1
  N  N18  1  0.45039800  0.27061300  0.32428200  1
  N  N19  1  0.04960200  0.27061300  0.82428200  1
  F  F0  1  0.13769400  0.38982800  0.57541300  1
  F  F1  1  0.36230600  0.38982800  0.07541300  1
  F  F2  1  0.86230600  0.61017200  0.42458700  1
  F  F3  1  0.63769400  0.61017200  0.92458700  1
  F  F4  1  0.37689000  0.37512000  0.59537000  1
  F  F5  1  0.12311000  0.37512000  0.09537000  1
  F  F6  1  0.62311000  0.62488000  0.40463000  1
  F  F7  1  0.87689000  0.62488000  0.90463000  1
  F  F8  1  0.27760800  0.35616000  0.42778700  1
  F  F9  1  0.22239200  0.35616000  0.92778700  1
  F  F10  1  0.72239200  0.64384000  0.57221300  1
  F  F11  1  0.77760800  0.64384000  0.07221300  1
  F  F12  1  0.37642500  0.97085400  0.72568600  1
  F  F13  1  0.12357500  0.97085400  0.22568600  1
  F  F14  1  0.62357500  0.02914600  0.27431400  1
  F  F15  1  0.87642500  0.02914600  0.77431400  1
  F  F16  1  0.38510400  0.96227200  0.52949900  1
  F  F17  1  0.11489600  0.96227200  0.02949900  1
  F  F18  1  0.61489600  0.03772800  0.47050100  1
  F  F19  1  0.88510400  0.03772800  0.97050100  1
  F  F20  1  0.12226000  0.00433800  0.52642500  1
  F  F21  1  0.37774000  0.00433800  0.02642500  1
  F  F22  1  0.87774000  0.99566200  0.47357500  1
  F  F23  1  0.62226000  0.99566200  0.97357500  1
  F  F24  1  0.14875900  0.01697200  0.73312000  1
  F  F25  1  0.35124100  0.01697200  0.23312000  1
  F  F26  1  0.85124100  0.98302800  0.26688000  1
  F  F27  1  0.64875900  0.98302800  0.76688000  1
loop_
_geom_bond_atom_site_label_1
_geom_bond_atom_site_label_2
_geom_bond_distance
_geom_bond_site_symmetry_2
H0 N0 1.024539 1_555
H1 N1 1.024539 1_555
H2 N2 1.024539 1_555
H3 N3 1.024539 1_555
H4 N0 1.021552 1_555
H5 N1 1.021552 1_555
H6 N2 1.021552 1_555
H7 N3 1.021552 1_555
H8 N0 1.022535 1_555
H9 N1 1.022535 1_555
H10 N2 1.022535 1_555
H11 N3 1.022535 1_555
H12 N16 1.040313 1_555
H13 N17 1.040313 1_555
H14 N18 1.040313 1_555
H15 N19 1.040313 1_555
H16 N16 1.043301 1_555
H17 N17 1.043301 1_555
H18 N18 1.043301 1_555
H19 N19 1.043301 1_555
H20 N16 1.037645 1_555
H21 N17 1.037645 1_455
H22 N18 1.037645 1_555
H23 N19 1.037645 1_655
H24 N16 1.073500 1_555
H25 N17 1.073500 1_555
H26 N18 1.073500 1_555
H27 N19 1.073500 1_555
H28 N4 1.043481 1_555
H29 N5 1.043481 1_555
H30 N6 1.043481 1_555
H31 N7 1.043481 1_555
H32 N4 1.042177 1_555
H33 N5 1.042177 1_555
H34 N6 1.042177 1_555
H35 N7 1.042177 1_555
H36 N4 1.050210 1_555
H37 N5 1.050210 1_555
H38 N6 1.050210 1_555
H39 N7 1.050210 1_555
H40 N4 1.042791 1_555
H41 N5 1.042791 1_555
H42 N6 1.042791 1_555
H43 N7 1.042791 1_555
H44 N8 1.040990 1_555
H45 N9 1.040990 1_555
H46 N10 1.040990 1_555
H47 N11 1.040990 1_555
H48 N8 1.050823 1_555
H49 N9 1.050823 1_555
H50 N10 1.050823 1_555
H51 N11 1.050823 1_555
H52 N10 1.043617 1_555
H53 N11 1.043617 1_555
H54 N8 1.043617 1_555
H55 N9 1.043617 1_555
H56 N8 1.042554 1_455
H57 N9 1.042554 1_555
H58 N10 1.042554 1_655
H59 N11 1.042554 1_555
H60 N12 1.027932 1_555
H61 N13 1.027932 1_555
H62 N14 1.027932 1_555
H63 N15 1.027932 1_555
H64 N12 1.023044 1_455
H65 N13 1.023044 1_555
H66 N14 1.023044 1_655
H67 N15 1.023044 1_555
H68 N12 1.026101 1_555
H69 N13 1.026101 1_555
H70 N14 1.026101 1_555
H71 N15 1.026101 1_555
N0 U0 2.649274 1_565
N1 U1 2.649274 1_565
N2 U2 2.649274 1_545
N3 U3 2.649274 1_545
F0 U0 2.325394 1_555
F1 U1 2.325394 1_555
F2 U2 2.325394 1_555
F3 U3 2.325394 1_555
F4 U0 2.293477 1_555
F5 U1 2.293477 1_555
F6 U2 2.293477 1_555
F7 U3 2.293477 1_555
F8 U0 2.397562 1_555
F9 U1 2.397562 1_556
F10 U2 2.397562 1_555
F11 U3 2.397562 1_554
F12 H51 1.691067 1_555
F12 U0 2.281528 1_565
F13 H50 1.691067 1_555
F13 U1 2.281528 1_565
F14 H49 1.691067 1_555
F14 U2 2.281528 1_545
F15 H48 1.691067 1_555
F15 U3 2.281528 1_545
F16 U0 2.247943 1_565
F17 U1 2.247943 1_565
F18 U2 2.247943 1_545
F19 U3 2.247943 1_545
F20 U0 2.214481 1_555
F21 U1 2.214481 1_555
F22 U2 2.214481 1_555
F23 U3 2.214481 1_555
F24 H36 1.653239 1_545
F24 U0 2.300322 1_555
F25 H37 1.653239 1_545
F25 U1 2.300322 1_555
F26 H38 1.653239 1_565
F26 U2 2.300322 1_555
F27 H39 1.653239 1_565
F27 U3 2.300322 1_555
