# generated using pymatgen
data_YMg30NiO32
_symmetry_space_group_name_H-M   'P 1'
_cell_length_a   8.59494776
_cell_length_b   8.59494776
_cell_length_c   8.55948099
_cell_angle_alpha   90.00000000
_cell_angle_beta   90.00000000
_cell_angle_gamma   90.00000000
_symmetry_Int_Tables_number   1
_chemical_formula_structural   YMg30NiO32
_chemical_formula_sum   'Y1 Mg30 Ni1 O32'
_cell_volume   632.31562620
_cell_formula_units_Z   1
loop_
 _symmetry_equiv_pos_site_id
 _symmetry_equiv_pos_as_xyz
  1  'x, y, z'
loop_
 _atom_site_type_symbol
 _atom_site_label
 _atom_site_symmetry_multiplicity
 _atom_site_fract_x
 _atom_site_fract_y
 _atom_site_fract_z
 _atom_site_occupancy
  Y  Y0  1  0.00000000  0.00000000  0.00000000  1
  Mg  Mg0  1  0.00000000  0.50000000  0.00000000  1
  Mg  Mg1  1  0.00000000  0.50000000  0.50000000  1
  Mg  Mg2  1  0.50000000  0.00000000  0.00000000  1
  Mg  Mg3  1  0.50000000  0.00000000  0.50000000  1
  Mg  Mg4  1  0.50000000  0.50000000  0.00000000  1
  Mg  Mg5  1  0.50000000  0.50000000  0.50000000  1
  Mg  Mg6  1  0.00000000  0.25431447  0.25993064  1
  Mg  Mg7  1  0.00000000  0.25431447  0.74006936  1
  Mg  Mg8  1  0.00000000  0.74568553  0.25993064  1
  Mg  Mg9  1  0.00000000  0.74568553  0.74006936  1
  Mg  Mg10  1  0.50000000  0.25024082  0.25206239  1
  Mg  Mg11  1  0.50000000  0.25024082  0.74793761  1
  Mg  Mg12  1  0.50000000  0.74975918  0.25206239  1
  Mg  Mg13  1  0.50000000  0.74975918  0.74793761  1
  Mg  Mg14  1  0.25431447  0.00000000  0.25993064  1
  Mg  Mg15  1  0.25431447  0.00000000  0.74006936  1
  Mg  Mg16  1  0.25024082  0.50000000  0.25206239  1
  Mg  Mg17  1  0.25024082  0.50000000  0.74793761  1
  Mg  Mg18  1  0.74568553  0.00000000  0.25993064  1
  Mg  Mg19  1  0.74568553  0.00000000  0.74006936  1
  Mg  Mg20  1  0.74975918  0.50000000  0.25206239  1
  Mg  Mg21  1  0.74975918  0.50000000  0.74793761  1
  Mg  Mg22  1  0.25593048  0.25593048  0.00000000  1
  Mg  Mg23  1  0.24809328  0.24809328  0.50000000  1
  Mg  Mg24  1  0.25593048  0.74406952  0.00000000  1
  Mg  Mg25  1  0.24809328  0.75190672  0.50000000  1
  Mg  Mg26  1  0.74406952  0.25593048  0.00000000  1
  Mg  Mg27  1  0.75190672  0.24809328  0.50000000  1
  Mg  Mg28  1  0.74406952  0.74406952  0.00000000  1
  Mg  Mg29  1  0.75190672  0.75190672  0.50000000  1
  Ni  Ni0  1  0.00000000  0.00000000  0.50000000  1
  O  O0  1  0.25925909  0.00000000  0.00000000  1
  O  O1  1  0.26697686  0.00000000  0.50000000  1
  O  O2  1  0.25183720  0.50000000  0.00000000  1
  O  O3  1  0.25256976  0.50000000  0.50000000  1
  O  O4  1  0.74074091  0.00000000  0.00000000  1
  O  O5  1  0.73302314  0.00000000  0.50000000  1
  O  O6  1  0.74816280  0.50000000  0.00000000  1
  O  O7  1  0.74743024  0.50000000  0.50000000  1
  O  O8  1  0.24925719  0.24925719  0.24917256  1
  O  O9  1  0.24925719  0.24925719  0.75082744  1
  O  O10  1  0.24925719  0.75074281  0.24917256  1
  O  O11  1  0.24925719  0.75074281  0.75082744  1
  O  O12  1  0.75074281  0.24925719  0.24917256  1
  O  O13  1  0.75074281  0.24925719  0.75082744  1
  O  O14  1  0.75074281  0.75074281  0.24917256  1
  O  O15  1  0.75074281  0.75074281  0.75082744  1
  O  O16  1  0.00000000  0.00000000  0.25553984  1
  O  O17  1  0.00000000  0.00000000  0.74446016  1
  O  O18  1  0.00000000  0.50000000  0.24817249  1
  O  O19  1  0.00000000  0.50000000  0.75182751  1
  O  O20  1  0.50000000  0.00000000  0.24817249  1
  O  O21  1  0.50000000  0.00000000  0.75182751  1
  O  O22  1  0.50000000  0.50000000  0.24901470  1
  O  O23  1  0.50000000  0.50000000  0.75098530  1
  O  O24  1  0.00000000  0.25925909  0.00000000  1
  O  O25  1  0.00000000  0.26697686  0.50000000  1
  O  O26  1  0.00000000  0.74074091  0.00000000  1
  O  O27  1  0.00000000  0.73302314  0.50000000  1
  O  O28  1  0.50000000  0.25183720  0.00000000  1
  O  O29  1  0.50000000  0.25256976  0.50000000  1
  O  O30  1  0.50000000  0.74816280  0.00000000  1
  O  O31  1  0.50000000  0.74743024  0.50000000  1
loop_
_geom_bond_atom_site_label_1
_geom_bond_atom_site_label_2
_geom_bond_distance
_geom_bond_site_symmetry_2
Mg0 O24 2.069156 1_555
Mg0 O26 2.069156 1_555
Mg0 O19 2.124228 1_554
Mg0 O18 2.124228 1_555
Mg0 O2 2.164528 1_555
Mg0 O6 2.164528 1_455
Mg1 O27 2.002822 1_555
Mg1 O25 2.002822 1_555
Mg1 O18 2.155513 1_555
Mg1 O19 2.155513 1_555
Mg1 O7 2.170824 1_455
Mg1 O3 2.170824 1_555
Mg2 O0 2.069156 1_555
Mg2 O4 2.069156 1_555
Mg2 O21 2.124228 1_554
Mg2 O20 2.124228 1_555
Mg2 O28 2.164528 1_555
Mg2 O30 2.164528 1_545
Mg3 O1 2.002822 1_555
Mg3 O5 2.002822 1_555
Mg3 O20 2.155513 1_555
Mg3 O21 2.155513 1_555
Mg3 O31 2.170824 1_545
Mg3 O29 2.170824 1_555
Mg4 O22 2.131437 1_555
Mg4 O23 2.131437 1_554
Mg4 O6 2.132946 1_555
Mg4 O30 2.132946 1_555
Mg4 O2 2.132946 1_555
Mg4 O28 2.132946 1_555
Mg5 O3 2.126650 1_555
Mg5 O29 2.126650 1_555
Mg5 O31 2.126650 1_555
Mg5 O7 2.126650 1_555
Mg5 O23 2.148304 1_555
Mg5 O22 2.148304 1_555
Mg6 O25 2.057749 1_555
Mg6 O18 2.114051 1_555
Mg6 O12 2.144771 1_455
Mg6 O8 2.144771 1_555
Mg6 O16 2.186143 1_555
Mg6 O24 2.225277 1_555
Mg7 O25 2.057749 1_555
Mg7 O19 2.114051 1_555
Mg7 O9 2.144771 1_555
Mg7 O13 2.144771 1_455
Mg7 O17 2.186143 1_555
Mg7 O24 2.225277 1_556
Mg8 O27 2.057749 1_555
Mg8 O18 2.114051 1_555
Mg8 O10 2.144771 1_555
Mg8 O14 2.144771 1_455
Mg8 O16 2.186143 1_565
Mg8 O26 2.225277 1_555
Mg9 O27 2.057749 1_555
Mg9 O19 2.114051 1_555
Mg9 O11 2.144771 1_555
Mg9 O15 2.144771 1_455
Mg9 O17 2.186143 1_565
Mg9 O26 2.225277 1_556
Mg10 O29 2.122312 1_555
Mg10 O22 2.146826 1_555
Mg10 O20 2.151064 1_555
Mg10 O12 2.155280 1_555
Mg10 O8 2.155280 1_555
Mg10 O28 2.157567 1_555
Mg11 O29 2.122312 1_555
Mg11 O23 2.146826 1_555
Mg11 O21 2.151064 1_555
Mg11 O9 2.155280 1_555
Mg11 O13 2.155280 1_555
Mg11 O28 2.157567 1_556
Mg12 O31 2.122312 1_555
Mg12 O22 2.146826 1_555
Mg12 O20 2.151064 1_565
Mg12 O10 2.155280 1_555
Mg12 O14 2.155280 1_555
Mg12 O30 2.157567 1_555
Mg13 O31 2.122312 1_555
Mg13 O23 2.146826 1_555
Mg13 O21 2.151064 1_565
Mg13 O15 2.155280 1_555
Mg13 O11 2.155280 1_555
Mg13 O30 2.157567 1_556
Mg14 O1 2.057749 1_555
Mg14 O20 2.114051 1_555
Mg14 O10 2.144771 1_545
Mg14 O8 2.144771 1_555
Mg14 O16 2.186143 1_555
Mg14 O0 2.225277 1_555
Mg15 O1 2.057749 1_555
Mg15 O21 2.114051 1_555
Mg15 O9 2.144771 1_555
Mg15 O11 2.144771 1_545
Mg15 O17 2.186143 1_555
Mg15 O0 2.225277 1_556
Mg16 O3 2.122312 1_555
Mg16 O22 2.146826 1_555
Mg16 O18 2.151064 1_555
Mg16 O10 2.155280 1_555
Mg16 O8 2.155280 1_555
Mg16 O2 2.157567 1_555
Mg17 O3 2.122312 1_555
Mg17 O23 2.146826 1_555
Mg17 O19 2.151064 1_555
Mg17 O9 2.155280 1_555
Mg17 O11 2.155280 1_555
Mg17 O2 2.157567 1_556
Mg18 O5 2.057749 1_555
Mg18 O20 2.114051 1_555
Mg18 O14 2.144771 1_545
Mg18 O12 2.144771 1_555
Mg18 O16 2.186143 1_655
Mg18 O4 2.225277 1_555
Mg19 O5 2.057749 1_555
Mg19 O21 2.114051 1_555
Mg19 O15 2.144771 1_545
Mg19 O13 2.144771 1_555
Mg19 O17 2.186143 1_655
Mg19 O4 2.225277 1_556
Mg20 O7 2.122312 1_555
Mg20 O22 2.146826 1_555
Mg20 O18 2.151064 1_655
Mg20 O12 2.155280 1_555
Mg20 O14 2.155280 1_555
Mg20 O6 2.157567 1_555
Mg21 O7 2.122312 1_555
Mg21 O23 2.146826 1_555
Mg21 O19 2.151064 1_655
Mg21 O15 2.155280 1_555
Mg21 O13 2.155280 1_555
Mg21 O6 2.157567 1_556
Mg22 O2 2.098060 1_555
Mg22 O28 2.098060 1_555
Mg22 O8 2.134330 1_555
Mg22 O9 2.134330 1_554
Mg22 O24 2.199895 1_555
Mg22 O0 2.199895 1_555
Mg23 O1 2.138517 1_555
Mg23 O25 2.138517 1_555
Mg23 O8 2.146999 1_555
Mg23 O9 2.146999 1_555
Mg23 O29 2.165467 1_555
Mg23 O3 2.165467 1_555
Mg24 O30 2.098060 1_555
Mg24 O2 2.098060 1_555
Mg24 O11 2.134330 1_554
Mg24 O10 2.134330 1_555
Mg24 O0 2.199895 1_565
Mg24 O26 2.199895 1_555
Mg25 O27 2.138517 1_555
Mg25 O1 2.138517 1_565
Mg25 O10 2.146999 1_555
Mg25 O11 2.146999 1_555
Mg25 O31 2.165467 1_555
Mg25 O3 2.165467 1_555
Mg26 O6 2.098060 1_555
Mg26 O28 2.098060 1_555
Mg26 O13 2.134330 1_554
Mg26 O12 2.134330 1_555
Mg26 O24 2.199895 1_655
Mg26 O4 2.199895 1_555
Mg27 O25 2.138517 1_655
Mg27 O5 2.138517 1_555
Mg27 O13 2.146999 1_555
Mg27 O12 2.146999 1_555
Mg27 O7 2.165467 1_555
Mg27 O29 2.165467 1_555
Mg28 O6 2.098060 1_555
Mg28 O30 2.098060 1_555
Mg28 O14 2.134330 1_555
Mg28 O15 2.134330 1_554
Mg28 O4 2.199895 1_565
Mg28 O26 2.199895 1_655
Mg29 O27 2.138517 1_655
Mg29 O5 2.138517 1_565
Mg29 O14 2.146999 1_555
Mg29 O15 2.146999 1_555
Mg29 O7 2.165467 1_555
Mg29 O31 2.165467 1_555
Ni0 O16 2.092452 1_555
Ni0 O17 2.092452 1_555
Ni0 O27 2.294652 1_545
Ni0 O5 2.294652 1_455
Ni0 O25 2.294652 1_555
Ni0 O1 2.294652 1_555
O0 Y0 2.228318 1_555
O4 Y0 2.228318 1_655
O16 Y0 2.187288 1_555
O17 Y0 2.187288 1_556
O24 Y0 2.228318 1_555
O26 Y0 2.228318 1_565
