# generated using pymatgen
data_La3CrS6
_symmetry_space_group_name_H-M   'P 1'
_cell_length_a   3.98109400
_cell_length_b   13.78389800
_cell_length_c   16.54122200
_cell_angle_alpha   90.00000000
_cell_angle_beta   90.00000000
_cell_angle_gamma   90.00000000
_symmetry_Int_Tables_number   1
_chemical_formula_structural   La3CrS6
_chemical_formula_sum   'La12 Cr4 S24'
_cell_volume   907.69945179
_cell_formula_units_Z   4
loop_
 _symmetry_equiv_pos_site_id
 _symmetry_equiv_pos_as_xyz
  1  'x, y, z'
loop_
 _atom_site_type_symbol
 _atom_site_label
 _atom_site_symmetry_multiplicity
 _atom_site_fract_x
 _atom_site_fract_y
 _atom_site_fract_z
 _atom_site_occupancy
  La  La0  1  0.00000000  0.55012200  0.28469800  1
  La  La1  1  0.00000000  0.44987800  0.71530200  1
  La  La2  1  0.50000000  0.94987800  0.78469800  1
  La  La3  1  0.50000000  0.05012200  0.21530200  1
  La  La4  1  0.00000000  0.75533700  0.09668400  1
  La  La5  1  0.00000000  0.24466300  0.90331600  1
  La  La6  1  0.50000000  0.74466300  0.59668400  1
  La  La7  1  0.50000000  0.25533700  0.40331600  1
  La  La8  1  0.00000000  0.31972200  0.14830400  1
  La  La9  1  0.00000000  0.68027800  0.85169600  1
  La  La10  1  0.50000000  0.18027800  0.64830400  1
  La  La11  1  0.50000000  0.81972200  0.35169600  1
  Cr  Cr0  1  0.00000000  0.00000000  0.50000000  1
  Cr  Cr1  1  0.50000000  0.50000000  0.00000000  1
  Cr  Cr2  1  0.00000000  0.00000000  0.00000000  1
  Cr  Cr3  1  0.50000000  0.50000000  0.50000000  1
  S  S0  1  0.00000000  0.12084300  0.10112900  1
  S  S1  1  0.00000000  0.87915700  0.89887100  1
  S  S2  1  0.50000000  0.37915700  0.60112900  1
  S  S3  1  0.50000000  0.62084300  0.39887100  1
  S  S4  1  0.00000000  0.18526400  0.28960400  1
  S  S5  1  0.00000000  0.81473600  0.71039600  1
  S  S6  1  0.50000000  0.31473600  0.78960400  1
  S  S7  1  0.50000000  0.68526400  0.21039600  1
  S  S8  1  0.00000000  0.17501000  0.52095000  1
  S  S9  1  0.00000000  0.82499000  0.47905000  1
  S  S10  1  0.50000000  0.32499000  0.02095000  1
  S  S11  1  0.50000000  0.67501000  0.97905000  1
  S  S12  1  0.00000000  0.52435200  0.09336400  1
  S  S13  1  0.00000000  0.47564800  0.90663600  1
  S  S14  1  0.50000000  0.97564800  0.59336400  1
  S  S15  1  0.50000000  0.02435200  0.40663600  1
  S  S16  1  0.00000000  0.10188300  0.75454900  1
  S  S17  1  0.00000000  0.89811700  0.24545100  1
  S  S18  1  0.50000000  0.39811700  0.25454900  1
  S  S19  1  0.50000000  0.60188300  0.74545100  1
  S  S20  1  0.00000000  0.41939300  0.43044800  1
  S  S21  1  0.00000000  0.58060700  0.56955200  1
  S  S22  1  0.50000000  0.08060700  0.93044800  1
  S  S23  1  0.50000000  0.91939300  0.06955200  1
loop_
_geom_bond_atom_site_label_1
_geom_bond_atom_site_label_2
_geom_bond_distance
_geom_bond_site_symmetry_2
La0 S3 2.911906 1_455
La0 S3 2.911906 1_555
La0 S18 2.932735 1_455
La0 S18 2.932735 1_555
La0 S7 2.990450 1_455
La0 S7 2.990450 1_555
La0 S20 3.009884 1_555
La0 S12 3.184769 1_555
La1 S2 2.911906 1_455
La1 S2 2.911906 1_555
La1 S19 2.932735 1_455
La1 S19 2.932735 1_555
La1 S6 2.990450 1_455
La1 S6 2.990450 1_555
La1 S21 3.009884 1_555
La1 S13 3.184769 1_555
La2 S1 2.911906 1_555
La2 S1 2.911906 1_655
La2 S16 2.932735 1_565
La2 S16 2.932735 1_665
La2 S5 2.990450 1_555
La2 S5 2.990450 1_655
La2 S22 3.009884 1_565
La2 S14 3.184769 1_555
La3 S0 2.911906 1_555
La3 S0 2.911906 1_655
La3 S17 2.932735 1_645
La3 S17 2.932735 1_545
La3 S4 2.990450 1_655
La3 S4 2.990450 1_555
La3 S23 3.009884 1_545
La3 S15 3.184769 1_555
La4 S7 2.903983 1_455
La4 S7 2.903983 1_555
La4 S11 2.995728 1_454
La4 S11 2.995728 1_554
La4 S23 3.045868 1_555
La4 S23 3.045868 1_455
La4 S17 3.150993 1_555
La4 S12 3.184347 1_555
La5 S6 2.903983 1_455
La5 S6 2.903983 1_555
La5 S10 2.995728 1_556
La5 S10 2.995728 1_456
La5 S22 3.045868 1_455
La5 S22 3.045868 1_555
La5 S16 3.150993 1_555
La5 S13 3.184347 1_555
La6 S5 2.903983 1_555
La6 S5 2.903983 1_655
La6 S9 2.995728 1_655
La6 S9 2.995728 1_555
La6 S21 3.045868 1_655
La6 S21 3.045868 1_555
La6 S19 3.150993 1_555
La6 S14 3.184347 1_555
La7 S4 2.903983 1_655
La7 S4 2.903983 1_555
La7 S8 2.995728 1_555
La7 S8 2.995728 1_655
La7 S20 3.045868 1_555
La7 S20 3.045868 1_655
La7 S18 3.150993 1_555
La7 S15 3.184347 1_555
La8 S0 2.850227 1_555
La8 S18 2.866789 1_455
La8 S18 2.866789 1_555
La8 S10 2.899185 1_555
La8 S10 2.899185 1_455
La8 S12 2.963385 1_555
La8 S4 2.982915 1_555
La9 S1 2.850227 1_555
La9 S19 2.866789 1_555
La9 S19 2.866789 1_455
La9 S11 2.899185 1_455
La9 S11 2.899185 1_555
La9 S13 2.963385 1_555
La9 S5 2.982915 1_555
La10 S2 2.850227 1_555
La10 S16 2.866789 1_555
La10 S16 2.866789 1_655
La10 S8 2.899185 1_655
La10 S8 2.899185 1_555
La10 S14 2.963385 1_545
La10 S6 2.982915 1_555
La11 S3 2.850227 1_555
La11 S17 2.866789 1_555
La11 S17 2.866789 1_655
La11 S9 2.899185 1_555
La11 S9 2.899185 1_655
La11 S15 2.963385 1_565
La11 S7 2.982915 1_555
Cr0 S9 2.437084 1_545
Cr0 S8 2.437084 1_555
Cr0 S15 2.541649 1_455
Cr0 S14 2.541649 1_545
Cr0 S15 2.541649 1_555
Cr0 S14 2.541649 1_445
Cr1 S10 2.437084 1_555
Cr1 S11 2.437084 1_554
Cr1 S12 2.541649 1_655
Cr1 S12 2.541649 1_555
Cr1 S13 2.541649 1_554
Cr1 S13 2.541649 1_654
Cr2 S0 2.360671 1_555
Cr2 S1 2.360671 1_544
Cr2 S23 2.553501 1_445
Cr2 S23 2.553501 1_545
Cr2 S22 2.553501 1_454
Cr2 S22 2.553501 1_554
Cr3 S3 2.360671 1_555
Cr3 S2 2.360671 1_555
Cr3 S21 2.553501 1_655
Cr3 S21 2.553501 1_555
Cr3 S20 2.553501 1_555
Cr3 S20 2.553501 1_655
