# generated using pymatgen
data_KBaHg2
_symmetry_space_group_name_H-M   'P 1'
_cell_length_a   13.77097656
_cell_length_b   13.77097656
_cell_length_c   13.77097656
_cell_angle_alpha   121.05417365
_cell_angle_beta   116.52740635
_cell_angle_gamma   92.15057831
_symmetry_Int_Tables_number   1
_chemical_formula_structural   KBaHg2
_chemical_formula_sum   'K1 Ba1 Hg2'
_cell_volume   1875.44321054
_cell_formula_units_Z   1
loop_
 _symmetry_equiv_pos_site_id
 _symmetry_equiv_pos_as_xyz
  1  'x, y, z'
loop_
 _atom_site_type_symbol
 _atom_site_label
 _atom_site_symmetry_multiplicity
 _atom_site_fract_x
 _atom_site_fract_y
 _atom_site_fract_z
 _atom_site_occupancy
  K  K0  1  -0.00000000  0.00000000  -0.00000000  1
  Ba  Ba0  1  0.50000000  -0.00000000  0.50000000  1
  Hg  Hg0  1  0.75301685  -0.00000000  0.75301685  1
  Hg  Hg1  1  0.24698315  0.00000000  0.24698315  1
loop_
_geom_bond_atom_site_label_1
_geom_bond_atom_site_label_2
_geom_bond_distance
_geom_bond_site_symmetry_2
Ba0 Hg1 3.665546 1_555
Ba0 Hg0 3.665546 1_555
Hg0 K0 3.578133 1_656
Hg1 K0 3.578133 1_555
