# generated using pymatgen
data_MgH10SO9
_symmetry_space_group_name_H-M   'P 1'
_cell_length_a   6.11929500
_cell_length_b   6.32373231
_cell_length_c   10.64123696
_cell_angle_alpha   76.01220696
_cell_angle_beta   81.51613585
_cell_angle_gamma   70.00372009
_symmetry_Int_Tables_number   1
_chemical_formula_structural   MgH10SO9
_chemical_formula_sum   'Mg2 H20 S2 O18'
_cell_volume   374.53146626
_cell_formula_units_Z   2
loop_
 _symmetry_equiv_pos_site_id
 _symmetry_equiv_pos_as_xyz
  1  'x, y, z'
loop_
 _atom_site_type_symbol
 _atom_site_label
 _atom_site_symmetry_multiplicity
 _atom_site_fract_x
 _atom_site_fract_y
 _atom_site_fract_z
 _atom_site_occupancy
  Mg  Mg0  1  0.00000000  0.00000000  0.00000000  1
  Mg  Mg1  1  0.00000000  0.50000000  0.50000000  1
  H  H0  1  0.72352600  0.57341500  0.20162200  1
  H  H1  1  0.27647400  0.42658500  0.79837800  1
  H  H2  1  0.72727700  0.39391800  0.12228500  1
  H  H3  1  0.27272300  0.60608200  0.87771500  1
  H  H4  1  0.90813200  0.19069000  0.38961200  1
  H  H5  1  0.09186800  0.80931000  0.61038800  1
  H  H6  1  0.36047800  0.67276300  0.37776000  1
  H  H7  1  0.63952200  0.32723700  0.62224000  1
  H  H8  1  0.44443300  0.39790800  0.39254800  1
  H  H9  1  0.55556700  0.60209200  0.60745200  1
  H  H10  1  0.34982100  0.64593500  0.12960700  1
  H  H11  1  0.65017900  0.35406500  0.87039300  1
  H  H12  1  0.09933100  0.66324000  0.20423800  1
  H  H13  1  0.90066900  0.33676000  0.79576200  1
  H  H14  1  0.23311900  0.27875600  0.01240900  1
  H  H15  1  0.76688100  0.72124400  0.98759100  1
  H  H16  1  0.26542600  0.09483200  0.14664200  1
  H  H17  1  0.73457400  0.90516800  0.85335800  1
  H  H18  1  0.81656800  0.86119300  0.62868100  1
  H  H19  1  0.18343200  0.13880700  0.37131900  1
  S  S0  1  0.34024700  0.02917400  0.71325200  1
  S  S1  1  0.65975300  0.97082600  0.28674800  1
  O  O0  1  0.34134200  0.44263200  0.87321000  1
  O  O1  1  0.65865800  0.55736800  0.12679000  1
  O  O2  1  0.31306900  0.53349200  0.40954500  1
  O  O3  1  0.68693100  0.46650800  0.59045500  1
  O  O4  1  0.18004500  0.69615000  0.11851400  1
  O  O5  1  0.81995500  0.30385000  0.88148600  1
  O  O6  1  0.15865900  0.17725600  0.07679300  1
  O  O7  1  0.84134100  0.82274400  0.92320700  1
  O  O8  1  0.42077200  0.95094000  0.29333500  1
  O  O9  1  0.57922800  0.04906000  0.70666500  1
  O  O10  1  0.65986800  0.12731600  0.37063500  1
  O  O11  1  0.34013200  0.87268400  0.62936500  1
  O  O12  1  0.82669800  0.73415000  0.32995100  1
  O  O13  1  0.17330200  0.26585000  0.67004900  1
  O  O14  1  0.72843400  0.06215600  0.14952300  1
  O  O15  1  0.27156600  0.93784400  0.85047700  1
  O  O16  1  0.96415900  0.75467400  0.59812200  1
  O  O17  1  0.03584100  0.24532600  0.40187800  1
loop_
_geom_bond_atom_site_label_1
_geom_bond_atom_site_label_2
_geom_bond_distance
_geom_bond_site_symmetry_2
Mg0 O4 2.070512 1_545
Mg0 O5 2.070512 1_454
Mg0 O6 2.070760 1_555
Mg0 O7 2.070760 1_444
Mg0 O14 2.126763 1_455
Mg0 O15 2.126763 1_544
Mg1 O16 2.058104 1_455
Mg1 O17 2.058104 1_555
Mg1 O2 2.067934 1_555
Mg1 O3 2.067934 1_455
Mg1 O13 2.188266 1_555
Mg1 O12 2.188266 1_455
H0 O1 0.980737 1_555
H1 O0 0.980737 1_555
H2 O1 0.983949 1_555
H3 O0 0.983949 1_555
H4 O17 0.991815 1_655
H5 O16 0.991815 1_455
H6 O2 0.987929 1_555
H7 O3 0.987929 1_555
H8 O2 0.987281 1_555
H9 O3 0.987281 1_555
H10 O4 0.993248 1_555
H11 O5 0.993248 1_555
H12 O4 0.982329 1_555
H13 O5 0.982329 1_555
H14 O6 0.992122 1_555
H15 O7 0.992122 1_555
H16 O6 0.986960 1_555
H17 O7 0.986960 1_555
H18 O16 0.989106 1_555
H19 O17 0.989106 1_555
O8 S1 1.500198 1_555
O9 S0 1.500198 1_555
O10 S1 1.484543 1_545
O11 S0 1.484543 1_565
O12 S1 1.501757 1_555
O13 S0 1.501757 1_555
O14 S1 1.489875 1_545
O15 S0 1.489875 1_565
