# generated using pymatgen
data_Mo2(PO4)3
_symmetry_space_group_name_H-M   'P 1'
_cell_length_a   8.83342537
_cell_length_b   8.83342537
_cell_length_c   8.83342438
_cell_angle_alpha   60.03902747
_cell_angle_beta   60.03902747
_cell_angle_gamma   60.03902977
_symmetry_Int_Tables_number   1
_chemical_formula_structural   Mo2(PO4)3
_chemical_formula_sum   'Mo4 P6 O24'
_cell_volume   487.81642003
_cell_formula_units_Z   2
loop_
 _symmetry_equiv_pos_site_id
 _symmetry_equiv_pos_as_xyz
  1  'x, y, z'
loop_
 _atom_site_type_symbol
 _atom_site_label
 _atom_site_symmetry_multiplicity
 _atom_site_fract_x
 _atom_site_fract_y
 _atom_site_fract_z
 _atom_site_occupancy
  Mo  Mo0  1  0.89163700  0.89163700  0.89163700  1
  Mo  Mo1  1  0.10836300  0.10836300  0.10836300  1
  Mo  Mo2  1  0.61145300  0.61145300  0.61145300  1
  Mo  Mo3  1  0.38854700  0.38854700  0.38854700  1
  P  P0  1  0.50000000  0.21144700  0.78855300  1
  P  P1  1  0.21144700  0.78855300  0.50000000  1
  P  P2  1  0.71208900  0.00000000  0.28791100  1
  P  P3  1  0.78855300  0.50000000  0.21144700  1
  P  P4  1  0.00000000  0.28791100  0.71208900  1
  P  P5  1  0.28791100  0.71208900  0.00000000  1
  O  O0  1  0.46873600  0.69622700  0.83586000  1
  O  O1  1  0.23878000  0.62799300  0.46020100  1
  O  O2  1  0.03000700  0.82036800  0.66546700  1
  O  O3  1  0.95477600  0.12202900  0.75113800  1
  O  O4  1  0.33453300  0.17963200  0.96999300  1
  O  O5  1  0.17963200  0.96999300  0.33453300  1
  O  O6  1  0.53979900  0.37200700  0.76122000  1
  O  O7  1  0.87797100  0.04522400  0.24886200  1
  O  O8  1  0.30377300  0.53126400  0.16414000  1
  O  O9  1  0.75113800  0.95477600  0.12202900  1
  O  O10  1  0.37200700  0.76122000  0.53979900  1
  O  O11  1  0.69622700  0.83586000  0.46873600  1
  O  O12  1  0.04522400  0.24886200  0.87797100  1
  O  O13  1  0.76122000  0.53979900  0.37200700  1
  O  O14  1  0.12202900  0.75113800  0.95477600  1
  O  O15  1  0.53126400  0.16414000  0.30377300  1
  O  O16  1  0.83586000  0.46873600  0.69622700  1
  O  O17  1  0.82036800  0.66546700  0.03000700  1
  O  O18  1  0.66546700  0.03000700  0.82036800  1
  O  O19  1  0.62799300  0.46020100  0.23878000  1
  O  O20  1  0.16414000  0.30377300  0.53126400  1
  O  O21  1  0.24886200  0.87797100  0.04522400  1
  O  O22  1  0.96999300  0.33453300  0.17963200  1
  O  O23  1  0.46020100  0.23878000  0.62799300  1
loop_
_geom_bond_atom_site_label_1
_geom_bond_atom_site_label_2
_geom_bond_distance
_geom_bond_site_symmetry_2
Mo0 O9 1.978064 1_556
Mo0 O3 1.978064 1_565
Mo0 O14 1.978064 1_655
Mo0 O2 1.982513 1_655
Mo0 O17 1.982513 1_556
Mo0 O18 1.982513 1_565
Mo1 O12 1.978064 1_554
Mo1 O7 1.978064 1_455
Mo1 O21 1.978064 1_545
Mo1 O5 1.982513 1_545
Mo1 O4 1.982513 1_554
Mo1 O22 1.982513 1_455
Mo2 O0 2.030562 1_555
Mo2 O11 2.030562 1_555
Mo2 O16 2.030562 1_555
Mo2 O13 2.080985 1_555
Mo2 O6 2.080986 1_555
Mo2 O10 2.080986 1_555
Mo3 O8 2.030562 1_555
Mo3 O20 2.030562 1_555
Mo3 O15 2.030562 1_555
Mo3 O23 2.080985 1_555
Mo3 O19 2.080986 1_555
Mo3 O1 2.080986 1_555
O0 P5 1.529517 1_556
O1 P1 1.504880 1_555
O2 P1 1.550700 1_555
O3 P4 1.538795 1_655
O4 P0 1.550700 1_555
O5 P1 1.550700 1_555
O6 P0 1.504880 1_555
O7 P2 1.538795 1_555
O8 P5 1.529517 1_555
O9 P2 1.538795 1_565
O10 P1 1.504880 1_555
O11 P2 1.529517 1_565
O12 P4 1.538795 1_555
O13 P3 1.504880 1_555
O14 P5 1.538795 1_556
O15 P2 1.529517 1_555
O16 P4 1.529517 1_655
O17 P3 1.550700 1_555
O18 P0 1.550700 1_555
O19 P3 1.504880 1_555
O20 P4 1.529517 1_555
O21 P5 1.538795 1_555
O22 P3 1.550700 1_555
O23 P0 1.504880 1_555
