# generated using pymatgen
data_U2Ta3Ge4
_symmetry_space_group_name_H-M   'P 1'
_cell_length_a   7.03318800
_cell_length_b   7.13280400
_cell_length_c   13.39541100
_cell_angle_alpha   90.00000000
_cell_angle_beta   90.00000000
_cell_angle_gamma   90.00000000
_symmetry_Int_Tables_number   1
_chemical_formula_structural   U2Ta3Ge4
_chemical_formula_sum   'U8 Ta12 Ge16'
_cell_volume   671.99889670
_cell_formula_units_Z   4
loop_
 _symmetry_equiv_pos_site_id
 _symmetry_equiv_pos_as_xyz
  1  'x, y, z'
loop_
 _atom_site_type_symbol
 _atom_site_label
 _atom_site_symmetry_multiplicity
 _atom_site_fract_x
 _atom_site_fract_y
 _atom_site_fract_z
 _atom_site_occupancy
  U  U0  1  0.49225600  0.67023400  0.59070300  1
  U  U1  1  0.99225600  0.82976600  0.90929700  1
  U  U2  1  0.50774400  0.32976600  0.09070300  1
  U  U3  1  0.00774400  0.17023400  0.40929700  1
  U  U4  1  0.50774400  0.32976600  0.40929700  1
  U  U5  1  0.00774400  0.17023400  0.09070300  1
  U  U6  1  0.49225600  0.67023400  0.90929700  1
  U  U7  1  0.99225600  0.82976600  0.59070300  1
  Ta  Ta0  1  0.66024100  0.16511100  0.62456600  1
  Ta  Ta1  1  0.16024100  0.33488900  0.87543400  1
  Ta  Ta2  1  0.33975900  0.83488900  0.12456600  1
  Ta  Ta3  1  0.83975900  0.66511100  0.37543400  1
  Ta  Ta4  1  0.33975900  0.83488900  0.37543400  1
  Ta  Ta5  1  0.83975900  0.66511100  0.12456600  1
  Ta  Ta6  1  0.66024100  0.16511100  0.87543400  1
  Ta  Ta7  1  0.16024100  0.33488900  0.62456600  1
  Ta  Ta8  1  0.83211700  0.49725500  0.75000000  1
  Ta  Ta9  1  0.33211700  0.00274500  0.75000000  1
  Ta  Ta10  1  0.16788300  0.50274500  0.25000000  1
  Ta  Ta11  1  0.66788300  0.99725500  0.25000000  1
  Ge  Ge0  1  0.67533500  0.95697100  0.45715100  1
  Ge  Ge1  1  0.17533500  0.54302900  0.04284900  1
  Ge  Ge2  1  0.32466500  0.04302900  0.95715100  1
  Ge  Ge3  1  0.82466500  0.45697100  0.54284900  1
  Ge  Ge4  1  0.32466500  0.04302900  0.54284900  1
  Ge  Ge5  1  0.82466500  0.45697100  0.95715100  1
  Ge  Ge6  1  0.67533500  0.95697100  0.04284900  1
  Ge  Ge7  1  0.17533500  0.54302900  0.45715100  1
  Ge  Ge8  1  0.46028300  0.37862900  0.75000000  1
  Ge  Ge9  1  0.96028300  0.12137100  0.75000000  1
  Ge  Ge10  1  0.53971700  0.62137100  0.25000000  1
  Ge  Ge11  1  0.03971700  0.87862900  0.25000000  1
  Ge  Ge12  1  0.69188400  0.85549300  0.75000000  1
  Ge  Ge13  1  0.19188400  0.64450700  0.75000000  1
  Ge  Ge14  1  0.30811600  0.14450700  0.25000000  1
  Ge  Ge15  1  0.80811600  0.35549300  0.25000000  1
loop_
_geom_bond_atom_site_label_1
_geom_bond_atom_site_label_2
_geom_bond_distance
_geom_bond_site_symmetry_2
Ge0 Ta3 2.620944 1_555
Ge0 Ta0 2.691578 1_565
Ge0 Ta4 2.743518 1_555
Ge0 Ge4 2.788795 1_565
Ge0 Ta11 2.790202 1_555
Ge0 U3 2.861923 1_665
Ge0 U4 2.978408 1_565
Ge0 U7 2.998665 1_555
Ge0 U0 3.006901 1_555
Ge1 Ta2 2.620944 1_555
Ge1 Ta1 2.691578 1_554
Ge1 Ta5 2.743518 1_455
Ge1 Ge5 2.788795 1_454
Ge1 Ta10 2.790202 1_555
Ge1 U2 2.861923 1_555
Ge1 U5 2.978408 1_555
Ge1 U6 2.998665 1_554
Ge1 U1 3.006901 1_454
Ge2 Ta1 2.620944 1_555
Ge2 Ta2 2.691578 1_546
Ge2 Ta6 2.743518 1_555
Ge2 Ge6 2.788795 1_546
Ge2 Ta9 2.790202 1_555
Ge2 U1 2.861923 1_445
Ge2 U6 2.978408 1_545
Ge2 U5 2.998665 1_556
Ge2 U2 3.006901 1_556
Ge3 Ta0 2.620944 1_555
Ge3 Ta3 2.691578 1_555
Ge3 Ta7 2.743518 1_655
Ge3 Ge7 2.788795 1_655
Ge3 Ta8 2.790202 1_555
Ge3 U0 2.861923 1_555
Ge3 U7 2.978408 1_555
Ge3 U4 2.998665 1_555
Ge3 U3 3.006901 1_655
Ge4 Ta7 2.620944 1_555
Ge4 Ta4 2.691578 1_545
Ge4 Ta0 2.743518 1_555
Ge4 Ta9 2.790202 1_555
Ge4 U7 2.861923 1_445
Ge4 U0 2.978408 1_545
Ge4 U3 2.998665 1_555
Ge4 U4 3.006901 1_555
Ge5 Ta6 2.620944 1_555
Ge5 Ta5 2.691578 1_556
Ge5 Ta1 2.743518 1_655
Ge5 Ta8 2.790202 1_555
Ge5 U6 2.861923 1_555
Ge5 U1 2.978408 1_555
Ge5 U2 2.998665 1_556
Ge5 U5 3.006901 1_656
Ge6 Ta5 2.620944 1_555
Ge6 Ta6 2.691578 1_564
Ge6 Ta2 2.743518 1_555
Ge6 Ta11 2.790202 1_555
Ge6 U5 2.861923 1_665
Ge6 U2 2.978408 1_565
Ge6 U1 2.998665 1_554
Ge6 U6 3.006901 1_554
Ge7 Ta4 2.620944 1_555
Ge7 Ta7 2.691578 1_555
Ge7 Ta3 2.743518 1_455
Ge7 Ta10 2.790202 1_555
Ge7 U4 2.861923 1_555
Ge7 U3 2.978408 1_555
Ge7 U0 2.998665 1_555
Ge7 U7 3.006901 1_455
Ge8 Ta0 2.668423 1_555
Ge8 Ta6 2.668423 1_555
Ge8 Ta1 2.715457 1_555
Ge8 Ta7 2.715457 1_555
Ge8 Ta8 2.748655 1_555
Ge8 Ta9 2.828583 1_555
Ge8 U6 2.988330 1_555
Ge8 U0 2.988330 1_555
Ge9 Ta7 2.668423 1_655
Ge9 Ta1 2.668423 1_655
Ge9 Ta0 2.715457 1_555
Ge9 Ta6 2.715457 1_555
Ge9 Ta9 2.748655 1_655
Ge9 Ta8 2.828583 1_555
Ge9 U1 2.988330 1_545
Ge9 U7 2.988330 1_545
Ge10 Ta4 2.668423 1_555
Ge10 Ta2 2.668423 1_555
Ge10 Ge15 2.675810 1_555
Ge10 Ta5 2.715457 1_555
Ge10 Ta3 2.715457 1_555
Ge10 Ta10 2.748655 1_555
Ge10 Ta11 2.828583 1_555
Ge10 U2 2.988330 1_555
Ge10 U4 2.988330 1_555
Ge11 Ta5 2.668423 1_455
Ge11 Ta3 2.668423 1_455
Ge11 Ge14 2.675810 1_565
Ge11 Ta4 2.715457 1_555
Ge11 Ta2 2.715457 1_555
Ge11 Ta11 2.748655 1_455
Ge11 Ta10 2.828583 1_555
Ge11 U5 2.988330 1_565
Ge11 U3 2.988330 1_565
Ge12 Ge9 2.675810 1_565
Ge12 Ta8 2.738981 1_555
Ge12 Ta9 2.739641 1_565
Ge12 Ta6 2.783875 1_565
Ge12 Ta0 2.783875 1_565
Ge12 U6 2.875887 1_555
Ge12 U0 2.875887 1_555
Ge12 U7 3.008313 1_555
Ge12 U1 3.008313 1_555
Ge13 Ge8 2.675810 1_555
Ge13 Ta9 2.738981 1_565
Ge13 Ta8 2.739641 1_455
Ge13 Ta1 2.783875 1_555
Ge13 Ta7 2.783875 1_555
Ge13 U7 2.875887 1_455
Ge13 U1 2.875887 1_455
Ge13 U6 3.008313 1_555
Ge13 U0 3.008313 1_555
Ge14 Ta10 2.738981 1_555
Ge14 Ta11 2.739641 1_545
Ge14 Ta2 2.783875 1_545
Ge14 Ta4 2.783875 1_545
Ge14 U2 2.875887 1_555
Ge14 U4 2.875887 1_555
Ge14 U5 3.008313 1_555
Ge14 U3 3.008313 1_555
Ge15 Ta11 2.738981 1_545
Ge15 Ta10 2.739641 1_655
Ge15 Ta5 2.783875 1_555
Ge15 Ta3 2.783875 1_555
Ge15 U5 2.875887 1_655
Ge15 U3 2.875887 1_655
Ge15 U2 3.008313 1_555
Ge15 U4 3.008313 1_555
