# generated using pymatgen
data_YMn2SiC
_symmetry_space_group_name_H-M   'P 1'
_cell_length_a   5.60292433
_cell_length_b   5.60292433
_cell_length_c   7.00637300
_cell_angle_alpha   90.00000000
_cell_angle_beta   90.00000000
_cell_angle_gamma   141.25168187
_symmetry_Int_Tables_number   1
_chemical_formula_structural   YMn2SiC
_chemical_formula_sum   'Y2 Mn4 Si2 C2'
_cell_volume   137.66645252
_cell_formula_units_Z   2
loop_
 _symmetry_equiv_pos_site_id
 _symmetry_equiv_pos_as_xyz
  1  'x, y, z'
loop_
 _atom_site_type_symbol
 _atom_site_label
 _atom_site_symmetry_multiplicity
 _atom_site_fract_x
 _atom_site_fract_y
 _atom_site_fract_z
 _atom_site_occupancy
  Y  Y0  1  0.54398500  0.45601500  0.25000000  1
  Y  Y1  1  0.45601500  0.54398500  0.75000000  1
  Mn  Mn0  1  0.83165200  0.16834800  0.06164200  1
  Mn  Mn1  1  0.16834800  0.83165200  0.93835800  1
  Mn  Mn2  1  0.16834800  0.83165200  0.56164200  1
  Mn  Mn3  1  0.83165200  0.16834800  0.43835800  1
  Si  Si0  1  0.26495500  0.73504500  0.25000000  1
  Si  Si1  1  0.73504500  0.26495500  0.75000000  1
  C  C0  1  0.00000000  0.00000000  0.00000000  1
  C  C1  1  0.00000000  0.00000000  0.50000000  1
loop_
_geom_bond_atom_site_label_1
_geom_bond_atom_site_label_2
_geom_bond_distance
_geom_bond_site_symmetry_2
Mn0 Si0 2.386102 1_655
Mn0 Si0 2.386102 1_545
Mn0 Si1 2.410510 1_554
Mn1 Si1 2.386102 1_565
Mn1 Si1 2.386102 1_455
Mn1 Si0 2.410510 1_556
Mn2 Si1 2.386102 1_565
Mn2 Si1 2.386102 1_455
Mn2 Si0 2.410510 1_555
Mn3 Si0 2.386102 1_655
Mn3 Si0 2.386102 1_545
Mn3 Si1 2.410510 1_555
Si0 Y0 2.949706 1_555
Si0 Y0 2.985186 1_565
Si0 Y0 2.985186 1_455
Si1 Y1 2.949706 1_555
Si1 Y1 2.985186 1_655
Si1 Y1 2.985186 1_545
C0 Mn0 1.831311 1_455
C0 Mn1 1.831311 1_544
C0 Y1 2.595961 1_554
C0 Y0 2.595961 1_555
C0 Y1 2.595961 1_444
C0 Y0 2.595961 1_445
C1 Mn2 1.831311 1_545
C1 Mn3 1.831311 1_455
C1 Y1 2.595961 1_555
C1 Y0 2.595961 1_555
C1 Y1 2.595961 1_445
C1 Y0 2.595961 1_445
