# generated using pymatgen
data_CeFeCu
_symmetry_space_group_name_H-M   'P 1'
_cell_length_a   5.21192806
_cell_length_b   5.21192806
_cell_length_c   5.21192806
_cell_angle_alpha   93.14110788
_cell_angle_beta   56.16594150
_cell_angle_gamma   119.86814798
_symmetry_Int_Tables_number   1
_chemical_formula_structural   CeFeCu
_chemical_formula_sum   'Ce2 Fe2 Cu2'
_cell_volume   96.99485924
_cell_formula_units_Z   2
loop_
 _symmetry_equiv_pos_site_id
 _symmetry_equiv_pos_as_xyz
  1  'x, y, z'
loop_
 _atom_site_type_symbol
 _atom_site_label
 _atom_site_symmetry_multiplicity
 _atom_site_fract_x
 _atom_site_fract_y
 _atom_site_fract_z
 _atom_site_occupancy
  Ce  Ce0  1  0.50000000  0.75842000  0.74158000  1
  Ce  Ce1  1  0.00000000  0.99158000  0.00842000  1
  Fe  Fe0  1  0.25000000  0.87500000  0.37500000  1
  Fe  Fe1  1  0.75000000  0.37500000  0.37500000  1
  Cu  Cu0  1  0.75000000  0.37500000  0.87500000  1
  Cu  Cu1  1  0.25000000  0.37500000  0.37500000  1
loop_
_geom_bond_atom_site_label_1
_geom_bond_atom_site_label_2
_geom_bond_distance
_geom_bond_site_symmetry_2
Ce0 Fe1 2.957084 1_555
Ce0 Fe0 2.957084 1_655
Ce0 Fe1 2.957084 1_456
Ce0 Fe0 2.957084 1_556
Ce0 Cu0 3.016935 1_455
Ce0 Cu0 3.016935 1_565
Ce0 Cu1 3.016935 1_555
Ce0 Cu1 3.016935 1_665
Ce0 Fe1 3.066802 1_565
Ce0 Fe0 3.066802 1_555
Ce0 Cu1 3.151101 1_556
Ce0 Cu0 3.151101 1_555
Ce1 Fe1 2.957084 1_465
Ce1 Fe0 2.957084 1_455
Ce1 Fe0 2.957084 1_554
Ce1 Fe1 2.957084 1_564
Ce1 Cu0 3.016935 1_454
Ce1 Cu1 3.016935 1_565
Ce1 Cu0 3.016935 1_564
Ce1 Cu1 3.016935 1_455
Ce1 Fe1 3.066802 1_455
Ce1 Fe0 3.066802 1_555
Ce1 Cu1 3.151101 1_564
Ce1 Cu0 3.151101 1_464
Fe0 Fe1 2.611156 1_455
Fe0 Fe1 2.611156 1_565
Cu0 Cu1 2.453513 1_556
Cu0 Cu1 2.453513 1_655
Cu0 Fe1 2.605964 1_556
Cu0 Fe0 2.605964 1_655
Cu0 Fe1 2.605964 1_555
Cu0 Fe0 2.605964 1_546
Cu1 Fe1 2.605964 1_455
Cu1 Fe0 2.605964 1_555
Cu1 Fe1 2.605964 1_555
Cu1 Fe0 2.605964 1_545
