# generated using pymatgen
data_BaMgNiF7
_symmetry_space_group_name_H-M   'P 1'
_cell_length_a   9.91852500
_cell_length_b   5.61792900
_cell_length_c   9.61638740
_cell_angle_alpha   86.84177256
_cell_angle_beta   90.00000000
_cell_angle_gamma   90.00000000
_symmetry_Int_Tables_number   1
_chemical_formula_structural   BaMgNiF7
_chemical_formula_sum   'Ba4 Mg4 Ni4 F28'
_cell_volume   535.02636049
_cell_formula_units_Z   4
loop_
 _symmetry_equiv_pos_site_id
 _symmetry_equiv_pos_as_xyz
  1  'x, y, z'
loop_
 _atom_site_type_symbol
 _atom_site_label
 _atom_site_symmetry_multiplicity
 _atom_site_fract_x
 _atom_site_fract_y
 _atom_site_fract_z
 _atom_site_occupancy
  Ba  Ba0  1  0.31903500  0.73628400  0.50080700  1
  Ba  Ba1  1  0.81903500  0.26371600  0.99919300  1
  Ba  Ba2  1  0.68096500  0.26371600  0.49919300  1
  Ba  Ba3  1  0.18096500  0.73628400  0.00080700  1
  Mg  Mg0  1  0.39671800  0.30169900  0.81108600  1
  Mg  Mg1  1  0.89671800  0.69830100  0.68891400  1
  Mg  Mg2  1  0.10328200  0.30169900  0.31108600  1
  Mg  Mg3  1  0.60328200  0.69830100  0.18891400  1
  Ni  Ni0  1  0.61313100  0.80558400  0.81138500  1
  Ni  Ni1  1  0.38686900  0.19441600  0.18861500  1
  Ni  Ni2  1  0.88686900  0.80558400  0.31138500  1
  Ni  Ni3  1  0.11313100  0.19441600  0.68861500  1
  F  F0  1  0.44680200  0.89117300  0.12674200  1
  F  F1  1  0.04713700  0.62840200  0.36680300  1
  F  F2  1  0.71139900  0.53081400  0.74987300  1
  F  F3  1  0.28860100  0.46918600  0.25012700  1
  F  F4  1  0.45549800  0.11707100  0.36395600  1
  F  F5  1  0.81300800  0.74395000  0.49508700  1
  F  F6  1  0.77937900  0.97567000  0.75117400  1
  F  F7  1  0.95549800  0.88292900  0.13604400  1
  F  F8  1  0.45286300  0.62840200  0.86680300  1
  F  F9  1  0.21139900  0.46918600  0.75012700  1
  F  F10  1  0.05319800  0.89117300  0.62674200  1
  F  F11  1  0.55319800  0.10882700  0.87325800  1
  F  F12  1  0.27937900  0.02433000  0.74882600  1
  F  F13  1  0.95707200  0.62107800  0.87618200  1
  F  F14  1  0.54450200  0.88292900  0.63604400  1
  F  F15  1  0.04450200  0.11707100  0.86395600  1
  F  F16  1  0.22062100  0.02433000  0.24882600  1
  F  F17  1  0.94680200  0.10882700  0.37325800  1
  F  F18  1  0.45707200  0.37892200  0.62381800  1
  F  F19  1  0.95286300  0.37159800  0.63319700  1
  F  F20  1  0.04292800  0.37892200  0.12381800  1
  F  F21  1  0.72062100  0.97567000  0.25117400  1
  F  F22  1  0.54292800  0.62107800  0.37618200  1
  F  F23  1  0.31300800  0.25605000  0.00491300  1
  F  F24  1  0.18699200  0.25605000  0.50491300  1
  F  F25  1  0.68699200  0.74395000  0.99508700  1
  F  F26  1  0.54713700  0.37159800  0.13319700  1
  F  F27  1  0.78860100  0.53081400  0.24987300  1
loop_
_geom_bond_atom_site_label_1
_geom_bond_atom_site_label_2
_geom_bond_distance
_geom_bond_site_symmetry_2
Ba0 F22 2.621465 1_555
Ba0 F18 2.653812 1_555
Ba0 F14 2.736619 1_555
Ba0 F4 2.798214 1_565
Ba0 F3 2.924461 1_555
Ba0 F9 2.956896 1_555
Ba0 F12 2.981119 1_565
Ba0 F24 2.997305 1_555
Ba0 F16 3.001838 1_565
Ba0 F10 3.048302 1_555
Ba0 F1 3.063795 1_555
Ba0 F24 3.202492 1_565
Ba1 F20 2.621465 1_656
Ba1 F13 2.653812 1_555
Ba1 F15 2.736619 1_655
Ba1 F7 2.798214 1_546
Ba1 F27 2.924461 1_556
Ba1 F2 2.956896 1_555
Ba1 F6 2.981119 1_545
Ba1 F25 2.997305 1_555
Ba1 F21 3.001838 1_546
Ba1 F11 3.048302 1_555
Ba1 F26 3.063795 1_556
Ba1 F25 3.202492 1_545
Ba2 F18 2.621465 1_555
Ba2 F22 2.653812 1_555
Ba2 F4 2.736619 1_555
Ba2 F14 2.798214 1_545
Ba2 F2 2.924461 1_555
Ba2 F27 2.956896 1_555
Ba2 F21 2.981119 1_545
Ba2 F5 2.997305 1_555
Ba2 F6 3.001838 1_545
Ba2 F17 3.048302 1_555
Ba2 F19 3.063795 1_555
Ba2 F5 3.202492 1_545
Ba3 F13 2.621465 1_454
Ba3 F20 2.653812 1_555
Ba3 F7 2.736619 1_455
Ba3 F15 2.798214 1_564
Ba3 F9 2.924461 1_554
Ba3 F3 2.956896 1_555
Ba3 F16 2.981119 1_565
Ba3 F23 2.997305 1_555
Ba3 F12 3.001838 1_564
Ba3 F0 3.048302 1_555
Ba3 F8 3.063795 1_554
Ba3 F23 3.202492 1_565
F0 Ni1 1.929072 1_565
F0 Mg3 1.966975 1_555
F1 Ni2 1.934752 1_455
F1 Mg2 2.018469 1_555
F2 Ni0 1.945076 1_555
F2 Mg1 2.132320 1_555
F3 Ni1 1.945076 1_555
F3 Mg2 2.132320 1_555
F4 Ni1 1.847842 1_555
F5 Ni2 1.926106 1_555
F5 Mg1 2.043684 1_555
F6 Ni0 1.976441 1_555
F6 Mg1 2.060065 1_555
F7 Ni2 1.847842 1_555
F8 Ni0 1.934752 1_555
F8 Mg0 2.018469 1_555
F9 Ni3 1.945076 1_555
F9 Mg0 2.132320 1_555
F10 Ni3 1.929072 1_565
F10 Mg1 1.966975 1_455
F11 Ni0 1.929072 1_545
F11 Mg0 1.966975 1_555
F12 Ni3 1.976441 1_555
F12 Mg0 2.060065 1_555
F13 Mg1 1.924449 1_555
F14 Ni0 1.847842 1_555
F15 Ni3 1.847842 1_555
F16 Ni1 1.976441 1_555
F16 Mg2 2.060065 1_555
F17 Ni2 1.929072 1_545
F17 Mg2 1.966975 1_655
F18 Mg0 1.924449 1_555
F19 Ni3 1.934752 1_655
F19 Mg1 2.018469 1_555
F20 Mg2 1.924449 1_555
F21 Ni2 1.976441 1_555
F21 Mg3 2.060065 1_555
F22 Mg3 1.924449 1_555
F23 Ni1 1.926106 1_555
F23 Mg0 2.043684 1_554
F24 Ni3 1.926106 1_555
F24 Mg2 2.043684 1_555
F25 Ni0 1.926106 1_555
F25 Mg3 2.043684 1_556
F26 Ni1 1.934752 1_555
F26 Mg3 2.018469 1_555
F27 Ni2 1.945076 1_555
F27 Mg3 2.132320 1_555
