# generated using pymatgen
data_Li4CO4
_symmetry_space_group_name_H-M   'P 1'
_cell_length_a   3.18334862
_cell_length_b   5.45692408
_cell_length_c   5.45692456
_cell_angle_alpha   89.99459372
_cell_angle_beta   87.30443071
_cell_angle_gamma   87.30443029
_symmetry_Int_Tables_number   1
_chemical_formula_structural   Li4CO4
_chemical_formula_sum   'Li4 C1 O4'
_cell_volume   94.58395578
_cell_formula_units_Z   1
loop_
 _symmetry_equiv_pos_site_id
 _symmetry_equiv_pos_as_xyz
  1  'x, y, z'
loop_
 _atom_site_type_symbol
 _atom_site_label
 _atom_site_symmetry_multiplicity
 _atom_site_fract_x
 _atom_site_fract_y
 _atom_site_fract_z
 _atom_site_occupancy
  Li  Li0  1  0.07243100  0.35756200  0.35756200  1
  Li  Li1  1  0.56411900  0.28191700  0.76577800  1
  Li  Li2  1  0.03321400  0.66545800  0.66545800  1
  Li  Li3  1  0.56411900  0.76577800  0.28191700  1
  C  C0  1  0.97868100  0.05292200  0.05292200  1
  O  O0  1  0.80425600  0.90613600  0.90613600  1
  O  O1  1  0.55107800  0.51019600  0.51019600  1
  O  O2  1  0.05536600  0.98512400  0.27682800  1
  O  O3  1  0.05536600  0.27682800  0.98512400  1
loop_
_geom_bond_atom_site_label_1
_geom_bond_atom_site_label_2
_geom_bond_distance
_geom_bond_site_symmetry_2
Li0 O1 1.970281 1_455
Li0 O1 1.986962 1_555
Li0 O2 2.083353 1_545
Li0 O3 2.083353 1_554
Li1 O1 1.870538 1_555
Li1 O3 1.969331 1_555
Li1 O3 2.012695 1_655
Li1 O0 2.298550 1_545
Li2 O0 1.949696 1_455
Li2 O1 1.972499 1_555
Li2 O1 2.008996 1_455
Li3 O1 1.870538 1_555
Li3 O2 1.969331 1_555
Li3 O2 2.012695 1_655
Li3 O0 2.298550 1_554
C0 O0 1.294333 1_544
C0 O3 1.307223 1_654
C0 O2 1.307223 1_645
