# generated using pymatgen
data_Tm7Ru2C11
_symmetry_space_group_name_H-M   'P 1'
_cell_length_a   3.38662900
_cell_length_b   8.38212879
_cell_length_c   19.59768200
_cell_angle_alpha   90.00000000
_cell_angle_beta   90.00000000
_cell_angle_gamma   101.65480335
_symmetry_Int_Tables_number   1
_chemical_formula_structural   Tm7Ru2C11
_chemical_formula_sum   'Tm14 Ru4 C22'
_cell_volume   544.85254662
_cell_formula_units_Z   2
loop_
 _symmetry_equiv_pos_site_id
 _symmetry_equiv_pos_as_xyz
  1  'x, y, z'
loop_
 _atom_site_type_symbol
 _atom_site_label
 _atom_site_symmetry_multiplicity
 _atom_site_fract_x
 _atom_site_fract_y
 _atom_site_fract_z
 _atom_site_occupancy
  Tm  Tm0  1  0.89730600  0.79461100  0.25000000  1
  Tm  Tm1  1  0.10269400  0.20538900  0.75000000  1
  Tm  Tm2  1  0.27835700  0.55671400  0.65474500  1
  Tm  Tm3  1  0.72164300  0.44328600  0.34525500  1
  Tm  Tm4  1  0.72164300  0.44328600  0.15474500  1
  Tm  Tm5  1  0.27835700  0.55671400  0.84525500  1
  Tm  Tm6  1  0.33788800  0.67577600  0.01946400  1
  Tm  Tm7  1  0.66211200  0.32422400  0.98053600  1
  Tm  Tm8  1  0.66211200  0.32422400  0.51946400  1
  Tm  Tm9  1  0.33788800  0.67577600  0.48053600  1
  Tm  Tm10  1  0.52286500  0.04573100  0.12727600  1
  Tm  Tm11  1  0.47713500  0.95426900  0.87272400  1
  Tm  Tm12  1  0.47713500  0.95426900  0.62727600  1
  Tm  Tm13  1  0.52286500  0.04573100  0.37272400  1
  Ru  Ru0  1  0.08159000  0.16318100  0.25000000  1
  Ru  Ru1  1  0.91841000  0.83681900  0.75000000  1
  Ru  Ru2  1  0.00000000  0.00000000  0.00000000  1
  Ru  Ru3  1  0.00000000  0.00000000  0.50000000  1
  C  C0  1  0.28050700  0.56101400  0.25000000  1
  C  C1  1  0.71949300  0.43898600  0.75000000  1
  C  C2  1  0.50139900  0.00279800  0.25000000  1
  C  C3  1  0.49860100  0.99720200  0.75000000  1
  C  C4  1  0.07453500  0.14907000  0.58002900  1
  C  C5  1  0.92546500  0.85093000  0.41997100  1
  C  C6  1  0.92546500  0.85093000  0.08002900  1
  C  C7  1  0.07453500  0.14907000  0.91997100  1
  C  C8  1  0.13474100  0.26948300  0.62331100  1
  C  C9  1  0.86525900  0.73051700  0.37668900  1
  C  C10  1  0.86525900  0.73051700  0.12331100  1
  C  C11  1  0.13474100  0.26948300  0.87668900  1
  C  C12  1  0.20622400  0.41244900  0.06321100  1
  C  C13  1  0.79377600  0.58755100  0.93678900  1
  C  C14  1  0.79377600  0.58755100  0.56321100  1
  C  C15  1  0.20622400  0.41244900  0.43678900  1
  C  C16  1  0.19931200  0.39862500  0.25000000  1
  C  C17  1  0.80068800  0.60137500  0.75000000  1
  C  C18  1  0.12628000  0.25256000  0.08412900  1
  C  C19  1  0.87372000  0.74744000  0.91587100  1
  C  C20  1  0.87372000  0.74744000  0.58412900  1
  C  C21  1  0.12628000  0.25256000  0.41587100  1
loop_
_geom_bond_atom_site_label_1
_geom_bond_atom_site_label_2
_geom_bond_distance
_geom_bond_site_symmetry_2
C0 C16 1.333102 1_555
C0 Tm0 2.558274 1_455
C0 Tm0 2.558277 1_555
C0 Tm3 2.699301 1_555
C0 Tm4 2.699301 1_555
C0 Tm3 2.699301 1_455
C0 Tm4 2.699301 1_455
C1 C17 1.333102 1_555
C1 Tm1 2.558274 1_655
C1 Tm1 2.558277 1_555
C1 Tm5 2.699301 1_555
C1 Tm2 2.699301 1_555
C1 Tm5 2.699301 1_655
C1 Tm2 2.699301 1_655
C2 Ru0 2.144955 1_655
C2 Ru0 2.144958 1_555
C2 Tm0 2.405875 1_445
C2 Tm0 2.405877 1_545
C2 Tm13 2.430793 1_555
C2 Tm10 2.430793 1_555
C3 Ru1 2.144955 1_455
C3 Ru1 2.144958 1_555
C3 Tm1 2.405875 1_665
C3 Tm1 2.405877 1_565
C3 Tm11 2.430793 1_555
C3 Tm12 2.430793 1_555
C4 C8 1.302550 1_555
C4 Ru3 1.989326 1_555
C4 Tm12 2.506400 1_445
C4 Tm12 2.506402 1_545
C4 Tm8 2.518663 1_455
C4 Tm8 2.518663 1_555
C5 C9 1.302550 1_555
C5 Ru3 1.989326 1_665
C5 Tm13 2.506400 1_665
C5 Tm13 2.506402 1_565
C5 Tm9 2.518663 1_655
C5 Tm9 2.518663 1_555
C6 Ru2 1.989326 1_665
C6 Tm10 2.506400 1_665
C6 Tm10 2.506402 1_565
C6 Tm6 2.518663 1_655
C6 Tm6 2.518663 1_555
C7 Ru2 1.989326 1_556
C7 Tm11 2.506400 1_445
C7 Tm11 2.506402 1_545
C7 Tm7 2.518663 1_455
C7 Tm7 2.518663 1_555
C8 Tm2 2.437111 1_555
C8 Tm1 2.537952 1_555
C8 Tm8 2.685355 1_455
C8 Tm8 2.685358 1_555
C9 Tm3 2.437111 1_555
C9 Tm0 2.537952 1_555
C9 Tm9 2.685355 1_655
C9 Tm9 2.685358 1_555
C10 C6 1.302550 1_555
C10 Tm4 2.437111 1_555
C10 Tm0 2.537952 1_555
C10 Tm6 2.685355 1_655
C10 Tm6 2.685358 1_555
C11 C7 1.302550 1_555
C11 Tm5 2.437111 1_555
C11 Tm1 2.537952 1_555
C11 Tm7 2.685355 1_455
C11 Tm7 2.685358 1_555
C12 C18 1.375106 1_555
C12 Tm6 2.325537 1_555
C12 Tm7 2.452966 1_454
C12 Tm7 2.452968 1_554
C12 Tm4 2.479779 1_455
C12 Tm4 2.479782 1_555
C13 C19 1.375106 1_555
C13 Tm7 2.325537 1_555
C13 Tm6 2.452966 1_656
C13 Tm6 2.452968 1_556
C13 Tm5 2.479779 1_655
C13 Tm5 2.479782 1_555
C14 C20 1.375106 1_555
C14 Tm8 2.325537 1_555
C14 Tm9 2.452966 1_655
C14 Tm9 2.452968 1_555
C14 Tm2 2.479779 1_655
C14 Tm2 2.479782 1_555
C15 C21 1.375106 1_555
C15 Tm9 2.325537 1_555
C15 Tm8 2.452966 1_455
C15 Tm8 2.452968 1_555
C15 Tm3 2.479779 1_455
C15 Tm3 2.479782 1_555
C16 Ru0 1.932833 1_555
C16 Tm3 2.546878 1_455
C16 Tm4 2.546878 1_455
C16 Tm3 2.546880 1_555
C16 Tm4 2.546880 1_555
C17 Ru1 1.932833 1_555
C17 Tm5 2.546878 1_655
C17 Tm2 2.546878 1_655
C17 Tm5 2.546880 1_555
C17 Tm2 2.546880 1_555
C18 Tm10 2.542687 1_555
C18 Tm10 2.542690 1_455
C18 Ru2 2.648976 1_555
C18 Tm4 2.689615 1_455
C18 Tm4 2.689615 1_555
C18 Tm7 2.708333 1_454
C18 Tm7 2.708333 1_554
C19 Tm11 2.542687 1_555
C19 Tm11 2.542690 1_655
C19 Ru2 2.648976 1_666
C19 Tm5 2.689615 1_655
C19 Tm5 2.689615 1_555
C19 Tm6 2.708333 1_656
C19 Tm6 2.708333 1_556
C20 Tm12 2.542687 1_555
C20 Tm12 2.542690 1_655
C20 Ru3 2.648976 1_665
C20 Tm2 2.689615 1_655
C20 Tm2 2.689615 1_555
C20 Tm9 2.708333 1_655
C20 Tm9 2.708333 1_555
C21 Tm13 2.542687 1_555
C21 Tm13 2.542690 1_455
C21 Ru3 2.648976 1_555
C21 Tm3 2.689615 1_455
C21 Tm3 2.689615 1_555
C21 Tm8 2.708333 1_455
C21 Tm8 2.708333 1_555
