# generated using pymatgen
data_CuClO
_symmetry_space_group_name_H-M   'P 1'
_cell_length_a   6.23889786
_cell_length_b   6.23646104
_cell_length_c   5.27462138
_cell_angle_alpha   90.00000000
_cell_angle_beta   113.04898030
_cell_angle_gamma   90.00000000
_symmetry_Int_Tables_number   1
_chemical_formula_structural   CuClO
_chemical_formula_sum   'Cu4 Cl4 O4'
_cell_volume   188.84508387
_cell_formula_units_Z   4
loop_
 _symmetry_equiv_pos_site_id
 _symmetry_equiv_pos_as_xyz
  1  'x, y, z'
loop_
 _atom_site_type_symbol
 _atom_site_label
 _atom_site_symmetry_multiplicity
 _atom_site_fract_x
 _atom_site_fract_y
 _atom_site_fract_z
 _atom_site_occupancy
  Cu  Cu0  1  0.96161241  0.38561353  0.21164386  1
  Cu  Cu1  1  0.03838759  0.88561353  0.28835614  1
  Cu  Cu2  1  0.03838759  0.61438647  0.78835614  1
  Cu  Cu3  1  0.96161241  0.11438647  0.71164386  1
  Cl  Cl0  1  0.68874374  0.07097563  0.86747838  1
  Cl  Cl1  1  0.31125626  0.57097563  0.63252162  1
  Cl  Cl2  1  0.31125626  0.92902437  0.13252162  1
  Cl  Cl3  1  0.68874374  0.42902437  0.36747838  1
  O  O0  1  0.09920921  0.15215942  0.45293362  1
  O  O1  1  0.90079079  0.65215942  0.04706638  1
  O  O2  1  0.90079079  0.84784058  0.54706638  1
  O  O3  1  0.09920921  0.34784058  0.95293362  1
loop_
_geom_bond_atom_site_label_1
_geom_bond_atom_site_label_2
_geom_bond_distance
_geom_bond_site_symmetry_2
Cu0 O1 1.844689 1_555
Cu0 O3 1.889932 1_654
Cu0 O0 1.902878 1_655
Cu1 O0 1.844689 1_565
Cu1 O2 1.889932 1_455
Cu1 O1 1.902878 1_455
Cu2 O3 1.844689 1_555
Cu2 O1 1.889932 1_456
Cu2 O2 1.902878 1_455
Cu3 O2 1.844689 1_545
Cu3 O0 1.889932 1_655
Cu3 O3 1.902878 1_655
Cl0 Cu3 2.177799 1_555
Cl0 Cu1 2.689077 1_646
Cl0 Cu0 2.761167 1_556
Cl1 Cu2 2.177799 1_555
Cl1 Cu0 2.689077 1_455
Cl1 Cu1 2.761167 1_555
Cl2 Cu1 2.177799 1_555
Cl2 Cu3 2.689077 1_464
Cl2 Cu2 2.761167 1_554
Cl3 Cu0 2.177799 1_555
Cl3 Cu2 2.689077 1_655
Cl3 Cu3 2.761167 1_555
