# generated using pymatgen
data_K5Na3Ta5Nb3O24
_symmetry_space_group_name_H-M   'P 1'
_cell_length_a   8.03855400
_cell_length_b   8.03919500
_cell_length_c   8.03998500
_cell_angle_alpha   89.99876710
_cell_angle_beta   89.99858898
_cell_angle_gamma   89.99848906
_symmetry_Int_Tables_number   1
_chemical_formula_structural   K5Na3Ta5Nb3O24
_chemical_formula_sum   'K5 Na3 Ta5 Nb3 O24'
_cell_volume   519.57199576
_cell_formula_units_Z   1
loop_
 _symmetry_equiv_pos_site_id
 _symmetry_equiv_pos_as_xyz
  1  'x, y, z'
loop_
 _atom_site_type_symbol
 _atom_site_label
 _atom_site_symmetry_multiplicity
 _atom_site_fract_x
 _atom_site_fract_y
 _atom_site_fract_z
 _atom_site_occupancy
  K  K0  1  0.74995400  0.74995000  0.25014200  1
  K  K1  1  0.74995900  0.74995200  0.74986100  1
  K  K2  1  0.74995400  0.25005100  0.25013500  1
  K  K3  1  0.74995400  0.25003700  0.74986000  1
  K  K4  1  0.25005400  0.25005200  0.74986300  1
  Na  Na0  1  0.25000600  0.74999200  0.25002400  1
  Na  Na1  1  0.25000600  0.74999300  0.74997500  1
  Na  Na2  1  0.25000600  0.25000700  0.25002400  1
  Ta  Ta0  1  0.00071400  0.99976400  0.00023400  1
  Ta  Ta1  1  0.49928100  0.99976400  0.00024000  1
  Ta  Ta2  1  0.00072300  0.99976100  0.49976200  1
  Ta  Ta3  1  0.00071100  0.50023600  0.00024000  1
  Ta  Ta4  1  0.49928600  0.50023600  0.00023800  1
  Nb  Nb0  1  0.49931000  0.99976900  0.49977100  1
  Nb  Nb1  1  0.00070800  0.50022900  0.49977100  1
  Nb  Nb2  1  0.49928500  0.50023400  0.49977300  1
  O  O0  1  0.00149300  0.75008100  0.00007000  1
  O  O1  1  0.49850400  0.75000800  0.00007000  1
  O  O2  1  0.00149200  0.75105500  0.49993300  1
  O  O3  1  0.49852400  0.75007700  0.49993600  1
  O  O4  1  0.00086300  0.24991800  0.00071900  1
  O  O5  1  0.49913600  0.24999300  0.00072200  1
  O  O6  1  0.00085600  0.24893500  0.49928000  1
  O  O7  1  0.49915800  0.24992000  0.49928800  1
  O  O8  1  0.00149600  0.99992900  0.24983800  1
  O  O9  1  0.49851200  0.99993500  0.24885900  1
  O  O10  1  0.00086400  0.99928000  0.75016800  1
  O  O11  1  0.49914500  0.99928300  0.75115600  1
  O  O12  1  0.00148800  0.50006700  0.24885900  1
  O  O13  1  0.49850800  0.50006600  0.24879100  1
  O  O14  1  0.00085300  0.50071600  0.75115500  1
  O  O15  1  0.49914500  0.50071900  0.75122500  1
  O  O16  1  0.75008400  0.99992600  0.00007300  1
  O  O17  1  0.24992400  0.99929500  0.00070500  1
  O  O18  1  0.75107500  0.99993200  0.49993000  1
  O  O19  1  0.24896200  0.99929400  0.49929400  1
  O  O20  1  0.75000600  0.50007400  0.00007100  1
  O  O21  1  0.24999300  0.50070700  0.00070800  1
  O  O22  1  0.75008200  0.50006700  0.49993400  1
  O  O23  1  0.24992500  0.50070000  0.49930200  1
loop_
_geom_bond_atom_site_label_1
_geom_bond_atom_site_label_2
_geom_bond_distance
_geom_bond_site_symmetry_2
K0 O22 2.840546 1_555
K0 O18 2.841162 1_555
K0 O20 2.842154 1_555
K0 O16 2.842650 1_555
K0 O3 2.849248 1_555
K0 O13 2.849803 1_555
K0 O2 2.849931 1_655
K0 O12 2.850222 1_655
K0 O9 2.850275 1_555
K0 O8 2.850869 1_655
K0 O1 2.851007 1_555
K0 O0 2.851445 1_655
K1 O22 2.841386 1_555
K1 O18 2.841902 1_555
K1 O15 2.842510 1_555
K1 O20 2.842895 1_556
K1 O14 2.842907 1_655
K1 O11 2.842989 1_555
K1 O16 2.843513 1_556
K1 O10 2.843548 1_655
K1 O3 2.850089 1_555
K1 O2 2.850608 1_655
K1 O1 2.851743 1_556
K1 O0 2.852263 1_656
K2 O22 2.841404 1_555
K2 O18 2.841920 1_545
K2 O7 2.842000 1_555
K2 O6 2.842643 1_655
K2 O20 2.842888 1_555
K2 O16 2.843518 1_545
K2 O5 2.843669 1_555
K2 O4 2.844135 1_655
K2 O13 2.850470 1_555
K2 O12 2.851050 1_655
K2 O9 2.851093 1_545
K2 O8 2.851604 1_645
K3 O22 2.842144 1_555
K3 O18 2.842668 1_545
K3 O20 2.843865 1_556
K3 O16 2.844236 1_546
K3 O7 2.850123 1_555
K3 O15 2.850630 1_555
K3 O6 2.850715 1_655
K3 O11 2.851112 1_545
K3 O14 2.851198 1_655
K3 O10 2.851611 1_645
K3 O5 2.851826 1_556
K3 O4 2.852397 1_656
K4 O7 2.840465 1_555
K4 O15 2.840869 1_555
K4 O6 2.841128 1_555
K4 O11 2.841374 1_545
K4 O14 2.841398 1_555
K4 O10 2.842009 1_545
K4 O5 2.842030 1_556
K4 O4 2.842561 1_556
K4 O23 2.849267 1_555
K4 O19 2.850013 1_545
K4 O21 2.850983 1_556
K4 O17 2.851484 1_546
Na0 O13 2.833228 1_555
Na0 O8 2.833319 1_555
Na0 O2 2.833337 1_555
Na0 O12 2.833386 1_555
Na0 O9 2.833420 1_555
Na0 O3 2.833434 1_555
Na0 O1 2.833490 1_555
Na0 O0 2.833645 1_555
Na0 O23 2.834265 1_555
Na0 O19 2.834349 1_555
Na0 O21 2.834502 1_555
Na0 O17 2.834560 1_555
Na1 O15 2.833131 1_555
Na1 O10 2.833204 1_555
Na1 O11 2.833295 1_555
Na1 O14 2.833300 1_555
Na1 O3 2.834088 1_555
Na1 O2 2.834165 1_555
Na1 O1 2.834364 1_556
Na1 O0 2.834379 1_556
Na1 O23 2.842273 1_555
Na1 O19 2.842315 1_555
Na1 O21 2.842514 1_556
Na1 O17 2.842649 1_556
Na2 O6 2.833228 1_555
Na2 O7 2.833342 1_555
Na2 O5 2.833363 1_555
Na2 O4 2.833524 1_555
Na2 O13 2.834060 1_555
Na2 O12 2.834081 1_555
Na2 O9 2.834081 1_545
Na2 O8 2.834198 1_545
Na2 O23 2.842301 1_555
Na2 O19 2.842321 1_545
Na2 O21 2.842495 1_555
Na2 O17 2.842641 1_545
Nb0 O3 2.007333 1_555
Nb0 O7 2.011017 1_565
Nb0 O19 2.012443 1_555
Nb0 O9 2.017339 1_555
Nb0 O11 2.021136 1_555
Nb0 O18 2.023827 1_555
Nb1 O23 2.003351 1_555
Nb1 O22 2.014671 1_455
Nb1 O2 2.016450 1_555
Nb1 O12 2.017339 1_555
Nb1 O6 2.020206 1_555
Nb1 O14 2.021128 1_555
Nb2 O23 2.004501 1_555
Nb2 O3 2.008546 1_555
Nb2 O7 2.012327 1_555
Nb2 O22 2.016046 1_555
Nb2 O13 2.017902 1_555
Nb2 O15 2.021674 1_555
O0 Ta0 2.007260 1_555
O0 Ta3 2.008563 1_555
O1 Ta1 2.007848 1_555
O1 Ta4 2.007976 1_555
O2 Ta2 1.999406 1_555
O4 Ta0 2.011041 1_545
O4 Ta3 2.012359 1_555
O5 Ta1 2.011644 1_545
O5 Ta4 2.011756 1_555
O6 Ta2 2.003162 1_545
O8 Ta0 2.006823 1_555
O8 Ta2 2.009395 1_555
O9 Ta1 1.998903 1_555
O10 Ta0 2.010531 1_556
O10 Ta2 2.013264 1_555
O11 Ta1 2.002636 1_556
O12 Ta3 1.998903 1_555
O13 Ta4 1.998372 1_555
O14 Ta3 2.002644 1_556
O15 Ta4 2.002065 1_556
O16 Ta0 2.014704 1_655
O16 Ta1 2.016094 1_555
O17 Ta0 2.003295 1_555
O17 Ta1 2.004477 1_555
O18 Ta2 2.006810 1_655
O19 Ta2 1.995489 1_555
O20 Ta3 2.015307 1_655
O20 Ta4 2.015427 1_555
O21 Ta3 2.003874 1_555
O21 Ta4 2.003962 1_555
