# generated using pymatgen
data_SbH2SO3F7
_symmetry_space_group_name_H-M   'P 1'
_cell_length_a   13.73040600
_cell_length_b   7.03250700
_cell_length_c   10.86329616
_cell_angle_alpha   52.03943159
_cell_angle_beta   90.00000000
_cell_angle_gamma   90.00000000
_symmetry_Int_Tables_number   1
_chemical_formula_structural   SbH2SO3F7
_chemical_formula_sum   'Sb4 H8 S4 O12 F28'
_cell_volume   827.02886228
_cell_formula_units_Z   4
loop_
 _symmetry_equiv_pos_site_id
 _symmetry_equiv_pos_as_xyz
  1  'x, y, z'
loop_
 _atom_site_type_symbol
 _atom_site_label
 _atom_site_symmetry_multiplicity
 _atom_site_fract_x
 _atom_site_fract_y
 _atom_site_fract_z
 _atom_site_occupancy
  Sb  Sb0  1  0.01841400  0.01184900  0.23282800  1
  Sb  Sb1  1  0.48158600  0.01184900  0.73282800  1
  Sb  Sb2  1  0.98158600  0.98815100  0.76717200  1
  Sb  Sb3  1  0.51841400  0.98815100  0.26717200  1
  H  H0  1  0.83959200  0.23037000  0.97836200  1
  H  H1  1  0.66040800  0.23037000  0.47836200  1
  H  H2  1  0.16040800  0.76963000  0.02163800  1
  H  H3  1  0.33959200  0.76963000  0.52163800  1
  H  H4  1  0.58090200  0.55595500  0.76815800  1
  H  H5  1  0.91909800  0.55595500  0.26815800  1
  H  H6  1  0.41909800  0.44404500  0.23184200  1
  H  H7  1  0.08090200  0.44404500  0.73184200  1
  S  S0  1  0.73365000  0.50585600  0.81641700  1
  S  S1  1  0.76635000  0.50585600  0.31641700  1
  S  S2  1  0.26635000  0.49414400  0.18358300  1
  S  S3  1  0.23365000  0.49414400  0.68358300  1
  O  O0  1  0.79445700  0.28418600  0.88408700  1
  O  O1  1  0.70554300  0.28418600  0.38408700  1
  O  O2  1  0.20554300  0.71581400  0.11591300  1
  O  O3  1  0.29445700  0.71581400  0.61591300  1
  O  O4  1  0.63694300  0.44194800  0.78460500  1
  O  O5  1  0.86305700  0.44194800  0.28460500  1
  O  O6  1  0.36305700  0.55805200  0.21539500  1
  O  O7  1  0.13694300  0.55805200  0.71539500  1
  O  O8  1  0.73309800  0.61519300  0.89039900  1
  O  O9  1  0.76690200  0.61519300  0.39039900  1
  O  O10  1  0.26690200  0.38480700  0.10960100  1
  O  O11  1  0.23309800  0.38480700  0.60960100  1
  F  F0  1  0.89282200  0.12619600  0.11987500  1
  F  F1  1  0.60717800  0.12619600  0.61987500  1
  F  F2  1  0.10717800  0.87380400  0.88012500  1
  F  F3  1  0.39282200  0.87380400  0.38012500  1
  F  F4  1  0.99220800  0.70625100  0.26803700  1
  F  F5  1  0.50779200  0.70625100  0.76803700  1
  F  F6  1  0.00779200  0.29374900  0.73196300  1
  F  F7  1  0.49220800  0.29374900  0.23196300  1
  F  F8  1  0.13859200  0.88256100  0.34158300  1
  F  F9  1  0.36140800  0.88256100  0.84158300  1
  F  F10  1  0.86140800  0.11743900  0.65841700  1
  F  F11  1  0.63859200  0.11743900  0.15841700  1
  F  F12  1  0.94955100  0.88649300  0.41946200  1
  F  F13  1  0.55044900  0.88649300  0.91946200  1
  F  F14  1  0.05044900  0.11350700  0.58053800  1
  F  F15  1  0.44955100  0.11350700  0.08053800  1
  F  F16  1  0.03742700  0.31590600  0.19011000  1
  F  F17  1  0.46257300  0.31590600  0.69011000  1
  F  F18  1  0.96257300  0.68409400  0.80989000  1
  F  F19  1  0.53742700  0.68409400  0.30989000  1
  F  F20  1  0.07942700  0.12155400  0.04224100  1
  F  F21  1  0.42057300  0.12155400  0.54224100  1
  F  F22  1  0.92057300  0.87844600  0.95775900  1
  F  F23  1  0.57942700  0.87844600  0.45775900  1
  F  F24  1  0.77753600  0.68162000  0.64948200  1
  F  F25  1  0.72246400  0.68162000  0.14948200  1
  F  F26  1  0.22246400  0.31838000  0.35051800  1
  F  F27  1  0.27753600  0.31838000  0.85051800  1
loop_
_geom_bond_atom_site_label_1
_geom_bond_atom_site_label_2
_geom_bond_distance
_geom_bond_site_symmetry_2
H0 O0 1.048480 1_555
H1 O1 1.048480 1_555
H2 O2 1.048480 1_555
H3 O3 1.048480 1_555
H4 O4 1.044309 1_555
H5 O5 1.044309 1_555
H6 O6 1.044309 1_555
H7 O7 1.044309 1_555
O0 S0 1.502598 1_555
O1 S1 1.502598 1_555
O2 S2 1.502598 1_555
O3 S3 1.502598 1_555
O4 S0 1.508515 1_555
O5 S1 1.508515 1_555
O6 S2 1.508515 1_555
O7 S3 1.508515 1_555
O8 S0 1.413310 1_555
O9 S1 1.413310 1_555
O10 S2 1.413310 1_555
O11 S3 1.413310 1_555
F0 H0 1.431304 1_554
F0 Sb0 1.977887 1_655
F1 H1 1.431304 1_555
F1 Sb1 1.977887 1_555
F2 H2 1.431304 1_556
F2 Sb2 1.977887 1_455
F3 H3 1.431304 1_555
F3 Sb3 1.977887 1_555
F4 H5 1.457095 1_555
F4 Sb0 1.970588 1_665
F5 H4 1.457095 1_555
F5 Sb1 1.970588 1_565
F6 H7 1.457095 1_555
F6 Sb2 1.970588 1_445
F7 H6 1.457095 1_555
F7 Sb3 1.970588 1_545
F8 Sb0 1.903622 1_565
F9 Sb1 1.903622 1_565
F10 Sb2 1.903622 1_545
F11 Sb3 1.903622 1_545
F12 Sb0 1.892856 1_665
F13 Sb1 1.892856 1_565
F14 Sb2 1.892856 1_445
F15 Sb3 1.892856 1_545
F16 Sb0 1.906569 1_555
F17 Sb1 1.906569 1_555
F18 Sb2 1.906569 1_555
F19 Sb3 1.906569 1_555
F20 Sb0 1.902235 1_555
F21 Sb1 1.902235 1_555
F22 Sb2 1.902235 1_555
F23 Sb3 1.902235 1_555
F24 S0 1.556262 1_555
F25 S1 1.556262 1_555
F26 S2 1.556262 1_555
F27 S3 1.556262 1_555
