# generated using pymatgen
data_RbUAsO9
_symmetry_space_group_name_H-M   'P 1'
_cell_length_a   16.64043600
_cell_length_b   7.22146700
_cell_length_c   10.18946778
_cell_angle_alpha   45.99378588
_cell_angle_beta   90.00000000
_cell_angle_gamma   90.00000000
_symmetry_Int_Tables_number   1
_chemical_formula_structural   RbUAsO9
_chemical_formula_sum   'Rb4 U4 As4 O36'
_cell_volume   880.70453320
_cell_formula_units_Z   4
loop_
 _symmetry_equiv_pos_site_id
 _symmetry_equiv_pos_as_xyz
  1  'x, y, z'
loop_
 _atom_site_type_symbol
 _atom_site_label
 _atom_site_symmetry_multiplicity
 _atom_site_fract_x
 _atom_site_fract_y
 _atom_site_fract_z
 _atom_site_occupancy
  Rb  Rb0  1  0.71024300  0.39238900  0.01089900  1
  Rb  Rb1  1  0.71024300  0.60761100  0.48910100  1
  Rb  Rb2  1  0.28975700  0.60761100  0.98910100  1
  Rb  Rb3  1  0.28975700  0.39238900  0.51089900  1
  U  U0  1  0.93861000  0.50000000  0.75000000  1
  U  U1  1  0.06139000  0.50000000  0.25000000  1
  U  U2  1  0.44942600  0.50000000  0.75000000  1
  U  U3  1  0.55057400  0.50000000  0.25000000  1
  As  As0  1  0.00288900  0.00000000  0.75000000  1
  As  As1  1  0.99711100  0.00000000  0.25000000  1
  As  As2  1  0.50292200  0.00000000  0.75000000  1
  As  As3  1  0.49707800  0.00000000  0.25000000  1
  O  O0  1  0.44009000  0.21097700  0.72632100  1
  O  O1  1  0.44009000  0.78902300  0.77367900  1
  O  O2  1  0.43801900  0.82955900  0.44055200  1
  O  O3  1  0.43801900  0.17044100  0.05944800  1
  O  O4  1  0.55991000  0.78902300  0.27367900  1
  O  O5  1  0.55991000  0.21097700  0.22632100  1
  O  O6  1  0.56198100  0.17044100  0.55944800  1
  O  O7  1  0.56198100  0.82955900  0.94055200  1
  O  O8  1  0.82474000  0.50000000  0.75000000  1
  O  O9  1  0.17526000  0.50000000  0.25000000  1
  O  O10  1  0.19114900  0.81437900  0.61511400  1
  O  O11  1  0.19114900  0.18562100  0.88488600  1
  O  O12  1  0.18593900  0.23692300  0.97715500  1
  O  O13  1  0.18593900  0.76307700  0.52284500  1
  O  O14  1  0.80885100  0.18562100  0.38488600  1
  O  O15  1  0.80885100  0.81437900  0.11511400  1
  O  O16  1  0.81406100  0.76307700  0.02284500  1
  O  O17  1  0.81406100  0.23692300  0.47715500  1
  O  O18  1  0.04756800  0.50000000  0.75000000  1
  O  O19  1  0.95243200  0.50000000  0.25000000  1
  O  O20  1  0.56033800  0.50000000  0.75000000  1
  O  O21  1  0.43966200  0.50000000  0.25000000  1
  O  O22  1  0.94083600  0.20386200  0.73662800  1
  O  O23  1  0.94083600  0.79613800  0.76337200  1
  O  O24  1  0.93608000  0.82315500  0.43962500  1
  O  O25  1  0.93608000  0.17684500  0.06037500  1
  O  O26  1  0.05916400  0.79613800  0.26337200  1
  O  O27  1  0.05916400  0.20386200  0.23662800  1
  O  O28  1  0.06392000  0.17684500  0.56037500  1
  O  O29  1  0.06392000  0.82315500  0.93962500  1
  O  O30  1  0.33975000  0.50000000  0.75000000  1
  O  O31  1  0.66025000  0.50000000  0.25000000  1
  O  O32  1  0.70428300  0.13399700  0.86448900  1
  O  O33  1  0.70428300  0.86600300  0.63551100  1
  O  O34  1  0.29571700  0.86600300  0.13551100  1
  O  O35  1  0.29571700  0.13399700  0.36448900  1
loop_
_geom_bond_atom_site_label_1
_geom_bond_atom_site_label_2
_geom_bond_distance
_geom_bond_site_symmetry_2
As0 O29 1.722517 1_545
As0 O28 1.722517 1_555
As0 O22 1.724359 1_455
As0 O23 1.724359 1_445
As1 O24 1.722517 1_545
As1 O25 1.722517 1_555
As1 O27 1.724359 1_655
As1 O26 1.724359 1_645
As2 O7 1.711754 1_545
As2 O6 1.711754 1_555
As2 O0 1.721008 1_555
As2 O1 1.721008 1_545
As3 O2 1.711754 1_545
As3 O3 1.711754 1_555
As3 O5 1.721008 1_555
As3 O4 1.721008 1_545
O0 U2 2.266792 1_555
O0 Rb3 2.965951 1_555
O1 U2 2.266792 1_555
O1 Rb2 2.965951 1_555
O2 U2 2.283711 1_555
O3 U2 2.283711 1_554
O4 U3 2.266792 1_555
O4 Rb1 2.965951 1_555
O5 U3 2.266792 1_555
O5 Rb0 2.965951 1_555
O6 U3 2.283711 1_555
O7 U3 2.283711 1_556
O8 U0 1.894846 1_555
O8 Rb0 2.903568 1_556
O8 Rb1 2.903568 1_555
O9 U1 1.894846 1_555
O9 Rb2 2.903568 1_554
O9 Rb3 2.903568 1_555
O10 O13 1.229903 1_555
O10 Rb2 3.396691 1_555
O11 O12 1.229903 1_555
O11 Rb3 3.396691 1_555
O12 Rb2 3.258518 1_555
O13 Rb3 3.258518 1_555
O14 O17 1.229903 1_555
O14 Rb0 3.396691 1_555
O15 O16 1.229903 1_555
O15 Rb1 3.396691 1_555
O16 Rb0 3.258518 1_555
O17 Rb1 3.258518 1_555
O18 U0 1.813109 1_455
O19 U1 1.813109 1_655
O20 U2 1.845624 1_555
O20 Rb0 3.320101 1_556
O20 Rb1 3.320101 1_555
O21 U3 1.845624 1_555
O21 Rb3 3.320101 1_555
O21 Rb2 3.320101 1_554
O22 U0 2.235667 1_555
O23 U0 2.235667 1_555
O24 U0 2.279195 1_555
O25 U0 2.279195 1_554
O26 U1 2.235667 1_555
O27 U1 2.235667 1_555
O28 U1 2.279195 1_555
O29 U1 2.279195 1_556
O30 U2 1.825056 1_555
O30 Rb3 3.140421 1_555
O30 Rb2 3.140421 1_555
O31 U3 1.825056 1_555
O31 Rb1 3.140421 1_555
O31 Rb0 3.140421 1_555
O32 Rb1 2.856706 1_555
O32 Rb0 3.095994 1_556
O33 Rb0 2.856706 1_556
O33 Rb1 3.095994 1_555
O34 Rb3 2.856706 1_555
O34 Rb2 3.095994 1_554
O35 Rb2 2.856706 1_554
O35 Rb3 3.095994 1_555
