# generated using pymatgen
data_Na2FeCu(CN)6
_symmetry_space_group_name_H-M   'P 1'
_cell_length_a   7.87680110
_cell_length_b   5.83829300
_cell_length_c   7.46875636
_cell_angle_alpha   90.00000000
_cell_angle_beta   109.96527900
_cell_angle_gamma   90.00000000
_symmetry_Int_Tables_number   1
_chemical_formula_structural   Na2FeCu(CN)6
_chemical_formula_sum   'Na2 Fe1 Cu1 C6 N6'
_cell_volume   322.82382132
_cell_formula_units_Z   1
loop_
 _symmetry_equiv_pos_site_id
 _symmetry_equiv_pos_as_xyz
  1  'x, y, z'
loop_
 _atom_site_type_symbol
 _atom_site_label
 _atom_site_symmetry_multiplicity
 _atom_site_fract_x
 _atom_site_fract_y
 _atom_site_fract_z
 _atom_site_occupancy
  Na  Na0  1  0.50000000  0.00000000  0.50000000  1
  Na  Na1  1  0.00000000  0.00000000  0.50000000  1
  Fe  Fe0  1  0.50000000  0.50000000  0.00000000  1
  Cu  Cu0  1  0.00000000  0.00000000  0.00000000  1
  C  C0  1  0.67621600  0.30047600  0.97545800  1
  C  C1  1  0.67621600  0.69952400  0.97545800  1
  C  C2  1  0.32378400  0.69952400  0.02454200  1
  C  C3  1  0.32378400  0.30047600  0.02454200  1
  C  C4  1  0.38061100  0.50000000  0.73467800  1
  C  C5  1  0.61938900  0.50000000  0.26532200  1
  N  N0  1  0.80754900  0.21802200  0.96049700  1
  N  N1  1  0.80754900  0.78197800  0.96049700  1
  N  N2  1  0.19245100  0.78197800  0.03950300  1
  N  N3  1  0.19245100  0.21802200  0.03950300  1
  N  N4  1  0.29948800  0.50000000  0.56866000  1
  N  N5  1  0.70051200  0.50000000  0.43134000  1
loop_
_geom_bond_atom_site_label_1
_geom_bond_atom_site_label_2
_geom_bond_distance
_geom_bond_site_symmetry_2
Cu0 N3 1.923482 1_555
Cu0 N0 1.923482 1_454
Cu0 N2 1.923482 1_545
Cu0 N1 1.923482 1_444
C0 N0 1.180389 1_555
C0 Fe0 1.868390 1_556
C1 N1 1.180389 1_555
C1 Fe0 1.868390 1_556
C2 N2 1.180389 1_555
C2 Fe0 1.868390 1_555
C3 N3 1.180389 1_555
C3 Fe0 1.868390 1_555
C4 N4 1.185203 1_555
C4 Fe0 1.881115 1_556
C5 N5 1.185203 1_555
C5 Fe0 1.881115 1_555
