# generated using pymatgen
data_LiCuBO3
_symmetry_space_group_name_H-M   'P 1'
_cell_length_a   8.10697882
_cell_length_b   8.15614722
_cell_length_c   3.11858400
_cell_angle_alpha   90.00000000
_cell_angle_beta   90.00000000
_cell_angle_gamma   120.11037026
_symmetry_Int_Tables_number   1
_chemical_formula_structural   LiCuBO3
_chemical_formula_sum   'Li3 Cu3 B3 O9'
_cell_volume   178.38079307
_cell_formula_units_Z   3
loop_
 _symmetry_equiv_pos_site_id
 _symmetry_equiv_pos_as_xyz
  1  'x, y, z'
loop_
 _atom_site_type_symbol
 _atom_site_label
 _atom_site_symmetry_multiplicity
 _atom_site_fract_x
 _atom_site_fract_y
 _atom_site_fract_z
 _atom_site_occupancy
  Li  Li0  1  0.31638700  0.29486700  0.50000000  1
  Li  Li1  1  0.97788300  0.68349400  0.50000000  1
  Li  Li2  1  0.70507800  0.02083200  0.50000000  1
  Cu  Cu0  1  0.01161500  0.37221600  0.00000000  1
  Cu  Cu1  1  0.36279100  0.99279700  0.00000000  1
  Cu  Cu2  1  0.62759700  0.63979400  0.00000000  1
  B  B0  1  0.33373900  0.66675000  0.50000000  1
  B  B1  1  0.00081900  0.00128000  0.00000000  1
  B  B2  1  0.66624600  0.33305000  0.00000000  1
  O  O0  1  0.09120400  0.89509100  0.00000000  1
  O  O1  1  0.13626400  0.55217000  0.50000000  1
  O  O2  1  0.41591400  0.86047000  0.50000000  1
  O  O3  1  0.10717100  0.19642600  0.00000000  1
  O  O4  1  0.44630400  0.58224700  0.50000000  1
  O  O5  1  0.80458800  0.91089800  0.00000000  1
  O  O6  1  0.47308100  0.26771500  0.00000000  1
  O  O7  1  0.79340700  0.52474700  0.00000000  1
  O  O8  1  0.72990800  0.20515600  0.00000000  1
loop_
_geom_bond_atom_site_label_1
_geom_bond_atom_site_label_2
_geom_bond_distance
_geom_bond_site_symmetry_2
Li0 O4 2.031332 1_555
Li0 O6 2.091983 1_555
Li0 O6 2.091983 1_556
Li0 O3 2.141607 1_555
Li0 O3 2.141607 1_556
Li1 O1 2.043465 1_655
Li1 O7 2.098004 1_555
Li1 O7 2.098004 1_556
Li1 O0 2.159409 1_655
Li1 O0 2.159409 1_656
Li2 O2 2.032201 1_545
Li2 O8 2.104379 1_556
Li2 O8 2.104379 1_555
Li2 O5 2.147536 1_546
Li2 O5 2.147536 1_545
Cu0 O3 1.941703 1_555
Cu0 O8 1.987486 1_455
Cu0 O1 2.029449 1_555
Cu0 O1 2.029449 1_554
Cu1 O0 1.929333 1_555
Cu1 O6 1.953379 1_565
Cu1 O2 2.061084 1_554
Cu1 O2 2.061084 1_555
Cu2 O5 1.940304 1_555
Cu2 O7 1.988201 1_555
Cu2 O4 2.029700 1_554
Cu2 O4 2.029700 1_555
B0 O2 1.372640 1_555
B0 O1 1.391117 1_555
B0 O4 1.392424 1_555
B1 O5 1.377521 1_445
B1 O3 1.378338 1_555
B1 O0 1.387005 1_545
B2 O7 1.374814 1_555
B2 O8 1.376455 1_555
B2 O6 1.378043 1_555
