# generated using pymatgen
data_Sc4Ge6Os7
_symmetry_space_group_name_H-M   'P 1'
_cell_length_a   7.08510625
_cell_length_b   7.08510625
_cell_length_c   7.08510625
_cell_angle_alpha   109.47122063
_cell_angle_beta   109.47122063
_cell_angle_gamma   109.47122063
_symmetry_Int_Tables_number   1
_chemical_formula_structural   Sc4Ge6Os7
_chemical_formula_sum   'Sc4 Ge6 Os7'
_cell_volume   273.78976644
_cell_formula_units_Z   1
loop_
 _symmetry_equiv_pos_site_id
 _symmetry_equiv_pos_as_xyz
  1  'x, y, z'
loop_
 _atom_site_type_symbol
 _atom_site_label
 _atom_site_symmetry_multiplicity
 _atom_site_fract_x
 _atom_site_fract_y
 _atom_site_fract_z
 _atom_site_occupancy
  Sc  Sc0  1  0.00000000  0.00000000  0.50000000  1
  Sc  Sc1  1  0.00000000  0.50000000  0.00000000  1
  Sc  Sc2  1  0.50000000  0.00000000  0.00000000  1
  Sc  Sc3  1  0.50000000  0.50000000  0.50000000  1
  Ge  Ge0  1  0.69431400  0.69431400  0.00000000  1
  Ge  Ge1  1  0.30568600  0.00000000  0.30568600  1
  Ge  Ge2  1  0.00000000  0.30568600  0.30568600  1
  Ge  Ge3  1  0.30568600  0.30568600  0.00000000  1
  Ge  Ge4  1  0.69431400  0.00000000  0.69431400  1
  Ge  Ge5  1  0.00000000  0.69431400  0.69431400  1
  Os  Os0  1  0.75000000  0.25000000  0.50000000  1
  Os  Os1  1  0.75000000  0.50000000  0.25000000  1
  Os  Os2  1  0.50000000  0.25000000  0.75000000  1
  Os  Os3  1  0.25000000  0.50000000  0.75000000  1
  Os  Os4  1  0.25000000  0.75000000  0.50000000  1
  Os  Os5  1  0.50000000  0.75000000  0.25000000  1
  Os  Os6  1  0.00000000  0.00000000  0.00000000  1
loop_
_geom_bond_atom_site_label_1
_geom_bond_atom_site_label_2
_geom_bond_distance
_geom_bond_site_symmetry_2
Ge0 Os6 2.500871 1_665
Ge0 Os5 2.590449 1_555
Ge0 Os2 2.590449 1_554
Ge0 Os3 2.590449 1_554
Ge0 Os1 2.590449 1_555
Ge0 Sc0 2.928140 1_665
Ge0 Sc2 2.928140 1_565
Ge0 Sc3 2.928140 1_554
Ge0 Sc1 2.928140 1_655
Ge1 Os6 2.500871 1_555
Ge1 Os5 2.590449 1_545
Ge1 Os0 2.590449 1_555
Ge1 Os4 2.590449 1_545
Ge1 Os2 2.590449 1_555
Ge1 Sc3 2.928140 1_555
Ge1 Sc1 2.928140 1_545
Ge1 Sc0 2.928140 1_555
Ge1 Sc2 2.928140 1_555
Ge2 Os6 2.500871 1_555
Ge2 Os1 2.590449 1_455
Ge2 Os3 2.590449 1_555
Ge2 Os4 2.590449 1_555
Ge2 Os0 2.590449 1_455
Ge2 Sc1 2.928140 1_555
Ge2 Sc3 2.928140 1_555
Ge2 Sc0 2.928140 1_555
Ge2 Sc2 2.928140 1_455
Ge3 Os6 2.500871 1_555
Ge3 Os5 2.590449 1_555
Ge3 Os2 2.590449 1_554
Ge3 Os3 2.590449 1_554
Ge3 Os1 2.590449 1_555
Ge3 Sc1 2.928140 1_555
Ge3 Sc3 2.928140 1_555
Ge3 Sc0 2.928140 1_554
Ge3 Sc2 2.928140 1_555
Ge4 Os6 2.500871 1_656
Ge4 Os5 2.590449 1_545
Ge4 Os0 2.590449 1_555
Ge4 Os4 2.590449 1_545
Ge4 Os2 2.590449 1_555
Ge4 Sc3 2.928140 1_545
Ge4 Sc0 2.928140 1_655
Ge4 Sc2 2.928140 1_556
Ge4 Sc1 2.928140 1_656
Ge5 Os6 2.500871 1_566
Ge5 Os1 2.590449 1_455
Ge5 Os3 2.590449 1_555
Ge5 Os4 2.590449 1_555
Ge5 Os0 2.590449 1_455
Ge5 Sc0 2.928140 1_565
Ge5 Sc1 2.928140 1_556
Ge5 Sc2 2.928140 1_566
Ge5 Sc3 2.928140 1_455
Os0 Sc3 2.892483 1_555
Os0 Sc0 2.892483 1_655
Os0 Sc1 2.892483 1_656
Os0 Sc2 2.892483 1_555
Os1 Sc3 2.892483 1_555
Os1 Sc2 2.892483 1_555
Os1 Sc1 2.892483 1_655
Os1 Sc0 2.892483 1_665
Os2 Sc3 2.892483 1_555
Os2 Sc2 2.892483 1_556
Os2 Sc1 2.892483 1_656
Os2 Sc0 2.892483 1_555
Os3 Sc3 2.892483 1_555
Os3 Sc1 2.892483 1_556
Os3 Sc2 2.892483 1_566
Os3 Sc0 2.892483 1_555
Os4 Sc1 2.892483 1_555
Os4 Sc3 2.892483 1_555
Os4 Sc0 2.892483 1_565
Os4 Sc2 2.892483 1_566
Os5 Sc1 2.892483 1_555
Os5 Sc3 2.892483 1_555
Os5 Sc2 2.892483 1_565
Os5 Sc0 2.892483 1_665
