# generated using pymatgen
data_K2FeH8(SO6)2
_symmetry_space_group_name_H-M   'P 1'
_cell_length_a   7.71849256
_cell_length_b   7.71849256
_cell_length_c   10.04182314
_cell_angle_alpha   86.10008911
_cell_angle_beta   86.10008911
_cell_angle_gamma   78.26215943
_symmetry_Int_Tables_number   1
_chemical_formula_structural   K2FeH8(SO6)2
_chemical_formula_sum   'K4 Fe2 H16 S4 O24'
_cell_volume   583.47700092
_cell_formula_units_Z   2
loop_
 _symmetry_equiv_pos_site_id
 _symmetry_equiv_pos_as_xyz
  1  'x, y, z'
loop_
 _atom_site_type_symbol
 _atom_site_label
 _atom_site_symmetry_multiplicity
 _atom_site_fract_x
 _atom_site_fract_y
 _atom_site_fract_z
 _atom_site_occupancy
  K  K0  1  0.90549300  0.43394200  0.75173500  1
  K  K1  1  0.42729600  0.90863000  0.75190600  1
  K  K2  1  0.09137000  0.57270400  0.24809400  1
  K  K3  1  0.56605800  0.09450700  0.24826500  1
  Fe  Fe0  1  0.99987900  0.00012100  0.00000000  1
  Fe  Fe1  1  0.49922100  0.50077900  0.50000000  1
  H  H0  1  0.77813400  0.33607300  0.03871400  1
  H  H1  1  0.33603600  0.77801900  0.03887800  1
  H  H2  1  0.22198100  0.66396400  0.96112200  1
  H  H3  1  0.66392700  0.22186600  0.96128600  1
  H  H4  1  0.94594200  0.95043300  0.27893900  1
  H  H5  1  0.04956700  0.05405800  0.72106100  1
  H  H6  1  0.71736300  0.44466500  0.26943600  1
  H  H7  1  0.44448200  0.71894700  0.26954300  1
  H  H8  1  0.28105300  0.55551800  0.73045700  1
  H  H9  1  0.55533500  0.28263700  0.73056400  1
  H  H10  1  0.07791800  0.08371500  0.26375500  1
  H  H11  1  0.91628500  0.92208200  0.73624500  1
  H  H12  1  0.81723200  0.33468400  0.38977600  1
  H  H13  1  0.33401600  0.81755200  0.39055200  1
  H  H14  1  0.18244800  0.66598400  0.60944800  1
  H  H15  1  0.66531600  0.18276800  0.61022400  1
  S  S0  1  0.70379800  0.70417400  0.04598000  1
  S  S1  1  0.29582600  0.29620200  0.95402000  1
  S  S2  1  0.20544800  0.21093000  0.47382000  1
  S  S3  1  0.78907000  0.79455200  0.52618000  1
  O  O0  1  0.78056700  0.21943300  0.00000000  1
  O  O1  1  0.21951100  0.78048900  0.00000000  1
  O  O2  1  0.66558800  0.66895300  0.56210400  1
  O  O3  1  0.33104700  0.33441200  0.43789600  1
  O  O4  1  0.77724000  0.52563900  0.11261100  1
  O  O5  1  0.52545700  0.77756000  0.11276700  1
  O  O6  1  0.22244000  0.47454300  0.88723300  1
  O  O7  1  0.47436100  0.22276000  0.88738900  1
  O  O8  1  0.17488200  0.17484400  0.92997500  1
  O  O9  1  0.82515600  0.82511800  0.07002500  1
  O  O10  1  0.68645800  0.68724700  0.90277700  1
  O  O11  1  0.31275300  0.31354200  0.09722300  1
  O  O12  1  0.69719400  0.37692300  0.35517000  1
  O  O13  1  0.37628000  0.69836900  0.35499500  1
  O  O14  1  0.30163100  0.62372000  0.64500500  1
  O  O15  1  0.62307700  0.30280600  0.64483000  1
  O  O16  1  0.01716200  0.01210700  0.21282500  1
  O  O17  1  0.98789300  0.98283800  0.78717500  1
  O  O18  1  0.17326100  0.19227300  0.62142900  1
  O  O19  1  0.80772700  0.82673900  0.37857100  1
  O  O20  1  0.03729100  0.28507400  0.40719400  1
  O  O21  1  0.28538200  0.03617800  0.41971000  1
  O  O22  1  0.96382200  0.71461800  0.58029000  1
  O  O23  1  0.71492600  0.96270900  0.59280600  1
loop_
_geom_bond_atom_site_label_1
_geom_bond_atom_site_label_2
_geom_bond_distance
_geom_bond_site_symmetry_2
K0 O22 2.764777 1_555
K0 O10 2.773256 1_555
K0 O18 2.803343 1_655
K0 O15 2.879653 1_555
K0 O6 2.959208 1_655
K0 O2 2.998076 1_555
K0 O0 3.106019 1_556
K0 O8 3.139083 1_655
K1 O23 2.731169 1_555
K1 O10 2.808174 1_555
K1 O14 2.873966 1_555
K1 O18 2.926949 1_565
K1 O7 2.955665 1_565
K1 O2 3.009357 1_555
K1 O1 3.086053 1_556
K1 O8 3.100378 1_565
K2 O20 2.731169 1_555
K2 O11 2.808174 1_555
K2 O13 2.873966 1_555
K2 O19 2.926949 1_455
K2 O4 2.955665 1_455
K2 O3 3.009357 1_555
K2 O1 3.086053 1_555
K2 O9 3.100378 1_455
K3 O21 2.764777 1_555
K3 O11 2.773256 1_555
K3 O19 2.803343 1_545
K3 O12 2.879653 1_555
K3 O5 2.959208 1_545
K3 O3 2.998076 1_555
K3 O0 3.106019 1_555
K3 O9 3.139083 1_545
Fe0 O0 2.136588 1_555
Fe0 O1 2.139705 1_645
Fe0 O8 2.149580 1_654
Fe0 O9 2.149580 1_545
Fe0 O16 2.159737 1_655
Fe0 O17 2.159737 1_544
Fe1 O3 2.149419 1_555
Fe1 O2 2.149419 1_555
Fe1 O14 2.154924 1_555
Fe1 O13 2.154924 1_555
Fe1 O12 2.157888 1_555
Fe1 O15 2.157888 1_555
H0 O0 1.000868 1_555
H0 O4 1.683579 1_555
H0 K0 3.076093 1_554
H1 O1 1.000735 1_555
H1 O5 1.683217 1_555
H2 O1 1.000735 1_556
H2 O6 1.683217 1_555
H3 O0 1.000868 1_556
H3 O7 1.683579 1_555
H3 K3 3.076093 1_556
H4 O16 0.991661 1_665
H4 K2 2.932588 1_655
H4 K3 2.945931 1_565
H5 O17 0.991661 1_445
H5 K1 2.932588 1_545
H5 K0 2.945931 1_455
H6 O12 0.996228 1_555
H6 O4 1.723042 1_555
H7 O13 0.996344 1_555
H7 O5 1.719910 1_555
H8 O14 0.996344 1_555
H8 O6 1.719910 1_555
H9 O15 0.996228 1_555
H9 O7 1.723042 1_555
H10 O16 0.981572 1_555
H11 O17 0.981572 1_555
H12 O12 0.995471 1_555
H12 O20 1.681927 1_655
H13 O13 0.993421 1_555
H13 O21 1.693725 1_565
H14 O14 0.993421 1_555
H14 O22 1.693725 1_455
H15 O15 0.995471 1_555
H15 O23 1.681927 1_545
O2 S3 1.503303 1_555
O3 S2 1.503303 1_555
O4 S0 1.508745 1_555
O5 S0 1.508081 1_555
O6 S1 1.508081 1_555
O7 S1 1.508745 1_555
O8 S1 1.491422 1_555
O9 S0 1.491422 1_555
O10 S0 1.470283 1_556
O11 S1 1.470283 1_554
O18 S2 1.488285 1_555
O19 S3 1.488285 1_555
O20 S2 1.491157 1_555
O21 S2 1.486849 1_555
O22 S3 1.486849 1_555
O23 S3 1.491157 1_555
