# generated using pymatgen
data_Mg8(MnN3)3
_symmetry_space_group_name_H-M   'P 1'
_cell_length_a   4.40229100
_cell_length_b   7.01135086
_cell_length_c   14.95812119
_cell_angle_alpha   97.23358859
_cell_angle_beta   90.00000000
_cell_angle_gamma   90.00000000
_symmetry_Int_Tables_number   1
_chemical_formula_structural   Mg8(MnN3)3
_chemical_formula_sum   'Mg16 Mn6 N18'
_cell_volume   458.02284624
_cell_formula_units_Z   2
loop_
 _symmetry_equiv_pos_site_id
 _symmetry_equiv_pos_as_xyz
  1  'x, y, z'
loop_
 _atom_site_type_symbol
 _atom_site_label
 _atom_site_symmetry_multiplicity
 _atom_site_fract_x
 _atom_site_fract_y
 _atom_site_fract_z
 _atom_site_occupancy
  Mg  Mg0  1  0.74982900  0.49325900  0.92180800  1
  Mg  Mg1  1  0.74982900  0.00674100  0.57819200  1
  Mg  Mg2  1  0.25017100  0.50674100  0.07819200  1
  Mg  Mg3  1  0.25017100  0.99325900  0.42180800  1
  Mg  Mg4  1  0.75416200  0.04965300  0.28558500  1
  Mg  Mg5  1  0.75416200  0.45034700  0.21441500  1
  Mg  Mg6  1  0.24583800  0.95034700  0.71441500  1
  Mg  Mg7  1  0.24583800  0.54965300  0.78558500  1
  Mg  Mg8  1  0.75579400  0.80763300  0.10335100  1
  Mg  Mg9  1  0.75579400  0.69236700  0.39664900  1
  Mg  Mg10  1  0.24420600  0.19236700  0.89664900  1
  Mg  Mg11  1  0.24420600  0.30763300  0.60335100  1
  Mg  Mg12  1  0.25101200  0.11110200  0.15313500  1
  Mg  Mg13  1  0.25101200  0.38889800  0.34686500  1
  Mg  Mg14  1  0.74898800  0.88889800  0.84686500  1
  Mg  Mg15  1  0.74898800  0.61110200  0.65313500  1
  Mn  Mn0  1  0.31380600  0.75000000  0.25000000  1
  Mn  Mn1  1  0.68619400  0.25000000  0.75000000  1
  Mn  Mn2  1  0.74752500  0.26080200  0.45626400  1
  Mn  Mn3  1  0.74752500  0.23919800  0.04373600  1
  Mn  Mn4  1  0.25247500  0.73919800  0.54373600  1
  Mn  Mn5  1  0.25247500  0.76080200  0.95626400  1
  N  N0  1  0.75070100  0.01161600  0.43057600  1
  N  N1  1  0.75070100  0.48838400  0.06942400  1
  N  N2  1  0.24929900  0.98838400  0.56942400  1
  N  N3  1  0.24929900  0.51161600  0.93057600  1
  N  N4  1  0.72565600  0.75000000  0.25000000  1
  N  N5  1  0.27434400  0.25000000  0.75000000  1
  N  N6  1  0.25411000  0.82644600  0.07368900  1
  N  N7  1  0.25411000  0.67355400  0.42631100  1
  N  N8  1  0.74589000  0.17355400  0.92631100  1
  N  N9  1  0.74589000  0.32644600  0.57368900  1
  N  N10  1  0.24436100  0.02289200  0.28240100  1
  N  N11  1  0.24436100  0.47710800  0.21759900  1
  N  N12  1  0.75563900  0.97710800  0.71759900  1
  N  N13  1  0.75563900  0.52289200  0.78240100  1
  N  N14  1  0.75180400  0.37643400  0.35831900  1
  N  N15  1  0.75180400  0.12356600  0.14168100  1
  N  N16  1  0.24819600  0.62356600  0.64168100  1
  N  N17  1  0.24819600  0.87643400  0.85831900  1
loop_
_geom_bond_atom_site_label_1
_geom_bond_atom_site_label_2
_geom_bond_distance
_geom_bond_site_symmetry_2
Mg0 N13 2.121618 1_555
Mg0 N3 2.205514 1_655
Mg0 N3 2.210166 1_555
Mg0 N1 2.212625 1_556
Mg0 N8 2.251104 1_555
Mg1 N12 2.121618 1_545
Mg1 N2 2.205514 1_645
Mg1 N2 2.210166 1_545
Mg1 N0 2.212625 1_555
Mg1 N9 2.251104 1_555
Mg2 N11 2.121618 1_555
Mg2 N1 2.205514 1_455
Mg2 N1 2.210166 1_555
Mg2 N3 2.212625 1_554
Mg2 N6 2.251104 1_555
Mg3 N10 2.121618 1_565
Mg3 N0 2.205514 1_465
Mg3 N0 2.210166 1_565
Mg3 N2 2.212625 1_555
Mg3 N7 2.251104 1_555
Mg4 N4 2.105121 1_545
Mg4 N10 2.166144 1_655
Mg4 N0 2.218260 1_555
Mg4 N10 2.252126 1_555
Mg4 N15 2.276618 1_555
Mg4 N14 2.409465 1_555
Mg5 N4 2.105121 1_555
Mg5 N11 2.166144 1_655
Mg5 N1 2.218260 1_555
Mg5 N11 2.252126 1_555
Mg5 N14 2.276618 1_555
Mg5 N15 2.409465 1_555
Mg6 N5 2.105121 1_565
Mg6 N12 2.166144 1_455
Mg6 N2 2.218260 1_555
Mg6 N12 2.252126 1_555
Mg6 N17 2.276618 1_555
Mg6 N16 2.409465 1_555
Mg7 N5 2.105121 1_555
Mg7 N13 2.166144 1_455
Mg7 N3 2.218260 1_555
Mg7 N13 2.252126 1_555
Mg7 N16 2.276618 1_555
Mg7 N17 2.409465 1_555
Mg8 N15 2.217193 1_565
Mg8 N1 2.232099 1_555
Mg8 N6 2.245319 1_655
Mg8 N6 2.259807 1_555
Mg8 N4 2.283848 1_555
Mg9 N14 2.217193 1_555
Mg9 N0 2.232099 1_565
Mg9 N7 2.245319 1_655
Mg9 N7 2.259807 1_555
Mg9 N4 2.283848 1_555
Mg10 N17 2.217193 1_545
Mg10 N3 2.232099 1_555
Mg10 N8 2.245319 1_455
Mg10 N8 2.259807 1_555
Mg10 N5 2.283848 1_555
Mg11 N16 2.217193 1_555
Mg11 N2 2.232099 1_545
Mg11 N9 2.245319 1_455
Mg11 N9 2.259807 1_555
Mg11 N5 2.283848 1_555
Mg12 N10 2.103149 1_555
Mg12 N6 2.190530 1_545
Mg12 N15 2.206913 1_455
Mg12 N15 2.213857 1_555
Mg12 N11 2.625428 1_555
Mg13 N11 2.103149 1_555
Mg13 N7 2.190530 1_555
Mg13 N14 2.206913 1_455
Mg13 N14 2.213857 1_555
Mg13 N10 2.625428 1_555
Mg14 N12 2.103149 1_555
Mg14 N8 2.190530 1_565
Mg14 N17 2.206913 1_655
Mg14 N17 2.213857 1_555
Mg14 N13 2.625428 1_555
Mg15 N13 2.103149 1_555
Mg15 N9 2.190530 1_555
Mg15 N16 2.206913 1_655
Mg15 N16 2.213857 1_555
Mg15 N12 2.625428 1_555
Mn0 N4 1.813084 1_555
Mn0 N10 1.937965 1_565
Mn0 N11 1.937965 1_555
Mn0 N4 2.589207 1_455
Mn1 N5 1.813084 1_555
Mn1 N13 1.937965 1_555
Mn1 N12 1.937965 1_545
Mn1 N5 2.589207 1_655
Mn2 N0 1.741047 1_555
Mn2 N9 1.758819 1_555
Mn2 N14 1.761593 1_555
Mn3 N1 1.741047 1_555
Mn3 N8 1.758819 1_554
Mn3 N15 1.761593 1_555
Mn4 N2 1.741047 1_555
Mn4 N7 1.758819 1_555
Mn4 N16 1.761593 1_555
Mn5 N3 1.741047 1_555
Mn5 N6 1.758819 1_556
Mn5 N17 1.761593 1_555
