# generated using pymatgen
data_NbNi2
_symmetry_space_group_name_H-M   'P 1'
_cell_length_a   4.79568608
_cell_length_b   4.79568608
_cell_length_c   15.66635400
_cell_angle_alpha   90.00000000
_cell_angle_beta   90.00000000
_cell_angle_gamma   120.00000114
_symmetry_Int_Tables_number   1
_chemical_formula_structural   NbNi2
_chemical_formula_sum   'Nb8 Ni16'
_cell_volume   312.03266247
_cell_formula_units_Z   8
loop_
 _symmetry_equiv_pos_site_id
 _symmetry_equiv_pos_as_xyz
  1  'x, y, z'
loop_
 _atom_site_type_symbol
 _atom_site_label
 _atom_site_symmetry_multiplicity
 _atom_site_fract_x
 _atom_site_fract_y
 _atom_site_fract_z
 _atom_site_occupancy
  Nb  Nb0  1  0.00000000  0.00000000  0.40247200  1
  Nb  Nb1  1  0.00000000  0.00000000  0.59752800  1
  Nb  Nb2  1  0.00000000  0.00000000  0.90247200  1
  Nb  Nb3  1  0.00000000  0.00000000  0.09752800  1
  Nb  Nb4  1  0.33333300  0.66666700  0.65406900  1
  Nb  Nb5  1  0.66666700  0.33333300  0.34593100  1
  Nb  Nb6  1  0.66666700  0.33333300  0.15406900  1
  Nb  Nb7  1  0.33333300  0.66666700  0.84593100  1
  Ni  Ni0  1  0.33333300  0.66666700  0.37590700  1
  Ni  Ni1  1  0.66666700  0.33333300  0.62409300  1
  Ni  Ni2  1  0.66666700  0.33333300  0.87590700  1
  Ni  Ni3  1  0.33333300  0.66666700  0.12409300  1
  Ni  Ni4  1  0.50000000  0.50000000  0.50000000  1
  Ni  Ni5  1  0.50000000  0.00000000  0.50000000  1
  Ni  Ni6  1  0.00000000  0.50000000  0.50000000  1
  Ni  Ni7  1  0.50000000  0.50000000  0.00000000  1
  Ni  Ni8  1  0.50000000  0.00000000  0.00000000  1
  Ni  Ni9  1  0.00000000  0.50000000  0.00000000  1
  Ni  Ni10  1  0.16441200  0.83558800  0.25000000  1
  Ni  Ni11  1  0.16441200  0.32882400  0.25000000  1
  Ni  Ni12  1  0.67117600  0.83558800  0.25000000  1
  Ni  Ni13  1  0.83558800  0.16441200  0.75000000  1
  Ni  Ni14  1  0.83558800  0.67117600  0.75000000  1
  Ni  Ni15  1  0.32882400  0.16441200  0.75000000  1
loop_
_geom_bond_atom_site_label_1
_geom_bond_atom_site_label_2
_geom_bond_distance
_geom_bond_site_symmetry_2
Nb0 Ni11 2.751516 1_555
Nb0 Ni12 2.751516 1_445
Nb0 Ni10 2.751516 1_545
Nb0 Ni0 2.799891 1_545
Nb0 Ni0 2.799895 1_445
Nb0 Ni0 2.799895 1_555
Nb0 Ni4 2.843265 1_555
Nb0 Ni4 2.843265 1_445
Nb0 Ni6 2.843265 1_555
Nb0 Ni5 2.843265 1_455
Nb0 Ni5 2.843265 1_555
Nb0 Ni6 2.843265 1_545
Nb0 Nb5 2.907028 1_455
Nb0 Nb5 2.907032 1_445
Nb0 Nb5 2.907032 1_555
Nb0 Nb1 3.055816 1_555
Nb1 Ni14 2.751516 1_445
Nb1 Ni15 2.751516 1_555
Nb1 Ni13 2.751516 1_455
Nb1 Ni1 2.799891 1_455
Nb1 Ni1 2.799895 1_445
Nb1 Ni1 2.799895 1_555
Nb1 Ni4 2.843265 1_445
Nb1 Ni4 2.843265 1_555
Nb1 Ni5 2.843265 1_555
Nb1 Ni6 2.843265 1_555
Nb1 Ni6 2.843265 1_545
Nb1 Ni5 2.843265 1_455
Nb1 Nb4 2.907028 1_545
Nb1 Nb4 2.907032 1_555
Nb1 Nb4 2.907032 1_445
Nb2 Ni14 2.751516 1_445
Nb2 Ni15 2.751516 1_555
Nb2 Ni13 2.751516 1_455
Nb2 Ni2 2.799891 1_455
Nb2 Ni2 2.799895 1_445
Nb2 Ni2 2.799895 1_555
Nb2 Ni7 2.843265 1_446
Nb2 Ni7 2.843265 1_556
Nb2 Ni8 2.843265 1_556
Nb2 Ni8 2.843265 1_456
Nb2 Ni9 2.843265 1_546
Nb2 Ni9 2.843265 1_556
Nb2 Nb7 2.907028 1_545
Nb2 Nb7 2.907032 1_445
Nb2 Nb7 2.907032 1_555
Nb2 Nb3 3.055816 1_556
Nb3 Ni11 2.751516 1_555
Nb3 Ni12 2.751516 1_445
Nb3 Ni10 2.751516 1_545
Nb3 Ni3 2.799891 1_545
Nb3 Ni3 2.799895 1_445
Nb3 Ni3 2.799895 1_555
Nb3 Ni7 2.843265 1_555
Nb3 Ni7 2.843265 1_445
Nb3 Ni9 2.843265 1_545
Nb3 Ni8 2.843265 1_455
Nb3 Ni8 2.843265 1_555
Nb3 Ni9 2.843265 1_555
Nb3 Nb6 2.907028 1_455
Nb3 Nb6 2.907032 1_555
Nb3 Nb6 2.907032 1_445
Nb4 Ni5 2.782533 1_565
Nb4 Ni6 2.782533 1_555
Nb4 Ni4 2.782535 1_555
Nb4 Ni1 2.808331 1_455
Nb4 Ni1 2.808331 1_565
Nb4 Ni1 2.808339 1_555
Nb4 Ni15 2.829959 1_565
Nb4 Ni14 2.829959 1_455
Nb4 Ni13 2.829961 1_565
Nb4 Ni13 2.829961 1_455
Nb4 Ni14 2.829963 1_555
Nb4 Ni15 2.829963 1_555
Nb4 Nb7 3.005778 1_555
Nb5 Ni5 2.782533 1_555
Nb5 Ni6 2.782533 1_655
Nb5 Ni4 2.782535 1_555
Nb5 Ni0 2.808331 1_545
Nb5 Ni0 2.808331 1_655
Nb5 Ni0 2.808339 1_555
Nb5 Ni12 2.829959 1_545
Nb5 Ni11 2.829959 1_655
Nb5 Ni10 2.829961 1_545
Nb5 Ni10 2.829961 1_655
Nb5 Ni11 2.829963 1_555
Nb5 Ni12 2.829963 1_555
Nb5 Nb6 3.005778 1_555
Nb6 Ni9 2.782533 1_655
Nb6 Ni8 2.782533 1_555
Nb6 Ni7 2.782535 1_555
Nb6 Ni3 2.808331 1_545
Nb6 Ni3 2.808331 1_655
Nb6 Ni3 2.808339 1_555
Nb6 Ni12 2.829959 1_545
Nb6 Ni11 2.829959 1_655
Nb6 Ni10 2.829961 1_545
Nb6 Ni10 2.829961 1_655
Nb6 Ni11 2.829963 1_555
Nb6 Ni12 2.829963 1_555
Nb7 Ni9 2.782533 1_556
Nb7 Ni8 2.782533 1_566
Nb7 Ni7 2.782535 1_556
Nb7 Ni2 2.808331 1_455
Nb7 Ni2 2.808331 1_565
Nb7 Ni2 2.808339 1_555
Nb7 Ni15 2.829959 1_565
Nb7 Ni14 2.829959 1_455
Nb7 Ni13 2.829961 1_565
Nb7 Ni13 2.829961 1_455
Nb7 Ni14 2.829963 1_555
Nb7 Ni15 2.829963 1_555
Ni0 Ni5 2.386632 1_565
Ni0 Ni6 2.386632 1_555
Ni0 Ni4 2.386634 1_555
Ni0 Ni10 2.420644 1_555
Ni0 Ni11 2.420647 1_555
Ni0 Ni12 2.420647 1_555
Ni1 Ni5 2.386632 1_555
Ni1 Ni6 2.386632 1_655
Ni1 Ni4 2.386634 1_555
Ni1 Ni13 2.420644 1_555
Ni1 Ni15 2.420647 1_555
Ni1 Ni14 2.420647 1_555
Ni2 Ni8 2.386632 1_556
Ni2 Ni9 2.386632 1_656
Ni2 Ni7 2.386634 1_556
Ni3 Ni8 2.386632 1_565
Ni3 Ni9 2.386632 1_555
Ni3 Ni7 2.386634 1_555
Ni4 Ni6 2.397843 1_655
Ni4 Ni5 2.397843 1_555
Ni4 Ni6 2.397843 1_555
Ni4 Ni5 2.397843 1_565
Ni5 Ni6 2.397843 1_545
Ni5 Ni6 2.397843 1_655
Ni7 Ni8 2.397843 1_555
Ni7 Ni9 2.397843 1_555
Ni7 Ni9 2.397843 1_655
Ni7 Ni8 2.397843 1_565
Ni8 Ni9 2.397843 1_545
Ni8 Ni9 2.397843 1_655
Ni10 Ni11 2.365405 1_565
Ni10 Ni12 2.365405 1_455
Ni10 Ni3 2.420644 1_555
Ni10 Ni11 2.430281 1_555
Ni10 Ni12 2.430281 1_555
Ni11 Ni12 2.365405 1_445
Ni11 Ni3 2.420647 1_555
Ni11 Ni12 2.430281 1_555
Ni12 Ni3 2.420647 1_555
Ni13 Ni14 2.365405 1_545
Ni13 Ni15 2.365405 1_655
Ni13 Ni2 2.420644 1_555
Ni13 Ni15 2.430281 1_555
Ni13 Ni14 2.430281 1_555
Ni14 Ni15 2.365405 1_665
Ni14 Ni2 2.420647 1_555
Ni14 Ni15 2.430281 1_555
Ni15 Ni2 2.420647 1_555
