# generated using pymatgen
data_UMnCo
_symmetry_space_group_name_H-M   'P 1'
_cell_length_a   4.94592179
_cell_length_b   4.94592179
_cell_length_c   4.94592179
_cell_angle_alpha   90.14974460
_cell_angle_beta   60.20318475
_cell_angle_gamma   120.37702119
_symmetry_Int_Tables_number   1
_chemical_formula_structural   UMnCo
_chemical_formula_sum   'U2 Mn2 Co2'
_cell_volume   85.43586633
_cell_formula_units_Z   2
loop_
 _symmetry_equiv_pos_site_id
 _symmetry_equiv_pos_as_xyz
  1  'x, y, z'
loop_
 _atom_site_type_symbol
 _atom_site_label
 _atom_site_symmetry_multiplicity
 _atom_site_fract_x
 _atom_site_fract_y
 _atom_site_fract_z
 _atom_site_occupancy
  U  U0  1  0.50000000  0.75155400  0.74844600  1
  U  U1  1  0.00000000  0.99844600  0.00155400  1
  Mn  Mn0  1  0.25000000  0.87500000  0.37500000  1
  Mn  Mn1  1  0.75000000  0.37500000  0.37500000  1
  Co  Co0  1  0.75000000  0.37500000  0.87500000  1
  Co  Co1  1  0.25000000  0.37500000  0.37500000  1
loop_
_geom_bond_atom_site_label_1
_geom_bond_atom_site_label_2
_geom_bond_distance
_geom_bond_site_symmetry_2
U0 U1 3.023763 1_556
U0 U1 3.023763 1_655
U0 U1 3.031242 1_656
U0 U1 3.031242 1_546
Mn0 Mn1 2.458855 1_565
Mn0 Mn1 2.458855 1_455
Mn0 U0 2.890052 1_555
Mn0 U1 2.890052 1_555
Mn0 U1 2.906930 1_556
Mn0 U0 2.906930 1_455
Mn0 U1 2.906930 1_655
Mn0 U0 2.906930 1_554
Mn1 U1 2.890052 1_655
Mn1 U0 2.890052 1_545
Mn1 U0 2.906930 1_555
Mn1 U1 2.906930 1_546
Mn1 U0 2.906930 1_654
Mn1 U1 2.906930 1_645
Co0 Mn1 2.472961 1_555
Co0 Mn0 2.472961 1_546
Co0 Mn0 2.472961 1_655
Co0 Mn1 2.472961 1_556
Co0 Co1 2.480552 1_655
Co0 Co1 2.480552 1_556
Co0 U1 2.886478 1_656
Co0 U0 2.886478 1_655
Co0 U1 2.886478 1_546
Co0 U0 2.886478 1_545
Co0 U0 2.914366 1_555
Co0 U1 2.914366 1_646
Co1 Mn1 2.472961 1_555
Co1 Mn0 2.472961 1_545
Co1 Mn0 2.472961 1_555
Co1 Mn1 2.472961 1_455
Co1 U0 2.886478 1_555
Co1 U1 2.886478 1_655
Co1 U0 2.886478 1_445
Co1 U1 2.886478 1_545
Co1 U1 2.914366 1_546
Co1 U0 2.914366 1_554
