# generated using pymatgen
data_MgTl2H12(SeO7)2
_symmetry_space_group_name_H-M   'P 1'
_cell_length_a   12.91012500
_cell_length_b   6.47587900
_cell_length_c   9.54437514
_cell_angle_alpha   74.17320143
_cell_angle_beta   90.00000000
_cell_angle_gamma   90.00000000
_symmetry_Int_Tables_number   1
_chemical_formula_structural   MgTl2H12(SeO7)2
_chemical_formula_sum   'Mg2 Tl4 H24 Se4 O28'
_cell_volume   767.70190175
_cell_formula_units_Z   2
loop_
 _symmetry_equiv_pos_site_id
 _symmetry_equiv_pos_as_xyz
  1  'x, y, z'
loop_
 _atom_site_type_symbol
 _atom_site_label
 _atom_site_symmetry_multiplicity
 _atom_site_fract_x
 _atom_site_fract_y
 _atom_site_fract_z
 _atom_site_occupancy
  Mg  Mg0  1  0.50000000  0.00000000  0.50000000  1
  Mg  Mg1  1  0.00000000  0.00000000  0.00000000  1
  Tl  Tl0  1  0.14196300  0.64653700  0.62035900  1
  Tl  Tl1  1  0.64196300  0.35346300  0.87964100  1
  Tl  Tl2  1  0.85803700  0.35346300  0.37964100  1
  Tl  Tl3  1  0.35803700  0.64653700  0.12035900  1
  H  H0  1  0.41180300  0.68003800  0.70913600  1
  H  H1  1  0.91180300  0.31996200  0.79086400  1
  H  H2  1  0.58819700  0.31996200  0.29086400  1
  H  H3  1  0.08819700  0.68003800  0.20913600  1
  H  H4  1  0.37452700  0.90157100  0.73721700  1
  H  H5  1  0.87452700  0.09842900  0.76278300  1
  H  H6  1  0.62547300  0.09842900  0.26278300  1
  H  H7  1  0.12547300  0.90157100  0.23721700  1
  H  H8  1  0.40314200  0.06489500  0.23781300  1
  H  H9  1  0.90314200  0.93510500  0.26218700  1
  H  H10  1  0.59685800  0.93510500  0.76218700  1
  H  H11  1  0.09685800  0.06489500  0.73781300  1
  H  H12  1  0.31751200  0.99743600  0.36030900  1
  H  H13  1  0.81751200  0.00256400  0.13969100  1
  H  H14  1  0.68248800  0.00256400  0.63969100  1
  H  H15  1  0.18248800  0.99743600  0.86030900  1
  H  H16  1  0.55877500  0.66934100  0.40098400  1
  H  H17  1  0.05877500  0.33065900  0.09901600  1
  H  H18  1  0.44122500  0.33065900  0.59901600  1
  H  H19  1  0.94122500  0.66934100  0.90098400  1
  H  H20  1  0.63861100  0.67518300  0.52537500  1
  H  H21  1  0.13861100  0.32481700  0.97462500  1
  H  H22  1  0.36138900  0.32481700  0.47462500  1
  H  H23  1  0.86138900  0.67518300  0.02537500  1
  Se  Se0  1  0.35891400  0.26140800  0.90566600  1
  Se  Se1  1  0.85891400  0.73859200  0.59433400  1
  Se  Se2  1  0.64108600  0.73859200  0.09433400  1
  Se  Se3  1  0.14108600  0.26140800  0.40566600  1
  O  O0  1  0.25747100  0.42159900  0.91036800  1
  O  O1  1  0.75747100  0.57840100  0.58963200  1
  O  O2  1  0.74252900  0.57840100  0.08963200  1
  O  O3  1  0.24252900  0.42159900  0.41036800  1
  O  O4  1  0.42661400  0.21732100  0.06087000  1
  O  O5  1  0.92661400  0.78267900  0.43913000  1
  O  O6  1  0.57338600  0.78267900  0.93913000  1
  O  O7  1  0.07338600  0.21732100  0.56087000  1
  O  O8  1  0.43829500  0.39337400  0.77002800  1
  O  O9  1  0.93829500  0.60662600  0.72997200  1
  O  O10  1  0.56170500  0.60662600  0.22997200  1
  O  O11  1  0.06170500  0.39337400  0.27002800  1
  O  O12  1  0.31847000  0.02884700  0.87726600  1
  O  O13  1  0.81847000  0.97115300  0.62273400  1
  O  O14  1  0.68153000  0.97115300  0.12273400  1
  O  O15  1  0.18153000  0.02884700  0.37726600  1
  O  O16  1  0.39621500  0.83282600  0.66139100  1
  O  O17  1  0.89621500  0.16717400  0.83860900  1
  O  O18  1  0.60378500  0.16717400  0.33860900  1
  O  O19  1  0.10378500  0.83282600  0.16139100  1
  O  O20  1  0.39190300  0.97738300  0.33966300  1
  O  O21  1  0.89190300  0.02261700  0.16033700  1
  O  O22  1  0.60809700  0.02261700  0.66033700  1
  O  O23  1  0.10809700  0.97738300  0.83966300  1
  O  O24  1  0.56675100  0.71582000  0.49085700  1
  O  O25  1  0.06675100  0.28418000  0.00914300  1
  O  O26  1  0.43324900  0.28418000  0.50914300  1
  O  O27  1  0.93324900  0.71582000  0.99085700  1
loop_
_geom_bond_atom_site_label_1
_geom_bond_atom_site_label_2
_geom_bond_distance
_geom_bond_site_symmetry_2
Mg0 O24 2.055386 1_545
Mg0 O26 2.055386 1_555
Mg0 O16 2.104860 1_545
Mg0 O18 2.104860 1_555
Mg0 O22 2.105499 1_555
Mg0 O20 2.105499 1_545
Mg1 O25 2.055386 1_555
Mg1 O27 2.055386 1_444
Mg1 O19 2.104860 1_545
Mg1 O17 2.104860 1_454
Mg1 O21 2.105499 1_455
Mg1 O23 2.105499 1_544
H0 O16 0.990557 1_555
H1 O17 0.990557 1_555
H2 O18 0.990557 1_555
H3 O19 0.990557 1_555
H4 O16 0.987970 1_555
H5 O17 0.987970 1_555
H6 O18 0.987970 1_555
H7 O19 0.987970 1_555
H8 O20 0.993325 1_545
H8 O4 1.734638 1_555
H9 O21 0.993325 1_565
H9 O5 1.734638 1_555
H10 O22 0.993325 1_565
H10 O6 1.734638 1_555
H11 O23 0.993325 1_545
H11 O7 1.734638 1_555
H12 O20 0.995999 1_555
H13 O21 0.995999 1_555
H14 O22 0.995999 1_555
H15 O23 0.995999 1_555
H16 O24 0.988847 1_555
H17 O25 0.988847 1_555
H18 O26 0.988847 1_555
H19 O27 0.988847 1_555
H20 O24 0.995575 1_555
H20 O1 1.707033 1_555
H21 O25 0.995575 1_556
H21 O0 1.707033 1_555
H22 O26 0.995575 1_555
H22 O3 1.707033 1_555
H23 O27 0.995575 1_554
H23 O2 1.707033 1_555
O0 Se0 1.678905 1_555
O1 Se1 1.678905 1_555
O2 Se2 1.678905 1_555
O3 Se3 1.678905 1_555
O4 Se0 1.676023 1_554
O5 Se1 1.676023 1_555
O6 Se2 1.676023 1_556
O7 Se3 1.676023 1_555
O8 Se0 1.689100 1_555
O8 Tl1 2.815574 1_555
O9 Se1 1.689100 1_555
O9 Tl0 2.815574 1_655
O10 Se2 1.689100 1_555
O10 Tl3 2.815574 1_555
O11 Se3 1.689100 1_555
O11 Tl2 2.815574 1_455
O12 Se0 1.684316 1_555
O13 Se1 1.684316 1_555
O14 Se2 1.684316 1_555
O15 Se3 1.684316 1_555
