# generated using pymatgen
data_InAu(I4N)2
_symmetry_space_group_name_H-M   'P 1'
_cell_length_a   8.10862700
_cell_length_b   12.88062600
_cell_length_c   19.89954400
_cell_angle_alpha   90.00000000
_cell_angle_beta   90.00000000
_cell_angle_gamma   90.00000000
_symmetry_Int_Tables_number   1
_chemical_formula_structural   InAu(I4N)2
_chemical_formula_sum   'In4 Au4 I32 N8'
_cell_volume   2078.39178948
_cell_formula_units_Z   4
loop_
 _symmetry_equiv_pos_site_id
 _symmetry_equiv_pos_as_xyz
  1  'x, y, z'
loop_
 _atom_site_type_symbol
 _atom_site_label
 _atom_site_symmetry_multiplicity
 _atom_site_fract_x
 _atom_site_fract_y
 _atom_site_fract_z
 _atom_site_occupancy
  In  In0  1  0.61802900  0.82384600  0.25000000  1
  In  In1  1  0.88197100  0.32384600  0.25000000  1
  In  In2  1  0.38197100  0.17615400  0.75000000  1
  In  In3  1  0.11802900  0.67615400  0.75000000  1
  Au  Au0  1  0.50000000  0.50000000  0.00000000  1
  Au  Au1  1  0.00000000  0.00000000  0.50000000  1
  Au  Au2  1  0.50000000  0.50000000  0.50000000  1
  Au  Au3  1  0.00000000  0.00000000  0.00000000  1
  I  I0  1  0.76649200  0.59296400  0.94670900  1
  I  I1  1  0.73350800  0.09296400  0.55329100  1
  I  I2  1  0.23350800  0.40703600  0.44670900  1
  I  I3  1  0.26649200  0.90703600  0.05329100  1
  I  I4  1  0.23350800  0.40703600  0.05329100  1
  I  I5  1  0.26649200  0.90703600  0.44670900  1
  I  I6  1  0.76649200  0.59296400  0.55329100  1
  I  I7  1  0.73350800  0.09296400  0.94670900  1
  I  I8  1  0.76737100  0.39846700  0.04748600  1
  I  I9  1  0.73262900  0.89846700  0.45251400  1
  I  I10  1  0.23262900  0.60153300  0.54748600  1
  I  I11  1  0.26737100  0.10153300  0.95251400  1
  I  I12  1  0.23262900  0.60153300  0.95251400  1
  I  I13  1  0.26737100  0.10153300  0.54748600  1
  I  I14  1  0.76737100  0.39846700  0.45251400  1
  I  I15  1  0.73262900  0.89846700  0.04748600  1
  I  I16  1  0.95347700  0.83208300  0.25000000  1
  I  I17  1  0.54652300  0.33208300  0.25000000  1
  I  I18  1  0.04652300  0.16791700  0.75000000  1
  I  I19  1  0.45347700  0.66791700  0.75000000  1
  I  I20  1  0.45564900  0.00763600  0.25000000  1
  I  I21  1  0.04435100  0.50763600  0.25000000  1
  I  I22  1  0.54435100  0.99236400  0.75000000  1
  I  I23  1  0.95564900  0.49236400  0.75000000  1
  I  I24  1  0.50563500  0.71394600  0.13591200  1
  I  I25  1  0.99436500  0.21394600  0.36408800  1
  I  I26  1  0.49436500  0.28605400  0.63591200  1
  I  I27  1  0.00563500  0.78605400  0.86408800  1
  I  I28  1  0.49436500  0.28605400  0.86408800  1
  I  I29  1  0.00563500  0.78605400  0.63591200  1
  I  I30  1  0.50563500  0.71394600  0.36408800  1
  I  I31  1  0.99436500  0.21394600  0.13591200  1
  N  N0  1  0.48828300  0.84383200  0.89561300  1
  N  N1  1  0.01171700  0.34383200  0.60438700  1
  N  N2  1  0.51171700  0.15616800  0.39561300  1
  N  N3  1  0.98828300  0.65616800  0.10438700  1
  N  N4  1  0.51171700  0.15616800  0.10438700  1
  N  N5  1  0.98828300  0.65616800  0.39561300  1
  N  N6  1  0.48828300  0.84383200  0.60438700  1
  N  N7  1  0.01171700  0.34383200  0.89561300  1
loop_
_geom_bond_atom_site_label_1
_geom_bond_atom_site_label_2
_geom_bond_distance
_geom_bond_site_symmetry_2
Au0 I0 2.688468 1_554
Au0 I4 2.688468 1_555
Au0 I8 2.702511 1_555
Au0 I12 2.702511 1_554
Au1 I1 2.688468 1_455
Au1 I5 2.688468 1_545
Au1 I9 2.702511 1_445
Au1 I13 2.702511 1_555
Au2 I2 2.688468 1_555
Au2 I6 2.688468 1_555
Au2 I14 2.702511 1_555
Au2 I10 2.702511 1_555
Au3 I7 2.688468 1_454
Au3 I3 2.688468 1_545
Au3 I15 2.702511 1_445
Au3 I11 2.702511 1_554
I16 In0 2.722091 1_555
I17 In1 2.722091 1_555
I18 In2 2.722091 1_555
I19 In3 2.722091 1_555
I20 In0 2.708855 1_545
I21 In1 2.708855 1_455
I22 In2 2.708855 1_565
I23 In3 2.708855 1_655
I24 In0 2.826430 1_555
I25 In1 2.826430 1_555
I26 In2 2.826430 1_555
I27 In3 2.826430 1_555
I28 In2 2.826430 1_555
I29 In3 2.826430 1_555
I30 In0 2.826430 1_555
I31 In1 2.826430 1_555
