# generated using pymatgen
data_K2Hg3Se4
_symmetry_space_group_name_H-M   'P 1'
_cell_length_a   6.92442670
_cell_length_b   11.00248167
_cell_length_c   14.19869861
_cell_angle_alpha   90.00000000
_cell_angle_beta   90.00000000
_cell_angle_gamma   90.00000000
_symmetry_Int_Tables_number   1
_chemical_formula_structural   K2Hg3Se4
_chemical_formula_sum   'K8 Hg12 Se16'
_cell_volume   1081.74031782
_cell_formula_units_Z   4
loop_
 _symmetry_equiv_pos_site_id
 _symmetry_equiv_pos_as_xyz
  1  'x, y, z'
loop_
 _atom_site_type_symbol
 _atom_site_label
 _atom_site_symmetry_multiplicity
 _atom_site_fract_x
 _atom_site_fract_y
 _atom_site_fract_z
 _atom_site_occupancy
  K  K0  1  0.73076330  0.88069271  0.50111553  1
  K  K1  1  0.26923670  0.11930729  0.49888447  1
  K  K2  1  0.76923670  0.61930729  0.00111553  1
  K  K3  1  0.73076330  0.11930729  0.99888447  1
  K  K4  1  0.23076330  0.38069271  0.99888447  1
  K  K5  1  0.26923670  0.88069271  0.00111553  1
  K  K6  1  0.76923670  0.38069271  0.49888447  1
  K  K7  1  0.23076330  0.61930729  0.50111553  1
  Hg  Hg0  1  0.58971562  0.50000000  0.75000000  1
  Hg  Hg1  1  0.41028438  0.50000000  0.25000000  1
  Hg  Hg2  1  0.91028438  -0.00000000  0.25000000  1
  Hg  Hg3  1  0.08971562  -0.00000000  0.75000000  1
  Hg  Hg4  1  0.59056634  0.84265494  0.75838871  1
  Hg  Hg5  1  0.40943366  0.15734506  0.24161129  1
  Hg  Hg6  1  0.90943366  0.65734506  0.25838871  1
  Hg  Hg7  1  0.59056634  0.15734506  0.74161129  1
  Hg  Hg8  1  0.09056634  0.34265494  0.74161129  1
  Hg  Hg9  1  0.40943366  0.84265494  0.25838871  1
  Hg  Hg10  1  0.90943366  0.34265494  0.24161129  1
  Hg  Hg11  1  0.09056634  0.65734506  0.75838871  1
  Se  Se0  1  0.82951314  0.63373007  0.63778886  1
  Se  Se1  1  0.17048686  0.36626993  0.36221114  1
  Se  Se2  1  0.67048686  0.86626993  0.13778886  1
  Se  Se3  1  0.82951314  0.36626993  0.86221114  1
  Se  Se4  1  0.32951314  0.13373007  0.86221114  1
  Se  Se5  1  0.17048686  0.63373007  0.13778886  1
  Se  Se6  1  0.67048686  0.13373007  0.36221114  1
  Se  Se7  1  0.32951314  0.86626993  0.63778886  1
  Se  Se8  1  0.86672185  0.87151353  0.87083846  1
  Se  Se9  1  0.13327815  0.12848647  0.12916154  1
  Se  Se10  1  0.63327815  0.62848647  0.37083846  1
  Se  Se11  1  0.86672185  0.12848647  0.62916154  1
  Se  Se12  1  0.36672185  0.37151353  0.62916154  1
  Se  Se13  1  0.13327815  0.87151353  0.37083846  1
  Se  Se14  1  0.63327815  0.37151353  0.12916154  1
  Se  Se15  1  0.36672185  0.62848647  0.87083846  1
loop_
_geom_bond_atom_site_label_1
_geom_bond_atom_site_label_2
_geom_bond_distance
_geom_bond_site_symmetry_2
K0 Se13 3.346674 1_655
K0 Se7 3.392743 1_555
K0 Se10 3.402548 1_555
K0 Se0 3.408315 1_555
K0 Se11 3.409502 1_565
K0 Se6 3.437280 1_565
K1 Se11 3.346674 1_455
K1 Se6 3.392743 1_555
K1 Se12 3.402548 1_555
K1 Se1 3.408315 1_555
K1 Se13 3.409502 1_545
K1 Se7 3.437280 1_545
K2 Se15 3.346674 1_554
K2 Se5 3.392743 1_655
K2 Se8 3.402548 1_554
K2 Se2 3.408315 1_555
K2 Se14 3.409502 1_555
K2 Se3 3.437280 1_554
K3 Se9 3.346674 1_656
K3 Se4 3.392743 1_555
K3 Se14 3.402548 1_556
K3 Se3 3.408315 1_555
K3 Se8 3.409502 1_545
K3 Se2 3.437280 1_546
K4 Se14 3.346674 1_556
K4 Se3 3.392743 1_455
K4 Se9 3.402548 1_556
K4 Se4 3.408315 1_555
K4 Se15 3.409502 1_555
K4 Se5 3.437280 1_556
K5 Se8 3.346674 1_454
K5 Se2 3.392743 1_555
K5 Se15 3.402548 1_554
K5 Se5 3.408315 1_555
K5 Se9 3.409502 1_565
K5 Se4 3.437280 1_564
K6 Se12 3.346674 1_555
K6 Se1 3.392743 1_655
K6 Se11 3.402548 1_555
K6 Se6 3.408315 1_555
K6 Se10 3.409502 1_555
K6 Se0 3.437280 1_555
K7 Se10 3.346674 1_555
K7 Se0 3.392743 1_455
K7 Se13 3.402548 1_555
K7 Se7 3.408315 1_555
K7 Se12 3.409502 1_555
K7 Se1 3.437280 1_555
Hg0 Se12 2.706753 1_555
Hg0 Se15 2.706753 1_555
Hg0 Se0 2.731390 1_555
Hg0 Se3 2.731390 1_555
Hg1 Se14 2.706753 1_555
Hg1 Se10 2.706753 1_555
Hg1 Se1 2.731390 1_555
Hg1 Se5 2.731390 1_555
Hg2 Se9 2.706753 1_655
Hg2 Se13 2.706753 1_645
Hg2 Se2 2.731390 1_545
Hg2 Se6 2.731390 1_555
Hg3 Se11 2.706753 1_455
Hg3 Se8 2.706753 1_445
Hg3 Se4 2.731390 1_555
Hg3 Se7 2.731390 1_545
Hg4 Se7 2.503450 1_555
Hg4 Se8 2.511306 1_555
Hg5 Se6 2.503450 1_555
Hg5 Se9 2.511306 1_555
Hg6 Se5 2.503450 1_655
Hg6 Se10 2.511306 1_555
Hg7 Se4 2.503450 1_555
Hg7 Se11 2.511306 1_555
Hg8 Se3 2.503450 1_455
Hg8 Se12 2.511306 1_555
Hg9 Se2 2.503450 1_555
Hg9 Se13 2.511306 1_555
Hg10 Se1 2.503450 1_655
Hg10 Se14 2.511306 1_555
Hg11 Se0 2.503450 1_455
Hg11 Se15 2.511306 1_555
