# generated using pymatgen
data_Ti4Fe
_symmetry_space_group_name_H-M   'P 1'
_cell_length_a   21.51933828
_cell_length_b   21.27952384
_cell_length_c   5.64545211
_cell_angle_alpha   84.84034644
_cell_angle_beta   80.01361647
_cell_angle_gamma   15.14603709
_symmetry_Int_Tables_number   1
_chemical_formula_structural   Ti4Fe
_chemical_formula_sum   'Ti32 Fe8'
_cell_volume   634.36614355
_cell_formula_units_Z   8
loop_
 _symmetry_equiv_pos_site_id
 _symmetry_equiv_pos_as_xyz
  1  'x, y, z'
loop_
 _atom_site_type_symbol
 _atom_site_label
 _atom_site_symmetry_multiplicity
 _atom_site_fract_x
 _atom_site_fract_y
 _atom_site_fract_z
 _atom_site_occupancy
  Ti  Ti0_0  1  0.20848900  0.20848900  0.29151100  1
  Ti  Ti0_1  1  0.20848900  0.20848900  0.79151100  1
  Ti  Ti0_2  1  0.20848900  0.70848900  0.29151100  1
  Ti  Ti0_3  1  0.20848900  0.70848900  0.79151100  1
  Ti  Ti0_4  1  0.70848900  0.20848900  0.29151100  1
  Ti  Ti0_5  1  0.70848900  0.20848900  0.79151100  1
  Ti  Ti0_6  1  0.70848900  0.70848900  0.29151100  1
  Ti  Ti0_7  1  0.70848900  0.70848900  0.79151100  1
  Ti  Ti1_0  1  0.40171750  0.40171750  0.09828250  1
  Ti  Ti1_1  1  0.40171750  0.40171750  0.59828250  1
  Ti  Ti1_2  1  0.40171750  0.90171750  0.09828250  1
  Ti  Ti1_3  1  0.40171750  0.90171750  0.59828250  1
  Ti  Ti1_4  1  0.90171750  0.40171750  0.09828250  1
  Ti  Ti1_5  1  0.90171750  0.40171750  0.59828250  1
  Ti  Ti1_6  1  0.90171750  0.90171750  0.09828250  1
  Ti  Ti1_7  1  0.90171750  0.90171750  0.59828250  1
  Ti  Ti2_0  1  0.09828250  0.09828250  0.40171750  1
  Ti  Ti2_1  1  0.09828250  0.09828250  0.90171750  1
  Ti  Ti2_2  1  0.09828250  0.59828250  0.40171750  1
  Ti  Ti2_3  1  0.09828250  0.59828250  0.90171750  1
  Ti  Ti2_4  1  0.59828250  0.09828250  0.40171750  1
  Ti  Ti2_5  1  0.59828250  0.09828250  0.90171750  1
  Ti  Ti2_6  1  0.59828250  0.59828250  0.40171750  1
  Ti  Ti2_7  1  0.59828250  0.59828250  0.90171750  1
  Ti  Ti3_0  1  0.29151100  0.29151100  0.20848900  1
  Ti  Ti3_1  1  0.29151100  0.29151100  0.70848900  1
  Ti  Ti3_2  1  0.29151100  0.79151100  0.20848900  1
  Ti  Ti3_3  1  0.29151100  0.79151100  0.70848900  1
  Ti  Ti3_4  1  0.79151100  0.29151100  0.20848900  1
  Ti  Ti3_5  1  0.79151100  0.29151100  0.70848900  1
  Ti  Ti3_6  1  0.79151100  0.79151100  0.20848900  1
  Ti  Ti3_7  1  0.79151100  0.79151100  0.70848900  1
  Fe  Fe0_0  1  0.00000000  0.00000000  0.00000000  1
  Fe  Fe0_1  1  0.00000000  0.00000000  0.50000000  1
  Fe  Fe0_2  1  0.00000000  0.50000000  0.00000000  1
  Fe  Fe0_3  1  0.00000000  0.50000000  0.50000000  1
  Fe  Fe0_4  1  0.50000000  0.00000000  0.00000000  1
  Fe  Fe0_5  1  0.50000000  0.00000000  0.50000000  1
  Fe  Fe0_6  1  0.50000000  0.50000000  0.00000000  1
  Fe  Fe0_7  1  0.50000000  0.50000000  0.50000000  1
loop_
_geom_bond_atom_site_label_1
_geom_bond_atom_site_label_2
_geom_bond_distance
_geom_bond_site_symmetry_2
Ti0_0 Ti1_2 2.898167 1_545
Ti0_0 Ti1_5 2.898167 1_455
Ti0_1 Ti1_3 2.898167 1_545
Ti0_1 Ti1_4 2.898167 1_456
Ti0_2 Ti1_0 2.898167 1_555
Ti0_2 Ti1_7 2.898167 1_455
Ti0_3 Ti1_1 2.898167 1_555
Ti0_3 Ti1_6 2.898167 1_456
Ti0_4 Ti1_6 2.898167 1_545
Ti0_4 Ti1_1 2.898167 1_555
Ti0_5 Ti1_7 2.898167 1_545
Ti0_5 Ti1_0 2.898167 1_556
Ti0_6 Ti1_4 2.898167 1_555
Ti0_6 Ti1_3 2.898167 1_555
Ti0_7 Ti1_5 2.898167 1_555
Ti0_7 Ti1_2 2.898167 1_556
Ti1_0 Ti2_5 2.783748 1_554
Ti1_0 Ti2_2 2.783748 1_555
Ti1_0 Ti1_6 2.822726 1_545
Ti1_0 Ti1_1 2.822726 1_554
Ti1_0 Ti1_1 2.822726 1_555
Ti1_0 Ti1_6 2.822726 1_455
Ti1_1 Ti2_4 2.783748 1_555
Ti1_1 Ti2_3 2.783748 1_555
Ti1_1 Ti1_7 2.822726 1_545
Ti1_1 Ti1_7 2.822726 1_455
Ti1_2 Ti2_7 2.783748 1_554
Ti1_2 Ti2_0 2.783748 1_565
Ti1_2 Ti1_3 2.822726 1_554
Ti1_2 Ti1_4 2.822726 1_555
Ti1_2 Ti1_4 2.822726 1_465
Ti1_2 Ti1_3 2.822726 1_555
Ti1_3 Ti2_1 2.783748 1_565
Ti1_3 Ti2_6 2.783748 1_555
Ti1_3 Ti1_5 2.822726 1_465
Ti1_3 Ti1_5 2.822726 1_555
Ti1_4 Ti2_6 2.783748 1_555
Ti1_4 Ti2_1 2.783748 1_654
Ti1_4 Ti1_5 2.822726 1_554
Ti1_4 Ti1_5 2.822726 1_555
Ti1_5 Ti2_0 2.783748 1_655
Ti1_5 Ti2_7 2.783748 1_555
Ti1_6 Ti2_4 2.783748 1_565
Ti1_6 Ti2_3 2.783748 1_654
Ti1_6 Ti1_7 2.822726 1_554
Ti1_6 Ti1_7 2.822726 1_555
Ti1_7 Ti2_2 2.783748 1_655
Ti1_7 Ti2_5 2.783748 1_565
Ti2_0 Ti2_6 2.822726 1_545
Ti2_0 Ti2_1 2.822726 1_555
Ti2_0 Ti2_6 2.822726 1_455
Ti2_0 Ti2_1 2.822726 1_554
Ti2_0 Ti3_5 2.898167 1_455
Ti2_0 Ti3_2 2.898167 1_545
Ti2_1 Ti2_7 2.822726 1_545
Ti2_1 Ti2_7 2.822726 1_455
Ti2_1 Ti3_4 2.898167 1_456
Ti2_1 Ti3_3 2.898167 1_545
Ti2_2 Ti2_3 2.822726 1_554
Ti2_2 Ti2_4 2.822726 1_555
Ti2_2 Ti2_4 2.822726 1_465
Ti2_2 Ti2_3 2.822726 1_555
Ti2_2 Ti3_7 2.898167 1_455
Ti2_2 Ti3_0 2.898167 1_555
Ti2_3 Ti2_5 2.822726 1_465
Ti2_3 Ti2_5 2.822726 1_555
Ti2_3 Ti3_6 2.898167 1_456
Ti2_3 Ti3_1 2.898167 1_555
Ti2_4 Ti2_5 2.822726 1_554
Ti2_4 Ti2_5 2.822726 1_555
Ti2_4 Ti3_1 2.898167 1_555
Ti2_4 Ti3_6 2.898167 1_545
Ti2_5 Ti3_7 2.898167 1_545
Ti2_5 Ti3_0 2.898167 1_556
Ti2_6 Ti2_7 2.822726 1_554
Ti2_6 Ti2_7 2.822726 1_555
Ti2_6 Ti3_3 2.898167 1_555
Ti2_6 Ti3_4 2.898167 1_555
Ti2_7 Ti3_2 2.898167 1_556
Ti2_7 Ti3_5 2.898167 1_555
Fe0_0 Ti3_4 2.397409 1_455
Fe0_0 Ti3_3 2.397409 1_544
Fe0_0 Ti0_4 2.397409 1_455
Fe0_0 Ti0_3 2.397409 1_544
Fe0_1 Ti3_5 2.397409 1_455
Fe0_1 Ti3_2 2.397409 1_545
Fe0_1 Ti0_5 2.397409 1_455
Fe0_1 Ti0_2 2.397409 1_545
Fe0_2 Ti3_6 2.397409 1_455
Fe0_2 Ti3_1 2.397409 1_554
Fe0_2 Ti0_6 2.397409 1_455
Fe0_2 Ti0_1 2.397409 1_554
Fe0_3 Ti3_7 2.397409 1_455
Fe0_3 Ti3_0 2.397409 1_555
Fe0_3 Ti0_7 2.397409 1_455
Fe0_3 Ti0_0 2.397409 1_555
Fe0_4 Ti3_0 2.397409 1_555
Fe0_4 Ti3_7 2.397409 1_544
Fe0_4 Ti0_0 2.397409 1_555
Fe0_4 Ti0_7 2.397409 1_544
Fe0_5 Ti3_1 2.397409 1_555
Fe0_5 Ti3_6 2.397409 1_545
Fe0_5 Ti0_1 2.397409 1_555
Fe0_5 Ti0_6 2.397409 1_545
Fe0_6 Ti3_2 2.397409 1_555
Fe0_6 Ti3_5 2.397409 1_554
Fe0_6 Ti0_2 2.397409 1_555
Fe0_6 Ti0_5 2.397409 1_554
Fe0_7 Ti3_3 2.397409 1_555
Fe0_7 Ti3_4 2.397409 1_555
Fe0_7 Ti0_3 2.397409 1_555
Fe0_7 Ti0_4 2.397409 1_555
