# generated using pymatgen
data_Re2Si8MoW
_symmetry_space_group_name_H-M   'P 1'
_cell_length_a   3.20707500
_cell_length_b   3.20707500
_cell_length_c   15.75325900
_cell_angle_alpha   90.00000000
_cell_angle_beta   90.00000000
_cell_angle_gamma   90.00000000
_symmetry_Int_Tables_number   1
_chemical_formula_structural   Re2Si8MoW
_chemical_formula_sum   'Re2 Si8 Mo1 W1'
_cell_volume   162.02746827
_cell_formula_units_Z   1
loop_
 _symmetry_equiv_pos_site_id
 _symmetry_equiv_pos_as_xyz
  1  'x, y, z'
loop_
 _atom_site_type_symbol
 _atom_site_label
 _atom_site_symmetry_multiplicity
 _atom_site_fract_x
 _atom_site_fract_y
 _atom_site_fract_z
 _atom_site_occupancy
  Re  Re0  1  0.00000000  0.00000000  0.50150000  1
  Re  Re1  1  0.50000000  0.50000000  0.74821600  1
  Si  Si0  1  0.50000000  0.50000000  0.08331300  1
  Si  Si1  1  0.00000000  0.00000000  0.33326500  1
  Si  Si2  1  0.50000000  0.50000000  0.58409300  1
  Si  Si3  1  0.00000000  0.00000000  0.83484300  1
  Si  Si4  1  0.00000000  0.00000000  0.16600900  1
  Si  Si5  1  0.50000000  0.50000000  0.41545200  1
  Si  Si6  1  0.00000000  0.00000000  0.66610100  1
  Si  Si7  1  0.50000000  0.50000000  0.91717100  1
  Mo  Mo0  1  0.00000000  0.00000000  0.99843400  1
  W  W0  1  0.50000000  0.50000000  0.25160300  1
loop_
_geom_bond_atom_site_label_1
_geom_bond_atom_site_label_2
_geom_bond_distance
_geom_bond_site_symmetry_2
Re0 Si6 2.593002 1_555
Re0 Si2 2.614488 1_545
Re0 Si2 2.614488 1_555
Re0 Si2 2.614488 1_445
Re0 Si2 2.614488 1_455
Re0 Si5 2.641996 1_545
Re0 Si5 2.641996 1_455
Re0 Si5 2.641996 1_445
Re0 Si5 2.641996 1_555
Re0 Si1 2.650250 1_555
Re1 Si2 2.585472 1_555
Re1 Si6 2.610749 1_555
Re1 Si6 2.610749 1_655
Re1 Si6 2.610749 1_565
Re1 Si6 2.610749 1_665
Re1 Si3 2.646688 1_565
Re1 Si3 2.646688 1_665
Re1 Si3 2.646688 1_555
Re1 Si3 2.646688 1_655
Re1 Si7 2.661592 1_555
Si0 Si4 2.615296 1_565
Si0 Si4 2.615296 1_555
Si0 Si4 2.615296 1_655
Si0 Si4 2.615296 1_665
Si0 Si7 2.617278 1_554
Si0 W0 2.651116 1_555
Si1 W0 2.607221 1_455
Si1 W0 2.607221 1_555
Si1 W0 2.607221 1_445
Si1 W0 2.607221 1_545
Si1 Si5 2.611311 1_545
Si1 Si5 2.611311 1_445
Si1 Si5 2.611311 1_455
Si1 Si5 2.611311 1_555
Si1 Si4 2.634827 1_555
Si2 Si6 2.609914 1_555
Si2 Si6 2.609914 1_655
Si2 Si6 2.609914 1_565
Si2 Si6 2.609914 1_665
Si2 Si5 2.656645 1_555
Si3 Si7 2.612413 1_545
Si3 Si7 2.612413 1_445
Si3 Si7 2.612413 1_555
Si3 Si7 2.612413 1_455
Si3 Si6 2.658236 1_555
Si4 W0 2.638334 1_455
Si4 W0 2.638334 1_445
Si4 W0 2.638334 1_555
Si4 W0 2.638334 1_545
Si5 W0 2.581156 1_555
Mo0 Si3 2.577091 1_555
Mo0 Si7 2.604125 1_555
Mo0 Si7 2.604125 1_455
Mo0 Si7 2.604125 1_545
Mo0 Si7 2.604125 1_445
Mo0 Si0 2.632595 1_556
Mo0 Si0 2.632595 1_456
Mo0 Si0 2.632595 1_546
Mo0 Si0 2.632595 1_446
Mo0 Si4 2.639852 1_556
