# generated using pymatgen
data_Tb14Au51
_symmetry_space_group_name_H-M   'P 1'
_cell_length_a   9.12930719
_cell_length_b   12.57815097
_cell_length_c   12.57826800
_cell_angle_alpha   59.99964289
_cell_angle_beta   90.00000000
_cell_angle_gamma   90.00000000
_symmetry_Int_Tables_number   1
_chemical_formula_structural   Tb14Au51
_chemical_formula_sum   'Tb14 Au51'
_cell_volume   1250.84799517
_cell_formula_units_Z   1
loop_
 _symmetry_equiv_pos_site_id
 _symmetry_equiv_pos_as_xyz
  1  'x, y, z'
loop_
 _atom_site_type_symbol
 _atom_site_label
 _atom_site_symmetry_multiplicity
 _atom_site_fract_x
 _atom_site_fract_y
 _atom_site_fract_z
 _atom_site_occupancy
  Tb  Tb0  1  0.50000000  0.67773202  0.85778859  1
  Tb  Tb1  1  0.50000000  0.46447918  0.67773700  1
  Tb  Tb2  1  0.50000000  0.85778590  0.46447533  1
  Tb  Tb3  1  0.50000000  0.32381633  0.14333041  1
  Tb  Tb4  1  0.50000000  0.53285060  0.32381899  1
  Tb  Tb5  1  0.50000000  0.14333195  0.53285416  1
  Tb  Tb6  1  -0.00000000  0.27335923  0.61501296  1
  Tb  Tb7  1  -0.00000000  0.11162923  0.27335996  1
  Tb  Tb8  1  -0.00000000  0.61501350  0.11162984  1
  Tb  Tb9  1  -0.00000000  0.71434401  0.39967546  1
  Tb  Tb10  1  -0.00000000  0.88598225  0.71433991  1
  Tb  Tb11  1  -0.00000000  0.39967823  0.88598135  1
  Tb  Tb12  1  0.30162033  0.00000087  -0.00000083  1
  Tb  Tb13  1  0.69837967  0.00000087  -0.00000083  1
  Au  Au0  1  0.15155348  0.62514617  0.88287872  1
  Au  Au1  1  0.15155335  0.49197580  0.62514528  1
  Au  Au2  1  0.15155431  0.88287698  0.49197569  1
  Au  Au3  1  0.15050348  0.38149966  0.11574274  1
  Au  Au4  1  0.15050216  0.50275750  0.38150363  1
  Au  Au5  1  0.15050205  0.11574491  0.50275640  1
  Au  Au6  1  0.84949652  0.38149966  0.11574274  1
  Au  Au7  1  0.84949784  0.50275750  0.38150363  1
  Au  Au8  1  0.84949795  0.11574491  0.50275640  1
  Au  Au9  1  0.84844652  0.62514617  0.88287872  1
  Au  Au10  1  0.84844665  0.49197580  0.62514528  1
  Au  Au11  1  0.84844569  0.88287698  0.49197569  1
  Au  Au12  1  -0.00000000  0.66666655  0.66666535  1
  Au  Au13  1  -0.00000000  0.33333722  0.33333246  1
  Au  Au14  1  0.33864519  0.33913133  0.55865889  1
  Au  Au15  1  0.33864489  0.10221071  0.33913335  1
  Au  Au16  1  0.33864408  0.55866102  0.10221115  1
  Au  Au17  1  0.33739505  0.65663774  0.44536313  1
  Au  Au18  1  0.33739267  0.89799903  0.65663490  1
  Au  Au19  1  0.33739554  0.44535862  0.89800119  1
  Au  Au20  1  0.66260495  0.65663774  0.44536313  1
  Au  Au21  1  0.66260733  0.89799903  0.65663490  1
  Au  Au22  1  0.66260446  0.44535862  0.89800119  1
  Au  Au23  1  0.66135481  0.33913133  0.55865889  1
  Au  Au24  1  0.66135511  0.10221071  0.33913335  1
  Au  Au25  1  0.66135592  0.55866102  0.10221115  1
  Au  Au26  1  0.23352902  0.08056616  0.72730265  1
  Au  Au27  1  0.23352467  0.19213026  0.08056453  1
  Au  Au28  1  0.23352844  0.72730293  0.19213259  1
  Au  Au29  1  0.22702964  0.92664577  0.26430293  1
  Au  Au30  1  0.22703325  0.80904846  0.92664748  1
  Au  Au31  1  0.22702921  0.26430511  0.80904883  1
  Au  Au32  1  0.77297036  0.92664577  0.26430293  1
  Au  Au33  1  0.77296675  0.80904846  0.92664748  1
  Au  Au34  1  0.77297079  0.26430511  0.80904883  1
  Au  Au35  1  0.76647098  0.08056616  0.72730265  1
  Au  Au36  1  0.76647533  0.19213026  0.08056453  1
  Au  Au37  1  0.76647156  0.72730293  0.19213259  1
  Au  Au38  1  0.31228996  0.66666586  0.66666787  1
  Au  Au39  1  0.31105072  0.33333478  0.33333256  1
  Au  Au40  1  0.68894928  0.33333478  0.33333256  1
  Au  Au41  1  0.68771004  0.66666586  0.66666787  1
  Au  Au42  1  0.50000000  0.17542263  0.76714268  1
  Au  Au43  1  0.50000000  0.05743255  0.17542731  1
  Au  Au44  1  0.50000000  0.76714797  0.05743013  1
  Au  Au45  1  0.50000000  0.81786691  0.24249270  1
  Au  Au46  1  0.50000000  0.93964327  0.81786180  1
  Au  Au47  1  0.50000000  0.24248805  0.93964591  1
  Au  Au48  1  -0.00000000  0.97430667  0.88772595  1
  Au  Au49  1  -0.00000000  0.13796520  0.97430721  1
  Au  Au50  1  -0.00000000  0.88772422  0.13796423  1
loop_
_geom_bond_atom_site_label_1
_geom_bond_atom_site_label_2
_geom_bond_distance
_geom_bond_site_symmetry_2
Au0 Au30 2.720674 1_555
Au0 Au19 2.756523 1_555
Au0 Au9 2.767157 1_455
Au0 Au12 2.857076 1_555
Au0 Au38 2.898578 1_555
Au0 Au16 2.986738 1_556
Au0 Au3 2.999123 1_556
Au0 Tb8 3.137297 1_556
Au0 Tb11 3.138130 1_555
Au0 Tb10 3.196413 1_555
Au0 Tb0 3.232273 1_555
Au1 Au31 2.720656 1_555
Au1 Au17 2.756479 1_555
Au1 Au10 2.767154 1_455
Au1 Au12 2.857035 1_555
Au1 Au38 2.898573 1_555
Au1 Au14 2.986718 1_555
Au1 Au4 2.999098 1_555
Au1 Tb6 3.137251 1_555
Au1 Tb9 3.138155 1_555
Au1 Tb11 3.196440 1_555
Au1 Tb1 3.232286 1_555
Au2 Au29 2.720701 1_555
Au2 Au38 2.898555 1_555
Au2 Au5 2.999165 1_565
Au2 Tb7 3.137266 1_565
Au2 Tb10 3.138160 1_555
Au2 Tb9 3.196400 1_555
Au2 Tb2 3.232277 1_555
Au3 Au6 2.747985 1_455
Au3 Au39 2.889255 1_555
Au3 Tb11 3.103454 1_554
Au3 Tb8 3.219559 1_555
Au3 Tb3 3.251981 1_555
Au3 Tb7 3.257455 1_555
Au4 Au7 2.747961 1_455
Au4 Tb9 3.103427 1_555
Au4 Tb6 3.219512 1_555
Au4 Tb4 3.251997 1_555
Au4 Tb8 3.257509 1_555
Au5 Au8 2.747959 1_455
Au5 Tb10 3.103433 1_545
Au5 Tb7 3.219544 1_555
Au5 Tb5 3.251998 1_555
Au5 Tb6 3.257474 1_555
Au6 Au9 2.999123 1_554
Au6 Tb11 3.103454 1_654
Au6 Tb8 3.219559 1_655
Au6 Tb3 3.251981 1_555
Au6 Tb7 3.257455 1_655
Au7 Tb9 3.103427 1_655
Au7 Tb6 3.219512 1_655
Au7 Tb4 3.251997 1_555
Au7 Tb8 3.257509 1_655
Au8 Tb10 3.103433 1_645
Au8 Tb7 3.219544 1_655
Au8 Tb5 3.251998 1_555
Au8 Tb6 3.257474 1_655
Au9 Tb8 3.137297 1_656
Au9 Tb11 3.138130 1_655
Au9 Tb10 3.196413 1_655
Au9 Tb0 3.232273 1_555
Au10 Au34 2.720656 1_555
Au10 Au20 2.756479 1_555
Au10 Au12 2.857035 1_655
Au10 Au41 2.898573 1_555
Au10 Au23 2.986718 1_555
Au10 Au7 2.999098 1_555
Au10 Tb6 3.137251 1_655
Au10 Tb9 3.138155 1_655
Au10 Tb11 3.196440 1_655
Au10 Tb1 3.232286 1_555
Au11 Au32 2.720701 1_555
Au11 Au21 2.756459 1_555
Au11 Au2 2.767172 1_655
Au11 Au12 2.857022 1_655
Au11 Au41 2.898555 1_555
Au11 Au24 2.986714 1_565
Au11 Au8 2.999165 1_565
Au11 Tb7 3.137266 1_665
Au11 Tb10 3.138160 1_655
Au11 Tb9 3.196400 1_655
Au11 Tb2 3.232277 1_555
Au12 Au38 2.850991 1_555
Au12 Au41 2.850991 1_455
Au12 Au2 2.857022 1_555
Au12 Au9 2.857076 1_455
Au12 Tb11 3.102170 1_555
Au12 Tb10 3.102198 1_555
Au12 Tb9 3.102202 1_555
Au13 Au40 2.839678 1_455
Au13 Au39 2.839678 1_555
Au13 Au4 2.843816 1_555
Au13 Au7 2.843816 1_455
Au13 Au5 2.843822 1_555
Au13 Au8 2.843822 1_455
Au13 Au3 2.843845 1_555
Au13 Au6 2.843845 1_455
Au13 Tb8 3.232484 1_555
Au13 Tb6 3.232555 1_555
Au13 Tb7 3.232557 1_555
Au14 Au4 2.750496 1_555
Au14 Au42 2.808362 1_555
Au14 Au39 2.882394 1_555
Au14 Au23 2.946115 1_555
Au14 Au31 2.979775 1_555
Au14 Au26 3.016441 1_555
Au14 Tb5 3.023241 1_555
Au14 Tb1 3.043126 1_555
Au14 Tb4 3.104010 1_555
Au14 Tb6 3.187225 1_555
Au15 Au5 2.750508 1_555
Au15 Au43 2.808372 1_555
Au15 Au39 2.882356 1_555
Au15 Au24 2.946121 1_555
Au15 Au29 2.979812 1_545
Au15 Au2 2.986714 1_545
Au15 Au27 3.016527 1_555
Au15 Tb3 3.023261 1_555
Au15 Tb2 3.043093 1_545
Au15 Tb5 3.104052 1_555
Au15 Tb7 3.187228 1_555
Au16 Au3 2.750530 1_555
Au16 Au44 2.808373 1_555
Au16 Au39 2.882355 1_555
Au16 Au25 2.946136 1_555
Au16 Au30 2.979708 1_554
Au16 Au28 3.016440 1_555
Au16 Tb4 3.023279 1_555
Au16 Tb0 3.043099 1_554
Au16 Tb3 3.104066 1_555
Au16 Tb8 3.187213 1_555
Au17 Au45 2.766376 1_555
Au17 Au4 2.976124 1_555
Au17 Au28 3.000587 1_555
Au17 Tb2 3.044822 1_555
Au17 Tb4 3.057062 1_555
Au17 Tb1 3.086102 1_555
Au17 Tb9 3.150792 1_555
Au17 Au29 3.162491 1_555
Au18 Au2 2.756459 1_555
Au18 Au46 2.766399 1_555
Au18 Au5 2.976140 1_565
Au18 Au26 3.000608 1_565
Au18 Tb0 3.044894 1_555
Au18 Tb5 3.057064 1_565
Au18 Tb2 3.086127 1_555
Au18 Tb10 3.150771 1_555
Au18 Au30 3.162550 1_555
Au19 Au47 2.766356 1_555
Au19 Au3 2.976147 1_556
Au19 Au27 3.000545 1_556
Au19 Tb1 3.044841 1_555
Au19 Tb3 3.057039 1_556
Au19 Tb0 3.086098 1_555
Au19 Tb11 3.150781 1_555
Au19 Au31 3.162480 1_555
Au20 Au45 2.766376 1_555
Au20 Au7 2.976124 1_555
Au20 Au37 3.000587 1_555
Au20 Tb2 3.044822 1_555
Au20 Tb4 3.057062 1_555
Au20 Tb1 3.086102 1_555
Au20 Tb9 3.150792 1_655
Au20 Au32 3.162491 1_555
Au21 Au46 2.766399 1_555
Au21 Au8 2.976140 1_565
Au21 Au35 3.000608 1_565
Au21 Tb0 3.044894 1_555
Au21 Tb5 3.057064 1_565
Au21 Tb2 3.086127 1_555
Au21 Tb10 3.150771 1_655
Au21 Au33 3.162550 1_555
Au22 Au9 2.756523 1_555
Au22 Au47 2.766356 1_555
Au22 Au6 2.976147 1_556
Au22 Au36 3.000545 1_556
Au22 Tb1 3.044841 1_555
Au22 Tb3 3.057039 1_556
Au22 Tb0 3.086098 1_555
Au22 Tb11 3.150781 1_655
Au22 Au34 3.162480 1_555
Au23 Au7 2.750496 1_555
Au23 Au42 2.808362 1_555
Au23 Au40 2.882394 1_555
Au23 Au34 2.979775 1_555
Au23 Au35 3.016441 1_555
Au23 Tb5 3.023241 1_555
Au23 Tb1 3.043126 1_555
Au23 Tb4 3.104010 1_555
Au23 Tb6 3.187225 1_655
Au24 Au8 2.750508 1_555
Au24 Au43 2.808372 1_555
Au24 Au40 2.882356 1_555
Au24 Au32 2.979812 1_545
Au24 Au36 3.016527 1_555
Au24 Tb3 3.023261 1_555
Au24 Tb2 3.043093 1_545
Au24 Tb5 3.104052 1_555
Au24 Tb7 3.187228 1_655
Au25 Au6 2.750530 1_555
Au25 Au44 2.808373 1_555
Au25 Au40 2.882355 1_555
Au25 Au33 2.979708 1_554
Au25 Au9 2.986738 1_554
Au25 Au37 3.016440 1_555
Au25 Tb4 3.023279 1_555
Au25 Tb0 3.043099 1_554
Au25 Tb3 3.104066 1_555
Au25 Tb8 3.187213 1_655
Au26 Au5 2.738213 1_555
Au26 Au48 2.776029 1_545
Au26 Au42 2.861916 1_555
Au26 Au46 2.887619 1_545
Au26 Au31 2.962818 1_555
Au26 Tb6 2.999262 1_555
Au26 Au30 3.064438 1_545
Au26 Tb12 3.114907 1_556
Au26 Tb5 3.254596 1_555
Au26 Tb10 3.310768 1_545
Au27 Au3 2.738199 1_555
Au27 Au49 2.775995 1_554
Au27 Au43 2.861959 1_555
Au27 Au47 2.887641 1_554
Au27 Au29 2.962788 1_545
Au27 Tb7 2.999270 1_555
Au27 Au31 3.064441 1_554
Au27 Tb12 3.114881 1_555
Au27 Tb3 3.254648 1_555
Au27 Tb11 3.310742 1_554
Au28 Au4 2.738193 1_555
Au28 Au50 2.775995 1_555
Au28 Au44 2.861954 1_555
Au28 Au45 2.887642 1_555
Au28 Au30 2.962830 1_554
Au28 Tb8 2.999265 1_555
Au28 Au29 3.064410 1_555
Au28 Tb12 3.114894 1_565
Au28 Tb4 3.254615 1_555
Au28 Tb9 3.310761 1_555
Au29 Au50 2.799773 1_555
Au29 Au43 2.885671 1_565
Au29 Au45 2.921114 1_555
Au29 Tb12 3.049554 1_565
Au29 Tb9 3.127132 1_555
Au29 Tb7 3.160313 1_565
Au29 Tb2 3.334522 1_555
Au30 Au48 2.799766 1_555
Au30 Au44 2.885639 1_556
Au30 Au46 2.921122 1_555
Au30 Tb12 3.049548 1_566
Au30 Tb10 3.127218 1_555
Au30 Tb8 3.160299 1_556
Au30 Tb0 3.334518 1_555
Au31 Au49 2.799753 1_555
Au31 Au42 2.885697 1_555
Au31 Au47 2.921158 1_555
Au31 Tb12 3.049532 1_556
Au31 Tb11 3.127173 1_555
Au31 Tb6 3.160296 1_555
Au31 Tb1 3.334519 1_555
Au32 Au50 2.799773 1_655
Au32 Au43 2.885671 1_565
Au32 Au45 2.921114 1_555
Au32 Au36 2.962788 1_565
Au32 Tb13 3.049554 1_565
Au32 Au37 3.064410 1_555
Au32 Tb9 3.127132 1_655
Au32 Tb7 3.160313 1_665
Au32 Tb2 3.334522 1_555
Au33 Au9 2.720674 1_555
Au33 Au48 2.799766 1_655
Au33 Au44 2.885639 1_556
Au33 Au46 2.921122 1_555
Au33 Au37 2.962830 1_556
Au33 Tb13 3.049548 1_566
Au33 Au35 3.064438 1_565
Au33 Tb10 3.127218 1_655
Au33 Tb8 3.160299 1_656
Au33 Tb0 3.334518 1_555
Au34 Au49 2.799753 1_655
Au34 Au42 2.885697 1_555
Au34 Au47 2.921158 1_555
Au34 Au35 2.962818 1_555
Au34 Tb13 3.049532 1_556
Au34 Au36 3.064441 1_556
Au34 Tb11 3.127173 1_655
Au34 Tb6 3.160296 1_655
Au34 Tb1 3.334519 1_555
Au35 Au8 2.738213 1_555
Au35 Au48 2.776029 1_645
Au35 Au42 2.861916 1_555
Au35 Au46 2.887619 1_545
Au35 Tb6 2.999262 1_655
Au35 Tb13 3.114907 1_556
Au35 Tb5 3.254596 1_555
Au35 Tb10 3.310768 1_645
Au36 Au6 2.738199 1_555
Au36 Au49 2.775995 1_654
Au36 Au43 2.861959 1_555
Au36 Au47 2.887641 1_554
Au36 Tb7 2.999270 1_655
Au36 Tb13 3.114881 1_555
Au36 Tb3 3.254648 1_555
Au36 Tb11 3.310742 1_654
Au37 Au7 2.738193 1_555
Au37 Au50 2.775995 1_655
Au37 Au44 2.861954 1_555
Au37 Au45 2.887642 1_555
Au37 Tb8 2.999265 1_655
Au37 Tb13 3.114894 1_565
Au37 Tb4 3.254615 1_555
Au37 Tb9 3.310761 1_655
Au38 Tb1 3.011556 1_555
Au38 Tb0 3.011593 1_555
Au38 Tb2 3.011602 1_555
Au39 Au5 2.889234 1_555
Au39 Au4 2.889270 1_555
Au39 Tb4 2.997891 1_555
Au39 Tb5 2.997926 1_555
Au39 Tb3 2.997936 1_555
Au40 Au8 2.889234 1_555
Au40 Au6 2.889255 1_555
Au40 Au7 2.889270 1_555
Au40 Tb4 2.997891 1_555
Au40 Tb5 2.997926 1_555
Au40 Tb3 2.997936 1_555
Au41 Au9 2.898578 1_555
Au41 Tb1 3.011556 1_555
Au41 Tb0 3.011593 1_555
Au41 Tb2 3.011602 1_555
Au42 Au47 2.692574 1_555
Au42 Au46 2.703736 1_545
Au42 Tb5 3.168111 1_555
Au42 Tb13 3.203821 1_556
Au42 Tb12 3.203821 1_556
Au42 Tb1 3.224116 1_555
Au43 Au45 2.692508 1_545
Au43 Au47 2.703744 1_554
Au43 Tb3 3.168103 1_555
Au43 Tb12 3.203878 1_555
Au43 Tb13 3.203878 1_555
Au43 Tb2 3.224045 1_545
Au44 Au46 2.692531 1_554
Au44 Au45 2.703793 1_555
Au44 Tb4 3.168200 1_555
Au44 Tb13 3.203786 1_565
Au44 Tb12 3.203786 1_565
Au44 Tb0 3.224136 1_554
Au45 Tb2 3.074123 1_555
Au45 Tb4 3.198627 1_555
Au45 Tb12 3.293016 1_565
Au45 Tb13 3.293016 1_565
Au46 Tb0 3.074173 1_555
Au46 Tb5 3.198561 1_565
Au46 Tb12 3.293051 1_566
Au46 Tb13 3.293051 1_566
Au47 Tb1 3.074194 1_555
Au47 Tb3 3.198614 1_556
Au47 Tb13 3.292959 1_556
Au47 Tb12 3.292959 1_556
Au48 Tb10 2.900594 1_555
Au48 Tb12 3.183929 1_566
Au48 Tb13 3.183929 1_466
Au49 Tb11 2.900589 1_555
Au49 Tb13 3.183906 1_456
Au49 Tb12 3.183906 1_556
Au50 Tb9 2.900574 1_555
Au50 Tb13 3.183920 1_465
Au50 Tb12 3.183920 1_565
