# generated using pymatgen
data_Mg14NiW
_symmetry_space_group_name_H-M   'P 1'
_cell_length_a   6.18240192
_cell_length_b   6.18240145
_cell_length_c   9.75090452
_cell_angle_alpha   90.00000000
_cell_angle_beta   90.00000000
_cell_angle_gamma   120.00000250
_symmetry_Int_Tables_number   1
_chemical_formula_structural   Mg14NiW
_chemical_formula_sum   'Mg14 Ni1 W1'
_cell_volume   322.76762187
_cell_formula_units_Z   1
loop_
 _symmetry_equiv_pos_site_id
 _symmetry_equiv_pos_as_xyz
  1  'x, y, z'
loop_
 _atom_site_type_symbol
 _atom_site_label
 _atom_site_symmetry_multiplicity
 _atom_site_fract_x
 _atom_site_fract_y
 _atom_site_fract_z
 _atom_site_occupancy
  Mg  Mg0  1  0.16533966  0.83266933  0.12500000  1
  Mg  Mg1  1  0.17054631  0.83527265  0.62500000  1
  Mg  Mg2  1  0.66733067  0.33466034  0.12500000  1
  Mg  Mg3  1  0.66472735  0.32945369  0.62500000  1
  Mg  Mg4  1  0.66733067  0.83266933  0.12500000  1
  Mg  Mg5  1  0.66472735  0.83527265  0.62500000  1
  Mg  Mg6  1  0.32346577  0.17653423  0.37296561  1
  Mg  Mg7  1  0.32346577  0.17653423  0.87703439  1
  Mg  Mg8  1  0.32346577  0.64693253  0.37296561  1
  Mg  Mg9  1  0.32346577  0.64693253  0.87703439  1
  Mg  Mg10  1  0.85306747  0.17653423  0.37296561  1
  Mg  Mg11  1  0.85306747  0.17653423  0.87703439  1
  Mg  Mg12  1  0.83333300  0.66666700  0.37778247  1
  Mg  Mg13  1  0.83333300  0.66666700  0.87221753  1
  Ni  Ni0  1  0.16666700  0.33333300  0.12500000  1
  W  W0  1  0.16666700  0.33333300  0.62500000  1
loop_
_geom_bond_atom_site_label_1
_geom_bond_atom_site_label_2
_geom_bond_distance
_geom_bond_site_symmetry_2
Mg0 Mg12 3.038979 1_455
Mg0 Mg13 3.038979 1_454
Mg0 Mg9 3.040239 1_554
Mg0 Mg8 3.040239 1_555
Mg0 Mg7 3.040246 1_564
Mg0 Mg6 3.040246 1_565
Mg0 Mg2 3.078892 1_455
Mg0 Mg4 3.078892 1_455
Mg0 Ni0 3.091209 1_565
Mg0 Ni0 3.091209 1_555
Mg0 Mg2 3.103510 1_565
Mg0 Mg4 3.103510 1_555
Mg1 Mg12 3.011764 1_455
Mg1 Mg13 3.011764 1_455
Mg1 W0 3.091270 1_555
Mg1 W0 3.091271 1_565
Mg2 Mg6 3.040246 1_555
Mg2 Mg7 3.040246 1_554
Mg2 Mg4 3.078892 1_555
Mg2 Ni0 3.091209 1_655
Mg2 Ni0 3.091209 1_555
Mg2 Mg4 3.103510 1_545
Mg3 W0 3.091271 1_655
Mg3 W0 3.091271 1_555
Mg4 Mg9 3.040246 1_554
Mg4 Mg8 3.040246 1_555
Mg4 Ni0 3.091209 1_665
Mg4 Ni0 3.091209 1_555
Mg5 W0 3.091271 1_555
Mg5 W0 3.091271 1_665
Mg6 Ni0 2.943698 1_555
Mg6 W0 2.976371 1_555
Mg7 Ni0 2.943698 1_556
Mg7 W0 2.976371 1_555
Mg8 Ni0 2.943704 1_555
Mg8 W0 2.976377 1_555
Mg9 Ni0 2.943704 1_556
Mg9 W0 2.976377 1_555
Mg10 Ni0 2.943704 1_655
Mg10 W0 2.976377 1_655
Mg10 Mg2 3.040239 1_555
Mg10 Mg4 3.040246 1_545
Mg10 Mg12 3.093363 1_545
Mg10 Mg12 3.093363 1_555
Mg11 Ni0 2.943704 1_656
Mg11 W0 2.976377 1_655
Mg11 Mg2 3.040239 1_556
Mg11 Mg4 3.040246 1_546
Mg11 Mg13 3.093363 1_545
Mg11 Mg13 3.093363 1_555
Mg12 Mg5 3.011758 1_555
Mg12 Mg3 3.011764 1_555
Mg12 Mg4 3.038973 1_555
Mg12 Mg2 3.038979 1_555
Mg12 Mg6 3.093363 1_665
Mg12 Mg6 3.093363 1_555
Mg12 Mg8 3.093363 1_555
Mg12 Mg8 3.093363 1_655
Mg13 Mg5 3.011758 1_555
Mg13 Mg3 3.011764 1_555
Mg13 Mg4 3.038973 1_556
Mg13 Mg2 3.038979 1_556
Mg13 Mg7 3.093363 1_665
Mg13 Mg7 3.093363 1_555
Mg13 Mg9 3.093363 1_555
Mg13 Mg9 3.093363 1_655
