# generated using pymatgen
data_ZnFe2CoO7
_symmetry_space_group_name_H-M   'P 1'
_cell_length_a   13.33304700
_cell_length_b   6.95438300
_cell_length_c   11.04641545
_cell_angle_alpha   73.65362287
_cell_angle_beta   90.00000000
_cell_angle_gamma   90.00000000
_symmetry_Int_Tables_number   1
_chemical_formula_structural   ZnFe2CoO7
_chemical_formula_sum   'Zn8 Fe16 Co8 O56'
_cell_volume   982.85528726
_cell_formula_units_Z   8
loop_
 _symmetry_equiv_pos_site_id
 _symmetry_equiv_pos_as_xyz
  1  'x, y, z'
loop_
 _atom_site_type_symbol
 _atom_site_label
 _atom_site_symmetry_multiplicity
 _atom_site_fract_x
 _atom_site_fract_y
 _atom_site_fract_z
 _atom_site_occupancy
  Zn  Zn0  1  0.48617300  0.94158300  0.80876200  1
  Zn  Zn1  1  0.87409900  0.68096300  0.93459300  1
  Zn  Zn2  1  0.37409900  0.31903700  0.56540700  1
  Zn  Zn3  1  0.12590100  0.31903700  0.06540700  1
  Zn  Zn4  1  0.62590100  0.68096300  0.43459300  1
  Zn  Zn5  1  0.01382700  0.94158300  0.30876200  1
  Zn  Zn6  1  0.51382700  0.05841700  0.19123800  1
  Zn  Zn7  1  0.98617300  0.05841700  0.69123800  1
  Fe  Fe0  1  0.88349500  0.16253500  0.98846500  1
  Fe  Fe1  1  0.99852000  0.58937400  0.67598600  1
  Fe  Fe2  1  0.50148000  0.58937400  0.17598600  1
  Fe  Fe3  1  0.00148000  0.41062600  0.32401400  1
  Fe  Fe4  1  0.70637100  0.52597600  0.77075600  1
  Fe  Fe5  1  0.20637100  0.47402400  0.72924400  1
  Fe  Fe6  1  0.29362900  0.47402400  0.22924400  1
  Fe  Fe7  1  0.79362900  0.52597600  0.27075600  1
  Fe  Fe8  1  0.49852000  0.41062600  0.82401400  1
  Fe  Fe9  1  0.17525400  0.12353300  0.48468800  1
  Fe  Fe10  1  0.67525400  0.87646700  0.01531200  1
  Fe  Fe11  1  0.82474600  0.87646700  0.51531200  1
  Fe  Fe12  1  0.38349500  0.83746500  0.51153500  1
  Fe  Fe13  1  0.61650500  0.16253500  0.48846500  1
  Fe  Fe14  1  0.11650500  0.83746500  0.01153500  1
  Fe  Fe15  1  0.32474600  0.12353300  0.98468800  1
  Co  Co0  1  0.68671500  0.35882100  0.07675900  1
  Co  Co1  1  0.18671500  0.64117900  0.42324100  1
  Co  Co2  1  0.31328500  0.64117900  0.92324100  1
  Co  Co3  1  0.81328500  0.35882100  0.57675900  1
  Co  Co4  1  0.77671900  0.01891900  0.25770900  1
  Co  Co5  1  0.27671900  0.98108100  0.24229100  1
  Co  Co6  1  0.22328100  0.98108100  0.74229100  1
  Co  Co7  1  0.72328100  0.01891900  0.75770900  1
  O  O0  1  0.01335600  0.24861400  0.96966800  1
  O  O1  1  0.51335600  0.75138600  0.53033200  1
  O  O2  1  0.98664400  0.75138600  0.03033200  1
  O  O3  1  0.48664400  0.24861400  0.46966800  1
  O  O4  1  0.80428700  0.98579200  0.91958300  1
  O  O5  1  0.30428700  0.01420800  0.58041700  1
  O  O6  1  0.19571300  0.01420800  0.08041700  1
  O  O7  1  0.69571300  0.98579200  0.41958300  1
  O  O8  1  0.87960900  0.00155900  0.15418600  1
  O  O9  1  0.37960900  0.99844100  0.34581400  1
  O  O10  1  0.12039100  0.99844100  0.84581400  1
  O  O11  1  0.62039100  0.00155900  0.65418600  1
  O  O12  1  0.27499700  0.37834200  0.89932300  1
  O  O13  1  0.77499700  0.62165800  0.60067700  1
  O  O14  1  0.72500300  0.62165800  0.10067700  1
  O  O15  1  0.22500300  0.37834200  0.39932300  1
  O  O16  1  0.38105600  0.97197000  0.13580600  1
  O  O17  1  0.88105600  0.02803000  0.36419400  1
  O  O18  1  0.61894400  0.02803000  0.86419400  1
  O  O19  1  0.11894400  0.97197000  0.63580600  1
  O  O20  1  0.32570000  0.93649100  0.87910500  1
  O  O21  1  0.42955900  0.66055000  0.82928500  1
  O  O22  1  0.82570000  0.06350900  0.62089500  1
  O  O23  1  0.17430000  0.93649100  0.37910500  1
  O  O24  1  0.45512700  0.24463600  0.72868000  1
  O  O25  1  0.95512700  0.75536400  0.77132000  1
  O  O26  1  0.54487300  0.75536400  0.27132000  1
  O  O27  1  0.04487300  0.24463600  0.22868000  1
  O  O28  1  0.45484800  0.22557000  0.96999100  1
  O  O29  1  0.95484800  0.77443000  0.53000900  1
  O  O30  1  0.54515200  0.77443000  0.03000900  1
  O  O31  1  0.04515200  0.22557000  0.46999100  1
  O  O32  1  0.92134900  0.56591800  0.19305100  1
  O  O33  1  0.42134900  0.43408200  0.30694900  1
  O  O34  1  0.07865100  0.43408200  0.80694900  1
  O  O35  1  0.57865100  0.56591800  0.69305100  1
  O  O36  1  0.76451600  0.28723800  0.21725100  1
  O  O37  1  0.26451600  0.71276200  0.28274900  1
  O  O38  1  0.23548400  0.71276200  0.78274900  1
  O  O39  1  0.73548400  0.28723800  0.71725100  1
  O  O40  1  0.69511000  0.39795200  0.46152600  1
  O  O41  1  0.19511000  0.60204800  0.03847400  1
  O  O42  1  0.30489000  0.60204800  0.53847400  1
  O  O43  1  0.80489000  0.39795200  0.96152600  1
  O  O44  1  0.75329600  0.75177300  0.31599000  1
  O  O45  1  0.25329600  0.24822700  0.18401000  1
  O  O46  1  0.24670400  0.24822700  0.68401000  1
  O  O47  1  0.74670400  0.75177300  0.81599000  1
  O  O48  1  0.87824900  0.42483900  0.41760500  1
  O  O49  1  0.37824900  0.57516100  0.08239500  1
  O  O50  1  0.12175100  0.57516100  0.58239500  1
  O  O51  1  0.62175100  0.42483900  0.91760500  1
  O  O52  1  0.07044100  0.66055000  0.32928500  1
  O  O53  1  0.57044100  0.33945000  0.17071500  1
  O  O54  1  0.92955900  0.33945000  0.67071500  1
  O  O55  1  0.67430000  0.06350900  0.12089500  1
loop_
_geom_bond_atom_site_label_1
_geom_bond_atom_site_label_2
_geom_bond_distance
_geom_bond_site_symmetry_2
Fe0 O0 1.824663 1_655
Fe0 O8 1.858376 1_556
Fe0 O43 1.895541 1_555
Fe0 O4 1.931710 1_545
Fe1 O29 1.851323 1_555
Fe1 O25 1.860260 1_555
Fe1 O34 1.876488 1_655
Fe1 O50 1.958500 1_655
Fe1 O54 1.981575 1_555
Fe2 O30 1.851323 1_555
Fe2 O26 1.860260 1_555
Fe2 O33 1.876488 1_555
Fe2 O49 1.958500 1_555
Fe2 O53 1.981575 1_555
Fe3 O31 1.851323 1_555
Fe3 O27 1.860260 1_555
Fe3 O32 1.876488 1_455
Fe3 O48 1.958500 1_455
Fe3 O52 1.981575 1_555
Fe4 O47 1.856419 1_555
Fe4 O35 1.891981 1_555
Fe4 O51 1.938245 1_555
Fe4 O39 1.951632 1_555
Fe4 O13 2.026337 1_555
Fe4 O43 2.429577 1_555
Fe5 O46 1.856419 1_555
Fe5 O34 1.891981 1_555
Fe5 O50 1.938245 1_555
Fe5 O38 1.951632 1_555
Fe5 O12 2.026337 1_555
Fe5 O42 2.429577 1_555
Fe6 O45 1.856419 1_555
Fe6 O33 1.891981 1_555
Fe6 O49 1.938245 1_555
Fe6 O37 1.951632 1_555
Fe6 O15 2.026337 1_555
Fe6 O41 2.429577 1_555
Fe7 O44 1.856419 1_555
Fe7 O32 1.891981 1_555
Fe7 O48 1.938245 1_555
Fe7 O36 1.951632 1_555
Fe7 O14 2.026337 1_555
Fe7 O40 2.429577 1_555
Fe8 O28 1.851323 1_555
Fe8 O24 1.860260 1_555
Fe8 O35 1.876488 1_555
Fe8 O51 1.958500 1_555
Fe8 O21 1.981575 1_555
Fe9 O19 1.863023 1_545
Fe9 O31 1.863889 1_555
Fe9 O15 1.878490 1_555
Fe9 O23 1.976457 1_545
Fe9 O5 2.050245 1_555
Fe10 O18 1.863023 1_564
Fe10 O30 1.863889 1_555
Fe10 O14 1.878490 1_555
Fe10 O55 1.976457 1_565
Fe10 O4 2.050245 1_554
Fe11 O17 1.863023 1_565
Fe11 O29 1.863889 1_555
Fe11 O13 1.878490 1_555
Fe11 O22 1.976457 1_565
Fe11 O7 2.050245 1_555
Fe12 O1 1.824663 1_555
Fe12 O9 1.858376 1_555
Fe12 O42 1.895541 1_555
Fe12 O5 1.931710 1_565
Fe13 O3 1.824663 1_555
Fe13 O11 1.858376 1_555
Fe13 O40 1.895541 1_555
Fe13 O7 1.931710 1_545
Fe14 O2 1.824663 1_455
Fe14 O10 1.858376 1_554
Fe14 O41 1.895541 1_555
Fe14 O6 1.931710 1_565
Fe15 O16 1.863023 1_546
Fe15 O28 1.863889 1_555
Fe15 O12 1.878490 1_555
Fe15 O20 1.976457 1_545
Fe15 O6 2.050245 1_556
Co0 O36 1.815898 1_555
Co0 O53 1.849331 1_555
Co0 O51 1.896719 1_554
Co0 O55 1.979705 1_555
Co0 O14 1.985789 1_555
Co0 O43 1.995494 1_554
Co1 O37 1.815898 1_555
Co1 O52 1.849331 1_555
Co1 O50 1.896719 1_555
Co1 O23 1.979705 1_555
Co1 O15 1.985789 1_555
Co1 O42 1.995494 1_555
Co2 O38 1.815898 1_555
Co2 O21 1.849331 1_555
Co2 O49 1.896719 1_556
Co2 O20 1.979705 1_555
Co2 O12 1.985789 1_555
Co2 O41 1.995494 1_556
Co3 O39 1.815898 1_555
Co3 O54 1.849331 1_555
Co3 O48 1.896719 1_555
Co3 O22 1.979705 1_555
Co3 O13 1.985789 1_555
Co3 O40 1.995494 1_555
Co4 O36 1.799645 1_555
Co4 O8 1.811615 1_555
Co4 O44 1.813920 1_545
Co4 O17 1.834350 1_555
Co4 O55 1.995282 1_555
Co4 O7 2.045756 1_545
Co5 O37 1.799645 1_555
Co5 O9 1.811615 1_555
Co5 O45 1.813920 1_565
Co5 O16 1.834350 1_555
Co5 O23 1.995282 1_555
Co5 O6 2.045756 1_565
Co6 O38 1.799645 1_555
Co6 O10 1.811615 1_555
Co6 O46 1.813920 1_565
Co6 O19 1.834350 1_555
Co6 O20 1.995282 1_555
Co6 O5 2.045756 1_565
Co7 O39 1.799645 1_555
Co7 O11 1.811615 1_555
Co7 O47 1.813920 1_545
Co7 O18 1.834350 1_555
Co7 O22 1.995282 1_555
Co7 O4 2.045756 1_545
O0 Zn3 1.975237 1_556
O1 Zn4 1.975237 1_555
O2 Zn1 1.975237 1_554
O3 Zn2 1.975237 1_555
O4 Zn1 2.278159 1_555
O5 Zn2 2.278159 1_555
O6 Zn3 2.278159 1_555
O7 Zn4 2.278159 1_555
O8 Zn5 2.427161 1_645
O9 Zn6 2.427161 1_565
O10 Zn7 2.427161 1_465
O11 Zn0 2.427161 1_545
O16 Zn6 2.019241 1_565
O17 Zn5 2.019241 1_645
O18 Zn0 2.019241 1_545
O19 Zn7 2.019241 1_465
O20 Zn0 2.273195 1_555
O21 Zn0 2.047314 1_555
O22 Zn7 2.273195 1_555
O23 Zn5 2.273195 1_555
O24 Zn2 2.040219 1_555
O24 Zn0 2.084758 1_545
O25 Zn1 2.040219 1_555
O25 Zn7 2.084758 1_565
O26 Zn4 2.040219 1_555
O26 Zn6 2.084758 1_565
O27 Zn3 2.040219 1_555
O27 Zn5 2.084758 1_545
O28 Zn6 2.518643 1_556
O29 Zn5 2.518643 1_655
O30 Zn0 2.518643 1_554
O31 Zn7 2.518643 1_455
O40 Zn4 2.117567 1_555
O41 Zn3 2.117567 1_555
O42 Zn2 2.117567 1_555
O43 Zn1 2.117567 1_555
O44 Zn4 2.116819 1_555
O45 Zn3 2.116819 1_555
O46 Zn2 2.116819 1_555
O47 Zn1 2.116819 1_555
O52 Zn5 2.047314 1_555
O53 Zn6 2.047314 1_555
O54 Zn7 2.047314 1_555
O55 Zn6 2.273195 1_555
