# generated using pymatgen
data_Mg6MnGa
_symmetry_space_group_name_H-M   'P 1'
_cell_length_a   4.93875900
_cell_length_b   6.14532000
_cell_length_c   10.74107700
_cell_angle_alpha   90.00000000
_cell_angle_beta   90.00000000
_cell_angle_gamma   90.00000000
_symmetry_Int_Tables_number   1
_chemical_formula_structural   Mg6MnGa
_chemical_formula_sum   'Mg12 Mn2 Ga2'
_cell_volume   325.99442010
_cell_formula_units_Z   2
loop_
 _symmetry_equiv_pos_site_id
 _symmetry_equiv_pos_as_xyz
  1  'x, y, z'
loop_
 _atom_site_type_symbol
 _atom_site_label
 _atom_site_symmetry_multiplicity
 _atom_site_fract_x
 _atom_site_fract_y
 _atom_site_fract_z
 _atom_site_occupancy
  Mg  Mg0  1  0.50000000  0.24949600  0.41654200  1
  Mg  Mg1  1  0.50000000  0.75050400  0.41654200  1
  Mg  Mg2  1  0.00000000  0.75338600  0.08584100  1
  Mg  Mg3  1  0.00000000  0.24661400  0.08584100  1
  Mg  Mg4  1  0.00000000  0.00000000  0.32905800  1
  Mg  Mg5  1  0.00000000  0.50000000  0.33100200  1
  Mg  Mg6  1  0.50000000  0.74949600  0.91654200  1
  Mg  Mg7  1  0.50000000  0.25050400  0.91654200  1
  Mg  Mg8  1  0.00000000  0.25338600  0.58584100  1
  Mg  Mg9  1  0.00000000  0.74661400  0.58584100  1
  Mg  Mg10  1  0.00000000  0.50000000  0.82905800  1
  Mg  Mg11  1  0.00000000  0.00000000  0.83100200  1
  Mn  Mn0  1  0.50000000  0.00000000  0.16773100  1
  Mn  Mn1  1  0.50000000  0.50000000  0.66773100  1
  Ga  Ga0  1  0.50000000  0.50000000  0.16743800  1
  Ga  Ga1  1  0.50000000  0.00000000  0.66743800  1
loop_
_geom_bond_atom_site_label_1
_geom_bond_atom_site_label_2
_geom_bond_distance
_geom_bond_site_symmetry_2
Mg0 Mg5 3.051532 1_655
Mg0 Mg5 3.051532 1_555
Mg0 Mg4 3.054770 1_655
Mg0 Mg4 3.054770 1_555
Mg0 Mg1 3.066466 1_545
Mg0 Mg8 3.066787 1_555
Mg0 Mg8 3.066787 1_655
Mg0 Mg1 3.078854 1_555
Mg0 Mn0 3.081079 1_555
Mg0 Mn1 3.106326 1_555
Mg1 Mg5 3.051532 1_655
Mg1 Mg5 3.051532 1_555
Mg1 Mg4 3.054770 1_565
Mg1 Mg4 3.054770 1_665
Mg1 Mg9 3.066787 1_655
Mg1 Mg9 3.066787 1_555
Mg1 Mn0 3.081079 1_565
Mg1 Mn1 3.106326 1_555
Mg2 Mg4 3.020183 1_565
Mg2 Mn0 3.027923 1_565
Mg2 Mn0 3.027923 1_465
Mg2 Mg3 3.031044 1_565
Mg2 Mg5 3.059234 1_555
Mg2 Mg6 3.066787 1_454
Mg2 Mg6 3.066787 1_554
Mg2 Mg3 3.114276 1_555
Mg3 Mg4 3.020183 1_555
Mg3 Mn0 3.027923 1_555
Mg3 Mn0 3.027923 1_455
Mg3 Mg5 3.059234 1_555
Mg3 Mg7 3.066787 1_554
Mg3 Mg7 3.066787 1_454
Mg4 Mn0 3.016707 1_455
Mg4 Mn0 3.016707 1_555
Mg4 Mg5 3.072731 1_545
Mg4 Mg5 3.072731 1_555
Mg4 Mg8 3.167323 1_555
Mg4 Mg9 3.167323 1_545
Mg5 Mg8 3.128789 1_555
Mg5 Mg9 3.128789 1_555
Mg6 Mg7 3.066466 1_555
Mg6 Mg7 3.078854 1_565
Mg6 Mn1 3.081079 1_555
Mg6 Mn0 3.106326 1_566
Mg7 Mn1 3.081079 1_555
Mg7 Mn0 3.106326 1_556
Mg8 Mn1 3.027923 1_555
Mg8 Mn1 3.027923 1_455
Mg8 Mg9 3.031044 1_555
Mg8 Mg9 3.114276 1_545
Mg9 Mn1 3.027923 1_555
Mg9 Mn1 3.027923 1_455
Mg10 Mn1 3.016707 1_455
Mg10 Mn1 3.016707 1_555
Mg10 Mg9 3.020183 1_555
Mg10 Mg8 3.020183 1_555
Mg10 Mg6 3.054770 1_455
Mg10 Mg6 3.054770 1_555
Mg10 Mg7 3.054770 1_455
Mg10 Mg7 3.054770 1_555
Mg10 Mg11 3.072731 1_565
Mg10 Mg11 3.072731 1_555
Mg10 Mg3 3.167323 1_556
Mg10 Mg2 3.167323 1_556
Mg11 Mg7 3.051532 1_455
Mg11 Mg7 3.051532 1_555
Mg11 Mg6 3.051532 1_445
Mg11 Mg6 3.051532 1_545
Mg11 Mg9 3.059234 1_545
Mg11 Mg8 3.059234 1_555
Mg11 Mg3 3.128789 1_556
Mg11 Mg2 3.128789 1_546
Ga0 Mg5 3.030572 1_555
Ga0 Mg5 3.030572 1_655
Ga0 Mg3 3.048058 1_655
Ga0 Mg2 3.048058 1_555
Ga0 Mg3 3.048058 1_555
Ga0 Mg2 3.048058 1_655
Ga0 Mn0 3.072662 1_555
Ga0 Mn0 3.072662 1_565
Ga0 Mg1 3.086894 1_555
Ga0 Mg0 3.086894 1_555
Ga0 Mg6 3.100525 1_554
Ga0 Mg7 3.100525 1_554
Ga1 Mg11 3.030572 1_555
Ga1 Mg11 3.030572 1_655
Ga1 Mg8 3.048058 1_555
Ga1 Mg9 3.048058 1_645
Ga1 Mg8 3.048058 1_655
Ga1 Mg9 3.048058 1_545
Ga1 Mn1 3.072662 1_545
Ga1 Mn1 3.072662 1_555
Ga1 Mg7 3.086894 1_555
Ga1 Mg6 3.086894 1_545
Ga1 Mg0 3.100525 1_555
Ga1 Mg1 3.100525 1_545
