# generated using pymatgen
data_Sr2Ca6Mn8O21
_symmetry_space_group_name_H-M   'P 1'
_cell_length_a   11.05817427
_cell_length_b   15.62033526
_cell_length_c   11.00394531
_cell_angle_alpha   90.24366358
_cell_angle_beta   91.15264858
_cell_angle_gamma   90.45129464
_symmetry_Int_Tables_number   1
_chemical_formula_structural   Sr2Ca6Mn8O21
_chemical_formula_sum   'Sr8 Ca24 Mn32 O84'
_cell_volume   1900.27570605
_cell_formula_units_Z   4
loop_
 _symmetry_equiv_pos_site_id
 _symmetry_equiv_pos_as_xyz
  1  'x, y, z'
loop_
 _atom_site_type_symbol
 _atom_site_label
 _atom_site_symmetry_multiplicity
 _atom_site_fract_x
 _atom_site_fract_y
 _atom_site_fract_z
 _atom_site_occupancy
  Sr  Sr0  1  0.99923777  0.11330403  0.50217823  1
  Sr  Sr1  1  0.99938778  0.11269183  0.00093870  1
  Sr  Sr2  1  0.50831009  0.38651375  0.98940600  1
  Sr  Sr3  1  0.50322944  0.38265893  0.50767335  1
  Sr  Sr4  1  0.23693008  0.38635000  0.24378098  1
  Sr  Sr5  1  0.24256271  0.39603321  0.76440414  1
  Sr  Sr6  1  0.23229596  0.11678717  0.24914065  1
  Sr  Sr7  1  0.23062704  0.11181545  0.75064114  1
  Ca  Ca0  1  0.00424089  0.62226368  0.51041172  1
  Ca  Ca1  1  0.01182211  0.61986498  0.99309396  1
  Ca  Ca2  1  0.54421166  0.12601412  0.47594452  1
  Ca  Ca3  1  0.54330068  0.12939225  0.98318879  1
  Ca  Ca4  1  0.52962848  0.62910789  0.51305527  1
  Ca  Ca5  1  0.53343734  0.62241256  0.97477954  1
  Ca  Ca6  1  0.51696688  0.85830004  0.98636182  1
  Ca  Ca7  1  0.49141151  0.86608590  0.50935436  1
  Ca  Ca8  1  0.96403708  0.38789223  0.00142922  1
  Ca  Ca9  1  0.96164945  0.38761421  0.49989471  1
  Ca  Ca10  1  0.95784382  0.88123416  0.99864568  1
  Ca  Ca11  1  0.96681912  0.87256886  0.51175581  1
  Ca  Ca12  1  0.22664747  0.88675093  0.26925575  1
  Ca  Ca13  1  0.21632577  0.87056310  0.73674408  1
  Ca  Ca14  1  0.76776517  0.38176318  0.25491804  1
  Ca  Ca15  1  0.74894609  0.38889216  0.75658638  1
  Ca  Ca16  1  0.76474073  0.86965502  0.25606060  1
  Ca  Ca17  1  0.74317053  0.86620630  0.75244773  1
  Ca  Ca18  1  0.23651919  0.62596369  0.26010976  1
  Ca  Ca19  1  0.26873218  0.62908850  0.73743673  1
  Ca  Ca20  1  0.77922104  0.11878568  0.25038072  1
  Ca  Ca21  1  0.77896049  0.12133724  0.74954336  1
  Ca  Ca22  1  0.78084597  0.62022304  0.25259201  1
  Ca  Ca23  1  0.77056810  0.62261058  0.75664679  1
  Mn  Mn0  1  0.99188029  0.99265339  0.25361957  1
  Mn  Mn1  1  0.99069578  0.99152108  0.75341121  1
  Mn  Mn2  1  0.00237037  0.50253912  0.24889986  1
  Mn  Mn3  1  0.99814394  0.50211598  0.75226514  1
  Mn  Mn4  1  0.50848284  0.98028932  0.23049740  1
  Mn  Mn5  1  0.50958815  0.98849488  0.73215592  1
  Mn  Mn6  1  0.50689329  0.49528762  0.24243462  1
  Mn  Mn7  1  0.49915211  0.50446368  0.74726588  1
  Mn  Mn8  1  0.24553438  0.99147738  0.01721581  1
  Mn  Mn9  1  0.24292140  0.99662175  0.51511076  1
  Mn  Mn10  1  0.25141851  0.51580014  0.00722735  1
  Mn  Mn11  1  0.23639482  0.49887414  0.50779584  1
  Mn  Mn12  1  0.74019674  0.99961804  0.99448126  1
  Mn  Mn13  1  0.74285920  0.99659087  0.49474521  1
  Mn  Mn14  1  0.75246288  0.50510230  0.00176577  1
  Mn  Mn15  1  0.74656875  0.50381812  0.50267958  1
  Mn  Mn16  1  0.26768882  0.23925513  0.96411982  1
  Mn  Mn17  1  0.26672494  0.24558929  0.46536560  1
  Mn  Mn18  1  0.25995883  0.75285716  0.97442183  1
  Mn  Mn19  1  0.24747921  0.75072587  0.49710089  1
  Mn  Mn20  1  0.75458379  0.24960547  0.00513082  1
  Mn  Mn21  1  0.75449129  0.24941576  0.50540946  1
  Mn  Mn22  1  0.75478404  0.74630110  0.00043762  1
  Mn  Mn23  1  0.75213350  0.74571883  0.50524649  1
  Mn  Mn24  1  0.99028883  0.25320301  0.26045050  1
  Mn  Mn25  1  0.99022843  0.25627791  0.76384854  1
  Mn  Mn26  1  0.99631229  0.74955978  0.26286226  1
  Mn  Mn27  1  0.99639513  0.74942561  0.74856299  1
  Mn  Mn28  1  0.52318265  0.25676538  0.25585359  1
  Mn  Mn29  1  0.52199938  0.25297622  0.75214830  1
  Mn  Mn30  1  0.52091658  0.74837219  0.26421704  1
  Mn  Mn31  1  0.50353111  0.74807062  0.74781561  1
  O  O0  1  0.09748268  0.77146559  0.60659613  1
  O  O1  1  0.58810965  0.25444748  0.09786186  1
  O  O2  1  0.58947649  0.24774216  0.59504826  1
  O  O3  1  0.59739329  0.75386967  0.10987727  1
  O  O4  1  0.60165218  0.76246355  0.60345453  1
  O  O5  1  0.40658867  0.20490441  0.35464791  1
  O  O6  1  0.40615136  0.20520597  0.85879429  1
  O  O7  1  0.40530478  0.69939502  0.36346324  1
  O  O8  1  0.41075961  0.73115893  0.89922402  1
  O  O9  1  0.90031888  0.24424642  0.41563355  1
  O  O10  1  0.90143512  0.24260292  0.91803589  1
  O  O11  1  0.89215361  0.72971309  0.40584274  1
  O  O12  1  0.89885514  0.73298507  0.90132022  1
  O  O13  1  0.15043937  0.24947263  0.32281330  1
  O  O14  1  0.15382153  0.24949388  0.82991719  1
  O  O15  1  0.15820752  0.74988856  0.33369570  1
  O  O16  1  0.14639983  0.73930754  0.84497446  1
  O  O17  1  0.65732767  0.22177209  0.34990499  1
  O  O18  1  0.65889729  0.22537923  0.85413479  1
  O  O19  1  0.65708528  0.71797528  0.35587199  1
  O  O20  1  0.65059760  0.72838817  0.85564701  1
  O  O21  1  0.35567934  0.76430819  0.64511504  1
  O  O22  1  0.85165308  0.26998578  0.15181642  1
  O  O23  1  0.85362030  0.27485677  0.65227867  1
  O  O24  1  0.86618303  0.77053815  0.13976844  1
  O  O25  1  0.85112829  0.76952879  0.64630009  1
  O  O26  1  0.36086776  0.51937612  0.16006930  1
  O  O27  1  0.36304169  0.50056793  0.62786639  1
  O  O28  1  0.35072322  0.99698751  0.16912902  1
  O  O29  1  0.35184986  0.98940277  0.66340652  1
  O  O30  1  0.86019009  0.48694632  0.14330601  1
  O  O31  1  0.85934596  0.48172471  0.64139268  1
  O  O32  1  0.84726657  0.98061050  0.13787365  1
  O  O33  1  0.84514957  0.97870016  0.63833954  1
  O  O34  1  0.14322383  0.00572316  0.37072758  1
  O  O35  1  0.14880809  0.99507327  0.87169958  1
  O  O36  1  0.14713986  0.51037778  0.35436575  1
  O  O37  1  0.14465150  0.52687204  0.85910848  1
  O  O38  1  0.63002405  0.02399343  0.33964599  1
  O  O39  1  0.62782786  0.03263922  0.84204115  1
  O  O40  1  0.61779461  0.52423701  0.37014629  1
  O  O41  1  0.64139330  0.51534384  0.86197666  1
  O  O42  1  0.38746827  0.51669639  0.89545696  1
  O  O43  1  0.87961443  0.01052331  0.38523435  1
  O  O44  1  0.87927747  0.00912459  0.88825848  1
  O  O45  1  0.88897336  0.51822498  0.38735417  1
  O  O46  1  0.89021153  0.51591924  0.89396560  1
  O  O47  1  0.10733444  0.48339141  0.10400152  1
  O  O48  1  0.09759358  0.47927368  0.61423766  1
  O  O49  1  0.09820257  0.97358855  0.12193912  1
  O  O50  1  0.09838138  0.97865889  0.62191344  1
  O  O51  1  0.61441865  0.49930657  0.10972760  1
  O  O52  1  0.61507677  0.49137630  0.61822833  1
  O  O53  1  0.58499017  0.99287648  0.07681648  1
  O  O54  1  0.58777031  0.99488443  0.57774512  1
  O  O55  1  0.99352895  0.37905394  0.28055737  1
  O  O56  1  0.00354236  0.38021967  0.79203901  1
  O  O57  1  0.99281381  0.87037731  0.29279745  1
  O  O58  1  0.99376782  0.86973215  0.78908258  1
  O  O59  1  0.47304329  0.37677953  0.27500919  1
  O  O60  1  0.48766250  0.37422639  0.75874581  1
  O  O61  1  0.48083413  0.86891389  0.29378982  1
  O  O62  1  0.52015992  0.87198430  0.78050255  1
  O  O63  1  0.49215411  0.62774678  0.72283093  1
  O  O64  1  0.99640708  0.12826202  0.22753704  1
  O  O65  1  0.99659353  0.12962893  0.73215726  1
  O  O66  1  0.00499921  0.62818066  0.21613319  1
  O  O67  1  0.98578476  0.62529889  0.71792122  1
  O  O68  1  0.24400704  0.12447308  0.02041851  1
  O  O69  1  0.24491854  0.12587547  0.52730005  1
  O  O70  1  0.22446078  0.65212005  0.05172253  1
  O  O71  1  0.22432527  0.62665808  0.52134092  1
  O  O72  1  0.75014580  0.12418028  0.03633507  1
  O  O73  1  0.75373797  0.12226708  0.53317857  1
  O  O74  1  0.75143032  0.62652094  0.03656043  1
  O  O75  1  0.74747891  0.62576975  0.54398969  1
  O  O76  1  0.27214586  0.37147331  0.48827239  1
  O  O77  1  0.28327380  0.35271401  0.00841471  1
  O  O78  1  0.28140290  0.87836653  0.47279033  1
  O  O79  1  0.29408901  0.87103223  0.00111426  1
  O  O80  1  0.74195888  0.37802845  0.46773224  1
  O  O81  1  0.74692935  0.37706441  0.97399357  1
  O  O82  1  0.74253601  0.87115823  0.46391320  1
  O  O83  1  0.73958586  0.87283591  0.96806267  1
loop_
_geom_bond_atom_site_label_1
_geom_bond_atom_site_label_2
_geom_bond_distance
_geom_bond_site_symmetry_2
Ca0 O67 2.296933 1_455
Ca0 O11 2.381005 1_455
Ca0 O71 2.434696 1_555
Ca0 O45 2.445115 1_455
Ca0 O48 2.714828 1_555
Ca0 O0 2.740847 1_555
Ca0 O75 2.871539 1_455
Ca1 O46 2.350773 1_455
Ca1 O12 2.387835 1_455
Ca1 O66 2.459899 1_556
Ca1 O70 2.473189 1_556
Ca1 O37 2.558085 1_555
Ca1 O47 2.674905 1_556
Ca1 O16 2.903779 1_555
Ca2 O2 2.349705 1_555
Ca2 O5 2.361767 1_555
Ca2 O54 2.386571 1_545
Ca2 O73 2.390022 1_555
Ca2 O38 2.397965 1_555
Ca2 O17 2.404896 1_555
Ca3 O72 2.351603 1_556
Ca3 O6 2.352617 1_555
Ca3 O1 2.364789 1_556
Ca3 O39 2.372938 1_555
Ca3 O53 2.415840 1_546
Ca3 O18 2.441252 1_555
Ca4 O63 2.353607 1_555
Ca4 O7 2.398586 1_555
Ca4 O4 2.426389 1_555
Ca4 O75 2.427168 1_555
Ca4 O40 2.484322 1_555
Ca4 O52 2.621071 1_555
Ca4 O19 2.644384 1_555
Ca4 O27 3.012967 1_555
Ca5 O8 2.328078 1_555
Ca5 O41 2.415867 1_555
Ca5 O42 2.446079 1_555
Ca5 O20 2.488036 1_555
Ca5 O74 2.491699 1_556
Ca5 O51 2.588960 1_556
Ca5 O3 2.614482 1_556
Ca5 O63 2.802384 1_555
Ca6 O62 2.277186 1_555
Ca6 O3 2.300500 1_556
Ca6 O53 2.429543 1_556
Ca6 O8 2.478843 1_555
Ca6 O79 2.482703 1_556
Ca6 O83 2.482718 1_555
Ca7 O4 2.274376 1_555
Ca7 O78 2.358367 1_555
Ca7 O61 2.373207 1_555
Ca7 O54 2.381280 1_555
Ca7 O21 2.661746 1_555
Ca7 O82 2.832076 1_555
Ca8 O56 2.356510 1_654
Ca8 O81 2.418196 1_554
Ca8 O47 2.426249 1_655
Ca8 O46 2.463965 1_554
Ca8 O30 2.495930 1_555
Ca8 O10 2.530570 1_554
Ca8 O22 2.783451 1_555
Ca9 O48 2.401584 1_655
Ca9 O31 2.437783 1_555
Ca9 O55 2.449436 1_555
Ca9 O80 2.451280 1_555
Ca9 O9 2.503584 1_555
Ca9 O45 2.519745 1_555
Ca9 O23 2.722792 1_555
Ca10 O58 2.354205 1_555
Ca10 O83 2.432606 1_555
Ca10 O49 2.488815 1_656
Ca10 O44 2.495314 1_565
Ca10 O32 2.517350 1_556
Ca10 O24 2.547014 1_556
Ca10 O12 2.619531 1_555
Ca11 O0 2.379129 1_655
Ca11 O57 2.432356 1_555
Ca11 O50 2.491200 1_655
Ca11 O82 2.524946 1_555
Ca11 O25 2.546214 1_555
Ca11 O33 2.567034 1_555
Ca11 O11 2.632405 1_555
Ca11 O43 2.741542 1_565
Ca12 O78 2.312821 1_555
Ca12 O34 2.366897 1_565
Ca12 O15 2.378010 1_555
Ca12 O28 2.470072 1_555
Ca12 O49 2.538034 1_555
Ca12 O57 2.614544 1_455
Ca12 O61 2.834393 1_555
Ca12 O79 3.067222 1_555
Ca13 O0 2.459187 1_555
Ca13 O50 2.476947 1_555
Ca13 O21 2.496917 1_555
Ca13 O16 2.500540 1_555
Ca13 O29 2.522040 1_555
Ca13 O58 2.538777 1_455
Ca13 O35 2.566771 1_555
Ca14 O22 2.290677 1_555
Ca14 O30 2.300792 1_555
Ca14 O80 2.365720 1_555
Ca14 O55 2.507490 1_555
Ca14 O45 2.883385 1_555
Ca15 O31 2.291266 1_555
Ca15 O81 2.400781 1_555
Ca15 O23 2.428729 1_555
Ca15 O41 2.594985 1_555
Ca15 O52 2.653198 1_555
Ca15 O56 2.838859 1_655
Ca15 O60 2.897170 1_555
Ca15 O46 2.914322 1_555
Ca15 O18 2.948494 1_555
Ca16 O82 2.305287 1_555
Ca16 O24 2.315432 1_555
Ca16 O32 2.360090 1_555
Ca16 O57 2.546151 1_555
Ca16 O19 2.875302 1_555
Ca16 O43 2.886626 1_565
Ca16 O3 3.014292 1_555
Ca17 O25 2.267052 1_555
Ca17 O83 2.375575 1_555
Ca17 O33 2.445524 1_555
Ca17 O62 2.493782 1_555
Ca17 O20 2.646652 1_555
Ca17 O4 2.756313 1_555
Ca17 O58 2.792360 1_555
Ca18 O15 2.279037 1_555
Ca18 O36 2.311167 1_555
Ca18 O70 2.332265 1_555
Ca18 O26 2.440500 1_555
Ca18 O7 2.441834 1_555
Ca18 O66 2.596465 1_555
Ca18 O71 2.880421 1_555
Ca19 O71 2.418466 1_555
Ca19 O63 2.479332 1_555
Ca19 O16 2.505625 1_555
Ca19 O37 2.506419 1_555
Ca19 O21 2.538374 1_555
Ca19 O27 2.575757 1_555
Ca19 O42 2.792871 1_555
Ca19 O8 2.828795 1_555
Ca20 O72 2.372716 1_555
Ca20 O17 2.383837 1_555
Ca20 O64 2.423257 1_555
Ca20 O38 2.432770 1_555
Ca20 O43 2.505781 1_555
Ca20 O32 2.607234 1_545
Ca20 O22 2.724503 1_555
Ca20 O9 2.961570 1_555
Ca21 O73 2.391688 1_555
Ca21 O39 2.406787 1_555
Ca21 O18 2.409997 1_555
Ca21 O65 2.420546 1_555
Ca21 O44 2.572567 1_555
Ca21 O33 2.652510 1_545
Ca21 O23 2.757512 1_555
Ca21 O10 2.947643 1_555
Ca22 O19 2.361527 1_555
Ca22 O74 2.395401 1_555
Ca22 O45 2.479095 1_555
Ca22 O66 2.521124 1_655
Ca22 O30 2.569039 1_555
Ca22 O11 2.672575 1_555
Ca22 O40 2.690732 1_555
Ca22 O24 2.825217 1_555
Ca22 O51 3.037993 1_555
Ca23 O75 2.349613 1_555
Ca23 O20 2.398789 1_555
Ca23 O67 2.426247 1_555
Ca23 O41 2.497335 1_555
Ca23 O46 2.605153 1_555
Ca23 O12 2.714152 1_555
Ca23 O31 2.734160 1_555
Ca23 O25 2.751299 1_555
Mn0 O49 1.908147 1_655
Mn0 O43 1.947050 1_565
Mn0 O57 1.959891 1_555
Mn0 O32 2.031306 1_555
Mn0 O34 2.099712 1_665
Mn0 O64 2.139148 1_565
Mn1 O50 1.903365 1_655
Mn1 O58 1.944512 1_555
Mn1 O44 1.967454 1_565
Mn1 O33 2.035844 1_555
Mn1 O35 2.158856 1_655
Mn1 O65 2.171531 1_565
Mn2 O30 1.949229 1_455
Mn2 O36 1.961030 1_555
Mn2 O55 1.963569 1_455
Mn2 O66 1.997009 1_555
Mn2 O45 2.008027 1_455
Mn2 O47 2.013668 1_555
Mn3 O48 1.926756 1_655
Mn3 O56 1.956628 1_655
Mn3 O31 1.964527 1_555
Mn3 O67 1.967774 1_555
Mn3 O46 1.994590 1_555
Mn3 O37 2.016476 1_655
Mn4 O28 1.878489 1_555
Mn4 O61 1.901491 1_555
Mn4 O38 1.904895 1_565
Mn4 O53 1.916247 1_555
Mn5 O39 1.887397 1_565
Mn5 O29 1.887453 1_555
Mn5 O62 1.902088 1_555
Mn5 O54 1.924482 1_555
Mn6 O26 1.877266 1_555
Mn6 O40 1.897350 1_555
Mn6 O51 1.902546 1_555
Mn6 O59 1.922351 1_555
Mn7 O52 1.943236 1_555
Mn7 O63 1.947463 1_555
Mn7 O27 1.978304 1_555
Mn7 O41 2.002598 1_555
Mn7 O60 2.041921 1_555
Mn7 O42 2.074371 1_555
Mn8 O35 1.908939 1_554
Mn8 O79 1.968814 1_555
Mn8 O28 2.018366 1_555
Mn8 O49 2.032609 1_555
Mn8 O68 2.077794 1_565
Mn9 O34 1.921930 1_565
Mn9 O78 1.955271 1_555
Mn9 O29 2.012753 1_555
Mn9 O50 2.021380 1_555
Mn9 O69 2.022785 1_565
Mn10 O42 1.962282 1_554
Mn10 O47 1.997260 1_555
Mn10 O37 2.002144 1_554
Mn10 O26 2.052529 1_555
Mn10 O70 2.206759 1_555
Mn10 O77 2.574499 1_555
Mn11 O27 1.905893 1_555
Mn11 O36 1.948143 1_555
Mn11 O48 1.972180 1_555
Mn11 O71 2.006645 1_555
Mn11 O76 2.043256 1_555
Mn12 O44 1.955477 1_565
Mn12 O53 1.959123 1_556
Mn12 O32 1.978401 1_556
Mn12 O72 1.999237 1_566
Mn12 O83 2.000318 1_555
Mn12 O39 2.134831 1_565
Mn13 O33 1.947086 1_555
Mn13 O54 1.959236 1_555
Mn13 O43 1.963878 1_565
Mn13 O82 1.986998 1_555
Mn13 O73 2.008552 1_565
Mn13 O38 2.140534 1_565
Mn14 O74 1.933432 1_555
Mn14 O51 1.954868 1_555
Mn14 O46 1.956097 1_554
Mn14 O41 1.956903 1_554
Mn14 O30 1.964634 1_555
Mn14 O81 2.022187 1_554
Mn15 O75 1.956433 1_555
Mn15 O52 1.959793 1_555
Mn15 O31 1.984673 1_555
Mn15 O80 2.000608 1_555
Mn15 O40 2.045478 1_555
Mn15 O45 2.053808 1_555
Mn16 O77 1.841919 1_556
Mn16 O68 1.917175 1_556
Mn16 O14 1.929316 1_555
Mn16 O6 2.012344 1_555
Mn17 O76 1.981662 1_555
Mn17 O69 2.007426 1_555
Mn17 O13 2.009662 1_555
Mn17 O5 2.089259 1_555
Mn18 O70 1.835421 1_556
Mn18 O16 1.889975 1_555
Mn18 O79 1.901616 1_556
Mn18 O8 1.908520 1_555
Mn19 O71 1.972765 1_555
Mn19 O21 2.010986 1_555
Mn19 O15 2.033728 1_555
Mn19 O78 2.045551 1_555
Mn19 O0 2.096063 1_555
Mn19 O7 2.442662 1_555
Mn20 O10 1.905799 1_554
Mn20 O22 1.944087 1_555
Mn20 O18 1.985241 1_554
Mn20 O72 1.990878 1_555
Mn20 O81 2.023793 1_554
Mn20 O1 2.124377 1_555
Mn21 O9 1.910065 1_555
Mn21 O23 1.971765 1_555
Mn21 O73 2.010736 1_555
Mn21 O17 2.044851 1_555
Mn21 O80 2.058210 1_555
Mn21 O2 2.091715 1_555
Mn22 O74 1.914645 1_555
Mn22 O12 1.960669 1_554
Mn22 O20 1.965053 1_554
Mn22 O24 1.980715 1_555
Mn22 O83 2.017570 1_554
Mn22 O3 2.140041 1_555
Mn23 O25 1.914724 1_555
Mn23 O75 1.923826 1_555
Mn23 O11 1.930889 1_555
Mn23 O19 1.977769 1_555
Mn23 O82 2.016511 1_555
Mn23 O4 2.020429 1_555
Mn24 O13 1.887785 1_655
Mn24 O22 1.945057 1_555
Mn24 O55 1.977274 1_555
Mn24 O64 1.985353 1_555
Mn24 O9 1.998395 1_555
Mn25 O14 1.939890 1_655
Mn25 O23 1.951623 1_555
Mn25 O56 1.963316 1_655
Mn25 O10 1.988776 1_555
Mn25 O65 2.009365 1_555
Mn26 O57 1.915187 1_555
Mn26 O15 1.938117 1_655
Mn26 O66 1.965947 1_655
Mn26 O24 1.986349 1_555
Mn26 O11 1.992391 1_555
Mn27 O58 1.930130 1_555
Mn27 O16 1.958775 1_655
Mn27 O67 1.968771 1_555
Mn27 O0 1.969092 1_655
Mn27 O25 1.970685 1_555
Mn27 O12 2.031537 1_555
Mn28 O17 1.877808 1_555
Mn28 O5 1.883574 1_555
Mn28 O1 1.894567 1_555
Mn28 O59 1.970765 1_555
Mn29 O2 1.898312 1_555
Mn29 O6 1.904723 1_555
Mn29 O18 1.919124 1_555
Mn29 O60 1.935931 1_555
Mn30 O7 1.860185 1_555
Mn30 O19 1.861250 1_555
Mn30 O3 1.914375 1_555
Mn30 O61 1.965048 1_555
Mn31 O63 1.901162 1_555
Mn31 O4 1.954446 1_555
Mn31 O62 1.973687 1_555
Mn31 O21 1.987271 1_555
Mn31 O8 1.991561 1_555
Mn31 O20 2.020056 1_555
O1 Sr2 2.542810 1_554
O2 Sr3 2.507461 1_555
O5 Sr6 2.609933 1_555
O6 Sr7 2.675729 1_555
O9 Sr0 2.509360 1_555
O10 Sr1 2.476687 1_556
O13 Sr6 2.411845 1_555
O13 Sr4 2.501897 1_555
O14 Sr7 2.479917 1_555
O14 Sr5 2.594086 1_555
O26 Sr4 2.658346 1_555
O27 Sr5 2.601099 1_555
O27 Sr3 2.766106 1_555
O28 Sr6 2.462314 1_565
O29 Sr7 2.539916 1_565
O32 Sr1 3.070931 1_565
O34 Sr6 2.411601 1_555
O34 Sr0 2.750547 1_455
O35 Sr7 2.441650 1_565
O35 Sr1 2.871972 1_466
O36 Sr4 2.505765 1_555
O37 Sr5 2.548987 1_555
O40 Sr3 2.974453 1_555
O41 Sr2 2.870891 1_555
O42 Sr2 2.644740 1_555
O42 Sr5 2.834803 1_555
O43 Sr0 2.421534 1_555
O44 Sr1 2.408630 1_556
O47 Sr4 2.585083 1_555
O48 Sr5 2.633550 1_555
O49 Sr1 2.773368 1_465
O49 Sr6 2.999822 1_565
O50 Sr0 2.713518 1_465
O50 Sr7 2.883571 1_565
O51 Sr2 2.473670 1_554
O52 Sr3 2.404664 1_555
O55 Sr4 2.731429 1_655
O56 Sr5 2.676249 1_555
O59 Sr3 2.576381 1_555
O59 Sr4 2.632137 1_555
O60 Sr2 2.550125 1_555
O60 Sr5 2.736255 1_555
O60 Sr3 2.775221 1_555
O64 Sr1 2.505182 1_555
O64 Sr6 2.622154 1_655
O64 Sr0 3.031699 1_555
O65 Sr0 2.543189 1_555
O65 Sr7 2.609042 1_655
O65 Sr1 2.970149 1_556
O68 Sr6 2.526091 1_555
O68 Sr1 2.713957 1_455
O68 Sr7 2.974985 1_554
O69 Sr7 2.476457 1_555
O69 Sr0 2.730714 1_455
O72 Sr1 2.798343 1_555
O73 Sr0 2.747515 1_555
O76 Sr3 2.564505 1_555
O76 Sr4 2.721825 1_555
O76 Sr5 3.085282 1_555
O77 Sr2 2.552698 1_554
O77 Sr4 2.700487 1_555
O77 Sr5 2.800323 1_554
O80 Sr3 2.686439 1_555
O81 Sr2 2.652768 1_555
