# generated using pymatgen
data_Zr2U
_symmetry_space_group_name_H-M   'P 1'
_cell_length_a   6.08862200
_cell_length_b   10.17251302
_cell_length_c   10.18587138
_cell_angle_alpha   59.95517392
_cell_angle_beta   90.00000000
_cell_angle_gamma   90.00000000
_symmetry_Int_Tables_number   1
_chemical_formula_structural   Zr2U
_chemical_formula_sum   'Zr16 U8'
_cell_volume   546.10951037
_cell_formula_units_Z   8
loop_
 _symmetry_equiv_pos_site_id
 _symmetry_equiv_pos_as_xyz
  1  'x, y, z'
loop_
 _atom_site_type_symbol
 _atom_site_label
 _atom_site_symmetry_multiplicity
 _atom_site_fract_x
 _atom_site_fract_y
 _atom_site_fract_z
 _atom_site_occupancy
  Zr  Zr0_0  1  0.00000000  0.00014050  0.49990800  1
  Zr  Zr0_1  1  0.00000000  0.00014050  0.99990800  1
  Zr  Zr0_2  1  0.00000000  0.50014050  0.49990800  1
  Zr  Zr0_3  1  0.00000000  0.50014050  0.99990800  1
  Zr  Zr0_4  1  0.50000000  0.00014050  0.49990800  1
  Zr  Zr0_5  1  0.50000000  0.00014050  0.99990800  1
  Zr  Zr0_6  1  0.50000000  0.50014050  0.49990800  1
  Zr  Zr0_7  1  0.50000000  0.50014050  0.99990800  1
  Zr  Zr1_0  1  0.25000000  0.16669500  0.16668900  1
  Zr  Zr1_1  1  0.25000000  0.16669500  0.66668900  1
  Zr  Zr1_2  1  0.25000000  0.66669500  0.16668900  1
  Zr  Zr1_3  1  0.25000000  0.66669500  0.66668900  1
  Zr  Zr1_4  1  0.75000000  0.16669500  0.16668900  1
  Zr  Zr1_5  1  0.75000000  0.16669500  0.66668900  1
  Zr  Zr1_6  1  0.75000000  0.66669500  0.16668900  1
  Zr  Zr1_7  1  0.75000000  0.66669500  0.66668900  1
  U  U0_0  1  0.25000000  0.33311500  0.33345350  1
  U  U0_1  1  0.25000000  0.33311500  0.83345350  1
  U  U0_2  1  0.25000000  0.83311500  0.33345350  1
  U  U0_3  1  0.25000000  0.83311500  0.83345350  1
  U  U0_4  1  0.75000000  0.33311500  0.33345350  1
  U  U0_5  1  0.75000000  0.33311500  0.83345350  1
  U  U0_6  1  0.75000000  0.83311500  0.33345350  1
  U  U0_7  1  0.75000000  0.83311500  0.83345350  1
loop_
_geom_bond_atom_site_label_1
_geom_bond_atom_site_label_2
_geom_bond_distance
_geom_bond_site_symmetry_2
Zr0_0 Zr0_4 3.044311 1_555
Zr0_0 Zr0_4 3.044311 1_455
Zr0_0 Zr1_3 3.307310 1_545
Zr0_0 Zr1_7 3.307310 1_445
Zr0_0 Zr1_0 3.308964 1_555
Zr0_0 Zr1_4 3.308964 1_455
Zr0_0 Zr1_1 3.309931 1_555
Zr0_0 Zr1_5 3.309931 1_455
Zr0_1 Zr0_5 3.044311 1_555
Zr0_1 Zr0_5 3.044311 1_455
Zr0_1 Zr1_2 3.307310 1_546
Zr0_1 Zr1_6 3.307310 1_446
Zr0_1 Zr1_1 3.308964 1_555
Zr0_1 Zr1_5 3.308964 1_455
Zr0_1 Zr1_0 3.309931 1_556
Zr0_1 Zr1_4 3.309931 1_456
Zr0_2 Zr0_6 3.044311 1_555
Zr0_2 Zr0_6 3.044311 1_455
Zr0_2 Zr1_1 3.307310 1_555
Zr0_2 Zr1_5 3.307310 1_455
Zr0_2 Zr1_2 3.308964 1_555
Zr0_2 Zr1_6 3.308964 1_455
Zr0_2 Zr1_3 3.309931 1_555
Zr0_2 Zr1_7 3.309931 1_455
Zr0_3 Zr0_7 3.044311 1_555
Zr0_3 Zr0_7 3.044311 1_455
Zr0_3 Zr1_0 3.307310 1_556
Zr0_3 Zr1_4 3.307310 1_456
Zr0_3 Zr1_3 3.308964 1_555
Zr0_3 Zr1_7 3.308964 1_455
Zr0_3 Zr1_2 3.309931 1_556
Zr0_3 Zr1_6 3.309931 1_456
Zr0_4 Zr1_3 3.307310 1_545
Zr0_4 Zr1_7 3.307310 1_545
Zr0_4 Zr1_0 3.308964 1_555
Zr0_4 Zr1_4 3.308964 1_555
Zr0_4 Zr1_5 3.309931 1_555
Zr0_4 Zr1_1 3.309931 1_555
Zr0_5 Zr1_2 3.307310 1_546
Zr0_5 Zr1_6 3.307310 1_546
Zr0_5 Zr1_1 3.308964 1_555
Zr0_5 Zr1_5 3.308964 1_555
Zr0_5 Zr1_0 3.309931 1_556
Zr0_5 Zr1_4 3.309931 1_556
Zr0_6 Zr1_5 3.307310 1_555
Zr0_6 Zr1_1 3.307310 1_555
Zr0_6 Zr1_2 3.308964 1_555
Zr0_6 Zr1_6 3.308964 1_555
Zr0_6 Zr1_3 3.309931 1_555
Zr0_6 Zr1_7 3.309931 1_555
Zr0_7 Zr1_4 3.307310 1_556
Zr0_7 Zr1_0 3.307310 1_556
Zr0_7 Zr1_3 3.308964 1_555
Zr0_7 Zr1_7 3.308964 1_555
Zr0_7 Zr1_6 3.309931 1_556
Zr0_7 Zr1_2 3.309931 1_556
Zr1_0 Zr1_4 3.044311 1_555
Zr1_0 Zr1_4 3.044311 1_455
Zr1_1 Zr1_5 3.044311 1_555
Zr1_1 Zr1_5 3.044311 1_455
Zr1_2 Zr1_6 3.044311 1_555
Zr1_2 Zr1_6 3.044311 1_455
Zr1_3 Zr1_7 3.044311 1_555
Zr1_3 Zr1_7 3.044311 1_455
U0_0 Zr1_2 2.937396 1_555
U0_0 Zr1_0 2.937834 1_555
U0_0 Zr1_1 2.938223 1_555
U0_0 U0_4 3.044311 1_555
U0_0 U0_4 3.044311 1_455
U0_0 Zr0_0 3.303628 1_555
U0_0 Zr0_4 3.303628 1_555
U0_0 Zr0_2 3.311058 1_555
U0_0 Zr0_6 3.311058 1_555
U0_0 Zr0_3 3.311517 1_554
U0_0 Zr0_7 3.311517 1_554
U0_1 Zr1_3 2.937396 1_555
U0_1 Zr1_1 2.937834 1_555
U0_1 Zr1_0 2.938223 1_556
U0_1 U0_5 3.044311 1_555
U0_1 U0_5 3.044311 1_455
U0_1 Zr0_1 3.303628 1_555
U0_1 Zr0_5 3.303628 1_555
U0_1 Zr0_3 3.311058 1_555
U0_1 Zr0_7 3.311058 1_555
U0_1 Zr0_2 3.311517 1_555
U0_1 Zr0_6 3.311517 1_555
U0_2 Zr1_0 2.937396 1_565
U0_2 Zr1_2 2.937834 1_555
U0_2 Zr1_3 2.938223 1_555
U0_2 U0_6 3.044311 1_555
U0_2 U0_6 3.044311 1_455
U0_2 Zr0_6 3.303628 1_555
U0_2 Zr0_2 3.303628 1_555
U0_2 Zr0_4 3.311058 1_565
U0_2 Zr0_0 3.311058 1_565
U0_2 Zr0_5 3.311517 1_564
U0_2 Zr0_1 3.311517 1_564
U0_3 Zr1_1 2.937396 1_565
U0_3 Zr1_3 2.937834 1_555
U0_3 Zr1_2 2.938223 1_556
U0_3 U0_7 3.044311 1_555
U0_3 U0_7 3.044311 1_455
U0_3 Zr0_3 3.303628 1_555
U0_3 Zr0_7 3.303628 1_555
U0_3 Zr0_1 3.311058 1_565
U0_3 Zr0_5 3.311058 1_565
U0_3 Zr0_0 3.311517 1_565
U0_3 Zr0_4 3.311517 1_565
U0_4 Zr1_6 2.937396 1_555
U0_4 Zr1_4 2.937834 1_555
U0_4 Zr1_5 2.938223 1_555
U0_4 Zr0_4 3.303628 1_555
U0_4 Zr0_0 3.303628 1_655
U0_4 Zr0_6 3.311058 1_555
U0_4 Zr0_2 3.311058 1_655
U0_4 Zr0_7 3.311517 1_554
U0_4 Zr0_3 3.311517 1_654
U0_5 Zr1_7 2.937396 1_555
U0_5 Zr1_5 2.937834 1_555
U0_5 Zr1_4 2.938223 1_556
U0_5 Zr0_5 3.303628 1_555
U0_5 Zr0_1 3.303628 1_655
U0_5 Zr0_7 3.311058 1_555
U0_5 Zr0_3 3.311058 1_655
U0_5 Zr0_6 3.311517 1_555
U0_5 Zr0_2 3.311517 1_655
U0_6 Zr1_4 2.937396 1_565
U0_6 Zr1_6 2.937834 1_555
U0_6 Zr1_7 2.938223 1_555
U0_6 Zr0_6 3.303628 1_555
U0_6 Zr0_2 3.303628 1_655
U0_6 Zr0_4 3.311058 1_565
U0_6 Zr0_0 3.311058 1_665
U0_6 Zr0_5 3.311517 1_564
U0_6 Zr0_1 3.311517 1_664
U0_7 Zr1_5 2.937396 1_565
U0_7 Zr1_7 2.937834 1_555
U0_7 Zr1_6 2.938223 1_556
U0_7 Zr0_7 3.303628 1_555
U0_7 Zr0_3 3.303628 1_655
U0_7 Zr0_5 3.311058 1_565
U0_7 Zr0_1 3.311058 1_665
U0_7 Zr0_4 3.311517 1_565
U0_7 Zr0_0 3.311517 1_665
