# generated using pymatgen
data_Pm3Sm
_symmetry_space_group_name_H-M   'P 1'
_cell_length_a   7.43876461
_cell_length_b   7.43876516
_cell_length_c   5.82506714
_cell_angle_alpha   90.00000000
_cell_angle_beta   90.00000000
_cell_angle_gamma   119.99999014
_symmetry_Int_Tables_number   1
_chemical_formula_structural   Pm3Sm
_chemical_formula_sum   'Pm6 Sm2'
_cell_volume   279.14719900
_cell_formula_units_Z   2
loop_
 _symmetry_equiv_pos_site_id
 _symmetry_equiv_pos_as_xyz
  1  'x, y, z'
loop_
 _atom_site_type_symbol
 _atom_site_label
 _atom_site_symmetry_multiplicity
 _atom_site_fract_x
 _atom_site_fract_y
 _atom_site_fract_z
 _atom_site_occupancy
  Pm  Pm0  1  0.16669166  0.33338233  0.25000000  1
  Pm  Pm1  1  0.66661767  0.83330834  0.25000000  1
  Pm  Pm2  1  0.16669166  0.83330834  0.25000000  1
  Pm  Pm3  1  0.83330834  0.66661767  0.75000000  1
  Pm  Pm4  1  0.33338233  0.16669166  0.75000000  1
  Pm  Pm5  1  0.83330834  0.16669166  0.75000000  1
  Sm  Sm0  1  0.33333300  0.66666700  0.75000000  1
  Sm  Sm1  1  0.66666700  0.33333300  0.25000000  1
loop_
_geom_bond_atom_site_label_1
_geom_bond_atom_site_label_2
_geom_bond_distance
_geom_bond_site_symmetry_2
Pm0 Sm0 3.618394 1_555
Pm0 Sm0 3.618394 1_554
Pm0 Pm4 3.618763 1_555
Pm0 Pm4 3.618763 1_554
Pm0 Pm5 3.618771 1_455
Pm0 Pm5 3.618771 1_454
Pm0 Pm2 3.718832 1_555
Pm0 Pm1 3.718833 1_555
Pm0 Sm1 3.719382 1_455
Pm0 Sm1 3.719382 1_555
Pm0 Pm2 3.719933 1_545
Pm0 Pm1 3.719933 1_445
Pm1 Sm0 3.618394 1_555
Pm1 Sm0 3.618394 1_554
Pm1 Pm3 3.618763 1_555
Pm1 Pm3 3.618763 1_554
Pm1 Pm5 3.618771 1_565
Pm1 Pm5 3.618771 1_564
Pm1 Pm2 3.718832 1_555
Pm1 Sm1 3.719383 1_565
Pm1 Sm1 3.719383 1_555
Pm1 Pm2 3.719933 1_655
Pm2 Sm0 3.618386 1_555
Pm2 Sm0 3.618386 1_554
Pm2 Pm3 3.618771 1_454
Pm2 Pm3 3.618771 1_455
Pm2 Pm4 3.618771 1_564
Pm2 Pm4 3.618771 1_565
Pm2 Sm1 3.719383 1_455
Pm2 Sm1 3.719383 1_565
Pm3 Sm1 3.618394 1_555
Pm3 Sm1 3.618394 1_556
Pm3 Pm5 3.718832 1_555
Pm3 Pm4 3.718833 1_555
Pm3 Sm0 3.719382 1_655
Pm3 Sm0 3.719382 1_555
Pm3 Pm5 3.719933 1_565
Pm3 Pm4 3.719933 1_665
Pm4 Sm1 3.618394 1_556
Pm4 Sm1 3.618394 1_555
Pm4 Pm5 3.718832 1_555
Pm4 Sm0 3.719383 1_545
Pm4 Sm0 3.719383 1_555
Pm4 Pm5 3.719933 1_455
Pm5 Sm1 3.618386 1_556
Pm5 Sm1 3.618386 1_555
Pm5 Sm0 3.719383 1_655
Pm5 Sm0 3.719383 1_545
