# generated using pymatgen
data_Rb3V5O14
_symmetry_space_group_name_H-M   'P 1'
_cell_length_a   8.67828377
_cell_length_b   8.67826909
_cell_length_c   5.33815268
_cell_angle_alpha   90.00017283
_cell_angle_beta   89.99972046
_cell_angle_gamma   120.00016372
_symmetry_Int_Tables_number   1
_chemical_formula_structural   Rb3V5O14
_chemical_formula_sum   'Rb3 V5 O14'
_cell_volume   348.16720830
_cell_formula_units_Z   1
loop_
 _symmetry_equiv_pos_site_id
 _symmetry_equiv_pos_as_xyz
  1  'x, y, z'
loop_
 _atom_site_type_symbol
 _atom_site_label
 _atom_site_symmetry_multiplicity
 _atom_site_fract_x
 _atom_site_fract_y
 _atom_site_fract_z
 _atom_site_occupancy
  Rb  Rb0  1  0.00000075  0.61434802  0.17680652  1
  Rb  Rb1  1  0.61434863  0.00000053  0.17680760  1
  Rb  Rb2  1  0.38565226  0.38565169  0.17680410  1
  V  V0  1  0.76974680  0.76974651  0.67315536  1
  V  V1  1  0.00000025  0.23025263  0.67315606  1
  V  V2  1  0.23025014  0.00000059  0.67315758  1
  V  V3  1  0.33333418  0.66666845  0.65656321  1
  V  V4  1  0.66666743  0.33333316  0.65656162  1
  O  O0  1  0.16831649  0.46053803  0.54476983  1
  O  O1  1  0.29222079  0.83168426  0.54477573  1
  O  O2  1  0.53946242  0.70777868  0.54477062  1
  O  O3  1  0.70777847  0.53946131  0.54476885  1
  O  O4  1  0.83168429  0.29222063  0.54477120  1
  O  O5  1  0.46053723  0.16831600  0.54477466  1
  O  O6  1  -0.00000047  0.83225179  0.61358929  1
  O  O7  1  0.83225293  0.00000017  0.61359067  1
  O  O8  1  0.16774953  0.16775017  0.61359001  1
  O  O9  1  0.74514728  0.74514605  0.97370743  1
  O  O10  1  0.00000079  0.25485261  0.97370599  1
  O  O11  1  0.25484688  -0.00000015  0.97371307  1
  O  O12  1  0.33333464  0.66666734  0.96392281  1
  O  O13  1  0.66666728  0.33333353  0.96392379  1
loop_
_geom_bond_atom_site_label_1
_geom_bond_atom_site_label_2
_geom_bond_distance
_geom_bond_site_symmetry_2
O0 V3 1.745046 1_555
O0 V1 1.917827 1_555
O0 Rb2 3.010605 1_555
O0 Rb0 3.118232 1_555
O1 V3 1.745029 1_555
O1 V2 1.917831 1_565
O1 Rb0 3.010615 1_555
O1 Rb1 3.118244 1_565
O2 V3 1.745035 1_555
O2 V0 1.917828 1_555
O2 Rb1 3.010600 1_565
O2 Rb2 3.118236 1_555
O3 V4 1.745034 1_555
O3 V0 1.917829 1_555
O3 Rb0 3.010593 1_655
O3 Rb2 3.118236 1_555
O4 V4 1.745036 1_555
O4 V1 1.917826 1_655
O4 Rb1 3.010590 1_555
O4 Rb0 3.118234 1_655
O5 V4 1.745034 1_555
O5 V2 1.917829 1_555
O5 Rb2 3.010626 1_555
O5 Rb1 3.118237 1_555
O6 V2 1.817746 1_565
O6 V0 1.817755 1_455
O6 Rb0 3.002066 1_555
O7 V1 1.817749 1_655
O7 V0 1.817758 1_545
O7 Rb1 3.002081 1_555
O8 V2 1.817748 1_555
O8 V1 1.817755 1_555
O8 Rb2 3.002066 1_555
O9 V0 1.618534 1_555
O9 Rb0 3.141018 1_656
O9 Rb1 3.141021 1_566
O9 Rb2 3.302796 1_556
O10 V1 1.618522 1_555
O10 Rb1 3.141010 1_456
O10 Rb2 3.141011 1_556
O10 Rb0 3.302812 1_556
O11 V2 1.618550 1_555
O11 Rb2 3.140980 1_556
O11 Rb0 3.140984 1_546
O11 Rb1 3.302864 1_556
O12 V3 1.640732 1_555
O12 Rb1 2.924409 1_566
O12 Rb0 2.924414 1_556
O12 Rb2 2.924416 1_556
O13 V4 1.640746 1_555
O13 Rb2 2.924406 1_556
O13 Rb0 2.924411 1_656
O13 Rb1 2.924412 1_556
