# generated using pymatgen
data_Ga2(WSe2)3
_symmetry_space_group_name_H-M   'P 1'
_cell_length_a   3.29950285
_cell_length_b   3.29952700
_cell_length_c   57.71213725
_cell_angle_alpha   90.00000000
_cell_angle_beta   89.98792896
_cell_angle_gamma   59.99974789
_symmetry_Int_Tables_number   1
_chemical_formula_structural   Ga2(WSe2)3
_chemical_formula_sum   'Ga4 W6 Se12'
_cell_volume   544.12272987
_cell_formula_units_Z   2
loop_
 _symmetry_equiv_pos_site_id
 _symmetry_equiv_pos_as_xyz
  1  'x, y, z'
loop_
 _atom_site_type_symbol
 _atom_site_label
 _atom_site_symmetry_multiplicity
 _atom_site_fract_x
 _atom_site_fract_y
 _atom_site_fract_z
 _atom_site_occupancy
  Ga  Ga0  1  0.33350100  0.33325000  0.18494200  1
  Ga  Ga1  1  0.33326100  0.33336900  0.50406900  1
  Ga  Ga2  1  0.33396500  0.33301700  0.83742100  1
  Ga  Ga3  1  0.66643900  0.66678100  0.14833200  1
  W  W0  1  0.33336700  0.33331600  0.26232700  1
  W  W1  1  0.33331500  0.33334200  0.58963500  1
  W  W2  1  0.33327300  0.33336300  0.92298100  1
  W  W3  1  0.66654300  0.66672800  0.07099500  1
  W  W4  1  0.66679900  0.66660100  0.41536300  1
  W  W5  1  0.66662200  0.66668900  0.74867800  1
  Se  Se0  1  0.33339400  0.33330300  0.04170700  1
  Se  Se1  1  0.33361700  0.33319200  0.38597900  1
  Se  Se2  1  0.33345600  0.33327200  0.71924800  1
  Se  Se3  1  0.66652400  0.66673800  0.29160500  1
  Se  Se4  1  0.66647200  0.66676400  0.61899400  1
  Se  Se5  1  0.66638200  0.66680900  0.95237100  1
  Se  Se6  1  0.66686000  0.66657000  0.23285900  1
  Se  Se7  1  0.66676700  0.66661700  0.56021900  1
  Se  Se8  1  0.66674100  0.66662900  0.89362800  1
  Se  Se9  1  0.33307400  0.33346300  0.10046100  1
  Se  Se10  1  0.33331400  0.33334300  0.44481400  1
  Se  Se11  1  0.33311300  0.33344300  0.77804000  1
loop_
_geom_bond_atom_site_label_1
_geom_bond_atom_site_label_2
_geom_bond_distance
_geom_bond_site_symmetry_2
Ga0 Ga3 2.844277 1_545
Ga0 Ga3 2.844277 1_555
Ga0 Ga3 2.845918 1_455
Se0 W3 2.546712 1_555
Se0 W3 2.546713 1_545
Se0 W3 2.546832 1_455
Se1 W4 2.550429 1_545
Se1 W4 2.550429 1_555
Se1 W4 2.550440 1_455
Se2 W5 2.552178 1_545
Se2 W5 2.552178 1_555
Se2 W5 2.552240 1_455
Se3 W0 2.546337 1_565
Se3 W0 2.546339 1_555
Se3 W0 2.546432 1_655
Se4 W1 2.549442 1_565
Se4 W1 2.549444 1_555
Se4 W1 2.549535 1_655
Se5 W2 2.550580 1_565
Se5 W2 2.550582 1_555
Se5 W2 2.550826 1_655
Se6 W0 2.553620 1_655
Se6 W0 2.553677 1_565
Se6 W0 2.553679 1_555
Se7 W1 2.551635 1_565
Se7 W1 2.551639 1_555
Se7 W1 2.551709 1_655
Se8 W2 2.549237 1_565
Se8 W2 2.549237 1_555
Se8 W2 2.549257 1_655
Se9 W3 2.553575 1_555
Se9 W3 2.553576 1_545
Se9 W3 2.553594 1_455
Se10 W4 2.552983 1_455
Se10 W4 2.553015 1_545
Se10 W4 2.553017 1_555
Se11 W5 2.549515 1_455
Se11 W5 2.549624 1_545
Se11 W5 2.549627 1_555
