# generated using pymatgen
data_CaLa2Mn3O9
_symmetry_space_group_name_H-M   'P 1'
_cell_length_a   5.55609400
_cell_length_b   7.74046700
_cell_length_c   16.62937500
_cell_angle_alpha   90.00000000
_cell_angle_beta   90.00000000
_cell_angle_gamma   90.00000000
_symmetry_Int_Tables_number   1
_chemical_formula_structural   CaLa2Mn3O9
_chemical_formula_sum   'Ca4 La8 Mn12 O36'
_cell_volume   715.17557709
_cell_formula_units_Z   4
loop_
 _symmetry_equiv_pos_site_id
 _symmetry_equiv_pos_as_xyz
  1  'x, y, z'
loop_
 _atom_site_type_symbol
 _atom_site_label
 _atom_site_symmetry_multiplicity
 _atom_site_fract_x
 _atom_site_fract_y
 _atom_site_fract_z
 _atom_site_occupancy
  Ca  Ca0  1  0.00731000  0.75000000  0.34255300  1
  Ca  Ca1  1  0.49269000  0.75000000  0.84255300  1
  Ca  Ca2  1  0.99269000  0.25000000  0.65744700  1
  Ca  Ca3  1  0.50731000  0.25000000  0.15744700  1
  La  La0  1  0.00320900  0.75000000  0.00589200  1
  La  La1  1  0.00665700  0.75000000  0.67615900  1
  La  La2  1  0.49334300  0.75000000  0.17615900  1
  La  La3  1  0.49679100  0.75000000  0.50589200  1
  La  La4  1  0.99334300  0.25000000  0.32384100  1
  La  La5  1  0.99679100  0.25000000  0.99410800  1
  La  La6  1  0.50320900  0.25000000  0.49410800  1
  La  La7  1  0.50665700  0.25000000  0.82384100  1
  Mn  Mn0  1  0.49948500  0.50094300  0.33254500  1
  Mn  Mn1  1  0.50000000  0.50000000  0.00000000  1
  Mn  Mn2  1  0.50051500  0.49905700  0.66745500  1
  Mn  Mn3  1  0.99948500  0.00094300  0.16745500  1
  Mn  Mn4  1  0.00051500  0.99905700  0.83254500  1
  Mn  Mn5  1  0.00000000  0.00000000  0.50000000  1
  Mn  Mn6  1  0.49948500  0.99905700  0.33254500  1
  Mn  Mn7  1  0.50000000  0.00000000  0.00000000  1
  Mn  Mn8  1  0.50051500  0.00094300  0.66745500  1
  Mn  Mn9  1  0.00000000  0.50000000  0.50000000  1
  Mn  Mn10  1  0.99948500  0.49905700  0.16745500  1
  Mn  Mn11  1  0.00051500  0.50094300  0.83254500  1
  O  O0  1  0.71943400  0.45937000  0.23940300  1
  O  O1  1  0.72805800  0.46104600  0.90820300  1
  O  O2  1  0.72174700  0.46674500  0.57355400  1
  O  O3  1  0.77194200  0.03895400  0.40820300  1
  O  O4  1  0.77825300  0.03325500  0.07355400  1
  O  O5  1  0.78056600  0.04063000  0.73940300  1
  O  O6  1  0.27825300  0.96674500  0.42644600  1
  O  O7  1  0.27194200  0.96104600  0.09179700  1
  O  O8  1  0.28056600  0.95937000  0.76059700  1
  O  O9  1  0.21943400  0.54063000  0.26059700  1
  O  O10  1  0.22174700  0.53325500  0.92644600  1
  O  O11  1  0.22805800  0.53895400  0.59179700  1
  O  O12  1  0.27825300  0.53325500  0.42644600  1
  O  O13  1  0.27194200  0.53895400  0.09179700  1
  O  O14  1  0.28056600  0.54063000  0.76059700  1
  O  O15  1  0.21943400  0.95937000  0.26059700  1
  O  O16  1  0.22174700  0.96674500  0.92644600  1
  O  O17  1  0.22805800  0.96104600  0.59179700  1
  O  O18  1  0.71943400  0.04063000  0.23940300  1
  O  O19  1  0.72805800  0.03895400  0.90820300  1
  O  O20  1  0.72174700  0.03325500  0.57355400  1
  O  O21  1  0.77194200  0.46104600  0.40820300  1
  O  O22  1  0.77825300  0.46674500  0.07355400  1
  O  O23  1  0.78056600  0.45937000  0.73940300  1
  O  O24  1  0.93320000  0.75000000  0.49722900  1
  O  O25  1  0.92931300  0.75000000  0.16046000  1
  O  O26  1  0.92196600  0.75000000  0.82929600  1
  O  O27  1  0.57803400  0.75000000  0.32929600  1
  O  O28  1  0.56680000  0.75000000  0.99722900  1
  O  O29  1  0.57068700  0.75000000  0.66046000  1
  O  O30  1  0.07803400  0.25000000  0.17070400  1
  O  O31  1  0.07068700  0.25000000  0.83954000  1
  O  O32  1  0.06680000  0.25000000  0.50277100  1
  O  O33  1  0.42931300  0.25000000  0.33954000  1
  O  O34  1  0.43320000  0.25000000  0.00277100  1
  O  O35  1  0.42196600  0.25000000  0.67070400  1
loop_
_geom_bond_atom_site_label_1
_geom_bond_atom_site_label_2
_geom_bond_distance
_geom_bond_site_symmetry_2
Ca0 O27 2.395265 1_455
Ca0 O9 2.423407 1_555
Ca0 O15 2.423407 1_555
Ca0 O24 2.604915 1_455
Ca0 O12 2.650878 1_555
Ca0 O6 2.650878 1_555
Ca0 O21 2.811504 1_455
Ca0 O3 2.811504 1_465
Ca1 O26 2.395265 1_555
Ca1 O14 2.423407 1_555
Ca1 O8 2.423407 1_555
Ca1 O28 2.604915 1_555
Ca1 O16 2.650878 1_555
Ca1 O10 2.650878 1_555
Ca1 O19 2.811504 1_565
Ca1 O1 2.811504 1_555
Ca2 O35 2.395265 1_655
Ca2 O5 2.423407 1_555
Ca2 O23 2.423407 1_555
Ca2 O32 2.604915 1_655
Ca2 O20 2.650878 1_555
Ca2 O2 2.650878 1_555
Ca2 O17 2.811504 1_645
Ca2 O11 2.811504 1_655
Ca3 O30 2.395265 1_555
Ca3 O0 2.423407 1_555
Ca3 O18 2.423407 1_555
Ca3 O34 2.604915 1_555
Ca3 O22 2.650878 1_555
Ca3 O4 2.650878 1_555
Ca3 O7 2.811504 1_545
Ca3 O13 2.811504 1_555
La0 O28 2.429005 1_454
La0 O16 2.456508 1_554
La0 O10 2.456508 1_554
La0 O25 2.602954 1_455
La0 O13 2.634149 1_555
La0 O7 2.634149 1_555
La0 O22 2.763220 1_455
La0 O4 2.763220 1_465
La0 O26 2.971170 1_454
La0 O28 3.134677 1_554
La0 O19 3.158908 1_464
La0 O1 3.158908 1_454
La1 O29 2.436318 1_455
La1 O17 2.479905 1_555
La1 O11 2.479905 1_555
La1 O26 2.589682 1_455
La1 O14 2.629472 1_555
La1 O8 2.629472 1_555
La1 O5 2.782955 1_465
La1 O23 2.782955 1_455
La1 O24 3.003355 1_455
La1 O29 3.144659 1_555
La1 O2 3.197551 1_455
La1 O20 3.197551 1_465
La2 O25 2.436318 1_555
La2 O7 2.479905 1_555
La2 O13 2.479905 1_555
La2 O27 2.589682 1_555
La2 O9 2.629472 1_555
La2 O15 2.629472 1_555
La2 O18 2.782955 1_565
La2 O0 2.782955 1_555
La2 O28 3.003355 1_554
La2 O25 3.144659 1_455
La2 O22 3.197551 1_555
La2 O4 3.197551 1_565
La3 O24 2.429005 1_555
La3 O6 2.456508 1_555
La3 O12 2.456508 1_555
La3 O29 2.602954 1_555
La3 O11 2.634149 1_555
La3 O17 2.634149 1_555
La3 O2 2.763220 1_555
La3 O20 2.763220 1_565
La3 O27 2.971170 1_555
La3 O24 3.134677 1_455
La3 O3 3.158908 1_565
La3 O21 3.158908 1_555
La4 O33 2.436318 1_655
La4 O3 2.479905 1_555
La4 O21 2.479905 1_555
La4 O30 2.589682 1_655
La4 O18 2.629472 1_555
La4 O0 2.629472 1_555
La4 O9 2.782955 1_655
La4 O15 2.782955 1_645
La4 O32 3.003355 1_655
La4 O33 3.144659 1_555
La4 O12 3.197551 1_655
La4 O6 3.197551 1_645
La5 O34 2.429005 1_656
La5 O22 2.456508 1_556
La5 O4 2.456508 1_556
La5 O31 2.602954 1_655
La5 O1 2.634149 1_555
La5 O19 2.634149 1_555
La5 O16 2.763220 1_645
La5 O10 2.763220 1_655
La5 O30 2.971170 1_656
La5 O34 3.134677 1_556
La5 O7 3.158908 1_646
La5 O13 3.158908 1_656
La6 O32 2.429005 1_555
La6 O2 2.456508 1_555
La6 O20 2.456508 1_555
La6 O33 2.602954 1_555
La6 O21 2.634149 1_555
La6 O3 2.634149 1_555
La6 O6 2.763220 1_545
La6 O12 2.763220 1_555
La6 O35 2.971170 1_555
La6 O32 3.134677 1_655
La6 O11 3.158908 1_555
La6 O17 3.158908 1_545
La7 O31 2.436318 1_555
La7 O19 2.479905 1_555
La7 O1 2.479905 1_555
La7 O35 2.589682 1_555
La7 O5 2.629472 1_555
La7 O23 2.629472 1_555
La7 O14 2.782955 1_555
La7 O8 2.782955 1_545
La7 O34 3.003355 1_556
La7 O31 3.144659 1_655
La7 O16 3.197551 1_545
La7 O10 3.197551 1_555
Mn0 O27 1.977338 1_555
Mn0 O33 1.984570 1_555
Mn0 O9 1.986697 1_555
Mn0 O21 1.992456 1_555
Mn0 O0 1.999011 1_555
Mn0 O12 2.002943 1_555
Mn1 O28 1.970926 1_554
Mn1 O34 1.970926 1_555
Mn1 O22 1.988087 1_555
Mn1 O10 1.988087 1_554
Mn1 O13 2.006682 1_555
Mn1 O1 2.006682 1_554
Mn2 O35 1.977338 1_555
Mn2 O29 1.984570 1_555
Mn2 O23 1.986697 1_555
Mn2 O11 1.992456 1_555
Mn2 O14 1.999011 1_555
Mn2 O2 2.002943 1_555
Mn3 O30 1.977338 1_655
Mn3 O25 1.984570 1_545
Mn3 O18 1.986697 1_555
Mn3 O7 1.992456 1_645
Mn3 O15 1.999011 1_645
Mn3 O4 2.002943 1_555
Mn4 O26 1.977338 1_455
Mn4 O31 1.984570 1_565
Mn4 O8 1.986697 1_555
Mn4 O19 1.992456 1_465
Mn4 O5 1.999011 1_465
Mn4 O16 2.002943 1_555
Mn5 O32 1.970926 1_555
Mn5 O24 1.970926 1_445
Mn5 O20 1.988087 1_455
Mn5 O6 1.988087 1_545
Mn5 O3 2.006682 1_455
Mn5 O17 2.006682 1_545
Mn6 O27 1.977338 1_555
Mn6 O33 1.984570 1_565
Mn6 O15 1.986697 1_555
Mn6 O3 1.992456 1_565
Mn6 O18 1.999011 1_565
Mn6 O6 2.002943 1_555
Mn7 O28 1.970926 1_544
Mn7 O34 1.970926 1_555
Mn7 O4 1.988087 1_555
Mn7 O16 1.988087 1_544
Mn7 O19 2.006682 1_554
Mn7 O7 2.006682 1_545
Mn8 O35 1.977338 1_555
Mn8 O29 1.984570 1_545
Mn8 O5 1.986697 1_555
Mn8 O17 1.992456 1_545
Mn8 O8 1.999011 1_545
Mn8 O20 2.002943 1_555
Mn9 O32 1.970926 1_555
Mn9 O24 1.970926 1_455
Mn9 O2 1.988087 1_455
Mn9 O12 1.988087 1_555
Mn9 O11 2.006682 1_555
Mn9 O21 2.006682 1_455
Mn10 O30 1.977338 1_655
Mn10 O25 1.984570 1_555
Mn10 O0 1.986697 1_555
Mn10 O13 1.992456 1_655
Mn10 O9 1.999011 1_655
Mn10 O22 2.002943 1_555
Mn11 O26 1.977338 1_455
Mn11 O31 1.984570 1_555
Mn11 O14 1.986697 1_555
Mn11 O1 1.992456 1_455
Mn11 O23 1.999011 1_455
Mn11 O10 2.002943 1_555
