# generated using pymatgen
data_Zn2BiSbO6
_symmetry_space_group_name_H-M   'P 1'
_cell_length_a   8.17853800
_cell_length_b   5.53155100
_cell_length_c   5.61081233
_cell_angle_alpha   87.94704515
_cell_angle_beta   90.00000000
_cell_angle_gamma   90.00000000
_symmetry_Int_Tables_number   1
_chemical_formula_structural   Zn2BiSbO6
_chemical_formula_sum   'Zn4 Bi2 Sb2 O12'
_cell_volume   253.67022593
_cell_formula_units_Z   2
loop_
 _symmetry_equiv_pos_site_id
 _symmetry_equiv_pos_as_xyz
  1  'x, y, z'
loop_
 _atom_site_type_symbol
 _atom_site_label
 _atom_site_symmetry_multiplicity
 _atom_site_fract_x
 _atom_site_fract_y
 _atom_site_fract_z
 _atom_site_occupancy
  Zn  Zn0  1  0.75000000  0.52277500  0.49407500  1
  Zn  Zn1  1  0.25000000  0.47722500  0.50592500  1
  Zn  Zn2  1  0.75000000  0.01130300  0.03230400  1
  Zn  Zn3  1  0.25000000  0.98869700  0.96769600  1
  Bi  Bi0  1  0.50000000  0.00000000  0.50000000  1
  Bi  Bi1  1  0.00000000  0.00000000  0.50000000  1
  Sb  Sb0  1  0.50000000  0.50000000  0.00000000  1
  Sb  Sb1  1  0.00000000  0.50000000  0.00000000  1
  O  O0  1  0.42779100  0.63932500  0.30759400  1
  O  O1  1  0.07239500  0.18146800  0.12686300  1
  O  O2  1  0.92779100  0.36067500  0.69240600  1
  O  O3  1  0.57239500  0.81853200  0.87313700  1
  O  O4  1  0.42760500  0.18146800  0.12686300  1
  O  O5  1  0.92760500  0.81853200  0.87313700  1
  O  O6  1  0.25000000  0.61193400  0.86305600  1
  O  O7  1  0.07220900  0.63932500  0.30759400  1
  O  O8  1  0.75000000  0.86593000  0.36767700  1
  O  O9  1  0.57220900  0.36067500  0.69240600  1
  O  O10  1  0.75000000  0.38806600  0.13694400  1
  O  O11  1  0.25000000  0.13407000  0.63232300  1
loop_
_geom_bond_atom_site_label_1
_geom_bond_atom_site_label_2
_geom_bond_distance
_geom_bond_site_symmetry_2
Bi0 O8 2.306770 1_545
Bi0 O11 2.306770 1_555
Bi0 O4 2.364483 1_555
Bi0 O3 2.364483 1_545
Bi0 O0 2.376743 1_545
Bi0 O9 2.376743 1_555
Bi1 O8 2.306770 1_445
Bi1 O11 2.306770 1_555
Bi1 O1 2.364483 1_555
Bi1 O5 2.364483 1_445
Bi1 O2 2.376743 1_455
Bi1 O7 2.376743 1_545
O0 Sb0 2.004141 1_555
O0 Zn1 2.021177 1_555
O1 Sb1 1.967723 1_555
O1 Zn3 2.027984 1_544
O2 Sb1 2.004141 1_656
O2 Zn0 2.021177 1_555
O3 Sb0 1.967723 1_556
O3 Zn2 2.027984 1_566
O4 Sb0 1.967723 1_555
O4 Zn3 2.027984 1_544
O5 Sb1 1.967723 1_656
O5 Zn2 2.027984 1_566
O6 Zn1 2.162734 1_555
O6 Zn3 2.185355 1_555
O6 Sb1 2.262786 1_556
O6 Sb0 2.262786 1_556
O7 Sb1 2.004141 1_555
O7 Zn1 2.021177 1_555
O8 Zn0 2.002397 1_555
O8 Zn2 2.019673 1_565
O9 Sb0 2.004141 1_556
O9 Zn0 2.021177 1_555
O10 Zn0 2.162734 1_555
O10 Zn2 2.185355 1_555
O10 Sb1 2.262786 1_655
O10 Sb0 2.262786 1_555
O11 Zn1 2.002397 1_555
O11 Zn3 2.019673 1_545
