# generated using pymatgen
data_BaCaSmNbO6
_symmetry_space_group_name_H-M   'P 1'
_cell_length_a   5.93838456
_cell_length_b   6.01274901
_cell_length_c   8.47797239
_cell_angle_alpha   90.56977011
_cell_angle_beta   89.45911849
_cell_angle_gamma   89.93885785
_symmetry_Int_Tables_number   1
_chemical_formula_structural   BaCaSmNbO6
_chemical_formula_sum   'Ba2 Ca2 Sm2 Nb2 O12'
_cell_volume   302.68595782
_cell_formula_units_Z   2
loop_
 _symmetry_equiv_pos_site_id
 _symmetry_equiv_pos_as_xyz
  1  'x, y, z'
loop_
 _atom_site_type_symbol
 _atom_site_label
 _atom_site_symmetry_multiplicity
 _atom_site_fract_x
 _atom_site_fract_y
 _atom_site_fract_z
 _atom_site_occupancy
  Ba  Ba0  1  0.99471148  0.03227325  0.25052363  1
  Ba  Ba1  1  0.00528852  0.96772675  0.74947637  1
  Ca  Ca0  1  0.50858768  0.54074359  0.25383332  1
  Ca  Ca1  1  0.49141232  0.45925641  0.74616668  1
  Sm  Sm0  1  0.50000000  0.00000000  0.00000000  1
  Sm  Sm1  1  0.00000000  0.50000000  0.50000000  1
  Nb  Nb0  1  0.00000000  0.50000000  0.00000000  1
  Nb  Nb1  1  0.50000000  0.00000000  0.50000000  1
  O  O0  1  0.19355180  0.22944106  0.96085333  1
  O  O1  1  0.31883440  0.71793248  0.55618291  1
  O  O2  1  0.80644820  0.77055894  0.03914667  1
  O  O3  1  0.68116560  0.28206752  0.44381709  1
  O  O4  1  0.27434102  0.68853378  0.93898206  1
  O  O5  1  0.22584877  0.19339307  0.52888713  1
  O  O6  1  0.72565898  0.31146622  0.06101794  1
  O  O7  1  0.77415123  0.80660693  0.47111287  1
  O  O8  1  0.43434167  0.94145996  0.26788400  1
  O  O9  1  0.10725270  0.49967638  0.23105486  1
  O  O10  1  0.56565833  0.05854004  0.73211600  1
  O  O11  1  0.89274730  0.50032362  0.76894514  1
loop_
_geom_bond_atom_site_label_1
_geom_bond_atom_site_label_2
_geom_bond_distance
_geom_bond_site_symmetry_2
Ba0 O2 2.631178 1_545
Ba0 O7 2.657458 1_545
Ba0 O8 2.672330 1_645
Ba0 O6 2.836984 1_555
Ba0 O3 2.880220 1_555
Ba0 O9 2.895386 1_655
Ba0 O5 2.900074 1_655
Ba0 O0 2.972693 1_654
Ba1 O0 2.631178 1_565
Ba1 O5 2.657458 1_565
Ba1 O10 2.672330 1_465
Ba1 O4 2.836984 1_555
Ba1 O1 2.880220 1_555
Ba1 O11 2.895386 1_455
Ba1 O7 2.900074 1_455
Ba1 O2 2.972693 1_456
Ca0 O9 2.405680 1_555
Ca0 O8 2.450481 1_555
Ca0 O3 2.478161 1_555
Ca0 O6 2.479103 1_555
Ca0 O2 2.888835 1_555
Ca0 O7 2.904715 1_555
Ca0 O1 2.977240 1_555
Ca1 O11 2.405680 1_555
Ca1 O10 2.450481 1_555
Ca1 O1 2.478161 1_555
Ca1 O4 2.479103 1_555
Ca1 O0 2.888835 1_555
Ca1 O5 2.904715 1_555
Ca1 O3 2.977240 1_555
Nb0 O0 2.013899 1_554
Nb0 O2 2.013899 1_455
Nb0 O4 2.050968 1_554
Nb0 O6 2.050968 1_455
Nb0 O9 2.065546 1_555
Nb0 O11 2.065546 1_454
Nb1 O5 2.011303 1_555
Nb1 O7 2.011303 1_545
Nb1 O10 2.037019 1_555
Nb1 O8 2.037019 1_545
Nb1 O1 2.066639 1_545
Nb1 O3 2.066639 1_555
O0 Sm0 2.310890 1_556
O1 Sm1 2.353440 1_555
O2 Sm0 2.310890 1_565
O3 Sm1 2.353440 1_655
O4 Sm0 2.360038 1_566
O5 Sm1 2.295063 1_555
O6 Sm0 2.360038 1_555
O7 Sm1 2.295063 1_655
O8 Sm0 2.330954 1_565
O9 Sm1 2.361577 1_555
O10 Sm0 2.330954 1_556
O11 Sm1 2.361577 1_655
