# generated using pymatgen
data_Ca4ZnAg3
_symmetry_space_group_name_H-M   'P 1'
_cell_length_a   4.27504297
_cell_length_b   4.44679564
_cell_length_c   11.30738330
_cell_angle_alpha   90.00000000
_cell_angle_beta   90.00000000
_cell_angle_gamma   90.00000000
_symmetry_Int_Tables_number   1
_chemical_formula_structural   Ca4ZnAg3
_chemical_formula_sum   'Ca4 Zn1 Ag3'
_cell_volume   214.95609789
_cell_formula_units_Z   1
loop_
 _symmetry_equiv_pos_site_id
 _symmetry_equiv_pos_as_xyz
  1  'x, y, z'
loop_
 _atom_site_type_symbol
 _atom_site_label
 _atom_site_symmetry_multiplicity
 _atom_site_fract_x
 _atom_site_fract_y
 _atom_site_fract_z
 _atom_site_occupancy
  Ca  Ca0  1  0.50000000  0.50000000  0.14376041  1
  Ca  Ca1  1  0.00000000  0.50000000  0.64272824  1
  Ca  Ca2  1  -0.00000000  -0.00000000  0.35752422  1
  Ca  Ca3  1  0.50000000  0.00000000  0.85682305  1
  Zn  Zn0  1  0.50000000  0.50000000  0.43247154  1
  Ag  Ag0  1  0.00000000  0.50000000  0.92478003  1
  Ag  Ag1  1  -0.00000000  -0.00000000  0.07528149  1
  Ag  Ag2  1  0.50000000  0.00000000  0.56663101  1
loop_
_geom_bond_atom_site_label_1
_geom_bond_atom_site_label_2
_geom_bond_distance
_geom_bond_site_symmetry_2
Ca0 Zn0 3.264567 1_555
Ca1 Zn0 3.197074 1_455
Ca1 Zn0 3.197074 1_555
Ca2 Zn0 3.198544 1_455
Ca2 Zn0 3.198544 1_445
Ca2 Zn0 3.198544 1_555
Ca2 Zn0 3.198544 1_545
Ag0 Ag1 2.799919 1_566
Ag0 Ag1 2.799919 1_556
Ag0 Ca3 3.178515 1_565
Ag0 Ca3 3.178515 1_465
Ag0 Ca3 3.178515 1_455
Ag0 Ca3 3.178515 1_555
Ag0 Ca1 3.189268 1_555
Ag0 Ca0 3.271092 1_456
Ag0 Ca0 3.271092 1_556
Ag1 Ca0 3.179947 1_545
Ag1 Ca0 3.179947 1_455
Ag1 Ca0 3.179947 1_445
Ag1 Ca0 3.179947 1_555
Ag1 Ca2 3.191427 1_555
Ag1 Ca3 3.266627 1_554
Ag1 Ca3 3.266627 1_454
Ag2 Zn0 2.691610 1_555
Ag2 Zn0 2.691610 1_545
Ag2 Ca2 3.187417 1_555
Ag2 Ca2 3.187417 1_655
Ag2 Ca1 3.202013 1_545
Ag2 Ca1 3.202013 1_555
Ag2 Ca1 3.202013 1_655
Ag2 Ca1 3.202013 1_645
Ag2 Ca3 3.281313 1_555
