# generated using pymatgen
data_Al3Au8
_symmetry_space_group_name_H-M   'P 1'
_cell_length_a   14.99805417
_cell_length_b   14.99805417
_cell_length_c   14.99805446
_cell_angle_alpha   30.31668409
_cell_angle_beta   30.31668409
_cell_angle_gamma   30.31668143
_symmetry_Int_Tables_number   1
_chemical_formula_structural   Al3Au8
_chemical_formula_sum   'Al12 Au32'
_cell_volume   761.79663423
_cell_formula_units_Z   4
loop_
 _symmetry_equiv_pos_site_id
 _symmetry_equiv_pos_as_xyz
  1  'x, y, z'
loop_
 _atom_site_type_symbol
 _atom_site_label
 _atom_site_symmetry_multiplicity
 _atom_site_fract_x
 _atom_site_fract_y
 _atom_site_fract_z
 _atom_site_occupancy
  Al  Al0  1  0.00000000  0.00000000  0.00000000  1
  Al  Al1  1  0.50000000  0.50000000  0.50000000  1
  Al  Al2  1  0.84373300  0.84373300  0.84373300  1
  Al  Al3  1  0.65626700  0.65626700  0.65626700  1
  Al  Al4  1  0.15626700  0.15626700  0.15626700  1
  Al  Al5  1  0.34373300  0.34373300  0.34373300  1
  Al  Al6  1  0.56627400  0.93372600  0.25000000  1
  Al  Al7  1  0.93372600  0.25000000  0.56627400  1
  Al  Al8  1  0.25000000  0.56627400  0.93372600  1
  Al  Al9  1  0.43372600  0.06627400  0.75000000  1
  Al  Al10  1  0.06627400  0.75000000  0.43372600  1
  Al  Al11  1  0.75000000  0.43372600  0.06627400  1
  Au  Au0  1  0.78249100  0.78249100  0.78249100  1
  Au  Au1  1  0.71750900  0.71750900  0.71750900  1
  Au  Au2  1  0.21750900  0.21750900  0.21750900  1
  Au  Au3  1  0.28249100  0.28249100  0.28249100  1
  Au  Au4  1  0.06285800  0.06285800  0.06285800  1
  Au  Au5  1  0.43714200  0.43714200  0.43714200  1
  Au  Au6  1  0.93714200  0.93714200  0.93714200  1
  Au  Au7  1  0.56285800  0.56285800  0.56285800  1
  Au  Au8  1  0.70391000  0.35106600  0.99620500  1
  Au  Au9  1  0.35106600  0.99620500  0.70391000  1
  Au  Au10  1  0.99620500  0.70391000  0.35106600  1
  Au  Au11  1  0.14893400  0.79609000  0.50379500  1
  Au  Au12  1  0.79609000  0.50379500  0.14893400  1
  Au  Au13  1  0.50379500  0.14893400  0.79609000  1
  Au  Au14  1  0.29609000  0.64893400  0.00379500  1
  Au  Au15  1  0.64893400  0.00379500  0.29609000  1
  Au  Au16  1  0.00379500  0.29609000  0.64893400  1
  Au  Au17  1  0.85106600  0.20391000  0.49620500  1
  Au  Au18  1  0.20391000  0.49620500  0.85106600  1
  Au  Au19  1  0.49620500  0.85106600  0.20391000  1
  Au  Au20  1  0.12500600  0.38489700  0.64722900  1
  Au  Au21  1  0.38489700  0.64722900  0.12500600  1
  Au  Au22  1  0.64722900  0.12500600  0.38489700  1
  Au  Au23  1  0.11510300  0.37499400  0.85277100  1
  Au  Au24  1  0.37499400  0.85277100  0.11510300  1
  Au  Au25  1  0.85277100  0.11510300  0.37499400  1
  Au  Au26  1  0.87499400  0.61510300  0.35277100  1
  Au  Au27  1  0.61510300  0.35277100  0.87499400  1
  Au  Au28  1  0.35277100  0.87499400  0.61510300  1
  Au  Au29  1  0.88489700  0.62500600  0.14722900  1
  Au  Au30  1  0.62500600  0.14722900  0.88489700  1
  Au  Au31  1  0.14722900  0.88489700  0.62500600  1
loop_
_geom_bond_atom_site_label_1
_geom_bond_atom_site_label_2
_geom_bond_distance
_geom_bond_site_symmetry_2
Al0 Au14 2.645207 1_545
Al0 Au8 2.645207 1_454
Al0 Au15 2.645207 1_455
Al0 Au9 2.645207 1_544
Al0 Au16 2.645207 1_554
Al0 Au10 2.645207 1_445
Al0 Au6 2.696241 1_444
Al0 Au4 2.696241 1_555
Al1 Au17 2.645207 1_555
Al1 Au11 2.645207 1_555
Al1 Au13 2.645207 1_555
Al1 Au19 2.645207 1_555
Al1 Au18 2.645207 1_555
Al1 Au12 2.645207 1_555
Al1 Au7 2.696241 1_555
Al1 Au5 2.696241 1_555
Al2 Au0 2.626924 1_555
Al2 Au30 2.727033 1_565
Al2 Au31 2.727033 1_655
Al2 Au29 2.727033 1_556
Al2 Au18 2.790150 1_655
Al2 Au17 2.790150 1_565
Al2 Au19 2.790150 1_556
Al2 Au13 2.794213 1_565
Al2 Au12 2.794214 1_556
Al2 Au11 2.794214 1_655
Al3 Au1 2.626924 1_555
Al3 Au28 2.727033 1_555
Al3 Au27 2.727033 1_555
Al3 Au26 2.727033 1_555
Al3 Au16 2.790150 1_655
Al3 Au14 2.790150 1_556
Al3 Au15 2.790150 1_565
Al3 Au9 2.794213 1_555
Al3 Au10 2.794214 1_555
Al3 Au8 2.794214 1_555
Al4 Au2 2.626924 1_555
Al4 Au24 2.727033 1_545
Al4 Au25 2.727033 1_455
Al4 Au23 2.727033 1_554
Al4 Au12 2.790150 1_455
Al4 Au11 2.790150 1_545
Al4 Au13 2.790150 1_554
Al4 Au19 2.794213 1_545
Al4 Au18 2.794214 1_554
Al4 Au17 2.794214 1_455
Al5 Au3 2.626924 1_555
Al5 Au22 2.727033 1_555
Al5 Au21 2.727033 1_555
Al5 Au20 2.727033 1_555
Al5 Au10 2.790150 1_455
Al5 Au8 2.790150 1_554
Al5 Au9 2.790150 1_545
Al5 Au15 2.794213 1_555
Al5 Au16 2.794214 1_555
Al5 Au14 2.794214 1_555
Al6 Au28 2.698790 1_555
Al6 Au30 2.698790 1_564
Al6 Au7 2.823987 1_555
Al6 Au6 2.823987 1_554
Al6 Au29 2.838003 1_555
Al6 Au26 2.838003 1_555
Al6 Au2 2.845407 1_565
Al6 Au3 2.845407 1_565
Al6 Au19 2.846456 1_555
Al6 Au15 2.846456 1_565
Al7 Au31 2.698790 1_645
Al7 Au26 2.698790 1_555
Al7 Au7 2.823987 1_555
Al7 Au6 2.823987 1_545
Al7 Au27 2.838003 1_555
Al7 Au30 2.838003 1_555
Al7 Au3 2.845407 1_655
Al7 Au2 2.845407 1_655
Al7 Au17 2.846456 1_555
Al7 Au16 2.846456 1_655
Al8 Au27 2.698790 1_555
Al8 Au29 2.698790 1_456
Al8 Au6 2.823987 1_455
Al8 Au7 2.823987 1_555
Al8 Au31 2.838003 1_555
Al8 Au28 2.838003 1_555
Al8 Au2 2.845407 1_556
Al8 Au3 2.845407 1_556
Al8 Au14 2.846456 1_556
Al8 Au18 2.846456 1_555
Al9 Au24 2.698790 1_546
Al9 Au22 2.698790 1_555
Al9 Au5 2.823987 1_555
Al9 Au4 2.823987 1_556
Al9 Au23 2.838003 1_555
Al9 Au20 2.838003 1_555
Al9 Au0 2.845407 1_545
Al9 Au1 2.845407 1_545
Al9 Au9 2.846456 1_545
Al9 Au13 2.846456 1_555
Al10 Au25 2.698790 1_465
Al10 Au20 2.698790 1_555
Al10 Au5 2.823987 1_555
Al10 Au4 2.823987 1_565
Al10 Au21 2.838003 1_555
Al10 Au24 2.838003 1_555
Al10 Au1 2.845407 1_455
Al10 Au0 2.845407 1_455
Al10 Au11 2.846456 1_555
Al10 Au10 2.846456 1_455
Al11 Au21 2.698790 1_555
Al11 Au23 2.698790 1_654
Al11 Au4 2.823987 1_655
Al11 Au5 2.823987 1_555
Al11 Au25 2.838003 1_555
Al11 Au22 2.838003 1_555
Al11 Au0 2.845407 1_554
Al11 Au1 2.845407 1_554
Al11 Au8 2.846456 1_554
Al11 Au12 2.846456 1_555
