# generated using pymatgen
data_LiTiH6(OF3)2
_symmetry_space_group_name_H-M   'P 1'
_cell_length_a   6.18842869
_cell_length_b   5.47850224
_cell_length_c   5.56878588
_cell_angle_alpha   120.54665802
_cell_angle_beta   90.00000052
_cell_angle_gamma   87.86204774
_symmetry_Int_Tables_number   1
_chemical_formula_structural   LiTiH6(OF3)2
_chemical_formula_sum   'Li1 Ti1 H6 O2 F6'
_cell_volume   162.44516428
_cell_formula_units_Z   1
loop_
 _symmetry_equiv_pos_site_id
 _symmetry_equiv_pos_as_xyz
  1  'x, y, z'
loop_
 _atom_site_type_symbol
 _atom_site_label
 _atom_site_symmetry_multiplicity
 _atom_site_fract_x
 _atom_site_fract_y
 _atom_site_fract_z
 _atom_site_occupancy
  Li  Li0  1  0.00000000  0.00000000  0.53661600  1
  Ti  Ti0  1  0.00000000  0.00000000  0.01672900  1
  H  H0  1  0.68010500  0.76568200  0.30053500  1
  H  H1  1  0.71046100  0.41348700  0.12003800  1
  H  H2  1  0.28953900  0.58651300  0.70655200  1
  H  H3  1  0.72925300  0.60242300  0.48246500  1
  H  H4  1  0.27074700  0.39757700  0.88004200  1
  H  H5  1  0.31989500  0.23431800  0.53485200  1
  O  O0  1  0.65626100  0.58782600  0.30903600  1
  O  O1  1  0.34373900  0.41217400  0.72121200  1
  F  F0  1  0.85027900  0.65591000  0.74762200  1
  F  F1  1  0.78635000  0.01958900  0.29538400  1
  F  F2  1  0.21364900  0.98041100  0.27579600  1
  F  F3  1  0.79100800  0.16929900  0.85511600  1
  F  F4  1  0.20899100  0.83070100  0.68581700  1
  F  F5  1  0.14972000  0.34409000  0.09171200  1
loop_
_geom_bond_atom_site_label_1
_geom_bond_atom_site_label_2
_geom_bond_distance
_geom_bond_site_symmetry_2
H0 O0 1.015409 1_555
H1 O0 1.042480 1_555
H2 O1 1.042483 1_555
H3 O0 1.033136 1_555
H4 O1 1.033126 1_555
H5 O1 1.015417 1_555
F0 H3 1.550394 1_555
F0 Ti0 1.979046 1_666
F1 H0 1.573810 1_545
F1 Li0 1.923595 1_655
F1 Ti0 1.996934 1_655
F2 H5 1.573807 1_565
F2 Li0 1.923587 1_565
F2 Ti0 1.996934 1_565
F3 H1 1.469258 1_556
F3 Li0 1.979179 1_655
F3 Ti0 2.025327 1_656
F4 H2 1.469263 1_555
F4 Li0 1.979175 1_565
F4 Ti0 2.025323 1_566
F5 H4 1.550397 1_554
F5 Ti0 1.979043 1_555
