# generated using pymatgen
data_LaY
_symmetry_space_group_name_H-M   'P 1'
_cell_length_a   7.43176307
_cell_length_b   7.43065299
_cell_length_c   36.13656425
_cell_angle_alpha   84.11454329
_cell_angle_beta   89.99999766
_cell_angle_gamma   120.00494533
_symmetry_Int_Tables_number   1
_chemical_formula_structural   LaY
_chemical_formula_sum   'La24 Y24'
_cell_volume   1715.96562894
_cell_formula_units_Z   24
loop_
 _symmetry_equiv_pos_site_id
 _symmetry_equiv_pos_as_xyz
  1  'x, y, z'
loop_
 _atom_site_type_symbol
 _atom_site_label
 _atom_site_symmetry_multiplicity
 _atom_site_fract_x
 _atom_site_fract_y
 _atom_site_fract_z
 _atom_site_occupancy
  La  La0_0  1  0.00078084  0.00156115  0.49767181  1
  La  La0_1  1  0.00078084  0.00156115  0.99767181  1
  La  La0_2  1  0.00078084  0.50156115  0.49767181  1
  La  La0_3  1  0.00078084  0.50156115  0.99767181  1
  La  La0_4  1  0.50078084  0.00156115  0.49767181  1
  La  La0_5  1  0.50078084  0.00156115  0.99767181  1
  La  La0_6  1  0.50078084  0.50156115  0.49767181  1
  La  La0_7  1  0.50078084  0.50156115  0.99767181  1
  La  La1_0  1  0.24975100  0.49950157  0.25075317  1
  La  La1_1  1  0.24975100  0.49950157  0.75075317  1
  La  La1_2  1  0.24975100  0.99950157  0.25075317  1
  La  La1_3  1  0.24975100  0.99950157  0.75075317  1
  La  La1_4  1  0.74975099  0.49950157  0.25075317  1
  La  La1_5  1  0.74975100  0.49950157  0.75075317  1
  La  La1_6  1  0.74975099  0.99950157  0.25075317  1
  La  La1_7  1  0.74975099  0.99950157  0.75075317  1
  La  La2_0  1  0.30512681  0.11025377  0.08444178  1
  La  La2_1  1  0.30512681  0.11025377  0.58444178  1
  La  La2_2  1  0.30512681  0.61025377  0.08444178  1
  La  La2_3  1  0.30512681  0.61025377  0.58444178  1
  La  La2_4  1  0.80512681  0.11025377  0.08444178  1
  La  La2_5  1  0.80512681  0.11025377  0.58444178  1
  La  La2_6  1  0.80512681  0.61025377  0.08444178  1
  La  La2_7  1  0.80512681  0.61025377  0.58444178  1
  Y  Y0_0  1  0.05505753  0.11011546  0.33460811  1
  Y  Y0_1  1  0.05505754  0.11011546  0.83460811  1
  Y  Y0_2  1  0.05505754  0.61011547  0.33460811  1
  Y  Y0_3  1  0.05505753  0.61011546  0.83460811  1
  Y  Y0_4  1  0.55505753  0.11011546  0.33460811  1
  Y  Y0_5  1  0.55505753  0.11011547  0.83460811  1
  Y  Y0_6  1  0.55505753  0.61011547  0.33460811  1
  Y  Y0_7  1  0.55505753  0.61011547  0.83460811  1
  Y  Y1_0  1  0.44398446  0.38796977  0.16816257  1
  Y  Y1_1  1  0.44398446  0.38796977  0.66816257  1
  Y  Y1_2  1  0.44398446  0.88796977  0.16816257  1
  Y  Y1_3  1  0.44398446  0.88796977  0.66816257  1
  Y  Y1_4  1  0.94398445  0.38796977  0.16816257  1
  Y  Y1_5  1  0.94398445  0.38796977  0.66816257  1
  Y  Y1_6  1  0.94398445  0.88796977  0.16816257  1
  Y  Y1_7  1  0.94398445  0.88796977  0.66816257  1
  Y  Y2_0  1  0.19529937  0.39059828  0.41436204  1
  Y  Y2_1  1  0.19529937  0.39059828  0.91436204  1
  Y  Y2_2  1  0.19529937  0.89059828  0.41436204  1
  Y  Y2_3  1  0.19529937  0.89059827  0.91436204  1
  Y  Y2_4  1  0.69529937  0.39059828  0.41436204  1
  Y  Y2_5  1  0.69529937  0.39059827  0.91436204  1
  Y  Y2_6  1  0.69529937  0.89059828  0.41436204  1
  Y  Y2_7  1  0.69529937  0.89059828  0.91436204  1
loop_
_geom_bond_atom_site_label_1
_geom_bond_atom_site_label_2
_geom_bond_distance
_geom_bond_site_symmetry_2
La0_0 Y2_2 3.678875 1_545
La0_0 Y2_6 3.678875 1_445
La0_0 Y2_0 3.680411 1_555
La0_0 La0_6 3.715326 1_555
La0_0 La0_6 3.715326 1_445
La0_0 La0_2 3.715326 1_555
La0_0 La0_2 3.715326 1_545
La0_0 La0_4 3.715882 1_555
La0_0 La0_4 3.715882 1_455
La0_0 La2_1 3.780511 1_555
La0_0 La2_5 3.780514 1_455
La0_0 La2_7 3.781839 1_445
La0_1 Y2_3 3.678875 1_545
La0_1 Y2_7 3.678875 1_445
La0_1 Y2_1 3.680411 1_555
La0_1 La0_7 3.715326 1_445
La0_1 La0_7 3.715326 1_555
La0_1 La0_3 3.715326 1_555
La0_1 La0_3 3.715326 1_545
La0_1 La0_5 3.715882 1_555
La0_1 La0_5 3.715882 1_455
La0_1 La2_0 3.780511 1_556
La0_1 La2_4 3.780514 1_456
La0_1 La2_6 3.781839 1_446
La0_2 Y2_0 3.678875 1_555
La0_2 Y2_4 3.678875 1_455
La0_2 Y2_2 3.680411 1_555
La0_2 La0_4 3.715326 1_565
La0_2 La0_4 3.715326 1_455
La0_2 La0_6 3.715882 1_455
La0_2 La0_6 3.715882 1_555
La0_2 La2_3 3.780511 1_555
La0_2 La2_7 3.780514 1_455
La0_2 La2_5 3.781839 1_455
La0_3 Y2_1 3.678875 1_555
La0_3 Y2_5 3.678875 1_455
La0_3 Y2_3 3.680411 1_555
La0_3 La0_5 3.715326 1_455
La0_3 La0_5 3.715326 1_565
La0_3 La0_7 3.715882 1_555
La0_3 La0_7 3.715882 1_455
La0_3 La2_2 3.780511 1_556
La0_3 La2_6 3.780514 1_456
La0_3 La2_4 3.781839 1_456
La0_4 Y2_6 3.678875 1_545
La0_4 Y2_2 3.678875 1_545
La0_4 Y2_4 3.680411 1_555
La0_4 La0_6 3.715326 1_555
La0_4 La0_6 3.715326 1_545
La0_4 La2_5 3.780511 1_555
La0_4 La2_1 3.780514 1_555
La0_4 La2_3 3.781839 1_545
La0_5 Y2_7 3.678875 1_545
La0_5 Y2_3 3.678875 1_545
La0_5 Y2_5 3.680411 1_555
La0_5 La0_7 3.715326 1_545
La0_5 La0_7 3.715326 1_555
La0_5 La2_4 3.780511 1_556
La0_5 La2_0 3.780514 1_556
La0_5 La2_2 3.781839 1_546
La0_6 Y2_4 3.678875 1_555
La0_6 Y2_0 3.678875 1_555
La0_6 Y2_6 3.680411 1_555
La0_6 La2_7 3.780511 1_555
La0_6 La2_3 3.780514 1_555
La0_6 La2_1 3.781839 1_555
La0_7 Y2_5 3.678875 1_555
La0_7 Y2_1 3.678875 1_555
La0_7 Y2_7 3.680411 1_555
La0_7 La2_6 3.780511 1_556
La0_7 La2_2 3.780514 1_556
La0_7 La2_0 3.781839 1_556
La1_0 Y1_0 3.658106 1_555
La1_0 Y1_4 3.658111 1_455
La1_0 Y1_2 3.659139 1_555
La1_0 Y0_6 3.694812 1_555
La1_0 Y0_2 3.694815 1_555
La1_0 Y0_0 3.696267 1_555
La1_0 La1_6 3.715326 1_445
La1_0 La1_6 3.715326 1_555
La1_0 La1_2 3.715326 1_545
La1_0 La1_2 3.715326 1_555
La1_0 La1_4 3.715882 1_555
La1_0 La1_4 3.715882 1_455
La1_1 Y1_1 3.658106 1_555
La1_1 Y1_5 3.658111 1_455
La1_1 Y1_3 3.659139 1_555
La1_1 Y0_7 3.694812 1_555
La1_1 Y0_3 3.694815 1_555
La1_1 Y0_1 3.696267 1_555
La1_1 La1_7 3.715326 1_445
La1_1 La1_7 3.715326 1_555
La1_1 La1_3 3.715326 1_555
La1_1 La1_3 3.715326 1_545
La1_1 La1_5 3.715882 1_455
La1_1 La1_5 3.715882 1_555
La1_2 Y1_2 3.658106 1_555
La1_2 Y1_6 3.658111 1_455
La1_2 Y1_0 3.659139 1_565
La1_2 Y0_4 3.694812 1_565
La1_2 Y0_0 3.694815 1_565
La1_2 Y0_2 3.696267 1_555
La1_2 La1_4 3.715326 1_565
La1_2 La1_4 3.715326 1_455
La1_2 La1_6 3.715882 1_555
La1_2 La1_6 3.715882 1_455
La1_3 Y1_3 3.658106 1_555
La1_3 Y1_7 3.658111 1_455
La1_3 Y1_1 3.659139 1_565
La1_3 Y0_5 3.694812 1_565
La1_3 Y0_1 3.694815 1_565
La1_3 Y0_3 3.696267 1_555
La1_3 La1_5 3.715326 1_455
La1_3 La1_5 3.715326 1_565
La1_3 La1_7 3.715882 1_555
La1_3 La1_7 3.715882 1_455
La1_4 Y1_4 3.658106 1_555
La1_4 Y1_0 3.658111 1_555
La1_4 Y1_6 3.659139 1_555
La1_4 Y0_2 3.694812 1_655
La1_4 Y0_6 3.694815 1_555
La1_4 Y0_4 3.696267 1_555
La1_4 La1_6 3.715326 1_545
La1_4 La1_6 3.715326 1_555
La1_5 Y1_5 3.658106 1_555
La1_5 Y1_1 3.658111 1_555
La1_5 Y1_7 3.659139 1_555
La1_5 Y0_3 3.694812 1_655
La1_5 Y0_7 3.694815 1_555
La1_5 Y0_5 3.696267 1_555
La1_5 La1_7 3.715326 1_545
La1_5 La1_7 3.715326 1_555
La1_6 Y1_6 3.658106 1_555
La1_6 Y1_2 3.658111 1_555
La1_6 Y1_4 3.659139 1_565
La1_6 Y0_0 3.694812 1_665
La1_6 Y0_4 3.694815 1_565
La1_6 Y0_6 3.696267 1_555
La1_7 Y1_7 3.658106 1_555
La1_7 Y1_3 3.658111 1_555
La1_7 Y1_5 3.659139 1_565
La1_7 Y0_1 3.694812 1_665
La1_7 Y0_5 3.694815 1_565
La1_7 Y0_7 3.696267 1_555
La2_0 Y1_2 3.691340 1_545
La2_0 Y1_6 3.691342 1_445
La2_0 Y1_0 3.691455 1_555
La2_0 La2_6 3.715326 1_555
La2_0 La2_6 3.715326 1_445
La2_0 La2_2 3.715326 1_555
La2_0 La2_2 3.715326 1_545
La2_0 La2_4 3.715882 1_555
La2_0 La2_4 3.715882 1_455
La2_1 Y1_3 3.691340 1_545
La2_1 Y1_7 3.691342 1_445
La2_1 Y1_1 3.691455 1_555
La2_1 La2_7 3.715326 1_555
La2_1 La2_7 3.715326 1_445
La2_1 La2_3 3.715326 1_555
La2_1 La2_3 3.715326 1_545
La2_1 La2_5 3.715882 1_455
La2_1 La2_5 3.715882 1_555
La2_2 Y1_0 3.691340 1_555
La2_2 Y1_4 3.691342 1_455
La2_2 Y1_2 3.691455 1_555
La2_2 La2_4 3.715326 1_565
La2_2 La2_4 3.715326 1_455
La2_2 La2_6 3.715882 1_455
La2_2 La2_6 3.715882 1_555
La2_3 Y1_1 3.691340 1_555
La2_3 Y1_5 3.691342 1_455
La2_3 Y1_3 3.691455 1_555
La2_3 La2_5 3.715326 1_455
La2_3 La2_5 3.715326 1_565
La2_3 La2_7 3.715882 1_555
La2_3 La2_7 3.715882 1_455
La2_4 Y1_6 3.691340 1_545
La2_4 Y1_2 3.691342 1_545
La2_4 Y1_4 3.691455 1_555
La2_4 La2_6 3.715326 1_555
La2_4 La2_6 3.715326 1_545
La2_5 Y1_7 3.691340 1_545
La2_5 Y1_3 3.691342 1_545
La2_5 Y1_5 3.691455 1_555
La2_5 La2_7 3.715326 1_545
La2_5 La2_7 3.715326 1_555
La2_6 Y1_4 3.691340 1_555
La2_6 Y1_0 3.691342 1_555
La2_6 Y1_6 3.691455 1_555
La2_7 Y1_5 3.691340 1_555
La2_7 Y1_1 3.691342 1_555
La2_7 Y1_7 3.691455 1_555
Y0_0 Y2_6 3.576207 1_445
Y0_0 Y2_2 3.576211 1_545
Y0_0 Y2_0 3.577074 1_555
Y0_0 Y0_6 3.715326 1_555
Y0_0 Y0_6 3.715326 1_445
Y0_0 Y0_2 3.715326 1_545
Y0_0 Y0_2 3.715326 1_555
Y0_0 Y0_4 3.715882 1_555
Y0_0 Y0_4 3.715882 1_455
Y0_1 Y2_7 3.576207 1_445
Y0_1 Y2_3 3.576211 1_545
Y0_1 Y2_1 3.577074 1_555
Y0_1 Y0_7 3.715326 1_555
Y0_1 Y0_7 3.715326 1_445
Y0_1 Y0_3 3.715326 1_555
Y0_1 Y0_3 3.715326 1_545
Y0_1 Y0_5 3.715882 1_555
Y0_1 Y0_5 3.715882 1_455
Y0_2 Y2_4 3.576207 1_455
Y0_2 Y2_0 3.576211 1_555
Y0_2 Y2_2 3.577074 1_555
Y0_2 Y0_4 3.715326 1_455
Y0_2 Y0_4 3.715326 1_565
Y0_2 Y0_6 3.715882 1_555
Y0_2 Y0_6 3.715882 1_455
Y0_3 Y2_5 3.576207 1_455
Y0_3 Y2_1 3.576211 1_555
Y0_3 Y2_3 3.577074 1_555
Y0_3 Y0_5 3.715326 1_455
Y0_3 Y0_5 3.715326 1_565
Y0_3 Y0_7 3.715882 1_555
Y0_3 Y0_7 3.715882 1_455
Y0_4 Y2_2 3.576207 1_545
Y0_4 Y2_6 3.576211 1_545
Y0_4 Y2_4 3.577074 1_555
Y0_4 Y0_6 3.715326 1_545
Y0_4 Y0_6 3.715326 1_555
Y0_5 Y2_3 3.576207 1_545
Y0_5 Y2_7 3.576211 1_545
Y0_5 Y2_5 3.577074 1_555
Y0_5 Y0_7 3.715326 1_545
Y0_5 Y0_7 3.715326 1_555
Y0_6 Y2_0 3.576207 1_555
Y0_6 Y2_4 3.576211 1_555
Y0_6 Y2_6 3.577074 1_555
Y0_7 Y2_1 3.576207 1_555
Y0_7 Y2_5 3.576211 1_555
Y0_7 Y2_7 3.577074 1_555
Y1_0 Y1_6 3.715326 1_555
Y1_0 Y1_6 3.715326 1_445
Y1_0 Y1_2 3.715326 1_545
Y1_0 Y1_2 3.715326 1_555
Y1_0 Y1_4 3.715882 1_555
Y1_0 Y1_4 3.715882 1_455
Y1_1 Y1_7 3.715326 1_555
Y1_1 Y1_7 3.715326 1_445
Y1_1 Y1_3 3.715326 1_545
Y1_1 Y1_3 3.715326 1_555
Y1_1 Y1_5 3.715882 1_555
Y1_1 Y1_5 3.715882 1_455
Y1_2 Y1_4 3.715326 1_565
Y1_2 Y1_4 3.715326 1_455
Y1_2 Y1_6 3.715882 1_555
Y1_2 Y1_6 3.715882 1_455
Y1_3 Y1_5 3.715326 1_565
Y1_3 Y1_5 3.715326 1_455
Y1_3 Y1_7 3.715882 1_555
Y1_3 Y1_7 3.715882 1_455
Y1_4 Y1_6 3.715326 1_555
Y1_4 Y1_6 3.715326 1_545
Y1_5 Y1_7 3.715326 1_545
Y1_5 Y1_7 3.715326 1_555
Y2_0 Y2_6 3.715326 1_445
Y2_0 Y2_6 3.715326 1_555
Y2_0 Y2_2 3.715326 1_555
Y2_0 Y2_2 3.715326 1_545
Y2_0 Y2_4 3.715882 1_555
Y2_0 Y2_4 3.715882 1_455
Y2_1 Y2_7 3.715326 1_555
Y2_1 Y2_7 3.715326 1_445
Y2_1 Y2_3 3.715326 1_555
Y2_1 Y2_3 3.715326 1_545
Y2_1 Y2_5 3.715882 1_455
Y2_1 Y2_5 3.715882 1_555
Y2_2 Y2_4 3.715326 1_565
Y2_2 Y2_4 3.715326 1_455
Y2_2 Y2_6 3.715882 1_555
Y2_2 Y2_6 3.715882 1_455
Y2_3 Y2_5 3.715326 1_565
Y2_3 Y2_5 3.715326 1_455
Y2_3 Y2_7 3.715882 1_555
Y2_3 Y2_7 3.715882 1_455
Y2_4 Y2_6 3.715326 1_545
Y2_4 Y2_6 3.715326 1_555
Y2_5 Y2_7 3.715326 1_545
Y2_5 Y2_7 3.715326 1_555
