# generated using pymatgen
data_Mg3Ag2(GeO4)3
_symmetry_space_group_name_H-M   'P 1'
_cell_length_a   10.64070091
_cell_length_b   10.64070036
_cell_length_c   10.64070049
_cell_angle_alpha   109.47122087
_cell_angle_beta   109.47121981
_cell_angle_gamma   109.47121992
_symmetry_Int_Tables_number   1
_chemical_formula_structural   Mg3Ag2(GeO4)3
_chemical_formula_sum   'Mg12 Ag8 Ge12 O48'
_cell_volume   927.44632588
_cell_formula_units_Z   4
loop_
 _symmetry_equiv_pos_site_id
 _symmetry_equiv_pos_as_xyz
  1  'x, y, z'
loop_
 _atom_site_type_symbol
 _atom_site_label
 _atom_site_symmetry_multiplicity
 _atom_site_fract_x
 _atom_site_fract_y
 _atom_site_fract_z
 _atom_site_occupancy
  Mg  Mg0  1  0.62500000  0.25000000  0.87500000  1
  Mg  Mg1  1  0.87500000  0.75000000  0.62500000  1
  Mg  Mg2  1  0.75000000  0.62500000  0.87500000  1
  Mg  Mg3  1  0.25000000  0.87500000  0.62500000  1
  Mg  Mg4  1  0.87500000  0.62500000  0.25000000  1
  Mg  Mg5  1  0.62500000  0.87500000  0.75000000  1
  Mg  Mg6  1  0.37500000  0.75000000  0.12500000  1
  Mg  Mg7  1  0.12500000  0.25000000  0.37500000  1
  Mg  Mg8  1  0.25000000  0.37500000  0.12500000  1
  Mg  Mg9  1  0.75000000  0.12500000  0.37500000  1
  Mg  Mg10  1  0.12500000  0.37500000  0.75000000  1
  Mg  Mg11  1  0.37500000  0.12500000  0.25000000  1
  Ag  Ag0  1  0.50000000  0.50000000  0.50000000  1
  Ag  Ag1  1  0.50000000  0.50000000  0.00000000  1
  Ag  Ag2  1  0.50000000  0.00000000  0.50000000  1
  Ag  Ag3  1  0.00000000  0.50000000  0.50000000  1
  Ag  Ag4  1  0.50000000  0.00000000  0.00000000  1
  Ag  Ag5  1  0.00000000  0.00000000  0.50000000  1
  Ag  Ag6  1  0.00000000  0.50000000  0.00000000  1
  Ag  Ag7  1  0.00000000  0.00000000  0.00000000  1
  Ge  Ge0  1  0.87500000  0.12500000  0.75000000  1
  Ge  Ge1  1  0.12500000  0.87500000  0.25000000  1
  Ge  Ge2  1  0.25000000  0.62500000  0.37500000  1
  Ge  Ge3  1  0.12500000  0.75000000  0.87500000  1
  Ge  Ge4  1  0.75000000  0.87500000  0.12500000  1
  Ge  Ge5  1  0.37500000  0.25000000  0.62500000  1
  Ge  Ge6  1  0.62500000  0.75000000  0.37500000  1
  Ge  Ge7  1  0.87500000  0.25000000  0.12500000  1
  Ge  Ge8  1  0.25000000  0.12500000  0.87500000  1
  Ge  Ge9  1  0.75000000  0.37500000  0.62500000  1
  Ge  Ge10  1  0.37500000  0.62500000  0.75000000  1
  Ge  Ge11  1  0.62500000  0.37500000  0.25000000  1
  O  O0  1  0.77207648  0.40763707  0.80943738  1
  O  O1  1  0.09236293  0.86443941  0.40180031  1
  O  O2  1  0.69056262  0.09819969  0.96263810  1
  O  O3  1  0.72792352  0.53736190  0.63556059  1
  O  O4  1  0.72792352  0.69056262  0.09236293  1
  O  O5  1  0.53736190  0.63556059  0.72792352  1
  O  O6  1  0.09819969  0.63556059  0.40763707  1
  O  O7  1  0.63556059  0.72792352  0.53736190  1
  O  O8  1  0.40180031  0.80943738  0.53736190  1
  O  O9  1  0.86443941  0.96263810  0.77207648  1
  O  O10  1  0.96263810  0.77207648  0.86443941  1
  O  O11  1  0.09236293  0.72792352  0.69056262  1
  O  O12  1  0.63556059  0.40763707  0.09819969  1
  O  O13  1  0.53736190  0.40180031  0.80943738  1
  O  O14  1  0.69056262  0.09236293  0.72792352  1
  O  O15  1  0.40763707  0.09819969  0.63556059  1
  O  O16  1  0.80943738  0.53736190  0.40180031  1
  O  O17  1  0.40180031  0.09236293  0.86443941  1
  O  O18  1  0.09819969  0.96263810  0.69056262  1
  O  O19  1  0.59819969  0.19056262  0.46263810  1
  O  O20  1  0.96263810  0.69056262  0.09819969  1
  O  O21  1  0.80943738  0.77207648  0.40763707  1
  O  O22  1  0.86443941  0.40180031  0.09236293  1
  O  O23  1  0.77207648  0.86443941  0.96263810  1
  O  O24  1  0.22792352  0.59236293  0.19056262  1
  O  O25  1  0.90763707  0.13556059  0.59819969  1
  O  O26  1  0.30943738  0.90180031  0.03736190  1
  O  O27  1  0.27207648  0.46263810  0.36443941  1
  O  O28  1  0.27207648  0.30943738  0.90763707  1
  O  O29  1  0.46263810  0.36443941  0.27207648  1
  O  O30  1  0.90180031  0.36443941  0.59236293  1
  O  O31  1  0.36443941  0.27207648  0.46263810  1
  O  O32  1  0.22792352  0.13556059  0.03736190  1
  O  O33  1  0.13556059  0.59819969  0.90763707  1
  O  O34  1  0.19056262  0.22792352  0.59236293  1
  O  O35  1  0.59236293  0.19056262  0.22792352  1
  O  O36  1  0.03736190  0.30943738  0.90180031  1
  O  O37  1  0.90180031  0.03736190  0.30943738  1
  O  O38  1  0.59819969  0.90763707  0.13556059  1
  O  O39  1  0.19056262  0.46263810  0.59819969  1
  O  O40  1  0.59236293  0.90180031  0.36443941  1
  O  O41  1  0.30943738  0.90763707  0.27207648  1
  O  O42  1  0.46263810  0.59819969  0.19056262  1
  O  O43  1  0.36443941  0.59236293  0.90180031  1
  O  O44  1  0.90763707  0.27207648  0.30943738  1
  O  O45  1  0.03736190  0.22792352  0.13556059  1
  O  O46  1  0.13556059  0.03736190  0.22792352  1
  O  O47  1  0.40763707  0.80943738  0.77207648  1
loop_
_geom_bond_atom_site_label_1
_geom_bond_atom_site_label_2
_geom_bond_distance
_geom_bond_site_symmetry_2
Mg0 O2 2.299368 1_555
Mg0 O13 2.299368 1_555
Mg0 O15 2.299374 1_555
Mg0 O22 2.299374 1_556
Mg0 O12 2.346786 1_556
Mg0 O14 2.346786 1_555
Mg0 O0 2.346786 1_555
Mg0 O17 2.346786 1_555
Mg1 O10 2.299373 1_555
Mg1 O21 2.299373 1_555
Mg1 O7 2.299374 1_555
Mg1 O11 2.299374 1_655
Mg1 O9 2.346778 1_555
Mg1 O3 2.346778 1_555
Mg1 O16 2.346781 1_555
Mg1 O18 2.346781 1_655
Mg2 O23 2.299373 1_555
Mg2 O0 2.299373 1_555
Mg2 O3 2.299373 1_555
Mg2 O4 2.299373 1_556
Mg2 O10 2.346778 1_555
Mg2 O5 2.346778 1_555
Mg2 O13 2.346781 1_555
Mg2 O20 2.346781 1_556
Mg3 O18 2.299368 1_555
Mg3 O8 2.299368 1_555
Mg3 O6 2.299373 1_555
Mg3 O17 2.299373 1_565
Mg3 O15 2.346786 1_565
Mg3 O11 2.346786 1_555
Mg3 O47 2.346786 1_555
Mg3 O1 2.346786 1_555
Mg4 O16 2.299368 1_555
Mg4 O20 2.299368 1_555
Mg4 O1 2.299374 1_655
Mg4 O12 2.299374 1_555
Mg4 O22 2.346786 1_555
Mg4 O21 2.346786 1_555
Mg4 O4 2.346786 1_555
Mg4 O6 2.346786 1_655
Mg5 O5 2.299373 1_555
Mg5 O14 2.299373 1_565
Mg5 O9 2.299374 1_555
Mg5 O47 2.299374 1_555
Mg5 O7 2.346778 1_555
Mg5 O23 2.346778 1_555
Mg5 O2 2.346781 1_565
Mg5 O8 2.346781 1_555
Mg6 O26 2.299368 1_555
Mg6 O42 2.299368 1_555
Mg6 O40 2.299374 1_555
Mg6 O33 2.299374 1_554
Mg6 O43 2.346786 1_554
Mg6 O41 2.346786 1_555
Mg6 O24 2.346786 1_555
Mg6 O38 2.346786 1_555
Mg7 O45 2.299373 1_555
Mg7 O34 2.299373 1_555
Mg7 O31 2.299374 1_555
Mg7 O44 2.299374 1_455
Mg7 O46 2.346778 1_555
Mg7 O27 2.346778 1_555
Mg7 O39 2.346781 1_555
Mg7 O37 2.346781 1_455
Mg8 O32 2.299373 1_555
Mg8 O24 2.299373 1_555
Mg8 O27 2.299373 1_555
Mg8 O28 2.299373 1_554
Mg8 O45 2.346778 1_555
Mg8 O29 2.346778 1_555
Mg8 O42 2.346781 1_555
Mg8 O36 2.346781 1_554
Mg9 O37 2.299368 1_555
Mg9 O19 2.299368 1_555
Mg9 O30 2.299373 1_555
Mg9 O38 2.299373 1_545
Mg9 O40 2.346786 1_545
Mg9 O44 2.346786 1_555
Mg9 O35 2.346786 1_555
Mg9 O25 2.346786 1_555
Mg10 O39 2.299368 1_555
Mg10 O36 2.299368 1_555
Mg10 O25 2.299374 1_455
Mg10 O43 2.299374 1_555
Mg10 O33 2.346786 1_555
Mg10 O34 2.346786 1_555
Mg10 O28 2.346786 1_555
Mg10 O30 2.346786 1_455
Mg11 O29 2.299373 1_555
Mg11 O41 2.299373 1_545
Mg11 O46 2.299374 1_555
Mg11 O35 2.299374 1_555
Mg11 O31 2.346778 1_555
Mg11 O32 2.346778 1_555
Mg11 O26 2.346781 1_545
Mg11 O19 2.346781 1_555
Ag0 O29 2.182505 1_555
Ag0 O5 2.182505 1_555
Ag0 O31 2.182505 1_555
Ag0 O7 2.182505 1_555
Ag0 O27 2.182506 1_555
Ag0 O3 2.182506 1_555
Ag1 O43 2.182510 1_554
Ag1 O12 2.182510 1_555
Ag1 O28 2.182510 1_554
Ag1 O4 2.182510 1_555
Ag1 O13 2.182517 1_554
Ag1 O42 2.182517 1_555
Ag2 O40 2.182510 1_545
Ag2 O15 2.182510 1_555
Ag2 O41 2.182510 1_545
Ag2 O14 2.182510 1_555
Ag2 O8 2.182517 1_545
Ag2 O19 2.182517 1_555
Ag3 O44 2.182510 1_455
Ag3 O11 2.182510 1_555
Ag3 O6 2.182510 1_555
Ag3 O30 2.182510 1_455
Ag3 O16 2.182517 1_455
Ag3 O39 2.182517 1_555
Ag4 O47 2.182510 1_544
Ag4 O35 2.182510 1_555
Ag4 O17 2.182510 1_554
Ag4 O38 2.182510 1_545
Ag4 O26 2.182517 1_545
Ag4 O2 2.182517 1_554
Ag5 O25 2.182510 1_455
Ag5 O1 2.182510 1_545
Ag5 O21 2.182510 1_445
Ag5 O34 2.182510 1_555
Ag5 O37 2.182517 1_455
Ag5 O18 2.182517 1_545
Ag6 O33 2.182510 1_554
Ag6 O22 2.182510 1_455
Ag6 O0 2.182510 1_454
Ag6 O24 2.182510 1_555
Ag6 O36 2.182517 1_554
Ag6 O20 2.182517 1_455
Ag7 O10 2.182505 1_444
Ag7 O45 2.182505 1_555
Ag7 O9 2.182506 1_444
Ag7 O46 2.182506 1_555
Ag7 O23 2.182506 1_444
Ag7 O32 2.182506 1_555
Ge0 O25 1.791999 1_555
Ge0 O14 1.791999 1_555
Ge0 O36 1.792002 1_655
Ge0 O9 1.792009 1_545
Ge1 O1 1.791999 1_555
Ge1 O41 1.791999 1_555
Ge1 O20 1.792002 1_455
Ge1 O46 1.792009 1_565
Ge2 O24 1.791999 1_555
Ge2 O6 1.791999 1_555
Ge2 O8 1.792002 1_555
Ge2 O27 1.792009 1_555
Ge3 O33 1.791999 1_555
Ge3 O11 1.791999 1_555
Ge3 O26 1.792002 1_556
Ge3 O10 1.792009 1_455
Ge4 O4 1.791999 1_555
Ge4 O38 1.791999 1_555
Ge4 O37 1.792002 1_565
Ge4 O23 1.792009 1_554
Ge5 O15 1.791999 1_555
Ge5 O34 1.791999 1_555
Ge5 O13 1.792002 1_555
Ge5 O31 1.792009 1_555
Ge6 O40 1.791999 1_555
Ge6 O21 1.791999 1_555
Ge6 O42 1.792002 1_555
Ge6 O7 1.792009 1_555
Ge7 O22 1.791999 1_555
Ge7 O44 1.791999 1_555
Ge7 O2 1.792002 1_554
Ge7 O45 1.792009 1_655
Ge8 O28 1.791999 1_555
Ge8 O17 1.791999 1_555
Ge8 O18 1.792002 1_545
Ge8 O32 1.792009 1_556
Ge9 O0 1.791999 1_555
Ge9 O30 1.791999 1_555
Ge9 O19 1.792002 1_555
Ge9 O3 1.792009 1_555
Ge10 O47 1.791999 1_555
Ge10 O43 1.791999 1_555
Ge10 O39 1.792002 1_555
Ge10 O5 1.792009 1_555
Ge11 O35 1.791999 1_555
Ge11 O12 1.791999 1_555
Ge11 O16 1.792002 1_555
Ge11 O29 1.792009 1_555
