# generated using pymatgen
data_Nb2Pd
_symmetry_space_group_name_H-M   'P 1'
_cell_length_a   5.62434657
_cell_length_b   5.62434657
_cell_length_c   13.57204147
_cell_angle_alpha   99.97508126
_cell_angle_beta   99.97508126
_cell_angle_gamma   99.43976322
_symmetry_Int_Tables_number   1
_chemical_formula_structural   Nb2Pd
_chemical_formula_sum   'Nb16 Pd8'
_cell_volume   408.03068369
_cell_formula_units_Z   8
loop_
 _symmetry_equiv_pos_site_id
 _symmetry_equiv_pos_as_xyz
  1  'x, y, z'
loop_
 _atom_site_type_symbol
 _atom_site_label
 _atom_site_symmetry_multiplicity
 _atom_site_fract_x
 _atom_site_fract_y
 _atom_site_fract_z
 _atom_site_occupancy
  Nb  Nb0_0  1  0.33116379  0.33116379  0.16232658  1
  Nb  Nb0_1  1  0.33116379  0.33116379  0.66232658  1
  Nb  Nb0_2  1  0.33116379  0.83116379  0.16232658  1
  Nb  Nb0_3  1  0.33116379  0.83116379  0.66232658  1
  Nb  Nb0_4  1  0.83116379  0.33116379  0.16232659  1
  Nb  Nb0_5  1  0.83116379  0.33116379  0.66232658  1
  Nb  Nb0_6  1  0.83116379  0.83116379  0.16232658  1
  Nb  Nb0_7  1  0.83116379  0.83116379  0.66232658  1
  Nb  Nb1_0  1  0.16883621  0.16883621  0.33767342  1
  Nb  Nb1_1  1  0.16883621  0.16883621  0.83767342  1
  Nb  Nb1_2  1  0.16883621  0.66883621  0.33767341  1
  Nb  Nb1_3  1  0.16883621  0.66883621  0.83767341  1
  Nb  Nb1_4  1  0.66883621  0.16883621  0.33767341  1
  Nb  Nb1_5  1  0.66883621  0.16883621  0.83767341  1
  Nb  Nb1_6  1  0.66883621  0.66883621  0.33767342  1
  Nb  Nb1_7  1  0.66883621  0.66883621  0.83767342  1
  Pd  Pd0_0  1  0.00000000  0.00000000  0.00000000  1
  Pd  Pd0_1  1  0.00000000  0.00000000  0.50000000  1
  Pd  Pd0_2  1  0.00000000  0.50000000  0.00000000  1
  Pd  Pd0_3  1  0.00000000  0.50000000  0.50000000  1
  Pd  Pd0_4  1  0.50000000  0.00000000  0.00000000  1
  Pd  Pd0_5  1  0.50000000  0.00000000  0.50000000  1
  Pd  Pd0_6  1  0.50000000  0.50000000  0.00000000  1
  Pd  Pd0_7  1  0.50000000  0.50000000  0.50000000  1
loop_
_geom_bond_atom_site_label_1
_geom_bond_atom_site_label_2
_geom_bond_distance
_geom_bond_site_symmetry_2
Nb0_0 Pd0_6 2.794794 1_555
Nb0_0 Pd0_0 2.794799 1_555
Nb0_0 Pd0_4 3.017935 1_555
Nb0_0 Pd0_2 3.017935 1_555
Nb0_1 Pd0_7 2.794794 1_555
Nb0_1 Pd0_1 2.794799 1_555
Nb0_1 Pd0_5 3.017935 1_555
Nb0_1 Pd0_3 3.017935 1_555
Nb0_2 Pd0_4 2.794794 1_565
Nb0_2 Pd0_2 2.794799 1_555
Nb0_2 Pd0_0 3.017935 1_565
Nb0_2 Pd0_6 3.017935 1_555
Nb0_3 Pd0_5 2.794794 1_565
Nb0_3 Pd0_3 2.794799 1_555
Nb0_3 Pd0_7 3.017935 1_555
Nb0_3 Pd0_1 3.017935 1_565
Nb0_4 Pd0_2 2.794794 1_655
Nb0_4 Pd0_4 2.794799 1_555
Nb0_4 Pd0_0 3.017935 1_655
Nb0_4 Pd0_6 3.017935 1_555
Nb0_5 Pd0_3 2.794794 1_655
Nb0_5 Pd0_5 2.794799 1_555
Nb0_5 Pd0_7 3.017935 1_555
Nb0_5 Pd0_1 3.017935 1_655
Nb0_6 Pd0_0 2.794794 1_665
Nb0_6 Pd0_6 2.794799 1_555
Nb0_6 Pd0_2 3.017935 1_655
Nb0_6 Pd0_4 3.017935 1_565
Nb0_7 Pd0_1 2.794794 1_665
Nb0_7 Pd0_7 2.794799 1_555
Nb0_7 Pd0_5 3.017935 1_565
Nb0_7 Pd0_3 3.017935 1_655
Nb1_0 Pd0_1 2.794794 1_555
Nb1_0 Pd0_7 2.794799 1_555
Nb1_0 Pd0_3 3.017935 1_555
Nb1_0 Pd0_5 3.017935 1_555
Nb1_1 Pd0_0 2.794794 1_556
Nb1_1 Pd0_6 2.794799 1_556
Nb1_1 Pd0_2 3.017935 1_556
Nb1_1 Pd0_4 3.017935 1_556
Nb1_2 Pd0_3 2.794794 1_555
Nb1_2 Pd0_5 2.794799 1_565
Nb1_2 Pd0_1 3.017935 1_565
Nb1_2 Pd0_7 3.017935 1_555
Nb1_3 Pd0_2 2.794794 1_556
Nb1_3 Pd0_4 2.794799 1_566
Nb1_3 Pd0_6 3.017935 1_556
Nb1_3 Pd0_0 3.017935 1_566
Nb1_4 Pd0_5 2.794794 1_555
Nb1_4 Pd0_3 2.794799 1_655
Nb1_4 Pd0_7 3.017935 1_555
Nb1_4 Pd0_1 3.017935 1_655
Nb1_5 Pd0_4 2.794794 1_556
Nb1_5 Pd0_2 2.794799 1_656
Nb1_5 Pd0_6 3.017935 1_556
Nb1_5 Pd0_0 3.017935 1_656
Nb1_6 Pd0_7 2.794794 1_555
Nb1_6 Pd0_1 2.794799 1_665
Nb1_6 Pd0_3 3.017935 1_655
Nb1_6 Pd0_5 3.017935 1_565
Nb1_7 Pd0_6 2.794794 1_556
Nb1_7 Pd0_0 2.794799 1_666
Nb1_7 Pd0_2 3.017935 1_656
Nb1_7 Pd0_4 3.017935 1_566
Pd0_0 Pd0_2 2.812173 1_555
Pd0_0 Pd0_2 2.812173 1_545
Pd0_0 Pd0_4 2.812173 1_455
Pd0_0 Pd0_4 2.812173 1_555
Pd0_1 Pd0_3 2.812173 1_555
Pd0_1 Pd0_5 2.812173 1_555
Pd0_1 Pd0_3 2.812173 1_545
Pd0_1 Pd0_5 2.812173 1_455
Pd0_2 Pd0_6 2.812173 1_455
Pd0_2 Pd0_6 2.812173 1_555
Pd0_3 Pd0_7 2.812173 1_555
Pd0_3 Pd0_7 2.812173 1_455
Pd0_4 Pd0_6 2.812173 1_555
Pd0_4 Pd0_6 2.812173 1_545
Pd0_5 Pd0_7 2.812173 1_555
Pd0_5 Pd0_7 2.812173 1_545
