# generated using pymatgen
data_Ho2Ge2Os
_symmetry_space_group_name_H-M   'P 1'
_cell_length_a   4.27558942
_cell_length_b   5.76112017
_cell_length_c   9.12992543
_cell_angle_alpha   81.36157362
_cell_angle_beta   76.45834033
_cell_angle_gamma   68.21820424
_symmetry_Int_Tables_number   1
_chemical_formula_structural   Ho2Ge2Os
_chemical_formula_sum   'Ho4 Ge4 Os2'
_cell_volume   202.52825924
_cell_formula_units_Z   2
loop_
 _symmetry_equiv_pos_site_id
 _symmetry_equiv_pos_as_xyz
  1  'x, y, z'
loop_
 _atom_site_type_symbol
 _atom_site_label
 _atom_site_symmetry_multiplicity
 _atom_site_fract_x
 _atom_site_fract_y
 _atom_site_fract_z
 _atom_site_occupancy
  Ho  Ho0  1  0.81660195  0.25134438  0.11545073  1
  Ho  Ho1  1  0.00299408  0.66849903  0.32551382  1
  Ho  Ho2  1  0.18339805  0.74865562  0.88454927  1
  Ho  Ho3  1  0.99700592  0.33150097  0.67448618  1
  Ge  Ge0  1  0.48767096  0.14901837  0.87563972  1
  Ge  Ge1  1  0.35745321  0.72391087  0.56118270  1
  Ge  Ge2  1  0.51232904  0.85098163  0.12436028  1
  Ge  Ge3  1  0.64254679  0.27608913  0.43881730  1
  Os  Os0  1  0.73062739  0.90727249  0.63147274  1
  Os  Os1  1  0.26937261  0.09272751  0.36852726  1
loop_
_geom_bond_atom_site_label_1
_geom_bond_atom_site_label_2
_geom_bond_distance
_geom_bond_site_symmetry_2
Ho0 Os1 3.173153 1_555
Ho0 Os1 3.173155 1_655
Ho1 Os1 3.077147 1_555
Ho1 Os0 3.081144 1_455
Ho1 Os1 3.160419 1_565
Ho1 Os1 3.160422 1_465
Ho2 Os0 3.173153 1_555
Ho2 Os0 3.173155 1_455
Ho3 Os0 3.077147 1_555
Ho3 Os1 3.081144 1_655
Ho3 Os0 3.160419 1_545
Ho3 Os0 3.160422 1_645
Ge0 Os0 2.600522 1_545
Ge0 Ge2 2.631034 1_546
Ge0 Ho3 2.909744 1_555
Ge0 Ho3 2.909747 1_455
Ge0 Ho2 3.023279 1_545
Ge0 Ho2 3.023282 1_645
Ge0 Ho0 3.092597 1_556
Ge0 Ho0 3.092600 1_456
Ge0 Ho2 3.214452 1_555
Ge1 Os0 2.451024 1_555
Ge1 Os0 2.451024 1_455
Ge1 Os1 2.518745 1_565
Ge1 Ge3 2.698941 1_555
Ge1 Ho2 2.882548 1_555
Ge1 Ho1 3.020055 1_555
Ge1 Ho1 3.020059 1_655
Ge1 Ho3 3.113290 1_555
Ge1 Ho3 3.113294 1_455
Ge2 Os1 2.600522 1_565
Ge2 Ho1 2.909744 1_555
Ge2 Ho1 2.909747 1_655
Ge2 Ho0 3.023279 1_565
Ge2 Ho0 3.023282 1_465
Ge2 Ho2 3.092597 1_554
Ge2 Ho2 3.092600 1_654
Ge2 Ho0 3.214452 1_555
Ge3 Os1 2.451024 1_555
Ge3 Os1 2.451024 1_655
Ge3 Os0 2.518745 1_545
Ge3 Ho0 2.882548 1_555
Ge3 Ho3 3.020055 1_555
Ge3 Ho3 3.020059 1_455
Ge3 Ho1 3.113290 1_555
Ge3 Ho1 3.113294 1_655
