# generated using pymatgen
data_Na3Zr(SiO3)6
_symmetry_space_group_name_H-M   'P 1'
_cell_length_a   7.56632935
_cell_length_b   7.56632935
_cell_length_c   7.49174418
_cell_angle_alpha   86.30206542
_cell_angle_beta   86.30206542
_cell_angle_gamma   88.47174677
_symmetry_Int_Tables_number   1
_chemical_formula_structural   Na3Zr(SiO3)6
_chemical_formula_sum   'Na3 Zr1 Si6 O18'
_cell_volume   427.00416118
_cell_formula_units_Z   1
loop_
 _symmetry_equiv_pos_site_id
 _symmetry_equiv_pos_as_xyz
  1  'x, y, z'
loop_
 _atom_site_type_symbol
 _atom_site_label
 _atom_site_symmetry_multiplicity
 _atom_site_fract_x
 _atom_site_fract_y
 _atom_site_fract_z
 _atom_site_occupancy
  Na  Na0  1  0.00825700  0.99174300  0.50000000  1
  Na  Na1  1  0.49416600  0.00926300  0.00225400  1
  Na  Na2  1  0.99073700  0.50583400  0.99774600  1
  Zr  Zr0  1  0.00206000  0.99794000  0.00000000  1
  Si  Si0  1  0.29265300  0.73861900  0.28428500  1
  Si  Si1  1  0.26138100  0.70734700  0.71571500  1
  Si  Si2  1  0.71263200  0.70304400  0.28199600  1
  Si  Si3  1  0.29695600  0.28736800  0.71800400  1
  Si  Si4  1  0.73905000  0.27659100  0.28856100  1
  Si  Si5  1  0.72340900  0.26095000  0.71143900  1
  O  O0  1  0.83384500  0.81076400  0.12876500  1
  O  O1  1  0.18923600  0.16615500  0.87123500  1
  O  O2  1  0.90419800  0.18946000  0.17334900  1
  O  O3  1  0.81054000  0.09580200  0.82665100  1
  O  O4  1  0.19490500  0.90673100  0.18339400  1
  O  O5  1  0.09326900  0.80509500  0.81660600  1
  O  O6  1  0.77453400  0.22546600  0.50000000  1
  O  O7  1  0.55564900  0.19795300  0.22881800  1
  O  O8  1  0.80204700  0.44435100  0.77118200  1
  O  O9  1  0.25027100  0.74972900  0.50000000  1
  O  O10  1  0.74661700  0.49143800  0.25288300  1
  O  O11  1  0.50856200  0.25338300  0.74711700  1
  O  O12  1  0.43178900  0.79349700  0.79808400  1
  O  O13  1  0.20650300  0.56821100  0.20191600  1
  O  O14  1  0.50577100  0.75302900  0.24129000  1
  O  O15  1  0.24697100  0.49422900  0.75871000  1
  O  O16  1  0.76225600  0.75326400  0.48176300  1
  O  O17  1  0.24673600  0.23774400  0.51823700  1
loop_
_geom_bond_atom_site_label_1
_geom_bond_atom_site_label_2
_geom_bond_distance
_geom_bond_site_symmetry_2
Na0 O6 2.467356 1_465
Na0 O9 2.554882 1_555
Na0 O17 2.642507 1_565
Na0 O16 2.642507 1_455
Na0 O4 2.783969 1_555
Na0 O5 2.783969 1_555
Na0 O3 2.925764 1_465
Na0 O2 2.925764 1_465
Na1 O7 2.363390 1_555
Na1 O12 2.384108 1_544
Na1 O14 2.556711 1_545
Na1 O11 2.570137 1_554
Na1 O4 2.670593 1_545
Na1 O3 2.730562 1_554
Na1 O1 2.773367 1_554
Na2 O8 2.363390 1_555
Na2 O13 2.384108 1_656
Na2 O15 2.556711 1_655
Na2 O10 2.570137 1_556
Na2 O5 2.670593 1_655
Na2 O2 2.730562 1_556
Na2 O0 2.773367 1_556
O0 Si2 1.614509 1_555
O0 Zr0 2.077932 1_655
O1 Si3 1.614509 1_555
O1 Zr0 2.077932 1_546
O2 Si4 1.622153 1_555
O2 Zr0 2.096722 1_645
O3 Si5 1.622153 1_555
O3 Zr0 2.096722 1_646
O4 Si0 1.623016 1_555
O4 Zr0 2.139068 1_555
O5 Si1 1.623016 1_555
O5 Zr0 2.139068 1_556
O6 Si4 1.643534 1_555
O6 Si5 1.643534 1_555
O7 Si4 1.624345 1_555
O8 Si5 1.624345 1_555
O9 Si1 1.634275 1_555
O9 Si0 1.634275 1_555
O10 Si4 1.632253 1_555
O10 Si2 1.641037 1_555
O11 Si5 1.632253 1_555
O11 Si3 1.641037 1_555
O12 Si1 1.633248 1_555
O13 Si0 1.633248 1_555
O14 Si0 1.629022 1_555
O14 Si2 1.643453 1_555
O15 Si1 1.629022 1_555
O15 Si3 1.643453 1_555
O16 Si2 1.636654 1_555
O17 Si3 1.636654 1_555
