# generated using pymatgen
data_Si2BPH28C9
_symmetry_space_group_name_H-M   'P 1'
_cell_length_a   15.84628400
_cell_length_b   9.43122200
_cell_length_c   13.56839152
_cell_angle_alpha   72.89602484
_cell_angle_beta   90.00000000
_cell_angle_gamma   90.00000000
_symmetry_Int_Tables_number   1
_chemical_formula_structural   Si2BPH28C9
_chemical_formula_sum   'Si8 B4 P4 H112 C36'
_cell_volume   1938.10968191
_cell_formula_units_Z   4
loop_
 _symmetry_equiv_pos_site_id
 _symmetry_equiv_pos_as_xyz
  1  'x, y, z'
loop_
 _atom_site_type_symbol
 _atom_site_label
 _atom_site_symmetry_multiplicity
 _atom_site_fract_x
 _atom_site_fract_y
 _atom_site_fract_z
 _atom_site_occupancy
  Si  Si0  1  0.36230700  0.19211100  0.81299600  1
  Si  Si1  1  0.86230700  0.80788900  0.68700400  1
  Si  Si2  1  0.63769300  0.80788900  0.18700400  1
  Si  Si3  1  0.13769300  0.19211100  0.31299600  1
  Si  Si4  1  0.22200800  0.45536000  0.76267000  1
  Si  Si5  1  0.72200800  0.54464000  0.73733000  1
  Si  Si6  1  0.77799200  0.54464000  0.23733000  1
  Si  Si7  1  0.27799200  0.45536000  0.26267000  1
  B  B0  1  0.16930200  0.04544600  0.70438700  1
  B  B1  1  0.66930200  0.95455400  0.79561300  1
  B  B2  1  0.83069800  0.95455400  0.29561300  1
  B  B3  1  0.33069800  0.04544600  0.20438700  1
  P  P0  1  0.16763500  0.11427200  0.82403600  1
  P  P1  1  0.66763500  0.88572800  0.67596400  1
  P  P2  1  0.83236500  0.88572800  0.17596400  1
  P  P3  1  0.33236500  0.11427200  0.32403600  1
  H  H0  1  0.10874600  0.96178300  0.71514200  1
  H  H1  1  0.60874600  0.03821700  0.78485800  1
  H  H2  1  0.89125400  0.03821700  0.28485800  1
  H  H3  1  0.39125400  0.96178300  0.21514200  1
  H  H4  1  0.23600100  0.98116900  0.70509700  1
  H  H5  1  0.73600100  0.01883100  0.79490300  1
  H  H6  1  0.76399900  0.01883100  0.29490300  1
  H  H7  1  0.26399900  0.98116900  0.20509700  1
  H  H8  1  0.16112000  0.15438000  0.63001700  1
  H  H9  1  0.66112000  0.84562000  0.86998300  1
  H  H10  1  0.83888000  0.84562000  0.36998300  1
  H  H11  1  0.33888000  0.15438000  0.13001700  1
  H  H12  1  0.24838600  0.24725600  0.91549700  1
  H  H13  1  0.74838600  0.75274400  0.58450300  1
  H  H14  1  0.75161400  0.75274400  0.08450300  1
  H  H15  1  0.25161400  0.24725600  0.41549700  1
  H  H16  1  0.16665100  0.99277000  0.01258000  1
  H  H17  1  0.66665100  0.00723000  0.48742000  1
  H  H18  1  0.83334900  0.00723000  0.98742000  1
  H  H19  1  0.33334900  0.99277000  0.51258000  1
  H  H20  1  0.22696600  0.89034000  0.94487600  1
  H  H21  1  0.72696600  0.10966000  0.55512400  1
  H  H22  1  0.77303400  0.10966000  0.05512400  1
  H  H23  1  0.27303400  0.89034000  0.44487600  1
  H  H24  1  0.11488000  0.89062600  0.93779100  1
  H  H25  1  0.61488000  0.10937400  0.56220900  1
  H  H26  1  0.88512000  0.10937400  0.06220900  1
  H  H27  1  0.38512000  0.89062600  0.43779100  1
  H  H28  1  0.01855000  0.09626300  0.83906700  1
  H  H29  1  0.51855000  0.90373700  0.66093300  1
  H  H30  1  0.98145000  0.90373700  0.16093300  1
  H  H31  1  0.48145000  0.09626300  0.33906700  1
  H  H32  1  0.04731300  0.28082200  0.77036600  1
  H  H33  1  0.54731300  0.71917800  0.72963400  1
  H  H34  1  0.95268700  0.71917800  0.22963400  1
  H  H35  1  0.45268700  0.28082200  0.27036600  1
  H  H36  1  0.05620000  0.21833300  0.90872400  1
  H  H37  1  0.55620000  0.78166700  0.59127600  1
  H  H38  1  0.94380000  0.78166700  0.09127600  1
  H  H39  1  0.44380000  0.21833300  0.40872400  1
  H  H40  1  0.45546800  0.19330600  0.66672500  1
  H  H41  1  0.95546800  0.80669400  0.83327500  1
  H  H42  1  0.54453200  0.80669400  0.33327500  1
  H  H43  1  0.04453200  0.19330600  0.16672500  1
  H  H44  1  0.39305400  0.35655400  0.63332600  1
  H  H45  1  0.89305400  0.64344600  0.86667400  1
  H  H46  1  0.60694600  0.64344600  0.36667400  1
  H  H47  1  0.10694600  0.35655400  0.13332600  1
  H  H48  1  0.34746800  0.18435600  0.63139300  1
  H  H49  1  0.84746800  0.81564400  0.86860700  1
  H  H50  1  0.65253200  0.81564400  0.36860700  1
  H  H51  1  0.15253200  0.18435600  0.13139300  1
  H  H52  1  0.42440700  0.25593100  0.96373900  1
  H  H53  1  0.92440700  0.74406900  0.53626100  1
  H  H54  1  0.57559300  0.74406900  0.03626100  1
  H  H55  1  0.07559300  0.25593100  0.46373900  1
  H  H56  1  0.44267000  0.40488300  0.84913000  1
  H  H57  1  0.94267000  0.59511700  0.65087000  1
  H  H58  1  0.55733000  0.59511700  0.15087000  1
  H  H59  1  0.05733000  0.40488300  0.34913000  1
  H  H60  1  0.50121700  0.23723700  0.87335200  1
  H  H61  1  0.00121700  0.76276300  0.62664800  1
  H  H62  1  0.49878300  0.76276300  0.12664800  1
  H  H63  1  0.99878300  0.23723700  0.37335200  1
  H  H64  1  0.44890900  0.96966400  0.86337400  1
  H  H65  1  0.94890900  0.03033600  0.63662600  1
  H  H66  1  0.55109100  0.03033600  0.13662600  1
  H  H67  1  0.05109100  0.96966400  0.36337400  1
  H  H68  1  0.34399900  0.91741100  0.84142500  1
  H  H69  1  0.84399900  0.08258900  0.65857500  1
  H  H70  1  0.65600100  0.08258900  0.15857500  1
  H  H71  1  0.15600100  0.91741100  0.34142500  1
  H  H72  1  0.37064800  0.95933100  0.95876100  1
  H  H73  1  0.87064800  0.04066900  0.54123900  1
  H  H74  1  0.62935200  0.04066900  0.04123900  1
  H  H75  1  0.12935200  0.95933100  0.45876100  1
  H  H76  1  0.16353000  0.51690600  0.91713200  1
  H  H77  1  0.66353000  0.48309400  0.58286800  1
  H  H78  1  0.83647000  0.48309400  0.08286800  1
  H  H79  1  0.33647000  0.51690600  0.41713200  1
  H  H80  1  0.07927600  0.48452600  0.83944100  1
  H  H81  1  0.57927600  0.51547400  0.66055900  1
  H  H82  1  0.92072400  0.51547400  0.16055900  1
  H  H83  1  0.42072400  0.48452600  0.33944100  1
  H  H84  1  0.13826000  0.65195700  0.79919200  1
  H  H85  1  0.63826000  0.34804300  0.70080800  1
  H  H86  1  0.86174000  0.34804300  0.20080800  1
  H  H87  1  0.36174000  0.65195700  0.29919200  1
  H  H88  1  0.36837800  0.55631400  0.70750300  1
  H  H89  1  0.86837800  0.44368600  0.79249700  1
  H  H90  1  0.63162200  0.44368600  0.29249700  1
  H  H91  1  0.13162200  0.55631400  0.20750300  1
  H  H92  1  0.33900400  0.58465000  0.82755400  1
  H  H93  1  0.83900400  0.41535000  0.67244600  1
  H  H94  1  0.66099600  0.41535000  0.17244600  1
  H  H95  1  0.16099600  0.58465000  0.32755400  1
  H  H96  1  0.29256000  0.69383100  0.71100400  1
  H  H97  1  0.79256000  0.30616900  0.78899600  1
  H  H98  1  0.70744000  0.30616900  0.28899600  1
  H  H99  1  0.20744000  0.69383100  0.21100400  1
  H  H100  1  0.17380400  0.60060300  0.58849700  1
  H  H101  1  0.67380400  0.39939700  0.91150300  1
  H  H102  1  0.82619600  0.39939700  0.41150300  1
  H  H103  1  0.32619600  0.60060300  0.08849700  1
  H  H104  1  0.12232100  0.42544900  0.62586600  1
  H  H105  1  0.62232100  0.57455100  0.87413400  1
  H  H106  1  0.87767900  0.57455100  0.37413400  1
  H  H107  1  0.37767900  0.42544900  0.12586600  1
  H  H108  1  0.22840100  0.43786400  0.58314900  1
  H  H109  1  0.72840100  0.56213600  0.91685100  1
  H  H110  1  0.77159900  0.56213600  0.41685100  1
  H  H111  1  0.27159900  0.43786400  0.08314900  1
  C  C0  1  0.24800400  0.25027800  0.83323100  1
  C  C1  1  0.74800400  0.74972200  0.66676900  1
  C  C2  1  0.75199600  0.74972200  0.16676900  1
  C  C3  1  0.25199600  0.25027800  0.33323100  1
  C  C4  1  0.17023400  0.95819300  0.94200900  1
  C  C5  1  0.67023400  0.04180700  0.55799100  1
  C  C6  1  0.82976600  0.04180700  0.05799100  1
  C  C7  1  0.32976600  0.95819300  0.44200900  1
  C  C8  1  0.06270700  0.18656600  0.83750400  1
  C  C9  1  0.56270700  0.81343400  0.66249600  1
  C  C10  1  0.93729300  0.81343400  0.16249600  1
  C  C11  1  0.43729300  0.18656600  0.33750400  1
  C  C12  1  0.39159800  0.23677700  0.67236600  1
  C  C13  1  0.89159800  0.76322300  0.82763400  1
  C  C14  1  0.60840200  0.76322300  0.32763400  1
  C  C15  1  0.10840200  0.23677700  0.17236600  1
  C  C16  1  0.43880200  0.28388700  0.88086000  1
  C  C17  1  0.93880200  0.71611300  0.61914000  1
  C  C18  1  0.56119800  0.71611300  0.11914000  1
  C  C19  1  0.06119800  0.28388700  0.38086000  1
  C  C20  1  0.38166500  0.98908400  0.87511300  1
  C  C21  1  0.88166500  0.01091600  0.62488700  1
  C  C22  1  0.61833500  0.01091600  0.12488700  1
  C  C23  1  0.11833500  0.98908400  0.37511300  1
  C  C24  1  0.14275900  0.53187000  0.83733500  1
  C  C25  1  0.64275900  0.46813000  0.66266500  1
  C  C26  1  0.85724100  0.46813000  0.16266500  1
  C  C27  1  0.35724100  0.53187000  0.33733500  1
  C  C28  1  0.31559400  0.58190700  0.75188100  1
  C  C29  1  0.81559400  0.41809300  0.74811900  1
  C  C30  1  0.68440600  0.41809300  0.24811900  1
  C  C31  1  0.18440600  0.58190700  0.25188100  1
  C  C32  1  0.18274500  0.48145100  0.62767400  1
  C  C33  1  0.68274500  0.51854900  0.87232600  1
  C  C34  1  0.81725500  0.51854900  0.37232600  1
  C  C35  1  0.31725500  0.48145100  0.12767400  1
loop_
_geom_bond_atom_site_label_1
_geom_bond_atom_site_label_2
_geom_bond_distance
_geom_bond_site_symmetry_2
B0 H8 1.216865 1_555
B0 H4 1.217067 1_545
B0 H0 1.223505 1_545
B0 P0 1.917675 1_555
B1 H9 1.216865 1_555
B1 H5 1.217067 1_565
B1 H1 1.223505 1_565
B1 P1 1.917675 1_555
B2 H10 1.216865 1_555
B2 H6 1.217067 1_565
B2 H2 1.223505 1_565
B2 P2 1.917675 1_555
B3 H11 1.216865 1_555
B3 H7 1.217067 1_545
B3 H3 1.223505 1_545
B3 P3 1.917675 1_555
C0 H12 1.108186 1_555
C0 P0 1.837649 1_555
C0 Si4 1.933416 1_555
C0 Si0 1.935368 1_555
C1 H13 1.108186 1_555
C1 P1 1.837649 1_555
C1 Si5 1.933416 1_555
C1 Si1 1.935368 1_555
C2 H14 1.108186 1_555
C2 P2 1.837649 1_555
C2 Si6 1.933416 1_555
C2 Si2 1.935368 1_555
C3 H15 1.108186 1_555
C3 P3 1.837649 1_555
C3 Si7 1.933416 1_555
C3 Si3 1.935368 1_555
C4 H24 1.095538 1_555
C4 H20 1.097531 1_555
C4 H16 1.100051 1_556
C4 P0 1.828878 1_565
C5 H25 1.095538 1_555
C5 H21 1.097531 1_555
C5 H17 1.100051 1_555
C5 P1 1.828878 1_545
C6 H26 1.095538 1_555
C6 H22 1.097531 1_555
C6 H18 1.100051 1_554
C6 P2 1.828878 1_545
C7 H27 1.095538 1_555
C7 H23 1.097531 1_555
C7 H19 1.100051 1_555
C7 P3 1.828878 1_565
C8 H32 1.096925 1_555
C8 H36 1.097500 1_555
C8 H28 1.097624 1_555
C8 P0 1.826526 1_555
C9 H33 1.096925 1_555
C9 H37 1.097500 1_555
C9 H29 1.097624 1_555
C9 P1 1.826526 1_555
C10 H34 1.096925 1_555
C10 H38 1.097500 1_555
C10 H30 1.097624 1_555
C10 P2 1.826526 1_555
C11 H35 1.096925 1_555
C11 H39 1.097500 1_555
C11 H31 1.097624 1_555
C11 P3 1.826526 1_555
C12 H48 1.097351 1_555
C12 H44 1.097835 1_555
C12 H40 1.103066 1_555
C12 Si0 1.887066 1_555
C13 H49 1.097351 1_555
C13 H45 1.097835 1_555
C13 H41 1.103066 1_555
C13 Si1 1.887066 1_555
C14 H50 1.097351 1_555
C14 H46 1.097835 1_555
C14 H42 1.103066 1_555
C14 Si2 1.887066 1_555
C15 H51 1.097351 1_555
C15 H47 1.097835 1_555
C15 H43 1.103066 1_555
C15 Si3 1.887066 1_555
C16 H56 1.096507 1_555
C16 H60 1.099329 1_555
C16 H52 1.100784 1_555
C16 Si0 1.880219 1_555
C17 H57 1.096507 1_555
C17 H61 1.099329 1_655
C17 H53 1.100784 1_555
C17 Si1 1.880219 1_555
C18 H58 1.096507 1_555
C18 H62 1.099329 1_555
C18 H54 1.100784 1_555
C18 Si2 1.880219 1_555
C19 H59 1.096507 1_555
C19 H63 1.099329 1_455
C19 H55 1.100784 1_555
C19 Si3 1.880219 1_555
C20 H68 1.097203 1_555
C20 H72 1.100017 1_555
C20 H64 1.100686 1_555
C20 Si0 1.876594 1_565
C21 H69 1.097203 1_555
C21 H73 1.100017 1_555
C21 H65 1.100686 1_555
C21 Si1 1.876594 1_545
C22 H70 1.097203 1_555
C22 H74 1.100017 1_555
C22 H66 1.100686 1_555
C22 Si2 1.876594 1_545
C23 H71 1.097203 1_555
C23 H75 1.100017 1_555
C23 H67 1.100686 1_555
C23 Si3 1.876594 1_565
C24 H80 1.097570 1_555
C24 H76 1.100295 1_555
C24 H84 1.100390 1_555
C24 Si4 1.885221 1_555
C25 H81 1.097570 1_555
C25 H77 1.100295 1_555
C25 H85 1.100390 1_555
C25 Si5 1.885221 1_555
C26 H82 1.097570 1_555
C26 H78 1.100295 1_555
C26 H86 1.100390 1_555
C26 Si6 1.885221 1_555
C27 H83 1.097570 1_555
C27 H79 1.100295 1_555
C27 H87 1.100390 1_555
C27 Si7 1.885221 1_555
C28 H88 1.098152 1_555
C28 H92 1.099156 1_555
C28 H96 1.100327 1_555
C28 Si4 1.882112 1_555
C29 H89 1.098152 1_555
C29 H93 1.099156 1_555
C29 H97 1.100327 1_555
C29 Si5 1.882112 1_555
C30 H90 1.098152 1_555
C30 H94 1.099156 1_555
C30 H98 1.100327 1_555
C30 Si6 1.882112 1_555
C31 H91 1.098152 1_555
C31 H95 1.099156 1_555
C31 H99 1.100327 1_555
C31 Si7 1.882112 1_555
C32 H108 1.097024 1_555
C32 H104 1.097261 1_555
C32 H100 1.101854 1_555
C32 Si4 1.880844 1_555
C33 H109 1.097024 1_555
C33 H105 1.097261 1_555
C33 H101 1.101854 1_555
C33 Si5 1.880844 1_555
C34 H110 1.097024 1_555
C34 H106 1.097261 1_555
C34 H102 1.101854 1_555
C34 Si6 1.880844 1_555
C35 H111 1.097024 1_555
C35 H107 1.097261 1_555
C35 H103 1.101854 1_555
C35 Si7 1.880844 1_555
