# generated using pymatgen
data_RbSbSe2
_symmetry_space_group_name_H-M   'P 1'
_cell_length_a   6.80157713
_cell_length_b   6.75427314
_cell_length_c   12.74024980
_cell_angle_alpha   99.16791216
_cell_angle_beta   101.12587730
_cell_angle_gamma   104.49022792
_symmetry_Int_Tables_number   1
_chemical_formula_structural   RbSbSe2
_chemical_formula_sum   'Rb4 Sb4 Se8'
_cell_volume   542.57563216
_cell_formula_units_Z   4
loop_
 _symmetry_equiv_pos_site_id
 _symmetry_equiv_pos_as_xyz
  1  'x, y, z'
loop_
 _atom_site_type_symbol
 _atom_site_label
 _atom_site_symmetry_multiplicity
 _atom_site_fract_x
 _atom_site_fract_y
 _atom_site_fract_z
 _atom_site_occupancy
  Rb  Rb0  1  0.56456518  0.32792680  0.15321973  1
  Rb  Rb1  1  0.89362269  0.71643670  0.57986382  1
  Rb  Rb2  1  0.43543482  0.67207320  0.84678027  1
  Rb  Rb3  1  0.10637731  0.28356330  0.42013618  1
  Sb  Sb0  1  0.40997226  0.80601860  0.34789500  1
  Sb  Sb1  1  0.01220549  0.21644890  0.91463899  1
  Sb  Sb2  1  0.98779451  0.78355110  0.08536101  1
  Sb  Sb3  1  0.59002774  0.19398140  0.65210500  1
  Se  Se0  1  0.01438569  0.75686519  0.31821392  1
  Se  Se1  1  0.98561431  0.24313481  0.68178608  1
  Se  Se2  1  0.62317443  0.21014110  0.87599128  1
  Se  Se3  1  0.57601898  0.20157447  0.40838269  1
  Se  Se4  1  0.37682557  0.78985890  0.12400872  1
  Se  Se5  1  0.42398102  0.79842553  0.59161731  1
  Se  Se6  1  0.02079445  0.17614819  0.13400333  1
  Se  Se7  1  0.97920555  0.82385181  0.86599667  1
loop_
_geom_bond_atom_site_label_1
_geom_bond_atom_site_label_2
_geom_bond_distance
_geom_bond_site_symmetry_2
Rb0 Se4 3.469892 1_545
Rb0 Se3 3.481658 1_555
Rb0 Se6 3.530290 1_555
Rb0 Se6 3.541910 1_655
Rb0 Se2 3.615696 1_554
Rb0 Se0 3.648884 1_655
Rb0 Se4 3.699171 1_555
Rb1 Se5 3.402362 1_555
Rb1 Se1 3.440017 1_565
Rb1 Se5 3.479505 1_655
Rb1 Se7 3.504443 1_555
Rb1 Se0 3.618821 1_655
Rb1 Se3 3.678447 1_555
Rb1 Se1 3.782513 1_555
Rb2 Se2 3.469892 1_565
Rb2 Se5 3.481658 1_555
Rb2 Se7 3.530290 1_555
Rb2 Se7 3.541910 1_455
Rb2 Se4 3.615696 1_556
Rb2 Se1 3.648884 1_455
Rb2 Se2 3.699171 1_555
Rb3 Se3 3.402362 1_555
Rb3 Se0 3.440017 1_545
Rb3 Se3 3.479505 1_455
Rb3 Se6 3.504443 1_555
Rb3 Se1 3.618821 1_455
Rb3 Se5 3.678447 1_555
Rb3 Se0 3.782513 1_555
Sb0 Se3 2.550562 1_565
Sb0 Se0 2.571561 1_555
Sb0 Se4 2.799829 1_555
Sb0 Se5 3.097137 1_555
Sb1 Se7 2.567256 1_445
Sb1 Se2 2.584529 1_455
Sb1 Se6 2.841748 1_556
Sb1 Se1 2.974151 1_455
Sb2 Se6 2.567256 1_665
Sb2 Se4 2.584529 1_655
Sb2 Se7 2.841748 1_554
Sb2 Se0 2.974151 1_655
Sb3 Se5 2.550562 1_545
Sb3 Se1 2.571561 1_555
Sb3 Se2 2.799829 1_555
Sb3 Se3 3.097137 1_555
