# generated using pymatgen
data_Ce4Cu5Sb8
_symmetry_space_group_name_H-M   'P 1'
_cell_length_a   4.52856200
_cell_length_b   4.52856200
_cell_length_c   19.90309500
_cell_angle_alpha   90.00000000
_cell_angle_beta   90.00000000
_cell_angle_gamma   90.00000000
_symmetry_Int_Tables_number   1
_chemical_formula_structural   Ce4Cu5Sb8
_chemical_formula_sum   'Ce4 Cu5 Sb8'
_cell_volume   408.17016025
_cell_formula_units_Z   1
loop_
 _symmetry_equiv_pos_site_id
 _symmetry_equiv_pos_as_xyz
  1  'x, y, z'
loop_
 _atom_site_type_symbol
 _atom_site_label
 _atom_site_symmetry_multiplicity
 _atom_site_fract_x
 _atom_site_fract_y
 _atom_site_fract_z
 _atom_site_occupancy
  Ce  Ce0  1  0.75000000  0.75000000  0.37585200  1
  Ce  Ce1  1  0.75000000  0.75000000  0.86541200  1
  Ce  Ce2  1  0.25000000  0.25000000  0.12430700  1
  Ce  Ce3  1  0.25000000  0.25000000  0.62545800  1
  Cu  Cu0  1  0.75000000  0.25000000  0.25329300  1
  Cu  Cu1  1  0.75000000  0.25000000  0.74857700  1
  Cu  Cu2  1  0.25000000  0.75000000  0.25329300  1
  Cu  Cu3  1  0.25000000  0.75000000  0.74857700  1
  Cu  Cu4  1  0.75000000  0.75000000  0.06058500  1
  Sb  Sb0  1  0.75000000  0.25000000  0.99094600  1
  Sb  Sb1  1  0.75000000  0.25000000  0.50010000  1
  Sb  Sb2  1  0.25000000  0.75000000  0.99094600  1
  Sb  Sb3  1  0.25000000  0.75000000  0.50010000  1
  Sb  Sb4  1  0.75000000  0.75000000  0.18498800  1
  Sb  Sb5  1  0.75000000  0.75000000  0.67214900  1
  Sb  Sb6  1  0.25000000  0.25000000  0.33038400  1
  Sb  Sb7  1  0.25000000  0.25000000  0.82488200  1
loop_
_geom_bond_atom_site_label_1
_geom_bond_atom_site_label_2
_geom_bond_distance
_geom_bond_site_symmetry_2
Ce0 Sb6 3.327593 1_565
Ce0 Sb6 3.327593 1_655
Ce0 Sb6 3.327593 1_665
Ce0 Sb6 3.327593 1_555
Ce0 Cu2 3.328238 1_655
Ce0 Cu0 3.328238 1_565
Ce0 Cu2 3.328238 1_555
Ce0 Cu0 3.328238 1_555
Ce0 Sb3 3.352954 1_555
Ce0 Sb3 3.352954 1_655
Ce0 Sb1 3.352954 1_555
Ce0 Sb1 3.352954 1_565
Ce1 Cu1 3.245667 1_565
Ce1 Cu3 3.245667 1_655
Ce1 Cu1 3.245667 1_555
Ce1 Cu3 3.245667 1_555
Ce1 Sb7 3.302220 1_565
Ce1 Sb7 3.302220 1_555
Ce1 Sb7 3.302220 1_655
Ce1 Sb7 3.302220 1_665
Ce1 Sb0 3.371876 1_565
Ce1 Sb0 3.371876 1_555
Ce1 Sb2 3.371876 1_655
Ce1 Sb2 3.371876 1_555
Ce2 Sb4 3.422364 1_455
Ce2 Sb4 3.422364 1_555
Ce2 Sb4 3.422364 1_445
Ce2 Sb4 3.422364 1_545
Ce2 Cu2 3.423097 1_545
Ce2 Cu2 3.423097 1_555
Ce2 Cu0 3.423097 1_555
Ce2 Cu0 3.423097 1_455
Ce2 Cu4 3.444188 1_545
Ce2 Cu4 3.444188 1_555
Ce2 Cu4 3.444188 1_445
Ce2 Cu4 3.444188 1_455
Ce2 Sb0 3.488876 1_454
Ce2 Sb2 3.488876 1_554
Ce2 Sb2 3.488876 1_544
Ce2 Sb0 3.488876 1_554
Ce3 Sb5 3.334296 1_455
Ce3 Sb5 3.334296 1_545
Ce3 Sb5 3.334296 1_555
Ce3 Sb5 3.334296 1_445
Ce3 Cu3 3.336416 1_545
Ce3 Cu1 3.336416 1_555
Ce3 Cu1 3.336416 1_455
Ce3 Cu3 3.336416 1_555
Ce3 Sb1 3.369281 1_555
Ce3 Sb3 3.369281 1_555
Ce3 Sb3 3.369281 1_545
Ce3 Sb1 3.369281 1_455
Cu0 Sb4 2.641052 1_555
Cu0 Sb4 2.641052 1_545
Cu0 Sb6 2.735178 1_555
Cu0 Sb6 2.735178 1_655
Cu1 Sb7 2.726433 1_555
Cu1 Sb7 2.726433 1_655
Cu1 Sb5 2.727797 1_545
Cu1 Sb5 2.727797 1_555
Cu2 Sb4 2.641052 1_455
Cu2 Sb4 2.641052 1_555
Cu2 Sb6 2.735178 1_555
Cu2 Sb6 2.735178 1_565
Cu3 Sb7 2.726433 1_555
Cu3 Sb7 2.726433 1_565
Cu3 Sb5 2.727797 1_455
Cu3 Sb5 2.727797 1_555
Cu4 Sb4 2.476005 1_555
Cu4 Sb0 2.654817 1_554
Cu4 Sb2 2.654817 1_654
Cu4 Sb0 2.654817 1_564
Cu4 Sb2 2.654817 1_554
Sb0 Sb2 3.202177 1_645
Sb0 Sb2 3.202177 1_555
Sb0 Sb2 3.202177 1_655
Sb0 Sb2 3.202177 1_545
Sb1 Sb3 3.202177 1_645
Sb1 Sb3 3.202177 1_555
Sb1 Sb3 3.202177 1_545
Sb1 Sb3 3.202177 1_655
