# generated using pymatgen
data_Co2As
_symmetry_space_group_name_H-M   'P 1'
_cell_length_a   11.89791419
_cell_length_b   11.89791419
_cell_length_c   3.58193400
_cell_angle_alpha   90.00000000
_cell_angle_beta   90.00000000
_cell_angle_gamma   120.00000108
_symmetry_Int_Tables_number   1
_chemical_formula_structural   Co2As
_chemical_formula_sum   'Co24 As12'
_cell_volume   439.12672761
_cell_formula_units_Z   12
loop_
 _symmetry_equiv_pos_site_id
 _symmetry_equiv_pos_as_xyz
  1  'x, y, z'
loop_
 _atom_site_type_symbol
 _atom_site_label
 _atom_site_symmetry_multiplicity
 _atom_site_fract_x
 _atom_site_fract_y
 _atom_site_fract_z
 _atom_site_occupancy
  Co  Co0  1  0.31238300  0.00000000  0.00000000  1
  Co  Co1  1  0.68761700  0.68761700  0.00000000  1
  Co  Co2  1  0.00000000  0.31238300  0.00000000  1
  Co  Co3  1  0.79684500  0.00000000  0.00000000  1
  Co  Co4  1  0.20315500  0.20315500  0.00000000  1
  Co  Co5  1  0.00000000  0.79684500  0.00000000  1
  Co  Co6  1  0.17245900  0.54372200  0.50000000  1
  Co  Co7  1  0.37126300  0.82754100  0.50000000  1
  Co  Co8  1  0.45627800  0.62873700  0.50000000  1
  Co  Co9  1  0.62873700  0.45627800  0.50000000  1
  Co  Co10  1  0.82754100  0.37126300  0.50000000  1
  Co  Co11  1  0.54372200  0.17245900  0.50000000  1
  Co  Co12  1  0.12786500  0.00000000  0.50000000  1
  Co  Co13  1  0.87213500  0.87213500  0.50000000  1
  Co  Co14  1  0.00000000  0.12786500  0.50000000  1
  Co  Co15  1  0.62805000  0.00000000  0.50000000  1
  Co  Co16  1  0.37195000  0.37195000  0.50000000  1
  Co  Co17  1  0.00000000  0.62805000  0.50000000  1
  Co  Co18  1  0.17527600  0.71867900  0.00000000  1
  Co  Co19  1  0.54340200  0.82472400  0.00000000  1
  Co  Co20  1  0.28132100  0.45659800  0.00000000  1
  Co  Co21  1  0.45659800  0.28132100  0.00000000  1
  Co  Co22  1  0.82472400  0.54340200  0.00000000  1
  Co  Co23  1  0.71867900  0.17527600  0.00000000  1
  As  As0  1  0.00000000  0.00000000  0.00000000  1
  As  As1  1  0.50278000  0.00000000  0.00000000  1
  As  As2  1  0.49722000  0.49722000  0.00000000  1
  As  As3  1  0.00000000  0.50278000  0.00000000  1
  As  As4  1  0.33628600  0.15845400  0.50000000  1
  As  As5  1  0.82216800  0.66371400  0.50000000  1
  As  As6  1  0.84154600  0.17783200  0.50000000  1
  As  As7  1  0.17783200  0.84154600  0.50000000  1
  As  As8  1  0.66371400  0.82216800  0.50000000  1
  As  As9  1  0.15845400  0.33628600  0.50000000  1
  As  As10  1  0.33333300  0.66666700  0.00000000  1
  As  As11  1  0.66666700  0.33333300  0.00000000  1
loop_
_geom_bond_atom_site_label_1
_geom_bond_atom_site_label_2
_geom_bond_distance
_geom_bond_site_symmetry_2
As0 Co13 2.349893 1_445
As0 Co13 2.349893 1_444
As0 Co14 2.349893 1_555
As0 Co12 2.349893 1_554
As0 Co12 2.349893 1_555
As0 Co14 2.349893 1_554
As0 Co4 2.417121 1_555
As0 Co3 2.417121 1_455
As0 Co5 2.417121 1_545
As1 Co0 2.265327 1_555
As1 Co15 2.330023 1_554
As1 Co15 2.330023 1_555
As1 Co19 2.364421 1_545
As1 Co23 2.364428 1_555
As1 Co7 2.579850 1_545
As1 Co7 2.579850 1_544
As1 Co11 2.579850 1_554
As1 Co11 2.579850 1_555
As2 Co1 2.265327 1_555
As2 Co16 2.330023 1_554
As2 Co16 2.330023 1_555
As2 Co21 2.364432 1_555
As2 Co20 2.364432 1_555
As2 Co8 2.579850 1_554
As2 Co8 2.579850 1_555
As2 Co9 2.579850 1_555
As2 Co9 2.579850 1_554
As3 Co2 2.265327 1_555
As3 Co17 2.330023 1_554
As3 Co17 2.330023 1_555
As3 Co22 2.364421 1_455
As3 Co18 2.364428 1_555
As3 Co10 2.579850 1_455
As3 Co10 2.579850 1_454
As3 Co6 2.579850 1_555
As3 Co6 2.579850 1_554
As4 Co12 2.242428 1_555
As4 Co21 2.302409 1_556
As4 Co21 2.302409 1_555
As4 Co16 2.356819 1_555
As4 Co11 2.389103 1_555
As4 Co0 2.511281 1_556
As4 Co0 2.511281 1_555
As4 Co4 2.615695 1_556
As4 Co4 2.615695 1_555
As5 Co13 2.242428 1_555
As5 Co22 2.302412 1_556
As5 Co22 2.302412 1_555
As5 Co17 2.356819 1_655
As5 Co9 2.389103 1_555
As5 Co1 2.511281 1_555
As5 Co1 2.511281 1_556
As5 Co5 2.615695 1_655
As5 Co5 2.615695 1_656
As6 Co14 2.242428 1_655
As6 Co23 2.302405 1_555
As6 Co23 2.302405 1_556
As6 Co15 2.356819 1_555
As6 Co10 2.389103 1_555
As6 Co2 2.511281 1_656
As6 Co2 2.511281 1_655
As6 Co3 2.615695 1_556
As6 Co3 2.615695 1_555
As7 Co12 2.242428 1_565
As7 Co18 2.302405 1_556
As7 Co18 2.302405 1_555
As7 Co17 2.356819 1_555
As7 Co7 2.389103 1_555
As7 Co0 2.511281 1_565
As7 Co0 2.511281 1_566
As7 Co5 2.615695 1_555
As7 Co5 2.615695 1_556
As8 Co13 2.242428 1_555
As8 Co19 2.302412 1_555
As8 Co19 2.302412 1_556
As8 Co15 2.356819 1_565
As8 Co8 2.389103 1_555
As8 Co1 2.511281 1_555
As8 Co1 2.511281 1_556
As8 Co3 2.615695 1_565
As8 Co3 2.615695 1_566
As9 Co14 2.242428 1_555
As9 Co20 2.302409 1_555
As9 Co20 2.302409 1_556
As9 Co16 2.356819 1_555
As9 Co6 2.389103 1_555
As9 Co2 2.511281 1_556
As9 Co2 2.511281 1_555
As9 Co4 2.615695 1_556
As9 Co4 2.615695 1_555
As10 Co19 2.254588 1_555
As10 Co20 2.254588 1_555
As10 Co18 2.254588 1_555
As10 Co7 2.492203 1_555
As10 Co7 2.492203 1_554
As10 Co6 2.492205 1_554
As10 Co6 2.492205 1_555
As10 Co8 2.492211 1_554
As10 Co8 2.492211 1_555
As11 Co22 2.254588 1_555
As11 Co21 2.254588 1_555
As11 Co23 2.254588 1_555
As11 Co10 2.492203 1_554
As11 Co10 2.492203 1_555
As11 Co11 2.492205 1_555
As11 Co11 2.492205 1_554
As11 Co9 2.492211 1_554
As11 Co9 2.492211 1_555
