# generated using pymatgen
data_Sr3Mo2O7
_symmetry_space_group_name_H-M   'P 1'
_cell_length_a   11.03488982
_cell_length_b   11.03488982
_cell_length_c   11.03488982
_cell_angle_alpha   158.96636068
_cell_angle_beta   158.96636068
_cell_angle_gamma   29.91804344
_symmetry_Int_Tables_number   1
_chemical_formula_structural   Sr3Mo2O7
_chemical_formula_sum   'Sr3 Mo2 O7'
_cell_volume   172.99422315
_cell_formula_units_Z   1
loop_
 _symmetry_equiv_pos_site_id
 _symmetry_equiv_pos_as_xyz
  1  'x, y, z'
loop_
 _atom_site_type_symbol
 _atom_site_label
 _atom_site_symmetry_multiplicity
 _atom_site_fract_x
 _atom_site_fract_y
 _atom_site_fract_z
 _atom_site_occupancy
  Sr  Sr0  1  0.31131100  0.31131100  0.00000000  1
  Sr  Sr1  1  0.68868900  0.68868900  0.00000000  1
  Sr  Sr2  1  0.50000000  0.50000000  0.00000000  1
  Mo  Mo0  1  0.09902700  0.09902700  0.00000000  1
  Mo  Mo1  1  0.90097300  0.90097300  0.00000000  1
  O  O0  1  0.59744100  0.09744100  0.50000000  1
  O  O1  1  0.40255900  0.90255900  0.50000000  1
  O  O2  1  0.09744100  0.59744100  0.50000000  1
  O  O3  1  0.90255900  0.40255900  0.50000000  1
  O  O4  1  0.19826300  0.19826300  0.00000000  1
  O  O5  1  0.80173700  0.80173700  0.00000000  1
  O  O6  1  0.00000000  0.00000000  0.00000000  1
loop_
_geom_bond_atom_site_label_1
_geom_bond_atom_site_label_2
_geom_bond_distance
_geom_bond_site_symmetry_2
Mo0 O0 2.014418 1_454
Mo0 O2 2.014418 1_544
Mo0 O2 2.014418 1_555
Mo0 O0 2.014418 1_555
Mo0 O6 2.111439 1_555
Mo0 O4 2.115895 1_555
Mo1 O3 2.014418 1_554
Mo1 O1 2.014418 1_554
Mo1 O1 2.014418 1_655
Mo1 O3 2.014418 1_565
Mo1 O6 2.111439 1_665
Mo1 O5 2.115895 1_555
O0 Sr1 2.800358 1_556
O0 Sr1 2.800358 1_545
O0 Sr2 2.893657 1_545
O0 Sr2 2.893657 1_556
O1 Sr0 2.800358 1_555
O1 Sr0 2.800358 1_566
O1 Sr2 2.893657 1_566
O1 Sr2 2.893657 1_555
O2 Sr1 2.800358 1_455
O2 Sr1 2.800358 1_556
O2 Sr2 2.893657 1_455
O2 Sr2 2.893657 1_556
O3 Sr0 2.800358 1_555
O3 Sr0 2.800358 1_656
O3 Sr2 2.893657 1_555
O3 Sr2 2.893657 1_656
O4 Sr0 2.410392 1_555
O4 Sr1 2.855721 1_455
O4 Sr1 2.855721 1_556
O4 Sr1 2.855721 1_444
O4 Sr1 2.855721 1_545
O5 Sr1 2.410392 1_555
O5 Sr0 2.855721 1_666
O5 Sr0 2.855721 1_565
O5 Sr0 2.855721 1_655
O5 Sr0 2.855721 1_554
O6 Sr2 2.848416 1_455
O6 Sr2 2.848416 1_444
O6 Sr2 2.848416 1_545
O6 Sr2 2.848416 1_556
