# generated using pymatgen
data_Rb2Ca5N4
_symmetry_space_group_name_H-M   'P 1'
_cell_length_a   7.93601732
_cell_length_b   7.93601732
_cell_length_c   17.49379544
_cell_angle_alpha   90.00000000
_cell_angle_beta   90.00000000
_cell_angle_gamma   90.00000000
_symmetry_Int_Tables_number   1
_chemical_formula_structural   Rb2Ca5N4
_chemical_formula_sum   'Rb8 Ca20 N16'
_cell_volume   1101.76572532
_cell_formula_units_Z   4
loop_
 _symmetry_equiv_pos_site_id
 _symmetry_equiv_pos_as_xyz
  1  'x, y, z'
loop_
 _atom_site_type_symbol
 _atom_site_label
 _atom_site_symmetry_multiplicity
 _atom_site_fract_x
 _atom_site_fract_y
 _atom_site_fract_z
 _atom_site_occupancy
  Rb  Rb0  1  0.07364657  0.92635343  0.25000000  1
  Rb  Rb1  1  0.42635343  0.92635343  0.75000000  1
  Rb  Rb2  1  0.07364657  0.57364657  0.75000000  1
  Rb  Rb3  1  0.42635343  0.57364657  0.25000000  1
  Rb  Rb4  1  0.92635343  0.07364657  0.75000000  1
  Rb  Rb5  1  0.57364657  0.07364657  0.25000000  1
  Rb  Rb6  1  0.92635343  0.42635343  0.25000000  1
  Rb  Rb7  1  0.57364657  0.42635343  0.75000000  1
  Ca  Ca0  1  0.75000000  0.75000000  0.41476764  1
  Ca  Ca1  1  0.75000000  0.75000000  0.91476764  1
  Ca  Ca2  1  0.25000000  0.25000000  0.58523236  1
  Ca  Ca3  1  0.25000000  0.25000000  0.08523236  1
  Ca  Ca4  1  0.13424425  0.57874866  0.43628498  1
  Ca  Ca5  1  0.36575575  0.57874866  0.93628498  1
  Ca  Ca6  1  0.13424425  0.92125134  0.93628498  1
  Ca  Ca7  1  0.36575575  0.92125134  0.43628498  1
  Ca  Ca8  1  0.57874866  0.13424425  0.93628498  1
  Ca  Ca9  1  0.92125134  0.13424425  0.43628498  1
  Ca  Ca10  1  0.57874866  0.36575575  0.43628498  1
  Ca  Ca11  1  0.92125134  0.36575575  0.93628498  1
  Ca  Ca12  1  0.86575575  0.42125134  0.56371502  1
  Ca  Ca13  1  0.63424425  0.42125134  0.06371502  1
  Ca  Ca14  1  0.86575575  0.07874866  0.06371502  1
  Ca  Ca15  1  0.63424425  0.07874866  0.56371502  1
  Ca  Ca16  1  0.42125134  0.86575575  0.06371502  1
  Ca  Ca17  1  0.07874866  0.86575575  0.56371502  1
  Ca  Ca18  1  0.42125134  0.63424425  0.56371502  1
  Ca  Ca19  1  0.07874866  0.63424425  0.06371502  1
  N  N0  1  0.63453733  0.05249838  0.42105445  1
  N  N1  1  0.86546267  0.05249838  0.92105445  1
  N  N2  1  0.63453733  0.44750162  0.92105445  1
  N  N3  1  0.86546267  0.44750162  0.42105445  1
  N  N4  1  0.05249838  0.63453733  0.92105445  1
  N  N5  1  0.44750162  0.63453733  0.42105445  1
  N  N6  1  0.05249838  0.86546267  0.42105445  1
  N  N7  1  0.44750162  0.86546267  0.92105445  1
  N  N8  1  0.36546267  0.94750162  0.57894555  1
  N  N9  1  0.13453733  0.94750162  0.07894555  1
  N  N10  1  0.36546267  0.55249838  0.07894555  1
  N  N11  1  0.13453733  0.55249838  0.57894555  1
  N  N12  1  0.94750162  0.36546267  0.07894555  1
  N  N13  1  0.55249838  0.36546267  0.57894555  1
  N  N14  1  0.94750162  0.13453733  0.57894555  1
  N  N15  1  0.55249838  0.13453733  0.07894555  1
loop_
_geom_bond_atom_site_label_1
_geom_bond_atom_site_label_2
_geom_bond_distance
_geom_bond_site_symmetry_2
Ca0 N5 2.571918 1_555
Ca0 N3 2.571918 1_555
Ca0 N0 2.571918 1_565
Ca0 N6 2.571918 1_655
Ca1 N7 2.571918 1_555
Ca1 N2 2.571918 1_555
Ca1 N4 2.571918 1_655
Ca1 N1 2.571918 1_565
Ca2 N14 2.571918 1_455
Ca2 N11 2.571918 1_555
Ca2 N13 2.571918 1_555
Ca2 N8 2.571918 1_545
Ca3 N12 2.571918 1_455
Ca3 N9 2.571918 1_545
Ca3 N15 2.571918 1_555
Ca3 N10 2.571918 1_555
Ca4 N6 2.380997 1_555
Ca4 N3 2.388682 1_455
Ca4 N11 2.504356 1_555
Ca4 N5 2.539150 1_555
Ca5 N7 2.380997 1_555
Ca5 N2 2.388682 1_555
Ca5 N10 2.504356 1_556
Ca5 N4 2.539150 1_555
Ca6 N4 2.380997 1_555
Ca6 N1 2.388682 1_465
Ca6 N9 2.504356 1_556
Ca6 N7 2.539150 1_555
Ca7 N5 2.380997 1_555
Ca7 N0 2.388682 1_565
Ca7 N8 2.504356 1_555
Ca7 N6 2.539150 1_555
Ca8 N1 2.380997 1_555
Ca8 N7 2.388682 1_545
Ca8 N15 2.504356 1_556
Ca8 N2 2.539150 1_555
Ca9 N0 2.380997 1_555
Ca9 N6 2.388682 1_645
Ca9 N14 2.504356 1_555
Ca9 N3 2.539150 1_555
Ca10 N3 2.380997 1_555
Ca10 N5 2.388682 1_555
Ca10 N13 2.504356 1_555
Ca10 N0 2.539150 1_555
Ca11 N2 2.380997 1_555
Ca11 N4 2.388682 1_655
Ca11 N12 2.504356 1_556
Ca11 N1 2.539150 1_555
Ca12 N14 2.380997 1_555
Ca12 N11 2.388682 1_655
Ca12 N3 2.504356 1_555
Ca12 N13 2.539150 1_555
Ca13 N15 2.380997 1_555
Ca13 N10 2.388682 1_555
Ca13 N2 2.504356 1_554
Ca13 N12 2.539150 1_555
Ca14 N12 2.380997 1_555
Ca14 N9 2.388682 1_645
Ca14 N1 2.504356 1_554
Ca14 N15 2.539150 1_555
Ca15 N13 2.380997 1_555
Ca15 N8 2.388682 1_545
Ca15 N0 2.504356 1_555
Ca15 N14 2.539150 1_555
Ca16 N9 2.380997 1_555
Ca16 N15 2.388682 1_565
Ca16 N7 2.504356 1_554
Ca16 N10 2.539150 1_555
Ca17 N8 2.380997 1_555
Ca17 N14 2.388682 1_465
Ca17 N6 2.504356 1_555
Ca17 N11 2.539150 1_555
Ca18 N11 2.380997 1_555
Ca18 N13 2.388682 1_555
Ca18 N5 2.504356 1_555
Ca18 N8 2.539150 1_555
Ca19 N10 2.380997 1_555
Ca19 N12 2.388682 1_455
Ca19 N4 2.504356 1_554
Ca19 N9 2.539150 1_555
N0 Rb5 3.035801 1_555
N1 Rb4 3.035801 1_555
N2 Rb7 3.035801 1_555
N3 Rb6 3.035801 1_555
N4 Rb2 3.035801 1_555
N5 Rb3 3.035801 1_555
N6 Rb0 3.035801 1_555
N7 Rb1 3.035801 1_555
N8 Rb1 3.035801 1_555
N9 Rb0 3.035801 1_555
N10 Rb3 3.035801 1_555
N11 Rb2 3.035801 1_555
N12 Rb6 3.035801 1_555
N13 Rb7 3.035801 1_555
N14 Rb4 3.035801 1_555
N15 Rb5 3.035801 1_555
