# generated using pymatgen
data_BaLu2CoO5
_symmetry_space_group_name_H-M   'P 1'
_cell_length_a   5.67057300
_cell_length_b   7.00706300
_cell_length_c   12.16111200
_cell_angle_alpha   90.00000000
_cell_angle_beta   90.00000000
_cell_angle_gamma   90.00000000
_symmetry_Int_Tables_number   1
_chemical_formula_structural   BaLu2CoO5
_chemical_formula_sum   'Ba4 Lu8 Co4 O20'
_cell_volume   483.21038132
_cell_formula_units_Z   4
loop_
 _symmetry_equiv_pos_site_id
 _symmetry_equiv_pos_as_xyz
  1  'x, y, z'
loop_
 _atom_site_type_symbol
 _atom_site_label
 _atom_site_symmetry_multiplicity
 _atom_site_fract_x
 _atom_site_fract_y
 _atom_site_fract_z
 _atom_site_occupancy
  Ba  Ba0  1  0.74999900  0.08047200  0.10104600  1
  Ba  Ba1  1  0.74999900  0.41952700  0.60104600  1
  Ba  Ba2  1  0.24999900  0.58047300  0.39895400  1
  Ba  Ba3  1  0.24999900  0.91952800  0.89895400  1
  Lu  Lu0  1  0.24999900  0.40237600  0.07434900  1
  Lu  Lu1  1  0.74999900  0.62050700  0.20848500  1
  Lu  Lu2  1  0.74999900  0.87949400  0.70848600  1
  Lu  Lu3  1  0.24999900  0.12050700  0.29151500  1
  Lu  Lu4  1  0.74999900  0.59762500  0.92565000  1
  Lu  Lu5  1  0.74999900  0.90237600  0.42565100  1
  Lu  Lu6  1  0.24999900  0.09762400  0.57434900  1
  Lu  Lu7  1  0.24999900  0.37949300  0.79151500  1
  Co  Co0  1  0.24999900  0.80856700  0.15217100  1
  Co  Co1  1  0.74999900  0.19143300  0.84782900  1
  Co  Co2  1  0.74999900  0.30856800  0.34782900  1
  Co  Co3  1  0.24999900  0.69143200  0.65217100  1
  O  O0  1  0.24999900  0.41809000  0.60388900  1
  O  O1  1  0.74999900  0.58191000  0.39611200  1
  O  O2  1  0.74999900  0.91809000  0.89611200  1
  O  O3  1  0.24999900  0.08191100  0.10388900  1
  O  O4  1  0.99860800  0.86505500  0.27523600  1
  O  O5  1  0.49860800  0.13494500  0.72476300  1
  O  O6  1  0.00139200  0.36505400  0.22476300  1
  O  O7  1  0.50139200  0.63494600  0.77523700  1
  O  O8  1  0.00139200  0.13494500  0.72476300  1
  O  O9  1  0.50139200  0.86505500  0.27523600  1
  O  O10  1  0.99860800  0.63494600  0.77523700  1
  O  O11  1  0.49860800  0.36505400  0.22476300  1
  O  O12  1  0.49939300  0.66321500  0.06585600  1
  O  O13  1  0.99939300  0.33678500  0.93414400  1
  O  O14  1  0.50060700  0.16321600  0.43414400  1
  O  O15  1  0.00060700  0.83678500  0.56585600  1
  O  O16  1  0.99939300  0.16321600  0.43414400  1
  O  O17  1  0.49939300  0.83678500  0.56585600  1
  O  O18  1  0.50060700  0.33678500  0.93414400  1
  O  O19  1  0.00060700  0.66321500  0.06585600  1
loop_
_geom_bond_atom_site_label_1
_geom_bond_atom_site_label_2
_geom_bond_distance
_geom_bond_site_symmetry_2
Ba0 O2 2.739676 1_544
Ba0 O3 2.835515 1_555
Ba0 O3 2.835515 1_655
Ba0 O11 2.876133 1_555
Ba0 O6 2.876138 1_655
Ba0 O9 2.958576 1_545
Ba0 O4 2.958581 1_545
Ba0 O18 3.057010 1_554
Ba0 O13 3.057015 1_554
Ba0 O12 3.278856 1_545
Ba0 O19 3.278861 1_645
Ba1 O1 2.739679 1_555
Ba1 O0 2.835515 1_555
Ba1 O0 2.835515 1_655
Ba1 O5 2.876133 1_555
Ba1 O8 2.876138 1_655
Ba1 O7 2.958592 1_555
Ba1 O10 2.958597 1_555
Ba1 O14 3.057001 1_555
Ba1 O16 3.057007 1_555
Ba1 O17 3.278863 1_555
Ba1 O15 3.278868 1_655
Ba2 O0 2.739690 1_555
Ba2 O1 2.835515 1_555
Ba2 O1 2.835515 1_455
Ba2 O4 2.876139 1_455
Ba2 O9 2.876145 1_555
Ba2 O6 2.958592 1_555
Ba2 O11 2.958597 1_555
Ba2 O15 3.057006 1_555
Ba2 O17 3.057011 1_555
Ba2 O16 3.278856 1_455
Ba2 O14 3.278861 1_555
Ba3 O3 2.739690 1_566
Ba3 O2 2.835515 1_555
Ba3 O2 2.835515 1_455
Ba3 O10 2.876133 1_455
Ba3 O7 2.876138 1_555
Ba3 O8 2.958585 1_565
Ba3 O5 2.958590 1_565
Ba3 O19 3.057010 1_556
Ba3 O12 3.057015 1_556
Ba3 O13 3.278856 1_465
Ba3 O18 3.278861 1_565
Lu0 O13 2.266692 1_454
Lu0 O18 2.266699 1_554
Lu0 O3 2.274073 1_555
Lu0 O19 2.313257 1_555
Lu0 O12 2.313264 1_555
Lu0 O6 2.324166 1_555
Lu0 O11 2.324173 1_555
Lu1 O12 2.262213 1_555
Lu1 O19 2.262220 1_655
Lu1 O11 2.296810 1_555
Lu1 O6 2.296817 1_655
Lu1 O1 2.297725 1_555
Lu1 O9 2.362762 1_555
Lu1 O4 2.362768 1_555
Lu2 O17 2.262223 1_555
Lu2 O15 2.262230 1_655
Lu2 O5 2.296798 1_565
Lu2 O8 2.296805 1_665
Lu2 O2 2.297712 1_555
Lu2 O7 2.362762 1_555
Lu2 O10 2.362768 1_555
Lu3 O16 2.262214 1_455
Lu3 O14 2.262221 1_555
Lu3 O4 2.296806 1_445
Lu3 O9 2.296813 1_545
Lu3 O3 2.297712 1_555
Lu3 O6 2.362761 1_555
Lu3 O11 2.362767 1_555
Lu4 O12 2.266699 1_556
Lu4 O19 2.266706 1_656
Lu4 O2 2.274069 1_555
Lu4 O18 2.313264 1_555
Lu4 O13 2.313270 1_555
Lu4 O7 2.324156 1_555
Lu4 O10 2.324163 1_555
Lu5 O17 2.266692 1_555
Lu5 O15 2.266699 1_655
Lu5 O1 2.274078 1_555
Lu5 O14 2.313263 1_565
Lu5 O16 2.313270 1_565
Lu5 O9 2.324175 1_555
Lu5 O4 2.324182 1_555
Lu6 O16 2.266693 1_455
Lu6 O14 2.266700 1_555
Lu6 O0 2.274079 1_555
Lu6 O15 2.313257 1_545
Lu6 O17 2.313264 1_545
Lu6 O8 2.324165 1_555
Lu6 O5 2.324172 1_555
Lu7 O13 2.262213 1_455
Lu7 O18 2.262220 1_555
Lu7 O10 2.296810 1_455
Lu7 O7 2.296817 1_555
Lu7 O0 2.297713 1_555
Lu7 O8 2.362766 1_555
Lu7 O5 2.362773 1_555
Co0 O3 2.003318 1_565
Co0 O19 2.034481 1_555
Co0 O12 2.034489 1_555
Co0 O4 2.104434 1_455
Co0 O9 2.104441 1_555
Co1 O2 2.003315 1_545
Co1 O18 2.034481 1_555
Co1 O13 2.034489 1_555
Co1 O5 2.104442 1_555
Co1 O8 2.104450 1_655
Co2 O1 2.003308 1_555
Co2 O14 2.034481 1_555
Co2 O16 2.034489 1_555
Co2 O11 2.104440 1_555
Co2 O6 2.104447 1_655
Co3 O0 2.003304 1_555
Co3 O15 2.034485 1_555
Co3 O17 2.034493 1_555
Co3 O10 2.104440 1_455
Co3 O7 2.104447 1_555
