# generated using pymatgen
data_Hf9Re4Ge
_symmetry_space_group_name_H-M   'P 1'
_cell_length_a   8.58585000
_cell_length_b   8.58584982
_cell_length_c   8.70060200
_cell_angle_alpha   90.00000000
_cell_angle_beta   90.00000000
_cell_angle_gamma   120.00000071
_symmetry_Int_Tables_number   1
_chemical_formula_structural   Hf9Re4Ge
_chemical_formula_sum   'Hf18 Re8 Ge2'
_cell_volume   555.45197544
_cell_formula_units_Z   2
loop_
 _symmetry_equiv_pos_site_id
 _symmetry_equiv_pos_as_xyz
  1  'x, y, z'
loop_
 _atom_site_type_symbol
 _atom_site_label
 _atom_site_symmetry_multiplicity
 _atom_site_fract_x
 _atom_site_fract_y
 _atom_site_fract_z
 _atom_site_occupancy
  Hf  Hf0  1  0.19477000  0.80523000  0.45554600  1
  Hf  Hf1  1  0.19477000  0.38954000  0.45554600  1
  Hf  Hf2  1  0.61046000  0.80523000  0.45554600  1
  Hf  Hf3  1  0.80523000  0.19477000  0.54445400  1
  Hf  Hf4  1  0.80523000  0.61046000  0.54445400  1
  Hf  Hf5  1  0.38954000  0.19477000  0.54445400  1
  Hf  Hf6  1  0.80523000  0.19477000  0.95554600  1
  Hf  Hf7  1  0.80523000  0.61046000  0.95554600  1
  Hf  Hf8  1  0.38954000  0.19477000  0.95554600  1
  Hf  Hf9  1  0.19477000  0.80523000  0.04445400  1
  Hf  Hf10  1  0.19477000  0.38954000  0.04445400  1
  Hf  Hf11  1  0.61046000  0.80523000  0.04445400  1
  Hf  Hf12  1  0.54060600  0.45939400  0.25000000  1
  Hf  Hf13  1  0.54060600  0.08121100  0.25000000  1
  Hf  Hf14  1  0.91878900  0.45939400  0.25000000  1
  Hf  Hf15  1  0.45939400  0.54060600  0.75000000  1
  Hf  Hf16  1  0.45939400  0.91878900  0.75000000  1
  Hf  Hf17  1  0.08121100  0.54060600  0.75000000  1
  Re  Re0  1  0.89138000  0.10862000  0.25000000  1
  Re  Re1  1  0.89138000  0.78276100  0.25000000  1
  Re  Re2  1  0.21723900  0.10862000  0.25000000  1
  Re  Re3  1  0.10862000  0.89138000  0.75000000  1
  Re  Re4  1  0.10862000  0.21723900  0.75000000  1
  Re  Re5  1  0.78276100  0.89138000  0.75000000  1
  Re  Re6  1  0.00000000  0.00000000  0.50000000  1
  Re  Re7  1  0.00000000  0.00000000  0.00000000  1
  Ge  Ge0  1  0.33333300  0.66666700  0.25000000  1
  Ge  Ge1  1  0.66666700  0.33333300  0.75000000  1
loop_
_geom_bond_atom_site_label_1
_geom_bond_atom_site_label_2
_geom_bond_distance
_geom_bond_site_symmetry_2
Hf0 Re3 2.864404 1_555
Hf0 Re6 2.922160 1_565
Hf0 Re2 3.085171 1_565
Hf0 Re1 3.085171 1_455
Hf1 Re4 2.864407 1_555
Hf1 Re6 2.922160 1_555
Hf1 Re2 3.085164 1_555
Hf1 Re0 3.085168 1_455
Hf2 Re5 2.864407 1_555
Hf2 Re6 2.922160 1_665
Hf2 Re1 3.085164 1_555
Hf2 Re0 3.085168 1_565
Hf3 Re0 2.864404 1_555
Hf3 Re6 2.922160 1_655
Hf3 Re5 3.085171 1_545
Hf3 Re4 3.085171 1_655
Hf4 Re1 2.864407 1_555
Hf4 Re6 2.922160 1_665
Hf4 Re5 3.085164 1_555
Hf4 Re3 3.085168 1_655
Hf5 Re2 2.864407 1_555
Hf5 Re6 2.922160 1_555
Hf5 Re4 3.085164 1_555
Hf5 Re3 3.085168 1_545
Hf6 Re0 2.864404 1_556
Hf6 Re7 2.922160 1_656
Hf6 Re5 3.085171 1_545
Hf6 Re4 3.085171 1_655
Hf7 Re1 2.864407 1_556
Hf7 Re7 2.922160 1_666
Hf7 Re5 3.085164 1_555
Hf7 Re3 3.085168 1_655
Hf8 Re2 2.864407 1_556
Hf8 Re7 2.922160 1_556
Hf8 Re4 3.085164 1_555
Hf8 Re3 3.085168 1_545
Hf9 Re3 2.864404 1_554
Hf9 Re7 2.922160 1_565
Hf9 Re2 3.085171 1_565
Hf9 Re1 3.085171 1_455
Hf10 Re4 2.864407 1_554
Hf10 Re7 2.922160 1_555
Hf10 Re2 3.085164 1_555
Hf10 Re0 3.085168 1_455
Hf11 Re5 2.864407 1_554
Hf11 Re7 2.922160 1_665
Hf11 Re1 3.085164 1_555
Hf11 Re0 3.085168 1_565
Hf12 Re2 2.901203 1_555
Hf12 Re1 2.901203 1_555
Hf13 Re0 2.901195 1_555
Hf13 Re2 2.901212 1_555
Hf14 Re0 2.901195 1_555
Hf14 Re1 2.901212 1_555
Hf15 Re5 2.901203 1_555
Hf15 Re4 2.901203 1_555
Hf16 Re3 2.901195 1_555
Hf16 Re5 2.901212 1_555
Hf17 Re3 2.901195 1_555
Hf17 Re4 2.901212 1_555
Re0 Re7 2.709332 1_655
Re0 Re6 2.709332 1_655
Re0 Re1 2.797776 1_545
Re0 Re2 2.797776 1_655
Re1 Re6 2.709328 1_665
Re1 Re7 2.709328 1_665
Re1 Re2 2.797776 1_665
Re2 Re6 2.709328 1_555
Re2 Re7 2.709328 1_555
Re3 Re7 2.709332 1_566
Re3 Re6 2.709332 1_565
Re3 Re4 2.797776 1_565
Re3 Re5 2.797776 1_455
Re4 Re7 2.709328 1_556
Re4 Re6 2.709328 1_555
Re4 Re5 2.797776 1_445
Re5 Re7 2.709328 1_666
Re5 Re6 2.709328 1_665
Ge0 Hf9 2.728425 1_555
Ge0 Hf0 2.728425 1_555
Ge0 Hf1 2.728431 1_555
Ge0 Hf10 2.728431 1_555
Ge0 Hf2 2.728431 1_555
Ge0 Hf11 2.728431 1_555
Ge0 Hf13 3.082368 1_565
Ge0 Hf14 3.082369 1_455
Ge0 Hf12 3.082383 1_555
Ge1 Hf6 2.728425 1_555
Ge1 Hf3 2.728425 1_555
Ge1 Hf7 2.728431 1_555
Ge1 Hf4 2.728431 1_555
Ge1 Hf8 2.728431 1_555
Ge1 Hf5 2.728431 1_555
Ge1 Hf16 3.082368 1_545
Ge1 Hf17 3.082369 1_655
Ge1 Hf15 3.082383 1_555
