# generated using pymatgen
data_Sr2YGaFe2O7
_symmetry_space_group_name_H-M   'P 1'
_cell_length_a   12.02379265
_cell_length_b   12.02379265
_cell_length_c   5.59828960
_cell_angle_alpha   76.56359417
_cell_angle_beta   76.56359417
_cell_angle_gamma   27.60240598
_symmetry_Int_Tables_number   1
_chemical_formula_structural   Sr2YGaFe2O7
_chemical_formula_sum   'Sr4 Y2 Ga2 Fe4 O14'
_cell_volume   364.10746699
_cell_formula_units_Z   2
loop_
 _symmetry_equiv_pos_site_id
 _symmetry_equiv_pos_as_xyz
  1  'x, y, z'
loop_
 _atom_site_type_symbol
 _atom_site_label
 _atom_site_symmetry_multiplicity
 _atom_site_fract_x
 _atom_site_fract_y
 _atom_site_fract_z
 _atom_site_occupancy
  Sr  Sr0  1  0.12578000  0.67327500  0.83970700  1
  Sr  Sr1  1  0.87308600  0.31787300  0.13981800  1
  Sr  Sr2  1  0.67327500  0.12578000  0.33970700  1
  Sr  Sr3  1  0.31787300  0.87308600  0.63981800  1
  Y  Y0  1  0.49919700  0.00090300  0.49113400  1
  Y  Y1  1  0.00090300  0.49919700  0.99113400  1
  Ga  Ga0  1  0.67484100  0.31863300  0.71244200  1
  Ga  Ga1  1  0.31863300  0.67484100  0.21244200  1
  Fe  Fe0  1  0.92278400  0.42928500  0.56619900  1
  Fe  Fe1  1  0.57405700  0.07997800  0.91598900  1
  Fe  Fe2  1  0.42928500  0.92278400  0.06619900  1
  Fe  Fe3  1  0.07997800  0.57405700  0.41598900  1
  O  O0  1  0.79654500  0.82543600  0.68531200  1
  O  O1  1  0.61887900  0.37555400  0.37118800  1
  O  O2  1  0.82543600  0.79654500  0.18531200  1
  O  O3  1  0.26081900  0.87665100  0.21225700  1
  O  O4  1  0.69037900  0.67609200  0.81675500  1
  O  O5  1  0.67609200  0.69037900  0.31675500  1
  O  O6  1  0.37555400  0.61887900  0.87118800  1
  O  O7  1  0.17818600  0.19238100  0.30457900  1
  O  O8  1  0.19238100  0.17818600  0.80457900  1
  O  O9  1  0.87665100  0.26081900  0.71225700  1
  O  O10  1  0.72830400  0.11905600  0.85249200  1
  O  O11  1  0.11905600  0.72830400  0.35249200  1
  O  O12  1  0.29996600  0.32435300  0.68322600  1
  O  O13  1  0.32435300  0.29996600  0.18322600  1
loop_
_geom_bond_atom_site_label_1
_geom_bond_atom_site_label_2
_geom_bond_distance
_geom_bond_site_symmetry_2
Ga0 O9 1.838696 1_555
Ga0 O10 1.847220 1_555
Ga0 O1 1.935071 1_555
Ga0 O6 1.936981 1_555
Ga1 O3 1.838696 1_555
Ga1 O11 1.847220 1_555
Ga1 O6 1.935071 1_554
Ga1 O1 1.936981 1_555
Fe0 O5 1.996841 1_555
Fe0 O4 1.999508 1_555
Fe0 O7 2.008580 1_655
Fe0 O8 2.048451 1_655
Fe0 O9 2.467840 1_555
Fe1 O0 1.977695 1_545
Fe1 O13 1.981218 1_556
Fe1 O12 2.060661 1_555
Fe1 O2 2.120503 1_546
Fe1 O10 2.224250 1_555
Fe2 O4 1.996841 1_554
Fe2 O5 1.999508 1_555
Fe2 O8 2.008580 1_564
Fe2 O7 2.048451 1_565
Fe2 O3 2.467840 1_555
Fe3 O2 1.977695 1_455
Fe3 O12 1.981218 1_555
Fe3 O13 2.060661 1_555
Fe3 O0 2.120503 1_455
Fe3 O11 2.224250 1_555
O0 Y0 2.405554 1_565
O0 Y1 2.471203 1_655
O0 Sr2 2.753273 1_565
O0 Sr0 2.789990 1_655
O1 Sr2 2.487823 1_555
O1 Sr1 2.514275 1_555
O2 Y1 2.405554 1_654
O2 Y0 2.471203 1_565
O2 Sr0 2.753273 1_654
O2 Sr2 2.789990 1_565
O3 Sr1 2.467153 1_465
O3 Sr3 2.620136 1_555
O3 Sr3 3.119688 1_554
O4 Y1 2.463987 1_655
O4 Y0 2.566521 1_565
O4 Sr1 2.846858 1_556
O4 Sr3 2.970018 1_555
O5 Y0 2.463987 1_565
O5 Y1 2.566521 1_654
O5 Sr3 2.846858 1_555
O5 Sr1 2.970018 1_555
O6 Sr0 2.487823 1_555
O6 Sr3 2.514275 1_555
O7 Y1 2.454553 1_554
O7 Y0 2.509030 1_555
O7 Sr1 2.774933 1_455
O7 Sr3 2.787511 1_545
O8 Y0 2.454553 1_555
O8 Y1 2.509030 1_555
O8 Sr3 2.774933 1_545
O8 Sr1 2.787511 1_456
O9 Sr3 2.467153 1_645
O9 Sr1 2.620136 1_556
O9 Sr1 3.119688 1_555
O10 Sr0 2.488544 1_645
O10 Sr2 2.655735 1_556
O10 Sr2 3.060296 1_555
O11 Sr2 2.488544 1_465
O11 Sr0 2.655735 1_555
O11 Sr0 3.060296 1_554
O12 Y1 2.392998 1_555
O12 Y0 2.500879 1_555
O12 Sr0 2.834970 1_555
O12 Sr2 2.945223 1_555
O13 Y0 2.392998 1_555
O13 Y1 2.500879 1_554
O13 Sr2 2.834970 1_555
O13 Sr0 2.945223 1_554
