# generated using pymatgen
data_CaCoWO6
_symmetry_space_group_name_H-M   'P 1'
_cell_length_a   5.35011900
_cell_length_b   5.29926700
_cell_length_c   9.19123512
_cell_angle_alpha   54.72311943
_cell_angle_beta   90.00000000
_cell_angle_gamma   90.00000000
_symmetry_Int_Tables_number   1
_chemical_formula_structural   CaCoWO6
_chemical_formula_sum   'Ca2 Co2 W2 O12'
_cell_volume   212.73577313
_cell_formula_units_Z   2
loop_
 _symmetry_equiv_pos_site_id
 _symmetry_equiv_pos_as_xyz
  1  'x, y, z'
loop_
 _atom_site_type_symbol
 _atom_site_label
 _atom_site_symmetry_multiplicity
 _atom_site_fract_x
 _atom_site_fract_y
 _atom_site_fract_z
 _atom_site_occupancy
  Ca  Ca0  1  0.29582300  0.26099900  0.74935500  1
  Ca  Ca1  1  0.70417700  0.26099900  0.24935500  1
  Co  Co0  1  0.74486600  0.50220600  0.49836000  1
  Co  Co1  1  0.25513400  0.50220600  0.99836000  1
  W  W0  1  0.23537900  0.99982900  0.49894300  1
  W  W1  1  0.76462100  0.99982900  0.99894300  1
  O  O0  1  0.53046600  0.75214300  0.53268100  1
  O  O1  1  0.04335500  0.25208200  0.96258400  1
  O  O2  1  0.95664500  0.25208200  0.46258400  1
  O  O3  1  0.46953400  0.75214300  0.03268100  1
  O  O4  1  0.46760500  0.32151700  0.46914100  1
  O  O5  1  0.96847400  0.67143300  0.03569800  1
  O  O6  1  0.03152600  0.67143300  0.53569800  1
  O  O7  1  0.53239500  0.32151700  0.96914100  1
  O  O8  1  0.74237900  0.19017700  0.74555900  1
  O  O9  1  0.24231300  0.81759300  0.75404500  1
  O  O10  1  0.75768700  0.81759300  0.25404500  1
  O  O11  1  0.25762100  0.19017700  0.24555900  1
loop_
_geom_bond_atom_site_label_1
_geom_bond_atom_site_label_2
_geom_bond_distance
_geom_bond_site_symmetry_2
Ca0 O9 2.342656 1_545
Ca0 O1 2.358116 1_555
Ca0 O6 2.377603 1_555
Ca0 O8 2.421802 1_555
Ca0 O0 2.515771 1_555
Ca0 O7 2.556158 1_555
Ca0 O4 2.574244 1_555
Ca0 O3 2.608758 1_546
Ca1 O10 2.342656 1_545
Ca1 O2 2.358116 1_555
Ca1 O5 2.377603 1_555
Ca1 O11 2.421802 1_555
Ca1 O3 2.515771 1_555
Ca1 O4 2.556158 1_555
Ca1 O7 2.574244 1_554
Ca1 O0 2.608758 1_545
Co0 O4 1.867192 1_555
Co0 O10 1.872315 1_555
Co0 O8 1.886040 1_555
Co0 O6 1.905149 1_655
Co0 O0 1.911052 1_555
Co0 O2 1.911079 1_555
Co1 O7 1.867192 1_555
Co1 O9 1.872315 1_555
Co1 O11 1.886040 1_556
Co1 O5 1.905149 1_456
Co1 O3 1.911052 1_556
Co1 O1 1.911079 1_555
O0 W0 1.959920 1_555
O1 W1 1.899069 1_445
O2 W0 1.899069 1_645
O3 W1 1.959920 1_554
O4 W0 1.996338 1_545
O5 W1 1.911297 1_554
O6 W0 1.911297 1_555
O7 W1 1.996338 1_545
O8 W1 1.934434 1_545
O9 W0 1.953509 1_555
O10 W1 1.953509 1_554
O11 W0 1.934434 1_545
