# generated using pymatgen
data_MgMn(PO3)4
_symmetry_space_group_name_H-M   'P 1'
_cell_length_a   7.37459172
_cell_length_b   7.37459172
_cell_length_c   10.28384212
_cell_angle_alpha   66.42824058
_cell_angle_beta   66.42824058
_cell_angle_gamma   69.98141042
_symmetry_Int_Tables_number   1
_chemical_formula_structural   MgMn(PO3)4
_chemical_formula_sum   'Mg2 Mn2 P8 O24'
_cell_volume   458.63417161
_cell_formula_units_Z   2
loop_
 _symmetry_equiv_pos_site_id
 _symmetry_equiv_pos_as_xyz
  1  'x, y, z'
loop_
 _atom_site_type_symbol
 _atom_site_label
 _atom_site_symmetry_multiplicity
 _atom_site_fract_x
 _atom_site_fract_y
 _atom_site_fract_z
 _atom_site_occupancy
  Mg  Mg0  1  0.95935200  0.04064800  0.75000000  1
  Mg  Mg1  1  0.04064800  0.95935200  0.25000000  1
  Mn  Mn0  1  0.50000000  0.00000000  0.00000000  1
  Mn  Mn1  1  0.00000000  0.50000000  0.50000000  1
  P  P0  1  0.31515700  0.29411100  0.69276800  1
  P  P1  1  0.70588900  0.68484300  0.80723200  1
  P  P2  1  0.68484300  0.70588900  0.30723200  1
  P  P3  1  0.29411100  0.31515700  0.19276800  1
  P  P4  1  0.73072900  0.25104600  0.47882800  1
  P  P5  1  0.74895400  0.26927100  0.02117200  1
  P  P6  1  0.26927100  0.74895400  0.52117200  1
  P  P7  1  0.25104600  0.73072900  0.97882800  1
  O  O0  1  0.31092800  0.53102900  0.64624000  1
  O  O1  1  0.46897100  0.68907200  0.85376000  1
  O  O2  1  0.68907200  0.46897100  0.35376000  1
  O  O3  1  0.53102900  0.31092800  0.14624000  1
  O  O4  1  0.50405500  0.21411500  0.56492700  1
  O  O5  1  0.78588500  0.49594500  0.93507300  1
  O  O6  1  0.49594500  0.78588500  0.43507300  1
  O  O7  1  0.21411500  0.50405500  0.06492700  1
  O  O8  1  0.34880600  0.19547900  0.84081500  1
  O  O9  1  0.80452100  0.65119400  0.65918500  1
  O  O10  1  0.65119400  0.80452100  0.15918500  1
  O  O11  1  0.19547900  0.34880600  0.34081500  1
  O  O12  1  0.12888500  0.27204500  0.67641600  1
  O  O13  1  0.72795500  0.87111500  0.82358400  1
  O  O14  1  0.87111500  0.72795500  0.32358400  1
  O  O15  1  0.27204500  0.12888500  0.17641600  1
  O  O16  1  0.81234400  0.27484500  0.58428900  1
  O  O17  1  0.72515500  0.18765600  0.91571100  1
  O  O18  1  0.18765600  0.72515500  0.41571100  1
  O  O19  1  0.27484500  0.81234400  0.08428900  1
  O  O20  1  0.84649500  0.09435100  0.40282300  1
  O  O21  1  0.90564900  0.15350500  0.09717700  1
  O  O22  1  0.15350500  0.90564900  0.59717700  1
  O  O23  1  0.09435100  0.84649500  0.90282300  1
loop_
_geom_bond_atom_site_label_1
_geom_bond_atom_site_label_2
_geom_bond_distance
_geom_bond_site_symmetry_2
Mg0 O22 1.996717 1_645
Mg0 O23 1.996717 1_645
Mg0 O12 2.172313 1_655
Mg0 O13 2.172313 1_545
Mg0 O16 2.214506 1_555
Mg0 O17 2.214506 1_555
Mg1 O21 1.996717 1_465
Mg1 O20 1.996717 1_465
Mg1 O14 2.172313 1_455
Mg1 O15 2.172313 1_565
Mg1 O18 2.214506 1_555
Mg1 O19 2.214506 1_555
Mn0 O8 2.114987 1_554
Mn0 O10 2.114987 1_545
Mn0 O15 2.206083 1_555
Mn0 O13 2.206083 1_544
Mn0 O17 2.210475 1_554
Mn0 O19 2.210475 1_545
Mn1 O11 2.114987 1_555
Mn1 O9 2.114987 1_455
Mn1 O14 2.206083 1_455
Mn1 O12 2.206083 1_555
Mn1 O18 2.210475 1_555
Mn1 O16 2.210475 1_455
O0 P0 1.608894 1_555
O0 P6 1.629793 1_555
O1 P1 1.608894 1_555
O1 P7 1.629793 1_555
O2 P2 1.608894 1_555
O2 P4 1.629793 1_555
O3 P3 1.608894 1_555
O3 P5 1.629793 1_555
O4 P4 1.608586 1_555
O4 P0 1.615525 1_555
O5 P5 1.608586 1_556
O5 P1 1.615525 1_555
O6 P6 1.608586 1_555
O6 P2 1.615525 1_555
O7 P7 1.608586 1_554
O7 P3 1.615525 1_555
O8 P0 1.483749 1_555
O9 P1 1.483749 1_555
O10 P2 1.483749 1_555
O11 P3 1.483749 1_555
O12 P0 1.517049 1_555
O13 P1 1.517049 1_555
O14 P2 1.517049 1_555
O15 P3 1.517049 1_555
O16 P4 1.521819 1_555
O17 P5 1.521819 1_556
O18 P6 1.521819 1_555
O19 P7 1.521819 1_554
O20 P4 1.479312 1_555
O21 P5 1.479312 1_555
O22 P6 1.479312 1_555
O23 P7 1.479312 1_555
