# generated using pymatgen
data_ZnCdS2
_symmetry_space_group_name_H-M   'P 1'
_cell_length_a   4.01080163
_cell_length_b   4.01080163
_cell_length_c   6.63060100
_cell_angle_alpha   90.00000000
_cell_angle_beta   90.00000000
_cell_angle_gamma   119.99999398
_symmetry_Int_Tables_number   1
_chemical_formula_structural   ZnCdS2
_chemical_formula_sum   'Zn1 Cd1 S2'
_cell_volume   92.37318526
_cell_formula_units_Z   1
loop_
 _symmetry_equiv_pos_site_id
 _symmetry_equiv_pos_as_xyz
  1  'x, y, z'
loop_
 _atom_site_type_symbol
 _atom_site_label
 _atom_site_symmetry_multiplicity
 _atom_site_fract_x
 _atom_site_fract_y
 _atom_site_fract_z
 _atom_site_occupancy
  Zn  Zn0  1  0.00000000  0.00000000  0.99976400  1
  Cd  Cd0  1  0.33333300  0.66666700  0.50562500  1
  S  S0  1  0.33333300  0.66666700  0.89201300  1
  S  S1  1  0.00000000  0.00000000  0.35459800  1
loop_
_geom_bond_atom_site_label_1
_geom_bond_atom_site_label_2
_geom_bond_distance
_geom_bond_site_symmetry_2
Cd0 S1 2.522889 1_565
Cd0 S1 2.522892 1_665
Cd0 S1 2.522892 1_555
Cd0 S0 2.561985 1_555
S0 Zn0 2.423347 1_565
S0 Zn0 2.423350 1_665
S0 Zn0 2.423350 1_555
S1 Zn0 2.352763 1_554
