# generated using pymatgen
data_KAlCO5
_symmetry_space_group_name_H-M   'P 1'
_cell_length_a   6.81096726
_cell_length_b   6.81096726
_cell_length_c   5.92907200
_cell_angle_alpha   90.00000000
_cell_angle_beta   90.00000000
_cell_angle_gamma   120.73597835
_symmetry_Int_Tables_number   1
_chemical_formula_structural   KAlCO5
_chemical_formula_sum   'K2 Al2 C2 O10'
_cell_volume   236.41014665
_cell_formula_units_Z   2
loop_
 _symmetry_equiv_pos_site_id
 _symmetry_equiv_pos_as_xyz
  1  'x, y, z'
loop_
 _atom_site_type_symbol
 _atom_site_label
 _atom_site_symmetry_multiplicity
 _atom_site_fract_x
 _atom_site_fract_y
 _atom_site_fract_z
 _atom_site_occupancy
  K  K0  1  0.35371800  0.64628200  0.25000000  1
  K  K1  1  0.64628200  0.35371800  0.75000000  1
  Al  Al0  1  0.00000000  0.00000000  0.00000000  1
  Al  Al1  1  0.00000000  0.00000000  0.50000000  1
  C  C0  1  0.78321900  0.21678100  0.25000000  1
  C  C1  1  0.21678100  0.78321900  0.75000000  1
  O  O0  1  0.67591800  0.32408200  0.25000000  1
  O  O1  1  0.32408200  0.67591800  0.75000000  1
  O  O2  1  0.83620900  0.16379100  0.05630500  1
  O  O3  1  0.16379100  0.83620900  0.94369500  1
  O  O4  1  0.16379100  0.83620900  0.55630500  1
  O  O5  1  0.83620900  0.16379100  0.44369500  1
  O  O6  1  0.85698400  0.81832600  0.25000000  1
  O  O7  1  0.14301600  0.18167400  0.75000000  1
  O  O8  1  0.18167400  0.14301600  0.25000000  1
  O  O9  1  0.81832600  0.85698400  0.75000000  1
loop_
_geom_bond_atom_site_label_1
_geom_bond_atom_site_label_2
_geom_bond_distance
_geom_bond_site_symmetry_2
K0 O4 2.890575 1_555
K0 O3 2.890575 1_554
K0 O1 2.985231 1_555
K0 O1 2.985231 1_554
K0 O6 3.002800 1_555
K0 O8 3.002800 1_555
K1 O5 2.890575 1_555
K1 O2 2.890575 1_556
K1 O0 2.985231 1_556
K1 O0 2.985231 1_555
K1 O7 3.002800 1_555
K1 O9 3.002800 1_555
Al0 O9 1.856079 1_444
Al0 O7 1.856079 1_554
Al0 O6 1.856079 1_445
Al0 O8 1.856079 1_555
Al0 O3 1.967881 1_544
Al0 O2 1.967881 1_455
Al1 O9 1.856079 1_445
Al1 O6 1.856079 1_445
Al1 O7 1.856079 1_555
Al1 O8 1.856079 1_555
Al1 O4 1.967881 1_545
Al1 O5 1.967881 1_455
C0 O0 1.270491 1_555
C0 O5 1.308647 1_555
C0 O2 1.308647 1_555
C1 O1 1.270491 1_555
C1 O3 1.308647 1_555
C1 O4 1.308647 1_555
