# generated using pymatgen
data_LiMg2H7Os
_symmetry_space_group_name_H-M   'P 1'
_cell_length_a   4.71647237
_cell_length_b   4.71647237
_cell_length_c   10.78626600
_cell_angle_alpha   90.00000000
_cell_angle_beta   90.00000000
_cell_angle_gamma   120.00000525
_symmetry_Int_Tables_number   1
_chemical_formula_structural   LiMg2H7Os
_chemical_formula_sum   'Li2 Mg4 H14 Os2'
_cell_volume   207.79558928
_cell_formula_units_Z   2
loop_
 _symmetry_equiv_pos_site_id
 _symmetry_equiv_pos_as_xyz
  1  'x, y, z'
loop_
 _atom_site_type_symbol
 _atom_site_label
 _atom_site_symmetry_multiplicity
 _atom_site_fract_x
 _atom_site_fract_y
 _atom_site_fract_z
 _atom_site_occupancy
  Li  Li0  1  0.00000000  0.00000000  0.25000000  1
  Li  Li1  1  0.00000000  0.00000000  0.75000000  1
  Mg  Mg0  1  0.33333300  0.66666700  0.07594600  1
  Mg  Mg1  1  0.66666700  0.33333300  0.92405400  1
  Mg  Mg2  1  0.66666700  0.33333300  0.57594600  1
  Mg  Mg3  1  0.33333300  0.66666700  0.42405400  1
  H  H0  1  0.33333300  0.66666700  0.25000000  1
  H  H1  1  0.66666700  0.33333300  0.75000000  1
  H  H2  1  0.16666100  0.33332200  0.59525000  1
  H  H3  1  0.83333900  0.66667800  0.40475000  1
  H  H4  1  0.66667800  0.83333900  0.59525000  1
  H  H5  1  0.83333900  0.66667800  0.09525000  1
  H  H6  1  0.33332200  0.16666100  0.40475000  1
  H  H7  1  0.16666100  0.33332200  0.90475000  1
  H  H8  1  0.16666100  0.83333900  0.59525000  1
  H  H9  1  0.33332200  0.16666100  0.09525000  1
  H  H10  1  0.83333900  0.16666100  0.40475000  1
  H  H11  1  0.66667800  0.83333900  0.90475000  1
  H  H12  1  0.83333900  0.16666100  0.09525000  1
  H  H13  1  0.16666100  0.83333900  0.90475000  1
  Os  Os0  1  0.00000000  0.00000000  0.00000000  1
  Os  Os1  1  0.00000000  0.00000000  0.50000000  1
loop_
_geom_bond_atom_site_label_1
_geom_bond_atom_site_label_2
_geom_bond_distance
_geom_bond_site_symmetry_2
H0 Mg0 1.877393 1_555
H0 Mg3 1.877393 1_555
H1 Mg1 1.877393 1_555
H1 Mg2 1.877393 1_555
H2 Os1 1.705628 1_555
H2 Li1 2.154014 1_555
H2 Mg3 2.294274 1_555
H2 Mg2 2.367408 1_455
H2 Mg2 2.367413 1_555
H3 Os1 1.705628 1_665
H3 Li0 2.154014 1_665
H3 Mg2 2.294274 1_555
H3 Mg3 2.367408 1_655
H3 Mg3 2.367413 1_555
H4 Os1 1.705628 1_665
H4 Li1 2.154014 1_665
H4 Mg3 2.294274 1_555
H4 Mg2 2.367408 1_565
H4 Mg2 2.367413 1_555
H5 Os0 1.705628 1_665
H5 Li0 2.154014 1_665
H5 Mg1 2.294274 1_554
H5 Mg0 2.367408 1_655
H5 Mg0 2.367413 1_555
H6 Os1 1.705628 1_555
H6 Li0 2.154014 1_555
H6 Mg2 2.294274 1_555
H6 Mg3 2.367408 1_545
H6 Mg3 2.367413 1_555
H7 Os0 1.705628 1_556
H7 Li1 2.154014 1_555
H7 Mg0 2.294274 1_556
H7 Mg1 2.367408 1_455
H7 Mg1 2.367413 1_555
H8 Os1 1.705628 1_565
H8 Li1 2.154014 1_565
H8 Mg3 2.294272 1_555
H8 Mg2 2.367410 1_455
H8 Mg2 2.367410 1_565
H9 Os0 1.705628 1_555
H9 Li0 2.154014 1_555
H9 Mg1 2.294274 1_554
H9 Mg0 2.367408 1_545
H9 Mg0 2.367413 1_555
H10 Os1 1.705628 1_655
H10 Li0 2.154014 1_655
H10 Mg2 2.294272 1_555
H10 Mg3 2.367410 1_545
H10 Mg3 2.367410 1_655
H11 Os0 1.705628 1_666
H11 Li1 2.154014 1_665
H11 Mg0 2.294274 1_556
H11 Mg1 2.367408 1_565
H11 Mg1 2.367413 1_555
H12 Os0 1.705628 1_655
H12 Li0 2.154014 1_655
H12 Mg1 2.294272 1_554
H12 Mg0 2.367410 1_545
H12 Mg0 2.367410 1_655
H13 Os0 1.705628 1_566
H13 Li1 2.154014 1_565
H13 Mg0 2.294272 1_556
H13 Mg1 2.367410 1_455
H13 Mg1 2.367410 1_565
