# generated using pymatgen
data_Zr6Al2Ni
_symmetry_space_group_name_H-M   'P 1'
_cell_length_a   15.90352418
_cell_length_b   15.90352418
_cell_length_c   6.71614600
_cell_angle_alpha   90.00000000
_cell_angle_beta   90.00000000
_cell_angle_gamma   120.00000074
_symmetry_Int_Tables_number   1
_chemical_formula_structural   Zr6Al2Ni
_chemical_formula_sum   'Zr48 Al16 Ni8'
_cell_volume   1471.08410836
_cell_formula_units_Z   8
loop_
 _symmetry_equiv_pos_site_id
 _symmetry_equiv_pos_as_xyz
  1  'x, y, z'
loop_
 _atom_site_type_symbol
 _atom_site_label
 _atom_site_symmetry_multiplicity
 _atom_site_fract_x
 _atom_site_fract_y
 _atom_site_fract_z
 _atom_site_occupancy
  Zr  Zr0_0  1  0.12748150  0.00000000  0.00000000  1
  Zr  Zr0_1  1  0.12748150  0.00000000  0.50000000  1
  Zr  Zr0_2  1  0.12748150  0.50000000  0.00000000  1
  Zr  Zr0_3  1  0.12748150  0.50000000  0.50000000  1
  Zr  Zr0_4  1  0.62748150  0.00000000  0.00000000  1
  Zr  Zr0_5  1  0.62748150  0.00000000  0.50000000  1
  Zr  Zr0_6  1  0.62748150  0.50000000  0.00000000  1
  Zr  Zr0_7  1  0.62748150  0.50000000  0.50000000  1
  Zr  Zr1_0  1  0.37251850  0.37251850  0.00000000  1
  Zr  Zr1_1  1  0.37251850  0.37251850  0.50000000  1
  Zr  Zr1_2  1  0.37251850  0.87251850  0.00000000  1
  Zr  Zr1_3  1  0.37251850  0.87251850  0.50000000  1
  Zr  Zr1_4  1  0.87251850  0.37251850  0.00000000  1
  Zr  Zr1_5  1  0.87251850  0.37251850  0.50000000  1
  Zr  Zr1_6  1  0.87251850  0.87251850  0.00000000  1
  Zr  Zr1_7  1  0.87251850  0.87251850  0.50000000  1
  Zr  Zr2_0  1  0.00000000  0.12748150  0.00000000  1
  Zr  Zr2_1  1  0.00000000  0.12748150  0.50000000  1
  Zr  Zr2_2  1  0.00000000  0.62748150  0.00000000  1
  Zr  Zr2_3  1  0.00000000  0.62748150  0.50000000  1
  Zr  Zr2_4  1  0.50000000  0.12748150  0.00000000  1
  Zr  Zr2_5  1  0.50000000  0.12748150  0.50000000  1
  Zr  Zr2_6  1  0.50000000  0.62748150  0.00000000  1
  Zr  Zr2_7  1  0.50000000  0.62748150  0.50000000  1
  Zr  Zr3_0  1  0.29908900  0.00000000  0.25000000  1
  Zr  Zr3_1  1  0.29908900  0.00000000  0.75000000  1
  Zr  Zr3_2  1  0.29908900  0.50000000  0.25000000  1
  Zr  Zr3_3  1  0.29908900  0.50000000  0.75000000  1
  Zr  Zr3_4  1  0.79908900  0.00000000  0.25000000  1
  Zr  Zr3_5  1  0.79908900  0.00000000  0.75000000  1
  Zr  Zr3_6  1  0.79908900  0.50000000  0.25000000  1
  Zr  Zr3_7  1  0.79908900  0.50000000  0.75000000  1
  Zr  Zr4_0  1  0.20091100  0.20091100  0.25000000  1
  Zr  Zr4_1  1  0.20091100  0.20091100  0.75000000  1
  Zr  Zr4_2  1  0.20091100  0.70091100  0.25000000  1
  Zr  Zr4_3  1  0.20091100  0.70091100  0.75000000  1
  Zr  Zr4_4  1  0.70091100  0.20091100  0.25000000  1
  Zr  Zr4_5  1  0.70091100  0.20091100  0.75000000  1
  Zr  Zr4_6  1  0.70091100  0.70091100  0.25000000  1
  Zr  Zr4_7  1  0.70091100  0.70091100  0.75000000  1
  Zr  Zr5_0  1  0.00000000  0.29908900  0.25000000  1
  Zr  Zr5_1  1  0.00000000  0.29908900  0.75000000  1
  Zr  Zr5_2  1  0.00000000  0.79908900  0.25000000  1
  Zr  Zr5_3  1  0.00000000  0.79908900  0.75000000  1
  Zr  Zr5_4  1  0.50000000  0.29908900  0.25000000  1
  Zr  Zr5_5  1  0.50000000  0.29908900  0.75000000  1
  Zr  Zr5_6  1  0.50000000  0.79908900  0.25000000  1
  Zr  Zr5_7  1  0.50000000  0.79908900  0.75000000  1
  Al  Al0_0  1  0.33333350  0.16666650  0.00000000  1
  Al  Al0_1  1  0.33333350  0.16666650  0.50000000  1
  Al  Al0_2  1  0.33333350  0.66666650  0.00000000  1
  Al  Al0_3  1  0.33333350  0.66666650  0.50000000  1
  Al  Al0_4  1  0.83333350  0.16666650  0.00000000  1
  Al  Al0_5  1  0.83333350  0.16666650  0.50000000  1
  Al  Al0_6  1  0.83333350  0.66666650  0.00000000  1
  Al  Al0_7  1  0.83333350  0.66666650  0.50000000  1
  Al  Al1_0  1  0.16666650  0.33333350  0.00000000  1
  Al  Al1_1  1  0.16666650  0.33333350  0.50000000  1
  Al  Al1_2  1  0.16666650  0.83333350  0.00000000  1
  Al  Al1_3  1  0.16666650  0.83333350  0.50000000  1
  Al  Al1_4  1  0.66666650  0.33333350  0.00000000  1
  Al  Al1_5  1  0.66666650  0.33333350  0.50000000  1
  Al  Al1_6  1  0.66666650  0.83333350  0.00000000  1
  Al  Al1_7  1  0.66666650  0.83333350  0.50000000  1
  Ni  Ni0_0  1  0.00000000  0.00000000  0.25000000  1
  Ni  Ni0_1  1  0.00000000  0.00000000  0.75000000  1
  Ni  Ni0_2  1  0.00000000  0.50000000  0.25000000  1
  Ni  Ni0_3  1  0.00000000  0.50000000  0.75000000  1
  Ni  Ni0_4  1  0.50000000  0.00000000  0.25000000  1
  Ni  Ni0_5  1  0.50000000  0.00000000  0.75000000  1
  Ni  Ni0_6  1  0.50000000  0.50000000  0.25000000  1
  Ni  Ni0_7  1  0.50000000  0.50000000  0.75000000  1
loop_
_geom_bond_atom_site_label_1
_geom_bond_atom_site_label_2
_geom_bond_distance
_geom_bond_site_symmetry_2
Zr0_0 Zr3_0 3.204294 1_555
Zr0_0 Zr3_1 3.204294 1_554
Zr0_0 Zr5_2 3.265095 1_545
Zr0_0 Zr5_3 3.265095 1_544
Zr0_0 Zr4_0 3.265095 1_555
Zr0_0 Zr4_1 3.265095 1_554
Zr0_1 Zr3_0 3.204294 1_555
Zr0_1 Zr3_1 3.204294 1_555
Zr0_1 Zr5_3 3.265095 1_545
Zr0_1 Zr5_2 3.265095 1_545
Zr0_1 Zr4_0 3.265095 1_555
Zr0_1 Zr4_1 3.265095 1_555
Zr0_2 Zr3_2 3.204294 1_555
Zr0_2 Zr3_3 3.204294 1_554
Zr0_2 Zr5_0 3.265095 1_555
Zr0_2 Zr5_1 3.265095 1_554
Zr0_2 Zr4_2 3.265095 1_555
Zr0_2 Zr4_3 3.265095 1_554
Zr0_3 Zr3_3 3.204294 1_555
Zr0_3 Zr3_2 3.204294 1_555
Zr0_3 Zr5_0 3.265095 1_555
Zr0_3 Zr5_1 3.265095 1_555
Zr0_3 Zr4_3 3.265095 1_555
Zr0_3 Zr4_2 3.265095 1_555
Zr0_4 Zr3_4 3.204294 1_555
Zr0_4 Zr3_5 3.204294 1_554
Zr0_4 Zr5_6 3.265095 1_545
Zr0_4 Zr5_7 3.265095 1_544
Zr0_4 Zr4_4 3.265095 1_555
Zr0_4 Zr4_5 3.265095 1_554
Zr0_5 Zr3_4 3.204294 1_555
Zr0_5 Zr3_5 3.204294 1_555
Zr0_5 Zr5_7 3.265095 1_545
Zr0_5 Zr5_6 3.265095 1_545
Zr0_5 Zr4_4 3.265095 1_555
Zr0_5 Zr4_5 3.265095 1_555
Zr0_6 Zr3_6 3.204294 1_555
Zr0_6 Zr3_7 3.204294 1_554
Zr0_6 Zr5_5 3.265095 1_554
Zr0_6 Zr5_4 3.265095 1_555
Zr0_6 Zr4_6 3.265095 1_555
Zr0_6 Zr4_7 3.265095 1_554
Zr0_7 Zr3_7 3.204294 1_555
Zr0_7 Zr3_6 3.204294 1_555
Zr0_7 Zr5_5 3.265095 1_555
Zr0_7 Zr5_4 3.265095 1_555
Zr0_7 Zr4_7 3.265095 1_555
Zr0_7 Zr4_6 3.265095 1_555
Zr1_0 Zr4_0 3.204294 1_555
Zr1_0 Zr4_1 3.204294 1_554
Zr1_0 Zr5_4 3.265095 1_555
Zr1_0 Zr3_2 3.265095 1_555
Zr1_0 Zr5_5 3.265095 1_554
Zr1_0 Zr3_3 3.265095 1_554
Zr1_1 Zr4_1 3.204294 1_555
Zr1_1 Zr4_0 3.204294 1_555
Zr1_1 Zr3_2 3.265095 1_555
Zr1_1 Zr5_5 3.265095 1_555
Zr1_1 Zr3_3 3.265095 1_555
Zr1_1 Zr5_4 3.265095 1_555
Zr1_2 Zr4_2 3.204294 1_555
Zr1_2 Zr4_3 3.204294 1_554
Zr1_2 Zr5_6 3.265095 1_555
Zr1_2 Zr3_0 3.265095 1_565
Zr1_2 Zr5_7 3.265095 1_554
Zr1_2 Zr3_1 3.265095 1_564
Zr1_3 Zr4_3 3.204294 1_555
Zr1_3 Zr4_2 3.204294 1_555
Zr1_3 Zr5_7 3.265095 1_555
Zr1_3 Zr5_6 3.265095 1_555
Zr1_3 Zr3_0 3.265095 1_565
Zr1_3 Zr3_1 3.265095 1_565
Zr1_4 Zr4_4 3.204294 1_555
Zr1_4 Zr4_5 3.204294 1_554
Zr1_4 Zr3_6 3.265095 1_555
Zr1_4 Zr5_0 3.265095 1_655
Zr1_4 Zr5_1 3.265095 1_654
Zr1_4 Zr3_7 3.265095 1_554
Zr1_5 Zr4_4 3.204294 1_555
Zr1_5 Zr4_5 3.204294 1_555
Zr1_5 Zr3_7 3.265095 1_555
Zr1_5 Zr3_6 3.265095 1_555
Zr1_5 Zr5_0 3.265095 1_655
Zr1_5 Zr5_1 3.265095 1_655
Zr1_6 Zr4_6 3.204294 1_555
Zr1_6 Zr4_7 3.204294 1_554
Zr1_6 Zr3_4 3.265095 1_565
Zr1_6 Zr5_3 3.265095 1_654
Zr1_6 Zr3_5 3.265095 1_564
Zr1_6 Zr5_2 3.265095 1_655
Zr1_7 Zr4_7 3.204294 1_555
Zr1_7 Zr4_6 3.204294 1_555
Zr1_7 Zr3_5 3.265095 1_565
Zr1_7 Zr5_3 3.265095 1_655
Zr1_7 Zr3_4 3.265095 1_565
Zr1_7 Zr5_2 3.265095 1_655
Zr2_0 Zr5_0 3.204294 1_555
Zr2_0 Zr5_1 3.204294 1_554
Zr2_0 Zr3_5 3.265095 1_454
Zr2_0 Zr3_4 3.265095 1_455
Zr2_0 Zr4_0 3.265095 1_555
Zr2_0 Zr4_1 3.265095 1_554
Zr2_1 Zr5_0 3.204294 1_555
Zr2_1 Zr5_1 3.204294 1_555
Zr2_1 Zr3_5 3.265095 1_455
Zr2_1 Zr3_4 3.265095 1_455
Zr2_1 Zr4_0 3.265095 1_555
Zr2_1 Zr4_1 3.265095 1_555
Zr2_2 Zr5_2 3.204294 1_555
Zr2_2 Zr5_3 3.204294 1_554
Zr2_2 Zr3_6 3.265095 1_455
Zr2_2 Zr3_7 3.265095 1_454
Zr2_2 Zr4_2 3.265095 1_555
Zr2_2 Zr4_3 3.265095 1_554
Zr2_3 Zr5_2 3.204294 1_555
Zr2_3 Zr5_3 3.204294 1_555
Zr2_3 Zr3_7 3.265095 1_455
Zr2_3 Zr3_6 3.265095 1_455
Zr2_3 Zr4_2 3.265095 1_555
Zr2_3 Zr4_3 3.265095 1_555
Zr2_4 Zr5_4 3.204294 1_555
Zr2_4 Zr5_5 3.204294 1_554
Zr2_4 Zr3_0 3.265095 1_555
Zr2_4 Zr3_1 3.265095 1_554
Zr2_4 Zr4_4 3.265095 1_555
Zr2_4 Zr4_5 3.265095 1_554
Zr2_5 Zr5_4 3.204294 1_555
Zr2_5 Zr5_5 3.204294 1_555
Zr2_5 Zr3_0 3.265095 1_555
Zr2_5 Zr3_1 3.265095 1_555
Zr2_5 Zr4_4 3.265095 1_555
Zr2_5 Zr4_5 3.265095 1_555
Zr2_6 Zr5_6 3.204294 1_555
Zr2_6 Zr5_7 3.204294 1_554
Zr2_6 Zr3_2 3.265095 1_555
Zr2_6 Zr3_3 3.265095 1_554
Zr2_6 Zr4_6 3.265095 1_555
Zr2_6 Zr4_7 3.265095 1_554
Zr2_7 Zr5_7 3.204294 1_555
Zr2_7 Zr5_6 3.204294 1_555
Zr2_7 Zr3_3 3.265095 1_555
Zr2_7 Zr3_2 3.265095 1_555
Zr2_7 Zr4_7 3.265095 1_555
Zr2_7 Zr4_6 3.265095 1_555
Zr3_0 Zr3_1 3.358073 1_555
Zr3_0 Zr3_1 3.358073 1_554
Zr3_2 Zr3_3 3.358073 1_555
Zr3_2 Zr3_3 3.358073 1_554
Zr3_4 Zr3_5 3.358073 1_555
Zr3_4 Zr3_5 3.358073 1_554
Zr3_6 Zr3_7 3.358073 1_555
Zr3_6 Zr3_7 3.358073 1_554
Zr4_0 Zr4_1 3.358073 1_555
Zr4_0 Zr4_1 3.358073 1_554
Zr4_2 Zr4_3 3.358073 1_555
Zr4_2 Zr4_3 3.358073 1_554
Zr4_4 Zr4_5 3.358073 1_555
Zr4_4 Zr4_5 3.358073 1_554
Zr4_6 Zr4_7 3.358073 1_555
Zr4_6 Zr4_7 3.358073 1_554
Zr5_0 Zr5_1 3.358073 1_555
Zr5_0 Zr5_1 3.358073 1_554
Zr5_2 Zr5_3 3.358073 1_555
Zr5_2 Zr5_3 3.358073 1_554
Zr5_4 Zr5_5 3.358073 1_555
Zr5_4 Zr5_5 3.358073 1_554
Zr5_6 Zr5_7 3.358073 1_555
Zr5_6 Zr5_7 3.358073 1_554
Al0_0 Zr3_0 2.949208 1_555
Al0_0 Zr3_1 2.949208 1_554
Al0_0 Zr5_4 2.949211 1_555
Al0_0 Zr5_5 2.949211 1_554
Al0_0 Zr4_0 2.949215 1_555
Al0_0 Zr4_1 2.949215 1_554
Al0_0 Zr2_4 3.010937 1_555
Al0_0 Zr0_0 3.010942 1_555
Al0_0 Zr1_0 3.010945 1_555
Al0_1 Zr3_0 2.949208 1_555
Al0_1 Zr3_1 2.949208 1_555
Al0_1 Zr5_5 2.949211 1_555
Al0_1 Zr5_4 2.949211 1_555
Al0_1 Zr4_0 2.949215 1_555
Al0_1 Zr4_1 2.949215 1_555
Al0_1 Zr2_5 3.010937 1_555
Al0_1 Zr0_1 3.010942 1_555
Al0_1 Zr1_1 3.010945 1_555
Al0_2 Zr3_2 2.949208 1_555
Al0_2 Zr3_3 2.949208 1_554
Al0_2 Zr5_6 2.949211 1_555
Al0_2 Zr5_7 2.949211 1_554
Al0_2 Zr4_2 2.949215 1_555
Al0_2 Zr4_3 2.949215 1_554
Al0_2 Zr2_6 3.010937 1_555
Al0_2 Zr0_2 3.010942 1_555
Al0_2 Zr1_2 3.010945 1_555
Al0_3 Zr3_3 2.949208 1_555
Al0_3 Zr3_2 2.949208 1_555
Al0_3 Zr5_6 2.949211 1_555
Al0_3 Zr5_7 2.949211 1_555
Al0_3 Zr4_3 2.949215 1_555
Al0_3 Zr4_2 2.949215 1_555
Al0_3 Zr2_7 3.010937 1_555
Al0_3 Zr0_3 3.010942 1_555
Al0_3 Zr1_3 3.010945 1_555
Al0_4 Zr3_4 2.949208 1_555
Al0_4 Zr3_5 2.949208 1_554
Al0_4 Zr5_0 2.949211 1_655
Al0_4 Zr5_1 2.949211 1_654
Al0_4 Zr4_5 2.949215 1_554
Al0_4 Zr4_4 2.949215 1_555
Al0_4 Zr2_0 3.010937 1_655
Al0_4 Zr0_4 3.010942 1_555
Al0_4 Zr1_4 3.010945 1_555
Al0_5 Zr3_4 2.949208 1_555
Al0_5 Zr3_5 2.949208 1_555
Al0_5 Zr5_0 2.949211 1_655
Al0_5 Zr5_1 2.949211 1_655
Al0_5 Zr4_5 2.949215 1_555
Al0_5 Zr4_4 2.949215 1_555
Al0_5 Zr2_1 3.010937 1_655
Al0_5 Zr0_5 3.010942 1_555
Al0_5 Zr1_5 3.010945 1_555
Al0_6 Zr3_6 2.949208 1_555
Al0_6 Zr3_7 2.949208 1_554
Al0_6 Zr5_2 2.949211 1_655
Al0_6 Zr5_3 2.949211 1_654
Al0_6 Zr4_6 2.949215 1_555
Al0_6 Zr4_7 2.949215 1_554
Al0_6 Zr2_2 3.010937 1_655
Al0_6 Zr0_6 3.010942 1_555
Al0_6 Zr1_6 3.010945 1_555
Al0_7 Zr3_7 2.949208 1_555
Al0_7 Zr3_6 2.949208 1_555
Al0_7 Zr5_3 2.949211 1_655
Al0_7 Zr5_2 2.949211 1_655
Al0_7 Zr4_6 2.949215 1_555
Al0_7 Zr4_7 2.949215 1_555
Al0_7 Zr2_3 3.010937 1_655
Al0_7 Zr0_7 3.010942 1_555
Al0_7 Zr1_7 3.010945 1_555
Al1_0 Zr5_0 2.949208 1_555
Al1_0 Zr5_1 2.949208 1_554
Al1_0 Zr3_2 2.949211 1_555
Al1_0 Zr3_3 2.949211 1_554
Al1_0 Zr4_0 2.949215 1_555
Al1_0 Zr4_1 2.949215 1_554
Al1_0 Zr0_2 3.010937 1_555
Al1_0 Zr2_0 3.010942 1_555
Al1_0 Zr1_0 3.010945 1_555
Al1_1 Zr5_0 2.949208 1_555
Al1_1 Zr5_1 2.949208 1_555
Al1_1 Zr3_2 2.949211 1_555
Al1_1 Zr3_3 2.949211 1_555
Al1_1 Zr4_1 2.949215 1_555
Al1_1 Zr4_0 2.949215 1_555
Al1_1 Zr0_3 3.010937 1_555
Al1_1 Zr2_1 3.010942 1_555
Al1_1 Zr1_1 3.010945 1_555
Al1_2 Zr5_2 2.949208 1_555
Al1_2 Zr5_3 2.949208 1_554
Al1_2 Zr3_0 2.949211 1_565
Al1_2 Zr3_1 2.949211 1_564
Al1_2 Zr4_2 2.949215 1_555
Al1_2 Zr4_3 2.949215 1_554
Al1_2 Zr0_0 3.010937 1_565
Al1_2 Zr2_2 3.010942 1_555
Al1_2 Zr1_2 3.010945 1_555
Al1_3 Zr5_2 2.949208 1_555
Al1_3 Zr5_3 2.949208 1_555
Al1_3 Zr3_1 2.949211 1_565
Al1_3 Zr3_0 2.949211 1_565
Al1_3 Zr4_3 2.949215 1_555
Al1_3 Zr4_2 2.949215 1_555
Al1_3 Zr0_1 3.010937 1_565
Al1_3 Zr2_3 3.010942 1_555
Al1_3 Zr1_3 3.010945 1_555
Al1_4 Zr5_4 2.949208 1_555
Al1_4 Zr5_5 2.949208 1_554
Al1_4 Zr3_6 2.949211 1_555
Al1_4 Zr3_7 2.949211 1_554
Al1_4 Zr4_4 2.949215 1_555
Al1_4 Zr4_5 2.949215 1_554
Al1_4 Zr0_6 3.010937 1_555
Al1_4 Zr2_4 3.010942 1_555
Al1_4 Zr1_4 3.010945 1_555
Al1_5 Zr5_5 2.949208 1_555
Al1_5 Zr5_4 2.949208 1_555
Al1_5 Zr3_7 2.949211 1_555
Al1_5 Zr3_6 2.949211 1_555
Al1_5 Zr4_4 2.949215 1_555
Al1_5 Zr4_5 2.949215 1_555
Al1_5 Zr0_7 3.010937 1_555
Al1_5 Zr2_5 3.010942 1_555
Al1_5 Zr1_5 3.010945 1_555
Al1_6 Zr5_6 2.949208 1_555
Al1_6 Zr5_7 2.949208 1_554
Al1_6 Zr3_4 2.949211 1_565
Al1_6 Zr3_5 2.949211 1_564
Al1_6 Zr4_6 2.949215 1_555
Al1_6 Zr4_7 2.949215 1_554
Al1_6 Zr0_4 3.010937 1_565
Al1_6 Zr2_6 3.010942 1_555
Al1_6 Zr1_6 3.010945 1_555
Al1_7 Zr5_7 2.949208 1_555
Al1_7 Zr5_6 2.949208 1_555
Al1_7 Zr3_5 2.949211 1_565
Al1_7 Zr3_4 2.949211 1_565
Al1_7 Zr4_7 2.949215 1_555
Al1_7 Zr4_6 2.949215 1_555
Al1_7 Zr0_5 3.010937 1_565
Al1_7 Zr2_7 3.010942 1_555
Al1_7 Zr1_7 3.010945 1_555
Ni0_0 Zr1_6 2.632401 1_445
Ni0_0 Zr1_7 2.632401 1_445
Ni0_0 Zr2_1 2.632401 1_555
Ni0_0 Zr0_0 2.632401 1_555
Ni0_0 Zr0_1 2.632401 1_555
Ni0_0 Zr2_0 2.632401 1_555
Ni0_0 Zr4_0 3.195193 1_555
Ni0_0 Zr5_2 3.195193 1_545
Ni0_0 Zr3_4 3.195193 1_455
Ni0_1 Zr1_7 2.632401 1_445
Ni0_1 Zr1_6 2.632401 1_446
Ni0_1 Zr2_1 2.632401 1_555
Ni0_1 Zr0_1 2.632401 1_555
Ni0_1 Zr0_0 2.632401 1_556
Ni0_1 Zr2_0 2.632401 1_556
Ni0_1 Zr4_1 3.195193 1_555
Ni0_1 Zr3_5 3.195193 1_455
Ni0_1 Zr5_3 3.195193 1_545
Ni0_2 Zr1_5 2.632401 1_455
Ni0_2 Zr1_4 2.632401 1_455
Ni0_2 Zr0_2 2.632401 1_555
Ni0_2 Zr0_3 2.632401 1_555
Ni0_2 Zr2_2 2.632401 1_555
Ni0_2 Zr2_3 2.632401 1_555
Ni0_2 Zr4_2 3.195193 1_555
Ni0_2 Zr3_6 3.195193 1_455
Ni0_2 Zr5_0 3.195193 1_555
Ni0_3 Zr1_5 2.632401 1_455
Ni0_3 Zr1_4 2.632401 1_456
Ni0_3 Zr0_3 2.632401 1_555
Ni0_3 Zr0_2 2.632401 1_556
Ni0_3 Zr2_3 2.632401 1_555
Ni0_3 Zr2_2 2.632401 1_556
Ni0_3 Zr4_3 3.195193 1_555
Ni0_3 Zr5_1 3.195193 1_555
Ni0_3 Zr3_7 3.195193 1_455
Ni0_4 Zr1_3 2.632401 1_545
Ni0_4 Zr1_2 2.632401 1_545
Ni0_4 Zr2_4 2.632401 1_555
Ni0_4 Zr2_5 2.632401 1_555
Ni0_4 Zr0_4 2.632401 1_555
Ni0_4 Zr0_5 2.632401 1_555
Ni0_4 Zr4_4 3.195193 1_555
Ni0_4 Zr5_6 3.195193 1_545
Ni0_4 Zr3_0 3.195193 1_555
Ni0_5 Zr1_3 2.632401 1_545
Ni0_5 Zr1_2 2.632401 1_546
Ni0_5 Zr2_5 2.632401 1_555
Ni0_5 Zr2_4 2.632401 1_556
Ni0_5 Zr0_5 2.632401 1_555
Ni0_5 Zr0_4 2.632401 1_556
Ni0_5 Zr4_5 3.195193 1_555
Ni0_5 Zr5_7 3.195193 1_545
Ni0_5 Zr3_1 3.195193 1_555
Ni0_6 Zr1_1 2.632401 1_555
Ni0_6 Zr1_0 2.632401 1_555
Ni0_6 Zr2_6 2.632401 1_555
Ni0_6 Zr0_6 2.632401 1_555
Ni0_6 Zr0_7 2.632401 1_555
Ni0_6 Zr2_7 2.632401 1_555
Ni0_6 Zr4_6 3.195193 1_555
Ni0_6 Zr5_4 3.195193 1_555
Ni0_6 Zr3_2 3.195193 1_555
Ni0_7 Zr1_1 2.632401 1_555
Ni0_7 Zr1_0 2.632401 1_556
Ni0_7 Zr2_7 2.632401 1_555
Ni0_7 Zr0_7 2.632401 1_555
Ni0_7 Zr0_6 2.632401 1_556
Ni0_7 Zr2_6 2.632401 1_556
Ni0_7 Zr4_7 3.195193 1_555
Ni0_7 Zr5_5 3.195193 1_555
Ni0_7 Zr3_3 3.195193 1_555
