# generated using pymatgen
data_Li5Mn3O8
_symmetry_space_group_name_H-M   'P 1'
_cell_length_a   5.92637100
_cell_length_b   4.99821500
_cell_length_c   5.09100123
_cell_angle_alpha   71.30843724
_cell_angle_beta   90.00000000
_cell_angle_gamma   90.00000000
_symmetry_Int_Tables_number   1
_chemical_formula_structural   Li5Mn3O8
_chemical_formula_sum   'Li5 Mn3 O8'
_cell_volume   142.84827974
_cell_formula_units_Z   1
loop_
 _symmetry_equiv_pos_site_id
 _symmetry_equiv_pos_as_xyz
  1  'x, y, z'
loop_
 _atom_site_type_symbol
 _atom_site_label
 _atom_site_symmetry_multiplicity
 _atom_site_fract_x
 _atom_site_fract_y
 _atom_site_fract_z
 _atom_site_occupancy
  Li  Li0  1  0.50000000  0.00000000  0.50000000  1
  Li  Li1  1  0.73746700  0.50000000  0.50000000  1
  Li  Li2  1  0.00000000  0.00000000  0.50000000  1
  Li  Li3  1  0.26253300  0.50000000  0.50000000  1
  Li  Li4  1  0.50000000  0.50000000  0.00000000  1
  Mn  Mn0  1  0.25738800  0.00000000  0.00000000  1
  Mn  Mn1  1  0.74261200  0.00000000  0.00000000  1
  Mn  Mn2  1  0.00000000  0.50000000  0.00000000  1
  O  O0  1  0.23011700  0.74504100  0.78408500  1
  O  O1  1  0.50000000  0.22569500  0.76089500  1
  O  O2  1  0.76988300  0.74504100  0.78408500  1
  O  O3  1  0.00000000  0.25122700  0.77561300  1
  O  O4  1  0.76988300  0.25495900  0.21591500  1
  O  O5  1  0.00000000  0.74877300  0.22438700  1
  O  O6  1  0.23011700  0.25495900  0.21591500  1
  O  O7  1  0.50000000  0.77430500  0.23910500  1
loop_
_geom_bond_atom_site_label_1
_geom_bond_atom_site_label_2
_geom_bond_distance
_geom_bond_site_symmetry_2
Li0 O1 1.999263 1_555
Li0 O7 1.999263 1_545
Li0 O0 2.256663 1_545
Li0 O6 2.256663 1_555
Li0 O2 2.256663 1_545
Li0 O4 2.256663 1_555
Li1 O7 2.111221 1_555
Li1 O1 2.111221 1_555
Li1 O2 2.182664 1_555
Li1 O4 2.182664 1_555
Li1 O5 2.194853 1_655
Li1 O3 2.194853 1_655
Li2 O6 2.096235 1_555
Li2 O4 2.096235 1_455
Li2 O2 2.096235 1_445
Li2 O0 2.096235 1_545
Li2 O5 2.162142 1_545
Li2 O3 2.162142 1_555
Li3 O7 2.111221 1_555
Li3 O1 2.111221 1_555
Li3 O0 2.182664 1_555
Li3 O6 2.182664 1_555
Li3 O5 2.194853 1_555
Li3 O3 2.194853 1_555
Li4 O4 2.098478 1_555
Li4 O2 2.098478 1_554
Li4 O6 2.098478 1_555
Li4 O0 2.098478 1_554
Li4 O1 2.105046 1_554
Li4 O7 2.105046 1_555
Mn0 O6 1.938088 1_555
Mn0 O0 1.938088 1_544
Mn0 O7 1.985317 1_545
Mn0 O1 1.985317 1_554
Mn0 O3 2.071014 1_554
Mn0 O5 2.071014 1_545
Mn1 O4 1.938088 1_555
Mn1 O2 1.938088 1_544
Mn1 O1 1.985317 1_554
Mn1 O7 1.985317 1_545
Mn1 O5 2.071014 1_645
Mn1 O3 2.071014 1_654
Mn2 O0 1.924911 1_554
Mn2 O6 1.924911 1_555
Mn2 O4 1.924911 1_455
Mn2 O2 1.924911 1_454
Mn2 O5 1.939456 1_555
Mn2 O3 1.939456 1_554
