# generated using pymatgen
data_Sr3TaCoO7
_symmetry_space_group_name_H-M   'P 1'
_cell_length_a   5.59969104
_cell_length_b   5.59969953
_cell_length_c   21.82859218
_cell_angle_alpha   97.37019195
_cell_angle_beta   82.62973920
_cell_angle_gamma   90.00690226
_symmetry_Int_Tables_number   1
_chemical_formula_structural   Sr3TaCoO7
_chemical_formula_sum   'Sr12 Ta4 Co4 O28'
_cell_volume   673.11377680
_cell_formula_units_Z   4
loop_
 _symmetry_equiv_pos_site_id
 _symmetry_equiv_pos_as_xyz
  1  'x, y, z'
loop_
 _atom_site_type_symbol
 _atom_site_label
 _atom_site_symmetry_multiplicity
 _atom_site_fract_x
 _atom_site_fract_y
 _atom_site_fract_z
 _atom_site_occupancy
  Sr  Sr0  1  0.50918100  0.99080500  0.98162900  1
  Sr  Sr1  1  0.25929100  0.74075400  0.48154300  1
  Sr  Sr2  1  0.00920900  0.49081800  0.98163100  1
  Sr  Sr3  1  0.75922900  0.24079000  0.48158700  1
  Sr  Sr4  1  0.65396200  0.34603900  0.69209300  1
  Sr  Sr5  1  0.40389200  0.09609600  0.19225700  1
  Sr  Sr6  1  0.15395300  0.84604000  0.69210300  1
  Sr  Sr7  1  0.90390100  0.59609200  0.19224600  1
  Sr  Sr8  1  0.59114700  0.90885200  0.81773500  1
  Sr  Sr9  1  0.34109300  0.65890900  0.31779100  1
  Sr  Sr10  1  0.09115700  0.40885000  0.81773500  1
  Sr  Sr11  1  0.84108200  0.15891400  0.31780400  1
  Ta  Ta0  1  0.70127400  0.79873600  0.59742800  1
  Ta  Ta1  1  0.45122300  0.54877700  0.09763900  1
  Ta  Ta2  1  0.20128300  0.29871700  0.59742500  1
  Ta  Ta3  1  0.95117800  0.04881700  0.09763400  1
  Co  Co0  1  0.30255300  0.19745500  0.39491900  1
  Co  Co1  1  0.05259000  0.94741000  0.89485200  1
  Co  Co2  1  0.55261400  0.44739100  0.89482800  1
  Co  Co3  1  0.80257000  0.69745700  0.39489300  1
  O  O0  1  0.59927300  0.40071000  0.80158400  1
  O  O1  1  0.34913900  0.15080400  0.30168300  1
  O  O2  1  0.09928000  0.90070300  0.80158400  1
  O  O3  1  0.84915800  0.65080300  0.30167500  1
  O  O4  1  0.65289400  0.84710800  0.69419700  1
  O  O5  1  0.40274500  0.59724000  0.19439200  1
  O  O6  1  0.15289800  0.34710700  0.69419400  1
  O  O7  1  0.90274900  0.09723300  0.19438700  1
  O  O8  1  0.74590400  0.75406800  0.50810900  1
  O  O9  1  0.49579000  0.50419300  0.00829500  1
  O  O10  1  0.24597300  0.25406900  0.50810600  1
  O  O11  1  0.99582600  0.00417300  0.00829000  1
  O  O12  1  0.31124700  0.21508500  0.90388200  1
  O  O13  1  0.03499200  0.93884000  0.40390700  1
  O  O14  1  0.78489200  0.68877300  0.90388700  1
  O  O15  1  0.56113200  0.46504600  0.40389200  1
  O  O16  1  0.81123500  0.18878600  0.90388400  1
  O  O17  1  0.53505200  0.96507600  0.40388900  1
  O  O18  1  0.28493900  0.71504700  0.90387300  1
  O  O19  1  0.06108900  0.43882800  0.40389400  1
  O  O20  1  0.94904700  0.05104000  0.60196600  1
  O  O21  1  0.69885800  0.80121900  0.10219400  1
  O  O22  1  0.44880400  0.55111800  0.60197000  1
  O  O23  1  0.19894400  0.30096800  0.10219600  1
  O  O24  1  0.44910800  0.05107500  0.60196300  1
  O  O25  1  0.19885900  0.80097100  0.10218800  1
  O  O26  1  0.94884600  0.55097500  0.60195900  1
  O  O27  1  0.69894600  0.30122200  0.10218700  1
loop_
_geom_bond_atom_site_label_1
_geom_bond_atom_site_label_2
_geom_bond_distance
_geom_bond_site_symmetry_2
Co0 O17 1.886207 1_545
Co0 O19 1.886274 1_555
Co0 O1 2.001443 1_555
Co0 O15 2.092174 1_555
Co0 O13 2.092227 1_545
Co0 O10 2.429720 1_555
Co1 O16 1.885757 1_465
Co1 O18 1.885866 1_555
Co1 O2 2.002130 1_555
Co1 O12 2.092926 1_565
Co1 O14 2.092947 1_455
Co1 O11 2.435108 1_466
Co2 O14 1.885438 1_555
Co2 O12 1.885478 1_555
Co2 O0 2.001615 1_555
Co2 O18 2.093024 1_555
Co2 O16 2.093030 1_555
Co2 O9 2.435731 1_556
Co3 O13 1.885910 1_655
Co3 O15 1.886050 1_555
Co3 O3 2.001057 1_555
Co3 O17 2.092355 1_555
Co3 O19 2.092396 1_655
Co3 O8 2.430343 1_555
O0 Sr4 2.350380 1_555
O0 Sr8 2.820864 1_545
O0 Sr10 2.821005 1_655
O0 Sr10 2.821455 1_555
O0 Sr8 2.821604 1_555
O1 Sr5 2.348985 1_555
O1 Sr9 2.820837 1_545
O1 Sr11 2.821131 1_455
O1 Sr11 2.821170 1_555
O1 Sr9 2.821405 1_555
O2 Sr6 2.350166 1_555
O2 Sr10 2.820836 1_555
O2 Sr8 2.820911 1_555
O2 Sr8 2.821550 1_455
O2 Sr10 2.821632 1_565
O3 Sr7 2.349049 1_555
O3 Sr11 2.820917 1_555
O3 Sr9 2.821099 1_655
O3 Sr9 2.821177 1_555
O3 Sr11 2.821435 1_565
O4 Ta0 2.077284 1_555
O4 Sr8 2.651919 1_555
O4 Sr4 2.800119 1_565
O4 Sr6 2.800139 1_555
O4 Sr6 2.800274 1_655
O4 Sr4 2.800309 1_555
O5 Ta1 2.076941 1_555
O5 Sr9 2.648935 1_555
O5 Sr7 2.799760 1_455
O5 Sr5 2.799796 1_565
O5 Sr5 2.800653 1_555
O5 Sr7 2.800689 1_555
O6 Ta2 2.077284 1_555
O6 Sr10 2.651983 1_555
O6 Sr6 2.800089 1_555
O6 Sr4 2.800133 1_455
O6 Sr4 2.800284 1_555
O6 Sr6 2.800330 1_545
O7 Ta3 2.076941 1_555
O7 Sr11 2.649322 1_555
O7 Sr5 2.799782 1_555
O7 Sr7 2.799832 1_555
O7 Sr7 2.800622 1_545
O7 Sr5 2.800656 1_655
O8 Ta0 1.917359 1_555
O8 Sr1 2.856762 1_555
O8 Sr3 2.857055 1_565
O8 Sr3 2.857243 1_555
O8 Sr1 2.857903 1_655
O9 Ta1 1.917896 1_555
O9 Sr2 2.857276 1_554
O9 Sr0 2.857464 1_554
O9 Sr0 2.858069 1_544
O9 Sr2 2.858231 1_654
O10 Ta2 1.917359 1_555
O10 Sr3 2.857112 1_555
O10 Sr1 2.857140 1_555
O10 Sr3 2.857151 1_455
O10 Sr1 2.857509 1_545
O11 Ta3 1.917896 1_555
O11 Sr2 2.857596 1_654
O11 Sr0 2.857606 1_544
O11 Sr0 2.857875 1_644
O11 Sr2 2.857877 1_644
O12 Sr0 2.591468 1_545
O12 Sr2 2.591675 1_555
O12 Sr8 2.711179 1_545
O12 Sr10 2.711223 1_555
O13 Sr1 2.590094 1_555
O13 Sr3 2.590736 1_465
O13 Sr9 2.710498 1_555
O13 Sr11 2.710800 1_465
O14 Sr0 2.591517 1_555
O14 Sr2 2.591595 1_655
O14 Sr8 2.711222 1_555
O14 Sr10 2.711398 1_655
O15 Sr1 2.589918 1_555
O15 Sr3 2.590983 1_555
O15 Sr11 2.710316 1_555
O15 Sr9 2.710530 1_555
O16 Sr2 2.591419 1_655
O16 Sr0 2.591479 1_545
O16 Sr10 2.711026 1_655
O16 Sr8 2.711135 1_545
O17 Sr1 2.590349 1_555
O17 Sr3 2.590370 1_565
O17 Sr11 2.709720 1_565
O17 Sr9 2.710660 1_555
O18 Sr2 2.591418 1_555
O18 Sr0 2.591514 1_555
O18 Sr10 2.710846 1_555
O18 Sr8 2.710939 1_555
O19 Sr3 2.590314 1_455
O19 Sr1 2.590396 1_555
O19 Sr11 2.709961 1_455
O19 Sr9 2.710622 1_555
O20 Ta2 1.981726 1_655
O20 Ta0 1.982372 1_545
O20 Sr4 2.768114 1_555
O20 Sr6 2.768506 1_645
O21 Ta3 1.981766 1_565
O21 Ta1 1.982390 1_555
O21 Sr5 2.766653 1_565
O21 Sr7 2.767739 1_555
O22 Ta2 1.981767 1_555
O22 Ta0 1.982420 1_555
O22 Sr6 2.767307 1_555
O22 Sr4 2.769194 1_555
O23 Ta3 1.981765 1_455
O23 Ta1 1.982435 1_555
O23 Sr5 2.766907 1_555
O23 Sr7 2.767413 1_455
O24 Ta0 1.982184 1_545
O24 Ta2 1.982325 1_555
O24 Sr4 2.767596 1_555
O24 Sr6 2.768796 1_545
O25 Ta1 1.982353 1_555
O25 Ta3 1.982643 1_465
O25 Sr7 2.766567 1_455
O25 Sr5 2.767644 1_565
O26 Ta0 1.981760 1_555
O26 Ta2 1.982938 1_655
O26 Sr4 2.767659 1_555
O26 Sr6 2.768808 1_655
O27 Ta1 1.981628 1_555
O27 Ta3 1.982654 1_555
O27 Sr7 2.766550 1_555
O27 Sr5 2.767718 1_555
