# generated using pymatgen
data_Mg6Si5
_symmetry_space_group_name_H-M   'P 1'
_cell_length_a   4.19265800
_cell_length_b   7.07549794
_cell_length_c   14.33779549
_cell_angle_alpha   97.99554796
_cell_angle_beta   90.07868394
_cell_angle_gamma   90.48447127
_symmetry_Int_Tables_number   1
_chemical_formula_structural   Mg6Si5
_chemical_formula_sum   'Mg12 Si10'
_cell_volume   421.18159011
_cell_formula_units_Z   2
loop_
 _symmetry_equiv_pos_site_id
 _symmetry_equiv_pos_as_xyz
  1  'x, y, z'
loop_
 _atom_site_type_symbol
 _atom_site_label
 _atom_site_symmetry_multiplicity
 _atom_site_fract_x
 _atom_site_fract_y
 _atom_site_fract_z
 _atom_site_occupancy
  Mg  Mg0  1  0.40766300  0.61448300  0.05029400  1
  Mg  Mg1  1  0.42570200  0.23300900  0.45580200  1
  Mg  Mg2  1  0.90791900  0.70888300  0.71193800  1
  Mg  Mg3  1  0.41492000  0.03249400  0.21928000  1
  Mg  Mg4  1  0.41954700  0.53649500  0.29081600  1
  Mg  Mg5  1  0.39596700  0.45921500  0.80281900  1
  Mg  Mg6  1  0.93788900  0.98612200  0.55055300  1
  Mg  Mg7  1  0.91667500  0.54975400  0.48074300  1
  Mg  Mg8  1  0.91214900  0.35707100  0.15402100  1
  Mg  Mg9  1  0.41558800  0.92397400  0.87742200  1
  Mg  Mg10  1  0.90599600  0.30790900  0.94012200  1
  Mg  Mg11  1  0.91063700  0.94880200  0.04673700  1
  Si  Si0  1  0.41886700  0.83615100  0.42596600  1
  Si  Si1  1  0.41637200  0.72070300  0.58144400  1
  Si  Si2  1  0.90791500  0.66716900  0.90166000  1
  Si  Si3  1  0.90715400  0.74039700  0.18935500  1
  Si  Si4  1  0.91928300  0.26769800  0.32970900  1
  Si  Si5  1  0.73422400  0.32176600  0.64441400  1
  Si  Si6  1  0.95143200  0.13083300  0.76514500  1
  Si  Si7  1  0.91793000  0.92507400  0.34580400  1
  Si  Si8  1  0.41229300  0.20403100  0.04569400  1
  Si  Si9  1  0.44741000  0.02427400  0.68673800  1
loop_
_geom_bond_atom_site_label_1
_geom_bond_atom_site_label_2
_geom_bond_distance
_geom_bond_site_symmetry_2
Mg0 Si8 2.895945 1_555
Mg0 Si3 2.935564 1_555
Mg0 Si3 2.953229 1_455
Mg0 Si2 3.048376 1_454
Mg0 Si2 3.049519 1_554
Mg1 Si0 2.780817 1_545
Mg1 Si4 2.781428 1_555
Mg1 Si4 2.821098 1_455
Mg1 Si5 2.980760 1_555
Mg2 Si2 2.776675 1_555
Mg2 Si1 2.791189 1_555
Mg2 Si1 2.846671 1_655
Mg2 Si5 2.862977 1_555
Mg2 Si6 2.980824 1_565
Mg2 Si9 3.022156 1_565
Mg3 Si8 2.916854 1_555
Mg3 Si3 2.922754 1_545
Mg3 Si7 2.928747 1_445
Mg3 Si3 2.943474 1_445
Mg3 Si7 2.952351 1_545
Mg3 Si4 2.988163 1_455
Mg3 Si4 2.991033 1_555
Mg4 Si0 2.665968 1_555
Mg4 Si4 2.925425 1_455
Mg4 Si4 2.945718 1_555
Mg4 Si3 2.986508 1_555
Mg4 Si3 3.072534 1_455
Mg5 Si5 2.744638 1_555
Mg5 Si2 2.799853 1_455
Mg5 Si2 2.852821 1_555
Mg5 Si6 2.956149 1_455
Mg6 Si5 2.707115 1_565
Mg6 Si0 2.811086 1_655
Mg6 Si9 2.826322 1_565
Mg6 Si1 2.835508 1_655
Mg6 Si9 2.877707 1_665
Mg6 Si7 2.908190 1_555
Mg6 Si0 2.911211 1_555
Mg6 Si1 2.944236 1_555
Mg7 Si1 2.720282 1_655
Mg7 Si4 2.733210 1_555
Mg7 Si1 2.740980 1_555
Mg7 Si0 3.087308 1_655
Mg7 Si0 3.096617 1_555
Mg7 Si5 3.119521 1_555
Mg8 Si4 2.681281 1_555
Mg8 Si3 2.689235 1_555
Mg8 Si8 2.731619 1_555
Mg8 Si8 2.749812 1_655
Mg9 Si2 2.814288 1_555
Mg9 Si2 2.839920 1_455
Mg9 Si8 2.901407 1_566
Mg9 Si9 2.921521 1_565
Mg9 Si6 3.035756 1_465
Mg10 Si6 2.651597 1_555
Mg10 Si2 2.674936 1_555
Mg10 Si8 2.721834 1_556
Mg10 Si8 2.768473 1_656
Mg11 Si2 2.672856 1_554
Mg11 Si3 2.682242 1_555
Mg11 Si8 2.761977 1_665
Mg11 Si8 2.774557 1_565
Si0 Si1 2.478554 1_555
Si0 Si7 2.506095 1_555
Si0 Si7 2.518894 1_455
Si1 Si9 2.449953 1_565
Si3 Si7 2.434016 1_555
Si4 Si7 2.466902 1_545
Si5 Si6 2.513531 1_555
Si5 Si9 2.561142 1_555
Si6 Si9 2.439992 1_655
Si6 Si9 2.455313 1_555
