# generated using pymatgen
data_Ca2SiO6
_symmetry_space_group_name_H-M   'P 1'
_cell_length_a   5.69938900
_cell_length_b   8.43871049
_cell_length_c   10.86750777
_cell_angle_alpha   90.17049889
_cell_angle_beta   91.22220143
_cell_angle_gamma   96.60473433
_symmetry_Int_Tables_number   1
_chemical_formula_structural   Ca2SiO6
_chemical_formula_sum   'Ca8 Si4 O24'
_cell_volume   519.08339570
_cell_formula_units_Z   4
loop_
 _symmetry_equiv_pos_site_id
 _symmetry_equiv_pos_as_xyz
  1  'x, y, z'
loop_
 _atom_site_type_symbol
 _atom_site_label
 _atom_site_symmetry_multiplicity
 _atom_site_fract_x
 _atom_site_fract_y
 _atom_site_fract_z
 _atom_site_occupancy
  Ca  Ca0  1  0.78141200  0.81870500  0.11674700  1
  Ca  Ca1  1  0.21858800  0.18129500  0.88325300  1
  Ca  Ca2  1  0.29605700  0.81490200  0.38674500  1
  Ca  Ca3  1  0.70394300  0.18509800  0.61325500  1
  Ca  Ca4  1  0.25859100  0.47953700  0.12685700  1
  Ca  Ca5  1  0.74140900  0.52046300  0.87314300  1
  Ca  Ca6  1  0.76080200  0.47881700  0.37008700  1
  Ca  Ca7  1  0.23919800  0.52118300  0.62991300  1
  Si  Si0  1  0.20119000  0.24320300  0.42962700  1
  Si  Si1  1  0.79881000  0.75679700  0.57037300  1
  Si  Si2  1  0.72303800  0.24456900  0.06418600  1
  Si  Si3  1  0.27696200  0.75543100  0.93581400  1
  O  O0  1  0.03931500  0.65796300  0.23930100  1
  O  O1  1  0.96068500  0.34203700  0.76069900  1
  O  O2  1  0.53619200  0.65446800  0.25694900  1
  O  O3  1  0.46380800  0.34553200  0.74305100  1
  O  O4  1  0.70306700  0.05388300  0.02097400  1
  O  O5  1  0.29693300  0.94611700  0.97902600  1
  O  O6  1  0.19065000  0.05204400  0.46870900  1
  O  O7  1  0.80935000  0.94795600  0.53129100  1
  O  O8  1  0.19321500  0.28294100  0.28111300  1
  O  O9  1  0.80678500  0.71705900  0.71888700  1
  O  O10  1  0.75766500  0.28609100  0.21190800  1
  O  O11  1  0.24233500  0.71390900  0.78809200  1
  O  O12  1  0.49955500  0.32963400  0.01202200  1
  O  O13  1  0.50044500  0.67036600  0.98797800  1
  O  O14  1  0.96857300  0.32871300  0.00147900  1
  O  O15  1  0.03142700  0.67128700  0.99852100  1
  O  O16  1  0.17112500  0.91942900  0.18843000  1
  O  O17  1  0.82887500  0.08057100  0.81157000  1
  O  O18  1  0.66039000  0.91319400  0.30743400  1
  O  O19  1  0.33961000  0.08680600  0.69256600  1
  O  O20  1  0.00482500  0.67110600  0.50214700  1
  O  O21  1  0.99517500  0.32889400  0.49785300  1
  O  O22  1  0.46363500  0.32436600  0.47554700  1
  O  O23  1  0.53636500  0.67563400  0.52445300  1
loop_
_geom_bond_atom_site_label_1
_geom_bond_atom_site_label_2
_geom_bond_distance
_geom_bond_site_symmetry_2
Ca0 O4 2.327579 1_565
Ca0 O13 2.349987 1_554
Ca0 O18 2.362965 1_555
Ca0 O15 2.388545 1_654
Ca0 O16 2.398059 1_655
Ca0 O2 2.419395 1_555
Ca0 O0 2.481992 1_655
Ca1 O5 2.327579 1_545
Ca1 O12 2.349987 1_556
Ca1 O19 2.362965 1_555
Ca1 O14 2.388545 1_456
Ca1 O17 2.398059 1_455
Ca1 O3 2.419395 1_555
Ca1 O1 2.481992 1_455
Ca2 O18 2.329601 1_555
Ca2 O20 2.331293 1_555
Ca2 O6 2.334052 1_565
Ca2 O23 2.406235 1_555
Ca2 O0 2.429852 1_555
Ca2 O16 2.453614 1_555
Ca2 O2 2.488567 1_555
Ca3 O19 2.329601 1_555
Ca3 O21 2.331293 1_555
Ca3 O7 2.334052 1_545
Ca3 O22 2.406235 1_555
Ca3 O1 2.429852 1_555
Ca3 O17 2.453614 1_555
Ca3 O3 2.488567 1_555
Ca4 O12 2.346714 1_555
Ca4 O8 2.366942 1_555
Ca4 O14 2.370288 1_455
Ca4 O0 2.410239 1_555
Ca4 O2 2.456829 1_555
Ca4 O13 2.522648 1_554
Ca4 O15 2.580320 1_554
Ca5 O13 2.346714 1_555
Ca5 O9 2.366942 1_555
Ca5 O15 2.370288 1_655
Ca5 O1 2.410239 1_555
Ca5 O3 2.456829 1_555
Ca5 O12 2.522648 1_556
Ca5 O14 2.580320 1_556
Ca6 O22 2.337669 1_555
Ca6 O10 2.361297 1_555
Ca6 O21 2.373385 1_555
Ca6 O2 2.393286 1_555
Ca6 O20 2.451301 1_655
Ca6 O0 2.526315 1_655
Ca6 O23 2.787956 1_555
Ca7 O23 2.337669 1_555
Ca7 O11 2.361297 1_555
Ca7 O20 2.373385 1_555
Ca7 O3 2.393286 1_555
Ca7 O21 2.451301 1_455
Ca7 O1 2.526315 1_455
Ca7 O22 2.787956 1_555
O4 Si2 1.665509 1_555
O5 Si3 1.665509 1_555
O6 Si0 1.664055 1_555
O7 Si1 1.664055 1_555
O8 Si0 1.650163 1_555
O9 Si1 1.650163 1_555
O10 Si2 1.645042 1_555
O11 Si3 1.645042 1_555
O12 Si2 1.625104 1_555
O13 Si3 1.625104 1_555
O14 Si2 1.655867 1_555
O15 Si3 1.655867 1_555
O20 Si1 1.637242 1_455
O21 Si0 1.637242 1_655
O22 Si0 1.638884 1_555
O23 Si1 1.638884 1_555
