# generated using pymatgen
data_Zn2Co9O13
_symmetry_space_group_name_H-M   'P 1'
_cell_length_a   5.17148885
_cell_length_b   5.17148885
_cell_length_c   16.77386049
_cell_angle_alpha   81.65832548
_cell_angle_beta   81.65832548
_cell_angle_gamma   32.88187532
_symmetry_Int_Tables_number   1
_chemical_formula_structural   Zn2Co9O13
_chemical_formula_sum   'Zn2 Co9 O13'
_cell_volume   240.74934235
_cell_formula_units_Z   1
loop_
 _symmetry_equiv_pos_site_id
 _symmetry_equiv_pos_as_xyz
  1  'x, y, z'
loop_
 _atom_site_type_symbol
 _atom_site_label
 _atom_site_symmetry_multiplicity
 _atom_site_fract_x
 _atom_site_fract_y
 _atom_site_fract_z
 _atom_site_occupancy
  Zn  Zn0  1  0.79318500  0.79318500  0.23254500  1
  Zn  Zn1  1  0.20681500  0.20681500  0.76745500  1
  Co  Co0  1  0.50000000  0.50000000  0.50000000  1
  Co  Co1  1  0.35824400  0.35824400  0.04064500  1
  Co  Co2  1  0.64175600  0.64175600  0.95935500  1
  Co  Co3  1  0.24881000  0.24881000  0.41718000  1
  Co  Co4  1  0.75119000  0.75119000  0.58282000  1
  Co  Co5  1  0.07247300  0.07247300  0.12782000  1
  Co  Co6  1  0.92752700  0.92752700  0.87218000  1
  Co  Co7  1  0.00793700  0.00793700  0.32958900  1
  Co  Co8  1  0.99206300  0.99206300  0.67041100  1
  O  O0  1  0.00000000  0.00000000  0.00000000  1
  O  O1  1  0.14370700  0.14370700  0.22300900  1
  O  O2  1  0.85629300  0.85629300  0.77699100  1
  O  O3  1  0.70150400  0.70150400  0.07053900  1
  O  O4  1  0.29849600  0.29849600  0.92946100  1
  O  O5  1  0.42939200  0.42939200  0.14402900  1
  O  O6  1  0.57060800  0.57060800  0.85597100  1
  O  O7  1  0.36827000  0.36827000  0.30828900  1
  O  O8  1  0.63173000  0.63173000  0.69171100  1
  O  O9  1  0.60981900  0.60981900  0.39056600  1
  O  O10  1  0.39018100  0.39018100  0.60943400  1
  O  O11  1  0.87766600  0.87766600  0.46494600  1
  O  O12  1  0.12233400  0.12233400  0.53505400  1
loop_
_geom_bond_atom_site_label_1
_geom_bond_atom_site_label_2
_geom_bond_distance
_geom_bond_site_symmetry_2
Co0 O9 1.987810 1_555
Co0 O10 1.987810 1_555
Co0 O12 2.043689 1_565
Co0 O11 2.043689 1_545
Co0 O12 2.043689 1_655
Co0 O11 2.043689 1_455
Co1 O5 1.968677 1_555
Co1 O4 2.040556 1_554
Co1 O0 2.072340 1_655
Co1 O0 2.072340 1_565
Co1 O3 2.139049 1_545
Co1 O3 2.139049 1_455
Co2 O6 1.968677 1_555
Co2 O3 2.040556 1_556
Co2 O0 2.072340 1_656
Co2 O0 2.072340 1_566
Co2 O4 2.139049 1_655
Co2 O4 2.139049 1_565
Co3 O7 2.021316 1_555
Co3 O9 2.104500 1_455
Co3 O9 2.104500 1_545
Co3 O11 2.174412 1_545
Co3 O11 2.174412 1_455
Co3 O12 2.175549 1_555
Co4 O8 2.021316 1_555
Co4 O10 2.104500 1_655
Co4 O10 2.104500 1_565
Co4 O12 2.174412 1_655
Co4 O12 2.174412 1_565
Co4 O11 2.175549 1_555
Co5 O1 1.841220 1_555
Co5 O5 2.028332 1_455
Co5 O5 2.028332 1_545
Co5 O3 2.081309 1_455
Co5 O3 2.081309 1_545
Co5 O0 2.362217 1_555
Co6 O2 1.841220 1_555
Co6 O6 2.028332 1_565
Co6 O6 2.028332 1_655
Co6 O4 2.081309 1_565
Co6 O4 2.081309 1_655
Co6 O0 2.362217 1_666
Co7 O1 2.069217 1_555
Co7 O7 2.083114 1_545
Co7 O7 2.083114 1_455
Co7 O9 2.126661 1_545
Co7 O9 2.126661 1_455
Co7 O11 2.436676 1_445
Co8 O2 2.069217 1_555
Co8 O8 2.083114 1_565
Co8 O8 2.083114 1_655
Co8 O10 2.126661 1_565
Co8 O10 2.126661 1_655
Co8 O12 2.436676 1_665
O1 Zn0 2.106766 1_455
O1 Zn0 2.106766 1_545
O2 Zn1 2.106766 1_565
O2 Zn1 2.106766 1_655
O5 Zn0 2.359155 1_545
O5 Zn0 2.359155 1_455
O6 Zn1 2.359155 1_565
O6 Zn1 2.359155 1_655
O7 Zn0 2.144210 1_545
O7 Zn0 2.144210 1_455
O8 Zn1 2.144210 1_655
O8 Zn1 2.144210 1_565
