# generated using pymatgen
data_Li7Co5O12
_symmetry_space_group_name_H-M   'P 1'
_cell_length_a   2.87853100
_cell_length_b   7.65392021
_cell_length_c   9.78239671
_cell_angle_alpha   100.46714639
_cell_angle_beta   90.39429244
_cell_angle_gamma   100.34989320
_symmetry_Int_Tables_number   1
_chemical_formula_structural   Li7Co5O12
_chemical_formula_sum   'Li7 Co5 O12'
_cell_volume   208.31715699
_cell_formula_units_Z   1
loop_
 _symmetry_equiv_pos_site_id
 _symmetry_equiv_pos_as_xyz
  1  'x, y, z'
loop_
 _atom_site_type_symbol
 _atom_site_label
 _atom_site_symmetry_multiplicity
 _atom_site_fract_x
 _atom_site_fract_y
 _atom_site_fract_z
 _atom_site_occupancy
  Li  Li0  1  0.75053500  0.00026900  0.74853200  1
  Li  Li1  1  0.24946500  0.99973100  0.25146800  1
  Li  Li2  1  0.42125300  0.34064400  0.75561800  1
  Li  Li3  1  0.92103200  0.33634100  0.24783000  1
  Li  Li4  1  0.07896800  0.66365900  0.75217000  1
  Li  Li5  1  0.57874700  0.65935600  0.24438200  1
  Li  Li6  1  0.00000000  0.50000000  0.00000000  1
  Co  Co0  1  0.67051000  0.82583000  0.99754400  1
  Co  Co1  1  0.32949000  0.17417000  0.00245600  1
  Co  Co2  1  0.16549200  0.83311400  0.49766400  1
  Co  Co3  1  0.83450800  0.16688600  0.50233600  1
  Co  Co4  1  0.50000000  0.50000000  0.50000000  1
  O  O0  1  0.21576200  0.92001900  0.89593800  1
  O  O1  1  0.70864000  0.91716300  0.37885700  1
  O  O2  1  0.87298400  0.23537100  0.89114000  1
  O  O3  1  0.38062700  0.25953800  0.38778600  1
  O  O4  1  0.55218700  0.60932300  0.88451600  1
  O  O5  1  0.04022600  0.58046500  0.38330400  1
  O  O6  1  0.29136000  0.08283700  0.62114300  1
  O  O7  1  0.78423800  0.07998100  0.10406200  1
  O  O8  1  0.95977400  0.41953500  0.61669600  1
  O  O9  1  0.44781300  0.39067700  0.11548400  1
  O  O10  1  0.61937300  0.74046200  0.61221400  1
  O  O11  1  0.12701600  0.76462900  0.10886000  1
loop_
_geom_bond_atom_site_label_1
_geom_bond_atom_site_label_2
_geom_bond_distance
_geom_bond_site_symmetry_2
Li0 O2 2.040011 1_555
Li0 O6 2.064694 1_555
Li0 O6 2.082122 1_655
Li0 O10 2.152886 1_545
Li0 O0 2.199738 1_545
Li0 O0 2.200174 1_645
Li1 O11 2.040011 1_555
Li1 O1 2.064694 1_555
Li1 O1 2.082122 1_455
Li1 O3 2.152886 1_565
Li1 O7 2.199738 1_565
Li1 O7 2.200174 1_465
Li2 O8 2.130160 1_455
Li2 O6 2.132824 1_555
Li2 O8 2.145983 1_555
Li2 O4 2.175724 1_555
Li2 O2 2.199659 1_555
Li2 O2 2.203982 1_455
Li3 O9 2.019789 1_555
Li3 O9 2.035804 1_655
Li3 O5 2.056454 1_655
Li3 O3 2.125362 1_655
Li3 O3 2.152436 1_555
Li3 O7 2.166830 1_555
Li4 O4 2.019789 1_555
Li4 O4 2.035804 1_455
Li4 O8 2.056454 1_455
Li4 O10 2.125362 1_455
Li4 O10 2.152436 1_555
Li4 O0 2.166830 1_555
Li5 O5 2.130160 1_655
Li5 O1 2.132824 1_555
Li5 O5 2.145983 1_555
Li5 O9 2.175724 1_555
Li5 O11 2.199659 1_555
Li5 O11 2.203982 1_655
Li6 O2 2.077259 1_454
Li6 O11 2.077259 1_555
Li6 O9 2.085428 1_555
Li6 O4 2.085428 1_454
Li6 O9 2.095984 1_455
Li6 O4 2.095984 1_554
Co0 O4 1.791896 1_555
Co0 O11 1.875846 1_656
Co0 O11 1.948902 1_556
Co0 O0 1.950047 1_555
Co0 O0 1.961205 1_655
Co0 O7 2.001736 1_566
Co1 O9 1.791896 1_555
Co1 O2 1.875846 1_454
Co1 O2 1.948902 1_554
Co1 O7 1.950047 1_555
Co1 O7 1.961205 1_455
Co1 O0 2.001736 1_544
Co2 O1 2.012108 1_455
Co2 O10 2.016692 1_555
Co2 O5 2.019611 1_555
Co2 O10 2.035249 1_455
Co2 O1 2.035753 1_555
Co2 O6 2.037132 1_565
Co3 O6 2.012108 1_655
Co3 O3 2.016692 1_555
Co3 O8 2.019611 1_555
Co3 O3 2.035249 1_655
Co3 O6 2.035753 1_555
Co3 O1 2.037132 1_545
Co4 O10 1.934920 1_555
Co4 O3 1.934920 1_555
Co4 O8 1.990375 1_555
Co4 O5 1.990375 1_555
Co4 O5 2.009088 1_655
Co4 O8 2.009088 1_455
