# generated using pymatgen
data_DyGeRu
_symmetry_space_group_name_H-M   'P 1'
_cell_length_a   4.41409516
_cell_length_b   7.02618810
_cell_length_c   7.16356051
_cell_angle_alpha   90.00000000
_cell_angle_beta   90.00000000
_cell_angle_gamma   90.00000000
_symmetry_Int_Tables_number   1
_chemical_formula_structural   DyGeRu
_chemical_formula_sum   'Dy4 Ge4 Ru4'
_cell_volume   222.17254885
_cell_formula_units_Z   4
loop_
 _symmetry_equiv_pos_site_id
 _symmetry_equiv_pos_as_xyz
  1  'x, y, z'
loop_
 _atom_site_type_symbol
 _atom_site_label
 _atom_site_symmetry_multiplicity
 _atom_site_fract_x
 _atom_site_fract_y
 _atom_site_fract_z
 _atom_site_occupancy
  Dy  Dy0  1  0.25000000  0.98401775  0.80816614  1
  Dy  Dy1  1  0.75000000  0.01598842  0.19183316  1
  Dy  Dy2  1  0.25000000  0.48401775  0.69183386  1
  Dy  Dy3  1  0.75000000  0.51598842  0.30816684  1
  Ge  Ge0  1  0.25000000  0.29840154  0.10639001  1
  Ge  Ge1  1  0.75000000  0.70159324  0.89362100  1
  Ge  Ge2  1  0.25000000  0.79840154  0.39360999  1
  Ge  Ge3  1  0.75000000  0.20159324  0.60637900  1
  Ru  Ru0  1  0.75000000  0.84645296  0.56450859  1
  Ru  Ru1  1  0.25000000  0.15354608  0.43549826  1
  Ru  Ru2  1  0.75000000  0.34645296  0.93549141  1
  Ru  Ru3  1  0.25000000  0.65354608  0.06450174  1
loop_
_geom_bond_atom_site_label_1
_geom_bond_atom_site_label_2
_geom_bond_distance
_geom_bond_site_symmetry_2
Dy0 Ru1 2.923308 1_565
Dy0 Ru3 2.960302 1_556
Dy0 Ru0 2.975215 1_455
Dy0 Ru0 2.975215 1_555
Dy0 Ge1 3.030432 1_455
Dy0 Ge1 3.030432 1_555
Dy0 Ge3 3.049193 1_565
Dy0 Ge3 3.049193 1_465
Dy0 Ge0 3.072994 1_566
Dy0 Ge2 3.243451 1_555
Dy1 Ru0 2.923378 1_545
Dy1 Ru2 2.960290 1_554
Dy1 Ru1 2.975231 1_655
Dy1 Ru1 2.975231 1_555
Dy1 Ge0 3.030362 1_655
Dy1 Ge0 3.030362 1_555
Dy1 Ge2 3.049198 1_645
Dy1 Ge2 3.049198 1_545
Dy1 Ge1 3.072994 1_544
Dy1 Ge3 3.243352 1_555
Dy2 Ru3 2.923308 1_556
Dy2 Ru1 2.960302 1_555
Dy2 Ru2 2.975215 1_455
Dy2 Ru2 2.975215 1_555
Dy2 Ge3 3.030432 1_455
Dy2 Ge3 3.030432 1_555
Dy2 Ge1 3.049193 1_455
Dy2 Ge1 3.049193 1_555
Dy2 Ge2 3.072994 1_555
Dy2 Ge0 3.243451 1_556
Dy3 Ru2 2.923378 1_554
Dy3 Ru0 2.960290 1_555
Dy3 Ru3 2.975231 1_555
Dy3 Ru3 2.975231 1_655
Dy3 Ge2 3.030362 1_555
Dy3 Ge2 3.030362 1_655
Dy3 Ge0 3.049198 1_655
Dy3 Ge0 3.049198 1_555
Dy3 Ge3 3.072994 1_555
Dy3 Ge1 3.243352 1_554
Ge0 Ru3 2.513290 1_555
Ge0 Ru2 2.546334 1_554
Ge0 Ru2 2.546334 1_454
Ge0 Ru1 2.567897 1_555
Ge1 Ru2 2.513245 1_555
Ge1 Ru3 2.546268 1_556
Ge1 Ru3 2.546268 1_656
Ge1 Ru0 2.567936 1_555
Ge2 Ru1 2.513290 1_565
Ge2 Ru0 2.546334 1_455
Ge2 Ru0 2.546334 1_555
Ge2 Ru3 2.567897 1_555
Ge3 Ru0 2.513245 1_545
Ge3 Ru1 2.546268 1_555
Ge3 Ru1 2.546268 1_655
Ge3 Ru2 2.567936 1_555
