# generated using pymatgen
data_BaNaLaWO6
_symmetry_space_group_name_H-M   'P 1'
_cell_length_a   8.52798113
_cell_length_b   8.56786670
_cell_length_c   8.53899399
_cell_angle_alpha   90.00000000
_cell_angle_beta   90.00000000
_cell_angle_gamma   90.00000000
_symmetry_Int_Tables_number   1
_chemical_formula_structural   BaNaLaWO6
_chemical_formula_sum   'Ba4 Na4 La4 W4 O24'
_cell_volume   623.91530559
_cell_formula_units_Z   4
loop_
 _symmetry_equiv_pos_site_id
 _symmetry_equiv_pos_as_xyz
  1  'x, y, z'
loop_
 _atom_site_type_symbol
 _atom_site_label
 _atom_site_symmetry_multiplicity
 _atom_site_fract_x
 _atom_site_fract_y
 _atom_site_fract_z
 _atom_site_occupancy
  Ba  Ba0  1  0.00000000  0.00000000  -0.00000000  1
  Ba  Ba1  1  0.50000000  0.50000000  0.50000000  1
  Ba  Ba2  1  0.50000000  0.00000000  0.50000000  1
  Ba  Ba3  1  0.00000000  0.50000000  -0.00000000  1
  Na  Na0  1  0.00000000  0.50000000  0.50000000  1
  Na  Na1  1  0.50000000  0.50000000  -0.00000000  1
  Na  Na2  1  0.50000000  0.00000000  -0.00000000  1
  Na  Na3  1  0.00000000  0.00000000  0.50000000  1
  La  La0  1  0.75000000  0.75000000  0.75000000  1
  La  La1  1  0.25000000  0.25000000  0.75000000  1
  La  La2  1  0.25000000  0.75000000  0.25000000  1
  La  La3  1  0.75000000  0.25000000  0.25000000  1
  W  W0  1  0.25000000  0.25000000  0.25000000  1
  W  W1  1  0.75000000  0.75000000  0.25000000  1
  W  W2  1  0.75000000  0.25000000  0.75000000  1
  W  W3  1  0.25000000  0.75000000  0.75000000  1
  O  O0  1  0.02648665  0.20494851  0.27521096  1
  O  O1  1  0.97351335  0.79505149  0.27521096  1
  O  O2  1  0.97351335  0.20494851  0.72478904  1
  O  O3  1  0.02648665  0.79505149  0.72478904  1
  O  O4  1  0.29041266  0.02666023  0.21925704  1
  O  O5  1  0.29041266  0.97333977  0.78074296  1
  O  O6  1  0.70958734  0.97333977  0.21925704  1
  O  O7  1  0.70958734  0.02666023  0.78074296  1
  O  O8  1  0.21335327  0.27233350  0.02446587  1
  O  O9  1  0.78664673  0.27233350  0.97553413  1
  O  O10  1  0.21335327  0.72766650  0.97553413  1
  O  O11  1  0.78664673  0.72766650  0.02446587  1
  O  O12  1  0.47351335  0.29505149  0.22478904  1
  O  O13  1  0.52648665  0.70494851  0.22478904  1
  O  O14  1  0.52648665  0.29505149  0.77521096  1
  O  O15  1  0.47351335  0.70494851  0.77521096  1
  O  O16  1  0.20958734  0.47333977  0.28074296  1
  O  O17  1  0.20958734  0.52666023  0.71925704  1
  O  O18  1  0.79041266  0.52666023  0.28074296  1
  O  O19  1  0.79041266  0.47333977  0.71925704  1
  O  O20  1  0.28664673  0.22766650  0.47553413  1
  O  O21  1  0.71335327  0.22766650  0.52446587  1
  O  O22  1  0.28664673  0.77233350  0.52446587  1
  O  O23  1  0.71335327  0.77233350  0.47553413  1
loop_
_geom_bond_atom_site_label_1
_geom_bond_atom_site_label_2
_geom_bond_distance
_geom_bond_site_symmetry_2
Ba0 O2 2.942290 1_454
Ba0 O0 2.942290 1_555
Ba0 O1 2.942290 1_445
Ba0 O3 2.942290 1_544
Ba0 O9 2.966226 1_454
Ba0 O11 2.966226 1_445
Ba0 O8 2.966226 1_555
Ba0 O10 2.966226 1_544
Ba0 O7 3.113062 1_454
Ba0 O4 3.113062 1_555
Ba0 O6 3.113062 1_445
Ba0 O5 3.113062 1_544
Ba1 O14 2.942290 1_555
Ba1 O12 2.942290 1_555
Ba1 O13 2.942290 1_555
Ba1 O15 2.942290 1_555
Ba1 O22 2.966226 1_555
Ba1 O20 2.966226 1_555
Ba1 O23 2.966226 1_555
Ba1 O21 2.966226 1_555
Ba1 O17 3.113062 1_555
Ba1 O18 3.113062 1_555
Ba1 O16 3.113062 1_555
Ba1 O19 3.113062 1_555
Ba2 O20 2.675636 1_555
Ba2 O22 2.675636 1_545
Ba2 O21 2.675636 1_555
Ba2 O23 2.675636 1_545
Ba2 O7 2.998948 1_555
Ba2 O5 2.998948 1_545
Ba2 O4 2.998948 1_555
Ba2 O6 2.998948 1_545
Ba3 O11 2.675636 1_455
Ba3 O9 2.675636 1_454
Ba3 O8 2.675636 1_555
Ba3 O10 2.675636 1_554
Ba3 O19 2.998948 1_454
Ba3 O16 2.998948 1_555
Ba3 O17 2.998948 1_554
Ba3 O18 2.998948 1_455
Na0 O18 2.598477 1_455
Na0 O19 2.598477 1_455
Na0 O16 2.598477 1_555
Na0 O17 2.598477 1_555
Na1 O12 2.611289 1_555
Na1 O14 2.611289 1_554
Na1 O15 2.611289 1_554
Na1 O13 2.611289 1_555
Na2 O5 2.598477 1_544
Na2 O6 2.598477 1_545
Na2 O7 2.598477 1_554
Na2 O4 2.598477 1_555
Na3 O1 2.611289 1_445
Na3 O0 2.611289 1_555
Na3 O2 2.611289 1_455
Na3 O3 2.611289 1_545
La0 O23 2.372138 1_555
La0 O11 2.372138 1_556
La0 O15 2.398937 1_555
La0 O3 2.398937 1_655
La0 O19 2.409653 1_555
La0 O7 2.409653 1_565
La1 O20 2.372138 1_555
La1 O8 2.372138 1_556
La1 O2 2.398937 1_455
La1 O14 2.398937 1_555
La1 O5 2.409653 1_545
La1 O17 2.409653 1_555
La2 O22 2.372138 1_555
La2 O10 2.372138 1_554
La2 O1 2.398937 1_455
La2 O13 2.398937 1_555
La2 O16 2.409653 1_555
La2 O4 2.409653 1_565
La3 O21 2.372138 1_555
La3 O9 2.372138 1_554
La3 O12 2.398937 1_555
La3 O0 2.398937 1_655
La3 O6 2.409653 1_545
La3 O18 2.409653 1_555
O0 W0 1.956686 1_555
O1 W1 1.956686 1_555
O2 W2 1.956686 1_555
O3 W3 1.956686 1_555
O4 W0 1.961975 1_555
O5 W3 1.961975 1_555
O6 W1 1.961975 1_555
O7 W2 1.961975 1_555
O8 W0 1.960389 1_555
O9 W2 1.960389 1_555
O10 W3 1.960389 1_555
O11 W1 1.960389 1_555
O12 W0 1.956686 1_555
O13 W1 1.956686 1_555
O14 W2 1.956686 1_555
O15 W3 1.956686 1_555
O16 W0 1.961975 1_555
O17 W3 1.961975 1_555
O18 W1 1.961975 1_555
O19 W2 1.961975 1_555
O20 W0 1.960389 1_555
O21 W2 1.960389 1_555
O22 W3 1.960389 1_555
O23 W1 1.960389 1_555
