# generated using pymatgen
data_GdH2ClO2
_symmetry_space_group_name_H-M   'P 1'
_cell_length_a   3.78451100
_cell_length_b   6.20782300
_cell_length_c   6.80450517
_cell_angle_alpha   68.50698184
_cell_angle_beta   90.00000000
_cell_angle_gamma   90.00000000
_symmetry_Int_Tables_number   1
_chemical_formula_structural   GdH2ClO2
_chemical_formula_sum   'Gd2 H4 Cl2 O4'
_cell_volume   148.74569006
_cell_formula_units_Z   2
loop_
 _symmetry_equiv_pos_site_id
 _symmetry_equiv_pos_as_xyz
  1  'x, y, z'
loop_
 _atom_site_type_symbol
 _atom_site_label
 _atom_site_symmetry_multiplicity
 _atom_site_fract_x
 _atom_site_fract_y
 _atom_site_fract_z
 _atom_site_occupancy
  Gd  Gd0  1  0.25000000  0.69647000  0.12644900  1
  Gd  Gd1  1  0.75000000  0.30353000  0.87355100  1
  H  H0  1  0.75000000  0.88528300  0.77947500  1
  H  H1  1  0.25000000  0.11471700  0.22052500  1
  H  H2  1  0.75000000  0.30693700  0.29979400  1
  H  H3  1  0.25000000  0.69306300  0.70020600  1
  Cl  Cl0  1  0.75000000  0.75347700  0.43632000  1
  Cl  Cl1  1  0.25000000  0.24652300  0.56368000  1
  O  O0  1  0.75000000  0.89933200  0.91808200  1
  O  O1  1  0.25000000  0.10066800  0.08191800  1
  O  O2  1  0.75000000  0.43249400  0.16123100  1
  O  O3  1  0.25000000  0.56750600  0.83876900  1
loop_
_geom_bond_atom_site_label_1
_geom_bond_atom_site_label_2
_geom_bond_distance
_geom_bond_site_symmetry_2
Gd0 O3 2.370907 1_554
Gd0 O1 2.414686 1_565
Gd0 O0 2.422481 1_454
Gd0 O0 2.422481 1_554
Gd0 O2 2.457201 1_555
Gd0 O2 2.457201 1_455
Gd1 O2 2.370907 1_556
Gd1 O0 2.414686 1_545
Gd1 O1 2.422481 1_556
Gd1 O1 2.422481 1_656
Gd1 O3 2.457201 1_655
Gd1 O3 2.457201 1_555
H0 O0 0.978477 1_555
H1 O1 0.978477 1_555
H2 O2 0.978764 1_555
H3 O3 0.978764 1_555
Cl0 Gd0 2.949323 1_555
Cl0 Gd0 2.949323 1_655
Cl0 Gd1 3.250217 1_555
Cl1 Gd1 2.949323 1_555
Cl1 Gd1 2.949323 1_455
Cl1 Gd0 3.250217 1_555
