# generated using pymatgen
data_NiPb2WO6
_symmetry_space_group_name_H-M   'P 1'
_cell_length_a   5.70544026
_cell_length_b   5.70541410
_cell_length_c   9.88212017
_cell_angle_alpha   73.22121951
_cell_angle_beta   90.00001230
_cell_angle_gamma   119.99985651
_symmetry_Int_Tables_number   1
_chemical_formula_structural   NiPb2WO6
_chemical_formula_sum   'Ni2 Pb4 W2 O12'
_cell_volume   262.65227509
_cell_formula_units_Z   2
loop_
 _symmetry_equiv_pos_site_id
 _symmetry_equiv_pos_as_xyz
  1  'x, y, z'
loop_
 _atom_site_type_symbol
 _atom_site_label
 _atom_site_symmetry_multiplicity
 _atom_site_fract_x
 _atom_site_fract_y
 _atom_site_fract_z
 _atom_site_occupancy
  Ni  Ni0  1  0.74999500  0.49999600  0.74999900  1
  Ni  Ni1  1  0.25000200  0.50000400  0.24999800  1
  Pb  Pb0  1  0.87501100  0.75000800  0.37499400  1
  Pb  Pb1  1  0.37500500  0.74999900  0.87499400  1
  Pb  Pb2  1  0.62500600  0.25000200  0.12501500  1
  Pb  Pb3  1  0.12499100  0.25000500  0.62499300  1
  W  W0  1  0.99999500  0.00000100  0.99999400  1
  W  W1  1  0.49999500  0.99999200  0.49999800  1
  O  O0  1  0.63670400  0.75779700  0.12110000  1
  O  O1  1  0.13670700  0.75779900  0.62110200  1
  O  O2  1  0.86328800  0.24219500  0.37890200  1
  O  O3  1  0.36328500  0.24218500  0.87890400  1
  O  O4  1  0.37890900  0.24220000  0.37889700  1
  O  O5  1  0.87889800  0.24218700  0.87890900  1
  O  O6  1  0.12110000  0.75781000  0.12109800  1
  O  O7  1  0.62109500  0.75781000  0.62109800  1
  O  O8  1  0.37890000  0.75780800  0.37889900  1
  O  O9  1  0.87890700  0.75781100  0.87890500  1
  O  O10  1  0.12110200  0.24219500  0.12110100  1
  O  O11  1  0.62110500  0.24219700  0.62110000  1
loop_
_geom_bond_atom_site_label_1
_geom_bond_atom_site_label_2
_geom_bond_distance
_geom_bond_site_symmetry_2
Ni0 O11 2.080101 1_555
Ni0 O1 2.080152 1_655
Ni0 O7 2.080167 1_555
Ni0 O3 2.080176 1_555
Ni0 O5 2.080195 1_555
Ni0 O9 2.080222 1_555
Ni1 O0 2.080116 1_555
Ni1 O10 2.080125 1_555
Ni1 O8 2.080137 1_555
Ni1 O6 2.080138 1_555
Ni1 O4 2.080147 1_555
Ni1 O2 2.080189 1_455
O0 W0 1.954232 1_564
O0 Pb2 2.853337 1_555
O0 Pb0 2.853383 1_555
O0 Pb1 2.853464 1_554
O0 Pb2 2.853468 1_565
O1 W1 1.954212 1_555
O1 Pb1 2.853341 1_555
O1 Pb3 2.853347 1_555
O1 Pb3 2.853456 1_565
O1 Pb0 2.853472 1_455
O2 W1 1.954199 1_545
O2 Pb2 2.853254 1_555
O2 Pb3 2.853348 1_655
O2 Pb0 2.853390 1_555
O2 Pb0 2.853418 1_545
O3 W0 1.954163 1_455
O3 Pb1 2.853398 1_555
O3 Pb1 2.853410 1_545
O3 Pb3 2.853494 1_555
O3 Pb2 2.853571 1_556
O4 W1 1.954215 1_545
O4 Pb2 2.853247 1_555
O4 Pb0 2.853395 1_445
O4 Pb0 2.853434 1_555
O4 Pb3 2.853450 1_555
O5 W0 1.954106 1_555
O5 Pb1 2.853405 1_545
O5 Pb1 2.853427 1_655
O5 Pb3 2.853486 1_655
O5 Pb2 2.853488 1_556
O6 W0 1.954235 1_464
O6 Pb0 2.853346 1_455
O6 Pb2 2.853374 1_455
O6 Pb2 2.853460 1_565
O6 Pb1 2.853497 1_554
O7 W1 1.954162 1_555
O7 Pb1 2.853324 1_555
O7 Pb3 2.853374 1_665
O7 Pb3 2.853453 1_555
O7 Pb0 2.853503 1_555
O8 W1 1.954168 1_555
O8 Pb2 2.853297 1_565
O8 Pb0 2.853353 1_455
O8 Pb3 2.853382 1_555
O8 Pb0 2.853478 1_555
O9 W0 1.954112 1_565
O9 Pb1 2.853395 1_555
O9 Pb1 2.853440 1_655
O9 Pb3 2.853461 1_665
O9 Pb2 2.853489 1_556
O10 W0 1.954273 1_454
O10 Pb0 2.853330 1_445
O10 Pb2 2.853414 1_455
O10 Pb2 2.853420 1_555
O10 Pb1 2.853457 1_554
O11 W1 1.954277 1_545
O11 Pb3 2.853311 1_655
O11 Pb1 2.853366 1_545
O11 Pb0 2.853472 1_555
O11 Pb3 2.853516 1_555
