# generated using pymatgen
data_Ho2AlFe3
_symmetry_space_group_name_H-M   'P 1'
_cell_length_a   5.24536547
_cell_length_b   5.27540897
_cell_length_c   5.24272244
_cell_angle_alpha   89.99004145
_cell_angle_beta   59.99893972
_cell_angle_gamma   119.79974421
_symmetry_Int_Tables_number   1
_chemical_formula_structural   Ho2AlFe3
_chemical_formula_sum   'Ho2 Al1 Fe3'
_cell_volume   102.88154313
_cell_formula_units_Z   1
loop_
 _symmetry_equiv_pos_site_id
 _symmetry_equiv_pos_as_xyz
  1  'x, y, z'
loop_
 _atom_site_type_symbol
 _atom_site_label
 _atom_site_symmetry_multiplicity
 _atom_site_fract_x
 _atom_site_fract_y
 _atom_site_fract_z
 _atom_site_occupancy
  Ho  Ho0  1  0.74447413  0.36681777  0.37770937  1
  Ho  Ho1  1  0.25552587  0.63318223  0.62229063  1
  Al  Al0  1  0.50000000  0.50000000  0.00000000  1
  Fe  Fe0  1  0.50000000  -0.00000000  0.00000000  1
  Fe  Fe1  1  -0.00000000  -0.00000000  0.50000000  1
  Fe  Fe2  1  -0.00000000  -0.00000000  0.00000000  1
loop_
_geom_bond_atom_site_label_1
_geom_bond_atom_site_label_2
_geom_bond_distance
_geom_bond_site_symmetry_2
Ho0 Ho1 3.169270 1_545
Ho0 Ho1 3.237709 1_654
Ho0 Ho1 3.238891 1_555
Ho0 Ho1 3.240176 1_655
Al0 Fe1 2.637029 1_555
Al0 Fe1 2.637029 1_664
Al0 Fe0 2.637704 1_555
Al0 Fe0 2.637704 1_565
Al0 Fe2 2.638183 1_555
Al0 Fe2 2.638183 1_665
Al0 Ho1 3.081206 1_554
Al0 Ho0 3.081206 1_555
Al0 Ho0 3.081306 1_554
Al0 Ho1 3.081306 1_555
Al0 Ho1 3.082934 1_654
Al0 Ho0 3.082934 1_455
Fe0 Fe1 2.621980 1_555
Fe0 Fe1 2.621980 1_654
Fe0 Fe2 2.622683 1_555
Fe0 Fe2 2.622683 1_655
Fe0 Ho0 3.062762 1_554
Fe0 Ho1 3.062762 1_545
Fe0 Ho1 3.063445 1_544
Fe0 Ho0 3.063445 1_555
Fe0 Ho0 3.126772 1_445
Fe0 Ho1 3.126772 1_654
Fe1 Fe2 2.621361 1_555
Fe1 Fe2 2.621361 1_556
Fe1 Ho1 3.064162 1_545
Fe1 Ho0 3.064162 1_455
Fe1 Ho1 3.064307 1_445
Fe1 Ho0 3.064307 1_555
Fe1 Ho0 3.126540 1_445
Fe1 Ho1 3.126540 1_555
Fe2 Ho1 3.063364 1_445
Fe2 Ho0 3.063364 1_554
Fe2 Ho0 3.063903 1_455
Fe2 Ho1 3.063903 1_544
Fe2 Ho1 3.125516 1_554
Fe2 Ho0 3.125516 1_445
