# generated using pymatgen
data_Sr2PbN2
_symmetry_space_group_name_H-M   'P 1'
_cell_length_a   6.58960167
_cell_length_b   11.95861543
_cell_length_c   12.98631300
_cell_angle_alpha   90.00000000
_cell_angle_beta   90.00000000
_cell_angle_gamma   24.85350853
_symmetry_Int_Tables_number   1
_chemical_formula_structural   Sr2PbN2
_chemical_formula_sum   'Sr8 Pb4 N8'
_cell_volume   430.11538834
_cell_formula_units_Z   4
loop_
 _symmetry_equiv_pos_site_id
 _symmetry_equiv_pos_as_xyz
  1  'x, y, z'
loop_
 _atom_site_type_symbol
 _atom_site_label
 _atom_site_symmetry_multiplicity
 _atom_site_fract_x
 _atom_site_fract_y
 _atom_site_fract_z
 _atom_site_occupancy
  Sr  Sr0  1  0.00000000  0.46049500  0.85968700  1
  Sr  Sr1  1  0.00000000  0.53950500  0.14031300  1
  Sr  Sr2  1  0.00000000  0.03950500  0.35968700  1
  Sr  Sr3  1  0.00000000  0.96049500  0.64031300  1
  Sr  Sr4  1  0.00000000  0.14176400  0.95693500  1
  Sr  Sr5  1  0.00000000  0.85823600  0.04306500  1
  Sr  Sr6  1  0.00000000  0.35823600  0.45693500  1
  Sr  Sr7  1  0.00000000  0.64176400  0.54306500  1
  Pb  Pb0  1  0.00000000  0.25327300  0.68711600  1
  Pb  Pb1  1  0.00000000  0.74672700  0.31288400  1
  Pb  Pb2  1  0.00000000  0.24672700  0.18711600  1
  Pb  Pb3  1  0.00000000  0.75327300  0.81288400  1
  N  N0  1  0.00000000  0.43454600  0.63968800  1
  N  N1  1  0.00000000  0.56545400  0.36031200  1
  N  N2  1  0.00000000  0.06545400  0.13968800  1
  N  N3  1  0.00000000  0.93454600  0.86031200  1
  N  N4  1  0.00000000  0.15288000  0.54421000  1
  N  N5  1  0.00000000  0.84712000  0.45579000  1
  N  N6  1  0.00000000  0.34712000  0.04421000  1
  N  N7  1  0.00000000  0.65288000  0.95579000  1
loop_
_geom_bond_atom_site_label_1
_geom_bond_atom_site_label_2
_geom_bond_distance
_geom_bond_site_symmetry_2
N0 Pb0 2.253574 1_555
N0 Sr6 2.542688 1_555
N0 Sr7 2.777616 1_555
N0 Sr3 2.786949 1_455
N0 Sr3 2.786949 1_645
N0 Sr0 2.873779 1_555
N1 Pb1 2.253574 1_555
N1 Sr7 2.542688 1_555
N1 Sr6 2.777616 1_555
N1 Sr2 2.786949 1_655
N1 Sr2 2.786949 1_465
N1 Sr1 2.873779 1_555
N2 Pb2 2.253574 1_555
N2 Sr4 2.542688 1_554
N2 Sr5 2.777616 1_545
N2 Sr1 2.786949 1_645
N2 Sr1 2.786949 1_455
N2 Sr2 2.873779 1_555
N3 Pb3 2.253574 1_555
N3 Sr5 2.542688 1_556
N3 Sr4 2.777616 1_565
N3 Sr0 2.786949 1_465
N3 Sr0 2.786949 1_655
N3 Sr3 2.873779 1_555
N4 Pb0 2.210299 1_555
N4 Sr3 2.617363 1_545
N4 Sr6 2.704695 1_555
N4 Sr2 2.753242 1_555
N4 Sr7 2.772836 1_645
N4 Sr7 2.772836 1_455
N5 Pb1 2.210299 1_555
N5 Sr2 2.617363 1_565
N5 Sr7 2.704695 1_555
N5 Sr3 2.753242 1_555
N5 Sr6 2.772836 1_465
N5 Sr6 2.772836 1_655
N6 Pb2 2.210299 1_555
N6 Sr1 2.617363 1_555
N6 Sr4 2.704695 1_554
N6 Sr0 2.753242 1_554
N6 Sr5 2.772836 1_455
N6 Sr5 2.772836 1_645
N7 Pb3 2.210299 1_555
N7 Sr0 2.617363 1_555
N7 Sr5 2.704695 1_556
N7 Sr1 2.753242 1_556
N7 Sr4 2.772836 1_655
N7 Sr4 2.772836 1_465
