# generated using pymatgen
data_YMg
_symmetry_space_group_name_H-M   'P 1'
_cell_length_a   13.37626708
_cell_length_b   13.37626708
_cell_length_c   15.68664859
_cell_angle_alpha   75.48059739
_cell_angle_beta   75.48059739
_cell_angle_gamma   30.32005397
_symmetry_Int_Tables_number   1
_chemical_formula_structural   YMg
_chemical_formula_sum   'Y24 Mg24'
_cell_volume   1368.28550693
_cell_formula_units_Z   24
loop_
 _symmetry_equiv_pos_site_id
 _symmetry_equiv_pos_as_xyz
  1  'x, y, z'
loop_
 _atom_site_type_symbol
 _atom_site_label
 _atom_site_symmetry_multiplicity
 _atom_site_fract_x
 _atom_site_fract_y
 _atom_site_fract_z
 _atom_site_occupancy
  Y  Y0_0  1  0.49896650  0.49896650  0.00449600  1
  Y  Y0_1  1  0.49896650  0.49896650  0.50449600  1
  Y  Y0_2  1  0.49896650  0.99896650  0.00449600  1
  Y  Y0_3  1  0.49896650  0.99896650  0.50449600  1
  Y  Y0_4  1  0.99896650  0.49896650  0.00449600  1
  Y  Y0_5  1  0.99896650  0.49896650  0.50449600  1
  Y  Y0_6  1  0.99896650  0.99896650  0.00449600  1
  Y  Y0_7  1  0.99896650  0.99896650  0.50449600  1
  Y  Y1_0  1  0.33390700  0.33390700  0.32909900  1
  Y  Y1_1  1  0.33390700  0.33390700  0.82909900  1
  Y  Y1_2  1  0.33390700  0.83390700  0.32909900  1
  Y  Y1_3  1  0.33390700  0.83390700  0.82909900  1
  Y  Y1_4  1  0.83390700  0.33390700  0.32909900  1
  Y  Y1_5  1  0.83390700  0.33390700  0.82909900  1
  Y  Y1_6  1  0.83390700  0.83390700  0.32909900  1
  Y  Y1_7  1  0.83390700  0.83390700  0.82909900  1
  Y  Y2_0  1  0.13959650  0.13959650  0.47246400  1
  Y  Y2_1  1  0.13959650  0.13959650  0.97246400  1
  Y  Y2_2  1  0.13959650  0.63959650  0.47246400  1
  Y  Y2_3  1  0.13959650  0.63959650  0.97246400  1
  Y  Y2_4  1  0.63959650  0.13959650  0.47246400  1
  Y  Y2_5  1  0.63959650  0.13959650  0.97246400  1
  Y  Y2_6  1  0.63959650  0.63959650  0.47246400  1
  Y  Y2_7  1  0.63959650  0.63959650  0.97246400  1
  Mg  Mg0_0  1  0.30489300  0.30489300  0.14037800  1
  Mg  Mg0_1  1  0.30489300  0.30489300  0.64037800  1
  Mg  Mg0_2  1  0.30489300  0.80489300  0.14037800  1
  Mg  Mg0_3  1  0.30489300  0.80489300  0.64037800  1
  Mg  Mg0_4  1  0.80489300  0.30489300  0.14037800  1
  Mg  Mg0_5  1  0.80489300  0.30489300  0.64037800  1
  Mg  Mg0_6  1  0.80489300  0.80489300  0.14037800  1
  Mg  Mg0_7  1  0.80489300  0.80489300  0.64037800  1
  Mg  Mg1_0  1  0.16810550  0.16810550  0.16778650  1
  Mg  Mg1_1  1  0.16810550  0.16810550  0.66778650  1
  Mg  Mg1_2  1  0.16810550  0.66810550  0.16778650  1
  Mg  Mg1_3  1  0.16810550  0.66810550  0.66778650  1
  Mg  Mg1_4  1  0.66810550  0.16810550  0.16778650  1
  Mg  Mg1_5  1  0.66810550  0.16810550  0.66778650  1
  Mg  Mg1_6  1  0.66810550  0.66810550  0.16778650  1
  Mg  Mg1_7  1  0.66810550  0.66810550  0.66778650  1
  Mg  Mg2_0  1  0.47119850  0.47119850  0.30244300  1
  Mg  Mg2_1  1  0.47119850  0.47119850  0.80244300  1
  Mg  Mg2_2  1  0.47119850  0.97119850  0.30244300  1
  Mg  Mg2_3  1  0.47119850  0.97119850  0.80244300  1
  Mg  Mg2_4  1  0.97119850  0.47119850  0.30244300  1
  Mg  Mg2_5  1  0.97119850  0.47119850  0.80244300  1
  Mg  Mg2_6  1  0.97119850  0.97119850  0.30244300  1
  Mg  Mg2_7  1  0.97119850  0.97119850  0.80244300  1
loop_
_geom_bond_atom_site_label_1
_geom_bond_atom_site_label_2
_geom_bond_distance
_geom_bond_site_symmetry_2
Y0_0 Y2_5 3.467620 1_554
Y0_0 Y2_3 3.467620 1_554
Y0_0 Y0_6 3.498106 1_545
Y0_0 Y0_6 3.498106 1_455
Y0_0 Y1_5 3.507838 1_554
Y0_0 Y1_3 3.507838 1_554
Y0_0 Y2_7 3.534232 1_554
Y0_1 Y2_4 3.467620 1_555
Y0_1 Y2_2 3.467620 1_555
Y0_1 Y0_7 3.498106 1_545
Y0_1 Y0_7 3.498106 1_455
Y0_1 Y1_4 3.507838 1_555
Y0_1 Y1_2 3.507838 1_555
Y0_1 Y2_6 3.534232 1_555
Y0_2 Y2_1 3.467620 1_564
Y0_2 Y2_7 3.467620 1_554
Y0_2 Y0_4 3.498106 1_555
Y0_2 Y0_4 3.498106 1_465
Y0_2 Y1_1 3.507838 1_564
Y0_2 Y1_7 3.507838 1_554
Y0_2 Y2_5 3.534232 1_564
Y0_3 Y2_0 3.467620 1_565
Y0_3 Y2_6 3.467620 1_555
Y0_3 Y0_5 3.498106 1_555
Y0_3 Y0_5 3.498106 1_465
Y0_3 Y1_0 3.507838 1_565
Y0_3 Y1_6 3.507838 1_555
Y0_3 Y2_4 3.534232 1_565
Y0_4 Y2_1 3.467620 1_654
Y0_4 Y2_7 3.467620 1_554
Y0_4 Y1_1 3.507838 1_654
Y0_4 Y1_7 3.507838 1_554
Y0_4 Y2_3 3.534232 1_654
Y0_5 Y2_0 3.467620 1_655
Y0_5 Y2_6 3.467620 1_555
Y0_5 Y1_0 3.507838 1_655
Y0_5 Y1_6 3.507838 1_555
Y0_5 Y2_2 3.534232 1_655
Y0_6 Y2_3 3.467620 1_654
Y0_6 Y2_5 3.467620 1_564
Y0_6 Y1_3 3.507838 1_654
Y0_6 Y1_5 3.507838 1_564
Y0_6 Y2_1 3.534232 1_664
Y0_7 Y2_2 3.467620 1_655
Y0_7 Y2_4 3.467620 1_565
Y0_7 Y1_4 3.507838 1_565
Y0_7 Y1_2 3.507838 1_655
Y0_7 Y2_0 3.534232 1_665
Y1_0 Y2_4 3.444506 1_555
Y1_0 Y2_2 3.444506 1_555
Y1_0 Y1_6 3.498106 1_545
Y1_0 Y1_6 3.498106 1_455
Y1_1 Y2_5 3.444506 1_555
Y1_1 Y2_3 3.444506 1_555
Y1_1 Y1_7 3.498106 1_455
Y1_1 Y1_7 3.498106 1_545
Y1_2 Y2_6 3.444506 1_555
Y1_2 Y2_0 3.444506 1_565
Y1_2 Y1_4 3.498106 1_555
Y1_2 Y1_4 3.498106 1_465
Y1_3 Y2_7 3.444506 1_555
Y1_3 Y2_1 3.444506 1_565
Y1_3 Y1_5 3.498106 1_555
Y1_3 Y1_5 3.498106 1_465
Y1_4 Y2_6 3.444506 1_555
Y1_4 Y2_0 3.444506 1_655
Y1_5 Y2_7 3.444506 1_555
Y1_5 Y2_1 3.444506 1_655
Y1_6 Y2_2 3.444506 1_655
Y1_6 Y2_4 3.444506 1_565
Y1_7 Y2_5 3.444506 1_565
Y1_7 Y2_3 3.444506 1_655
Y2_0 Y2_6 3.498106 1_545
Y2_0 Y2_6 3.498106 1_455
Y2_1 Y2_7 3.498106 1_545
Y2_1 Y2_7 3.498106 1_455
Y2_2 Y2_4 3.498106 1_465
Y2_2 Y2_4 3.498106 1_555
Y2_3 Y2_5 3.498106 1_555
Y2_3 Y2_5 3.498106 1_465
Mg0_0 Y1_0 3.236886 1_555
Mg0_0 Y0_2 3.359636 1_545
Mg0_0 Y0_4 3.359636 1_455
Mg0_0 Mg2_4 3.367273 1_455
Mg0_0 Mg2_2 3.367273 1_545
Mg0_0 Y2_5 3.433378 1_554
Mg0_0 Y2_3 3.433378 1_554
Mg0_0 Mg1_0 3.445491 1_555
Mg0_0 Mg0_6 3.498106 1_455
Mg0_0 Mg0_6 3.498106 1_545
Mg0_0 Mg1_4 3.527432 1_555
Mg0_0 Mg1_2 3.527432 1_555
Mg0_1 Y1_1 3.236886 1_555
Mg0_1 Y0_3 3.359636 1_545
Mg0_1 Y0_5 3.359636 1_455
Mg0_1 Mg2_5 3.367273 1_455
Mg0_1 Mg2_3 3.367273 1_545
Mg0_1 Y2_2 3.433378 1_555
Mg0_1 Y2_4 3.433378 1_555
Mg0_1 Mg1_1 3.445491 1_555
Mg0_1 Mg0_7 3.498106 1_545
Mg0_1 Mg0_7 3.498106 1_455
Mg0_1 Mg1_5 3.527432 1_555
Mg0_1 Mg1_3 3.527432 1_555
Mg0_2 Y1_2 3.236886 1_555
Mg0_2 Y0_6 3.359636 1_455
Mg0_2 Y0_0 3.359636 1_555
Mg0_2 Mg2_6 3.367273 1_455
Mg0_2 Mg2_0 3.367273 1_555
Mg0_2 Y2_7 3.433378 1_554
Mg0_2 Y2_1 3.433378 1_564
Mg0_2 Mg1_2 3.445491 1_555
Mg0_2 Mg0_4 3.498106 1_465
Mg0_2 Mg0_4 3.498106 1_555
Mg0_2 Mg1_6 3.527432 1_555
Mg0_2 Mg1_0 3.527432 1_565
Mg0_3 Y1_3 3.236886 1_555
Mg0_3 Y0_1 3.359636 1_555
Mg0_3 Y0_7 3.359636 1_455
Mg0_3 Mg2_1 3.367273 1_555
Mg0_3 Mg2_7 3.367273 1_455
Mg0_3 Y2_6 3.433378 1_555
Mg0_3 Y2_0 3.433378 1_565
Mg0_3 Mg1_3 3.445491 1_555
Mg0_3 Mg0_5 3.498106 1_555
Mg0_3 Mg0_5 3.498106 1_465
Mg0_3 Mg1_1 3.527432 1_565
Mg0_3 Mg1_7 3.527432 1_555
Mg0_4 Y1_4 3.236886 1_555
Mg0_4 Y0_6 3.359636 1_545
Mg0_4 Y0_0 3.359636 1_555
Mg0_4 Mg2_6 3.367273 1_545
Mg0_4 Mg2_0 3.367273 1_555
Mg0_4 Y2_7 3.433378 1_554
Mg0_4 Y2_1 3.433378 1_654
Mg0_4 Mg1_4 3.445491 1_555
Mg0_4 Mg1_6 3.527432 1_555
Mg0_4 Mg1_0 3.527432 1_655
Mg0_5 Y1_5 3.236886 1_555
Mg0_5 Y0_1 3.359636 1_555
Mg0_5 Y0_7 3.359636 1_545
Mg0_5 Mg2_7 3.367273 1_545
Mg0_5 Mg2_1 3.367273 1_555
Mg0_5 Y2_6 3.433378 1_555
Mg0_5 Y2_0 3.433378 1_655
Mg0_5 Mg1_5 3.445491 1_555
Mg0_5 Mg1_1 3.527432 1_655
Mg0_5 Mg1_7 3.527432 1_555
Mg0_6 Y1_6 3.236886 1_555
Mg0_6 Y0_4 3.359636 1_555
Mg0_6 Y0_2 3.359636 1_555
Mg0_6 Mg2_4 3.367273 1_555
Mg0_6 Mg2_2 3.367273 1_555
Mg0_6 Y2_3 3.433378 1_654
Mg0_6 Y2_5 3.433378 1_564
Mg0_6 Mg1_6 3.445491 1_555
Mg0_6 Mg1_2 3.527432 1_655
Mg0_6 Mg1_4 3.527432 1_565
Mg0_7 Y1_7 3.236886 1_555
Mg0_7 Y0_5 3.359636 1_555
Mg0_7 Y0_3 3.359636 1_555
Mg0_7 Mg2_5 3.367273 1_555
Mg0_7 Mg2_3 3.367273 1_555
Mg0_7 Y2_2 3.433378 1_655
Mg0_7 Y2_4 3.433378 1_565
Mg0_7 Mg1_7 3.445491 1_555
Mg0_7 Mg1_5 3.527432 1_565
Mg0_7 Mg1_3 3.527432 1_655
Mg1_0 Mg2_4 3.302257 1_455
Mg1_0 Mg2_2 3.302257 1_545
Mg1_0 Y2_1 3.331886 1_554
Mg1_0 Y0_4 3.346869 1_455
Mg1_0 Y0_2 3.346869 1_545
Mg1_0 Y1_2 3.366187 1_545
Mg1_0 Y1_4 3.366187 1_455
Mg1_0 Mg1_6 3.498106 1_455
Mg1_0 Mg1_6 3.498106 1_545
Mg1_1 Mg2_5 3.302257 1_455
Mg1_1 Mg2_3 3.302257 1_545
Mg1_1 Y2_0 3.331886 1_555
Mg1_1 Y0_3 3.346869 1_545
Mg1_1 Y0_5 3.346869 1_455
Mg1_1 Y1_3 3.366187 1_545
Mg1_1 Y1_5 3.366187 1_455
Mg1_1 Mg1_7 3.498106 1_455
Mg1_1 Mg1_7 3.498106 1_545
Mg1_2 Mg2_0 3.302257 1_555
Mg1_2 Mg2_6 3.302257 1_455
Mg1_2 Y2_3 3.331886 1_554
Mg1_2 Y0_6 3.346869 1_455
Mg1_2 Y0_0 3.346869 1_555
Mg1_2 Y1_6 3.366187 1_455
Mg1_2 Y1_0 3.366187 1_555
Mg1_2 Mg1_4 3.498106 1_555
Mg1_2 Mg1_4 3.498106 1_465
Mg1_3 Mg2_1 3.302257 1_555
Mg1_3 Mg2_7 3.302257 1_455
Mg1_3 Y2_2 3.331886 1_555
Mg1_3 Y0_1 3.346869 1_555
Mg1_3 Y0_7 3.346869 1_455
Mg1_3 Y1_1 3.366187 1_555
Mg1_3 Y1_7 3.366187 1_455
Mg1_3 Mg1_5 3.498106 1_555
Mg1_3 Mg1_5 3.498106 1_465
Mg1_4 Mg2_0 3.302257 1_555
Mg1_4 Mg2_6 3.302257 1_545
Mg1_4 Y2_5 3.331886 1_554
Mg1_4 Y0_6 3.346869 1_545
Mg1_4 Y0_0 3.346869 1_555
Mg1_4 Y1_6 3.366187 1_545
Mg1_4 Y1_0 3.366187 1_555
Mg1_5 Mg2_7 3.302257 1_545
Mg1_5 Mg2_1 3.302257 1_555
Mg1_5 Y2_4 3.331886 1_555
Mg1_5 Y0_7 3.346869 1_545
Mg1_5 Y0_1 3.346869 1_555
Mg1_5 Y1_7 3.366187 1_545
Mg1_5 Y1_1 3.366187 1_555
Mg1_6 Mg2_4 3.302257 1_555
Mg1_6 Mg2_2 3.302257 1_555
Mg1_6 Y2_7 3.331886 1_554
Mg1_6 Y0_4 3.346869 1_555
Mg1_6 Y0_2 3.346869 1_555
Mg1_6 Y1_4 3.366187 1_555
Mg1_6 Y1_2 3.366187 1_555
Mg1_7 Mg2_5 3.302257 1_555
Mg1_7 Mg2_3 3.302257 1_555
Mg1_7 Y2_6 3.331886 1_555
Mg1_7 Y0_3 3.346869 1_555
Mg1_7 Y0_5 3.346869 1_555
Mg1_7 Y1_3 3.366187 1_555
Mg1_7 Y1_5 3.366187 1_555
Mg2_0 Y2_2 3.419473 1_555
Mg2_0 Y2_4 3.419473 1_555
Mg2_0 Y0_1 3.426464 1_555
Mg2_0 Y1_0 3.460106 1_555
Mg2_0 Mg2_6 3.498106 1_455
Mg2_0 Mg2_6 3.498106 1_545
Mg2_0 Y1_4 3.512277 1_555
Mg2_0 Y1_2 3.512277 1_555
Mg2_1 Y2_3 3.419473 1_555
Mg2_1 Y2_5 3.419473 1_555
Mg2_1 Y0_0 3.426464 1_556
Mg2_1 Y1_1 3.460106 1_555
Mg2_1 Mg2_7 3.498106 1_545
Mg2_1 Mg2_7 3.498106 1_455
Mg2_1 Y1_5 3.512277 1_555
Mg2_1 Y1_3 3.512277 1_555
Mg2_2 Y2_0 3.419473 1_565
Mg2_2 Y2_6 3.419473 1_555
Mg2_2 Y0_3 3.426464 1_555
Mg2_2 Y1_2 3.460106 1_555
Mg2_2 Mg2_4 3.498106 1_555
Mg2_2 Mg2_4 3.498106 1_465
Mg2_2 Y1_0 3.512277 1_565
Mg2_2 Y1_6 3.512277 1_555
Mg2_3 Y2_1 3.419473 1_565
Mg2_3 Y2_7 3.419473 1_555
Mg2_3 Y0_2 3.426464 1_556
Mg2_3 Y1_3 3.460106 1_555
Mg2_3 Mg2_5 3.498106 1_465
Mg2_3 Mg2_5 3.498106 1_555
Mg2_3 Y1_1 3.512277 1_565
Mg2_3 Y1_7 3.512277 1_555
Mg2_4 Y2_0 3.419473 1_655
Mg2_4 Y2_6 3.419473 1_555
Mg2_4 Y0_5 3.426464 1_555
Mg2_4 Y1_4 3.460106 1_555
Mg2_4 Y1_0 3.512277 1_655
Mg2_4 Y1_6 3.512277 1_555
Mg2_5 Y2_1 3.419473 1_655
Mg2_5 Y2_7 3.419473 1_555
Mg2_5 Y0_4 3.426464 1_556
Mg2_5 Y1_5 3.460106 1_555
Mg2_5 Y1_1 3.512277 1_655
Mg2_5 Y1_7 3.512277 1_555
Mg2_6 Y2_2 3.419473 1_655
Mg2_6 Y2_4 3.419473 1_565
Mg2_6 Y0_7 3.426464 1_555
Mg2_6 Y1_6 3.460106 1_555
Mg2_6 Y1_4 3.512277 1_565
Mg2_6 Y1_2 3.512277 1_655
Mg2_7 Y2_5 3.419473 1_565
Mg2_7 Y2_3 3.419473 1_655
Mg2_7 Y0_6 3.426464 1_556
Mg2_7 Y1_7 3.460106 1_555
Mg2_7 Y1_5 3.512277 1_565
Mg2_7 Y1_3 3.512277 1_655
