# generated using pymatgen
data_CaPrCr2O6
_symmetry_space_group_name_H-M   'P 1'
_cell_length_a   5.43635500
_cell_length_b   5.50389500
_cell_length_c   7.70476400
_cell_angle_alpha   90.00000000
_cell_angle_beta   90.00000000
_cell_angle_gamma   90.00000000
_symmetry_Int_Tables_number   1
_chemical_formula_structural   CaPrCr2O6
_chemical_formula_sum   'Ca2 Pr2 Cr4 O12'
_cell_volume   230.53522294
_cell_formula_units_Z   2
loop_
 _symmetry_equiv_pos_site_id
 _symmetry_equiv_pos_as_xyz
  1  'x, y, z'
loop_
 _atom_site_type_symbol
 _atom_site_label
 _atom_site_symmetry_multiplicity
 _atom_site_fract_x
 _atom_site_fract_y
 _atom_site_fract_z
 _atom_site_occupancy
  Ca  Ca0  1  0.48978700  0.20754800  0.00000000  1
  Ca  Ca1  1  0.98978700  0.79245200  0.50000000  1
  Pr  Pr0  1  0.00971800  0.70920800  0.00000000  1
  Pr  Pr1  1  0.50971800  0.29079200  0.50000000  1
  Cr  Cr0  1  0.00030300  0.24846100  0.75070300  1
  Cr  Cr1  1  0.00030300  0.24846100  0.24929700  1
  Cr  Cr2  1  0.50030300  0.75153900  0.25070300  1
  Cr  Cr3  1  0.50030300  0.75153900  0.74929700  1
  O  O0  1  0.07819300  0.22849500  0.50000000  1
  O  O1  1  0.21482400  0.96469900  0.79183600  1
  O  O2  1  0.21482400  0.96469900  0.20816400  1
  O  O3  1  0.28741100  0.46259600  0.20643400  1
  O  O4  1  0.28741100  0.46259600  0.79356600  1
  O  O5  1  0.41722300  0.73020500  0.50000000  1
  O  O6  1  0.57819300  0.77150500  0.00000000  1
  O  O7  1  0.71482400  0.03530100  0.70816400  1
  O  O8  1  0.71482400  0.03530100  0.29183600  1
  O  O9  1  0.78741100  0.53740400  0.70643400  1
  O  O10  1  0.78741100  0.53740400  0.29356600  1
  O  O11  1  0.91722300  0.26979500  0.00000000  1
loop_
_geom_bond_atom_site_label_1
_geom_bond_atom_site_label_2
_geom_bond_distance
_geom_bond_site_symmetry_2
Ca0 O11 2.348814 1_555
Ca0 O3 2.389711 1_555
Ca0 O4 2.389711 1_554
Ca0 O6 2.447585 1_545
Ca0 O1 2.567743 1_544
Ca0 O2 2.567743 1_545
Ca0 O7 2.729706 1_554
Ca0 O8 2.729706 1_555
Ca1 O5 2.348814 1_655
Ca1 O10 2.389711 1_555
Ca1 O9 2.389711 1_555
Ca1 O0 2.447585 1_665
Ca1 O7 2.567743 1_565
Ca1 O8 2.567743 1_565
Ca1 O2 2.729706 1_655
Ca1 O1 2.729706 1_655
Cr0 O7 1.972927 1_455
Cr0 O1 1.974765 1_545
Cr0 O11 1.976652 1_456
Cr0 O0 1.980526 1_555
Cr0 O4 1.983499 1_555
Cr0 O9 1.996222 1_455
Cr1 O8 1.972927 1_455
Cr1 O2 1.974765 1_545
Cr1 O11 1.976652 1_455
Cr1 O0 1.980526 1_555
Cr1 O3 1.983499 1_555
Cr1 O10 1.996222 1_455
Cr2 O2 1.972927 1_555
Cr2 O8 1.974765 1_565
Cr2 O5 1.976652 1_555
Cr2 O6 1.980526 1_555
Cr2 O10 1.983499 1_555
Cr2 O3 1.996222 1_555
Cr3 O1 1.972927 1_555
Cr3 O7 1.974765 1_565
Cr3 O5 1.976652 1_555
Cr3 O6 1.980526 1_556
Cr3 O9 1.983499 1_555
Cr3 O4 1.996222 1_555
O0 Pr1 2.370848 1_555
O1 Pr0 2.406870 1_556
O2 Pr0 2.406870 1_555
O3 Pr0 2.578975 1_555
O3 Pr1 2.733259 1_555
O4 Pr0 2.578975 1_556
O4 Pr1 2.733259 1_555
O5 Pr1 2.470203 1_555
O6 Pr0 2.370848 1_655
O7 Pr1 2.406870 1_555
O8 Pr1 2.406870 1_555
O9 Pr1 2.578975 1_555
O9 Pr0 2.733259 1_656
O10 Pr1 2.578975 1_555
O10 Pr0 2.733259 1_655
O11 Pr0 2.470203 1_655
