# generated using pymatgen
data_Er6FeSb2
_symmetry_space_group_name_H-M   'P 1'
_cell_length_a   8.11631403
_cell_length_b   8.11631351
_cell_length_c   4.13713311
_cell_angle_alpha   90.00000000
_cell_angle_beta   90.00000000
_cell_angle_gamma   119.99698410
_symmetry_Int_Tables_number   1
_chemical_formula_structural   Er6FeSb2
_chemical_formula_sum   'Er6 Fe1 Sb2'
_cell_volume   236.02661588
_cell_formula_units_Z   1
loop_
 _symmetry_equiv_pos_site_id
 _symmetry_equiv_pos_as_xyz
  1  'x, y, z'
loop_
 _atom_site_type_symbol
 _atom_site_label
 _atom_site_symmetry_multiplicity
 _atom_site_fract_x
 _atom_site_fract_y
 _atom_site_fract_z
 _atom_site_occupancy
  Er  Er0  1  0.23692222  -0.00002237  0.50000000  1
  Er  Er1  1  -0.00002237  0.23692222  0.50000000  1
  Er  Er2  1  0.76308613  0.76308513  0.50000000  1
  Er  Er3  1  0.60273153  0.00001737  0.00000000  1
  Er  Er4  1  0.00001737  0.60273153  -0.00000000  1
  Er  Er5  1  0.39726063  0.39726063  -0.00000000  1
  Fe  Fe0  1  -0.00004104  -0.00004204  0.00000000  1
  Sb  Sb0  1  0.33340042  0.66664611  0.50000000  1
  Sb  Sb1  1  0.66664611  0.33340042  0.50000000  1
loop_
_geom_bond_atom_site_label_1
_geom_bond_atom_site_label_2
_geom_bond_distance
_geom_bond_site_symmetry_2
Er0 Fe0 2.824468 1_555
Er0 Fe0 2.824468 1_556
Er0 Sb1 3.170215 1_555
Er0 Sb0 3.170293 1_545
Er1 Fe0 2.824477 1_556
Er1 Fe0 2.824477 1_555
Er1 Sb0 3.170215 1_555
Er1 Sb1 3.170293 1_455
Er2 Fe0 2.824083 1_665
Er2 Fe0 2.824083 1_666
Er2 Sb1 3.169466 1_555
Er2 Sb0 3.169476 1_555
Er3 Fe0 3.224264 1_655
Er3 Sb0 3.234867 1_544
Er3 Sb0 3.234867 1_545
Er3 Sb1 3.235138 1_554
Er3 Sb1 3.235138 1_555
Er4 Fe0 3.224251 1_565
Er4 Sb1 3.234867 1_455
Er4 Sb1 3.234867 1_454
Er4 Sb0 3.235138 1_555
Er4 Sb0 3.235138 1_554
Er5 Fe0 3.224776 1_555
Er5 Sb0 3.234373 1_554
Er5 Sb0 3.234373 1_555
Er5 Sb1 3.234373 1_554
Er5 Sb1 3.234373 1_555
