# generated using pymatgen
data_RbBi
_symmetry_space_group_name_H-M   'P 1'
_cell_length_a   9.37053200
_cell_length_b   9.37053200
_cell_length_c   7.71776200
_cell_angle_alpha   90.00000000
_cell_angle_beta   90.00000000
_cell_angle_gamma   90.00000000
_symmetry_Int_Tables_number   1
_chemical_formula_structural   RbBi
_chemical_formula_sum   'Rb8 Bi8'
_cell_volume   677.67252434
_cell_formula_units_Z   8
loop_
 _symmetry_equiv_pos_site_id
 _symmetry_equiv_pos_as_xyz
  1  'x, y, z'
loop_
 _atom_site_type_symbol
 _atom_site_label
 _atom_site_symmetry_multiplicity
 _atom_site_fract_x
 _atom_site_fract_y
 _atom_site_fract_z
 _atom_site_occupancy
  Rb  Rb0_0  1  0.25000000  0.25000000  0.25000000  1
  Rb  Rb0_1  1  0.25000000  0.25000000  0.75000000  1
  Rb  Rb0_2  1  0.25000000  0.75000000  0.25000000  1
  Rb  Rb0_3  1  0.25000000  0.75000000  0.75000000  1
  Rb  Rb0_4  1  0.75000000  0.25000000  0.25000000  1
  Rb  Rb0_5  1  0.75000000  0.25000000  0.75000000  1
  Rb  Rb0_6  1  0.75000000  0.75000000  0.25000000  1
  Rb  Rb0_7  1  0.75000000  0.75000000  0.75000000  1
  Bi  Bi0_0  1  0.00000000  0.00000000  0.00000000  1
  Bi  Bi0_1  1  0.00000000  0.00000000  0.50000000  1
  Bi  Bi0_2  1  0.00000000  0.50000000  0.00000000  1
  Bi  Bi0_3  1  0.00000000  0.50000000  0.50000000  1
  Bi  Bi0_4  1  0.50000000  0.00000000  0.00000000  1
  Bi  Bi0_5  1  0.50000000  0.00000000  0.50000000  1
  Bi  Bi0_6  1  0.50000000  0.50000000  0.00000000  1
  Bi  Bi0_7  1  0.50000000  0.50000000  0.50000000  1
loop_
_geom_bond_atom_site_label_1
_geom_bond_atom_site_label_2
_geom_bond_distance
_geom_bond_site_symmetry_2
Rb0_0 Rb0_1 3.858881 1_555
Rb0_0 Rb0_1 3.858881 1_554
Rb0_2 Rb0_3 3.858881 1_554
Rb0_2 Rb0_3 3.858881 1_555
Rb0_4 Rb0_5 3.858881 1_554
Rb0_4 Rb0_5 3.858881 1_555
Rb0_6 Rb0_7 3.858881 1_554
Rb0_6 Rb0_7 3.858881 1_555
Bi0_0 Rb0_3 3.833875 1_544
Bi0_0 Rb0_7 3.833875 1_444
Bi0_0 Rb0_5 3.833875 1_454
Bi0_0 Rb0_0 3.833875 1_555
Bi0_0 Rb0_2 3.833875 1_545
Bi0_0 Rb0_4 3.833875 1_455
Bi0_0 Rb0_1 3.833875 1_554
Bi0_0 Rb0_6 3.833875 1_445
Bi0_1 Rb0_5 3.833875 1_455
Bi0_1 Rb0_7 3.833875 1_445
Bi0_1 Rb0_0 3.833875 1_555
Bi0_1 Rb0_6 3.833875 1_445
Bi0_1 Rb0_1 3.833875 1_555
Bi0_1 Rb0_2 3.833875 1_545
Bi0_1 Rb0_4 3.833875 1_455
Bi0_1 Rb0_3 3.833875 1_545
Bi0_2 Rb0_6 3.833875 1_455
Bi0_2 Rb0_5 3.833875 1_454
Bi0_2 Rb0_0 3.833875 1_555
Bi0_2 Rb0_7 3.833875 1_454
Bi0_2 Rb0_3 3.833875 1_554
Bi0_2 Rb0_2 3.833875 1_555
Bi0_2 Rb0_4 3.833875 1_455
Bi0_2 Rb0_1 3.833875 1_554
Bi0_3 Rb0_3 3.833875 1_555
Bi0_3 Rb0_5 3.833875 1_455
Bi0_3 Rb0_6 3.833875 1_455
Bi0_3 Rb0_0 3.833875 1_555
Bi0_3 Rb0_1 3.833875 1_555
Bi0_3 Rb0_7 3.833875 1_455
Bi0_3 Rb0_2 3.833875 1_555
Bi0_3 Rb0_4 3.833875 1_455
Bi0_4 Rb0_6 3.833875 1_545
Bi0_4 Rb0_3 3.833875 1_544
Bi0_4 Rb0_5 3.833875 1_554
Bi0_4 Rb0_7 3.833875 1_544
Bi0_4 Rb0_0 3.833875 1_555
Bi0_4 Rb0_2 3.833875 1_545
Bi0_4 Rb0_1 3.833875 1_554
Bi0_4 Rb0_4 3.833875 1_555
Bi0_5 Rb0_6 3.833875 1_545
Bi0_5 Rb0_5 3.833875 1_555
Bi0_5 Rb0_7 3.833875 1_545
Bi0_5 Rb0_0 3.833875 1_555
Bi0_5 Rb0_3 3.833875 1_545
Bi0_5 Rb0_1 3.833875 1_555
Bi0_5 Rb0_2 3.833875 1_545
Bi0_5 Rb0_4 3.833875 1_555
Bi0_6 Rb0_6 3.833875 1_555
Bi0_6 Rb0_7 3.833875 1_554
Bi0_6 Rb0_5 3.833875 1_554
Bi0_6 Rb0_0 3.833875 1_555
Bi0_6 Rb0_3 3.833875 1_554
Bi0_6 Rb0_2 3.833875 1_555
Bi0_6 Rb0_1 3.833875 1_554
Bi0_6 Rb0_4 3.833875 1_555
Bi0_7 Rb0_3 3.833875 1_555
Bi0_7 Rb0_6 3.833875 1_555
Bi0_7 Rb0_5 3.833875 1_555
Bi0_7 Rb0_7 3.833875 1_555
Bi0_7 Rb0_0 3.833875 1_555
Bi0_7 Rb0_1 3.833875 1_555
Bi0_7 Rb0_2 3.833875 1_555
Bi0_7 Rb0_4 3.833875 1_555
