# generated using pymatgen
data_FePHC4(OF)3
_symmetry_space_group_name_H-M   'P 1'
_cell_length_a   8.30817834
_cell_length_b   8.47293767
_cell_length_c   13.20956730
_cell_angle_alpha   79.18047275
_cell_angle_beta   80.82371046
_cell_angle_gamma   69.27817137
_symmetry_Int_Tables_number   1
_chemical_formula_structural   FePHC4(OF)3
_chemical_formula_sum   'Fe4 P4 H4 C16 O12 F12'
_cell_volume   849.87405019
_cell_formula_units_Z   4
loop_
 _symmetry_equiv_pos_site_id
 _symmetry_equiv_pos_as_xyz
  1  'x, y, z'
loop_
 _atom_site_type_symbol
 _atom_site_label
 _atom_site_symmetry_multiplicity
 _atom_site_fract_x
 _atom_site_fract_y
 _atom_site_fract_z
 _atom_site_occupancy
  Fe  Fe0  1  0.79016000  0.77624400  0.65668800  1
  Fe  Fe1  1  0.20984000  0.22375600  0.34331200  1
  Fe  Fe2  1  0.87858500  0.90585600  0.80486000  1
  Fe  Fe3  1  0.12141500  0.09414400  0.19514000  1
  P  P0  1  0.87418800  0.64475100  0.81020300  1
  P  P1  1  0.12581200  0.35524900  0.18979700  1
  P  P2  1  0.61555500  0.95806600  0.76080800  1
  P  P3  1  0.38444500  0.04193400  0.23919200  1
  H  H0  1  0.02803100  0.50277300  0.81903500  1
  H  H1  1  0.97196900  0.49722700  0.18096500  1
  H  H2  1  0.48636200  0.91640600  0.83284200  1
  H  H3  1  0.51363800  0.08359400  0.16715800  1
  C  C0  1  0.89123900  0.10679400  0.73814700  1
  C  C1  1  0.10876100  0.89320600  0.26185300  1
  C  C2  1  0.99453500  0.64581800  0.60111800  1
  C  C3  1  0.00546500  0.35418200  0.39888200  1
  C  C4  1  0.83199300  0.94376100  0.93544000  1
  C  C5  1  0.16800700  0.05623900  0.06456000  1
  C  C6  1  0.46833800  0.17856900  0.71275300  1
  C  C7  1  0.53166200  0.82143100  0.28724700  1
  C  C8  1  0.74261500  0.54469900  0.91664100  1
  C  C9  1  0.25738500  0.45530100  0.08335900  1
  C  C10  1  0.64898400  0.67791900  0.62674600  1
  C  C11  1  0.35101600  0.32208100  0.37325400  1
  C  C12  1  0.10998600  0.81754500  0.79601300  1
  C  C13  1  0.89001400  0.18245500  0.20398700  1
  C  C14  1  0.77779800  0.93844200  0.54620700  1
  C  C15  1  0.22220200  0.06155800  0.45379300  1
  O  O0  1  0.90676200  0.23323500  0.69461700  1
  O  O1  1  0.09323800  0.76676500  0.30538300  1
  O  O2  1  0.77714100  0.03788000  0.47305600  1
  O  O3  1  0.22285900  0.96212000  0.52694400  1
  O  O4  1  0.80170800  0.96816300  0.02099600  1
  O  O5  1  0.19829200  0.03183700  0.97900400  1
  O  O6  1  0.25945800  0.76195900  0.78971500  1
  O  O7  1  0.74054200  0.23804100  0.21028500  1
  O  O8  1  0.12698600  0.56291100  0.56551500  1
  O  O9  1  0.87301400  0.43708900  0.43448500  1
  O  O10  1  0.55748500  0.61519600  0.60686100  1
  O  O11  1  0.44251500  0.38480400  0.39313900  1
  F  F0  1  0.32160200  0.17137100  0.68173400  1
  F  F1  1  0.67839800  0.82862900  0.31826600  1
  F  F2  1  0.41424700  0.28169100  0.78835100  1
  F  F3  1  0.58575300  0.71830900  0.21164900  1
  F  F4  1  0.54677600  0.25718800  0.63109500  1
  F  F5  1  0.45322400  0.74281200  0.36890500  1
  F  F6  1  0.74297200  0.58949700  0.01085800  1
  F  F7  1  0.25702800  0.41050300  0.98914200  1
  F  F8  1  0.80918400  0.37040700  0.92729900  1
  F  F9  1  0.19081600  0.62959300  0.07270100  1
  F  F10  1  0.57468700  0.59133400  0.89780200  1
  F  F11  1  0.42531300  0.40866600  0.10219800  1
loop_
_geom_bond_atom_site_label_1
_geom_bond_atom_site_label_2
_geom_bond_distance
_geom_bond_site_symmetry_2
Fe0 P0 2.212193 1_555
Fe0 P2 2.224192 1_555
Fe1 P1 2.212193 1_555
Fe1 P3 2.224192 1_555
Fe2 P0 2.213245 1_555
Fe2 P2 2.221414 1_555
Fe3 P1 2.213245 1_555
Fe3 P3 2.221414 1_555
H0 P0 1.414641 1_455
H1 P1 1.414641 1_655
H2 P2 1.413643 1_555
H3 P3 1.413643 1_555
C0 O0 1.156659 1_555
C0 Fe2 1.794467 1_545
C1 O1 1.156659 1_555
C1 Fe3 1.794467 1_565
C2 O8 1.156510 1_655
C2 Fe0 1.795090 1_555
C3 O9 1.156510 1_455
C3 Fe1 1.795090 1_555
C4 O4 1.159107 1_556
C4 Fe2 1.770687 1_555
C5 O5 1.159107 1_554
C5 Fe3 1.770687 1_555
C6 F4 1.358373 1_555
C6 F2 1.367187 1_555
C6 F0 1.370824 1_555
C6 P2 1.890711 1_545
C7 F5 1.358373 1_555
C7 F3 1.367187 1_555
C7 F1 1.370824 1_555
C7 P3 1.890711 1_565
C8 F10 1.359512 1_555
C8 F6 1.368340 1_556
C8 F8 1.369429 1_555
C8 P0 1.899611 1_555
C9 F11 1.359512 1_555
C9 F7 1.368340 1_554
C9 F9 1.369429 1_555
C9 P1 1.899611 1_555
C10 O10 1.153827 1_555
C10 Fe0 1.785888 1_555
C11 O11 1.153827 1_555
C11 Fe1 1.785888 1_555
C12 O6 1.157052 1_555
C12 Fe2 1.792429 1_455
C13 O7 1.157052 1_555
C13 Fe3 1.792429 1_655
C14 O2 1.156023 1_565
C14 Fe0 1.795559 1_555
C15 O3 1.156023 1_545
C15 Fe1 1.795559 1_555
