# generated using pymatgen
data_Li7Mn2(CoO4)3
_symmetry_space_group_name_H-M   'P 1'
_cell_length_a   5.12909362
_cell_length_b   5.12909362
_cell_length_c   15.47369090
_cell_angle_alpha   80.72401700
_cell_angle_beta   80.72401700
_cell_angle_gamma   32.82848901
_symmetry_Int_Tables_number   1
_chemical_formula_structural   Li7Mn2(CoO4)3
_chemical_formula_sum   'Li7 Mn2 Co3 O12'
_cell_volume   217.54828057
_cell_formula_units_Z   1
loop_
 _symmetry_equiv_pos_site_id
 _symmetry_equiv_pos_as_xyz
  1  'x, y, z'
loop_
 _atom_site_type_symbol
 _atom_site_label
 _atom_site_symmetry_multiplicity
 _atom_site_fract_x
 _atom_site_fract_y
 _atom_site_fract_z
 _atom_site_occupancy
  Li  Li0  1  0.25148300  0.25148300  0.91641800  1
  Li  Li1  1  0.74851700  0.74851700  0.08358200  1
  Li  Li2  1  0.24803100  0.24803100  0.25712200  1
  Li  Li3  1  0.74042100  0.74042100  0.42465800  1
  Li  Li4  1  0.25957900  0.25957900  0.57534200  1
  Li  Li5  1  0.75196900  0.75196900  0.74287800  1
  Li  Li6  1  0.00000000  0.00000000  0.50000000  1
  Mn  Mn0  1  0.99985000  0.99985000  0.83139500  1
  Mn  Mn1  1  0.00015000  0.00015000  0.16860500  1
  Co  Co0  1  0.50000000  0.50000000  0.00000000  1
  Co  Co1  1  0.49032200  0.49032200  0.34862800  1
  Co  Co2  1  0.50967800  0.50967800  0.65137200  1
  O  O0  1  0.38941200  0.38941200  0.79802100  1
  O  O1  1  0.88827800  0.88827800  0.95142700  1
  O  O2  1  0.38642300  0.38642300  0.13255800  1
  O  O3  1  0.89364600  0.89364600  0.28438800  1
  O  O4  1  0.37629700  0.37629700  0.45116700  1
  O  O5  1  0.88659400  0.88659400  0.63091300  1
  O  O6  1  0.11172200  0.11172200  0.04857300  1
  O  O7  1  0.61058800  0.61058800  0.20197900  1
  O  O8  1  0.11340600  0.11340600  0.36908700  1
  O  O9  1  0.62370300  0.62370300  0.54883300  1
  O  O10  1  0.10635400  0.10635400  0.71561200  1
  O  O11  1  0.61357700  0.61357700  0.86744200  1
loop_
_geom_bond_atom_site_label_1
_geom_bond_atom_site_label_2
_geom_bond_distance
_geom_bond_site_symmetry_2
Li0 O0 2.088730 1_555
Li0 O1 2.109774 1_545
Li0 O1 2.109774 1_455
Li0 O11 2.205020 1_545
Li0 O11 2.205020 1_455
Li0 O6 2.264490 1_556
Li1 O7 2.088730 1_555
Li1 O6 2.109774 1_565
Li1 O6 2.109774 1_655
Li1 O2 2.205020 1_565
Li1 O2 2.205020 1_655
Li1 O1 2.264490 1_554
Li2 O8 1.996286 1_555
Li2 O3 2.129549 1_545
Li2 O3 2.129549 1_455
Li2 O2 2.165054 1_555
Li2 O7 2.246269 1_455
Li2 O7 2.246269 1_545
Li3 O4 2.059353 1_655
Li3 O4 2.059353 1_565
Li3 O9 2.066249 1_555
Li3 O8 2.182521 1_565
Li3 O8 2.182521 1_655
Li3 O3 2.425803 1_555
Li4 O9 2.059353 1_545
Li4 O9 2.059353 1_455
Li4 O4 2.066249 1_555
Li4 O5 2.182521 1_545
Li4 O5 2.182521 1_455
Li4 O10 2.425803 1_555
Li5 O5 1.996286 1_555
Li5 O10 2.129549 1_565
Li5 O10 2.129549 1_655
Li5 O11 2.165054 1_555
Li5 O0 2.246269 1_655
Li5 O0 2.246269 1_565
Li6 O9 2.112460 1_455
Li6 O4 2.112460 1_545
Li6 O4 2.112460 1_455
Li6 O9 2.112460 1_545
Li6 O5 2.142210 1_445
Li6 O8 2.142210 1_555
Mn0 O10 1.917577 1_665
Mn0 O0 1.933122 1_655
Mn0 O0 1.933122 1_565
Mn0 O11 1.968235 1_565
Mn0 O11 1.968235 1_655
Mn0 O1 1.992420 1_555
Mn1 O3 1.917577 1_445
Mn1 O7 1.933122 1_545
Mn1 O7 1.933122 1_455
Mn1 O2 1.968235 1_455
Mn1 O2 1.968235 1_545
Mn1 O6 1.992420 1_555
Co0 O1 2.037617 1_544
Co0 O1 2.037617 1_454
Co0 O6 2.037617 1_565
Co0 O6 2.037617 1_655
Co0 O11 2.164692 1_554
Co0 O2 2.164692 1_555
Co1 O4 1.782722 1_555
Co1 O8 1.948509 1_655
Co1 O8 1.948509 1_565
Co1 O3 2.076433 1_545
Co1 O3 2.076433 1_455
Co1 O7 2.376397 1_555
Co2 O9 1.782722 1_555
Co2 O5 1.948509 1_455
Co2 O5 1.948509 1_545
Co2 O10 2.076433 1_565
Co2 O10 2.076433 1_655
Co2 O0 2.376397 1_555
