# generated using pymatgen
data_K3GaTe2O11
_symmetry_space_group_name_H-M   'P 1'
_cell_length_a   7.34917500
_cell_length_b   7.39602541
_cell_length_c   11.48164188
_cell_angle_alpha   77.34724639
_cell_angle_beta   81.64551739
_cell_angle_gamma   61.12973475
_symmetry_Int_Tables_number   1
_chemical_formula_structural   K3GaTe2O11
_chemical_formula_sum   'K6 Ga2 Te4 O22'
_cell_volume   532.67416682
_cell_formula_units_Z   2
loop_
 _symmetry_equiv_pos_site_id
 _symmetry_equiv_pos_as_xyz
  1  'x, y, z'
loop_
 _atom_site_type_symbol
 _atom_site_label
 _atom_site_symmetry_multiplicity
 _atom_site_fract_x
 _atom_site_fract_y
 _atom_site_fract_z
 _atom_site_occupancy
  K  K0  1  0.86882200  0.56714700  0.83377900  1
  K  K1  1  0.13117800  0.43285300  0.16622100  1
  K  K2  1  0.41951900  0.50207800  0.83475600  1
  K  K3  1  0.58048100  0.49792200  0.16524400  1
  K  K4  1  0.58360800  0.83366100  0.38232700  1
  K  K5  1  0.41639200  0.16633900  0.61767300  1
  Ga  Ga0  1  0.95361000  0.05194400  0.74912400  1
  Ga  Ga1  1  0.04639000  0.94805600  0.25087600  1
  Te  Te0  1  0.11418100  0.75693100  0.53740800  1
  Te  Te1  1  0.88581900  0.24306900  0.46259200  1
  Te  Te2  1  0.78593100  0.99144400  0.02668100  1
  Te  Te3  1  0.21406900  0.00855600  0.97331900  1
  O  O0  1  0.82860100  0.99358600  0.49691500  1
  O  O1  1  0.17139900  0.00641400  0.50308500  1
  O  O2  1  0.01502900  0.55007000  0.58258400  1
  O  O3  1  0.98497100  0.44993000  0.41741600  1
  O  O4  1  0.82021300  0.27385100  0.62779800  1
  O  O5  1  0.17978700  0.72614900  0.37220200  1
  O  O6  1  0.06166600  0.78691000  0.70730200  1
  O  O7  1  0.93833400  0.21309000  0.29269800  1
  O  O8  1  0.39825000  0.56250600  0.58150700  1
  O  O9  1  0.60175000  0.43749400  0.41849300  1
  O  O10  1  0.90643500  0.19141800  0.01758800  1
  O  O11  1  0.09356500  0.80858200  0.98241200  1
  O  O12  1  0.15006000  0.10192000  0.80348900  1
  O  O13  1  0.84994000  0.89808000  0.19651100  1
  O  O14  1  0.74106700  0.75177600  0.04133600  1
  O  O15  1  0.25893300  0.24822400  0.95866400  1
  O  O16  1  0.73053900  0.08410600  0.85809500  1
  O  O17  1  0.26946100  0.91589400  0.14190500  1
  O  O18  1  0.51581600  0.20549800  0.06910100  1
  O  O19  1  0.48418400  0.79450200  0.93089900  1
  O  O20  1  0.37541000  0.30419600  0.36974900  1
  O  O21  1  0.62459000  0.69580400  0.63025100  1
loop_
_geom_bond_atom_site_label_1
_geom_bond_atom_site_label_2
_geom_bond_distance
_geom_bond_site_symmetry_2
K0 O6 2.711376 1_655
K0 O19 2.716065 1_555
K0 O14 2.821819 1_556
K0 O21 2.860661 1_555
K0 O2 2.935421 1_655
K0 O15 3.003676 1_655
K0 O10 3.018468 1_556
K0 O12 3.111280 1_655
K1 O7 2.711376 1_455
K1 O18 2.716065 1_555
K1 O15 2.821819 1_554
K1 O20 2.860661 1_555
K1 O3 2.935421 1_455
K1 O14 3.003676 1_455
K1 O11 3.018468 1_554
K1 O13 3.111280 1_455
K2 O15 2.724605 1_555
K2 O16 2.800809 1_555
K2 O6 2.813133 1_555
K2 O8 2.859072 1_555
K2 O19 2.883204 1_555
K2 O11 3.001839 1_555
K2 O18 3.003457 1_556
K2 O21 3.069311 1_555
K3 O14 2.724605 1_555
K3 O17 2.800809 1_555
K3 O7 2.813133 1_555
K3 O9 2.859072 1_555
K3 O18 2.883204 1_555
K3 O10 3.001839 1_555
K3 O19 3.003457 1_554
K3 O20 3.069311 1_555
K4 O13 2.802060 1_555
K4 O9 2.807364 1_555
K4 O21 2.813254 1_555
K4 O1 2.924025 1_565
K4 O3 2.945872 1_555
K4 O20 3.029046 1_565
K4 O0 3.130238 1_555
K5 O12 2.802060 1_555
K5 O8 2.807364 1_555
K5 O20 2.813254 1_555
K5 O0 2.924025 1_545
K5 O2 2.945872 1_555
K5 O21 3.029046 1_545
K5 O1 3.130238 1_555
Ga0 O4 1.853858 1_555
Ga0 O16 1.862082 1_555
Ga0 O12 1.867864 1_655
Ga0 O6 1.871349 1_645
Ga1 O5 1.853858 1_555
Ga1 O17 1.862082 1_555
Ga1 O13 1.867864 1_455
Ga1 O7 1.871349 1_465
O0 Te0 2.016014 1_655
O0 Te1 2.029624 1_565
O1 Te1 2.016014 1_455
O1 Te0 2.029624 1_545
O2 Te0 1.939033 1_555
O3 Te1 1.939033 1_555
O4 Te1 1.923462 1_555
O5 Te0 1.923462 1_555
O6 Te0 1.972629 1_555
O7 Te1 1.972629 1_555
O8 Te0 1.942114 1_555
O9 Te1 1.942114 1_555
O10 Te2 2.037890 1_545
O10 Te3 2.052675 1_654
O11 Te3 2.037890 1_565
O11 Te2 2.052675 1_456
O12 Te3 1.965538 1_555
O13 Te2 1.965538 1_555
O14 Te2 1.922678 1_555
O15 Te3 1.922678 1_555
O16 Te2 1.939213 1_546
O17 Te3 1.939213 1_564
O18 Te2 1.925179 1_545
O19 Te3 1.925179 1_565
