# generated using pymatgen
data_LiSm4Ti2Mn2O12
_symmetry_space_group_name_H-M   'P 1'
_cell_length_a   5.49944071
_cell_length_b   5.85226931
_cell_length_c   8.08076575
_cell_angle_alpha   90.68396232
_cell_angle_beta   92.62728012
_cell_angle_gamma   89.28498085
_symmetry_Int_Tables_number   1
_chemical_formula_structural   LiSm4Ti2Mn2O12
_chemical_formula_sum   'Li1 Sm4 Ti2 Mn2 O12'
_cell_volume   259.76262724
_cell_formula_units_Z   1
loop_
 _symmetry_equiv_pos_site_id
 _symmetry_equiv_pos_as_xyz
  1  'x, y, z'
loop_
 _atom_site_type_symbol
 _atom_site_label
 _atom_site_symmetry_multiplicity
 _atom_site_fract_x
 _atom_site_fract_y
 _atom_site_fract_z
 _atom_site_occupancy
  Li  Li0  1  0.66292400  0.62034400  0.57174900  1
  Sm  Sm0  1  0.02997500  0.92610000  0.73859600  1
  Sm  Sm1  1  0.44506400  0.40475000  0.78491000  1
  Sm  Sm2  1  0.97845400  0.06301000  0.24639300  1
  Sm  Sm3  1  0.51611600  0.56884600  0.23339700  1
  Ti  Ti0  1  0.51053400  0.02975800  0.49653100  1
  Ti  Ti1  1  0.97913300  0.49975600  0.99622700  1
  Mn  Mn0  1  0.04869600  0.49939800  0.47869300  1
  Mn  Mn1  1  0.49593200  0.98700400  0.99987800  1
  O  O0  1  0.85654700  0.54954500  0.76481800  1
  O  O1  1  0.62417300  0.04150700  0.73358900  1
  O  O2  1  0.11847100  0.44533100  0.22896500  1
  O  O3  1  0.38226300  0.95545700  0.26912400  1
  O  O4  1  0.81780700  0.82483600  0.44809600  1
  O  O5  1  0.68739700  0.30988600  0.04839300  1
  O  O6  1  0.21033800  0.19084100  0.56248100  1
  O  O7  1  0.27818200  0.68491800  0.95362200  1
  O  O8  1  0.16887500  0.19555300  0.93585300  1
  O  O9  1  0.33675200  0.69847500  0.57784300  1
  O  O10  1  0.80194300  0.78334300  0.07436300  1
  O  O11  1  0.68792100  0.31509100  0.43147800  1
loop_
_geom_bond_atom_site_label_1
_geom_bond_atom_site_label_2
_geom_bond_distance
_geom_bond_site_symmetry_2
Li0 O4 1.813324 1_555
Li0 O9 1.848290 1_555
Li0 O0 1.895174 1_555
Li0 O11 2.110647 1_555
Li0 Mn0 2.379790 1_655
Mn0 O2 2.091023 1_555
Mn0 O9 2.101481 1_555
Mn0 O6 2.107926 1_555
Mn0 O11 2.284658 1_455
Mn0 O4 2.285353 1_455
Mn0 O0 2.597819 1_455
Mn1 O10 2.118767 1_556
Mn1 O7 2.166837 1_555
Mn1 O5 2.197063 1_566
Mn1 O8 2.206197 1_565
Mn1 O3 2.301248 1_556
Mn1 O1 2.321761 1_565
O0 Ti1 1.982089 1_555
O0 Sm0 2.427547 1_655
O0 Sm1 2.439277 1_555
O1 Ti0 1.988223 1_555
O1 Sm0 2.322275 1_645
O1 Sm1 2.371784 1_555
O2 Ti1 2.025281 1_454
O2 Sm3 2.310334 1_555
O2 Sm2 2.383146 1_455
O3 Ti0 1.983252 1_565
O3 Sm2 2.300437 1_465
O3 Sm3 2.388865 1_555
O4 Ti0 2.108502 1_565
O4 Sm2 2.365791 1_565
O4 Sm0 2.637453 1_655
O4 Sm3 2.782655 1_555
O5 Ti1 2.025864 1_554
O5 Sm3 2.336311 1_555
O5 Sm1 2.523325 1_554
O5 Sm2 2.640481 1_555
O6 Ti0 1.981924 1_555
O6 Sm0 2.372772 1_545
O6 Sm1 2.497599 1_555
O6 Sm2 2.896473 1_455
O7 Ti1 2.025529 1_455
O7 Sm1 2.326598 1_555
O7 Sm0 2.582178 1_555
O7 Sm3 2.651054 1_556
O8 Ti1 2.115612 1_455
O8 Sm0 2.338669 1_545
O8 Sm1 2.354894 1_555
O8 Sm2 2.881506 1_456
O9 Ti0 2.288692 1_565
O9 Sm1 2.461942 1_555
O9 Sm0 2.532152 1_555
O10 Ti1 2.023264 1_554
O10 Sm2 2.327041 1_565
O10 Sm3 2.443579 1_555
O11 Ti0 2.031011 1_555
O11 Sm3 2.354402 1_555
O11 Sm2 2.659642 1_555
