# generated using pymatgen
data_Li4MnCo2O7
_symmetry_space_group_name_H-M   'P 1'
_cell_length_a   5.07683500
_cell_length_b   5.12577328
_cell_length_c   10.14858074
_cell_angle_alpha   99.72407212
_cell_angle_beta   101.20204316
_cell_angle_gamma   97.93254089
_symmetry_Int_Tables_number   1
_chemical_formula_structural   Li4MnCo2O7
_chemical_formula_sum   'Li8 Mn2 Co4 O14'
_cell_volume   251.32329444
_cell_formula_units_Z   2
loop_
 _symmetry_equiv_pos_site_id
 _symmetry_equiv_pos_as_xyz
  1  'x, y, z'
loop_
 _atom_site_type_symbol
 _atom_site_label
 _atom_site_symmetry_multiplicity
 _atom_site_fract_x
 _atom_site_fract_y
 _atom_site_fract_z
 _atom_site_occupancy
  Li  Li0  1  0.35983200  0.43111900  0.84802100  1
  Li  Li1  1  0.50000000  0.00000000  0.00000000  1
  Li  Li2  1  0.21811200  0.85879400  0.70640100  1
  Li  Li3  1  0.06691200  0.27259500  0.56483700  1
  Li  Li4  1  0.93308800  0.72740500  0.43516300  1
  Li  Li5  1  0.78188800  0.14120600  0.29359900  1
  Li  Li6  1  0.64016800  0.56888100  0.15197900  1
  Li  Li7  1  0.50000000  0.00000000  0.50000000  1
  Mn  Mn0  1  0.92419000  0.71323200  0.92595800  1
  Mn  Mn1  1  0.07581000  0.28676800  0.07404200  1
  Co  Co0  1  0.21692800  0.85854400  0.22021900  1
  Co  Co1  1  0.36697200  0.42058100  0.36189900  1
  Co  Co2  1  0.63302800  0.57941900  0.63810100  1
  Co  Co3  1  0.78307200  0.14145600  0.77978100  1
  O  O0  1  0.59038500  0.78059100  0.83182700  1
  O  O1  1  0.74815000  0.37409900  0.96185700  1
  O  O2  1  0.46418900  0.21793600  0.68730800  1
  O  O3  1  0.29834000  0.62210800  0.54004300  1
  O  O4  1  0.14845700  0.06483700  0.37788800  1
  O  O5  1  0.01295800  0.47573800  0.23829200  1
  O  O6  1  0.88937000  0.93898900  0.09945600  1
  O  O7  1  0.11063000  0.06101100  0.90054400  1
  O  O8  1  0.25185000  0.62590100  0.03814300  1
  O  O9  1  0.98704200  0.52426200  0.76170800  1
  O  O10  1  0.85154300  0.93516300  0.62211200  1
  O  O11  1  0.70166000  0.37789200  0.45995700  1
  O  O12  1  0.53581100  0.78206400  0.31269200  1
  O  O13  1  0.40961500  0.21940900  0.16817300  1
loop_
_geom_bond_atom_site_label_1
_geom_bond_atom_site_label_2
_geom_bond_distance
_geom_bond_site_symmetry_2
Li0 O2 2.007091 1_555
Li0 O0 2.049710 1_555
Li0 O9 2.079348 1_455
Li0 O1 2.166746 1_555
Li0 O8 2.220697 1_556
Li0 O7 2.329130 1_555
Li1 O13 2.046116 1_555
Li1 O0 2.046116 1_544
Li1 O6 2.127488 1_545
Li1 O7 2.127488 1_554
Li1 O1 2.277589 1_554
Li1 O8 2.277589 1_545
Li2 O10 2.010967 1_455
Li2 O3 2.049331 1_555
Li2 O2 2.137029 1_565
Li2 O9 2.158071 1_455
Li2 O0 2.190816 1_555
Li2 O7 2.266731 1_565
Li3 O3 2.083142 1_555
Li3 O11 2.136862 1_455
Li3 O10 2.142301 1_445
Li3 O4 2.156249 1_555
Li3 O2 2.234019 1_555
Li3 O9 2.325692 1_455
Li4 O11 2.083142 1_555
Li4 O3 2.136862 1_655
Li4 O4 2.142301 1_665
Li4 O10 2.156249 1_555
Li4 O12 2.234019 1_555
Li4 O5 2.325692 1_655
Li5 O4 2.010967 1_655
Li5 O11 2.049331 1_555
Li5 O12 2.137029 1_545
Li5 O5 2.158071 1_655
Li5 O13 2.190816 1_555
Li5 O6 2.266731 1_545
Li6 O12 2.007091 1_555
Li6 O13 2.049710 1_555
Li6 O5 2.079348 1_655
Li6 O8 2.166746 1_555
Li6 O1 2.220697 1_554
Li6 O6 2.329130 1_555
Li7 O10 2.067598 1_545
Li7 O4 2.067598 1_555
Li7 O2 2.089835 1_555
Li7 O12 2.089835 1_545
Li7 O3 2.201232 1_545
Li7 O11 2.201232 1_555
Mn0 O0 1.883514 1_555
Mn0 O9 1.888162 1_555
Mn0 O1 1.965927 1_555
Mn0 O8 1.976258 1_656
Mn0 O7 1.981077 1_665
Mn0 O6 1.989898 1_556
Mn1 O13 1.883514 1_555
Mn1 O5 1.888162 1_555
Mn1 O8 1.965927 1_555
Mn1 O1 1.976258 1_454
Mn1 O6 1.981077 1_445
Mn1 O7 1.989898 1_554
Co0 O12 1.834240 1_555
Co0 O4 1.882906 1_565
Co0 O6 2.001397 1_455
Co0 O8 2.075846 1_555
Co0 O5 2.142575 1_555
Co0 O13 2.165349 1_565
Co1 O11 1.855944 1_555
Co1 O3 2.042112 1_555
Co1 O4 2.047825 1_555
Co1 O5 2.065864 1_555
Co1 O12 2.111349 1_555
Co1 O13 2.125475 1_555
Co2 O3 1.855944 1_555
Co2 O11 2.042112 1_555
Co2 O10 2.047825 1_555
Co2 O9 2.065864 1_555
Co2 O2 2.111349 1_555
Co2 O0 2.125475 1_555
Co3 O2 1.834240 1_555
Co3 O10 1.882906 1_545
Co3 O7 2.001397 1_655
Co3 O1 2.075846 1_555
Co3 O9 2.142575 1_555
Co3 O0 2.165349 1_545
