# generated using pymatgen
data_SrH2(CO2)2
_symmetry_space_group_name_H-M   'P 1'
_cell_length_a   7.22213800
_cell_length_b   7.22213800
_cell_length_c   10.54395000
_cell_angle_alpha   90.00000000
_cell_angle_beta   90.00000000
_cell_angle_gamma   90.00000000
_symmetry_Int_Tables_number   1
_chemical_formula_structural   SrH2(CO2)2
_chemical_formula_sum   'Sr4 H8 C8 O16'
_cell_volume   549.96481179
_cell_formula_units_Z   4
loop_
 _symmetry_equiv_pos_site_id
 _symmetry_equiv_pos_as_xyz
  1  'x, y, z'
loop_
 _atom_site_type_symbol
 _atom_site_label
 _atom_site_symmetry_multiplicity
 _atom_site_fract_x
 _atom_site_fract_y
 _atom_site_fract_z
 _atom_site_occupancy
  Sr  Sr0  1  0.76623000  0.23377000  0.25000000  1
  Sr  Sr1  1  0.23377000  0.76623000  0.75000000  1
  Sr  Sr2  1  0.73377000  0.73377000  0.00000000  1
  Sr  Sr3  1  0.26623000  0.26623000  0.50000000  1
  H  H0  1  0.80201800  0.14490800  0.63385200  1
  H  H1  1  0.19798200  0.85509200  0.13385200  1
  H  H2  1  0.64490800  0.69798200  0.38385200  1
  H  H3  1  0.35509200  0.30201800  0.88385200  1
  H  H4  1  0.85509200  0.19798200  0.86614800  1
  H  H5  1  0.14490800  0.80201800  0.36614800  1
  H  H6  1  0.69798200  0.64490800  0.61614800  1
  H  H7  1  0.30201800  0.35509200  0.11614800  1
  C  C0  1  0.77640300  0.22703700  0.54619500  1
  C  C1  1  0.22359700  0.77296300  0.04619500  1
  C  C2  1  0.72703700  0.72359700  0.29619500  1
  C  C3  1  0.27296300  0.27640300  0.79619500  1
  C  C4  1  0.77296300  0.22359700  0.95380500  1
  C  C5  1  0.22703700  0.77640300  0.45380500  1
  C  C6  1  0.72359700  0.72703700  0.70380500  1
  C  C7  1  0.27640300  0.27296300  0.20380500  1
  O  O0  1  0.91593700  0.26463600  0.47670700  1
  O  O1  1  0.08406300  0.73536400  0.97670700  1
  O  O2  1  0.76463600  0.58406300  0.22670700  1
  O  O3  1  0.23536400  0.41593700  0.72670700  1
  O  O4  1  0.73536400  0.08406300  0.02329300  1
  O  O5  1  0.26463600  0.91593700  0.52329300  1
  O  O6  1  0.58406300  0.76463600  0.77329300  1
  O  O7  1  0.41593700  0.23536400  0.27329300  1
  O  O8  1  0.61254500  0.27234700  0.51953000  1
  O  O9  1  0.38745500  0.72765300  0.01953000  1
  O  O10  1  0.77234700  0.88745500  0.26953000  1
  O  O11  1  0.22765300  0.11254500  0.76953000  1
  O  O12  1  0.72765300  0.38745500  0.98047000  1
  O  O13  1  0.27234700  0.61254500  0.48047000  1
  O  O14  1  0.88745500  0.77234700  0.73047000  1
  O  O15  1  0.11254500  0.22765300  0.23047000  1
loop_
_geom_bond_atom_site_label_1
_geom_bond_atom_site_label_2
_geom_bond_distance
_geom_bond_site_symmetry_2
C0 H0 1.113681 1_555
C0 O8 1.259594 1_555
C0 O0 1.275179 1_555
C1 H1 1.113681 1_555
C1 O9 1.259594 1_555
C1 O1 1.275179 1_554
C2 H2 1.113681 1_555
C2 O10 1.259594 1_555
C2 O2 1.275179 1_555
C3 H3 1.113681 1_555
C3 O11 1.259594 1_555
C3 O3 1.275179 1_555
C4 H4 1.113681 1_555
C4 O12 1.259594 1_555
C4 O4 1.275179 1_556
C5 H5 1.113681 1_555
C5 O13 1.259594 1_555
C5 O5 1.275179 1_555
C6 H6 1.113681 1_555
C6 O14 1.259594 1_555
C6 O6 1.275179 1_555
C7 H7 1.113681 1_555
C7 O15 1.259594 1_555
C7 O7 1.275179 1_555
O0 Sr3 2.541784 1_655
O0 Sr0 2.632992 1_555
O1 Sr2 2.541784 1_456
O1 Sr1 2.632992 1_555
O2 Sr0 2.541784 1_555
O2 Sr2 2.632992 1_555
O3 Sr1 2.541784 1_555
O3 Sr3 2.632992 1_555
O4 Sr2 2.541784 1_545
O4 Sr0 2.632992 1_555
O5 Sr3 2.541784 1_565
O5 Sr1 2.632992 1_555
O6 Sr1 2.541784 1_555
O6 Sr2 2.632992 1_556
O7 Sr0 2.541784 1_555
O7 Sr3 2.632992 1_555
O8 Sr3 2.509986 1_555
O9 Sr2 2.509986 1_555
O10 Sr0 2.509986 1_565
O11 Sr1 2.509986 1_545
O12 Sr2 2.509986 1_556
O13 Sr3 2.509986 1_555
O14 Sr1 2.509986 1_655
O15 Sr0 2.509986 1_455
