# generated using pymatgen
data_NaPH6C2(NO)4
_symmetry_space_group_name_H-M   'P 1'
_cell_length_a   7.27988254
_cell_length_b   7.52553735
_cell_length_c   7.52553735
_cell_angle_alpha   107.00287159
_cell_angle_beta   97.25834994
_cell_angle_gamma   97.25834994
_symmetry_Int_Tables_number   1
_chemical_formula_structural   NaPH6C2(NO)4
_chemical_formula_sum   'Na2 P2 H12 C4 N8 O8'
_cell_volume   385.26864923
_cell_formula_units_Z   2
loop_
 _symmetry_equiv_pos_site_id
 _symmetry_equiv_pos_as_xyz
  1  'x, y, z'
loop_
 _atom_site_type_symbol
 _atom_site_label
 _atom_site_symmetry_multiplicity
 _atom_site_fract_x
 _atom_site_fract_y
 _atom_site_fract_z
 _atom_site_occupancy
  Na  Na0  1  0.00000000  0.00000000  0.00000000  1
  Na  Na1  1  0.50000000  0.00000000  0.00000000  1
  P  P0  1  0.25000000  0.24955900  0.75044100  1
  P  P1  1  0.75000000  0.75044100  0.24955900  1
  H  H0  1  0.09688900  0.12376300  0.43259800  1
  H  H1  1  0.40311100  0.56740200  0.87623700  1
  H  H2  1  0.90311100  0.87623700  0.56740200  1
  H  H3  1  0.59688900  0.43259800  0.12376300  1
  H  H4  1  0.57210100  0.23510200  0.61795900  1
  H  H5  1  0.92789900  0.38204100  0.76489800  1
  H  H6  1  0.42789900  0.76489800  0.38204100  1
  H  H7  1  0.07210100  0.61795900  0.23510200  1
  H  H8  1  0.64413700  0.23870400  0.40301500  1
  H  H9  1  0.85586300  0.59698500  0.76129600  1
  H  H10  1  0.35586300  0.76129600  0.59698500  1
  H  H11  1  0.14413700  0.40301500  0.23870400  1
  C  C0  1  0.36155600  0.19421300  0.39733900  1
  C  C1  1  0.13844400  0.60266100  0.80578700  1
  C  C2  1  0.63844400  0.80578700  0.60266100  1
  C  C3  1  0.86155600  0.39733900  0.19421300  1
  N  N0  1  0.22791900  0.18009400  0.50986600  1
  N  N1  1  0.27208100  0.49013400  0.81990600  1
  N  N2  1  0.77208000  0.81990600  0.49013400  1
  N  N3  1  0.72792000  0.50986600  0.18009400  1
  N  N4  1  0.54291700  0.24356300  0.48467600  1
  N  N5  1  0.95708300  0.51532400  0.75643700  1
  N  N6  1  0.45708300  0.75643700  0.51532400  1
  N  N7  1  0.04291700  0.48467600  0.24356300  1
  O  O0  1  0.06397600  0.16830500  0.78689000  1
  O  O1  1  0.43602400  0.21311000  0.83169500  1
  O  O2  1  0.93602400  0.83169500  0.21311000  1
  O  O3  1  0.56397600  0.78689000  0.16830500  1
  O  O4  1  0.31316100  0.16487100  0.22311200  1
  O  O5  1  0.18683900  0.77688800  0.83512900  1
  O  O6  1  0.68683900  0.83512900  0.77688800  1
  O  O7  1  0.81316100  0.22311200  0.16487100  1
loop_
_geom_bond_atom_site_label_1
_geom_bond_atom_site_label_2
_geom_bond_distance
_geom_bond_site_symmetry_2
Na0 O0 2.370842 1_554
Na0 O2 2.370842 1_445
Na0 O7 2.448226 1_455
Na0 O5 2.448226 1_544
Na0 O4 2.579849 1_555
Na0 O6 2.579849 1_444
Na1 O3 2.370842 1_545
Na1 O1 2.370842 1_554
Na1 O4 2.448226 1_555
Na1 O6 2.448226 1_544
Na1 O7 2.579849 1_555
Na1 O5 2.579849 1_544
H0 N0 1.020404 1_555
H1 N1 1.020404 1_555
H2 N2 1.020409 1_555
H3 N3 1.020409 1_555
H4 N4 1.020870 1_555
H5 N5 1.020870 1_555
H6 N6 1.020870 1_555
H7 N7 1.020870 1_555
H8 N4 1.014923 1_555
H9 N5 1.014923 1_555
H10 N6 1.014923 1_555
H11 N7 1.014923 1_555
C0 O4 1.259482 1_555
C0 N4 1.351717 1_555
C0 N0 1.381862 1_555
C1 O5 1.259482 1_555
C1 N5 1.351717 1_455
C1 N1 1.381862 1_555
C2 O6 1.259482 1_555
C2 N6 1.351717 1_555
C2 N2 1.381856 1_555
C3 O7 1.259482 1_555
C3 N7 1.351717 1_655
C3 N3 1.381856 1_555
N0 P0 1.711311 1_555
N1 P0 1.711311 1_555
N2 P1 1.711311 1_555
N3 P1 1.711311 1_555
O0 P0 1.505259 1_555
O1 P0 1.505259 1_555
O2 P1 1.505259 1_555
O3 P1 1.505259 1_555
