# generated using pymatgen
data_BaMgPb
_symmetry_space_group_name_H-M   'P 1'
_cell_length_a   5.08841500
_cell_length_b   5.08841500
_cell_length_c   8.53322300
_cell_angle_alpha   90.00000000
_cell_angle_beta   90.00000000
_cell_angle_gamma   90.00000000
_symmetry_Int_Tables_number   1
_chemical_formula_structural   BaMgPb
_chemical_formula_sum   'Ba2 Mg2 Pb2'
_cell_volume   220.94193013
_cell_formula_units_Z   2
loop_
 _symmetry_equiv_pos_site_id
 _symmetry_equiv_pos_as_xyz
  1  'x, y, z'
loop_
 _atom_site_type_symbol
 _atom_site_label
 _atom_site_symmetry_multiplicity
 _atom_site_fract_x
 _atom_site_fract_y
 _atom_site_fract_z
 _atom_site_occupancy
  Ba  Ba0  1  0.50000000  0.50000000  0.00000000  1
  Ba  Ba1  1  0.00000000  0.00000000  0.00000000  1
  Mg  Mg0  1  0.50000000  0.00000000  0.64892300  1
  Mg  Mg1  1  0.00000000  0.50000000  0.35107700  1
  Pb  Pb0  1  0.50000000  0.00000000  0.30549900  1
  Pb  Pb1  1  0.00000000  0.50000000  0.69450100  1
loop_
_geom_bond_atom_site_label_1
_geom_bond_atom_site_label_2
_geom_bond_distance
_geom_bond_site_symmetry_2
Ba0 Ba1 3.598053 1_655
Ba0 Ba1 3.598053 1_665
Ba0 Ba1 3.598053 1_565
Ba0 Ba1 3.598053 1_555
Ba0 Pb0 3.642646 1_565
Ba0 Pb1 3.642646 1_554
Ba0 Pb0 3.642646 1_555
Ba0 Pb1 3.642646 1_654
Ba0 Mg0 3.930384 1_564
Ba0 Mg0 3.930384 1_554
Ba0 Mg1 3.930384 1_555
Ba0 Mg1 3.930384 1_655
Ba1 Pb1 3.642646 1_554
Ba1 Pb0 3.642646 1_555
Ba1 Pb1 3.642646 1_544
Ba1 Pb0 3.642646 1_455
Ba1 Mg1 3.930384 1_545
Ba1 Mg0 3.930384 1_554
Ba1 Mg1 3.930384 1_555
Ba1 Mg0 3.930384 1_454
Mg0 Pb0 2.930514 1_555
Mg1 Pb1 2.930514 1_555
