# generated using pymatgen
data_YMg2
_symmetry_space_group_name_H-M   'P 1'
_cell_length_a   6.04798183
_cell_length_b   6.04797771
_cell_length_c   9.84954361
_cell_angle_alpha   90.00000000
_cell_angle_beta   90.00000000
_cell_angle_gamma   120.00002257
_symmetry_Int_Tables_number   1
_chemical_formula_structural   YMg2
_chemical_formula_sum   'Y4 Mg8'
_cell_volume   312.00912835
_cell_formula_units_Z   4
loop_
 _symmetry_equiv_pos_site_id
 _symmetry_equiv_pos_as_xyz
  1  'x, y, z'
loop_
 _atom_site_type_symbol
 _atom_site_label
 _atom_site_symmetry_multiplicity
 _atom_site_fract_x
 _atom_site_fract_y
 _atom_site_fract_z
 _atom_site_occupancy
  Y  Y0  1  0.33333300  0.66666700  0.06432004  1
  Y  Y1  1  0.66666700  0.33333300  0.56432004  1
  Y  Y2  1  0.66666700  0.33333300  0.93567996  1
  Y  Y3  1  0.33333300  0.66666700  0.43567996  1
  Mg  Mg0  1  -0.00000000  -0.00000000  -0.00000000  1
  Mg  Mg1  1  -0.00000000  -0.00000000  0.50000000  1
  Mg  Mg2  1  0.82924384  0.65848868  0.25000000  1
  Mg  Mg3  1  0.17075616  0.82924384  0.75000000  1
  Mg  Mg4  1  0.65848868  0.82924384  0.75000000  1
  Mg  Mg5  1  0.34151132  0.17075616  0.25000000  1
  Mg  Mg6  1  0.82924384  0.17075616  0.25000000  1
  Mg  Mg7  1  0.17075616  0.34151132  0.75000000  1
loop_
_geom_bond_atom_site_label_1
_geom_bond_atom_site_label_2
_geom_bond_distance
_geom_bond_site_symmetry_2
Y0 Y3 3.657726 1_555
Y0 Y2 3.714573 1_564
Y0 Y2 3.714575 1_454
Y0 Y2 3.714585 1_554
Y1 Y2 3.657726 1_555
Y1 Y3 3.714573 1_545
Y1 Y3 3.714575 1_655
Y1 Y3 3.714585 1_555
Mg0 Mg7 3.043504 1_554
Mg0 Mg2 3.043504 1_445
Mg0 Mg5 3.043504 1_555
Mg0 Mg4 3.043504 1_444
Mg0 Mg6 3.043507 1_455
Mg0 Mg3 3.043507 1_544
Mg0 Y0 3.548805 1_545
Mg0 Y2 3.548805 1_454
Mg0 Y2 3.548808 1_444
Mg0 Y0 3.548808 1_555
Mg0 Y0 3.548810 1_445
Mg0 Y2 3.548810 1_554
Mg1 Mg2 3.043504 1_445
Mg1 Mg7 3.043504 1_555
Mg1 Mg5 3.043504 1_555
Mg1 Mg4 3.043504 1_445
Mg1 Mg6 3.043507 1_455
Mg1 Mg3 3.043507 1_545
Mg1 Y3 3.548805 1_545
Mg1 Y1 3.548805 1_455
Mg1 Y1 3.548808 1_445
Mg1 Y3 3.548808 1_555
Mg1 Y3 3.548810 1_445
Mg1 Y1 3.548810 1_555
Mg2 Mg5 2.949795 1_555
Mg2 Mg6 2.949795 1_555
Mg2 Mg5 3.098182 1_665
Mg2 Mg6 3.098182 1_565
Mg2 Y2 3.533425 1_554
Mg2 Y1 3.533425 1_555
Mg2 Y0 3.534274 1_655
Mg2 Y3 3.534274 1_655
Mg2 Y3 3.534274 1_555
Mg2 Y0 3.534274 1_555
Mg3 Mg7 2.949795 1_555
Mg3 Mg4 2.949797 1_555
Mg3 Mg7 3.098182 1_565
Mg3 Mg4 3.098184 1_455
Mg3 Y0 3.533421 1_556
Mg3 Y3 3.533421 1_555
Mg3 Y2 3.534273 1_565
Mg3 Y1 3.534273 1_565
Mg3 Y1 3.534273 1_455
Mg3 Y2 3.534273 1_455
Mg4 Mg7 2.949795 1_555
Mg4 Mg7 3.098182 1_665
Mg4 Y0 3.533426 1_556
Mg4 Y3 3.533426 1_555
Mg4 Y2 3.534273 1_565
Mg4 Y1 3.534273 1_565
Mg4 Y2 3.534273 1_555
Mg4 Y1 3.534273 1_555
Mg5 Mg6 2.949797 1_555
Mg5 Mg6 3.098184 1_455
Mg5 Y2 3.533426 1_554
Mg5 Y1 3.533426 1_555
Mg5 Y3 3.534273 1_545
Mg5 Y0 3.534273 1_545
Mg5 Y3 3.534273 1_555
Mg5 Y0 3.534273 1_555
Mg6 Y2 3.533421 1_554
Mg6 Y1 3.533421 1_555
Mg6 Y3 3.534273 1_545
Mg6 Y0 3.534273 1_545
Mg6 Y3 3.534273 1_655
Mg6 Y0 3.534273 1_655
Mg7 Y0 3.533425 1_556
Mg7 Y3 3.533425 1_555
Mg7 Y2 3.534274 1_455
Mg7 Y1 3.534274 1_455
Mg7 Y1 3.534274 1_555
Mg7 Y2 3.534274 1_555
