# generated using pymatgen
data_Na4Al3Si3NO15
_symmetry_space_group_name_H-M   'P 1'
_cell_length_a   9.15160900
_cell_length_b   9.24661322
_cell_length_c   9.27912646
_cell_angle_alpha   89.28017391
_cell_angle_beta   89.28425392
_cell_angle_gamma   88.38605628
_symmetry_Int_Tables_number   1
_chemical_formula_structural   Na4Al3Si3NO15
_chemical_formula_sum   'Na8 Al6 Si6 N2 O30'
_cell_volume   784.78125095
_cell_formula_units_Z   2
loop_
 _symmetry_equiv_pos_site_id
 _symmetry_equiv_pos_as_xyz
  1  'x, y, z'
loop_
 _atom_site_type_symbol
 _atom_site_label
 _atom_site_symmetry_multiplicity
 _atom_site_fract_x
 _atom_site_fract_y
 _atom_site_fract_z
 _atom_site_occupancy
  Na  Na0  1  0.78898100  0.20149000  0.81228100  1
  Na  Na1  1  0.20996000  0.80630000  0.78950200  1
  Na  Na2  1  0.71610300  0.73431400  0.72892700  1
  Na  Na3  1  0.26518400  0.26070900  0.73476600  1
  Na  Na4  1  0.77673100  0.23865600  0.21611700  1
  Na  Na5  1  0.27380200  0.74369100  0.26378000  1
  Na  Na6  1  0.77595700  0.77642900  0.23281700  1
  Na  Na7  1  0.19448200  0.20681900  0.19891600  1
  Al  Al0  1  0.74394400  0.50027200  0.99199800  1
  Al  Al1  1  0.49662100  0.00261400  0.75288500  1
  Al  Al2  1  0.00187500  0.26055500  0.50185200  1
  Al  Al3  1  0.99550100  0.76471700  0.49346200  1
  Al  Al4  1  0.51887700  0.03042800  0.25182700  1
  Al  Al5  1  0.23438800  0.50694200  0.99209300  1
  Si  Si0  1  0.48944400  0.25842300  0.99943400  1
  Si  Si1  1  0.99223100  0.51090500  0.74008000  1
  Si  Si2  1  0.25635200  0.00395000  0.49276100  1
  Si  Si3  1  0.75051800  0.02454900  0.51730100  1
  Si  Si4  1  0.99202100  0.50612400  0.24696500  1
  Si  Si5  1  0.48384300  0.74368600  0.99142800  1
  N  N0  1  0.02922200  0.11023400  0.91798200  1
  N  N1  1  0.49193800  0.49573300  0.50008500  1
  O  O0  1  0.63371500  0.65254100  0.95063500  1
  O  O1  1  0.35053700  0.36097400  0.94625800  1
  O  O2  1  0.84630600  0.46547200  0.83248400  1
  O  O3  1  0.12673500  0.55290900  0.84304000  1
  O  O4  1  0.52487300  0.15060500  0.86371300  1
  O  O5  1  0.45874300  0.83990400  0.84144300  1
  O  O6  1  0.66662100  0.97230200  0.66581500  1
  O  O7  1  0.34800900  0.03948000  0.63841500  1
  O  O8  1  0.94895400  0.65719600  0.64487400  1
  O  O9  1  0.05063900  0.37402300  0.64284500  1
  O  O10  1  0.85486900  0.15758500  0.56129200  1
  O  O11  1  0.15816900  0.85805900  0.52568300  1
  O  O12  1  0.84443000  0.88206700  0.45862000  1
  O  O13  1  0.15281800  0.14762700  0.45627700  1
  O  O14  1  0.95724300  0.36272700  0.34615200  1
  O  O15  1  0.01860000  0.65511200  0.33843100  1
  O  O16  1  0.63130300  0.08838400  0.40117200  1
  O  O17  1  0.35959300  0.97033700  0.35278300  1
  O  O18  1  0.44246400  0.17906400  0.15032200  1
  O  O19  1  0.52497800  0.73765300  0.20501600  1
  O  O20  1  0.84893600  0.53603300  0.14479900  1
  O  O21  1  0.14091900  0.46915400  0.15396400  1
  O  O22  1  0.47986200  0.87417900  0.11899000  1
  O  O23  1  0.70369500  0.00868400  0.17622500  1
  O  O24  1  0.64050800  0.34646000  0.02537000  1
  O  O25  1  0.32933700  0.66435300  0.01613600  1
  O  O26  1  0.15763900  0.05545000  0.91433000  1
  O  O27  1  0.89266100  0.84566600  0.96889700  1
  O  O28  1  0.01475200  0.80628400  0.01537000  1
  O  O29  1  0.99531400  0.18337600  0.02959500  1
loop_
_geom_bond_atom_site_label_1
_geom_bond_atom_site_label_2
_geom_bond_distance
_geom_bond_site_symmetry_2
Na0 O10 2.434611 1_555
Na0 O4 2.514100 1_555
Na0 O2 2.520841 1_555
Na0 O24 2.729404 1_556
Na0 O29 2.780052 1_556
Na0 O6 2.799312 1_545
Na1 O5 2.362949 1_555
Na1 O3 2.525551 1_555
Na1 O11 2.536381 1_555
Na1 O26 2.620961 1_565
Na1 O25 2.691841 1_556
Na1 O28 2.736887 1_556
Na1 O7 2.871184 1_565
Na2 O6 2.304061 1_555
Na2 O0 2.307985 1_555
Na2 O8 2.354706 1_555
Na2 O5 2.724919 1_555
Na2 O27 2.978316 1_555
Na3 O1 2.333611 1_555
Na3 O7 2.345230 1_555
Na3 O9 2.363029 1_555
Na3 O26 2.707747 1_555
Na3 O4 2.832030 1_555
Na4 O23 2.282901 1_555
Na4 O24 2.370947 1_555
Na4 O14 2.385880 1_555
Na4 O16 2.576383 1_555
Na4 O29 2.671421 1_555
Na4 O20 2.912268 1_555
Na5 O19 2.355106 1_555
Na5 O17 2.417198 1_555
Na5 O25 2.463553 1_555
Na5 O15 2.580380 1_555
Na5 O22 2.615566 1_555
Na5 O11 2.842797 1_555
Na5 O21 3.038299 1_555
Na6 O23 2.285935 1_565
Na6 O19 2.352487 1_555
Na6 O12 2.419834 1_555
Na6 O20 2.450005 1_555
Na6 O15 2.652576 1_655
Na6 O27 2.735264 1_554
Na7 O18 2.316042 1_555
Na7 O29 2.437238 1_455
Na7 O13 2.470641 1_555
Na7 O21 2.492197 1_555
Al0 O0 1.750260 1_555
Al0 O24 1.752760 1_556
Al0 O20 1.762557 1_556
Al0 O2 1.769827 1_555
Al1 O5 1.746479 1_545
Al1 O4 1.748977 1_555
Al1 O7 1.759266 1_555
Al1 O6 1.761099 1_545
Al2 O10 1.749604 1_455
Al2 O9 1.756999 1_555
Al2 O13 1.758588 1_555
Al2 O14 1.762220 1_455
Al3 O12 1.763864 1_555
Al3 O8 1.765688 1_555
Al3 O11 1.772134 1_655
Al3 O15 1.777137 1_655
Al4 O18 1.787419 1_555
Al4 O17 1.819239 1_545
Al4 O23 1.829774 1_555
Al4 O16 1.830720 1_555
Al4 O22 1.954223 1_545
Al5 O25 1.734244 1_556
Al5 O1 1.747793 1_555
Al5 O3 1.749249 1_555
Al5 O21 1.755392 1_556
N0 O26 1.266810 1_555
N0 O29 1.274386 1_456
N0 Na0 2.537004 1_455
O0 Si5 1.632390 1_555
O1 Si0 1.641544 1_555
O2 Si1 1.639828 1_555
O3 Si1 1.626167 1_455
O4 Si0 1.639571 1_555
O5 Si5 1.657284 1_555
O6 Si3 1.643087 1_565
O7 Si2 1.641098 1_555
O8 Si1 1.647917 1_555
O9 Si1 1.637163 1_455
O10 Si3 1.637183 1_555
O11 Si2 1.664795 1_565
O12 Si3 1.647249 1_565
O13 Si2 1.644128 1_555
O14 Si4 1.640816 1_555
O15 Si4 1.652510 1_455
O16 Si3 1.636151 1_555
O17 Si2 1.624593 1_565
O18 Si0 1.631116 1_554
O19 O22 1.534564 1_555
O19 Si5 2.021750 1_554
O20 Si4 1.641316 1_555
O21 Si4 1.634074 1_455
O22 Si5 1.700190 1_554
O24 Si0 1.645741 1_554
O25 Si5 1.623612 1_554
O27 O28 1.245857 1_656
