# generated using pymatgen
data_K2(TeO4)3
_symmetry_space_group_name_H-M   'P 1'
_cell_length_a   13.42725222
_cell_length_b   11.55866321
_cell_length_c   8.28383537
_cell_angle_alpha   83.42317825
_cell_angle_beta   58.77863976
_cell_angle_gamma   37.79818199
_symmetry_Int_Tables_number   1
_chemical_formula_structural   K2(TeO4)3
_chemical_formula_sum   'K4 Te6 O24'
_cell_volume   556.92558899
_cell_formula_units_Z   2
loop_
 _symmetry_equiv_pos_site_id
 _symmetry_equiv_pos_as_xyz
  1  'x, y, z'
loop_
 _atom_site_type_symbol
 _atom_site_label
 _atom_site_symmetry_multiplicity
 _atom_site_fract_x
 _atom_site_fract_y
 _atom_site_fract_z
 _atom_site_occupancy
  K  K0  1  0.29831000  0.05775600  0.74142000  1
  K  K1  1  0.90251400  0.74142000  0.05775600  1
  K  K2  1  0.50858000  0.34748600  0.95169000  1
  K  K3  1  0.19224400  0.95169000  0.34748600  1
  Te  Te0  1  0.25529900  0.24470100  0.24470100  1
  Te  Te1  1  0.00529900  0.99470100  0.99470100  1
  Te  Te2  1  0.62909700  0.47746800  0.49844900  1
  Te  Te3  1  0.39498600  0.49844900  0.47746800  1
  Te  Te4  1  0.75155100  0.85501400  0.62090300  1
  Te  Te5  1  0.77253200  0.62090300  0.85501400  1
  O  O0  1  0.13903800  0.24132500  0.18429000  1
  O  O1  1  0.43534700  0.18429000  0.24132500  1
  O  O2  1  0.06571000  0.81465300  0.11096200  1
  O  O3  1  0.00867500  0.11096200  0.81465300  1
  O  O4  1  0.73314300  0.37810900  0.64095800  1
  O  O5  1  0.24778900  0.64095800  0.37810900  1
  O  O6  1  0.60904200  0.00221100  0.51685700  1
  O  O7  1  0.87189100  0.51685700  0.00221100  1
  O  O8  1  0.69668000  0.58098200  0.39482600  1
  O  O9  1  0.32751200  0.39482600  0.58098200  1
  O  O10  1  0.85517400  0.92248800  0.55332000  1
  O  O11  1  0.66901800  0.55332000  0.92248800  1
  O  O12  1  0.65883000  0.76652200  0.71213600  1
  O  O13  1  0.86251200  0.71213600  0.76652200  1
  O  O14  1  0.53786400  0.38748800  0.59117000  1
  O  O15  1  0.48347800  0.59117000  0.38748800  1
  O  O16  1  0.31978300  0.78936900  0.79786100  1
  O  O17  1  0.09298800  0.79786100  0.78936900  1
  O  O18  1  0.45213900  0.15701200  0.93021700  1
  O  O19  1  0.46063100  0.93021700  0.15701200  1
  O  O20  1  0.93072600  0.16629800  0.20923100  1
  O  O21  1  0.69374500  0.20923100  0.16629800  1
  O  O22  1  0.04076900  0.55625500  0.31927400  1
  O  O23  1  0.08370200  0.31927400  0.55625500  1
loop_
_geom_bond_atom_site_label_1
_geom_bond_atom_site_label_2
_geom_bond_distance
_geom_bond_site_symmetry_2
K0 O7 2.719575 1_456
K0 O12 2.835687 1_545
K0 O16 2.884324 1_545
K0 O8 2.888455 1_545
K0 O0 3.002185 1_556
K0 O6 3.045432 1_555
K0 O23 3.090010 1_555
K0 O3 3.119373 1_555
K1 O6 2.719577 1_565
K1 O13 2.835687 1_554
K1 O17 2.884333 1_654
K1 O9 2.888455 1_654
K1 O1 3.002185 1_565
K1 O7 3.045420 1_555
K1 O22 3.090010 1_655
K1 O2 3.119373 1_655
K2 O5 2.719570 1_556
K2 O14 2.835687 1_555
K2 O18 2.884336 1_555
K2 O10 2.888455 1_545
K2 O2 3.002185 1_556
K2 O4 3.045422 1_555
K2 O21 3.090010 1_556
K2 O1 3.119373 1_556
K3 O4 2.719575 1_465
K3 O15 2.835687 1_555
K3 O19 2.884324 1_555
K3 O11 2.888455 1_554
K3 O3 3.002185 1_565
K3 O5 3.045431 1_555
K3 O20 3.090010 1_465
K3 O0 3.119373 1_565
O0 Te0 1.897235 1_555
O1 Te0 1.897235 1_555
O2 Te1 1.897235 1_554
O3 Te1 1.897235 1_545
O4 Te2 1.878280 1_555
O5 Te3 1.878288 1_555
O6 Te4 1.878280 1_545
O7 Te5 1.878287 1_554
O8 Te2 1.914407 1_555
O9 Te3 1.914407 1_555
O10 Te4 1.914407 1_555
O11 Te5 1.914407 1_555
O12 Te5 1.980061 1_555
O12 Te4 2.006825 1_555
O13 Te4 1.980061 1_555
O13 Te5 2.006825 1_555
O14 Te3 1.980061 1_555
O14 Te2 2.006825 1_555
O15 Te2 1.980061 1_555
O15 Te3 2.006825 1_555
O16 Te1 2.008195 1_555
O16 Te2 2.026029 1_555
O17 Te1 2.008185 1_555
O17 Te3 2.026029 1_555
O18 Te0 2.008191 1_556
O18 Te4 2.026025 1_545
O19 Te0 2.008194 1_565
O19 Te5 2.026026 1_554
O20 Te1 1.979616 1_644
O20 Te2 1.993285 1_555
O21 Te1 1.979616 1_644
O21 Te3 1.993285 1_555
O22 Te0 1.979616 1_555
O22 Te4 1.993285 1_455
O23 Te0 1.979616 1_555
O23 Te5 1.993285 1_455
