# generated using pymatgen
data_Zr3AlFe8
_symmetry_space_group_name_H-M   'P 1'
_cell_length_a   8.57157762
_cell_length_b   8.57157762
_cell_length_c   8.57157722
_cell_angle_alpha   33.54923289
_cell_angle_beta   33.54923289
_cell_angle_gamma   33.54923920
_symmetry_Int_Tables_number   1
_chemical_formula_structural   Zr3AlFe8
_chemical_formula_sum   'Zr3 Al1 Fe8'
_cell_volume   171.32669821
_cell_formula_units_Z   1
loop_
 _symmetry_equiv_pos_site_id
 _symmetry_equiv_pos_as_xyz
  1  'x, y, z'
loop_
 _atom_site_type_symbol
 _atom_site_label
 _atom_site_symmetry_multiplicity
 _atom_site_fract_x
 _atom_site_fract_y
 _atom_site_fract_z
 _atom_site_occupancy
  Zr  Zr0  1  0.62505574  0.62505574  0.62505574  1
  Zr  Zr1  1  0.00370512  0.00370512  0.00370512  1
  Zr  Zr2  1  0.49721036  0.49721036  0.49721036  1
  Al  Al0  1  0.12619376  0.12619376  0.12619376  1
  Fe  Fe0  1  0.56403068  0.06178752  0.56403068  1
  Fe  Fe1  1  0.06186399  0.56013964  0.06186399  1
  Fe  Fe2  1  0.06178752  0.56403068  0.56403068  1
  Fe  Fe3  1  0.56013964  0.06186399  0.06186399  1
  Fe  Fe4  1  0.81189455  0.81189455  0.81189455  1
  Fe  Fe5  1  0.31222398  0.31222398  0.31222398  1
  Fe  Fe6  1  0.56403068  0.56403068  0.06178752  1
  Fe  Fe7  1  0.06186399  0.06186399  0.56013964  1
loop_
_geom_bond_atom_site_label_1
_geom_bond_atom_site_label_2
_geom_bond_distance
_geom_bond_site_symmetry_2
Zr0 Zr1 3.060527 1_665
Zr0 Zr1 3.060527 1_566
Zr0 Zr1 3.060527 1_656
Al0 Fe7 2.848327 1_555
Al0 Fe1 2.848327 1_555
Al0 Fe3 2.848327 1_555
Al0 Fe4 2.893561 1_445
Al0 Fe4 2.893561 1_454
Al0 Fe4 2.893561 1_544
Al0 Fe2 2.906244 1_554
Al0 Fe0 2.906244 1_554
Al0 Fe0 2.906244 1_455
Al0 Fe2 2.906244 1_545
Al0 Fe6 2.906245 1_545
Al0 Fe6 2.906245 1_455
Al0 Zr1 2.969711 1_555
Al0 Zr2 2.999073 1_554
Al0 Zr2 2.999073 1_545
Al0 Zr2 2.999073 1_455
Fe0 Fe4 2.443112 1_545
Fe0 Fe6 2.462724 1_546
Fe0 Fe2 2.462725 1_645
Fe0 Fe6 2.484921 1_555
Fe0 Fe2 2.484922 1_555
Fe0 Fe5 2.498939 1_555
Fe0 Zr2 2.829563 1_555
Fe0 Zr1 2.864661 1_655
Fe0 Zr1 2.864661 1_556
Fe0 Zr0 2.913620 1_545
Fe1 Fe4 2.465147 1_454
Fe1 Fe7 2.465291 1_555
Fe1 Fe3 2.465292 1_555
Fe1 Fe7 2.482354 1_564
Fe1 Fe3 2.482355 1_465
Fe1 Fe5 2.489978 1_555
Fe1 Zr0 2.917183 1_455
Fe1 Zr0 2.917183 1_554
Fe1 Zr2 2.921203 1_554
Fe1 Zr2 2.921203 1_455
Fe1 Zr1 3.008053 1_565
Fe2 Fe4 2.443112 1_455
Fe2 Fe6 2.462724 1_456
Fe2 Fe6 2.484921 1_555
Fe2 Fe5 2.498939 1_555
Fe2 Zr2 2.829563 1_555
Fe2 Zr1 2.864661 1_565
Fe2 Zr1 2.864661 1_556
Fe2 Zr0 2.913620 1_455
Fe3 Fe4 2.465147 1_544
Fe3 Fe7 2.465291 1_555
Fe3 Fe7 2.482354 1_654
Fe3 Fe5 2.489978 1_555
Fe3 Zr0 2.917183 1_545
Fe3 Zr0 2.917183 1_554
Fe3 Zr2 2.921203 1_554
Fe3 Zr2 2.921203 1_545
Fe3 Zr1 3.008053 1_655
Fe4 Fe6 2.443112 1_556
Fe4 Fe7 2.465147 1_665
Fe4 Zr2 2.892087 1_556
Fe4 Zr2 2.892087 1_565
Fe4 Zr2 2.892087 1_655
Fe5 Fe7 2.489978 1_555
Fe5 Fe6 2.498939 1_555
Fe5 Zr0 2.899448 1_554
Fe5 Zr0 2.899448 1_455
Fe5 Zr0 2.899448 1_545
Fe5 Zr1 2.919192 1_556
Fe5 Zr1 2.919192 1_655
Fe5 Zr1 2.919192 1_565
Fe6 Zr2 2.829562 1_555
Fe6 Zr1 2.864661 1_565
Fe6 Zr1 2.864661 1_655
Fe6 Zr0 2.913620 1_554
Fe7 Zr0 2.917184 1_455
Fe7 Zr0 2.917184 1_545
Fe7 Zr2 2.921204 1_455
Fe7 Zr2 2.921204 1_545
Fe7 Zr1 3.008053 1_556
