# generated using pymatgen
data_Rb2AsH5O6
_symmetry_space_group_name_H-M   'P 1'
_cell_length_a   7.86155922
_cell_length_b   7.95176835
_cell_length_c   13.82312900
_cell_angle_alpha   90.00000000
_cell_angle_beta   90.00000000
_cell_angle_gamma   116.89722111
_symmetry_Int_Tables_number   1
_chemical_formula_structural   Rb2AsH5O6
_chemical_formula_sum   'Rb8 As4 H20 O24'
_cell_volume   770.64740683
_cell_formula_units_Z   4
loop_
 _symmetry_equiv_pos_site_id
 _symmetry_equiv_pos_as_xyz
  1  'x, y, z'
loop_
 _atom_site_type_symbol
 _atom_site_label
 _atom_site_symmetry_multiplicity
 _atom_site_fract_x
 _atom_site_fract_y
 _atom_site_fract_z
 _atom_site_occupancy
  Rb  Rb0  1  0.49467900  0.75192500  0.76312600  1
  Rb  Rb1  1  0.00532100  0.74807500  0.26312600  1
  Rb  Rb2  1  0.50532100  0.24807500  0.23687400  1
  Rb  Rb3  1  0.99467900  0.25192500  0.73687400  1
  Rb  Rb4  1  0.00626200  0.75440800  0.58330500  1
  Rb  Rb5  1  0.49373800  0.74559200  0.08330500  1
  Rb  Rb6  1  0.99373800  0.24559200  0.41669500  1
  Rb  Rb7  1  0.50626200  0.25440800  0.91669500  1
  As  As0  1  0.49510300  0.23799600  0.63994600  1
  As  As1  1  0.00489700  0.26200400  0.13994600  1
  As  As2  1  0.50489700  0.76200400  0.36005400  1
  As  As3  1  0.99510300  0.73799600  0.86005400  1
  H  H0  1  0.71505800  0.05144800  0.58978200  1
  H  H1  1  0.78494200  0.44855200  0.08978200  1
  H  H2  1  0.28494200  0.94855200  0.41021800  1
  H  H3  1  0.21505800  0.55144800  0.91021800  1
  H  H4  1  0.79224800  0.12285000  0.96486800  1
  H  H5  1  0.70775200  0.37715000  0.46486800  1
  H  H6  1  0.20775200  0.87715000  0.03513200  1
  H  H7  1  0.29224800  0.62285000  0.53513200  1
  H  H8  1  0.71107000  0.87273100  0.53689500  1
  H  H9  1  0.78893000  0.62726900  0.03689500  1
  H  H10  1  0.28893000  0.12726900  0.46310500  1
  H  H11  1  0.21107000  0.37273100  0.96310500  1
  H  H12  1  0.78768000  0.94306400  0.91132000  1
  H  H13  1  0.71232000  0.55693600  0.41132000  1
  H  H14  1  0.21232000  0.05693600  0.08868000  1
  H  H15  1  0.28768000  0.44306400  0.58868000  1
  H  H16  1  0.71806200  0.49243700  0.73469000  1
  H  H17  1  0.78193800  0.00756300  0.23469000  1
  H  H18  1  0.28193800  0.50756300  0.26531000  1
  H  H19  1  0.21806200  0.99243700  0.76531000  1
  O  O0  1  0.58216000  0.45314200  0.70740900  1
  O  O1  1  0.91784000  0.04685800  0.20740900  1
  O  O2  1  0.41784000  0.54685800  0.29259100  1
  O  O3  1  0.08216000  0.95314200  0.79259100  1
  O  O4  1  0.68255600  0.24676000  0.57328800  1
  O  O5  1  0.81744400  0.25324000  0.07328800  1
  O  O6  1  0.31744400  0.75324000  0.42671200  1
  O  O7  1  0.18255600  0.74676000  0.92671200  1
  O  O8  1  0.41961200  0.05908800  0.72331000  1
  O  O9  1  0.08038800  0.44091200  0.22331000  1
  O  O10  1  0.58038800  0.94091200  0.27669000  1
  O  O11  1  0.91961200  0.55908800  0.77669000  1
  O  O12  1  0.30827400  0.23402400  0.57487700  1
  O  O13  1  0.19172600  0.26597600  0.07487700  1
  O  O14  1  0.69172600  0.76597600  0.42512300  1
  O  O15  1  0.80827400  0.73402400  0.92512300  1
  O  O16  1  0.75392000  0.94827400  0.59799700  1
  O  O17  1  0.74608000  0.55172600  0.09799700  1
  O  O18  1  0.24608000  0.05172600  0.40200300  1
  O  O19  1  0.25392000  0.44827400  0.90200300  1
  O  O20  1  0.74679800  0.04459200  0.90487100  1
  O  O21  1  0.75320200  0.45540800  0.40487100  1
  O  O22  1  0.25320200  0.95540800  0.09512900  1
  O  O23  1  0.24679800  0.54459200  0.59512900  1
loop_
_geom_bond_atom_site_label_1
_geom_bond_atom_site_label_2
_geom_bond_distance
_geom_bond_site_symmetry_2
As0 O12 1.710358 1_555
As0 O4 1.712503 1_555
As0 O8 1.714675 1_555
As0 O0 1.790385 1_555
As1 O13 1.710358 1_555
As1 O5 1.712503 1_455
As1 O9 1.714675 1_555
As1 O1 1.790385 1_455
As2 O14 1.710358 1_555
As2 O6 1.712503 1_555
As2 O10 1.714675 1_555
As2 O2 1.790385 1_555
As3 O15 1.710358 1_555
As3 O7 1.712503 1_655
As3 O11 1.714675 1_555
As3 O3 1.790385 1_655
H0 O16 1.003046 1_545
H0 Rb3 2.887414 1_555
H1 O17 1.003046 1_555
H1 Rb2 2.887414 1_555
H2 O18 1.003046 1_565
H2 Rb1 2.887414 1_555
H3 O19 1.003046 1_555
H3 Rb0 2.887414 1_555
H4 O20 1.000775 1_555
H4 Rb7 2.953076 1_555
H5 O21 1.000775 1_555
H5 Rb6 2.953076 1_555
H6 O22 1.000775 1_555
H6 Rb5 2.953076 1_555
H7 O23 1.000775 1_555
H7 Rb4 2.953076 1_555
H8 O16 1.002306 1_555
H8 Rb4 2.942428 1_655
H9 O17 1.002306 1_555
H9 Rb5 2.942428 1_555
H10 O18 1.002306 1_555
H10 Rb6 2.942428 1_455
H11 O19 1.002306 1_555
H11 Rb7 2.942428 1_555
H12 O20 0.998892 1_565
H12 Rb0 2.940182 1_555
H13 O21 0.998892 1_555
H13 Rb1 2.940182 1_655
H14 O22 0.998892 1_545
H14 Rb2 2.940182 1_555
H15 O23 0.998892 1_555
H15 Rb3 2.940182 1_455
H16 O0 1.038882 1_555
H16 O11 1.539083 1_555
H17 O1 1.038882 1_555
H17 O10 1.539083 1_545
H18 O2 1.038882 1_555
H18 O9 1.539083 1_555
H19 O3 1.038882 1_555
H19 O8 1.539083 1_565
O0 Rb0 2.861682 1_555
O1 Rb1 2.861682 1_645
O2 Rb2 2.861682 1_555
O3 Rb3 2.861682 1_465
O4 Rb3 3.323380 1_555
O5 Rb2 3.323380 1_555
O6 Rb1 3.323380 1_555
O7 Rb0 3.323380 1_555
O8 Rb0 2.814447 1_545
O8 Rb7 3.010804 1_555
O9 Rb1 2.814447 1_555
O9 Rb6 3.010804 1_455
O10 Rb2 2.814447 1_565
O10 Rb5 3.010804 1_555
O11 Rb3 2.814447 1_555
O11 Rb4 3.010804 1_655
O12 Rb3 3.380857 1_455
O13 Rb2 3.380857 1_555
O14 Rb1 3.380857 1_655
O15 Rb0 3.380857 1_555
O16 Rb0 2.987062 1_555
O16 Rb3 2.993810 1_565
O16 Rb4 3.019962 1_655
O17 Rb1 2.987062 1_655
O17 Rb2 2.993810 1_555
O17 Rb5 3.019962 1_555
O18 Rb2 2.987062 1_555
O18 Rb1 2.993810 1_545
O18 Rb6 3.019962 1_455
O19 Rb3 2.987062 1_455
O19 Rb0 2.993810 1_555
O19 Rb7 3.019962 1_555
O20 Rb3 3.000262 1_555
O20 Rb0 3.001683 1_545
O20 Rb7 3.039847 1_555
O21 Rb2 3.000262 1_555
O21 Rb1 3.001683 1_655
O21 Rb6 3.039847 1_555
O22 Rb1 3.000262 1_555
O22 Rb2 3.001683 1_565
O22 Rb5 3.039847 1_555
O23 Rb0 3.000262 1_555
O23 Rb3 3.001683 1_455
O23 Rb4 3.039847 1_555
