# generated using pymatgen
data_Na4AlFe3O8
_symmetry_space_group_name_H-M   'P 1'
_cell_length_a   5.43911000
_cell_length_b   5.75610012
_cell_length_c   7.11609578
_cell_angle_alpha   89.98993655
_cell_angle_beta   89.97504817
_cell_angle_gamma   89.90986719
_symmetry_Int_Tables_number   1
_chemical_formula_structural   Na4AlFe3O8
_chemical_formula_sum   'Na4 Al1 Fe3 O8'
_cell_volume   222.79086591
_cell_formula_units_Z   1
loop_
 _symmetry_equiv_pos_site_id
 _symmetry_equiv_pos_as_xyz
  1  'x, y, z'
loop_
 _atom_site_type_symbol
 _atom_site_label
 _atom_site_symmetry_multiplicity
 _atom_site_fract_x
 _atom_site_fract_y
 _atom_site_fract_z
 _atom_site_occupancy
  Na  Na0  1  0.51177200  0.92026700  0.37441100  1
  Na  Na1  1  0.00872800  0.08185000  0.62054300  1
  Na  Na2  1  0.00982700  0.58372000  0.88388400  1
  Na  Na3  1  0.51237400  0.41042300  0.12152100  1
  Al  Al0  1  0.02106800  0.06517400  0.12603200  1
  Fe  Fe0  1  0.02123300  0.56710500  0.36794800  1
  Fe  Fe1  1  0.52137300  0.43553600  0.62654900  1
  Fe  Fe2  1  0.52101000  0.93596600  0.87865400  1
  O  O0  1  0.94096700  0.88578200  0.32244700  1
  O  O1  1  0.44068700  0.11456900  0.65996000  1
  O  O2  1  0.43916300  0.61541400  0.84297800  1
  O  O3  1  0.94129000  0.36311000  0.16559100  1
  O  O4  1  0.36830000  0.54677600  0.40438200  1
  O  O5  1  0.86824100  0.46393000  0.59339200  1
  O  O6  1  0.86506100  0.96638500  0.92072400  1
  O  O7  1  0.34490700  0.04399200  0.09098300  1
loop_
_geom_bond_atom_site_label_1
_geom_bond_atom_site_label_2
_geom_bond_distance
_geom_bond_site_symmetry_2
Na0 O4 2.298104 1_555
Na0 O7 2.323331 1_565
Na0 O1 2.351193 1_565
Na0 O0 2.371405 1_555
Na1 O5 2.335120 1_455
Na1 O6 2.369604 1_445
Na1 O1 2.374058 1_555
Na1 O0 2.431502 1_445
Na2 O5 2.311978 1_455
Na2 O6 2.352656 1_455
Na2 O2 2.360494 1_555
Na2 O3 2.402098 1_456
Na3 O4 2.297600 1_555
Na3 O7 2.309128 1_555
Na3 O2 2.340535 1_554
Na3 O3 2.369314 1_555
Al0 O7 1.782846 1_555
Al0 O6 1.783467 1_444
Al0 O3 1.790616 1_455
Al0 O0 1.791659 1_445
Fe0 O5 1.902349 1_455
Fe0 O3 1.908971 1_455
Fe0 O4 1.908973 1_555
Fe0 O0 1.912492 1_455
Fe1 O4 1.897825 1_555
Fe1 O5 1.908511 1_555
Fe1 O2 1.908531 1_555
Fe1 O1 1.914355 1_555
Fe2 O7 1.893221 1_566
Fe2 O6 1.903602 1_555
Fe2 O1 1.915279 1_565
Fe2 O2 1.915720 1_555
