# generated using pymatgen
data_Li6V3P8O29
_symmetry_space_group_name_H-M   'P 1'
_cell_length_a   9.79104288
_cell_length_b   9.79427227
_cell_length_c   13.99975167
_cell_angle_alpha   89.51779670
_cell_angle_beta   89.65305468
_cell_angle_gamma   60.12610849
_symmetry_Int_Tables_number   1
_chemical_formula_structural   Li6V3P8O29
_chemical_formula_sum   'Li12 V6 P16 O58'
_cell_volume   1164.08899877
_cell_formula_units_Z   2
loop_
 _symmetry_equiv_pos_site_id
 _symmetry_equiv_pos_as_xyz
  1  'x, y, z'
loop_
 _atom_site_type_symbol
 _atom_site_label
 _atom_site_symmetry_multiplicity
 _atom_site_fract_x
 _atom_site_fract_y
 _atom_site_fract_z
 _atom_site_occupancy
  Li  Li0  1  0.90323426  0.76111367  0.06036695  1
  Li  Li1  1  0.76071196  0.90333045  0.56096452  1
  Li  Li2  1  0.89815821  0.33601136  0.55757863  1
  Li  Li3  1  0.76402170  0.33363266  0.06118978  1
  Li  Li4  1  0.33861215  0.89598895  0.05934781  1
  Li  Li5  1  0.33206450  0.76509309  0.56203443  1
  Li  Li6  1  0.66667021  0.09817309  0.94014681  1
  Li  Li7  1  0.09827697  0.66681601  0.44040388  1
  Li  Li8  1  0.23347507  0.10105538  0.43997143  1
  Li  Li9  1  0.09926837  0.23382959  0.93860203  1
  Li  Li10  1  0.03452858  0.94909199  0.99467159  1
  Li  Li11  1  0.95032048  0.03457298  0.49434387  1
  V  V0  1  0.56049468  0.43682061  0.25234944  1
  V  V1  1  0.43777269  0.56029272  0.75271599  1
  V  V2  1  0.56351108  0.00143791  0.74866304  1
  V  V3  1  0.43592991  0.99870259  0.24977404  1
  V  V4  1  0.00076538  0.56520739  0.24885819  1
  V  V5  1  0.99821034  0.43950923  0.74944267  1
  P  P0  1  0.91096795  0.77692880  0.84364826  1
  P  P1  1  0.77530700  0.91051519  0.34359417  1
  P  P2  1  0.91219985  0.31171949  0.34016688  1
  P  P3  1  0.66571033  0.66607876  0.13064047  1
  P  P4  1  0.66672848  0.66657697  0.63054468  1
  P  P5  1  0.77404855  0.31098248  0.84462262  1
  P  P6  1  0.69505083  0.22203677  0.65945506  1
  P  P7  1  0.31223319  0.91152375  0.84048645  1
  P  P8  1  0.69038039  0.08595595  0.15880423  1
  P  P9  1  0.31163790  0.77327805  0.34483444  1
  P  P10  1  0.22169909  0.69621819  0.15956090  1
  P  P11  1  0.33017143  0.33447469  0.36832479  1
  P  P12  1  0.33365864  0.33046797  0.86775146  1
  P  P13  1  0.08675821  0.69116606  0.65976921  1
  P  P14  1  0.22397287  0.09017257  0.65673779  1
  P  P15  1  0.09022766  0.22619128  0.15699706  1
  O  O0  1  0.99611092  0.77735791  0.57079395  1
  O  O1  1  0.91934116  0.74127185  0.33880181  1
  O  O2  1  0.77976016  0.99610924  0.07067329  1
  O  O3  1  0.74039896  0.91860611  0.83859113  1
  O  O4  1  0.91461385  0.61883519  0.83342932  1
  O  O5  1  0.81032500  0.67667441  0.16963306  1
  O  O6  1  0.91745515  0.46571836  0.32769056  1
  O  O7  1  0.00318808  0.22444175  0.06838335  1
  O  O8  1  0.92061675  0.33037288  0.84132473  1
  O  O9  1  0.67723653  0.81036189  0.66977772  1
  O  O10  1  0.61990865  0.91018724  0.33009079  1
  O  O11  1  0.81370020  0.51210955  0.67379117  1
  O  O12  1  0.66360781  0.66632235  0.02396090  1
  O  O13  1  0.67350026  0.66043326  0.52406492  1
  O  O14  1  0.67370493  0.51277953  0.17330792  1
  O  O15  1  0.46633578  0.91711341  0.82782431  1
  O  O16  1  0.51069182  0.81031744  0.17150398  1
  O  O17  1  0.74561164  0.34005355  0.33763393  1
  O  O18  1  0.79169056  0.19646648  0.75790759  1
  O  O19  1  0.80553497  0.20344102  0.57903825  1
  O  O20  1  0.77033443  0.22823805  0.93578216  1
  O  O21  1  0.62323974  0.47025935  0.82963711  1
  O  O22  1  0.51398512  0.67367530  0.67146383  1
  O  O23  1  0.66520439  0.25336014  0.15767187  1
  O  O24  1  0.46878895  0.62076429  0.33250237  1
  O  O25  1  0.33548528  0.91890170  0.34106067  1
  O  O26  1  0.79581447  0.00056891  0.25217641  1
  O  O27  1  0.78574596  0.98662617  0.43395260  1
  O  O28  1  0.22506129  0.00101674  0.56842138  1
  O  O29  1  0.66087213  0.08282831  0.65858469  1
  O  O30  1  0.54385335  0.38145834  0.66484510  1
  O  O31  1  0.34332590  0.74385630  0.83860810  1
  O  O32  1  0.47770914  0.33212026  0.31961024  1
  O  O33  1  0.37956723  0.54393861  0.16546028  1
  O  O34  1  0.20400851  0.80589332  0.07869526  1
  O  O35  1  0.22461940  0.77651875  0.43543155  1
  O  O36  1  0.19757114  0.79433411  0.25733507  1
  O  O37  1  0.25289380  0.66942961  0.65923068  1
  O  O38  1  0.48892668  0.18674658  0.82814351  1
  O  O39  1  0.53375301  0.08575594  0.17168323  1
  O  O40  1  0.33160875  0.47861230  0.82074305  1
  O  O41  1  0.33220737  0.32723242  0.97392452  1
  O  O42  1  0.32958406  0.33525674  0.47457134  1
  O  O43  1  0.18632100  0.49088804  0.32864184  1
  O  O44  1  0.37843265  0.09202604  0.66982818  1
  O  O45  1  0.32209447  0.18932309  0.32809232  1
  O  O46  1  0.08090064  0.66450013  0.15924844  1
  O  O47  1  0.99909763  0.79865389  0.75178604  1
  O  O48  1  0.98653166  0.79029461  0.93356113  1
  O  O49  1  0.09268739  0.53185086  0.67308234  1
  O  O50  1  0.18648863  0.32525751  0.82601846  1
  O  O51  1  0.09259598  0.37998859  0.16941328  1
  O  O52  1  0.25904400  0.08118795  0.15778109  1
  O  O53  1  0.22333964  0.99828403  0.93010043  1
  O  O54  1  0.20186488  0.00404856  0.74982759  1
  O  O55  1  0.08070221  0.25789361  0.65580788  1
  O  O56  1  0.99891366  0.22180369  0.42989523  1
  O  O57  1  0.00562734  0.20181607  0.24958747  1
loop_
_geom_bond_atom_site_label_1
_geom_bond_atom_site_label_2
_geom_bond_distance
_geom_bond_site_symmetry_2
Li0 O2 2.002835 1_555
Li0 O48 2.025952 1_554
Li0 O46 2.050628 1_655
Li0 O5 2.136063 1_555
Li1 O0 2.005362 1_555
Li1 O27 2.014178 1_555
Li1 O29 2.055805 1_565
Li1 O9 2.126189 1_555
Li2 O19 1.939527 1_555
Li2 O55 2.078641 1_655
Li2 O56 2.081519 1_555
Li2 O11 2.217132 1_555
Li3 O23 2.025528 1_555
Li3 O20 2.029142 1_554
Li3 O7 2.035595 1_655
Li3 O14 2.192770 1_555
Li4 O34 1.933672 1_555
Li4 O52 2.101776 1_565
Li4 O53 2.102242 1_554
Li4 O16 2.147016 1_555
Li5 O37 2.004899 1_555
Li5 O28 2.008898 1_565
Li5 O35 2.040251 1_555
Li5 O22 2.177734 1_555
Li6 O20 1.985624 1_555
Li6 O3 2.097744 1_545
Li6 O2 2.110829 1_546
Li6 O38 2.178547 1_555
Li7 O35 2.002822 1_555
Li7 O1 2.089116 1_455
Li7 O0 2.106483 1_455
Li7 O43 2.170157 1_555
Li8 O56 1.997082 1_455
Li8 O28 2.061438 1_555
Li8 O25 2.085103 1_545
Li8 O45 2.159050 1_555
Li9 O53 2.005782 1_545
Li9 O8 2.041548 1_455
Li9 O7 2.063304 1_556
Li9 O50 2.176489 1_555
Li10 O34 1.944676 1_556
Li10 O48 2.031533 1_455
Li10 O53 2.307934 1_555
Li10 O2 2.529473 1_456
Li11 O19 1.956518 1_555
Li11 O27 2.075765 1_545
Li11 O56 2.288958 1_555
Li11 O0 2.555058 1_545
O0 P13 1.516992 1_655
O1 P1 1.553377 1_555
O1 V4 1.962050 1_655
O2 P8 1.516754 1_565
O3 P0 1.552674 1_555
O3 V2 1.962708 1_565
O4 P0 1.538806 1_555
O4 V5 1.930870 1_555
O5 P3 1.571722 1_555
O5 V4 1.968655 1_655
O6 P2 1.543022 1_555
O6 V4 1.896222 1_655
O7 P15 1.514356 1_555
O8 P5 1.538874 1_555
O8 V5 2.036758 1_555
O9 P4 1.566373 1_555
O9 V2 1.976318 1_565
O10 P1 1.535939 1_555
O10 V3 1.926955 1_555
O11 P4 1.597662 1_555
O11 V5 1.903088 1_555
O12 P3 1.493719 1_555
O13 P4 1.492150 1_555
O14 P3 1.576608 1_555
O14 V0 1.949204 1_555
O15 P7 1.545917 1_555
O15 V2 1.889491 1_565
O16 P3 1.579173 1_555
O16 V3 1.954419 1_555
O17 P2 1.512709 1_555
O17 V0 1.976061 1_555
O18 P5 1.609029 1_555
O18 P6 1.622246 1_555
O19 P6 1.504413 1_555
O20 P5 1.515984 1_555
O21 P5 1.536705 1_555
O21 V1 1.909795 1_555
O22 P4 1.567255 1_555
O22 V1 1.969239 1_555
O23 P8 1.531763 1_555
O23 V0 2.055509 1_555
O24 P9 1.529747 1_555
O24 V0 1.929111 1_555
O25 P9 1.556249 1_555
O25 V3 1.986210 1_555
O26 P1 1.615712 1_545
O26 P8 1.616081 1_555
O27 P1 1.503229 1_555
O28 P14 1.516597 1_555
O29 P6 1.557555 1_555
O29 V2 1.964692 1_555
O30 P6 1.527483 1_555
O30 V1 1.966858 1_555
O31 P7 1.514178 1_555
O31 V1 1.974871 1_555
O32 P11 1.583513 1_555
O32 V0 1.843308 1_555
O33 P10 1.524264 1_555
O33 V0 1.967658 1_555
O34 P10 1.504023 1_555
O35 P9 1.515336 1_555
O36 P9 1.604141 1_555
O36 P10 1.626347 1_555
O37 P13 1.531744 1_555
O37 V1 2.051768 1_555
O38 P12 1.572004 1_555
O38 V2 1.941469 1_555
O39 P8 1.543992 1_555
O39 V3 1.903859 1_545
O40 P12 1.579204 1_555
O40 V1 1.852307 1_555
O41 P12 1.486600 1_555
O42 P11 1.487471 1_555
O43 P11 1.576372 1_555
O43 V4 1.942065 1_555
O44 P14 1.533556 1_555
O44 V2 1.922269 1_555
O45 P11 1.571819 1_555
O45 V3 1.968957 1_545
O46 P10 1.556819 1_555
O46 V4 1.965410 1_555
O47 P0 1.615122 1_555
O47 P13 1.616717 1_655
O48 P0 1.503169 1_555
O49 P13 1.542037 1_555
O49 V5 1.903061 1_455
O50 P12 1.582478 1_555
O50 V5 1.936108 1_455
O51 P15 1.529393 1_555
O51 V4 1.932179 1_555
O52 P15 1.552614 1_555
O52 V3 1.981525 1_545
O53 P7 1.523651 1_555
O54 P14 1.617645 1_555
O54 P7 1.619120 1_545
O55 P14 1.539717 1_555
O55 V5 2.032246 1_455
O56 P2 1.524408 1_555
O57 P15 1.613118 1_555
O57 P2 1.622200 1_455
