# generated using pymatgen
data_UInPt
_symmetry_space_group_name_H-M   'P 1'
_cell_length_a   7.48521048
_cell_length_b   7.48575613
_cell_length_c   4.13043351
_cell_angle_alpha   90.00000000
_cell_angle_beta   90.00000000
_cell_angle_gamma   120.00157289
_symmetry_Int_Tables_number   1
_chemical_formula_structural   UInPt
_chemical_formula_sum   'U3 In3 Pt3'
_cell_volume   200.42831489
_cell_formula_units_Z   3
loop_
 _symmetry_equiv_pos_site_id
 _symmetry_equiv_pos_as_xyz
  1  'x, y, z'
loop_
 _atom_site_type_symbol
 _atom_site_label
 _atom_site_symmetry_multiplicity
 _atom_site_fract_x
 _atom_site_fract_y
 _atom_site_fract_z
 _atom_site_occupancy
  U  U0  1  -0.00002213  0.41723433  0.50000000  1
  U  U1  1  0.58276932  0.58276882  0.50000000  1
  U  U2  1  0.41722120  0.99997697  0.50000000  1
  In  In0  1  0.00006421  0.75164183  -0.00000000  1
  In  In1  1  0.24846319  0.24839046  -0.00000000  1
  In  In2  1  0.75149910  -0.00001006  -0.00000000  1
  Pt  Pt0  1  0.33329060  0.66667095  -0.00000000  1
  Pt  Pt1  1  0.66668153  0.33328999  -0.00000000  1
  Pt  Pt2  1  0.00003398  0.00003771  0.50000000  1
loop_
_geom_bond_atom_site_label_1
_geom_bond_atom_site_label_2
_geom_bond_distance
_geom_bond_site_symmetry_2
In0 Pt2 2.779033 1_565
In0 Pt2 2.779033 1_564
In0 Pt0 2.865759 1_555
In0 Pt1 2.866941 1_455
In0 In1 3.220298 1_565
In0 In2 3.221324 1_465
In0 U0 3.244993 1_555
In0 U0 3.244993 1_554
In0 U2 3.415556 1_555
In0 U2 3.415556 1_554
In0 U1 3.416269 1_454
In0 U1 3.416269 1_455
In1 Pt2 2.778858 1_555
In1 Pt2 2.778858 1_554
In1 Pt1 2.866012 1_555
In1 Pt0 2.866883 1_555
In1 In2 3.221460 1_455
In1 U1 3.244749 1_555
In1 U1 3.244749 1_554
In1 U2 3.415821 1_544
In1 U2 3.415821 1_545
In1 U0 3.416586 1_555
In1 U0 3.416586 1_554
In2 Pt2 2.779443 1_655
In2 Pt2 2.779443 1_654
In2 Pt1 2.865694 1_555
In2 Pt0 2.865990 1_545
In2 U2 3.244316 1_544
In2 U2 3.244316 1_545
In2 U1 3.416134 1_544
In2 U1 3.416134 1_545
In2 U0 3.416204 1_655
In2 U0 3.416204 1_654
Pt0 U0 3.052451 1_555
Pt0 U0 3.052451 1_554
Pt0 U2 3.052459 1_555
Pt0 U2 3.052459 1_554
Pt0 U1 3.052817 1_555
Pt0 U1 3.052817 1_554
Pt1 U0 3.052247 1_655
Pt1 U0 3.052247 1_654
Pt1 U2 3.052554 1_544
Pt1 U2 3.052554 1_545
Pt1 U1 3.052931 1_554
Pt1 U1 3.052931 1_555
Pt2 U2 3.122962 1_545
Pt2 U0 3.123242 1_555
Pt2 U1 3.123369 1_445
