# generated using pymatgen
data_AlCNO5
_symmetry_space_group_name_H-M   'P 1'
_cell_length_a   7.31564323
_cell_length_b   7.31564323
_cell_length_c   6.15283500
_cell_angle_alpha   90.00000000
_cell_angle_beta   90.00000000
_cell_angle_gamma   140.64288320
_symmetry_Int_Tables_number   1
_chemical_formula_structural   AlCNO5
_chemical_formula_sum   'Al2 C2 N2 O10'
_cell_volume   208.82075268
_cell_formula_units_Z   2
loop_
 _symmetry_equiv_pos_site_id
 _symmetry_equiv_pos_as_xyz
  1  'x, y, z'
loop_
 _atom_site_type_symbol
 _atom_site_label
 _atom_site_symmetry_multiplicity
 _atom_site_fract_x
 _atom_site_fract_y
 _atom_site_fract_z
 _atom_site_occupancy
  Al  Al0  1  0.00000000  0.00000000  0.00000000  1
  Al  Al1  1  0.00000000  0.00000000  0.50000000  1
  C  C0  1  0.17436800  0.82563200  0.75000000  1
  C  C1  1  0.82563200  0.17436800  0.25000000  1
  N  N0  1  0.52119700  0.47880300  0.75000000  1
  N  N1  1  0.47880300  0.52119700  0.25000000  1
  O  O0  1  0.26277600  0.73722400  0.75000000  1
  O  O1  1  0.73722400  0.26277600  0.25000000  1
  O  O2  1  0.12294400  0.87705600  0.93524200  1
  O  O3  1  0.87705600  0.12294400  0.06475800  1
  O  O4  1  0.12294400  0.87705600  0.56475800  1
  O  O5  1  0.87705600  0.12294400  0.43524200  1
  O  O6  1  0.68369000  0.75046100  0.75000000  1
  O  O7  1  0.75046100  0.68369000  0.25000000  1
  O  O8  1  0.31631000  0.24953900  0.25000000  1
  O  O9  1  0.24953900  0.31631000  0.75000000  1
loop_
_geom_bond_atom_site_label_1
_geom_bond_atom_site_label_2
_geom_bond_distance
_geom_bond_site_symmetry_2
Al0 O3 1.740006 1_455
Al0 O2 1.740006 1_544
Al0 O7 2.126210 1_445
Al0 O8 2.126210 1_555
Al0 O9 2.126210 1_554
Al0 O6 2.126210 1_444
Al1 O4 1.740006 1_545
Al1 O5 1.740006 1_455
Al1 O7 2.126210 1_445
Al1 O8 2.126210 1_555
Al1 O9 2.126210 1_555
Al1 O6 2.126210 1_445
C0 O0 1.217977 1_555
C0 O2 1.342003 1_555
C0 O4 1.342003 1_555
C1 O1 1.217977 1_555
C1 O5 1.342003 1_555
C1 O3 1.342003 1_555
N0 O6 1.307420 1_555
N0 O9 1.307420 1_555
N1 O7 1.307420 1_555
N1 O8 1.307420 1_555
