# generated using pymatgen
data_BaGeO4
_symmetry_space_group_name_H-M   'P 1'
_cell_length_a   7.27552400
_cell_length_b   7.32631260
_cell_length_c   7.59235591
_cell_angle_alpha   90.96615254
_cell_angle_beta   90.74793307
_cell_angle_gamma   91.22506488
_symmetry_Int_Tables_number   1
_chemical_formula_structural   BaGeO4
_chemical_formula_sum   'Ba4 Ge4 O16'
_cell_volume   404.50710018
_cell_formula_units_Z   4
loop_
 _symmetry_equiv_pos_site_id
 _symmetry_equiv_pos_as_xyz
  1  'x, y, z'
loop_
 _atom_site_type_symbol
 _atom_site_label
 _atom_site_symmetry_multiplicity
 _atom_site_fract_x
 _atom_site_fract_y
 _atom_site_fract_z
 _atom_site_occupancy
  Ba  Ba0  1  0.57958100  0.70627400  0.70321100  1
  Ba  Ba1  1  0.42041900  0.29372600  0.29678900  1
  Ba  Ba2  1  0.11897800  0.22543800  0.79670200  1
  Ba  Ba3  1  0.88102200  0.77456200  0.20329800  1
  Ge  Ge0  1  0.08159800  0.73673200  0.70375200  1
  Ge  Ge1  1  0.91840200  0.26326800  0.29624800  1
  Ge  Ge2  1  0.62089600  0.22443300  0.79954100  1
  Ge  Ge3  1  0.37910400  0.77556700  0.20045900  1
  O  O0  1  0.78107600  0.39703700  0.88125300  1
  O  O1  1  0.21892400  0.60296300  0.11874700  1
  O  O2  1  0.22736400  0.58549600  0.81822100  1
  O  O3  1  0.77263600  0.41450400  0.18177900  1
  O  O4  1  0.48462100  0.33048500  0.64053600  1
  O  O5  1  0.51537900  0.66951500  0.35946400  1
  O  O6  1  0.46284500  0.14213600  0.95864600  1
  O  O7  1  0.53715500  0.85786400  0.04135400  1
  O  O8  1  0.93416700  0.63665900  0.53889100  1
  O  O9  1  0.06583300  0.36334100  0.46110900  1
  O  O10  1  0.75170300  0.04931200  0.69094000  1
  O  O11  1  0.24829700  0.95068800  0.30906000  1
  O  O12  1  0.93723700  0.85097800  0.85611300  1
  O  O13  1  0.06276300  0.14902200  0.14388700  1
  O  O14  1  0.24264500  0.90461200  0.62342500  1
  O  O15  1  0.75735500  0.09538800  0.37657500  1
loop_
_geom_bond_atom_site_label_1
_geom_bond_atom_site_label_2
_geom_bond_distance
_geom_bond_site_symmetry_2
Ba0 O5 2.653511 1_555
Ba0 O10 2.787371 1_565
Ba0 O7 2.803379 1_556
Ba0 O2 2.845996 1_555
Ba0 O4 2.854729 1_555
Ba0 O8 2.931000 1_555
Ba0 O14 2.937845 1_555
Ba0 O12 3.000725 1_555
Ba0 O0 3.050034 1_555
Ba1 O4 2.653511 1_555
Ba1 O11 2.787371 1_545
Ba1 O6 2.803379 1_554
Ba1 O3 2.845996 1_555
Ba1 O5 2.854729 1_555
Ba1 O9 2.931000 1_555
Ba1 O15 2.937845 1_555
Ba1 O13 3.000725 1_555
Ba1 O1 3.050034 1_555
Ba2 O13 2.738078 1_556
Ba2 O2 2.738647 1_555
Ba2 O9 2.782095 1_555
Ba2 O14 2.842896 1_545
Ba2 O6 2.855446 1_555
Ba2 O0 2.860516 1_455
Ba2 O4 3.016717 1_555
Ba2 O10 3.035065 1_455
Ba2 O12 3.062733 1_445
Ba3 O12 2.738078 1_554
Ba3 O3 2.738647 1_555
Ba3 O8 2.782095 1_555
Ba3 O15 2.842896 1_565
Ba3 O7 2.855446 1_555
Ba3 O1 2.860516 1_655
Ba3 O5 3.016717 1_555
Ba3 O11 3.035065 1_655
Ba3 O13 3.062733 1_665
Ge0 O8 1.776280 1_455
Ge0 O2 1.779425 1_555
Ge0 O12 1.782835 1_455
Ge0 O14 1.799976 1_555
Ge1 O9 1.776280 1_655
Ge1 O3 1.779425 1_555
Ge1 O13 1.782835 1_655
Ge1 O15 1.799976 1_555
Ge2 O4 1.754254 1_555
Ge2 O6 1.782192 1_555
Ge2 O0 1.798267 1_555
Ge2 O10 1.807944 1_555
Ge3 O5 1.754254 1_555
Ge3 O7 1.782192 1_555
Ge3 O1 1.798267 1_555
Ge3 O11 1.807944 1_555
