# generated using pymatgen
data_Fe3PdN
_symmetry_space_group_name_H-M   'P 1'
_cell_length_a   3.85021387
_cell_length_b   3.85019387
_cell_length_c   3.85026736
_cell_angle_alpha   90.00000000
_cell_angle_beta   90.00000000
_cell_angle_gamma   90.00000000
_symmetry_Int_Tables_number   1
_chemical_formula_structural   Fe3PdN
_chemical_formula_sum   'Fe3 Pd1 N1'
_cell_volume   57.07663225
_cell_formula_units_Z   1
loop_
 _symmetry_equiv_pos_site_id
 _symmetry_equiv_pos_as_xyz
  1  'x, y, z'
loop_
 _atom_site_type_symbol
 _atom_site_label
 _atom_site_symmetry_multiplicity
 _atom_site_fract_x
 _atom_site_fract_y
 _atom_site_fract_z
 _atom_site_occupancy
  Fe  Fe0  1  0.50000000  -0.00000000  0.50000000  1
  Fe  Fe1  1  0.00000000  0.50000000  0.50000000  1
  Fe  Fe2  1  0.50000000  0.50000000  -0.00000000  1
  Pd  Pd0  1  0.00000000  -0.00000000  0.00000000  1
  N  N0  1  0.50000000  0.50000000  0.50000000  1
loop_
_geom_bond_atom_site_label_1
_geom_bond_atom_site_label_2
_geom_bond_distance
_geom_bond_site_symmetry_2
Fe0 N0 1.925097 1_555
Fe0 N0 1.925097 1_545
Fe0 Pd0 2.722531 1_556
Fe0 Pd0 2.722531 1_656
Fe0 Pd0 2.722531 1_655
Fe0 Pd0 2.722531 1_555
Fe1 N0 1.925107 1_555
Fe1 N0 1.925107 1_455
Fe1 Pd0 2.722524 1_566
Fe1 Pd0 2.722524 1_565
Fe1 Pd0 2.722524 1_555
Fe1 Pd0 2.722524 1_556
Fe2 N0 1.925134 1_554
Fe2 N0 1.925134 1_555
Fe2 Pd0 2.722505 1_555
Fe2 Pd0 2.722505 1_565
Fe2 Pd0 2.722505 1_665
Fe2 Pd0 2.722505 1_655
