# generated using pymatgen
data_Sr2ScTaO6
_symmetry_space_group_name_H-M   'P 1'
_cell_length_a   5.76193200
_cell_length_b   5.73483600
_cell_length_c   9.94770538
_cell_angle_alpha   54.77696804
_cell_angle_beta   90.00000000
_cell_angle_gamma   90.00000000
_symmetry_Int_Tables_number   1
_chemical_formula_structural   Sr2ScTaO6
_chemical_formula_sum   'Sr4 Sc2 Ta2 O12'
_cell_volume   268.52697210
_cell_formula_units_Z   2
loop_
 _symmetry_equiv_pos_site_id
 _symmetry_equiv_pos_as_xyz
  1  'x, y, z'
loop_
 _atom_site_type_symbol
 _atom_site_label
 _atom_site_symmetry_multiplicity
 _atom_site_fract_x
 _atom_site_fract_y
 _atom_site_fract_z
 _atom_site_occupancy
  Sr  Sr0  1  0.47566900  0.24425700  0.75131300  1
  Sr  Sr1  1  0.52433100  0.75574300  0.24868700  1
  Sr  Sr2  1  0.97566900  0.75574300  0.74868700  1
  Sr  Sr3  1  0.02433100  0.24425700  0.25131300  1
  Sc  Sc0  1  0.00000000  0.00000000  0.00000000  1
  Sc  Sc1  1  0.50000000  0.00000000  0.50000000  1
  Ta  Ta0  1  0.00000000  0.50000000  0.50000000  1
  Ta  Ta1  1  0.50000000  0.50000000  0.00000000  1
  O  O0  1  0.01159800  0.31561500  0.74316200  1
  O  O1  1  0.98840200  0.68438500  0.25683800  1
  O  O2  1  0.51159800  0.68438500  0.75683800  1
  O  O3  1  0.48840200  0.31561500  0.24316200  1
  O  O4  1  0.71302000  0.80343800  0.96990000  1
  O  O5  1  0.28698000  0.19656200  0.03010000  1
  O  O6  1  0.21302000  0.19656200  0.53010000  1
  O  O7  1  0.78698000  0.80343800  0.46990000  1
  O  O8  1  0.22682900  0.74442000  0.96850500  1
  O  O9  1  0.77317100  0.25558000  0.03149500  1
  O  O10  1  0.72682900  0.25558000  0.53149500  1
  O  O11  1  0.27317100  0.74442000  0.46850500  1
loop_
_geom_bond_atom_site_label_1
_geom_bond_atom_site_label_2
_geom_bond_distance
_geom_bond_site_symmetry_2
O0 Ta0 2.005798 1_555
O0 Sc0 2.115164 1_556
O0 Sr2 2.564525 1_455
O0 Sr0 2.699213 1_555
O1 Ta0 2.005798 1_655
O1 Sc0 2.115164 1_665
O1 Sr3 2.564525 1_655
O1 Sr1 2.699213 1_555
O2 Ta1 2.005798 1_556
O2 Sc1 2.115164 1_565
O2 Sr0 2.564525 1_555
O2 Sr2 2.699213 1_555
O3 Ta1 2.005798 1_555
O3 Sc1 2.115164 1_555
O3 Sr1 2.564525 1_555
O3 Sr3 2.699213 1_555
O4 Ta1 2.005822 1_556
O4 Sc0 2.117535 1_666
O4 Sr0 2.578464 1_565
O4 Sr2 2.811027 1_555
O4 Sr1 2.841298 1_556
O5 Ta1 2.005822 1_555
O5 Sc0 2.117535 1_555
O5 Sr1 2.578464 1_545
O5 Sr3 2.811027 1_555
O5 Sr0 2.841298 1_554
O6 Ta0 2.005822 1_555
O6 Sc1 2.117535 1_555
O6 Sr2 2.578464 1_445
O6 Sr0 2.811027 1_555
O6 Sr3 2.841298 1_555
O7 Ta0 2.005822 1_655
O7 Sc1 2.117535 1_565
O7 Sr3 2.578464 1_665
O7 Sr1 2.811027 1_555
O7 Sr2 2.841298 1_555
O8 Ta1 2.008437 1_556
O8 Sc0 2.117629 1_566
O8 Sr2 2.591584 1_455
O8 Sr0 2.792226 1_565
O8 Sr3 2.862704 1_556
O9 Ta1 2.008437 1_555
O9 Sc0 2.117629 1_655
O9 Sr3 2.591584 1_655
O9 Sr1 2.792226 1_545
O9 Sr2 2.862704 1_554
O10 Ta0 2.008437 1_655
O10 Sc1 2.117629 1_555
O10 Sr0 2.591584 1_555
O10 Sr2 2.792226 1_545
O10 Sr1 2.862704 1_555
O11 Ta0 2.008437 1_555
O11 Sc1 2.117629 1_565
O11 Sr1 2.591584 1_555
O11 Sr3 2.792226 1_565
O11 Sr0 2.862704 1_555
