# generated using pymatgen
data_ErOs2
_symmetry_space_group_name_H-M   'P 1'
_cell_length_a   5.32030100
_cell_length_b   5.32030140
_cell_length_c   8.77195800
_cell_angle_alpha   90.00000000
_cell_angle_beta   90.00000000
_cell_angle_gamma   120.00000370
_symmetry_Int_Tables_number   1
_chemical_formula_structural   ErOs2
_chemical_formula_sum   'Er4 Os8'
_cell_volume   215.03026947
_cell_formula_units_Z   4
loop_
 _symmetry_equiv_pos_site_id
 _symmetry_equiv_pos_as_xyz
  1  'x, y, z'
loop_
 _atom_site_type_symbol
 _atom_site_label
 _atom_site_symmetry_multiplicity
 _atom_site_fract_x
 _atom_site_fract_y
 _atom_site_fract_z
 _atom_site_occupancy
  Er  Er0  1  0.33333300  0.66666700  0.43439800  1
  Er  Er1  1  0.66666700  0.33333300  0.56560200  1
  Er  Er2  1  0.66666700  0.33333300  0.93439800  1
  Er  Er3  1  0.33333300  0.66666700  0.06560200  1
  Os  Os0  1  0.00000000  0.00000000  0.50000000  1
  Os  Os1  1  0.00000000  0.00000000  0.00000000  1
  Os  Os2  1  0.82691300  0.17308700  0.25000000  1
  Os  Os3  1  0.82691300  0.65382600  0.25000000  1
  Os  Os4  1  0.34617400  0.17308700  0.25000000  1
  Os  Os5  1  0.17308700  0.82691300  0.75000000  1
  Os  Os6  1  0.17308700  0.34617400  0.75000000  1
  Os  Os7  1  0.65382600  0.82691300  0.75000000  1
loop_
_geom_bond_atom_site_label_1
_geom_bond_atom_site_label_2
_geom_bond_distance
_geom_bond_site_symmetry_2
Er0 Os3 3.113887 1_455
Er0 Os4 3.113888 1_565
Er0 Os2 3.113890 1_455
Er0 Os2 3.113890 1_565
Er0 Os3 3.113892 1_555
Er0 Os4 3.113892 1_555
Er0 Os0 3.125114 1_565
Er0 Os0 3.125118 1_665
Er0 Os0 3.125118 1_555
Er0 Os5 3.137652 1_555
Er0 Os7 3.137654 1_555
Er0 Os6 3.137654 1_555
Er1 Os6 3.113887 1_655
Er1 Os7 3.113888 1_545
Er1 Os5 3.113890 1_655
Er1 Os5 3.113890 1_545
Er1 Os6 3.113892 1_555
Er1 Os7 3.113892 1_555
Er1 Os0 3.125114 1_655
Er1 Os0 3.125118 1_555
Er1 Os0 3.125118 1_665
Er1 Os2 3.137652 1_555
Er1 Os4 3.137654 1_555
Er1 Os3 3.137654 1_555
Er2 Os6 3.113887 1_655
Er2 Os7 3.113888 1_545
Er2 Os5 3.113890 1_655
Er2 Os5 3.113890 1_545
Er2 Os6 3.113892 1_555
Er2 Os7 3.113892 1_555
Er2 Os1 3.125114 1_656
Er2 Os1 3.125118 1_556
Er2 Os1 3.125118 1_666
Er2 Os2 3.137652 1_556
Er2 Os4 3.137654 1_556
Er2 Os3 3.137654 1_556
Er3 Os3 3.113887 1_455
Er3 Os4 3.113888 1_565
Er3 Os2 3.113890 1_455
Er3 Os2 3.113890 1_565
Er3 Os3 3.113892 1_555
Er3 Os4 3.113892 1_555
Er3 Os1 3.125114 1_565
Er3 Os1 3.125118 1_665
Er3 Os1 3.125118 1_555
Er3 Os5 3.137652 1_554
Er3 Os7 3.137654 1_554
Er3 Os6 3.137654 1_554
Os0 Os7 2.711685 1_445
Os0 Os4 2.711685 1_555
Os0 Os3 2.711685 1_445
Os0 Os6 2.711685 1_555
Os0 Os2 2.711685 1_455
Os0 Os5 2.711685 1_545
Os1 Os4 2.711685 1_555
Os1 Os7 2.711685 1_444
Os1 Os3 2.711685 1_445
Os1 Os6 2.711685 1_554
Os1 Os2 2.711685 1_455
Os1 Os5 2.711685 1_544
Os2 Os4 2.557676 1_555
Os2 Os3 2.557676 1_555
Os2 Os4 2.762625 1_655
Os2 Os3 2.762625 1_545
Os3 Os4 2.557676 1_555
Os3 Os4 2.762625 1_665
Os5 Os7 2.557676 1_555
Os5 Os6 2.557676 1_555
Os5 Os7 2.762625 1_455
Os5 Os6 2.762625 1_565
Os6 Os7 2.557676 1_555
Os6 Os7 2.762625 1_445
