# generated using pymatgen
data_Yb3(SnPd)2
_symmetry_space_group_name_H-M   'P 1'
_cell_length_a   5.83056064
_cell_length_b   13.88462132
_cell_length_c   17.01045231
_cell_angle_alpha   90.00000000
_cell_angle_beta   90.00000000
_cell_angle_gamma   90.00000000
_symmetry_Int_Tables_number   1
_chemical_formula_structural   Yb3(SnPd)2
_chemical_formula_sum   'Yb24 Sn16 Pd16'
_cell_volume   1377.08331976
_cell_formula_units_Z   8
loop_
 _symmetry_equiv_pos_site_id
 _symmetry_equiv_pos_as_xyz
  1  'x, y, z'
loop_
 _atom_site_type_symbol
 _atom_site_label
 _atom_site_symmetry_multiplicity
 _atom_site_fract_x
 _atom_site_fract_y
 _atom_site_fract_z
 _atom_site_occupancy
  Yb  Yb0  1  0.80365258  0.40421231  0.17695354  1
  Yb  Yb1  1  0.19634742  0.90421231  0.82304646  1
  Yb  Yb2  1  0.80365258  0.59578769  0.32304646  1
  Yb  Yb3  1  0.19634742  0.09578769  0.67695354  1
  Yb  Yb4  1  0.19634742  0.59578769  0.82304646  1
  Yb  Yb5  1  0.80365258  0.09578769  0.17695354  1
  Yb  Yb6  1  0.19634742  0.40421231  0.67695354  1
  Yb  Yb7  1  0.80365258  0.90421231  0.32304646  1
  Yb  Yb8  1  0.50017111  0.40448367  0.92673704  1
  Yb  Yb9  1  0.49982889  0.90448367  0.07326296  1
  Yb  Yb10  1  0.50017111  0.59551633  0.57326296  1
  Yb  Yb11  1  0.49982889  0.09551633  0.42673704  1
  Yb  Yb12  1  0.49982889  0.59551633  0.07326296  1
  Yb  Yb13  1  0.50017111  0.09551633  0.92673704  1
  Yb  Yb14  1  0.49982889  0.40448367  0.42673704  1
  Yb  Yb15  1  0.50017111  0.90448367  0.57326296  1
  Yb  Yb16  1  0.01882474  0.25000000  0.99755784  1
  Yb  Yb17  1  0.98117526  0.75000000  0.00244216  1
  Yb  Yb18  1  0.01882474  0.75000000  0.50244216  1
  Yb  Yb19  1  0.98117526  0.25000000  0.49755784  1
  Yb  Yb20  1  0.71259241  0.25000000  0.74653973  1
  Yb  Yb21  1  0.28740759  0.75000000  0.25346027  1
  Yb  Yb22  1  0.71259241  0.75000000  0.75346027  1
  Yb  Yb23  1  0.28740759  0.25000000  0.24653973  1
  Sn  Sn0  1  0.48088612  0.25000000  0.57180824  1
  Sn  Sn1  1  0.51911388  0.75000000  0.42819176  1
  Sn  Sn2  1  0.48088612  0.75000000  0.92819176  1
  Sn  Sn3  1  0.51911388  0.25000000  0.07180824  1
  Sn  Sn4  1  0.78417945  0.25000000  0.32256807  1
  Sn  Sn5  1  0.21582055  0.75000000  0.67743193  1
  Sn  Sn6  1  0.78417945  0.75000000  0.17743193  1
  Sn  Sn7  1  0.21582055  0.25000000  0.82256807  1
  Sn  Sn8  1  0.68756067  0.50000000  0.75000000  1
  Sn  Sn9  1  0.31243933  -0.00000000  0.25000000  1
  Sn  Sn10  1  0.31243933  0.50000000  0.25000000  1
  Sn  Sn11  1  0.68756067  -0.00000000  0.75000000  1
  Sn  Sn12  1  -0.00000000  0.50000000  0.50000000  1
  Sn  Sn13  1  -0.00000000  -0.00000000  0.50000000  1
  Sn  Sn14  1  -0.00000000  0.50000000  -0.00000000  1
  Sn  Sn15  1  -0.00000000  -0.00000000  -0.00000000  1
  Pd  Pd0  1  0.97169588  0.40994847  0.85708230  1
  Pd  Pd1  1  0.02830412  0.90994847  0.14291770  1
  Pd  Pd2  1  0.97169588  0.59005153  0.64291770  1
  Pd  Pd3  1  0.02830412  0.09005153  0.35708230  1
  Pd  Pd4  1  0.02830412  0.59005153  0.14291770  1
  Pd  Pd5  1  0.97169588  0.09005153  0.85708230  1
  Pd  Pd6  1  0.02830412  0.40994847  0.35708230  1
  Pd  Pd7  1  0.97169588  0.90994847  0.64291770  1
  Pd  Pd8  1  0.72561914  0.40888271  0.60772306  1
  Pd  Pd9  1  0.27438086  0.90888271  0.39227694  1
  Pd  Pd10  1  0.72561914  0.59111729  0.89227694  1
  Pd  Pd11  1  0.27438086  0.09111729  0.10772306  1
  Pd  Pd12  1  0.27438086  0.59111729  0.39227694  1
  Pd  Pd13  1  0.72561914  0.09111729  0.60772306  1
  Pd  Pd14  1  0.27438086  0.40888271  0.10772306  1
  Pd  Pd15  1  0.72561914  0.90888271  0.89227694  1
loop_
_geom_bond_atom_site_label_1
_geom_bond_atom_site_label_2
_geom_bond_distance
_geom_bond_site_symmetry_2
Sn0 Yb19 3.175576 1_455
Sn0 Yb19 3.178670 1_555
Sn0 Yb6 3.245917 1_555
Sn0 Yb3 3.245917 1_555
Sn0 Yb20 3.264886 1_555
Sn0 Yb11 3.271494 1_555
Sn0 Yb14 3.271494 1_555
Sn1 Yb18 3.175576 1_655
Sn1 Yb18 3.178670 1_555
Sn1 Yb7 3.245917 1_555
Sn1 Yb2 3.245917 1_555
Sn1 Yb21 3.264886 1_555
Sn1 Yb10 3.271494 1_555
Sn1 Yb15 3.271494 1_555
Sn2 Yb17 3.175576 1_456
Sn2 Yb17 3.178670 1_556
Sn2 Yb4 3.245917 1_555
Sn2 Yb1 3.245917 1_555
Sn2 Yb22 3.264886 1_555
Sn2 Yb12 3.271494 1_556
Sn2 Yb9 3.271494 1_556
Sn3 Yb16 3.175576 1_654
Sn3 Yb16 3.178670 1_554
Sn3 Yb0 3.245917 1_555
Sn3 Yb5 3.245917 1_555
Sn3 Yb23 3.264886 1_555
Sn3 Yb8 3.271494 1_554
Sn3 Yb13 3.271494 1_554
Sn4 Yb23 3.172071 1_555
Sn4 Yb19 3.190572 1_555
Sn4 Yb23 3.206481 1_655
Sn4 Yb11 3.238727 1_555
Sn4 Yb14 3.238727 1_555
Sn4 Yb5 3.276113 1_555
Sn4 Yb0 3.276113 1_555
Sn5 Yb22 3.172071 1_555
Sn5 Yb18 3.190572 1_555
Sn5 Yb22 3.206481 1_455
Sn5 Yb10 3.238727 1_555
Sn5 Yb15 3.238727 1_555
Sn5 Yb1 3.276113 1_555
Sn5 Yb4 3.276113 1_555
Sn6 Yb21 3.172071 1_555
Sn6 Yb17 3.190572 1_555
Sn6 Yb21 3.206481 1_655
Sn6 Yb12 3.238727 1_555
Sn6 Yb9 3.238727 1_555
Sn6 Yb7 3.276113 1_555
Sn6 Yb2 3.276113 1_555
Sn7 Yb20 3.172071 1_555
Sn7 Yb16 3.190572 1_555
Sn7 Yb20 3.206481 1_455
Sn7 Yb8 3.238727 1_555
Sn7 Yb13 3.238727 1_555
Sn7 Yb6 3.276113 1_555
Sn7 Yb3 3.276113 1_555
Sn8 Yb6 3.393457 1_555
Sn8 Yb4 3.393457 1_555
Sn8 Yb8 3.462784 1_555
Sn8 Yb10 3.462784 1_555
Sn8 Yb22 3.474721 1_555
Sn8 Yb20 3.474721 1_555
Sn8 Yb6 3.480369 1_655
Sn8 Yb4 3.480369 1_655
Sn9 Yb7 3.393457 1_545
Sn9 Yb5 3.393457 1_555
Sn9 Yb11 3.462784 1_555
Sn9 Yb9 3.462784 1_545
Sn9 Yb23 3.474721 1_555
Sn9 Yb21 3.474721 1_545
Sn9 Yb5 3.480369 1_455
Sn9 Yb7 3.480369 1_445
Sn10 Yb2 3.393457 1_555
Sn10 Yb0 3.393457 1_555
Sn10 Yb14 3.462784 1_555
Sn10 Yb12 3.462784 1_555
Sn10 Yb23 3.474721 1_555
Sn10 Yb21 3.474721 1_555
Sn10 Yb0 3.480369 1_455
Sn10 Yb2 3.480369 1_455
Sn11 Yb3 3.393457 1_555
Sn11 Yb1 3.393457 1_545
Sn11 Yb13 3.462784 1_555
Sn11 Yb15 3.462784 1_545
Sn11 Yb22 3.474721 1_545
Sn11 Yb20 3.474721 1_555
Sn11 Yb3 3.480369 1_655
Sn11 Yb1 3.480369 1_645
Sn12 Yb10 3.435837 1_455
Sn12 Yb14 3.435837 1_555
Sn12 Yb14 3.437530 1_455
Sn12 Yb10 3.437530 1_555
Sn12 Yb19 3.473139 1_455
Sn12 Yb18 3.473139 1_555
Sn12 Yb6 3.484236 1_555
Sn12 Yb2 3.484236 1_455
Sn13 Yb11 3.435837 1_555
Sn13 Yb15 3.435837 1_445
Sn13 Yb11 3.437530 1_455
Sn13 Yb15 3.437530 1_545
Sn13 Yb18 3.473139 1_545
Sn13 Yb19 3.473139 1_455
Sn13 Yb3 3.484236 1_555
Sn13 Yb7 3.484236 1_445
Sn14 Yb8 3.435837 1_454
Sn14 Yb12 3.435837 1_555
Sn14 Yb12 3.437530 1_455
Sn14 Yb8 3.437530 1_554
Sn14 Yb16 3.473139 1_554
Sn14 Yb17 3.473139 1_455
Sn14 Yb4 3.484236 1_554
Sn14 Yb0 3.484236 1_455
Sn15 Yb13 3.435837 1_454
Sn15 Yb9 3.435837 1_545
Sn15 Yb9 3.437530 1_445
Sn15 Yb13 3.437530 1_554
Sn15 Yb17 3.473139 1_445
Sn15 Yb16 3.473139 1_554
Sn15 Yb1 3.484236 1_544
Sn15 Yb5 3.484236 1_455
Pd0 Sn7 2.702364 1_655
Pd0 Sn14 2.738756 1_656
Pd0 Sn8 2.761486 1_555
Pd0 Yb4 2.951081 1_655
Pd0 Yb8 2.994669 1_555
Pd0 Yb16 3.273764 1_655
Pd0 Yb20 3.278743 1_555
Pd0 Yb8 3.302136 1_655
Pd0 Yb6 3.333252 1_655
Pd1 Sn6 2.702364 1_455
Pd1 Sn15 2.738756 1_565
Pd1 Sn9 2.761486 1_565
Pd1 Yb5 2.951081 1_465
Pd1 Yb9 2.994669 1_555
Pd1 Yb17 3.273764 1_455
Pd1 Yb21 3.278743 1_555
Pd1 Yb9 3.302136 1_455
Pd1 Yb7 3.333252 1_455
Pd2 Sn5 2.702364 1_655
Pd2 Sn12 2.738756 1_655
Pd2 Sn8 2.761486 1_555
Pd2 Yb6 2.951081 1_655
Pd2 Yb10 2.994669 1_555
Pd2 Yb18 3.273764 1_655
Pd2 Yb22 3.278743 1_555
Pd2 Yb10 3.302136 1_655
Pd2 Yb4 3.333252 1_655
Pd3 Sn4 2.702364 1_455
Pd3 Sn13 2.738756 1_555
Pd3 Sn9 2.761486 1_555
Pd3 Yb7 2.951081 1_445
Pd3 Yb11 2.994669 1_555
Pd3 Yb19 3.273764 1_455
Pd3 Yb23 3.278743 1_555
Pd3 Yb11 3.302136 1_455
Pd3 Yb5 3.333252 1_455
Pd4 Sn6 2.702364 1_455
Pd4 Sn14 2.738756 1_555
Pd4 Sn10 2.761486 1_555
Pd4 Yb0 2.951081 1_455
Pd4 Yb12 2.994669 1_555
Pd4 Yb17 3.273764 1_455
Pd4 Yb21 3.278743 1_555
Pd4 Yb12 3.302136 1_455
Pd4 Yb2 3.333252 1_455
Pd5 Sn7 2.702364 1_655
Pd5 Sn15 2.738756 1_656
Pd5 Sn11 2.761486 1_555
Pd5 Yb1 2.951081 1_645
Pd5 Yb13 2.994669 1_555
Pd5 Yb16 3.273764 1_655
Pd5 Yb20 3.278743 1_555
Pd5 Yb13 3.302136 1_655
Pd5 Yb3 3.333252 1_655
Pd6 Sn4 2.702364 1_455
Pd6 Sn12 2.738756 1_555
Pd6 Sn10 2.761486 1_555
Pd6 Yb2 2.951081 1_455
Pd6 Yb14 2.994669 1_555
Pd6 Yb19 3.273764 1_455
Pd6 Yb23 3.278743 1_555
Pd6 Yb14 3.302136 1_455
Pd6 Yb0 3.333252 1_455
Pd7 Sn5 2.702364 1_655
Pd7 Sn13 2.738756 1_665
Pd7 Sn11 2.761486 1_565
Pd7 Yb3 2.951081 1_665
Pd7 Yb15 2.994669 1_555
Pd7 Yb18 3.273764 1_655
Pd7 Yb22 3.278743 1_555
Pd7 Yb15 3.302136 1_655
Pd7 Yb1 3.333252 1_655
Pd8 Sn0 2.697390 1_555
Pd8 Sn8 2.739915 1_555
Pd8 Sn12 2.741833 1_655
Pd8 Yb10 2.964206 1_555
Pd8 Yb6 2.987294 1_655
Pd8 Yb20 3.232371 1_555
Pd8 Yb19 3.255531 1_555
Pd8 Yb6 3.303655 1_555
Pd8 Yb14 3.348876 1_555
Pd9 Sn1 2.697390 1_555
Pd9 Sn9 2.739915 1_565
Pd9 Sn13 2.741833 1_565
Pd9 Yb11 2.964206 1_565
Pd9 Yb7 2.987294 1_455
Pd9 Yb21 3.232371 1_555
Pd9 Yb18 3.255531 1_555
Pd9 Yb7 3.303655 1_555
Pd9 Yb15 3.348876 1_555
Pd10 Sn2 2.697390 1_555
Pd10 Sn8 2.739915 1_555
Pd10 Sn14 2.741833 1_656
Pd10 Yb8 2.964206 1_555
Pd10 Yb4 2.987294 1_655
Pd10 Yb22 3.232371 1_555
Pd10 Yb17 3.255531 1_556
Pd10 Yb4 3.303655 1_555
Pd10 Yb12 3.348876 1_556
Pd11 Sn3 2.697390 1_555
Pd11 Sn9 2.739915 1_555
Pd11 Sn15 2.741833 1_555
Pd11 Yb9 2.964206 1_545
Pd11 Yb5 2.987294 1_455
Pd11 Yb23 3.232371 1_555
Pd11 Yb16 3.255531 1_554
Pd11 Yb5 3.303655 1_555
Pd11 Yb13 3.348876 1_554
Pd12 Sn1 2.697390 1_555
Pd12 Sn10 2.739915 1_555
Pd12 Sn12 2.741833 1_555
Pd12 Yb14 2.964206 1_555
Pd12 Yb2 2.987294 1_455
Pd12 Yb21 3.232371 1_555
Pd12 Yb18 3.255531 1_555
Pd12 Yb2 3.303655 1_555
Pd12 Yb10 3.348876 1_555
Pd13 Sn0 2.697390 1_555
Pd13 Sn11 2.739915 1_555
Pd13 Sn13 2.741833 1_655
Pd13 Yb15 2.964206 1_545
Pd13 Yb3 2.987294 1_655
Pd13 Yb20 3.232371 1_555
Pd13 Yb19 3.255531 1_555
Pd13 Yb3 3.303655 1_555
Pd13 Yb11 3.348876 1_555
Pd14 Sn3 2.697390 1_555
Pd14 Sn10 2.739915 1_555
Pd14 Sn14 2.741833 1_555
Pd14 Yb12 2.964206 1_555
Pd14 Yb0 2.987294 1_455
Pd14 Yb23 3.232371 1_555
Pd14 Yb16 3.255531 1_554
Pd14 Yb0 3.303655 1_555
Pd14 Yb8 3.348876 1_554
Pd15 Sn2 2.697390 1_555
Pd15 Sn11 2.739915 1_565
Pd15 Sn15 2.741833 1_666
Pd15 Yb13 2.964206 1_565
Pd15 Yb1 2.987294 1_655
Pd15 Yb22 3.232371 1_555
Pd15 Yb17 3.255531 1_556
Pd15 Yb1 3.303655 1_555
Pd15 Yb9 3.348876 1_556
