# generated using pymatgen
data_BaU2V2(HO3)4
_symmetry_space_group_name_H-M   'P 1'
_cell_length_a   8.54466700
_cell_length_b   10.62450000
_cell_length_c   15.72799400
_cell_angle_alpha   90.00000000
_cell_angle_beta   90.00000000
_cell_angle_gamma   90.00000000
_symmetry_Int_Tables_number   1
_chemical_formula_structural   BaU2V2(HO3)4
_chemical_formula_sum   'Ba4 U8 V8 H16 O48'
_cell_volume   1427.83156241
_cell_formula_units_Z   4
loop_
 _symmetry_equiv_pos_site_id
 _symmetry_equiv_pos_as_xyz
  1  'x, y, z'
loop_
 _atom_site_type_symbol
 _atom_site_label
 _atom_site_symmetry_multiplicity
 _atom_site_fract_x
 _atom_site_fract_y
 _atom_site_fract_z
 _atom_site_occupancy
  Ba  Ba0  1  0.00000000  0.83587200  0.25000000  1
  Ba  Ba1  1  0.00000000  0.16412800  0.75000000  1
  Ba  Ba2  1  0.50000000  0.66412800  0.75000000  1
  Ba  Ba3  1  0.50000000  0.33587200  0.25000000  1
  U  U0  1  0.02123200  0.31805600  0.49417400  1
  U  U1  1  0.97876800  0.68194400  0.50582600  1
  U  U2  1  0.47876800  0.18194400  0.99417400  1
  U  U3  1  0.97876800  0.31805600  0.00582600  1
  U  U4  1  0.52123200  0.81805600  0.00582600  1
  U  U5  1  0.02123200  0.68194400  0.99417400  1
  U  U6  1  0.52123200  0.18194400  0.50582600  1
  U  U7  1  0.47876800  0.81805600  0.49417400  1
  V  V0  1  0.15017600  0.03462400  0.04551300  1
  V  V1  1  0.84982400  0.96537600  0.95448700  1
  V  V2  1  0.34982400  0.46537600  0.54551300  1
  V  V3  1  0.84982400  0.03462400  0.45448700  1
  V  V4  1  0.65017600  0.53462400  0.45448700  1
  V  V5  1  0.15017600  0.96537600  0.54551300  1
  V  V6  1  0.65017600  0.46537600  0.95448700  1
  V  V7  1  0.34982400  0.53462400  0.04551300  1
  H  H0  1  0.19789200  0.24176500  0.19567200  1
  H  H1  1  0.80210800  0.75823500  0.80432800  1
  H  H2  1  0.30210800  0.25823500  0.69567200  1
  H  H3  1  0.80210800  0.24176500  0.30432800  1
  H  H4  1  0.69789200  0.74176500  0.30432800  1
  H  H5  1  0.19789200  0.75823500  0.69567200  1
  H  H6  1  0.69789200  0.25823500  0.80432800  1
  H  H7  1  0.30210800  0.74176500  0.19567200  1
  H  H8  1  0.20007500  0.03119100  0.32528700  1
  H  H9  1  0.79992500  0.96880900  0.67471300  1
  H  H10  1  0.29992500  0.46880900  0.82528700  1
  H  H11  1  0.79992500  0.03119100  0.17471300  1
  H  H12  1  0.70007500  0.53119100  0.17471300  1
  H  H13  1  0.20007500  0.96880900  0.82528700  1
  H  H14  1  0.70007500  0.46880900  0.67471300  1
  H  H15  1  0.29992500  0.53119100  0.32528700  1
  O  O0  1  0.20933900  0.19970300  0.02794700  1
  O  O1  1  0.79066100  0.80029700  0.97205300  1
  O  O2  1  0.29066100  0.30029700  0.52794700  1
  O  O3  1  0.79066100  0.19970300  0.47205300  1
  O  O4  1  0.70933900  0.69970300  0.47205300  1
  O  O5  1  0.20933900  0.80029700  0.52794700  1
  O  O6  1  0.70933900  0.30029700  0.97205300  1
  O  O7  1  0.29066100  0.69970300  0.02794700  1
  O  O8  1  0.13824800  0.00356800  0.14901800  1
  O  O9  1  0.86175200  0.99643200  0.85098200  1
  O  O10  1  0.36175200  0.49643200  0.64901800  1
  O  O11  1  0.86175200  0.00356800  0.35098200  1
  O  O12  1  0.63824800  0.50356800  0.35098200  1
  O  O13  1  0.13824800  0.99643200  0.64901800  1
  O  O14  1  0.63824800  0.49643200  0.85098200  1
  O  O15  1  0.36175200  0.50356800  0.14901800  1
  O  O16  1  0.15368500  0.48730600  0.01383200  1
  O  O17  1  0.84631500  0.51269400  0.98616800  1
  O  O18  1  0.34631500  0.01269400  0.51383200  1
  O  O19  1  0.84631500  0.48730600  0.48616800  1
  O  O20  1  0.65368500  0.98730600  0.48616800  1
  O  O21  1  0.15368500  0.51269400  0.51383200  1
  O  O22  1  0.65368500  0.01269400  0.98616800  1
  O  O23  1  0.34631500  0.98730600  0.01383200  1
  O  O24  1  0.51548300  0.19573800  0.11046000  1
  O  O25  1  0.48451700  0.80426200  0.88954000  1
  O  O26  1  0.98451700  0.30426200  0.61046000  1
  O  O27  1  0.48451700  0.19573800  0.38954000  1
  O  O28  1  0.01548300  0.69573800  0.38954000  1
  O  O29  1  0.51548300  0.80426200  0.61046000  1
  O  O30  1  0.01548300  0.30426200  0.88954000  1
  O  O31  1  0.98451700  0.69573800  0.11046000  1
  O  O32  1  0.05896400  0.10061200  0.48426700  1
  O  O33  1  0.94103600  0.89938800  0.51573300  1
  O  O34  1  0.44103600  0.39938800  0.98426700  1
  O  O35  1  0.94103600  0.10061200  0.01573300  1
  O  O36  1  0.55896400  0.60061200  0.01573300  1
  O  O37  1  0.05896400  0.89938800  0.98426700  1
  O  O38  1  0.55896400  0.39938800  0.51573300  1
  O  O39  1  0.44103600  0.60061200  0.48426700  1
  O  O40  1  0.05857300  0.32988900  0.38083900  1
  O  O41  1  0.94142700  0.67011100  0.61916100  1
  O  O42  1  0.44142700  0.17011100  0.88083900  1
  O  O43  1  0.94142700  0.32988900  0.11916100  1
  O  O44  1  0.55857300  0.82988900  0.11916100  1
  O  O45  1  0.05857300  0.67011100  0.88083900  1
  O  O46  1  0.55857300  0.17011100  0.61916100  1
  O  O47  1  0.44142700  0.82988900  0.38083900  1
loop_
_geom_bond_atom_site_label_1
_geom_bond_atom_site_label_2
_geom_bond_distance
_geom_bond_site_symmetry_2
Ba0 O28 2.655339 1_555
Ba0 O31 2.655339 1_455
Ba0 O8 2.663148 1_565
Ba0 O11 2.663148 1_465
Ba0 H7 2.897152 1_555
Ba0 H4 2.897152 1_455
Ba0 H8 2.937871 1_565
Ba0 H11 2.937871 1_465
Ba1 O30 2.655339 1_555
Ba1 O26 2.655339 1_455
Ba1 O9 2.663148 1_445
Ba1 O13 2.663148 1_545
Ba1 H2 2.897152 1_555
Ba1 H6 2.897152 1_455
Ba1 H9 2.937871 1_445
Ba1 H13 2.937871 1_545
Ba2 O25 2.655339 1_555
Ba2 O29 2.655339 1_555
Ba2 O14 2.663148 1_555
Ba2 O10 2.663148 1_555
Ba2 H1 2.897152 1_555
Ba2 H5 2.897152 1_555
Ba2 H10 2.937871 1_555
Ba2 H14 2.937871 1_555
Ba3 O27 2.655339 1_555
Ba3 O24 2.655339 1_555
Ba3 O15 2.663148 1_555
Ba3 O12 2.663148 1_555
Ba3 H0 2.897152 1_555
Ba3 H3 2.897152 1_555
Ba3 H15 2.937871 1_555
Ba3 H12 2.937871 1_555
O0 V0 1.846074 1_555
O0 U3 2.362987 1_455
O0 U2 2.370188 1_554
O1 V1 1.846074 1_555
O1 U5 2.362987 1_655
O1 U4 2.370188 1_556
O2 V2 1.846074 1_555
O2 U6 2.362987 1_555
O2 U0 2.370188 1_555
O3 V3 1.846074 1_555
O3 U0 2.362987 1_655
O3 U6 2.370188 1_555
O4 V4 1.846074 1_555
O4 U7 2.362987 1_555
O4 U1 2.370188 1_555
O5 V5 1.846074 1_555
O5 U1 2.362987 1_455
O5 U7 2.370188 1_555
O6 V6 1.846074 1_555
O6 U2 2.362987 1_555
O6 U3 2.370188 1_556
O7 V7 1.846074 1_555
O7 U4 2.362987 1_555
O7 U5 2.370188 1_554
O8 V0 1.664152 1_555
O9 V1 1.664152 1_555
O10 V2 1.664152 1_555
O11 V3 1.664152 1_555
O12 V4 1.664152 1_555
O13 V5 1.664152 1_555
O14 V6 1.664152 1_555
O15 V7 1.664152 1_555
O16 V7 1.819286 1_555
O16 U3 2.341627 1_455
O16 U5 2.377568 1_554
O17 V6 1.819286 1_555
O17 U5 2.341627 1_655
O17 U3 2.377568 1_556
O18 V5 1.819286 1_545
O18 U6 2.341627 1_555
O18 U7 2.377568 1_545
O19 V4 1.819286 1_555
O19 U0 2.341627 1_655
O19 U1 2.377568 1_555
O20 V3 1.819286 1_565
O20 U7 2.341627 1_555
O20 U6 2.377568 1_565
O21 V2 1.819286 1_555
O21 U1 2.341627 1_455
O21 U0 2.377568 1_555
O22 V1 1.819286 1_545
O22 U2 2.341627 1_555
O22 U4 2.377568 1_546
O23 V0 1.819286 1_565
O23 U4 2.341627 1_555
O23 U2 2.377568 1_564
O24 U2 1.861435 1_554
O25 U4 1.861435 1_556
O26 U0 1.861435 1_655
O27 U6 1.861435 1_555
O28 U1 1.861435 1_455
O29 U7 1.861435 1_555
O30 U3 1.861435 1_456
O31 U5 1.861435 1_654
O32 V5 1.897305 1_545
O32 V3 1.975952 1_455
O32 U0 2.337821 1_555
O33 V3 1.897305 1_565
O33 V5 1.975952 1_655
O33 U1 2.337821 1_555
O34 V7 1.897305 1_556
O34 V6 1.975952 1_555
O34 U2 2.337821 1_555
O35 V1 1.897305 1_544
O35 V0 1.975952 1_655
O35 U3 2.337821 1_555
O36 V6 1.897305 1_554
O36 V7 1.975952 1_555
O36 U4 2.337821 1_555
O37 V0 1.897305 1_566
O37 V1 1.975952 1_455
O37 U5 2.337821 1_555
O38 V4 1.897305 1_555
O38 V2 1.975952 1_555
O38 U6 2.337821 1_555
O39 V2 1.897305 1_555
O39 V4 1.975952 1_555
O39 U7 2.337821 1_555
O40 U0 1.815222 1_555
O41 U1 1.815222 1_555
O42 U2 1.815222 1_555
O43 U3 1.815222 1_555
O44 U4 1.815222 1_555
O45 U5 1.815222 1_555
O46 U6 1.815222 1_555
O47 U7 1.815222 1_555
