# generated using pymatgen
data_LiMnP2O7
_symmetry_space_group_name_H-M   'P 1'
_cell_length_a   8.37461700
_cell_length_b   7.16960800
_cell_length_c   9.75548989
_cell_angle_alpha   67.53505716
_cell_angle_beta   90.00000000
_cell_angle_gamma   90.00000000
_symmetry_Int_Tables_number   1
_chemical_formula_structural   LiMnP2O7
_chemical_formula_sum   'Li4 Mn4 P8 O28'
_cell_volume   541.29593787
_cell_formula_units_Z   4
loop_
 _symmetry_equiv_pos_site_id
 _symmetry_equiv_pos_as_xyz
  1  'x, y, z'
loop_
 _atom_site_type_symbol
 _atom_site_label
 _atom_site_symmetry_multiplicity
 _atom_site_fract_x
 _atom_site_fract_y
 _atom_site_fract_z
 _atom_site_occupancy
  Li  Li0  1  0.88733100  0.17127200  0.25265700  1
  Li  Li1  1  0.61266900  0.17127200  0.75265700  1
  Li  Li2  1  0.38733100  0.82872800  0.24734300  1
  Li  Li3  1  0.11266900  0.82872800  0.74734300  1
  Mn  Mn0  1  0.50297900  0.23575900  0.25211800  1
  Mn  Mn1  1  0.99702100  0.23575900  0.75211800  1
  Mn  Mn2  1  0.00297900  0.76424100  0.24788200  1
  Mn  Mn3  1  0.49702100  0.76424100  0.74788200  1
  P  P0  1  0.22576600  0.59003200  0.54614200  1
  P  P1  1  0.27423400  0.59003200  0.04614200  1
  P  P2  1  0.80795000  0.82094400  0.94991500  1
  P  P3  1  0.30795000  0.17905600  0.55008500  1
  P  P4  1  0.77423400  0.40996800  0.45385800  1
  P  P5  1  0.72576600  0.40996800  0.95385800  1
  P  P6  1  0.69205000  0.82094400  0.44991500  1
  P  P7  1  0.19205000  0.17905600  0.05008500  1
  O  O0  1  0.33600200  0.40294800  0.55034500  1
  O  O1  1  0.32845800  0.71336400  0.60647700  1
  O  O2  1  0.83600200  0.59705200  0.94965500  1
  O  O3  1  0.42640900  0.51151200  0.13819400  1
  O  O4  1  0.92640900  0.48848800  0.36180600  1
  O  O5  1  0.67154200  0.28663600  0.39352300  1
  O  O6  1  0.16399800  0.40294800  0.05034500  1
  O  O7  1  0.57359100  0.48848800  0.86180600  1
  O  O8  1  0.32504800  0.19393900  0.38965200  1
  O  O9  1  0.69091800  0.28511600  0.11977600  1
  O  O10  1  0.82845800  0.28663600  0.89352300  1
  O  O11  1  0.07359100  0.51151200  0.63819400  1
  O  O12  1  0.35845400  0.10969600  0.11052500  1
  O  O13  1  0.17495200  0.19393900  0.88965200  1
  O  O14  1  0.55615100  0.93833100  0.34544500  1
  O  O15  1  0.80908200  0.28511600  0.61977600  1
  O  O16  1  0.05615100  0.06166900  0.15455500  1
  O  O17  1  0.85845400  0.89030400  0.38947500  1
  O  O18  1  0.67495200  0.80606100  0.61034800  1
  O  O19  1  0.94384900  0.93833100  0.84544500  1
  O  O20  1  0.19091800  0.71488400  0.38022400  1
  O  O21  1  0.44384900  0.06166900  0.65455500  1
  O  O22  1  0.82504800  0.80606100  0.11034800  1
  O  O23  1  0.64154600  0.89030400  0.88947500  1
  O  O24  1  0.66399800  0.59705200  0.44965500  1
  O  O25  1  0.17154200  0.71336400  0.10647700  1
  O  O26  1  0.30908200  0.71488400  0.88022400  1
  O  O27  1  0.14154600  0.10969600  0.61052500  1
loop_
_geom_bond_atom_site_label_1
_geom_bond_atom_site_label_2
_geom_bond_distance
_geom_bond_site_symmetry_2
Li0 O17 1.960382 1_545
Li0 O16 2.026571 1_655
Li0 O9 2.060018 1_555
Li1 O23 1.960382 1_545
Li1 O21 2.026571 1_555
Li1 O15 2.060018 1_555
Li2 O12 1.960382 1_565
Li2 O14 2.026571 1_555
Li2 O20 2.060018 1_555
Li3 O27 1.960382 1_565
Li3 O19 2.026571 1_455
Li3 O26 2.060018 1_555
Mn0 O8 1.950142 1_555
Mn0 O3 1.968716 1_555
Mn0 O9 1.979930 1_555
Mn0 O14 2.022564 1_545
Mn0 O5 2.100790 1_555
Mn0 O12 2.268028 1_555
Mn1 O13 1.950142 1_655
Mn1 O11 1.968716 1_655
Mn1 O15 1.979930 1_555
Mn1 O19 2.022564 1_545
Mn1 O10 2.100790 1_555
Mn1 O27 2.268028 1_655
Mn2 O22 1.950142 1_455
Mn2 O4 1.968716 1_455
Mn2 O20 1.979930 1_555
Mn2 O16 2.022564 1_565
Mn2 O25 2.100790 1_555
Mn2 O17 2.268028 1_455
Mn3 O18 1.950142 1_555
Mn3 O7 1.968716 1_555
Mn3 O26 1.979930 1_555
Mn3 O21 2.022564 1_565
Mn3 O1 2.100790 1_555
Mn3 O23 2.268028 1_555
O0 P0 1.615876 1_555
O0 P3 1.623278 1_555
O1 P0 1.505224 1_555
O2 P5 1.615876 1_555
O2 P2 1.623278 1_555
O3 P1 1.536590 1_555
O4 P4 1.536590 1_555
O5 P4 1.505224 1_555
O6 P1 1.615876 1_555
O6 P7 1.623278 1_555
O7 P5 1.536590 1_555
O8 P3 1.534211 1_555
O9 P5 1.548890 1_554
O10 P5 1.505224 1_555
O11 P0 1.536590 1_555
O12 P7 1.520822 1_555
O13 P7 1.534211 1_556
O14 P6 1.544915 1_555
O15 P4 1.548890 1_555
O16 P7 1.544915 1_555
O17 P6 1.520822 1_555
O18 P6 1.534211 1_555
O19 P2 1.544915 1_555
O20 P0 1.548890 1_555
O21 P3 1.544915 1_555
O22 P2 1.534211 1_554
O23 P2 1.520822 1_555
O24 P4 1.615876 1_555
O24 P6 1.623278 1_555
O25 P1 1.505224 1_555
O26 P1 1.548890 1_556
O27 P3 1.520822 1_555
