# generated using pymatgen
data_Ta4CrSe8
_symmetry_space_group_name_H-M   'P 1'
_cell_length_a   6.93808168
_cell_length_b   6.93807969
_cell_length_c   12.86582347
_cell_angle_alpha   89.99995900
_cell_angle_beta   90.00004786
_cell_angle_gamma   119.99995644
_symmetry_Int_Tables_number   1
_chemical_formula_structural   Ta4CrSe8
_chemical_formula_sum   'Ta8 Cr2 Se16'
_cell_volume   536.34853940
_cell_formula_units_Z   2
loop_
 _symmetry_equiv_pos_site_id
 _symmetry_equiv_pos_as_xyz
  1  'x, y, z'
loop_
 _atom_site_type_symbol
 _atom_site_label
 _atom_site_symmetry_multiplicity
 _atom_site_fract_x
 _atom_site_fract_y
 _atom_site_fract_z
 _atom_site_occupancy
  Ta  Ta0  1  0.00000043  -0.00000059  0.25001963  1
  Ta  Ta1  1  -0.00000087  0.00000062  0.74998425  1
  Ta  Ta2  1  0.50962100  0.01923985  0.25003644  1
  Ta  Ta3  1  0.49037185  0.98074545  0.74997639  1
  Ta  Ta4  1  0.98075998  0.49037933  0.25003657  1
  Ta  Ta5  1  0.01925461  0.50962804  0.74997633  1
  Ta  Ta6  1  0.50962190  0.49037841  0.25003613  1
  Ta  Ta7  1  0.49037103  0.50962947  0.74997653  1
  Cr  Cr0  1  -0.00000022  0.00000026  0.00002993  1
  Cr  Cr1  1  0.00000042  -0.00000055  0.49998263  1
  Se  Se0  1  0.33333163  0.66666850  0.61506491  1
  Se  Se1  1  0.66666820  0.33333169  0.38491715  1
  Se  Se2  1  0.66666816  0.33333199  0.11508380  1
  Se  Se3  1  0.33333175  0.66666818  0.88497812  1
  Se  Se4  1  0.16817157  0.33634105  0.12235042  1
  Se  Se5  1  0.83182753  0.66365786  0.87764030  1
  Se  Se6  1  0.66365948  0.83182866  0.12235001  1
  Se  Se7  1  0.83183331  0.66367017  0.62233296  1
  Se  Se8  1  0.33634228  0.16817288  0.87764022  1
  Se  Se9  1  0.16815825  0.33631193  0.37764270  1
  Se  Se10  1  0.16817054  0.83182931  0.12235001  1
  Se  Se11  1  0.33632927  0.16816668  0.62233303  1
  Se  Se12  1  0.83182780  0.16817231  0.87764054  1
  Se  Se13  1  0.66368782  0.83184136  0.37764267  1
  Se  Se14  1  0.83183441  0.16816480  0.62233201  1
  Se  Se15  1  0.16815687  0.83184332  0.37764331  1
loop_
_geom_bond_atom_site_label_1
_geom_bond_atom_site_label_2
_geom_bond_distance
_geom_bond_site_symmetry_2
Cr0 Se6 2.561407 1_445
Cr0 Se10 2.561411 1_545
Cr0 Se4 2.561412 1_555
Cr0 Se5 2.561966 1_444
Cr0 Se8 2.561968 1_554
Cr0 Se12 2.561970 1_454
Cr1 Se15 2.561427 1_545
Cr1 Se9 2.561431 1_555
Cr1 Se13 2.561432 1_445
Cr1 Se11 2.561591 1_555
Cr1 Se7 2.561592 1_445
Cr1 Se14 2.561595 1_455
Se0 Ta3 2.564011 1_555
Se0 Ta5 2.564011 1_555
Se0 Ta7 2.564016 1_555
Se1 Ta4 2.563808 1_555
Se1 Ta2 2.563809 1_555
Se1 Ta6 2.563814 1_555
Se2 Ta4 2.564436 1_555
Se2 Ta2 2.564436 1_555
Se2 Ta6 2.564436 1_555
Se3 Ta3 2.564798 1_555
Se3 Ta5 2.564798 1_555
Se3 Ta7 2.564800 1_555
Se4 Ta0 2.604262 1_555
Se4 Ta6 2.630835 1_555
Se4 Ta4 2.630837 1_455
Se5 Ta1 2.604160 1_665
Se5 Ta7 2.630692 1_555
Se5 Ta5 2.630695 1_655
Se6 Ta0 2.604262 1_665
Se6 Ta6 2.630838 1_555
Se6 Ta2 2.630838 1_565
Se7 Ta1 2.604065 1_665
Se7 Ta7 2.630555 1_555
Se7 Ta5 2.630555 1_655
Se8 Ta1 2.604162 1_555
Se8 Ta7 2.630691 1_555
Se8 Ta3 2.630695 1_545
Se9 Ta0 2.603753 1_555
Se9 Ta6 2.630257 1_555
Se9 Ta4 2.630260 1_455
Se10 Ta0 2.604259 1_565
Se10 Ta4 2.630840 1_455
Se10 Ta2 2.630841 1_565
Se11 Ta1 2.604064 1_555
Se11 Ta7 2.630556 1_555
Se11 Ta3 2.630557 1_545
Se12 Ta1 2.604164 1_655
Se12 Ta5 2.630691 1_655
Se12 Ta3 2.630692 1_545
Se13 Ta0 2.603754 1_665
Se13 Ta6 2.630252 1_555
Se13 Ta2 2.630259 1_565
Se14 Ta1 2.604063 1_655
Se14 Ta3 2.630562 1_545
Se14 Ta5 2.630564 1_655
Se15 Ta0 2.603755 1_565
Se15 Ta4 2.630259 1_455
Se15 Ta2 2.630261 1_565
