# generated using pymatgen
data_Er2ZrS5
_symmetry_space_group_name_H-M   'P 1'
_cell_length_a   7.21546701
_cell_length_b   7.67194014
_cell_length_c   11.54858134
_cell_angle_alpha   90.00000000
_cell_angle_beta   90.00000000
_cell_angle_gamma   90.00000000
_symmetry_Int_Tables_number   1
_chemical_formula_structural   Er2ZrS5
_chemical_formula_sum   'Er8 Zr4 S20'
_cell_volume   639.29055561
_cell_formula_units_Z   4
loop_
 _symmetry_equiv_pos_site_id
 _symmetry_equiv_pos_as_xyz
  1  'x, y, z'
loop_
 _atom_site_type_symbol
 _atom_site_label
 _atom_site_symmetry_multiplicity
 _atom_site_fract_x
 _atom_site_fract_y
 _atom_site_fract_z
 _atom_site_occupancy
  Er  Er0  1  0.51744972  0.49678052  0.32016528  1
  Er  Er1  1  0.98255028  0.00321948  0.82016528  1
  Er  Er2  1  0.48255028  0.99678052  0.67983472  1
  Er  Er3  1  0.01744972  0.50321948  0.17983472  1
  Er  Er4  1  0.48255028  0.50321948  0.67983472  1
  Er  Er5  1  0.01744972  0.99678052  0.17983472  1
  Er  Er6  1  0.51744972  0.00321948  0.32016528  1
  Er  Er7  1  0.98255028  0.49678052  0.82016528  1
  Zr  Zr0  1  0.07823936  0.75000000  0.49452273  1
  Zr  Zr1  1  0.42176064  0.75000000  0.99452273  1
  Zr  Zr2  1  0.92176064  0.25000000  0.50547727  1
  Zr  Zr3  1  0.57823936  0.25000000  0.00547727  1
  S  S0  1  0.84068506  0.96291251  0.59711322  1
  S  S1  1  0.65931494  0.53708749  0.09711322  1
  S  S2  1  0.15931494  0.46291251  0.40288678  1
  S  S3  1  0.34068506  0.03708749  0.90288678  1
  S  S4  1  0.15931494  0.03708749  0.40288678  1
  S  S5  1  0.34068506  0.46291251  0.90288678  1
  S  S6  1  0.84068506  0.53708749  0.59711322  1
  S  S7  1  0.65931494  0.96291251  0.09711322  1
  S  S8  1  0.82789247  0.75000000  0.31875993  1
  S  S9  1  0.67210753  0.75000000  0.81875993  1
  S  S10  1  0.17210753  0.25000000  0.68124007  1
  S  S11  1  0.32789247  0.25000000  0.18124007  1
  S  S12  1  0.45035655  0.75000000  0.49783434  1
  S  S13  1  0.04964345  0.75000000  0.99783434  1
  S  S14  1  0.54964345  0.25000000  0.50216566  1
  S  S15  1  0.95035655  0.25000000  0.00216566  1
  S  S16  1  0.19418824  0.75000000  0.70886250  1
  S  S17  1  0.30581176  0.75000000  0.20886250  1
  S  S18  1  0.80581176  0.25000000  0.29113750  1
  S  S19  1  0.69418824  0.25000000  0.79113750  1
loop_
_geom_bond_atom_site_label_1
_geom_bond_atom_site_label_2
_geom_bond_distance
_geom_bond_site_symmetry_2
Er0 S2 2.767267 1_555
Er0 S17 2.785351 1_555
Er0 S1 2.789063 1_555
Er0 S18 2.833034 1_555
Er0 S11 2.833605 1_555
Er0 S14 2.838353 1_555
Er0 S12 2.866771 1_555
Er0 S8 2.965104 1_555
Er1 S3 2.767267 1_655
Er1 S16 2.785351 1_645
Er1 S0 2.789063 1_545
Er1 S19 2.833034 1_555
Er1 S10 2.833605 1_655
Er1 S15 2.838353 1_556
Er1 S13 2.866771 1_645
Er1 S9 2.965104 1_545
Er2 S0 2.767267 1_555
Er2 S19 2.785351 1_565
Er2 S3 2.789063 1_565
Er2 S16 2.833034 1_555
Er2 S9 2.833605 1_555
Er2 S12 2.838353 1_555
Er2 S14 2.866771 1_565
Er2 S10 2.965104 1_565
Er3 S1 2.767267 1_455
Er3 S18 2.785351 1_455
Er3 S2 2.789063 1_555
Er3 S17 2.833034 1_555
Er3 S8 2.833605 1_455
Er3 S13 2.838353 1_554
Er3 S15 2.866771 1_455
Er3 S11 2.965104 1_555
Er4 S6 2.767267 1_555
Er4 S19 2.785351 1_555
Er4 S5 2.789063 1_555
Er4 S16 2.833034 1_555
Er4 S9 2.833605 1_555
Er4 S12 2.838353 1_555
Er4 S14 2.866771 1_555
Er4 S10 2.965104 1_555
Er5 S7 2.767267 1_455
Er5 S18 2.785351 1_465
Er5 S4 2.789063 1_565
Er5 S17 2.833034 1_555
Er5 S8 2.833605 1_455
Er5 S13 2.838353 1_554
Er5 S15 2.866771 1_465
Er5 S11 2.965104 1_565
Er6 S4 2.767267 1_555
Er6 S17 2.785351 1_545
Er6 S7 2.789063 1_545
Er6 S18 2.833034 1_555
Er6 S11 2.833605 1_555
Er6 S14 2.838353 1_555
Er6 S12 2.866771 1_545
Er6 S8 2.965104 1_545
Er7 S5 2.767267 1_655
Er7 S16 2.785351 1_655
Er7 S6 2.789063 1_555
Er7 S19 2.833034 1_555
Er7 S10 2.833605 1_655
Er7 S15 2.838353 1_556
Er7 S13 2.866771 1_655
Er7 S9 2.965104 1_555
S0 Zr2 2.512615 1_565
S0 Zr0 2.647617 1_655
S1 Zr3 2.512615 1_555
S1 Zr1 2.647617 1_554
S2 Zr0 2.512615 1_555
S2 Zr2 2.647617 1_455
S3 Zr1 2.512615 1_545
S3 Zr3 2.647617 1_556
S4 Zr0 2.512615 1_545
S4 Zr2 2.647617 1_455
S5 Zr1 2.512615 1_555
S5 Zr3 2.647617 1_556
S6 Zr2 2.512615 1_555
S6 Zr0 2.647617 1_655
S7 Zr3 2.512615 1_565
S7 Zr1 2.647617 1_554
S8 Zr0 2.717187 1_655
S9 Zr1 2.717187 1_555
S10 Zr2 2.717187 1_455
S11 Zr3 2.717187 1_555
S12 Zr0 2.685272 1_555
S13 Zr1 2.685272 1_555
S14 Zr2 2.685272 1_555
S15 Zr3 2.685272 1_555
S16 Zr0 2.612882 1_555
S17 Zr1 2.612882 1_554
S18 Zr2 2.612882 1_555
S19 Zr3 2.612882 1_556
