# generated using pymatgen
data_MnGeIr
_symmetry_space_group_name_H-M   'P 1'
_cell_length_a   3.97856200
_cell_length_b   6.15674200
_cell_length_c   7.45599300
_cell_angle_alpha   90.00000000
_cell_angle_beta   90.00000000
_cell_angle_gamma   90.00000000
_symmetry_Int_Tables_number   1
_chemical_formula_structural   MnGeIr
_chemical_formula_sum   'Mn4 Ge4 Ir4'
_cell_volume   182.63439766
_cell_formula_units_Z   4
loop_
 _symmetry_equiv_pos_site_id
 _symmetry_equiv_pos_as_xyz
  1  'x, y, z'
loop_
 _atom_site_type_symbol
 _atom_site_label
 _atom_site_symmetry_multiplicity
 _atom_site_fract_x
 _atom_site_fract_y
 _atom_site_fract_z
 _atom_site_occupancy
  Mn  Mn0  1  0.75000000  0.96858300  0.31441100  1
  Mn  Mn1  1  0.25000000  0.03141700  0.68558900  1
  Mn  Mn2  1  0.25000000  0.53141700  0.81441100  1
  Mn  Mn3  1  0.75000000  0.46858300  0.18558900  1
  Ge  Ge0  1  0.75000000  0.73789400  0.62179900  1
  Ge  Ge1  1  0.25000000  0.26210600  0.37820100  1
  Ge  Ge2  1  0.25000000  0.76210600  0.12179900  1
  Ge  Ge3  1  0.75000000  0.23789400  0.87820100  1
  Ir  Ir0  1  0.75000000  0.83566100  0.93810500  1
  Ir  Ir1  1  0.25000000  0.16433900  0.06189500  1
  Ir  Ir2  1  0.25000000  0.66433900  0.43810500  1
  Ir  Ir3  1  0.75000000  0.33566100  0.56189500  1
loop_
_geom_bond_atom_site_label_1
_geom_bond_atom_site_label_2
_geom_bond_distance
_geom_bond_site_symmetry_2
Ge0 Ir0 2.433978 1_555
Ge0 Ir2 2.457271 1_555
Ge0 Ir2 2.457271 1_655
Ge0 Ir3 2.516400 1_555
Ge0 Mn0 2.696286 1_555
Ge0 Mn1 2.729327 1_565
Ge0 Mn1 2.729327 1_665
Ge0 Mn2 2.763273 1_555
Ge0 Mn2 2.763273 1_655
Ge1 Ir1 2.433978 1_555
Ge1 Ir3 2.457271 1_455
Ge1 Ir3 2.457271 1_555
Ge1 Ir2 2.516400 1_555
Ge1 Mn1 2.696286 1_555
Ge1 Mn0 2.729327 1_445
Ge1 Mn0 2.729327 1_545
Ge1 Mn3 2.763273 1_455
Ge1 Mn3 2.763273 1_555
Ge2 Ir2 2.433978 1_555
Ge2 Ir0 2.457271 1_454
Ge2 Ir0 2.457271 1_554
Ge2 Ir1 2.516400 1_565
Ge2 Mn2 2.696286 1_554
Ge2 Mn3 2.729327 1_455
Ge2 Mn3 2.729327 1_555
Ge2 Mn0 2.763273 1_455
Ge2 Mn0 2.763273 1_555
Ge3 Ir3 2.433978 1_555
Ge3 Ir1 2.457271 1_656
Ge3 Ir1 2.457271 1_556
Ge3 Ir0 2.516400 1_545
Ge3 Mn3 2.696286 1_556
Ge3 Mn2 2.729327 1_655
Ge3 Mn2 2.729327 1_555
Ge3 Mn1 2.763273 1_655
Ge3 Mn1 2.763273 1_555
Ir0 Mn2 2.883835 1_555
Ir0 Mn2 2.883835 1_655
Ir0 Mn3 2.917624 1_556
Ir0 Mn0 2.922648 1_556
Ir0 Mn1 2.992418 1_565
Ir0 Mn1 2.992418 1_665
Ir1 Mn3 2.883835 1_455
Ir1 Mn3 2.883835 1_555
Ir1 Mn2 2.917624 1_554
Ir1 Mn1 2.922648 1_554
Ir1 Mn0 2.992418 1_445
Ir1 Mn0 2.992418 1_545
Ir2 Mn0 2.883835 1_455
Ir2 Mn0 2.883835 1_555
Ir2 Mn1 2.917624 1_565
Ir2 Mn2 2.922648 1_555
Ir2 Mn3 2.992418 1_455
Ir2 Mn3 2.992418 1_555
Ir3 Mn1 2.883835 1_655
Ir3 Mn1 2.883835 1_555
Ir3 Mn0 2.917624 1_545
Ir3 Mn3 2.922648 1_555
Ir3 Mn2 2.992418 1_655
Ir3 Mn2 2.992418 1_555
