# generated using pymatgen
data_LiVSi3O8
_symmetry_space_group_name_H-M   'P 1'
_cell_length_a   7.23275400
_cell_length_b   7.39239434
_cell_length_c   7.69760135
_cell_angle_alpha   116.19558988
_cell_angle_beta   108.77099775
_cell_angle_gamma   98.17306861
_symmetry_Int_Tables_number   1
_chemical_formula_structural   LiVSi3O8
_chemical_formula_sum   'Li2 V2 Si6 O16'
_cell_volume   329.51051420
_cell_formula_units_Z   2
loop_
 _symmetry_equiv_pos_site_id
 _symmetry_equiv_pos_as_xyz
  1  'x, y, z'
loop_
 _atom_site_type_symbol
 _atom_site_label
 _atom_site_symmetry_multiplicity
 _atom_site_fract_x
 _atom_site_fract_y
 _atom_site_fract_z
 _atom_site_occupancy
  Li  Li0  1  0.14462700  0.02448900  0.24867900  1
  Li  Li1  1  0.85537300  0.97551100  0.75132100  1
  V  V0  1  0.80557800  0.31630800  0.83565700  1
  V  V1  1  0.19442200  0.68369200  0.16434300  1
  Si  Si0  1  0.71545000  0.21166200  0.22209900  1
  Si  Si1  1  0.62710000  0.77276400  0.45648800  1
  Si  Si2  1  0.74207500  0.65123700  0.17530200  1
  Si  Si3  1  0.25792500  0.34876300  0.82469800  1
  Si  Si4  1  0.37290000  0.22723600  0.54351200  1
  Si  Si5  1  0.28455000  0.78833800  0.77790100  1
  O  O0  1  0.86389900  0.17210300  0.13716800  1
  O  O1  1  0.72073000  0.69197700  0.34905700  1
  O  O2  1  0.47722700  0.26873400  0.03922700  1
  O  O3  1  0.37473400  0.81519600  0.32624500  1
  O  O4  1  0.92401900  0.77456900  0.10953800  1
  O  O5  1  0.72318600  0.99666800  0.44189500  1
  O  O6  1  0.79058300  0.39614700  0.28668100  1
  O  O7  1  0.71078800  0.60201700  0.70991200  1
  O  O8  1  0.28921200  0.39798300  0.29008800  1
  O  O9  1  0.20941700  0.60385300  0.71331900  1
  O  O10  1  0.27681400  0.00333200  0.55810500  1
  O  O11  1  0.07598100  0.22543100  0.89046200  1
  O  O12  1  0.62526600  0.18480400  0.67375500  1
  O  O13  1  0.52277300  0.73126600  0.96077300  1
  O  O14  1  0.27927000  0.30802300  0.65094300  1
  O  O15  1  0.13610100  0.82789700  0.86283200  1
loop_
_geom_bond_atom_site_label_1
_geom_bond_atom_site_label_2
_geom_bond_distance
_geom_bond_site_symmetry_2
Li0 O4 1.849692 1_445
Li0 Si4 2.001194 1_555
Li0 O8 2.646872 1_555
Li1 O11 1.849692 1_665
Li1 Si1 2.001194 1_555
Li1 O7 2.646872 1_555
O0 Si0 1.427580 1_555
O1 Si1 1.240366 1_555
O1 Si2 1.301504 1_555
O2 Si0 2.073255 1_555
O2 Si3 2.244213 1_554
O3 V1 1.312596 1_555
O3 Si1 1.923007 1_555
O4 Si2 1.820525 1_555
O4 V1 2.132386 1_655
O5 Si1 1.767080 1_555
O6 Si0 1.191305 1_555
O7 V0 2.767187 1_555
O8 V1 2.767187 1_555
O9 Si5 1.191305 1_555
O10 Si4 1.767080 1_555
O11 Si3 1.820525 1_555
O11 V0 2.132386 1_455
O12 V0 1.312596 1_555
O12 Si4 1.923007 1_555
O13 Si5 2.073255 1_555
O13 Si2 2.244213 1_556
O14 Si4 1.240366 1_555
O14 Si3 1.301504 1_555
O15 Si5 1.427580 1_555
