# generated using pymatgen
data_Co4(CuO4)3
_symmetry_space_group_name_H-M   'P 1'
_cell_length_a   6.23955117
_cell_length_b   6.24766986
_cell_length_c   6.40364614
_cell_angle_alpha   70.18244310
_cell_angle_beta   110.03790776
_cell_angle_gamma   70.85656116
_symmetry_Int_Tables_number   1
_chemical_formula_structural   Co4(CuO4)3
_chemical_formula_sum   'Co4 Cu3 O12'
_cell_volume   190.75613675
_cell_formula_units_Z   1
loop_
 _symmetry_equiv_pos_site_id
 _symmetry_equiv_pos_as_xyz
  1  'x, y, z'
loop_
 _atom_site_type_symbol
 _atom_site_label
 _atom_site_symmetry_multiplicity
 _atom_site_fract_x
 _atom_site_fract_y
 _atom_site_fract_z
 _atom_site_occupancy
  Co  Co0  1  0.49998000  0.49996600  0.50010000  1
  Co  Co1  1  0.50002800  0.00007400  0.99995700  1
  Co  Co2  1  0.99996900  0.49999800  0.00000400  1
  Co  Co3  1  0.00014400  0.99997800  0.49998700  1
  Cu  Cu0  1  0.50023400  0.99985600  0.49997900  1
  Cu  Cu1  1  0.99979500  0.49995600  0.49985100  1
  Cu  Cu2  1  0.49996600  0.49986400  0.00021500  1
  O  O0  1  0.19172100  0.13503400  0.69138400  1
  O  O1  1  0.80832600  0.86492000  0.30856900  1
  O  O2  1  0.18982100  0.51006400  0.33338700  1
  O  O3  1  0.30015000  0.18886200  0.14383600  1
  O  O4  1  0.86571800  0.32894500  0.17213900  1
  O  O5  1  0.51192900  0.29947700  0.84398200  1
  O  O6  1  0.67742300  0.18828000  0.50255100  1
  O  O7  1  0.13407700  0.67114100  0.82780200  1
  O  O8  1  0.81016200  0.48983800  0.66668600  1
  O  O9  1  0.69985600  0.81120600  0.85601300  1
  O  O10  1  0.48798500  0.70075900  0.15615700  1
  O  O11  1  0.32271400  0.81178400  0.49740200  1
loop_
_geom_bond_atom_site_label_1
_geom_bond_atom_site_label_2
_geom_bond_distance
_geom_bond_site_symmetry_2
Co0 O8 1.829429 1_555
Co0 O2 1.829573 1_555
Co0 O11 1.889378 1_555
Co0 O6 1.889815 1_555
Co0 O5 2.092780 1_555
Co0 O10 2.093395 1_555
Co1 O5 1.837733 1_555
Co1 O10 1.838071 1_546
Co1 O1 1.875352 1_546
Co1 O0 1.875539 1_555
Co1 O3 2.086854 1_556
Co1 O9 2.087286 1_545
Co2 O9 1.830393 1_554
Co2 O3 1.830567 1_655
Co2 O7 1.865245 1_654
Co2 O4 1.865465 1_555
Co2 O8 2.090784 1_554
Co2 O2 2.090866 1_655
Co3 O11 1.979288 1_555
Co3 O6 1.980168 1_465
Co3 O0 2.000449 1_565
Co3 O1 2.001324 1_455
Co3 O4 2.017962 1_465
Co3 O7 2.018262 1_555
Cu0 O9 1.845984 1_555
Cu0 O3 1.846653 1_565
Cu0 O11 1.860654 1_555
Cu0 O6 1.860829 1_565
Cu1 O8 1.847952 1_555
Cu1 O2 1.848167 1_655
Cu1 O0 1.855564 1_655
Cu1 O1 1.855691 1_555
Cu2 O5 1.847442 1_554
Cu2 O10 1.848673 1_555
Cu2 O4 1.855597 1_555
Cu2 O7 1.856178 1_554
