# generated using pymatgen
data_Hf15Mo11Se2
_symmetry_space_group_name_H-M   'P 1'
_cell_length_a   9.03752500
_cell_length_b   8.35163426
_cell_length_c   8.35163426
_cell_angle_alpha   120.02688658
_cell_angle_beta   90.00000000
_cell_angle_gamma   90.00000000
_symmetry_Int_Tables_number   1
_chemical_formula_structural   Hf15Mo11Se2
_chemical_formula_sum   'Hf15 Mo11 Se2'
_cell_volume   545.76458593
_cell_formula_units_Z   1
loop_
 _symmetry_equiv_pos_site_id
 _symmetry_equiv_pos_as_xyz
  1  'x, y, z'
loop_
 _atom_site_type_symbol
 _atom_site_label
 _atom_site_symmetry_multiplicity
 _atom_site_fract_x
 _atom_site_fract_y
 _atom_site_fract_z
 _atom_site_occupancy
  Hf  Hf0  1  0.53859400  0.79676200  0.59359500  1
  Hf  Hf1  1  0.53848600  0.79676200  0.20323800  1
  Hf  Hf2  1  0.53859400  0.40640500  0.20323800  1
  Hf  Hf3  1  0.45237600  0.19814400  0.39604500  1
  Hf  Hf4  1  0.45255000  0.19787700  0.80212300  1
  Hf  Hf5  1  0.45237600  0.60395500  0.80185600  1
  Hf  Hf6  1  0.04762400  0.19814400  0.39604500  1
  Hf  Hf7  1  0.04745000  0.19787700  0.80212300  1
  Hf  Hf8  1  0.04762400  0.60395500  0.80185600  1
  Hf  Hf9  1  0.96140600  0.79676200  0.59359500  1
  Hf  Hf10  1  0.96151400  0.79676200  0.20323800  1
  Hf  Hf11  1  0.96140600  0.40640500  0.20323800  1
  Hf  Hf12  1  0.75000000  0.46259000  0.92519000  1
  Hf  Hf13  1  0.75000000  0.46269900  0.53730100  1
  Hf  Hf14  1  0.75000000  0.07481000  0.53741000  1
  Mo  Mo0  1  0.49056600  0.99996400  0.00003600  1
  Mo  Mo1  1  0.00943400  0.99996400  0.00003600  1
  Mo  Mo2  1  0.75000000  0.10763600  0.21539100  1
  Mo  Mo3  1  0.75000000  0.10762400  0.89237600  1
  Mo  Mo4  1  0.75000000  0.78460900  0.89236400  1
  Mo  Mo5  1  0.25000000  0.88348100  0.76680100  1
  Mo  Mo6  1  0.25000000  0.88349500  0.11650500  1
  Mo  Mo7  1  0.25000000  0.23319900  0.11651900  1
  Mo  Mo8  1  0.25000000  0.55023000  0.10027400  1
  Mo  Mo9  1  0.25000000  0.55037600  0.44962400  1
  Mo  Mo10  1  0.25000000  0.89972600  0.44977000  1
  Se  Se0  1  0.75000000  0.66674900  0.33325100  1
  Se  Se1  1  0.25000000  0.33303800  0.66696200  1
loop_
_geom_bond_atom_site_label_1
_geom_bond_atom_site_label_2
_geom_bond_distance
_geom_bond_site_symmetry_2
Hf0 Se0 2.682183 1_555
Hf0 Mo5 2.893288 1_555
Hf0 Mo0 2.970761 1_556
Hf0 Mo9 3.163283 1_555
Hf0 Mo10 3.165218 1_555
Hf0 Mo3 3.183331 1_565
Hf0 Mo4 3.184365 1_555
Hf1 Se0 2.681800 1_555
Hf1 Mo6 2.893444 1_555
Hf1 Mo0 2.971536 1_555
Hf1 Mo10 3.162948 1_555
Hf1 Mo8 3.162948 1_555
Hf1 Mo4 3.184564 1_554
Hf1 Mo2 3.184564 1_565
Hf2 Se0 2.682183 1_555
Hf2 Mo7 2.893288 1_555
Hf2 Mo0 2.970761 1_545
Hf2 Mo9 3.163283 1_555
Hf2 Mo8 3.165218 1_555
Hf2 Mo3 3.183331 1_554
Hf2 Mo2 3.184365 1_555
Hf3 Se1 2.680043 1_555
Hf3 Mo0 2.884175 1_545
Hf3 Mo2 2.990196 1_555
Hf3 Mo6 3.092108 1_545
Hf3 Mo7 3.092697 1_555
Hf3 Mo10 3.298046 1_545
Hf3 Mo9 3.298736 1_555
Hf4 Se1 2.678549 1_555
Hf4 Mo0 2.883828 1_546
Hf4 Mo3 2.988546 1_555
Hf4 Mo7 3.091462 1_556
Hf4 Mo5 3.091462 1_545
Hf4 Mo8 3.298090 1_556
Hf4 Mo10 3.298090 1_545
Hf5 Se1 2.680043 1_555
Hf5 Mo0 2.884175 1_556
Hf5 Mo4 2.990196 1_555
Hf5 Mo6 3.092108 1_556
Hf5 Mo5 3.092697 1_555
Hf5 Mo8 3.298046 1_556
Hf5 Mo9 3.298736 1_555
Hf6 Se1 2.680043 1_555
Hf6 Mo1 2.884175 1_545
Hf6 Mo2 2.990196 1_455
Hf6 Mo6 3.092108 1_545
Hf6 Mo7 3.092697 1_555
Hf6 Mo10 3.298046 1_545
Hf6 Mo9 3.298736 1_555
Hf7 Se1 2.678549 1_555
Hf7 Mo1 2.883828 1_546
Hf7 Mo3 2.988546 1_455
Hf7 Mo7 3.091462 1_556
Hf7 Mo5 3.091462 1_545
Hf7 Mo8 3.298090 1_556
Hf7 Mo10 3.298090 1_545
Hf8 Se1 2.680043 1_555
Hf8 Mo1 2.884175 1_556
Hf8 Mo4 2.990196 1_455
Hf8 Mo6 3.092108 1_556
Hf8 Mo5 3.092697 1_555
Hf8 Mo8 3.298046 1_556
Hf8 Mo9 3.298736 1_555
Hf9 Se0 2.682183 1_555
Hf9 Mo5 2.893288 1_655
Hf9 Mo1 2.970761 1_656
Hf9 Mo9 3.163283 1_655
Hf9 Mo10 3.165218 1_655
Hf9 Mo3 3.183331 1_565
Hf9 Mo4 3.184365 1_555
Hf10 Se0 2.681800 1_555
Hf10 Mo6 2.893444 1_655
Hf10 Mo1 2.971536 1_655
Hf10 Mo8 3.162948 1_655
Hf10 Mo10 3.162948 1_655
Hf10 Mo4 3.184564 1_554
Hf10 Mo2 3.184564 1_565
Hf11 Se0 2.682183 1_555
Hf11 Mo7 2.893288 1_655
Hf11 Mo1 2.970761 1_645
Hf11 Mo9 3.163283 1_655
Hf11 Mo8 3.165218 1_655
Hf11 Mo3 3.183331 1_554
Hf11 Mo2 3.184365 1_555
Hf12 Mo4 2.836520 1_555
Hf12 Mo3 2.837348 1_555
Hf12 Se0 2.950594 1_556
Hf13 Mo4 2.835925 1_555
Hf13 Mo2 2.835925 1_555
Hf13 Se0 2.952076 1_555
Hf14 Mo2 2.836520 1_555
Hf14 Mo3 2.837348 1_555
Hf14 Se0 2.950594 1_545
Mo0 Mo6 2.750645 1_555
Mo0 Mo7 2.751542 1_565
Mo0 Mo5 2.751542 1_554
Mo0 Mo4 2.814633 1_554
Mo0 Mo2 2.814633 1_565
Mo0 Mo3 2.814843 1_564
Mo1 Mo6 2.750645 1_555
Mo1 Mo7 2.751542 1_565
Mo1 Mo5 2.751542 1_554
Mo1 Mo4 2.814633 1_454
Mo1 Mo2 2.814633 1_465
Mo1 Mo3 2.814843 1_464
Mo2 Mo4 2.696707 1_544
Mo2 Mo3 2.697653 1_554
Mo3 Mo4 2.697653 1_545
Mo5 Mo9 2.716799 1_555
Mo5 Mo7 2.919530 1_566
Mo5 Mo6 2.920541 1_556
Mo6 Mo8 2.718010 1_555
Mo6 Mo7 2.920541 1_565
Mo7 Mo9 2.716799 1_555
Mo7 Mo8 2.718157 1_555
Mo8 Mo9 2.917033 1_555
Mo8 Se1 3.133180 1_554
Mo9 Se1 3.144319 1_555
Mo10 Mo6 2.718010 1_555
Mo10 Mo5 2.718157 1_555
Mo10 Mo9 2.917033 1_555
Mo10 Mo8 2.917676 1_555
Mo10 Se1 3.133180 1_565
