# generated using pymatgen
data_ZnCr2O4
_symmetry_space_group_name_H-M   'P 1'
_cell_length_a   2.94047100
_cell_length_b   9.66754800
_cell_length_c   9.95358400
_cell_angle_alpha   90.00000000
_cell_angle_beta   90.00000000
_cell_angle_gamma   90.00000000
_symmetry_Int_Tables_number   1
_chemical_formula_structural   ZnCr2O4
_chemical_formula_sum   'Zn4 Cr8 O16'
_cell_volume   282.95197101
_cell_formula_units_Z   4
loop_
 _symmetry_equiv_pos_site_id
 _symmetry_equiv_pos_as_xyz
  1  'x, y, z'
loop_
 _atom_site_type_symbol
 _atom_site_label
 _atom_site_symmetry_multiplicity
 _atom_site_fract_x
 _atom_site_fract_y
 _atom_site_fract_z
 _atom_site_occupancy
  Zn  Zn0  1  0.67032600  0.85444700  0.25000000  1
  Zn  Zn1  1  0.67032600  0.64555300  0.75000000  1
  Zn  Zn2  1  0.32967400  0.35444700  0.25000000  1
  Zn  Zn3  1  0.32967400  0.14555300  0.75000000  1
  Cr  Cr0  1  0.23123600  0.61689100  0.42973700  1
  Cr  Cr1  1  0.23123600  0.88310900  0.92973700  1
  Cr  Cr2  1  0.76876400  0.38310900  0.92973700  1
  Cr  Cr3  1  0.23123600  0.88310900  0.57026300  1
  Cr  Cr4  1  0.76876400  0.38310900  0.57026300  1
  Cr  Cr5  1  0.23123600  0.61689100  0.07026300  1
  Cr  Cr6  1  0.76876400  0.11689100  0.07026300  1
  Cr  Cr7  1  0.76876400  0.11689100  0.42973700  1
  O  O0  1  0.73231400  0.48177400  0.11032700  1
  O  O1  1  0.26768600  0.51822600  0.88967300  1
  O  O2  1  0.72786300  0.75000000  0.00000000  1
  O  O3  1  0.26768600  0.98177400  0.11032700  1
  O  O4  1  0.26768600  0.98177400  0.38967300  1
  O  O5  1  0.18232000  0.78887000  0.75000000  1
  O  O6  1  0.73231400  0.01822600  0.88967300  1
  O  O7  1  0.81768000  0.28887000  0.75000000  1
  O  O8  1  0.72786300  0.75000000  0.50000000  1
  O  O9  1  0.27213700  0.25000000  0.00000000  1
  O  O10  1  0.73231400  0.48177400  0.38967300  1
  O  O11  1  0.81768000  0.21113000  0.25000000  1
  O  O12  1  0.18232000  0.71113000  0.25000000  1
  O  O13  1  0.27213700  0.25000000  0.50000000  1
  O  O14  1  0.73231400  0.01822600  0.61032700  1
  O  O15  1  0.26768600  0.51822600  0.61032700  1
loop_
_geom_bond_atom_site_label_1
_geom_bond_atom_site_label_2
_geom_bond_distance
_geom_bond_site_symmetry_2
Cr0 O10 2.004394 1_455
Cr0 O10 2.009039 1_555
Cr0 O12 2.012794 1_555
Cr0 O15 2.037740 1_555
Cr0 O8 2.068235 1_555
Cr0 O8 2.082288 1_455
Cr1 O6 2.004394 1_465
Cr1 O6 2.009039 1_565
Cr1 O5 2.012794 1_555
Cr1 O3 2.037740 1_556
Cr1 O2 2.068235 1_556
Cr1 O2 2.082288 1_456
Cr2 O1 2.004394 1_655
Cr2 O1 2.009039 1_555
Cr2 O7 2.012794 1_555
Cr2 O0 2.037740 1_556
Cr2 O9 2.068235 1_556
Cr2 O9 2.082288 1_656
Cr3 O14 2.004394 1_465
Cr3 O14 2.009039 1_565
Cr3 O5 2.012794 1_555
Cr3 O4 2.037740 1_555
Cr3 O8 2.068235 1_555
Cr3 O8 2.082288 1_455
Cr4 O15 2.004394 1_655
Cr4 O15 2.009039 1_555
Cr4 O7 2.012794 1_555
Cr4 O10 2.037740 1_555
Cr4 O13 2.068235 1_555
Cr4 O13 2.082288 1_655
Cr5 O0 2.004394 1_455
Cr5 O0 2.009039 1_555
Cr5 O12 2.012794 1_555
Cr5 O1 2.037740 1_554
Cr5 O2 2.068235 1_555
Cr5 O2 2.082288 1_455
Cr6 O3 2.004394 1_645
Cr6 O3 2.009039 1_545
Cr6 O11 2.012794 1_555
Cr6 O6 2.037740 1_554
Cr6 O9 2.068235 1_555
Cr6 O9 2.082288 1_655
Cr7 O4 2.004394 1_645
Cr7 O4 2.009039 1_545
Cr7 O11 2.012794 1_555
Cr7 O14 2.037740 1_555
Cr7 O13 2.068235 1_555
Cr7 O13 2.082288 1_655
O0 Zn2 2.202213 1_555
O1 Zn1 2.202213 1_555
O3 Zn0 2.202213 1_555
O4 Zn0 2.202213 1_555
O5 Zn1 1.994695 1_555
O5 Zn1 2.046025 1_455
O6 Zn3 2.202213 1_555
O7 Zn3 1.994695 1_555
O7 Zn3 2.046025 1_655
O10 Zn2 2.202213 1_555
O11 Zn2 1.994695 1_555
O11 Zn2 2.046025 1_655
O12 Zn0 1.994695 1_555
O12 Zn0 2.046025 1_455
O14 Zn3 2.202213 1_555
O15 Zn1 2.202213 1_555
