# generated using pymatgen
data_Ho8Rh5C12
_symmetry_space_group_name_H-M   'P 1'
_cell_length_a   3.53404400
_cell_length_b   7.39909167
_cell_length_c   14.05396542
_cell_angle_alpha   94.06534370
_cell_angle_beta   97.22298387
_cell_angle_gamma   90.00000000
_symmetry_Int_Tables_number   1
_chemical_formula_structural   Ho8Rh5C12
_chemical_formula_sum   'Ho8 Rh5 C12'
_cell_volume   363.64476028
_cell_formula_units_Z   1
loop_
 _symmetry_equiv_pos_site_id
 _symmetry_equiv_pos_as_xyz
  1  'x, y, z'
loop_
 _atom_site_type_symbol
 _atom_site_label
 _atom_site_symmetry_multiplicity
 _atom_site_fract_x
 _atom_site_fract_y
 _atom_site_fract_z
 _atom_site_occupancy
  Ho  Ho0  1  0.29352800  0.88413800  0.58705600  1
  Ho  Ho1  1  0.70647200  0.11586200  0.41294400  1
  Ho  Ho2  1  0.30023200  0.39081200  0.60046400  1
  Ho  Ho3  1  0.69976800  0.60918800  0.39953600  1
  Ho  Ho4  1  0.41195000  0.17166700  0.82390000  1
  Ho  Ho5  1  0.58805000  0.82833300  0.17610000  1
  Ho  Ho6  1  0.45292300  0.70343500  0.90584700  1
  Ho  Ho7  1  0.54707700  0.29656500  0.09415300  1
  Rh  Rh0  1  0.00000000  0.00000000  0.00000000  1
  Rh  Rh1  1  0.11012700  0.49326400  0.22025500  1
  Rh  Rh2  1  0.88987300  0.50673600  0.77974500  1
  Rh  Rh3  1  0.11652900  0.12739000  0.23305800  1
  Rh  Rh4  1  0.88347100  0.87261000  0.76694200  1
  C  C0  1  0.02275400  0.75493600  0.04550800  1
  C  C1  1  0.97724600  0.24506400  0.95449200  1
  C  C2  1  0.04777700  0.61379700  0.09555500  1
  C  C3  1  0.95222300  0.38620300  0.90444500  1
  C  C4  1  0.16850700  0.34707000  0.33701300  1
  C  C5  1  0.83149300  0.65293000  0.66298700  1
  C  C6  1  0.21651400  0.36484300  0.43302800  1
  C  C7  1  0.78348600  0.63515700  0.56697200  1
  C  C8  1  0.15864100  0.87316200  0.31728200  1
  C  C9  1  0.84135900  0.12683800  0.68271800  1
  C  C10  1  0.20725700  0.86899900  0.41451300  1
  C  C11  1  0.79274300  0.13100100  0.58548700  1
loop_
_geom_bond_atom_site_label_1
_geom_bond_atom_site_label_2
_geom_bond_distance
_geom_bond_site_symmetry_2
Ho2 Rh2 3.130449 1_455
Ho2 Rh2 3.130451 1_555
Ho3 Rh1 3.130449 1_655
Ho3 Rh1 3.130451 1_555
Ho4 Rh4 2.897953 1_445
Ho4 Rh4 2.897953 1_545
Ho5 Rh3 2.897953 1_565
Ho5 Rh3 2.897953 1_665
Ho6 Rh2 2.822405 1_455
Ho6 Rh2 2.822410 1_555
Ho6 Rh4 2.964186 1_455
Ho6 Rh4 2.964188 1_555
Ho6 Rh0 3.041203 1_566
Ho6 Rh0 3.041205 1_666
Ho7 Rh1 2.822405 1_655
Ho7 Rh1 2.822410 1_555
Ho7 Rh3 2.964186 1_655
Ho7 Rh3 2.964188 1_555
Ho7 Rh0 3.041203 1_655
Ho7 Rh0 3.041205 1_555
C0 C2 1.296766 1_555
C0 Rh0 1.963388 1_565
C0 Ho5 2.567329 1_455
C0 Ho5 2.567329 1_555
C0 Ho6 2.636885 1_554
C0 Ho6 2.636888 1_454
C1 C3 1.296766 1_555
C1 Rh0 1.963388 1_656
C1 Ho4 2.567329 1_655
C1 Ho4 2.567329 1_555
C1 Ho7 2.636885 1_556
C1 Ho7 2.636888 1_656
C2 Rh1 2.009922 1_555
C2 Ho5 2.578459 1_455
C2 Ho5 2.578461 1_555
C2 Ho7 2.936948 1_455
C2 Ho7 2.936952 1_555
C3 Rh2 2.009922 1_555
C3 Ho4 2.578459 1_655
C3 Ho4 2.578461 1_555
C3 Ho6 2.936948 1_655
C3 Ho6 2.936952 1_555
C4 C6 1.335742 1_555
C4 Rh1 2.017866 1_555
C4 Rh3 2.099058 1_555
C4 Ho3 2.720669 1_555
C4 Ho3 2.720671 1_455
C4 Ho1 2.725540 1_555
C4 Ho1 2.725542 1_455
C5 C7 1.335742 1_555
C5 Rh2 2.017866 1_555
C5 Rh4 2.099058 1_555
C5 Ho2 2.720669 1_555
C5 Ho2 2.720671 1_655
C5 Ho0 2.725540 1_555
C5 Ho0 2.725542 1_655
C6 Ho2 2.328635 1_555
C6 Ho1 2.553600 1_555
C6 Ho1 2.553600 1_455
C6 Ho3 2.594165 1_455
C6 Ho3 2.594165 1_555
C7 Ho3 2.328635 1_555
C7 Ho0 2.553600 1_655
C7 Ho0 2.553600 1_555
C7 Ho2 2.594165 1_555
C7 Ho2 2.594165 1_655
C8 Rh3 2.287581 1_565
C8 Ho5 2.648349 1_555
C8 Ho5 2.648349 1_455
C8 Ho3 2.927895 1_555
C8 Ho3 2.927895 1_455
C9 Rh4 2.287581 1_545
C9 Ho4 2.648349 1_555
C9 Ho4 2.648349 1_655
C9 Ho2 2.927895 1_555
C9 Ho2 2.927895 1_655
C10 C8 1.358186 1_555
C10 Ho0 2.400267 1_555
C10 Ho1 2.542613 1_565
C10 Ho1 2.542615 1_465
C10 Ho3 2.608463 1_555
C10 Ho3 2.608466 1_455
C11 C9 1.358186 1_555
C11 Ho1 2.400267 1_555
C11 Ho0 2.542613 1_545
C11 Ho0 2.542615 1_645
C11 Ho2 2.608463 1_555
C11 Ho2 2.608466 1_655
