# generated using pymatgen
data_MgMoWS4
_symmetry_space_group_name_H-M   'P 1'
_cell_length_a   7.31379515
_cell_length_b   7.07257356
_cell_length_c   7.07857455
_cell_angle_alpha   65.24312111
_cell_angle_beta   58.98046756
_cell_angle_gamma   59.00107513
_symmetry_Int_Tables_number   1
_chemical_formula_structural   MgMoWS4
_chemical_formula_sum   'Mg2 Mo2 W2 S8'
_cell_volume   263.04873368
_cell_formula_units_Z   2
loop_
 _symmetry_equiv_pos_site_id
 _symmetry_equiv_pos_as_xyz
  1  'x, y, z'
loop_
 _atom_site_type_symbol
 _atom_site_label
 _atom_site_symmetry_multiplicity
 _atom_site_fract_x
 _atom_site_fract_y
 _atom_site_fract_z
 _atom_site_occupancy
  Mg  Mg0  1  0.85712700  0.88944500  0.88935600  1
  Mg  Mg1  1  0.10650200  0.14187300  0.14172200  1
  Mo  Mo0  1  0.47829100  0.50971500  0.03455300  1
  Mo  Mo1  1  0.47815800  0.03514100  0.50944700  1
  W  W0  1  0.48183000  0.47446900  0.47475800  1
  W  W1  1  0.07090000  0.47315400  0.47329100  1
  S  S0  1  0.72687400  0.74323600  0.74385900  1
  S  S1  1  0.22661000  0.29519400  0.75294200  1
  S  S2  1  0.22680800  0.75248400  0.29483600  1
  S  S3  1  0.73198300  0.22295200  0.22273000  1
  S  S4  1  0.75469400  0.29428500  0.69907900  1
  S  S5  1  0.28299300  0.74651100  0.74675800  1
  S  S6  1  0.32260600  0.22275800  0.22209600  1
  S  S7  1  0.75462800  0.69878000  0.29457500  1
loop_
_geom_bond_atom_site_label_1
_geom_bond_atom_site_label_2
_geom_bond_distance
_geom_bond_site_symmetry_2
Mg0 S0 2.440381 1_555
Mg0 S5 2.472479 1_655
Mg0 S4 2.484782 1_565
Mg0 S7 2.488666 1_556
Mg1 S3 2.280184 1_455
Mg1 S6 2.297775 1_555
Mg1 S1 2.347609 1_554
Mg1 S2 2.349527 1_545
Mo0 S2 2.372666 1_555
Mo0 S3 2.395586 1_555
Mo0 S6 2.396600 1_555
Mo0 S0 2.580338 1_554
Mo0 S5 2.583152 1_554
Mo0 S4 2.637654 1_554
Mo1 S1 2.374817 1_555
Mo1 S3 2.393461 1_555
Mo1 S6 2.400389 1_555
Mo1 S5 2.585434 1_545
Mo1 S0 2.588045 1_545
Mo1 S7 2.639557 1_545
S0 W1 2.606628 1_655
S1 W0 2.351145 1_555
S1 W1 2.357953 1_555
S2 W0 2.353816 1_555
S2 W1 2.354685 1_555
S3 W0 2.374009 1_555
S4 W1 2.648363 1_655
S4 W0 2.660767 1_555
S5 W0 2.618883 1_555
S6 W1 2.364825 1_555
S7 W1 2.649635 1_655
S7 W0 2.658436 1_555
