# generated using pymatgen
data_YMg2
_symmetry_space_group_name_H-M   'P 1'
_cell_length_a   13.22926886
_cell_length_b   13.22926886
_cell_length_c   15.64594492
_cell_angle_alpha   75.18451392
_cell_angle_beta   75.18451392
_cell_angle_gamma   28.95261597
_symmetry_Int_Tables_number   1
_chemical_formula_structural   YMg2
_chemical_formula_sum   'Y16 Mg32'
_cell_volume   1278.48980937
_cell_formula_units_Z   16
loop_
 _symmetry_equiv_pos_site_id
 _symmetry_equiv_pos_as_xyz
  1  'x, y, z'
loop_
 _atom_site_type_symbol
 _atom_site_label
 _atom_site_symmetry_multiplicity
 _atom_site_fract_x
 _atom_site_fract_y
 _atom_site_fract_z
 _atom_site_occupancy
  Y  Y0_0  1  0.40533350  0.40533350  0.31983200  1
  Y  Y0_1  1  0.40533350  0.40533350  0.81983200  1
  Y  Y0_2  1  0.40533350  0.90533350  0.31983200  1
  Y  Y0_3  1  0.40533350  0.90533350  0.81983200  1
  Y  Y0_4  1  0.90533350  0.40533350  0.31983200  1
  Y  Y0_5  1  0.90533350  0.40533350  0.81983200  1
  Y  Y0_6  1  0.90533350  0.90533350  0.31983200  1
  Y  Y0_7  1  0.90533350  0.90533350  0.81983200  1
  Y  Y1_0  1  0.09466650  0.09466650  0.18016800  1
  Y  Y1_1  1  0.09466650  0.09466650  0.68016800  1
  Y  Y1_2  1  0.09466650  0.59466650  0.18016800  1
  Y  Y1_3  1  0.09466650  0.59466650  0.68016800  1
  Y  Y1_4  1  0.59466650  0.09466650  0.18016800  1
  Y  Y1_5  1  0.59466650  0.09466650  0.68016800  1
  Y  Y1_6  1  0.59466650  0.59466650  0.18016800  1
  Y  Y1_7  1  0.59466650  0.59466650  0.68016800  1
  Mg  Mg0_0  1  0.06723900  0.06723900  0.48820050  1
  Mg  Mg0_1  1  0.06723900  0.06723900  0.98820050  1
  Mg  Mg0_2  1  0.06723900  0.56723900  0.48820050  1
  Mg  Mg0_3  1  0.06723900  0.56723900  0.98820050  1
  Mg  Mg0_4  1  0.56723900  0.06723900  0.48820050  1
  Mg  Mg0_5  1  0.56723900  0.06723900  0.98820050  1
  Mg  Mg0_6  1  0.56723900  0.56723900  0.48820050  1
  Mg  Mg0_7  1  0.56723900  0.56723900  0.98820050  1
  Mg  Mg1_0  1  0.26533650  0.26533650  0.35164050  1
  Mg  Mg1_1  1  0.26533650  0.26533650  0.85164050  1
  Mg  Mg1_2  1  0.26533650  0.76533650  0.35164050  1
  Mg  Mg1_3  1  0.26533650  0.76533650  0.85164050  1
  Mg  Mg1_4  1  0.76533650  0.26533650  0.35164050  1
  Mg  Mg1_5  1  0.76533650  0.26533650  0.85164050  1
  Mg  Mg1_6  1  0.76533650  0.76533650  0.35164050  1
  Mg  Mg1_7  1  0.76533650  0.76533650  0.85164050  1
  Mg  Mg2_0  1  0.23466350  0.23466350  0.14835950  1
  Mg  Mg2_1  1  0.23466350  0.23466350  0.64835950  1
  Mg  Mg2_2  1  0.23466350  0.73466350  0.14835950  1
  Mg  Mg2_3  1  0.23466350  0.73466350  0.64835950  1
  Mg  Mg2_4  1  0.73466350  0.23466350  0.14835950  1
  Mg  Mg2_5  1  0.73466350  0.23466350  0.64835950  1
  Mg  Mg2_6  1  0.73466350  0.73466350  0.14835950  1
  Mg  Mg2_7  1  0.73466350  0.73466350  0.64835950  1
  Mg  Mg3_0  1  0.43276100  0.43276100  0.01179950  1
  Mg  Mg3_1  1  0.43276100  0.43276100  0.51179950  1
  Mg  Mg3_2  1  0.43276100  0.93276100  0.01179950  1
  Mg  Mg3_3  1  0.43276100  0.93276100  0.51179950  1
  Mg  Mg3_4  1  0.93276100  0.43276100  0.01179950  1
  Mg  Mg3_5  1  0.93276100  0.43276100  0.51179950  1
  Mg  Mg3_6  1  0.93276100  0.93276100  0.01179950  1
  Mg  Mg3_7  1  0.93276100  0.93276100  0.51179950  1
loop_
_geom_bond_atom_site_label_1
_geom_bond_atom_site_label_2
_geom_bond_distance
_geom_bond_site_symmetry_2
Y0_0 Y0_6 3.307048 1_545
Y0_0 Y0_6 3.307048 1_455
Y0_0 Y1_4 3.423226 1_555
Y0_0 Y1_2 3.423226 1_555
Y0_1 Y0_7 3.307048 1_545
Y0_1 Y0_7 3.307048 1_455
Y0_1 Y1_5 3.423226 1_555
Y0_1 Y1_3 3.423226 1_555
Y0_2 Y0_4 3.307048 1_465
Y0_2 Y0_4 3.307048 1_555
Y0_2 Y1_6 3.423226 1_555
Y0_2 Y1_0 3.423226 1_565
Y0_3 Y0_5 3.307048 1_555
Y0_3 Y0_5 3.307048 1_465
Y0_3 Y1_1 3.423226 1_565
Y0_3 Y1_7 3.423226 1_555
Y0_4 Y1_6 3.423226 1_555
Y0_4 Y1_0 3.423226 1_655
Y0_5 Y1_1 3.423226 1_655
Y0_5 Y1_7 3.423226 1_555
Y0_6 Y1_2 3.423226 1_655
Y0_6 Y1_4 3.423226 1_565
Y0_7 Y1_5 3.423226 1_565
Y0_7 Y1_3 3.423226 1_655
Y1_0 Y1_6 3.307048 1_455
Y1_0 Y1_6 3.307048 1_545
Y1_1 Y1_7 3.307048 1_545
Y1_1 Y1_7 3.307048 1_455
Y1_2 Y1_4 3.307048 1_465
Y1_2 Y1_4 3.307048 1_555
Y1_3 Y1_5 3.307048 1_555
Y1_3 Y1_5 3.307048 1_465
Mg0_0 Mg1_2 3.250817 1_545
Mg0_0 Mg1_4 3.250817 1_455
Mg0_0 Y1_1 3.260291 1_555
Mg0_0 Mg2_3 3.269349 1_545
Mg0_0 Mg2_5 3.269349 1_455
Mg0_0 Mg0_6 3.307048 1_455
Mg0_0 Mg0_6 3.307048 1_545
Mg0_0 Mg3_7 3.366504 1_445
Mg0_0 Y0_4 3.409812 1_455
Mg0_0 Y0_2 3.409812 1_545
Mg0_0 Mg3_5 3.493749 1_455
Mg0_0 Mg3_3 3.493749 1_545
Mg0_1 Mg1_5 3.250817 1_455
Mg0_1 Mg1_3 3.250817 1_545
Mg0_1 Y1_0 3.260291 1_556
Mg0_1 Mg2_4 3.269349 1_456
Mg0_1 Mg2_2 3.269349 1_546
Mg0_1 Mg0_7 3.307048 1_455
Mg0_1 Mg0_7 3.307048 1_545
Mg0_1 Mg3_6 3.366504 1_446
Mg0_1 Y0_3 3.409812 1_545
Mg0_1 Y0_5 3.409812 1_455
Mg0_1 Mg3_2 3.493749 1_546
Mg0_1 Mg3_4 3.493749 1_456
Mg0_2 Mg1_6 3.250817 1_455
Mg0_2 Mg1_0 3.250817 1_555
Mg0_2 Y1_3 3.260291 1_555
Mg0_2 Mg2_7 3.269349 1_455
Mg0_2 Mg2_1 3.269349 1_555
Mg0_2 Mg0_4 3.307048 1_555
Mg0_2 Mg0_4 3.307048 1_465
Mg0_2 Mg3_5 3.366504 1_455
Mg0_2 Y0_0 3.409812 1_555
Mg0_2 Y0_6 3.409812 1_455
Mg0_2 Mg3_7 3.493749 1_455
Mg0_2 Mg3_1 3.493749 1_555
Mg0_3 Mg1_7 3.250817 1_455
Mg0_3 Mg1_1 3.250817 1_555
Mg0_3 Y1_2 3.260291 1_556
Mg0_3 Mg2_6 3.269349 1_456
Mg0_3 Mg2_0 3.269349 1_556
Mg0_3 Mg0_5 3.307048 1_465
Mg0_3 Mg0_5 3.307048 1_555
Mg0_3 Mg3_4 3.366504 1_456
Mg0_3 Y0_1 3.409812 1_555
Mg0_3 Y0_7 3.409812 1_455
Mg0_3 Mg3_6 3.493749 1_456
Mg0_3 Mg3_0 3.493749 1_556
Mg0_4 Mg1_6 3.250817 1_545
Mg0_4 Mg1_0 3.250817 1_555
Mg0_4 Y1_5 3.260291 1_555
Mg0_4 Mg2_7 3.269349 1_545
Mg0_4 Mg2_1 3.269349 1_555
Mg0_4 Mg3_3 3.366504 1_545
Mg0_4 Y0_0 3.409812 1_555
Mg0_4 Y0_6 3.409812 1_545
Mg0_4 Mg3_7 3.493749 1_545
Mg0_4 Mg3_1 3.493749 1_555
Mg0_5 Mg1_1 3.250817 1_555
Mg0_5 Mg1_7 3.250817 1_545
Mg0_5 Y1_4 3.260291 1_556
Mg0_5 Mg2_6 3.269349 1_546
Mg0_5 Mg2_0 3.269349 1_556
Mg0_5 Mg3_2 3.366504 1_546
Mg0_5 Y0_1 3.409812 1_555
Mg0_5 Y0_7 3.409812 1_545
Mg0_5 Mg3_6 3.493749 1_546
Mg0_5 Mg3_0 3.493749 1_556
Mg0_6 Mg1_4 3.250817 1_555
Mg0_6 Mg1_2 3.250817 1_555
Mg0_6 Y1_7 3.260291 1_555
Mg0_6 Mg2_5 3.269349 1_555
Mg0_6 Mg2_3 3.269349 1_555
Mg0_6 Mg3_1 3.366504 1_555
Mg0_6 Y0_4 3.409812 1_555
Mg0_6 Y0_2 3.409812 1_555
Mg0_6 Mg3_3 3.493749 1_555
Mg0_6 Mg3_5 3.493749 1_555
Mg0_7 Mg1_3 3.250817 1_555
Mg0_7 Mg1_5 3.250817 1_555
Mg0_7 Y1_6 3.260291 1_556
Mg0_7 Mg2_2 3.269349 1_556
Mg0_7 Mg2_4 3.269349 1_556
Mg0_7 Mg3_0 3.366504 1_556
Mg0_7 Y0_5 3.409812 1_555
Mg0_7 Y0_3 3.409812 1_555
Mg0_7 Mg3_4 3.493749 1_556
Mg0_7 Mg3_2 3.493749 1_556
Mg1_0 Mg3_5 3.269349 1_455
Mg1_0 Mg3_3 3.269349 1_545
Mg1_0 Mg1_6 3.307048 1_455
Mg1_0 Mg1_6 3.307048 1_545
Mg1_0 Y1_4 3.343989 1_555
Mg1_0 Y1_2 3.343989 1_555
Mg1_0 Y0_2 3.415312 1_545
Mg1_0 Y0_4 3.415312 1_455
Mg1_0 Mg2_0 3.471781 1_555
Mg1_0 Y0_0 3.488266 1_555
Mg1_1 Mg3_2 3.269349 1_546
Mg1_1 Mg3_4 3.269349 1_456
Mg1_1 Mg1_7 3.307048 1_545
Mg1_1 Mg1_7 3.307048 1_455
Mg1_1 Y1_3 3.343989 1_555
Mg1_1 Y1_5 3.343989 1_555
Mg1_1 Y0_3 3.415312 1_545
Mg1_1 Y0_5 3.415312 1_455
Mg1_1 Mg2_1 3.471781 1_555
Mg1_1 Y0_1 3.488266 1_555
Mg1_2 Mg3_1 3.269349 1_555
Mg1_2 Mg3_7 3.269349 1_455
Mg1_2 Mg1_4 3.307048 1_465
Mg1_2 Mg1_4 3.307048 1_555
Mg1_2 Y1_0 3.343989 1_565
Mg1_2 Y1_6 3.343989 1_555
Mg1_2 Y0_6 3.415312 1_455
Mg1_2 Y0_0 3.415312 1_555
Mg1_2 Mg2_2 3.471781 1_555
Mg1_2 Y0_2 3.488266 1_555
Mg1_3 Mg3_0 3.269349 1_556
Mg1_3 Mg3_6 3.269349 1_456
Mg1_3 Mg1_5 3.307048 1_555
Mg1_3 Mg1_5 3.307048 1_465
Mg1_3 Y1_7 3.343989 1_555
Mg1_3 Y1_1 3.343989 1_565
Mg1_3 Y0_7 3.415312 1_455
Mg1_3 Y0_1 3.415312 1_555
Mg1_3 Mg2_3 3.471781 1_555
Mg1_3 Y0_3 3.488266 1_555
Mg1_4 Mg3_1 3.269349 1_555
Mg1_4 Mg3_7 3.269349 1_545
Mg1_4 Y1_0 3.343989 1_655
Mg1_4 Y1_6 3.343989 1_555
Mg1_4 Y0_6 3.415312 1_545
Mg1_4 Y0_0 3.415312 1_555
Mg1_4 Mg2_4 3.471781 1_555
Mg1_4 Y0_4 3.488266 1_555
Mg1_5 Mg3_0 3.269349 1_556
Mg1_5 Mg3_6 3.269349 1_546
Mg1_5 Y1_7 3.343989 1_555
Mg1_5 Y1_1 3.343989 1_655
Mg1_5 Y0_7 3.415312 1_545
Mg1_5 Y0_1 3.415312 1_555
Mg1_5 Mg2_5 3.471781 1_555
Mg1_5 Y0_5 3.488266 1_555
Mg1_6 Mg3_3 3.269349 1_555
Mg1_6 Mg3_5 3.269349 1_555
Mg1_6 Y1_2 3.343989 1_655
Mg1_6 Y1_4 3.343989 1_565
Mg1_6 Y0_4 3.415312 1_555
Mg1_6 Y0_2 3.415312 1_555
Mg1_6 Mg2_6 3.471781 1_555
Mg1_6 Y0_6 3.488266 1_555
Mg1_7 Mg3_4 3.269349 1_556
Mg1_7 Mg3_2 3.269349 1_556
Mg1_7 Y1_5 3.343989 1_565
Mg1_7 Y1_3 3.343989 1_655
Mg1_7 Y0_5 3.415312 1_555
Mg1_7 Y0_3 3.415312 1_555
Mg1_7 Mg2_7 3.471781 1_555
Mg1_7 Y0_7 3.488266 1_555
Mg2_0 Mg3_4 3.250817 1_455
Mg2_0 Mg3_2 3.250817 1_545
Mg2_0 Mg2_6 3.307048 1_545
Mg2_0 Mg2_6 3.307048 1_455
Mg2_0 Y0_4 3.343989 1_455
Mg2_0 Y0_2 3.343989 1_545
Mg2_0 Y1_2 3.415312 1_555
Mg2_0 Y1_4 3.415312 1_555
Mg2_0 Y1_0 3.488266 1_555
Mg2_1 Mg3_5 3.250817 1_455
Mg2_1 Mg3_3 3.250817 1_545
Mg2_1 Mg2_7 3.307048 1_455
Mg2_1 Mg2_7 3.307048 1_545
Mg2_1 Y0_5 3.343989 1_455
Mg2_1 Y0_3 3.343989 1_545
Mg2_1 Y1_5 3.415312 1_555
Mg2_1 Y1_3 3.415312 1_555
Mg2_1 Y1_1 3.488266 1_555
Mg2_2 Mg3_0 3.250817 1_555
Mg2_2 Mg3_6 3.250817 1_455
Mg2_2 Mg2_4 3.307048 1_555
Mg2_2 Mg2_4 3.307048 1_465
Mg2_2 Y0_6 3.343989 1_455
Mg2_2 Y0_0 3.343989 1_555
Mg2_2 Y1_0 3.415312 1_565
Mg2_2 Y1_6 3.415312 1_555
Mg2_2 Y1_2 3.488266 1_555
Mg2_3 Mg3_1 3.250817 1_555
Mg2_3 Mg3_7 3.250817 1_455
Mg2_3 Mg2_5 3.307048 1_465
Mg2_3 Mg2_5 3.307048 1_555
Mg2_3 Y0_7 3.343989 1_455
Mg2_3 Y0_1 3.343989 1_555
Mg2_3 Y1_7 3.415312 1_555
Mg2_3 Y1_1 3.415312 1_565
Mg2_3 Y1_3 3.488266 1_555
Mg2_4 Mg3_0 3.250817 1_555
Mg2_4 Mg3_6 3.250817 1_545
Mg2_4 Y0_6 3.343989 1_545
Mg2_4 Y0_0 3.343989 1_555
Mg2_4 Y1_0 3.415312 1_655
Mg2_4 Y1_6 3.415312 1_555
Mg2_4 Y1_4 3.488266 1_555
Mg2_5 Mg3_1 3.250817 1_555
Mg2_5 Mg3_7 3.250817 1_545
Mg2_5 Y0_7 3.343989 1_545
Mg2_5 Y0_1 3.343989 1_555
Mg2_5 Y1_1 3.415312 1_655
Mg2_5 Y1_7 3.415312 1_555
Mg2_5 Y1_5 3.488266 1_555
Mg2_6 Mg3_4 3.250817 1_555
Mg2_6 Mg3_2 3.250817 1_555
Mg2_6 Y0_2 3.343989 1_555
Mg2_6 Y0_4 3.343989 1_555
Mg2_6 Y1_2 3.415312 1_655
Mg2_6 Y1_4 3.415312 1_565
Mg2_6 Y1_6 3.488266 1_555
Mg2_7 Mg3_5 3.250817 1_555
Mg2_7 Mg3_3 3.250817 1_555
Mg2_7 Y0_5 3.343989 1_555
Mg2_7 Y0_3 3.343989 1_555
Mg2_7 Y1_5 3.415312 1_565
Mg2_7 Y1_3 3.415312 1_655
Mg2_7 Y1_7 3.488266 1_555
Mg3_0 Y0_1 3.260291 1_554
Mg3_0 Mg3_6 3.307048 1_455
Mg3_0 Mg3_6 3.307048 1_545
Mg3_0 Y1_2 3.409812 1_555
Mg3_0 Y1_4 3.409812 1_555
Mg3_1 Y0_0 3.260291 1_555
Mg3_1 Mg3_7 3.307048 1_455
Mg3_1 Mg3_7 3.307048 1_545
Mg3_1 Y1_3 3.409812 1_555
Mg3_1 Y1_5 3.409812 1_555
Mg3_2 Y0_3 3.260291 1_554
Mg3_2 Mg3_4 3.307048 1_555
Mg3_2 Mg3_4 3.307048 1_465
Mg3_2 Y1_6 3.409812 1_555
Mg3_2 Y1_0 3.409812 1_565
Mg3_3 Y0_2 3.260291 1_555
Mg3_3 Mg3_5 3.307048 1_555
Mg3_3 Mg3_5 3.307048 1_465
Mg3_3 Y1_1 3.409812 1_565
Mg3_3 Y1_7 3.409812 1_555
Mg3_4 Y0_5 3.260291 1_554
Mg3_4 Y1_6 3.409812 1_555
Mg3_4 Y1_0 3.409812 1_655
Mg3_5 Y0_4 3.260291 1_555
Mg3_5 Y1_1 3.409812 1_655
Mg3_5 Y1_7 3.409812 1_555
Mg3_6 Y0_7 3.260291 1_554
Mg3_6 Y1_2 3.409812 1_655
Mg3_6 Y1_4 3.409812 1_565
Mg3_7 Y0_6 3.260291 1_555
Mg3_7 Y1_5 3.409812 1_565
Mg3_7 Y1_3 3.409812 1_655
