# generated using pymatgen
data_SrNiO2
_symmetry_space_group_name_H-M   'P 1'
_cell_length_a   3.59674705
_cell_length_b   4.05979500
_cell_length_c   8.36375352
_cell_angle_alpha   90.00000000
_cell_angle_beta   102.41669664
_cell_angle_gamma   90.00000000
_symmetry_Int_Tables_number   1
_chemical_formula_structural   SrNiO2
_chemical_formula_sum   'Sr2 Ni2 O4'
_cell_volume   119.27137960
_cell_formula_units_Z   2
loop_
 _symmetry_equiv_pos_site_id
 _symmetry_equiv_pos_as_xyz
  1  'x, y, z'
loop_
 _atom_site_type_symbol
 _atom_site_label
 _atom_site_symmetry_multiplicity
 _atom_site_fract_x
 _atom_site_fract_y
 _atom_site_fract_z
 _atom_site_occupancy
  Sr  Sr0  1  0.33151800  0.75000000  0.66303700  1
  Sr  Sr1  1  0.66848200  0.24999900  0.33696400  1
  Ni  Ni0  1  0.06136700  0.75000000  0.12273700  1
  Ni  Ni1  1  0.93863300  0.24999900  0.87726400  1
  O  O0  1  0.17948900  0.75000000  0.35897800  1
  O  O1  1  0.82051100  0.24999900  0.64102200  1
  O  O2  1  0.94378300  0.75000000  0.88756900  1
  O  O3  1  0.05621400  0.24999900  0.11243200  1
loop_
_geom_bond_atom_site_label_1
_geom_bond_atom_site_label_2
_geom_bond_distance
_geom_bond_site_symmetry_2
Ni0 O2 1.920881 1_454
Ni0 O0 1.929645 1_555
Ni0 O3 2.031638 1_565
Ni0 O3 2.031646 1_555
Ni1 O3 1.920881 1_656
Ni1 O1 1.929654 1_555
Ni1 O2 2.031638 1_545
Ni1 O2 2.031646 1_555
O0 Sr0 2.483591 1_555
O0 Sr1 2.717894 1_465
O0 Sr1 2.717894 1_565
O0 Sr1 2.717900 1_455
O0 Sr1 2.717900 1_555
O1 Sr1 2.483583 1_555
O1 Sr0 2.717893 1_645
O1 Sr0 2.717896 1_545
O1 Sr0 2.717899 1_655
O1 Sr0 2.717902 1_555
O2 Sr0 2.568600 1_555
O2 Sr0 2.568606 1_655
O3 Sr1 2.568598 1_455
O3 Sr1 2.568608 1_555
