# generated using pymatgen
data_Dy2Mn12Ga5
_symmetry_space_group_name_H-M   'P 1'
_cell_length_a   8.54226655
_cell_length_b   8.54226655
_cell_length_c   8.45049700
_cell_angle_alpha   90.00000000
_cell_angle_beta   90.00000000
_cell_angle_gamma   120.00000428
_symmetry_Int_Tables_number   1
_chemical_formula_structural   Dy2Mn12Ga5
_chemical_formula_sum   'Dy4 Mn24 Ga10'
_cell_volume   534.02194339
_cell_formula_units_Z   2
loop_
 _symmetry_equiv_pos_site_id
 _symmetry_equiv_pos_as_xyz
  1  'x, y, z'
loop_
 _atom_site_type_symbol
 _atom_site_label
 _atom_site_symmetry_multiplicity
 _atom_site_fract_x
 _atom_site_fract_y
 _atom_site_fract_z
 _atom_site_occupancy
  Dy  Dy0  1  0.00000000  0.00000000  0.25000000  1
  Dy  Dy1  1  0.00000000  0.00000000  0.75000000  1
  Dy  Dy2  1  0.33333300  0.66666700  0.75000000  1
  Dy  Dy3  1  0.66666700  0.33333300  0.25000000  1
  Mn  Mn0  1  0.32388800  0.35361000  0.25000000  1
  Mn  Mn1  1  0.64639000  0.97027800  0.25000000  1
  Mn  Mn2  1  0.02972200  0.67611200  0.25000000  1
  Mn  Mn3  1  0.64639000  0.67611200  0.25000000  1
  Mn  Mn4  1  0.02972200  0.35361000  0.25000000  1
  Mn  Mn5  1  0.32388800  0.97027800  0.25000000  1
  Mn  Mn6  1  0.67611200  0.64639000  0.75000000  1
  Mn  Mn7  1  0.35361000  0.02972200  0.75000000  1
  Mn  Mn8  1  0.97027800  0.32388800  0.75000000  1
  Mn  Mn9  1  0.35361000  0.32388800  0.75000000  1
  Mn  Mn10  1  0.97027800  0.64639000  0.75000000  1
  Mn  Mn11  1  0.67611200  0.02972200  0.75000000  1
  Mn  Mn12  1  0.15488000  0.84512000  0.50703600  1
  Mn  Mn13  1  0.15488000  0.30976000  0.50703600  1
  Mn  Mn14  1  0.69024000  0.84512000  0.50703600  1
  Mn  Mn15  1  0.84512000  0.15488000  0.49296400  1
  Mn  Mn16  1  0.84512000  0.69024000  0.49296400  1
  Mn  Mn17  1  0.30976000  0.15488000  0.49296400  1
  Mn  Mn18  1  0.84512000  0.15488000  0.00703600  1
  Mn  Mn19  1  0.84512000  0.69024000  0.00703600  1
  Mn  Mn20  1  0.30976000  0.15488000  0.00703600  1
  Mn  Mn21  1  0.15488000  0.84512000  0.99296400  1
  Mn  Mn22  1  0.15488000  0.30976000  0.99296400  1
  Mn  Mn23  1  0.69024000  0.84512000  0.99296400  1
  Ga  Ga0  1  0.33333300  0.66666700  0.39454700  1
  Ga  Ga1  1  0.66666700  0.33333300  0.60545300  1
  Ga  Ga2  1  0.66666700  0.33333300  0.89454700  1
  Ga  Ga3  1  0.33333300  0.66666700  0.10545300  1
  Ga  Ga4  1  0.50000000  0.50000000  0.50000000  1
  Ga  Ga5  1  0.50000000  0.00000000  0.50000000  1
  Ga  Ga6  1  0.00000000  0.50000000  0.50000000  1
  Ga  Ga7  1  0.50000000  0.50000000  0.00000000  1
  Ga  Ga8  1  0.50000000  0.00000000  0.00000000  1
  Ga  Ga9  1  0.00000000  0.50000000  0.00000000  1
loop_
_geom_bond_atom_site_label_1
_geom_bond_atom_site_label_2
_geom_bond_distance
_geom_bond_site_symmetry_2
Dy0 Mn0 2.902026 1_555
Dy0 Mn3 2.902026 1_445
Dy0 Mn1 2.902026 1_445
Dy0 Mn4 2.902026 1_555
Dy0 Mn5 2.902026 1_545
Dy0 Mn2 2.902026 1_545
Dy0 Mn16 3.076798 1_445
Dy0 Mn17 3.076798 1_555
Dy0 Mn19 3.076798 1_445
Dy0 Mn20 3.076798 1_555
Dy0 Mn15 3.076798 1_455
Dy0 Mn18 3.076798 1_455
Dy0 Mn14 3.157394 1_445
Dy0 Mn13 3.157394 1_555
Dy0 Mn23 3.157394 1_444
Dy0 Mn22 3.157394 1_554
Dy0 Mn12 3.157394 1_545
Dy0 Mn21 3.157394 1_544
Dy1 Mn9 2.902026 1_555
Dy1 Mn6 2.902026 1_445
Dy1 Mn10 2.902026 1_445
Dy1 Mn7 2.902026 1_555
Dy1 Mn8 2.902026 1_455
Dy1 Mn11 2.902026 1_455
Dy1 Mn23 3.076798 1_445
Dy1 Mn22 3.076798 1_555
Dy1 Mn14 3.076798 1_445
Dy1 Mn13 3.076798 1_555
Dy1 Mn21 3.076798 1_545
Dy1 Mn12 3.076798 1_545
Dy1 Mn19 3.157394 1_446
Dy1 Mn20 3.157394 1_556
Dy1 Mn16 3.157394 1_445
Dy1 Mn17 3.157394 1_555
Dy1 Mn18 3.157394 1_456
Dy1 Mn15 3.157394 1_455
Dy2 Ga3 3.003755 1_556
Dy2 Ga0 3.003755 1_555
Dy2 Mn7 3.018436 1_565
Dy2 Mn10 3.018436 1_455
Dy2 Mn11 3.018440 1_565
Dy2 Mn8 3.018440 1_455
Dy2 Mn6 3.018445 1_555
Dy2 Mn9 3.018445 1_555
Dy2 Ga8 3.247157 1_566
Dy2 Ga9 3.247157 1_556
Dy2 Ga6 3.247157 1_555
Dy2 Ga5 3.247157 1_565
Dy2 Ga7 3.247163 1_556
Dy2 Ga4 3.247163 1_555
Dy2 Mn21 3.344670 1_555
Dy2 Mn12 3.344670 1_555
Dy2 Mn22 3.344676 1_555
Dy2 Mn23 3.344676 1_555
Dy2 Mn13 3.344676 1_555
Dy2 Mn14 3.344676 1_555
Dy3 Ga2 3.003755 1_554
Dy3 Ga1 3.003755 1_555
Dy3 Mn1 3.018436 1_545
Dy3 Mn4 3.018436 1_655
Dy3 Mn2 3.018440 1_655
Dy3 Mn5 3.018440 1_545
Dy3 Mn3 3.018445 1_555
Dy3 Mn0 3.018445 1_555
Dy3 Ga9 3.247157 1_655
Dy3 Ga5 3.247157 1_555
Dy3 Ga6 3.247157 1_655
Dy3 Ga8 3.247157 1_555
Dy3 Ga7 3.247163 1_555
Dy3 Ga4 3.247163 1_555
Dy3 Mn15 3.344670 1_555
Dy3 Mn18 3.344670 1_555
Dy3 Mn17 3.344676 1_555
Dy3 Mn16 3.344676 1_555
Dy3 Mn20 3.344676 1_555
Dy3 Mn19 3.344676 1_555
Mn0 Mn4 2.512844 1_555
Mn0 Mn13 2.530172 1_555
Mn0 Mn22 2.530172 1_554
Mn0 Mn17 2.628125 1_555
Mn0 Mn20 2.628125 1_555
Mn0 Mn3 2.754898 1_555
Mn1 Mn3 2.512844 1_555
Mn1 Mn14 2.530172 1_555
Mn1 Mn23 2.530172 1_554
Mn1 Mn15 2.628125 1_565
Mn1 Mn18 2.628125 1_565
Mn1 Mn5 2.754898 1_555
Mn2 Mn5 2.512844 1_555
Mn2 Mn21 2.530172 1_554
Mn2 Mn4 2.754898 1_555
Mn6 Mn9 2.754898 1_555
Mn7 Mn9 2.512844 1_555
Mn10 Mn6 2.512844 1_555
Mn10 Mn19 2.530172 1_556
Mn10 Mn16 2.530172 1_555
Mn10 Mn21 2.628125 1_655
Mn10 Mn12 2.628125 1_655
Mn10 Mn8 2.754898 1_555
Mn11 Mn8 2.512844 1_555
Mn11 Mn18 2.530172 1_556
Mn11 Mn15 2.530172 1_555
Mn11 Mn23 2.628126 1_545
Mn11 Mn14 2.628126 1_545
Mn11 Mn7 2.754898 1_555
Mn12 Mn17 2.294632 1_565
Mn12 Mn16 2.294632 1_455
Mn12 Mn5 2.530172 1_555
Mn12 Mn2 2.530172 1_555
Mn12 Mn7 2.628125 1_565
Mn13 Mn15 2.294632 1_455
Mn13 Mn17 2.294632 1_555
Mn13 Mn4 2.530172 1_555
Mn13 Mn9 2.628125 1_555
Mn13 Mn8 2.628126 1_455
Mn14 Mn15 2.294632 1_565
Mn14 Mn16 2.294632 1_555
Mn14 Mn3 2.530172 1_555
Mn14 Mn6 2.628125 1_555
Mn15 Mn8 2.530172 1_555
Mn15 Mn4 2.628125 1_655
Mn16 Mn6 2.530172 1_555
Mn16 Mn3 2.628125 1_555
Mn16 Mn2 2.628126 1_655
Mn17 Mn9 2.530172 1_555
Mn17 Mn7 2.530172 1_555
Mn17 Mn5 2.628126 1_545
Mn18 Mn22 2.294632 1_654
Mn18 Mn23 2.294632 1_544
Mn18 Mn8 2.530172 1_554
Mn18 Mn4 2.628125 1_655
Mn19 Mn21 2.294632 1_654
Mn19 Mn23 2.294632 1_554
Mn19 Mn6 2.530172 1_554
Mn19 Mn3 2.628125 1_555
Mn19 Mn2 2.628126 1_655
Mn20 Mn21 2.294632 1_544
Mn20 Mn22 2.294632 1_554
Mn20 Mn9 2.530172 1_554
Mn20 Mn7 2.530172 1_554
Mn20 Mn5 2.628126 1_545
Mn21 Mn5 2.530172 1_556
Mn21 Mn7 2.628125 1_565
Mn22 Mn4 2.530172 1_556
Mn22 Mn9 2.628125 1_555
Mn22 Mn8 2.628126 1_455
Mn23 Mn3 2.530172 1_556
Mn23 Mn6 2.628125 1_555
Ga0 Ga3 2.442988 1_555
Ga0 Ga5 2.622015 1_565
Ga0 Ga6 2.622015 1_555
Ga0 Ga4 2.622022 1_555
Ga0 Mn12 2.806232 1_555
Ga0 Mn13 2.806239 1_555
Ga0 Mn14 2.806239 1_555
Ga0 Mn2 2.904167 1_555
Ga0 Mn5 2.904167 1_555
Ga0 Mn4 2.904171 1_555
Ga0 Mn1 2.904171 1_555
Ga0 Mn0 2.904175 1_555
Ga0 Mn3 2.904175 1_555
Ga1 Ga2 2.442988 1_555
Ga1 Ga5 2.622015 1_555
Ga1 Ga6 2.622015 1_655
Ga1 Ga4 2.622022 1_555
Ga1 Mn15 2.806232 1_555
Ga1 Mn17 2.806239 1_555
Ga1 Mn16 2.806239 1_555
Ga1 Mn11 2.904167 1_555
Ga1 Mn8 2.904167 1_555
Ga1 Mn7 2.904171 1_555
Ga1 Mn10 2.904171 1_555
Ga1 Mn9 2.904175 1_555
Ga1 Mn6 2.904175 1_555
Ga2 Ga8 2.622015 1_556
Ga2 Ga9 2.622015 1_656
Ga2 Ga7 2.622022 1_556
Ga2 Mn18 2.806232 1_556
Ga2 Mn20 2.806239 1_556
Ga2 Mn19 2.806239 1_556
Ga2 Mn11 2.904167 1_555
Ga2 Mn8 2.904167 1_555
Ga2 Mn7 2.904171 1_555
Ga2 Mn10 2.904171 1_555
Ga2 Mn9 2.904175 1_555
Ga2 Mn6 2.904175 1_555
Ga3 Ga9 2.622015 1_555
Ga3 Ga8 2.622015 1_565
Ga3 Ga7 2.622022 1_555
Ga3 Mn21 2.806232 1_554
Ga3 Mn22 2.806239 1_554
Ga3 Mn23 2.806239 1_554
Ga3 Mn2 2.904167 1_555
Ga3 Mn5 2.904167 1_555
Ga3 Mn4 2.904171 1_555
Ga3 Mn1 2.904171 1_555
Ga3 Mn0 2.904175 1_555
Ga3 Mn3 2.904175 1_555
Ga4 Mn6 2.531579 1_555
Ga4 Mn3 2.531579 1_555
Ga4 Mn0 2.531579 1_555
Ga4 Mn9 2.531579 1_555
Ga4 Mn13 2.558289 1_555
Ga4 Mn17 2.558289 1_555
Ga4 Mn14 2.558289 1_555
Ga4 Mn16 2.558289 1_555
Ga5 Mn11 2.531579 1_555
Ga5 Mn5 2.531579 1_545
Ga5 Mn7 2.531579 1_555
Ga5 Mn1 2.531579 1_545
Ga5 Mn12 2.558290 1_545
Ga5 Mn15 2.558290 1_555
Ga5 Mn14 2.558290 1_545
Ga5 Mn17 2.558290 1_555
Ga6 Mn2 2.531579 1_555
Ga6 Mn8 2.531579 1_455
Ga6 Mn4 2.531579 1_555
Ga6 Mn10 2.531579 1_455
Ga6 Mn15 2.558290 1_455
Ga6 Mn12 2.558290 1_555
Ga6 Mn16 2.558290 1_455
Ga6 Mn13 2.558290 1_555
Ga7 Mn6 2.531579 1_554
Ga7 Mn3 2.531579 1_555
Ga7 Mn0 2.531579 1_555
Ga7 Mn9 2.531579 1_554
Ga7 Mn20 2.558289 1_555
Ga7 Mn22 2.558289 1_554
Ga7 Mn19 2.558289 1_555
Ga7 Mn23 2.558289 1_554
Ga8 Mn11 2.531579 1_554
Ga8 Mn5 2.531579 1_545
Ga8 Mn7 2.531579 1_554
Ga8 Mn1 2.531579 1_545
Ga8 Mn21 2.558290 1_544
Ga8 Mn18 2.558290 1_555
Ga8 Mn23 2.558290 1_544
Ga8 Mn20 2.558290 1_555
Ga9 Mn2 2.531579 1_555
Ga9 Mn8 2.531579 1_454
Ga9 Mn4 2.531579 1_555
Ga9 Mn10 2.531579 1_454
Ga9 Mn18 2.558290 1_455
Ga9 Mn21 2.558290 1_554
Ga9 Mn19 2.558290 1_455
Ga9 Mn22 2.558290 1_554
