# generated using pymatgen
data_LaCu3Ni2
_symmetry_space_group_name_H-M   'P 1'
_cell_length_a   5.01019775
_cell_length_b   5.01019775
_cell_length_c   4.04750259
_cell_angle_alpha   90.00000000
_cell_angle_beta   90.00000000
_cell_angle_gamma   120.00000246
_symmetry_Int_Tables_number   1
_chemical_formula_structural   LaCu3Ni2
_chemical_formula_sum   'La1 Cu3 Ni2'
_cell_volume   87.98881945
_cell_formula_units_Z   1
loop_
 _symmetry_equiv_pos_site_id
 _symmetry_equiv_pos_as_xyz
  1  'x, y, z'
loop_
 _atom_site_type_symbol
 _atom_site_label
 _atom_site_symmetry_multiplicity
 _atom_site_fract_x
 _atom_site_fract_y
 _atom_site_fract_z
 _atom_site_occupancy
  La  La0  1  0.00000000  0.00000000  0.00000000  1
  Cu  Cu0  1  0.50000000  0.50000000  0.50000000  1
  Cu  Cu1  1  0.50000000  0.00000000  0.50000000  1
  Cu  Cu2  1  0.00000000  0.50000000  0.50000000  1
  Ni  Ni0  1  0.66666700  0.33333300  0.00000000  1
  Ni  Ni1  1  0.33333300  0.66666700  -0.00000000  1
loop_
_geom_bond_atom_site_label_1
_geom_bond_atom_site_label_2
_geom_bond_distance
_geom_bond_site_symmetry_2
La0 Ni0 2.892636 1_455
La0 Ni1 2.892636 1_545
La0 Ni0 2.892640 1_555
La0 Ni0 2.892640 1_445
La0 Ni1 2.892640 1_445
La0 Ni1 2.892640 1_555
Cu0 Ni1 2.487452 1_556
Cu0 Ni0 2.487452 1_555
Cu0 Ni0 2.487452 1_556
Cu0 Ni1 2.487452 1_555
Cu0 Cu1 2.505099 1_555
Cu0 Cu1 2.505099 1_565
Cu0 Cu2 2.505099 1_655
Cu0 Cu2 2.505099 1_555
Cu0 La0 3.220418 1_666
Cu0 La0 3.220418 1_665
Cu0 La0 3.220418 1_556
Cu0 La0 3.220418 1_555
Cu1 Ni1 2.487450 1_546
Cu1 Ni1 2.487450 1_545
Cu1 Ni0 2.487450 1_555
Cu1 Ni0 2.487450 1_556
Cu1 Cu2 2.505099 1_545
Cu1 Cu2 2.505099 1_655
Cu1 La0 3.220418 1_655
Cu1 La0 3.220418 1_656
Cu1 La0 3.220418 1_556
Cu1 La0 3.220418 1_555
Cu2 Ni0 2.487450 1_456
Cu2 Ni1 2.487450 1_555
Cu2 Ni0 2.487450 1_455
Cu2 Ni1 2.487450 1_556
Cu2 La0 3.220418 1_566
Cu2 La0 3.220418 1_565
Cu2 La0 3.220418 1_556
Cu2 La0 3.220418 1_555
