# generated using pymatgen
data_SrCaAg2
_symmetry_space_group_name_H-M   'P 1'
_cell_length_a   12.90434824
_cell_length_b   12.90434824
_cell_length_c   12.90434824
_cell_angle_alpha   122.86117612
_cell_angle_beta   119.06494651
_cell_angle_gamma   88.37223073
_symmetry_Int_Tables_number   1
_chemical_formula_structural   SrCaAg2
_chemical_formula_sum   'Sr1 Ca1 Ag2'
_cell_volume   1494.57184922
_cell_formula_units_Z   1
loop_
 _symmetry_equiv_pos_site_id
 _symmetry_equiv_pos_as_xyz
  1  'x, y, z'
loop_
 _atom_site_type_symbol
 _atom_site_label
 _atom_site_symmetry_multiplicity
 _atom_site_fract_x
 _atom_site_fract_y
 _atom_site_fract_z
 _atom_site_occupancy
  Sr  Sr0  1  0.00000000  0.50000000  0.50000000  1
  Ca  Ca0  1  0.00000000  0.00000000  0.00000000  1
  Ag  Ag0  1  0.00000000  0.24209100  0.24209100  1
  Ag  Ag1  1  0.00000000  0.75790900  0.75790900  1
loop_
_geom_bond_atom_site_label_1
_geom_bond_atom_site_label_2
_geom_bond_distance
_geom_bond_site_symmetry_2
Ag0 Ca0 2.987963 1_555
Ag0 Sr0 3.183194 1_555
Ag1 Ca0 2.987963 1_566
Ag1 Sr0 3.183194 1_555
