# generated using pymatgen
data_CoBi6(SO8)2
_symmetry_space_group_name_H-M   'P 1'
_cell_length_a   5.66395000
_cell_length_b   23.44853611
_cell_length_c   11.40935464
_cell_angle_alpha   84.95703216
_cell_angle_beta   90.00021252
_cell_angle_gamma   90.00343838
_symmetry_Int_Tables_number   1
_chemical_formula_structural   CoBi6(SO8)2
_chemical_formula_sum   'Co4 Bi24 S8 O64'
_cell_volume   1509.42602477
_cell_formula_units_Z   4
loop_
 _symmetry_equiv_pos_site_id
 _symmetry_equiv_pos_as_xyz
  1  'x, y, z'
loop_
 _atom_site_type_symbol
 _atom_site_label
 _atom_site_symmetry_multiplicity
 _atom_site_fract_x
 _atom_site_fract_y
 _atom_site_fract_z
 _atom_site_occupancy
  Co  Co0  1  0.10575600  0.49997500  0.99998000  1
  Co  Co1  1  0.65291600  0.75034100  0.50037100  1
  Co  Co2  1  0.10595700  0.99999900  0.00000000  1
  Co  Co3  1  0.65220800  0.24970600  0.49966800  1
  Bi  Bi0  1  0.12430600  0.82697800  0.99166600  1
  Bi  Bi1  1  0.62597400  0.07724400  0.49463000  1
  Bi  Bi2  1  0.12462500  0.32707400  0.99173200  1
  Bi  Bi3  1  0.62582600  0.57733600  0.49465000  1
  Bi  Bi4  1  0.12451600  0.67289500  0.00836400  1
  Bi  Bi5  1  0.62597600  0.92272500  0.50530400  1
  Bi  Bi6  1  0.12440900  0.17299800  0.00826600  1
  Bi  Bi7  1  0.62581100  0.42274200  0.50537800  1
  Bi  Bi8  1  0.62763600  0.76117300  0.17063100  1
  Bi  Bi9  1  0.12938800  0.01032700  0.67081000  1
  Bi  Bi10  1  0.62802000  0.26134300  0.17050100  1
  Bi  Bi11  1  0.12922300  0.51026500  0.67065700  1
  Bi  Bi12  1  0.62800000  0.73861900  0.82954500  1
  Bi  Bi13  1  0.12940100  0.98967400  0.32915400  1
  Bi  Bi14  1  0.62779200  0.23883600  0.82938300  1
  Bi  Bi15  1  0.12939100  0.48975800  0.32927100  1
  Bi  Bi16  1  0.05252400  0.66912600  0.67225800  1
  Bi  Bi17  1  0.54840300  0.92005100  0.16796800  1
  Bi  Bi18  1  0.05242400  0.16922200  0.67227800  1
  Bi  Bi19  1  0.54851200  0.42015800  0.16805600  1
  Bi  Bi20  1  0.05249900  0.83080000  0.32756800  1
  Bi  Bi21  1  0.54840800  0.07995900  0.83196900  1
  Bi  Bi22  1  0.05237500  0.33086800  0.32791100  1
  Bi  Bi23  1  0.54833300  0.57981400  0.83202500  1
  S  S0  1  0.67430300  0.92435600  0.86568600  1
  S  S1  1  0.17402200  0.17635500  0.36749900  1
  S  S2  1  0.67444300  0.42438700  0.86568700  1
  S  S3  1  0.17493300  0.67650900  0.36791900  1
  S  S4  1  0.67411200  0.57561400  0.13434600  1
  S  S5  1  0.17389100  0.82359000  0.63226700  1
  S  S6  1  0.67432900  0.07563400  0.13428800  1
  S  S7  1  0.17479400  0.32355200  0.63233000  1
  O  O0  1  0.87876800  0.74998200  0.00002200  1
  O  O1  1  0.38034400  0.99998500  0.49999800  1
  O  O2  1  0.87885100  0.24999200  0.99999500  1
  O  O3  1  0.38007400  0.50001800  0.49998400  1
  O  O4  1  0.35915500  0.75000900  0.99999200  1
  O  O5  1  0.85988300  0.99999300  0.49998300  1
  O  O6  1  0.35935900  0.24997100  0.00002300  1
  O  O7  1  0.85948600  0.50003100  0.49998700  1
  O  O8  1  0.90116400  0.93882900  0.92653400  1
  O  O9  1  0.39867800  0.19217200  0.42652400  1
  O  O10  1  0.90154300  0.43882500  0.92636000  1
  O  O11  1  0.39960800  0.69219600  0.42700600  1
  O  O12  1  0.90096700  0.56108500  0.07358100  1
  O  O13  1  0.39841700  0.80782800  0.57308600  1
  O  O14  1  0.90121500  0.06117700  0.07344900  1
  O  O15  1  0.39944100  0.30776200  0.57334200  1
  O  O16  1  0.47214700  0.93334200  0.94775600  1
  O  O17  1  0.96971000  0.18565500  0.44963100  1
  O  O18  1  0.47245900  0.43344700  0.94777700  1
  O  O19  1  0.97060400  0.68583000  0.45002600  1
  O  O20  1  0.47192100  0.56667300  0.05229100  1
  O  O21  1  0.96941200  0.81425800  0.55022700  1
  O  O22  1  0.47219600  0.06663000  0.05221500  1
  O  O23  1  0.97050300  0.31429000  0.55016600  1
  O  O24  1  0.68595100  0.86404700  0.83986200  1
  O  O25  1  0.18394700  0.11553800  0.34440700  1
  O  O26  1  0.68584200  0.36404300  0.83994000  1
  O  O27  1  0.18430200  0.61573200  0.34447400  1
  O  O28  1  0.68597100  0.63594400  0.16017800  1
  O  O29  1  0.18362600  0.88440800  0.65534600  1
  O  O30  1  0.68594600  0.13594300  0.16011000  1
  O  O31  1  0.18459500  0.38433400  0.65573500  1
  O  O32  1  0.14123400  0.71552200  0.25749500  1
  O  O33  1  0.64545200  0.96449700  0.75691500  1
  O  O34  1  0.14033100  0.21522900  0.25698500  1
  O  O35  1  0.64552800  0.46448100  0.75686600  1
  O  O36  1  0.14050600  0.78470500  0.74279000  1
  O  O37  1  0.64550500  0.03548900  0.24306200  1
  O  O38  1  0.14078500  0.28457200  0.74276500  1
  O  O39  1  0.64501100  0.53551400  0.24314900  1
  O  O40  1  0.70056300  0.79442900  0.35110400  1
  O  O41  1  0.20058700  0.04251500  0.85444500  1
  O  O42  1  0.70035400  0.29453400  0.35134600  1
  O  O43  1  0.20029900  0.54247500  0.85445900  1
  O  O44  1  0.70054100  0.70548000  0.64874700  1
  O  O45  1  0.20051900  0.95747100  0.14553800  1
  O  O46  1  0.70049300  0.20554600  0.64878600  1
  O  O47  1  0.20061200  0.45757000  0.14554700  1
  O  O48  1  0.89061600  0.83352200  0.14648100  1
  O  O49  1  0.39145900  0.08259700  0.64933200  1
  O  O50  1  0.89088600  0.33352000  0.14659500  1
  O  O51  1  0.39138200  0.58257200  0.64938700  1
  O  O52  1  0.89084000  0.66644200  0.85350500  1
  O  O53  1  0.39144600  0.91740200  0.35061200  1
  O  O54  1  0.89067900  0.16649800  0.85342700  1
  O  O55  1  0.39141600  0.41743800  0.35063200  1
  O  O56  1  0.38388100  0.83636000  0.14555000  1
  O  O57  1  0.88738700  0.08559500  0.64727100  1
  O  O58  1  0.38441800  0.33641600  0.14542000  1
  O  O59  1  0.88741900  0.58558500  0.64722000  1
  O  O60  1  0.38435100  0.66356000  0.85464700  1
  O  O61  1  0.88734000  0.91441000  0.35266700  1
  O  O62  1  0.38400100  0.16364600  0.85443100  1
  O  O63  1  0.88749700  0.41443500  0.35280000  1
loop_
_geom_bond_atom_site_label_1
_geom_bond_atom_site_label_2
_geom_bond_distance
_geom_bond_site_symmetry_2
Co0 O47 1.935309 1_556
Co0 O43 1.935339 1_555
Co0 O10 2.076273 1_455
Co0 O12 2.077411 1_456
Co1 O44 1.931862 1_555
Co1 O40 1.931932 1_555
Co1 O13 2.186330 1_555
Co1 O11 2.195080 1_555
Co1 O21 2.435749 1_555
Co1 O19 2.451323 1_555
Co2 O45 1.935845 1_555
Co2 O41 1.935956 1_564
Co2 O14 2.077614 1_465
Co2 O8 2.077629 1_454
Co3 O42 1.931389 1_555
Co3 O46 1.931812 1_555
Co3 O9 2.185453 1_555
Co3 O15 2.193363 1_555
Co3 O17 2.442670 1_555
Co3 O23 2.455306 1_555
Bi0 O48 2.223315 1_456
Bi0 O4 2.237380 1_555
Bi0 O0 2.274256 1_456
Bi0 O56 2.315239 1_556
Bi1 O49 2.221368 1_555
Bi1 O5 2.240769 1_545
Bi1 O1 2.280661 1_545
Bi1 O57 2.307262 1_555
Bi2 O50 2.223601 1_456
Bi2 O6 2.239529 1_556
Bi2 O2 2.276697 1_455
Bi2 O58 2.314159 1_556
Bi3 O51 2.221102 1_555
Bi3 O7 2.240964 1_555
Bi3 O3 2.282195 1_555
Bi3 O59 2.306938 1_555
Bi4 O52 2.223356 1_454
Bi4 O4 2.239262 1_554
Bi4 O0 2.276806 1_455
Bi4 O60 2.314562 1_554
Bi5 O53 2.221222 1_555
Bi5 O5 2.240971 1_555
Bi5 O1 2.280849 1_555
Bi5 O61 2.306945 1_555
Bi6 O54 2.223508 1_454
Bi6 O6 2.237694 1_555
Bi6 O2 2.274448 1_454
Bi6 O62 2.314783 1_554
Bi7 O55 2.221201 1_555
Bi7 O7 2.240557 1_555
Bi7 O3 2.281466 1_555
Bi7 O63 2.307574 1_555
Bi8 O56 2.237820 1_555
Bi8 O48 2.256126 1_555
Bi8 O40 2.302339 1_555
Bi8 O0 2.443554 1_555
Bi8 O4 2.502163 1_554
Bi9 O57 2.232221 1_455
Bi9 O49 2.249848 1_555
Bi9 O41 2.323777 1_555
Bi9 O1 2.441388 1_545
Bi9 O5 2.504091 1_445
Bi10 O58 2.235210 1_555
Bi10 O50 2.252557 1_555
Bi10 O42 2.305028 1_555
Bi10 O2 2.442284 1_554
Bi10 O6 2.502185 1_555
Bi11 O59 2.232429 1_455
Bi11 O51 2.250722 1_555
Bi11 O43 2.325637 1_555
Bi11 O3 2.439385 1_555
Bi11 O7 2.503097 1_455
Bi12 O60 2.235004 1_555
Bi12 O52 2.252627 1_555
Bi12 O44 2.304252 1_555
Bi12 O0 2.441833 1_556
Bi12 O4 2.502643 1_555
Bi13 O61 2.232212 1_455
Bi13 O53 2.249909 1_555
Bi13 O45 2.323656 1_555
Bi13 O1 2.441492 1_555
Bi13 O5 2.504122 1_455
Bi14 O62 2.237849 1_555
Bi14 O54 2.255653 1_555
Bi14 O46 2.303769 1_555
Bi14 O2 2.443169 1_555
Bi14 O6 2.501917 1_556
Bi15 O63 2.232720 1_455
Bi15 O55 2.250625 1_555
Bi15 O47 2.324761 1_555
Bi15 O3 2.439226 1_555
Bi15 O7 2.504268 1_455
Bi16 O44 2.175573 1_455
Bi16 O59 2.211698 1_455
Bi16 O52 2.257428 1_455
Bi16 O19 2.573519 1_455
Bi17 O45 2.163005 1_555
Bi17 O56 2.207468 1_555
Bi17 O53 2.261384 1_555
Bi17 O16 2.541370 1_554
Bi18 O46 2.175016 1_455
Bi18 O57 2.213271 1_455
Bi18 O54 2.256497 1_455
Bi18 O17 2.578527 1_455
Bi18 O62 2.795614 1_555
Bi19 O47 2.163089 1_555
Bi19 O58 2.208006 1_555
Bi19 O55 2.260892 1_555
Bi19 O18 2.541921 1_554
Bi20 O40 2.175415 1_455
Bi20 O61 2.213523 1_455
Bi20 O48 2.256168 1_455
Bi20 O21 2.579202 1_455
Bi20 O56 2.793740 1_555
Bi21 O41 2.162852 1_555
Bi21 O62 2.207306 1_555
Bi21 O49 2.261303 1_555
Bi21 O22 2.541736 1_556
Bi22 O42 2.175423 1_455
Bi22 O63 2.211451 1_455
Bi22 O50 2.257736 1_455
Bi22 O23 2.573528 1_455
Bi23 O43 2.162939 1_555
Bi23 O60 2.207892 1_555
Bi23 O51 2.261169 1_555
Bi23 O20 2.541997 1_556
O8 S0 1.513123 1_555
O9 S1 1.501341 1_555
O10 S2 1.513102 1_555
O11 S3 1.500895 1_555
O12 S4 1.513028 1_555
O13 S5 1.501228 1_555
O14 S6 1.513134 1_555
O15 S7 1.500960 1_555
O16 S0 1.505633 1_555
O17 S1 1.516828 1_655
O18 S2 1.505376 1_555
O19 S3 1.516819 1_655
O20 S4 1.505446 1_555
O21 S5 1.517012 1_655
O22 S6 1.505613 1_555
O23 S7 1.516766 1_655
O24 S0 1.471145 1_555
O25 S1 1.473876 1_555
O26 S2 1.471636 1_555
O27 S3 1.473905 1_555
O28 S4 1.471699 1_555
O29 S5 1.473813 1_555
O30 S6 1.471123 1_555
O31 S7 1.473983 1_555
O32 S3 1.502647 1_555
O33 S0 1.499136 1_555
O34 S1 1.501707 1_555
O35 S2 1.499005 1_555
O36 S5 1.501694 1_555
O37 S6 1.499186 1_555
O38 S7 1.502543 1_555
O39 S4 1.499028 1_555
