# generated using pymatgen
data_Ho4Ge6Ir7
_symmetry_space_group_name_H-M   'P 1'
_cell_length_a   7.26969610
_cell_length_b   7.26969610
_cell_length_c   7.26969610
_cell_angle_alpha   109.47122063
_cell_angle_beta   109.47122063
_cell_angle_gamma   109.47122063
_symmetry_Int_Tables_number   1
_chemical_formula_structural   Ho4Ge6Ir7
_chemical_formula_sum   'Ho4 Ge6 Ir7'
_cell_volume   295.75144661
_cell_formula_units_Z   1
loop_
 _symmetry_equiv_pos_site_id
 _symmetry_equiv_pos_as_xyz
  1  'x, y, z'
loop_
 _atom_site_type_symbol
 _atom_site_label
 _atom_site_symmetry_multiplicity
 _atom_site_fract_x
 _atom_site_fract_y
 _atom_site_fract_z
 _atom_site_occupancy
  Ho  Ho0  1  0.00000000  0.00000000  0.50000000  1
  Ho  Ho1  1  0.00000000  0.50000000  0.00000000  1
  Ho  Ho2  1  0.50000000  0.00000000  0.00000000  1
  Ho  Ho3  1  0.50000000  0.50000000  0.50000000  1
  Ge  Ge0  1  0.68250500  0.68250500  0.00000000  1
  Ge  Ge1  1  0.31749500  0.00000000  0.31749500  1
  Ge  Ge2  1  0.00000000  0.31749500  0.31749500  1
  Ge  Ge3  1  0.31749500  0.31749500  0.00000000  1
  Ge  Ge4  1  0.68250500  0.00000000  0.68250500  1
  Ge  Ge5  1  0.00000000  0.68250500  0.68250500  1
  Ir  Ir0  1  0.75000000  0.25000000  0.50000000  1
  Ir  Ir1  1  0.75000000  0.50000000  0.25000000  1
  Ir  Ir2  1  0.50000000  0.25000000  0.75000000  1
  Ir  Ir3  1  0.25000000  0.50000000  0.75000000  1
  Ir  Ir4  1  0.25000000  0.75000000  0.50000000  1
  Ir  Ir5  1  0.50000000  0.75000000  0.25000000  1
  Ir  Ir6  1  0.00000000  0.00000000  0.00000000  1
loop_
_geom_bond_atom_site_label_1
_geom_bond_atom_site_label_2
_geom_bond_distance
_geom_bond_site_symmetry_2
Ho0 Ir5 2.967841 1_445
Ho0 Ir0 2.967841 1_455
Ho0 Ir2 2.967841 1_555
Ho0 Ir3 2.967841 1_555
Ho0 Ir1 2.967841 1_445
Ho0 Ir4 2.967841 1_545
Ho1 Ir5 2.967841 1_555
Ho1 Ir0 2.967841 1_454
Ho1 Ir1 2.967841 1_455
Ho1 Ir3 2.967841 1_554
Ho1 Ir2 2.967841 1_454
Ho1 Ir4 2.967841 1_555
Ho2 Ir1 2.967841 1_555
Ho2 Ir3 2.967841 1_544
Ho2 Ir2 2.967841 1_554
Ho2 Ir0 2.967841 1_555
Ho2 Ir4 2.967841 1_544
Ho2 Ir5 2.967841 1_545
Ho3 Ir1 2.967841 1_555
Ho3 Ir5 2.967841 1_555
Ho3 Ir2 2.967841 1_555
Ho3 Ir3 2.967841 1_555
Ho3 Ir0 2.967841 1_555
Ho3 Ir4 2.967841 1_555
Ge0 Ir2 2.598284 1_554
Ge0 Ir3 2.598284 1_554
Ge0 Ir1 2.598284 1_555
Ge0 Ir5 2.598284 1_555
Ge0 Ir6 2.665155 1_665
Ge0 Ho2 3.021438 1_565
Ge0 Ho3 3.021438 1_554
Ge0 Ho0 3.021438 1_665
Ge0 Ho1 3.021438 1_655
Ge1 Ir4 2.598284 1_545
Ge1 Ir5 2.598284 1_545
Ge1 Ir2 2.598284 1_555
Ge1 Ir0 2.598284 1_555
Ge1 Ir6 2.665155 1_555
Ge1 Ho2 3.021438 1_555
Ge1 Ho1 3.021438 1_545
Ge1 Ho0 3.021438 1_555
Ge1 Ho3 3.021438 1_555
Ge2 Ir1 2.598284 1_455
Ge2 Ir4 2.598284 1_555
Ge2 Ir0 2.598284 1_455
Ge2 Ir3 2.598284 1_555
Ge2 Ir6 2.665155 1_555
Ge2 Ho0 3.021438 1_555
Ge2 Ho1 3.021438 1_555
Ge2 Ho3 3.021438 1_555
Ge2 Ho2 3.021438 1_455
Ge3 Ir1 2.598284 1_555
Ge3 Ir5 2.598284 1_555
Ge3 Ir2 2.598284 1_554
Ge3 Ir3 2.598284 1_554
Ge3 Ir6 2.665155 1_555
Ge3 Ho2 3.021438 1_555
Ge3 Ho3 3.021438 1_555
Ge3 Ho0 3.021438 1_554
Ge3 Ho1 3.021438 1_555
Ge4 Ir5 2.598284 1_545
Ge4 Ir2 2.598284 1_555
Ge4 Ir4 2.598284 1_545
Ge4 Ir0 2.598284 1_555
Ge4 Ir6 2.665155 1_656
Ge4 Ho1 3.021438 1_656
Ge4 Ho3 3.021438 1_545
Ge4 Ho2 3.021438 1_556
Ge4 Ho0 3.021438 1_655
Ge5 Ir4 2.598284 1_555
Ge5 Ir0 2.598284 1_455
Ge5 Ir3 2.598284 1_555
Ge5 Ir1 2.598284 1_455
Ge5 Ir6 2.665155 1_566
Ge5 Ho1 3.021438 1_556
Ge5 Ho0 3.021438 1_565
Ge5 Ho2 3.021438 1_566
Ge5 Ho3 3.021438 1_455
