# generated using pymatgen
data_Sr4LaMn5O13
_symmetry_space_group_name_H-M   'P 1'
_cell_length_a   3.89392000
_cell_length_b   8.79578200
_cell_length_c   8.84320814
_cell_angle_alpha   89.39368363
_cell_angle_beta   90.00000000
_cell_angle_gamma   90.00000000
_symmetry_Int_Tables_number   1
_chemical_formula_structural   Sr4LaMn5O13
_chemical_formula_sum   'Sr4 La1 Mn5 O13'
_cell_volume   302.86355202
_cell_formula_units_Z   1
loop_
 _symmetry_equiv_pos_site_id
 _symmetry_equiv_pos_as_xyz
  1  'x, y, z'
loop_
 _atom_site_type_symbol
 _atom_site_label
 _atom_site_symmetry_multiplicity
 _atom_site_fract_x
 _atom_site_fract_y
 _atom_site_fract_z
 _atom_site_occupancy
  Sr  Sr0  1  0.50000000  0.88769800  0.28459200  1
  Sr  Sr1  1  0.50000000  0.11679300  0.71724600  1
  Sr  Sr2  1  0.50000000  0.28033500  0.11750300  1
  Sr  Sr3  1  0.50000000  0.49617200  0.49715400  1
  La  La0  1  0.50000000  0.72203900  0.88303800  1
  Mn  Mn0  1  0.00000000  0.00262800  0.00094100  1
  Mn  Mn1  1  0.00000000  0.80330000  0.59201600  1
  Mn  Mn2  1  0.00000000  0.19630900  0.40551400  1
  Mn  Mn3  1  0.00000000  0.59590700  0.19370500  1
  Mn  Mn4  1  0.00000000  0.40312100  0.80681300  1
  O  O0  1  0.00000000  0.77627700  0.06010400  1
  O  O1  1  0.00000000  0.21782300  0.92772800  1
  O  O2  1  0.00000000  0.07115700  0.22546200  1
  O  O3  1  0.00000000  0.91961000  0.77816600  1
  O  O4  1  0.50000000  0.58481600  0.15264900  1
  O  O5  1  0.50000000  0.42826200  0.83995400  1
  O  O6  1  0.50000000  0.82839300  0.58539600  1
  O  O7  1  0.50000000  0.16728700  0.42303700  1
  O  O8  1  0.00000000  0.60798200  0.72559100  1
  O  O9  1  0.00000000  0.39949300  0.28680200  1
  O  O10  1  0.00000000  0.70791800  0.39718400  1
  O  O11  1  0.00000000  0.29448000  0.60204900  1
  O  O12  1  0.50000000  0.99219900  0.99735800  1
loop_
_geom_bond_atom_site_label_1
_geom_bond_atom_site_label_2
_geom_bond_distance
_geom_bond_site_symmetry_2
La0 O0 2.546740 1_656
La0 O0 2.546740 1_556
La0 O12 2.592205 1_555
La0 O8 2.601013 1_555
La0 O8 2.601013 1_655
La0 O5 2.615922 1_555
La0 O4 2.660910 1_556
La0 O3 2.763430 1_655
La0 O3 2.763430 1_555
La0 O6 2.784060 1_555
Mn0 O12 1.949393 1_544
Mn0 O12 1.949393 1_444
Mn0 O1 1.993982 1_554
Mn0 O0 2.053169 1_545
Mn0 O2 2.081060 1_555
Mn0 O3 2.108253 1_544
Mn1 O10 1.924309 1_555
Mn1 O3 1.947332 1_555
Mn1 O6 1.960235 1_555
Mn1 O6 1.960235 1_455
Mn1 O8 2.074559 1_555
Mn2 O2 1.945276 1_555
Mn2 O11 1.948851 1_555
Mn2 O7 1.969516 1_555
Mn2 O7 1.969516 1_455
Mn2 O9 2.063083 1_555
Mn3 O9 1.905868 1_555
Mn3 O0 1.968032 1_555
Mn3 O4 1.983113 1_455
Mn3 O4 1.983113 1_555
Mn3 O10 2.060595 1_555
Mn4 O8 1.932718 1_555
Mn4 O1 1.939807 1_555
Mn4 O5 1.981620 1_455
Mn4 O5 1.981620 1_555
Mn4 O11 2.056368 1_555
O0 Sr0 2.955215 1_455
O0 Sr0 2.955215 1_555
O1 Sr2 2.632286 1_456
O1 Sr2 2.632286 1_556
O1 Sr1 2.842518 1_555
O1 Sr1 2.842518 1_455
O2 Sr0 2.578785 1_545
O2 Sr0 2.578785 1_445
O2 Sr2 2.837272 1_555
O2 Sr2 2.837272 1_455
O3 Sr1 2.658792 1_565
O3 Sr1 2.658792 1_465
O4 Sr2 2.699388 1_555
O4 Sr0 2.919684 1_555
O4 Sr3 3.136717 1_555
O5 Sr2 2.765783 1_556
O5 Sr1 2.957349 1_555
O5 Sr3 3.083532 1_555
O6 Sr0 2.705313 1_555
O6 Sr1 2.803028 1_565
O6 Sr3 3.032510 1_555
O7 Sr1 2.634750 1_555
O7 Sr0 2.758679 1_545
O7 Sr2 2.869169 1_555
O7 Sr3 2.972880 1_555
O8 Sr3 2.980059 1_455
O8 Sr3 2.980059 1_555
O9 Sr2 2.676527 1_555
O9 Sr2 2.676527 1_455
O9 Sr3 2.829761 1_455
O9 Sr3 2.829761 1_555
O10 Sr0 2.692439 1_455
O10 Sr0 2.692439 1_555
O10 Sr3 2.829516 1_455
O10 Sr3 2.829516 1_555
O11 Sr1 2.690237 1_455
O11 Sr1 2.690237 1_555
O11 Sr3 2.786305 1_555
O11 Sr3 2.786305 1_455
O12 Sr0 2.692102 1_556
O12 Sr1 2.698058 1_565
O12 Sr2 2.758426 1_566
