# generated using pymatgen
data_BaLiV2Ni3(HO5)2
_symmetry_space_group_name_H-M   'P 1'
_cell_length_a   5.89333500
_cell_length_b   5.94831769
_cell_length_c   8.09331729
_cell_angle_alpha   68.92352584
_cell_angle_beta   68.64862152
_cell_angle_gamma   60.30529553
_symmetry_Int_Tables_number   1
_chemical_formula_structural   BaLiV2Ni3(HO5)2
_chemical_formula_sum   'Ba1 Li1 V2 Ni3 H2 O10'
_cell_volume   223.83625367
_cell_formula_units_Z   1
loop_
 _symmetry_equiv_pos_site_id
 _symmetry_equiv_pos_as_xyz
  1  'x, y, z'
loop_
 _atom_site_type_symbol
 _atom_site_label
 _atom_site_symmetry_multiplicity
 _atom_site_fract_x
 _atom_site_fract_y
 _atom_site_fract_z
 _atom_site_occupancy
  Ba  Ba0  1  0.00000000  0.50000000  0.50000000  1
  Li  Li0  1  0.50000000  0.00000000  0.00000000  1
  V  V0  1  0.60017700  0.09615200  0.70349500  1
  V  V1  1  0.39982300  0.90384800  0.29650500  1
  Ni  Ni0  1  0.00000000  0.00000000  0.00000000  1
  Ni  Ni1  1  0.00000000  0.50000000  0.00000000  1
  Ni  Ni2  1  0.50000000  0.50000000  0.00000000  1
  H  H0  1  0.25476400  0.74964200  0.74082800  1
  H  H1  1  0.74523600  0.25035800  0.25917200  1
  O  O0  1  0.24548300  0.21816700  0.81720600  1
  O  O1  1  0.71914400  0.21816700  0.81720600  1
  O  O2  1  0.75451700  0.78183300  0.18279400  1
  O  O3  1  0.28085600  0.78183300  0.18279400  1
  O  O4  1  0.71905200  0.74806200  0.81383500  1
  O  O5  1  0.28094800  0.25193800  0.18616500  1
  O  O6  1  0.32986400  0.81123000  0.52904300  1
  O  O7  1  0.67013600  0.18877000  0.47095700  1
  O  O8  1  0.20734800  0.70757700  0.87772700  1
  O  O9  1  0.79265200  0.29242300  0.12227300  1
loop_
_geom_bond_atom_site_label_1
_geom_bond_atom_site_label_2
_geom_bond_distance
_geom_bond_site_symmetry_2
Ba0 O4 2.929644 1_455
Ba0 O5 2.929644 1_555
Ba0 O1 2.949633 1_455
Ba0 O3 2.949633 1_555
Ba0 O0 2.949633 1_555
Ba0 O2 2.949633 1_455
Li0 O2 2.104542 1_545
Li0 O0 2.104542 1_554
Li0 O3 2.104543 1_545
Li0 O1 2.104543 1_554
Li0 O4 2.115037 1_544
Li0 O5 2.115037 1_555
Ni0 O9 1.936416 1_455
Ni0 O8 1.936416 1_544
Ni0 O3 2.210542 1_545
Ni0 O1 2.210542 1_454
Ni0 O0 2.210542 1_554
Ni0 O2 2.210542 1_445
Ni1 O8 1.931989 1_554
Ni1 O9 1.931989 1_455
Ni1 O2 2.216854 1_455
Ni1 O0 2.216854 1_554
Ni1 O5 2.232896 1_555
Ni1 O4 2.232896 1_454
Ni2 O9 1.931989 1_555
Ni2 O8 1.931989 1_554
Ni2 O3 2.216854 1_555
Ni2 O1 2.216854 1_554
Ni2 O4 2.232900 1_554
Ni2 O5 2.232900 1_555
H0 O8 1.006339 1_555
H0 O6 1.557129 1_555
H1 O9 1.006339 1_555
H1 O7 1.557129 1_555
O0 V0 1.821999 1_555
O1 V0 1.821995 1_555
O2 V1 1.821999 1_555
O3 V1 1.821995 1_555
O4 V0 1.806649 1_565
O5 V1 1.806649 1_545
O6 V1 1.711649 1_555
O7 V0 1.711649 1_555
