# generated using pymatgen
data_Mg16Al12Hg
_symmetry_space_group_name_H-M   'P 1'
_cell_length_a   9.02713372
_cell_length_b   9.02713372
_cell_length_c   9.10602657
_cell_angle_alpha   71.13576620
_cell_angle_beta   71.13576620
_cell_angle_gamma   108.77696898
_symmetry_Int_Tables_number   1
_chemical_formula_structural   Mg16Al12Hg
_chemical_formula_sum   'Mg16 Al12 Hg1'
_cell_volume   584.28925117
_cell_formula_units_Z   1
loop_
 _symmetry_equiv_pos_site_id
 _symmetry_equiv_pos_as_xyz
  1  'x, y, z'
loop_
 _atom_site_type_symbol
 _atom_site_label
 _atom_site_symmetry_multiplicity
 _atom_site_fract_x
 _atom_site_fract_y
 _atom_site_fract_z
 _atom_site_occupancy
  Mg  Mg0  1  0.99999900  0.99999900  0.65830100  1
  Mg  Mg1  1  0.68926800  0.68926800  0.70703100  1
  Mg  Mg2  1  0.64971100  0.64971100  0.33362400  1
  Mg  Mg3  1  0.99660400  0.99660400  0.00332700  1
  Mg  Mg4  1  0.32454200  0.59749700  0.00089600  1
  Mg  Mg5  1  0.40272900  0.71460500  0.59941200  1
  Mg  Mg6  1  0.99753100  0.31420800  0.39932600  1
  Mg  Mg7  1  0.99663300  0.34828400  0.00627100  1
  Mg  Mg8  1  0.29260900  0.67901900  0.31560700  1
  Mg  Mg9  1  0.60151200  0.00352600  0.68084400  1
  Mg  Mg10  1  0.00352600  0.60151200  0.68084400  1
  Mg  Mg11  1  0.67901900  0.29260900  0.31560700  1
  Mg  Mg12  1  0.34828400  0.99663300  0.00627100  1
  Mg  Mg13  1  0.31420800  0.99753100  0.39932600  1
  Mg  Mg14  1  0.71460500  0.40272900  0.59941200  1
  Mg  Mg15  1  0.59749700  0.32454200  0.00089600  1
  Al  Al0  1  0.36683700  0.36683700  0.82361500  1
  Al  Al1  1  0.17922600  0.17922600  0.18027900  1
  Al  Al2  1  0.64104700  0.82523800  0.98985900  1
  Al  Al3  1  0.81278700  0.99959700  0.36571700  1
  Al  Al4  1  0.17810500  0.36657600  0.64153600  1
  Al  Al5  1  0.81899800  0.18991500  0.81436600  1
  Al  Al6  1  0.63218500  0.00375800  0.18194400  1
  Al  Al7  1  0.00375800  0.63218500  0.18194400  1
  Al  Al8  1  0.18991500  0.81899800  0.81436600  1
  Al  Al9  1  0.36657600  0.17810500  0.64153600  1
  Al  Al10  1  0.99959700  0.81278700  0.36571700  1
  Al  Al11  1  0.82523800  0.64104700  0.98985900  1
  Hg  Hg0  1  0.37690800  0.37690800  0.30350400  1
loop_
_geom_bond_atom_site_label_1
_geom_bond_atom_site_label_2
_geom_bond_distance
_geom_bond_site_symmetry_2
Mg0 Mg1 3.042707 1_555
Mg0 Mg13 3.058793 1_655
Mg0 Mg6 3.058793 1_565
Mg0 Mg3 3.122139 1_556
Mg1 Mg14 3.094899 1_555
Mg1 Mg5 3.094899 1_555
Mg1 Mg15 3.130556 1_556
Mg1 Mg4 3.130556 1_556
Mg1 Mg9 3.140636 1_565
Mg1 Mg10 3.140636 1_655
Mg2 Mg5 3.072455 1_555
Mg2 Mg3 3.188172 1_555
Mg2 Mg8 3.369204 1_555
Mg3 Mg7 3.183348 1_565
Mg4 Mg7 3.061636 1_455
Mg4 Mg8 3.131039 1_555
Mg4 Mg5 3.214550 1_554
Mg4 Mg6 3.260639 1_455
Mg4 Mg9 3.264975 1_564
Mg5 Mg9 3.109718 1_565
Mg5 Mg8 3.124529 1_555
Mg6 Mg8 3.152433 1_655
Mg6 Mg9 3.191774 1_555
Mg10 Mg7 3.069123 1_456
Mg10 Mg14 3.109718 1_455
Mg10 Mg5 3.161094 1_555
Mg10 Mg8 3.173052 1_555
Mg10 Mg13 3.191774 1_555
Mg10 Mg15 3.264975 1_456
Mg11 Mg7 3.056459 1_555
Mg11 Mg14 3.124529 1_555
Mg11 Mg15 3.131039 1_555
Mg11 Mg13 3.152433 1_545
Mg11 Mg6 3.168422 1_555
Mg11 Mg9 3.173052 1_555
Mg11 Mg2 3.369204 1_555
Mg12 Mg8 3.056459 1_555
Mg12 Mg15 3.061636 1_565
Mg12 Mg9 3.069123 1_564
Mg12 Mg3 3.183348 1_455
Mg13 Mg5 3.118875 1_555
Mg13 Mg8 3.168422 1_555
Mg13 Mg15 3.260639 1_565
Mg14 Mg2 3.072455 1_555
Mg14 Mg6 3.118875 1_555
Mg14 Mg9 3.161094 1_555
Mg14 Mg15 3.214550 1_556
Al0 Al1 2.706365 1_556
Al0 Al4 2.734637 1_555
Al0 Al9 2.734637 1_555
Al0 Mg1 2.936050 1_555
Al0 Mg5 2.983531 1_555
Al0 Mg14 2.983531 1_555
Al0 Mg4 3.061735 1_556
Al0 Mg15 3.061735 1_556
Al0 Mg12 3.134939 1_546
Al0 Mg7 3.134939 1_456
Al0 Mg3 3.279255 1_446
Al1 Al10 2.754483 1_445
Al1 Al3 2.754483 1_445
Al1 Hg0 2.857903 1_555
Al1 Mg13 2.982663 1_545
Al1 Mg6 2.982663 1_455
Al1 Mg12 3.049781 1_545
Al1 Mg7 3.049781 1_455
Al1 Mg3 3.117329 1_445
Al1 Mg15 3.175377 1_555
Al1 Mg4 3.175377 1_555
Al2 Al6 2.734620 1_566
Al2 Al5 2.739550 1_565
Al2 Mg4 2.880820 1_556
Al2 Mg9 2.954028 1_565
Al2 Mg8 3.032586 1_556
Al2 Mg2 3.057194 1_556
Al2 Mg0 3.067027 1_555
Al2 Mg3 3.144964 1_556
Al2 Mg1 3.161029 1_555
Al3 Al6 2.687519 1_565
Al3 Mg9 2.905749 1_565
Al3 Mg6 2.963731 1_565
Al3 Mg1 2.978030 1_555
Al3 Mg7 3.136467 1_565
Al3 Mg5 3.175618 1_555
Al3 Mg2 3.179658 1_555
Al3 Mg3 3.192072 1_555
Al3 Mg11 3.208543 1_565
Al4 Al5 2.697879 1_455
Al4 Al9 2.766345 1_555
Al4 Mg8 2.925457 1_555
Al4 Mg5 2.957311 1_555
Al4 Hg0 2.972990 1_555
Al4 Mg10 3.063868 1_555
Al4 Mg0 3.106152 1_445
Al4 Mg7 3.113631 1_456
Al4 Mg6 3.201273 1_455
Al4 Mg3 3.250227 1_446
Al5 Al6 2.785611 1_556
Al5 Mg14 2.887328 1_555
Al5 Mg9 2.983900 1_555
Al5 Mg15 3.010495 1_556
Al5 Mg0 3.083139 1_545
Al5 Mg7 3.101707 1_556
Al5 Mg10 3.137340 1_655
Al5 Mg3 3.196842 1_546
Al5 Mg6 3.208567 1_555
Al6 Mg13 2.882838 1_545
Al6 Mg8 2.994436 1_545
Al6 Mg15 3.005309 1_555
Al6 Mg2 3.124038 1_545
Al6 Mg7 3.138112 1_555
Al6 Mg11 3.183481 1_555
Al6 Mg3 3.196280 1_545
Al6 Mg5 3.250521 1_545
Al7 Al8 2.785611 1_554
Al7 Mg6 2.882838 1_455
Al7 Mg11 2.994436 1_455
Al7 Mg4 3.005309 1_555
Al7 Mg2 3.124038 1_455
Al7 Mg12 3.138112 1_555
Al7 Mg8 3.183481 1_555
Al7 Mg3 3.196280 1_455
Al7 Mg14 3.250521 1_455
Al8 Al9 2.697879 1_565
Al8 Mg5 2.887328 1_555
Al8 Mg10 2.983900 1_555
Al8 Mg4 3.010495 1_556
Al8 Mg0 3.083139 1_455
Al8 Mg12 3.101707 1_556
Al8 Mg9 3.137340 1_565
Al8 Mg3 3.196842 1_456
Al8 Mg13 3.208567 1_555
Al9 Mg11 2.925457 1_555
Al9 Mg14 2.957311 1_555
Al9 Hg0 2.972990 1_555
Al9 Mg9 3.063868 1_555
Al9 Mg0 3.106152 1_445
Al9 Mg12 3.113631 1_546
Al9 Mg13 3.201273 1_545
Al9 Mg3 3.250227 1_446
Al10 Al7 2.687519 1_655
Al10 Al3 2.741965 1_555
Al10 Mg10 2.905749 1_655
Al10 Mg13 2.963731 1_655
Al10 Mg1 2.978030 1_555
Al10 Mg12 3.136467 1_655
Al10 Mg14 3.175618 1_555
Al10 Mg2 3.179658 1_555
Al10 Mg3 3.192072 1_555
Al10 Mg8 3.208543 1_655
Al11 Al2 2.703523 1_555
Al11 Al7 2.734620 1_656
Al11 Al8 2.739550 1_655
Al11 Mg15 2.880820 1_556
Al11 Mg10 2.954028 1_655
Al11 Mg11 3.032586 1_556
Al11 Mg2 3.057194 1_556
Al11 Mg0 3.067027 1_555
Al11 Mg3 3.144964 1_556
Al11 Mg1 3.161029 1_555
Hg0 Mg2 3.028809 1_555
Hg0 Mg13 3.051329 1_545
Hg0 Mg6 3.051329 1_455
Hg0 Mg8 3.083019 1_555
Hg0 Mg11 3.083019 1_555
Hg0 Mg15 3.111564 1_555
Hg0 Mg4 3.111564 1_555
Hg0 Mg0 3.452767 1_445
