# generated using pymatgen
data_Zr3FeF6
_symmetry_space_group_name_H-M   'P 1'
_cell_length_a   5.94032331
_cell_length_b   6.12382070
_cell_length_c   12.11024331
_cell_angle_alpha   94.10320945
_cell_angle_beta   105.83772232
_cell_angle_gamma   119.81918483
_symmetry_Int_Tables_number   1
_chemical_formula_structural   Zr3FeF6
_chemical_formula_sum   'Zr3 Fe1 F6'
_cell_volume   356.18563056
_cell_formula_units_Z   1
loop_
 _symmetry_equiv_pos_site_id
 _symmetry_equiv_pos_as_xyz
  1  'x, y, z'
loop_
 _atom_site_type_symbol
 _atom_site_label
 _atom_site_symmetry_multiplicity
 _atom_site_fract_x
 _atom_site_fract_y
 _atom_site_fract_z
 _atom_site_occupancy
  Zr  Zr0  1  0.00000000  0.00000000  0.50000000  1
  Zr  Zr1  1  0.50000000  0.50000000  0.00000000  1
  Zr  Zr2  1  0.00000000  0.50000000  0.00000000  1
  Fe  Fe0  1  0.00000000  0.00000000  0.00000000  1
  F  F0  1  0.10596900  0.40294700  0.86243700  1
  F  F1  1  0.89403100  0.59705300  0.13756300  1
  F  F2  1  0.93756300  0.95016000  0.65050700  1
  F  F3  1  0.06243700  0.04984000  0.34949300  1
  F  F4  1  0.61271300  0.76711200  0.88866200  1
  F  F5  1  0.38728700  0.23288800  0.11133800  1
loop_
_geom_bond_atom_site_label_1
_geom_bond_atom_site_label_2
_geom_bond_distance
_geom_bond_site_symmetry_2
F0 Zr2 2.080282 1_556
F0 Zr1 2.225682 1_556
F1 Zr2 2.080282 1_655
F1 Zr1 2.225682 1_555
F2 Zr0 1.972026 1_665
F3 Zr0 1.972026 1_555
F4 Fe0 1.978210 1_666
F4 Zr1 2.158963 1_556
F5 Fe0 1.978210 1_555
F5 Zr1 2.158963 1_555
