# generated using pymatgen
data_NdBN2
_symmetry_space_group_name_H-M   'P 1'
_cell_length_a   7.37908352
_cell_length_b   7.37908352
_cell_length_c   7.37908267
_cell_angle_alpha   110.62673802
_cell_angle_beta   110.62673802
_cell_angle_gamma   110.62674354
_symmetry_Int_Tables_number   1
_chemical_formula_structural   NdBN2
_chemical_formula_sum   'Nd6 B6 N12'
_cell_volume   295.33183283
_cell_formula_units_Z   6
loop_
 _symmetry_equiv_pos_site_id
 _symmetry_equiv_pos_as_xyz
  1  'x, y, z'
loop_
 _atom_site_type_symbol
 _atom_site_label
 _atom_site_symmetry_multiplicity
 _atom_site_fract_x
 _atom_site_fract_y
 _atom_site_fract_z
 _atom_site_occupancy
  Nd  Nd0  1  0.70447262  0.25000000  0.79552738  1
  Nd  Nd1  1  0.79552738  0.70447262  0.25000000  1
  Nd  Nd2  1  0.25000000  0.79552738  0.70447262  1
  Nd  Nd3  1  0.29552738  0.75000000  0.20447262  1
  Nd  Nd4  1  0.20447262  0.29552738  0.75000000  1
  Nd  Nd5  1  0.75000000  0.20447262  0.29552738  1
  B  B0  1  0.86934616  0.63065384  0.75000000  1
  B  B1  1  0.75000000  0.86934616  0.63065384  1
  B  B2  1  0.63065384  0.75000000  0.86934616  1
  B  B3  1  0.25000000  0.13065384  0.36934616  1
  B  B4  1  0.36934616  0.25000000  0.13065384  1
  B  B5  1  0.13065384  0.36934616  0.25000000  1
  N  N0  1  0.75000000  0.62778175  0.87221825  1
  N  N1  1  0.87221825  0.75000000  0.62778175  1
  N  N2  1  0.62778175  0.87221825  0.75000000  1
  N  N3  1  0.37221825  0.12778175  0.25000000  1
  N  N4  1  0.25000000  0.37221825  0.12778175  1
  N  N5  1  0.12778175  0.25000000  0.37221825  1
  N  N6  1  0.75000000  0.99108169  0.50891831  1
  N  N7  1  0.50891831  0.75000000  0.99108169  1
  N  N8  1  0.99108169  0.50891831  0.75000000  1
  N  N9  1  0.00891831  0.49108169  0.25000000  1
  N  N10  1  0.25000000  0.00891831  0.49108169  1
  N  N11  1  0.49108169  0.25000000  0.00891831  1
loop_
_geom_bond_atom_site_label_1
_geom_bond_atom_site_label_2
_geom_bond_distance
_geom_bond_site_symmetry_2
B0 N1 1.466039 1_555
B0 N0 1.466039 1_555
B0 N8 1.477297 1_555
B1 N2 1.466039 1_555
B1 N1 1.466039 1_555
B1 N6 1.477297 1_555
B2 N2 1.466039 1_555
B2 N0 1.466039 1_555
B2 N7 1.477297 1_555
B3 N3 1.466039 1_555
B3 N5 1.466039 1_555
B3 N10 1.477297 1_555
B4 N3 1.466039 1_555
B4 N4 1.466039 1_555
B4 N11 1.477297 1_555
B5 N4 1.466039 1_555
B5 N5 1.466039 1_555
B5 N9 1.477297 1_555
N0 Nd1 2.509784 1_556
N0 Nd0 2.509785 1_555
N1 Nd1 2.509784 1_555
N1 Nd2 2.509785 1_655
N2 Nd0 2.509785 1_565
N2 Nd2 2.509785 1_555
N3 Nd5 2.509785 1_555
N3 Nd3 2.509785 1_545
N4 Nd4 2.509784 1_554
N4 Nd3 2.509785 1_555
N5 Nd4 2.509784 1_555
N5 Nd5 2.509785 1_455
N6 Nd0 2.518321 1_565
N6 Nd1 2.518321 1_555
N6 Nd5 2.589563 1_565
N6 Nd3 2.670394 1_555
N6 Nd4 2.670394 1_665
N7 Nd2 2.518321 1_555
N7 Nd1 2.518321 1_556
N7 Nd3 2.589563 1_556
N7 Nd5 2.670394 1_566
N7 Nd4 2.670394 1_555
N8 Nd0 2.518321 1_555
N8 Nd2 2.518321 1_655
N8 Nd4 2.589563 1_655
N8 Nd5 2.670394 1_555
N8 Nd3 2.670394 1_656
N9 Nd3 2.518321 1_555
N9 Nd5 2.518321 1_455
N9 Nd1 2.589563 1_455
N9 Nd2 2.670394 1_555
N9 Nd0 2.670394 1_454
N10 Nd3 2.518321 1_545
N10 Nd4 2.518321 1_555
N10 Nd2 2.589563 1_545
N10 Nd0 2.670394 1_555
N10 Nd1 2.670394 1_445
N11 Nd5 2.518321 1_555
N11 Nd4 2.518321 1_554
N11 Nd0 2.589563 1_554
N11 Nd2 2.670394 1_544
N11 Nd1 2.670394 1_555
