# generated using pymatgen
data_ZrMoC2
_symmetry_space_group_name_H-M   'P 1'
_cell_length_a   5.56808878
_cell_length_b   5.56808878
_cell_length_c   5.56808910
_cell_angle_alpha   33.41444255
_cell_angle_beta   33.41444255
_cell_angle_gamma   33.41444148
_symmetry_Int_Tables_number   1
_chemical_formula_structural   ZrMoC2
_chemical_formula_sum   'Zr1 Mo1 C2'
_cell_volume   46.62037687
_cell_formula_units_Z   1
loop_
 _symmetry_equiv_pos_site_id
 _symmetry_equiv_pos_as_xyz
  1  'x, y, z'
loop_
 _atom_site_type_symbol
 _atom_site_label
 _atom_site_symmetry_multiplicity
 _atom_site_fract_x
 _atom_site_fract_y
 _atom_site_fract_z
 _atom_site_occupancy
  Zr  Zr0  1  0.50000000  0.50000000  0.50000000  1
  Mo  Mo0  1  0.00000000  0.00000000  0.00000000  1
  C  C0  1  0.74435900  0.74435900  0.74435900  1
  C  C1  1  0.25564100  0.25564100  0.25564100  1
loop_
_geom_bond_atom_site_label_1
_geom_bond_atom_site_label_2
_geom_bond_distance
_geom_bond_site_symmetry_2
C0 Mo0 2.216998 1_566
C0 Mo0 2.216998 1_656
C0 Mo0 2.216999 1_665
C0 Zr0 2.319901 1_565
C0 Zr0 2.319901 1_655
C0 Zr0 2.319901 1_556
C1 Mo0 2.216998 1_655
C1 Mo0 2.216998 1_565
C1 Mo0 2.216999 1_556
C1 Zr0 2.319901 1_545
C1 Zr0 2.319901 1_455
C1 Zr0 2.319901 1_554
