# generated using pymatgen
data_Tl2TeMo2(PO7)2
_symmetry_space_group_name_H-M   'P 1'
_cell_length_a   8.88534938
_cell_length_b   11.29831281
_cell_length_c   12.52804879
_cell_angle_alpha   90.00000000
_cell_angle_beta   90.00000000
_cell_angle_gamma   90.00000000
_symmetry_Int_Tables_number   1
_chemical_formula_structural   Tl2TeMo2(PO7)2
_chemical_formula_sum   'Tl8 Te4 Mo8 P8 O56'
_cell_volume   1257.68401181
_cell_formula_units_Z   4
loop_
 _symmetry_equiv_pos_site_id
 _symmetry_equiv_pos_as_xyz
  1  'x, y, z'
loop_
 _atom_site_type_symbol
 _atom_site_label
 _atom_site_symmetry_multiplicity
 _atom_site_fract_x
 _atom_site_fract_y
 _atom_site_fract_z
 _atom_site_occupancy
  Tl  Tl0  1  0.52399024  0.27730063  0.18695017  1
  Tl  Tl1  1  0.52399024  0.22269937  0.81304983  1
  Tl  Tl2  1  0.97600976  0.77730063  0.31304983  1
  Tl  Tl3  1  0.97600976  0.72269937  0.68695017  1
  Tl  Tl4  1  0.47600976  0.72269937  0.81304983  1
  Tl  Tl5  1  0.47600976  0.77730063  0.18695017  1
  Tl  Tl6  1  0.02399024  0.22269937  0.68695017  1
  Tl  Tl7  1  0.02399024  0.27730063  0.31304983  1
  Te  Te0  1  0.62796301  0.25000000  0.50000000  1
  Te  Te1  1  0.87203699  0.75000000  0.00000000  1
  Te  Te2  1  0.37203699  0.75000000  0.50000000  1
  Te  Te3  1  0.12796301  0.25000000  0.00000000  1
  Mo  Mo0  1  0.75604733  0.51956635  0.37803471  1
  Mo  Mo1  1  0.75604733  0.98043365  0.62196529  1
  Mo  Mo2  1  0.74395267  0.01956635  0.12196529  1
  Mo  Mo3  1  0.74395267  0.48043365  0.87803471  1
  Mo  Mo4  1  0.24395267  0.48043365  0.62196529  1
  Mo  Mo5  1  0.24395267  0.01956635  0.37803471  1
  Mo  Mo6  1  0.25604733  0.98043365  0.87803471  1
  Mo  Mo7  1  0.25604733  0.51956635  0.12196529  1
  P  P0  1  0.64144971  0.99594784  0.36907830  1
  P  P1  1  0.64144971  0.50405216  0.63092170  1
  P  P2  1  0.85855029  0.49594784  0.13092170  1
  P  P3  1  0.85855029  0.00405216  0.86907830  1
  P  P4  1  0.35855029  0.00405216  0.63092170  1
  P  P5  1  0.35855029  0.49594784  0.36907830  1
  P  P6  1  0.14144971  0.50405216  0.86907830  1
  P  P7  1  0.14144971  0.99594784  0.13092170  1
  O  O0  1  0.65082021  0.13194930  0.36978511  1
  O  O1  1  0.65082021  0.36805070  0.63021489  1
  O  O2  1  0.84917979  0.63194930  0.13021489  1
  O  O3  1  0.84917979  0.86805070  0.86978511  1
  O  O4  1  0.34917979  0.86805070  0.63021489  1
  O  O5  1  0.34917979  0.63194930  0.36978511  1
  O  O6  1  0.15082021  0.36805070  0.86978511  1
  O  O7  1  0.15082021  0.13194930  0.13021489  1
  O  O8  1  0.52010329  0.45184824  0.36536488  1
  O  O9  1  0.52010329  0.04815176  0.63463512  1
  O  O10  1  0.97989671  0.95184824  0.13463512  1
  O  O11  1  0.97989671  0.54815176  0.86536488  1
  O  O12  1  0.47989671  0.54815176  0.63463512  1
  O  O13  1  0.47989671  0.95184824  0.36536488  1
  O  O14  1  0.02010329  0.04815176  0.86536488  1
  O  O15  1  0.02010329  0.45184824  0.13463512  1
  O  O16  1  0.71737242  0.55542982  0.53097364  1
  O  O17  1  0.71737242  0.94457018  0.46902636  1
  O  O18  1  0.78262758  0.05542982  0.96902636  1
  O  O19  1  0.78262758  0.44457018  0.03097364  1
  O  O20  1  0.31039494  0.34543698  0.66262365  1
  O  O21  1  0.28262758  0.44457018  0.46902636  1
  O  O22  1  0.21737242  0.94457018  0.03097364  1
  O  O23  1  0.21737242  0.55542982  0.96902636  1
  O  O24  1  0.68960506  0.65456302  0.33737635  1
  O  O25  1  0.68960506  0.84543698  0.66262365  1
  O  O26  1  0.81039494  0.15456302  0.16262365  1
  O  O27  1  0.81039494  0.34543698  0.83737635  1
  O  O28  1  0.26797749  0.34395463  0.07192235  1
  O  O29  1  0.26797749  0.15604537  0.92807765  1
  O  O30  1  0.23202251  0.84395463  0.42807765  1
  O  O31  1  0.23202251  0.65604537  0.57192235  1
  O  O32  1  0.73202251  0.65604537  0.92807765  1
  O  O33  1  0.73202251  0.84395463  0.07192235  1
  O  O34  1  0.76797749  0.15604537  0.57192235  1
  O  O35  1  0.76797749  0.34395463  0.42807765  1
  O  O36  1  0.26986972  0.44986061  0.27161896  1
  O  O37  1  0.26986972  0.05013939  0.72838104  1
  O  O38  1  0.23013028  0.94986061  0.22838104  1
  O  O39  1  0.23013028  0.55013939  0.77161896  1
  O  O40  1  0.73013028  0.55013939  0.72838104  1
  O  O41  1  0.73013028  0.94986061  0.27161896  1
  O  O42  1  0.76986972  0.05013939  0.77161896  1
  O  O43  1  0.76986972  0.44986061  0.22838104  1
  O  O44  1  0.44543022  0.54172404  0.11856121  1
  O  O45  1  0.44543022  0.95827596  0.88143879  1
  O  O46  1  0.05456978  0.04172404  0.38143879  1
  O  O47  1  0.05456978  0.45827596  0.61856121  1
  O  O48  1  0.55456978  0.45827596  0.88143879  1
  O  O49  1  0.55456978  0.04172404  0.11856121  1
  O  O50  1  0.94543022  0.95827596  0.61856121  1
  O  O51  1  0.94543022  0.54172404  0.38143879  1
  O  O52  1  0.18960506  0.65456302  0.16262365  1
  O  O53  1  0.18960506  0.84543698  0.83737635  1
  O  O54  1  0.31039494  0.15456302  0.33737635  1
  O  O55  1  0.28262758  0.05542982  0.53097364  1
loop_
_geom_bond_atom_site_label_1
_geom_bond_atom_site_label_2
_geom_bond_distance
_geom_bond_site_symmetry_2
Mo0 O51 1.701788 1_555
Mo0 O24 1.712988 1_555
Mo0 O16 1.988323 1_555
Mo0 O43 2.037268 1_555
Mo0 O35 2.083509 1_555
Mo0 O8 2.237332 1_555
Mo1 O50 1.701788 1_555
Mo1 O25 1.712988 1_555
Mo1 O17 1.988323 1_555
Mo1 O42 2.037268 1_565
Mo1 O34 2.083509 1_565
Mo1 O9 2.237332 1_565
Mo2 O49 1.701788 1_555
Mo2 O26 1.712988 1_555
Mo2 O18 1.988323 1_554
Mo2 O41 2.037268 1_545
Mo2 O33 2.083509 1_545
Mo2 O10 2.237332 1_545
Mo3 O48 1.701788 1_555
Mo3 O27 1.712988 1_555
Mo3 O19 1.988323 1_556
Mo3 O40 2.037268 1_555
Mo3 O32 2.083509 1_555
Mo3 O11 2.237332 1_555
Mo4 O47 1.701788 1_555
Mo4 O20 1.712988 1_555
Mo4 O21 1.988323 1_555
Mo4 O39 2.037268 1_555
Mo4 O31 2.083509 1_555
Mo4 O12 2.237332 1_555
Mo5 O46 1.701788 1_555
Mo5 O54 1.712988 1_555
Mo5 O55 1.988323 1_555
Mo5 O38 2.037268 1_545
Mo5 O30 2.083509 1_545
Mo5 O13 2.237332 1_545
Mo6 O45 1.701788 1_555
Mo6 O53 1.712988 1_555
Mo6 O22 1.988323 1_556
Mo6 O37 2.037268 1_565
Mo6 O29 2.083509 1_565
Mo6 O14 2.237332 1_565
Mo7 O44 1.701788 1_555
Mo7 O52 1.712988 1_555
Mo7 O23 1.988323 1_554
Mo7 O36 2.037268 1_555
Mo7 O28 2.083509 1_555
Mo7 O15 2.237332 1_555
O0 P0 1.538867 1_545
O0 Te0 2.116947 1_555
O1 P1 1.538867 1_555
O1 Te0 2.116947 1_555
O2 P2 1.538867 1_555
O2 Te1 2.116947 1_555
O3 P3 1.538867 1_565
O3 Te1 2.116947 1_556
O4 P4 1.538867 1_565
O4 Te2 2.116947 1_555
O5 P5 1.538867 1_555
O5 Te2 2.116947 1_555
O6 P6 1.538867 1_555
O6 Te3 2.116947 1_556
O7 P7 1.538867 1_545
O7 Te3 2.116947 1_555
O8 P5 1.520181 1_555
O9 P4 1.520181 1_555
O10 P7 1.520181 1_655
O11 P6 1.520181 1_655
O12 P1 1.520181 1_555
O13 P0 1.520181 1_555
O14 P3 1.520181 1_455
O15 P2 1.520181 1_455
O16 P1 1.536207 1_555
O17 P0 1.536207 1_555
O18 P3 1.536207 1_555
O19 P2 1.536207 1_555
O21 P5 1.536207 1_555
O22 P7 1.536207 1_555
O23 P6 1.536207 1_555
O28 Te3 1.867206 1_555
O28 Tl0 2.796134 1_555
O29 Te3 1.867206 1_556
O29 Tl1 2.796134 1_555
O30 Te2 1.867206 1_555
O30 Tl2 2.796134 1_455
O31 Te2 1.867206 1_555
O31 Tl3 2.796134 1_455
O32 Te1 1.867206 1_556
O32 Tl4 2.796134 1_555
O33 Te1 1.867206 1_555
O33 Tl5 2.796134 1_555
O34 Te0 1.867206 1_555
O34 Tl6 2.796134 1_655
O35 Te0 1.867206 1_555
O35 Tl7 2.796134 1_655
O36 P5 1.543631 1_555
O37 P4 1.543631 1_555
O38 P7 1.543631 1_555
O39 P6 1.543631 1_555
O40 P1 1.543631 1_555
O41 P0 1.543631 1_555
O42 P3 1.543631 1_555
O43 P2 1.543631 1_555
O44 Tl5 2.809290 1_555
O45 Tl4 2.809290 1_555
O46 Tl7 2.809290 1_555
O47 Tl6 2.809290 1_555
O48 Tl1 2.809290 1_555
O49 Tl0 2.809290 1_555
O50 Tl3 2.809290 1_555
O51 Tl2 2.809290 1_555
O55 P4 1.536207 1_555
