# generated using pymatgen
data_Mg14GaNi
_symmetry_space_group_name_H-M   'P 1'
_cell_length_a   6.21456806
_cell_length_b   6.21456806
_cell_length_c   9.92621900
_cell_angle_alpha   90.00000000
_cell_angle_beta   90.00000000
_cell_angle_gamma   119.55618811
_symmetry_Int_Tables_number   1
_chemical_formula_structural   Mg14GaNi
_chemical_formula_sum   'Mg14 Ga1 Ni1'
_cell_volume   333.47346961
_cell_formula_units_Z   1
loop_
 _symmetry_equiv_pos_site_id
 _symmetry_equiv_pos_as_xyz
  1  'x, y, z'
loop_
 _atom_site_type_symbol
 _atom_site_label
 _atom_site_symmetry_multiplicity
 _atom_site_fract_x
 _atom_site_fract_y
 _atom_site_fract_z
 _atom_site_occupancy
  Mg  Mg0  1  0.83425300  0.16574700  0.00000000  1
  Mg  Mg1  1  0.33499600  0.66500400  0.00000000  1
  Mg  Mg2  1  0.33690800  0.16080900  0.50000000  1
  Mg  Mg3  1  0.33380300  0.16827100  0.00000000  1
  Mg  Mg4  1  0.83919100  0.66309200  0.50000000  1
  Mg  Mg5  1  0.83172900  0.66619700  0.00000000  1
  Mg  Mg6  1  0.15754200  0.33337300  0.26929200  1
  Mg  Mg7  1  0.15754200  0.33337300  0.73070800  1
  Mg  Mg8  1  0.66662700  0.84245800  0.26929200  1
  Mg  Mg9  1  0.66662700  0.84245800  0.73070800  1
  Mg  Mg10  1  0.67166500  0.32833500  0.26018500  1
  Mg  Mg11  1  0.67166500  0.32833500  0.73981500  1
  Mg  Mg12  1  0.16855000  0.83145000  0.25153900  1
  Mg  Mg13  1  0.16855000  0.83145000  0.74846100  1
  Ga  Ga0  1  0.32896700  0.67103300  0.50000000  1
  Ni  Ni0  1  0.83139200  0.16860800  0.50000000  1
loop_
_geom_bond_atom_site_label_1
_geom_bond_atom_site_label_2
_geom_bond_distance
_geom_bond_site_symmetry_2
Mg0 Mg3 3.096780 1_655
Mg0 Mg5 3.096780 1_545
Mg0 Mg11 3.117560 1_554
Mg0 Mg10 3.117560 1_555
Mg0 Mg5 3.117848 1_555
Mg0 Mg3 3.117848 1_555
Mg0 Mg1 3.128115 1_655
Mg0 Mg1 3.128115 1_545
Mg0 Mg8 3.194072 1_545
Mg0 Mg6 3.194072 1_655
Mg0 Mg9 3.194072 1_544
Mg0 Mg7 3.194072 1_654
Mg1 Mg12 3.070776 1_555
Mg1 Mg13 3.070776 1_554
Mg1 Mg3 3.083331 1_555
Mg1 Mg5 3.083331 1_555
Mg1 Mg5 3.131251 1_455
Mg1 Mg3 3.131251 1_565
Mg1 Mg6 3.219722 1_555
Mg1 Mg8 3.219722 1_555
Mg1 Mg7 3.219722 1_554
Mg1 Mg9 3.219722 1_554
Mg2 Mg7 2.969221 1_555
Mg2 Mg6 2.969221 1_555
Mg2 Ni0 3.049388 1_555
Mg2 Mg4 3.113822 1_445
Mg2 Mg4 3.142388 1_555
Mg2 Ni0 3.165752 1_455
Mg3 Mg5 3.115130 1_555
Mg3 Mg5 3.141080 1_445
Mg3 Mg6 3.241392 1_555
Mg3 Mg7 3.241392 1_554
Mg4 Mg9 2.969221 1_555
Mg4 Mg8 2.969221 1_555
Mg4 Ni0 3.049388 1_555
Mg4 Ni0 3.165752 1_565
Mg5 Mg8 3.241392 1_555
Mg5 Mg9 3.241392 1_554
Mg6 Ni0 2.890254 1_455
Mg6 Mg8 3.071267 1_445
Mg6 Mg8 3.184943 1_555
Mg7 Ni0 2.890254 1_455
Mg7 Mg9 3.071267 1_445
Mg7 Mg9 3.184943 1_555
Mg8 Ni0 2.890254 1_565
Mg9 Ni0 2.890254 1_565
Mg10 Ni0 2.934159 1_555
Mg10 Mg4 2.990259 1_555
Mg10 Mg2 2.990259 1_555
Mg10 Mg6 3.005555 1_655
Mg10 Mg8 3.005555 1_545
Mg10 Mg12 3.129461 1_545
Mg10 Mg12 3.129461 1_655
Mg10 Mg5 3.163490 1_555
Mg10 Mg3 3.163490 1_555
Mg10 Mg8 3.211884 1_555
Mg10 Mg6 3.211884 1_555
Mg11 Ni0 2.934159 1_555
Mg11 Mg4 2.990259 1_555
Mg11 Mg2 2.990259 1_555
Mg11 Mg7 3.005555 1_655
Mg11 Mg9 3.005555 1_545
Mg11 Mg13 3.129461 1_655
Mg11 Mg13 3.129461 1_545
Mg11 Mg5 3.163490 1_556
Mg11 Mg3 3.163490 1_556
Mg11 Mg9 3.211884 1_555
Mg11 Mg7 3.211884 1_555
Mg12 Mg2 3.042033 1_565
Mg12 Mg4 3.042033 1_455
Mg12 Mg6 3.067233 1_555
Mg12 Mg8 3.067233 1_555
Mg12 Mg3 3.090236 1_565
Mg12 Mg5 3.090236 1_455
Mg12 Mg8 3.158461 1_455
Mg12 Mg6 3.158461 1_565
Mg13 Mg2 3.042033 1_565
Mg13 Mg4 3.042033 1_455
Mg13 Mg7 3.067233 1_555
Mg13 Mg9 3.067233 1_555
Mg13 Mg3 3.090236 1_566
Mg13 Mg5 3.090236 1_456
Mg13 Mg9 3.158461 1_455
Mg13 Mg7 3.158461 1_565
Ga0 Mg9 2.928683 1_555
Ga0 Mg7 2.928683 1_555
Ga0 Mg8 2.928683 1_555
Ga0 Mg6 2.928683 1_555
Ga0 Mg13 3.008443 1_555
Ga0 Mg12 3.008443 1_555
Ga0 Mg2 3.019708 1_565
Ga0 Mg4 3.019708 1_455
Ga0 Ni0 3.128213 1_565
Ga0 Ni0 3.128213 1_455
Ga0 Mg4 3.195453 1_555
Ga0 Mg2 3.195453 1_555
