# generated using pymatgen
data_RbHfMg14O15
_symmetry_space_group_name_H-M   'P 1'
_cell_length_a   12.45126697
_cell_length_b   7.83537486
_cell_length_c   4.17277251
_cell_angle_alpha   90.00000000
_cell_angle_beta   90.00000000
_cell_angle_gamma   90.00000000
_symmetry_Int_Tables_number   1
_chemical_formula_structural   RbHfMg14O15
_chemical_formula_sum   'Rb1 Hf1 Mg14 O15'
_cell_volume   407.09712231
_cell_formula_units_Z   1
loop_
 _symmetry_equiv_pos_site_id
 _symmetry_equiv_pos_as_xyz
  1  'x, y, z'
loop_
 _atom_site_type_symbol
 _atom_site_label
 _atom_site_symmetry_multiplicity
 _atom_site_fract_x
 _atom_site_fract_y
 _atom_site_fract_z
 _atom_site_occupancy
  Rb  Rb0  1  0.06381992  0.00000000  0.00000000  1
  Hf  Hf0  1  0.03870049  0.50000000  0.00000000  1
  Mg  Mg0  1  0.53352710  0.00000000  0.00000000  1
  Mg  Mg1  1  0.54256838  0.50000000  0.00000000  1
  Mg  Mg2  1  0.92415068  0.24674019  0.50000000  1
  Mg  Mg3  1  0.92415068  0.75325981  0.50000000  1
  Mg  Mg4  1  0.48139111  0.26248037  0.50000000  1
  Mg  Mg5  1  0.48139111  0.73751963  0.50000000  1
  Mg  Mg6  1  0.32239440  0.00000000  0.50000000  1
  Mg  Mg7  1  0.23034994  0.50000000  0.50000000  1
  Mg  Mg8  1  0.75170329  0.00000000  0.50000000  1
  Mg  Mg9  1  0.70232536  0.50000000  0.50000000  1
  Mg  Mg10  1  0.31395227  0.26200255  0.00000000  1
  Mg  Mg11  1  0.31395227  0.73799745  -0.00000000  1
  Mg  Mg12  1  0.75990067  0.25790376  0.00000000  1
  Mg  Mg13  1  0.75990067  0.74209624  -0.00000000  1
  O  O0  1  0.21028981  0.50000000  0.00000000  1
  O  O1  1  0.70309213  0.00000000  0.00000000  1
  O  O2  1  0.70268848  0.50000000  0.00000000  1
  O  O3  1  0.31516122  0.27605257  0.50000000  1
  O  O4  1  0.31516122  0.72394743  0.50000000  1
  O  O5  1  0.76201918  0.26145856  0.50000000  1
  O  O6  1  0.76201918  0.73854144  0.50000000  1
  O  O7  1  0.91984444  0.00000000  0.50000000  1
  O  O8  1  0.04789920  0.50000000  0.50000000  1
  O  O9  1  0.49592429  0.00000000  0.50000000  1
  O  O10  1  0.54178540  0.50000000  0.50000000  1
  O  O11  1  0.93285393  0.30786721  0.00000000  1
  O  O12  1  0.93285393  0.69213279  -0.00000000  1
  O  O13  1  0.48211464  0.25991525  0.00000000  1
  O  O14  1  0.48211464  0.74008475  -0.00000000  1
loop_
_geom_bond_atom_site_label_1
_geom_bond_atom_site_label_2
_geom_bond_distance
_geom_bond_site_symmetry_2
Hf0 O11 2.000812 1_455
Hf0 O12 2.000812 1_455
Hf0 O8 2.089528 1_555
Hf0 O8 2.089528 1_554
Hf0 O0 2.136504 1_555
Mg0 O1 2.111299 1_555
Mg0 O13 2.134774 1_555
Mg0 O14 2.134774 1_545
Mg0 O9 2.138275 1_554
Mg0 O9 2.138275 1_555
Mg1 O2 1.993698 1_555
Mg1 O14 2.026163 1_555
Mg1 O13 2.026163 1_555
Mg1 O10 2.086409 1_555
Mg1 O10 2.086409 1_554
Mg2 O7 1.934045 1_555
Mg2 O5 2.022034 1_555
Mg2 O11 2.143396 1_555
Mg2 O11 2.143396 1_556
Mg2 O8 2.512356 1_655
Mg3 O7 1.934045 1_565
Mg3 O6 2.022034 1_555
Mg3 O12 2.143396 1_555
Mg3 O12 2.143396 1_556
Mg3 O8 2.512356 1_655
Mg4 O10 2.007239 1_555
Mg4 O9 2.064578 1_555
Mg4 O3 2.072503 1_555
Mg4 O13 2.086503 1_555
Mg4 O13 2.086503 1_556
Mg5 O10 2.007239 1_555
Mg5 O9 2.064578 1_565
Mg5 O4 2.072503 1_555
Mg5 O14 2.086503 1_556
Mg5 O14 2.086503 1_555
Mg6 O9 2.160667 1_555
Mg6 O3 2.164850 1_555
Mg6 O4 2.164850 1_545
Mg7 O4 2.047967 1_555
Mg7 O3 2.047967 1_555
Mg7 O0 2.101284 1_555
Mg7 O0 2.101284 1_556
Mg7 O8 2.271743 1_555
Mg8 O6 2.052649 1_545
Mg8 O5 2.052649 1_555
Mg8 O7 2.093570 1_555
Mg8 O1 2.172409 1_556
Mg8 O1 2.172409 1_555
Mg9 O10 1.998926 1_555
Mg9 O5 2.011425 1_555
Mg9 O6 2.011425 1_555
Mg9 O2 2.086391 1_556
Mg9 O2 2.086391 1_555
Mg10 O3 2.089343 1_555
Mg10 O3 2.089343 1_554
Mg10 O13 2.093898 1_555
Mg10 O0 2.267919 1_555
Mg11 O4 2.089343 1_555
Mg11 O4 2.089343 1_554
Mg11 O14 2.093898 1_555
Mg11 O0 2.267919 1_555
Mg12 O2 2.026265 1_555
Mg12 O5 2.086739 1_554
Mg12 O5 2.086739 1_555
Mg12 O1 2.140993 1_555
Mg12 O11 2.188782 1_555
Mg13 O2 2.026265 1_555
Mg13 O6 2.086739 1_554
Mg13 O6 2.086739 1_555
Mg13 O1 2.140993 1_565
Mg13 O12 2.188782 1_555
O7 Rb0 2.750763 1_656
O7 Rb0 2.750763 1_655
O11 Rb0 2.911723 1_655
O12 Rb0 2.911723 1_665
