# generated using pymatgen
data_CoS
_symmetry_space_group_name_H-M   'P 1'
_cell_length_a   3.62337525
_cell_length_b   3.62337525
_cell_length_c   5.01288594
_cell_angle_alpha   90.00000000
_cell_angle_beta   90.00000000
_cell_angle_gamma   90.00000000
_symmetry_Int_Tables_number   1
_chemical_formula_structural   CoS
_chemical_formula_sum   'Co2 S2'
_cell_volume   65.81341856
_cell_formula_units_Z   2
loop_
 _symmetry_equiv_pos_site_id
 _symmetry_equiv_pos_as_xyz
  1  'x, y, z'
loop_
 _atom_site_type_symbol
 _atom_site_label
 _atom_site_symmetry_multiplicity
 _atom_site_fract_x
 _atom_site_fract_y
 _atom_site_fract_z
 _atom_site_occupancy
  Co  Co0  1  0.00000000  0.00000000  -0.00000000  1
  Co  Co1  1  0.50000000  0.50000000  -0.00000000  1
  S  S0  1  0.50000000  0.00000000  0.76509490  1
  S  S1  1  0.00000000  0.50000000  0.23490510  1
loop_
_geom_bond_atom_site_label_1
_geom_bond_atom_site_label_2
_geom_bond_distance
_geom_bond_site_symmetry_2
Co0 S1 2.160750 1_555
Co0 S1 2.160750 1_545
Co0 S0 2.160750 1_554
Co0 S0 2.160750 1_454
Co1 S1 2.160750 1_555
Co1 S1 2.160750 1_655
Co1 S0 2.160750 1_554
Co1 S0 2.160750 1_564
