# generated using pymatgen
data_CaNb2O6
_symmetry_space_group_name_H-M   'P 1'
_cell_length_a   5.25749612
_cell_length_b   5.81967314
_cell_length_c   15.08149093
_cell_angle_alpha   90.00000000
_cell_angle_beta   90.00000000
_cell_angle_gamma   90.00000000
_symmetry_Int_Tables_number   1
_chemical_formula_structural   CaNb2O6
_chemical_formula_sum   'Ca4 Nb8 O24'
_cell_volume   461.44700486
_cell_formula_units_Z   4
loop_
 _symmetry_equiv_pos_site_id
 _symmetry_equiv_pos_as_xyz
  1  'x, y, z'
loop_
 _atom_site_type_symbol
 _atom_site_label
 _atom_site_symmetry_multiplicity
 _atom_site_fract_x
 _atom_site_fract_y
 _atom_site_fract_z
 _atom_site_occupancy
  Ca  Ca0  1  0.25000000  0.77887292  0.00000000  1
  Ca  Ca1  1  0.75000000  0.72112708  0.50000000  1
  Ca  Ca2  1  0.75000000  0.22112708  0.00000000  1
  Ca  Ca3  1  0.25000000  0.27887292  0.50000000  1
  Nb  Nb0  1  0.29936817  0.81357059  0.66491437  1
  Nb  Nb1  1  0.79936817  0.68642941  0.83508563  1
  Nb  Nb2  1  0.20063183  0.81357059  0.33508563  1
  Nb  Nb3  1  0.70063183  0.68642941  0.16491437  1
  Nb  Nb4  1  0.29936817  0.31357059  0.83508563  1
  Nb  Nb5  1  0.79936817  0.18642941  0.66491437  1
  Nb  Nb6  1  0.20063183  0.31357059  0.16491437  1
  Nb  Nb7  1  0.70063183  0.18642941  0.33508563  1
  O  O0  1  0.87545359  0.36176143  0.24245620  1
  O  O1  1  0.37545359  0.13823857  0.25754380  1
  O  O2  1  0.62454641  0.36176143  0.75754380  1
  O  O3  1  0.12454641  0.13823857  0.74245620  1
  O  O4  1  0.12454641  0.63823857  0.75754380  1
  O  O5  1  0.62454641  0.86176143  0.74245620  1
  O  O6  1  0.37545359  0.63823857  0.24245620  1
  O  O7  1  0.87545359  0.86176143  0.25754380  1
  O  O8  1  -0.00762574  0.06990083  0.40109300  1
  O  O9  1  0.49237426  0.43009917  0.09890700  1
  O  O10  1  0.50762574  0.06990083  0.59890700  1
  O  O11  1  0.00762574  0.43009917  0.90109300  1
  O  O12  1  0.59417982  0.90388243  0.08783971  1
  O  O13  1  0.09417982  0.59611757  0.41216029  1
  O  O14  1  0.90582018  0.90388243  0.91216029  1
  O  O15  1  0.40582018  0.59611757  0.58783971  1
  O  O16  1  0.40582018  0.09611757  0.91216029  1
  O  O17  1  0.90582018  0.40388243  0.58783971  1
  O  O18  1  0.09417982  0.09611757  0.08783971  1
  O  O19  1  0.59417982  0.40388243  0.41216029  1
  O  O20  1  -0.00762574  0.56990083  0.09890700  1
  O  O21  1  0.49237426  0.93009917  0.40109300  1
  O  O22  1  0.50762574  0.56990083  0.90109300  1
  O  O23  1  0.00762574  0.93009917  0.59890700  1
loop_
_geom_bond_atom_site_label_1
_geom_bond_atom_site_label_2
_geom_bond_distance
_geom_bond_site_symmetry_2
Ca0 O22 2.353436 1_554
Ca0 O20 2.353436 1_555
Ca0 O14 2.357674 1_454
Ca0 O12 2.357674 1_555
Ca0 O16 2.415528 1_564
Ca0 O18 2.415528 1_565
Ca0 O9 2.822896 1_555
Ca0 O11 2.822896 1_554
Ca1 O23 2.353436 1_655
Ca1 O21 2.353436 1_555
Ca1 O13 2.357674 1_655
Ca1 O15 2.357674 1_555
Ca1 O17 2.415528 1_555
Ca1 O19 2.415528 1_555
Ca1 O10 2.822896 1_565
Ca1 O8 2.822896 1_665
Ca2 O11 2.353436 1_654
Ca2 O9 2.353436 1_555
Ca2 O18 2.357674 1_655
Ca2 O16 2.357674 1_554
Ca2 O12 2.415528 1_545
Ca2 O14 2.415528 1_544
Ca2 O22 2.822896 1_554
Ca2 O20 2.822896 1_655
Ca3 O10 2.353436 1_555
Ca3 O8 2.353436 1_555
Ca3 O19 2.357674 1_555
Ca3 O17 2.357674 1_455
Ca3 O15 2.415528 1_555
Ca3 O13 2.415528 1_555
Ca3 O23 2.822896 1_545
Ca3 O21 2.822896 1_545
Nb0 O15 1.807183 1_555
Nb0 O23 1.950268 1_555
Nb0 O4 1.958963 1_555
Nb0 O5 2.090232 1_555
Nb0 O10 2.101232 1_565
Nb0 O3 2.404675 1_565
Nb1 O14 1.807183 1_555
Nb1 O22 1.950268 1_555
Nb1 O5 1.958963 1_555
Nb1 O4 2.090232 1_655
Nb1 O11 2.101232 1_655
Nb1 O2 2.404675 1_555
Nb2 O13 1.807183 1_555
Nb2 O21 1.950268 1_555
Nb2 O6 1.958963 1_555
Nb2 O7 2.090232 1_455
Nb2 O8 2.101232 1_565
Nb2 O1 2.404675 1_565
Nb3 O12 1.807183 1_555
Nb3 O20 1.950268 1_655
Nb3 O7 1.958963 1_555
Nb3 O6 2.090232 1_555
Nb3 O9 2.101232 1_555
Nb3 O0 2.404675 1_555
Nb4 O16 1.807183 1_555
Nb4 O11 1.950268 1_555
Nb4 O3 1.958963 1_555
Nb4 O2 2.090232 1_555
Nb4 O22 2.101232 1_555
Nb4 O4 2.404675 1_555
Nb5 O17 1.807183 1_555
Nb5 O10 1.950268 1_555
Nb5 O2 1.958963 1_555
Nb5 O3 2.090232 1_655
Nb5 O23 2.101232 1_645
Nb5 O5 2.404675 1_545
Nb6 O18 1.807183 1_555
Nb6 O9 1.950268 1_555
Nb6 O1 1.958963 1_555
Nb6 O0 2.090232 1_455
Nb6 O20 2.101232 1_555
Nb6 O6 2.404675 1_555
Nb7 O19 1.807183 1_555
Nb7 O8 1.950268 1_655
Nb7 O0 1.958963 1_555
Nb7 O1 2.090232 1_555
Nb7 O21 2.101232 1_545
Nb7 O7 2.404675 1_545
