# generated using pymatgen
data_Ba3(TiN2)2
_symmetry_space_group_name_H-M   'P 1'
_cell_length_a   6.38170625
_cell_length_b   10.64392585
_cell_length_c   10.38243401
_cell_angle_alpha   90.00000000
_cell_angle_beta   90.00000000
_cell_angle_gamma   90.00000000
_symmetry_Int_Tables_number   1
_chemical_formula_structural   Ba3(TiN2)2
_chemical_formula_sum   'Ba12 Ti8 N16'
_cell_volume   705.24144986
_cell_formula_units_Z   4
loop_
 _symmetry_equiv_pos_site_id
 _symmetry_equiv_pos_as_xyz
  1  'x, y, z'
loop_
 _atom_site_type_symbol
 _atom_site_label
 _atom_site_symmetry_multiplicity
 _atom_site_fract_x
 _atom_site_fract_y
 _atom_site_fract_z
 _atom_site_occupancy
  Ba  Ba0  1  0.61820995  0.15892333  0.41995358  1
  Ba  Ba1  1  0.88179005  0.84107667  0.41995358  1
  Ba  Ba2  1  0.61820995  0.34107667  0.08004642  1
  Ba  Ba3  1  0.88179005  0.65892333  0.08004642  1
  Ba  Ba4  1  0.38179005  0.84107667  0.58004642  1
  Ba  Ba5  1  0.11820995  0.15892333  0.58004642  1
  Ba  Ba6  1  0.38179005  0.65892333  0.91995358  1
  Ba  Ba7  1  0.11820995  0.34107667  0.91995358  1
  Ba  Ba8  1  0.75000000  0.50000000  0.40055838  1
  Ba  Ba9  1  0.75000000  0.00000000  0.09944162  1
  Ba  Ba10  1  0.25000000  0.50000000  0.59944162  1
  Ba  Ba11  1  0.25000000  0.00000000  0.90055838  1
  Ti  Ti0  1  0.75000000  0.50000000  0.73403200  1
  Ti  Ti1  1  0.75000000  0.00000000  0.76596800  1
  Ti  Ti2  1  0.25000000  0.50000000  0.26596800  1
  Ti  Ti3  1  0.25000000  0.00000000  0.23403200  1
  Ti  Ti4  1  0.64657251  0.25000000  0.75000000  1
  Ti  Ti5  1  0.85342749  0.75000000  0.75000000  1
  Ti  Ti6  1  0.35342749  0.75000000  0.25000000  1
  Ti  Ti7  1  0.14657251  0.25000000  0.25000000  1
  N  N0  1  0.83456409  0.35078031  0.63736545  1
  N  N1  1  0.66543591  0.64921969  0.63736545  1
  N  N2  1  0.83456409  0.14921969  0.86263455  1
  N  N3  1  0.66543591  0.85078031  0.86263455  1
  N  N4  1  0.16543591  0.64921969  0.36263455  1
  N  N5  1  0.33456409  0.35078031  0.36263455  1
  N  N6  1  0.16543591  0.85078031  0.13736545  1
  N  N7  1  0.33456409  0.14921969  0.13736545  1
  N  N8  1  0.52609972  0.41147947  0.82752406  1
  N  N9  1  0.97390028  0.58852053  0.82752406  1
  N  N10  1  0.52609972  0.08852053  0.67247594  1
  N  N11  1  0.97390028  0.91147947  0.67247594  1
  N  N12  1  0.47390028  0.58852053  0.17247594  1
  N  N13  1  0.02609972  0.41147947  0.17247594  1
  N  N14  1  0.47390028  0.91147947  0.32752406  1
  N  N15  1  0.02609972  0.08852053  0.32752406  1
loop_
_geom_bond_atom_site_label_1
_geom_bond_atom_site_label_2
_geom_bond_distance
_geom_bond_site_symmetry_2
Ba0 N10 2.789426 1_555
Ba0 N5 2.793027 1_555
Ba0 N15 2.873715 1_655
Ba0 N14 2.950562 1_545
Ba1 N11 2.789426 1_555
Ba1 N4 2.793027 1_655
Ba1 N14 2.873715 1_555
Ba1 N15 2.950562 1_665
Ba2 N8 2.789426 1_554
Ba2 N7 2.793027 1_555
Ba2 N13 2.873715 1_655
Ba2 N12 2.950562 1_555
Ba3 N9 2.789426 1_554
Ba3 N6 2.793027 1_655
Ba3 N12 2.873715 1_555
Ba3 N13 2.950562 1_655
Ba4 N14 2.789426 1_555
Ba4 N1 2.793027 1_555
Ba4 N11 2.873715 1_455
Ba4 N10 2.950562 1_565
Ba5 N15 2.789426 1_555
Ba5 N0 2.793027 1_455
Ba5 N10 2.873715 1_555
Ba5 N11 2.950562 1_445
Ba6 N12 2.789426 1_556
Ba6 N3 2.793027 1_555
Ba6 N9 2.873715 1_455
Ba6 N8 2.950562 1_555
Ba7 N13 2.789426 1_556
Ba7 N2 2.793027 1_455
Ba7 N8 2.873715 1_555
Ba7 N9 2.950562 1_455
Ba8 N1 2.976367 1_555
Ba8 N0 2.976367 1_555
Ba8 N12 3.098389 1_555
Ba8 N13 3.098389 1_655
Ba8 N5 3.115523 1_555
Ba8 N4 3.115523 1_655
Ba9 N2 2.976367 1_554
Ba9 N3 2.976367 1_544
Ba9 N15 3.098389 1_655
Ba9 N14 3.098389 1_545
Ba9 N7 3.115523 1_555
Ba9 N6 3.115523 1_645
Ba10 N5 2.976367 1_555
Ba10 N4 2.976367 1_555
Ba10 N8 3.098389 1_555
Ba10 N9 3.098389 1_455
Ba10 N0 3.115523 1_455
Ba10 N1 3.115523 1_555
Ba11 N6 2.976367 1_546
Ba11 N7 2.976367 1_556
Ba11 N10 3.098389 1_555
Ba11 N11 3.098389 1_445
Ba11 N2 3.115523 1_455
Ba11 N3 3.115523 1_545
N0 Ti0 1.954779 1_555
N0 Ti4 1.989352 1_555
N1 Ti0 1.954779 1_555
N1 Ti5 1.989352 1_555
N2 Ti1 1.954779 1_555
N2 Ti4 1.989352 1_555
N3 Ti1 1.954779 1_565
N3 Ti5 1.989352 1_555
N4 Ti2 1.954779 1_555
N4 Ti6 1.989352 1_555
N5 Ti2 1.954779 1_555
N5 Ti7 1.989352 1_555
N6 Ti3 1.954779 1_565
N6 Ti6 1.989352 1_555
N7 Ti3 1.954779 1_555
N7 Ti7 1.989352 1_555
N8 Ti0 1.967643 1_555
N8 Ti4 2.047711 1_555
N9 Ti0 1.967643 1_555
N9 Ti5 2.047711 1_555
N10 Ti1 1.967643 1_555
N10 Ti4 2.047711 1_555
N11 Ti1 1.967643 1_565
N11 Ti5 2.047711 1_555
N12 Ti2 1.967643 1_555
N12 Ti6 2.047711 1_555
N13 Ti2 1.967643 1_555
N13 Ti7 2.047711 1_555
N14 Ti3 1.967643 1_565
N14 Ti6 2.047711 1_555
N15 Ti3 1.967643 1_555
N15 Ti7 2.047711 1_555
