# generated using pymatgen
data_AlBr3N
_symmetry_space_group_name_H-M   'P 1'
_cell_length_a   12.08136000
_cell_length_b   12.80921900
_cell_length_c   19.26971300
_cell_angle_alpha   90.00000000
_cell_angle_beta   90.00000000
_cell_angle_gamma   90.00000000
_symmetry_Int_Tables_number   1
_chemical_formula_structural   AlBr3N
_chemical_formula_sum   'Al16 Br48 N16'
_cell_volume   2982.04177328
_cell_formula_units_Z   16
loop_
 _symmetry_equiv_pos_site_id
 _symmetry_equiv_pos_as_xyz
  1  'x, y, z'
loop_
 _atom_site_type_symbol
 _atom_site_label
 _atom_site_symmetry_multiplicity
 _atom_site_fract_x
 _atom_site_fract_y
 _atom_site_fract_z
 _atom_site_occupancy
  Al  Al0  1  0.69764400  0.46238400  0.29092500  1
  Al  Al1  1  0.19764400  0.03761600  0.70907500  1
  Al  Al2  1  0.30235600  0.96238400  0.20907500  1
  Al  Al3  1  0.80235600  0.53761600  0.79092500  1
  Al  Al4  1  0.30235600  0.53761600  0.70907500  1
  Al  Al5  1  0.80235600  0.96238400  0.29092500  1
  Al  Al6  1  0.69764400  0.03761600  0.79092500  1
  Al  Al7  1  0.19764400  0.46238400  0.20907500  1
  Al  Al8  1  0.71578400  0.24465400  0.03463400  1
  Al  Al9  1  0.21578400  0.25534600  0.96536600  1
  Al  Al10  1  0.28421600  0.74465400  0.46536600  1
  Al  Al11  1  0.78421600  0.75534600  0.53463400  1
  Al  Al12  1  0.28421600  0.75534600  0.96536600  1
  Al  Al13  1  0.78421600  0.74465400  0.03463400  1
  Al  Al14  1  0.71578400  0.25534600  0.53463400  1
  Al  Al15  1  0.21578400  0.24465400  0.46536600  1
  Br  Br0  1  0.63950200  0.29401200  0.27529700  1
  Br  Br1  1  0.13950200  0.20598800  0.72470300  1
  Br  Br2  1  0.36049800  0.79401200  0.22470300  1
  Br  Br3  1  0.86049800  0.70598800  0.77529700  1
  Br  Br4  1  0.36049800  0.70598800  0.72470300  1
  Br  Br5  1  0.86049800  0.79401200  0.27529700  1
  Br  Br6  1  0.63950200  0.20598800  0.77529700  1
  Br  Br7  1  0.13950200  0.29401200  0.22470300  1
  Br  Br8  1  0.85832400  0.48785700  0.34941000  1
  Br  Br9  1  0.35832400  0.01214300  0.65059000  1
  Br  Br10  1  0.14167600  0.98785700  0.15059000  1
  Br  Br11  1  0.64167600  0.51214300  0.84941000  1
  Br  Br12  1  0.14167600  0.51214300  0.65059000  1
  Br  Br13  1  0.64167600  0.98785700  0.34941000  1
  Br  Br14  1  0.85832400  0.01214300  0.84941000  1
  Br  Br15  1  0.35832400  0.48785700  0.15059000  1
  Br  Br16  1  0.93440600  0.08909600  0.30351100  1
  Br  Br17  1  0.43440600  0.41090400  0.69648900  1
  Br  Br18  1  0.06559400  0.58909600  0.19648900  1
  Br  Br19  1  0.56559400  0.91090400  0.80351100  1
  Br  Br20  1  0.06559400  0.91090400  0.69648900  1
  Br  Br21  1  0.56559400  0.58909600  0.30351100  1
  Br  Br22  1  0.93440600  0.41090400  0.80351100  1
  Br  Br23  1  0.43440600  0.08909600  0.19648900  1
  Br  Br24  1  0.86501700  0.23848700  0.10600900  1
  Br  Br25  1  0.36501700  0.26151300  0.89399100  1
  Br  Br26  1  0.13498300  0.73848700  0.39399100  1
  Br  Br27  1  0.63498300  0.76151300  0.60600900  1
  Br  Br28  1  0.13498300  0.76151300  0.89399100  1
  Br  Br29  1  0.63498300  0.73848700  0.10600900  1
  Br  Br30  1  0.86501700  0.26151300  0.60600900  1
  Br  Br31  1  0.36501700  0.23848700  0.39399100  1
  Br  Br32  1  0.60289900  0.38774200  0.04216300  1
  Br  Br33  1  0.10289900  0.11225800  0.95783700  1
  Br  Br34  1  0.39710100  0.88774200  0.45783700  1
  Br  Br35  1  0.89710100  0.61225800  0.54216300  1
  Br  Br36  1  0.39710100  0.61225800  0.95783700  1
  Br  Br37  1  0.89710100  0.88774200  0.04216300  1
  Br  Br38  1  0.60289900  0.11225800  0.54216300  1
  Br  Br39  1  0.10289900  0.38774200  0.45783700  1
  Br  Br40  1  0.63138300  0.08917300  0.00875900  1
  Br  Br41  1  0.13138300  0.41082700  0.99124100  1
  Br  Br42  1  0.36861700  0.58917300  0.49124100  1
  Br  Br43  1  0.86861700  0.91082700  0.50875900  1
  Br  Br44  1  0.36861700  0.91082700  0.99124100  1
  Br  Br45  1  0.86861700  0.58917300  0.00875900  1
  Br  Br46  1  0.63138300  0.41082700  0.50875900  1
  Br  Br47  1  0.13138300  0.08917300  0.49124100  1
  N  N0  1  0.75619900  0.49669300  0.19548300  1
  N  N1  1  0.25619900  0.00330700  0.80451700  1
  N  N2  1  0.24380100  0.99669300  0.30451700  1
  N  N3  1  0.74380100  0.50330700  0.69548300  1
  N  N4  1  0.24380100  0.50330700  0.80451700  1
  N  N5  1  0.74380100  0.99669300  0.19548300  1
  N  N6  1  0.75619900  0.00330700  0.69548300  1
  N  N7  1  0.25619900  0.49669300  0.30451700  1
  N  N8  1  0.79966800  0.22237200  0.44642900  1
  N  N9  1  0.29966800  0.27762800  0.55357100  1
  N  N10  1  0.20033200  0.72237200  0.05357100  1
  N  N11  1  0.70033200  0.77762800  0.94642900  1
  N  N12  1  0.20033200  0.77762800  0.55357100  1
  N  N13  1  0.70033200  0.72237200  0.44642900  1
  N  N14  1  0.79966800  0.27762800  0.94642900  1
  N  N15  1  0.29966800  0.22237200  0.05357100  1
loop_
_geom_bond_atom_site_label_1
_geom_bond_atom_site_label_2
_geom_bond_distance
_geom_bond_site_symmetry_2
Al0 N0 2.018915 1_555
Al0 Br8 2.268249 1_555
Al0 Br0 2.288125 1_555
Al0 Br21 2.288741 1_555
Al1 N1 2.018915 1_555
Al1 Br9 2.268249 1_555
Al1 Br1 2.288125 1_555
Al1 Br20 2.288741 1_545
Al2 N2 2.018915 1_555
Al2 Br10 2.268249 1_555
Al2 Br2 2.288125 1_555
Al2 Br23 2.288741 1_565
Al3 N3 2.018915 1_555
Al3 Br11 2.268249 1_555
Al3 Br3 2.288125 1_555
Al3 Br22 2.288741 1_555
Al4 N4 2.018915 1_555
Al4 Br12 2.268249 1_555
Al4 Br4 2.288125 1_555
Al4 Br17 2.288741 1_555
Al5 N5 2.018915 1_555
Al5 Br13 2.268249 1_555
Al5 Br5 2.288125 1_555
Al5 Br16 2.288741 1_565
Al6 N6 2.018915 1_555
Al6 Br14 2.268249 1_555
Al6 Br6 2.288125 1_555
Al6 Br19 2.288741 1_545
Al7 N7 2.018915 1_555
Al7 Br15 2.268249 1_555
Al7 Br7 2.288125 1_555
Al7 Br18 2.288741 1_555
Al8 N14 2.023456 1_554
Al8 Br24 2.269027 1_555
Al8 Br32 2.289178 1_555
Al8 Br40 2.292331 1_555
Al9 N15 2.023456 1_556
Al9 Br25 2.269027 1_555
Al9 Br33 2.289178 1_555
Al9 Br41 2.292331 1_555
Al10 N12 2.023456 1_555
Al10 Br26 2.269027 1_555
Al10 Br34 2.289178 1_555
Al10 Br42 2.292331 1_555
Al11 N13 2.023456 1_555
Al11 Br27 2.269027 1_555
Al11 Br35 2.289178 1_555
Al11 Br43 2.292331 1_555
Al12 N10 2.023456 1_556
Al12 Br28 2.269027 1_555
Al12 Br36 2.289178 1_555
Al12 Br44 2.292331 1_555
Al13 N11 2.023456 1_554
Al13 Br29 2.269027 1_555
Al13 Br37 2.289178 1_555
Al13 Br45 2.292331 1_555
Al14 N8 2.023456 1_555
Al14 Br30 2.269027 1_555
Al14 Br38 2.289178 1_555
Al14 Br46 2.292331 1_555
Al15 N9 2.023456 1_555
Al15 Br31 2.269027 1_555
Al15 Br39 2.289178 1_555
Al15 Br47 2.292331 1_555
