# generated using pymatgen
data_MnIn3
_symmetry_space_group_name_H-M   'P 1'
_cell_length_a   5.64997638
_cell_length_b   5.64997638
_cell_length_c   5.64997638
_cell_angle_alpha   134.83353315
_cell_angle_beta   134.83353315
_cell_angle_gamma   65.78896169
_symmetry_Int_Tables_number   1
_chemical_formula_structural   MnIn3
_chemical_formula_sum   'Mn1 In3'
_cell_volume   89.33650911
_cell_formula_units_Z   1
loop_
 _symmetry_equiv_pos_site_id
 _symmetry_equiv_pos_as_xyz
  1  'x, y, z'
loop_
 _atom_site_type_symbol
 _atom_site_label
 _atom_site_symmetry_multiplicity
 _atom_site_fract_x
 _atom_site_fract_y
 _atom_site_fract_z
 _atom_site_occupancy
  Mn  Mn0  1  0.00000000  0.00000000  0.00000000  1
  In  In0  1  0.75000000  0.25000000  0.50000000  1
  In  In1  1  0.25000000  0.75000000  0.50000000  1
  In  In2  1  0.50000000  0.50000000  0.00000000  1
loop_
_geom_bond_atom_site_label_1
_geom_bond_atom_site_label_2
_geom_bond_distance
_geom_bond_site_symmetry_2
In0 In1 3.068466 1_645
In0 In1 3.068466 1_544
In0 In1 3.068466 1_555
In0 In1 3.068466 1_656
In0 In2 3.214721 1_555
In0 In2 3.214721 1_545
In0 In2 3.214721 1_556
In0 Mn0 3.214721 1_666
In0 Mn0 3.214721 1_655
In0 Mn0 3.214721 1_656
In0 Mn0 3.214721 1_555
In0 In2 3.214721 1_656
In1 In2 3.214721 1_555
In1 In2 3.214721 1_556
In1 In2 3.214721 1_566
In1 Mn0 3.214721 1_565
In1 Mn0 3.214721 1_566
In1 Mn0 3.214721 1_666
In1 Mn0 3.214721 1_555
In1 In2 3.214721 1_455
In2 Mn0 3.068466 1_565
In2 Mn0 3.068466 1_655
In2 Mn0 3.068466 1_666
In2 Mn0 3.068466 1_554
