# generated using pymatgen
data_ErHSO5
_symmetry_space_group_name_H-M   'P 1'
_cell_length_a   7.99086741
_cell_length_b   8.15207417
_cell_length_c   10.94528500
_cell_angle_alpha   90.00000000
_cell_angle_beta   90.00000000
_cell_angle_gamma   94.15443410
_symmetry_Int_Tables_number   1
_chemical_formula_structural   ErHSO5
_chemical_formula_sum   'Er8 H8 S8 O40'
_cell_volume   711.12585647
_cell_formula_units_Z   8
loop_
 _symmetry_equiv_pos_site_id
 _symmetry_equiv_pos_as_xyz
  1  'x, y, z'
loop_
 _atom_site_type_symbol
 _atom_site_label
 _atom_site_symmetry_multiplicity
 _atom_site_fract_x
 _atom_site_fract_y
 _atom_site_fract_z
 _atom_site_occupancy
  Er  Er0  1  0.68833700  0.90889400  0.92630500  1
  Er  Er1  1  0.18833700  0.40889400  0.57369500  1
  Er  Er2  1  0.31166300  0.09110600  0.07369500  1
  Er  Er3  1  0.81166300  0.59110600  0.42630500  1
  Er  Er4  1  0.66057300  0.37430800  0.93799000  1
  Er  Er5  1  0.16057300  0.87430800  0.56201000  1
  Er  Er6  1  0.33942700  0.62569200  0.06201000  1
  Er  Er7  1  0.83942700  0.12569200  0.43799000  1
  H  H0  1  0.65887900  0.13117600  0.12270300  1
  H  H1  1  0.15887900  0.63117600  0.37729700  1
  H  H2  1  0.34112100  0.86882400  0.87729700  1
  H  H3  1  0.84112100  0.36882400  0.62270300  1
  H  H4  1  0.31279100  0.35379100  0.90819700  1
  H  H5  1  0.81279100  0.85379100  0.59180300  1
  H  H6  1  0.68720900  0.64620900  0.09180300  1
  H  H7  1  0.18720900  0.14620900  0.40819700  1
  S  S0  1  0.00028700  0.63545100  0.82977300  1
  S  S1  1  0.50028700  0.13545100  0.67022700  1
  S  S2  1  0.99971300  0.36454900  0.17022700  1
  S  S3  1  0.49971300  0.86454900  0.32977300  1
  S  S4  1  0.04361900  0.13368600  0.80932400  1
  S  S5  1  0.54361900  0.63368600  0.69067600  1
  S  S6  1  0.95638100  0.86631400  0.19067600  1
  S  S7  1  0.45638100  0.36631400  0.30932400  1
  O  O0  1  0.92591200  0.78396100  0.87383800  1
  O  O1  1  0.42591200  0.28396100  0.62616200  1
  O  O2  1  0.07408800  0.21603900  0.12616200  1
  O  O3  1  0.57408800  0.71603900  0.37383800  1
  O  O4  1  0.06141900  0.65756600  0.70014600  1
  O  O5  1  0.56141900  0.15756600  0.79985400  1
  O  O6  1  0.93858100  0.34243400  0.29985400  1
  O  O7  1  0.43858100  0.84243400  0.20014600  1
  O  O8  1  0.87063400  0.49570600  0.82926700  1
  O  O9  1  0.37063400  0.99570600  0.67073300  1
  O  O10  1  0.12936600  0.50429400  0.17073300  1
  O  O11  1  0.62936600  0.00429400  0.32926700  1
  O  O12  1  0.14531200  0.59926400  0.90713400  1
  O  O13  1  0.64531200  0.09926400  0.59286600  1
  O  O14  1  0.85468800  0.40073600  0.09286600  1
  O  O15  1  0.35468800  0.90073600  0.40713400  1
  O  O16  1  0.87847400  0.14794500  0.87186100  1
  O  O17  1  0.37847400  0.64794500  0.62813900  1
  O  O18  1  0.12152600  0.85205500  0.12813900  1
  O  O19  1  0.62152600  0.35205500  0.37186100  1
  O  O20  1  0.11343300  0.29577600  0.76165700  1
  O  O21  1  0.61343300  0.79577600  0.73834300  1
  O  O22  1  0.88656700  0.70422400  0.23834300  1
  O  O23  1  0.38656700  0.20422400  0.26165700  1
  O  O24  1  0.01563900  0.01908200  0.70520300  1
  O  O25  1  0.51563900  0.51908200  0.79479700  1
  O  O26  1  0.98436100  0.98091800  0.29479700  1
  O  O27  1  0.48436100  0.48091800  0.20520300  1
  O  O28  1  0.16490700  0.07233700  0.89728600  1
  O  O29  1  0.66490700  0.57233700  0.60271400  1
  O  O30  1  0.83509300  0.92766300  0.10271400  1
  O  O31  1  0.33509300  0.42766300  0.39728600  1
  O  O32  1  0.59896000  0.13140400  0.04485900  1
  O  O33  1  0.09896000  0.63140400  0.45514100  1
  O  O34  1  0.40104000  0.86859600  0.95514100  1
  O  O35  1  0.90104000  0.36859600  0.54485900  1
  O  O36  1  0.37348200  0.35747300  0.98626500  1
  O  O37  1  0.87348300  0.85747300  0.51373500  1
  O  O38  1  0.62651700  0.64252700  0.01373500  1
  O  O39  1  0.12651800  0.14252700  0.48626500  1
loop_
_geom_bond_atom_site_label_1
_geom_bond_atom_site_label_2
_geom_bond_distance
_geom_bond_site_symmetry_2
Er0 O30 2.258501 1_556
Er0 O0 2.291556 1_555
Er0 O21 2.315408 1_555
Er0 O34 2.317054 1_555
Er0 O32 2.381569 1_566
Er0 O38 2.391553 1_556
Er0 O16 2.456059 1_565
Er0 O5 2.711372 1_565
Er1 O31 2.258501 1_555
Er1 O1 2.291556 1_555
Er1 O20 2.315408 1_555
Er1 O35 2.317054 1_455
Er1 O33 2.381569 1_555
Er1 O39 2.391551 1_555
Er1 O17 2.456059 1_555
Er1 O4 2.711372 1_555
Er2 O28 2.258501 1_554
Er2 O2 2.291556 1_555
Er2 O23 2.315408 1_555
Er2 O32 2.317054 1_555
Er2 O34 2.381569 1_544
Er2 O36 2.391551 1_554
Er2 O18 2.456059 1_545
Er2 O7 2.711372 1_545
Er3 O29 2.258501 1_555
Er3 O3 2.291556 1_555
Er3 O22 2.315408 1_555
Er3 O33 2.317054 1_655
Er3 O35 2.381569 1_555
Er3 O37 2.391553 1_555
Er3 O19 2.456059 1_555
Er3 O6 2.711372 1_555
Er4 O8 2.229891 1_555
Er4 O14 2.297309 1_556
Er4 O25 2.321344 1_555
Er4 O32 2.321734 1_556
Er4 O36 2.348474 1_555
Er4 O38 2.372459 1_556
Er4 O5 2.415124 1_555
Er4 O16 2.725163 1_555
Er5 O9 2.229891 1_555
Er5 O15 2.297309 1_555
Er5 O24 2.321344 1_565
Er5 O33 2.321734 1_555
Er5 O37 2.348466 1_455
Er5 O39 2.372457 1_565
Er5 O4 2.415124 1_555
Er5 O17 2.725163 1_555
Er6 O10 2.229891 1_555
Er6 O12 2.297309 1_554
Er6 O27 2.321344 1_555
Er6 O34 2.321734 1_554
Er6 O38 2.348466 1_555
Er6 O36 2.372457 1_554
Er6 O7 2.415124 1_555
Er6 O18 2.725163 1_555
Er7 O11 2.229891 1_555
Er7 O13 2.297309 1_555
Er7 O26 2.321344 1_545
Er7 O35 2.321734 1_555
Er7 O39 2.348474 1_655
Er7 O37 2.372459 1_545
Er7 O6 2.415124 1_555
Er7 O19 2.725163 1_555
H0 O32 0.977411 1_555
H1 O33 0.977411 1_555
H2 O34 0.977411 1_555
H3 O35 0.977411 1_555
H4 O36 0.981897 1_555
H5 O37 0.981901 1_555
H6 O38 0.981901 1_555
H7 O39 0.981897 1_555
O0 S0 1.468262 1_655
O1 S1 1.468262 1_555
O2 S2 1.468262 1_455
O3 S3 1.468262 1_555
O4 S0 1.507109 1_555
O5 S1 1.507109 1_555
O6 S2 1.507109 1_555
O7 S3 1.507109 1_555
O8 S0 1.483308 1_655
O9 S1 1.483308 1_565
O10 S2 1.483308 1_455
O11 S3 1.483308 1_545
O12 S0 1.482065 1_555
O13 S1 1.482065 1_555
O14 S2 1.482065 1_555
O15 S3 1.482065 1_555
O16 S4 1.498579 1_655
O17 S5 1.498579 1_555
O18 S6 1.498579 1_455
O19 S7 1.498579 1_555
O20 S4 1.490851 1_555
O21 S5 1.490851 1_555
O22 S6 1.490851 1_555
O23 S7 1.490851 1_555
O24 S4 1.480315 1_555
O25 S5 1.480315 1_555
O26 S6 1.480315 1_555
O27 S7 1.480315 1_555
O28 S4 1.478722 1_555
O29 S5 1.478722 1_555
O30 S6 1.478722 1_555
O31 S7 1.478722 1_555
