# generated using pymatgen
data_CeMg6Sn
_symmetry_space_group_name_H-M   'P 1'
_cell_length_a   5.21628600
_cell_length_b   6.38902000
_cell_length_c   11.91449500
_cell_angle_alpha   90.00000000
_cell_angle_beta   90.00000000
_cell_angle_gamma   90.00000000
_symmetry_Int_Tables_number   1
_chemical_formula_structural   CeMg6Sn
_chemical_formula_sum   'Ce2 Mg12 Sn2'
_cell_volume   397.07384562
_cell_formula_units_Z   2
loop_
 _symmetry_equiv_pos_site_id
 _symmetry_equiv_pos_as_xyz
  1  'x, y, z'
loop_
 _atom_site_type_symbol
 _atom_site_label
 _atom_site_symmetry_multiplicity
 _atom_site_fract_x
 _atom_site_fract_y
 _atom_site_fract_z
 _atom_site_occupancy
  Ce  Ce0  1  0.50000000  0.50000000  0.17544100  1
  Ce  Ce1  1  0.50000000  0.00000000  0.67544100  1
  Mg  Mg0  1  0.50000000  0.25082900  0.42240300  1
  Mg  Mg1  1  0.50000000  0.74917100  0.42240300  1
  Mg  Mg2  1  0.00000000  0.74817500  0.07575300  1
  Mg  Mg3  1  0.00000000  0.25182500  0.07575300  1
  Mg  Mg4  1  0.00000000  0.00000000  0.32743800  1
  Mg  Mg5  1  0.00000000  0.50000000  0.33759600  1
  Mg  Mg6  1  0.50000000  0.75082900  0.92240300  1
  Mg  Mg7  1  0.50000000  0.24917100  0.92240300  1
  Mg  Mg8  1  0.00000000  0.24817500  0.57575300  1
  Mg  Mg9  1  0.00000000  0.75182500  0.57575300  1
  Mg  Mg10  1  0.00000000  0.50000000  0.82743800  1
  Mg  Mg11  1  0.00000000  0.00000000  0.83759600  1
  Sn  Sn0  1  0.50000000  0.00000000  0.16320900  1
  Sn  Sn1  1  0.50000000  0.50000000  0.66320900  1
loop_
_geom_bond_atom_site_label_1
_geom_bond_atom_site_label_2
_geom_bond_distance
_geom_bond_site_symmetry_2
Ce0 Sn0 3.197833 1_555
Ce0 Sn0 3.197833 1_565
Ce0 Mg5 3.245769 1_655
Ce0 Mg5 3.245769 1_555
Ce0 Mg3 3.275245 1_655
Ce0 Mg3 3.275245 1_555
Ce0 Mg2 3.275245 1_555
Ce0 Mg2 3.275245 1_655
Ce0 Mg1 3.345476 1_555
Ce0 Mg0 3.345476 1_555
Ce0 Mg7 3.414280 1_554
Ce0 Mg6 3.414280 1_554
Ce1 Sn1 3.197833 1_545
Ce1 Sn1 3.197833 1_555
Ce1 Mg11 3.245769 1_555
Ce1 Mg11 3.245769 1_655
Ce1 Mg8 3.275245 1_555
Ce1 Mg8 3.275245 1_655
Ce1 Mg9 3.275245 1_545
Ce1 Mg9 3.275245 1_645
Ce1 Mg7 3.345476 1_555
Ce1 Mg6 3.345476 1_545
Ce1 Mg1 3.414280 1_545
Ce1 Mg0 3.414280 1_555
Mg0 Mg1 3.183917 1_555
Mg0 Mg8 3.184485 1_555
Mg0 Mg8 3.184485 1_655
Mg0 Mg1 3.205103 1_545
Mg0 Mg5 3.218341 1_555
Mg0 Mg5 3.218341 1_655
Mg0 Mg4 3.263554 1_655
Mg0 Mg4 3.263554 1_555
Mg0 Sn1 3.281153 1_555
Mg0 Sn0 3.479215 1_555
Mg1 Mg9 3.184485 1_655
Mg1 Mg9 3.184485 1_555
Mg1 Mg5 3.218341 1_655
Mg1 Mg5 3.218341 1_555
Mg1 Mg4 3.263554 1_665
Mg1 Mg4 3.263554 1_565
Mg1 Sn1 3.281153 1_555
Mg1 Sn0 3.479215 1_565
Mg2 Mg3 3.171190 1_555
Mg2 Mg6 3.184485 1_554
Mg2 Mg6 3.184485 1_454
Mg2 Mg3 3.217830 1_565
Mg2 Sn0 3.236784 1_565
Mg2 Sn0 3.236784 1_465
Mg2 Mg4 3.403058 1_565
Mg2 Mg5 3.499544 1_555
Mg3 Mg7 3.184485 1_554
Mg3 Mg7 3.184485 1_454
Mg3 Sn0 3.236784 1_555
Mg3 Sn0 3.236784 1_455
Mg3 Mg4 3.403058 1_555
Mg3 Mg5 3.499544 1_555
Mg4 Mg5 3.196802 1_545
Mg4 Mg5 3.196802 1_555
Mg4 Sn0 3.260538 1_455
Mg4 Sn0 3.260538 1_555
Mg4 Mg8 3.356653 1_555
Mg4 Mg9 3.356653 1_545
Mg5 Mg9 3.261921 1_555
Mg5 Mg8 3.261921 1_555
Mg6 Mg7 3.183917 1_565
Mg6 Mg7 3.205103 1_555
Mg6 Sn0 3.281153 1_566
Mg6 Sn1 3.479215 1_555
Mg7 Sn0 3.281153 1_556
Mg7 Sn1 3.479215 1_555
Mg8 Mg9 3.171190 1_545
Mg8 Mg9 3.217830 1_555
Mg8 Sn1 3.236784 1_455
Mg8 Sn1 3.236784 1_555
Mg9 Sn1 3.236784 1_455
Mg9 Sn1 3.236784 1_555
Mg10 Mg11 3.196802 1_555
Mg10 Mg11 3.196802 1_565
Mg10 Sn1 3.260538 1_555
Mg10 Sn1 3.260538 1_455
Mg10 Mg6 3.263554 1_455
Mg10 Mg6 3.263554 1_555
Mg10 Mg7 3.263554 1_455
Mg10 Mg7 3.263554 1_555
Mg10 Mg3 3.356653 1_556
Mg10 Mg2 3.356653 1_556
Mg10 Mg9 3.403058 1_555
Mg10 Mg8 3.403058 1_555
Mg11 Mg7 3.218341 1_455
Mg11 Mg7 3.218341 1_555
Mg11 Mg6 3.218341 1_545
Mg11 Mg6 3.218341 1_445
Mg11 Mg2 3.261921 1_546
Mg11 Mg3 3.261921 1_556
Mg11 Mg9 3.499544 1_545
Mg11 Mg8 3.499544 1_555
