# generated using pymatgen
data_Zn3N2
_symmetry_space_group_name_H-M   'P 1'
_cell_length_a   3.36980856
_cell_length_b   5.83942677
_cell_length_c   11.88932026
_cell_angle_alpha   90.00000000
_cell_angle_beta   90.00000000
_cell_angle_gamma   90.00000000
_symmetry_Int_Tables_number   1
_chemical_formula_structural   Zn3N2
_chemical_formula_sum   'Zn12 N8'
_cell_volume   233.95507549
_cell_formula_units_Z   4
loop_
 _symmetry_equiv_pos_site_id
 _symmetry_equiv_pos_as_xyz
  1  'x, y, z'
loop_
 _atom_site_type_symbol
 _atom_site_label
 _atom_site_symmetry_multiplicity
 _atom_site_fract_x
 _atom_site_fract_y
 _atom_site_fract_z
 _atom_site_occupancy
  Zn  Zn0  1  0.75000000  0.08339453  0.07900494  1
  Zn  Zn1  1  0.75000000  0.41660547  0.57900494  1
  Zn  Zn2  1  0.75000000  0.75120575  0.24969405  1
  Zn  Zn3  1  0.75000000  0.08290289  0.42095330  1
  Zn  Zn4  1  0.75000000  0.74879425  0.74969405  1
  Zn  Zn5  1  0.75000000  0.41709711  0.92095330  1
  Zn  Zn6  1  0.25000000  0.58290289  0.07904670  1
  Zn  Zn7  1  0.25000000  0.91660547  0.92099506  1
  Zn  Zn8  1  0.25000000  0.25120575  0.25030595  1
  Zn  Zn9  1  0.25000000  0.24879425  0.75030595  1
  Zn  Zn10  1  0.25000000  0.91709711  0.57904670  1
  Zn  Zn11  1  0.25000000  0.58339453  0.42099506  1
  N  N0  1  0.75000000  0.08437409  0.24991694  1
  N  N1  1  0.75000000  0.74982504  0.00010382  1
  N  N2  1  0.75000000  0.41562591  0.74991694  1
  N  N3  1  0.75000000  0.75017496  0.50010382  1
  N  N4  1  0.25000000  0.58437409  0.25008306  1
  N  N5  1  0.25000000  0.91562591  0.75008306  1
  N  N6  1  0.25000000  0.24982504  0.49989618  1
  N  N7  1  0.25000000  0.25017496  -0.00010382  1
loop_
_geom_bond_atom_site_label_1
_geom_bond_atom_site_label_2
_geom_bond_distance
_geom_bond_site_symmetry_2
N0 Zn2 1.945514 1_545
N0 Zn8 1.946276 1_555
N0 Zn8 1.946276 1_655
N0 Zn0 2.032036 1_555
N0 Zn3 2.033524 1_555
N1 Zn5 2.158839 1_554
N1 Zn6 2.161002 1_555
N1 Zn6 2.161002 1_655
N1 Zn7 2.161486 1_654
N1 Zn7 2.161486 1_554
N1 Zn0 2.161974 1_565
N2 Zn4 1.945514 1_555
N2 Zn9 1.946276 1_655
N2 Zn9 1.946276 1_555
N2 Zn1 2.032036 1_555
N2 Zn5 2.033524 1_555
N3 Zn3 2.158839 1_565
N3 Zn10 2.161002 1_555
N3 Zn10 2.161002 1_655
N3 Zn11 2.161486 1_555
N3 Zn11 2.161486 1_655
N3 Zn1 2.161974 1_555
N4 Zn8 1.945514 1_555
N4 Zn2 1.946276 1_455
N4 Zn2 1.946276 1_555
N4 Zn11 2.032036 1_555
N4 Zn6 2.033524 1_555
N5 Zn9 1.945514 1_565
N5 Zn4 1.946276 1_455
N5 Zn4 1.946276 1_555
N5 Zn7 2.032036 1_555
N5 Zn10 2.033524 1_555
N6 Zn10 2.158839 1_545
N6 Zn3 2.161002 1_555
N6 Zn3 2.161002 1_455
N6 Zn1 2.161486 1_455
N6 Zn1 2.161486 1_555
N6 Zn11 2.161974 1_555
N7 Zn6 2.158839 1_555
N7 Zn5 2.161002 1_554
N7 Zn5 2.161002 1_454
N7 Zn0 2.161486 1_555
N7 Zn0 2.161486 1_455
N7 Zn7 2.161974 1_544
