# generated using pymatgen
data_K6Co2O7
_symmetry_space_group_name_H-M   'P 1'
_cell_length_a   9.08496269
_cell_length_b   6.55013620
_cell_length_c   11.03456994
_cell_angle_alpha   55.98992914
_cell_angle_beta   90.00000000
_cell_angle_gamma   90.00000000
_symmetry_Int_Tables_number   1
_chemical_formula_structural   K6Co2O7
_chemical_formula_sum   'K12 Co4 O14'
_cell_volume   544.31663210
_cell_formula_units_Z   2
loop_
 _symmetry_equiv_pos_site_id
 _symmetry_equiv_pos_as_xyz
  1  'x, y, z'
loop_
 _atom_site_type_symbol
 _atom_site_label
 _atom_site_symmetry_multiplicity
 _atom_site_fract_x
 _atom_site_fract_y
 _atom_site_fract_z
 _atom_site_occupancy
  K  K0  1  0.79852136  0.42310815  0.21152904  1
  K  K1  1  0.29852136  0.57689185  0.28847096  1
  K  K2  1  0.34951652  0.93308054  0.43120835  1
  K  K3  1  0.84951652  0.06691946  0.06879165  1
  K  K4  1  0.65048348  0.06691946  0.56879165  1
  K  K5  1  0.15048348  0.93308054  0.93120835  1
  K  K6  1  0.47415955  0.19501344  0.05870438  1
  K  K7  1  0.97415955  0.80498656  0.44129562  1
  K  K8  1  0.52584045  0.80498656  0.94129562  1
  K  K9  1  0.02584045  0.19501344  0.55870438  1
  K  K10  1  0.20147864  0.57689185  0.78847096  1
  K  K11  1  0.70147864  0.42310815  0.71152904  1
  Co  Co0  1  0.35580483  0.30940368  0.63659863  1
  Co  Co1  1  0.85580483  0.69059632  0.86340137  1
  Co  Co2  1  0.64419517  0.69059632  0.36340137  1
  Co  Co3  1  0.14419517  0.30940368  0.13659863  1
  O  O0  1  0.50000000  0.50000000  0.50000000  1
  O  O1  1  -0.00000000  0.50000000  0.00000000  1
  O  O2  1  0.66827694  0.96844257  0.35612293  1
  O  O3  1  0.16827694  0.03155743  0.14387707  1
  O  O4  1  0.30293839  0.50197298  0.07113379  1
  O  O5  1  0.80293839  0.49802702  0.42886621  1
  O  O6  1  0.69706161  0.49802702  0.92886621  1
  O  O7  1  0.19706161  0.50197298  0.57113379  1
  O  O8  1  0.40428281  0.24543874  0.81046175  1
  O  O9  1  0.90428281  0.75456126  0.68953825  1
  O  O10  1  0.59571719  0.75456126  0.18953825  1
  O  O11  1  0.09571719  0.24543874  0.31046175  1
  O  O12  1  0.83172306  0.96844257  0.85612293  1
  O  O13  1  0.33172306  0.03155743  0.64387707  1
loop_
_geom_bond_atom_site_label_1
_geom_bond_atom_site_label_2
_geom_bond_distance
_geom_bond_site_symmetry_2
K0 O5 2.703783 1_555
K0 O2 2.738511 1_545
K0 O10 2.752769 1_555
K0 O1 2.781581 1_655
K0 O11 2.900852 1_655
K0 O6 3.017738 1_554
K1 O4 2.703783 1_555
K1 O3 2.738511 1_565
K1 O11 2.752769 1_555
K1 O0 2.781581 1_555
K1 O10 2.900852 1_555
K1 O7 3.017738 1_555
K2 O7 2.720076 1_555
K2 O13 2.764525 1_565
K2 O0 2.843144 1_555
K2 O11 2.868497 1_565
K2 O2 2.985268 1_555
K3 O6 2.720076 1_554
K3 O12 2.764525 1_544
K3 O1 2.843144 1_655
K3 O10 2.868497 1_545
K3 O3 2.985268 1_655
K4 O5 2.720076 1_555
K4 O2 2.764525 1_545
K4 O0 2.843144 1_555
K4 O9 2.868497 1_545
K4 O13 2.985268 1_555
K5 O4 2.720076 1_556
K5 O3 2.764525 1_566
K5 O1 2.843144 1_556
K5 O8 2.868497 1_565
K5 O12 2.985268 1_455
K6 O4 2.605690 1_555
K6 O6 2.629026 1_554
K6 O10 2.639658 1_545
K6 O8 2.646406 1_554
K6 O3 2.937075 1_555
K6 O2 3.261100 1_545
K7 O5 2.605690 1_555
K7 O7 2.629026 1_655
K7 O11 2.639658 1_665
K7 O9 2.646406 1_555
K7 O2 2.937075 1_555
K7 O3 3.261100 1_665
K8 O6 2.605690 1_555
K8 O4 2.629026 1_556
K8 O8 2.639658 1_565
K8 O10 2.646406 1_556
K8 O12 2.937075 1_555
K8 O13 3.261100 1_565
K9 O7 2.605690 1_555
K9 O5 2.629026 1_455
K9 O9 2.639658 1_445
K9 O11 2.646406 1_555
K9 O13 2.937075 1_555
K9 O12 3.261100 1_445
K10 O7 2.703783 1_555
K10 O13 2.738511 1_565
K10 O8 2.752769 1_555
K10 O1 2.781581 1_556
K10 O9 2.900852 1_455
K10 O4 3.017738 1_556
K11 O6 2.703783 1_555
K11 O12 2.738511 1_545
K11 O9 2.752769 1_555
K11 O0 2.781581 1_555
K11 O8 2.900852 1_555
K11 O5 3.017738 1_555
Co0 O8 1.775096 1_555
Co0 O7 1.781406 1_555
Co0 O13 1.789679 1_555
Co0 O0 1.855151 1_555
Co1 O9 1.775096 1_555
Co1 O6 1.781406 1_555
Co1 O12 1.789679 1_555
Co1 O1 1.855151 1_656
Co2 O10 1.775096 1_555
Co2 O5 1.781406 1_555
Co2 O2 1.789679 1_555
Co2 O0 1.855151 1_555
Co3 O11 1.775096 1_555
Co3 O4 1.781406 1_555
Co3 O3 1.789679 1_555
Co3 O1 1.855151 1_555
