# generated using pymatgen
data_La2MnCrO6
_symmetry_space_group_name_H-M   'P 1'
_cell_length_a   5.63088313
_cell_length_b   7.76322092
_cell_length_c   5.72190666
_cell_angle_alpha   89.53858595
_cell_angle_beta   86.78795084
_cell_angle_gamma   89.54858032
_symmetry_Int_Tables_number   1
_chemical_formula_structural   La2MnCrO6
_chemical_formula_sum   'La4 Mn2 Cr2 O12'
_cell_volume   249.71826839
_cell_formula_units_Z   2
loop_
 _symmetry_equiv_pos_site_id
 _symmetry_equiv_pos_as_xyz
  1  'x, y, z'
loop_
 _atom_site_type_symbol
 _atom_site_label
 _atom_site_symmetry_multiplicity
 _atom_site_fract_x
 _atom_site_fract_y
 _atom_site_fract_z
 _atom_site_occupancy
  La  La0  1  0.48751700  0.74957100  0.54318800  1
  La  La1  1  0.00546900  0.75014700  0.04342900  1
  La  La2  1  0.51252300  0.25042600  0.45672500  1
  La  La3  1  0.99462700  0.24989500  0.95658300  1
  Mn  Mn0  1  0.00007700  0.50003300  0.50005800  1
  Mn  Mn1  1  0.49995100  0.99999400  0.00006600  1
  Cr  Cr0  1  0.50001300  0.50003400  0.00001500  1
  Cr  Cr1  1  0.99989700  0.99993500  0.50015500  1
  O  O0  1  0.70448800  0.04511100  0.71304900  1
  O  O1  1  0.77816500  0.45594000  0.19608600  1
  O  O2  1  0.29547800  0.95484500  0.28695600  1
  O  O3  1  0.22184600  0.54406800  0.80385300  1
  O  O4  1  0.28815700  0.54174200  0.29662400  1
  O  O5  1  0.19892900  0.95449500  0.77758600  1
  O  O6  1  0.71187800  0.45822500  0.70335600  1
  O  O7  1  0.80110300  0.04550900  0.22242200  1
  O  O8  1  0.91740400  0.74650800  0.47801700  1
  O  O9  1  0.58387000  0.75408000  0.97628700  1
  O  O10  1  0.08244300  0.25350700  0.52182300  1
  O  O11  1  0.41616600  0.24593900  0.02372100  1
loop_
_geom_bond_atom_site_label_1
_geom_bond_atom_site_label_2
_geom_bond_distance
_geom_bond_site_symmetry_2
La0 O8 2.428419 1_555
La0 O2 2.443618 1_555
La0 O4 2.469086 1_555
La0 O9 2.566943 1_555
La0 O5 2.592244 1_555
La0 O3 2.599406 1_555
La0 O6 2.757348 1_555
La0 O0 2.813263 1_565
La1 O3 2.395950 1_554
La1 O5 2.412437 1_554
La1 O9 2.425934 1_454
La1 O8 2.508215 1_455
La1 O4 2.725867 1_555
La1 O2 2.732257 1_555
La1 O7 2.737706 1_465
La1 O1 2.739792 1_455
La2 O10 2.429452 1_555
La2 O0 2.443953 1_555
La2 O6 2.469149 1_555
La2 O11 2.566413 1_555
La2 O7 2.591919 1_555
La2 O1 2.599289 1_555
La2 O4 2.757037 1_555
La2 O2 2.813518 1_545
La3 O1 2.395770 1_556
La3 O7 2.412768 1_556
La3 O11 2.425596 1_656
La3 O10 2.508979 1_655
La3 O6 2.725838 1_555
La3 O0 2.733135 1_555
La3 O5 2.737820 1_645
La3 O3 2.739473 1_655
Mn0 O4 1.970221 1_555
Mn0 O10 1.970286 1_555
Mn0 O8 1.970412 1_455
Mn0 O6 1.970456 1_455
Mn0 O3 2.226532 1_555
Mn0 O1 2.227918 1_455
Mn1 O9 1.967021 1_554
Mn1 O11 1.967037 1_565
Mn1 O2 1.982042 1_555
Mn1 O0 1.982769 1_564
Mn1 O5 2.208369 1_554
Mn1 O7 2.208536 1_565
Cr0 O1 2.002805 1_555
Cr0 O3 2.003113 1_554
Cr0 O9 2.033275 1_554
Cr0 O11 2.033625 1_555
Cr0 O4 2.045531 1_555
Cr0 O6 2.045913 1_554
Cr1 O5 2.021023 1_655
Cr1 O7 2.021803 1_565
Cr1 O8 2.031631 1_555
Cr1 O10 2.032574 1_665
Cr1 O0 2.035797 1_565
Cr1 O2 2.037408 1_655
