# generated using pymatgen
data_Na8PtO6
_symmetry_space_group_name_H-M   'P 1'
_cell_length_a   4.50274700
_cell_length_b   6.93975900
_cell_length_c   6.93975900
_cell_angle_alpha   90.00000000
_cell_angle_beta   90.00000000
_cell_angle_gamma   90.00000000
_symmetry_Int_Tables_number   1
_chemical_formula_structural   Na8PtO6
_chemical_formula_sum   'Na8 Pt1 O6'
_cell_volume   216.85344362
_cell_formula_units_Z   1
loop_
 _symmetry_equiv_pos_site_id
 _symmetry_equiv_pos_as_xyz
  1  'x, y, z'
loop_
 _atom_site_type_symbol
 _atom_site_label
 _atom_site_symmetry_multiplicity
 _atom_site_fract_x
 _atom_site_fract_y
 _atom_site_fract_z
 _atom_site_occupancy
  Na  Na0  1  0.54428900  0.28666100  0.08273900  1
  Na  Na1  1  0.07240200  0.78454600  0.65982500  1
  Na  Na2  1  0.54428900  0.71333900  0.91726100  1
  Na  Na3  1  0.07240200  0.21545400  0.34017500  1
  Na  Na4  1  0.07240200  0.65982500  0.21545400  1
  Na  Na5  1  0.54428900  0.08273900  0.71333900  1
  Na  Na6  1  0.07240200  0.34017500  0.78454600  1
  Na  Na7  1  0.54428900  0.91726100  0.28666100  1
  Pt  Pt0  1  0.57692800  0.50000000  0.50000000  1
  O  O0  1  0.21611000  0.00000000  0.00000000  1
  O  O1  1  0.07603700  0.50000000  0.50000000  1
  O  O2  1  0.57604100  0.40850900  0.78392600  1
  O  O3  1  0.57604100  0.59149100  0.21607400  1
  O  O4  1  0.57604100  0.78392600  0.59149100  1
  O  O5  1  0.57604100  0.21607400  0.40850900  1
loop_
_geom_bond_atom_site_label_1
_geom_bond_atom_site_label_2
_geom_bond_distance
_geom_bond_site_symmetry_2
Na0 O2 2.244029 1_554
Na0 O3 2.313387 1_555
Na0 O5 2.317641 1_555
Na0 O0 2.543788 1_555
Na1 O1 2.264915 1_555
Na1 O4 2.284749 1_455
Na1 O4 2.316816 1_555
Na1 O0 2.868343 1_566
Na2 O3 2.244029 1_556
Na2 O2 2.313387 1_555
Na2 O4 2.317641 1_555
Na2 O0 2.543788 1_566
Na3 O1 2.264915 1_555
Na3 O5 2.284749 1_455
Na3 O5 2.316816 1_555
Na3 O0 2.868343 1_555
Na4 O1 2.264915 1_555
Na4 O3 2.284749 1_455
Na4 O3 2.316816 1_555
Na4 O0 2.868343 1_565
Na5 O4 2.244029 1_545
Na5 O5 2.313387 1_555
Na5 O2 2.317641 1_555
Na5 O0 2.543788 1_556
Na6 O1 2.264915 1_555
Na6 O2 2.284749 1_455
Na6 O2 2.316816 1_555
Na6 O0 2.868343 1_556
Na7 O5 2.244029 1_565
Na7 O4 2.313387 1_555
Na7 O3 2.317641 1_555
Na7 O0 2.543788 1_565
O1 Pt0 2.247362 1_455
O1 Pt0 2.255385 1_555
O2 Pt0 2.070154 1_555
O3 Pt0 2.070154 1_555
O4 Pt0 2.070154 1_555
O5 Pt0 2.070154 1_555
