# generated using pymatgen
data_TeC4S4N8(ClO4)2
_symmetry_space_group_name_H-M   'P 1'
_cell_length_a   6.43646900
_cell_length_b   13.09198690
_cell_length_c   17.23392589
_cell_angle_alpha   72.74327107
_cell_angle_beta   82.77853174
_cell_angle_gamma   78.26527889
_symmetry_Int_Tables_number   1
_chemical_formula_structural   TeC4S4N8(ClO4)2
_chemical_formula_sum   'Te2 C8 S8 N16 Cl4 O16'
_cell_volume   1354.55608865
_cell_formula_units_Z   2
loop_
 _symmetry_equiv_pos_site_id
 _symmetry_equiv_pos_as_xyz
  1  'x, y, z'
loop_
 _atom_site_type_symbol
 _atom_site_label
 _atom_site_symmetry_multiplicity
 _atom_site_fract_x
 _atom_site_fract_y
 _atom_site_fract_z
 _atom_site_occupancy
  Te  Te0  1  0.16773600  0.81030200  0.26073900  1
  Te  Te1  1  0.83226400  0.18969800  0.73926100  1
  C  C0  1  0.06073100  0.98049400  0.38550300  1
  C  C1  1  0.93926900  0.01950600  0.61449700  1
  C  C2  1  0.74447500  0.58428700  0.35692100  1
  C  C3  1  0.25552500  0.41571300  0.64307900  1
  C  C4  1  0.56497600  0.69367700  0.09812900  1
  C  C5  1  0.43502400  0.30632300  0.90187100  1
  C  C6  1  0.84031600  0.06205700  0.09904700  1
  C  C7  1  0.15968400  0.93794300  0.90095300  1
  S  S0  1  0.36024800  0.95771600  0.27069400  1
  S  S1  1  0.63975200  0.04228400  0.72930600  1
  S  S2  1  0.38024900  0.52205400  0.37862600  1
  S  S3  1  0.61975100  0.47794600  0.62137400  1
  S  S4  1  0.16969300  0.70974200  0.16194300  1
  S  S5  1  0.83030700  0.29025800  0.83805700  1
  S  S6  1  0.20565400  0.10670600  0.09632000  1
  S  S7  1  0.79434600  0.89329400  0.90368000  1
  N  N0  1  0.88672600  0.98173100  0.41743300  1
  N  N1  1  0.11327400  0.01826900  0.58256700  1
  N  N2  1  0.25656100  0.97822100  0.35392200  1
  N  N3  1  0.74343900  0.02177900  0.64607800  1
  N  N4  1  0.91492000  0.59494900  0.32517700  1
  N  N5  1  0.08508000  0.40505100  0.67482300  1
  N  N6  1  0.55632000  0.57714800  0.39568100  1
  N  N7  1  0.44368000  0.42285200  0.60431900  1
  N  N8  1  0.74537100  0.70418800  0.08708000  1
  N  N9  1  0.25462900  0.29581200  0.91292000  1
  N  N10  1  0.36874400  0.68115600  0.10490500  1
  N  N11  1  0.63125600  0.31884400  0.89509500  1
  N  N12  1  0.95599400  0.13492600  0.09685400  1
  N  N13  1  0.04400600  0.86507400  0.90314600  1
  N  N14  1  0.72338900  0.00219500  0.10199200  1
  N  N15  1  0.27661100  0.99780500  0.89800800  1
  Cl  Cl0  1  0.56884400  0.76761500  0.55412700  1
  Cl  Cl1  1  0.43115600  0.23238500  0.44587300  1
  Cl  Cl2  1  0.08847700  0.37912800  0.15937700  1
  Cl  Cl3  1  0.91152300  0.62087200  0.84062300  1
  O  O0  1  0.75825500  0.71250100  0.51412100  1
  O  O1  1  0.24174500  0.28749900  0.48587900  1
  O  O2  1  0.57146300  0.53124800  0.68612500  1
  O  O3  1  0.42853700  0.46875200  0.31387500  1
  O  O4  1  0.61161100  0.85903100  0.57853100  1
  O  O5  1  0.38838900  0.14096900  0.42146900  1
  O  O6  1  0.37944000  0.79445500  0.50645200  1
  O  O7  1  0.62056000  0.20554500  0.49354800  1
  O  O8  1  0.86622200  0.37715000  0.19164200  1
  O  O9  1  0.13377800  0.62285000  0.80835800  1
  O  O10  1  0.12169300  0.48245000  0.10014600  1
  O  O11  1  0.87830700  0.51755000  0.89985400  1
  O  O12  1  0.29205400  0.20102300  0.09681800  1
  O  O13  1  0.70794600  0.79897700  0.90318200  1
  O  O14  1  0.24235900  0.33819400  0.22236300  1
  O  O15  1  0.75764100  0.66180600  0.77763700  1
loop_
_geom_bond_atom_site_label_1
_geom_bond_atom_site_label_2
_geom_bond_distance
_geom_bond_site_symmetry_2
C0 N0 1.183379 1_455
C0 N2 1.306803 1_555
C1 N1 1.183379 1_655
C1 N3 1.306803 1_555
C2 N4 1.178311 1_555
C2 N6 1.314234 1_555
C3 N5 1.178311 1_555
C3 N7 1.314234 1_555
C4 N8 1.182042 1_555
C4 N10 1.292888 1_555
C5 N9 1.182042 1_555
C5 N11 1.292888 1_555
C6 N14 1.178939 1_555
C6 N12 1.313914 1_555
C7 N15 1.178939 1_555
C7 N13 1.313914 1_555
S0 Te0 2.551880 1_555
S1 Te1 2.551880 1_555
S4 Te0 2.439306 1_555
S5 Te1 2.439306 1_555
N2 S0 1.577886 1_555
N3 S1 1.577886 1_555
N6 S2 1.559804 1_555
N7 S3 1.559804 1_555
N10 S4 1.566644 1_555
N11 S5 1.566644 1_555
N12 S6 1.573408 1_655
N13 S7 1.573408 1_455
Cl0 O4 1.465191 1_555
Cl0 O6 1.480208 1_555
Cl0 O0 1.486039 1_555
Cl1 O5 1.465191 1_555
Cl1 O7 1.480208 1_555
Cl1 O1 1.486039 1_555
Cl2 O14 1.468249 1_555
Cl2 O10 1.470035 1_555
Cl2 O8 1.470661 1_455
Cl3 O15 1.468249 1_555
Cl3 O11 1.470035 1_555
Cl3 O9 1.470661 1_655
O2 S3 1.454451 1_555
O3 S2 1.454451 1_555
O12 S6 1.456317 1_555
O13 S7 1.456317 1_555
