# generated using pymatgen
data_SrLaFeSnO6
_symmetry_space_group_name_H-M   'P 1'
_cell_length_a   8.06351425
_cell_length_b   8.08721944
_cell_length_c   8.08171926
_cell_angle_alpha   90.53587572
_cell_angle_beta   90.10491822
_cell_angle_gamma   90.11195044
_symmetry_Int_Tables_number   1
_chemical_formula_structural   SrLaFeSnO6
_chemical_formula_sum   'Sr4 La4 Fe4 Sn4 O24'
_cell_volume   526.99534361
_cell_formula_units_Z   4
loop_
 _symmetry_equiv_pos_site_id
 _symmetry_equiv_pos_as_xyz
  1  'x, y, z'
loop_
 _atom_site_type_symbol
 _atom_site_label
 _atom_site_symmetry_multiplicity
 _atom_site_fract_x
 _atom_site_fract_y
 _atom_site_fract_z
 _atom_site_occupancy
  Sr  Sr0  1  0.74959300  0.48891300  0.01680900  1
  Sr  Sr1  1  0.74959800  0.98891400  0.51680600  1
  Sr  Sr2  1  0.24960300  0.01678400  0.98894000  1
  Sr  Sr3  1  0.24959200  0.51678600  0.48893800  1
  La  La0  1  0.75033800  0.97329900  0.01498900  1
  La  La1  1  0.75034600  0.47329600  0.51499300  1
  La  La2  1  0.25034000  0.51505500  0.97322400  1
  La  La3  1  0.25032700  0.01505900  0.47323300  1
  Fe  Fe0  1  0.99950500  0.24847900  0.75071800  1
  Fe  Fe1  1  0.49951000  0.75071700  0.74847900  1
  Fe  Fe2  1  0.99951300  0.74847800  0.25071500  1
  Fe  Fe3  1  0.49951000  0.25071500  0.24848300  1
  Sn  Sn0  1  0.49981800  0.74770000  0.25170700  1
  Sn  Sn1  1  0.49982100  0.24769600  0.75170400  1
  Sn  Sn2  1  0.99983300  0.25170900  0.24769600  1
  Sn  Sn3  1  0.99983100  0.75170800  0.74770200  1
  O  O0  1  0.74743900  0.21295600  0.19662800  1
  O  O1  1  0.74744000  0.71295700  0.69662700  1
  O  O2  1  0.24743500  0.69662400  0.21290300  1
  O  O3  1  0.24743400  0.19662600  0.71290800  1
  O  O4  1  0.75314800  0.29758300  0.77247800  1
  O  O5  1  0.75314700  0.79758300  0.27247500  1
  O  O6  1  0.25314000  0.77249200  0.79760800  1
  O  O7  1  0.25313900  0.27249000  0.29760900  1
  O  O8  1  0.95450000  0.50308100  0.29176200  1
  O  O9  1  0.95449700  0.00308300  0.79176200  1
  O  O10  1  0.45457300  0.29167600  0.00306200  1
  O  O11  1  0.45457100  0.79167600  0.50306400  1
  O  O12  1  0.54106300  0.72167100  0.99749300  1
  O  O13  1  0.54106400  0.22167200  0.49749700  1
  O  O14  1  0.04114300  0.49750900  0.72164000  1
  O  O15  1  0.04114400  0.99750900  0.22164500  1
  O  O16  1  0.45927500  0.50218200  0.72233000  1
  O  O17  1  0.45927300  0.00218200  0.22233200  1
  O  O18  1  0.95938600  0.72234800  0.00219400  1
  O  O19  1  0.95938900  0.22234700  0.50219800  1
  O  O20  1  0.04514600  0.29198700  0.99723500  1
  O  O21  1  0.04514300  0.79198400  0.49723600  1
  O  O22  1  0.54521900  0.49723700  0.29209000  1
  O  O23  1  0.54521500  0.99723700  0.79209100  1
loop_
_geom_bond_atom_site_label_1
_geom_bond_atom_site_label_2
_geom_bond_distance
_geom_bond_site_symmetry_2
La0 O0 2.420534 1_565
La0 O23 2.452577 1_554
La0 O9 2.457682 1_564
La0 O5 2.530897 1_555
La0 O18 2.642174 1_555
La0 O12 2.643682 1_554
La0 O15 2.881679 1_655
La0 O17 2.894850 1_565
La1 O1 2.420536 1_555
La1 O22 2.452631 1_555
La1 O8 2.457680 1_555
La1 O4 2.530876 1_555
La1 O19 2.642136 1_555
La1 O13 2.643693 1_555
La1 O14 2.881580 1_655
La1 O16 2.894863 1_555
La2 O2 2.419886 1_556
La2 O20 2.454747 1_555
La2 O10 2.460088 1_556
La2 O6 2.530728 1_555
La2 O16 2.640048 1_555
La2 O14 2.642116 1_555
La2 O12 2.881479 1_555
La2 O18 2.894735 1_456
La3 O3 2.419850 1_555
La3 O21 2.454728 1_545
La3 O11 2.460166 1_545
La3 O7 2.530725 1_555
La3 O17 2.640149 1_555
La3 O15 2.642071 1_545
La3 O13 2.881554 1_555
La3 O19 2.894604 1_455
Fe0 O4 2.034177 1_555
Fe0 O19 2.042709 1_555
Fe0 O9 2.046999 1_555
Fe0 O20 2.052347 1_655
Fe0 O14 2.056815 1_655
Fe0 O3 2.066170 1_655
Fe1 O6 2.034261 1_555
Fe1 O16 2.044285 1_555
Fe1 O11 2.045711 1_555
Fe1 O23 2.053837 1_555
Fe1 O12 2.055268 1_555
Fe1 O1 2.066075 1_555
Fe2 O5 2.034250 1_555
Fe2 O18 2.042729 1_555
Fe2 O8 2.047018 1_555
Fe2 O21 2.052360 1_655
Fe2 O15 2.056806 1_655
Fe2 O2 2.066119 1_655
Fe3 O7 2.034264 1_555
Fe3 O17 2.044273 1_555
Fe3 O10 2.045758 1_555
Fe3 O22 2.053852 1_555
Fe3 O13 2.055266 1_555
Fe3 O0 2.066071 1_555
O0 Sn2 2.098223 1_555
O0 Sr0 2.674590 1_555
O1 Sn3 2.098208 1_555
O1 Sr1 2.674599 1_555
O2 Sn0 2.098221 1_555
O2 Sr3 2.674478 1_555
O3 Sn1 2.098233 1_555
O3 Sr2 2.674476 1_555
O4 Sn1 2.087549 1_555
O4 Sr0 2.497474 1_556
O5 Sn0 2.087555 1_555
O5 Sr1 2.497478 1_555
O6 Sn3 2.087427 1_455
O6 Sr2 2.497646 1_565
O7 Sn2 2.087412 1_455
O7 Sr3 2.497658 1_555
O8 Sn2 2.093555 1_555
O8 Sr0 2.768009 1_555
O8 Sr3 2.862742 1_655
O9 Sn3 2.093572 1_545
O9 Sr1 2.767990 1_545
O9 Sr2 2.862844 1_655
O10 Sn1 2.091874 1_554
O10 Sr2 2.768959 1_554
O10 Sr0 2.862993 1_555
O11 Sn0 2.091860 1_555
O11 Sr3 2.768990 1_555
O11 Sr1 2.863043 1_555
O12 Sn0 2.090579 1_556
O12 Sr0 2.532185 1_556
O13 Sn1 2.090517 1_555
O13 Sr1 2.532203 1_545
O14 Sn3 2.091967 1_455
O14 Sr3 2.530279 1_555
O15 Sn2 2.091966 1_465
O15 Sr2 2.530350 1_564
O16 Sn1 2.100105 1_555
O16 Sr3 2.534510 1_555
O17 Sn0 2.100073 1_545
O17 Sr2 2.534440 1_554
O18 Sn3 2.098613 1_554
O18 Sr0 2.536150 1_555
O19 Sn2 2.098693 1_555
O19 Sr1 2.536124 1_545
O20 Sn2 2.085999 1_456
O20 Sr2 2.772703 1_555
O20 Sr0 2.872711 1_456
O21 Sn3 2.086034 1_455
O21 Sr3 2.772633 1_555
O21 Sr1 2.872674 1_455
O22 Sn0 2.087633 1_555
O22 Sr0 2.771442 1_555
O22 Sr3 2.872105 1_555
O23 Sn1 2.087597 1_565
O23 Sr1 2.771511 1_555
O23 Sr2 2.872008 1_565
