# generated using pymatgen
data_ZnBi4O9
_symmetry_space_group_name_H-M   'P 1'
_cell_length_a   5.82360500
_cell_length_b   8.16306200
_cell_length_c   11.31273725
_cell_angle_alpha   50.92804252
_cell_angle_beta   90.00000000
_cell_angle_gamma   90.00000000
_symmetry_Int_Tables_number   1
_chemical_formula_structural   ZnBi4O9
_chemical_formula_sum   'Zn2 Bi8 O18'
_cell_volume   417.51593321
_cell_formula_units_Z   2
loop_
 _symmetry_equiv_pos_site_id
 _symmetry_equiv_pos_as_xyz
  1  'x, y, z'
loop_
 _atom_site_type_symbol
 _atom_site_label
 _atom_site_symmetry_multiplicity
 _atom_site_fract_x
 _atom_site_fract_y
 _atom_site_fract_z
 _atom_site_occupancy
  Zn  Zn0  1  0.19582200  0.00000000  0.25000000  1
  Zn  Zn1  1  0.80417800  0.00000000  0.75000000  1
  Bi  Bi0  1  0.68977000  0.80176300  0.55453100  1
  Bi  Bi1  1  0.24858300  0.60261700  0.86323300  1
  Bi  Bi2  1  0.75141700  0.60261700  0.36323300  1
  Bi  Bi3  1  0.31023000  0.80176300  0.05453100  1
  Bi  Bi4  1  0.68977000  0.19823700  0.94546900  1
  Bi  Bi5  1  0.75141700  0.39738300  0.13676700  1
  Bi  Bi6  1  0.31023000  0.19823700  0.44546900  1
  Bi  Bi7  1  0.24858300  0.39738300  0.63676700  1
  O  O0  1  0.55594200  0.50000000  0.75000000  1
  O  O1  1  0.44405800  0.50000000  0.25000000  1
  O  O2  1  0.89014300  0.18383800  0.79751100  1
  O  O3  1  0.04679900  0.27568800  0.53321700  1
  O  O4  1  0.04679900  0.72431200  0.96678300  1
  O  O5  1  0.89014300  0.81616200  0.70248900  1
  O  O6  1  0.10985700  0.81616200  0.20248900  1
  O  O7  1  0.95320100  0.72431200  0.46678300  1
  O  O8  1  0.95320100  0.27568800  0.03321700  1
  O  O9  1  0.10985700  0.18383800  0.29751100  1
  O  O10  1  0.47958300  0.26939500  0.06990000  1
  O  O11  1  0.63358600  0.87082900  0.12028500  1
  O  O12  1  0.63358600  0.12917100  0.37971500  1
  O  O13  1  0.47958300  0.73060500  0.43010000  1
  O  O14  1  0.52041700  0.26939500  0.56990000  1
  O  O15  1  0.36641400  0.12917100  0.87971500  1
  O  O16  1  0.36641400  0.87082900  0.62028500  1
  O  O17  1  0.52041700  0.73060500  0.93010000  1
loop_
_geom_bond_atom_site_label_1
_geom_bond_atom_site_label_2
_geom_bond_distance
_geom_bond_site_symmetry_2
Bi0 O5 2.103593 1_555
Bi0 O12 2.120914 1_565
Bi0 O7 2.128330 1_555
Bi0 O0 2.167612 1_555
Bi0 O13 2.201800 1_555
Bi0 O16 2.223939 1_555
Bi1 O17 2.272905 1_555
Bi1 O4 2.281875 1_555
Bi1 O16 2.287504 1_555
Bi1 O10 2.580316 1_556
Bi1 O5 2.589750 1_455
Bi1 O0 2.626617 1_555
Bi1 O8 2.703665 1_456
Bi2 O13 2.272905 1_555
Bi2 O7 2.281875 1_555
Bi2 O11 2.287504 1_555
Bi2 O14 2.580316 1_555
Bi2 O6 2.589750 1_655
Bi2 O1 2.626617 1_555
Bi2 O3 2.703665 1_655
Bi3 O6 2.103593 1_555
Bi3 O15 2.120914 1_564
Bi3 O4 2.128330 1_554
Bi3 O1 2.167612 1_555
Bi3 O17 2.201800 1_554
Bi3 O11 2.223939 1_555
Bi4 O2 2.103593 1_555
Bi4 O11 2.120914 1_546
Bi4 O8 2.128330 1_556
Bi4 O0 2.167612 1_555
Bi4 O10 2.201800 1_556
Bi4 O15 2.223939 1_555
Bi5 O10 2.272905 1_555
Bi5 O8 2.281875 1_555
Bi5 O12 2.287504 1_555
Bi5 O17 2.580316 1_554
Bi5 O9 2.589750 1_655
Bi5 O1 2.626617 1_555
Bi5 O4 2.703665 1_654
Bi6 O9 2.103593 1_555
Bi6 O16 2.120914 1_545
Bi6 O3 2.128330 1_555
Bi6 O1 2.167612 1_555
Bi6 O14 2.201800 1_555
Bi6 O12 2.223939 1_555
Bi7 O14 2.272905 1_555
Bi7 O3 2.281875 1_555
Bi7 O15 2.287504 1_555
Bi7 O13 2.580316 1_555
Bi7 O2 2.589750 1_455
Bi7 O0 2.626617 1_555
Bi7 O7 2.703665 1_455
O2 Zn1 1.951494 1_555
O3 Zn1 2.473455 1_455
O4 Zn1 2.473455 1_465
O5 Zn1 1.951494 1_565
O6 Zn0 1.951494 1_565
O7 Zn0 2.473455 1_665
O8 Zn0 2.473455 1_655
O9 Zn0 1.951494 1_555
O10 Zn0 2.463703 1_555
O13 Zn0 2.463703 1_565
O14 Zn1 2.463703 1_555
O17 Zn1 2.463703 1_565
