# generated using pymatgen
data_VCu3(TeSe)2
_symmetry_space_group_name_H-M   'P 1'
_cell_length_a   5.77122732
_cell_length_b   5.77122732
_cell_length_c   5.75972200
_cell_angle_alpha   90.00000000
_cell_angle_beta   90.00000000
_cell_angle_gamma   91.49324643
_symmetry_Int_Tables_number   1
_chemical_formula_structural   VCu3(TeSe)2
_chemical_formula_sum   'V1 Cu3 Te2 Se2'
_cell_volume   191.77428611
_cell_formula_units_Z   1
loop_
 _symmetry_equiv_pos_site_id
 _symmetry_equiv_pos_as_xyz
  1  'x, y, z'
loop_
 _atom_site_type_symbol
 _atom_site_label
 _atom_site_symmetry_multiplicity
 _atom_site_fract_x
 _atom_site_fract_y
 _atom_site_fract_z
 _atom_site_occupancy
  V  V0  1  0.00000000  0.00000000  0.00529600  1
  Cu  Cu0  1  0.50000000  0.00000000  0.01209300  1
  Cu  Cu1  1  0.00000000  0.50000000  0.01209300  1
  Cu  Cu2  1  0.00000000  0.00000000  0.49310700  1
  Te  Te0  1  0.73918900  0.73918900  0.74701400  1
  Te  Te1  1  0.26081100  0.26081100  0.74701400  1
  Se  Se0  1  0.23440300  0.76559700  0.24169200  1
  Se  Se1  1  0.76559700  0.23440300  0.24169200  1
loop_
_geom_bond_atom_site_label_1
_geom_bond_atom_site_label_2
_geom_bond_distance
_geom_bond_site_symmetry_2
Cu0 Se0 2.412536 1_545
Cu0 Se1 2.412536 1_555
Cu0 Te1 2.571093 1_554
Cu0 Te0 2.571093 1_544
Cu0 V0 2.885879 1_655
Cu0 V0 2.885879 1_555
Cu1 Se1 2.412536 1_455
Cu1 Se0 2.412536 1_555
Cu1 Te0 2.571093 1_454
Cu1 Te1 2.571093 1_554
Cu1 V0 2.885879 1_565
Cu1 V0 2.885879 1_555
Cu2 Se1 2.419176 1_455
Cu2 Se0 2.419176 1_545
Cu2 Te1 2.559665 1_555
Cu2 Te0 2.559665 1_445
Cu2 V0 2.809656 1_555
Cu2 V0 2.950066 1_556
Te0 V0 2.574145 1_666
Te1 V0 2.574145 1_556
Se0 V0 2.368410 1_565
Se1 V0 2.368410 1_655
