# generated using pymatgen
data_Sn2Rh
_symmetry_space_group_name_H-M   'P 1'
_cell_length_a   6.33644510
_cell_length_b   6.32526697
_cell_length_c   6.92847672
_cell_angle_alpha   90.00000000
_cell_angle_beta   117.21143877
_cell_angle_gamma   90.00000000
_symmetry_Int_Tables_number   1
_chemical_formula_structural   Sn2Rh
_chemical_formula_sum   'Sn8 Rh4'
_cell_volume   246.95785706
_cell_formula_units_Z   4
loop_
 _symmetry_equiv_pos_site_id
 _symmetry_equiv_pos_as_xyz
  1  'x, y, z'
loop_
 _atom_site_type_symbol
 _atom_site_label
 _atom_site_symmetry_multiplicity
 _atom_site_fract_x
 _atom_site_fract_y
 _atom_site_fract_z
 _atom_site_occupancy
  Sn  Sn0  1  0.21113353  0.83660425  0.75066715  1
  Sn  Sn1  1  0.53953362  0.16339575  0.75066715  1
  Sn  Sn2  1  0.71113353  0.66339575  0.75066715  1
  Sn  Sn3  1  0.03953362  0.33660425  0.75066715  1
  Sn  Sn4  1  0.37179330  0.75000358  0.25066192  1
  Sn  Sn5  1  0.87886862  0.24999642  0.25066192  1
  Sn  Sn6  1  0.87179330  0.74999642  0.25066192  1
  Sn  Sn7  1  0.37886862  0.25000358  0.25066192  1
  Rh  Rh0  1  0.49325568  0.50000000  0.98651035  1
  Rh  Rh1  1  0.99325568  -0.00000000  0.98651035  1
  Rh  Rh2  1  0.25741526  0.50000000  0.51483152  1
  Rh  Rh3  1  0.75741526  -0.00000000  0.51483152  1
loop_
_geom_bond_atom_site_label_1
_geom_bond_atom_site_label_2
_geom_bond_distance
_geom_bond_site_symmetry_2
Rh0 Sn6 2.754723 1_556
Rh0 Sn7 2.754727 1_556
Rh0 Sn2 2.776211 1_555
Rh0 Sn3 2.776216 1_555
Rh0 Sn1 2.779818 1_555
Rh0 Sn0 2.779821 1_555
Rh0 Sn5 2.780411 1_556
Rh0 Sn4 2.780414 1_556
Rh1 Sn4 2.754723 1_646
Rh1 Sn5 2.754727 1_556
Rh1 Sn0 2.776211 1_645
Rh1 Sn1 2.776216 1_555
Rh1 Sn3 2.779818 1_655
Rh1 Sn2 2.779821 1_545
Rh1 Sn7 2.780411 1_656
Rh1 Sn6 2.780414 1_546
Rh2 Sn5 2.754815 1_455
Rh2 Sn4 2.754819 1_555
Rh2 Sn3 2.776186 1_555
Rh2 Sn2 2.776191 1_555
Rh2 Sn0 2.779794 1_555
Rh2 Sn1 2.779796 1_555
Rh2 Sn6 2.780450 1_455
Rh2 Sn7 2.780454 1_555
Rh3 Sn7 2.754815 1_555
Rh3 Sn6 2.754819 1_545
Rh3 Sn1 2.776186 1_555
Rh3 Sn0 2.776191 1_645
Rh3 Sn2 2.779794 1_545
Rh3 Sn3 2.779796 1_655
Rh3 Sn4 2.780450 1_545
Rh3 Sn5 2.780454 1_555
