# generated using pymatgen
data_KWCl6
_symmetry_space_group_name_H-M   'P 1'
_cell_length_a   6.63088753
_cell_length_b   6.63061758
_cell_length_c   11.88295470
_cell_angle_alpha   80.04356298
_cell_angle_beta   80.04585282
_cell_angle_gamma   56.93521822
_symmetry_Int_Tables_number   1
_chemical_formula_structural   KWCl6
_chemical_formula_sum   'K2 W2 Cl12'
_cell_volume   429.29659485
_cell_formula_units_Z   2
loop_
 _symmetry_equiv_pos_site_id
 _symmetry_equiv_pos_as_xyz
  1  'x, y, z'
loop_
 _atom_site_type_symbol
 _atom_site_label
 _atom_site_symmetry_multiplicity
 _atom_site_fract_x
 _atom_site_fract_y
 _atom_site_fract_z
 _atom_site_occupancy
  K  K0  1  0.91671103  0.08339365  0.74992320  1
  K  K1  1  0.08328647  0.91664105  0.25004927  1
  W  W0  1  0.49998249  -0.00005334  0.50002413  1
  W  W1  1  0.00003740  0.49999899  -0.00003516  1
  Cl  Cl0  1  0.47837464  0.68110142  0.60298645  1
  Cl  Cl1  1  0.52158817  0.31892939  0.39705172  1
  Cl  Cl2  1  0.31897377  0.52156508  0.89701403  1
  Cl  Cl3  1  0.68105863  0.47838852  0.10294518  1
  Cl  Cl4  1  0.39464453  0.18561950  0.66979197  1
  Cl  Cl5  1  0.60530344  0.81447219  0.33027688  1
  Cl  Cl6  1  0.81440217  0.60536778  0.83021089  1
  Cl  Cl7  1  0.18562001  0.39459985  0.16977379  1
  Cl  Cl8  1  0.79660676  0.91001449  0.02903278  1
  Cl  Cl9  1  0.20341661  0.08995559  0.97092144  1
  Cl  Cl10  1  0.08998736  0.20342908  0.47095874  1
  Cl  Cl11  1  0.91000652  0.79657677  0.52907468  1
loop_
_geom_bond_atom_site_label_1
_geom_bond_atom_site_label_2
_geom_bond_distance
_geom_bond_site_symmetry_2
Cl0 W0 2.315714 1_565
Cl0 K0 3.543549 1_465
Cl0 K0 3.741080 1_555
Cl1 W0 2.316530 1_555
Cl1 K1 3.544014 1_645
Cl1 K1 3.741356 1_555
Cl2 W1 2.316164 1_556
Cl2 K0 3.544733 1_465
Cl2 K0 3.741831 1_555
Cl3 W1 2.316668 1_655
Cl3 K1 3.544442 1_645
Cl3 K1 3.742175 1_555
Cl4 W0 2.346610 1_555
Cl4 K0 3.421395 1_555
Cl4 K0 3.533691 1_455
Cl5 W0 2.345734 1_565
Cl5 K1 3.421714 1_555
Cl5 K1 3.533858 1_655
Cl6 W1 2.346271 1_656
Cl6 K0 3.421270 1_555
Cl6 K0 3.534644 1_565
Cl7 W1 2.346653 1_555
Cl7 K1 3.421567 1_555
Cl7 K1 3.534311 1_545
Cl8 W1 2.343506 1_655
Cl8 K0 3.423940 1_564
Cl8 K1 3.517124 1_655
Cl9 W1 2.343623 1_556
Cl9 K1 3.424045 1_546
Cl9 K0 3.516870 1_455
Cl10 W0 2.343430 1_555
Cl10 K0 3.422144 1_455
Cl10 K1 3.516757 1_545
Cl11 W0 2.343615 1_565
Cl11 K1 3.422829 1_655
Cl11 K0 3.516287 1_565
