# generated using pymatgen
data_SrMg14BiO16
_symmetry_space_group_name_H-M   'P 1'
_cell_length_a   8.80115950
_cell_length_b   8.99133591
_cell_length_c   4.53401015
_cell_angle_alpha   90.00000000
_cell_angle_beta   90.00000000
_cell_angle_gamma   90.00000000
_symmetry_Int_Tables_number   1
_chemical_formula_structural   SrMg14BiO16
_chemical_formula_sum   'Sr1 Mg14 Bi1 O16'
_cell_volume   358.79518196
_cell_formula_units_Z   1
loop_
 _symmetry_equiv_pos_site_id
 _symmetry_equiv_pos_as_xyz
  1  'x, y, z'
loop_
 _atom_site_type_symbol
 _atom_site_label
 _atom_site_symmetry_multiplicity
 _atom_site_fract_x
 _atom_site_fract_y
 _atom_site_fract_z
 _atom_site_occupancy
  Sr  Sr0  1  0.00000000  0.00000000  0.00000000  1
  Mg  Mg0  1  0.50000000  0.00000000  0.00000000  1
  Mg  Mg1  1  0.50000000  0.50000000  0.00000000  1
  Mg  Mg2  1  0.00000000  0.24494983  0.50000000  1
  Mg  Mg3  1  0.00000000  0.75505017  0.50000000  1
  Mg  Mg4  1  0.50000000  0.24897248  0.50000000  1
  Mg  Mg5  1  0.50000000  0.75102752  0.50000000  1
  Mg  Mg6  1  0.26203341  0.00000000  0.50000000  1
  Mg  Mg7  1  0.26423585  0.50000000  0.50000000  1
  Mg  Mg8  1  0.73796659  0.00000000  0.50000000  1
  Mg  Mg9  1  0.73576415  0.50000000  0.50000000  1
  Mg  Mg10  1  0.26418457  0.24695594  -0.00000000  1
  Mg  Mg11  1  0.26418457  0.75304406  0.00000000  1
  Mg  Mg12  1  0.73581543  0.24695594  -0.00000000  1
  Mg  Mg13  1  0.73581543  0.75304406  0.00000000  1
  Bi  Bi0  1  0.00000000  0.50000000  0.00000000  1
  O  O0  1  0.27311387  0.00000000  0.00000000  1
  O  O1  1  0.27089525  0.50000000  0.00000000  1
  O  O2  1  0.72688613  0.00000000  -0.00000000  1
  O  O3  1  0.72910475  0.50000000  -0.00000000  1
  O  O4  1  0.24961139  0.25062741  0.50000000  1
  O  O5  1  0.24961139  0.74937259  0.50000000  1
  O  O6  1  0.75038861  0.25062741  0.50000000  1
  O  O7  1  0.75038861  0.74937259  0.50000000  1
  O  O8  1  0.00000000  0.00000000  0.50000000  1
  O  O9  1  0.00000000  0.50000000  0.50000000  1
  O  O10  1  0.50000000  0.00000000  0.50000000  1
  O  O11  1  0.50000000  0.50000000  0.50000000  1
  O  O12  1  0.00000000  0.25076238  -0.00000000  1
  O  O13  1  0.00000000  0.74923762  0.00000000  1
  O  O14  1  0.50000000  0.25171879  -0.00000000  1
  O  O15  1  0.50000000  0.74828121  0.00000000  1
loop_
_geom_bond_atom_site_label_1
_geom_bond_atom_site_label_2
_geom_bond_distance
_geom_bond_site_symmetry_2
Mg0 O0 1.996861 1_555
Mg0 O2 1.996861 1_555
Mg0 O15 2.263288 1_545
Mg0 O14 2.263288 1_555
Mg0 O10 2.267005 1_555
Mg0 O10 2.267005 1_554
Mg1 O3 2.016387 1_555
Mg1 O1 2.016387 1_555
Mg1 O14 2.232380 1_555
Mg1 O15 2.232380 1_555
Mg1 O11 2.267005 1_554
Mg1 O11 2.267005 1_555
Mg2 O6 2.197463 1_455
Mg2 O4 2.197463 1_555
Mg2 O8 2.202426 1_555
Mg2 O12 2.267607 1_555
Mg2 O12 2.267607 1_556
Mg2 O9 2.293242 1_555
Mg3 O7 2.197463 1_455
Mg3 O5 2.197463 1_555
Mg3 O8 2.202426 1_565
Mg3 O13 2.267607 1_555
Mg3 O13 2.267607 1_556
Mg3 O9 2.293242 1_555
Mg4 O4 2.203760 1_555
Mg4 O6 2.203760 1_555
Mg4 O10 2.238595 1_555
Mg4 O11 2.257073 1_555
Mg4 O14 2.267140 1_555
Mg4 O14 2.267140 1_556
Mg5 O7 2.203760 1_555
Mg5 O5 2.203760 1_555
Mg5 O10 2.238595 1_565
Mg5 O11 2.257073 1_555
Mg5 O15 2.267140 1_556
Mg5 O15 2.267140 1_555
Mg6 O10 2.094382 1_555
Mg6 O5 2.256126 1_545
Mg6 O4 2.256126 1_555
Mg6 O0 2.269102 1_555
Mg6 O0 2.269102 1_556
Mg6 O8 2.306198 1_555
Mg7 O11 2.074998 1_555
Mg7 O5 2.245884 1_555
Mg7 O4 2.245884 1_555
Mg7 O1 2.267763 1_556
Mg7 O1 2.267763 1_555
Mg7 O9 2.325582 1_555
Mg8 O10 2.094382 1_555
Mg8 O6 2.256126 1_555
Mg8 O7 2.256126 1_545
Mg8 O2 2.269102 1_556
Mg8 O2 2.269102 1_555
Mg8 O8 2.306198 1_655
Mg9 O11 2.074998 1_555
Mg9 O7 2.245884 1_555
Mg9 O6 2.245884 1_555
Mg9 O3 2.267763 1_556
Mg9 O3 2.267763 1_555
Mg9 O9 2.325582 1_655
Mg10 O14 2.075891 1_555
Mg10 O0 2.221854 1_555
Mg10 O4 2.270870 1_554
Mg10 O4 2.270870 1_555
Mg10 O1 2.275971 1_555
Mg10 O12 2.325382 1_555
Mg11 O15 2.075891 1_555
Mg11 O0 2.221854 1_565
Mg11 O5 2.270870 1_554
Mg11 O5 2.270870 1_555
Mg11 O1 2.275971 1_555
Mg11 O13 2.325382 1_555
Mg12 O14 2.075891 1_555
Mg12 O2 2.221854 1_555
Mg12 O6 2.270870 1_555
Mg12 O6 2.270870 1_554
Mg12 O3 2.275971 1_555
Mg12 O12 2.325382 1_655
Mg13 O15 2.075891 1_555
Mg13 O2 2.221854 1_565
Mg13 O7 2.270870 1_555
Mg13 O7 2.270870 1_554
Mg13 O3 2.275971 1_555
Mg13 O13 2.325382 1_655
Bi0 O12 2.240979 1_555
Bi0 O13 2.240979 1_555
Bi0 O9 2.267005 1_554
Bi0 O9 2.267005 1_555
Bi0 O3 2.384192 1_455
Bi0 O1 2.384192 1_555
O0 Sr0 2.403719 1_555
O2 Sr0 2.403719 1_655
O8 Sr0 2.267005 1_555
O8 Sr0 2.267005 1_556
O12 Sr0 2.254689 1_555
O13 Sr0 2.254689 1_565
