# generated using pymatgen
data_Ce3HfSb5
_symmetry_space_group_name_H-M   'P 1'
_cell_length_a   9.54401280
_cell_length_b   9.54414296
_cell_length_c   6.33961000
_cell_angle_alpha   90.00178307
_cell_angle_beta   89.99798465
_cell_angle_gamma   119.99938457
_symmetry_Int_Tables_number   1
_chemical_formula_structural   Ce3HfSb5
_chemical_formula_sum   'Ce6 Hf2 Sb10'
_cell_volume   500.10801592
_cell_formula_units_Z   2
loop_
 _symmetry_equiv_pos_site_id
 _symmetry_equiv_pos_as_xyz
  1  'x, y, z'
loop_
 _atom_site_type_symbol
 _atom_site_label
 _atom_site_symmetry_multiplicity
 _atom_site_fract_x
 _atom_site_fract_y
 _atom_site_fract_z
 _atom_site_occupancy
  Ce  Ce0  1  0.61649661  -0.00001003  0.25000168  1
  Ce  Ce1  1  0.38351025  -0.00001874  0.75000379  1
  Ce  Ce2  1  0.00003563  0.61651056  0.24999827  1
  Ce  Ce3  1  0.00000372  0.38349850  0.74999739  1
  Ce  Ce4  1  0.38347962  0.38349791  0.24999542  1
  Ce  Ce5  1  0.61649400  0.61650532  0.74999628  1
  Hf  Hf0  1  0.99999627  -0.00000806  0.00000257  1
  Hf  Hf1  1  0.00000142  -0.00000957  0.50000255  1
  Sb  Sb0  1  0.25886666  -0.00003359  0.25003025  1
  Sb  Sb1  1  0.74111953  0.00002039  0.74995490  1
  Sb  Sb2  1  0.00001913  0.25888437  0.24995878  1
  Sb  Sb3  1  -0.00001249  0.74111610  0.75005720  1
  Sb  Sb4  1  0.74109949  0.74111427  0.25001770  1
  Sb  Sb5  1  0.25887496  0.25888034  0.74999262  1
  Sb  Sb6  1  0.33332695  0.66665882  0.00004301  1
  Sb  Sb7  1  0.66669400  0.33337334  0.00003220  1
  Sb  Sb8  1  0.66667849  0.33336521  0.49996143  1
  Sb  Sb9  1  0.33331575  0.66665585  0.49995396  1
loop_
_geom_bond_atom_site_label_1
_geom_bond_atom_site_label_2
_geom_bond_distance
_geom_bond_site_symmetry_2
Ce0 Sb4 3.233728 1_545
Ce0 Sb2 3.234087 1_655
Ce0 Sb6 3.367244 1_545
Ce0 Sb9 3.367279 1_545
Ce0 Sb8 3.367509 1_555
Ce0 Sb7 3.367634 1_555
Ce0 Sb1 3.385319 1_555
Ce0 Sb1 3.385796 1_554
Ce0 Sb0 3.413112 1_555
Ce1 Sb3 3.234034 1_545
Ce1 Sb5 3.234172 1_555
Ce1 Sb9 3.367322 1_545
Ce1 Sb6 3.367378 1_546
Ce1 Sb8 3.367767 1_555
Ce1 Sb7 3.367813 1_556
Ce1 Sb0 3.385535 1_555
Ce1 Sb0 3.385770 1_556
Ce1 Sb1 3.412841 1_555
Ce2 Sb0 3.233521 1_565
Ce2 Sb4 3.234261 1_455
Ce2 Sb6 3.366854 1_555
Ce2 Sb9 3.366863 1_555
Ce2 Sb7 3.367222 1_455
Ce2 Sb8 3.367293 1_455
Ce2 Sb3 3.385321 1_554
Ce2 Sb3 3.385951 1_555
Ce2 Sb2 3.413157 1_555
Ce3 Sb5 3.233778 1_555
Ce3 Sb1 3.233781 1_455
Ce3 Sb7 3.367318 1_456
Ce3 Sb9 3.367336 1_555
Ce3 Sb6 3.367436 1_556
Ce3 Sb8 3.367516 1_455
Ce3 Sb2 3.385416 1_556
Ce3 Sb2 3.385805 1_555
Ce3 Sb3 3.413231 1_555
Ce4 Sb2 3.233530 1_555
Ce4 Sb0 3.234224 1_555
Ce4 Sb9 3.367094 1_555
Ce4 Sb6 3.367137 1_555
Ce4 Sb7 3.367342 1_555
Ce4 Sb8 3.367366 1_555
Ce4 Sb5 3.385554 1_555
Ce4 Sb5 3.385596 1_554
Ce4 Sb4 3.413167 1_555
Ce5 Sb3 3.233834 1_655
Ce5 Sb1 3.234052 1_565
Ce5 Sb8 3.367280 1_555
Ce5 Sb6 3.367346 1_556
Ce5 Sb7 3.367391 1_556
Ce5 Sb9 3.367515 1_555
Ce5 Sb4 3.385431 1_555
Ce5 Sb4 3.385694 1_556
Ce5 Sb5 3.413204 1_555
Hf0 Sb3 2.935126 1_644
Hf0 Sb2 2.935240 1_655
Hf0 Sb5 2.935485 1_654
Hf0 Sb4 2.935533 1_545
Hf0 Sb0 2.935562 1_655
Hf0 Sb1 2.935693 1_554
Hf1 Sb0 2.935231 1_555
Hf1 Sb1 2.935320 1_455
Hf1 Sb5 2.935413 1_555
Hf1 Sb4 2.935454 1_445
Hf1 Sb3 2.935550 1_545
Hf1 Sb2 2.935655 1_555
Sb6 Sb9 3.169240 1_555
Sb6 Sb9 3.170370 1_554
Sb7 Sb8 3.169356 1_555
Sb7 Sb8 3.170254 1_554
