# generated using pymatgen
data_LiMn3O4
_symmetry_space_group_name_H-M   'P 1'
_cell_length_a   5.35141345
_cell_length_b   6.28840080
_cell_length_c   5.35150067
_cell_angle_alpha   90.78826899
_cell_angle_beta   107.88419330
_cell_angle_gamma   90.78854942
_symmetry_Int_Tables_number   1
_chemical_formula_structural   LiMn3O4
_chemical_formula_sum   'Li2 Mn6 O8'
_cell_volume   171.33897391
_cell_formula_units_Z   2
loop_
 _symmetry_equiv_pos_site_id
 _symmetry_equiv_pos_as_xyz
  1  'x, y, z'
loop_
 _atom_site_type_symbol
 _atom_site_label
 _atom_site_symmetry_multiplicity
 _atom_site_fract_x
 _atom_site_fract_y
 _atom_site_fract_z
 _atom_site_occupancy
  Li  Li0  1  0.49302300  0.23965400  0.99302200  1
  Li  Li1  1  0.49281600  0.73949900  0.99282200  1
  Mn  Mn0  1  0.00018200  0.75791000  0.50023600  1
  Mn  Mn1  1  0.99834100  0.49689600  0.99962900  1
  Mn  Mn2  1  0.49963500  0.49688900  0.49835600  1
  Mn  Mn3  1  0.00025500  0.25785500  0.50032300  1
  Mn  Mn4  1  0.99819000  0.99688400  0.99945800  1
  Mn  Mn5  1  0.49960600  0.99693500  0.49816500  1
  O  O0  1  0.76610600  0.04509200  0.26608300  1
  O  O1  1  0.76609400  0.54505900  0.26609000  1
  O  O2  1  0.24245500  0.46490800  0.74244900  1
  O  O3  1  0.24241100  0.96489700  0.74239400  1
  O  O4  1  0.76856600  0.24934400  0.73197700  1
  O  O5  1  0.76856000  0.74939600  0.73185800  1
  O  O6  1  0.23190100  0.24938700  0.26858100  1
  O  O7  1  0.23186000  0.74939600  0.26855800  1
loop_
_geom_bond_atom_site_label_1
_geom_bond_atom_site_label_2
_geom_bond_distance
_geom_bond_site_symmetry_2
Li0 O0 2.134177 1_556
Li0 O2 2.145402 1_555
Li0 O3 2.313103 1_545
Li0 O4 2.322627 1_555
Li0 O6 2.323035 1_556
Li0 O1 2.548181 1_556
Li1 O1 2.134761 1_556
Li1 O3 2.145287 1_555
Li1 O2 2.311280 1_555
Li1 O7 2.323130 1_556
Li1 O5 2.323197 1_555
Li1 O0 2.549907 1_566
Mn0 O1 1.968385 1_455
Mn0 O3 1.982247 1_555
Mn0 O5 2.004819 1_455
Mn0 O7 2.005304 1_555
Mn0 O0 2.358196 1_465
Mn0 O2 2.419757 1_555
Mn1 O2 2.178327 1_655
Mn1 O1 2.181001 1_556
Mn1 O4 2.188865 1_555
Mn1 O7 2.220799 1_656
Mn1 O6 2.250900 1_656
Mn1 O5 2.262908 1_555
Mn2 O2 2.178232 1_555
Mn2 O1 2.181071 1_555
Mn2 O6 2.188850 1_555
Mn2 O5 2.220783 1_555
Mn2 O4 2.251124 1_555
Mn2 O7 2.262979 1_555
Mn3 O0 1.968376 1_455
Mn3 O2 1.982367 1_555
Mn3 O4 2.005247 1_455
Mn3 O6 2.005434 1_555
Mn3 O1 2.358639 1_455
Mn3 O3 2.419013 1_545
Mn4 O3 2.178276 1_655
Mn4 O0 2.181092 1_566
Mn4 O5 2.188182 1_555
Mn4 O6 2.221659 1_666
Mn4 O7 2.251403 1_656
Mn4 O4 2.261688 1_565
Mn5 O3 2.178908 1_555
Mn5 O0 2.180481 1_565
Mn5 O7 2.188726 1_555
Mn5 O4 2.221027 1_565
Mn5 O5 2.251298 1_555
Mn5 O6 2.262142 1_565
