# generated using pymatgen
data_Cu3Bi2S3Br2
_symmetry_space_group_name_H-M   'P 1'
_cell_length_a   30.24706800
_cell_length_b   3.82011100
_cell_length_c   8.18351333
_cell_angle_alpha   88.19927406
_cell_angle_beta   90.00000000
_cell_angle_gamma   90.00000000
_symmetry_Int_Tables_number   1
_chemical_formula_structural   Cu3Bi2S3Br2
_chemical_formula_sum   'Cu12 Bi8 S12 Br8'
_cell_volume   945.11473687
_cell_formula_units_Z   4
loop_
 _symmetry_equiv_pos_site_id
 _symmetry_equiv_pos_as_xyz
  1  'x, y, z'
loop_
 _atom_site_type_symbol
 _atom_site_label
 _atom_site_symmetry_multiplicity
 _atom_site_fract_x
 _atom_site_fract_y
 _atom_site_fract_z
 _atom_site_occupancy
  Cu  Cu0  1  0.28072200  0.50004100  0.70786700  1
  Cu  Cu1  1  0.71927800  0.49995900  0.29213300  1
  Cu  Cu2  1  0.78072200  0.49995900  0.79213300  1
  Cu  Cu3  1  0.21927800  0.50004100  0.20786700  1
  Cu  Cu4  1  0.39736500  0.00179000  0.44492700  1
  Cu  Cu5  1  0.60263500  0.99821000  0.55507300  1
  Cu  Cu6  1  0.89736500  0.99821000  0.05507300  1
  Cu  Cu7  1  0.10263500  0.00179000  0.94492700  1
  Cu  Cu8  1  0.22983100  0.00139500  0.90880600  1
  Cu  Cu9  1  0.77016900  0.99860500  0.09119400  1
  Cu  Cu10  1  0.72983100  0.99860500  0.59119400  1
  Cu  Cu11  1  0.27016900  0.00139500  0.40880600  1
  Bi  Bi0  1  0.34896700  0.50389800  0.05905800  1
  Bi  Bi1  1  0.65103300  0.49610200  0.94094200  1
  Bi  Bi2  1  0.84896700  0.49610200  0.44094200  1
  Bi  Bi3  1  0.15103300  0.50389800  0.55905800  1
  Bi  Bi4  1  0.49470900  0.40320000  0.72655200  1
  Bi  Bi5  1  0.99470900  0.59680000  0.77344800  1
  Bi  Bi6  1  0.50529100  0.59680000  0.27344800  1
  Bi  Bi7  1  0.00529100  0.40320000  0.22655200  1
  S  S0  1  0.26219300  0.49751600  0.98412700  1
  S  S1  1  0.73780700  0.50248400  0.01587300  1
  S  S2  1  0.76219300  0.50248400  0.51587300  1
  S  S3  1  0.23780700  0.49751600  0.48412700  1
  S  S4  1  0.43731700  0.50018400  0.47666000  1
  S  S5  1  0.56268300  0.49981600  0.52334000  1
  S  S6  1  0.93731700  0.49981600  0.02334000  1
  S  S7  1  0.06268300  0.50018400  0.97666000  1
  S  S8  1  0.33618400  0.99394000  0.28529600  1
  S  S9  1  0.66381600  0.00606000  0.71470400  1
  S  S10  1  0.83618400  0.00606000  0.21470400  1
  S  S11  1  0.16381600  0.99394000  0.78529600  1
  Br  Br0  1  0.43676200  0.99846100  0.02786500  1
  Br  Br1  1  0.56323800  0.00153900  0.97213500  1
  Br  Br2  1  0.93676200  0.00153900  0.47213500  1
  Br  Br3  1  0.06323800  0.99846100  0.52786500  1
  Br  Br4  1  0.34242000  0.00253500  0.72241800  1
  Br  Br5  1  0.65758000  0.99746500  0.27758200  1
  Br  Br6  1  0.84242000  0.99746500  0.77758200  1
  Br  Br7  1  0.15758000  0.00253500  0.22241800  1
loop_
_geom_bond_atom_site_label_1
_geom_bond_atom_site_label_2
_geom_bond_distance
_geom_bond_site_symmetry_2
Cu0 S3 2.244689 1_555
Cu0 S0 2.328935 1_555
Cu1 S2 2.244689 1_555
Cu1 S1 2.328935 1_555
Cu2 S1 2.244689 1_556
Cu2 S2 2.328935 1_555
Cu3 S0 2.244689 1_554
Cu3 S3 2.328935 1_555
Cu4 S8 2.265924 1_545
Cu4 S4 2.273380 1_545
Cu4 S4 2.276780 1_555
Cu5 S9 2.265924 1_565
Cu5 S5 2.273380 1_565
Cu5 S5 2.276780 1_555
Cu6 S10 2.265924 1_565
Cu6 S6 2.273380 1_565
Cu6 S6 2.276780 1_555
Cu7 S11 2.265924 1_545
Cu7 S7 2.273380 1_545
Cu7 S7 2.276780 1_555
Cu8 S0 2.229051 1_545
Cu8 S0 2.236837 1_555
Cu8 S11 2.238588 1_545
Cu9 S1 2.229051 1_565
Cu9 S1 2.236837 1_555
Cu9 S10 2.238588 1_565
Cu10 S2 2.229051 1_565
Cu10 S2 2.236837 1_555
Cu10 S9 2.238588 1_565
Cu11 S3 2.229051 1_545
Cu11 S3 2.236837 1_555
Cu11 S8 2.238588 1_545
Bi0 S8 2.673138 1_545
Bi0 S0 2.695623 1_554
Bi0 S8 2.701762 1_555
Bi0 Br0 3.264376 1_555
Bi0 Br0 3.297897 1_545
Bi0 Br4 3.305651 1_564
Bi0 Br4 3.410060 1_554
Bi1 S9 2.673138 1_565
Bi1 S1 2.695623 1_556
Bi1 S9 2.701762 1_555
Bi1 Br1 3.264376 1_555
Bi1 Br1 3.297897 1_565
Bi1 Br5 3.305651 1_546
Bi1 Br5 3.410060 1_556
Bi2 S10 2.673138 1_565
Bi2 S2 2.695623 1_555
Bi2 S10 2.701762 1_555
Bi2 Br2 3.264376 1_555
Bi2 Br2 3.297897 1_565
Bi2 Br6 3.305651 1_545
Bi2 Br6 3.410060 1_555
Bi3 S11 2.673138 1_545
Bi3 S3 2.695623 1_555
Bi3 S11 2.701762 1_555
Bi3 Br3 3.264376 1_555
Bi3 Br3 3.297897 1_545
Bi3 Br7 3.305651 1_565
Bi3 Br7 3.410060 1_555
Bi4 S5 2.662775 1_555
Bi4 S4 2.699099 1_555
Bi4 Br1 3.239765 1_555
Bi4 Br0 3.362021 1_546
Bi5 S7 2.662775 1_655
Bi5 S6 2.699099 1_556
Bi5 Br3 3.239765 1_655
Bi5 Br2 3.362021 1_565
Bi6 S4 2.662775 1_555
Bi6 S5 2.699099 1_555
Bi6 Br0 3.239765 1_555
Bi6 Br1 3.362021 1_564
Bi7 S6 2.662775 1_455
Bi7 S7 2.699099 1_554
Bi7 Br2 3.239765 1_455
Bi7 Br3 3.362021 1_545
Br4 Cu0 2.663570 1_555
Br4 Cu0 2.682533 1_545
Br4 Cu4 2.814103 1_555
Br5 Cu1 2.663570 1_555
Br5 Cu1 2.682533 1_565
Br5 Cu5 2.814103 1_555
Br6 Cu2 2.663570 1_555
Br6 Cu2 2.682533 1_565
Br6 Cu6 2.814103 1_556
Br7 Cu3 2.663570 1_555
Br7 Cu3 2.682533 1_545
Br7 Cu7 2.814103 1_554
