# generated using pymatgen
data_CeVO4
_symmetry_space_group_name_H-M   'P 1'
_cell_length_a   5.19158700
_cell_length_b   5.19158700
_cell_length_c   6.73766223
_cell_angle_alpha   112.66027166
_cell_angle_beta   112.66027166
_cell_angle_gamma   90.00000000
_symmetry_Int_Tables_number   1
_chemical_formula_structural   CeVO4
_chemical_formula_sum   'Ce2 V2 O8'
_cell_volume   152.27561035
_cell_formula_units_Z   2
loop_
 _symmetry_equiv_pos_site_id
 _symmetry_equiv_pos_as_xyz
  1  'x, y, z'
loop_
 _atom_site_type_symbol
 _atom_site_label
 _atom_site_symmetry_multiplicity
 _atom_site_fract_x
 _atom_site_fract_y
 _atom_site_fract_z
 _atom_site_occupancy
  Ce  Ce0  1  0.62500000  0.87500000  0.25000000  1
  Ce  Ce1  1  0.37500000  0.12500000  0.75000000  1
  V  V0  1  0.12500000  0.37500000  0.25000000  1
  V  V1  1  0.87500000  0.62500000  0.75000000  1
  O  O0  1  0.35891900  0.71614900  0.41004900  1
  O  O1  1  0.05113000  0.19390000  0.41004900  1
  O  O2  1  0.21614900  0.55113000  0.91004900  1
  O  O3  1  0.69390000  0.85891900  0.91004900  1
  O  O4  1  0.64108100  0.28385100  0.58995100  1
  O  O5  1  0.94887000  0.80610000  0.58995100  1
  O  O6  1  0.78385100  0.44887000  0.08995100  1
  O  O7  1  0.30610000  0.14108100  0.08995100  1
loop_
_geom_bond_atom_site_label_1
_geom_bond_atom_site_label_2
_geom_bond_distance
_geom_bond_site_symmetry_2
Ce0 O1 2.363096 1_665
Ce0 O6 2.363096 1_555
Ce0 O7 2.363096 1_565
Ce0 O0 2.363096 1_555
Ce0 O2 2.421807 1_554
Ce0 O4 2.421807 1_565
Ce0 O5 2.421808 1_555
Ce0 O3 2.421808 1_554
Ce1 O5 2.363096 1_445
Ce1 O2 2.363096 1_555
Ce1 O3 2.363096 1_545
Ce1 O4 2.363096 1_555
Ce1 O6 2.421807 1_556
Ce1 O0 2.421807 1_545
Ce1 O1 2.421808 1_555
Ce1 O7 2.421808 1_556
O0 V0 1.814874 1_555
O1 V0 1.814874 1_555
O2 V1 1.814874 1_455
O3 V1 1.814874 1_555
O4 V1 1.814874 1_555
O5 V1 1.814874 1_555
O6 V0 1.814874 1_655
O7 V0 1.814874 1_555
