# generated using pymatgen
data_BaYSn4O7
_symmetry_space_group_name_H-M   'P 1'
_cell_length_a   6.46563821
_cell_length_b   6.46563821
_cell_length_c   14.61110400
_cell_angle_alpha   90.00000000
_cell_angle_beta   90.00000000
_cell_angle_gamma   120.00000213
_symmetry_Int_Tables_number   1
_chemical_formula_structural   BaYSn4O7
_chemical_formula_sum   'Ba2 Y2 Sn8 O14'
_cell_volume   528.97659099
_cell_formula_units_Z   2
loop_
 _symmetry_equiv_pos_site_id
 _symmetry_equiv_pos_as_xyz
  1  'x, y, z'
loop_
 _atom_site_type_symbol
 _atom_site_label
 _atom_site_symmetry_multiplicity
 _atom_site_fract_x
 _atom_site_fract_y
 _atom_site_fract_z
 _atom_site_occupancy
  Ba  Ba0  1  0.66666700  0.33333300  0.44078300  1
  Ba  Ba1  1  0.33333300  0.66666700  0.94078300  1
  Y  Y0  1  0.66666700  0.33333300  0.87694000  1
  Y  Y1  1  0.33333300  0.66666700  0.37694000  1
  Sn  Sn0  1  0.82841800  0.17158200  0.20368900  1
  Sn  Sn1  1  0.65683600  0.82841800  0.70368900  1
  Sn  Sn2  1  0.17158200  0.34316400  0.70368900  1
  Sn  Sn3  1  0.82841800  0.65683600  0.20368900  1
  Sn  Sn4  1  0.34316400  0.17158200  0.20368900  1
  Sn  Sn5  1  0.17158200  0.82841800  0.70368900  1
  Sn  Sn6  1  0.00000000  0.00000000  0.43588900  1
  Sn  Sn7  1  0.00000000  0.00000000  0.93588900  1
  O  O0  1  0.82981900  0.17018100  0.96663200  1
  O  O1  1  0.65963800  0.82981900  0.46663200  1
  O  O2  1  0.17018100  0.34036200  0.46663200  1
  O  O3  1  0.82981900  0.65963800  0.96663200  1
  O  O4  1  0.34036200  0.17018100  0.96663200  1
  O  O5  1  0.17018100  0.82981900  0.46663200  1
  O  O6  1  0.00000000  0.00000000  0.79559100  1
  O  O7  1  0.00000000  0.00000000  0.29559100  1
  O  O8  1  0.51031500  0.48968500  0.29127800  1
  O  O9  1  0.02062900  0.51031500  0.79127800  1
  O  O10  1  0.48968500  0.97937100  0.79127800  1
  O  O11  1  0.51031500  0.02062900  0.29127800  1
  O  O12  1  0.48968500  0.51031500  0.79127800  1
  O  O13  1  0.97937100  0.48968500  0.29127800  1
loop_
_geom_bond_atom_site_label_1
_geom_bond_atom_site_label_2
_geom_bond_distance
_geom_bond_site_symmetry_2
Ba0 O11 2.799571 1_555
Ba0 O13 2.799571 1_555
Ba0 O8 2.799571 1_555
Ba0 O2 3.255041 1_655
Ba0 O1 3.255041 1_545
Ba0 O5 3.255044 1_655
Ba0 O5 3.255044 1_545
Ba0 O2 3.255047 1_555
Ba0 O1 3.255047 1_555
Ba1 O10 2.799571 1_555
Ba1 O9 2.799571 1_555
Ba1 O12 2.799571 1_555
Ba1 O4 3.255041 1_565
Ba1 O3 3.255041 1_455
Ba1 O0 3.255044 1_565
Ba1 O0 3.255044 1_455
Ba1 O3 3.255047 1_555
Ba1 O4 3.255047 1_555
O0 Sn7 1.958045 1_655
O0 Y0 2.248496 1_555
O1 Sn6 1.958045 1_665
O1 Y1 2.248501 1_555
O2 Sn6 1.958045 1_555
O2 Y1 2.248501 1_555
O3 Sn7 1.958045 1_665
O3 Y0 2.248501 1_555
O4 Sn7 1.958045 1_555
O4 Y0 2.248501 1_555
O5 Sn6 1.958045 1_565
O5 Y1 2.248496 1_555
O6 Sn7 2.049909 1_555
O6 Sn2 2.344206 1_555
O6 Sn1 2.344206 1_445
O6 Sn5 2.344206 1_545
O7 Sn6 2.049909 1_555
O7 Sn4 2.344206 1_555
O7 Sn3 2.344206 1_445
O7 Sn0 2.344206 1_455
O8 Sn4 2.193898 1_555
O8 Sn3 2.193898 1_555
O8 Y1 2.344104 1_555
O9 Sn5 2.193898 1_555
O9 Sn2 2.193903 1_555
O9 Y0 2.344094 1_455
O10 Sn5 2.193898 1_555
O10 Sn1 2.193903 1_555
O10 Y0 2.344094 1_565
O11 Sn0 2.193898 1_555
O11 Sn4 2.193903 1_555
O11 Y1 2.344094 1_545
O12 Sn2 2.193898 1_555
O12 Sn1 2.193898 1_555
O12 Y0 2.344104 1_555
O13 Sn0 2.193898 1_555
O13 Sn3 2.193903 1_555
O13 Y1 2.344094 1_655
