# generated using pymatgen
data_ThFeNi4
_symmetry_space_group_name_H-M   'P 1'
_cell_length_a   4.95243293
_cell_length_b   4.95243293
_cell_length_c   4.01316500
_cell_angle_alpha   90.00000000
_cell_angle_beta   90.00000000
_cell_angle_gamma   120.00001247
_symmetry_Int_Tables_number   1
_chemical_formula_structural   ThFeNi4
_chemical_formula_sum   'Th1 Fe1 Ni4'
_cell_volume   85.24222928
_cell_formula_units_Z   1
loop_
 _symmetry_equiv_pos_site_id
 _symmetry_equiv_pos_as_xyz
  1  'x, y, z'
loop_
 _atom_site_type_symbol
 _atom_site_label
 _atom_site_symmetry_multiplicity
 _atom_site_fract_x
 _atom_site_fract_y
 _atom_site_fract_z
 _atom_site_occupancy
  Th  Th0  1  0.66666700  0.33333300  0.00000000  1
  Fe  Fe0  1  0.00000000  0.00000000  0.00000000  1
  Ni  Ni0  1  0.33333300  0.66666700  0.00000000  1
  Ni  Ni1  1  0.66693600  0.83346800  0.50000000  1
  Ni  Ni2  1  0.16653200  0.33306400  0.50000000  1
  Ni  Ni3  1  0.16653200  0.83346800  0.50000000  1
loop_
_geom_bond_atom_site_label_1
_geom_bond_atom_site_label_2
_geom_bond_distance
_geom_bond_site_symmetry_2
Fe0 Ni2 2.463119 1_554
Fe0 Ni2 2.463119 1_555
Fe0 Ni1 2.463119 1_444
Fe0 Ni1 2.463119 1_445
Fe0 Ni3 2.463119 1_544
Fe0 Ni3 2.463119 1_545
Fe0 Th0 2.859286 1_455
Fe0 Ni0 2.859286 1_545
Fe0 Th0 2.859290 1_445
Fe0 Ni0 2.859290 1_555
Fe0 Th0 2.859290 1_555
Fe0 Ni0 2.859290 1_445
Ni0 Ni3 2.464458 1_555
Ni0 Ni3 2.464458 1_554
Ni0 Ni1 2.464460 1_554
Ni0 Ni1 2.464460 1_555
Ni0 Ni2 2.464460 1_555
Ni0 Ni2 2.464460 1_554
Ni0 Th0 2.859285 1_455
Ni0 Th0 2.859285 1_565
Ni0 Th0 2.859294 1_555
Ni1 Ni2 2.474215 1_665
Ni1 Ni3 2.474216 1_655
Ni1 Ni2 2.478217 1_555
Ni1 Ni3 2.478217 1_555
Ni1 Th0 3.187163 1_565
Ni1 Th0 3.187163 1_566
Ni1 Th0 3.187167 1_555
Ni1 Th0 3.187167 1_556
Ni2 Ni3 2.474216 1_545
Ni2 Ni3 2.478217 1_555
Ni2 Th0 3.187163 1_456
Ni2 Th0 3.187163 1_455
Ni2 Th0 3.187167 1_555
Ni2 Th0 3.187167 1_556
Ni3 Th0 3.187165 1_455
Ni3 Th0 3.187165 1_456
Ni3 Th0 3.187165 1_566
Ni3 Th0 3.187165 1_565
