# generated using pymatgen
data_Dy11In9Ni4
_symmetry_space_group_name_H-M   'P 1'
_cell_length_a   3.59253800
_cell_length_b   12.94253048
_cell_length_c   12.94253048
_cell_angle_alpha   111.25144122
_cell_angle_beta   90.00000000
_cell_angle_gamma   90.00000000
_symmetry_Int_Tables_number   1
_chemical_formula_structural   Dy11In9Ni4
_chemical_formula_sum   'Dy11 In9 Ni4'
_cell_volume   560.86080975
_cell_formula_units_Z   1
loop_
 _symmetry_equiv_pos_site_id
 _symmetry_equiv_pos_as_xyz
  1  'x, y, z'
loop_
 _atom_site_type_symbol
 _atom_site_label
 _atom_site_symmetry_multiplicity
 _atom_site_fract_x
 _atom_site_fract_y
 _atom_site_fract_z
 _atom_site_occupancy
  Dy  Dy0  1  0.00000000  0.92257000  0.58237300  1
  Dy  Dy1  1  0.00000000  0.07743000  0.41762700  1
  Dy  Dy2  1  0.00000000  0.58237300  0.92257000  1
  Dy  Dy3  1  0.00000000  0.41762700  0.07743000  1
  Dy  Dy4  1  0.00000000  0.15947500  0.84052500  1
  Dy  Dy5  1  0.00000000  0.84052500  0.15947500  1
  Dy  Dy6  1  0.00000000  0.37457600  0.62542400  1
  Dy  Dy7  1  0.00000000  0.62542400  0.37457600  1
  Dy  Dy8  1  0.00000000  0.68702200  0.68702200  1
  Dy  Dy9  1  0.00000000  0.31297800  0.31297800  1
  Dy  Dy10  1  0.00000000  0.00000000  0.00000000  1
  In  In0  1  0.50000000  0.15942800  0.63154100  1
  In  In1  1  0.50000000  0.84057200  0.36845900  1
  In  In2  1  0.50000000  0.63154100  0.15942800  1
  In  In3  1  0.50000000  0.36845900  0.84057200  1
  In  In4  1  0.50000000  0.92219200  0.78025200  1
  In  In5  1  0.50000000  0.07780800  0.21974800  1
  In  In6  1  0.50000000  0.78025200  0.92219200  1
  In  In7  1  0.50000000  0.21974800  0.07780800  1
  In  In8  1  0.50000000  0.50000000  0.50000000  1
  Ni  Ni0  1  0.50000000  0.75018500  0.54976600  1
  Ni  Ni1  1  0.50000000  0.24981500  0.45023400  1
  Ni  Ni2  1  0.50000000  0.54976600  0.75018500  1
  Ni  Ni3  1  0.50000000  0.45023400  0.24981500  1
loop_
_geom_bond_atom_site_label_1
_geom_bond_atom_site_label_2
_geom_bond_distance
_geom_bond_site_symmetry_2
Dy0 Ni0 2.774873 1_455
Dy0 Ni0 2.774873 1_555
Dy0 In4 3.129647 1_555
Dy0 In4 3.129647 1_455
Dy0 In1 3.144515 1_455
Dy0 In1 3.144515 1_555
Dy0 In0 3.408066 1_465
Dy0 In0 3.408066 1_565
Dy1 Ni1 2.774873 1_555
Dy1 Ni1 2.774873 1_455
Dy1 In5 3.129647 1_555
Dy1 In5 3.129647 1_455
Dy1 In0 3.144515 1_455
Dy1 In0 3.144515 1_555
Dy1 In1 3.408066 1_445
Dy1 In1 3.408066 1_545
Dy2 Ni2 2.774873 1_555
Dy2 Ni2 2.774873 1_455
Dy2 In6 3.129647 1_555
Dy2 In6 3.129647 1_455
Dy2 In3 3.144515 1_455
Dy2 In3 3.144515 1_555
Dy2 In2 3.408066 1_456
Dy2 In2 3.408066 1_556
Dy3 Ni3 2.774873 1_455
Dy3 Ni3 2.774873 1_555
Dy3 In7 3.129647 1_455
Dy3 In7 3.129647 1_555
Dy3 In2 3.144515 1_455
Dy3 In2 3.144515 1_555
Dy3 In3 3.408066 1_554
Dy3 In3 3.408066 1_454
Dy4 In0 3.246727 1_455
Dy4 In0 3.246727 1_555
Dy4 In3 3.246727 1_455
Dy4 In3 3.246727 1_555
Dy4 In4 3.395547 1_445
Dy4 In4 3.395547 1_545
Dy4 In7 3.395547 1_456
Dy4 In7 3.395547 1_556
Dy5 In2 3.246727 1_455
Dy5 In2 3.246727 1_555
Dy5 In1 3.246727 1_455
Dy5 In1 3.246727 1_555
Dy5 In6 3.395547 1_554
Dy5 In6 3.395547 1_454
Dy5 In5 3.395547 1_565
Dy5 In5 3.395547 1_465
Dy6 Ni1 2.884600 1_555
Dy6 Ni2 2.884600 1_455
Dy6 Ni1 2.884600 1_455
Dy6 Ni2 2.884600 1_555
Dy6 In8 3.225999 1_455
Dy6 In8 3.225999 1_555
Dy6 In0 3.338627 1_455
Dy6 In0 3.338627 1_555
Dy6 In3 3.338627 1_455
Dy6 In3 3.338627 1_555
Dy7 Ni3 2.884600 1_555
Dy7 Ni3 2.884600 1_455
Dy7 Ni0 2.884600 1_555
Dy7 Ni0 2.884600 1_455
Dy7 In8 3.225999 1_455
Dy7 In8 3.225999 1_555
Dy7 In1 3.338627 1_555
Dy7 In1 3.338627 1_455
Dy7 In2 3.338627 1_455
Dy7 In2 3.338627 1_555
Dy8 Ni2 2.846640 1_555
Dy8 Ni2 2.846640 1_455
Dy8 Ni0 2.846640 1_555
Dy8 Ni0 2.846640 1_455
Dy8 In8 3.270667 1_455
Dy8 In8 3.270667 1_555
Dy8 In6 3.359205 1_455
Dy8 In6 3.359205 1_555
Dy8 In4 3.359205 1_455
Dy8 In4 3.359205 1_555
Dy9 Ni3 2.846640 1_555
Dy9 Ni3 2.846640 1_455
Dy9 Ni1 2.846640 1_455
Dy9 Ni1 2.846640 1_555
Dy9 In8 3.270667 1_455
Dy9 In8 3.270667 1_555
Dy9 In5 3.359205 1_555
Dy9 In5 3.359205 1_455
Dy9 In7 3.359205 1_455
Dy9 In7 3.359205 1_555
Dy10 In7 3.202081 1_455
Dy10 In5 3.202081 1_455
Dy10 In7 3.202081 1_555
Dy10 In5 3.202081 1_555
Dy10 In6 3.202081 1_444
Dy10 In4 3.202081 1_544
Dy10 In4 3.202081 1_444
Dy10 In6 3.202081 1_544
In0 Ni1 2.977399 1_555
In0 In3 3.054908 1_555
In1 Ni0 2.977399 1_555
In1 In2 3.054908 1_555
In2 Ni3 2.977399 1_555
In3 Ni2 2.977399 1_555
In4 Ni0 3.006750 1_555
In4 In6 3.032502 1_555
In5 Ni1 3.006750 1_555
In5 In7 3.032502 1_555
In6 Ni2 3.006750 1_555
In7 Ni3 3.006750 1_555
In8 Ni3 3.063948 1_555
In8 Ni0 3.063948 1_555
In8 Ni1 3.063948 1_555
In8 Ni2 3.063948 1_555
