# generated using pymatgen
data_CoAgO2
_symmetry_space_group_name_H-M   'P 1'
_cell_length_a   3.43729766
_cell_length_b   3.43729766
_cell_length_c   11.52445600
_cell_angle_alpha   90.00000000
_cell_angle_beta   90.00000000
_cell_angle_gamma   119.99999353
_symmetry_Int_Tables_number   1
_chemical_formula_structural   CoAgO2
_chemical_formula_sum   'Co2 Ag2 O4'
_cell_volume   117.91943235
_cell_formula_units_Z   2
loop_
 _symmetry_equiv_pos_site_id
 _symmetry_equiv_pos_as_xyz
  1  'x, y, z'
loop_
 _atom_site_type_symbol
 _atom_site_label
 _atom_site_symmetry_multiplicity
 _atom_site_fract_x
 _atom_site_fract_y
 _atom_site_fract_z
 _atom_site_occupancy
  Co  Co0  1  0.33333300  0.66666700  0.75000000  1
  Co  Co1  1  0.66666700  0.33333300  0.25000000  1
  Ag  Ag0  1  0.00000000  0.00000000  0.50000000  1
  Ag  Ag1  1  0.00000000  0.00000000  0.00000000  1
  O  O0  1  0.33333300  0.66666700  0.59810300  1
  O  O1  1  0.66666700  0.33333300  0.40189700  1
  O  O2  1  0.66666700  0.33333300  0.09810300  1
  O  O3  1  0.33333300  0.66666700  0.90189700  1
loop_
_geom_bond_atom_site_label_1
_geom_bond_atom_site_label_2
_geom_bond_distance
_geom_bond_site_symmetry_2
Co0 O3 1.750530 1_555
Co0 O0 1.750530 1_555
Co1 O1 1.750530 1_555
Co1 O2 1.750530 1_555
Ag0 O1 2.283977 1_455
Ag0 O0 2.283977 1_545
Ag0 O1 2.283980 1_555
Ag0 O1 2.283980 1_445
Ag0 O0 2.283980 1_555
Ag0 O0 2.283980 1_445
Ag1 O2 2.283977 1_455
Ag1 O3 2.283977 1_544
Ag1 O2 2.283980 1_445
Ag1 O2 2.283980 1_555
Ag1 O3 2.283980 1_554
Ag1 O3 2.283980 1_444
