# generated using pymatgen
data_Nd2Ge9
_symmetry_space_group_name_H-M   'P 1'
_cell_length_a   4.04261300
_cell_length_b   9.60979300
_cell_length_c   12.48730400
_cell_angle_alpha   90.00000000
_cell_angle_beta   90.00000000
_cell_angle_gamma   90.00000000
_symmetry_Int_Tables_number   1
_chemical_formula_structural   Nd2Ge9
_chemical_formula_sum   'Nd4 Ge18'
_cell_volume   485.11520360
_cell_formula_units_Z   2
loop_
 _symmetry_equiv_pos_site_id
 _symmetry_equiv_pos_as_xyz
  1  'x, y, z'
loop_
 _atom_site_type_symbol
 _atom_site_label
 _atom_site_symmetry_multiplicity
 _atom_site_fract_x
 _atom_site_fract_y
 _atom_site_fract_z
 _atom_site_occupancy
  Nd  Nd0  1  0.50000000  0.50000000  0.87082100  1
  Nd  Nd1  1  0.00000000  0.00000000  0.12917900  1
  Nd  Nd2  1  0.50000000  0.50000000  0.38210600  1
  Nd  Nd3  1  0.00000000  0.00000000  0.61789400  1
  Ge  Ge0  1  0.50000000  0.81136700  0.26670500  1
  Ge  Ge1  1  0.50000000  0.18863300  0.26670500  1
  Ge  Ge2  1  0.00000000  0.68863300  0.73329500  1
  Ge  Ge3  1  0.00000000  0.31136700  0.73329500  1
  Ge  Ge4  1  0.50000000  0.84573100  0.78208100  1
  Ge  Ge5  1  0.50000000  0.15426900  0.78208100  1
  Ge  Ge6  1  0.00000000  0.65426900  0.21791900  1
  Ge  Ge7  1  0.00000000  0.34573100  0.21791900  1
  Ge  Ge8  1  0.50000000  0.83157900  0.47175000  1
  Ge  Ge9  1  0.50000000  0.16842100  0.47175000  1
  Ge  Ge10  1  0.00000000  0.66842100  0.52825000  1
  Ge  Ge11  1  0.00000000  0.33157900  0.52825000  1
  Ge  Ge12  1  0.50000000  0.82784000  0.98129500  1
  Ge  Ge13  1  0.50000000  0.17216000  0.98129500  1
  Ge  Ge14  1  0.00000000  0.67216000  0.01870500  1
  Ge  Ge15  1  0.00000000  0.32784000  0.01870500  1
  Ge  Ge16  1  0.50000000  0.50000000  0.62749700  1
  Ge  Ge17  1  0.00000000  0.00000000  0.37250300  1
loop_
_geom_bond_atom_site_label_1
_geom_bond_atom_site_label_2
_geom_bond_distance
_geom_bond_site_symmetry_2
Ge0 Ge8 2.567816 1_555
Ge0 Ge6 2.595370 1_555
Ge0 Ge6 2.595370 1_655
Ge0 Ge17 3.019443 1_565
Ge0 Ge17 3.019443 1_665
Ge0 Nd1 3.212611 1_665
Ge0 Nd1 3.212611 1_565
Ge0 Nd2 3.321101 1_555
Ge1 Ge9 2.567816 1_555
Ge1 Ge7 2.595370 1_555
Ge1 Ge7 2.595370 1_655
Ge1 Ge17 3.019443 1_555
Ge1 Ge17 3.019443 1_655
Ge1 Nd1 3.212611 1_655
Ge1 Nd1 3.212611 1_555
Ge1 Nd2 3.321101 1_555
Ge2 Ge4 2.595370 1_555
Ge2 Ge4 2.595370 1_455
Ge2 Nd0 3.212611 1_555
Ge2 Nd0 3.212611 1_455
Ge2 Nd3 3.321101 1_565
Ge3 Ge5 2.595370 1_555
Ge3 Ge5 2.595370 1_455
Ge3 Nd0 3.212611 1_455
Ge3 Nd0 3.212611 1_555
Ge3 Nd3 3.321101 1_555
Ge4 Ge5 2.964986 1_565
Ge4 Nd3 3.238364 1_665
Ge4 Nd3 3.238364 1_565
Ge4 Nd0 3.502328 1_555
Ge5 Nd3 3.238364 1_655
Ge5 Nd3 3.238364 1_555
Ge5 Nd0 3.502328 1_555
Ge6 Ge7 2.964986 1_555
Ge6 Nd2 3.238364 1_555
Ge6 Nd2 3.238364 1_455
Ge6 Nd1 3.502328 1_565
Ge7 Nd2 3.238364 1_555
Ge7 Nd2 3.238364 1_455
Ge7 Nd1 3.502328 1_555
Ge8 Nd3 3.167904 1_665
Ge8 Nd3 3.167904 1_565
Ge8 Nd2 3.377316 1_555
Ge9 Nd3 3.167904 1_655
Ge9 Nd3 3.167904 1_555
Ge9 Nd2 3.377316 1_555
Ge10 Ge2 2.567816 1_555
Ge10 Ge8 2.653641 1_455
Ge10 Ge8 2.653641 1_555
Ge10 Ge16 2.870736 1_555
Ge10 Ge16 2.870736 1_455
Ge10 Nd2 3.167904 1_555
Ge10 Nd2 3.167904 1_455
Ge10 Nd3 3.377316 1_565
Ge11 Ge3 2.567816 1_555
Ge11 Ge9 2.653641 1_555
Ge11 Ge9 2.653641 1_455
Ge11 Ge16 2.870736 1_455
Ge11 Ge16 2.870736 1_555
Ge11 Nd2 3.167904 1_455
Ge11 Nd2 3.167904 1_555
Ge11 Nd3 3.377316 1_555
Ge12 Ge4 2.493580 1_555
Ge12 Ge14 2.557749 1_556
Ge12 Ge14 2.557749 1_656
Ge12 Nd1 3.198905 1_566
Ge12 Nd1 3.198905 1_666
Ge12 Nd0 3.439269 1_555
Ge13 Ge5 2.493580 1_555
Ge13 Ge15 2.557749 1_556
Ge13 Ge15 2.557749 1_656
Ge13 Nd1 3.198905 1_556
Ge13 Nd1 3.198905 1_656
Ge13 Nd0 3.439269 1_555
Ge14 Ge6 2.493580 1_555
Ge14 Nd0 3.198905 1_454
Ge14 Nd0 3.198905 1_554
Ge14 Nd1 3.439269 1_565
Ge15 Ge7 2.493580 1_555
Ge15 Nd0 3.198905 1_454
Ge15 Nd0 3.198905 1_554
Ge15 Nd1 3.439269 1_555
Ge16 Ge3 3.019443 1_655
Ge16 Ge2 3.019443 1_555
Ge16 Ge2 3.019443 1_655
Ge16 Ge3 3.019443 1_555
Ge16 Nd0 3.038461 1_555
Ge16 Nd2 3.064272 1_555
Ge17 Ge9 2.870736 1_555
Ge17 Ge9 2.870736 1_455
Ge17 Ge8 2.870736 1_445
Ge17 Ge8 2.870736 1_545
Ge17 Nd1 3.038461 1_555
Ge17 Nd3 3.064272 1_555
