# generated using pymatgen
data_Pr6TlFe13
_symmetry_space_group_name_H-M   'P 1'
_cell_length_a   8.06930800
_cell_length_b   8.06930800
_cell_length_c   13.17107069
_cell_angle_alpha   107.83801461
_cell_angle_beta   107.83801461
_cell_angle_gamma   90.00000000
_symmetry_Int_Tables_number   1
_chemical_formula_structural   Pr6TlFe13
_chemical_formula_sum   'Pr12 Tl2 Fe26'
_cell_volume   772.96400088
_cell_formula_units_Z   2
loop_
 _symmetry_equiv_pos_site_id
 _symmetry_equiv_pos_as_xyz
  1  'x, y, z'
loop_
 _atom_site_type_symbol
 _atom_site_label
 _atom_site_symmetry_multiplicity
 _atom_site_fract_x
 _atom_site_fract_y
 _atom_site_fract_z
 _atom_site_occupancy
  Pr  Pr0  1  0.98118900  0.48118900  0.63324500  1
  Pr  Pr1  1  0.65205600  0.15205600  0.63324500  1
  Pr  Pr2  1  0.15205600  0.98118900  0.63324500  1
  Pr  Pr3  1  0.48118900  0.65205600  0.63324500  1
  Pr  Pr4  1  0.01881100  0.51881100  0.36675500  1
  Pr  Pr5  1  0.34794400  0.84794400  0.36675500  1
  Pr  Pr6  1  0.84794400  0.01881100  0.36675500  1
  Pr  Pr7  1  0.51881100  0.34794400  0.36675500  1
  Pr  Pr8  1  0.60378700  0.60378700  0.20757300  1
  Pr  Pr9  1  0.10378700  0.10378700  0.20757300  1
  Pr  Pr10  1  0.39621300  0.39621300  0.79242700  1
  Pr  Pr11  1  0.89621300  0.89621300  0.79242700  1
  Tl  Tl0  1  0.25000000  0.25000000  0.50000000  1
  Tl  Tl1  1  0.75000000  0.75000000  0.50000000  1
  Fe  Fe0  1  0.00000000  0.50000000  0.00000000  1
  Fe  Fe1  1  0.50000000  0.00000000  0.00000000  1
  Fe  Fe2  1  0.70955200  0.56702600  0.00000000  1
  Fe  Fe3  1  0.29044800  0.43297400  0.00000000  1
  Fe  Fe4  1  0.79044800  0.06702600  0.00000000  1
  Fe  Fe5  1  0.20955200  0.93297400  0.00000000  1
  Fe  Fe6  1  0.56702600  0.29044800  0.00000000  1
  Fe  Fe7  1  0.43297400  0.70955200  0.00000000  1
  Fe  Fe8  1  0.06702600  0.20955200  0.00000000  1
  Fe  Fe9  1  0.93297400  0.79044800  0.00000000  1
  Fe  Fe10  1  0.12028600  0.62028600  0.88466800  1
  Fe  Fe11  1  0.76438200  0.26438200  0.88466800  1
  Fe  Fe12  1  0.26438200  0.12028600  0.88466800  1
  Fe  Fe13  1  0.62028600  0.76438200  0.88466800  1
  Fe  Fe14  1  0.87971400  0.37971400  0.11533200  1
  Fe  Fe15  1  0.23561800  0.73561800  0.11533200  1
  Fe  Fe16  1  0.73561800  0.87971400  0.11533200  1
  Fe  Fe17  1  0.37971400  0.23561800  0.11533200  1
  Fe  Fe18  1  0.29477700  0.79477700  0.81529300  1
  Fe  Fe19  1  0.52051600  0.02051600  0.81529300  1
  Fe  Fe20  1  0.02051600  0.29477700  0.81529300  1
  Fe  Fe21  1  0.79477700  0.52051600  0.81529300  1
  Fe  Fe22  1  0.70522300  0.20522300  0.18470700  1
  Fe  Fe23  1  0.47948400  0.97948400  0.18470700  1
  Fe  Fe24  1  0.97948400  0.70522300  0.18470700  1
  Fe  Fe25  1  0.20522300  0.47948400  0.18470700  1
loop_
_geom_bond_atom_site_label_1
_geom_bond_atom_site_label_2
_geom_bond_distance
_geom_bond_site_symmetry_2
Pr0 Tl0 3.404653 1_655
Pr0 Tl1 3.404653 1_555
Pr1 Tl1 3.404653 1_545
Pr1 Tl0 3.404653 1_555
Pr2 Tl1 3.404653 1_455
Pr2 Tl0 3.404653 1_565
Pr3 Tl0 3.404653 1_555
Pr3 Tl1 3.404653 1_555
Pr4 Tl0 3.404653 1_555
Pr4 Tl1 3.404653 1_455
Pr5 Tl0 3.404653 1_565
Pr5 Tl1 3.404653 1_555
Pr6 Tl0 3.404653 1_655
Pr6 Tl1 3.404653 1_545
Pr7 Tl0 3.404653 1_555
Pr7 Tl1 3.404653 1_555
Pr8 Tl1 3.471396 1_555
Pr9 Tl0 3.471396 1_555
Pr10 Tl0 3.471396 1_555
Pr11 Tl1 3.471396 1_555
Fe0 Fe3 2.405311 1_555
Fe0 Fe2 2.405311 1_455
Fe0 Fe9 2.405311 1_455
Fe0 Fe8 2.405311 1_555
Fe0 Fe11 2.449153 1_454
Fe0 Fe10 2.449153 1_554
Fe0 Fe15 2.449153 1_555
Fe0 Fe14 2.449153 1_455
Fe0 Fe25 2.542984 1_555
Fe0 Fe20 2.542984 1_554
Fe0 Fe21 2.542984 1_454
Fe0 Fe24 2.542984 1_455
Fe1 Fe5 2.405311 1_545
Fe1 Fe4 2.405311 1_555
Fe1 Fe7 2.405311 1_545
Fe1 Fe6 2.405311 1_555
Fe1 Fe13 2.449153 1_544
Fe1 Fe12 2.449153 1_554
Fe1 Fe17 2.449153 1_555
Fe1 Fe16 2.449153 1_545
Fe1 Fe19 2.542984 1_554
Fe1 Fe23 2.542984 1_545
Fe1 Fe18 2.542984 1_544
Fe1 Fe22 2.542984 1_555
Fe2 Fe7 2.510697 1_555
Fe2 Fe6 2.510697 1_555
Fe2 Fe9 2.549630 1_555
Fe2 Fe21 2.645350 1_554
Fe2 Fe24 2.645350 1_555
Fe2 Pr8 3.037029 1_555
Fe2 Pr10 3.037035 1_554
Fe3 Fe7 2.510697 1_555
Fe3 Fe6 2.510697 1_555
Fe3 Fe8 2.549630 1_555
Fe3 Pr10 3.037029 1_554
Fe3 Pr8 3.037035 1_555
Fe4 Fe9 2.510697 1_545
Fe4 Fe8 2.510697 1_655
Fe4 Fe6 2.549630 1_555
Fe4 Pr11 3.037031 1_544
Fe4 Pr9 3.037034 1_655
Fe5 Fe9 2.510697 1_455
Fe5 Fe8 2.510697 1_565
Fe5 Fe7 2.549630 1_555
Fe5 Pr9 3.037031 1_565
Fe5 Pr11 3.037034 1_454
Fe6 Pr10 3.037031 1_554
Fe6 Pr8 3.037034 1_555
Fe7 Pr8 3.037031 1_555
Fe7 Pr10 3.037034 1_554
Fe8 Pr9 3.037029 1_555
Fe8 Pr11 3.037035 1_444
Fe9 Pr11 3.037029 1_554
Fe9 Pr9 3.037035 1_665
Fe10 Fe5 2.484797 1_556
Fe10 Fe7 2.484797 1_556
Fe10 Fe18 2.525157 1_555
Fe10 Fe20 2.541883 1_555
Fe10 Fe21 2.541883 1_455
Fe10 Fe3 2.570259 1_556
Fe10 Fe9 2.570259 1_456
Fe10 Fe15 2.738208 1_556
Fe10 Pr0 2.988544 1_455
Fe10 Pr10 3.164524 1_555
Fe10 Pr11 3.164524 1_455
Fe11 Fe6 2.484797 1_556
Fe11 Fe4 2.484797 1_556
Fe11 Fe19 2.525157 1_555
Fe11 Fe21 2.541883 1_555
Fe11 Fe20 2.541883 1_655
Fe11 Fe8 2.570259 1_656
Fe11 Fe2 2.570259 1_556
Fe11 Fe14 2.738208 1_556
Fe11 Pr1 2.988544 1_555
Fe11 Pr10 3.164527 1_555
Fe11 Pr11 3.164527 1_545
Fe12 Fe8 2.484797 1_556
Fe12 Fe3 2.484797 1_556
Fe12 Fe20 2.525157 1_555
Fe12 Fe19 2.541883 1_555
Fe12 Fe18 2.541883 1_545
Fe12 Fe6 2.570259 1_556
Fe12 Fe5 2.570259 1_546
Fe12 Fe17 2.738208 1_556
Fe12 Pr2 2.988544 1_545
Fe12 Pr10 3.164520 1_555
Fe12 Pr11 3.164531 1_445
Fe13 Fe2 2.484797 1_556
Fe13 Fe9 2.484797 1_556
Fe13 Fe21 2.525157 1_555
Fe13 Fe19 2.541883 1_565
Fe13 Fe18 2.541883 1_555
Fe13 Fe7 2.570259 1_556
Fe13 Fe4 2.570259 1_566
Fe13 Fe16 2.738208 1_556
Fe13 Pr3 2.988544 1_555
Fe13 Pr11 3.164520 1_555
Fe13 Pr10 3.164531 1_555
Fe14 Fe4 2.484797 1_555
Fe14 Fe6 2.484797 1_555
Fe14 Fe22 2.525157 1_555
Fe14 Fe25 2.541883 1_655
Fe14 Fe24 2.541883 1_555
Fe14 Fe2 2.570259 1_555
Fe14 Fe8 2.570259 1_655
Fe14 Pr4 2.988544 1_655
Fe14 Pr8 3.164524 1_555
Fe14 Pr9 3.164524 1_655
Fe15 Fe5 2.484797 1_555
Fe15 Fe7 2.484797 1_555
Fe15 Fe23 2.525157 1_555
Fe15 Fe25 2.541883 1_555
Fe15 Fe24 2.541883 1_455
Fe15 Fe3 2.570259 1_555
Fe15 Fe9 2.570259 1_455
Fe15 Pr5 2.988544 1_555
Fe15 Pr8 3.164527 1_555
Fe15 Pr9 3.164527 1_565
Fe16 Fe9 2.484797 1_555
Fe16 Fe2 2.484797 1_555
Fe16 Fe24 2.525157 1_555
Fe16 Fe22 2.541883 1_565
Fe16 Fe23 2.541883 1_555
Fe16 Fe7 2.570259 1_555
Fe16 Fe4 2.570259 1_565
Fe16 Pr6 2.988544 1_565
Fe16 Pr8 3.164520 1_555
Fe16 Pr9 3.164531 1_665
Fe17 Fe8 2.484797 1_555
Fe17 Fe3 2.484797 1_555
Fe17 Fe25 2.525157 1_555
Fe17 Fe23 2.541883 1_545
Fe17 Fe22 2.541883 1_555
Fe17 Fe5 2.570259 1_545
Fe17 Fe6 2.570259 1_555
Fe17 Pr7 2.988544 1_555
Fe17 Pr9 3.164520 1_555
Fe17 Pr8 3.164531 1_555
Fe18 Fe19 2.576071 1_565
Fe18 Fe7 2.645350 1_556
Fe18 Fe5 2.645350 1_556
Fe18 Pr3 3.139455 1_555
Fe18 Pr2 3.139455 1_555
Fe18 Pr10 3.265243 1_555
Fe18 Pr11 3.265243 1_455
Fe18 Pr0 3.334829 1_455
Fe19 Fe6 2.645350 1_556
Fe19 Fe4 2.645350 1_556
Fe19 Pr2 3.139455 1_545
Fe19 Pr3 3.139455 1_545
Fe19 Pr10 3.265238 1_555
Fe19 Pr11 3.265238 1_545
Fe19 Pr1 3.334829 1_555
Fe20 Fe21 2.576071 1_455
Fe20 Fe8 2.645350 1_556
Fe20 Fe3 2.645350 1_556
Fe20 Pr1 3.139455 1_455
Fe20 Pr0 3.139455 1_455
Fe20 Pr10 3.265235 1_555
Fe20 Pr11 3.265245 1_445
Fe20 Pr2 3.334829 1_545
Fe21 Fe9 2.645350 1_556
Fe21 Pr1 3.139455 1_555
Fe21 Pr0 3.139455 1_555
Fe21 Pr11 3.265235 1_555
Fe21 Pr10 3.265245 1_555
Fe21 Pr3 3.334829 1_555
Fe22 Fe23 2.576071 1_545
Fe22 Fe4 2.645350 1_555
Fe22 Fe6 2.645350 1_555
Fe22 Pr6 3.139455 1_555
Fe22 Pr7 3.139455 1_555
Fe22 Pr8 3.265243 1_555
Fe22 Pr9 3.265243 1_655
Fe22 Pr4 3.334829 1_655
Fe23 Fe7 2.645350 1_555
Fe23 Fe5 2.645350 1_555
Fe23 Pr7 3.139455 1_565
Fe23 Pr6 3.139455 1_565
Fe23 Pr9 3.265238 1_565
Fe23 Pr8 3.265238 1_555
Fe23 Pr5 3.334829 1_555
Fe24 Fe25 2.576071 1_655
Fe24 Fe9 2.645350 1_555
Fe24 Pr5 3.139455 1_655
Fe24 Pr4 3.139455 1_655
Fe24 Pr8 3.265235 1_555
Fe24 Pr9 3.265245 1_665
Fe24 Pr6 3.334829 1_565
Fe25 Fe3 2.645350 1_555
Fe25 Fe8 2.645350 1_555
Fe25 Pr4 3.139455 1_555
Fe25 Pr5 3.139455 1_555
Fe25 Pr9 3.265235 1_555
Fe25 Pr8 3.265245 1_555
Fe25 Pr7 3.334829 1_555
