# generated using pymatgen
data_Mg6SiSb
_symmetry_space_group_name_H-M   'P 1'
_cell_length_a   5.14715500
_cell_length_b   5.97189500
_cell_length_c   11.53561500
_cell_angle_alpha   90.00000000
_cell_angle_beta   90.00000000
_cell_angle_gamma   90.00000000
_symmetry_Int_Tables_number   1
_chemical_formula_structural   Mg6SiSb
_chemical_formula_sum   'Mg12 Si2 Sb2'
_cell_volume   354.58483936
_cell_formula_units_Z   2
loop_
 _symmetry_equiv_pos_site_id
 _symmetry_equiv_pos_as_xyz
  1  'x, y, z'
loop_
 _atom_site_type_symbol
 _atom_site_label
 _atom_site_symmetry_multiplicity
 _atom_site_fract_x
 _atom_site_fract_y
 _atom_site_fract_z
 _atom_site_occupancy
  Mg  Mg0  1  0.00000000  0.24758100  0.08457400  1
  Mg  Mg1  1  0.00000000  0.75241900  0.08457400  1
  Mg  Mg2  1  0.00000000  0.00000000  0.32816800  1
  Mg  Mg3  1  0.50000000  0.74223900  0.40472000  1
  Mg  Mg4  1  0.50000000  0.25776100  0.40472000  1
  Mg  Mg5  1  0.50000000  0.00000000  0.17178500  1
  Mg  Mg6  1  0.00000000  0.74758100  0.58457400  1
  Mg  Mg7  1  0.00000000  0.25241900  0.58457400  1
  Mg  Mg8  1  0.00000000  0.50000000  0.82816800  1
  Mg  Mg9  1  0.50000000  0.24223900  0.90472000  1
  Mg  Mg10  1  0.50000000  0.75776100  0.90472000  1
  Mg  Mg11  1  0.50000000  0.50000000  0.67178500  1
  Si  Si0  1  0.00000000  0.50000000  0.37803900  1
  Si  Si1  1  0.00000000  0.00000000  0.87803900  1
  Sb  Sb0  1  0.50000000  0.50000000  0.14342100  1
  Sb  Sb1  1  0.50000000  0.00000000  0.64342100  1
loop_
_geom_bond_atom_site_label_1
_geom_bond_atom_site_label_2
_geom_bond_distance
_geom_bond_site_symmetry_2
Mg0 Si1 2.803995 1_554
Mg0 Sb0 3.058829 1_455
Mg0 Sb0 3.058829 1_555
Mg0 Mg9 3.305875 1_454
Mg0 Mg9 3.305875 1_554
Mg1 Si1 2.803995 1_564
Mg1 Sb0 3.058829 1_455
Mg1 Sb0 3.058829 1_555
Mg1 Mg10 3.305875 1_454
Mg1 Mg10 3.305875 1_554
Mg2 Si0 3.040862 1_545
Mg2 Si0 3.040862 1_555
Mg2 Mg4 3.126121 1_555
Mg2 Mg4 3.126121 1_455
Mg2 Mg3 3.126121 1_545
Mg2 Mg3 3.126121 1_445
Mg3 Mg4 2.893252 1_555
Mg3 Si0 2.968292 1_555
Mg3 Si0 2.968292 1_655
Mg3 Mg4 3.078643 1_565
Mg3 Mg5 3.096731 1_565
Mg3 Sb1 3.154619 1_565
Mg3 Mg6 3.305875 1_555
Mg3 Mg6 3.305875 1_655
Mg3 Sb0 3.343411 1_555
Mg4 Si0 2.968292 1_655
Mg4 Si0 2.968292 1_555
Mg4 Mg5 3.096731 1_555
Mg4 Sb1 3.154619 1_555
Mg4 Mg7 3.305875 1_555
Mg4 Mg7 3.305875 1_655
Mg4 Sb0 3.343411 1_555
Mg5 Sb0 3.003821 1_545
Mg5 Sb0 3.003821 1_555
Mg5 Mg9 3.403499 1_554
Mg6 Si0 2.803995 1_555
Mg6 Sb1 3.058829 1_465
Mg6 Sb1 3.058829 1_565
Mg7 Si0 2.803995 1_555
Mg7 Sb1 3.058829 1_455
Mg7 Sb1 3.058829 1_555
Mg8 Si1 3.040862 1_565
Mg8 Si1 3.040862 1_555
Mg8 Mg9 3.126121 1_455
Mg8 Mg9 3.126121 1_555
Mg9 Si1 2.968292 1_555
Mg9 Si1 2.968292 1_655
Mg9 Sb0 3.154619 1_556
Mg9 Sb1 3.343411 1_555
Mg10 Mg9 2.893252 1_565
Mg10 Si1 2.968292 1_665
Mg10 Si1 2.968292 1_565
Mg10 Mg9 3.078643 1_555
Mg10 Mg11 3.096731 1_555
Mg10 Mg8 3.126121 1_555
Mg10 Mg8 3.126121 1_655
Mg10 Sb0 3.154619 1_556
Mg10 Sb1 3.343411 1_565
Mg10 Mg5 3.403499 1_566
Mg11 Sb1 3.003821 1_565
Mg11 Sb1 3.003821 1_555
Mg11 Mg9 3.096731 1_555
Mg11 Mg3 3.403499 1_555
Mg11 Mg4 3.403499 1_555
