# generated using pymatgen
data_HfMg14TiO16
_symmetry_space_group_name_H-M   'P 1'
_cell_length_a   8.66207292
_cell_length_b   8.66207292
_cell_length_c   4.30558831
_cell_angle_alpha   90.00000000
_cell_angle_beta   90.00000000
_cell_angle_gamma   90.00000000
_symmetry_Int_Tables_number   1
_chemical_formula_structural   HfMg14TiO16
_chemical_formula_sum   'Hf1 Mg14 Ti1 O16'
_cell_volume   323.05478059
_cell_formula_units_Z   1
loop_
 _symmetry_equiv_pos_site_id
 _symmetry_equiv_pos_as_xyz
  1  'x, y, z'
loop_
 _atom_site_type_symbol
 _atom_site_label
 _atom_site_symmetry_multiplicity
 _atom_site_fract_x
 _atom_site_fract_y
 _atom_site_fract_z
 _atom_site_occupancy
  Hf  Hf0  1  0.50000000  0.50000000  -0.00000000  1
  Mg  Mg0  1  0.00000000  0.50000000  -0.00000000  1
  Mg  Mg1  1  0.50000000  0.00000000  -0.00000000  1
  Mg  Mg2  1  0.00000000  0.24996538  0.50000000  1
  Mg  Mg3  1  0.00000000  0.75003462  0.50000000  1
  Mg  Mg4  1  0.50000000  0.24334394  0.50000000  1
  Mg  Mg5  1  0.50000000  0.75665606  0.50000000  1
  Mg  Mg6  1  0.24996538  -0.00000000  0.50000000  1
  Mg  Mg7  1  0.24334394  0.50000000  0.50000000  1
  Mg  Mg8  1  0.75003462  -0.00000000  0.50000000  1
  Mg  Mg9  1  0.75665606  0.50000000  0.50000000  1
  Mg  Mg10  1  0.24379489  0.24379489  0.00000000  1
  Mg  Mg11  1  0.24379489  0.75620511  0.00000000  1
  Mg  Mg12  1  0.75620511  0.24379489  -0.00000000  1
  Mg  Mg13  1  0.75620511  0.75620511  -0.00000000  1
  Ti  Ti0  1  0.00000000  0.00000000  -0.00000000  1
  O  O0  1  0.26058081  0.00000000  -0.00000000  1
  O  O1  1  0.24747968  0.50000000  -0.00000000  1
  O  O2  1  0.73941919  -0.00000000  0.00000000  1
  O  O3  1  0.75252032  0.50000000  0.00000000  1
  O  O4  1  0.25027671  0.25027671  0.50000000  1
  O  O5  1  0.25027671  0.74972329  0.50000000  1
  O  O6  1  0.74972329  0.25027671  0.50000000  1
  O  O7  1  0.74972329  0.74972329  0.50000000  1
  O  O8  1  0.00000000  0.00000000  0.50000000  1
  O  O9  1  0.00000000  0.50000000  0.50000000  1
  O  O10  1  0.50000000  0.00000000  0.50000000  1
  O  O11  1  0.50000000  0.50000000  0.50000000  1
  O  O12  1  0.00000000  0.26058081  0.00000000  1
  O  O13  1  0.00000000  0.73941919  -0.00000000  1
  O  O14  1  0.50000000  0.24747968  0.00000000  1
  O  O15  1  0.50000000  0.75252032  0.00000000  1
loop_
_geom_bond_atom_site_label_1
_geom_bond_atom_site_label_2
_geom_bond_distance
_geom_bond_site_symmetry_2
Hf0 O11 2.152794 1_555
Hf0 O11 2.152794 1_554
Hf0 O14 2.187349 1_555
Hf0 O15 2.187349 1_555
Hf0 O3 2.187349 1_555
Hf0 O1 2.187349 1_555
Mg0 O13 2.073866 1_555
Mg0 O12 2.073866 1_555
Mg0 O1 2.143687 1_555
Mg0 O3 2.143687 1_455
Mg0 O9 2.152794 1_554
Mg0 O9 2.152794 1_555
Mg1 O0 2.073866 1_555
Mg1 O2 2.073866 1_555
Mg1 O15 2.143687 1_545
Mg1 O14 2.143687 1_555
Mg1 O10 2.152794 1_555
Mg1 O10 2.152794 1_554
Mg2 O12 2.154757 1_555
Mg2 O12 2.154757 1_556
Mg2 O8 2.165218 1_555
Mg2 O9 2.165818 1_555
Mg2 O6 2.167917 1_455
Mg2 O4 2.167917 1_555
Mg3 O13 2.154757 1_555
Mg3 O13 2.154757 1_556
Mg3 O8 2.165218 1_565
Mg3 O9 2.165818 1_555
Mg3 O7 2.167917 1_455
Mg3 O5 2.167917 1_555
Mg4 O10 2.107863 1_555
Mg4 O14 2.153092 1_555
Mg4 O14 2.153092 1_556
Mg4 O4 2.163955 1_555
Mg4 O6 2.163955 1_555
Mg4 O11 2.223174 1_555
Mg5 O10 2.107863 1_565
Mg5 O15 2.153092 1_556
Mg5 O15 2.153092 1_555
Mg5 O5 2.163955 1_555
Mg5 O7 2.163955 1_555
Mg5 O11 2.223174 1_555
Mg6 O0 2.154757 1_555
Mg6 O0 2.154757 1_556
Mg6 O8 2.165218 1_555
Mg6 O10 2.165818 1_555
Mg6 O5 2.167917 1_545
Mg6 O4 2.167917 1_555
Mg7 O9 2.107863 1_555
Mg7 O1 2.153092 1_555
Mg7 O1 2.153092 1_556
Mg7 O4 2.163955 1_555
Mg7 O5 2.163955 1_555
Mg7 O11 2.223174 1_555
Mg8 O2 2.154757 1_555
Mg8 O2 2.154757 1_556
Mg8 O8 2.165218 1_655
Mg8 O10 2.165818 1_555
Mg8 O7 2.167917 1_545
Mg8 O6 2.167917 1_555
Mg9 O9 2.107863 1_655
Mg9 O3 2.153092 1_556
Mg9 O3 2.153092 1_555
Mg9 O6 2.163955 1_555
Mg9 O7 2.163955 1_555
Mg9 O11 2.223174 1_555
Mg10 O0 2.116769 1_555
Mg10 O12 2.116769 1_555
Mg10 O4 2.154258 1_554
Mg10 O4 2.154258 1_555
Mg10 O14 2.219497 1_555
Mg10 O1 2.219497 1_555
Mg11 O13 2.116769 1_555
Mg11 O0 2.116769 1_565
Mg11 O5 2.154258 1_554
Mg11 O5 2.154258 1_555
Mg11 O15 2.219497 1_555
Mg11 O1 2.219497 1_555
Mg12 O12 2.116769 1_655
Mg12 O2 2.116769 1_555
Mg12 O6 2.154258 1_554
Mg12 O6 2.154258 1_555
Mg12 O14 2.219497 1_555
Mg12 O3 2.219497 1_555
Mg13 O2 2.116769 1_565
Mg13 O13 2.116769 1_655
Mg13 O7 2.154258 1_554
Mg13 O7 2.154258 1_555
Mg13 O15 2.219497 1_555
Mg13 O3 2.219497 1_555
O0 Ti0 2.257170 1_555
O2 Ti0 2.257170 1_655
O8 Ti0 2.152794 1_555
O8 Ti0 2.152794 1_556
O12 Ti0 2.257170 1_555
O13 Ti0 2.257170 1_565
