# generated using pymatgen
data_InSb
_symmetry_space_group_name_H-M   'P 1'
_cell_length_a   6.08292600
_cell_length_b   6.27883400
_cell_length_c   12.29370000
_cell_angle_alpha   90.00000000
_cell_angle_beta   90.00000000
_cell_angle_gamma   90.00000000
_symmetry_Int_Tables_number   1
_chemical_formula_structural   InSb
_chemical_formula_sum   'In8 Sb8'
_cell_volume   469.54167564
_cell_formula_units_Z   8
loop_
 _symmetry_equiv_pos_site_id
 _symmetry_equiv_pos_as_xyz
  1  'x, y, z'
loop_
 _atom_site_type_symbol
 _atom_site_label
 _atom_site_symmetry_multiplicity
 _atom_site_fract_x
 _atom_site_fract_y
 _atom_site_fract_z
 _atom_site_occupancy
  In  In0_0  1  0.00000000  0.00123850  0.00000000  1
  In  In0_1  1  0.00000000  0.00123850  0.50000000  1
  In  In0_2  1  0.00000000  0.50123850  0.00000000  1
  In  In0_3  1  0.00000000  0.50123850  0.50000000  1
  In  In0_4  1  0.50000000  0.00123850  0.00000000  1
  In  In0_5  1  0.50000000  0.00123850  0.50000000  1
  In  In0_6  1  0.50000000  0.50123850  0.00000000  1
  In  In0_7  1  0.50000000  0.50123850  0.50000000  1
  Sb  Sb0_0  1  0.00000000  0.37376150  0.25000000  1
  Sb  Sb0_1  1  0.00000000  0.37376150  0.75000000  1
  Sb  Sb0_2  1  0.00000000  0.87376150  0.25000000  1
  Sb  Sb0_3  1  0.00000000  0.87376150  0.75000000  1
  Sb  Sb0_4  1  0.50000000  0.37376150  0.25000000  1
  Sb  Sb0_5  1  0.50000000  0.37376150  0.75000000  1
  Sb  Sb0_6  1  0.50000000  0.87376150  0.25000000  1
  Sb  Sb0_7  1  0.50000000  0.87376150  0.75000000  1
loop_
_geom_bond_atom_site_label_1
_geom_bond_atom_site_label_2
_geom_bond_distance
_geom_bond_site_symmetry_2
In0_0 In0_4 3.041463 1_555
In0_0 In0_4 3.041463 1_455
In0_0 In0_2 3.139417 1_545
In0_0 In0_2 3.139417 1_555
In0_0 Sb0_3 3.175940 1_544
In0_0 Sb0_2 3.175940 1_545
In0_1 In0_5 3.041463 1_555
In0_1 In0_5 3.041463 1_455
In0_1 In0_3 3.139417 1_545
In0_1 In0_3 3.139417 1_555
In0_1 Sb0_3 3.175940 1_545
In0_1 Sb0_2 3.175940 1_545
In0_2 In0_6 3.041463 1_555
In0_2 In0_6 3.041463 1_455
In0_2 Sb0_0 3.175940 1_555
In0_2 Sb0_1 3.175940 1_554
In0_3 In0_7 3.041463 1_555
In0_3 In0_7 3.041463 1_455
In0_3 Sb0_0 3.175940 1_555
In0_3 Sb0_1 3.175940 1_555
In0_4 In0_6 3.139417 1_545
In0_4 In0_6 3.139417 1_555
In0_4 Sb0_7 3.175940 1_544
In0_4 Sb0_6 3.175940 1_545
In0_5 In0_7 3.139417 1_545
In0_5 In0_7 3.139417 1_555
In0_5 Sb0_7 3.175940 1_545
In0_5 Sb0_6 3.175940 1_545
In0_6 Sb0_5 3.175940 1_554
In0_6 Sb0_4 3.175940 1_555
In0_7 Sb0_4 3.175940 1_555
In0_7 Sb0_5 3.175940 1_555
Sb0_0 Sb0_4 3.041463 1_555
Sb0_0 Sb0_4 3.041463 1_455
Sb0_0 Sb0_2 3.139417 1_545
Sb0_0 Sb0_2 3.139417 1_555
Sb0_1 Sb0_5 3.041463 1_555
Sb0_1 Sb0_5 3.041463 1_455
Sb0_1 Sb0_3 3.139417 1_545
Sb0_1 Sb0_3 3.139417 1_555
Sb0_2 Sb0_6 3.041463 1_555
Sb0_2 Sb0_6 3.041463 1_455
Sb0_3 Sb0_7 3.041463 1_555
Sb0_3 Sb0_7 3.041463 1_455
Sb0_4 Sb0_6 3.139417 1_545
Sb0_4 Sb0_6 3.139417 1_555
Sb0_5 Sb0_7 3.139417 1_545
Sb0_5 Sb0_7 3.139417 1_555
