# generated using pymatgen
data_Te2Mo3W(SeS2)2
_symmetry_space_group_name_H-M   'P 1'
_cell_length_a   3.30616845
_cell_length_b   3.30616845
_cell_length_c   38.94484700
_cell_angle_alpha   90.00000000
_cell_angle_beta   90.00000000
_cell_angle_gamma   120.00000906
_symmetry_Int_Tables_number   1
_chemical_formula_structural   Te2Mo3W(SeS2)2
_chemical_formula_sum   'Te2 Mo3 W1 Se2 S4'
_cell_volume   368.66384576
_cell_formula_units_Z   1
loop_
 _symmetry_equiv_pos_site_id
 _symmetry_equiv_pos_as_xyz
  1  'x, y, z'
loop_
 _atom_site_type_symbol
 _atom_site_label
 _atom_site_symmetry_multiplicity
 _atom_site_fract_x
 _atom_site_fract_y
 _atom_site_fract_z
 _atom_site_occupancy
  Te  Te0  1  0.33333300  0.66666700  0.04315100  1
  Te  Te1  1  0.33333300  0.66666700  0.14129400  1
  Mo  Mo0  1  0.00000000  0.00000000  0.09222700  1
  Mo  Mo1  1  0.00000000  0.00000000  0.46972700  1
  Mo  Mo2  1  0.33333300  0.66666700  0.28316100  1
  W  W0  1  0.33333300  0.66666700  0.65774300  1
  Se  Se0  1  0.00000000  0.00000000  0.32637800  1
  Se  Se1  1  0.00000000  0.00000000  0.24002300  1
  S  S0  1  0.00000000  0.00000000  0.69712100  1
  S  S1  1  0.33333300  0.66666700  0.43055300  1
  S  S2  1  0.33333300  0.66666700  0.50898100  1
  S  S3  1  0.00000000  0.00000000  0.61838800  1
loop_
_geom_bond_atom_site_label_1
_geom_bond_atom_site_label_2
_geom_bond_distance
_geom_bond_site_symmetry_2
Mo0 Te1 2.700952 1_545
Mo0 Te1 2.700954 1_555
Mo0 Te1 2.700954 1_445
Mo0 Te0 2.701200 1_545
Mo0 Te0 2.701202 1_555
Mo0 Te0 2.701202 1_445
Mo1 S1 2.443585 1_545
Mo1 S1 2.443587 1_445
Mo1 S1 2.443587 1_555
Mo1 S2 2.445532 1_545
Mo1 S2 2.445534 1_555
Mo1 S2 2.445534 1_445
Mo2 Se1 2.542830 1_565
Mo2 Se1 2.542832 1_555
Mo2 Se1 2.542832 1_665
Mo2 Se0 2.544864 1_565
Mo2 Se0 2.544866 1_665
Mo2 Se0 2.544866 1_555
S0 W0 2.448553 1_545
S0 W0 2.448555 1_445
S0 W0 2.448555 1_555
S3 W0 2.447993 1_545
S3 W0 2.447995 1_445
S3 W0 2.447995 1_555
