# generated using pymatgen
data_K4Eu(PS4)2
_symmetry_space_group_name_H-M   'P 1'
_cell_length_a   11.35240577
_cell_length_b   11.35240577
_cell_length_c   11.35240577
_cell_angle_alpha   133.78550470
_cell_angle_beta   128.67912913
_cell_angle_gamma   71.52330599
_symmetry_Int_Tables_number   1
_chemical_formula_structural   K4Eu(PS4)2
_chemical_formula_sum   'K8 Eu2 P4 S16'
_cell_volume   807.05132860
_cell_formula_units_Z   2
loop_
 _symmetry_equiv_pos_site_id
 _symmetry_equiv_pos_as_xyz
  1  'x, y, z'
loop_
 _atom_site_type_symbol
 _atom_site_label
 _atom_site_symmetry_multiplicity
 _atom_site_fract_x
 _atom_site_fract_y
 _atom_site_fract_z
 _atom_site_occupancy
  K  K0  1  0.91775900  0.79771700  0.87995800  1
  K  K1  1  0.49369100  0.74369100  0.75000000  1
  K  K2  1  0.08224100  0.20228300  0.12004200  1
  K  K3  1  0.00630900  0.25630900  0.75000000  1
  K  K4  1  0.58224100  0.96219900  0.37995800  1
  K  K5  1  0.50630900  0.25630900  0.25000000  1
  K  K6  1  0.99369100  0.74369100  0.25000000  1
  K  K7  1  0.41775900  0.03780100  0.62004200  1
  Eu  Eu0  1  0.25000000  0.50000000  0.75000000  1
  Eu  Eu1  1  0.75000000  0.50000000  0.25000000  1
  P  P0  1  0.12801000  0.83358700  0.70557700  1
  P  P1  1  0.87199000  0.16641300  0.29442300  1
  P  P2  1  0.62801000  0.42243300  0.79442300  1
  P  P3  1  0.37199000  0.57756700  0.20557700  1
  S  S0  1  0.39447300  0.37017100  0.97569800  1
  S  S1  1  0.74883100  0.28294500  0.87015200  1
  S  S2  1  0.91279300  0.87867800  0.62984800  1
  S  S3  1  0.41279300  0.28294500  0.53411500  1
  S  S4  1  0.08720700  0.12132200  0.37015200  1
  S  S5  1  0.60552700  0.62982900  0.02430200  1
  S  S6  1  0.26236400  0.50693700  0.24457300  1
  S  S7  1  0.89447300  0.41877600  0.52430200  1
  S  S8  1  0.58720700  0.71705500  0.46588500  1
  S  S9  1  0.76236400  0.01779200  0.25542700  1
  S  S10  1  0.24883100  0.87867800  0.96588500  1
  S  S11  1  0.10552700  0.58122400  0.47569800  1
  S  S12  1  0.75116900  0.12132200  0.03411500  1
  S  S13  1  0.25116900  0.71705500  0.12984800  1
  S  S14  1  0.73763600  0.49306300  0.75542700  1
  S  S15  1  0.23763600  0.98220800  0.74457300  1
loop_
_geom_bond_atom_site_label_1
_geom_bond_atom_site_label_2
_geom_bond_distance
_geom_bond_site_symmetry_2
K0 S7 3.198004 1_555
K0 S4 3.312249 1_666
K0 S12 3.312256 1_566
K0 S13 3.345106 1_656
K0 S8 3.345112 1_555
K0 S14 3.499178 1_555
K0 S2 3.505492 1_555
K0 S10 3.505503 1_655
K1 S15 3.286865 1_555
K1 S14 3.286872 1_555
K1 S6 3.367541 1_555
K1 S9 3.367542 1_566
K1 S5 3.545190 1_556
K1 S11 3.545194 1_555
K2 S11 3.198004 1_555
K2 S2 3.312249 1_444
K2 S10 3.312256 1_544
K2 S1 3.345106 1_454
K2 S3 3.345112 1_555
K2 S6 3.499178 1_555
K2 S4 3.505492 1_555
K2 S12 3.505503 1_455
K3 S6 3.286872 1_556
K3 S9 3.286873 1_455
K3 S14 3.367541 1_455
K3 S15 3.367549 1_545
K3 S0 3.545190 1_555
K3 S7 3.545201 1_455
K4 S5 3.198010 1_555
K4 S1 3.312248 1_565
K4 S3 3.312249 1_565
K4 S10 3.345108 1_554
K4 S2 3.345112 1_555
K4 S9 3.499185 1_565
K4 S8 3.505492 1_555
K4 S13 3.505501 1_555
K5 S9 3.286865 1_555
K5 S6 3.286872 1_555
K5 S14 3.367541 1_555
K5 S15 3.367542 1_544
K5 S0 3.545190 1_554
K5 S7 3.545194 1_555
K6 S14 3.286872 1_554
K6 S15 3.286873 1_655
K6 S6 3.367541 1_655
K6 S9 3.367549 1_565
K6 S5 3.545190 1_555
K6 S11 3.545201 1_655
K7 S0 3.198010 1_555
K7 S13 3.312248 1_545
K7 S8 3.312249 1_545
K7 S12 3.345108 1_556
K7 S4 3.345112 1_555
K7 S15 3.499185 1_545
K7 S3 3.505492 1_555
K7 S1 3.505501 1_555
Eu0 S11 3.141436 1_555
Eu0 S7 3.141444 1_455
Eu0 S5 3.141445 1_556
Eu0 S0 3.141445 1_555
Eu0 S10 3.148176 1_555
Eu0 S3 3.148176 1_555
Eu0 S4 3.148176 1_555
Eu0 S13 3.148183 1_556
Eu1 S7 3.141436 1_555
Eu1 S11 3.141444 1_655
Eu1 S5 3.141445 1_555
Eu1 S0 3.141445 1_554
Eu1 S12 3.148176 1_555
Eu1 S2 3.148176 1_555
Eu1 S8 3.148176 1_555
Eu1 S1 3.148183 1_554
P0 S10 2.039952 1_555
P0 S2 2.039954 1_455
P0 S15 2.049405 1_555
P0 S11 2.089825 1_555
P1 S12 2.039952 1_555
P1 S4 2.039954 1_655
P1 S9 2.049405 1_555
P1 S7 2.089825 1_555
P2 S3 2.039954 1_555
P2 S1 2.039956 1_555
P2 S14 2.049414 1_555
P2 S5 2.089819 1_556
P3 S8 2.039954 1_555
P3 S13 2.039956 1_555
P3 S6 2.049414 1_555
P3 S0 2.089819 1_554
