# generated using pymatgen
data_La4Sm4Co7CuO24
_symmetry_space_group_name_H-M   'P 1'
_cell_length_a   7.65525856
_cell_length_b   7.65525856
_cell_length_c   7.65100875
_cell_angle_alpha   89.91533403
_cell_angle_beta   89.91533403
_cell_angle_gamma   90.14346480
_symmetry_Int_Tables_number   1
_chemical_formula_structural   La4Sm4Co7CuO24
_chemical_formula_sum   'La4 Sm4 Co7 Cu1 O24'
_cell_volume   448.36955375
_cell_formula_units_Z   1
loop_
 _symmetry_equiv_pos_site_id
 _symmetry_equiv_pos_as_xyz
  1  'x, y, z'
loop_
 _atom_site_type_symbol
 _atom_site_label
 _atom_site_symmetry_multiplicity
 _atom_site_fract_x
 _atom_site_fract_y
 _atom_site_fract_z
 _atom_site_occupancy
  La  La0  1  0.74998300  0.24994800  0.25070000  1
  La  La1  1  0.25045600  0.25045600  0.25098100  1
  La  La2  1  0.24994800  0.74998300  0.25070000  1
  La  La3  1  0.74957100  0.74957100  0.74914000  1
  Sm  Sm0  1  0.74935500  0.74935500  0.25050600  1
  Sm  Sm1  1  0.74990300  0.25033000  0.74890900  1
  Sm  Sm2  1  0.25066900  0.25066900  0.74953100  1
  Sm  Sm3  1  0.25033000  0.74990300  0.74890900  1
  Co  Co0  1  0.99992200  0.50000900  0.99939400  1
  Co  Co1  1  0.49997200  0.49997200  0.99987700  1
  Co  Co2  1  0.00001000  0.00001000  0.99930700  1
  Co  Co3  1  0.50000900  0.99992200  0.99939400  1
  Co  Co4  1  0.00003300  0.49998200  0.50033400  1
  Co  Co5  1  0.50010900  0.50010900  0.50079200  1
  Co  Co6  1  0.49998200  0.00003300  0.50033400  1
  Cu  Cu0  1  0.99999400  0.99999400  0.50032600  1
  O  O0  1  0.99842300  0.50177900  0.25088300  1
  O  O1  1  0.50177100  0.50177100  0.24621100  1
  O  O2  1  0.99809200  0.99809200  0.24591500  1
  O  O3  1  0.50177900  0.99842300  0.25088300  1
  O  O4  1  0.00150000  0.49835300  0.74902700  1
  O  O5  1  0.49829500  0.49829500  0.75443200  1
  O  O6  1  0.00182600  0.00182600  0.75414200  1
  O  O7  1  0.49835300  0.00150000  0.74902700  1
  O  O8  1  0.00092000  0.24829800  0.99618200  1
  O  O9  1  0.49957500  0.25059700  0.99619800  1
  O  O10  1  0.99918100  0.75162600  0.99972300  1
  O  O11  1  0.50039600  0.74936100  0.99928000  1
  O  O12  1  0.99985400  0.25406000  0.50471200  1
  O  O13  1  0.50062900  0.24658800  0.50351400  1
  O  O14  1  0.00012000  0.74593400  0.50013200  1
  O  O15  1  0.49920700  0.75336900  0.50043200  1
  O  O16  1  0.74936100  0.50039600  0.99928000  1
  O  O17  1  0.25059700  0.49957500  0.99619800  1
  O  O18  1  0.75162600  0.99918100  0.99972300  1
  O  O19  1  0.24829800  0.00092000  0.99618200  1
  O  O20  1  0.75336900  0.49920700  0.50043200  1
  O  O21  1  0.24658800  0.50062900  0.50351400  1
  O  O22  1  0.74593400  0.00012000  0.50013200  1
  O  O23  1  0.25406000  0.99985400  0.50471200  1
loop_
_geom_bond_atom_site_label_1
_geom_bond_atom_site_label_2
_geom_bond_distance
_geom_bond_site_symmetry_2
La0 O22 2.699883 1_555
La0 O3 2.701744 1_545
La0 O20 2.702431 1_555
La0 O0 2.704683 1_555
La0 O2 2.710063 1_545
La0 O1 2.710406 1_555
La0 O16 2.713913 1_554
La0 O13 2.715619 1_555
La0 O18 2.717272 1_544
La0 O12 2.729057 1_555
La0 O8 2.733413 1_654
La0 O9 2.734466 1_554
La1 O1 2.717539 1_555
La1 O21 2.722649 1_555
La1 O13 2.722649 1_555
La1 O17 2.725045 1_554
La1 O9 2.725045 1_554
La1 O12 2.727483 1_455
La1 O23 2.727483 1_545
La1 O3 2.728121 1_545
La1 O0 2.728121 1_455
La1 O2 2.729069 1_445
La1 O19 2.731437 1_554
La1 O8 2.731437 1_554
La2 O14 2.699883 1_555
La2 O0 2.701744 1_455
La2 O15 2.702431 1_555
La2 O3 2.704683 1_555
La2 O2 2.710063 1_455
La2 O1 2.710406 1_555
La2 O11 2.713913 1_554
La2 O21 2.715619 1_555
La2 O10 2.717272 1_454
La2 O23 2.729057 1_555
La2 O19 2.733413 1_564
La2 O17 2.734466 1_554
La3 O11 2.700085 1_555
La3 O16 2.700085 1_555
La3 O14 2.701635 1_655
La3 O22 2.701635 1_565
La3 O20 2.702962 1_555
La3 O15 2.702962 1_555
La3 O18 2.708872 1_555
La3 O10 2.708872 1_555
La3 O5 2.717166 1_555
La3 O4 2.726988 1_655
La3 O7 2.726988 1_565
La3 O6 2.727883 1_665
Co0 O4 1.915641 1_655
Co0 O16 1.918120 1_555
Co0 O17 1.919113 1_655
Co0 O0 1.924230 1_556
Co0 O10 1.926221 1_555
Co0 O8 1.927140 1_655
Co1 O5 1.878027 1_555
Co1 O1 1.884845 1_556
Co1 O16 1.909131 1_555
Co1 O11 1.909131 1_555
Co1 O9 1.909274 1_555
Co1 O17 1.909274 1_555
Co2 O6 1.875821 1_555
Co2 O2 1.886871 1_446
Co2 O8 1.900819 1_555
Co2 O19 1.900819 1_555
Co2 O18 1.901436 1_445
Co2 O10 1.901436 1_445
Co3 O7 1.915641 1_565
Co3 O11 1.918120 1_555
Co3 O9 1.919113 1_565
Co3 O3 1.924230 1_556
Co3 O18 1.926221 1_555
Co3 O19 1.927140 1_565
Co4 O14 1.882823 1_555
Co4 O12 1.882842 1_455
Co4 O21 1.887629 1_555
Co4 O20 1.888270 1_455
Co4 O4 1.902825 1_555
Co4 O0 1.908639 1_455
Co5 O20 1.938798 1_555
Co5 O15 1.938798 1_555
Co5 O5 1.940660 1_555
Co5 O13 1.940864 1_555
Co5 O21 1.940864 1_555
Co5 O1 1.947847 1_555
Co6 O22 1.882823 1_555
Co6 O23 1.882842 1_545
Co6 O13 1.887629 1_555
Co6 O15 1.888270 1_545
Co6 O7 1.902825 1_555
Co6 O3 1.908639 1_545
Cu0 O6 1.942091 1_665
Cu0 O22 1.944900 1_565
Cu0 O14 1.944900 1_655
Cu0 O12 1.945283 1_565
Cu0 O23 1.945283 1_655
Cu0 O2 1.946652 1_555
O0 Sm0 2.691754 1_555
O1 Sm0 2.677299 1_555
O2 Sm0 2.689652 1_555
O3 Sm0 2.691754 1_555
O4 Sm2 2.692887 1_555
O4 Sm1 2.701169 1_455
O4 Sm3 2.705245 1_555
O5 Sm2 2.677824 1_555
O5 Sm1 2.708015 1_555
O5 Sm3 2.708015 1_555
O6 Sm2 2.690799 1_555
O6 Sm1 2.712602 1_455
O6 Sm3 2.712602 1_545
O7 Sm2 2.692887 1_555
O7 Sm3 2.701169 1_545
O7 Sm1 2.705245 1_555
O8 Sm2 2.684396 1_555
O8 Sm1 2.698673 1_455
O9 Sm2 2.683850 1_555
O9 Sm1 2.690971 1_555
O10 Sm0 2.707094 1_556
O10 Sm3 2.714477 1_655
O11 Sm0 2.708813 1_556
O11 Sm3 2.710162 1_555
O12 Sm1 2.672417 1_555
O12 Sm2 2.684505 1_655
O13 Sm1 2.679145 1_555
O13 Sm2 2.682404 1_555
O14 Sm3 2.702468 1_555
O14 Sm0 2.710064 1_455
O15 Sm3 2.689541 1_555
O15 Sm0 2.704454 1_555
O16 Sm0 2.708813 1_556
O16 Sm1 2.710162 1_555
O17 Sm2 2.683850 1_555
O17 Sm3 2.690971 1_555
O18 Sm0 2.707094 1_556
O18 Sm1 2.714477 1_565
O19 Sm2 2.684396 1_555
O19 Sm3 2.698673 1_545
O20 Sm1 2.689541 1_555
O20 Sm0 2.704454 1_555
O21 Sm3 2.679145 1_555
O21 Sm2 2.682404 1_555
O22 Sm1 2.702468 1_555
O22 Sm0 2.710064 1_545
O23 Sm3 2.672417 1_555
O23 Sm2 2.684505 1_565
