# generated using pymatgen
data_Ba(CoSn4)2
_symmetry_space_group_name_H-M   'P 1'
_cell_length_a   9.16616749
_cell_length_b   9.16616749
_cell_length_c   14.25861500
_cell_angle_alpha   90.00000000
_cell_angle_beta   90.00000000
_cell_angle_gamma   112.20664345
_symmetry_Int_Tables_number   1
_chemical_formula_structural   Ba(CoSn4)2
_chemical_formula_sum   'Ba4 Co8 Sn32'
_cell_volume   1109.13051245
_cell_formula_units_Z   4
loop_
 _symmetry_equiv_pos_site_id
 _symmetry_equiv_pos_as_xyz
  1  'x, y, z'
loop_
 _atom_site_type_symbol
 _atom_site_label
 _atom_site_symmetry_multiplicity
 _atom_site_fract_x
 _atom_site_fract_y
 _atom_site_fract_z
 _atom_site_occupancy
  Ba  Ba0  1  0.79327000  0.10359500  0.50000000  1
  Ba  Ba1  1  0.20673000  0.89640500  0.50000000  1
  Ba  Ba2  1  0.89640500  0.20673000  0.00000000  1
  Ba  Ba3  1  0.10359500  0.79327000  0.00000000  1
  Co  Co0  1  0.27888000  0.57195000  0.67031800  1
  Co  Co1  1  0.72112000  0.42805000  0.67031800  1
  Co  Co2  1  0.42805000  0.72112000  0.82968200  1
  Co  Co3  1  0.57195000  0.27888000  0.82968200  1
  Co  Co4  1  0.72112000  0.42805000  0.32968200  1
  Co  Co5  1  0.27888000  0.57195000  0.32968200  1
  Co  Co6  1  0.57195000  0.27888000  0.17031800  1
  Co  Co7  1  0.42805000  0.72112000  0.17031800  1
  Sn  Sn0  1  0.39532200  0.59130200  0.50000000  1
  Sn  Sn1  1  0.60467800  0.40869800  0.50000000  1
  Sn  Sn2  1  0.40869800  0.60467800  0.00000000  1
  Sn  Sn3  1  0.59130200  0.39532200  0.00000000  1
  Sn  Sn4  1  0.00000000  0.00000000  0.75000000  1
  Sn  Sn5  1  0.00000000  0.00000000  0.25000000  1
  Sn  Sn6  1  0.20599700  0.79400300  0.75000000  1
  Sn  Sn7  1  0.79400300  0.20599700  0.75000000  1
  Sn  Sn8  1  0.79400300  0.20599700  0.25000000  1
  Sn  Sn9  1  0.20599700  0.79400300  0.25000000  1
  Sn  Sn10  1  0.00000000  0.50000000  0.60591100  1
  Sn  Sn11  1  0.50000000  0.00000000  0.89408900  1
  Sn  Sn12  1  0.00000000  0.50000000  0.39408900  1
  Sn  Sn13  1  0.50000000  0.00000000  0.10591100  1
  Sn  Sn14  1  0.53699100  0.84075000  0.66464200  1
  Sn  Sn15  1  0.46300900  0.15925000  0.66464200  1
  Sn  Sn16  1  0.15925000  0.46300900  0.83535800  1
  Sn  Sn17  1  0.84075000  0.53699100  0.83535800  1
  Sn  Sn18  1  0.46300900  0.15925000  0.33535800  1
  Sn  Sn19  1  0.53699100  0.84075000  0.33535800  1
  Sn  Sn20  1  0.84075000  0.53699100  0.16464200  1
  Sn  Sn21  1  0.15925000  0.46300900  0.16464200  1
  Sn  Sn22  1  0.19452100  0.27803600  0.61482600  1
  Sn  Sn23  1  0.80547900  0.72196400  0.61482600  1
  Sn  Sn24  1  0.72196400  0.80547900  0.88517400  1
  Sn  Sn25  1  0.27803600  0.19452100  0.88517400  1
  Sn  Sn26  1  0.80547900  0.72196400  0.38517400  1
  Sn  Sn27  1  0.19452100  0.27803600  0.38517400  1
  Sn  Sn28  1  0.27803600  0.19452100  0.11482600  1
  Sn  Sn29  1  0.72196400  0.80547900  0.11482600  1
  Sn  Sn30  1  0.50000000  0.50000000  0.75000000  1
  Sn  Sn31  1  0.50000000  0.50000000  0.25000000  1
loop_
_geom_bond_atom_site_label_1
_geom_bond_atom_site_label_2
_geom_bond_distance
_geom_bond_site_symmetry_2
Ba0 Sn14 3.543425 1_545
Ba0 Sn19 3.543425 1_545
Ba0 Sn8 3.685521 1_555
Ba0 Sn7 3.685521 1_555
Ba0 Sn10 3.724134 1_655
Ba0 Sn12 3.724134 1_655
Ba0 Sn22 3.784067 1_655
Ba0 Sn27 3.784067 1_655
Ba0 Sn1 3.803121 1_555
Ba0 Sn23 3.902014 1_545
Ba0 Sn26 3.902014 1_545
Ba0 Sn15 4.012826 1_555
Ba0 Sn18 4.012826 1_555
Ba1 Sn15 3.543425 1_565
Ba1 Sn18 3.543425 1_565
Ba1 Sn9 3.685521 1_555
Ba1 Sn6 3.685521 1_555
Ba1 Sn10 3.724134 1_555
Ba1 Sn12 3.724134 1_555
Ba1 Sn23 3.784067 1_455
Ba1 Sn26 3.784067 1_455
Ba1 Sn0 3.803121 1_555
Ba1 Sn22 3.902014 1_565
Ba1 Sn27 3.902014 1_565
Ba1 Sn14 4.012826 1_555
Ba1 Sn19 4.012826 1_555
Ba2 Sn21 3.543425 1_655
Ba2 Sn16 3.543425 1_654
Ba2 Sn7 3.685521 1_554
Ba2 Sn8 3.685521 1_555
Ba2 Sn13 3.724134 1_555
Ba2 Sn11 3.724134 1_554
Ba2 Sn29 3.784067 1_545
Ba2 Sn24 3.784067 1_544
Ba2 Sn3 3.803121 1_555
Ba2 Sn28 3.902014 1_655
Ba2 Sn25 3.902014 1_654
Ba2 Sn20 4.012826 1_555
Ba2 Sn17 4.012826 1_554
Ba3 Sn20 3.543425 1_455
Ba3 Sn17 3.543425 1_454
Ba3 Sn6 3.685521 1_554
Ba3 Sn9 3.685521 1_555
Ba3 Sn13 3.724134 1_565
Ba3 Sn11 3.724134 1_564
Ba3 Sn28 3.784067 1_565
Ba3 Sn25 3.784067 1_564
Ba3 Sn2 3.803121 1_555
Ba3 Sn29 3.902014 1_455
Ba3 Sn24 3.902014 1_454
Ba3 Sn21 4.012826 1_555
Ba3 Sn16 4.012826 1_554
Co0 Sn10 2.557039 1_555
Co0 Sn30 2.616145 1_555
Co0 Sn22 2.628172 1_555
Co0 Sn6 2.628256 1_555
Co0 Sn16 2.628615 1_555
Co0 Sn0 2.631567 1_555
Co0 Sn14 2.695982 1_555
Co1 Sn10 2.557039 1_655
Co1 Sn30 2.616145 1_555
Co1 Sn23 2.628172 1_555
Co1 Sn7 2.628256 1_555
Co1 Sn17 2.628615 1_555
Co1 Sn1 2.631567 1_555
Co1 Sn15 2.695982 1_555
Co2 Sn11 2.557039 1_565
Co2 Sn30 2.616145 1_555
Co2 Sn24 2.628172 1_555
Co2 Sn6 2.628256 1_555
Co2 Sn14 2.628615 1_555
Co2 Sn2 2.631567 1_556
Co2 Sn16 2.695982 1_555
Co3 Sn11 2.557039 1_555
Co3 Sn30 2.616145 1_555
Co3 Sn25 2.628172 1_555
Co3 Sn7 2.628256 1_555
Co3 Sn15 2.628615 1_555
Co3 Sn3 2.631567 1_556
Co3 Sn17 2.695982 1_555
Co4 Sn12 2.557039 1_655
Co4 Sn31 2.616145 1_555
Co4 Sn26 2.628172 1_555
Co4 Sn8 2.628256 1_555
Co4 Sn20 2.628615 1_555
Co4 Sn1 2.631567 1_555
Co4 Sn18 2.695982 1_555
Co5 Sn12 2.557039 1_555
Co5 Sn31 2.616145 1_555
Co5 Sn27 2.628172 1_555
Co5 Sn9 2.628256 1_555
Co5 Sn21 2.628615 1_555
Co5 Sn0 2.631567 1_555
Co5 Sn19 2.695982 1_555
Co6 Sn13 2.557039 1_555
Co6 Sn31 2.616145 1_555
Co6 Sn28 2.628172 1_555
Co6 Sn8 2.628256 1_555
Co6 Sn18 2.628615 1_555
Co6 Sn3 2.631567 1_555
Co6 Sn20 2.695982 1_555
Co7 Sn13 2.557039 1_565
Co7 Sn31 2.616145 1_555
Co7 Sn29 2.628172 1_555
Co7 Sn9 2.628256 1_555
Co7 Sn19 2.628615 1_555
Co7 Sn2 2.631567 1_555
Co7 Sn21 2.695982 1_555
Sn0 Sn1 2.985294 1_555
Sn0 Sn14 3.190764 1_555
Sn0 Sn19 3.190764 1_555
Sn0 Sn22 3.212251 1_555
Sn0 Sn27 3.212251 1_555
Sn1 Sn15 3.190764 1_555
Sn1 Sn18 3.190764 1_555
Sn1 Sn23 3.212251 1_555
Sn1 Sn26 3.212251 1_555
Sn2 Sn3 2.985294 1_555
Sn2 Sn21 3.190764 1_555
Sn2 Sn29 3.212251 1_555
Sn2 Sn24 3.212251 1_554
Sn4 Sn6 3.134585 1_545
Sn4 Sn7 3.134585 1_455
Sn5 Sn9 3.134585 1_545
Sn5 Sn8 3.134585 1_455
Sn16 Sn2 3.190764 1_556
Sn17 Sn3 3.190764 1_556
Sn20 Sn3 3.190764 1_555
Sn22 Sn4 3.155016 1_555
Sn23 Sn4 3.155016 1_665
Sn24 Sn4 3.155016 1_665
Sn25 Sn4 3.155016 1_555
Sn25 Sn3 3.212251 1_556
Sn26 Sn5 3.155016 1_665
Sn27 Sn5 3.155016 1_555
Sn28 Sn5 3.155016 1_555
Sn28 Sn3 3.212251 1_555
Sn29 Sn5 3.155016 1_665
