# generated using pymatgen
data_MgTi3Fe2Co(PO4)6
_symmetry_space_group_name_H-M   'P 1'
_cell_length_a   8.54144408
_cell_length_b   8.75197562
_cell_length_c   8.76987047
_cell_angle_alpha   60.11376925
_cell_angle_beta   59.80589943
_cell_angle_gamma   59.46875589
_symmetry_Int_Tables_number   1
_chemical_formula_structural   MgTi3Fe2Co(PO4)6
_chemical_formula_sum   'Mg1 Ti3 Fe2 Co1 P6 O24'
_cell_volume   461.39550043
_cell_formula_units_Z   1
loop_
 _symmetry_equiv_pos_site_id
 _symmetry_equiv_pos_as_xyz
  1  'x, y, z'
loop_
 _atom_site_type_symbol
 _atom_site_label
 _atom_site_symmetry_multiplicity
 _atom_site_fract_x
 _atom_site_fract_y
 _atom_site_fract_z
 _atom_site_occupancy
  Mg  Mg0  1  0.47812700  0.52967600  0.50671800  1
  Ti  Ti0  1  0.05396500  0.65181600  0.65331400  1
  Ti  Ti1  1  0.41187000  0.86946500  0.86630900  1
  Ti  Ti2  1  0.92978900  0.37947900  0.34825200  1
  Fe  Fe0  1  0.98929700  0.01312000  0.98932400  1
  Fe  Fe1  1  0.74760200  0.14055900  0.37001600  1
  Co  Co0  1  0.55045500  0.15668400  0.14895800  1
  P  P0  1  0.25850300  0.26127700  0.54527200  1
  P  P1  1  0.22905500  0.96588500  0.25761300  1
  P  P2  1  0.23743600  0.56089200  0.95686600  1
  P  P3  1  0.73683700  0.47025800  0.04767100  1
  P  P4  1  0.73021000  0.05550700  0.75796800  1
  P  P5  1  0.73538500  0.75377500  0.47220400  1
  O  O0  1  0.02997600  0.12148100  0.31888800  1
  O  O1  1  0.04794700  0.52413500  0.11004200  1
  O  O2  1  0.09700800  0.31790300  0.47692200  1
  O  O3  1  0.22307900  0.10596900  0.73987600  1
  O  O4  1  0.45931300  0.19629200  0.40333500  1
  O  O5  1  0.26150500  0.42406200  0.57126900  1
  O  O6  1  0.21443600  0.94709800  0.09723400  1
  O  O7  1  0.24661700  0.77165900  0.41795300  1
  O  O8  1  0.55606500  0.62254600  0.00333900  1
  O  O9  1  0.25480100  0.58229800  0.76111300  1
  O  O10  1  0.77004000  0.26508500  0.07394100  1
  O  O11  1  0.54609700  0.01279500  0.83353000  1
  O  O12  1  0.39792400  0.01487300  0.20565800  1
  O  O13  1  0.20836700  0.75855300  0.94409000  1
  O  O14  1  0.70747800  0.45235100  0.24828000  1
  O  O15  1  0.41341100  0.40734600  0.00206000  1
  O  O16  1  0.70718800  0.24296500  0.58367900  1
  O  O17  1  0.76329300  0.07529900  0.90266000  1
  O  O18  1  0.71052100  0.60421900  0.44669300  1
  O  O19  1  0.55490800  0.82228600  0.62747200  1
  O  O20  1  0.76813500  0.92155100  0.28708000  1
  O  O21  1  0.91618800  0.66851100  0.52537100  1
  O  O22  1  0.91894000  0.51219600  0.89670400  1
  O  O23  1  0.90385000  0.89870900  0.68089400  1
loop_
_geom_bond_atom_site_label_1
_geom_bond_atom_site_label_2
_geom_bond_distance
_geom_bond_site_symmetry_2
Mg0 O18 2.136663 1_555
Mg0 O7 2.156825 1_555
Mg0 O9 2.163073 1_555
Mg0 O5 2.181958 1_555
Mg0 O14 2.268934 1_555
Mg0 O16 2.287444 1_555
Fe0 O13 2.126253 1_645
Fe0 O17 2.143944 1_555
Fe0 O3 2.217325 1_655
Fe0 O10 2.226604 1_556
Fe0 O6 2.254788 1_646
Fe0 O20 2.349560 1_546
Fe1 O4 2.141193 1_555
Fe1 O0 2.150292 1_655
Fe1 O10 2.204107 1_555
Fe1 O16 2.267645 1_555
Fe1 O20 2.270065 1_545
Fe1 O14 2.284329 1_555
Co0 O12 1.965007 1_555
Co0 O15 1.983391 1_555
Co0 O4 2.110100 1_555
Co0 O17 2.178462 1_554
Co0 O10 2.189842 1_555
Co0 O20 2.247863 1_545
O0 P1 1.578638 1_545
O0 Ti2 2.071653 1_455
O1 P2 1.561734 1_554
O1 Ti2 1.878122 1_455
O2 P0 1.532559 1_555
O2 Ti2 1.958789 1_455
O3 P0 1.561549 1_555
O3 Ti1 2.057717 1_545
O4 P0 1.543271 1_555
O5 P0 1.564952 1_555
O5 Ti0 2.046853 1_555
O6 P1 1.564883 1_555
O6 Ti1 2.044197 1_554
O7 P1 1.568554 1_555
O7 Ti0 2.061064 1_555
O8 P3 1.519272 1_555
O8 Ti1 1.956435 1_554
O9 P2 1.567116 1_555
O9 Ti0 2.050424 1_555
O10 P3 1.579232 1_555
O11 P4 1.534309 1_555
O11 Ti1 1.934165 1_545
O12 P1 1.498158 1_545
O13 P2 1.570114 1_555
O13 Ti1 2.071409 1_555
O14 P3 1.582411 1_555
O14 Ti2 2.160550 1_555
O15 P2 1.496138 1_554
O16 P4 1.594397 1_555
O16 Ti2 2.281771 1_555
O17 P4 1.532804 1_555
O18 P5 1.558993 1_555
O18 Ti2 2.108272 1_555
O19 P5 1.534012 1_555
O19 Ti1 1.955936 1_555
O20 P5 1.566832 1_555
O21 P5 1.538133 1_555
O21 Ti0 1.911888 1_655
O22 P3 1.526864 1_556
O22 Ti0 1.932818 1_655
O23 P4 1.545275 1_565
O23 Ti0 1.940500 1_655
