# generated using pymatgen
data_CsNd(SeO6)2
_symmetry_space_group_name_H-M   'P 1'
_cell_length_a   18.27040100
_cell_length_b   6.60561900
_cell_length_c   10.15261296
_cell_angle_alpha   89.92386417
_cell_angle_beta   90.00000000
_cell_angle_gamma   90.00000000
_symmetry_Int_Tables_number   1
_chemical_formula_structural   CsNd(SeO6)2
_chemical_formula_sum   'Cs4 Nd4 Se8 O48'
_cell_volume   1225.29044578
_cell_formula_units_Z   4
loop_
 _symmetry_equiv_pos_site_id
 _symmetry_equiv_pos_as_xyz
  1  'x, y, z'
loop_
 _atom_site_type_symbol
 _atom_site_label
 _atom_site_symmetry_multiplicity
 _atom_site_fract_x
 _atom_site_fract_y
 _atom_site_fract_z
 _atom_site_occupancy
  Cs  Cs0  1  0.18331800  0.83678900  0.84006000  1
  Cs  Cs1  1  0.68331800  0.16321100  0.65994000  1
  Cs  Cs2  1  0.81668200  0.16321100  0.15994000  1
  Cs  Cs3  1  0.31668200  0.83678900  0.34006000  1
  Nd  Nd0  1  0.37256300  0.37531500  0.71318900  1
  Nd  Nd1  1  0.87256300  0.62468500  0.78681100  1
  Nd  Nd2  1  0.62743700  0.62468500  0.28681100  1
  Nd  Nd3  1  0.12743700  0.37531500  0.21318900  1
  Se  Se0  1  0.44137200  0.82650500  0.69945100  1
  Se  Se1  1  0.94137200  0.17349500  0.80054900  1
  Se  Se2  1  0.55862800  0.17349500  0.30054900  1
  Se  Se3  1  0.05862800  0.82650500  0.19945100  1
  Se  Se4  1  0.20971200  0.39546900  0.57651500  1
  Se  Se5  1  0.70971200  0.60453100  0.92348500  1
  Se  Se6  1  0.79028800  0.60453100  0.42348500  1
  Se  Se7  1  0.29028800  0.39546900  0.07651500  1
  O  O0  1  0.37519100  0.00677600  0.70244700  1
  O  O1  1  0.87519100  0.99322400  0.79755300  1
  O  O2  1  0.62480900  0.99322400  0.29755300  1
  O  O3  1  0.12480900  0.00677600  0.20244700  1
  O  O4  1  0.42423200  0.67625300  0.82918400  1
  O  O5  1  0.92423200  0.32374700  0.67081600  1
  O  O6  1  0.57576800  0.32374700  0.17081600  1
  O  O7  1  0.07576800  0.67625300  0.32918400  1
  O  O8  1  0.52266200  0.94516000  0.69981900  1
  O  O9  1  0.02266200  0.05484000  0.80018100  1
  O  O10  1  0.47733800  0.05484000  0.30018100  1
  O  O11  1  0.97733800  0.94516000  0.19981900  1
  O  O12  1  0.42990600  0.66627900  0.57283400  1
  O  O13  1  0.92990600  0.33372100  0.92716600  1
  O  O14  1  0.57009400  0.33372100  0.42716600  1
  O  O15  1  0.07009400  0.66627900  0.07283400  1
  O  O16  1  0.25609300  0.18386600  0.62806700  1
  O  O17  1  0.75609300  0.81613400  0.87193300  1
  O  O18  1  0.74390700  0.81613400  0.37193300  1
  O  O19  1  0.24390700  0.18386600  0.12806700  1
  O  O20  1  0.19430900  0.37597200  0.41407700  1
  O  O21  1  0.69430900  0.62402800  0.08592300  1
  O  O22  1  0.80569100  0.62402800  0.58592300  1
  O  O23  1  0.30569100  0.37597200  0.91407700  1
  O  O24  1  0.27412200  0.57622100  0.60491700  1
  O  O25  1  0.77412200  0.42377900  0.89508300  1
  O  O26  1  0.72587800  0.42377900  0.39508300  1
  O  O27  1  0.22587800  0.57622100  0.10491700  1
  O  O28  1  0.13614200  0.42998900  0.66581600  1
  O  O29  1  0.63614200  0.57001100  0.83418400  1
  O  O30  1  0.86385800  0.57001100  0.33418400  1
  O  O31  1  0.36385800  0.42998900  0.16581600  1
  O  O32  1  0.13785300  0.19556200  0.00824200  1
  O  O33  1  0.63785300  0.80443800  0.49175800  1
  O  O34  1  0.86214700  0.80443800  0.99175800  1
  O  O35  1  0.36214700  0.19556200  0.50824200  1
  O  O36  1  0.47335600  0.27286200  0.92924600  1
  O  O37  1  0.97335600  0.72713800  0.57075400  1
  O  O38  1  0.52664400  0.72713800  0.07075400  1
  O  O39  1  0.02664400  0.27286200  0.42924600  1
  O  O40  1  0.00569500  0.72956100  0.83206800  1
  O  O41  1  0.50569500  0.27043900  0.66793200  1
  O  O42  1  0.99430500  0.27043900  0.16793200  1
  O  O43  1  0.49430500  0.72956100  0.33206800  1
  O  O44  1  0.03910400  0.76898900  0.57859500  1
  O  O45  1  0.53910400  0.23101100  0.92140500  1
  O  O46  1  0.96089600  0.23101100  0.42140500  1
  O  O47  1  0.46089600  0.76898900  0.07859500  1
loop_
_geom_bond_atom_site_label_1
_geom_bond_atom_site_label_2
_geom_bond_distance
_geom_bond_site_symmetry_2
Cs0 O32 3.038549 1_566
Cs0 O27 3.284142 1_556
Cs0 O9 3.294345 1_565
Cs0 O40 3.322656 1_555
Cs0 O28 3.332549 1_555
Cs0 O15 3.335544 1_556
Cs0 O24 3.380109 1_555
Cs0 O16 3.412243 1_565
Cs1 O33 3.038549 1_545
Cs1 O26 3.284142 1_555
Cs1 O8 3.294345 1_545
Cs1 O41 3.322656 1_555
Cs1 O29 3.332549 1_555
Cs1 O14 3.335544 1_555
Cs1 O25 3.380109 1_555
Cs1 O17 3.412243 1_545
Cs2 O34 3.038549 1_544
Cs2 O25 3.284142 1_554
Cs2 O11 3.294345 1_545
Cs2 O42 3.322656 1_555
Cs2 O30 3.332549 1_555
Cs2 O13 3.335544 1_554
Cs2 O26 3.380109 1_555
Cs2 O18 3.412243 1_545
Cs3 O35 3.038549 1_565
Cs3 O24 3.284142 1_555
Cs3 O10 3.294345 1_565
Cs3 O43 3.322656 1_555
Cs3 O31 3.332549 1_555
Cs3 O12 3.335544 1_555
Cs3 O27 3.380109 1_555
Cs3 O19 3.412243 1_565
Nd0 O23 2.377499 1_555
Nd0 O35 2.404613 1_555
Nd0 O0 2.437488 1_555
Nd0 O24 2.490077 1_555
Nd0 O4 2.497183 1_555
Nd0 O41 2.570670 1_555
Nd0 O12 2.610549 1_555
Nd0 O16 2.622454 1_555
Nd0 O36 2.942265 1_555
Nd1 O22 2.377499 1_555
Nd1 O34 2.404613 1_555
Nd1 O1 2.437488 1_555
Nd1 O25 2.490077 1_555
Nd1 O5 2.497183 1_555
Nd1 O40 2.570670 1_655
Nd1 O13 2.610549 1_555
Nd1 O17 2.622454 1_555
Nd1 O37 2.942265 1_555
Nd2 O21 2.377499 1_555
Nd2 O33 2.404613 1_555
Nd2 O2 2.437488 1_555
Nd2 O26 2.490077 1_555
Nd2 O6 2.497183 1_555
Nd2 O43 2.570670 1_555
Nd2 O14 2.610549 1_555
Nd2 O18 2.622454 1_555
Nd2 O38 2.942265 1_555
Nd3 O20 2.377499 1_555
Nd3 O32 2.404613 1_555
Nd3 O3 2.437488 1_555
Nd3 O27 2.490077 1_555
Nd3 O7 2.497183 1_555
Nd3 O42 2.570670 1_455
Nd3 O15 2.610549 1_555
Nd3 O19 2.622454 1_555
Nd3 O39 2.942265 1_555
O0 Se0 1.697375 1_545
O1 Se1 1.697375 1_565
O2 Se2 1.697375 1_565
O3 Se3 1.697375 1_545
O4 Se0 1.677645 1_555
O5 Se1 1.677645 1_555
O6 Se2 1.677645 1_555
O7 Se3 1.677645 1_555
O8 Se0 1.679336 1_555
O9 Se1 1.679336 1_455
O10 Se2 1.679336 1_555
O11 Se3 1.679336 1_655
O12 Se0 1.679342 1_555
O13 Se1 1.679342 1_555
O14 Se2 1.679342 1_555
O15 Se3 1.679342 1_555
O16 Se4 1.715760 1_555
O17 Se5 1.715760 1_555
O18 Se6 1.715760 1_555
O19 Se7 1.715760 1_555
O20 Se4 1.678127 1_555
O21 Se5 1.678127 1_554
O22 Se6 1.678127 1_555
O23 Se7 1.678127 1_556
O24 Se4 1.701323 1_555
O25 Se5 1.701323 1_555
O26 Se6 1.701323 1_555
O27 Se7 1.701323 1_555
O28 Se4 1.637464 1_555
O29 Se5 1.637464 1_555
O30 Se6 1.637464 1_555
O31 Se7 1.637464 1_555
O36 O45 1.235235 1_555
O37 O44 1.235235 1_655
O38 O47 1.235235 1_555
O39 O46 1.235235 1_455
