# generated using pymatgen
data_Li7Mn4CoO12
_symmetry_space_group_name_H-M   'P 1'
_cell_length_a   5.92047843
_cell_length_b   7.77016014
_cell_length_c   10.52961529
_cell_angle_alpha   70.07097006
_cell_angle_beta   104.94614079
_cell_angle_gamma   103.31563740
_symmetry_Int_Tables_number   1
_chemical_formula_structural   Li7Mn4CoO12
_chemical_formula_sum   'Li14 Mn8 Co2 O24'
_cell_volume   434.53954873
_cell_formula_units_Z   2
loop_
 _symmetry_equiv_pos_site_id
 _symmetry_equiv_pos_as_xyz
  1  'x, y, z'
loop_
 _atom_site_type_symbol
 _atom_site_label
 _atom_site_symmetry_multiplicity
 _atom_site_fract_x
 _atom_site_fract_y
 _atom_site_fract_z
 _atom_site_occupancy
  Li  Li0  1  0.33311800  0.33339900  0.99957400  1
  Li  Li1  1  0.83355000  0.33326700  0.00042600  1
  Li  Li2  1  0.54753100  0.66175600  0.25607800  1
  Li  Li3  1  0.03593800  0.66688900  0.25335700  1
  Li  Li4  1  0.61914000  0.00491200  0.74392200  1
  Li  Li5  1  0.13073400  0.99977800  0.74664500  1
  Li  Li6  1  0.95657900  0.34377100  0.75599900  1
  Li  Li7  1  0.46312800  0.34031200  0.75524600  1
  Li  Li8  1  0.70354100  0.32635600  0.24475500  1
  Li  Li9  1  0.21009000  0.32289600  0.24400200  1
  Li  Li10  1  0.36962600  0.01061300  0.24364900  1
  Li  Li11  1  0.86942700  0.00976600  0.24264800  1
  Li  Li12  1  0.79704300  0.65605700  0.75635200  1
  Li  Li13  1  0.29724200  0.65690200  0.75735300  1
  Mn  Mn0  1  0.91799300  0.66311700  0.50265400  1
  Mn  Mn1  1  0.42276800  0.66107100  0.50428000  1
  Mn  Mn2  1  0.74389800  0.00559200  0.49573100  1
  Mn  Mn3  1  0.24866400  0.00355200  0.49733300  1
  Mn  Mn4  1  0.00711100  0.00755800  0.00339400  1
  Mn  Mn5  1  0.50722300  0.00742700  0.00391400  1
  Mn  Mn6  1  0.15955100  0.65909400  0.99659400  1
  Mn  Mn7  1  0.65944000  0.65924300  0.99607800  1
  Co  Co0  1  0.58333400  0.33333300  0.50000100  1
  Co  Co1  1  0.08333100  0.33333200  0.50000000  1
  O  O0  1  0.75882400  0.84639600  0.10589800  1
  O  O1  1  0.25825900  0.84614700  0.10603900  1
  O  O2  1  0.90841300  0.82051700  0.89396600  1
  O  O3  1  0.40784200  0.82026400  0.89410400  1
  O  O4  1  0.70366300  0.49165600  0.62008700  1
  O  O5  1  0.20153700  0.48787700  0.61770300  1
  O  O6  1  0.46300400  0.17500800  0.37991300  1
  O  O7  1  0.96513100  0.17879300  0.38229700  1
  O  O8  1  0.60017500  0.15181000  0.11768500  1
  O  O9  1  0.09988100  0.15179400  0.11743300  1
  O  O10  1  0.06678500  0.51487400  0.88257100  1
  O  O11  1  0.56649200  0.51485800  0.88231500  1
  O  O12  1  0.42264700  0.52822900  0.10856200  1
  O  O13  1  0.92280000  0.52856500  0.10896200  1
  O  O14  1  0.74401700  0.13843600  0.89144100  1
  O  O15  1  0.24386800  0.13810100  0.89104000  1
  O  O16  1  0.83800900  0.18216900  0.60471300  1
  O  O17  1  0.36070100  0.16672800  0.61447500  1
  O  O18  1  0.80596400  0.49994300  0.38552400  1
  O  O19  1  0.32865600  0.48449900  0.39528900  1
  O  O20  1  0.03441100  0.83476600  0.61655800  1
  O  O21  1  0.53605400  0.83314100  0.61687700  1
  O  O22  1  0.63061400  0.83352900  0.38312400  1
  O  O23  1  0.13225200  0.83190600  0.38344100  1
loop_
_geom_bond_atom_site_label_1
_geom_bond_atom_site_label_2
_geom_bond_distance
_geom_bond_site_symmetry_2
Li0 O11 2.053619 1_555
Li0 O9 2.056868 1_556
Li0 O15 2.095100 1_555
Li0 O12 2.095393 1_556
Li0 O10 2.197812 1_555
Li0 O8 2.203297 1_556
Li1 O8 2.053618 1_555
Li1 O10 2.056843 1_654
Li1 O13 2.095115 1_555
Li1 O14 2.095375 1_554
Li1 O9 2.197800 1_655
Li1 O11 2.203311 1_554
Li2 O12 2.046632 1_555
Li2 O22 2.094828 1_555
Li2 O18 2.102812 1_555
Li2 O19 2.122792 1_555
Li2 O0 2.184240 1_555
Li2 O1 2.381878 1_555
Li3 O13 2.042701 1_455
Li3 O23 2.074366 1_555
Li3 O18 2.099155 1_455
Li3 O1 2.194214 1_555
Li3 O0 2.304720 1_455
Li3 O19 2.365765 1_555
Li4 O14 2.046641 1_555
Li4 O21 2.094806 1_545
Li4 O17 2.102852 1_555
Li4 O16 2.122756 1_555
Li4 O3 2.184289 1_545
Li4 O2 2.381913 1_545
Li5 O15 2.042695 1_565
Li5 O20 2.074359 1_555
Li5 O17 2.099154 1_565
Li5 O2 2.194240 1_455
Li5 O3 2.304725 1_555
Li5 O16 2.365799 1_465
Li6 O4 2.043718 1_555
Li6 O10 2.080699 1_655
Li6 O14 2.147778 1_555
Li6 O5 2.169647 1_655
Li6 O16 2.233350 1_555
Li6 O15 2.433973 1_655
Li7 O5 2.083207 1_555
Li7 O11 2.106306 1_555
Li7 O4 2.137623 1_555
Li7 O15 2.164418 1_555
Li7 O17 2.215070 1_555
Li7 O14 2.391776 1_555
Li8 O7 2.083192 1_555
Li8 O8 2.106314 1_555
Li8 O6 2.137629 1_555
Li8 O13 2.164403 1_555
Li8 O18 2.215072 1_555
Li8 O12 2.391778 1_555
Li9 O6 2.043718 1_555
Li9 O9 2.080669 1_555
Li9 O12 2.147743 1_555
Li9 O7 2.169641 1_455
Li9 O19 2.233365 1_555
Li9 O13 2.433971 1_455
Li10 O8 2.019417 1_555
Li10 O9 2.058748 1_555
Li10 O6 2.123906 1_555
Li10 O1 2.132784 1_545
Li10 O23 2.201055 1_545
Li10 O22 2.206564 1_545
Li11 O9 2.015005 1_655
Li11 O8 2.056487 1_555
Li11 O0 2.119055 1_545
Li11 O7 2.179954 1_555
Li11 O22 2.206421 1_545
Li11 O23 2.221028 1_645
Li12 O11 2.019421 1_555
Li12 O10 2.058751 1_655
Li12 O4 2.123950 1_555
Li12 O2 2.132782 1_555
Li12 O20 2.201048 1_655
Li12 O21 2.206568 1_555
Li13 O10 2.015038 1_555
Li13 O11 2.056476 1_555
Li13 O3 2.119016 1_555
Li13 O5 2.179950 1_555
Li13 O21 2.206420 1_555
Li13 O20 2.221075 1_555
Mn0 O4 1.954927 1_555
Mn0 O18 1.955828 1_555
Mn0 O23 1.958983 1_655
Mn0 O20 1.983190 1_655
Mn0 O5 2.240340 1_655
Mn0 O22 2.242608 1_555
Mn1 O22 1.955044 1_555
Mn1 O5 1.962713 1_555
Mn1 O21 1.974964 1_555
Mn1 O19 1.975170 1_555
Mn1 O4 2.203081 1_555
Mn1 O23 2.260706 1_555
Mn2 O21 1.954958 1_545
Mn2 O7 1.962802 1_555
Mn2 O22 1.974998 1_545
Mn2 O16 1.975132 1_555
Mn2 O6 2.203099 1_555
Mn2 O20 2.260631 1_645
Mn3 O6 1.954876 1_555
Mn3 O17 1.955938 1_555
Mn3 O20 1.959026 1_545
Mn3 O23 1.983076 1_545
Mn3 O7 2.240277 1_455
Mn3 O21 2.242677 1_545
Mn4 O9 1.814743 1_555
Mn4 O15 1.943109 1_554
Mn4 O14 1.953285 1_454
Mn4 O0 1.985699 1_445
Mn4 O1 2.014455 1_545
Mn4 O2 2.045578 1_444
Mn5 O8 1.813376 1_555
Mn5 O14 1.944588 1_554
Mn5 O15 1.955833 1_554
Mn5 O1 1.986831 1_545
Mn5 O0 2.013729 1_545
Mn5 O3 2.049223 1_544
Mn6 O10 1.814513 1_555
Mn6 O13 1.943157 1_456
Mn6 O12 1.953279 1_556
Mn6 O3 1.985657 1_555
Mn6 O2 2.014444 1_455
Mn6 O1 2.045785 1_556
Mn7 O11 1.813322 1_555
Mn7 O12 1.944661 1_556
Mn7 O13 1.955895 1_556
Mn7 O2 1.986787 1_555
Mn7 O3 2.013655 1_555
Mn7 O0 2.049235 1_556
Co0 O4 1.952391 1_555
Co0 O6 1.952420 1_555
Co0 O17 1.958553 1_555
Co0 O18 1.958570 1_555
Co0 O16 1.985985 1_555
Co0 O19 1.986007 1_555
Co1 O7 1.909906 1_455
Co1 O5 1.909944 1_555
Co1 O16 1.965249 1_455
Co1 O19 1.965258 1_555
Co1 O17 2.172537 1_555
Co1 O18 2.172557 1_455
