# generated using pymatgen
data_RbLa(MoO4)2
_symmetry_space_group_name_H-M   'P 1'
_cell_length_a   6.49589800
_cell_length_b   6.49589800
_cell_length_c   9.81151300
_cell_angle_alpha   90.00000000
_cell_angle_beta   90.00000000
_cell_angle_gamma   90.00000000
_symmetry_Int_Tables_number   1
_chemical_formula_structural   RbLa(MoO4)2
_chemical_formula_sum   'Rb2 La2 Mo4 O16'
_cell_volume   414.01338060
_cell_formula_units_Z   2
loop_
 _symmetry_equiv_pos_site_id
 _symmetry_equiv_pos_as_xyz
  1  'x, y, z'
loop_
 _atom_site_type_symbol
 _atom_site_label
 _atom_site_symmetry_multiplicity
 _atom_site_fract_x
 _atom_site_fract_y
 _atom_site_fract_z
 _atom_site_occupancy
  Rb  Rb0  1  0.00000000  0.00000000  0.50000000  1
  Rb  Rb1  1  0.50000000  0.50000000  0.00000000  1
  La  La0  1  0.00000000  0.00000000  0.00000000  1
  La  La1  1  0.50000000  0.50000000  0.50000000  1
  Mo  Mo0  1  0.00000000  0.50000000  0.75000000  1
  Mo  Mo1  1  0.00000000  0.50000000  0.25000000  1
  Mo  Mo2  1  0.50000000  0.00000000  0.75000000  1
  Mo  Mo3  1  0.50000000  0.00000000  0.25000000  1
  O  O0  1  0.80617100  0.60947500  0.64074600  1
  O  O1  1  0.19382900  0.39052500  0.64074600  1
  O  O2  1  0.60947500  0.80617100  0.35925400  1
  O  O3  1  0.60947500  0.19382900  0.64074600  1
  O  O4  1  0.39052500  0.80617100  0.64074600  1
  O  O5  1  0.19382900  0.60947500  0.35925400  1
  O  O6  1  0.80617100  0.39052500  0.35925400  1
  O  O7  1  0.39052500  0.19382900  0.35925400  1
  O  O8  1  0.10947500  0.30617100  0.14074600  1
  O  O9  1  0.69382900  0.10947500  0.14074600  1
  O  O10  1  0.30617100  0.89052500  0.14074600  1
  O  O11  1  0.10947500  0.69382900  0.85925400  1
  O  O12  1  0.89052500  0.30617100  0.85925400  1
  O  O13  1  0.89052500  0.69382900  0.14074600  1
  O  O14  1  0.30617100  0.10947500  0.85925400  1
  O  O15  1  0.69382900  0.89052500  0.85925400  1
loop_
_geom_bond_atom_site_label_1
_geom_bond_atom_site_label_2
_geom_bond_distance
_geom_bond_site_symmetry_2
La0 O9 2.523536 1_455
La0 O13 2.523536 1_445
La0 O8 2.523536 1_555
La0 O10 2.523536 1_545
La0 O11 2.523536 1_544
La0 O15 2.523536 1_444
La0 O12 2.523536 1_454
La0 O14 2.523536 1_554
La1 O7 2.523536 1_555
La1 O4 2.523536 1_555
La1 O5 2.523536 1_555
La1 O2 2.523536 1_555
La1 O3 2.523536 1_555
La1 O6 2.523536 1_555
La1 O0 2.523536 1_555
La1 O1 2.523536 1_555
Mo0 O1 1.800029 1_555
Mo0 O12 1.800029 1_455
Mo0 O0 1.800029 1_455
Mo0 O11 1.800029 1_555
Mo1 O5 1.800029 1_555
Mo1 O13 1.800029 1_455
Mo1 O8 1.800029 1_555
Mo1 O6 1.800029 1_455
Mo2 O3 1.800029 1_555
Mo2 O15 1.800029 1_545
Mo2 O14 1.800029 1_555
Mo2 O4 1.800029 1_545
Mo3 O10 1.800029 1_545
Mo3 O9 1.800029 1_555
Mo3 O7 1.800029 1_555
Mo3 O2 1.800029 1_545
O0 Rb0 3.150825 1_665
O1 Rb0 3.150825 1_555
O2 Rb0 3.150825 1_665
O3 Rb0 3.150825 1_655
O4 Rb0 3.150825 1_565
O5 Rb0 3.150825 1_565
O6 Rb0 3.150825 1_655
O7 Rb0 3.150825 1_555
O8 Rb1 3.150825 1_555
O9 Rb1 3.150825 1_555
O10 Rb1 3.150825 1_555
O11 Rb1 3.150825 1_556
O12 Rb1 3.150825 1_556
O13 Rb1 3.150825 1_555
O14 Rb1 3.150825 1_556
O15 Rb1 3.150825 1_556
