# generated using pymatgen
data_Rb2U6Pd4S17
_symmetry_space_group_name_H-M   'P 1'
_cell_length_a   10.31240550
_cell_length_b   10.31240550
_cell_length_c   12.71458283
_cell_angle_alpha   90.00000000
_cell_angle_beta   90.00000000
_cell_angle_gamma   90.00000000
_symmetry_Int_Tables_number   1
_chemical_formula_structural   Rb2U6Pd4S17
_chemical_formula_sum   'Rb4 U12 Pd8 S34'
_cell_volume   1352.14130276
_cell_formula_units_Z   2
loop_
 _symmetry_equiv_pos_site_id
 _symmetry_equiv_pos_as_xyz
  1  'x, y, z'
loop_
 _atom_site_type_symbol
 _atom_site_label
 _atom_site_symmetry_multiplicity
 _atom_site_fract_x
 _atom_site_fract_y
 _atom_site_fract_z
 _atom_site_occupancy
  Rb  Rb0  1  0.50000000  0.50000000  0.21554927  1
  Rb  Rb1  1  -0.00000000  -0.00000000  0.71554927  1
  Rb  Rb2  1  0.50000000  0.50000000  0.78445073  1
  Rb  Rb3  1  -0.00000000  -0.00000000  0.28445073  1
  U  U0  1  0.61824890  0.73877906  0.50000000  1
  U  U1  1  0.38175110  0.26122094  0.50000000  1
  U  U2  1  0.88175110  0.23877906  -0.00000000  1
  U  U3  1  0.11824890  0.76122094  -0.00000000  1
  U  U4  1  0.73877906  0.38175110  0.50000000  1
  U  U5  1  0.26122094  0.61824890  0.50000000  1
  U  U6  1  0.23877906  0.11824890  -0.00000000  1
  U  U7  1  0.76122094  0.88175110  -0.00000000  1
  U  U8  1  -0.00000000  0.50000000  0.25000000  1
  U  U9  1  0.50000000  -0.00000000  0.75000000  1
  U  U10  1  0.50000000  -0.00000000  0.25000000  1
  U  U11  1  -0.00000000  0.50000000  0.75000000  1
  Pd  Pd0  1  0.93603543  0.63851881  0.50000000  1
  Pd  Pd1  1  0.06396457  0.36148119  0.50000000  1
  Pd  Pd2  1  0.56396457  0.13851881  -0.00000000  1
  Pd  Pd3  1  0.43603543  0.86148119  -0.00000000  1
  Pd  Pd4  1  0.63851881  0.06396457  0.50000000  1
  Pd  Pd5  1  0.36148119  0.93603543  0.50000000  1
  Pd  Pd6  1  0.13851881  0.43603543  -0.00000000  1
  Pd  Pd7  1  0.86148119  0.56396457  -0.00000000  1
  S  S0  1  0.77562324  0.58984475  0.36734019  1
  S  S1  1  0.22437676  0.41015525  0.36734019  1
  S  S2  1  0.72437676  0.08984475  0.86734019  1
  S  S3  1  0.27562324  0.91015525  0.86734019  1
  S  S4  1  0.58984475  0.22437676  0.36734019  1
  S  S5  1  0.41015525  0.77562324  0.36734019  1
  S  S6  1  0.08984475  0.27562324  0.86734019  1
  S  S7  1  0.91015525  0.72437676  0.86734019  1
  S  S8  1  0.22437676  0.41015525  0.63265981  1
  S  S9  1  0.77562324  0.58984475  0.63265981  1
  S  S10  1  0.27562324  0.91015525  0.13265981  1
  S  S11  1  0.72437676  0.08984475  0.13265981  1
  S  S12  1  0.41015525  0.77562324  0.63265981  1
  S  S13  1  0.58984475  0.22437676  0.63265981  1
  S  S14  1  0.91015525  0.72437676  0.13265981  1
  S  S15  1  0.08984475  0.27562324  0.13265981  1
  S  S16  1  0.58158009  0.79349049  0.13368546  1
  S  S17  1  0.41841991  0.20650951  0.13368546  1
  S  S18  1  0.91841991  0.29349049  0.63368546  1
  S  S19  1  0.08158009  0.70650951  0.63368546  1
  S  S20  1  0.79349049  0.41841991  0.13368546  1
  S  S21  1  0.20650951  0.58158009  0.13368546  1
  S  S22  1  0.29349049  0.08158009  0.63368546  1
  S  S23  1  0.70650951  0.91841991  0.63368546  1
  S  S24  1  0.41841991  0.20650951  0.86631454  1
  S  S25  1  0.58158009  0.79349049  0.86631454  1
  S  S26  1  0.08158009  0.70650951  0.36631454  1
  S  S27  1  0.91841991  0.29349049  0.36631454  1
  S  S28  1  0.20650951  0.58158009  0.86631454  1
  S  S29  1  0.79349049  0.41841991  0.86631454  1
  S  S30  1  0.70650951  0.91841991  0.36631454  1
  S  S31  1  0.29349049  0.08158009  0.36631454  1
  S  S32  1  0.50000000  0.50000000  0.50000000  1
  S  S33  1  -0.00000000  -0.00000000  -0.00000000  1
loop_
_geom_bond_atom_site_label_1
_geom_bond_atom_site_label_2
_geom_bond_distance
_geom_bond_site_symmetry_2
Rb0 S17 3.309294 1_555
Rb0 S16 3.309294 1_555
Rb0 S20 3.309294 1_555
Rb0 S21 3.309294 1_555
Rb0 S0 3.558379 1_555
Rb0 S1 3.558379 1_555
Rb0 S4 3.558379 1_555
Rb0 S5 3.558379 1_555
Rb0 S32 3.616672 1_555
Rb1 S18 3.309294 1_455
Rb1 S22 3.309294 1_555
Rb1 S19 3.309294 1_545
Rb1 S23 3.309294 1_445
Rb1 S6 3.558379 1_555
Rb1 S3 3.558379 1_545
Rb1 S2 3.558379 1_455
Rb1 S7 3.558379 1_445
Rb1 S33 3.616672 1_556
Rb2 S24 3.309294 1_555
Rb2 S25 3.309294 1_555
Rb2 S29 3.309294 1_555
Rb2 S28 3.309294 1_555
Rb2 S13 3.558379 1_555
Rb2 S8 3.558379 1_555
Rb2 S12 3.558379 1_555
Rb2 S9 3.558379 1_555
Rb2 S32 3.616672 1_555
Rb3 S31 3.309294 1_555
Rb3 S27 3.309294 1_455
Rb3 S30 3.309294 1_445
Rb3 S26 3.309294 1_545
Rb3 S15 3.558379 1_555
Rb3 S10 3.558379 1_545
Rb3 S11 3.558379 1_455
Rb3 S14 3.558379 1_445
Rb3 S33 3.616672 1_555
Pd0 S26 2.373504 1_655
Pd0 S19 2.373504 1_655
Pd0 S0 2.415254 1_555
Pd0 S9 2.415254 1_555
Pd1 S27 2.373504 1_455
Pd1 S18 2.373504 1_455
Pd1 S8 2.415254 1_555
Pd1 S1 2.415254 1_555
Pd2 S17 2.373504 1_555
Pd2 S24 2.373504 1_554
Pd2 S11 2.415254 1_555
Pd2 S2 2.415254 1_554
Pd3 S16 2.373504 1_555
Pd3 S25 2.373504 1_554
Pd3 S10 2.415254 1_555
Pd3 S3 2.415254 1_554
Pd4 S30 2.373504 1_545
Pd4 S23 2.373504 1_545
Pd4 S4 2.415254 1_555
Pd4 S13 2.415254 1_555
Pd5 S31 2.373504 1_565
Pd5 S22 2.373504 1_565
Pd5 S5 2.415254 1_555
Pd5 S12 2.415254 1_555
Pd6 S21 2.373504 1_555
Pd6 S28 2.373504 1_554
Pd6 S15 2.415254 1_555
Pd6 S6 2.415254 1_554
Pd7 S20 2.373504 1_555
Pd7 S29 2.373504 1_554
Pd7 S14 2.415254 1_555
Pd7 S7 2.415254 1_554
S0 U4 2.755803 1_555
S0 U0 2.799595 1_555
S0 U8 2.904868 1_655
S1 U5 2.755803 1_555
S1 U1 2.799595 1_555
S1 U8 2.904868 1_555
S2 U7 2.755803 1_546
S2 U2 2.799595 1_556
S2 U9 2.904868 1_555
S3 U6 2.755803 1_566
S3 U3 2.799595 1_556
S3 U9 2.904868 1_565
S4 U1 2.755803 1_555
S4 U4 2.799595 1_555
S4 U10 2.904868 1_555
S5 U0 2.755803 1_555
S5 U5 2.799595 1_555
S5 U10 2.904868 1_565
S6 U2 2.755803 1_456
S6 U6 2.799595 1_556
S6 U11 2.904868 1_555
S7 U3 2.755803 1_656
S7 U7 2.799595 1_556
S7 U11 2.904868 1_655
S8 U5 2.755803 1_555
S8 U1 2.799595 1_555
S8 U11 2.904868 1_555
S9 U4 2.755803 1_555
S9 U0 2.799595 1_555
S9 U11 2.904868 1_655
S10 U6 2.755803 1_565
S10 U3 2.799595 1_555
S10 U10 2.904868 1_565
S11 U7 2.755803 1_545
S11 U2 2.799595 1_555
S11 U10 2.904868 1_555
S12 U0 2.755803 1_555
S12 U5 2.799595 1_555
S12 U9 2.904868 1_565
S13 U1 2.755803 1_555
S13 U4 2.799595 1_555
S13 U9 2.904868 1_555
S14 U3 2.755803 1_655
S14 U7 2.799595 1_555
S14 U8 2.904868 1_655
S15 U2 2.755803 1_455
S15 U6 2.799595 1_555
S15 U8 2.904868 1_555
S16 U7 2.673847 1_555
S16 U10 2.725825 1_565
S17 U6 2.673847 1_555
S17 U10 2.725825 1_555
S18 U4 2.673847 1_555
S18 U11 2.725825 1_655
S19 U5 2.673847 1_555
S19 U11 2.725825 1_555
S20 U2 2.673847 1_555
S20 U8 2.725825 1_655
S21 U3 2.673847 1_555
S21 U8 2.725825 1_555
S22 U1 2.673847 1_555
S22 U9 2.725825 1_555
S23 U0 2.673847 1_555
S23 U9 2.725825 1_565
S24 U6 2.673847 1_556
S24 U9 2.725825 1_555
S25 U7 2.673847 1_556
S25 U9 2.725825 1_565
S26 U5 2.673847 1_555
S26 U8 2.725825 1_555
S27 U4 2.673847 1_555
S27 U8 2.725825 1_655
S28 U3 2.673847 1_556
S28 U11 2.725825 1_555
S29 U2 2.673847 1_556
S29 U11 2.725825 1_655
S30 U0 2.673847 1_555
S30 U10 2.725825 1_565
S31 U1 2.673847 1_555
S31 U10 2.725825 1_555
S32 U1 2.747792 1_555
S32 U5 2.747792 1_555
S32 U0 2.747792 1_555
S32 U4 2.747792 1_555
S33 U2 2.747792 1_455
S33 U7 2.747792 1_445
S33 U6 2.747792 1_555
S33 U3 2.747792 1_545
