# generated using pymatgen
data_FeAg2Sn3S8
_symmetry_space_group_name_H-M   'P 1'
_cell_length_a   7.47187162
_cell_length_b   7.47187162
_cell_length_c   7.47187137
_cell_angle_alpha   60.77567374
_cell_angle_beta   60.77567374
_cell_angle_gamma   60.77567135
_symmetry_Int_Tables_number   1
_chemical_formula_structural   FeAg2Sn3S8
_chemical_formula_sum   'Fe1 Ag2 Sn3 S8'
_cell_volume   300.12824798
_cell_formula_units_Z   1
loop_
 _symmetry_equiv_pos_site_id
 _symmetry_equiv_pos_as_xyz
  1  'x, y, z'
loop_
 _atom_site_type_symbol
 _atom_site_label
 _atom_site_symmetry_multiplicity
 _atom_site_fract_x
 _atom_site_fract_y
 _atom_site_fract_z
 _atom_site_occupancy
  Fe  Fe0  1  0.00000000  0.00000000  0.00000000  1
  Ag  Ag0  1  0.38392100  0.38392100  0.38392100  1
  Ag  Ag1  1  0.61607900  0.61607900  0.61607900  1
  Sn  Sn0  1  0.00000000  0.50000000  0.00000000  1
  Sn  Sn1  1  0.00000000  0.00000000  0.50000000  1
  Sn  Sn2  1  0.50000000  0.00000000  0.00000000  1
  S  S0  1  0.78019300  0.20745900  0.78019300  1
  S  S1  1  0.75403500  0.75403500  0.75403500  1
  S  S2  1  0.79254100  0.21980700  0.21980700  1
  S  S3  1  0.21980700  0.21980700  0.79254100  1
  S  S4  1  0.21980700  0.79254100  0.21980700  1
  S  S5  1  0.24596500  0.24596500  0.24596500  1
  S  S6  1  0.20745900  0.78019300  0.78019300  1
  S  S7  1  0.78019300  0.78019300  0.20745900  1
loop_
_geom_bond_atom_site_label_1
_geom_bond_atom_site_label_2
_geom_bond_distance
_geom_bond_site_symmetry_2
Fe0 S4 2.336585 1_545
Fe0 S2 2.336585 1_455
Fe0 S0 2.336585 1_454
Fe0 S6 2.336585 1_544
Fe0 S3 2.336585 1_554
Fe0 S7 2.336585 1_445
Ag0 S5 2.510006 1_555
Ag0 S4 2.546726 1_555
Ag0 S2 2.546726 1_555
Ag0 S3 2.546726 1_555
Ag1 S1 2.510006 1_555
Ag1 S0 2.546726 1_555
Ag1 S6 2.546726 1_555
Ag1 S7 2.546726 1_555
S0 Sn1 2.609348 1_655
S0 Sn2 2.609348 1_556
S1 Sn0 2.616011 1_656
S1 Sn2 2.616011 1_566
S1 Sn1 2.616012 1_665
S2 Sn1 2.609348 1_655
S2 Sn0 2.609348 1_655
S3 Sn2 2.609348 1_556
S3 Sn0 2.609348 1_556
S4 Sn1 2.609348 1_565
S4 Sn2 2.609348 1_565
S5 Sn2 2.616011 1_555
S5 Sn0 2.616011 1_555
S5 Sn1 2.616012 1_555
S6 Sn1 2.609348 1_565
S6 Sn0 2.609348 1_556
S7 Sn2 2.609348 1_565
S7 Sn0 2.609348 1_655
