# generated using pymatgen
data_U(GeRh)2
_symmetry_space_group_name_H-M   'P 1'
_cell_length_a   5.03140600
_cell_length_b   5.03140600
_cell_length_c   7.61293400
_cell_angle_alpha   90.00000000
_cell_angle_beta   90.00000000
_cell_angle_gamma   90.00000000
_symmetry_Int_Tables_number   1
_chemical_formula_structural   U(GeRh)2
_chemical_formula_sum   'U2 Ge4 Rh4'
_cell_volume   192.72177697
_cell_formula_units_Z   2
loop_
 _symmetry_equiv_pos_site_id
 _symmetry_equiv_pos_as_xyz
  1  'x, y, z'
loop_
 _atom_site_type_symbol
 _atom_site_label
 _atom_site_symmetry_multiplicity
 _atom_site_fract_x
 _atom_site_fract_y
 _atom_site_fract_z
 _atom_site_occupancy
  U  U0  1  0.00000000  0.00000000  0.90742300  1
  U  U1  1  0.50000000  0.50000000  0.54999600  1
  Ge  Ge0  1  0.50000000  0.00000000  0.36667500  1
  Ge  Ge1  1  0.00000000  0.50000000  0.36667500  1
  Ge  Ge2  1  0.50000000  0.50000000  0.89874500  1
  Ge  Ge3  1  0.50000000  0.50000000  0.20375100  1
  Rh  Rh0  1  0.00000000  0.00000000  0.57124500  1
  Rh  Rh1  1  0.00000000  0.00000000  0.20255200  1
  Rh  Rh2  1  0.50000000  0.00000000  0.71646900  1
  Rh  Rh3  1  0.00000000  0.50000000  0.71646900  1
loop_
_geom_bond_atom_site_label_1
_geom_bond_atom_site_label_2
_geom_bond_distance
_geom_bond_site_symmetry_2
Ge0 Rh2 2.662959 1_555
Ge0 Ge3 2.804849 1_545
Ge0 Ge3 2.804849 1_555
Ge0 Rh1 2.808898 1_555
Ge0 Rh1 2.808898 1_655
Ge0 U1 2.876889 1_555
Ge0 U1 2.876889 1_545
Ge0 Rh0 2.958748 1_655
Ge0 Rh0 2.958748 1_555
Ge1 Rh3 2.662959 1_555
Ge1 Ge3 2.804849 1_455
Ge1 Ge3 2.804849 1_555
Ge1 Rh1 2.808898 1_555
Ge1 Rh1 2.808898 1_565
Ge1 U1 2.876889 1_455
Ge1 U1 2.876889 1_555
Ge1 Rh0 2.958748 1_555
Ge1 Rh0 2.958748 1_565
Ge2 Ge3 2.321991 1_556
Ge2 U1 2.655003 1_555
Ge2 Rh2 2.873038 1_555
Ge2 Rh2 2.873038 1_565
Ge2 Rh3 2.873038 1_555
Ge2 Rh3 2.873038 1_655
Ge3 U1 2.635940 1_555
Rh0 U0 2.559301 1_555
Rh0 Rh3 2.747921 1_545
Rh0 Rh3 2.747921 1_555
Rh0 Rh2 2.747921 1_555
Rh0 Rh2 2.747921 1_455
Rh1 U0 2.246798 1_554
Rh2 U1 2.816901 1_545
Rh2 U1 2.816901 1_555
Rh2 U0 2.905523 1_655
Rh2 U0 2.905523 1_555
Rh3 U1 2.816901 1_555
Rh3 U1 2.816901 1_455
Rh3 U0 2.905523 1_565
Rh3 U0 2.905523 1_555
