# generated using pymatgen
data_BaCaSnWO6
_symmetry_space_group_name_H-M   'P 1'
_cell_length_a   5.92549695
_cell_length_b   5.95917947
_cell_length_c   8.47827838
_cell_angle_alpha   89.86772304
_cell_angle_beta   89.82509879
_cell_angle_gamma   90.66593822
_symmetry_Int_Tables_number   1
_chemical_formula_structural   BaCaSnWO6
_chemical_formula_sum   'Ba2 Ca2 Sn2 W2 O12'
_cell_volume   299.35489532
_cell_formula_units_Z   2
loop_
 _symmetry_equiv_pos_site_id
 _symmetry_equiv_pos_as_xyz
  1  'x, y, z'
loop_
 _atom_site_type_symbol
 _atom_site_label
 _atom_site_symmetry_multiplicity
 _atom_site_fract_x
 _atom_site_fract_y
 _atom_site_fract_z
 _atom_site_occupancy
  Ba  Ba0  1  0.50477354  0.52254448  0.25148794  1
  Ba  Ba1  1  0.49522646  0.47745552  0.74851206  1
  Ca  Ca0  1  -0.00000000  0.50000000  -0.00000000  1
  Ca  Ca1  1  0.50000000  0.00000000  0.50000000  1
  Sn  Sn0  1  0.00463874  0.02580988  0.25392604  1
  Sn  Sn1  1  0.99536126  0.97419012  0.74607396  1
  W  W0  1  0.50000000  0.00000000  -0.00000000  1
  W  W1  1  -0.00000000  0.50000000  0.50000000  1
  O  O0  1  0.24190628  0.18994587  0.94801369  1
  O  O1  1  0.26714884  0.69040527  0.51942525  1
  O  O2  1  0.75809372  0.81005413  0.05198631  1
  O  O3  1  0.73285116  0.30959473  0.48057475  1
  O  O4  1  0.31259217  0.73587817  0.96908041  1
  O  O5  1  0.18408611  0.23108052  0.54218153  1
  O  O6  1  0.68740783  0.26412183  0.03091959  1
  O  O7  1  0.81591389  0.76891948  0.45781847  1
  O  O8  1  0.40462199  0.00205355  0.22585663  1
  O  O9  1  0.05421587  0.46455518  0.27313809  1
  O  O10  1  0.59537801  0.99794645  0.77414337  1
  O  O11  1  0.94578413  0.53544482  0.72686191  1
loop_
_geom_bond_atom_site_label_1
_geom_bond_atom_site_label_2
_geom_bond_distance
_geom_bond_site_symmetry_2
Ba0 O6 2.660723 1_555
Ba0 O3 2.693278 1_555
Ba0 O9 2.693714 1_555
Ba0 O2 2.821505 1_555
Ba0 O1 2.857849 1_555
Ba0 O7 2.929753 1_555
Ba0 O8 2.932906 1_565
Ba0 O4 2.946531 1_554
Ba0 O8 3.159280 1_555
Ba0 O9 3.283645 1_655
Ba1 O4 2.660723 1_555
Ba1 O1 2.693278 1_555
Ba1 O11 2.693714 1_555
Ba1 O0 2.821505 1_555
Ba1 O3 2.857849 1_555
Ba1 O5 2.929753 1_555
Ba1 O10 2.932906 1_545
Ba1 O6 2.946531 1_556
Ba1 O10 3.159280 1_555
Ba1 O11 3.283645 1_455
Ca0 O6 2.325992 1_455
Ca0 O4 2.325992 1_554
Ca0 O11 2.348262 1_454
Ca0 O9 2.348262 1_555
Ca0 O0 2.392548 1_554
Ca0 O2 2.392548 1_455
Ca1 O3 2.296228 1_555
Ca1 O1 2.296228 1_545
Ca1 O7 2.363569 1_545
Ca1 O5 2.363569 1_555
Ca1 O8 2.393702 1_555
Ca1 O10 2.393702 1_545
O0 W0 1.963778 1_556
O0 Sn1 2.588512 1_445
O1 W1 1.944514 1_555
O2 W0 1.963778 1_565
O2 Sn0 2.588512 1_665
O3 W1 1.944514 1_655
O4 W0 1.934494 1_566
O5 W1 1.981476 1_555
O5 Sn1 2.553141 1_445
O6 W0 1.934494 1_555
O7 W1 1.981476 1_655
O7 Sn0 2.553141 1_665
O8 W0 1.994986 1_555
O8 Sn0 2.387166 1_555
O9 W1 1.961367 1_555
O9 Sn0 2.633091 1_555
O10 W0 1.994986 1_566
O10 Sn1 2.387166 1_555
O11 W1 1.961367 1_655
O11 Sn1 2.633091 1_555
