# generated using pymatgen
data_Ba2TaMnO6
_symmetry_space_group_name_H-M   'P 1'
_cell_length_a   8.00608400
_cell_length_b   10.37832622
_cell_length_c   8.00400000
_cell_angle_alpha   67.31683065
_cell_angle_beta   90.00057258
_cell_angle_gamma   112.68977477
_symmetry_Int_Tables_number   1
_chemical_formula_structural   Ba2TaMnO6
_chemical_formula_sum   'Ba8 Ta4 Mn4 O24'
_cell_volume   557.41067883
_cell_formula_units_Z   4
loop_
 _symmetry_equiv_pos_site_id
 _symmetry_equiv_pos_as_xyz
  1  'x, y, z'
loop_
 _atom_site_type_symbol
 _atom_site_label
 _atom_site_symmetry_multiplicity
 _atom_site_fract_x
 _atom_site_fract_y
 _atom_site_fract_z
 _atom_site_occupancy
  Ba  Ba0  1  0.74994500  0.50000200  0.74991700  1
  Ba  Ba1  1  0.25002900  0.49999800  0.25008200  1
  Ba  Ba2  1  0.49994100  0.99996200  0.49985000  1
  Ba  Ba3  1  0.00004800  0.99997800  0.00023400  1
  Ba  Ba4  1  0.25004100  0.49997600  0.74993600  1
  Ba  Ba5  1  0.74997500  0.50002300  0.25008700  1
  Ba  Ba6  1  0.00002000  0.99996000  0.49983300  1
  Ba  Ba7  1  0.49992600  0.99998000  0.00021400  1
  Ta  Ta0  1  0.12500500  0.74999000  0.37501600  1
  Ta  Ta1  1  0.62511600  0.75016000  0.87491700  1
  Ta  Ta2  1  0.87491600  0.24991200  0.12509400  1
  Ta  Ta3  1  0.37501400  0.24990400  0.62500800  1
  Mn  Mn0  1  0.12489700  0.74973700  0.87504900  1
  Mn  Mn1  1  0.37539200  0.25071300  0.12453600  1
  Mn  Mn2  1  0.62500900  0.75001200  0.37486400  1
  Mn  Mn3  1  0.87463300  0.24939200  0.62529100  1
  O  O0  1  0.01048900  0.52107000  0.48951200  1
  O  O1  1  0.51062300  0.52131600  0.98939000  1
  O  O2  1  0.76050700  0.02116800  0.23943300  1
  O  O3  1  0.26066000  0.02129900  0.73935900  1
  O  O4  1  0.23934000  0.97868600  0.26067700  1
  O  O5  1  0.73951800  0.97892000  0.76053800  1
  O  O6  1  0.98937400  0.47877400  0.01059600  1
  O  O7  1  0.48945700  0.47885000  0.51053100  1
  O  O8  1  0.37791400  0.74979600  0.37510400  1
  O  O9  1  0.87813700  0.75011800  0.87494800  1
  O  O10  1  0.12808400  0.25010600  0.12494900  1
  O  O11  1  0.62805600  0.24994100  0.62502900  1
  O  O12  1  0.87190800  0.74981200  0.37509500  1
  O  O13  1  0.37203700  0.75014400  0.87496600  1
  O  O14  1  0.62193900  0.25012300  0.12495300  1
  O  O15  1  0.12191800  0.24993700  0.62505200  1
  O  O16  1  0.12507500  0.75001000  0.12194800  1
  O  O17  1  0.62509100  0.75017100  0.62168100  1
  O  O18  1  0.87467000  0.24937100  0.87216700  1
  O  O19  1  0.37523500  0.25056100  0.37160400  1
  O  O20  1  0.12503100  0.74998100  0.62810000  1
  O  O21  1  0.62511800  0.75020700  0.12810600  1
  O  O22  1  0.87467400  0.24937800  0.37850200  1
  O  O23  1  0.37523800  0.25056600  0.87783100  1
loop_
_geom_bond_atom_site_label_1
_geom_bond_atom_site_label_2
_geom_bond_distance
_geom_bond_site_symmetry_2
Ba0 O7 2.835457 1_555
Ba0 O0 2.835472 1_655
Ba0 O6 2.836824 1_556
Ba0 O1 2.836913 1_555
Ba0 O23 2.951928 1_555
Ba0 O12 2.953571 1_555
Ba0 O14 2.954993 1_556
Ba0 O11 2.955269 1_555
Ba0 O20 2.955983 1_655
Ba0 O17 2.956431 1_555
Ba0 O9 2.956543 1_555
Ba0 O18 2.959938 1_555
Ba1 O7 2.835474 1_555
Ba1 O1 2.836104 1_554
Ba1 O0 2.836398 1_555
Ba1 O6 2.837006 1_455
Ba1 O19 2.951676 1_555
Ba1 O8 2.953588 1_555
Ba1 O10 2.955048 1_555
Ba1 O15 2.955308 1_555
Ba1 O16 2.955541 1_555
Ba1 O13 2.956413 1_554
Ba1 O21 2.956845 1_555
Ba1 O22 2.959804 1_455
Ba2 O2 2.834962 1_565
Ba2 O4 2.834963 1_555
Ba2 O3 2.837028 1_565
Ba2 O5 2.837606 1_555
Ba2 O22 2.952008 1_565
Ba2 O17 2.954588 1_555
Ba2 O20 2.955042 1_555
Ba2 O13 2.955197 1_555
Ba2 O14 2.955283 1_565
Ba2 O8 2.955451 1_555
Ba2 O11 2.956097 1_565
Ba2 O19 2.959535 1_565
Ba3 O4 2.834754 1_555
Ba3 O2 2.835833 1_465
Ba3 O3 2.837224 1_564
Ba3 O5 2.837393 1_454
Ba3 O18 2.952220 1_464
Ba3 O21 2.954358 1_455
Ba3 O10 2.954930 1_565
Ba3 O12 2.955104 1_455
Ba3 O16 2.955547 1_555
Ba3 O9 2.955587 1_454
Ba3 O15 2.956083 1_564
Ba3 O23 2.958778 1_564
Ba4 O7 2.835891 1_555
Ba4 O0 2.836003 1_555
Ba4 O1 2.836479 1_555
Ba4 O6 2.836925 1_456
Ba4 O23 2.951380 1_555
Ba4 O8 2.953663 1_555
Ba4 O10 2.954830 1_556
Ba4 O15 2.955043 1_555
Ba4 O20 2.955785 1_555
Ba4 O17 2.956584 1_555
Ba4 O13 2.957010 1_555
Ba4 O18 2.959833 1_455
Ba5 O7 2.835011 1_555
Ba5 O0 2.835766 1_655
Ba5 O1 2.836527 1_554
Ba5 O6 2.837045 1_555
Ba5 O19 2.952205 1_555
Ba5 O12 2.953429 1_555
Ba5 O14 2.955131 1_555
Ba5 O11 2.955237 1_555
Ba5 O16 2.956086 1_655
Ba5 O9 2.956352 1_554
Ba5 O21 2.956583 1_555
Ba5 O22 2.959926 1_555
Ba6 O4 2.834863 1_555
Ba6 O2 2.835712 1_465
Ba6 O5 2.837071 1_455
Ba6 O3 2.837213 1_565
Ba6 O22 2.952276 1_465
Ba6 O17 2.954423 1_455
Ba6 O10 2.955150 1_565
Ba6 O12 2.955241 1_455
Ba6 O9 2.955284 1_455
Ba6 O20 2.955560 1_555
Ba6 O15 2.956295 1_565
Ba6 O19 2.958963 1_565
Ba7 O4 2.834888 1_555
Ba7 O2 2.835060 1_565
Ba7 O3 2.836949 1_564
Ba7 O5 2.838006 1_554
Ba7 O18 2.951975 1_564
Ba7 O21 2.954647 1_555
Ba7 O16 2.954682 1_555
Ba7 O13 2.955158 1_554
Ba7 O14 2.955204 1_565
Ba7 O8 2.955330 1_555
Ba7 O11 2.956109 1_564
Ba7 O23 2.959318 1_564
Mn0 O20 1.975604 1_555
Mn0 O13 1.976998 1_555
Mn0 O9 1.977109 1_455
Mn0 O16 1.977274 1_556
Mn0 O6 2.356992 1_456
Mn0 O3 2.362202 1_565
Mn1 O23 1.975216 1_554
Mn1 O14 1.976245 1_555
Mn1 O19 1.976924 1_555
Mn1 O10 1.977546 1_555
Mn1 O1 2.353861 1_554
Mn1 O4 2.366247 1_545
Mn2 O21 1.974271 1_555
Mn2 O17 1.976160 1_555
Mn2 O8 1.977400 1_555
Mn2 O12 1.977496 1_555
Mn2 O2 2.358671 1_565
Mn2 O7 2.358723 1_555
Mn3 O22 1.975355 1_555
Mn3 O18 1.975911 1_555
Mn3 O11 1.976320 1_555
Mn3 O15 1.977608 1_655
Mn3 O5 2.352721 1_545
Mn3 O0 2.363211 1_655
O0 Ta0 1.991278 1_555
O1 Ta1 1.990617 1_555
O2 Ta2 1.989747 1_555
O3 Ta3 1.988538 1_555
O4 Ta0 1.989329 1_555
O5 Ta1 1.989886 1_555
O6 Ta2 1.990773 1_555
O7 Ta3 1.991504 1_555
O8 Ta0 2.025588 1_555
O9 Ta1 2.025876 1_555
O10 Ta2 2.026108 1_455
O11 Ta3 2.025727 1_555
O12 Ta0 2.025604 1_655
O13 Ta1 2.026108 1_555
O14 Ta2 2.026201 1_555
O15 Ta3 2.026440 1_555
O16 Ta0 2.025476 1_555
O17 Ta1 2.026857 1_555
O18 Ta2 2.026598 1_556
O19 Ta3 2.025624 1_555
O20 Ta0 2.025648 1_555
O21 Ta1 2.026713 1_554
O22 Ta2 2.026146 1_555
O23 Ta3 2.026253 1_555
