# generated using pymatgen
data_Li4Fe3Co3(TeO8)2
_symmetry_space_group_name_H-M   'P 1'
_cell_length_a   5.96425700
_cell_length_b   5.98121890
_cell_length_c   9.76310757
_cell_angle_alpha   90.61768459
_cell_angle_beta   90.11530047
_cell_angle_gamma   119.71533285
_symmetry_Int_Tables_number   1
_chemical_formula_structural   Li4Fe3Co3(TeO8)2
_chemical_formula_sum   'Li4 Fe3 Co3 Te2 O16'
_cell_volume   302.45625587
_cell_formula_units_Z   1
loop_
 _symmetry_equiv_pos_site_id
 _symmetry_equiv_pos_as_xyz
  1  'x, y, z'
loop_
 _atom_site_type_symbol
 _atom_site_label
 _atom_site_symmetry_multiplicity
 _atom_site_fract_x
 _atom_site_fract_y
 _atom_site_fract_z
 _atom_site_occupancy
  Li  Li0  1  0.66925600  0.33348500  0.08847200  1
  Li  Li1  1  0.00169100  0.00286000  0.01413500  1
  Li  Li2  1  0.00320700  0.00948600  0.51609900  1
  Li  Li3  1  0.33617700  0.66948100  0.58957900  1
  Fe  Fe0  1  0.82846600  0.65965800  0.78616000  1
  Fe  Fe1  1  0.65947300  0.82834100  0.28706400  1
  Fe  Fe2  1  0.16792700  0.82559900  0.28747300  1
  Co  Co0  1  0.82703000  0.17029700  0.78849200  1
  Co  Co1  1  0.34323900  0.17110500  0.78815900  1
  Co  Co2  1  0.17076900  0.34344600  0.28860100  1
  Te  Te0  1  0.66469500  0.32979300  0.51720300  1
  Te  Te1  1  0.32785100  0.66133200  0.01489300  1
  O  O0  1  0.82536800  0.16708700  0.41058000  1
  O  O1  1  0.52391000  0.04018400  0.64913700  1
  O  O2  1  0.67812900  0.33430600  0.88632200  1
  O  O3  1  0.99134800  0.00481800  0.70578600  1
  O  O4  1  0.99587500  0.99303100  0.20291800  1
  O  O5  1  0.34169300  0.16495200  0.41232200  1
  O  O6  1  0.96426900  0.48655200  0.64677900  1
  O  O7  1  0.52709700  0.48977700  0.64538800  1
  O  O8  1  0.16476400  0.33427500  0.91169600  1
  O  O9  1  0.82592500  0.65062000  0.40573400  1
  O  O10  1  0.48501600  0.52264300  0.14513600  1
  O  O11  1  0.03809300  0.52615400  0.14635200  1
  O  O12  1  0.34086500  0.67837600  0.39107000  1
  O  O13  1  0.65222100  0.82072200  0.90912800  1
  O  O14  1  0.47965600  0.96068200  0.14823100  1
  O  O15  1  0.16629000  0.82094100  0.90925200  1
loop_
_geom_bond_atom_site_label_1
_geom_bond_atom_site_label_2
_geom_bond_distance
_geom_bond_site_symmetry_2
Li0 O2 1.974422 1_554
Li0 O11 1.988555 1_655
Li0 O10 2.003762 1_555
Li0 O14 2.030306 1_545
Li1 O4 1.844527 1_445
Li1 O8 2.002722 1_554
Li1 O15 2.057977 1_544
Li1 O13 2.073274 1_444
Li2 O3 1.853410 1_455
Li2 O0 2.020565 1_455
Li2 O5 2.033301 1_555
Li2 O9 2.140521 1_445
Li3 O12 1.939246 1_555
Li3 O7 1.993068 1_555
Li3 O1 2.004090 1_565
Li3 O6 2.010304 1_455
Fe0 O2 1.965169 1_555
Fe0 O3 1.967556 1_565
Fe0 O7 2.073997 1_555
Fe0 O6 2.094104 1_555
Fe0 O13 2.111495 1_555
Fe0 O15 2.114909 1_655
Fe1 O4 1.932755 1_555
Fe1 O12 1.945312 1_555
Fe1 O10 2.097469 1_555
Fe1 O14 2.114920 1_555
Fe1 O0 2.119764 1_565
Fe1 O9 2.127433 1_555
Fe2 O4 1.941802 1_455
Fe2 O12 1.943636 1_555
Fe2 O11 2.067195 1_555
Fe2 O14 2.121843 1_555
Fe2 O9 2.123272 1_455
Fe2 O5 2.129745 1_565
Co0 O2 1.873541 1_555
Co0 O3 1.881411 1_555
Co0 O1 2.073065 1_555
Co0 O8 2.114839 1_655
Co0 O6 2.165259 1_555
Co0 O13 2.177809 1_545
Co1 O2 1.974851 1_555
Co1 O3 1.986791 1_455
Co1 O1 2.106201 1_555
Co1 O8 2.133070 1_555
Co1 O15 2.182918 1_545
Co1 O7 2.183974 1_555
Co2 O4 1.992978 1_445
Co2 O12 1.995268 1_555
Co2 O11 2.152853 1_555
Co2 O0 2.158105 1_455
Co2 O10 2.162142 1_555
Co2 O5 2.177130 1_555
O0 Te0 1.963609 1_555
O1 Te0 1.993812 1_555
O5 Te0 1.954261 1_555
O6 Te0 1.994099 1_555
O7 Te0 1.977931 1_555
O8 Te1 1.963448 1_556
O9 Te0 2.002809 1_555
O10 Te1 1.993117 1_555
O11 Te1 1.983344 1_555
O13 Te1 1.979568 1_556
O14 Te1 2.014472 1_555
O15 Te1 1.957762 1_556
