# generated using pymatgen
data_Ca2Fe3O8
_symmetry_space_group_name_H-M   'P 1'
_cell_length_a   5.01745529
_cell_length_b   6.27321462
_cell_length_c   10.42692643
_cell_angle_alpha   90.18793246
_cell_angle_beta   85.04365206
_cell_angle_gamma   93.09140881
_symmetry_Int_Tables_number   1
_chemical_formula_structural   Ca2Fe3O8
_chemical_formula_sum   'Ca4 Fe6 O16'
_cell_volume   326.49018999
_cell_formula_units_Z   2
loop_
 _symmetry_equiv_pos_site_id
 _symmetry_equiv_pos_as_xyz
  1  'x, y, z'
loop_
 _atom_site_type_symbol
 _atom_site_label
 _atom_site_symmetry_multiplicity
 _atom_site_fract_x
 _atom_site_fract_y
 _atom_site_fract_z
 _atom_site_occupancy
  Ca  Ca0  1  0.43735300  0.50559700  0.22176600  1
  Ca  Ca1  1  0.93742600  0.00553200  0.72181400  1
  Ca  Ca2  1  0.06251900  0.99448700  0.27819300  1
  Ca  Ca3  1  0.56265700  0.49439300  0.77821500  1
  Fe  Fe0  1  0.99992100  0.49997200  0.49998900  1
  Fe  Fe1  1  0.01492200  0.72886300  0.99017000  1
  Fe  Fe2  1  0.98496900  0.27105700  0.00983700  1
  Fe  Fe3  1  0.50008500  0.99998800  0.00001900  1
  Fe  Fe4  1  0.51466100  0.22906400  0.49033400  1
  Fe  Fe5  1  0.48551300  0.77102700  0.50968400  1
  O  O0  1  0.64999700  0.96985100  0.39446500  1
  O  O1  1  0.14987400  0.46964400  0.89434700  1
  O  O2  1  0.85011600  0.53034100  0.10562900  1
  O  O3  1  0.34997000  0.03019000  0.60554200  1
  O  O4  1  0.71090600  0.45640600  0.39494400  1
  O  O5  1  0.21128600  0.95583900  0.89476000  1
  O  O6  1  0.78860800  0.04417800  0.10527000  1
  O  O7  1  0.28925700  0.54355700  0.60503000  1
  O  O8  1  0.27301800  0.22769100  0.10259300  1
  O  O9  1  0.77318400  0.72765000  0.60265500  1
  O  O10  1  0.29169700  0.79043800  0.10491500  1
  O  O11  1  0.79174900  0.29037400  0.60482200  1
  O  O12  1  0.20831300  0.70969800  0.39511200  1
  O  O13  1  0.70820800  0.20948800  0.89516500  1
  O  O14  1  0.22678300  0.27239000  0.39728300  1
  O  O15  1  0.72700500  0.77227900  0.89744800  1
loop_
_geom_bond_atom_site_label_1
_geom_bond_atom_site_label_2
_geom_bond_distance
_geom_bond_site_symmetry_2
Ca0 O8 2.295877 1_555
Ca0 O2 2.304958 1_555
Ca0 O10 2.349571 1_555
Ca0 O4 2.391085 1_555
Ca0 O12 2.451844 1_555
Ca0 O14 2.474372 1_555
Ca1 O9 2.295512 1_545
Ca1 O3 2.304645 1_655
Ca1 O11 2.350424 1_555
Ca1 O5 2.390648 1_645
Ca1 O13 2.451772 1_555
Ca1 O15 2.475149 1_545
Ca2 O14 2.295240 1_565
Ca2 O0 2.304549 1_455
Ca2 O12 2.349981 1_555
Ca2 O6 2.390619 1_465
Ca2 O10 2.451474 1_555
Ca2 O8 2.474853 1_565
Ca3 O15 2.296165 1_555
Ca3 O1 2.305021 1_555
Ca3 O13 2.350241 1_555
Ca3 O7 2.390620 1_555
Ca3 O11 2.452018 1_555
Ca3 O9 2.474795 1_555
Fe0 O4 1.899198 1_555
Fe0 O7 1.900481 1_655
Fe0 O11 1.917984 1_555
Fe0 O12 1.919259 1_655
Fe0 O9 2.105929 1_555
Fe0 O14 2.106030 1_655
Fe1 O15 1.838828 1_455
Fe1 O2 1.846836 1_456
Fe1 O5 1.917401 1_555
Fe1 O10 1.932714 1_556
Fe1 O1 2.022940 1_555
Fe1 O6 2.575575 1_466
Fe2 O8 1.839534 1_655
Fe2 O1 1.847477 1_654
Fe2 O6 1.917073 1_555
Fe2 O13 1.932136 1_554
Fe2 O2 2.022959 1_555
Fe2 O5 2.574999 1_644
Fe3 O6 1.898991 1_565
Fe3 O5 1.900132 1_554
Fe3 O13 1.917582 1_564
Fe3 O10 1.918628 1_555
Fe3 O15 2.106101 1_554
Fe3 O8 2.106482 1_565
Fe4 O14 1.840596 1_555
Fe4 O3 1.846464 1_555
Fe4 O4 1.918692 1_555
Fe4 O11 1.931824 1_555
Fe4 O0 2.023778 1_545
Fe4 O7 2.567690 1_555
Fe5 O9 1.839290 1_555
Fe5 O0 1.845961 1_555
Fe5 O7 1.919073 1_555
Fe5 O12 1.932867 1_555
Fe5 O3 2.023817 1_565
Fe5 O4 2.568496 1_555
