# generated using pymatgen
data_TcNi
_symmetry_space_group_name_H-M   'P 1'
_cell_length_a   5.30832722
_cell_length_b   5.30832722
_cell_length_c   8.40184600
_cell_angle_alpha   90.00000000
_cell_angle_beta   90.00000000
_cell_angle_gamma   119.99999029
_symmetry_Int_Tables_number   1
_chemical_formula_structural   TcNi
_chemical_formula_sum   'Tc8 Ni8'
_cell_volume   205.03158242
_cell_formula_units_Z   8
loop_
 _symmetry_equiv_pos_site_id
 _symmetry_equiv_pos_as_xyz
  1  'x, y, z'
loop_
 _atom_site_type_symbol
 _atom_site_label
 _atom_site_symmetry_multiplicity
 _atom_site_fract_x
 _atom_site_fract_y
 _atom_site_fract_z
 _atom_site_occupancy
  Tc  Tc0_0  1  0.33333350  0.16666650  0.00000000  1
  Tc  Tc0_1  1  0.33333350  0.16666650  0.50000000  1
  Tc  Tc0_2  1  0.33333350  0.66666650  0.00000000  1
  Tc  Tc0_3  1  0.33333350  0.66666650  0.50000000  1
  Tc  Tc0_4  1  0.83333350  0.16666650  0.00000000  1
  Tc  Tc0_5  1  0.83333350  0.16666650  0.50000000  1
  Tc  Tc0_6  1  0.83333350  0.66666650  0.00000000  1
  Tc  Tc0_7  1  0.83333350  0.66666650  0.50000000  1
  Ni  Ni0_0  1  0.00000000  0.00000000  0.25000000  1
  Ni  Ni0_1  1  0.00000000  0.00000000  0.75000000  1
  Ni  Ni0_2  1  0.00000000  0.50000000  0.25000000  1
  Ni  Ni0_3  1  0.00000000  0.50000000  0.75000000  1
  Ni  Ni0_4  1  0.50000000  0.00000000  0.25000000  1
  Ni  Ni0_5  1  0.50000000  0.00000000  0.75000000  1
  Ni  Ni0_6  1  0.50000000  0.50000000  0.25000000  1
  Ni  Ni0_7  1  0.50000000  0.50000000  0.75000000  1
loop_
_geom_bond_atom_site_label_1
_geom_bond_atom_site_label_2
_geom_bond_distance
_geom_bond_site_symmetry_2
Tc0_0 Tc0_2 2.654164 1_545
Tc0_0 Tc0_4 2.654164 1_555
Tc0_0 Tc0_2 2.654164 1_555
Tc0_0 Tc0_4 2.654164 1_455
Tc0_0 Tc0_6 2.654164 1_555
Tc0_0 Tc0_6 2.654164 1_445
Tc0_1 Tc0_3 2.654164 1_545
Tc0_1 Tc0_5 2.654164 1_555
Tc0_1 Tc0_3 2.654164 1_555
Tc0_1 Tc0_5 2.654164 1_455
Tc0_1 Tc0_7 2.654164 1_445
Tc0_1 Tc0_7 2.654164 1_555
Tc0_2 Tc0_6 2.654164 1_555
Tc0_2 Tc0_6 2.654164 1_455
Tc0_2 Tc0_4 2.654164 1_455
Tc0_2 Tc0_4 2.654164 1_565
Tc0_3 Tc0_7 2.654164 1_555
Tc0_3 Tc0_7 2.654164 1_455
Tc0_3 Tc0_5 2.654164 1_565
Tc0_3 Tc0_5 2.654164 1_455
Tc0_4 Tc0_6 2.654164 1_555
Tc0_4 Tc0_6 2.654164 1_545
Tc0_5 Tc0_7 2.654164 1_545
Tc0_5 Tc0_7 2.654164 1_555
Ni0_0 Tc0_4 2.600025 1_455
Ni0_0 Tc0_5 2.600025 1_455
Ni0_0 Tc0_7 2.600026 1_445
Ni0_0 Tc0_6 2.600026 1_445
Ni0_0 Tc0_1 2.600026 1_555
Ni0_0 Tc0_0 2.600026 1_555
Ni0_0 Ni0_4 2.654164 1_455
Ni0_0 Ni0_4 2.654164 1_555
Ni0_0 Ni0_2 2.654164 1_545
Ni0_0 Ni0_2 2.654164 1_555
Ni0_0 Ni0_6 2.654164 1_445
Ni0_0 Ni0_6 2.654164 1_555
Ni0_1 Tc0_4 2.600025 1_456
Ni0_1 Tc0_5 2.600025 1_455
Ni0_1 Tc0_6 2.600026 1_446
Ni0_1 Tc0_0 2.600026 1_556
Ni0_1 Tc0_1 2.600026 1_555
Ni0_1 Tc0_7 2.600026 1_445
Ni0_1 Ni0_3 2.654164 1_545
Ni0_1 Ni0_5 2.654164 1_455
Ni0_1 Ni0_5 2.654164 1_555
Ni0_1 Ni0_3 2.654164 1_555
Ni0_1 Ni0_7 2.654164 1_555
Ni0_1 Ni0_7 2.654164 1_445
Ni0_2 Tc0_7 2.600025 1_455
Ni0_2 Tc0_6 2.600025 1_455
Ni0_2 Tc0_4 2.600026 1_455
Ni0_2 Tc0_5 2.600026 1_455
Ni0_2 Tc0_2 2.600026 1_555
Ni0_2 Tc0_3 2.600026 1_555
Ni0_2 Ni0_6 2.654164 1_555
Ni0_2 Ni0_6 2.654164 1_455
Ni0_2 Ni0_4 2.654164 1_455
Ni0_2 Ni0_4 2.654164 1_565
Ni0_3 Tc0_6 2.600025 1_456
Ni0_3 Tc0_7 2.600025 1_455
Ni0_3 Tc0_4 2.600026 1_456
Ni0_3 Tc0_2 2.600026 1_556
Ni0_3 Tc0_5 2.600026 1_455
Ni0_3 Tc0_3 2.600026 1_555
Ni0_3 Ni0_7 2.654164 1_555
Ni0_3 Ni0_7 2.654164 1_455
Ni0_3 Ni0_5 2.654164 1_455
Ni0_3 Ni0_5 2.654164 1_565
Ni0_4 Tc0_0 2.600025 1_555
Ni0_4 Tc0_1 2.600025 1_555
Ni0_4 Tc0_2 2.600026 1_545
Ni0_4 Tc0_3 2.600026 1_545
Ni0_4 Tc0_4 2.600026 1_555
Ni0_4 Tc0_5 2.600026 1_555
Ni0_4 Ni0_6 2.654164 1_555
Ni0_4 Ni0_6 2.654164 1_545
Ni0_5 Tc0_0 2.600025 1_556
Ni0_5 Tc0_1 2.600025 1_555
Ni0_5 Tc0_4 2.600026 1_556
Ni0_5 Tc0_2 2.600026 1_546
Ni0_5 Tc0_3 2.600026 1_545
Ni0_5 Tc0_5 2.600026 1_555
Ni0_5 Ni0_7 2.654164 1_545
Ni0_5 Ni0_7 2.654164 1_555
Ni0_6 Tc0_2 2.600025 1_555
Ni0_6 Tc0_3 2.600025 1_555
Ni0_6 Tc0_6 2.600026 1_555
Ni0_6 Tc0_7 2.600026 1_555
Ni0_6 Tc0_1 2.600026 1_555
Ni0_6 Tc0_0 2.600026 1_555
Ni0_7 Tc0_2 2.600025 1_556
Ni0_7 Tc0_3 2.600025 1_555
Ni0_7 Tc0_6 2.600026 1_556
Ni0_7 Tc0_0 2.600026 1_556
Ni0_7 Tc0_7 2.600026 1_555
Ni0_7 Tc0_1 2.600026 1_555
