# generated using pymatgen
data_H4S4N
_symmetry_space_group_name_H-M   'P 1'
_cell_length_a   10.20953573
_cell_length_b   12.19821714
_cell_length_c   12.19821714
_cell_angle_alpha   117.68419523
_cell_angle_beta   113.25383752
_cell_angle_gamma   66.74616248
_symmetry_Int_Tables_number   1
_chemical_formula_structural   H4S4N
_chemical_formula_sum   'H16 S16 N4'
_cell_volume   1193.51030001
_cell_formula_units_Z   4
loop_
 _symmetry_equiv_pos_site_id
 _symmetry_equiv_pos_as_xyz
  1  'x, y, z'
loop_
 _atom_site_type_symbol
 _atom_site_label
 _atom_site_symmetry_multiplicity
 _atom_site_fract_x
 _atom_site_fract_y
 _atom_site_fract_z
 _atom_site_occupancy
  H  H0  1  0.44273100  0.07691700  0.32924900  1
  H  H1  1  0.44273100  0.67075100  0.92308300  1
  H  H2  1  0.55726900  0.92308300  0.67075100  1
  H  H3  1  0.55726900  0.32924900  0.07691700  1
  H  H4  1  0.54380900  0.13949900  0.47759500  1
  H  H5  1  0.54380900  0.52240500  0.86050100  1
  H  H6  1  0.45619100  0.86050100  0.52240500  1
  H  H7  1  0.45619100  0.47759500  0.13949900  1
  H  H8  1  0.60997000  0.09023700  0.34315500  1
  H  H9  1  0.60997000  0.65684500  0.90976300  1
  H  H10  1  0.39003000  0.90976300  0.65684500  1
  H  H11  1  0.39003000  0.34315500  0.09023700  1
  H  H12  1  0.46504200  0.22339000  0.37832600  1
  H  H13  1  0.46504200  0.62167400  0.77661000  1
  H  H14  1  0.53495800  0.77661000  0.62167400  1
  H  H15  1  0.53495800  0.37832600  0.22339000  1
  S  S0  1  0.21974500  0.98792200  0.74808700  1
  S  S1  1  0.21974500  0.25191300  0.01207800  1
  S  S2  1  0.78025500  0.01207800  0.25191300  1
  S  S3  1  0.78025500  0.74808700  0.98792200  1
  S  S4  1  0.33265200  0.93166000  0.89401000  1
  S  S5  1  0.33265200  0.10599000  0.06834000  1
  S  S6  1  0.66734800  0.06834000  0.10599000  1
  S  S7  1  0.66734800  0.89401000  0.93166000  1
  S  S8  1  0.48618700  0.65241600  0.14474300  1
  S  S9  1  0.48618700  0.85525700  0.34758400  1
  S  S10  1  0.51381300  0.34758400  0.85525700  1
  S  S11  1  0.51381300  0.14474300  0.65241600  1
  S  S12  1  0.69962300  0.58998600  0.19677400  1
  S  S13  1  0.69962300  0.80322600  0.41001400  1
  S  S14  1  0.30037700  0.41001400  0.80322600  1
  S  S15  1  0.30037700  0.19677400  0.58998600  1
  N  N0  1  0.51560700  0.13367800  0.38251100  1
  N  N1  1  0.51560700  0.61748900  0.86632200  1
  N  N2  1  0.48439300  0.86632200  0.61748900  1
  N  N3  1  0.48439300  0.38251100  0.13367800  1
loop_
_geom_bond_atom_site_label_1
_geom_bond_atom_site_label_2
_geom_bond_distance
_geom_bond_site_symmetry_2
H0 N0 1.030617 1_555
H1 N1 1.030617 1_555
H2 N2 1.030617 1_555
H3 N3 1.030617 1_555
H4 N0 1.053153 1_555
H5 N1 1.053153 1_555
H6 N2 1.053153 1_555
H7 N3 1.053153 1_555
H8 N0 1.079410 1_555
H8 S2 2.098403 1_555
H9 N1 1.079410 1_555
H9 S3 2.098403 1_555
H10 N2 1.079410 1_555
H10 S0 2.098403 1_555
H11 N3 1.079410 1_555
H11 S1 2.098403 1_555
H12 N0 1.025516 1_555
H13 N1 1.025516 1_555
H14 N2 1.025516 1_555
H15 N3 1.025516 1_555
S0 S4 1.964296 1_555
S1 S5 1.964296 1_555
S2 S6 1.964296 1_555
S3 S7 1.964296 1_555
S4 S5 2.200511 1_566
S6 S7 2.200511 1_544
S10 S14 1.943682 1_555
S11 S15 1.943682 1_555
S12 S8 1.943682 1_555
S13 S9 1.943682 1_555
