# generated using pymatgen
data_Zr3ZnCu2
_symmetry_space_group_name_H-M   'P 1'
_cell_length_a   8.45830949
_cell_length_b   8.45830949
_cell_length_c   8.45830949
_cell_angle_alpha   60.00000000
_cell_angle_beta   60.00000000
_cell_angle_gamma   60.00000000
_symmetry_Int_Tables_number   1
_chemical_formula_structural   Zr3ZnCu2
_chemical_formula_sum   'Zr12 Zn4 Cu8'
_cell_volume   427.89352881
_cell_formula_units_Z   4
loop_
 _symmetry_equiv_pos_site_id
 _symmetry_equiv_pos_as_xyz
  1  'x, y, z'
loop_
 _atom_site_type_symbol
 _atom_site_label
 _atom_site_symmetry_multiplicity
 _atom_site_fract_x
 _atom_site_fract_y
 _atom_site_fract_z
 _atom_site_occupancy
  Zr  Zr0  1  0.80293400  0.80293400  0.19706600  1
  Zr  Zr1  1  0.19706600  0.19706600  0.80293400  1
  Zr  Zr2  1  0.80293400  0.19706600  0.80293400  1
  Zr  Zr3  1  0.19706600  0.80293400  0.19706600  1
  Zr  Zr4  1  0.19706600  0.80293400  0.80293400  1
  Zr  Zr5  1  0.80293400  0.19706600  0.19706600  1
  Zr  Zr6  1  0.44706600  0.44706600  0.05293400  1
  Zr  Zr7  1  0.05293400  0.05293400  0.44706600  1
  Zr  Zr8  1  0.44706600  0.05293400  0.44706600  1
  Zr  Zr9  1  0.05293400  0.44706600  0.05293400  1
  Zr  Zr10  1  0.05293400  0.44706600  0.44706600  1
  Zr  Zr11  1  0.44706600  0.05293400  0.05293400  1
  Zn  Zn0  1  0.12500000  0.62500000  0.62500000  1
  Zn  Zn1  1  0.62500000  0.12500000  0.62500000  1
  Zn  Zn2  1  0.62500000  0.62500000  0.12500000  1
  Zn  Zn3  1  0.62500000  0.62500000  0.62500000  1
  Cu  Cu0  1  0.74526700  0.41824400  0.41824400  1
  Cu  Cu1  1  0.41824400  0.74526700  0.41824400  1
  Cu  Cu2  1  0.41824400  0.41824400  0.74526700  1
  Cu  Cu3  1  0.41824400  0.41824400  0.41824400  1
  Cu  Cu4  1  0.50473300  0.83175600  0.83175600  1
  Cu  Cu5  1  0.83175600  0.50473300  0.83175600  1
  Cu  Cu6  1  0.83175600  0.83175600  0.50473300  1
  Cu  Cu7  1  0.83175600  0.83175600  0.83175600  1
loop_
_geom_bond_atom_site_label_1
_geom_bond_atom_site_label_2
_geom_bond_distance
_geom_bond_site_symmetry_2
Zr0 Zr9 3.121655 1_655
Zr0 Zr10 3.121655 1_655
Zr0 Zr8 3.121655 1_565
Zr0 Zr11 3.121655 1_565
Zr0 Zr3 3.333690 1_655
Zr0 Zr4 3.333690 1_654
Zr0 Zr5 3.333690 1_565
Zr0 Zr2 3.333690 1_564
Zr1 Zr10 3.121655 1_555
Zr1 Zr11 3.121655 1_556
Zr1 Zr9 3.121655 1_556
Zr1 Zr8 3.121655 1_555
Zr1 Zr4 3.333690 1_545
Zr1 Zr3 3.333690 1_546
Zr1 Zr2 3.333690 1_455
Zr1 Zr5 3.333690 1_456
Zr2 Zr7 3.121655 1_655
Zr2 Zr6 3.121655 1_556
Zr2 Zr5 3.333690 1_556
Zr2 Zr4 3.333690 1_645
Zr3 Zr6 3.121655 1_555
Zr3 Zr7 3.121655 1_565
Zr3 Zr4 3.333690 1_554
Zr3 Zr5 3.333690 1_465
Zr4 Zr9 3.121655 1_556
Zr4 Zr7 3.121655 1_565
Zr4 Zr8 3.121655 1_565
Zr4 Zr6 3.121655 1_556
Zr5 Zr6 3.121655 1_555
Zr5 Zr9 3.121655 1_655
Zr5 Zr7 3.121655 1_655
Zr5 Zr8 3.121655 1_555
Zr6 Zr9 3.333690 1_555
Zr6 Zr8 3.333690 1_555
Zr7 Zr9 3.333690 1_555
Zr7 Zr8 3.333690 1_555
Zr10 Zr2 3.121655 1_455
Zr10 Zr3 3.121655 1_555
Zr10 Zr9 3.333690 1_555
Zr10 Zr6 3.333690 1_555
Zr10 Zr8 3.333690 1_555
Zr10 Zr7 3.333690 1_555
Zr11 Zr3 3.121655 1_545
Zr11 Zr2 3.121655 1_554
Zr11 Zr9 3.333690 1_555
Zr11 Zr8 3.333690 1_555
Zr11 Zr6 3.333690 1_555
Zr11 Zr7 3.333690 1_555
Zn0 Zr10 3.000269 1_555
Zn0 Zr9 3.000269 1_556
Zn0 Zr4 3.000269 1_555
Zn0 Zr7 3.000269 1_565
Zn0 Zr3 3.000269 1_555
Zn0 Zr1 3.000269 1_555
Zn1 Zr8 3.000269 1_555
Zn1 Zr11 3.000269 1_556
Zn1 Zr5 3.000269 1_555
Zn1 Zr7 3.000269 1_655
Zn1 Zr2 3.000269 1_555
Zn1 Zr1 3.000269 1_555
Zn2 Zr11 3.000269 1_565
Zn2 Zr0 3.000269 1_555
Zn2 Zr6 3.000269 1_555
Zn2 Zr5 3.000269 1_555
Zn2 Zr9 3.000269 1_655
Zn2 Zr3 3.000269 1_555
Zn3 Zr8 3.000269 1_565
Zn3 Zr6 3.000269 1_556
Zn3 Zr0 3.000269 1_555
Zn3 Zr10 3.000269 1_655
Zn3 Zr2 3.000269 1_555
Zn3 Zr4 3.000269 1_555
Cu0 Zn1 2.579104 1_555
Cu0 Zn2 2.579104 1_555
Cu0 Zn3 2.579111 1_555
Cu0 Cu1 2.766062 1_555
Cu0 Cu2 2.766062 1_555
Cu0 Cu3 2.766062 1_555
Cu0 Zr9 2.866929 1_655
Cu0 Zr7 2.866929 1_655
Cu0 Zr10 2.866934 1_655
Cu0 Zr5 2.985379 1_555
Cu0 Zr0 2.985386 1_555
Cu0 Zr2 2.985386 1_555
Cu1 Zn2 2.579104 1_555
Cu1 Zn0 2.579104 1_555
Cu1 Zn3 2.579111 1_555
Cu1 Cu2 2.766062 1_555
Cu1 Cu3 2.766062 1_555
Cu1 Zr7 2.866929 1_565
Cu1 Zr11 2.866929 1_565
Cu1 Zr8 2.866934 1_565
Cu1 Zr3 2.985379 1_555
Cu1 Zr0 2.985386 1_555
Cu1 Zr4 2.985386 1_555
Cu2 Zn1 2.579104 1_555
Cu2 Zn0 2.579104 1_555
Cu2 Zn3 2.579111 1_555
Cu2 Cu3 2.766062 1_555
Cu2 Zr11 2.866929 1_556
Cu2 Zr9 2.866929 1_556
Cu2 Zr6 2.866934 1_556
Cu2 Zr1 2.985379 1_555
Cu2 Zr2 2.985386 1_555
Cu2 Zr4 2.985386 1_555
Cu3 Zn0 2.579108 1_555
Cu3 Zn1 2.579108 1_555
Cu3 Zn2 2.579108 1_555
Cu3 Zr6 2.866925 1_555
Cu3 Zr10 2.866925 1_555
Cu3 Zr8 2.866925 1_555
Cu3 Zr5 2.985383 1_555
Cu3 Zr1 2.985383 1_555
Cu3 Zr3 2.985383 1_555
Cu4 Zn1 2.579104 1_565
Cu4 Zn2 2.579104 1_556
Cu4 Zn3 2.579111 1_555
Cu4 Cu5 2.766062 1_555
Cu4 Cu6 2.766062 1_555
Cu4 Cu7 2.766062 1_555
Cu4 Zr1 2.866929 1_565
Cu4 Zr3 2.866929 1_556
Cu4 Zr4 2.866934 1_555
Cu4 Zr11 2.985379 1_566
Cu4 Zr8 2.985386 1_565
Cu4 Zr6 2.985386 1_556
Cu5 Zn2 2.579104 1_556
Cu5 Zn0 2.579104 1_655
Cu5 Zn3 2.579111 1_555
Cu5 Cu6 2.766062 1_555
Cu5 Cu7 2.766062 1_555
Cu5 Zr5 2.866929 1_556
Cu5 Zr1 2.866929 1_655
Cu5 Zr2 2.866934 1_555
Cu5 Zr9 2.985379 1_656
Cu5 Zr10 2.985386 1_655
Cu5 Zr6 2.985386 1_556
Cu6 Zn1 2.579104 1_565
Cu6 Zn0 2.579104 1_655
Cu6 Zn3 2.579111 1_555
Cu6 Cu7 2.766062 1_555
Cu6 Zr3 2.866929 1_655
Cu6 Zr5 2.866929 1_565
Cu6 Zr0 2.866934 1_555
Cu6 Zr7 2.985379 1_665
Cu6 Zr10 2.985386 1_655
Cu6 Zr8 2.985386 1_565
Cu7 Zn1 2.579108 1_565
Cu7 Zn2 2.579108 1_556
Cu7 Zn0 2.579108 1_655
Cu7 Zr2 2.866925 1_565
Cu7 Zr0 2.866925 1_556
Cu7 Zr4 2.866925 1_655
Cu7 Zr11 2.985383 1_566
Cu7 Zr7 2.985383 1_665
Cu7 Zr9 2.985383 1_656
