# generated using pymatgen
data_Li(NiO2)5
_symmetry_space_group_name_H-M   'P 1'
_cell_length_a   4.91746300
_cell_length_b   5.81873693
_cell_length_c   6.43159044
_cell_angle_alpha   105.63886802
_cell_angle_beta   96.82905246
_cell_angle_gamma   106.43336559
_symmetry_Int_Tables_number   1
_chemical_formula_structural   Li(NiO2)5
_chemical_formula_sum   'Li1 Ni5 O10'
_cell_volume   166.13954997
_cell_formula_units_Z   1
loop_
 _symmetry_equiv_pos_site_id
 _symmetry_equiv_pos_as_xyz
  1  'x, y, z'
loop_
 _atom_site_type_symbol
 _atom_site_label
 _atom_site_symmetry_multiplicity
 _atom_site_fract_x
 _atom_site_fract_y
 _atom_site_fract_z
 _atom_site_occupancy
  Li  Li0  1  0.00000000  0.00000000  0.00000000  1
  Ni  Ni0  1  0.19939300  0.89584600  0.40290200  1
  Ni  Ni1  1  0.00000000  0.50000000  0.00000000  1
  Ni  Ni2  1  0.80060700  0.10415400  0.59709800  1
  Ni  Ni3  1  0.59947700  0.69592400  0.20385700  1
  Ni  Ni4  1  0.40052300  0.30407600  0.79614200  1
  O  O0  1  0.49318400  0.21614900  0.51704300  1
  O  O1  1  0.27755900  0.82145300  0.12031300  1
  O  O2  1  0.08193000  0.42494200  0.71594100  1
  O  O3  1  0.90121100  0.01742400  0.31867600  1
  O  O4  1  0.70763600  0.62950500  0.92988100  1
  O  O5  1  0.91807000  0.57505800  0.28405900  1
  O  O6  1  0.72244100  0.17854700  0.87968700  1
  O  O7  1  0.50681600  0.78385100  0.48295700  1
  O  O8  1  0.29236400  0.37049500  0.07011900  1
  O  O9  1  0.09878900  0.98257600  0.68132400  1
loop_
_geom_bond_atom_site_label_1
_geom_bond_atom_site_label_2
_geom_bond_distance
_geom_bond_site_symmetry_2
Li0 O8 2.117986 1_555
Li0 O4 2.117986 1_444
Li0 O6 2.127347 1_454
Li0 O1 2.127347 1_545
Li0 O3 2.144697 1_455
Li0 O9 2.144697 1_544
Ni0 O1 1.864009 1_555
Ni0 O5 1.870947 1_455
Ni0 O7 1.878385 1_555
Ni0 O3 1.883762 1_465
Ni0 O9 1.889638 1_555
Ni0 O0 1.893765 1_565
Ni1 O8 1.865525 1_555
Ni1 O4 1.865525 1_454
Ni1 O1 1.866629 1_555
Ni1 O6 1.866629 1_454
Ni1 O5 1.880220 1_455
Ni1 O2 1.880220 1_554
Ni2 O6 1.864009 1_555
Ni2 O2 1.870947 1_655
Ni2 O0 1.878385 1_555
Ni2 O9 1.883762 1_645
Ni2 O3 1.889638 1_555
Ni2 O7 1.893765 1_545
Ni3 O4 1.873304 1_554
Ni3 O7 1.876934 1_555
Ni3 O3 1.915884 1_565
Ni3 O8 1.949661 1_555
Ni3 O5 1.960091 1_555
Ni3 O1 1.997927 1_555
Ni4 O8 1.873310 1_556
Ni4 O0 1.876928 1_555
Ni4 O9 1.915884 1_545
Ni4 O4 1.949661 1_555
Ni4 O2 1.960089 1_555
Ni4 O6 1.997929 1_555
