# generated using pymatgen
data_TmMgTl
_symmetry_space_group_name_H-M   'P 1'
_cell_length_a   7.43784307
_cell_length_b   7.43784307
_cell_length_c   4.58622878
_cell_angle_alpha   90.00000000
_cell_angle_beta   90.00000000
_cell_angle_gamma   119.99999173
_symmetry_Int_Tables_number   1
_chemical_formula_structural   TmMgTl
_chemical_formula_sum   'Tm3 Mg3 Tl3'
_cell_volume   219.72547159
_cell_formula_units_Z   3
loop_
 _symmetry_equiv_pos_site_id
 _symmetry_equiv_pos_as_xyz
  1  'x, y, z'
loop_
 _atom_site_type_symbol
 _atom_site_label
 _atom_site_symmetry_multiplicity
 _atom_site_fract_x
 _atom_site_fract_y
 _atom_site_fract_z
 _atom_site_occupancy
  Tm  Tm0  1  0.56993571  -0.00000000  -0.00000000  1
  Tm  Tm1  1  -0.00000000  0.56993571  -0.00000000  1
  Tm  Tm2  1  0.43006429  0.43006429  -0.00000000  1
  Mg  Mg0  1  0.24356150  -0.00000000  0.50000000  1
  Mg  Mg1  1  -0.00000000  0.24356150  0.50000000  1
  Mg  Mg2  1  0.75643850  0.75643850  0.50000000  1
  Tl  Tl0  1  0.33333300  0.66666700  0.50000000  1
  Tl  Tl1  1  0.66666700  0.33333300  0.50000000  1
  Tl  Tl2  1  0.00000000  0.00000000  -0.00000000  1
loop_
_geom_bond_atom_site_label_1
_geom_bond_atom_site_label_2
_geom_bond_distance
_geom_bond_site_symmetry_2
Mg0 Tl0 2.871948 1_545
Mg0 Tl1 2.871953 1_555
Mg0 Tl2 2.922356 1_556
Mg0 Tl2 2.922356 1_555
Mg1 Tl1 2.871948 1_455
Mg1 Tl0 2.871953 1_555
Mg1 Tl2 2.922356 1_556
Mg1 Tl2 2.922356 1_555
Mg2 Tl0 2.871955 1_555
Mg2 Tl1 2.871955 1_555
Mg2 Tl2 2.922357 1_666
Mg2 Tl2 2.922357 1_665
Tl0 Tm1 3.184190 1_555
Tl0 Tm1 3.184190 1_556
Tl0 Tm0 3.184191 1_565
Tl0 Tm0 3.184191 1_566
Tl0 Tm2 3.184195 1_555
Tl0 Tm2 3.184195 1_556
Tl1 Tm0 3.184190 1_555
Tl1 Tm0 3.184190 1_556
Tl1 Tm1 3.184191 1_656
Tl1 Tm1 3.184191 1_655
Tl1 Tm2 3.184195 1_555
Tl1 Tm2 3.184195 1_556
Tl2 Tm1 3.198751 1_545
Tl2 Tm0 3.198751 1_455
Tl2 Tm2 3.198751 1_555
