# generated using pymatgen
data_Ho6Mn(GeS7)2
_symmetry_space_group_name_H-M   'P 1'
_cell_length_a   9.78901554
_cell_length_b   9.78901554
_cell_length_c   5.80354500
_cell_angle_alpha   90.00000000
_cell_angle_beta   90.00000000
_cell_angle_gamma   119.99999687
_symmetry_Int_Tables_number   1
_chemical_formula_structural   Ho6Mn(GeS7)2
_chemical_formula_sum   'Ho6 Mn1 Ge2 S14'
_cell_volume   481.61725414
_cell_formula_units_Z   1
loop_
 _symmetry_equiv_pos_site_id
 _symmetry_equiv_pos_as_xyz
  1  'x, y, z'
loop_
 _atom_site_type_symbol
 _atom_site_label
 _atom_site_symmetry_multiplicity
 _atom_site_fract_x
 _atom_site_fract_y
 _atom_site_fract_z
 _atom_site_occupancy
  Ho  Ho0  1  0.19743900  0.88815600  0.95681900  1
  Ho  Ho1  1  0.69071800  0.80256100  0.95681900  1
  Ho  Ho2  1  0.11184400  0.30928200  0.95681900  1
  Ho  Ho3  1  0.46994700  0.44443200  0.45835200  1
  Ho  Ho4  1  0.97448600  0.53005300  0.45835200  1
  Ho  Ho5  1  0.55556800  0.02551400  0.45835200  1
  Mn  Mn0  1  0.33333300  0.66666700  0.24549200  1
  Ge  Ge0  1  0.00000000  0.00000000  0.37853600  1
  Ge  Ge1  1  0.66666700  0.33333300  0.88093700  1
  S  S0  1  0.23772000  0.14772000  0.21573700  1
  S  S1  1  0.91000000  0.76228000  0.21573700  1
  S  S2  1  0.85228000  0.09000000  0.21573700  1
  S  S3  1  0.42882700  0.18514400  0.71836900  1
  S  S4  1  0.75631800  0.57117300  0.71836900  1
  S  S5  1  0.81485600  0.24368200  0.71836900  1
  S  S6  1  0.00000000  0.00000000  0.75895100  1
  S  S7  1  0.66666700  0.33333300  0.26064100  1
  S  S8  1  0.08272500  0.56790500  0.01285700  1
  S  S9  1  0.48518100  0.91727500  0.01285700  1
  S  S10  1  0.43209500  0.51481900  0.01285700  1
  S  S11  1  0.58437300  0.76409700  0.49676900  1
  S  S12  1  0.17972400  0.41562700  0.49676900  1
  S  S13  1  0.23590300  0.82027600  0.49676900  1
loop_
_geom_bond_atom_site_label_1
_geom_bond_atom_site_label_2
_geom_bond_distance
_geom_bond_site_symmetry_2
Ho0 S9 2.705178 1_556
Ho0 S8 2.770248 1_556
Ho0 S0 2.804919 1_566
Ho0 S13 2.821697 1_555
Ho0 S1 2.868155 1_456
Ho0 S6 2.892897 1_565
Ho0 S3 2.985374 1_565
Ho0 S13 3.263908 1_556
Ho1 S10 2.705178 1_556
Ho1 S9 2.770248 1_556
Ho1 S1 2.804911 1_556
Ho1 S11 2.821700 1_555
Ho1 S2 2.868155 1_566
Ho1 S6 2.892890 1_665
Ho1 S4 2.985373 1_555
Ho1 S11 3.263910 1_556
Ho2 S8 2.705178 1_556
Ho2 S10 2.770248 1_556
Ho2 S2 2.804916 1_456
Ho2 S12 2.821699 1_555
Ho2 S0 2.868148 1_556
Ho2 S6 2.892889 1_555
Ho2 S5 2.985373 1_455
Ho2 S12 3.263910 1_556
Ho3 S12 2.720184 1_555
Ho3 S10 2.748072 1_555
Ho3 S11 2.755217 1_555
Ho3 S3 2.803537 1_555
Ho3 S4 2.863020 1_555
Ho3 S7 2.881309 1_555
Ho3 S0 2.997295 1_555
Ho3 S10 3.350147 1_556
Ho4 S13 2.720180 1_655
Ho4 S8 2.748072 1_655
Ho4 S12 2.755208 1_655
Ho4 S4 2.803537 1_555
Ho4 S5 2.863020 1_555
Ho4 S7 2.881309 1_555
Ho4 S1 2.997300 1_555
Ho4 S8 3.350147 1_656
Ho5 S11 2.720174 1_545
Ho5 S9 2.748072 1_545
Ho5 S13 2.755216 1_545
Ho5 S5 2.803537 1_555
Ho5 S3 2.863020 1_555
Ho5 S7 2.881309 1_555
Ho5 S2 2.997292 1_555
Ho5 S9 3.350147 1_546
Mn0 S8 2.530605 1_555
Mn0 S9 2.530607 1_555
Mn0 S10 2.530620 1_555
Mn0 S13 2.594502 1_555
Mn0 S12 2.594509 1_555
Mn0 S11 2.594510 1_555
Ge0 S6 2.207756 1_555
Ge0 S2 2.243621 1_455
Ge0 S1 2.243621 1_445
Ge0 S0 2.243621 1_555
Ge1 S7 2.203629 1_556
Ge1 S5 2.244478 1_555
Ge1 S4 2.244478 1_555
Ge1 S3 2.244478 1_555
