# generated using pymatgen
data_Sr2NiTeO6
_symmetry_space_group_name_H-M   'P 1'
_cell_length_a   8.00964441
_cell_length_b   8.00964158
_cell_length_c   9.79405254
_cell_angle_alpha   114.07764223
_cell_angle_beta   65.92238602
_cell_angle_gamma   89.97482518
_symmetry_Int_Tables_number   1
_chemical_formula_structural   Sr2NiTeO6
_chemical_formula_sum   'Sr8 Ni4 Te4 O24'
_cell_volume   513.14634147
_cell_formula_units_Z   4
loop_
 _symmetry_equiv_pos_site_id
 _symmetry_equiv_pos_as_xyz
  1  'x, y, z'
loop_
 _atom_site_type_symbol
 _atom_site_label
 _atom_site_symmetry_multiplicity
 _atom_site_fract_x
 _atom_site_fract_y
 _atom_site_fract_z
 _atom_site_occupancy
  Sr  Sr0  1  0.37478500  0.12520100  0.75004400  1
  Sr  Sr1  1  0.87481500  0.62519900  0.75004400  1
  Sr  Sr2  1  0.12479900  0.87518500  0.25004400  1
  Sr  Sr3  1  0.62480000  0.37521400  0.25004500  1
  Sr  Sr4  1  0.62520100  0.87478500  0.24995600  1
  Sr  Sr5  1  0.12519900  0.37481500  0.24995600  1
  Sr  Sr6  1  0.37518500  0.62479900  0.74995600  1
  Sr  Sr7  1  0.87521500  0.12480000  0.74995500  1
  Ni  Ni0  1  0.49999900  0.99999700  0.99999800  1
  Ni  Ni1  1  0.75000800  0.25000400  0.49999900  1
  Ni  Ni2  1  0.99998900  0.50000300  0.99999800  1
  Ni  Ni3  1  0.25000800  0.75000100  0.50000100  1
  Te  Te0  1  0.75002800  0.74997300  0.49994500  1
  Te  Te1  1  0.24997300  0.25002800  0.50005500  1
  Te  Te2  1  0.49997400  0.50002300  0.00004900  1
  Te  Te3  1  0.00002400  0.99997500  0.99995100  1
  O  O0  1  0.25883600  0.49928000  0.99838800  1
  O  O1  1  0.75882900  0.99927200  0.99837600  1
  O  O2  1  0.00874800  0.24935900  0.49854700  1
  O  O3  1  0.50875300  0.74935800  0.49854500  1
  O  O4  1  0.00064100  0.24124600  0.99854500  1
  O  O5  1  0.50064200  0.74125300  0.99854600  1
  O  O6  1  0.75072700  0.99117000  0.49837600  1
  O  O7  1  0.25072000  0.49116400  0.49838700  1
  O  O8  1  0.74124700  0.50064100  0.00145400  1
  O  O9  1  0.24125300  0.00064200  0.00145400  1
  O  O10  1  0.49117000  0.25072700  0.50162400  1
  O  O11  1  0.99116400  0.75072000  0.50161200  1
  O  O12  1  0.99927900  0.75883600  0.00161300  1
  O  O13  1  0.49927200  0.25882900  0.00162400  1
  O  O14  1  0.74935900  0.50874800  0.50145400  1
  O  O15  1  0.24935800  0.00875300  0.50145600  1
  O  O16  1  0.12791600  0.37208700  0.74220900  1
  O  O17  1  0.62790500  0.87210200  0.74222700  1
  O  O18  1  0.87789800  0.12209500  0.24222600  1
  O  O19  1  0.37791400  0.62208400  0.24221000  1
  O  O20  1  0.87208600  0.62791600  0.25779100  1
  O  O21  1  0.37210200  0.12790400  0.25777300  1
  O  O22  1  0.62209400  0.37789800  0.75777400  1
  O  O23  1  0.12208400  0.87791300  0.75779100  1
loop_
_geom_bond_atom_site_label_1
_geom_bond_atom_site_label_2
_geom_bond_distance
_geom_bond_site_symmetry_2
Ni0 O17 2.061829 1_555
Ni0 O21 2.061861 1_566
Ni0 O5 2.066675 1_555
Ni0 O9 2.066676 1_566
Ni0 O13 2.066693 1_566
Ni0 O1 2.066693 1_555
Ni1 O18 2.061845 1_555
Ni1 O22 2.061861 1_555
Ni1 O2 2.066644 1_655
Ni1 O14 2.066664 1_555
Ni1 O6 2.066721 1_545
Ni1 O10 2.066746 1_555
Ni2 O16 2.061973 1_655
Ni2 O20 2.062005 1_556
Ni2 O8 2.066644 1_556
Ni2 O12 2.066744 1_556
Ni2 O4 2.066776 1_655
Ni2 O0 2.066877 1_655
Ni3 O23 2.061981 1_555
Ni3 O19 2.061989 1_555
Ni3 O3 2.066668 1_555
Ni3 O15 2.066728 1_565
Ni3 O7 2.066780 1_555
Ni3 O11 2.066849 1_455
O0 Te2 1.938115 1_556
O0 Sr6 2.818884 1_555
O0 Sr0 2.822056 1_555
O0 Sr5 2.839626 1_556
O0 Sr2 2.841785 1_556
O1 Te3 1.938223 1_655
O1 Sr7 2.818835 1_565
O1 Sr1 2.821981 1_555
O1 Sr4 2.839850 1_556
O1 Sr3 2.842028 1_566
O2 Te1 1.938192 1_555
O2 Sr5 2.819870 1_555
O2 Sr2 2.823037 1_545
O2 Sr7 2.838795 1_455
O2 Sr1 2.840961 1_455
O3 Te0 1.938156 1_555
O3 Sr4 2.819689 1_555
O3 Sr3 2.822858 1_555
O3 Sr6 2.838827 1_555
O3 Sr0 2.840990 1_565
O4 Te3 1.938147 1_545
O4 Sr7 2.819692 1_455
O4 Sr0 2.822863 1_555
O4 Sr5 2.838821 1_556
O4 Sr3 2.840983 1_456
O5 Te2 1.938211 1_556
O5 Sr6 2.819866 1_555
O5 Sr1 2.823029 1_555
O5 Sr4 2.838811 1_556
O5 Sr2 2.840982 1_556
O6 Te0 1.938214 1_555
O6 Sr4 2.818815 1_555
O6 Sr2 2.821977 1_655
O6 Sr7 2.839847 1_565
O6 Sr0 2.842028 1_565
O7 Te1 1.938126 1_555
O7 Sr5 2.818887 1_555
O7 Sr3 2.822058 1_555
O7 Sr6 2.839634 1_555
O7 Sr1 2.841789 1_455
O8 Te2 1.938160 1_555
O8 Sr3 2.819706 1_555
O8 Sr4 2.822864 1_555
O8 Sr1 2.838813 1_554
O8 Sr7 2.840979 1_554
O9 Te3 1.938204 1_544
O9 Sr2 2.819867 1_545
O9 Sr5 2.823027 1_555
O9 Sr0 2.838812 1_554
O9 Sr6 2.840980 1_544
O10 Te1 1.938215 1_555
O10 Sr0 2.818815 1_555
O10 Sr6 2.821975 1_555
O10 Sr3 2.839841 1_555
O10 Sr4 2.842026 1_545
O11 Te0 1.938123 1_555
O11 Sr1 2.818896 1_555
O11 Sr7 2.822059 1_565
O11 Sr2 2.839626 1_655
O11 Sr5 2.841785 1_655
O12 Te3 1.938126 1_654
O12 Sr2 2.818881 1_655
O12 Sr4 2.822049 1_555
O12 Sr1 2.839628 1_554
O12 Sr6 2.841795 1_654
O13 Te2 1.938214 1_555
O13 Sr3 2.818835 1_555
O13 Sr5 2.821982 1_555
O13 Sr0 2.839849 1_554
O13 Sr7 2.842036 1_554
O14 Te0 1.938195 1_555
O14 Sr1 2.819861 1_555
O14 Sr6 2.823035 1_555
O14 Sr3 2.838803 1_555
O14 Sr5 2.840965 1_655
O15 Te1 1.938159 1_555
O15 Sr0 2.819680 1_555
O15 Sr7 2.822851 1_455
O15 Sr2 2.838834 1_545
O15 Sr4 2.840994 1_545
O16 Te1 1.936945 1_555
O16 Sr1 2.822807 1_455
O16 Sr6 2.833058 1_555
O16 Sr7 2.833099 1_455
O16 Sr0 2.840827 1_555
O17 Te0 1.937969 1_555
O17 Sr0 2.822939 1_565
O17 Sr7 2.833209 1_565
O17 Sr6 2.833293 1_555
O17 Sr1 2.841051 1_555
O18 Te3 1.937913 1_644
O18 Sr3 2.822917 1_555
O18 Sr4 2.833204 1_545
O18 Sr5 2.833282 1_655
O18 Sr2 2.841045 1_645
O19 Te2 1.937001 1_555
O19 Sr2 2.822829 1_555
O19 Sr5 2.833075 1_555
O19 Sr4 2.833098 1_555
O19 Sr3 2.840833 1_555
O20 Te0 1.936945 1_555
O20 Sr5 2.822813 1_655
O20 Sr2 2.833064 1_655
O20 Sr3 2.833098 1_555
O20 Sr4 2.840822 1_555
O21 Te1 1.937969 1_555
O21 Sr4 2.822934 1_545
O21 Sr3 2.833209 1_555
O21 Sr2 2.833288 1_545
O21 Sr5 2.841057 1_555
O22 Te2 1.937913 1_556
O22 Sr7 2.822928 1_555
O22 Sr0 2.833198 1_555
O22 Sr1 2.833288 1_555
O22 Sr6 2.841040 1_555
O23 Te3 1.936993 1_555
O23 Sr6 2.822818 1_555
O23 Sr1 2.833070 1_455
O23 Sr0 2.833104 1_565
O23 Sr7 2.840839 1_465
