# generated using pymatgen
data_Na2Zn3GeAs4
_symmetry_space_group_name_H-M   'P 1'
_cell_length_a   8.58291030
_cell_length_b   8.58291030
_cell_length_c   7.17896092
_cell_angle_alpha   65.50587103
_cell_angle_beta   65.50587103
_cell_angle_gamma   27.85161106
_symmetry_Int_Tables_number   1
_chemical_formula_structural   Na2Zn3GeAs4
_chemical_formula_sum   'Na2 Zn3 Ge1 As4'
_cell_volume   223.39434934
_cell_formula_units_Z   1
loop_
 _symmetry_equiv_pos_site_id
 _symmetry_equiv_pos_as_xyz
  1  'x, y, z'
loop_
 _atom_site_type_symbol
 _atom_site_label
 _atom_site_symmetry_multiplicity
 _atom_site_fract_x
 _atom_site_fract_y
 _atom_site_fract_z
 _atom_site_occupancy
  Na  Na0  1  0.50828800  0.50828800  0.49233300  1
  Na  Na1  1  0.00420200  0.00420200  0.99414600  1
  Zn  Zn0  1  0.80264200  0.80264200  0.51840900  1
  Zn  Zn1  1  0.67249600  0.67249600  0.97860600  1
  Zn  Zn2  1  0.18102300  0.18102300  0.49969300  1
  Ge  Ge0  1  0.31339000  0.31339000  0.03038400  1
  As  As0  1  0.62797200  0.62797200  0.69941000  1
  As  As1  1  0.14720200  0.14720200  0.19008400  1
  As  As2  1  0.37016300  0.37016300  0.30156800  1
  As  As3  1  0.86673700  0.86673700  0.79536700  1
loop_
_geom_bond_atom_site_label_1
_geom_bond_atom_site_label_2
_geom_bond_distance
_geom_bond_site_symmetry_2
As0 Zn1 2.416180 1_555
As0 Zn2 2.453776 1_565
As0 Zn2 2.453776 1_655
As0 Zn0 2.631966 1_555
As0 Na0 2.952776 1_555
As0 Na1 3.044447 1_565
As0 Na1 3.044447 1_655
As1 Zn1 2.490512 1_454
As1 Zn1 2.490512 1_544
As1 Ge0 2.503848 1_555
As1 Zn2 2.515513 1_555
As1 Na0 3.168813 1_545
As1 Na0 3.168813 1_455
As1 Na1 3.243200 1_554
As2 Ge0 2.501616 1_555
As2 Zn0 2.541556 1_455
As2 Zn0 2.541556 1_545
As2 Zn2 2.850371 1_555
As2 Na0 3.140730 1_555
As2 Na1 3.148689 1_564
As2 Na1 3.148689 1_654
As3 Ge0 2.573361 1_566
As3 Ge0 2.573361 1_656
As3 Zn0 2.628228 1_555
As3 Zn1 2.926963 1_555
As3 Na1 3.174002 1_665
As3 Na0 3.190356 1_655
As3 Na0 3.190356 1_565
