# generated using pymatgen
data_DyTmFe14B
_symmetry_space_group_name_H-M   'P 1'
_cell_length_a   8.70595000
_cell_length_b   8.70595000
_cell_length_c   11.87193400
_cell_angle_alpha   90.00000000
_cell_angle_beta   90.00000000
_cell_angle_gamma   90.00000000
_symmetry_Int_Tables_number   1
_chemical_formula_structural   DyTmFe14B
_chemical_formula_sum   'Dy4 Tm4 Fe56 B4'
_cell_volume   899.81620608
_cell_formula_units_Z   4
loop_
 _symmetry_equiv_pos_site_id
 _symmetry_equiv_pos_as_xyz
  1  'x, y, z'
loop_
 _atom_site_type_symbol
 _atom_site_label
 _atom_site_symmetry_multiplicity
 _atom_site_fract_x
 _atom_site_fract_y
 _atom_site_fract_z
 _atom_site_occupancy
  Dy  Dy0  1  0.23281900  0.76718100  0.50000000  1
  Dy  Dy1  1  0.76718100  0.23281900  0.50000000  1
  Dy  Dy2  1  0.26718100  0.26718100  0.00000000  1
  Dy  Dy3  1  0.73281900  0.73281900  0.00000000  1
  Tm  Tm0  1  0.64354600  0.64354600  0.50000000  1
  Tm  Tm1  1  0.35645400  0.35645400  0.50000000  1
  Tm  Tm2  1  0.85645400  0.14354600  0.00000000  1
  Tm  Tm3  1  0.14354600  0.85645400  0.00000000  1
  Fe  Fe0  1  0.18288300  0.81711700  0.25340600  1
  Fe  Fe1  1  0.81711700  0.18288300  0.25340600  1
  Fe  Fe2  1  0.31711700  0.31711700  0.75340600  1
  Fe  Fe3  1  0.68288300  0.68288300  0.75340600  1
  Fe  Fe4  1  0.81711700  0.18288300  0.74659400  1
  Fe  Fe5  1  0.18288300  0.81711700  0.74659400  1
  Fe  Fe6  1  0.68288300  0.68288300  0.24659400  1
  Fe  Fe7  1  0.31711700  0.31711700  0.24659400  1
  Fe  Fe8  1  0.93355000  0.72464500  0.37329200  1
  Fe  Fe9  1  0.06645000  0.27535500  0.37329200  1
  Fe  Fe10  1  0.56645000  0.22464500  0.87329200  1
  Fe  Fe11  1  0.43355000  0.77535500  0.87329200  1
  Fe  Fe12  1  0.06645000  0.27535500  0.62670800  1
  Fe  Fe13  1  0.93355000  0.72464500  0.62670800  1
  Fe  Fe14  1  0.43355000  0.77535500  0.12670800  1
  Fe  Fe15  1  0.56645000  0.22464500  0.12670800  1
  Fe  Fe16  1  0.72464500  0.93355000  0.37329200  1
  Fe  Fe17  1  0.27535500  0.06645000  0.37329200  1
  Fe  Fe18  1  0.22464500  0.56645000  0.87329200  1
  Fe  Fe19  1  0.77535500  0.43355000  0.87329200  1
  Fe  Fe20  1  0.27535500  0.06645000  0.62670800  1
  Fe  Fe21  1  0.72464500  0.93355000  0.62670800  1
  Fe  Fe22  1  0.77535500  0.43355000  0.12670800  1
  Fe  Fe23  1  0.22464500  0.56645000  0.12670800  1
  Fe  Fe24  1  0.50000000  0.50000000  0.11504800  1
  Fe  Fe25  1  0.00000000  0.00000000  0.61504800  1
  Fe  Fe26  1  0.50000000  0.50000000  0.88495200  1
  Fe  Fe27  1  0.00000000  0.00000000  0.38495200  1
  Fe  Fe28  1  0.14152500  0.53693700  0.32552900  1
  Fe  Fe29  1  0.85847500  0.46306300  0.32552900  1
  Fe  Fe30  1  0.35847500  0.03693700  0.82552900  1
  Fe  Fe31  1  0.64152500  0.96306300  0.82552900  1
  Fe  Fe32  1  0.85847500  0.46306300  0.67447100  1
  Fe  Fe33  1  0.14152500  0.53693700  0.67447100  1
  Fe  Fe34  1  0.64152500  0.96306300  0.17447100  1
  Fe  Fe35  1  0.35847500  0.03693700  0.17447100  1
  Fe  Fe36  1  0.53693700  0.14152500  0.32552900  1
  Fe  Fe37  1  0.46306300  0.85847500  0.32552900  1
  Fe  Fe38  1  0.03693700  0.35847500  0.82552900  1
  Fe  Fe39  1  0.96306300  0.64152500  0.82552900  1
  Fe  Fe40  1  0.46306300  0.85847500  0.67447100  1
  Fe  Fe41  1  0.53693700  0.14152500  0.67447100  1
  Fe  Fe42  1  0.96306300  0.64152500  0.17447100  1
  Fe  Fe43  1  0.03693700  0.35847500  0.17447100  1
  Fe  Fe44  1  0.00000000  0.50000000  0.50000000  1
  Fe  Fe45  1  0.50000000  0.00000000  0.00000000  1
  Fe  Fe46  1  0.50000000  0.00000000  0.50000000  1
  Fe  Fe47  1  0.00000000  0.50000000  0.00000000  1
  Fe  Fe48  1  0.40332200  0.59667800  0.30009300  1
  Fe  Fe49  1  0.59667800  0.40332200  0.30009300  1
  Fe  Fe50  1  0.09667800  0.09667800  0.80009300  1
  Fe  Fe51  1  0.90332200  0.90332200  0.80009300  1
  Fe  Fe52  1  0.59667800  0.40332200  0.69990700  1
  Fe  Fe53  1  0.40332200  0.59667800  0.69990700  1
  Fe  Fe54  1  0.90332200  0.90332200  0.19990700  1
  Fe  Fe55  1  0.09667800  0.09667800  0.19990700  1
  B  B0  1  0.87233100  0.87233100  0.50000000  1
  B  B1  1  0.12766900  0.12766900  0.50000000  1
  B  B2  1  0.62766900  0.37233100  0.00000000  1
  B  B3  1  0.37233100  0.62766900  0.00000000  1
loop_
_geom_bond_atom_site_label_1
_geom_bond_atom_site_label_2
_geom_bond_distance
_geom_bond_site_symmetry_2
Dy0 Fe28 2.989986 1_555
Dy0 Fe37 2.989986 1_555
Dy0 Fe40 2.989986 1_555
Dy0 Fe33 2.989986 1_555
Dy0 Fe5 2.991410 1_555
Dy0 Fe0 2.991410 1_555
Dy0 Fe20 3.031201 1_565
Dy0 Fe17 3.031201 1_565
Dy0 Fe8 3.031201 1_455
Dy0 Fe13 3.031201 1_455
Dy0 Fe44 3.085278 1_555
Dy0 Fe46 3.085278 1_565
Dy0 Fe53 3.168486 1_555
Dy0 Fe48 3.168486 1_555
Dy0 Fe27 3.175257 1_565
Dy0 Fe25 3.175257 1_565
Dy1 Fe29 2.989986 1_555
Dy1 Fe36 2.989986 1_555
Dy1 Fe41 2.989986 1_555
Dy1 Fe32 2.989986 1_555
Dy1 Fe4 2.991410 1_555
Dy1 Fe1 2.991410 1_555
Dy1 Fe12 3.031201 1_655
Dy1 Fe9 3.031201 1_655
Dy1 Fe16 3.031201 1_545
Dy1 Fe21 3.031201 1_545
Dy1 Fe44 3.085278 1_655
Dy1 Fe46 3.085278 1_555
Dy1 Fe52 3.168486 1_555
Dy1 Fe49 3.168486 1_555
Dy1 Fe25 3.175257 1_655
Dy1 Fe27 3.175257 1_655
Dy2 Fe35 2.989986 1_555
Dy2 Fe43 2.989986 1_555
Dy2 Fe38 2.989986 1_554
Dy2 Fe30 2.989986 1_554
Dy2 Fe7 2.991410 1_555
Dy2 Fe2 2.991410 1_554
Dy2 Fe10 3.031201 1_554
Dy2 Fe23 3.031201 1_555
Dy2 Fe15 3.031201 1_555
Dy2 Fe18 3.031201 1_554
Dy2 Fe45 3.085278 1_555
Dy2 Fe47 3.085278 1_555
Dy2 Fe50 3.168486 1_554
Dy2 Fe55 3.168486 1_555
Dy2 Fe24 3.175257 1_555
Dy2 Fe26 3.175257 1_554
Dy3 Fe42 2.989986 1_555
Dy3 Fe34 2.989986 1_555
Dy3 Fe31 2.989986 1_554
Dy3 Fe39 2.989986 1_554
Dy3 Fe3 2.991410 1_554
Dy3 Fe6 2.991410 1_555
Dy3 Fe22 3.031201 1_555
Dy3 Fe14 3.031201 1_555
Dy3 Fe11 3.031201 1_554
Dy3 Fe19 3.031201 1_554
Dy3 Fe45 3.085278 1_565
Dy3 Fe47 3.085278 1_655
Dy3 Fe51 3.168486 1_554
Dy3 Fe54 3.168486 1_555
Dy3 Fe24 3.175257 1_555
Dy3 Fe26 3.175257 1_554
Fe0 Fe37 2.610105 1_555
Fe0 Fe28 2.610105 1_555
Fe0 Fe42 2.622498 1_455
Fe0 Fe35 2.622498 1_565
Fe0 Fe55 2.624927 1_565
Fe0 Fe54 2.624927 1_455
Fe0 Fe23 2.675269 1_555
Fe0 Fe14 2.675269 1_555
Fe0 Fe8 2.717663 1_455
Fe0 Fe17 2.717663 1_565
Fe0 Fe27 2.740244 1_565
Fe0 Fe48 2.770079 1_555
Fe0 Tm3 3.047155 1_555
Fe1 Fe36 2.610105 1_555
Fe1 Fe29 2.610105 1_555
Fe1 Fe34 2.622498 1_545
Fe1 Fe43 2.622498 1_655
Fe1 Fe54 2.624927 1_545
Fe1 Fe55 2.624927 1_655
Fe1 Fe15 2.675269 1_555
Fe1 Fe22 2.675269 1_555
Fe1 Fe9 2.717663 1_655
Fe1 Fe16 2.717663 1_545
Fe1 Fe27 2.740244 1_655
Fe1 Fe49 2.770079 1_555
Fe1 Tm2 3.047155 1_555
Fe2 Fe30 2.610105 1_555
Fe2 Fe38 2.610105 1_555
Fe2 Fe33 2.622498 1_555
Fe2 Fe41 2.622498 1_555
Fe2 Fe52 2.624927 1_555
Fe2 Fe53 2.624927 1_555
Fe2 Fe20 2.675269 1_555
Fe2 Fe26 2.740244 1_555
Fe2 Fe50 2.770079 1_555
Fe2 Tm1 3.047155 1_555
Fe3 Fe31 2.610105 1_555
Fe3 Fe39 2.610105 1_555
Fe3 Fe40 2.622498 1_555
Fe3 Fe32 2.622498 1_555
Fe3 Fe52 2.624927 1_555
Fe3 Fe53 2.624927 1_555
Fe3 Fe51 2.770079 1_555
Fe3 Tm0 3.047155 1_555
Fe4 Fe41 2.610105 1_555
Fe4 Fe51 2.624927 1_545
Fe4 Fe50 2.624927 1_655
Fe4 Fe52 2.770079 1_555
Fe4 Tm2 3.047155 1_556
Fe5 Fe51 2.624927 1_455
Fe5 Fe50 2.624927 1_565
Fe5 Fe53 2.770079 1_555
Fe5 Tm3 3.047155 1_556
Fe6 Fe8 2.675269 1_555
Fe6 Tm0 3.047155 1_555
Fe7 Fe9 2.675269 1_555
Fe7 Tm1 3.047155 1_555
Fe8 Tm0 3.022538 1_555
Fe9 Tm1 3.022538 1_555
Fe10 Fe31 2.436167 1_545
Fe10 Fe41 2.482158 1_555
Fe10 Fe30 2.504079 1_555
Fe10 Fe45 2.534255 1_556
Fe10 Fe52 2.593468 1_555
Fe10 Fe4 2.675269 1_555
Fe10 Fe2 2.717663 1_555
Fe10 Tm2 3.022538 1_556
Fe11 Fe30 2.436167 1_565
Fe11 Fe40 2.482158 1_555
Fe11 Fe31 2.504079 1_555
Fe11 Fe45 2.534255 1_566
Fe11 Fe53 2.593468 1_555
Fe11 Fe5 2.675269 1_555
Fe11 Fe3 2.717663 1_555
Fe11 Tm3 3.022538 1_556
Fe12 Fe33 2.436167 1_555
Fe12 Fe38 2.482158 1_555
Fe12 Fe32 2.504079 1_455
Fe12 Fe44 2.534255 1_555
Fe12 Fe50 2.593468 1_555
Fe12 Fe2 2.675269 1_555
Fe12 Fe4 2.717663 1_455
Fe12 Tm1 3.022538 1_555
Fe13 Fe32 2.436167 1_555
Fe13 Fe39 2.482158 1_555
Fe13 Fe33 2.504079 1_655
Fe13 Fe44 2.534255 1_655
Fe13 Fe51 2.593468 1_555
Fe13 Fe3 2.675269 1_555
Fe13 Fe5 2.717663 1_655
Fe13 Tm0 3.022538 1_555
Fe14 Fe35 2.436167 1_565
Fe14 Fe37 2.482158 1_555
Fe14 Fe34 2.504079 1_555
Fe14 Fe45 2.534255 1_565
Fe14 Fe48 2.593468 1_555
Fe14 Fe6 2.717663 1_555
Fe14 Tm3 3.022538 1_555
Fe15 Fe34 2.436167 1_545
Fe15 Fe36 2.482158 1_555
Fe15 Fe35 2.504079 1_555
Fe15 Fe45 2.534255 1_555
Fe15 Fe49 2.593468 1_555
Fe15 Fe7 2.717663 1_555
Fe15 Tm2 3.022538 1_555
Fe16 Fe37 2.436167 1_555
Fe16 Fe34 2.482158 1_555
Fe16 Fe36 2.504079 1_565
Fe16 Fe46 2.534255 1_565
Fe16 Fe54 2.593468 1_555
Fe16 Fe6 2.675269 1_555
Fe16 Tm0 3.022538 1_555
Fe17 Fe36 2.436167 1_555
Fe17 Fe35 2.482158 1_555
Fe17 Fe37 2.504079 1_545
Fe17 Fe46 2.534255 1_555
Fe17 Fe55 2.593468 1_555
Fe17 Fe7 2.675269 1_555
Fe17 Tm1 3.022538 1_555
Fe18 Fe39 2.436167 1_455
Fe18 Fe33 2.482158 1_555
Fe18 Fe38 2.504079 1_555
Fe18 Fe47 2.534255 1_556
Fe18 Fe53 2.593468 1_555
Fe18 Fe5 2.675269 1_555
Fe18 Fe2 2.717663 1_555
Fe18 Tm3 3.022538 1_556
Fe19 Fe38 2.436167 1_655
Fe19 Fe32 2.482158 1_555
Fe19 Fe39 2.504079 1_555
Fe19 Fe47 2.534255 1_656
Fe19 Fe52 2.593468 1_555
Fe19 Fe4 2.675269 1_555
Fe19 Fe3 2.717663 1_555
Fe19 Tm2 3.022538 1_556
Fe20 Fe41 2.436167 1_555
Fe20 Fe30 2.482158 1_555
Fe20 Fe40 2.504079 1_545
Fe20 Fe46 2.534255 1_555
Fe20 Fe50 2.593468 1_555
Fe20 Fe5 2.717663 1_545
Fe20 Tm1 3.022538 1_555
Fe21 Fe40 2.436167 1_555
Fe21 Fe31 2.482158 1_555
Fe21 Fe41 2.504079 1_565
Fe21 Fe46 2.534255 1_565
Fe21 Fe51 2.593468 1_555
Fe21 Fe3 2.675269 1_555
Fe21 Fe4 2.717663 1_565
Fe21 Tm0 3.022538 1_555
Fe22 Fe43 2.436167 1_655
Fe22 Fe29 2.482158 1_555
Fe22 Fe42 2.504079 1_555
Fe22 Fe47 2.534255 1_655
Fe22 Fe49 2.593468 1_555
Fe22 Fe6 2.717663 1_555
Fe22 Tm2 3.022538 1_555
Fe23 Fe42 2.436167 1_455
Fe23 Fe28 2.482158 1_555
Fe23 Fe43 2.504079 1_555
Fe23 Fe47 2.534255 1_555
Fe23 Fe48 2.593468 1_555
Fe23 Fe7 2.717663 1_555
Fe23 Tm3 3.022538 1_555
Fe24 Fe48 2.498589 1_555
Fe24 Fe49 2.498589 1_555
Fe24 Fe6 2.740244 1_555
Fe24 Fe7 2.740244 1_555
Fe25 Fe50 2.498589 1_555
Fe25 Fe51 2.498589 1_445
Fe25 Fe4 2.740244 1_455
Fe25 Fe5 2.740244 1_545
Fe26 Fe53 2.498589 1_555
Fe26 Fe52 2.498589 1_555
Fe26 Fe3 2.740244 1_555
Fe27 Fe54 2.498589 1_445
Fe27 Fe55 2.498589 1_555
Fe28 Fe48 2.357204 1_555
Fe28 Fe44 2.431423 1_555
Fe28 Fe9 2.436167 1_555
Fe28 Fe8 2.504079 1_455
Fe28 Fe43 2.541478 1_555
Fe28 Fe42 2.541478 1_455
Fe28 Fe29 2.546764 1_455
Fe28 Fe7 2.622498 1_555
Fe28 Tm1 3.203197 1_555
Fe29 Fe49 2.357204 1_555
Fe29 Fe44 2.431423 1_655
Fe29 Fe8 2.436167 1_555
Fe29 Fe9 2.504079 1_655
Fe29 Fe43 2.541478 1_655
Fe29 Fe42 2.541478 1_555
Fe29 Fe6 2.622498 1_555
Fe29 Tm0 3.203197 1_555
Fe30 Fe50 2.357204 1_555
Fe30 Fe45 2.431423 1_556
Fe30 Fe40 2.541478 1_545
Fe30 Fe41 2.541478 1_555
Fe30 Fe31 2.546764 1_545
Fe30 Fe5 2.622498 1_545
Fe30 Tm3 3.203197 1_546
Fe31 Fe51 2.357204 1_555
Fe31 Fe45 2.431423 1_566
Fe31 Fe40 2.541478 1_555
Fe31 Fe41 2.541478 1_565
Fe31 Fe4 2.622498 1_565
Fe31 Tm2 3.203197 1_566
Fe32 Fe52 2.357204 1_555
Fe32 Fe44 2.431423 1_655
Fe32 Fe39 2.541478 1_555
Fe32 Fe38 2.541478 1_655
Fe32 Fe33 2.546764 1_655
Fe32 Fe4 2.610105 1_555
Fe32 Tm0 3.203197 1_555
Fe33 Fe53 2.357204 1_555
Fe33 Fe44 2.431423 1_555
Fe33 Fe38 2.541478 1_555
Fe33 Fe39 2.541478 1_455
Fe33 Fe5 2.610105 1_555
Fe33 Tm1 3.203197 1_555
Fe34 Fe54 2.357204 1_555
Fe34 Fe45 2.431423 1_565
Fe34 Fe37 2.541478 1_555
Fe34 Fe36 2.541478 1_565
Fe34 Fe35 2.546764 1_565
Fe34 Fe6 2.610105 1_555
Fe34 Tm2 3.203197 1_565
Fe35 Fe55 2.357204 1_555
Fe35 Fe45 2.431423 1_555
Fe35 Fe36 2.541478 1_555
Fe35 Fe37 2.541478 1_545
Fe35 Fe7 2.610105 1_555
Fe35 Tm3 3.203197 1_545
Fe36 Fe49 2.357204 1_555
Fe36 Fe46 2.431423 1_555
Fe36 Fe37 2.546764 1_545
Fe36 Fe7 2.622498 1_555
Fe36 Tm1 3.203197 1_555
Fe37 Fe48 2.357204 1_555
Fe37 Fe46 2.431423 1_565
Fe37 Fe6 2.622498 1_555
Fe37 Tm0 3.203197 1_555
Fe38 Fe50 2.357204 1_555
Fe38 Fe47 2.431423 1_556
Fe38 Fe39 2.546764 1_455
Fe38 Fe4 2.622498 1_455
Fe38 Tm2 3.203197 1_456
Fe39 Fe51 2.357204 1_555
Fe39 Fe47 2.431423 1_656
Fe39 Fe5 2.622498 1_655
Fe39 Tm3 3.203197 1_656
Fe40 Fe53 2.357204 1_555
Fe40 Fe46 2.431423 1_565
Fe40 Fe41 2.546764 1_565
Fe40 Fe5 2.610105 1_555
Fe40 Tm0 3.203197 1_555
Fe41 Fe52 2.357204 1_555
Fe41 Fe46 2.431423 1_555
Fe41 Tm1 3.203197 1_555
Fe42 Fe54 2.357204 1_555
Fe42 Fe47 2.431423 1_655
Fe42 Fe8 2.482158 1_555
Fe42 Fe43 2.546764 1_655
Fe42 Fe6 2.610105 1_555
Fe42 Tm3 3.203197 1_655
Fe43 Fe55 2.357204 1_555
Fe43 Fe47 2.431423 1_555
Fe43 Fe9 2.482158 1_555
Fe43 Fe7 2.610105 1_555
Fe43 Tm2 3.203197 1_455
Fe44 Fe9 2.534255 1_555
Fe44 Fe8 2.534255 1_455
Fe44 Tm1 3.345452 1_555
Fe44 Tm0 3.345452 1_455
Fe45 Tm3 3.345452 1_545
Fe45 Tm2 3.345452 1_555
Fe46 Tm1 3.345452 1_555
Fe46 Tm0 3.345452 1_545
Fe47 Tm2 3.345452 1_455
Fe47 Tm3 3.345452 1_555
Fe48 Fe49 2.380613 1_555
Fe48 Fe6 2.624927 1_555
Fe48 Fe7 2.624927 1_555
Fe48 Tm0 3.189486 1_555
Fe48 Tm1 3.189486 1_555
Fe49 Fe6 2.624927 1_555
Fe49 Fe7 2.624927 1_555
Fe49 Tm0 3.189486 1_555
Fe49 Tm1 3.189486 1_555
Fe50 Fe51 2.380613 1_445
Fe50 Tm3 3.189486 1_546
Fe50 Tm2 3.189486 1_456
Fe51 Tm2 3.189486 1_566
Fe51 Tm3 3.189486 1_656
Fe52 Fe53 2.380613 1_555
Fe52 Tm0 3.189486 1_555
Fe52 Tm1 3.189486 1_555
Fe53 Tm0 3.189486 1_555
Fe53 Tm1 3.189486 1_555
Fe54 Fe55 2.380613 1_665
Fe54 Fe8 2.593468 1_555
Fe54 Fe6 2.770079 1_555
Fe54 Tm2 3.189486 1_565
Fe54 Tm3 3.189486 1_655
Fe55 Fe9 2.593468 1_555
Fe55 Fe7 2.770079 1_555
Fe55 Tm3 3.189486 1_545
Fe55 Tm2 3.189486 1_455
B0 Fe16 2.049397 1_555
B0 Fe8 2.049397 1_555
B0 Fe21 2.049397 1_555
B0 Fe13 2.049397 1_555
B0 Fe27 2.082379 1_665
B0 Fe25 2.082379 1_665
B0 Tm0 2.816818 1_555
B1 Fe9 2.049397 1_555
B1 Fe17 2.049397 1_555
B1 Fe20 2.049397 1_555
B1 Fe12 2.049397 1_555
B1 Fe27 2.082379 1_555
B1 Fe25 2.082379 1_555
B1 Tm1 2.816818 1_555
B2 Fe22 2.049397 1_555
B2 Fe15 2.049397 1_555
B2 Fe19 2.049397 1_554
B2 Fe10 2.049397 1_554
B2 Fe24 2.082379 1_555
B2 Fe26 2.082379 1_554
B2 Tm2 2.816818 1_555
B3 Fe14 2.049397 1_555
B3 Fe23 2.049397 1_555
B3 Fe11 2.049397 1_554
B3 Fe18 2.049397 1_554
B3 Fe24 2.082379 1_555
B3 Fe26 2.082379 1_554
B3 Tm3 2.816818 1_555
