# generated using pymatgen
data_Ba2Sr6Co3Cu5O24
_symmetry_space_group_name_H-M   'P 1'
_cell_length_a   7.86579300
_cell_length_b   7.81382800
_cell_length_c   7.88789778
_cell_angle_alpha   89.93066741
_cell_angle_beta   90.00000000
_cell_angle_gamma   90.00000000
_symmetry_Int_Tables_number   1
_chemical_formula_structural   Ba2Sr6Co3Cu5O24
_chemical_formula_sum   'Ba2 Sr6 Co3 Cu5 O24'
_cell_volume   484.80525199
_cell_formula_units_Z   1
loop_
 _symmetry_equiv_pos_site_id
 _symmetry_equiv_pos_as_xyz
  1  'x, y, z'
loop_
 _atom_site_type_symbol
 _atom_site_label
 _atom_site_symmetry_multiplicity
 _atom_site_fract_x
 _atom_site_fract_y
 _atom_site_fract_z
 _atom_site_occupancy
  Ba  Ba0  1  0.24880300  0.24879200  0.24923300  1
  Ba  Ba1  1  0.24880300  0.75120800  0.75076700  1
  Sr  Sr0  1  0.75120900  0.24693000  0.24801200  1
  Sr  Sr1  1  0.75115400  0.75244400  0.24831800  1
  Sr  Sr2  1  0.24861800  0.75206000  0.24855100  1
  Sr  Sr3  1  0.75115400  0.24755600  0.75168200  1
  Sr  Sr4  1  0.75120900  0.75307000  0.75198800  1
  Sr  Sr5  1  0.24861800  0.24794000  0.75144900  1
  Co  Co0  1  0.50289000  0.50000000  0.00000000  1
  Co  Co1  1  0.99704600  0.50000000  0.50000000  1
  Co  Co2  1  0.50231200  0.50000000  0.50000000  1
  Cu  Cu0  1  0.99992800  0.00000000  0.00000000  1
  Cu  Cu1  1  0.00006100  0.50000000  0.00000000  1
  Cu  Cu2  1  0.50061700  0.00000000  0.00000000  1
  Cu  Cu3  1  0.99917900  0.00000000  0.50000000  1
  Cu  Cu4  1  0.50059700  0.00000000  0.50000000  1
  O  O0  1  0.99222500  0.99520400  0.25057400  1
  O  O1  1  0.99490100  0.50311200  0.25312900  1
  O  O2  1  0.50835200  0.99504900  0.25051900  1
  O  O3  1  0.50616500  0.50161700  0.25156600  1
  O  O4  1  0.99222500  0.00479600  0.74942600  1
  O  O5  1  0.99490100  0.49688800  0.74687100  1
  O  O6  1  0.50835200  0.00495100  0.74948100  1
  O  O7  1  0.50616500  0.49838300  0.74843400  1
  O  O8  1  0.74892300  0.00000000  0.00000000  1
  O  O9  1  0.75254100  0.50000000  0.00000000  1
  O  O10  1  0.25135600  0.00000000  0.00000000  1
  O  O11  1  0.24879900  0.50000000  0.00000000  1
  O  O12  1  0.74915600  0.00000000  0.50000000  1
  O  O13  1  0.75793600  0.50000000  0.50000000  1
  O  O14  1  0.25073000  0.00000000  0.50000000  1
  O  O15  1  0.24069800  0.50000000  0.50000000  1
  O  O16  1  0.99234400  0.25035800  0.99509000  1
  O  O17  1  0.99234400  0.74964200  0.00491000  1
  O  O18  1  0.50538400  0.26076700  0.99633900  1
  O  O19  1  0.50538400  0.73923300  0.00366100  1
  O  O20  1  0.99495100  0.25345800  0.50281500  1
  O  O21  1  0.99495100  0.74654200  0.49718500  1
  O  O22  1  0.50451100  0.26275000  0.50377800  1
  O  O23  1  0.50451100  0.73725000  0.49622200  1
loop_
_geom_bond_atom_site_label_1
_geom_bond_atom_site_label_2
_geom_bond_distance
_geom_bond_site_symmetry_2
Ba0 O10 2.766535 1_555
Ba0 O14 2.771770 1_555
Ba0 O11 2.776415 1_555
Ba0 O15 2.789086 1_555
Ba0 O1 2.817566 1_455
Ba0 O20 2.826556 1_455
Ba0 O0 2.828332 1_445
Ba0 O3 2.828634 1_555
Ba0 O18 2.839141 1_554
Ba0 O16 2.843948 1_454
Ba0 O22 2.844169 1_555
Ba0 O2 2.845897 1_545
Ba1 O10 2.766535 1_566
Ba1 O14 2.771770 1_565
Ba1 O11 2.776415 1_556
Ba1 O15 2.789086 1_555
Ba1 O5 2.817566 1_455
Ba1 O21 2.826556 1_455
Ba1 O4 2.828332 1_465
Ba1 O7 2.828634 1_555
Ba1 O19 2.839141 1_556
Ba1 O17 2.843948 1_456
Ba1 O23 2.844169 1_555
Ba1 O6 2.845897 1_565
Co0 O19 1.869686 1_555
Co0 O18 1.869686 1_554
Co0 O9 1.963703 1_555
Co0 O3 1.984550 1_555
Co0 O7 1.984550 1_554
Co0 O11 1.998627 1_555
Co1 O13 1.880790 1_555
Co1 O15 1.916516 1_655
Co1 O21 1.926608 1_555
Co1 O20 1.926608 1_555
Co1 O5 1.947489 1_555
Co1 O1 1.947489 1_555
Co2 O22 1.854115 1_555
Co2 O23 1.854115 1_555
Co2 O7 1.959882 1_555
Co2 O3 1.959882 1_555
Co2 O13 2.010685 1_555
Co2 O15 2.057802 1_555
Cu0 O16 1.957500 1_554
Cu0 O17 1.957500 1_545
Cu0 O8 1.974353 1_555
Cu0 O10 1.977681 1_655
Cu0 O0 1.977740 1_545
Cu0 O4 1.977740 1_554
Cu1 O9 1.946941 1_455
Cu1 O17 1.952035 1_455
Cu1 O16 1.952035 1_454
Cu1 O11 1.956522 1_555
Cu1 O1 1.997246 1_455
Cu1 O5 1.997246 1_454
Cu2 O8 1.953124 1_555
Cu2 O10 1.960635 1_555
Cu2 O2 1.977336 1_545
Cu2 O6 1.977336 1_554
Cu2 O18 2.038103 1_554
Cu2 O19 2.038103 1_545
Cu3 O12 1.966629 1_555
Cu3 O4 1.968609 1_555
Cu3 O0 1.968609 1_545
Cu3 O14 1.978648 1_655
Cu3 O20 1.980908 1_555
Cu3 O21 1.980908 1_545
Cu4 O12 1.955114 1_555
Cu4 O14 1.965402 1_555
Cu4 O6 1.969253 1_555
Cu4 O2 1.969253 1_545
Cu4 O23 2.053566 1_545
Cu4 O22 2.053566 1_555
O0 Sr1 2.682201 1_555
O0 Sr0 2.731880 1_565
O0 Sr2 2.770760 1_655
O1 Sr1 2.733640 1_555
O1 Sr0 2.771844 1_555
O1 Sr2 2.787085 1_655
O2 Sr1 2.690987 1_555
O2 Sr0 2.742815 1_565
O2 Sr2 2.789118 1_555
O3 Sr1 2.748686 1_555
O3 Sr0 2.770643 1_555
O3 Sr2 2.816717 1_555
O4 Sr3 2.682201 1_555
O4 Sr4 2.731880 1_545
O4 Sr5 2.770760 1_655
O5 Sr3 2.733640 1_555
O5 Sr4 2.771844 1_555
O5 Sr5 2.787085 1_655
O6 Sr3 2.690987 1_555
O6 Sr4 2.742815 1_545
O6 Sr5 2.789118 1_555
O7 Sr3 2.748686 1_555
O7 Sr4 2.770643 1_555
O7 Sr5 2.816717 1_555
O8 Sr0 2.749435 1_555
O8 Sr4 2.749435 1_544
O8 Sr1 2.751258 1_545
O8 Sr3 2.751258 1_554
O9 Sr0 2.779950 1_555
O9 Sr4 2.779950 1_554
O9 Sr1 2.781541 1_555
O9 Sr3 2.781541 1_554
O10 Sr2 2.754700 1_545
O10 Sr5 2.754700 1_554
O11 Sr2 2.780688 1_555
O11 Sr5 2.780688 1_554
O12 Sr4 2.768502 1_545
O12 Sr0 2.768502 1_555
O12 Sr3 2.773531 1_555
O12 Sr1 2.773531 1_545
O13 Sr3 2.797414 1_555
O13 Sr1 2.797414 1_555
O13 Sr4 2.805954 1_555
O13 Sr0 2.805954 1_555
O14 Sr5 2.774317 1_555
O14 Sr2 2.774317 1_545
O15 Sr5 2.794183 1_555
O15 Sr2 2.794183 1_555
O16 Sr3 2.699273 1_555
O16 Sr0 2.752861 1_556
O16 Sr5 2.785186 1_655
O17 Sr1 2.699273 1_555
O17 Sr4 2.752861 1_554
O17 Sr2 2.785186 1_655
O18 Sr3 2.733596 1_555
O18 Sr0 2.773250 1_556
O18 Sr5 2.796589 1_555
O19 Sr1 2.733596 1_555
O19 Sr4 2.773250 1_554
O19 Sr2 2.796589 1_555
O20 Sr3 2.744600 1_555
O20 Sr0 2.778153 1_555
O20 Sr5 2.798062 1_655
O21 Sr1 2.744600 1_555
O21 Sr4 2.778153 1_555
O21 Sr2 2.798062 1_655
O22 Sr3 2.757000 1_555
O22 Sr0 2.802045 1_555
O22 Sr5 2.807273 1_555
O23 Sr1 2.757000 1_555
O23 Sr4 2.802045 1_555
O23 Sr2 2.807273 1_555
