# generated using pymatgen
data_Sc2Ni7
_symmetry_space_group_name_H-M   'P 1'
_cell_length_a   4.77074220
_cell_length_b   4.77074220
_cell_length_c   23.66069300
_cell_angle_alpha   90.00000000
_cell_angle_beta   90.00000000
_cell_angle_gamma   120.00000280
_symmetry_Int_Tables_number   1
_chemical_formula_structural   Sc2Ni7
_chemical_formula_sum   'Sc8 Ni28'
_cell_volume   466.36932585
_cell_formula_units_Z   4
loop_
 _symmetry_equiv_pos_site_id
 _symmetry_equiv_pos_as_xyz
  1  'x, y, z'
loop_
 _atom_site_type_symbol
 _atom_site_label
 _atom_site_symmetry_multiplicity
 _atom_site_fract_x
 _atom_site_fract_y
 _atom_site_fract_z
 _atom_site_occupancy
  Sc  Sc0  1  0.33333300  0.66666700  0.47098800  1
  Sc  Sc1  1  0.66666700  0.33333300  0.52901200  1
  Sc  Sc2  1  0.66666700  0.33333300  0.97098800  1
  Sc  Sc3  1  0.33333300  0.66666700  0.02901200  1
  Sc  Sc4  1  0.33333300  0.66666700  0.32580200  1
  Sc  Sc5  1  0.66666700  0.33333300  0.67419800  1
  Sc  Sc6  1  0.66666700  0.33333300  0.82580200  1
  Sc  Sc7  1  0.33333300  0.66666700  0.17419800  1
  Ni  Ni0  1  0.00000000  0.00000000  0.50000000  1
  Ni  Ni1  1  0.00000000  0.00000000  0.00000000  1
  Ni  Ni2  1  0.83339400  0.16660600  0.25000000  1
  Ni  Ni3  1  0.83339400  0.66678800  0.25000000  1
  Ni  Ni4  1  0.33321200  0.16660600  0.25000000  1
  Ni  Ni5  1  0.16660600  0.83339400  0.75000000  1
  Ni  Ni6  1  0.16660600  0.33321200  0.75000000  1
  Ni  Ni7  1  0.66678800  0.83339400  0.75000000  1
  Ni  Ni8  1  0.83214300  0.16785700  0.41671800  1
  Ni  Ni9  1  0.83214300  0.66428600  0.41671800  1
  Ni  Ni10  1  0.33571400  0.16785700  0.41671800  1
  Ni  Ni11  1  0.16785700  0.83214300  0.58328200  1
  Ni  Ni12  1  0.16785700  0.33571400  0.58328200  1
  Ni  Ni13  1  0.66428600  0.83214300  0.58328200  1
  Ni  Ni14  1  0.16785700  0.83214300  0.91671800  1
  Ni  Ni15  1  0.16785700  0.33571400  0.91671800  1
  Ni  Ni16  1  0.66428600  0.83214300  0.91671800  1
  Ni  Ni17  1  0.83214300  0.16785700  0.08328200  1
  Ni  Ni18  1  0.83214300  0.66428600  0.08328200  1
  Ni  Ni19  1  0.33571400  0.16785700  0.08328200  1
  Ni  Ni20  1  0.00000000  0.00000000  0.33358200  1
  Ni  Ni21  1  0.00000000  0.00000000  0.66641800  1
  Ni  Ni22  1  0.00000000  0.00000000  0.83358200  1
  Ni  Ni23  1  0.00000000  0.00000000  0.16641800  1
  Ni  Ni24  1  0.33333300  0.66666700  0.66661600  1
  Ni  Ni25  1  0.66666700  0.33333300  0.33338400  1
  Ni  Ni26  1  0.66666700  0.33333300  0.16661600  1
  Ni  Ni27  1  0.33333300  0.66666700  0.83338400  1
loop_
_geom_bond_atom_site_label_1
_geom_bond_atom_site_label_2
_geom_bond_distance
_geom_bond_site_symmetry_2
Sc0 Sc1 3.077575 1_455
Sc0 Sc1 3.077575 1_565
Sc0 Sc1 3.077582 1_555
Sc0 Sc4 3.435201 1_555
Sc1 Sc5 3.435201 1_555
Sc2 Sc3 3.077575 1_546
Sc2 Sc3 3.077575 1_656
Sc2 Sc3 3.077582 1_556
Sc2 Sc6 3.435201 1_555
Sc3 Sc7 3.435201 1_555
Ni0 Ni12 2.409723 1_555
Ni0 Ni10 2.409723 1_555
Ni0 Ni13 2.409723 1_445
Ni0 Ni9 2.409723 1_445
Ni0 Ni11 2.409723 1_545
Ni0 Ni8 2.409723 1_455
Ni0 Sc1 2.838635 1_455
Ni0 Sc0 2.838635 1_545
Ni0 Sc1 2.838639 1_445
Ni0 Sc1 2.838639 1_555
Ni0 Sc0 2.838639 1_445
Ni0 Sc0 2.838639 1_555
Ni1 Ni19 2.409723 1_555
Ni1 Ni18 2.409723 1_445
Ni1 Ni15 2.409723 1_554
Ni1 Ni16 2.409723 1_444
Ni1 Ni17 2.409723 1_455
Ni1 Ni14 2.409723 1_544
Ni1 Sc3 2.838635 1_545
Ni1 Sc2 2.838635 1_454
Ni1 Sc2 2.838639 1_444
Ni1 Sc3 2.838639 1_445
Ni1 Sc3 2.838639 1_555
Ni1 Sc2 2.838639 1_554
Ni2 Ni4 2.384503 1_655
Ni2 Ni3 2.384503 1_545
Ni2 Ni3 2.386239 1_555
Ni2 Ni4 2.386239 1_555
Ni2 Ni25 2.406338 1_555
Ni2 Ni26 2.406338 1_555
Ni2 Ni20 2.409610 1_655
Ni2 Ni23 2.409610 1_655
Ni3 Ni4 2.384503 1_665
Ni3 Ni4 2.386239 1_555
Ni5 Ni6 2.384503 1_565
Ni5 Ni7 2.384503 1_455
Ni5 Ni7 2.386239 1_555
Ni5 Ni6 2.386239 1_555
Ni6 Ni7 2.384503 1_445
Ni6 Ni7 2.386239 1_555
Ni8 Ni9 2.368335 1_555
Ni8 Ni9 2.402407 1_545
Ni8 Sc0 2.709043 1_545
Ni8 Sc0 2.709043 1_655
Ni8 Sc1 2.988154 1_555
Ni9 Sc0 2.709041 1_655
Ni9 Sc0 2.709046 1_555
Ni9 Sc1 2.988156 1_555
Ni10 Ni9 2.368335 1_555
Ni10 Ni8 2.368335 1_555
Ni10 Ni25 2.399465 1_555
Ni10 Ni9 2.402407 1_445
Ni10 Ni8 2.402407 1_455
Ni10 Ni20 2.406899 1_555
Ni10 Sc0 2.709041 1_545
Ni10 Sc0 2.709046 1_555
Ni10 Sc1 2.988156 1_555
Ni11 Ni13 2.368335 1_555
Ni11 Ni12 2.368335 1_555
Ni11 Ni24 2.399463 1_555
Ni11 Ni12 2.402407 1_565
Ni11 Ni13 2.402407 1_455
Ni11 Ni21 2.406899 1_565
Ni11 Sc1 2.709043 1_455
Ni11 Sc1 2.709043 1_565
Ni11 Sc0 2.988154 1_555
Ni12 Ni13 2.368335 1_555
Ni12 Ni24 2.399465 1_555
Ni12 Ni13 2.402407 1_445
Ni12 Ni21 2.406899 1_555
Ni12 Sc1 2.709041 1_455
Ni12 Sc1 2.709046 1_555
Ni12 Sc0 2.988156 1_555
Ni13 Ni24 2.399465 1_555
Ni13 Ni21 2.406899 1_665
Ni13 Sc1 2.709041 1_565
Ni13 Sc1 2.709046 1_555
Ni13 Sc0 2.988156 1_555
Ni14 Ni16 2.368335 1_555
Ni14 Ni15 2.368335 1_555
Ni14 Ni27 2.399463 1_555
Ni14 Ni15 2.402407 1_565
Ni14 Ni16 2.402407 1_455
Ni14 Ni22 2.406899 1_565
Ni14 Sc2 2.709043 1_455
Ni14 Sc2 2.709043 1_565
Ni14 Sc3 2.988154 1_556
Ni15 Ni16 2.368335 1_555
Ni15 Ni27 2.399465 1_555
Ni15 Ni16 2.402407 1_445
Ni15 Ni22 2.406899 1_555
Ni15 Sc2 2.709041 1_455
Ni15 Sc2 2.709046 1_555
Ni15 Sc3 2.988156 1_556
Ni16 Ni27 2.399465 1_555
Ni16 Ni22 2.406899 1_665
Ni16 Sc2 2.709041 1_565
Ni16 Sc2 2.709046 1_555
Ni16 Sc3 2.988156 1_556
Ni17 Ni18 2.368335 1_555
Ni17 Ni19 2.368335 1_555
Ni17 Ni26 2.399463 1_555
Ni17 Ni19 2.402407 1_655
Ni17 Ni18 2.402407 1_545
Ni17 Ni23 2.406899 1_655
Ni17 Sc3 2.709043 1_545
Ni17 Sc3 2.709043 1_655
Ni17 Sc2 2.988154 1_554
Ni18 Ni19 2.368335 1_555
Ni18 Ni26 2.399465 1_555
Ni18 Ni19 2.402407 1_665
Ni18 Ni23 2.406899 1_665
Ni18 Sc3 2.709041 1_655
Ni18 Sc3 2.709046 1_555
Ni18 Sc2 2.988156 1_554
Ni19 Ni26 2.399465 1_555
Ni19 Ni23 2.406899 1_555
Ni19 Sc3 2.709041 1_545
Ni19 Sc3 2.709046 1_555
Ni19 Sc2 2.988156 1_554
Ni20 Ni9 2.406899 1_445
Ni20 Ni8 2.406899 1_455
Ni20 Ni4 2.409610 1_555
Ni20 Ni3 2.409610 1_445
Ni20 Ni25 2.754391 1_455
Ni20 Ni25 2.754395 1_555
Ni20 Ni25 2.754395 1_445
Ni20 Sc4 2.760531 1_545
Ni20 Sc4 2.760535 1_555
Ni20 Sc4 2.760535 1_445
Ni21 Ni6 2.409610 1_555
Ni21 Ni7 2.409610 1_445
Ni21 Ni5 2.409610 1_545
Ni21 Ni24 2.754391 1_545
Ni21 Ni24 2.754395 1_445
Ni21 Ni24 2.754395 1_555
Ni21 Sc5 2.760531 1_455
Ni21 Sc5 2.760535 1_445
Ni21 Sc5 2.760535 1_555
Ni22 Ni6 2.409610 1_555
Ni22 Ni7 2.409610 1_445
Ni22 Ni5 2.409610 1_545
Ni22 Ni27 2.754391 1_545
Ni22 Ni27 2.754395 1_445
Ni22 Ni27 2.754395 1_555
Ni22 Sc6 2.760531 1_455
Ni22 Sc6 2.760535 1_445
Ni22 Sc6 2.760535 1_555
Ni23 Ni4 2.409610 1_555
Ni23 Ni3 2.409610 1_445
Ni23 Ni26 2.754391 1_455
Ni23 Ni26 2.754395 1_555
Ni23 Ni26 2.754395 1_445
Ni23 Sc7 2.760531 1_545
Ni23 Sc7 2.760535 1_445
Ni23 Sc7 2.760535 1_555
Ni24 Ni5 2.406338 1_555
Ni24 Ni7 2.406341 1_555
Ni24 Ni6 2.406341 1_555
Ni24 Sc5 2.760222 1_455
Ni24 Sc5 2.760222 1_565
Ni24 Sc5 2.760231 1_555
Ni25 Ni8 2.399463 1_555
Ni25 Ni9 2.399465 1_555
Ni25 Ni3 2.406341 1_555
Ni25 Ni4 2.406341 1_555
Ni25 Sc4 2.760222 1_545
Ni25 Sc4 2.760222 1_655
Ni25 Sc4 2.760231 1_555
Ni26 Ni3 2.406341 1_555
Ni26 Ni4 2.406341 1_555
Ni26 Sc7 2.760222 1_545
Ni26 Sc7 2.760222 1_655
Ni26 Sc7 2.760231 1_555
Ni27 Ni5 2.406338 1_555
Ni27 Ni7 2.406341 1_555
Ni27 Ni6 2.406341 1_555
Ni27 Sc6 2.760222 1_455
Ni27 Sc6 2.760222 1_565
Ni27 Sc6 2.760231 1_555
