# generated using pymatgen
data_Zr9BW4
_symmetry_space_group_name_H-M   'P 1'
_cell_length_a   8.66274851
_cell_length_b   8.66274851
_cell_length_c   8.66337100
_cell_angle_alpha   90.00000000
_cell_angle_beta   90.00000000
_cell_angle_gamma   120.00001916
_symmetry_Int_Tables_number   1
_chemical_formula_structural   Zr9BW4
_chemical_formula_sum   'Zr18 B2 W8'
_cell_volume   563.02654856
_cell_formula_units_Z   2
loop_
 _symmetry_equiv_pos_site_id
 _symmetry_equiv_pos_as_xyz
  1  'x, y, z'
loop_
 _atom_site_type_symbol
 _atom_site_label
 _atom_site_symmetry_multiplicity
 _atom_site_fract_x
 _atom_site_fract_y
 _atom_site_fract_z
 _atom_site_occupancy
  Zr  Zr0  1  0.79706500  0.59413100  0.55496700  1
  Zr  Zr1  1  0.79706600  0.20293400  0.55495900  1
  Zr  Zr2  1  0.40586900  0.20293500  0.55496700  1
  Zr  Zr3  1  0.20293500  0.40586900  0.44503300  1
  Zr  Zr4  1  0.20293400  0.79706600  0.44504100  1
  Zr  Zr5  1  0.59413100  0.79706500  0.44503300  1
  Zr  Zr6  1  0.20293500  0.40586900  0.05496700  1
  Zr  Zr7  1  0.20293400  0.79706600  0.05495900  1
  Zr  Zr8  1  0.59413100  0.79706500  0.05496700  1
  Zr  Zr9  1  0.79706500  0.59413100  0.94503300  1
  Zr  Zr10  1  0.79706600  0.20293400  0.94504100  1
  Zr  Zr11  1  0.40586900  0.20293500  0.94503300  1
  Zr  Zr12  1  0.46213300  0.92426400  0.75000000  1
  Zr  Zr13  1  0.46211600  0.53788400  0.75000000  1
  Zr  Zr14  1  0.07573600  0.53786700  0.75000000  1
  Zr  Zr15  1  0.53786700  0.07573600  0.25000000  1
  Zr  Zr16  1  0.53788400  0.46211600  0.25000000  1
  Zr  Zr17  1  0.92426400  0.46213300  0.25000000  1
  B  B0  1  0.66668400  0.33331600  0.75000000  1
  B  B1  1  0.33331600  0.66668400  0.25000000  1
  W  W0  1  0.10938600  0.21877400  0.75000000  1
  W  W1  1  0.10938000  0.89062000  0.75000000  1
  W  W2  1  0.78122600  0.89061400  0.75000000  1
  W  W3  1  0.89061400  0.78122600  0.25000000  1
  W  W4  1  0.89062000  0.10938000  0.25000000  1
  W  W5  1  0.21877400  0.10938600  0.25000000  1
  W  W6  1  0.00000000  0.00000000  0.50000000  1
  W  W7  1  0.00000000  0.00000000  0.00000000  1
loop_
_geom_bond_atom_site_label_1
_geom_bond_atom_site_label_2
_geom_bond_distance
_geom_bond_site_symmetry_2
B0 Zr10 2.584998 1_555
B0 Zr1 2.584998 1_555
B0 Zr2 2.585241 1_555
B0 Zr11 2.585241 1_555
B0 Zr9 2.585241 1_555
B0 Zr0 2.585241 1_555
B0 Zr12 3.068773 1_545
B0 Zr14 3.068773 1_655
B0 Zr13 3.069404 1_555
B1 Zr4 2.584998 1_555
B1 Zr7 2.584998 1_555
B1 Zr3 2.585241 1_555
B1 Zr5 2.585241 1_555
B1 Zr6 2.585241 1_555
B1 Zr8 2.585241 1_555
B1 Zr17 3.068773 1_455
B1 Zr15 3.068773 1_565
B1 Zr16 3.069404 1_555
W0 W7 2.717474 1_556
W0 W6 2.717474 1_555
W0 W1 2.842690 1_545
W0 W2 2.842767 1_445
W0 Zr13 2.920900 1_555
W0 Zr14 2.920903 1_555
W0 Zr6 2.991743 1_556
W0 Zr3 2.991743 1_555
W0 Zr2 3.134100 1_555
W0 Zr11 3.134100 1_555
W0 Zr10 3.134120 1_455
W0 Zr1 3.134120 1_455
W1 W6 2.717411 1_565
W1 W7 2.717411 1_566
W1 W2 2.842690 1_455
W1 Zr12 2.921011 1_555
W1 Zr14 2.921011 1_555
W1 Zr7 2.991728 1_556
W1 Zr4 2.991728 1_555
W1 Zr2 3.134092 1_565
W1 Zr11 3.134092 1_565
W1 Zr9 3.134092 1_455
W1 Zr0 3.134092 1_455
W2 W6 2.717474 1_665
W2 W7 2.717474 1_666
W2 Zr13 2.920900 1_555
W2 Zr12 2.920903 1_555
W2 Zr8 2.991743 1_556
W2 Zr5 2.991743 1_555
W2 Zr9 3.134100 1_555
W2 Zr0 3.134100 1_555
W2 Zr10 3.134120 1_565
W2 Zr1 3.134120 1_565
W3 W6 2.717474 1_665
W3 W7 2.717474 1_665
W3 W4 2.842690 1_565
W3 W5 2.842767 1_665
W3 Zr16 2.920900 1_555
W3 Zr17 2.920903 1_555
W3 Zr9 2.991743 1_554
W3 Zr0 2.991743 1_555
W3 Zr5 3.134100 1_555
W3 Zr8 3.134100 1_555
W3 Zr4 3.134120 1_655
W3 Zr7 3.134120 1_655
W4 W7 2.717411 1_655
W4 W6 2.717411 1_655
W4 W5 2.842690 1_655
W4 Zr17 2.921011 1_555
W4 Zr15 2.921011 1_555
W4 Zr1 2.991728 1_555
W4 Zr10 2.991728 1_554
W4 Zr3 3.134092 1_655
W4 Zr5 3.134092 1_545
W4 Zr6 3.134092 1_655
W4 Zr8 3.134092 1_545
W5 W7 2.717474 1_555
W5 W6 2.717474 1_555
W5 Zr16 2.920900 1_555
W5 Zr15 2.920903 1_555
W5 Zr11 2.991743 1_554
W5 Zr2 2.991743 1_555
W5 Zr3 3.134100 1_555
W5 Zr6 3.134100 1_555
W5 Zr4 3.134120 1_545
W5 Zr7 3.134120 1_545
W6 Zr1 3.081889 1_455
W6 Zr4 3.081889 1_545
W6 Zr2 3.081906 1_555
W6 Zr0 3.081906 1_445
W6 Zr3 3.081906 1_555
W6 Zr5 3.081906 1_445
W7 Zr7 3.081889 1_545
W7 Zr10 3.081889 1_454
W7 Zr6 3.081906 1_555
W7 Zr11 3.081906 1_554
W7 Zr8 3.081906 1_445
W7 Zr9 3.081906 1_444
