# generated using pymatgen
data_V2ZnO5
_symmetry_space_group_name_H-M   'P 1'
_cell_length_a   3.42557300
_cell_length_b   4.91592400
_cell_length_c   11.77908500
_cell_angle_alpha   90.00000000
_cell_angle_beta   90.00000000
_cell_angle_gamma   90.00000000
_symmetry_Int_Tables_number   1
_chemical_formula_structural   V2ZnO5
_chemical_formula_sum   'V4 Zn2 O10'
_cell_volume   198.35810139
_cell_formula_units_Z   2
loop_
 _symmetry_equiv_pos_site_id
 _symmetry_equiv_pos_as_xyz
  1  'x, y, z'
loop_
 _atom_site_type_symbol
 _atom_site_label
 _atom_site_symmetry_multiplicity
 _atom_site_fract_x
 _atom_site_fract_y
 _atom_site_fract_z
 _atom_site_occupancy
  V  V0  1  0.00000000  0.60099700  0.84937600  1
  V  V1  1  0.50000000  0.39900300  0.65062400  1
  V  V2  1  0.50000000  0.39900300  0.34937600  1
  V  V3  1  0.00000000  0.60099700  0.15062400  1
  Zn  Zn0  1  0.50000000  0.17064700  0.00000000  1
  Zn  Zn1  1  0.00000000  0.82935300  0.50000000  1
  O  O0  1  0.50000000  0.58629300  0.50000000  1
  O  O1  1  0.00000000  0.41370700  0.00000000  1
  O  O2  1  0.50000000  0.43164600  0.82237800  1
  O  O3  1  0.00000000  0.56835400  0.67762200  1
  O  O4  1  0.50000000  0.43164600  0.17762200  1
  O  O5  1  0.00000000  0.56835400  0.32237800  1
  O  O6  1  0.00000000  0.93195200  0.11438600  1
  O  O7  1  0.50000000  0.06804800  0.38561400  1
  O  O8  1  0.50000000  0.06804800  0.61438600  1
  O  O9  1  0.00000000  0.93195200  0.88561400  1
loop_
_geom_bond_atom_site_label_1
_geom_bond_atom_site_label_2
_geom_bond_distance
_geom_bond_site_symmetry_2
O0 V1 1.998881 1_555
O0 V2 1.998881 1_555
O0 Zn1 2.088382 1_655
O0 Zn1 2.088382 1_555
O1 V0 1.998881 1_554
O1 V3 1.998881 1_555
O1 Zn0 2.088382 1_555
O1 Zn0 2.088382 1_455
O2 V0 1.930765 1_655
O2 V0 1.930765 1_555
O2 V1 2.029459 1_555
O2 Zn0 2.454307 1_556
O3 V1 1.930765 1_555
O3 V1 1.930765 1_455
O3 V0 2.029459 1_555
O3 Zn1 2.454307 1_555
O4 V3 1.930765 1_655
O4 V3 1.930765 1_555
O4 V2 2.029459 1_555
O4 Zn0 2.454307 1_555
O5 V2 1.930765 1_555
O5 V2 1.930765 1_455
O5 V3 2.029459 1_555
O5 Zn1 2.454307 1_555
O6 V3 1.682013 1_555
O6 Zn0 2.475057 1_465
O6 Zn0 2.475057 1_565
O7 V2 1.682013 1_555
O7 Zn1 2.475057 1_545
O7 Zn1 2.475057 1_645
O8 V1 1.682013 1_555
O8 Zn1 2.475057 1_645
O8 Zn1 2.475057 1_545
O9 V0 1.682013 1_555
O9 Zn0 2.475057 1_466
O9 Zn0 2.475057 1_566
