# generated using pymatgen
data_Ba10MgMn6(O12F)2
_symmetry_space_group_name_H-M   'P 1'
_cell_length_a   8.16660477
_cell_length_b   10.76297727
_cell_length_c   10.49503513
_cell_angle_alpha   120.80185021
_cell_angle_beta   90.00000000
_cell_angle_gamma   90.00000000
_symmetry_Int_Tables_number   1
_chemical_formula_structural   Ba10MgMn6(O12F)2
_chemical_formula_sum   'Ba10 Mg1 Mn6 O24 F2'
_cell_volume   792.35971180
_cell_formula_units_Z   1
loop_
 _symmetry_equiv_pos_site_id
 _symmetry_equiv_pos_as_xyz
  1  'x, y, z'
loop_
 _atom_site_type_symbol
 _atom_site_label
 _atom_site_symmetry_multiplicity
 _atom_site_fract_x
 _atom_site_fract_y
 _atom_site_fract_z
 _atom_site_occupancy
  Ba  Ba0  1  0.54587106  0.60325275  0.29141914  1
  Ba  Ba1  1  0.00521733  0.34546325  0.65892293  1
  Ba  Ba2  1  0.49478267  0.34546325  0.65892293  1
  Ba  Ba3  1  0.95412894  0.60325275  0.29141914  1
  Ba  Ba4  1  0.75000000  0.19095114  0.97214745  1
  Ba  Ba5  1  0.75000000  0.98957123  0.23440865  1
  Ba  Ba6  1  0.75000000  0.76667251  0.77323708  1
  Ba  Ba7  1  0.25000000  0.72638108  0.99511504  1
  Ba  Ba8  1  0.25000000  0.01009394  0.77184554  1
  Ba  Ba9  1  0.25000000  0.25831885  0.23722280  1
  Mg  Mg0  1  0.25000000  0.76830847  0.38416551  1
  Mn  Mn0  1  0.75000000  0.96780351  0.59367504  1
  Mn  Mn1  1  0.75000000  0.38095327  0.36973321  1
  Mn  Mn2  1  0.75000000  0.60657445  0.00768834  1
  Mn  Mn3  1  0.25000000  0.06187233  0.40143018  1
  Mn  Mn4  1  0.25000000  0.61244430  0.62859879  1
  Mn  Mn5  1  0.25000000  0.38358638  0.99377165  1
  O  O0  1  0.75000000  0.14940455  0.65307715  1
  O  O1  1  0.75000000  0.29360914  0.46576282  1
  O  O2  1  0.75000000  0.52191683  0.81854388  1
  O  O3  1  0.25000000  0.87474737  0.29073172  1
  O  O4  1  0.25000000  0.73282708  0.53923124  1
  O  O5  1  0.25000000  0.56905993  0.20005862  1
  O  O6  1  0.75000000  0.85083678  0.40164248  1
  O  O7  1  0.75000000  0.56764613  0.47551104  1
  O  O8  1  0.75000000  0.48388389  0.06976624  1
  O  O9  1  0.25000000  0.11451263  0.58588097  1
  O  O10  1  0.25000000  0.41795627  0.52330784  1
  O  O11  1  0.25000000  0.44683716  0.86872298  1
  O  O12  1  0.58410360  0.93079859  0.67040938  1
  O  O13  1  0.58276018  0.34023927  0.25515257  1
  O  O14  1  0.58139404  0.71363746  0.08544817  1
  O  O15  1  0.07933624  0.12066254  0.35542634  1
  O  O16  1  0.07755027  0.65171751  0.74491714  1
  O  O17  1  0.08531397  0.26782800  0.97074535  1
  O  O18  1  0.42066376  0.12066254  0.35542634  1
  O  O19  1  0.42244973  0.65171751  0.74491714  1
  O  O20  1  0.41468603  0.26782800  0.97074535  1
  O  O21  1  0.91589640  0.93079859  0.67040938  1
  O  O22  1  0.91723982  0.34023927  0.25515257  1
  O  O23  1  0.91860596  0.71363746  0.08544817  1
  F  F0  1  0.57270760  0.98739152  0.00867086  1
  F  F1  1  0.92729240  0.98739152  0.00867086  1
loop_
_geom_bond_atom_site_label_1
_geom_bond_atom_site_label_2
_geom_bond_distance
_geom_bond_site_symmetry_2
Ba0 O5 2.555725 1_555
Ba0 O8 2.603894 1_555
Ba0 O13 2.673131 1_555
Ba0 O7 2.723419 1_555
Ba0 O6 2.839202 1_555
Ba0 Mg0 2.858455 1_555
Ba0 O14 2.966262 1_555
Ba0 O4 3.291313 1_555
Ba1 O2 2.738433 1_455
Ba1 O11 2.752165 1_555
Ba1 O1 2.757994 1_455
Ba1 O10 2.787114 1_555
Ba1 O15 2.910893 1_555
Ba1 O0 2.944172 1_455
Ba1 O9 2.968351 1_555
Ba1 O16 2.996960 1_555
Ba2 O2 2.738433 1_555
Ba2 O11 2.752165 1_555
Ba2 O1 2.757994 1_555
Ba2 O10 2.787114 1_555
Ba2 O18 2.910893 1_555
Ba2 O0 2.944172 1_555
Ba2 O9 2.968351 1_555
Ba2 O19 2.996960 1_555
Ba3 O5 2.555725 1_655
Ba3 O8 2.603894 1_555
Ba3 O22 2.673131 1_555
Ba3 O7 2.723419 1_555
Ba3 O6 2.839202 1_555
Ba3 Mg0 2.858455 1_655
Ba3 O23 2.966262 1_555
Ba3 O4 3.291313 1_655
Ba4 O8 2.771617 1_556
Ba4 F1 2.811305 1_546
Ba4 F0 2.811305 1_546
Ba4 O20 2.862870 1_555
Ba4 O17 2.862870 1_655
Ba4 O13 2.895047 1_556
Ba4 O22 2.895047 1_556
Ba4 O0 3.143229 1_555
Ba4 O21 3.259279 1_545
Ba4 O12 3.259279 1_545
Ba5 F1 2.766358 1_555
Ba5 F0 2.766358 1_555
Ba5 O6 2.827386 1_555
Ba5 O14 2.899157 1_555
Ba5 O23 2.899157 1_555
Ba5 O1 2.909726 1_565
Ba5 O18 3.000385 1_565
Ba5 O15 3.000385 1_665
Ba6 O7 2.738089 1_555
Ba6 F1 2.798847 1_556
Ba6 F0 2.798847 1_556
Ba6 O21 2.841301 1_555
Ba6 O12 2.841301 1_555
Ba6 O16 2.897933 1_655
Ba6 O19 2.897933 1_555
Ba6 O2 2.906626 1_555
Ba7 O11 2.593185 1_555
Ba7 O3 2.664891 1_556
Ba7 O19 2.713505 1_555
Ba7 O16 2.713505 1_555
Ba7 O23 2.893992 1_456
Ba7 O14 2.893992 1_556
Ba8 O9 2.705289 1_555
Ba8 O4 2.721074 1_545
Ba8 O20 2.816192 1_555
Ba8 O17 2.816192 1_555
Ba8 O12 2.894110 1_545
Ba8 O21 2.894110 1_445
Ba9 O10 2.585276 1_555
Ba9 O18 2.749356 1_555
Ba9 O15 2.749356 1_555
Ba9 O13 2.833340 1_555
Ba9 O22 2.833340 1_455
Ba9 O20 3.151812 1_554
Ba9 O17 3.151812 1_554
Mg0 O3 1.850524 1_555
Mg0 O4 1.852249 1_555
Mg0 O5 2.022047 1_555
Mn0 O0 1.720770 1_565
Mn0 O21 1.723714 1_555
Mn0 O12 1.723714 1_555
Mn0 O6 1.745910 1_555
Mn1 O1 1.694050 1_555
Mn1 O22 1.721564 1_555
Mn1 O13 1.721564 1_555
Mn1 O7 1.727845 1_555
Mn2 O2 1.708320 1_554
Mn2 O14 1.710760 1_555
Mn2 O23 1.710760 1_555
Mn2 O8 1.746232 1_555
Mn3 O18 1.699673 1_555
Mn3 O15 1.699673 1_555
Mn3 O9 1.716141 1_555
Mn3 O3 1.734843 1_545
Mn4 O16 1.767444 1_555
Mn4 O19 1.767444 1_555
Mn4 O10 1.798306 1_555
Mn4 O4 1.950138 1_555
Mn5 O11 1.760912 1_555
Mn5 O17 1.763845 1_555
Mn5 O20 1.763845 1_555
Mn5 O5 2.060581 1_556
