# generated using pymatgen
data_K2YbTi(PO4)3
_symmetry_space_group_name_H-M   'P 1'
_cell_length_a   10.29821500
_cell_length_b   10.29821500
_cell_length_c   10.29821500
_cell_angle_alpha   90.00000000
_cell_angle_beta   90.00000000
_cell_angle_gamma   90.00000000
_symmetry_Int_Tables_number   1
_chemical_formula_structural   K2YbTi(PO4)3
_chemical_formula_sum   'K8 Yb4 Ti4 P12 O48'
_cell_volume   1092.15898650
_cell_formula_units_Z   4
loop_
 _symmetry_equiv_pos_site_id
 _symmetry_equiv_pos_as_xyz
  1  'x, y, z'
loop_
 _atom_site_type_symbol
 _atom_site_label
 _atom_site_symmetry_multiplicity
 _atom_site_fract_x
 _atom_site_fract_y
 _atom_site_fract_z
 _atom_site_occupancy
  K  K0  1  0.54390300  0.95609700  0.04390300  1
  K  K1  1  0.95609700  0.04390300  0.54390300  1
  K  K2  1  0.45609700  0.45609700  0.45609700  1
  K  K3  1  0.04390300  0.54390300  0.95609700  1
  K  K4  1  0.32577900  0.17422100  0.82577900  1
  K  K5  1  0.17422100  0.82577900  0.32577900  1
  K  K6  1  0.67422100  0.67422100  0.67422100  1
  K  K7  1  0.82577900  0.32577900  0.17422100  1
  Yb  Yb0  1  0.16916700  0.16916700  0.16916700  1
  Yb  Yb1  1  0.83083300  0.66916700  0.33083300  1
  Yb  Yb2  1  0.66916700  0.33083300  0.83083300  1
  Yb  Yb3  1  0.33083300  0.83083300  0.66916700  1
  Ti  Ti0  1  0.39542300  0.60457700  0.10457700  1
  Ti  Ti1  1  0.89542300  0.89542300  0.89542300  1
  Ti  Ti2  1  0.10457700  0.39542300  0.60457700  1
  Ti  Ti3  1  0.60457700  0.10457700  0.39542300  1
  P  P0  1  0.20441000  0.86407600  0.99550500  1
  P  P1  1  0.00449500  0.70441000  0.63592400  1
  P  P2  1  0.36407600  0.50449500  0.79559000  1
  P  P3  1  0.70441000  0.63592400  0.00449500  1
  P  P4  1  0.50449500  0.79559000  0.36407600  1
  P  P5  1  0.86407600  0.99550500  0.20441000  1
  P  P6  1  0.79559000  0.36407600  0.50449500  1
  P  P7  1  0.99550500  0.20441000  0.86407600  1
  P  P8  1  0.63592400  0.00449500  0.70441000  1
  P  P9  1  0.29559000  0.13592400  0.49550500  1
  P  P10  1  0.49550500  0.29559000  0.13592400  1
  P  P11  1  0.13592400  0.49550500  0.29559000  1
  O  O0  1  0.05445900  0.83547900  0.98679800  1
  O  O1  1  0.01320200  0.55445900  0.66452100  1
  O  O2  1  0.33547900  0.51320200  0.94554100  1
  O  O3  1  0.55445900  0.66452100  0.01320200  1
  O  O4  1  0.51320200  0.94554100  0.33547900  1
  O  O5  1  0.83547900  0.98679800  0.05445900  1
  O  O6  1  0.94554100  0.33547900  0.51320200  1
  O  O7  1  0.98679800  0.05445900  0.83547900  1
  O  O8  1  0.66452100  0.01320200  0.55445900  1
  O  O9  1  0.44554100  0.16452100  0.48679800  1
  O  O10  1  0.48679800  0.44554100  0.16452100  1
  O  O11  1  0.16452100  0.48679800  0.44554100  1
  O  O12  1  0.26965900  0.73444800  0.04361100  1
  O  O13  1  0.95638900  0.76965900  0.76555200  1
  O  O14  1  0.23444800  0.45638900  0.73034100  1
  O  O15  1  0.76965900  0.76555200  0.95638900  1
  O  O16  1  0.45638900  0.73034100  0.23444800  1
  O  O17  1  0.73444800  0.04361100  0.26965900  1
  O  O18  1  0.73034100  0.23444800  0.45638900  1
  O  O19  1  0.04361100  0.26965900  0.73444800  1
  O  O20  1  0.76555200  0.95638900  0.76965900  1
  O  O21  1  0.23034100  0.26555200  0.54361100  1
  O  O22  1  0.54361100  0.23034100  0.26555200  1
  O  O23  1  0.26555200  0.54361100  0.23034100  1
  O  O24  1  0.26037300  0.90232300  0.86435600  1
  O  O25  1  0.13564400  0.76037300  0.59767700  1
  O  O26  1  0.40232300  0.63564400  0.73962700  1
  O  O27  1  0.76037300  0.59767700  0.13564400  1
  O  O28  1  0.63564400  0.73962700  0.40232300  1
  O  O29  1  0.90232300  0.86435600  0.26037300  1
  O  O30  1  0.73962700  0.40232300  0.63564400  1
  O  O31  1  0.86435600  0.26037300  0.90232300  1
  O  O32  1  0.59767700  0.13564400  0.76037300  1
  O  O33  1  0.23962700  0.09767700  0.36435600  1
  O  O34  1  0.36435600  0.23962700  0.09767700  1
  O  O35  1  0.09767700  0.36435600  0.23962700  1
  O  O36  1  0.22928200  0.96692200  0.09951500  1
  O  O37  1  0.90048500  0.72928200  0.53307800  1
  O  O38  1  0.46692200  0.40048500  0.77071800  1
  O  O39  1  0.72928200  0.53307800  0.90048500  1
  O  O40  1  0.40048500  0.77071800  0.46692200  1
  O  O41  1  0.96692200  0.09951500  0.22928200  1
  O  O42  1  0.77071800  0.46692200  0.40048500  1
  O  O43  1  0.09951500  0.22928200  0.96692200  1
  O  O44  1  0.53307800  0.90048500  0.72928200  1
  O  O45  1  0.27071800  0.03307800  0.59951500  1
  O  O46  1  0.59951500  0.27071800  0.03307800  1
  O  O47  1  0.03307800  0.59951500  0.27071800  1
loop_
_geom_bond_atom_site_label_1
_geom_bond_atom_site_label_2
_geom_bond_distance
_geom_bond_site_symmetry_2
K0 O3 3.021268 1_555
K0 O5 3.021268 1_555
K0 O4 3.021268 1_555
K0 O15 3.172985 1_554
K0 O16 3.172985 1_555
K0 O17 3.172985 1_565
K0 O46 3.292149 1_565
K0 O44 3.292149 1_554
K0 O36 3.292149 1_555
K1 O7 3.021268 1_555
K1 O8 3.021268 1_555
K1 O6 3.021268 1_555
K1 O20 3.172985 1_545
K1 O18 3.172985 1_555
K1 O19 3.172985 1_655
K1 O41 3.292149 1_555
K1 O37 3.292149 1_545
K1 O45 3.292149 1_655
K2 O10 3.021268 1_555
K2 O11 3.021268 1_555
K2 O9 3.021268 1_555
K2 O22 3.172985 1_555
K2 O23 3.172985 1_555
K2 O21 3.172985 1_555
K2 O40 3.292149 1_555
K2 O42 3.292149 1_555
K2 O38 3.292149 1_555
K3 O0 3.021268 1_555
K3 O1 3.021268 1_555
K3 O2 3.021268 1_555
K3 O13 3.172985 1_455
K3 O14 3.172985 1_555
K3 O12 3.172985 1_556
K3 O43 3.292149 1_555
K3 O47 3.292149 1_556
K3 O39 3.292149 1_455
K4 O43 2.804226 1_555
K4 O45 2.804226 1_555
K4 O38 2.804226 1_555
K4 O24 2.907211 1_545
K4 O34 2.907211 1_556
K4 O32 2.907211 1_555
K4 O19 3.208494 1_555
K4 O14 3.208494 1_555
K4 O21 3.208494 1_555
K5 O36 2.804226 1_555
K5 O40 2.804226 1_555
K5 O47 2.804226 1_555
K5 O29 2.907211 1_455
K5 O33 2.907211 1_565
K5 O25 2.907211 1_555
K5 O12 3.208494 1_555
K5 O16 3.208494 1_555
K5 O23 3.208494 1_555
K6 O44 2.804226 1_555
K6 O39 2.804226 1_555
K6 O37 2.804226 1_555
K6 O30 2.907211 1_555
K6 O26 2.907211 1_555
K6 O28 2.907211 1_555
K6 O13 3.208494 1_555
K6 O15 3.208494 1_555
K6 O20 3.208494 1_555
K7 O41 2.804226 1_555
K7 O42 2.804226 1_555
K7 O46 2.804226 1_555
K7 O35 2.907211 1_655
K7 O31 2.907211 1_554
K7 O27 2.907211 1_555
K7 O18 3.208494 1_555
K7 O17 3.208494 1_555
K7 O22 3.208494 1_555
O0 P0 1.574614 1_555
O0 Ti1 1.987185 1_455
O1 P1 1.574614 1_555
O1 Ti2 1.987185 1_555
O2 P2 1.574614 1_555
O2 Ti0 1.987185 1_556
O3 P3 1.574614 1_555
O3 Ti0 1.987185 1_555
O4 P4 1.574614 1_555
O4 Ti3 1.987185 1_565
O5 P5 1.574614 1_555
O5 Ti1 1.987185 1_554
O6 P6 1.574614 1_555
O6 Ti2 1.987185 1_655
O7 P7 1.574614 1_555
O7 Ti1 1.987185 1_545
O8 P8 1.574614 1_555
O8 Ti3 1.987185 1_555
O9 P9 1.574614 1_555
O9 Ti3 1.987185 1_555
O10 P10 1.574614 1_555
O10 Ti0 1.987185 1_555
O11 P11 1.574614 1_555
O11 Ti2 1.987185 1_555
O12 P0 1.574484 1_554
O12 Ti0 1.964772 1_555
O13 P1 1.574484 1_655
O13 Ti1 1.964772 1_555
O14 P2 1.574484 1_555
O14 Ti2 1.964772 1_555
O15 P3 1.574484 1_556
O15 Ti1 1.964772 1_555
O16 P4 1.574484 1_555
O16 Ti0 1.964772 1_555
O17 P5 1.574484 1_545
O17 Ti3 1.964772 1_555
O18 P6 1.574484 1_555
O18 Ti3 1.964772 1_555
O19 P7 1.574484 1_455
O19 Ti2 1.964772 1_555
O20 P8 1.574484 1_565
O20 Ti1 1.964772 1_555
O21 P9 1.574484 1_555
O21 Ti2 1.964772 1_555
O22 P10 1.574484 1_555
O22 Ti3 1.964772 1_555
O23 P11 1.574484 1_555
O23 Ti0 1.964772 1_555
O24 P0 1.520330 1_555
O24 Yb3 2.260316 1_555
O25 P1 1.520330 1_555
O25 Yb3 2.260316 1_555
O26 P2 1.520330 1_555
O26 Yb3 2.260316 1_555
O27 P3 1.520330 1_555
O27 Yb1 2.260316 1_555
O28 P4 1.520330 1_555
O28 Yb1 2.260316 1_555
O29 P5 1.520330 1_555
O29 Yb1 2.260316 1_555
O30 P6 1.520330 1_555
O30 Yb2 2.260316 1_555
O31 P7 1.520330 1_555
O31 Yb2 2.260316 1_555
O32 P8 1.520330 1_555
O32 Yb2 2.260316 1_555
O33 P9 1.520330 1_555
O33 Yb0 2.260316 1_555
O34 P10 1.520330 1_555
O34 Yb0 2.260316 1_555
O35 P11 1.520330 1_555
O35 Yb0 2.260316 1_555
O36 P0 1.527958 1_554
O36 Yb0 2.288157 1_565
O37 P1 1.527958 1_655
O37 Yb1 2.288157 1_555
O38 P2 1.527958 1_555
O38 Yb2 2.288157 1_555
O39 P3 1.527958 1_556
O39 Yb2 2.288157 1_555
O40 P4 1.527958 1_555
O40 Yb3 2.288157 1_555
O41 P5 1.527958 1_545
O41 Yb0 2.288157 1_655
O42 P6 1.527958 1_555
O42 Yb1 2.288157 1_555
O43 P7 1.527958 1_455
O43 Yb0 2.288157 1_556
O44 P8 1.527958 1_565
O44 Yb3 2.288157 1_555
O45 P9 1.527958 1_555
O45 Yb3 2.288157 1_545
O46 P10 1.527958 1_555
O46 Yb2 2.288157 1_554
O47 P11 1.527958 1_555
O47 Yb1 2.288157 1_455
