# generated using pymatgen
data_Mg2Al3(SiO3)6
_symmetry_space_group_name_H-M   'P 1'
_cell_length_a   9.42219384
_cell_length_b   9.42219384
_cell_length_c   10.27548400
_cell_angle_alpha   90.00000000
_cell_angle_beta   90.00000000
_cell_angle_gamma   116.47688036
_symmetry_Int_Tables_number   1
_chemical_formula_structural   Mg2Al3(SiO3)6
_chemical_formula_sum   'Mg4 Al6 Si12 O36'
_cell_volume   816.55392131
_cell_formula_units_Z   2
loop_
 _symmetry_equiv_pos_site_id
 _symmetry_equiv_pos_as_xyz
  1  'x, y, z'
loop_
 _atom_site_type_symbol
 _atom_site_label
 _atom_site_symmetry_multiplicity
 _atom_site_fract_x
 _atom_site_fract_y
 _atom_site_fract_z
 _atom_site_occupancy
  Mg  Mg0  1  0.79576600  0.20423400  0.75000000  1
  Mg  Mg1  1  0.20423400  0.79576600  0.25000000  1
  Mg  Mg2  1  0.20423400  0.79576600  0.75000000  1
  Mg  Mg3  1  0.79576600  0.20423400  0.25000000  1
  Al  Al0  1  0.00000000  0.50000000  0.73816000  1
  Al  Al1  1  0.00000000  0.50000000  0.26184000  1
  Al  Al2  1  0.50000000  0.00000000  0.76184000  1
  Al  Al3  1  0.50000000  0.00000000  0.23816000  1
  Al  Al4  1  0.00000000  0.00000000  0.75000000  1
  Al  Al5  1  0.00000000  0.00000000  0.25000000  1
  Si  Si0  1  0.36530000  0.79034400  0.50000000  1
  Si  Si1  1  0.63470000  0.20965600  0.50000000  1
  Si  Si2  1  0.20965600  0.63470000  0.00000000  1
  Si  Si3  1  0.79034400  0.36530000  0.00000000  1
  Si  Si4  1  0.72189200  0.84023600  0.50000000  1
  Si  Si5  1  0.27810800  0.15976400  0.50000000  1
  Si  Si6  1  0.15976400  0.27810800  0.00000000  1
  Si  Si7  1  0.84023600  0.72189200  0.00000000  1
  Si  Si8  1  0.11153900  0.38145400  0.50000000  1
  Si  Si9  1  0.88846100  0.61854600  0.50000000  1
  Si  Si10  1  0.61854600  0.88846100  0.00000000  1
  Si  Si11  1  0.38145400  0.11153900  0.00000000  1
  O  O0  1  0.78212600  0.41403100  0.68831900  1
  O  O1  1  0.21787400  0.58596900  0.31168100  1
  O  O2  1  0.21787400  0.58596900  0.68831900  1
  O  O3  1  0.58596900  0.21787400  0.81168100  1
  O  O4  1  0.78212600  0.41403100  0.31168100  1
  O  O5  1  0.41403100  0.78212600  0.18831900  1
  O  O6  1  0.41403100  0.78212600  0.81168100  1
  O  O7  1  0.58596900  0.21787400  0.18831900  1
  O  O8  1  0.90187300  0.35625000  0.88107600  1
  O  O9  1  0.09812700  0.64375000  0.11892400  1
  O  O10  1  0.09812700  0.64375000  0.88107600  1
  O  O11  1  0.64375000  0.09812700  0.61892400  1
  O  O12  1  0.90187300  0.35625000  0.11892400  1
  O  O13  1  0.35625000  0.90187300  0.38107600  1
  O  O14  1  0.35625000  0.90187300  0.61892400  1
  O  O15  1  0.64375000  0.09812700  0.38107600  1
  O  O16  1  0.52797600  0.76736700  0.50000000  1
  O  O17  1  0.47202400  0.23263300  0.50000000  1
  O  O18  1  0.23263300  0.47202400  0.00000000  1
  O  O19  1  0.76736700  0.52797600  0.00000000  1
  O  O20  1  0.00277400  0.32158700  0.63300200  1
  O  O21  1  0.99722600  0.67841300  0.36699800  1
  O  O22  1  0.99722600  0.67841300  0.63300200  1
  O  O23  1  0.67841300  0.99722600  0.86699800  1
  O  O24  1  0.00277400  0.32158700  0.36699800  1
  O  O25  1  0.32158700  0.00277400  0.13300200  1
  O  O26  1  0.32158700  0.00277400  0.86699800  1
  O  O27  1  0.67841300  0.99722600  0.13300200  1
  O  O28  1  0.78618800  0.40948400  0.50000000  1
  O  O29  1  0.21381200  0.59051600  0.50000000  1
  O  O30  1  0.59051600  0.21381200  0.00000000  1
  O  O31  1  0.40948400  0.78618800  0.00000000  1
  O  O32  1  0.24864400  0.31847900  0.50000000  1
  O  O33  1  0.75135600  0.68152100  0.50000000  1
  O  O34  1  0.68152100  0.75135600  0.00000000  1
  O  O35  1  0.31847900  0.24864400  0.00000000  1
loop_
_geom_bond_atom_site_label_1
_geom_bond_atom_site_label_2
_geom_bond_distance
_geom_bond_site_symmetry_2
Mg0 O8 1.894273 1_555
Mg0 O11 1.894273 1_555
Mg0 O23 2.132888 1_545
Mg0 O20 2.132888 1_655
Mg0 O3 2.133608 1_555
Mg0 O0 2.133608 1_555
Mg1 O13 1.894273 1_555
Mg1 O9 1.894273 1_555
Mg1 O21 2.132888 1_455
Mg1 O25 2.132888 1_565
Mg1 O1 2.133608 1_555
Mg1 O5 2.133608 1_555
Mg2 O10 1.894273 1_555
Mg2 O14 1.894273 1_555
Mg2 O26 2.132888 1_565
Mg2 O22 2.132888 1_455
Mg2 O2 2.133608 1_555
Mg2 O6 2.133608 1_555
Mg3 O15 1.894273 1_555
Mg3 O12 1.894273 1_555
Mg3 O24 2.132888 1_655
Mg3 O27 2.132888 1_545
Mg3 O7 2.133608 1_555
Mg3 O4 2.133608 1_555
Al0 O2 1.910471 1_555
Al0 O0 1.910471 1_455
Al0 O10 1.931140 1_555
Al0 O8 1.931140 1_455
Al0 O22 2.008320 1_455
Al0 O20 2.008320 1_555
Al1 O1 1.910471 1_555
Al1 O4 1.910471 1_455
Al1 O9 1.931140 1_555
Al1 O12 1.931140 1_455
Al1 O21 2.008320 1_455
Al1 O24 2.008320 1_555
Al2 O3 1.910471 1_555
Al2 O6 1.910471 1_545
Al2 O11 1.931140 1_555
Al2 O14 1.931140 1_545
Al2 O23 2.008320 1_545
Al2 O26 2.008320 1_555
Al3 O7 1.910471 1_555
Al3 O5 1.910471 1_545
Al3 O15 1.931140 1_555
Al3 O13 1.931140 1_545
Al3 O27 2.008320 1_545
Al3 O25 2.008320 1_555
O8 Si3 1.638518 1_556
O9 Si2 1.638518 1_555
O10 Si2 1.638518 1_556
O11 Si1 1.638518 1_555
O12 Si3 1.638518 1_555
O13 Si0 1.638518 1_555
O14 Si0 1.638518 1_555
O15 Si1 1.638518 1_555
O16 Si4 1.640478 1_555
O16 Si0 1.640770 1_555
O17 Si5 1.640478 1_555
O17 Si1 1.640770 1_555
O18 Si6 1.640478 1_555
O18 Si2 1.640770 1_555
O19 Si7 1.640478 1_555
O19 Si3 1.640770 1_555
O20 Si8 1.649460 1_555
O21 Si9 1.649460 1_555
O22 Si9 1.649460 1_555
O23 Si10 1.649460 1_556
O24 Si8 1.649460 1_555
O25 Si11 1.649460 1_555
O26 Si11 1.649460 1_556
O27 Si10 1.649460 1_555
O28 Si9 1.765284 1_555
O28 Si1 1.784940 1_555
O29 Si8 1.765284 1_555
O29 Si0 1.784940 1_555
O30 Si11 1.765284 1_555
O30 Si3 1.784940 1_555
O31 Si10 1.765284 1_555
O31 Si2 1.784940 1_555
O32 Si5 1.638172 1_555
O32 Si8 1.644504 1_555
O33 Si4 1.638172 1_555
O33 Si9 1.644504 1_555
O34 Si7 1.638172 1_555
O34 Si10 1.644504 1_555
O35 Si6 1.638172 1_555
O35 Si11 1.644504 1_555
