# generated using pymatgen
data_K
_symmetry_space_group_name_H-M   'P 1'
_cell_length_a   9.52479306
_cell_length_b   9.52479102
_cell_length_c   15.65994264
_cell_angle_alpha   90.00000000
_cell_angle_beta   90.00000000
_cell_angle_gamma   119.99999206
_symmetry_Int_Tables_number   1
_chemical_formula_structural   K
_chemical_formula_sum   K16
_cell_volume   1230.35896472
_cell_formula_units_Z   16
loop_
 _symmetry_equiv_pos_site_id
 _symmetry_equiv_pos_as_xyz
  1  'x, y, z'
loop_
 _atom_site_type_symbol
 _atom_site_label
 _atom_site_symmetry_multiplicity
 _atom_site_fract_x
 _atom_site_fract_y
 _atom_site_fract_z
 _atom_site_occupancy
  K  K0_0  1  0.16666650  0.33333300  0.12500000  1
  K  K0_1  1  0.16666650  0.33333300  0.62500000  1
  K  K0_2  1  0.16666650  0.83333300  0.12500000  1
  K  K0_3  1  0.16666650  0.83333300  0.62500000  1
  K  K0_4  1  0.66666650  0.33333300  0.12500000  1
  K  K0_5  1  0.66666650  0.33333300  0.62500000  1
  K  K0_6  1  0.66666650  0.83333300  0.12500000  1
  K  K0_7  1  0.66666650  0.83333300  0.62500000  1
  K  K1_0  1  0.33333300  0.16666650  0.37500000  1
  K  K1_1  1  0.33333300  0.16666650  0.87500000  1
  K  K1_2  1  0.33333300  0.66666650  0.37500000  1
  K  K1_3  1  0.33333300  0.66666650  0.87500000  1
  K  K1_4  1  0.83333300  0.16666650  0.37500000  1
  K  K1_5  1  0.83333300  0.16666650  0.87500000  1
  K  K1_6  1  0.83333300  0.66666650  0.37500000  1
  K  K1_7  1  0.83333300  0.66666650  0.87500000  1
loop_
_geom_bond_atom_site_label_1
_geom_bond_atom_site_label_2
_geom_bond_distance
_geom_bond_site_symmetry_2
K0_0 K0_2 4.762396 1_545
K0_0 K0_2 4.762396 1_555
K0_0 K0_4 4.762397 1_555
K0_0 K0_4 4.762397 1_455
K0_0 K0_6 4.762397 1_555
K0_0 K0_6 4.762397 1_445
K0_0 K1_1 4.784061 1_554
K0_0 K1_0 4.784061 1_555
K0_0 K1_3 4.784063 1_554
K0_0 K1_2 4.784063 1_555
K0_0 K1_4 4.784063 1_455
K0_0 K1_5 4.784063 1_454
K0_1 K0_3 4.762396 1_555
K0_1 K0_3 4.762396 1_545
K0_1 K0_5 4.762397 1_555
K0_1 K0_5 4.762397 1_455
K0_1 K0_7 4.762397 1_555
K0_1 K0_7 4.762397 1_445
K0_1 K1_0 4.784061 1_555
K0_1 K1_1 4.784061 1_555
K0_1 K1_2 4.784063 1_555
K0_1 K1_3 4.784063 1_555
K0_1 K1_4 4.784063 1_455
K0_1 K1_5 4.784063 1_455
K0_2 K0_6 4.762397 1_455
K0_2 K0_6 4.762397 1_555
K0_2 K0_4 4.762397 1_565
K0_2 K0_4 4.762397 1_455
K0_2 K1_3 4.784061 1_554
K0_2 K1_2 4.784061 1_555
K0_2 K1_1 4.784063 1_564
K0_2 K1_0 4.784063 1_565
K0_2 K1_6 4.784063 1_455
K0_2 K1_7 4.784063 1_454
K0_3 K0_7 4.762397 1_555
K0_3 K0_7 4.762397 1_455
K0_3 K0_5 4.762397 1_565
K0_3 K0_5 4.762397 1_455
K0_3 K1_2 4.784061 1_555
K0_3 K1_3 4.784061 1_555
K0_3 K1_0 4.784063 1_565
K0_3 K1_1 4.784063 1_565
K0_3 K1_6 4.784063 1_455
K0_3 K1_7 4.784063 1_455
K0_4 K0_6 4.762396 1_545
K0_4 K0_6 4.762396 1_555
K0_4 K1_5 4.784061 1_554
K0_4 K1_4 4.784061 1_555
K0_4 K1_7 4.784063 1_554
K0_4 K1_6 4.784063 1_555
K0_4 K1_0 4.784063 1_555
K0_4 K1_1 4.784063 1_554
K0_5 K0_7 4.762396 1_545
K0_5 K0_7 4.762396 1_555
K0_5 K1_4 4.784061 1_555
K0_5 K1_5 4.784061 1_555
K0_5 K1_6 4.784063 1_555
K0_5 K1_7 4.784063 1_555
K0_5 K1_0 4.784063 1_555
K0_5 K1_1 4.784063 1_555
K0_6 K1_7 4.784061 1_554
K0_6 K1_6 4.784061 1_555
K0_6 K1_5 4.784063 1_564
K0_6 K1_4 4.784063 1_565
K0_6 K1_2 4.784063 1_555
K0_6 K1_3 4.784063 1_554
K0_7 K1_6 4.784061 1_555
K0_7 K1_7 4.784061 1_555
K0_7 K1_4 4.784063 1_565
K0_7 K1_5 4.784063 1_565
K0_7 K1_2 4.784063 1_555
K0_7 K1_3 4.784063 1_555
K1_0 K1_2 4.762396 1_545
K1_0 K1_2 4.762396 1_555
K1_0 K1_4 4.762397 1_555
K1_0 K1_4 4.762397 1_455
K1_0 K1_6 4.762397 1_555
K1_0 K1_6 4.762397 1_445
K1_1 K1_3 4.762396 1_545
K1_1 K1_3 4.762396 1_555
K1_1 K1_5 4.762397 1_555
K1_1 K1_5 4.762397 1_455
K1_1 K1_7 4.762397 1_555
K1_1 K1_7 4.762397 1_445
K1_2 K1_6 4.762397 1_555
K1_2 K1_6 4.762397 1_455
K1_2 K1_4 4.762397 1_565
K1_2 K1_4 4.762397 1_455
K1_3 K1_7 4.762397 1_555
K1_3 K1_7 4.762397 1_455
K1_3 K1_5 4.762397 1_565
K1_3 K1_5 4.762397 1_455
K1_4 K1_6 4.762396 1_545
K1_4 K1_6 4.762396 1_555
K1_5 K1_7 4.762396 1_545
K1_5 K1_7 4.762396 1_555
