# generated using pymatgen
data_SrSiO3
_symmetry_space_group_name_H-M   'P 1'
_cell_length_a   4.42576635
_cell_length_b   7.63678596
_cell_length_c   10.90241500
_cell_angle_alpha   90.00000000
_cell_angle_beta   90.00000000
_cell_angle_gamma   91.06611217
_symmetry_Int_Tables_number   1
_chemical_formula_structural   SrSiO3
_chemical_formula_sum   'Sr4 Si4 O12'
_cell_volume   368.42290552
_cell_formula_units_Z   4
loop_
 _symmetry_equiv_pos_site_id
 _symmetry_equiv_pos_as_xyz
  1  'x, y, z'
loop_
 _atom_site_type_symbol
 _atom_site_label
 _atom_site_symmetry_multiplicity
 _atom_site_fract_x
 _atom_site_fract_y
 _atom_site_fract_z
 _atom_site_occupancy
  Sr  Sr0  1  0.78496700  0.98584900  0.71551200  1
  Sr  Sr1  1  0.71505700  0.23085300  0.13842300  1
  Sr  Sr2  1  0.78496700  0.48584900  0.78448800  1
  Sr  Sr3  1  0.71505700  0.73085300  0.36157700  1
  Si  Si0  1  0.24076000  0.69104100  0.59636300  1
  Si  Si1  1  0.24076000  0.19104100  0.90363700  1
  Si  Si2  1  0.82287400  0.21879300  0.46832400  1
  Si  Si3  1  0.82287400  0.71879300  0.03167600  1
  O  O0  1  0.20889900  0.17707900  0.04955700  1
  O  O1  1  0.20889900  0.67707900  0.45044300  1
  O  O2  1  0.60428100  0.19790800  0.86472800  1
  O  O3  1  0.60428100  0.69790800  0.63527200  1
  O  O4  1  0.87413900  0.28885600  0.60352200  1
  O  O5  1  0.72898100  0.51846900  0.04076300  1
  O  O6  1  0.87413900  0.78885600  0.89647800  1
  O  O7  1  0.72898100  0.01846900  0.45923700  1
  O  O8  1  0.67101000  0.35484400  0.35791800  1
  O  O9  1  0.67101000  0.85484400  0.14208200  1
  O  O10  1  0.03103100  0.30540800  0.34877400  1
  O  O11  1  0.03103100  0.80540800  0.15122600  1
loop_
_geom_bond_atom_site_label_1
_geom_bond_atom_site_label_2
_geom_bond_distance
_geom_bond_site_symmetry_2
O0 Si1 1.600498 1_554
O0 Sr1 2.432631 1_455
O0 Sr1 2.468056 1_555
O1 Si0 1.600498 1_555
O1 Sr3 2.432631 1_455
O1 Sr3 2.468056 1_555
O2 Si1 1.663726 1_555
O2 Sr0 2.440658 1_545
O2 Sr2 2.484892 1_555
O2 Sr1 3.033636 1_556
O3 Si0 1.663726 1_555
O3 Sr2 2.440658 1_555
O3 Sr0 2.484892 1_555
O3 Sr3 3.033636 1_555
O4 Si2 1.582996 1_555
O4 Sr2 2.516673 1_555
O4 Sr0 2.639528 1_545
O5 Si3 1.580893 1_555
O5 Sr1 2.440667 1_555
O5 Sr2 2.816430 1_554
O6 Si3 1.582996 1_556
O6 Sr0 2.516673 1_555
O6 Sr2 2.639528 1_555
O7 Si2 1.580893 1_555
O7 Sr3 2.440667 1_545
O7 Sr0 2.816430 1_545
O8 Si2 1.733812 1_555
O8 Sr1 2.582256 1_555
O8 Sr3 2.874766 1_555
O9 Si3 1.733812 1_555
O9 Sr3 2.582256 1_555
O9 Sr1 2.874766 1_565
O10 O8 1.647325 1_455
O10 Si2 1.721154 1_455
O10 Sr1 2.740351 1_455
O11 O9 1.647325 1_455
O11 Si3 1.721154 1_455
O11 Sr3 2.740351 1_455
