# generated using pymatgen
data_Y2Mn3Co
_symmetry_space_group_name_H-M   'P 1'
_cell_length_a   5.22506939
_cell_length_b   5.22506939
_cell_length_c   5.12056320
_cell_angle_alpha   90.00000000
_cell_angle_beta   59.32254362
_cell_angle_gamma   120.00000000
_symmetry_Int_Tables_number   1
_chemical_formula_structural   Y2Mn3Co
_chemical_formula_sum   'Y2 Mn3 Co1'
_cell_volume   97.82797249
_cell_formula_units_Z   1
loop_
 _symmetry_equiv_pos_site_id
 _symmetry_equiv_pos_as_xyz
  1  'x, y, z'
loop_
 _atom_site_type_symbol
 _atom_site_label
 _atom_site_symmetry_multiplicity
 _atom_site_fract_x
 _atom_site_fract_y
 _atom_site_fract_z
 _atom_site_occupancy
  Y  Y0  1  0.49906600  0.74953300  0.75140000  1
  Y  Y1  1  0.00093400  0.00046700  0.99860000  1
  Mn  Mn0  1  0.25000000  0.37500000  0.37500000  1
  Mn  Mn1  1  0.25000000  0.87500000  0.37500000  1
  Mn  Mn2  1  0.75000000  0.37500000  0.37500000  1
  Co  Co0  1  0.75000000  0.37500000  0.87500000  1
loop_
_geom_bond_atom_site_label_1
_geom_bond_atom_site_label_2
_geom_bond_distance
_geom_bond_site_symmetry_2
Y0 Y1 3.114784 1_664
Y0 Y1 3.185370 1_565
Y0 Y1 3.185370 1_555
Y0 Y1 3.185378 1_665
Mn0 Mn1 2.612535 1_555
Mn0 Mn2 2.612535 1_455
Mn0 Mn2 2.612535 1_555
Mn0 Mn1 2.612535 1_545
Mn0 Y0 2.988742 1_554
Mn0 Y1 2.988742 1_555
Mn0 Y1 3.041512 1_554
Mn0 Y0 3.041512 1_555
Mn0 Y0 3.041516 1_445
Mn0 Y1 3.041516 1_664
Mn1 Mn2 2.612535 1_565
Mn1 Mn2 2.612535 1_455
Mn1 Y1 2.988742 1_565
Mn1 Y0 2.988742 1_554
Mn1 Y1 3.041512 1_564
Mn1 Y0 3.041512 1_555
Mn1 Y0 3.041516 1_455
Mn1 Y1 3.041516 1_664
Mn2 Y1 2.988740 1_555
Mn2 Y0 2.988740 1_654
Mn2 Y1 3.041514 1_654
Mn2 Y0 3.041514 1_555
Mn2 Y1 3.041514 1_664
Mn2 Y0 3.041514 1_545
Co0 Mn2 2.560282 1_556
Co0 Mn1 2.560282 1_546
Co0 Mn1 2.560282 1_655
Co0 Mn0 2.560282 1_556
Co0 Mn0 2.560282 1_655
Co0 Mn2 2.560282 1_555
Co0 Y0 3.059734 1_655
Co0 Y1 3.059734 1_555
Co0 Y0 3.059738 1_545
Co0 Y1 3.059738 1_665
Co0 Y1 3.059738 1_655
Co0 Y0 3.059738 1_555
