# generated using pymatgen
data_Mn2ZnS4
_symmetry_space_group_name_H-M   'P 1'
_cell_length_a   7.16220398
_cell_length_b   7.16220398
_cell_length_c   7.16220398
_cell_angle_alpha   60.00000000
_cell_angle_beta   60.00000000
_cell_angle_gamma   60.00000000
_symmetry_Int_Tables_number   1
_chemical_formula_structural   Mn2ZnS4
_chemical_formula_sum   'Mn4 Zn2 S8'
_cell_volume   259.79157226
_cell_formula_units_Z   2
loop_
 _symmetry_equiv_pos_site_id
 _symmetry_equiv_pos_as_xyz
  1  'x, y, z'
loop_
 _atom_site_type_symbol
 _atom_site_label
 _atom_site_symmetry_multiplicity
 _atom_site_fract_x
 _atom_site_fract_y
 _atom_site_fract_z
 _atom_site_occupancy
  Mn  Mn0  1  0.12500000  0.62500000  0.62500000  1
  Mn  Mn1  1  0.62500000  0.12500000  0.62500000  1
  Mn  Mn2  1  0.62500000  0.62500000  0.12500000  1
  Mn  Mn3  1  0.62500000  0.62500000  0.62500000  1
  Zn  Zn0  1  0.25000000  0.25000000  0.25000000  1
  Zn  Zn1  1  0.00000000  0.00000000  0.00000000  1
  S  S0  1  0.84771400  0.38409500  0.38409500  1
  S  S1  1  0.38409500  0.84771400  0.38409500  1
  S  S2  1  0.38409500  0.38409500  0.84771400  1
  S  S3  1  0.38409500  0.38409500  0.38409500  1
  S  S4  1  0.40228600  0.86590500  0.86590500  1
  S  S5  1  0.86590500  0.40228600  0.86590500  1
  S  S6  1  0.86590500  0.86590500  0.40228600  1
  S  S7  1  0.86590500  0.86590500  0.86590500  1
loop_
_geom_bond_atom_site_label_1
_geom_bond_atom_site_label_2
_geom_bond_distance
_geom_bond_site_symmetry_2
Mn0 S5 2.443570 1_455
Mn0 S2 2.443570 1_555
Mn0 S6 2.443570 1_455
Mn0 S1 2.443570 1_555
Mn0 S3 2.443575 1_555
Mn0 S7 2.443575 1_455
Mn1 S2 2.443570 1_555
Mn1 S4 2.443570 1_545
Mn1 S0 2.443570 1_555
Mn1 S6 2.443570 1_545
Mn1 S3 2.443575 1_555
Mn1 S7 2.443575 1_545
Mn2 S5 2.443570 1_554
Mn2 S1 2.443570 1_555
Mn2 S4 2.443570 1_554
Mn2 S0 2.443570 1_555
Mn2 S3 2.443575 1_555
Mn2 S7 2.443575 1_554
Mn3 S0 2.443575 1_555
Mn3 S1 2.443575 1_555
Mn3 S2 2.443575 1_555
Mn3 S6 2.443575 1_555
Mn3 S4 2.443575 1_555
Mn3 S5 2.443575 1_555
S0 Zn0 2.352534 1_655
S1 Zn0 2.352534 1_565
S2 Zn0 2.352534 1_556
S3 Zn0 2.352529 1_555
S4 Zn1 2.352534 1_566
S5 Zn1 2.352534 1_656
S6 Zn1 2.352534 1_665
S7 Zn1 2.352529 1_666
