# generated using pymatgen
data_MgPt2
_symmetry_space_group_name_H-M   'P 1'
_cell_length_a   4.85882136
_cell_length_b   4.85882136
_cell_length_c   4.52867036
_cell_angle_alpha   90.00000000
_cell_angle_beta   90.00000000
_cell_angle_gamma   120.00001585
_symmetry_Int_Tables_number   1
_chemical_formula_structural   MgPt2
_chemical_formula_sum   'Mg2 Pt4'
_cell_volume   92.58979806
_cell_formula_units_Z   2
loop_
 _symmetry_equiv_pos_site_id
 _symmetry_equiv_pos_as_xyz
  1  'x, y, z'
loop_
 _atom_site_type_symbol
 _atom_site_label
 _atom_site_symmetry_multiplicity
 _atom_site_fract_x
 _atom_site_fract_y
 _atom_site_fract_z
 _atom_site_occupancy
  Mg  Mg0  1  0.33333300  0.66666700  0.50000000  1
  Mg  Mg1  1  0.66666700  0.33333300  0.50000000  1
  Pt  Pt0  1  -0.00000000  -0.00000000  0.50000000  1
  Pt  Pt1  1  -0.00000000  0.33381670  -0.00000000  1
  Pt  Pt2  1  0.33381670  -0.00000000  -0.00000000  1
  Pt  Pt3  1  0.66618330  0.66618330  0.00000000  1
loop_
_geom_bond_atom_site_label_1
_geom_bond_atom_site_label_2
_geom_bond_distance
_geom_bond_site_symmetry_2
Mg0 Pt2 2.783260 1_565
Mg0 Pt2 2.783260 1_566
Mg0 Pt1 2.783261 1_555
Mg0 Pt1 2.783261 1_556
Mg0 Pt3 2.783263 1_555
Mg0 Pt3 2.783263 1_556
Mg0 Mg1 2.805239 1_455
Mg0 Mg1 2.805239 1_565
Mg0 Pt0 2.805239 1_565
Mg0 Pt0 2.805243 1_665
Mg0 Pt0 2.805243 1_555
Mg0 Mg1 2.805248 1_555
Mg1 Pt1 2.783260 1_655
Mg1 Pt1 2.783260 1_656
Mg1 Pt2 2.783261 1_556
Mg1 Pt2 2.783261 1_555
Mg1 Pt3 2.783263 1_555
Mg1 Pt3 2.783263 1_556
Mg1 Pt0 2.805239 1_655
Mg1 Pt0 2.805243 1_665
Mg1 Pt0 2.805243 1_555
Pt0 Pt3 2.785310 1_446
Pt0 Pt3 2.785310 1_445
Pt0 Pt1 2.785310 1_555
Pt0 Pt2 2.785310 1_556
Pt0 Pt2 2.785310 1_555
Pt0 Pt1 2.785310 1_556
Pt1 Pt2 2.803210 1_565
Pt1 Pt2 2.803210 1_455
Pt1 Pt3 2.803210 1_555
Pt1 Pt3 2.803210 1_455
Pt1 Pt3 2.809309 1_445
Pt1 Pt2 2.809310 1_555
Pt2 Pt3 2.803210 1_555
Pt2 Pt3 2.803210 1_545
Pt2 Pt3 2.809309 1_445
