# generated using pymatgen
data_LiVGaO4
_symmetry_space_group_name_H-M   'P 1'
_cell_length_a   5.91168600
_cell_length_b   5.95509714
_cell_length_c   10.28505749
_cell_angle_alpha   90.94546477
_cell_angle_beta   107.11435376
_cell_angle_gamma   60.61842388
_symmetry_Int_Tables_number   1
_chemical_formula_structural   LiVGaO4
_chemical_formula_sum   'Li4 V4 Ga4 O16'
_cell_volume   297.96079662
_cell_formula_units_Z   4
loop_
 _symmetry_equiv_pos_site_id
 _symmetry_equiv_pos_as_xyz
  1  'x, y, z'
loop_
 _atom_site_type_symbol
 _atom_site_label
 _atom_site_symmetry_multiplicity
 _atom_site_fract_x
 _atom_site_fract_y
 _atom_site_fract_z
 _atom_site_occupancy
  Li  Li0  1  0.13192200  0.92320400  0.19130000  1
  Li  Li1  1  0.13096600  0.42827500  0.69163100  1
  Li  Li2  1  0.86800700  0.07508300  0.80825900  1
  Li  Li3  1  0.86856400  0.57293700  0.30860900  1
  V  V0  1  0.50455100  0.74991100  0.74964100  1
  V  V1  1  0.49947400  0.99872000  0.00010200  1
  V  V2  1  0.49417100  0.24763100  0.24979200  1
  V  V3  1  0.50090600  0.50223200  0.49829800  1
  Ga  Ga0  1  0.99950100  0.49709500  0.99932800  1
  Ga  Ga1  1  0.00046900  0.00288200  0.50130300  1
  Ga  Ga2  1  0.49880400  0.00304900  0.50084500  1
  Ga  Ga3  1  0.50178600  0.49742300  0.00014500  1
  O  O0  1  0.73196900  0.91702200  0.37871300  1
  O  O1  1  0.72657300  0.41252700  0.87819800  1
  O  O2  1  0.26487300  0.85771900  0.39669200  1
  O  O3  1  0.26043300  0.36358000  0.89672200  1
  O  O4  1  0.73378600  0.14473700  0.60336200  1
  O  O5  1  0.74051200  0.63466300  0.10363800  1
  O  O6  1  0.26742000  0.08897700  0.62027100  1
  O  O7  1  0.27625000  0.58124900  0.12326400  1
  O  O8  1  0.71491700  0.64415100  0.62023300  1
  O  O9  1  0.71337900  0.12753400  0.11758500  1
  O  O10  1  0.27755800  0.63635500  0.62387700  1
  O  O11  1  0.26944300  0.13593300  0.12338400  1
  O  O12  1  0.72537500  0.36578400  0.37868700  1
  O  O13  1  0.72683000  0.86263700  0.87465400  1
  O  O14  1  0.28413500  0.36053200  0.37907400  1
  O  O15  1  0.28742600  0.86815700  0.88239400  1
loop_
_geom_bond_atom_site_label_1
_geom_bond_atom_site_label_2
_geom_bond_distance
_geom_bond_site_symmetry_2
Li0 O7 1.990965 1_555
Li0 O2 1.995388 1_555
Li0 O11 2.031682 1_565
Li0 O9 2.037067 1_465
Li1 O3 1.992725 1_555
Li1 O6 1.993033 1_555
Li1 O8 2.026533 1_455
Li1 O10 2.051756 1_555
Li2 O1 1.977944 1_555
Li2 O4 1.991087 1_555
Li2 O13 2.040455 1_545
Li2 O15 2.041538 1_645
Li3 O5 1.991403 1_555
Li3 O0 2.010201 1_555
Li3 O14 2.023317 1_655
Li3 O12 2.042286 1_555
Ga0 O3 1.962712 1_655
Ga0 O5 1.968055 1_556
Ga0 O1 2.000633 1_555
Ga0 O7 2.026987 1_656
Ga0 O11 2.079587 1_656
Ga0 O13 2.100875 1_555
Ga1 O6 1.971618 1_555
Ga1 O4 1.984654 1_455
Ga1 O0 1.991944 1_445
Ga1 O2 1.995335 1_545
Ga1 O12 2.083217 1_455
Ga1 O10 2.098522 1_545
Ga2 O6 1.980643 1_555
Ga2 O4 2.003023 1_555
Ga2 O0 2.011274 1_545
Ga2 O2 2.020130 1_545
Ga2 O8 2.047408 1_545
Ga2 O14 2.052468 1_555
Ga3 O1 1.973675 1_554
Ga3 O7 1.987484 1_555
Ga3 O3 1.999300 1_554
Ga3 O5 2.002892 1_555
Ga3 O9 2.090583 1_555
Ga3 O15 2.094389 1_554
O0 V2 1.970751 1_565
O1 V0 1.996578 1_555
O2 V3 1.958794 1_555
O3 V1 2.006865 1_546
O4 V3 1.979823 1_555
O5 V1 2.004096 1_555
O6 V0 2.006494 1_545
O7 V2 1.971648 1_555
O8 V0 1.972992 1_555
O8 V3 1.992002 1_555
O9 V1 1.915590 1_545
O9 V2 2.033553 1_555
O10 V0 1.941936 1_555
O10 V3 1.996083 1_555
O11 V2 1.928659 1_555
O11 V1 2.003737 1_545
O12 V3 1.950473 1_555
O12 V2 1.991764 1_555
O13 V0 1.916565 1_555
O13 V1 2.011294 1_556
O14 V2 1.971004 1_555
O14 V3 1.989967 1_555
O15 V1 1.916690 1_556
O15 V0 2.029904 1_555
