# generated using pymatgen
data_YbCoGe
_symmetry_space_group_name_H-M   'P 1'
_cell_length_a   4.16727625
_cell_length_b   7.03949398
_cell_length_c   6.74140938
_cell_angle_alpha   90.00000000
_cell_angle_beta   90.00000000
_cell_angle_gamma   90.00000000
_symmetry_Int_Tables_number   1
_chemical_formula_structural   YbCoGe
_chemical_formula_sum   'Yb4 Co4 Ge4'
_cell_volume   197.76272343
_cell_formula_units_Z   4
loop_
 _symmetry_equiv_pos_site_id
 _symmetry_equiv_pos_as_xyz
  1  'x, y, z'
loop_
 _atom_site_type_symbol
 _atom_site_label
 _atom_site_symmetry_multiplicity
 _atom_site_fract_x
 _atom_site_fract_y
 _atom_site_fract_z
 _atom_site_occupancy
  Yb  Yb0  1  0.25000000  0.69852562  0.98854446  1
  Yb  Yb1  1  0.75000000  0.30147438  0.01145554  1
  Yb  Yb2  1  0.75000000  0.19852562  0.51145554  1
  Yb  Yb3  1  0.25000000  0.80147438  0.48854446  1
  Co  Co0  1  0.25000000  0.06397446  0.15495715  1
  Co  Co1  1  0.75000000  0.93602554  0.84504285  1
  Co  Co2  1  0.75000000  0.56397446  0.34504285  1
  Co  Co3  1  0.25000000  0.43602554  0.65495715  1
  Ge  Ge0  1  0.25000000  0.39699388  0.29518130  1
  Ge  Ge1  1  0.75000000  0.60300612  0.70481870  1
  Ge  Ge2  1  0.75000000  0.89699388  0.20481870  1
  Ge  Ge3  1  0.25000000  0.10300612  0.79518130  1
loop_
_geom_bond_atom_site_label_1
_geom_bond_atom_site_label_2
_geom_bond_distance
_geom_bond_site_symmetry_2
Co0 Ge2 2.415831 1_445
Co0 Ge2 2.415831 1_545
Co0 Ge3 2.440910 1_554
Co0 Ge0 2.527705 1_555
Co0 Yb0 2.806546 1_544
Co0 Yb1 2.841232 1_455
Co0 Yb1 2.841232 1_555
Co0 Yb3 2.910659 1_545
Co1 Ge3 2.415831 1_665
Co1 Ge3 2.415831 1_565
Co1 Ge2 2.440910 1_556
Co1 Ge1 2.527705 1_555
Co1 Yb1 2.806546 1_566
Co1 Yb0 2.841232 1_555
Co1 Yb0 2.841232 1_655
Co1 Yb2 2.910659 1_565
Co2 Ge0 2.415831 1_655
Co2 Ge0 2.415831 1_555
Co2 Ge1 2.440910 1_555
Co2 Ge2 2.527705 1_555
Co2 Yb2 2.806546 1_555
Co2 Yb3 2.841232 1_555
Co2 Yb3 2.841232 1_655
Co2 Yb1 2.910659 1_555
Co3 Ge1 2.415831 1_555
Co3 Ge1 2.415831 1_455
Co3 Ge0 2.440910 1_555
Co3 Ge3 2.527705 1_555
Co3 Yb3 2.806546 1_555
Co3 Yb2 2.841232 1_555
Co3 Yb2 2.841232 1_455
Co3 Yb0 2.910659 1_555
Ge0 Yb2 2.901590 1_455
Ge0 Yb2 2.901590 1_555
Ge0 Yb1 2.907258 1_455
Ge0 Yb1 2.907258 1_555
Ge0 Yb0 2.962892 1_554
Ge0 Yb3 3.131541 1_555
Ge1 Yb3 2.901590 1_555
Ge1 Yb3 2.901590 1_655
Ge1 Yb0 2.907258 1_555
Ge1 Yb0 2.907258 1_655
Ge1 Yb1 2.962892 1_556
Ge1 Yb2 3.131541 1_555
Ge2 Yb0 2.901590 1_554
Ge2 Yb0 2.901590 1_654
Ge2 Yb3 2.907258 1_555
Ge2 Yb3 2.907258 1_655
Ge2 Yb2 2.962892 1_565
Ge2 Yb1 3.131541 1_565
Ge3 Yb1 2.901590 1_456
Ge3 Yb1 2.901590 1_556
Ge3 Yb2 2.907258 1_555
Ge3 Yb2 2.907258 1_455
Ge3 Yb3 2.962892 1_545
Ge3 Yb0 3.131541 1_545
