# generated using pymatgen
data_B3Rh7
_symmetry_space_group_name_H-M   'P 1'
_cell_length_a   7.45935848
_cell_length_b   7.45935848
_cell_length_c   4.82698209
_cell_angle_alpha   90.00000000
_cell_angle_beta   90.00000000
_cell_angle_gamma   120.00000854
_symmetry_Int_Tables_number   1
_chemical_formula_structural   B3Rh7
_chemical_formula_sum   'B6 Rh14'
_cell_volume   232.59974797
_cell_formula_units_Z   2
loop_
 _symmetry_equiv_pos_site_id
 _symmetry_equiv_pos_as_xyz
  1  'x, y, z'
loop_
 _atom_site_type_symbol
 _atom_site_label
 _atom_site_symmetry_multiplicity
 _atom_site_fract_x
 _atom_site_fract_y
 _atom_site_fract_z
 _atom_site_occupancy
  B  B0  1  0.18887913  0.37775927  0.83352755  1
  B  B1  1  0.62224073  0.81112087  0.83352755  1
  B  B2  1  0.18887913  0.81112087  0.83352755  1
  B  B3  1  0.81112087  0.62224073  0.33352755  1
  B  B4  1  0.37775927  0.18887913  0.33352755  1
  B  B5  1  0.81112087  0.18887913  0.33352755  1
  Rh  Rh0  1  0.66666700  0.33333300  0.57745962  1
  Rh  Rh1  1  0.33333300  0.66666700  0.07745962  1
  Rh  Rh2  1  0.87732664  0.75465328  0.72635476  1
  Rh  Rh3  1  0.24534672  0.12267336  0.72635476  1
  Rh  Rh4  1  0.87732664  0.12267336  0.72635476  1
  Rh  Rh5  1  0.12267336  0.24534672  0.22635476  1
  Rh  Rh6  1  0.75465328  0.87732664  0.22635476  1
  Rh  Rh7  1  0.12267336  0.87732664  0.22635476  1
  Rh  Rh8  1  0.45598996  0.91197891  0.58480415  1
  Rh  Rh9  1  0.08802109  0.54401004  0.58480415  1
  Rh  Rh10  1  0.45598996  0.54401004  0.58480415  1
  Rh  Rh11  1  0.54401004  0.08802109  0.08480415  1
  Rh  Rh12  1  0.91197891  0.45598996  0.08480415  1
  Rh  Rh13  1  0.54401004  0.45598996  0.08480415  1
loop_
_geom_bond_atom_site_label_1
_geom_bond_atom_site_label_2
_geom_bond_distance
_geom_bond_site_symmetry_2
B0 Rh5 2.080178 1_556
B0 Rh9 2.116201 1_555
B0 Rh10 2.116211 1_555
B0 Rh4 2.206140 1_455
B0 Rh3 2.206145 1_555
B0 Rh1 2.206725 1_556
B1 Rh6 2.080178 1_556
B1 Rh8 2.116201 1_555
B1 Rh10 2.116211 1_555
B1 Rh4 2.206140 1_565
B1 Rh2 2.206145 1_555
B1 Rh1 2.206725 1_556
B2 Rh7 2.080176 1_556
B2 Rh9 2.116213 1_555
B2 Rh8 2.116213 1_555
B2 Rh2 2.206137 1_455
B2 Rh3 2.206137 1_565
B2 Rh1 2.206725 1_556
B3 Rh2 2.080178 1_555
B3 Rh12 2.116201 1_555
B3 Rh13 2.116211 1_555
B3 Rh7 2.206140 1_655
B3 Rh6 2.206145 1_555
B3 Rh0 2.206725 1_555
B4 Rh3 2.080178 1_555
B4 Rh11 2.116201 1_555
B4 Rh13 2.116211 1_555
B4 Rh7 2.206140 1_545
B4 Rh5 2.206145 1_555
B4 Rh0 2.206725 1_555
B5 Rh4 2.080176 1_555
B5 Rh11 2.116213 1_555
B5 Rh12 2.116213 1_555
B5 Rh6 2.206137 1_545
B5 Rh5 2.206137 1_655
B5 Rh0 2.206725 1_555
