# generated using pymatgen
data_Lu(SiNi)2
_symmetry_space_group_name_H-M   'P 1'
_cell_length_a   3.88696805
_cell_length_b   3.88696850
_cell_length_c   5.45772488
_cell_angle_alpha   110.86075663
_cell_angle_beta   110.86075639
_cell_angle_gamma   89.99999925
_symmetry_Int_Tables_number   1
_chemical_formula_structural   Lu(SiNi)2
_chemical_formula_sum   'Lu1 Si2 Ni2'
_cell_volume   71.23871199
_cell_formula_units_Z   1
loop_
 _symmetry_equiv_pos_site_id
 _symmetry_equiv_pos_as_xyz
  1  'x, y, z'
loop_
 _atom_site_type_symbol
 _atom_site_label
 _atom_site_symmetry_multiplicity
 _atom_site_fract_x
 _atom_site_fract_y
 _atom_site_fract_z
 _atom_site_occupancy
  Lu  Lu0  1  -0.00000000  0.00000000  0.00000000  1
  Si  Si0  1  0.62513724  0.62513724  0.25027548  1
  Si  Si1  1  0.37486276  0.37486276  0.74972452  1
  Ni  Ni0  1  0.75000000  0.25000000  0.50000000  1
  Ni  Ni1  1  0.25000000  0.75000000  0.50000000  1
loop_
_geom_bond_atom_site_label_1
_geom_bond_atom_site_label_2
_geom_bond_distance
_geom_bond_site_symmetry_2
Lu0 Si1 2.991127 1_444
Lu0 Si0 2.991127 1_555
Lu0 Si1 2.991129 1_454
Lu0 Si0 2.991129 1_545
Lu0 Si1 2.991130 1_544
Lu0 Si0 2.991130 1_455
Lu0 Si0 2.991132 1_445
Lu0 Si1 2.991132 1_554
Lu0 Ni0 3.055364 1_555
Lu0 Ni1 3.055364 1_444
Lu0 Ni0 3.055364 1_444
Lu0 Ni1 3.055364 1_555
Lu0 Ni0 3.055365 1_455
Lu0 Ni1 3.055365 1_544
Lu0 Ni1 3.055365 1_545
Lu0 Ni0 3.055365 1_454
Si0 Si1 2.360165 1_554
Ni0 Si1 2.272354 1_555
Ni0 Si0 2.272354 1_555
Ni0 Si1 2.272357 1_655
Ni0 Si0 2.272357 1_545
Ni0 Ni1 2.748502 1_645
Ni0 Ni1 2.748502 1_555
Ni0 Ni1 2.748502 1_545
Ni0 Ni1 2.748502 1_655
Ni1 Si0 2.272354 1_555
Ni1 Si1 2.272354 1_555
Ni1 Si0 2.272357 1_455
Ni1 Si1 2.272357 1_565
