# generated using pymatgen
data_K2YbF5
_symmetry_space_group_name_H-M   'P 1'
_cell_length_a   6.62860100
_cell_length_b   7.45824700
_cell_length_c   10.73134400
_cell_angle_alpha   90.00000000
_cell_angle_beta   90.00000000
_cell_angle_gamma   90.00000000
_symmetry_Int_Tables_number   1
_chemical_formula_structural   K2YbF5
_chemical_formula_sum   'K8 Yb4 F20'
_cell_volume   530.53343232
_cell_formula_units_Z   4
loop_
 _symmetry_equiv_pos_site_id
 _symmetry_equiv_pos_as_xyz
  1  'x, y, z'
loop_
 _atom_site_type_symbol
 _atom_site_label
 _atom_site_symmetry_multiplicity
 _atom_site_fract_x
 _atom_site_fract_y
 _atom_site_fract_z
 _atom_site_occupancy
  K  K0  1  0.52725600  0.49581500  0.82651100  1
  K  K1  1  0.47274400  0.50418500  0.17348900  1
  K  K2  1  0.02725600  0.50418500  0.67348900  1
  K  K3  1  0.47274400  0.99581500  0.17348900  1
  K  K4  1  0.97274400  0.49581500  0.32651100  1
  K  K5  1  0.52725600  0.00418500  0.82651100  1
  K  K6  1  0.97274400  0.00418500  0.32651100  1
  K  K7  1  0.02725600  0.99581500  0.67348900  1
  Yb  Yb0  1  0.55573300  0.75000000  0.50398100  1
  Yb  Yb1  1  0.44426700  0.25000000  0.49601900  1
  Yb  Yb2  1  0.05573300  0.25000000  0.99601900  1
  Yb  Yb3  1  0.94426700  0.75000000  0.00398200  1
  F  F0  1  0.81367800  0.75000000  0.80744800  1
  F  F1  1  0.18632200  0.25000000  0.19255200  1
  F  F2  1  0.31367800  0.25000000  0.69255200  1
  F  F3  1  0.68632200  0.75000000  0.30744800  1
  F  F4  1  0.35056900  0.75000000  0.67078700  1
  F  F5  1  0.64943100  0.25000000  0.32921300  1
  F  F6  1  0.85056900  0.25000000  0.82921300  1
  F  F7  1  0.14943100  0.75000000  0.17078700  1
  F  F8  1  0.90303700  0.75000000  0.50259300  1
  F  F9  1  0.09696300  0.25000000  0.49740700  1
  F  F10  1  0.40303700  0.25000000  0.99740700  1
  F  F11  1  0.59696300  0.75000000  0.00259300  1
  F  F12  1  0.64069900  0.03028800  0.57965300  1
  F  F13  1  0.35930100  0.96971200  0.42034700  1
  F  F14  1  0.14069900  0.96971200  0.92034700  1
  F  F15  1  0.35930100  0.53028800  0.42034700  1
  F  F16  1  0.85930100  0.03028800  0.07965300  1
  F  F17  1  0.64069900  0.46971200  0.57965300  1
  F  F18  1  0.85930100  0.46971200  0.07965300  1
  F  F19  1  0.14069900  0.53028800  0.92034700  1
loop_
_geom_bond_atom_site_label_1
_geom_bond_atom_site_label_2
_geom_bond_distance
_geom_bond_site_symmetry_2
F0 Yb3 2.279802 1_556
F0 K0 2.690800 1_555
F0 K5 2.690800 1_565
F0 K7 2.726173 1_655
F0 K2 2.726173 1_655
F1 Yb2 2.279792 1_554
F1 K1 2.690800 1_555
F1 K3 2.690800 1_545
F1 K4 2.726173 1_455
F1 K6 2.726173 1_455
F2 Yb1 2.279792 1_555
F2 K7 2.690800 1_545
F2 K2 2.690800 1_555
F2 K0 2.726173 1_555
F2 K5 2.726173 1_555
F3 Yb0 2.279792 1_555
F3 K4 2.690800 1_555
F3 K6 2.690800 1_565
F3 K1 2.726173 1_555
F3 K3 2.726173 1_555
F4 Yb0 2.248055 1_555
F4 K0 2.785374 1_555
F4 K5 2.785374 1_565
F4 K7 2.820451 1_555
F4 K2 2.820451 1_555
F5 Yb1 2.248055 1_555
F5 K1 2.785374 1_555
F5 K3 2.785374 1_545
F5 K6 2.820451 1_555
F5 K4 2.820451 1_555
F6 Yb2 2.248055 1_655
F6 K2 2.785374 1_655
F6 K7 2.785374 1_645
F6 K5 2.820451 1_555
F6 K0 2.820451 1_555
F7 Yb3 2.248047 1_455
F7 K4 2.785374 1_455
F7 K6 2.785374 1_465
F7 K1 2.820451 1_555
F7 K3 2.820451 1_555
F8 Yb0 2.302188 1_555
F8 K4 2.716254 1_555
F8 K6 2.716254 1_565
F8 K7 2.720754 1_655
F8 K2 2.720754 1_655
F9 Yb1 2.302188 1_555
F9 K2 2.716254 1_555
F9 K7 2.716254 1_545
F9 K4 2.720754 1_455
F9 K6 2.720754 1_455
F10 Yb2 2.302188 1_555
F10 K1 2.716254 1_556
F10 K3 2.716254 1_546
F10 K5 2.720754 1_555
F10 K0 2.720754 1_555
F11 Yb3 2.302188 1_555
F11 K0 2.716254 1_554
F11 K5 2.716254 1_564
F11 K1 2.720754 1_555
F11 K3 2.720754 1_555
F12 Yb1 2.277307 1_555
F12 Yb0 2.312284 1_545
F12 K5 2.760649 1_555
F12 K7 2.765081 1_645
F13 Yb0 2.277307 1_555
F13 Yb1 2.312284 1_565
F13 K3 2.760649 1_555
F13 K6 2.765081 1_465
F14 Yb3 2.277311 1_456
F14 Yb2 2.312284 1_565
F14 K7 2.760649 1_555
F14 K5 2.765081 1_565
F15 Yb0 2.277307 1_555
F15 Yb1 2.312284 1_555
F15 K1 2.760649 1_555
F15 K4 2.765081 1_455
F16 Yb2 2.277307 1_654
F16 Yb3 2.312280 1_545
F16 K6 2.760649 1_555
F16 K3 2.765081 1_545
F17 Yb1 2.277307 1_555
F17 Yb0 2.312284 1_555
F17 K0 2.760649 1_555
F17 K2 2.765081 1_655
F18 Yb2 2.277307 1_654
F18 Yb3 2.312280 1_555
F18 K4 2.760649 1_555
F18 K1 2.765081 1_555
F19 Yb3 2.277311 1_456
F19 Yb2 2.312284 1_555
F19 K2 2.760649 1_555
F19 K0 2.765081 1_555
