# generated using pymatgen
data_MnV2HPb2O9
_symmetry_space_group_name_H-M   'P 1'
_cell_length_a   6.33456700
_cell_length_b   7.79276825
_cell_length_c   8.78741279
_cell_angle_alpha   110.21395627
_cell_angle_beta   90.00000000
_cell_angle_gamma   90.00000000
_symmetry_Int_Tables_number   1
_chemical_formula_structural   MnV2HPb2O9
_chemical_formula_sum   'Mn2 V4 H2 Pb4 O18'
_cell_volume   407.06319237
_cell_formula_units_Z   2
loop_
 _symmetry_equiv_pos_site_id
 _symmetry_equiv_pos_as_xyz
  1  'x, y, z'
loop_
 _atom_site_type_symbol
 _atom_site_label
 _atom_site_symmetry_multiplicity
 _atom_site_fract_x
 _atom_site_fract_y
 _atom_site_fract_z
 _atom_site_occupancy
  Mn  Mn0  1  0.50000000  0.00000000  0.00000000  1
  Mn  Mn1  1  0.00000000  0.00000000  0.00000000  1
  V  V0  1  0.75000000  0.96194900  0.66196800  1
  V  V1  1  0.25000000  0.03805100  0.33803200  1
  V  V2  1  0.75000000  0.55263700  0.82583800  1
  V  V3  1  0.25000000  0.44736300  0.17416200  1
  H  H0  1  0.75000000  0.26297500  0.01907200  1
  H  H1  1  0.25000000  0.73702500  0.98092800  1
  Pb  Pb0  1  0.75000000  0.71914000  0.24944800  1
  Pb  Pb1  1  0.25000000  0.28086000  0.75055200  1
  Pb  Pb2  1  0.75000000  0.33740500  0.41693800  1
  Pb  Pb3  1  0.25000000  0.66259500  0.58306200  1
  O  O0  1  0.75000000  0.16570700  0.07123400  1
  O  O1  1  0.25000000  0.83429300  0.92876600  1
  O  O2  1  0.51689400  0.01576100  0.78469600  1
  O  O3  1  0.01689400  0.98423900  0.21530400  1
  O  O4  1  0.48310600  0.98423900  0.21530400  1
  O  O5  1  0.98310600  0.01576100  0.78469600  1
  O  O6  1  0.75000000  0.08495100  0.53632000  1
  O  O7  1  0.25000000  0.91504900  0.46368000  1
  O  O8  1  0.75000000  0.73417400  0.54184100  1
  O  O9  1  0.25000000  0.26582600  0.45815900  1
  O  O10  1  0.75000000  0.44332400  0.96519900  1
  O  O11  1  0.25000000  0.55667600  0.03480100  1
  O  O12  1  0.75000000  0.78913200  0.93631200  1
  O  O13  1  0.25000000  0.21086800  0.06368800  1
  O  O14  1  0.52689600  0.48722000  0.69842100  1
  O  O15  1  0.02689600  0.51278000  0.30157900  1
  O  O16  1  0.47310400  0.51278000  0.30157900  1
  O  O17  1  0.97310400  0.48722000  0.69842100  1
loop_
_geom_bond_atom_site_label_1
_geom_bond_atom_site_label_2
_geom_bond_distance
_geom_bond_site_symmetry_2
Mn0 O4 1.940787 1_545
Mn0 O2 1.940787 1_554
Mn0 O0 2.002163 1_555
Mn0 O1 2.002163 1_544
Mn0 O12 2.210399 1_544
Mn0 O13 2.210399 1_555
Mn1 O3 1.940787 1_545
Mn1 O5 1.940787 1_454
Mn1 O0 2.002163 1_455
Mn1 O1 2.002163 1_544
Mn1 O12 2.210399 1_444
Mn1 O13 2.210399 1_555
H0 O0 1.012297 1_555
H0 O10 1.630672 1_554
H1 O1 1.012297 1_555
H1 O11 1.630672 1_556
O2 V0 1.790761 1_545
O2 Pb1 2.764858 1_555
O3 V1 1.790761 1_565
O3 Pb0 2.764858 1_455
O4 V1 1.790761 1_565
O4 Pb0 2.764858 1_555
O5 V0 1.790761 1_545
O5 Pb1 2.764858 1_655
O6 V0 1.693876 1_545
O6 Pb2 2.529243 1_555
O7 V1 1.693876 1_565
O7 Pb3 2.529243 1_555
O8 V0 1.723396 1_555
O8 Pb0 2.531286 1_555
O9 V1 1.723396 1_555
O9 Pb1 2.531286 1_555
O10 V2 1.716466 1_555
O10 Pb0 2.673721 1_556
O11 V3 1.716466 1_555
O11 Pb1 2.673721 1_554
O12 V2 1.761397 1_555
O13 V3 1.761397 1_555
O14 V2 1.765336 1_555
O14 Pb1 2.526171 1_555
O14 Pb3 2.632357 1_555
O14 Pb2 2.735501 1_555
O15 V3 1.765336 1_555
O15 Pb0 2.526171 1_455
O15 Pb2 2.632357 1_455
O15 Pb3 2.735501 1_555
O16 V3 1.765336 1_555
O16 Pb0 2.526171 1_555
O16 Pb2 2.632357 1_555
O16 Pb3 2.735501 1_555
O17 V2 1.765336 1_555
O17 Pb1 2.526171 1_655
O17 Pb3 2.632357 1_655
O17 Pb2 2.735501 1_555
