# generated using pymatgen
data_Er2Te3
_symmetry_space_group_name_H-M   'P 1'
_cell_length_a   7.48552167
_cell_length_b   7.48552065
_cell_length_c   13.66852011
_cell_angle_alpha   100.56944804
_cell_angle_beta   100.56944956
_cell_angle_gamma   109.28772816
_symmetry_Int_Tables_number   1
_chemical_formula_structural   Er2Te3
_chemical_formula_sum   'Er8 Te12'
_cell_volume   685.62028699
_cell_formula_units_Z   4
loop_
 _symmetry_equiv_pos_site_id
 _symmetry_equiv_pos_as_xyz
  1  'x, y, z'
loop_
 _atom_site_type_symbol
 _atom_site_label
 _atom_site_symmetry_multiplicity
 _atom_site_fract_x
 _atom_site_fract_y
 _atom_site_fract_z
 _atom_site_occupancy
  Er  Er0  1  0.37573246  0.12557958  0.25146321  1
  Er  Er1  1  0.87442042  0.62426754  0.24853679  1
  Er  Er2  1  0.62426754  0.87442042  0.74853679  1
  Er  Er3  1  0.12557958  0.37573246  0.75146321  1
  Er  Er4  1  0.04191230  0.79218641  0.58397262  1
  Er  Er5  1  0.20781359  0.95808770  0.91602738  1
  Er  Er6  1  0.95808770  0.20781359  0.41602738  1
  Er  Er7  1  0.79218641  0.04191230  0.08397262  1
  Te  Te0  1  0.54100243  0.28903873  0.08505968  1
  Te  Te1  1  0.20498105  0.95614567  0.41523809  1
  Te  Te2  1  0.71096127  0.45899757  0.41494032  1
  Te  Te3  1  0.04385433  0.79501895  0.08476191  1
  Te  Te4  1  0.45899757  0.71096127  0.91494032  1
  Te  Te5  1  0.79501895  0.04385433  0.58476191  1
  Te  Te6  1  0.28903873  0.54100243  0.58505968  1
  Te  Te7  1  0.95614567  0.20498105  0.91523809  1
  Te  Te8  1  0.62531951  0.87521178  0.24994004  1
  Te  Te9  1  0.12478822  0.37468049  0.25005996  1
  Te  Te10  1  0.37468049  0.12478822  0.75005996  1
  Te  Te11  1  0.87521178  0.62531951  0.74994004  1
loop_
_geom_bond_atom_site_label_1
_geom_bond_atom_site_label_2
_geom_bond_distance
_geom_bond_site_symmetry_2
Er0 Te0 3.042066 1_555
Er0 Te1 3.045280 1_545
Er0 Te2 3.046077 1_555
Er0 Te3 3.046359 1_545
Er0 Te8 3.052277 1_545
Er0 Te9 3.052818 1_555
Er1 Te2 3.042066 1_555
Er1 Te3 3.045280 1_655
Er1 Te0 3.046077 1_555
Er1 Te1 3.046359 1_655
Er1 Te9 3.052277 1_655
Er1 Te8 3.052818 1_555
Er2 Te4 3.042066 1_555
Er2 Te5 3.045280 1_565
Er2 Te6 3.046077 1_555
Er2 Te7 3.046359 1_565
Er2 Te10 3.052277 1_565
Er2 Te11 3.052818 1_555
Er3 Te6 3.042066 1_555
Er3 Te7 3.045280 1_455
Er3 Te4 3.046077 1_555
Er3 Te5 3.046359 1_455
Er3 Te11 3.052277 1_455
Er3 Te10 3.052818 1_555
Er4 Te6 3.042286 1_555
Er4 Te5 3.043770 1_465
Er4 Te11 3.051532 1_455
Er4 Te10 3.051570 1_565
Er4 Te1 3.065467 1_555
Er4 Te2 3.065978 1_455
Er5 Te4 3.042286 1_555
Er5 Te7 3.043770 1_465
Er5 Te10 3.051532 1_565
Er5 Te11 3.051570 1_455
Er5 Te3 3.065467 1_556
Er5 Te0 3.065978 1_566
Er6 Te2 3.042286 1_555
Er6 Te1 3.043770 1_645
Er6 Te9 3.051532 1_655
Er6 Te8 3.051570 1_545
Er6 Te5 3.065467 1_555
Er6 Te6 3.065978 1_655
Er7 Te0 3.042286 1_555
Er7 Te3 3.043770 1_645
Er7 Te8 3.051532 1_545
Er7 Te9 3.051570 1_655
Er7 Te7 3.065467 1_554
Er7 Te4 3.065978 1_544
