# generated using pymatgen
data_Ca4RhN4
_symmetry_space_group_name_H-M   'P 1'
_cell_length_a   6.12541010
_cell_length_b   5.99772573
_cell_length_c   8.70026797
_cell_angle_alpha   67.58569055
_cell_angle_beta   77.92344118
_cell_angle_gamma   70.13069437
_symmetry_Int_Tables_number   1
_chemical_formula_structural   Ca4RhN4
_chemical_formula_sum   'Ca8 Rh2 N8'
_cell_volume   276.72879718
_cell_formula_units_Z   2
loop_
 _symmetry_equiv_pos_site_id
 _symmetry_equiv_pos_as_xyz
  1  'x, y, z'
loop_
 _atom_site_type_symbol
 _atom_site_label
 _atom_site_symmetry_multiplicity
 _atom_site_fract_x
 _atom_site_fract_y
 _atom_site_fract_z
 _atom_site_occupancy
  Ca  Ca0  1  0.78788211  0.58418078  0.15488697  1
  Ca  Ca1  1  0.21211789  0.41581922  0.84511303  1
  Ca  Ca2  1  0.72045128  0.21247874  0.98656167  1
  Ca  Ca3  1  0.27954872  0.78752126  0.01343833  1
  Ca  Ca4  1  0.73161593  0.48102089  0.57223131  1
  Ca  Ca5  1  0.26838407  0.51897911  0.42776869  1
  Ca  Ca6  1  0.21516408  0.95526959  0.62049200  1
  Ca  Ca7  1  0.78483592  0.04473041  0.37950800  1
  Rh  Rh0  1  0.71111477  0.85297150  0.75888761  1
  Rh  Rh1  1  0.28888523  0.14702850  0.24111239  1
  N  N0  1  0.98393896  0.67933908  0.61716057  1
  N  N1  1  0.01606104  0.32066092  0.38283943  1
  N  N2  1  0.94762868  0.85230751  0.88646274  1
  N  N3  1  0.05237132  0.14769249  0.11353726  1
  N  N4  1  0.51038016  0.61953976  0.79424142  1
  N  N5  1  0.48961984  0.38046024  0.20575858  1
  N  N6  1  0.52965966  0.83533052  0.32488843  1
  N  N7  1  0.47034034  0.16466948  0.67511157  1
loop_
_geom_bond_atom_site_label_1
_geom_bond_atom_site_label_2
_geom_bond_distance
_geom_bond_site_symmetry_2
Ca0 N1 2.377540 1_655
Ca0 N5 2.406936 1_555
Ca0 N6 2.461509 1_555
Ca0 N2 2.499393 1_554
Ca0 N3 2.683105 1_655
Ca1 N0 2.377540 1_455
Ca1 N4 2.406936 1_555
Ca1 N7 2.461509 1_555
Ca1 N3 2.499393 1_556
Ca1 N2 2.683105 1_455
Ca2 N3 2.362317 1_656
Ca2 N5 2.453532 1_556
Ca2 N4 2.462977 1_555
Ca2 N2 2.499117 1_545
Ca3 N2 2.362317 1_454
Ca3 N4 2.453532 1_554
Ca3 N5 2.462977 1_555
Ca3 N3 2.499117 1_565
Ca4 N1 2.354585 1_655
Ca4 N4 2.370809 1_555
Ca4 N0 2.411115 1_555
Ca4 N6 2.552773 1_555
Ca4 N7 2.670616 1_555
Ca5 N0 2.354585 1_455
Ca5 N5 2.370809 1_555
Ca5 N1 2.411115 1_555
Ca5 N7 2.552773 1_555
Ca5 N6 2.670616 1_555
Ca6 N4 2.440734 1_555
Ca6 N7 2.519259 1_565
Ca6 N1 2.519539 1_565
Ca6 N0 2.528409 1_455
Ca6 N2 2.536328 1_455
Ca7 N5 2.440734 1_555
Ca7 N6 2.519259 1_545
Ca7 N0 2.519539 1_545
Ca7 N1 2.528409 1_655
Ca7 N3 2.536328 1_655
N0 Rh0 2.081285 1_555
N1 Rh1 2.081285 1_555
N2 Rh0 1.999100 1_555
N3 Rh1 1.999100 1_555
N4 Rh0 2.061594 1_555
N5 Rh1 2.061594 1_555
N6 Rh1 1.933350 1_565
N7 Rh0 1.933350 1_545
