# generated using pymatgen
data_CsCuS4
_symmetry_space_group_name_H-M   'P 1'
_cell_length_a   5.23299828
_cell_length_b   8.93368380
_cell_length_c   13.75770196
_cell_angle_alpha   90.00000000
_cell_angle_beta   90.00000000
_cell_angle_gamma   90.00000000
_symmetry_Int_Tables_number   1
_chemical_formula_structural   CsCuS4
_chemical_formula_sum   'Cs4 Cu4 S16'
_cell_volume   643.17190570
_cell_formula_units_Z   4
loop_
 _symmetry_equiv_pos_site_id
 _symmetry_equiv_pos_as_xyz
  1  'x, y, z'
loop_
 _atom_site_type_symbol
 _atom_site_label
 _atom_site_symmetry_multiplicity
 _atom_site_fract_x
 _atom_site_fract_y
 _atom_site_fract_z
 _atom_site_occupancy
  Cs  Cs0  1  0.32558972  0.57948544  0.16323137  1
  Cs  Cs1  1  0.82558972  0.92051456  0.83676863  1
  Cs  Cs2  1  0.67441028  0.07948544  0.33676863  1
  Cs  Cs3  1  0.17441028  0.42051456  0.66323137  1
  Cu  Cu0  1  0.46524895  0.64402912  0.43856393  1
  Cu  Cu1  1  0.96524895  0.85597088  0.56143607  1
  Cu  Cu2  1  0.53475105  0.14402912  0.06143607  1
  Cu  Cu3  1  0.03475105  0.35597088  0.93856393  1
  S  S0  1  0.06366968  0.93841312  0.07601728  1
  S  S1  1  0.56366968  0.56158688  0.92398272  1
  S  S2  1  0.93633032  0.43841312  0.42398272  1
  S  S3  1  0.43633032  0.06158688  0.57601728  1
  S  S4  1  0.11778821  0.79189105  0.40965426  1
  S  S5  1  0.61778821  0.70810895  0.59034574  1
  S  S6  1  0.88221179  0.29189105  0.09034574  1
  S  S7  1  0.38221179  0.20810895  0.90965426  1
  S  S8  1  0.34939256  0.85787681  0.64741967  1
  S  S9  1  0.84939256  0.64212319  0.35258033  1
  S  S10  1  0.65060744  0.35787681  0.85258033  1
  S  S11  1  0.15060744  0.14212319  0.14741967  1
  S  S12  1  0.18080549  0.59053814  0.90207872  1
  S  S13  1  0.68080549  0.90946186  0.09792128  1
  S  S14  1  0.81919451  0.09053814  0.59792128  1
  S  S15  1  0.31919451  0.40946186  0.40207872  1
loop_
_geom_bond_atom_site_label_1
_geom_bond_atom_site_label_2
_geom_bond_distance
_geom_bond_site_symmetry_2
Cs0 S1 3.523040 1_554
Cs0 S13 3.598996 1_555
Cs0 S6 3.604162 1_455
Cs0 S15 3.620224 1_555
Cs0 S9 3.648144 1_455
Cs0 S12 3.673205 1_554
Cs0 S0 3.687850 1_555
Cs0 S9 3.822643 1_555
Cs0 S6 4.011370 1_555
Cs1 S0 3.523040 1_656
Cs1 S12 3.598996 1_655
Cs1 S7 3.604162 1_565
Cs1 S14 3.620224 1_565
Cs1 S8 3.648144 1_555
Cs1 S13 3.673205 1_556
Cs1 S1 3.687850 1_555
Cs1 S8 3.822643 1_655
Cs1 S7 4.011370 1_665
Cs2 S3 3.523040 1_555
Cs2 S15 3.598996 1_555
Cs2 S4 3.604162 1_645
Cs2 S13 3.620224 1_545
Cs2 S11 3.648144 1_655
Cs2 S14 3.673205 1_555
Cs2 S2 3.687850 1_555
Cs2 S11 3.822643 1_555
Cs2 S4 4.011370 1_545
Cs3 S2 3.523040 1_455
Cs3 S14 3.598996 1_455
Cs3 S5 3.604162 1_555
Cs3 S12 3.620224 1_555
Cs3 S10 3.648144 1_555
Cs3 S15 3.673205 1_555
Cs3 S3 3.687850 1_555
Cs3 S10 3.822643 1_455
Cs3 S5 4.011370 1_455
Cu0 S4 2.282362 1_555
Cu0 S15 2.286360 1_555
Cu0 S5 2.307673 1_555
Cu0 S9 2.332515 1_555
Cu1 S5 2.282362 1_555
Cu1 S14 2.286360 1_565
Cu1 S4 2.307673 1_655
Cu1 S8 2.332515 1_655
Cu2 S6 2.282362 1_555
Cu2 S13 2.286360 1_545
Cu2 S7 2.307673 1_554
Cu2 S11 2.332515 1_555
Cu3 S7 2.282362 1_555
Cu3 S12 2.286360 1_555
Cu3 S6 2.307673 1_456
Cu3 S10 2.332515 1_455
S0 S13 2.042506 1_455
S0 S11 2.117527 1_565
S1 S12 2.042506 1_555
S1 S10 2.117527 1_555
S2 S9 2.117527 1_555
S3 S8 2.117527 1_545
S14 S3 2.042506 1_555
S15 S2 2.042506 1_455
