# generated using pymatgen
data_LiPr2Ta2Cl2O7
_symmetry_space_group_name_H-M   'P 1'
_cell_length_a   4.05484241
_cell_length_b   7.03677210
_cell_length_c   8.06710178
_cell_angle_alpha   113.47418758
_cell_angle_beta   104.54987406
_cell_angle_gamma   90.00531924
_symmetry_Int_Tables_number   1
_chemical_formula_structural   LiPr2Ta2Cl2O7
_chemical_formula_sum   'Li1 Pr2 Ta2 Cl2 O7'
_cell_volume   203.05318702
_cell_formula_units_Z   1
loop_
 _symmetry_equiv_pos_site_id
 _symmetry_equiv_pos_as_xyz
  1  'x, y, z'
loop_
 _atom_site_type_symbol
 _atom_site_label
 _atom_site_symmetry_multiplicity
 _atom_site_fract_x
 _atom_site_fract_y
 _atom_site_fract_z
 _atom_site_occupancy
  Li  Li0  1  0.50000000  0.50000000  0.00000000  1
  Pr  Pr0  1  0.30943300  0.84483600  0.61896000  1
  Pr  Pr1  1  0.69056700  0.15516400  0.38104000  1
  Ta  Ta0  1  0.96455800  0.19231500  0.92928700  1
  Ta  Ta1  1  0.03544200  0.80768500  0.07071300  1
  Cl  Cl0  1  0.67920700  0.56302700  0.35840400  1
  Cl  Cl1  1  0.32079300  0.43697300  0.64159600  1
  O  O0  1  0.45808500  0.18575200  0.91635800  1
  O  O1  1  0.54191400  0.81424800  0.08364200  1
  O  O2  1  0.91862300  0.85067300  0.83731000  1
  O  O3  1  0.00000000  0.50000000  0.00000000  1
  O  O4  1  0.82341700  0.06724900  0.64702300  1
  O  O5  1  0.08137700  0.14932700  0.16269000  1
  O  O6  1  0.17658300  0.93275100  0.35297700  1
loop_
_geom_bond_atom_site_label_1
_geom_bond_atom_site_label_2
_geom_bond_distance
_geom_bond_site_symmetry_2
Li0 O3 2.027421 1_655
Li0 O3 2.027421 1_555
Li0 O1 2.031651 1_555
Li0 O0 2.031651 1_554
Cl0 Li0 2.647070 1_555
Cl0 Pr1 2.947188 1_555
Cl0 Pr0 2.976653 1_655
Cl0 Pr0 2.976913 1_555
Cl1 Li0 2.647070 1_556
Cl1 Pr0 2.947188 1_555
Cl1 Pr1 2.976653 1_455
Cl1 Pr1 2.976913 1_555
O0 Ta0 2.029473 1_455
O0 Ta0 2.029553 1_555
O0 Pr0 2.561662 1_545
O1 Ta1 2.029477 1_655
O1 Ta1 2.029549 1_555
O1 Pr1 2.561662 1_565
O2 Ta1 1.966417 1_656
O2 Ta0 2.207740 1_565
O2 Pr0 2.638266 1_655
O2 Pr0 2.638616 1_555
O3 Ta0 2.002138 1_454
O3 Ta1 2.002138 1_555
O4 Ta0 2.008895 1_555
O4 Pr1 2.398707 1_555
O4 Pr0 2.514822 1_545
O4 Pr0 2.515331 1_645
O5 Ta0 1.966417 1_454
O5 Ta1 2.207740 1_545
O5 Pr1 2.638266 1_455
O5 Pr1 2.638616 1_555
O6 Ta1 2.008895 1_555
O6 Pr0 2.398707 1_555
O6 Pr1 2.514822 1_565
O6 Pr1 2.515331 1_465
