# generated using pymatgen
data_Ca3Sc3N5
_symmetry_space_group_name_H-M   'P 1'
_cell_length_a   6.19320131
_cell_length_b   7.38138260
_cell_length_c   8.79176584
_cell_angle_alpha   106.14223837
_cell_angle_beta   108.57166776
_cell_angle_gamma   97.31667392
_symmetry_Int_Tables_number   1
_chemical_formula_structural   Ca3Sc3N5
_chemical_formula_sum   'Ca6 Sc6 N10'
_cell_volume   355.52461317
_cell_formula_units_Z   2
loop_
 _symmetry_equiv_pos_site_id
 _symmetry_equiv_pos_as_xyz
  1  'x, y, z'
loop_
 _atom_site_type_symbol
 _atom_site_label
 _atom_site_symmetry_multiplicity
 _atom_site_fract_x
 _atom_site_fract_y
 _atom_site_fract_z
 _atom_site_occupancy
  Ca  Ca0  1  0.79695500  0.43504500  0.58919500  1
  Ca  Ca1  1  0.20304500  0.56495500  0.41080500  1
  Ca  Ca2  1  0.68580500  0.84248100  0.88838000  1
  Ca  Ca3  1  0.31419500  0.15751900  0.11162000  1
  Ca  Ca4  1  0.65529000  0.60542900  0.19801900  1
  Ca  Ca5  1  0.34471000  0.39457100  0.80198100  1
  Sc  Sc0  1  0.88336400  0.30399600  0.95959500  1
  Sc  Sc1  1  0.11663600  0.69600400  0.04040500  1
  Sc  Sc2  1  0.72981600  0.95426200  0.56757100  1
  Sc  Sc3  1  0.27018400  0.04573800  0.43242900  1
  Sc  Sc4  1  0.16923200  0.86290300  0.72236900  1
  Sc  Sc5  1  0.83076800  0.13709700  0.27763100  1
  N  N0  1  0.99845800  0.07686400  0.81511000  1
  N  N1  1  0.00154200  0.92313600  0.18489000  1
  N  N2  1  0.86561800  0.70580000  0.49888400  1
  N  N3  1  0.13438200  0.29420000  0.50111600  1
  N  N4  1  0.77513300  0.52098600  0.86448500  1
  N  N5  1  0.22486700  0.47901400  0.13551500  1
  N  N6  1  0.41965000  0.89886300  0.61010700  1
  N  N7  1  0.58035000  0.10113700  0.38989300  1
  N  N8  1  0.31892600  0.73543900  0.90028600  1
  N  N9  1  0.68107400  0.26456100  0.09971400  1
loop_
_geom_bond_atom_site_label_1
_geom_bond_atom_site_label_2
_geom_bond_distance
_geom_bond_site_symmetry_2
Ca0 N4 2.378011 1_555
Ca0 N2 2.384617 1_555
Ca0 N7 2.490740 1_555
Ca0 N3 2.680309 1_655
Ca1 N5 2.378011 1_555
Ca1 N3 2.384617 1_555
Ca1 N6 2.490740 1_555
Ca1 N2 2.680309 1_455
Ca2 N8 2.353328 1_555
Ca2 N4 2.472429 1_555
Ca2 N1 2.562669 1_656
Ca2 N6 2.654771 1_555
Ca2 N0 2.778202 1_565
Ca3 N9 2.353328 1_555
Ca3 N5 2.472429 1_555
Ca3 N0 2.562669 1_454
Ca3 N7 2.654771 1_555
Ca3 N1 2.778202 1_545
Ca4 N2 2.390011 1_555
Ca4 N9 2.466616 1_555
Ca4 N5 2.535124 1_555
Ca4 N1 3.023024 1_655
Ca5 N3 2.390011 1_555
Ca5 N8 2.466616 1_555
Ca5 N4 2.535124 1_555
Ca5 N0 3.023024 1_455
N0 Sc4 2.129884 1_645
N0 Sc2 2.130334 1_545
N0 Sc0 2.151615 1_555
N1 Sc5 2.129884 1_465
N1 Sc3 2.130334 1_565
N1 Sc1 2.151615 1_555
N2 Sc2 2.129821 1_555
N2 Sc4 2.136657 1_655
N3 Sc3 2.129821 1_555
N3 Sc5 2.136657 1_455
N4 Sc0 2.091661 1_555
N4 Sc1 2.154913 1_656
N5 Sc1 2.091661 1_555
N5 Sc0 2.154913 1_454
N6 Sc2 2.083157 1_555
N6 Sc4 2.113218 1_555
N6 Sc3 2.179134 1_565
N7 Sc3 2.083157 1_555
N7 Sc5 2.113218 1_555
N7 Sc2 2.179134 1_545
N8 Sc1 2.064326 1_556
N8 Sc4 2.075626 1_555
N9 Sc0 2.064326 1_554
N9 Sc5 2.075626 1_555
