# generated using pymatgen
data_Li7Co5O12
_symmetry_space_group_name_H-M   'P 1'
_cell_length_a   4.95363608
_cell_length_b   9.72310092
_cell_length_c   8.73040115
_cell_angle_alpha   90.60671727
_cell_angle_beta   89.25881820
_cell_angle_gamma   100.29607617
_symmetry_Int_Tables_number   1
_chemical_formula_structural   Li7Co5O12
_chemical_formula_sum   'Li14 Co10 O24'
_cell_volume   413.67677768
_cell_formula_units_Z   2
loop_
 _symmetry_equiv_pos_site_id
 _symmetry_equiv_pos_as_xyz
  1  'x, y, z'
loop_
 _atom_site_type_symbol
 _atom_site_label
 _atom_site_symmetry_multiplicity
 _atom_site_fract_x
 _atom_site_fract_y
 _atom_site_fract_z
 _atom_site_occupancy
  Li  Li0  1  0.50008000  0.49996800  0.33341300  1
  Li  Li1  1  0.49926000  0.99999500  0.83383000  1
  Li  Li2  1  0.25131000  0.24607000  0.83265600  1
  Li  Li3  1  0.25779500  0.75270200  0.33132100  1
  Li  Li4  1  0.74949300  0.75329000  0.83292200  1
  Li  Li5  1  0.74287100  0.24726400  0.33332100  1
  Li  Li6  1  0.24915500  0.75414100  0.99863500  1
  Li  Li7  1  0.24817500  0.25516800  0.49871100  1
  Li  Li8  1  0.24962900  0.25468800  0.16707200  1
  Li  Li9  1  0.25057900  0.75456900  0.66898800  1
  Li  Li10  1  0.75076400  0.24551300  0.99818500  1
  Li  Li11  1  0.75026400  0.74432900  0.49920700  1
  Li  Li12  1  0.75081800  0.74530600  0.16873400  1
  Li  Li13  1  0.74822000  0.24613100  0.66838800  1
  Co  Co0  1  0.00008200  0.50004900  0.83323300  1
  Co  Co1  1  0.00579400  0.00139600  0.99387300  1
  Co  Co2  1  0.99418600  0.99930800  0.67300800  1
  Co  Co3  1  0.50041200  0.99884700  0.50995300  1
  Co  Co4  1  0.50005000  0.00122600  0.15763500  1
  Co  Co5  1  0.99917600  0.99887800  0.33346800  1
  Co  Co6  1  0.00219700  0.50011800  0.49471000  1
  Co  Co7  1  0.99842700  0.49982800  0.17192800  1
  Co  Co8  1  0.49928600  0.50018400  0.99858900  1
  Co  Co9  1  0.50104000  0.49974100  0.66774300  1
  O  O0  1  0.36957300  0.60476700  0.83446800  1
  O  O1  1  0.36605400  0.10995200  0.32401100  1
  O  O2  1  0.63091000  0.39545500  0.83217200  1
  O  O3  1  0.63617800  0.88786000  0.34282100  1
  O  O4  1  0.90134200  0.62450100  0.33466700  1
  O  O5  1  0.89239800  0.10972500  0.83036400  1
  O  O6  1  0.09898700  0.37547300  0.33227800  1
  O  O7  1  0.10607900  0.89059800  0.83656000  1
  O  O8  1  0.34516800  0.11684800  0.00024900  1
  O  O9  1  0.37409700  0.61099600  0.52302900  1
  O  O10  1  0.37150000  0.61220200  0.14607700  1
  O  O11  1  0.35449900  0.11150800  0.65564400  1
  O  O12  1  0.64390300  0.88963100  0.01103200  1
  O  O13  1  0.62765400  0.38778400  0.52057100  1
  O  O14  1  0.62630300  0.38911800  0.14400900  1
  O  O15  1  0.65434500  0.88359900  0.66516000  1
  O  O16  1  0.86130500  0.61031500  0.99195000  1
  O  O17  1  0.86466800  0.10977900  0.51394800  1
  O  O18  1  0.86444100  0.60932300  0.67670900  1
  O  O19  1  0.86683100  0.11094900  0.15359900  1
  O  O20  1  0.13624000  0.39082300  0.98971800  1
  O  O21  1  0.13486300  0.88973600  0.51396100  1
  O  O22  1  0.13844100  0.38993200  0.67468500  1
  O  O23  1  0.13515700  0.89041700  0.15279600  1
loop_
_geom_bond_atom_site_label_1
_geom_bond_atom_site_label_2
_geom_bond_distance
_geom_bond_site_symmetry_2
Li0 O14 2.112660 1_555
Li0 O9 2.114604 1_555
Li0 O6 2.133898 1_555
Li0 O4 2.134752 1_555
Li0 O13 2.137726 1_555
Li0 O10 2.141186 1_555
Li1 O7 2.045528 1_555
Li1 O5 2.046522 1_565
Li1 O8 2.056901 1_566
Li1 O15 2.070183 1_555
Li1 O12 2.096883 1_556
Li1 O11 2.110058 1_565
Li2 O5 2.019078 1_455
Li2 O8 2.049629 1_556
Li2 O20 2.100416 1_555
Li2 O22 2.124061 1_555
Li2 O11 2.130052 1_555
Li2 O2 2.160838 1_555
Li3 O4 1.971070 1_455
Li3 O3 2.090909 1_555
Li3 O21 2.215521 1_555
Li3 O23 2.225023 1_555
Li3 O10 2.236892 1_555
Li3 O9 2.321438 1_555
Li4 O7 2.015218 1_655
Li4 O15 2.059910 1_555
Li4 O18 2.089987 1_555
Li4 O16 2.122011 1_555
Li4 O12 2.152222 1_556
Li4 O0 2.157711 1_555
Li5 O6 1.969703 1_655
Li5 O1 2.093828 1_555
Li5 O19 2.194909 1_555
Li5 O17 2.235023 1_555
Li5 O13 2.252171 1_555
Li5 O14 2.307620 1_555
Li6 O23 2.023868 1_556
Li6 O10 2.070191 1_556
Li6 O12 2.156975 1_556
Li6 O7 2.160255 1_555
Li6 O16 2.165879 1_455
Li6 O0 2.182408 1_555
Li7 O13 2.090533 1_555
Li7 O6 2.097266 1_555
Li7 O11 2.104243 1_555
Li7 O22 2.136141 1_555
Li7 O17 2.159296 1_455
Li7 O1 2.210632 1_555
Li8 O6 2.065408 1_555
Li8 O8 2.075804 1_555
Li8 O14 2.086773 1_555
Li8 O1 2.131138 1_555
Li8 O19 2.148897 1_455
Li8 O20 2.190134 1_554
Li9 O9 2.048023 1_555
Li9 O21 2.052966 1_555
Li9 O7 2.161561 1_555
Li9 O15 2.162793 1_555
Li9 O18 2.165818 1_455
Li9 O0 2.220281 1_555
Li10 O14 2.049462 1_556
Li10 O19 2.051852 1_556
Li10 O5 2.155366 1_555
Li10 O20 2.163798 1_655
Li10 O8 2.168686 1_556
Li10 O2 2.225993 1_555
Li11 O4 2.056576 1_555
Li11 O9 2.080459 1_555
Li11 O15 2.080677 1_555
Li11 O3 2.115021 1_555
Li11 O21 2.164423 1_655
Li11 O18 2.185321 1_555
Li12 O10 2.092749 1_555
Li12 O4 2.100321 1_555
Li12 O12 2.114414 1_555
Li12 O16 2.143921 1_554
Li12 O23 2.161453 1_655
Li12 O3 2.183586 1_555
Li13 O17 2.030707 1_555
Li13 O13 2.066566 1_555
Li13 O11 2.149312 1_555
Li13 O5 2.161785 1_555
Li13 O2 2.174036 1_555
Li13 O22 2.174737 1_655
Co0 O2 1.927188 1_455
Co0 O0 1.928988 1_555
Co0 O22 1.933511 1_555
Co0 O16 1.936355 1_455
Co0 O18 1.938404 1_455
Co0 O20 1.939036 1_555
Co1 O8 1.848224 1_556
Co1 O7 1.853626 1_545
Co1 O12 1.927995 1_446
Co1 O5 1.930493 1_455
Co1 O19 1.938781 1_456
Co1 O23 1.949861 1_546
Co2 O15 1.851688 1_555
Co2 O5 1.854312 1_565
Co2 O11 1.923353 1_665
Co2 O7 1.930068 1_655
Co2 O21 1.938488 1_655
Co2 O17 1.948005 1_565
Co3 O11 1.889430 1_565
Co3 O21 1.928247 1_555
Co3 O17 1.930167 1_565
Co3 O3 1.986606 1_555
Co3 O15 2.009361 1_555
Co3 O1 2.137138 1_565
Co4 O12 1.883259 1_545
Co4 O23 1.932529 1_545
Co4 O19 1.935657 1_555
Co4 O1 1.965039 1_555
Co4 O8 2.027013 1_555
Co4 O3 2.148311 1_545
Co5 O3 1.925994 1_555
Co5 O1 1.942277 1_665
Co5 O23 2.060361 1_655
Co5 O17 2.069565 1_565
Co5 O21 2.092554 1_655
Co5 O19 2.097944 1_565
Co6 O6 1.965553 1_555
Co6 O9 1.978246 1_555
Co6 O4 1.983515 1_455
Co6 O13 1.989034 1_455
Co6 O18 2.076780 1_455
Co6 O22 2.096111 1_555
Co7 O4 1.968143 1_555
Co7 O14 1.978103 1_555
Co7 O10 1.983111 1_655
Co7 O6 1.984710 1_655
Co7 O20 2.077196 1_654
Co7 O16 2.099663 1_554
Co8 O10 1.854893 1_556
Co8 O14 1.861853 1_556
Co8 O16 1.917848 1_555
Co8 O20 1.920722 1_555
Co8 O2 1.937633 1_555
Co8 O0 1.946324 1_555
Co9 O13 1.850094 1_555
Co9 O9 1.858619 1_555
Co9 O22 1.919091 1_555
Co9 O18 1.923064 1_555
Co9 O0 1.940965 1_555
Co9 O2 1.946969 1_555
