# generated using pymatgen
data_CsCd(PO3)3
_symmetry_space_group_name_H-M   'P 1'
_cell_length_a   7.63968500
_cell_length_b   9.73414700
_cell_length_c   12.86743200
_cell_angle_alpha   90.00000000
_cell_angle_beta   90.00000000
_cell_angle_gamma   90.00000000
_symmetry_Int_Tables_number   1
_chemical_formula_structural   CsCd(PO3)3
_chemical_formula_sum   'Cs4 Cd4 P12 O36'
_cell_volume   956.89709110
_cell_formula_units_Z   4
loop_
 _symmetry_equiv_pos_site_id
 _symmetry_equiv_pos_as_xyz
  1  'x, y, z'
loop_
 _atom_site_type_symbol
 _atom_site_label
 _atom_site_symmetry_multiplicity
 _atom_site_fract_x
 _atom_site_fract_y
 _atom_site_fract_z
 _atom_site_occupancy
  Cs  Cs0  1  0.75000000  0.38593300  0.41709100  1
  Cs  Cs1  1  0.25000000  0.61406700  0.58290900  1
  Cs  Cs2  1  0.75000000  0.88593300  0.08290900  1
  Cs  Cs3  1  0.25000000  0.11406700  0.91709100  1
  Cd  Cd0  1  0.75000000  0.01429000  0.77678600  1
  Cd  Cd1  1  0.25000000  0.98571000  0.22321400  1
  Cd  Cd2  1  0.75000000  0.51429000  0.72321400  1
  Cd  Cd3  1  0.25000000  0.48571000  0.27678600  1
  P  P0  1  0.25000000  0.70407100  0.04095100  1
  P  P1  1  0.75000000  0.29592900  0.95904900  1
  P  P2  1  0.25000000  0.20407100  0.45904900  1
  P  P3  1  0.75000000  0.79592900  0.54095100  1
  P  P4  1  0.55287100  0.25261100  0.14971600  1
  P  P5  1  0.05287100  0.74738900  0.85028400  1
  P  P6  1  0.94712900  0.75261100  0.35028400  1
  P  P7  1  0.44712900  0.24738900  0.64971600  1
  P  P8  1  0.44712900  0.74738900  0.85028400  1
  P  P9  1  0.94712900  0.25261100  0.14971600  1
  P  P10  1  0.05287100  0.24738900  0.64971600  1
  P  P11  1  0.55287100  0.75261100  0.35028400  1
  O  O0  1  0.25000000  0.85384700  0.07011500  1
  O  O1  1  0.75000000  0.14615300  0.92988500  1
  O  O2  1  0.25000000  0.35384700  0.42988500  1
  O  O3  1  0.75000000  0.64615300  0.57011500  1
  O  O4  1  0.25000000  0.59421500  0.12088800  1
  O  O5  1  0.75000000  0.40578500  0.87911200  1
  O  O6  1  0.25000000  0.09421500  0.37911200  1
  O  O7  1  0.75000000  0.90578500  0.62088800  1
  O  O8  1  0.48939400  0.35861600  0.22500500  1
  O  O9  1  0.98939400  0.64138400  0.77499500  1
  O  O10  1  0.01060600  0.85861600  0.27499500  1
  O  O11  1  0.51060600  0.14138400  0.72500500  1
  O  O12  1  0.51060600  0.64138400  0.77499500  1
  O  O13  1  0.01060600  0.35861600  0.22500500  1
  O  O14  1  0.98939400  0.14138400  0.72500500  1
  O  O15  1  0.48939400  0.85861600  0.27499500  1
  O  O16  1  0.45102800  0.12240300  0.13344700  1
  O  O17  1  0.95102900  0.87759700  0.86655300  1
  O  O18  1  0.04897200  0.62240300  0.36655300  1
  O  O19  1  0.54897100  0.37759700  0.63344700  1
  O  O20  1  0.75000000  0.20635000  0.18399900  1
  O  O21  1  0.25000000  0.79365000  0.81600100  1
  O  O22  1  0.75000000  0.70635000  0.31600100  1
  O  O23  1  0.25000000  0.29365000  0.68399900  1
  O  O24  1  0.58573000  0.82514000  0.46230800  1
  O  O25  1  0.08573000  0.17486000  0.53769200  1
  O  O26  1  0.91427000  0.32514000  0.03769200  1
  O  O27  1  0.41427000  0.67486000  0.96230800  1
  O  O28  1  0.41427000  0.17486000  0.53769200  1
  O  O29  1  0.91427000  0.82514000  0.46230800  1
  O  O30  1  0.08573000  0.67486000  0.96230800  1
  O  O31  1  0.58573000  0.32514000  0.03769200  1
  O  O32  1  0.45102800  0.62240300  0.36655300  1
  O  O33  1  0.95102900  0.37759700  0.63344700  1
  O  O34  1  0.04897200  0.12240300  0.13344700  1
  O  O35  1  0.54897100  0.87759700  0.86655300  1
loop_
_geom_bond_atom_site_label_1
_geom_bond_atom_site_label_2
_geom_bond_distance
_geom_bond_site_symmetry_2
Cs0 O33 3.180506 1_555
Cs0 O19 3.180506 1_555
Cs0 O13 3.184910 1_655
Cs0 O8 3.184910 1_555
Cs0 O3 3.208310 1_555
Cs0 O18 3.307297 1_655
Cs0 O32 3.307297 1_555
Cs0 O22 3.379360 1_555
Cs0 O20 3.471539 1_555
Cs0 O28 3.634305 1_555
Cs0 O25 3.634305 1_655
Cs1 O18 3.180502 1_555
Cs1 O32 3.180502 1_555
Cs1 O9 3.184910 1_455
Cs1 O12 3.184910 1_555
Cs1 O2 3.208310 1_555
Cs1 O33 3.307292 1_455
Cs1 O19 3.307292 1_555
Cs1 O23 3.379360 1_555
Cs1 O21 3.471539 1_555
Cs1 O29 3.634305 1_455
Cs1 O24 3.634305 1_555
Cs2 O17 3.180506 1_554
Cs2 O35 3.180506 1_554
Cs2 O10 3.184910 1_655
Cs2 O15 3.184910 1_555
Cs2 O1 3.208310 1_564
Cs2 O16 3.307297 1_565
Cs2 O34 3.307297 1_665
Cs2 O20 3.379360 1_565
Cs2 O22 3.471539 1_555
Cs2 O27 3.634305 1_554
Cs2 O30 3.634305 1_654
Cs3 O16 3.180502 1_556
Cs3 O34 3.180502 1_556
Cs3 O14 3.184910 1_455
Cs3 O11 3.184910 1_555
Cs3 O0 3.208310 1_546
Cs3 O35 3.307292 1_545
Cs3 O17 3.307292 1_445
Cs3 O21 3.379360 1_545
Cs3 O23 3.471539 1_555
Cs3 O31 3.634305 1_556
Cs3 O26 3.634305 1_456
Cd0 O7 2.267075 1_545
Cd0 O14 2.306370 1_555
Cd0 O11 2.306370 1_555
Cd0 O35 2.337378 1_545
Cd0 O17 2.337378 1_545
Cd0 O1 2.351261 1_555
Cd1 O6 2.267075 1_565
Cd1 O15 2.306370 1_555
Cd1 O10 2.306370 1_555
Cd1 O34 2.337373 1_565
Cd1 O16 2.337373 1_565
Cd1 O0 2.351261 1_555
Cd2 O5 2.267075 1_555
Cd2 O9 2.306370 1_555
Cd2 O12 2.306370 1_555
Cd2 O19 2.337378 1_555
Cd2 O33 2.337378 1_555
Cd2 O3 2.351261 1_555
Cd3 O4 2.267075 1_555
Cd3 O8 2.306370 1_555
Cd3 O13 2.306370 1_555
Cd3 O32 2.337373 1_555
Cd3 O18 2.337373 1_555
Cd3 O2 2.351261 1_555
O0 P0 1.505463 1_555
O1 P1 1.505463 1_555
O2 P2 1.505463 1_555
O3 P3 1.505463 1_555
O4 P0 1.483747 1_555
O5 P1 1.483747 1_555
O6 P2 1.483747 1_555
O7 P3 1.483747 1_555
O8 P4 1.496145 1_555
O9 P5 1.496145 1_655
O10 P6 1.496145 1_455
O11 P7 1.496145 1_555
O12 P8 1.496145 1_555
O13 P9 1.496145 1_455
O14 P10 1.496145 1_655
O15 P11 1.496145 1_555
O16 P4 1.501881 1_555
O17 P5 1.501877 1_655
O18 P6 1.501881 1_455
O19 P7 1.501877 1_555
O20 P9 1.632613 1_555
O20 P4 1.632613 1_555
O21 P8 1.632613 1_555
O21 P5 1.632613 1_555
O22 P11 1.632613 1_555
O22 P6 1.632613 1_555
O23 P10 1.632613 1_555
O23 P7 1.632613 1_555
O24 P11 1.624585 1_555
O24 P3 1.637014 1_555
O25 P10 1.624585 1_555
O25 P2 1.637014 1_555
O26 P9 1.624585 1_555
O26 P1 1.637014 1_554
O27 P8 1.624585 1_555
O27 P0 1.637014 1_556
O28 P7 1.624585 1_555
O28 P2 1.637014 1_555
O29 P6 1.624585 1_555
O29 P3 1.637014 1_555
O30 P5 1.624585 1_555
O30 P0 1.637014 1_556
O31 P4 1.624585 1_555
O31 P1 1.637014 1_554
O32 P11 1.501881 1_555
O33 P10 1.501877 1_655
O34 P9 1.501881 1_455
O35 P8 1.501877 1_555
