# generated using pymatgen
data_TiFeO4
_symmetry_space_group_name_H-M   'P 1'
_cell_length_a   5.39171500
_cell_length_b   9.42888445
_cell_length_c   5.52168647
_cell_angle_alpha   91.44361373
_cell_angle_beta   90.00191970
_cell_angle_gamma   89.99877151
_symmetry_Int_Tables_number   1
_chemical_formula_structural   TiFeO4
_chemical_formula_sum   'Ti4 Fe4 O16'
_cell_volume   280.62161404
_cell_formula_units_Z   4
loop_
 _symmetry_equiv_pos_site_id
 _symmetry_equiv_pos_as_xyz
  1  'x, y, z'
loop_
 _atom_site_type_symbol
 _atom_site_label
 _atom_site_symmetry_multiplicity
 _atom_site_fract_x
 _atom_site_fract_y
 _atom_site_fract_z
 _atom_site_occupancy
  Ti  Ti0  1  0.25005600  0.99746500  0.50676100  1
  Ti  Ti1  1  0.25004500  0.49746400  0.00670000  1
  Ti  Ti2  1  0.75003100  0.25253700  0.74330000  1
  Ti  Ti3  1  0.75004100  0.75254700  0.24324200  1
  Fe  Fe0  1  0.00019700  0.50088600  0.50006900  1
  Fe  Fe1  1  0.50021400  0.74911400  0.74994300  1
  Fe  Fe2  1  0.00021400  0.00085300  0.00003800  1
  Fe  Fe3  1  0.50019300  0.24912100  0.24994300  1
  O  O0  1  0.25034900  0.10397100  0.18930700  1
  O  O1  1  0.25029600  0.60391000  0.68921200  1
  O  O2  1  0.74975800  0.35273900  0.44093600  1
  O  O3  1  0.74973200  0.85273100  0.94091000  1
  O  O4  1  0.24974100  0.89728700  0.80909600  1
  O  O5  1  0.24974400  0.39728800  0.30907900  1
  O  O6  1  0.75026900  0.14606500  0.06072400  1
  O  O7  1  0.75032800  0.64600400  0.56063400  1
  O  O8  1  0.49670600  0.14521600  0.55492100  1
  O  O9  1  0.49669900  0.64519100  0.05487500  1
  O  O10  1  0.00300300  0.40025100  0.80920000  1
  O  O11  1  0.00299700  0.90027000  0.30926100  1
  O  O12  1  0.99670500  0.60477900  0.19513300  1
  O  O13  1  0.99669700  0.10480900  0.69516400  1
  O  O14  1  0.50299700  0.84973700  0.44075800  1
  O  O15  1  0.50298900  0.34976500  0.94079500  1
loop_
_geom_bond_atom_site_label_1
_geom_bond_atom_site_label_2
_geom_bond_distance
_geom_bond_site_symmetry_2
Fe0 O7 1.943190 1_455
Fe0 O1 1.949760 1_555
Fe0 O5 1.955706 1_555
Fe0 O2 1.964230 1_455
Fe0 O12 1.969293 1_455
Fe0 O10 1.973776 1_555
Fe1 O1 1.944108 1_555
Fe1 O7 1.950708 1_555
Fe1 O3 1.955599 1_555
Fe1 O4 1.964520 1_555
Fe1 O9 1.969424 1_556
Fe1 O14 1.973981 1_555
Fe2 O6 1.944198 1_455
Fe2 O0 1.950688 1_555
Fe2 O4 1.955346 1_544
Fe2 O3 1.964219 1_444
Fe2 O13 1.969306 1_454
Fe2 O11 1.973974 1_545
Fe3 O0 1.943394 1_555
Fe3 O6 1.950059 1_555
Fe3 O2 1.955853 1_555
Fe3 O5 1.964377 1_555
Fe3 O8 1.969555 1_555
Fe3 O15 1.973902 1_554
O0 Ti0 2.042003 1_545
O1 Ti1 2.041876 1_556
O2 Ti2 1.938954 1_555
O3 Ti3 1.938713 1_556
O4 Ti0 1.938699 1_555
O5 Ti1 1.938902 1_555
O6 Ti2 2.041693 1_554
O7 Ti3 2.041884 1_555
O8 Ti0 1.939447 1_545
O8 Ti2 1.979500 1_555
O9 Ti1 1.939309 1_555
O9 Ti3 1.979694 1_555
O10 Ti1 1.937317 1_556
O10 Ti2 1.976643 1_455
O11 Ti0 1.937302 1_555
O11 Ti3 1.976753 1_455
O12 Ti3 1.939551 1_555
O12 Ti1 1.979699 1_655
O13 Ti2 1.939306 1_555
O13 Ti0 1.979821 1_645
O14 Ti3 1.937297 1_555
O14 Ti0 1.976691 1_555
O15 Ti2 1.937390 1_555
O15 Ti1 1.976420 1_556
