# generated using pymatgen
data_UCuSi2Ni
_symmetry_space_group_name_H-M   'P 1'
_cell_length_a   5.61080368
_cell_length_b   5.61080368
_cell_length_c   5.61080368
_cell_angle_alpha   138.75239745
_cell_angle_beta   138.75239745
_cell_angle_gamma   59.75259899
_symmetry_Int_Tables_number   1
_chemical_formula_structural   UCuSi2Ni
_chemical_formula_sum   'U1 Cu1 Si2 Ni1'
_cell_volume   76.00806453
_cell_formula_units_Z   1
loop_
 _symmetry_equiv_pos_site_id
 _symmetry_equiv_pos_as_xyz
  1  'x, y, z'
loop_
 _atom_site_type_symbol
 _atom_site_label
 _atom_site_symmetry_multiplicity
 _atom_site_fract_x
 _atom_site_fract_y
 _atom_site_fract_z
 _atom_site_occupancy
  U  U0  1  0.00000000  0.00000000  0.00000000  1
  Cu  Cu0  1  0.25000000  0.75000000  0.50000000  1
  Si  Si0  1  0.62030400  0.62030400  0.00000000  1
  Si  Si1  1  0.37969600  0.37969600  0.00000000  1
  Ni  Ni0  1  0.75000000  0.25000000  0.50000000  1
loop_
_geom_bond_atom_site_label_1
_geom_bond_atom_site_label_2
_geom_bond_distance
_geom_bond_site_symmetry_2
Cu0 Si1 2.344854 1_555
Cu0 Si1 2.344854 1_566
Cu0 Si0 2.344854 1_556
Cu0 Si0 2.344854 1_455
Cu0 Ni0 2.794905 1_454
Cu0 Ni0 2.794905 1_555
Cu0 Ni0 2.794905 1_566
Cu0 Ni0 2.794905 1_465
Cu0 U0 3.134191 1_566
Cu0 U0 3.134191 1_555
Cu0 U0 3.134191 1_565
Cu0 U0 3.134191 1_666
Si0 Si1 2.341185 1_555
Si0 U0 3.030145 1_655
Si0 U0 3.030145 1_565
Si0 U0 3.030145 1_554
Si0 U0 3.030145 1_666
Si1 U0 3.030145 1_655
Si1 U0 3.030145 1_565
Si1 U0 3.030145 1_666
Si1 U0 3.030145 1_554
Ni0 Si1 2.344854 1_555
Ni0 Si1 2.344854 1_656
Ni0 Si0 2.344854 1_545
Ni0 Si0 2.344854 1_556
Ni0 U0 3.134191 1_555
Ni0 U0 3.134191 1_655
Ni0 U0 3.134191 1_656
Ni0 U0 3.134191 1_666
