# generated using pymatgen
data_YMg6Cd
_symmetry_space_group_name_H-M   'P 1'
_cell_length_a   5.13266600
_cell_length_b   6.47519400
_cell_length_c   11.58471800
_cell_angle_alpha   90.00000000
_cell_angle_beta   90.00000000
_cell_angle_gamma   90.00000000
_symmetry_Int_Tables_number   1
_chemical_formula_structural   YMg6Cd
_chemical_formula_sum   'Y2 Mg12 Cd2'
_cell_volume   385.01819642
_cell_formula_units_Z   2
loop_
 _symmetry_equiv_pos_site_id
 _symmetry_equiv_pos_as_xyz
  1  'x, y, z'
loop_
 _atom_site_type_symbol
 _atom_site_label
 _atom_site_symmetry_multiplicity
 _atom_site_fract_x
 _atom_site_fract_y
 _atom_site_fract_z
 _atom_site_occupancy
  Y  Y0  1  0.50000000  0.50000000  0.66929300  1
  Y  Y1  1  0.50000000  0.00000000  0.16929300  1
  Mg  Mg0  1  0.50000000  0.74619700  0.91867700  1
  Mg  Mg1  1  0.50000000  0.25380300  0.91867700  1
  Mg  Mg2  1  0.00000000  0.24528500  0.58142300  1
  Mg  Mg3  1  0.00000000  0.75471500  0.58142300  1
  Mg  Mg4  1  0.00000000  0.50000000  0.83594200  1
  Mg  Mg5  1  0.00000000  0.00000000  0.83190000  1
  Mg  Mg6  1  0.50000000  0.24619700  0.41867700  1
  Mg  Mg7  1  0.50000000  0.75380300  0.41867700  1
  Mg  Mg8  1  0.00000000  0.74528500  0.08142300  1
  Mg  Mg9  1  0.00000000  0.25471500  0.08142300  1
  Mg  Mg10  1  0.00000000  0.00000000  0.33594200  1
  Mg  Mg11  1  0.00000000  0.50000000  0.33190000  1
  Cd  Cd0  1  0.50000000  0.00000000  0.66266100  1
  Cd  Cd1  1  0.50000000  0.50000000  0.16266100  1
loop_
_geom_bond_atom_site_label_1
_geom_bond_atom_site_label_2
_geom_bond_distance
_geom_bond_site_symmetry_2
Mg0 Mg4 3.169559 1_555
Mg0 Mg4 3.169559 1_655
Mg0 Mg8 3.184448 1_556
Mg0 Mg8 3.184448 1_656
Mg0 Mg1 3.188347 1_555
Mg0 Mg5 3.208973 1_665
Mg0 Mg5 3.208973 1_565
Mg0 Mg1 3.286847 1_565
Mg0 Y0 3.299691 1_555
Mg0 Y1 3.336178 1_566
Mg1 Mg4 3.169559 1_555
Mg1 Mg4 3.169559 1_655
Mg1 Mg9 3.184448 1_556
Mg1 Mg9 3.184448 1_656
Mg1 Mg5 3.208973 1_555
Mg1 Mg5 3.208973 1_655
Mg1 Y0 3.299691 1_555
Mg1 Y1 3.336178 1_556
Mg2 Mg3 3.176536 1_545
Mg2 Mg6 3.184448 1_555
Mg2 Mg6 3.184448 1_455
Mg2 Y0 3.215987 1_455
Mg2 Y0 3.215987 1_555
Mg2 Mg3 3.298658 1_555
Mg2 Mg5 3.307943 1_555
Mg2 Mg4 3.378479 1_555
Mg3 Mg7 3.184448 1_455
Mg3 Mg7 3.184448 1_555
Mg3 Y0 3.215987 1_455
Mg3 Y0 3.215987 1_555
Mg3 Mg5 3.307943 1_565
Mg3 Mg4 3.378479 1_555
Mg4 Y0 3.211419 1_455
Mg4 Y0 3.211419 1_555
Mg4 Mg5 3.237936 1_565
Mg4 Mg5 3.237936 1_555
Mg4 Mg8 3.257292 1_556
Mg4 Mg9 3.257292 1_556
Mg5 Mg8 3.328087 1_546
Mg5 Mg9 3.328087 1_556
Mg6 Mg7 3.188347 1_545
Mg6 Mg7 3.286847 1_555
Mg6 Y1 3.299691 1_555
Mg6 Y0 3.336178 1_555
Mg7 Y1 3.299691 1_565
Mg7 Y0 3.336178 1_555
Mg8 Mg9 3.176536 1_555
Mg8 Y1 3.215987 1_565
Mg8 Y1 3.215987 1_465
Mg8 Mg9 3.298658 1_565
Mg9 Y1 3.215987 1_555
Mg9 Y1 3.215987 1_455
Mg10 Mg7 3.169559 1_545
Mg10 Mg7 3.169559 1_445
Mg10 Mg6 3.169559 1_555
Mg10 Mg6 3.169559 1_455
Mg10 Y1 3.211419 1_555
Mg10 Y1 3.211419 1_455
Mg10 Mg11 3.237936 1_555
Mg10 Mg11 3.237936 1_545
Mg10 Mg3 3.257292 1_545
Mg10 Mg2 3.257292 1_555
Mg10 Mg8 3.378479 1_545
Mg10 Mg9 3.378479 1_555
Mg11 Mg6 3.208973 1_455
Mg11 Mg6 3.208973 1_555
Mg11 Mg7 3.208973 1_455
Mg11 Mg7 3.208973 1_555
Mg11 Mg9 3.307943 1_555
Mg11 Mg8 3.307943 1_555
Mg11 Mg2 3.328087 1_555
Mg11 Mg3 3.328087 1_555
Cd0 Mg3 3.161387 1_645
Cd0 Mg3 3.161387 1_545
Cd0 Mg2 3.161387 1_655
Cd0 Mg2 3.161387 1_555
Cd0 Mg5 3.229545 1_555
Cd0 Mg5 3.229545 1_655
Cd0 Y0 3.238508 1_555
Cd0 Y0 3.238508 1_545
Cd0 Mg6 3.245059 1_555
Cd0 Mg7 3.245059 1_545
Cd0 Mg0 3.390759 1_545
Cd0 Mg1 3.390759 1_555
Cd1 Mg9 3.161387 1_655
Cd1 Mg8 3.161387 1_555
Cd1 Mg8 3.161387 1_655
Cd1 Mg9 3.161387 1_555
Cd1 Mg11 3.229545 1_555
Cd1 Mg11 3.229545 1_655
Cd1 Y1 3.238508 1_565
Cd1 Y1 3.238508 1_555
Cd1 Mg0 3.245059 1_554
Cd1 Mg1 3.245059 1_554
Cd1 Mg6 3.390759 1_555
Cd1 Mg7 3.390759 1_555
