# generated using pymatgen
data_LiBF4
_symmetry_space_group_name_H-M   'P 1'
_cell_length_a   4.73333170
_cell_length_b   4.73333257
_cell_length_c   10.83966193
_cell_angle_alpha   90.00000000
_cell_angle_beta   90.00000000
_cell_angle_gamma   120.00000053
_symmetry_Int_Tables_number   1
_chemical_formula_structural   LiBF4
_chemical_formula_sum   'Li3 B3 F12'
_cell_volume   210.31988033
_cell_formula_units_Z   3
loop_
 _symmetry_equiv_pos_site_id
 _symmetry_equiv_pos_as_xyz
  1  'x, y, z'
loop_
 _atom_site_type_symbol
 _atom_site_label
 _atom_site_symmetry_multiplicity
 _atom_site_fract_x
 _atom_site_fract_y
 _atom_site_fract_z
 _atom_site_occupancy
  Li  Li0  1  -0.00000000  0.45103296  0.66666700  1
  Li  Li1  1  0.45103296  0.00000000  0.33333300  1
  Li  Li2  1  0.54896704  0.54896704  -0.00000000  1
  B  B0  1  0.55613501  0.55613501  0.50000000  1
  B  B1  1  -0.00000000  0.44386499  0.16666700  1
  B  B2  1  0.44386499  0.00000000  0.83333300  1
  F  F0  1  0.57548036  0.91917567  0.93442562  1
  F  F1  1  0.08082433  0.65630569  0.26775862  1
  F  F2  1  0.34369431  0.42451964  0.60109162  1
  F  F3  1  0.65630569  0.08082433  0.73224138  1
  F  F4  1  0.42451964  0.34369431  0.39890838  1
  F  F5  1  0.91917567  0.57548036  0.06557438  1
  F  F6  1  0.26666571  0.40602841  0.13458007  1
  F  F7  1  0.59397159  0.86063729  0.46791307  1
  F  F8  1  0.13936271  0.73333429  0.80124607  1
  F  F9  1  0.86063729  0.59397159  0.53208693  1
  F  F10  1  0.73333429  0.13936271  0.19875393  1
  F  F11  1  0.40602841  0.26666571  0.86541993  1
loop_
_geom_bond_atom_site_label_1
_geom_bond_atom_site_label_2
_geom_bond_distance
_geom_bond_site_symmetry_2
B0 F9 1.404384 1_555
B0 F7 1.404384 1_555
B0 F2 1.404840 1_555
B0 F4 1.404840 1_555
B1 F6 1.404384 1_555
B1 F10 1.404384 1_455
B1 F1 1.404841 1_555
B1 F5 1.404846 1_455
B2 F8 1.404384 1_545
B2 F11 1.404384 1_555
B2 F3 1.404841 1_555
B2 F0 1.404846 1_545
F0 Li2 1.836221 1_556
F1 Li1 1.836219 1_565
F2 Li0 1.836221 1_555
F3 Li0 1.836219 1_655
F4 Li1 1.836221 1_555
F5 Li2 1.836221 1_555
F6 Li2 1.862069 1_555
F7 Li1 1.862069 1_565
F8 Li0 1.862061 1_555
F9 Li0 1.862069 1_655
F10 Li1 1.862060 1_555
F11 Li2 1.862069 1_556
