# generated using pymatgen
data_Ti5S8
_symmetry_space_group_name_H-M   'P 1'
_cell_length_a   6.72296615
_cell_length_b   6.72196465
_cell_length_c   6.86279996
_cell_angle_alpha   105.32334008
_cell_angle_beta   104.39521155
_cell_angle_gamma   118.45925052
_symmetry_Int_Tables_number   1
_chemical_formula_structural   Ti5S8
_chemical_formula_sum   'Ti5 S8'
_cell_volume   235.92243041
_cell_formula_units_Z   1
loop_
 _symmetry_equiv_pos_site_id
 _symmetry_equiv_pos_as_xyz
  1  'x, y, z'
loop_
 _atom_site_type_symbol
 _atom_site_label
 _atom_site_symmetry_multiplicity
 _atom_site_fract_x
 _atom_site_fract_y
 _atom_site_fract_z
 _atom_site_occupancy
  Ti  Ti0  1  0.26414244  0.76418868  0.49996527  1
  Ti  Ti1  1  0.73585756  0.23581132  0.50003473  1
  Ti  Ti2  1  0.25567657  0.75475374  0.01022168  1
  Ti  Ti3  1  0.74432343  0.24524626  0.98977832  1
  Ti  Ti4  1  0.00000000  -0.00000000  0.00000000  1
  S  S0  1  0.54101121  0.79175657  0.33272735  1
  S  S1  1  0.45898879  0.20824343  0.66727265  1
  S  S2  1  0.45759367  0.21099673  0.16946556  1
  S  S3  1  0.54240633  0.78900327  0.83053444  1
  S  S4  1  0.04155215  0.28812981  0.83054843  1
  S  S5  1  0.95844785  0.71187019  0.16945157  1
  S  S6  1  0.03600378  0.29492398  0.33103505  1
  S  S7  1  0.96399622  0.70507602  0.66896495  1
loop_
_geom_bond_atom_site_label_1
_geom_bond_atom_site_label_2
_geom_bond_distance
_geom_bond_site_symmetry_2
S0 Ti1 2.378700 1_565
S0 Ti0 2.379544 1_555
S0 Ti2 2.404914 1_555
S1 Ti0 2.378700 1_545
S1 Ti1 2.379544 1_555
S1 Ti3 2.404914 1_555
S2 Ti2 2.442493 1_545
S2 Ti4 2.453377 1_555
S2 Ti1 2.463050 1_555
S2 Ti3 2.489707 1_554
S3 Ti3 2.442493 1_565
S3 Ti4 2.453377 1_666
S3 Ti0 2.463050 1_555
S3 Ti2 2.489707 1_556
S4 Ti3 2.444075 1_455
S4 Ti4 2.453138 1_556
S4 Ti1 2.462532 1_455
S4 Ti2 2.490181 1_556
S5 Ti2 2.444075 1_655
S5 Ti4 2.453138 1_665
S5 Ti0 2.462532 1_655
S5 Ti3 2.490181 1_554
S6 Ti4 2.457396 1_555
S6 Ti3 2.474025 1_454
S6 Ti1 2.493577 1_455
S6 Ti0 2.493719 1_555
S7 Ti4 2.457396 1_666
S7 Ti2 2.474025 1_656
S7 Ti0 2.493577 1_655
S7 Ti1 2.493719 1_555
