# generated using pymatgen
data_YMg
_symmetry_space_group_name_H-M   'P 1'
_cell_length_a   12.76925296
_cell_length_b   12.76925296
_cell_length_c   16.62456315
_cell_angle_alpha   71.67338163
_cell_angle_beta   71.67338163
_cell_angle_gamma   31.75142040
_symmetry_Int_Tables_number   1
_chemical_formula_structural   YMg
_chemical_formula_sum   'Y24 Mg24'
_cell_volume   1348.09178831
_cell_formula_units_Z   24
loop_
 _symmetry_equiv_pos_site_id
 _symmetry_equiv_pos_as_xyz
  1  'x, y, z'
loop_
 _atom_site_type_symbol
 _atom_site_label
 _atom_site_symmetry_multiplicity
 _atom_site_fract_x
 _atom_site_fract_y
 _atom_site_fract_z
 _atom_site_occupancy
  Y  Y0_0  1  0.15358950  0.15358950  0.17758400  1
  Y  Y0_1  1  0.15358950  0.15358950  0.67758400  1
  Y  Y0_2  1  0.15358950  0.65358950  0.17758400  1
  Y  Y0_3  1  0.15358950  0.65358950  0.67758400  1
  Y  Y0_4  1  0.65358950  0.15358950  0.17758400  1
  Y  Y0_5  1  0.65358950  0.15358950  0.67758400  1
  Y  Y0_6  1  0.65358950  0.65358950  0.17758400  1
  Y  Y0_7  1  0.65358950  0.65358950  0.67758400  1
  Y  Y1_0  1  0.48428000  0.48428000  0.29297550  1
  Y  Y1_1  1  0.48428000  0.48428000  0.79297550  1
  Y  Y1_2  1  0.48428000  0.98428000  0.29297550  1
  Y  Y1_3  1  0.48428000  0.98428000  0.79297550  1
  Y  Y1_4  1  0.98428000  0.48428000  0.29297550  1
  Y  Y1_5  1  0.98428000  0.48428000  0.79297550  1
  Y  Y1_6  1  0.98428000  0.98428000  0.29297550  1
  Y  Y1_7  1  0.98428000  0.98428000  0.79297550  1
  Y  Y2_0  1  0.14494050  0.14494050  0.47000300  1
  Y  Y2_1  1  0.14494050  0.14494050  0.97000300  1
  Y  Y2_2  1  0.14494050  0.64494050  0.47000300  1
  Y  Y2_3  1  0.14494050  0.64494050  0.97000300  1
  Y  Y2_4  1  0.64494050  0.14494050  0.47000300  1
  Y  Y2_5  1  0.64494050  0.14494050  0.97000300  1
  Y  Y2_6  1  0.64494050  0.64494050  0.47000300  1
  Y  Y2_7  1  0.64494050  0.64494050  0.97000300  1
  Mg  Mg0_0  1  0.49935300  0.49935300  0.00222800  1
  Mg  Mg0_1  1  0.49935300  0.49935300  0.50222800  1
  Mg  Mg0_2  1  0.49935300  0.99935300  0.00222800  1
  Mg  Mg0_3  1  0.49935300  0.99935300  0.50222800  1
  Mg  Mg0_4  1  0.99935300  0.49935300  0.00222800  1
  Mg  Mg0_5  1  0.99935300  0.49935300  0.50222800  1
  Mg  Mg0_6  1  0.99935300  0.99935300  0.00222800  1
  Mg  Mg0_7  1  0.99935300  0.99935300  0.50222800  1
  Mg  Mg1_0  1  0.30079700  0.30079700  0.12293600  1
  Mg  Mg1_1  1  0.30079700  0.30079700  0.62293600  1
  Mg  Mg1_2  1  0.30079700  0.80079700  0.12293600  1
  Mg  Mg1_3  1  0.30079700  0.80079700  0.62293600  1
  Mg  Mg1_4  1  0.80079700  0.30079700  0.12293600  1
  Mg  Mg1_5  1  0.80079700  0.30079700  0.62293600  1
  Mg  Mg1_6  1  0.80079700  0.80079700  0.12293600  1
  Mg  Mg1_7  1  0.80079700  0.80079700  0.62293600  1
  Mg  Mg2_0  1  0.33370650  0.33370650  0.35094050  1
  Mg  Mg2_1  1  0.33370650  0.33370650  0.85094050  1
  Mg  Mg2_2  1  0.33370650  0.83370650  0.35094050  1
  Mg  Mg2_3  1  0.33370650  0.83370650  0.85094050  1
  Mg  Mg2_4  1  0.83370650  0.33370650  0.35094050  1
  Mg  Mg2_5  1  0.83370650  0.33370650  0.85094050  1
  Mg  Mg2_6  1  0.83370650  0.83370650  0.35094050  1
  Mg  Mg2_7  1  0.83370650  0.83370650  0.85094050  1
loop_
_geom_bond_atom_site_label_1
_geom_bond_atom_site_label_2
_geom_bond_distance
_geom_bond_site_symmetry_2
Y0_0 Y0_6 3.493048 1_545
Y0_0 Y0_6 3.493048 1_455
Y0_0 Y2_1 3.526118 1_554
Y0_0 Y1_2 3.625620 1_545
Y0_0 Y1_4 3.625620 1_455
Y0_1 Y0_7 3.493048 1_545
Y0_1 Y0_7 3.493048 1_455
Y0_1 Y2_0 3.526118 1_555
Y0_1 Y1_3 3.625620 1_545
Y0_1 Y1_5 3.625620 1_455
Y0_2 Y0_4 3.493048 1_555
Y0_2 Y0_4 3.493048 1_465
Y0_2 Y2_3 3.526118 1_554
Y0_2 Y1_6 3.625620 1_455
Y0_2 Y1_0 3.625620 1_555
Y0_3 Y0_5 3.493048 1_555
Y0_3 Y0_5 3.493048 1_465
Y0_3 Y2_2 3.526118 1_555
Y0_3 Y1_7 3.625620 1_455
Y0_3 Y1_1 3.625620 1_555
Y0_4 Y2_5 3.526118 1_554
Y0_4 Y1_6 3.625620 1_545
Y0_4 Y1_0 3.625620 1_555
Y0_5 Y2_4 3.526118 1_555
Y0_5 Y1_7 3.625620 1_545
Y0_5 Y1_1 3.625620 1_555
Y0_6 Y2_7 3.526118 1_554
Y0_6 Y1_2 3.625620 1_555
Y0_6 Y1_4 3.625620 1_555
Y0_7 Y2_6 3.526118 1_555
Y0_7 Y1_3 3.625620 1_555
Y0_7 Y1_5 3.625620 1_555
Y1_0 Y1_6 3.493048 1_455
Y1_0 Y1_6 3.493048 1_545
Y1_0 Y2_4 3.507860 1_555
Y1_0 Y2_2 3.507860 1_555
Y1_1 Y1_7 3.493048 1_545
Y1_1 Y1_7 3.493048 1_455
Y1_1 Y2_5 3.507860 1_555
Y1_1 Y2_3 3.507860 1_555
Y1_2 Y1_4 3.493048 1_555
Y1_2 Y1_4 3.493048 1_465
Y1_2 Y2_0 3.507860 1_565
Y1_2 Y2_6 3.507860 1_555
Y1_3 Y1_5 3.493048 1_465
Y1_3 Y1_5 3.493048 1_555
Y1_3 Y2_1 3.507860 1_565
Y1_3 Y2_7 3.507860 1_555
Y1_4 Y2_0 3.507860 1_655
Y1_4 Y2_6 3.507860 1_555
Y1_5 Y2_1 3.507860 1_655
Y1_5 Y2_7 3.507860 1_555
Y1_6 Y2_4 3.507860 1_565
Y1_6 Y2_2 3.507860 1_655
Y1_7 Y2_5 3.507860 1_565
Y1_7 Y2_3 3.507860 1_655
Y2_0 Y2_6 3.493048 1_545
Y2_0 Y2_6 3.493048 1_455
Y2_1 Y2_7 3.493048 1_545
Y2_1 Y2_7 3.493048 1_455
Y2_2 Y2_4 3.493048 1_555
Y2_2 Y2_4 3.493048 1_465
Y2_3 Y2_5 3.493048 1_465
Y2_3 Y2_5 3.493048 1_555
Mg0_0 Mg2_3 3.203480 1_554
Mg0_0 Mg2_5 3.203480 1_554
Mg0_0 Mg1_2 3.214365 1_555
Mg0_0 Mg1_4 3.214365 1_555
Mg0_0 Y2_5 3.288474 1_554
Mg0_0 Y2_3 3.288474 1_554
Mg0_0 Y2_7 3.438616 1_554
Mg0_0 Mg0_6 3.493048 1_545
Mg0_0 Mg0_6 3.493048 1_455
Mg0_0 Y0_4 3.549495 1_555
Mg0_0 Y0_2 3.549495 1_555
Mg0_0 Y1_1 3.616737 1_554
Mg0_1 Mg2_2 3.203480 1_555
Mg0_1 Mg2_4 3.203480 1_555
Mg0_1 Mg1_3 3.214365 1_555
Mg0_1 Mg1_5 3.214365 1_555
Mg0_1 Y2_4 3.288474 1_555
Mg0_1 Y2_2 3.288474 1_555
Mg0_1 Y2_6 3.438616 1_555
Mg0_1 Mg0_7 3.493048 1_455
Mg0_1 Mg0_7 3.493048 1_545
Mg0_1 Y0_5 3.549495 1_555
Mg0_1 Y0_3 3.549495 1_555
Mg0_1 Y1_0 3.616737 1_555
Mg0_2 Mg2_7 3.203480 1_554
Mg0_2 Mg2_1 3.203480 1_564
Mg0_2 Mg1_6 3.214365 1_555
Mg0_2 Mg1_0 3.214365 1_565
Mg0_2 Y2_1 3.288474 1_564
Mg0_2 Y2_7 3.288474 1_554
Mg0_2 Y2_5 3.438616 1_564
Mg0_2 Mg0_4 3.493048 1_555
Mg0_2 Mg0_4 3.493048 1_465
Mg0_2 Y0_0 3.549495 1_565
Mg0_2 Y0_6 3.549495 1_555
Mg0_2 Y1_3 3.616737 1_554
Mg0_3 Mg2_6 3.203480 1_555
Mg0_3 Mg2_0 3.203480 1_565
Mg0_3 Mg1_7 3.214365 1_555
Mg0_3 Mg1_1 3.214365 1_565
Mg0_3 Y2_0 3.288474 1_565
Mg0_3 Y2_6 3.288474 1_555
Mg0_3 Y2_4 3.438616 1_565
Mg0_3 Mg0_5 3.493048 1_555
Mg0_3 Mg0_5 3.493048 1_465
Mg0_3 Y0_1 3.549495 1_565
Mg0_3 Y0_7 3.549495 1_555
Mg0_3 Y1_2 3.616737 1_555
Mg0_4 Mg2_7 3.203480 1_554
Mg0_4 Mg2_1 3.203480 1_654
Mg0_4 Mg1_6 3.214365 1_555
Mg0_4 Mg1_0 3.214365 1_655
Mg0_4 Y2_1 3.288474 1_654
Mg0_4 Y2_7 3.288474 1_554
Mg0_4 Y2_3 3.438616 1_654
Mg0_4 Y0_0 3.549495 1_655
Mg0_4 Y0_6 3.549495 1_555
Mg0_4 Y1_5 3.616737 1_554
Mg0_5 Mg2_6 3.203480 1_555
Mg0_5 Mg2_0 3.203480 1_655
Mg0_5 Mg1_7 3.214365 1_555
Mg0_5 Mg1_1 3.214365 1_655
Mg0_5 Y2_0 3.288474 1_655
Mg0_5 Y2_6 3.288474 1_555
Mg0_5 Y2_2 3.438616 1_655
Mg0_5 Y0_1 3.549495 1_655
Mg0_5 Y0_7 3.549495 1_555
Mg0_5 Y1_4 3.616737 1_555
Mg0_6 Mg2_3 3.203480 1_654
Mg0_6 Mg2_5 3.203480 1_564
Mg0_6 Mg1_2 3.214365 1_655
Mg0_6 Mg1_4 3.214365 1_565
Mg0_6 Y2_5 3.288474 1_564
Mg0_6 Y2_3 3.288474 1_654
Mg0_6 Y2_1 3.438616 1_664
Mg0_6 Y0_4 3.549495 1_565
Mg0_6 Y0_2 3.549495 1_655
Mg0_6 Y1_7 3.616737 1_554
Mg0_7 Mg2_2 3.203480 1_655
Mg0_7 Mg2_4 3.203480 1_565
Mg0_7 Mg1_3 3.214365 1_655
Mg0_7 Mg1_5 3.214365 1_565
Mg0_7 Y2_4 3.288474 1_565
Mg0_7 Y2_2 3.288474 1_655
Mg0_7 Y2_0 3.438616 1_665
Mg0_7 Y0_5 3.549495 1_565
Mg0_7 Y0_3 3.549495 1_655
Mg0_7 Y1_6 3.616737 1_555
Mg1_0 Y1_4 3.269749 1_455
Mg1_0 Y1_2 3.269749 1_545
Mg1_0 Y2_3 3.319379 1_554
Mg1_0 Y2_5 3.319379 1_554
Mg1_0 Y0_2 3.428024 1_555
Mg1_0 Y0_4 3.428024 1_555
Mg1_0 Y0_0 3.428325 1_555
Mg1_0 Mg1_6 3.493048 1_545
Mg1_0 Mg1_6 3.493048 1_455
Mg1_1 Y1_5 3.269749 1_455
Mg1_1 Y1_3 3.269749 1_545
Mg1_1 Y2_2 3.319379 1_555
Mg1_1 Y2_4 3.319379 1_555
Mg1_1 Y0_3 3.428024 1_555
Mg1_1 Y0_5 3.428024 1_555
Mg1_1 Y0_1 3.428325 1_555
Mg1_1 Mg1_7 3.493048 1_545
Mg1_1 Mg1_7 3.493048 1_455
Mg1_2 Y1_0 3.269749 1_555
Mg1_2 Y1_6 3.269749 1_455
Mg1_2 Y2_7 3.319379 1_554
Mg1_2 Y2_1 3.319379 1_564
Mg1_2 Y0_6 3.428024 1_555
Mg1_2 Y0_0 3.428024 1_565
Mg1_2 Y0_2 3.428325 1_555
Mg1_2 Mg1_4 3.493048 1_555
Mg1_2 Mg1_4 3.493048 1_465
Mg1_3 Y1_1 3.269749 1_555
Mg1_3 Y1_7 3.269749 1_455
Mg1_3 Y2_6 3.319379 1_555
Mg1_3 Y2_0 3.319379 1_565
Mg1_3 Y0_7 3.428024 1_555
Mg1_3 Y0_1 3.428024 1_565
Mg1_3 Y0_3 3.428325 1_555
Mg1_3 Mg1_5 3.493048 1_465
Mg1_3 Mg1_5 3.493048 1_555
Mg1_4 Y1_0 3.269749 1_555
Mg1_4 Y1_6 3.269749 1_545
Mg1_4 Y2_7 3.319379 1_554
Mg1_4 Y2_1 3.319379 1_654
Mg1_4 Y0_6 3.428024 1_555
Mg1_4 Y0_0 3.428024 1_655
Mg1_4 Y0_4 3.428325 1_555
Mg1_5 Y1_1 3.269749 1_555
Mg1_5 Y1_7 3.269749 1_545
Mg1_5 Y2_6 3.319379 1_555
Mg1_5 Y2_0 3.319379 1_655
Mg1_5 Y0_7 3.428024 1_555
Mg1_5 Y0_1 3.428024 1_655
Mg1_5 Y0_5 3.428325 1_555
Mg1_6 Y1_4 3.269749 1_555
Mg1_6 Y1_2 3.269749 1_555
Mg1_6 Y2_3 3.319379 1_654
Mg1_6 Y2_5 3.319379 1_564
Mg1_6 Y0_2 3.428024 1_655
Mg1_6 Y0_4 3.428024 1_565
Mg1_6 Y0_6 3.428325 1_555
Mg1_7 Y1_5 3.269749 1_555
Mg1_7 Y1_3 3.269749 1_555
Mg1_7 Y2_2 3.319379 1_655
Mg1_7 Y2_4 3.319379 1_565
Mg1_7 Y0_3 3.428024 1_655
Mg1_7 Y0_5 3.428024 1_565
Mg1_7 Y0_7 3.428325 1_555
Mg2_0 Y0_2 3.326920 1_555
Mg2_0 Y0_4 3.326920 1_555
Mg2_0 Y2_2 3.343254 1_555
Mg2_0 Y2_4 3.343254 1_555
Mg2_0 Y1_4 3.388629 1_455
Mg2_0 Y1_2 3.388629 1_545
Mg2_0 Mg2_6 3.493048 1_545
Mg2_0 Mg2_6 3.493048 1_455
Mg2_0 Y1_0 3.504141 1_555
Mg2_1 Y0_3 3.326920 1_555
Mg2_1 Y0_5 3.326920 1_555
Mg2_1 Y2_3 3.343254 1_555
Mg2_1 Y2_5 3.343254 1_555
Mg2_1 Y1_5 3.388629 1_455
Mg2_1 Y1_3 3.388629 1_545
Mg2_1 Mg2_7 3.493048 1_545
Mg2_1 Mg2_7 3.493048 1_455
Mg2_1 Y1_1 3.504141 1_555
Mg2_2 Y0_6 3.326920 1_555
Mg2_2 Y0_0 3.326920 1_565
Mg2_2 Y2_6 3.343254 1_555
Mg2_2 Y2_0 3.343254 1_565
Mg2_2 Y1_0 3.388629 1_555
Mg2_2 Y1_6 3.388629 1_455
Mg2_2 Mg2_4 3.493048 1_555
Mg2_2 Mg2_4 3.493048 1_465
Mg2_2 Y1_2 3.504141 1_555
Mg2_3 Y0_7 3.326920 1_555
Mg2_3 Y0_1 3.326920 1_565
Mg2_3 Y2_7 3.343254 1_555
Mg2_3 Y2_1 3.343254 1_565
Mg2_3 Y1_1 3.388629 1_555
Mg2_3 Y1_7 3.388629 1_455
Mg2_3 Mg2_5 3.493048 1_555
Mg2_3 Mg2_5 3.493048 1_465
Mg2_3 Y1_3 3.504141 1_555
Mg2_4 Y0_6 3.326920 1_555
Mg2_4 Y0_0 3.326920 1_655
Mg2_4 Y2_6 3.343254 1_555
Mg2_4 Y2_0 3.343254 1_655
Mg2_4 Y1_0 3.388629 1_555
Mg2_4 Y1_6 3.388629 1_545
Mg2_4 Y1_4 3.504141 1_555
Mg2_5 Y0_7 3.326920 1_555
Mg2_5 Y0_1 3.326920 1_655
Mg2_5 Y2_7 3.343254 1_555
Mg2_5 Y2_1 3.343254 1_655
Mg2_5 Y1_1 3.388629 1_555
Mg2_5 Y1_7 3.388629 1_545
Mg2_5 Y1_5 3.504141 1_555
Mg2_6 Y0_2 3.326920 1_655
Mg2_6 Y0_4 3.326920 1_565
Mg2_6 Y2_2 3.343254 1_655
Mg2_6 Y2_4 3.343254 1_565
Mg2_6 Y1_4 3.388629 1_555
Mg2_6 Y1_2 3.388629 1_555
Mg2_6 Y1_6 3.504141 1_555
Mg2_7 Y0_3 3.326920 1_655
Mg2_7 Y0_5 3.326920 1_565
Mg2_7 Y2_3 3.343254 1_655
Mg2_7 Y2_5 3.343254 1_565
Mg2_7 Y1_5 3.388629 1_555
Mg2_7 Y1_3 3.388629 1_555
Mg2_7 Y1_7 3.504141 1_555
