# generated using pymatgen
data_ErMgTl
_symmetry_space_group_name_H-M   'P 1'
_cell_length_a   7.44993820
_cell_length_b   7.44993820
_cell_length_c   4.60449254
_cell_angle_alpha   90.00000000
_cell_angle_beta   90.00000000
_cell_angle_gamma   119.99999382
_symmetry_Int_Tables_number   1
_chemical_formula_structural   ErMgTl
_chemical_formula_sum   'Er3 Mg3 Tl3'
_cell_volume   221.31852804
_cell_formula_units_Z   3
loop_
 _symmetry_equiv_pos_site_id
 _symmetry_equiv_pos_as_xyz
  1  'x, y, z'
loop_
 _atom_site_type_symbol
 _atom_site_label
 _atom_site_symmetry_multiplicity
 _atom_site_fract_x
 _atom_site_fract_y
 _atom_site_fract_z
 _atom_site_occupancy
  Er  Er0  1  0.56843663  0.00000000  0.00000000  1
  Er  Er1  1  0.00000000  0.56843663  0.00000000  1
  Er  Er2  1  0.43156337  0.43156337  -0.00000000  1
  Mg  Mg0  1  0.24313267  -0.00000000  0.50000000  1
  Mg  Mg1  1  -0.00000000  0.24313267  0.50000000  1
  Mg  Mg2  1  0.75686733  0.75686733  0.50000000  1
  Tl  Tl0  1  0.33333300  0.66666700  0.50000000  1
  Tl  Tl1  1  0.66666700  0.33333300  0.50000000  1
  Tl  Tl2  1  -0.00000000  -0.00000000  -0.00000000  1
loop_
_geom_bond_atom_site_label_1
_geom_bond_atom_site_label_2
_geom_bond_distance
_geom_bond_site_symmetry_2
Er0 Tl1 3.191458 1_554
Er0 Tl1 3.191458 1_555
Er0 Tl0 3.191459 1_545
Er0 Tl0 3.191459 1_544
Er0 Tl2 3.215120 1_655
Er0 Mg0 3.342703 1_554
Er0 Mg0 3.342703 1_555
Er0 Mg2 3.618647 1_545
Er0 Mg2 3.618647 1_544
Er0 Mg1 3.618647 1_654
Er0 Mg1 3.618647 1_655
Er0 Er2 3.828215 1_555
Er0 Er2 3.828215 1_545
Er0 Er1 3.828216 1_655
Er0 Er1 3.828216 1_545
Er1 Tl0 3.191458 1_554
Er1 Tl0 3.191458 1_555
Er1 Tl1 3.191459 1_455
Er1 Tl1 3.191459 1_454
Er1 Tl2 3.215120 1_565
Er1 Mg1 3.342703 1_554
Er1 Mg1 3.342703 1_555
Er1 Mg2 3.618647 1_455
Er1 Mg2 3.618647 1_454
Er1 Mg0 3.618647 1_565
Er1 Mg0 3.618647 1_564
Er1 Er2 3.828215 1_555
Er1 Er2 3.828215 1_455
Er2 Tl1 3.191463 1_555
Er2 Tl0 3.191463 1_554
Er2 Tl1 3.191463 1_554
Er2 Tl0 3.191463 1_555
Er2 Tl2 3.215121 1_555
Er2 Mg2 3.342703 1_554
Er2 Mg2 3.342703 1_555
Er2 Mg0 3.618647 1_554
Er2 Mg1 3.618647 1_554
Er2 Mg1 3.618647 1_555
Er2 Mg0 3.618647 1_555
Mg0 Tl0 2.878741 1_545
Mg0 Tl1 2.878746 1_555
Mg0 Tl2 2.929374 1_555
Mg0 Tl2 2.929374 1_556
Mg0 Mg1 3.137304 1_555
Mg0 Mg2 3.137304 1_445
Mg1 Tl1 2.878741 1_455
Mg1 Tl0 2.878746 1_555
Mg1 Tl2 2.929374 1_555
Mg1 Tl2 2.929374 1_556
Mg1 Mg2 3.137304 1_445
Mg2 Tl0 2.878748 1_555
Mg2 Tl1 2.878748 1_555
Mg2 Tl2 2.929374 1_666
Mg2 Tl2 2.929374 1_665
