# generated using pymatgen
data_RbZr2(AsO4)3
_symmetry_space_group_name_H-M   'P 1'
_cell_length_a   10.04064140
_cell_length_b   10.04064140
_cell_length_c   10.04064090
_cell_angle_alpha   54.24031370
_cell_angle_beta   54.24031370
_cell_angle_gamma   54.24030989
_symmetry_Int_Tables_number   1
_chemical_formula_structural   RbZr2(AsO4)3
_chemical_formula_sum   'Rb2 Zr4 As6 O24'
_cell_volume   619.55622230
_cell_formula_units_Z   2
loop_
 _symmetry_equiv_pos_site_id
 _symmetry_equiv_pos_as_xyz
  1  'x, y, z'
loop_
 _atom_site_type_symbol
 _atom_site_label
 _atom_site_symmetry_multiplicity
 _atom_site_fract_x
 _atom_site_fract_y
 _atom_site_fract_z
 _atom_site_occupancy
  Rb  Rb0  1  0.50000000  0.50000000  0.50000000  1
  Rb  Rb1  1  0.00000000  0.00000000  0.00000000  1
  Zr  Zr0  1  0.34968800  0.34968800  0.34968800  1
  Zr  Zr1  1  0.84968800  0.84968800  0.84968800  1
  Zr  Zr2  1  0.65031200  0.65031200  0.65031200  1
  Zr  Zr3  1  0.15031200  0.15031200  0.15031200  1
  As  As0  1  0.96882900  0.53117100  0.25000000  1
  As  As1  1  0.25000000  0.96882900  0.53117100  1
  As  As2  1  0.53117100  0.25000000  0.96882900  1
  As  As3  1  0.75000000  0.03117100  0.46882900  1
  As  As4  1  0.46882900  0.75000000  0.03117100  1
  As  As5  1  0.03117100  0.46882900  0.75000000  1
  O  O0  1  0.15431300  0.51383000  0.23925400  1
  O  O1  1  0.23925400  0.15431300  0.51383000  1
  O  O2  1  0.51383000  0.23925400  0.15431300  1
  O  O3  1  0.73925400  0.01383000  0.65431300  1
  O  O4  1  0.65431300  0.73925400  0.01383000  1
  O  O5  1  0.01383000  0.65431300  0.73925400  1
  O  O6  1  0.84568700  0.48617000  0.76074600  1
  O  O7  1  0.76074600  0.84568700  0.48617000  1
  O  O8  1  0.48617000  0.76074600  0.84568700  1
  O  O9  1  0.26074600  0.98617000  0.34568700  1
  O  O10  1  0.34568700  0.26074600  0.98617000  1
  O  O11  1  0.98617000  0.34568700  0.26074600  1
  O  O12  1  0.20633800  0.42853400  0.56586200  1
  O  O13  1  0.56586200  0.20633800  0.42853400  1
  O  O14  1  0.42853400  0.56586200  0.20633800  1
  O  O15  1  0.06586200  0.92853400  0.70633800  1
  O  O16  1  0.70633800  0.06586200  0.92853400  1
  O  O17  1  0.92853400  0.70633800  0.06586200  1
  O  O18  1  0.79366200  0.57146600  0.43413800  1
  O  O19  1  0.43413800  0.79366200  0.57146600  1
  O  O20  1  0.57146600  0.43413800  0.79366200  1
  O  O21  1  0.93413800  0.07146600  0.29366200  1
  O  O22  1  0.29366200  0.93413800  0.07146600  1
  O  O23  1  0.07146600  0.29366200  0.93413800  1
loop_
_geom_bond_atom_site_label_1
_geom_bond_atom_site_label_2
_geom_bond_distance
_geom_bond_site_symmetry_2
As0 O18 1.708024 1_555
As0 O17 1.708024 1_555
As0 O11 1.708366 1_555
As0 O0 1.708366 1_655
As1 O19 1.708024 1_555
As1 O15 1.708024 1_555
As1 O9 1.708366 1_555
As1 O1 1.708366 1_565
As2 O16 1.708024 1_555
As2 O20 1.708024 1_555
As2 O2 1.708366 1_556
As2 O10 1.708366 1_555
As3 O13 1.708024 1_555
As3 O21 1.708024 1_555
As3 O3 1.708366 1_555
As3 O7 1.708366 1_545
As4 O22 1.708024 1_555
As4 O14 1.708024 1_555
As4 O8 1.708366 1_554
As4 O4 1.708366 1_555
As5 O23 1.708024 1_555
As5 O12 1.708024 1_555
As5 O6 1.708366 1_455
As5 O5 1.708366 1_555
O0 Zr0 2.102772 1_555
O1 Zr0 2.102772 1_555
O2 Zr0 2.102772 1_555
O3 Zr1 2.102772 1_545
O4 Zr1 2.102772 1_554
O5 Zr1 2.102772 1_455
O6 Zr2 2.102772 1_555
O7 Zr2 2.102772 1_555
O8 Zr2 2.102772 1_555
O9 Zr3 2.102772 1_565
O10 Zr3 2.102772 1_556
O11 Zr3 2.102772 1_655
O12 Zr0 2.105891 1_555
O12 Rb0 3.047210 1_555
O13 Zr0 2.105891 1_555
O13 Rb0 3.047210 1_555
O14 Zr0 2.105891 1_555
O14 Rb0 3.047210 1_555
O15 Zr1 2.105891 1_455
O15 Rb1 3.047210 1_566
O16 Zr1 2.105891 1_545
O16 Rb1 3.047210 1_656
O17 Zr1 2.105891 1_554
O17 Rb1 3.047210 1_665
O18 Zr2 2.105891 1_555
O18 Rb0 3.047210 1_555
O19 Zr2 2.105891 1_555
O19 Rb0 3.047210 1_555
O20 Zr2 2.105891 1_555
O20 Rb0 3.047210 1_555
O21 Zr3 2.105891 1_655
O21 Rb1 3.047210 1_655
O22 Zr3 2.105891 1_565
O22 Rb1 3.047210 1_565
O23 Zr3 2.105891 1_556
O23 Rb1 3.047210 1_556
