# generated using pymatgen
data_Mn4Hg3Au
_symmetry_space_group_name_H-M   'P 1'
_cell_length_a   6.63344800
_cell_length_b   6.63344800
_cell_length_c   26.12971000
_cell_angle_alpha   90.00000000
_cell_angle_beta   90.00000000
_cell_angle_gamma   90.00000000
_symmetry_Int_Tables_number   1
_chemical_formula_structural   Mn4Hg3Au
_chemical_formula_sum   'Mn32 Hg24 Au8'
_cell_volume   1149.77602303
_cell_formula_units_Z   8
loop_
 _symmetry_equiv_pos_site_id
 _symmetry_equiv_pos_as_xyz
  1  'x, y, z'
loop_
 _atom_site_type_symbol
 _atom_site_label
 _atom_site_symmetry_multiplicity
 _atom_site_fract_x
 _atom_site_fract_y
 _atom_site_fract_z
 _atom_site_occupancy
  Mn  Mn0_0  1  0.25000000  0.25000000  0.05819250  1
  Mn  Mn0_1  1  0.25000000  0.25000000  0.55819250  1
  Mn  Mn0_2  1  0.25000000  0.75000000  0.05819250  1
  Mn  Mn0_3  1  0.25000000  0.75000000  0.55819250  1
  Mn  Mn0_4  1  0.75000000  0.25000000  0.05819250  1
  Mn  Mn0_5  1  0.75000000  0.25000000  0.55819250  1
  Mn  Mn0_6  1  0.75000000  0.75000000  0.05819250  1
  Mn  Mn0_7  1  0.75000000  0.75000000  0.55819250  1
  Mn  Mn1_0  1  0.25000000  0.25000000  0.18716400  1
  Mn  Mn1_1  1  0.25000000  0.25000000  0.68716400  1
  Mn  Mn1_2  1  0.25000000  0.75000000  0.18716400  1
  Mn  Mn1_3  1  0.25000000  0.75000000  0.68716400  1
  Mn  Mn1_4  1  0.75000000  0.25000000  0.18716400  1
  Mn  Mn1_5  1  0.75000000  0.25000000  0.68716400  1
  Mn  Mn1_6  1  0.75000000  0.75000000  0.18716400  1
  Mn  Mn1_7  1  0.75000000  0.75000000  0.68716400  1
  Mn  Mn2_0  1  0.25000000  0.25000000  0.31283600  1
  Mn  Mn2_1  1  0.25000000  0.25000000  0.81283600  1
  Mn  Mn2_2  1  0.25000000  0.75000000  0.31283600  1
  Mn  Mn2_3  1  0.25000000  0.75000000  0.81283600  1
  Mn  Mn2_4  1  0.75000000  0.25000000  0.31283600  1
  Mn  Mn2_5  1  0.75000000  0.25000000  0.81283600  1
  Mn  Mn2_6  1  0.75000000  0.75000000  0.31283600  1
  Mn  Mn2_7  1  0.75000000  0.75000000  0.81283600  1
  Mn  Mn3_0  1  0.25000000  0.25000000  0.44180750  1
  Mn  Mn3_1  1  0.25000000  0.25000000  0.94180750  1
  Mn  Mn3_2  1  0.25000000  0.75000000  0.44180750  1
  Mn  Mn3_3  1  0.25000000  0.75000000  0.94180750  1
  Mn  Mn3_4  1  0.75000000  0.25000000  0.44180750  1
  Mn  Mn3_5  1  0.75000000  0.25000000  0.94180750  1
  Mn  Mn3_6  1  0.75000000  0.75000000  0.44180750  1
  Mn  Mn3_7  1  0.75000000  0.75000000  0.94180750  1
  Hg  Hg0_0  1  0.00000000  0.00000000  0.12412850  1
  Hg  Hg0_1  1  0.00000000  0.00000000  0.62412850  1
  Hg  Hg0_2  1  0.00000000  0.50000000  0.12412850  1
  Hg  Hg0_3  1  0.00000000  0.50000000  0.62412850  1
  Hg  Hg0_4  1  0.50000000  0.00000000  0.12412850  1
  Hg  Hg0_5  1  0.50000000  0.00000000  0.62412850  1
  Hg  Hg0_6  1  0.50000000  0.50000000  0.12412850  1
  Hg  Hg0_7  1  0.50000000  0.50000000  0.62412850  1
  Hg  Hg1_0  1  0.00000000  0.00000000  0.25000000  1
  Hg  Hg1_1  1  0.00000000  0.00000000  0.75000000  1
  Hg  Hg1_2  1  0.00000000  0.50000000  0.25000000  1
  Hg  Hg1_3  1  0.00000000  0.50000000  0.75000000  1
  Hg  Hg1_4  1  0.50000000  0.00000000  0.25000000  1
  Hg  Hg1_5  1  0.50000000  0.00000000  0.75000000  1
  Hg  Hg1_6  1  0.50000000  0.50000000  0.25000000  1
  Hg  Hg1_7  1  0.50000000  0.50000000  0.75000000  1
  Hg  Hg2_0  1  0.00000000  0.00000000  0.37587150  1
  Hg  Hg2_1  1  0.00000000  0.00000000  0.87587150  1
  Hg  Hg2_2  1  0.00000000  0.50000000  0.37587150  1
  Hg  Hg2_3  1  0.00000000  0.50000000  0.87587150  1
  Hg  Hg2_4  1  0.50000000  0.00000000  0.37587150  1
  Hg  Hg2_5  1  0.50000000  0.00000000  0.87587150  1
  Hg  Hg2_6  1  0.50000000  0.50000000  0.37587150  1
  Hg  Hg2_7  1  0.50000000  0.50000000  0.87587150  1
  Au  Au0_0  1  0.00000000  0.00000000  0.00000000  1
  Au  Au0_1  1  0.00000000  0.00000000  0.50000000  1
  Au  Au0_2  1  0.00000000  0.50000000  0.00000000  1
  Au  Au0_3  1  0.00000000  0.50000000  0.50000000  1
  Au  Au0_4  1  0.50000000  0.00000000  0.00000000  1
  Au  Au0_5  1  0.50000000  0.00000000  0.50000000  1
  Au  Au0_6  1  0.50000000  0.50000000  0.00000000  1
  Au  Au0_7  1  0.50000000  0.50000000  0.50000000  1
loop_
_geom_bond_atom_site_label_1
_geom_bond_atom_site_label_2
_geom_bond_distance
_geom_bond_site_symmetry_2
Mn0_0 Mn3_1 3.041106 1_554
Mn0_0 Mn0_2 3.316724 1_555
Mn0_0 Mn0_4 3.316724 1_555
Mn0_0 Mn0_2 3.316724 1_545
Mn0_0 Mn0_4 3.316724 1_455
Mn0_0 Mn1_0 3.369988 1_555
Mn0_1 Mn3_0 3.041106 1_555
Mn0_1 Mn0_3 3.316724 1_555
Mn0_1 Mn0_5 3.316724 1_555
Mn0_1 Mn0_3 3.316724 1_545
Mn0_1 Mn0_5 3.316724 1_455
Mn0_1 Mn1_1 3.369988 1_555
Mn0_2 Mn3_3 3.041106 1_554
Mn0_2 Mn0_6 3.316724 1_555
Mn0_2 Mn0_6 3.316724 1_455
Mn0_2 Mn1_2 3.369988 1_555
Mn0_3 Mn3_2 3.041106 1_555
Mn0_3 Mn0_7 3.316724 1_555
Mn0_3 Mn0_7 3.316724 1_455
Mn0_3 Mn1_3 3.369988 1_555
Mn0_4 Mn3_5 3.041106 1_554
Mn0_4 Mn0_6 3.316724 1_555
Mn0_4 Mn0_6 3.316724 1_545
Mn0_4 Mn1_4 3.369988 1_555
Mn0_5 Mn3_4 3.041106 1_555
Mn0_5 Mn0_7 3.316724 1_555
Mn0_5 Mn0_7 3.316724 1_545
Mn0_5 Mn1_5 3.369988 1_555
Mn0_6 Mn3_7 3.041106 1_554
Mn0_6 Mn1_6 3.369988 1_555
Mn0_7 Mn3_6 3.041106 1_555
Mn0_7 Mn1_7 3.369988 1_555
Mn2_0 Mn3_0 3.369988 1_555
Mn2_1 Mn3_1 3.369988 1_555
Mn2_2 Mn3_2 3.369988 1_555
Mn2_3 Mn3_3 3.369988 1_555
Mn2_4 Mn3_4 3.369988 1_555
Mn2_5 Mn3_5 3.369988 1_555
Mn2_6 Mn3_6 3.369988 1_555
Mn2_7 Mn3_7 3.369988 1_555
Mn3_0 Mn3_4 3.316724 1_555
Mn3_0 Mn3_2 3.316724 1_555
Mn3_0 Mn3_2 3.316724 1_545
Mn3_0 Mn3_4 3.316724 1_455
Mn3_1 Mn3_3 3.316724 1_555
Mn3_1 Mn3_5 3.316724 1_555
Mn3_1 Mn3_3 3.316724 1_545
Mn3_1 Mn3_5 3.316724 1_455
Mn3_2 Mn3_6 3.316724 1_555
Mn3_2 Mn3_6 3.316724 1_455
Mn3_3 Mn3_7 3.316724 1_555
Mn3_3 Mn3_7 3.316724 1_455
Mn3_4 Mn3_6 3.316724 1_555
Mn3_4 Mn3_6 3.316724 1_545
Mn3_5 Mn3_7 3.316724 1_555
Mn3_5 Mn3_7 3.316724 1_545
Hg0_0 Mn1_0 2.865879 1_555
Hg0_0 Mn1_2 2.865879 1_545
Hg0_0 Mn1_4 2.865879 1_455
Hg0_0 Mn1_6 2.865879 1_445
Hg0_0 Mn0_0 2.910099 1_555
Hg0_0 Mn0_2 2.910099 1_545
Hg0_0 Mn0_4 2.910099 1_455
Hg0_0 Mn0_6 2.910099 1_445
Hg0_1 Mn1_1 2.865879 1_555
Hg0_1 Mn1_3 2.865879 1_545
Hg0_1 Mn1_5 2.865879 1_455
Hg0_1 Mn1_7 2.865879 1_445
Hg0_1 Mn0_1 2.910099 1_555
Hg0_1 Mn0_3 2.910099 1_545
Hg0_1 Mn0_5 2.910099 1_455
Hg0_1 Mn0_7 2.910099 1_445
Hg0_2 Mn1_6 2.865879 1_455
Hg0_2 Mn1_2 2.865879 1_555
Hg0_2 Mn1_0 2.865879 1_555
Hg0_2 Mn1_4 2.865879 1_455
Hg0_2 Mn0_2 2.910099 1_555
Hg0_2 Mn0_0 2.910099 1_555
Hg0_2 Mn0_6 2.910099 1_455
Hg0_2 Mn0_4 2.910099 1_455
Hg0_3 Mn1_3 2.865879 1_555
Hg0_3 Mn1_7 2.865879 1_455
Hg0_3 Mn1_1 2.865879 1_555
Hg0_3 Mn1_5 2.865879 1_455
Hg0_3 Mn0_3 2.910099 1_555
Hg0_3 Mn0_7 2.910099 1_455
Hg0_3 Mn0_1 2.910099 1_555
Hg0_3 Mn0_5 2.910099 1_455
Hg0_4 Mn1_4 2.865879 1_555
Hg0_4 Mn1_0 2.865879 1_555
Hg0_4 Mn1_6 2.865879 1_545
Hg0_4 Mn1_2 2.865879 1_545
Hg0_4 Mn0_4 2.910099 1_555
Hg0_4 Mn0_0 2.910099 1_555
Hg0_4 Mn0_6 2.910099 1_545
Hg0_4 Mn0_2 2.910099 1_545
Hg0_5 Mn1_5 2.865879 1_555
Hg0_5 Mn1_7 2.865879 1_545
Hg0_5 Mn1_1 2.865879 1_555
Hg0_5 Mn1_3 2.865879 1_545
Hg0_5 Mn0_5 2.910099 1_555
Hg0_5 Mn0_1 2.910099 1_555
Hg0_5 Mn0_7 2.910099 1_545
Hg0_5 Mn0_3 2.910099 1_545
Hg0_6 Mn1_6 2.865879 1_555
Hg0_6 Mn1_4 2.865879 1_555
Hg0_6 Mn1_2 2.865879 1_555
Hg0_6 Mn1_0 2.865879 1_555
Hg0_6 Mn0_6 2.910099 1_555
Hg0_6 Mn0_2 2.910099 1_555
Hg0_6 Mn0_4 2.910099 1_555
Hg0_6 Mn0_0 2.910099 1_555
Hg0_7 Mn1_7 2.865879 1_555
Hg0_7 Mn1_5 2.865879 1_555
Hg0_7 Mn1_3 2.865879 1_555
Hg0_7 Mn1_1 2.865879 1_555
Hg0_7 Mn0_7 2.910099 1_555
Hg0_7 Mn0_5 2.910099 1_555
Hg0_7 Mn0_3 2.910099 1_555
Hg0_7 Mn0_1 2.910099 1_555
Hg1_0 Mn2_0 2.862887 1_555
Hg1_0 Mn1_0 2.862887 1_555
Hg1_0 Mn1_2 2.862887 1_545
Hg1_0 Mn2_2 2.862887 1_545
Hg1_0 Mn2_4 2.862887 1_455
Hg1_0 Mn2_6 2.862887 1_445
Hg1_0 Mn1_4 2.862887 1_455
Hg1_0 Mn1_6 2.862887 1_445
Hg1_1 Mn1_1 2.862887 1_555
Hg1_1 Mn1_5 2.862887 1_455
Hg1_1 Mn1_3 2.862887 1_545
Hg1_1 Mn1_7 2.862887 1_445
Hg1_1 Mn2_1 2.862887 1_555
Hg1_1 Mn2_3 2.862887 1_545
Hg1_1 Mn2_5 2.862887 1_455
Hg1_1 Mn2_7 2.862887 1_445
Hg1_2 Mn2_6 2.862887 1_455
Hg1_2 Mn1_6 2.862887 1_455
Hg1_2 Mn2_2 2.862887 1_555
Hg1_2 Mn1_2 2.862887 1_555
Hg1_2 Mn2_0 2.862887 1_555
Hg1_2 Mn1_0 2.862887 1_555
Hg1_2 Mn2_4 2.862887 1_455
Hg1_2 Mn1_4 2.862887 1_455
Hg1_3 Mn1_3 2.862887 1_555
Hg1_3 Mn1_7 2.862887 1_455
Hg1_3 Mn1_1 2.862887 1_555
Hg1_3 Mn1_5 2.862887 1_455
Hg1_3 Mn2_3 2.862887 1_555
Hg1_3 Mn2_1 2.862887 1_555
Hg1_3 Mn2_7 2.862887 1_455
Hg1_3 Mn2_5 2.862887 1_455
Hg1_4 Mn2_4 2.862887 1_555
Hg1_4 Mn2_6 2.862887 1_545
Hg1_4 Mn1_4 2.862887 1_555
Hg1_4 Mn2_0 2.862887 1_555
Hg1_4 Mn1_0 2.862887 1_555
Hg1_4 Mn1_6 2.862887 1_545
Hg1_4 Mn1_2 2.862887 1_545
Hg1_4 Mn2_2 2.862887 1_545
Hg1_5 Mn1_5 2.862887 1_555
Hg1_5 Mn1_7 2.862887 1_545
Hg1_5 Mn1_1 2.862887 1_555
Hg1_5 Mn1_3 2.862887 1_545
Hg1_5 Mn2_5 2.862887 1_555
Hg1_5 Mn2_1 2.862887 1_555
Hg1_5 Mn2_7 2.862887 1_545
Hg1_5 Mn2_3 2.862887 1_545
Hg1_6 Mn2_6 2.862887 1_555
Hg1_6 Mn1_6 2.862887 1_555
Hg1_6 Mn2_4 2.862887 1_555
Hg1_6 Mn1_4 2.862887 1_555
Hg1_6 Mn2_2 2.862887 1_555
Hg1_6 Mn1_2 2.862887 1_555
Hg1_6 Mn2_0 2.862887 1_555
Hg1_6 Mn1_0 2.862887 1_555
Hg1_7 Mn1_7 2.862887 1_555
Hg1_7 Mn1_5 2.862887 1_555
Hg1_7 Mn1_3 2.862887 1_555
Hg1_7 Mn1_1 2.862887 1_555
Hg1_7 Mn2_5 2.862887 1_555
Hg1_7 Mn2_3 2.862887 1_555
Hg1_7 Mn2_7 2.862887 1_555
Hg1_7 Mn2_1 2.862887 1_555
Hg2_0 Mn2_0 2.865879 1_555
Hg2_0 Mn2_4 2.865879 1_455
Hg2_0 Mn2_2 2.865879 1_545
Hg2_0 Mn2_6 2.865879 1_445
Hg2_0 Mn3_0 2.910099 1_555
Hg2_0 Mn3_4 2.910099 1_455
Hg2_0 Mn3_6 2.910099 1_445
Hg2_0 Mn3_2 2.910099 1_545
Hg2_1 Mn2_1 2.865879 1_555
Hg2_1 Mn2_7 2.865879 1_445
Hg2_1 Mn2_3 2.865879 1_545
Hg2_1 Mn2_5 2.865879 1_455
Hg2_1 Mn3_1 2.910099 1_555
Hg2_1 Mn3_5 2.910099 1_455
Hg2_1 Mn3_3 2.910099 1_545
Hg2_1 Mn3_7 2.910099 1_445
Hg2_2 Mn2_2 2.865879 1_555
Hg2_2 Mn2_6 2.865879 1_455
Hg2_2 Mn2_0 2.865879 1_555
Hg2_2 Mn2_4 2.865879 1_455
Hg2_2 Mn3_2 2.910099 1_555
Hg2_2 Mn3_6 2.910099 1_455
Hg2_2 Mn3_0 2.910099 1_555
Hg2_2 Mn3_4 2.910099 1_455
Hg2_3 Mn2_3 2.865879 1_555
Hg2_3 Mn2_7 2.865879 1_455
Hg2_3 Mn2_1 2.865879 1_555
Hg2_3 Mn2_5 2.865879 1_455
Hg2_3 Mn3_3 2.910099 1_555
Hg2_3 Mn3_1 2.910099 1_555
Hg2_3 Mn3_7 2.910099 1_455
Hg2_3 Mn3_5 2.910099 1_455
Hg2_4 Mn2_4 2.865879 1_555
Hg2_4 Mn2_6 2.865879 1_545
Hg2_4 Mn2_0 2.865879 1_555
Hg2_4 Mn2_2 2.865879 1_545
Hg2_4 Mn3_4 2.910099 1_555
Hg2_4 Mn3_6 2.910099 1_545
Hg2_4 Mn3_0 2.910099 1_555
Hg2_4 Mn3_2 2.910099 1_545
Hg2_5 Mn2_5 2.865879 1_555
Hg2_5 Mn2_1 2.865879 1_555
Hg2_5 Mn2_7 2.865879 1_545
Hg2_5 Mn2_3 2.865879 1_545
Hg2_5 Mn3_5 2.910099 1_555
Hg2_5 Mn3_1 2.910099 1_555
Hg2_5 Mn3_7 2.910099 1_545
Hg2_5 Mn3_3 2.910099 1_545
Hg2_6 Mn2_6 2.865879 1_555
Hg2_6 Mn2_4 2.865879 1_555
Hg2_6 Mn2_2 2.865879 1_555
Hg2_6 Mn2_0 2.865879 1_555
Hg2_6 Mn3_6 2.910099 1_555
Hg2_6 Mn3_4 2.910099 1_555
Hg2_6 Mn3_2 2.910099 1_555
Hg2_6 Mn3_0 2.910099 1_555
Hg2_7 Mn2_7 2.865879 1_555
Hg2_7 Mn2_5 2.865879 1_555
Hg2_7 Mn2_3 2.865879 1_555
Hg2_7 Mn2_1 2.865879 1_555
Hg2_7 Mn3_7 2.910099 1_555
Hg2_7 Mn3_5 2.910099 1_555
Hg2_7 Mn3_3 2.910099 1_555
Hg2_7 Mn3_1 2.910099 1_555
Au0_0 Mn0_0 2.795069 1_555
Au0_0 Mn0_2 2.795069 1_545
Au0_0 Mn0_4 2.795069 1_455
Au0_0 Mn0_6 2.795069 1_445
Au0_0 Mn3_1 2.795069 1_554
Au0_0 Mn3_5 2.795069 1_454
Au0_0 Mn3_3 2.795069 1_544
Au0_0 Mn3_7 2.795069 1_444
Au0_1 Mn0_1 2.795069 1_555
Au0_1 Mn0_3 2.795069 1_545
Au0_1 Mn0_5 2.795069 1_455
Au0_1 Mn0_7 2.795069 1_445
Au0_1 Mn3_0 2.795069 1_555
Au0_1 Mn3_2 2.795069 1_545
Au0_1 Mn3_4 2.795069 1_455
Au0_1 Mn3_6 2.795069 1_445
Au0_2 Mn0_6 2.795069 1_455
Au0_2 Mn0_2 2.795069 1_555
Au0_2 Mn0_0 2.795069 1_555
Au0_2 Mn0_4 2.795069 1_455
Au0_2 Mn3_3 2.795069 1_554
Au0_2 Mn3_1 2.795069 1_554
Au0_2 Mn3_7 2.795069 1_454
Au0_2 Mn3_5 2.795069 1_454
Au0_3 Mn0_3 2.795069 1_555
Au0_3 Mn0_7 2.795069 1_455
Au0_3 Mn0_1 2.795069 1_555
Au0_3 Mn0_5 2.795069 1_455
Au0_3 Mn3_2 2.795069 1_555
Au0_3 Mn3_6 2.795069 1_455
Au0_3 Mn3_0 2.795069 1_555
Au0_3 Mn3_4 2.795069 1_455
Au0_4 Mn0_0 2.795069 1_555
Au0_4 Mn0_4 2.795069 1_555
Au0_4 Mn0_6 2.795069 1_545
Au0_4 Mn0_2 2.795069 1_545
Au0_4 Mn3_5 2.795069 1_554
Au0_4 Mn3_1 2.795069 1_554
Au0_4 Mn3_7 2.795069 1_544
Au0_4 Mn3_3 2.795069 1_544
Au0_5 Mn0_5 2.795069 1_555
Au0_5 Mn0_7 2.795069 1_545
Au0_5 Mn0_1 2.795069 1_555
Au0_5 Mn0_3 2.795069 1_545
Au0_5 Mn3_4 2.795069 1_555
Au0_5 Mn3_0 2.795069 1_555
Au0_5 Mn3_6 2.795069 1_545
Au0_5 Mn3_2 2.795069 1_545
Au0_6 Mn0_6 2.795069 1_555
Au0_6 Mn0_2 2.795069 1_555
Au0_6 Mn0_0 2.795069 1_555
Au0_6 Mn0_4 2.795069 1_555
Au0_6 Mn3_7 2.795069 1_554
Au0_6 Mn3_5 2.795069 1_554
Au0_6 Mn3_3 2.795069 1_554
Au0_6 Mn3_1 2.795069 1_554
Au0_7 Mn0_7 2.795069 1_555
Au0_7 Mn0_5 2.795069 1_555
Au0_7 Mn0_3 2.795069 1_555
Au0_7 Mn0_1 2.795069 1_555
Au0_7 Mn3_6 2.795069 1_555
Au0_7 Mn3_4 2.795069 1_555
Au0_7 Mn3_2 2.795069 1_555
Au0_7 Mn3_0 2.795069 1_555
