# generated using pymatgen
data_Mg6AlBi
_symmetry_space_group_name_H-M   'P 1'
_cell_length_a   5.26361300
_cell_length_b   6.54449500
_cell_length_c   10.84032700
_cell_angle_alpha   90.00000000
_cell_angle_beta   90.00000000
_cell_angle_gamma   90.00000000
_symmetry_Int_Tables_number   1
_chemical_formula_structural   Mg6AlBi
_chemical_formula_sum   'Mg12 Al2 Bi2'
_cell_volume   373.42421273
_cell_formula_units_Z   2
loop_
 _symmetry_equiv_pos_site_id
 _symmetry_equiv_pos_as_xyz
  1  'x, y, z'
loop_
 _atom_site_type_symbol
 _atom_site_label
 _atom_site_symmetry_multiplicity
 _atom_site_fract_x
 _atom_site_fract_y
 _atom_site_fract_z
 _atom_site_occupancy
  Mg  Mg0  1  0.00000000  0.24915000  0.58387600  1
  Mg  Mg1  1  0.00000000  0.75085000  0.58387600  1
  Mg  Mg2  1  0.50000000  0.25994500  0.41669300  1
  Mg  Mg3  1  0.50000000  0.74005500  0.41669300  1
  Mg  Mg4  1  0.50000000  0.00000000  0.66929100  1
  Mg  Mg5  1  0.50000000  0.00000000  0.16412100  1
  Mg  Mg6  1  0.00000000  0.74915000  0.08387600  1
  Mg  Mg7  1  0.00000000  0.25085000  0.08387600  1
  Mg  Mg8  1  0.50000000  0.75994500  0.91669300  1
  Mg  Mg9  1  0.50000000  0.24005500  0.91669300  1
  Mg  Mg10  1  0.50000000  0.50000000  0.16929100  1
  Mg  Mg11  1  0.50000000  0.50000000  0.66412100  1
  Al  Al0  1  0.00000000  0.00000000  0.83248100  1
  Al  Al1  1  0.00000000  0.50000000  0.33248100  1
  Bi  Bi0  1  0.00000000  0.00000000  0.33297300  1
  Bi  Bi1  1  0.00000000  0.50000000  0.83297300  1
loop_
_geom_bond_atom_site_label_1
_geom_bond_atom_site_label_2
_geom_bond_distance
_geom_bond_site_symmetry_2
Mg0 Mg2 3.196231 1_455
Mg0 Mg2 3.196231 1_555
Mg0 Mg11 3.221527 1_455
Mg0 Mg11 3.221527 1_555
Mg0 Mg4 3.231482 1_555
Mg0 Mg4 3.231482 1_455
Mg0 Mg1 3.261122 1_545
Mg0 Mg1 3.283373 1_555
Mg1 Mg3 3.196231 1_455
Mg1 Mg3 3.196231 1_555
Mg1 Mg11 3.221527 1_455
Mg1 Mg11 3.221527 1_555
Mg1 Mg4 3.231482 1_465
Mg1 Mg4 3.231482 1_565
Mg2 Mg3 3.142077 1_555
Mg2 Mg5 3.223438 1_555
Mg2 Mg4 3.223677 1_555
Mg2 Mg3 3.402418 1_545
Mg3 Mg5 3.223438 1_565
Mg3 Mg4 3.223677 1_565
Mg4 Mg8 3.108191 1_545
Mg4 Mg9 3.108191 1_555
Mg5 Mg9 3.108434 1_554
Mg5 Mg8 3.108434 1_544
Mg5 Mg6 3.221527 1_645
Mg5 Mg6 3.221527 1_545
Mg5 Mg7 3.221527 1_555
Mg5 Mg7 3.221527 1_655
Mg6 Mg8 3.196231 1_454
Mg6 Mg8 3.196231 1_554
Mg6 Mg7 3.261122 1_555
Mg6 Mg7 3.283373 1_565
Mg7 Mg9 3.196231 1_554
Mg7 Mg9 3.196231 1_454
Mg8 Mg9 3.142077 1_565
Mg8 Mg9 3.402418 1_555
Mg10 Mg3 3.108191 1_555
Mg10 Mg2 3.108191 1_555
Mg10 Mg9 3.223677 1_554
Mg10 Mg8 3.223677 1_554
Mg10 Mg6 3.231482 1_655
Mg10 Mg7 3.231482 1_555
Mg10 Mg7 3.231482 1_655
Mg10 Mg6 3.231482 1_555
Mg10 Mg5 3.272727 1_565
Mg10 Mg5 3.272727 1_555
Mg11 Mg2 3.108434 1_555
Mg11 Mg3 3.108434 1_555
Mg11 Mg9 3.223438 1_555
Mg11 Mg8 3.223438 1_555
Mg11 Mg4 3.272727 1_555
Mg11 Mg4 3.272727 1_565
Al0 Mg0 3.149847 1_555
Al0 Mg1 3.149847 1_545
Al0 Mg4 3.171101 1_455
Al0 Mg4 3.171101 1_555
Al0 Mg6 3.181489 1_546
Al0 Mg7 3.181489 1_556
Al0 Mg8 3.198113 1_445
Al0 Mg8 3.198113 1_545
Al0 Mg9 3.198113 1_455
Al0 Mg9 3.198113 1_555
Al0 Bi1 3.272252 1_545
Al0 Bi1 3.272252 1_555
Al1 Mg6 3.149847 1_555
Al1 Mg7 3.149847 1_555
Al1 Mg10 3.171101 1_455
Al1 Mg10 3.171101 1_555
Al1 Mg1 3.181489 1_555
Al1 Mg0 3.181489 1_555
Al1 Mg2 3.198113 1_455
Al1 Mg2 3.198113 1_555
Al1 Mg3 3.198113 1_455
Al1 Mg3 3.198113 1_555
Al1 Bi0 3.272252 1_555
Al1 Bi0 3.272252 1_565
Bi0 Mg6 3.160177 1_545
Bi0 Mg7 3.160177 1_555
Bi0 Mg0 3.171187 1_555
Bi0 Mg1 3.171187 1_545
Bi0 Mg5 3.205746 1_555
Bi0 Mg5 3.205746 1_455
Bi0 Mg3 3.262540 1_445
Bi0 Mg3 3.262540 1_545
Bi0 Mg2 3.262540 1_455
Bi0 Mg2 3.262540 1_555
Bi1 Mg0 3.160177 1_555
Bi1 Mg1 3.160177 1_555
Bi1 Mg6 3.171187 1_556
Bi1 Mg7 3.171187 1_556
Bi1 Mg11 3.205746 1_455
Bi1 Mg11 3.205746 1_555
Bi1 Mg8 3.262540 1_455
Bi1 Mg8 3.262540 1_555
Bi1 Mg9 3.262540 1_555
Bi1 Mg9 3.262540 1_455
