# generated using pymatgen
data_Mg3Fe2O7
_symmetry_space_group_name_H-M   'P 1'
_cell_length_a   5.42976703
_cell_length_b   5.11775447
_cell_length_c   9.14156058
_cell_angle_alpha   106.27448533
_cell_angle_beta   90.00194793
_cell_angle_gamma   89.98905533
_symmetry_Int_Tables_number   1
_chemical_formula_structural   Mg3Fe2O7
_chemical_formula_sum   'Mg6 Fe4 O14'
_cell_volume   243.84880016
_cell_formula_units_Z   2
loop_
 _symmetry_equiv_pos_site_id
 _symmetry_equiv_pos_as_xyz
  1  'x, y, z'
loop_
 _atom_site_type_symbol
 _atom_site_label
 _atom_site_symmetry_multiplicity
 _atom_site_fract_x
 _atom_site_fract_y
 _atom_site_fract_z
 _atom_site_occupancy
  Mg  Mg0  1  0.68213800  0.76467400  0.99969000  1
  Mg  Mg1  1  0.18214700  0.23534200  0.00035300  1
  Mg  Mg2  1  0.83013200  0.56623200  0.61581600  1
  Mg  Mg3  1  0.33017900  0.43379600  0.38417300  1
  Mg  Mg4  1  0.83004700  0.95030300  0.38418700  1
  Mg  Mg5  1  0.33009100  0.04967000  0.61579800  1
  Fe  Fe0  1  0.75233300  0.35496900  0.20907700  1
  Fe  Fe1  1  0.25235500  0.64505100  0.79091200  1
  Fe  Fe2  1  0.25237000  0.85377500  0.20888700  1
  Fe  Fe3  1  0.75243800  0.14623900  0.79111300  1
  O  O0  1  0.70104000  0.92325400  0.58829900  1
  O  O1  1  0.20099700  0.07692100  0.41175300  1
  O  O2  1  0.20106400  0.66534600  0.58813100  1
  O  O3  1  0.70107800  0.33471300  0.41180800  1
  O  O4  1  0.05800100  0.31647900  0.73160600  1
  O  O5  1  0.55807100  0.68344100  0.26838200  1
  O  O6  1  0.55845000  0.41600900  0.73218000  1
  O  O7  1  0.05836400  0.58393200  0.26784100  1
  O  O8  1  0.92264900  0.86003900  0.84371000  1
  O  O9  1  0.42270300  0.13999600  0.15629900  1
  O  O10  1  0.80902000  0.38013500  0.99992600  1
  O  O11  1  0.30906700  0.61974800  0.00008700  1
  O  O12  1  0.92266500  0.01561500  0.15620100  1
  O  O13  1  0.42260700  0.98432200  0.84377300  1
loop_
_geom_bond_atom_site_label_1
_geom_bond_atom_site_label_2
_geom_bond_distance
_geom_bond_site_symmetry_2
Mg0 O10 2.085530 1_555
Mg0 O8 2.089792 1_555
Mg0 O12 2.091095 1_566
Mg0 O11 2.157689 1_556
Mg0 O13 2.485609 1_555
Mg0 O9 2.486223 1_566
Mg0 O6 2.677677 1_555
Mg0 O5 2.689317 1_556
Mg1 O11 2.085277 1_555
Mg1 O9 2.089494 1_555
Mg1 O13 2.091116 1_544
Mg1 O10 2.157501 1_454
Mg1 O12 2.485563 1_455
Mg1 O8 2.486830 1_444
Mg1 O7 2.677373 1_555
Mg1 O4 2.689622 1_554
Mg2 O3 2.033395 1_555
Mg2 O0 2.037198 1_555
Mg2 O6 2.087500 1_555
Mg2 O2 2.109554 1_655
Mg2 O4 2.245576 1_655
Mg2 O8 2.257860 1_555
Mg3 O2 2.033104 1_555
Mg3 O1 2.037128 1_555
Mg3 O7 2.087345 1_555
Mg3 O3 2.109052 1_555
Mg3 O5 2.245572 1_555
Mg3 O9 2.257623 1_555
Mg4 O0 2.033794 1_555
Mg4 O3 2.036060 1_565
Mg4 O5 2.087366 1_555
Mg4 O1 2.109321 1_665
Mg4 O7 2.250597 1_655
Mg4 O12 2.258070 1_565
Mg5 O1 2.033658 1_555
Mg5 O2 2.035949 1_545
Mg5 O4 2.087356 1_555
Mg5 O0 2.108793 1_545
Mg5 O6 2.251041 1_555
Mg5 O13 2.257864 1_545
Fe0 O3 1.905404 1_555
Fe0 O12 1.906346 1_555
Fe0 O5 1.928982 1_555
Fe0 O10 1.976111 1_554
Fe0 O7 2.017594 1_655
Fe0 O9 2.085617 1_555
Fe1 O2 1.905925 1_555
Fe1 O13 1.906085 1_555
Fe1 O4 1.929992 1_555
Fe1 O11 1.976557 1_556
Fe1 O6 2.017716 1_555
Fe1 O8 2.085689 1_455
Fe2 O9 1.904569 1_565
Fe2 O1 1.906331 1_565
Fe2 O7 1.930022 1_555
Fe2 O11 1.972608 1_555
Fe2 O5 2.018922 1_555
Fe2 O12 2.084666 1_465
Fe3 O8 1.903908 1_545
Fe3 O0 1.905745 1_545
Fe3 O6 1.929272 1_555
Fe3 O10 1.972432 1_555
Fe3 O4 2.018409 1_655
Fe3 O13 2.085654 1_545
