# generated using pymatgen
data_Mg5CuN4
_symmetry_space_group_name_H-M   'P 1'
_cell_length_a   7.19943200
_cell_length_b   6.55087400
_cell_length_c   5.24556100
_cell_angle_alpha   90.00000000
_cell_angle_beta   90.00000000
_cell_angle_gamma   90.00000000
_symmetry_Int_Tables_number   1
_chemical_formula_structural   Mg5CuN4
_chemical_formula_sum   'Mg10 Cu2 N8'
_cell_volume   247.39414784
_cell_formula_units_Z   2
loop_
 _symmetry_equiv_pos_site_id
 _symmetry_equiv_pos_as_xyz
  1  'x, y, z'
loop_
 _atom_site_type_symbol
 _atom_site_label
 _atom_site_symmetry_multiplicity
 _atom_site_fract_x
 _atom_site_fract_y
 _atom_site_fract_z
 _atom_site_occupancy
  Mg  Mg0  1  0.55048600  0.50552300  0.25127500  1
  Mg  Mg1  1  0.94951400  0.50552300  0.25127500  1
  Mg  Mg2  1  0.55048600  0.99447700  0.25127500  1
  Mg  Mg3  1  0.94951400  0.99447700  0.25127500  1
  Mg  Mg4  1  0.44951400  0.49447700  0.74872500  1
  Mg  Mg5  1  0.05048600  0.49447700  0.74872500  1
  Mg  Mg6  1  0.44951400  0.00552300  0.74872500  1
  Mg  Mg7  1  0.05048600  0.00552300  0.74872500  1
  Mg  Mg8  1  0.75000000  0.75000000  0.71596900  1
  Mg  Mg9  1  0.25000000  0.25000000  0.28403100  1
  Cu  Cu0  1  0.75000000  0.25000000  0.72172800  1
  Cu  Cu1  1  0.25000000  0.75000000  0.27827200  1
  N  N0  1  0.75000000  0.00153700  0.95920500  1
  N  N1  1  0.75000000  0.49846300  0.95920500  1
  N  N2  1  0.25000000  0.99846300  0.04079500  1
  N  N3  1  0.25000000  0.50153700  0.04079500  1
  N  N4  1  0.50377800  0.75000000  0.50826000  1
  N  N5  1  0.99622200  0.75000000  0.50826000  1
  N  N6  1  0.49622200  0.25000000  0.49174000  1
  N  N7  1  0.00377800  0.25000000  0.49174000  1
loop_
_geom_bond_atom_site_label_1
_geom_bond_atom_site_label_2
_geom_bond_distance
_geom_bond_site_symmetry_2
Mg0 N1 2.100616 1_554
Mg0 N4 2.120186 1_555
Mg0 N6 2.132047 1_555
Mg0 N3 2.428925 1_555
Mg1 N1 2.100616 1_554
Mg1 N5 2.120186 1_555
Mg1 N7 2.132047 1_655
Mg1 N3 2.428925 1_655
Mg2 N0 2.100616 1_564
Mg2 N4 2.120186 1_555
Mg2 N6 2.132047 1_565
Mg2 N2 2.428925 1_555
Mg3 N0 2.100616 1_564
Mg3 N5 2.120186 1_555
Mg3 N7 2.132047 1_665
Mg3 N2 2.428925 1_655
Mg4 N3 2.100616 1_556
Mg4 N6 2.120186 1_555
Mg4 N4 2.132047 1_555
Mg4 N1 2.428925 1_555
Mg5 N3 2.100616 1_556
Mg5 N7 2.120186 1_555
Mg5 N5 2.132047 1_455
Mg5 N1 2.428925 1_455
Mg6 N2 2.100616 1_546
Mg6 N6 2.120186 1_555
Mg6 N4 2.132047 1_545
Mg6 N0 2.428925 1_555
Mg7 N2 2.100616 1_546
Mg7 N7 2.120186 1_555
Mg7 N5 2.132047 1_445
Mg7 N0 2.428925 1_455
Mg8 N4 2.080730 1_555
Mg8 N5 2.080730 1_555
Mg8 N0 2.084022 1_565
Mg8 N1 2.084022 1_555
Mg9 N7 2.080730 1_555
Mg9 N6 2.080730 1_555
Mg9 N3 2.084022 1_555
Mg9 N2 2.084022 1_545
Cu0 N0 2.049637 1_555
Cu0 N1 2.049637 1_555
Cu0 N6 2.189424 1_555
Cu0 N7 2.189424 1_655
Cu1 N2 2.049637 1_555
Cu1 N3 2.049637 1_555
Cu1 N4 2.189424 1_555
Cu1 N5 2.189424 1_455
