# generated using pymatgen
data_Ca(GaS2)2
_symmetry_space_group_name_H-M   'P 1'
_cell_length_a   6.85549147
_cell_length_b   7.23928141
_cell_length_c   27.12208950
_cell_angle_alpha   90.00000000
_cell_angle_beta   90.00000000
_cell_angle_gamma   109.38096692
_symmetry_Int_Tables_number   1
_chemical_formula_structural   Ca(GaS2)2
_chemical_formula_sum   'Ca8 Ga16 S32'
_cell_volume   1269.76163704
_cell_formula_units_Z   8
loop_
 _symmetry_equiv_pos_site_id
 _symmetry_equiv_pos_as_xyz
  1  'x, y, z'
loop_
 _atom_site_type_symbol
 _atom_site_label
 _atom_site_symmetry_multiplicity
 _atom_site_fract_x
 _atom_site_fract_y
 _atom_site_fract_z
 _atom_site_occupancy
  Ca  Ca0  1  0.94446864  0.32736674  0.57130167  1
  Ca  Ca1  1  0.55553136  0.67263326  0.07130167  1
  Ca  Ca2  1  0.05553136  0.67263326  0.42869833  1
  Ca  Ca3  1  0.44446864  0.32736674  0.92869833  1
  Ca  Ca4  1  0.40180056  0.95669541  0.69316840  1
  Ca  Ca5  1  0.09819944  0.04330459  0.19316840  1
  Ca  Ca6  1  0.59819944  0.04330459  0.30683160  1
  Ca  Ca7  1  0.90180056  0.95669541  0.80683160  1
  Ga  Ga0  1  0.08209249  0.45019794  0.73472949  1
  Ga  Ga1  1  0.41790751  0.54980206  0.23472949  1
  Ga  Ga2  1  0.91790751  0.54980206  0.26527051  1
  Ga  Ga3  1  0.58209249  0.45019794  0.76527051  1
  Ga  Ga4  1  0.86845658  0.71052056  0.65006508  1
  Ga  Ga5  1  0.63154342  0.28947944  0.15006508  1
  Ga  Ga6  1  0.13154342  0.28947944  0.34993492  1
  Ga  Ga7  1  0.36845658  0.71052056  0.84993492  1
  Ga  Ga8  1  0.55502705  0.73119994  0.55195897  1
  Ga  Ga9  1  0.94497295  0.26880006  0.05195897  1
  Ga  Ga10  1  0.44497295  0.26880006  0.44804103  1
  Ga  Ga11  1  0.05502705  0.73119994  0.94804103  1
  Ga  Ga12  1  0.26798616  0.98396147  0.56439009  1
  Ga  Ga13  1  0.23201384  0.01603853  0.06439009  1
  Ga  Ga14  1  0.73201384  0.01603853  0.43560991  1
  Ga  Ga15  1  0.76798616  0.98396147  0.93560991  1
  S  S0  1  0.58591988  0.01108870  0.59728302  1
  S  S1  1  0.91408012  0.98891130  0.09728302  1
  S  S2  1  0.41408012  0.98891130  0.40271698  1
  S  S3  1  0.08591988  0.01108870  0.90271698  1
  S  S4  1  0.63769058  0.51026231  0.59856631  1
  S  S5  1  0.86230942  0.48973769  0.09856631  1
  S  S6  1  0.36230942  0.48973769  0.40143369  1
  S  S7  1  0.13769058  0.51026231  0.90143369  1
  S  S8  1  0.25508150  0.24264784  0.75292059  1
  S  S9  1  0.24491850  0.75735216  0.25291959  1
  S  S10  1  0.74491850  0.75735216  0.24707941  1
  S  S11  1  0.75508150  0.24264784  0.74707941  1
  S  S12  1  0.12694926  0.57183641  0.65765557  1
  S  S13  1  0.37305074  0.42816359  0.15765557  1
  S  S14  1  0.87305074  0.42816359  0.34234443  1
  S  S15  1  0.62694926  0.57183641  0.84234443  1
  S  S16  1  0.21851173  0.68628528  0.52907096  1
  S  S17  1  0.28148827  0.31371472  0.02907096  1
  S  S18  1  0.78148827  0.31371472  0.47092904  1
  S  S19  1  0.71851173  0.68628528  0.97092904  1
  S  S20  1  0.19311008  0.73844794  0.77935323  1
  S  S21  1  0.30688992  0.26155206  0.27935323  1
  S  S22  1  0.80688992  0.26155206  0.22064677  1
  S  S23  1  0.69311008  0.73844794  0.72064677  1
  S  S24  1  0.76382959  0.78401859  0.48573505  1
  S  S25  1  0.73617041  0.21598141  0.98573505  1
  S  S26  1  0.23617041  0.21598141  0.51426495  1
  S  S27  1  0.26382959  0.78401859  0.01426495  1
  S  S28  1  0.07278598  0.02141485  0.62996872  1
  S  S29  1  0.42721402  0.97858515  0.12996872  1
  S  S30  1  0.92721402  0.97858515  0.37003128  1
  S  S31  1  0.57278598  0.02141485  0.87003128  1
loop_
_geom_bond_atom_site_label_1
_geom_bond_atom_site_label_2
_geom_bond_distance
_geom_bond_site_symmetry_2
Ca0 S0 2.836475 1_555
Ca0 S26 2.848248 1_655
Ca0 S16 2.890130 1_655
Ca0 S4 2.927643 1_555
Ca0 S18 2.931870 1_555
Ca0 S12 2.951802 1_655
Ca0 S28 3.082929 1_655
Ca1 S1 2.836475 1_555
Ca1 S27 2.848248 1_555
Ca1 S17 2.890130 1_555
Ca1 S5 2.927643 1_555
Ca1 S19 2.931870 1_554
Ca1 S13 2.951802 1_555
Ca1 S29 3.082929 1_555
Ca2 S2 2.836475 1_555
Ca2 S24 2.848248 1_455
Ca2 S18 2.890130 1_455
Ca2 S6 2.927643 1_555
Ca2 S16 2.931870 1_555
Ca2 S14 2.951802 1_455
Ca2 S30 3.082929 1_455
Ca3 S3 2.836475 1_555
Ca3 S25 2.848248 1_555
Ca3 S19 2.890130 1_555
Ca3 S7 2.927643 1_555
Ca3 S17 2.931870 1_556
Ca3 S15 2.951802 1_555
Ca3 S31 3.082929 1_555
Ca4 S0 2.860347 1_565
Ca4 S20 2.916648 1_555
Ca4 S12 2.959097 1_555
Ca4 S28 2.991085 1_565
Ca4 S11 2.993563 1_565
Ca4 S23 3.022271 1_555
Ca4 S8 3.050451 1_565
Ca5 S1 2.860347 1_445
Ca5 S21 2.916648 1_555
Ca5 S13 2.959097 1_555
Ca5 S29 2.991085 1_545
Ca5 S10 2.993563 1_445
Ca5 S22 3.022271 1_455
Ca5 S9 3.050436 1_545
Ca6 S2 2.860347 1_545
Ca6 S22 2.916648 1_555
Ca6 S14 2.959097 1_555
Ca6 S30 2.991085 1_545
Ca6 S9 2.993576 1_545
Ca6 S21 3.022271 1_555
Ca6 S10 3.050451 1_545
Ca7 S3 2.860347 1_665
Ca7 S23 2.916648 1_555
Ca7 S15 2.959097 1_555
Ca7 S31 2.991085 1_565
Ca7 S8 2.993563 1_665
Ca7 S20 3.022271 1_655
Ca7 S11 3.050451 1_565
Ga0 S12 2.249456 1_555
Ga0 S8 2.256104 1_555
Ga0 S11 2.271549 1_455
Ga0 S20 2.311795 1_555
Ga1 S13 2.249456 1_555
Ga1 S9 2.256098 1_555
Ga1 S10 2.271549 1_555
Ga1 S21 2.311795 1_555
Ga2 S14 2.249456 1_555
Ga2 S10 2.256104 1_555
Ga2 S9 2.271553 1_655
Ga2 S22 2.311795 1_555
Ga3 S15 2.249456 1_555
Ga3 S11 2.256104 1_555
Ga3 S8 2.271549 1_555
Ga3 S23 2.311795 1_555
Ga4 S4 2.243484 1_555
Ga4 S28 2.287419 1_665
Ga4 S23 2.304738 1_555
Ga4 S12 2.317643 1_655
Ga5 S5 2.243484 1_555
Ga5 S29 2.287419 1_545
Ga5 S22 2.304738 1_555
Ga5 S13 2.317643 1_555
Ga6 S6 2.243484 1_555
Ga6 S30 2.287419 1_445
Ga6 S21 2.304738 1_555
Ga6 S14 2.317643 1_455
Ga7 S7 2.243484 1_555
Ga7 S31 2.287419 1_565
Ga7 S20 2.304738 1_555
Ga7 S15 2.317643 1_555
Ga8 S24 2.249013 1_555
Ga8 S4 2.253622 1_555
Ga8 S16 2.305510 1_555
Ga8 S0 2.318760 1_565
Ga9 S25 2.249013 1_554
Ga9 S5 2.253622 1_555
Ga9 S17 2.305510 1_655
Ga9 S1 2.318760 1_545
Ga10 S26 2.249013 1_555
Ga10 S6 2.253622 1_555
Ga10 S18 2.305510 1_555
Ga10 S2 2.318760 1_545
Ga11 S27 2.249013 1_556
Ga11 S7 2.253622 1_555
Ga11 S19 2.305510 1_455
Ga11 S3 2.318760 1_565
Ga12 S26 2.227152 1_565
Ga12 S16 2.278471 1_555
Ga12 S28 2.295345 1_565
Ga12 S0 2.302388 1_565
Ga13 S27 2.227152 1_545
Ga13 S17 2.278471 1_555
Ga13 S29 2.295345 1_545
Ga13 S1 2.302388 1_445
Ga14 S24 2.227152 1_545
Ga14 S18 2.278471 1_555
Ga14 S30 2.295345 1_545
Ga14 S2 2.302388 1_545
Ga15 S25 2.227152 1_565
Ga15 S19 2.278471 1_555
Ga15 S31 2.295345 1_565
Ga15 S3 2.302388 1_665
