# generated using pymatgen
data_Mg14TiBO16
_symmetry_space_group_name_H-M   'P 1'
_cell_length_a   8.57975786
_cell_length_b   8.60351740
_cell_length_c   4.24749265
_cell_angle_alpha   90.00000000
_cell_angle_beta   90.00000000
_cell_angle_gamma   90.00000000
_symmetry_Int_Tables_number   1
_chemical_formula_structural   Mg14TiBO16
_chemical_formula_sum   'Mg14 Ti1 B1 O16'
_cell_volume   313.53332537
_cell_formula_units_Z   1
loop_
 _symmetry_equiv_pos_site_id
 _symmetry_equiv_pos_as_xyz
  1  'x, y, z'
loop_
 _atom_site_type_symbol
 _atom_site_label
 _atom_site_symmetry_multiplicity
 _atom_site_fract_x
 _atom_site_fract_y
 _atom_site_fract_z
 _atom_site_occupancy
  Mg  Mg0  1  0.50000000  0.00000000  -0.00000000  1
  Mg  Mg1  1  0.50000000  0.50000000  -0.00000000  1
  Mg  Mg2  1  -0.00000000  0.25985719  0.50000000  1
  Mg  Mg3  1  -0.00000000  0.74014281  0.50000000  1
  Mg  Mg4  1  0.50000000  0.25229649  0.50000000  1
  Mg  Mg5  1  0.50000000  0.74770351  0.50000000  1
  Mg  Mg6  1  0.25269059  0.00000000  0.50000000  1
  Mg  Mg7  1  0.24648321  0.50000000  0.50000000  1
  Mg  Mg8  1  0.74730941  0.00000000  0.50000000  1
  Mg  Mg9  1  0.75351679  0.50000000  0.50000000  1
  Mg  Mg10  1  0.25021047  0.25742520  -0.00000000  1
  Mg  Mg11  1  0.25021047  0.74257480  0.00000000  1
  Mg  Mg12  1  0.74978953  0.25742520  -0.00000000  1
  Mg  Mg13  1  0.74978953  0.74257480  0.00000000  1
  Ti  Ti0  1  -0.00000000  0.00000000  -0.00000000  1
  B  B0  1  -0.00000000  0.50000000  -0.00000000  1
  O  O0  1  0.24762380  0.00000000  -0.00000000  1
  O  O1  1  0.26499505  0.50000000  -0.00000000  1
  O  O2  1  0.75237620  0.00000000  0.00000000  1
  O  O3  1  0.73500495  0.50000000  0.00000000  1
  O  O4  1  0.24804538  0.24928039  0.50000000  1
  O  O5  1  0.24804538  0.75071961  0.50000000  1
  O  O6  1  0.75195462  0.24928039  0.50000000  1
  O  O7  1  0.75195462  0.75071961  0.50000000  1
  O  O8  1  -0.00000000  0.00000000  0.50000000  1
  O  O9  1  -0.00000000  0.50000000  0.50000000  1
  O  O10  1  0.50000000  0.00000000  0.50000000  1
  O  O11  1  0.50000000  0.50000000  0.50000000  1
  O  O12  1  -0.00000000  0.23088364  -0.00000000  1
  O  O13  1  -0.00000000  0.76911636  -0.00000000  1
  O  O14  1  0.50000000  0.24565959  -0.00000000  1
  O  O15  1  0.50000000  0.75434041  -0.00000000  1
loop_
_geom_bond_atom_site_label_1
_geom_bond_atom_site_label_2
_geom_bond_distance
_geom_bond_site_symmetry_2
Mg0 O14 2.113537 1_555
Mg0 O15 2.113537 1_545
Mg0 O10 2.123746 1_554
Mg0 O10 2.123746 1_555
Mg0 O0 2.165327 1_555
Mg0 O2 2.165327 1_555
Mg1 O3 2.016286 1_555
Mg1 O1 2.016286 1_555
Mg1 O11 2.123746 1_554
Mg1 O11 2.123746 1_555
Mg1 O14 2.188222 1_555
Mg1 O15 2.188222 1_555
Mg2 O9 2.066073 1_555
Mg2 O6 2.130114 1_455
Mg2 O4 2.130114 1_555
Mg2 O12 2.138326 1_555
Mg2 O12 2.138326 1_556
Mg2 O8 2.235686 1_555
Mg3 O9 2.066073 1_555
Mg3 O7 2.130114 1_455
Mg3 O5 2.130114 1_555
Mg3 O13 2.138326 1_555
Mg3 O13 2.138326 1_556
Mg3 O8 2.235686 1_565
Mg4 O14 2.124514 1_556
Mg4 O14 2.124514 1_555
Mg4 O11 2.131121 1_555
Mg4 O4 2.161865 1_555
Mg4 O6 2.161865 1_555
Mg4 O10 2.170637 1_555
Mg5 O15 2.124514 1_556
Mg5 O15 2.124514 1_555
Mg5 O11 2.131121 1_555
Mg5 O5 2.161865 1_555
Mg5 O7 2.161865 1_555
Mg5 O10 2.170637 1_565
Mg6 O10 2.121855 1_555
Mg6 O0 2.124191 1_555
Mg6 O0 2.124191 1_556
Mg6 O4 2.145058 1_555
Mg6 O5 2.145058 1_545
Mg6 O8 2.168024 1_555
Mg7 O9 2.114766 1_555
Mg7 O1 2.129677 1_556
Mg7 O1 2.129677 1_555
Mg7 O5 2.157112 1_555
Mg7 O4 2.157112 1_555
Mg7 O11 2.175113 1_555
Mg8 O10 2.121855 1_555
Mg8 O2 2.124191 1_555
Mg8 O2 2.124191 1_556
Mg8 O6 2.145058 1_555
Mg8 O7 2.145058 1_545
Mg8 O8 2.168024 1_655
Mg9 O9 2.114766 1_655
Mg9 O3 2.129677 1_556
Mg9 O3 2.129677 1_555
Mg9 O6 2.157112 1_555
Mg9 O7 2.157112 1_555
Mg9 O11 2.175113 1_555
Mg10 O1 2.090848 1_555
Mg10 O4 2.124983 1_554
Mg10 O4 2.124983 1_555
Mg10 O14 2.145523 1_555
Mg10 O12 2.158856 1_555
Mg10 O0 2.214873 1_555
Mg11 O1 2.090848 1_555
Mg11 O5 2.124983 1_554
Mg11 O5 2.124983 1_555
Mg11 O15 2.145523 1_555
Mg11 O13 2.158856 1_555
Mg11 O0 2.214873 1_565
Mg12 O3 2.090848 1_555
Mg12 O6 2.124983 1_554
Mg12 O6 2.124983 1_555
Mg12 O14 2.145523 1_555
Mg12 O12 2.158856 1_655
Mg12 O2 2.214873 1_555
Mg13 O3 2.090848 1_555
Mg13 O7 2.124983 1_554
Mg13 O7 2.124983 1_555
Mg13 O15 2.145523 1_555
Mg13 O13 2.158856 1_655
Mg13 O2 2.214873 1_565
B0 O9 2.123746 1_555
B0 O9 2.123746 1_554
O0 Ti0 2.124552 1_555
O2 Ti0 2.124552 1_655
O8 Ti0 2.123746 1_555
O8 Ti0 2.123746 1_556
O12 Ti0 1.986411 1_555
O13 Ti0 1.986411 1_565
