# generated using pymatgen
data_LiTlPd2
_symmetry_space_group_name_H-M   'P 1'
_cell_length_a   4.76894928
_cell_length_b   4.76894928
_cell_length_c   4.76894928
_cell_angle_alpha   128.38047712
_cell_angle_beta   128.38047712
_cell_angle_gamma   76.00947590
_symmetry_Int_Tables_number   1
_chemical_formula_structural   LiTlPd2
_chemical_formula_sum   'Li1 Tl1 Pd2'
_cell_volume   64.80045745
_cell_formula_units_Z   1
loop_
 _symmetry_equiv_pos_site_id
 _symmetry_equiv_pos_as_xyz
  1  'x, y, z'
loop_
 _atom_site_type_symbol
 _atom_site_label
 _atom_site_symmetry_multiplicity
 _atom_site_fract_x
 _atom_site_fract_y
 _atom_site_fract_z
 _atom_site_occupancy
  Li  Li0  1  0.50000000  0.50000000  -0.00000000  1
  Tl  Tl0  1  -0.00000000  -0.00000000  -0.00000000  1
  Pd  Pd0  1  0.75000000  0.25000000  0.50000000  1
  Pd  Pd1  1  0.25000000  0.75000000  0.50000000  1
loop_
_geom_bond_atom_site_label_1
_geom_bond_atom_site_label_2
_geom_bond_distance
_geom_bond_site_symmetry_2
Li0 Pd0 2.800229 1_454
Li0 Pd1 2.800229 1_655
Li0 Pd1 2.800229 1_555
Li0 Pd0 2.800229 1_565
Li0 Pd1 2.800229 1_544
Li0 Pd1 2.800229 1_554
Li0 Pd0 2.800229 1_554
Li0 Pd0 2.800229 1_555
Li0 Tl0 2.936369 1_554
Li0 Tl0 2.936369 1_666
Li0 Tl0 2.936369 1_655
Li0 Tl0 2.936369 1_565
Pd0 Tl0 2.800229 1_555
Pd0 Tl0 2.800229 1_655
Pd0 Tl0 2.800229 1_666
Pd0 Tl0 2.800229 1_656
Pd0 Pd1 2.936369 1_555
Pd0 Pd1 2.936369 1_656
Pd0 Pd1 2.936369 1_544
Pd0 Pd1 2.936369 1_645
Pd1 Tl0 2.800229 1_666
Pd1 Tl0 2.800229 1_565
Pd1 Tl0 2.800229 1_566
Pd1 Tl0 2.800229 1_555
