# generated using pymatgen
data_K2Be3Co2F12
_symmetry_space_group_name_H-M   'P 1'
_cell_length_a   10.25401900
_cell_length_b   10.25401900
_cell_length_c   10.25401900
_cell_angle_alpha   90.00000000
_cell_angle_beta   90.00000000
_cell_angle_gamma   90.00000000
_symmetry_Int_Tables_number   1
_chemical_formula_structural   K2Be3Co2F12
_chemical_formula_sum   'K8 Be12 Co8 F48'
_cell_volume   1078.15786031
_cell_formula_units_Z   4
loop_
 _symmetry_equiv_pos_site_id
 _symmetry_equiv_pos_as_xyz
  1  'x, y, z'
loop_
 _atom_site_type_symbol
 _atom_site_label
 _atom_site_symmetry_multiplicity
 _atom_site_fract_x
 _atom_site_fract_y
 _atom_site_fract_z
 _atom_site_occupancy
  K  K0  1  0.05106900  0.05106900  0.05106900  1
  K  K1  1  0.44893100  0.94893100  0.55106900  1
  K  K2  1  0.94893100  0.55106900  0.44893100  1
  K  K3  1  0.55106900  0.44893100  0.94893100  1
  K  K4  1  0.81579300  0.81579300  0.81579300  1
  K  K5  1  0.68420700  0.18420700  0.31579300  1
  K  K6  1  0.18420700  0.31579300  0.68420700  1
  K  K7  1  0.31579300  0.68420700  0.18420700  1
  Be  Be0  1  0.02074900  0.21432300  0.37614600  1
  Be  Be1  1  0.47925100  0.78567700  0.87614600  1
  Be  Be2  1  0.97925100  0.71432300  0.12385400  1
  Be  Be3  1  0.37614600  0.02074900  0.21432300  1
  Be  Be4  1  0.52074900  0.28567700  0.62385400  1
  Be  Be5  1  0.87614600  0.47925100  0.78567700  1
  Be  Be6  1  0.12385400  0.97925100  0.71432300  1
  Be  Be7  1  0.62385400  0.52074900  0.28567700  1
  Be  Be8  1  0.21432300  0.37614600  0.02074900  1
  Be  Be9  1  0.71432300  0.12385400  0.97925100  1
  Be  Be10  1  0.28567700  0.62385400  0.52074900  1
  Be  Be11  1  0.78567700  0.87614600  0.47925100  1
  Co  Co0  1  0.33605400  0.33605400  0.33605400  1
  Co  Co1  1  0.16394600  0.66394600  0.83605400  1
  Co  Co2  1  0.66394600  0.83605400  0.16394600  1
  Co  Co3  1  0.83605400  0.16394600  0.66394600  1
  Co  Co4  1  0.60013400  0.60013400  0.60013400  1
  Co  Co5  1  0.89986600  0.39986600  0.10013400  1
  Co  Co6  1  0.39986600  0.10013400  0.89986600  1
  Co  Co7  1  0.10013400  0.89986600  0.39986600  1
  F  F0  1  0.01628100  0.06872600  0.32882300  1
  F  F1  1  0.48371900  0.93127400  0.82882300  1
  F  F2  1  0.98371900  0.56872600  0.17117700  1
  F  F3  1  0.32882300  0.01628100  0.06872600  1
  F  F4  1  0.51628100  0.43127400  0.67117700  1
  F  F5  1  0.82882300  0.48371900  0.93127400  1
  F  F6  1  0.17117700  0.98371900  0.56872600  1
  F  F7  1  0.67117700  0.51628100  0.43127400  1
  F  F8  1  0.06872600  0.32882300  0.01628100  1
  F  F9  1  0.56872600  0.17117700  0.98371900  1
  F  F10  1  0.43127400  0.67117700  0.51628100  1
  F  F11  1  0.93127400  0.82882300  0.48371900  1
  F  F12  1  0.26754200  0.49647900  0.43788000  1
  F  F13  1  0.23245800  0.50352100  0.93788000  1
  F  F14  1  0.73245800  0.99647900  0.06212000  1
  F  F15  1  0.43788000  0.26754200  0.49647900  1
  F  F16  1  0.76754200  0.00352100  0.56212000  1
  F  F17  1  0.93788000  0.23245800  0.50352100  1
  F  F18  1  0.06212000  0.73245800  0.99647900  1
  F  F19  1  0.56212000  0.76754200  0.00352100  1
  F  F20  1  0.49647900  0.43788000  0.26754200  1
  F  F21  1  0.99647900  0.06212000  0.73245800  1
  F  F22  1  0.00352100  0.56212000  0.76754200  1
  F  F23  1  0.50352100  0.93788000  0.23245800  1
  F  F24  1  0.04722600  0.80432000  0.22847400  1
  F  F25  1  0.45277400  0.19568000  0.72847400  1
  F  F26  1  0.95277400  0.30432000  0.27152600  1
  F  F27  1  0.22847400  0.04722600  0.80432000  1
  F  F28  1  0.54722600  0.69568000  0.77152600  1
  F  F29  1  0.72847400  0.45277400  0.19568000  1
  F  F30  1  0.27152600  0.95277400  0.30432000  1
  F  F31  1  0.77152600  0.54722600  0.69568000  1
  F  F32  1  0.80432000  0.22847400  0.04722600  1
  F  F33  1  0.30432000  0.27152600  0.95277400  1
  F  F34  1  0.69568000  0.77152600  0.54722600  1
  F  F35  1  0.19568000  0.72847400  0.45277400  1
  F  F36  1  0.16331500  0.25815600  0.40316500  1
  F  F37  1  0.33668500  0.74184400  0.90316500  1
  F  F38  1  0.83668500  0.75815600  0.09683500  1
  F  F39  1  0.40316500  0.16331500  0.25815600  1
  F  F40  1  0.66331500  0.24184400  0.59683500  1
  F  F41  1  0.90316500  0.33668500  0.74184400  1
  F  F42  1  0.09683500  0.83668500  0.75815600  1
  F  F43  1  0.59683500  0.66331500  0.24184400  1
  F  F44  1  0.25815600  0.40316500  0.16331500  1
  F  F45  1  0.75815600  0.09683500  0.83668500  1
  F  F46  1  0.24184400  0.59683500  0.66331500  1
  F  F47  1  0.74184400  0.90316500  0.33668500  1
loop_
_geom_bond_atom_site_label_1
_geom_bond_atom_site_label_2
_geom_bond_distance
_geom_bond_site_symmetry_2
Be0 F36 1.554302 1_555
Be0 F17 1.569252 1_455
Be0 F0 1.570503 1_555
Be0 F26 1.577434 1_455
Be1 F37 1.554302 1_555
Be1 F19 1.569252 1_556
Be1 F1 1.570503 1_555
Be1 F28 1.577434 1_555
Be2 F38 1.554302 1_555
Be2 F18 1.569252 1_654
Be2 F2 1.570503 1_555
Be2 F24 1.577434 1_655
Be3 F39 1.554302 1_555
Be3 F23 1.569252 1_545
Be3 F3 1.570503 1_555
Be3 F30 1.577434 1_545
Be4 F40 1.554302 1_555
Be4 F15 1.569252 1_555
Be4 F4 1.570503 1_555
Be4 F25 1.577434 1_555
Be5 F41 1.554302 1_555
Be5 F22 1.569252 1_655
Be5 F5 1.570503 1_555
Be5 F31 1.577434 1_555
Be6 F42 1.554302 1_555
Be6 F21 1.569252 1_465
Be6 F6 1.570503 1_555
Be6 F27 1.577434 1_565
Be7 F43 1.554302 1_555
Be7 F20 1.569252 1_555
Be7 F7 1.570503 1_555
Be7 F29 1.577434 1_555
Be8 F44 1.554302 1_555
Be8 F13 1.569252 1_554
Be8 F8 1.570503 1_555
Be8 F33 1.577434 1_554
Be9 F45 1.554302 1_555
Be9 F14 1.569252 1_546
Be9 F9 1.570503 1_555
Be9 F32 1.577434 1_556
Be10 F46 1.554302 1_555
Be10 F12 1.569252 1_555
Be10 F10 1.570503 1_555
Be10 F35 1.577434 1_555
Be11 F47 1.554302 1_555
Be11 F16 1.569252 1_565
Be11 F11 1.570503 1_555
Be11 F34 1.577434 1_555
Co0 F36 2.061306 1_555
Co0 F39 2.061306 1_555
Co0 F44 2.061306 1_555
Co0 F15 2.071175 1_555
Co0 F12 2.071175 1_555
Co0 F20 2.071175 1_555
Co1 F42 2.061306 1_555
Co1 F37 2.061306 1_555
Co1 F46 2.061306 1_555
Co1 F18 2.071175 1_555
Co1 F22 2.071175 1_555
Co1 F13 2.071175 1_555
Co2 F38 2.061306 1_555
Co2 F43 2.061306 1_555
Co2 F47 2.061306 1_555
Co2 F14 2.071175 1_555
Co2 F19 2.071175 1_555
Co2 F23 2.071175 1_555
Co3 F45 2.061306 1_555
Co3 F40 2.061306 1_555
Co3 F41 2.061306 1_555
Co3 F21 2.071175 1_555
Co3 F16 2.071175 1_555
Co3 F17 2.071175 1_555
Co4 F10 2.065927 1_555
Co4 F7 2.065927 1_555
Co4 F4 2.065927 1_555
Co4 F31 2.083952 1_555
Co4 F34 2.083952 1_555
Co4 F28 2.083952 1_555
Co5 F2 2.065927 1_555
Co5 F5 2.065927 1_554
Co5 F8 2.065927 1_655
Co5 F26 2.083952 1_555
Co5 F32 2.083952 1_555
Co5 F29 2.083952 1_555
Co6 F9 2.065927 1_555
Co6 F1 2.065927 1_545
Co6 F3 2.065927 1_556
Co6 F33 2.083952 1_555
Co6 F27 2.083952 1_555
Co6 F25 2.083952 1_555
Co7 F6 2.065927 1_555
Co7 F0 2.065927 1_565
Co7 F11 2.065927 1_455
Co7 F30 2.083952 1_555
Co7 F24 2.083952 1_555
Co7 F35 2.083952 1_555
F0 K0 2.876051 1_555
F1 K1 2.876051 1_555
F2 K2 2.876051 1_555
F3 K0 2.876051 1_555
F4 K3 2.876051 1_555
F5 K3 2.876051 1_555
F6 K1 2.876051 1_555
F7 K2 2.876051 1_555
F8 K0 2.876051 1_555
F9 K3 2.876051 1_555
F10 K1 2.876051 1_555
F11 K2 2.876051 1_555
F12 K6 3.246966 1_555
F12 K7 3.273586 1_555
F12 K2 3.316587 1_455
F13 K7 3.246966 1_556
F13 K6 3.273586 1_555
F13 K3 3.316587 1_555
F14 K4 3.246966 1_554
F14 K5 3.273586 1_565
F14 K0 3.316587 1_665
F15 K5 3.246966 1_555
F15 K6 3.273586 1_555
F15 K1 3.316587 1_545
F16 K5 3.246966 1_555
F16 K4 3.273586 1_545
F16 K1 3.316587 1_545
F17 K6 3.246966 1_655
F17 K5 3.273586 1_555
F17 K2 3.316587 1_555
F18 K4 3.246966 1_455
F18 K7 3.273586 1_556
F18 K0 3.316587 1_566
F19 K7 3.246966 1_555
F19 K4 3.273586 1_554
F19 K3 3.316587 1_554
F20 K7 3.246966 1_555
F20 K5 3.273586 1_555
F20 K3 3.316587 1_554
F21 K4 3.246966 1_545
F21 K6 3.273586 1_655
F21 K0 3.316587 1_656
F22 K6 3.246966 1_555
F22 K4 3.273586 1_455
F22 K2 3.316587 1_455
F23 K5 3.246966 1_565
F23 K7 3.273586 1_555
F23 K1 3.316587 1_555
F24 K7 3.050720 1_555
F24 K0 3.116486 1_565
F25 K6 3.050720 1_555
F25 K1 3.116486 1_545
F26 K5 3.050720 1_555
F26 K2 3.116486 1_555
F27 K6 3.050720 1_555
F27 K0 3.116486 1_556
F28 K4 3.050720 1_555
F28 K3 3.116486 1_555
F29 K5 3.050720 1_555
F29 K3 3.116486 1_554
F30 K7 3.050720 1_555
F30 K1 3.116486 1_555
F31 K4 3.050720 1_555
F31 K2 3.116486 1_555
F32 K5 3.050720 1_555
F32 K0 3.116486 1_655
F33 K6 3.050720 1_555
F33 K3 3.116486 1_555
F34 K4 3.050720 1_555
F34 K1 3.116486 1_555
F35 K7 3.050720 1_555
F35 K2 3.116486 1_455
F36 K6 2.949579 1_555
F37 K7 2.949579 1_556
F38 K4 2.949579 1_554
F39 K5 2.949579 1_555
F40 K5 2.949579 1_555
F41 K6 2.949579 1_655
F42 K4 2.949579 1_455
F43 K7 2.949579 1_555
F44 K7 2.949579 1_555
F45 K4 2.949579 1_545
F46 K6 2.949579 1_555
F47 K5 2.949579 1_565
