# generated using pymatgen
data_Ca4Ti4Si3GeO20
_symmetry_space_group_name_H-M   'P 1'
_cell_length_a   6.68921200
_cell_length_b   7.18369380
_cell_length_c   8.81487786
_cell_angle_alpha   90.01919044
_cell_angle_beta   90.00716288
_cell_angle_gamma   114.17653646
_symmetry_Int_Tables_number   1
_chemical_formula_structural   Ca4Ti4Si3GeO20
_chemical_formula_sum   'Ca4 Ti4 Si3 Ge1 O20'
_cell_volume   386.43010119
_cell_formula_units_Z   1
loop_
 _symmetry_equiv_pos_site_id
 _symmetry_equiv_pos_as_xyz
  1  'x, y, z'
loop_
 _atom_site_type_symbol
 _atom_site_label
 _atom_site_symmetry_multiplicity
 _atom_site_fract_x
 _atom_site_fract_y
 _atom_site_fract_z
 _atom_site_occupancy
  Ca  Ca0  1  0.74751600  0.25480900  0.07559300  1
  Ca  Ca1  1  0.25222900  0.24297000  0.57928300  1
  Ca  Ca2  1  0.25178400  0.74227100  0.92011500  1
  Ca  Ca3  1  0.74743000  0.75617600  0.42451400  1
  Ti  Ti0  1  0.25182900  0.98860800  0.24791300  1
  Ti  Ti1  1  0.75168300  0.50903200  0.74426300  1
  Ti  Ti2  1  0.74982000  0.01264900  0.74872700  1
  Ti  Ti3  1  0.24684300  0.48519900  0.25423300  1
  Si  Si0  1  0.24933700  0.74814300  0.56852700  1
  Si  Si1  1  0.24960400  0.24816500  0.93086700  1
  Si  Si2  1  0.75053700  0.25220700  0.42842300  1
  Ge  Ge0  1  0.75149700  0.75294200  0.06854400  1
  O  O0  1  0.24695500  0.74934600  0.18072500  1
  O  O1  1  0.75272500  0.75143300  0.68335200  1
  O  O2  1  0.75289400  0.25190500  0.81514100  1
  O  O3  1  0.24727600  0.24940000  0.32202900  1
  O  O4  1  0.56031500  0.58186800  0.19646600  1
  O  O5  1  0.43666200  0.90529300  0.68421600  1
  O  O6  1  0.43750500  0.40495500  0.81495100  1
  O  O7  1  0.56374500  0.09501900  0.31314800  1
  O  O8  1  0.15229200  0.88330600  0.46384600  1
  O  O9  1  0.85753700  0.60732300  0.95899300  1
  O  O10  1  0.84797200  0.11763600  0.53498600  1
  O  O11  1  0.15341900  0.38347700  0.03707000  1
  O  O12  1  0.34630800  0.11374200  0.03705700  1
  O  O13  1  0.65254500  0.38602500  0.53538600  1
  O  O14  1  0.64336500  0.89686900  0.95939700  1
  O  O15  1  0.34689200  0.61345700  0.46387200  1
  O  O16  1  0.93470000  0.40797600  0.31164200  1
  O  O17  1  0.06261800  0.09270700  0.81390300  1
  O  O18  1  0.06360700  0.59209400  0.68513000  1
  O  O19  1  0.94055800  0.92299700  0.19769000  1
loop_
_geom_bond_atom_site_label_1
_geom_bond_atom_site_label_2
_geom_bond_distance
_geom_bond_site_symmetry_2
Ca0 O2 2.296361 1_554
Ca0 O16 2.444849 1_555
Ca0 O7 2.461733 1_555
Ca0 O12 2.473213 1_555
Ca0 O11 2.507308 1_655
Ca0 O9 2.546807 1_554
Ca0 O14 2.583975 1_544
Ca1 O3 2.268663 1_555
Ca1 O17 2.435539 1_555
Ca1 O6 2.453988 1_555
Ca1 O13 2.474448 1_555
Ca1 O10 2.506158 1_455
Ca1 O8 2.596387 1_545
Ca1 O15 2.672243 1_555
Ca2 O0 2.298314 1_556
Ca2 O14 2.414771 1_555
Ca2 O9 2.432782 1_455
Ca2 O18 2.434012 1_555
Ca2 O5 2.457814 1_555
Ca2 O11 2.598448 1_556
Ca2 O12 2.683172 1_566
Ca3 O1 2.282378 1_555
Ca3 O19 2.415974 1_555
Ca3 O4 2.426821 1_555
Ca3 O15 2.469923 1_555
Ca3 O8 2.502462 1_655
Ca3 O10 2.590509 1_565
Ca3 O13 2.654818 1_555
Ge0 O19 1.766624 1_555
Ge0 O14 1.769443 1_554
Ge0 O4 1.769535 1_555
Ge0 O9 1.771225 1_554
O0 Ti0 1.805398 1_555
O0 Ti3 2.005048 1_555
O1 Ti1 1.819689 1_555
O1 Ti2 1.970495 1_565
O2 Ti2 1.807651 1_555
O2 Ti1 1.953280 1_555
O3 Ti3 1.797546 1_555
O3 Ti0 1.995869 1_545
O4 Ti3 1.986508 1_555
O5 Si0 1.650691 1_555
O5 Ti2 1.995590 1_565
O6 Si1 1.653477 1_555
O6 Ti1 2.019306 1_555
O7 Si2 1.646835 1_555
O7 Ti0 1.990318 1_545
O8 Si0 1.652994 1_555
O8 Ti0 2.056039 1_555
O9 Ti1 2.042535 1_555
O10 Si2 1.660796 1_555
O10 Ti2 2.036021 1_555
O11 Si1 1.657423 1_554
O11 Ti3 2.052716 1_555
O12 Si1 1.655063 1_554
O12 Ti0 2.048952 1_545
O13 Si2 1.660861 1_555
O13 Ti1 2.032076 1_555
O14 Ti2 2.040503 1_565
O15 Si0 1.652195 1_555
O15 Ti3 2.050652 1_555
O16 Si2 1.643591 1_555
O16 Ti3 1.993796 1_655
O17 Si1 1.652090 1_555
O17 Ti2 2.013123 1_455
O18 Si0 1.648318 1_555
O18 Ti1 1.990483 1_455
O19 Ti0 1.987286 1_655
