# generated using pymatgen
data_Ba2UCu2Se5
_symmetry_space_group_name_H-M   'P 1'
_cell_length_a   7.39118942
_cell_length_b   7.39118942
_cell_length_c   9.76871010
_cell_angle_alpha   65.21943003
_cell_angle_beta   65.21943003
_cell_angle_gamma   33.36623586
_symmetry_Int_Tables_number   1
_chemical_formula_structural   Ba2UCu2Se5
_chemical_formula_sum   'Ba2 U1 Cu2 Se5'
_cell_volume   263.91868541
_cell_formula_units_Z   1
loop_
 _symmetry_equiv_pos_site_id
 _symmetry_equiv_pos_as_xyz
  1  'x, y, z'
loop_
 _atom_site_type_symbol
 _atom_site_label
 _atom_site_symmetry_multiplicity
 _atom_site_fract_x
 _atom_site_fract_y
 _atom_site_fract_z
 _atom_site_occupancy
  Ba  Ba0  1  0.17449900  0.17449900  0.29947300  1
  Ba  Ba1  1  0.82550100  0.82550100  0.70052700  1
  U  U0  1  0.00000000  0.00000000  0.00000000  1
  Cu  Cu0  1  0.55288400  0.55288400  0.70885000  1
  Cu  Cu1  1  0.44711600  0.44711600  0.29115000  1
  Se  Se0  1  0.14763200  0.14763200  0.69161900  1
  Se  Se1  1  0.85236800  0.85236800  0.30838100  1
  Se  Se2  1  0.38469300  0.38469300  0.93860000  1
  Se  Se3  1  0.61530700  0.61530700  0.06140000  1
  Se  Se4  1  0.50000000  0.50000000  0.50000000  1
loop_
_geom_bond_atom_site_label_1
_geom_bond_atom_site_label_2
_geom_bond_distance
_geom_bond_site_symmetry_2
Ba0 Se4 3.195176 1_455
Ba0 Se4 3.195176 1_545
Ba0 Se1 3.323436 1_455
Ba0 Se1 3.323436 1_545
Ba0 Se2 3.479087 1_554
Ba0 Se3 3.509897 1_545
Ba0 Se3 3.509897 1_455
Ba0 Se0 3.680228 1_555
Ba1 Se4 3.195176 1_655
Ba1 Se4 3.195176 1_565
Ba1 Se0 3.323436 1_565
Ba1 Se0 3.323436 1_655
Ba1 Se3 3.479087 1_556
Ba1 Se2 3.509897 1_655
Ba1 Se2 3.509897 1_565
Ba1 Se1 3.680228 1_555
Cu0 Se2 2.455913 1_555
Cu0 Se4 2.461742 1_555
Cu0 Se0 2.476482 1_655
Cu0 Se0 2.476482 1_565
Cu1 Se3 2.455913 1_555
Cu1 Se4 2.461742 1_555
Cu1 Se1 2.476482 1_455
Cu1 Se1 2.476482 1_545
Se0 U0 2.816745 1_556
Se1 U0 2.816745 1_665
Se2 U0 2.895680 1_656
Se2 U0 2.895680 1_566
Se3 U0 2.895680 1_655
Se3 U0 2.895680 1_565
