# generated using pymatgen
data_Sm3SbO7
_symmetry_space_group_name_H-M   'P 1'
_cell_length_a   6.56688676
_cell_length_b   6.56688676
_cell_length_c   7.61445453
_cell_angle_alpha   90.00000000
_cell_angle_beta   90.00000000
_cell_angle_gamma   109.63994908
_symmetry_Int_Tables_number   1
_chemical_formula_structural   Sm3SbO7
_chemical_formula_sum   'Sm6 Sb2 O14'
_cell_volume   309.26252549
_cell_formula_units_Z   2
loop_
 _symmetry_equiv_pos_site_id
 _symmetry_equiv_pos_as_xyz
  1  'x, y, z'
loop_
 _atom_site_type_symbol
 _atom_site_label
 _atom_site_symmetry_multiplicity
 _atom_site_fract_x
 _atom_site_fract_y
 _atom_site_fract_z
 _atom_site_occupancy
  Sm  Sm0  1  0.50000000  0.50000000  0.50000000  1
  Sm  Sm1  1  0.50000000  0.50000000  0.00000000  1
  Sm  Sm2  1  0.53245365  0.99954431  0.75000000  1
  Sm  Sm3  1  0.99954431  0.53245365  0.25000000  1
  Sm  Sm4  1  0.46754635  0.00045569  0.25000000  1
  Sm  Sm5  1  0.00045569  0.46754635  0.75000000  1
  Sb  Sb0  1  0.00000000  0.00000000  0.50000000  1
  Sb  Sb1  1  0.00000000  0.00000000  0.00000000  1
  O  O0  1  0.68469657  0.93020680  0.47106889  1
  O  O1  1  0.93020680  0.68469657  0.52893111  1
  O  O2  1  0.68469657  0.93020680  0.02893111  1
  O  O3  1  0.93020680  0.68469657  0.97106889  1
  O  O4  1  0.31530343  0.06979320  0.52893111  1
  O  O5  1  0.06979320  0.31530343  0.47106889  1
  O  O6  1  0.31530343  0.06979320  0.97106889  1
  O  O7  1  0.06979320  0.31530343  0.02893111  1
  O  O8  1  0.93642161  0.06357839  0.75000000  1
  O  O9  1  0.06357839  0.93642161  0.25000000  1
  O  O10  1  0.37023424  0.62976576  0.75000000  1
  O  O11  1  0.62976576  0.37023424  0.25000000  1
  O  O12  1  0.63530531  0.36469469  0.75000000  1
  O  O13  1  0.36469469  0.63530531  0.25000000  1
loop_
_geom_bond_atom_site_label_1
_geom_bond_atom_site_label_2
_geom_bond_distance
_geom_bond_site_symmetry_2
O0 Sb0 1.976839 1_665
O0 Sm4 2.349907 1_565
O0 Sm2 2.454352 1_555
O0 Sm0 2.682823 1_555
O1 Sb0 1.976839 1_665
O1 Sm5 2.349907 1_655
O1 Sm3 2.454352 1_555
O1 Sm0 2.682823 1_555
O2 Sb1 1.976839 1_665
O2 Sm4 2.349907 1_565
O2 Sm2 2.454352 1_554
O2 Sm1 2.682823 1_555
O3 Sb1 1.976839 1_666
O3 Sm5 2.349907 1_655
O3 Sm3 2.454352 1_556
O3 Sm1 2.682823 1_556
O4 Sb0 1.976839 1_555
O4 Sm2 2.349907 1_545
O4 Sm4 2.454352 1_555
O4 Sm0 2.682823 1_555
O5 Sb0 1.976839 1_555
O5 Sm3 2.349907 1_455
O5 Sm5 2.454352 1_555
O5 Sm0 2.682823 1_555
O6 Sb1 1.976839 1_556
O6 Sm2 2.349907 1_545
O6 Sm4 2.454352 1_556
O6 Sm1 2.682823 1_556
O7 Sb1 1.976839 1_555
O7 Sm3 2.349907 1_455
O7 Sm5 2.454352 1_554
O7 Sm1 2.682823 1_555
O8 Sb1 2.022265 1_656
O8 Sb0 2.022265 1_655
O8 Sm2 2.542511 1_545
O8 Sm5 2.542511 1_655
O9 Sb0 2.022265 1_565
O9 Sb1 2.022265 1_565
O9 Sm3 2.542511 1_455
O9 Sm4 2.542511 1_565
O10 Sm2 2.300550 1_555
O10 Sm5 2.300550 1_555
O10 Sm1 2.358863 1_556
O10 Sm0 2.358863 1_555
O11 Sm4 2.300550 1_555
O11 Sm3 2.300550 1_555
O11 Sm1 2.358863 1_555
O11 Sm0 2.358863 1_555
O12 Sm5 2.262169 1_655
O12 Sm2 2.262169 1_545
O12 Sm1 2.394461 1_556
O12 Sm0 2.394461 1_555
O13 Sm4 2.262169 1_565
O13 Sm3 2.262169 1_455
O13 Sm1 2.394461 1_555
O13 Sm0 2.394461 1_555
