# generated using pymatgen
data_Ba3LiTi3O8
_symmetry_space_group_name_H-M   'P 1'
_cell_length_a   6.07889698
_cell_length_b   6.08936709
_cell_length_c   7.36210590
_cell_angle_alpha   86.76040383
_cell_angle_beta   98.00246577
_cell_angle_gamma   123.23646465
_symmetry_Int_Tables_number   1
_chemical_formula_structural   Ba3LiTi3O8
_chemical_formula_sum   'Ba3 Li1 Ti3 O8'
_cell_volume   225.65620271
_cell_formula_units_Z   1
loop_
 _symmetry_equiv_pos_site_id
 _symmetry_equiv_pos_as_xyz
  1  'x, y, z'
loop_
 _atom_site_type_symbol
 _atom_site_label
 _atom_site_symmetry_multiplicity
 _atom_site_fract_x
 _atom_site_fract_y
 _atom_site_fract_z
 _atom_site_occupancy
  Ba  Ba0  1  0.98290100  0.00695700  0.98085400  1
  Ba  Ba1  1  0.24254400  0.66673100  0.71485100  1
  Ba  Ba2  1  0.70826200  0.35296000  0.32723300  1
  Li  Li0  1  0.60197200  0.71592800  0.51046300  1
  Ti  Ti0  1  0.06528100  0.09925500  0.48730600  1
  Ti  Ti1  1  0.37143100  0.68717500  0.15370100  1
  Ti  Ti2  1  0.62832300  0.35173900  0.86535500  1
  O  O0  1  0.98473800  0.48707700  0.01851500  1
  O  O1  1  0.26134300  0.41609200  0.37026000  1
  O  O2  1  0.48749200  0.99870000  0.01475100  1
  O  O3  1  0.76211900  0.87320200  0.30318100  1
  O  O4  1  0.31545900  0.13068300  0.68599000  1
  O  O5  1  0.48140100  0.48551400  0.00311600  1
  O  O6  1  0.77779000  0.60765300  0.68880500  1
  O  O7  1  0.83935600  0.12033500  0.62565200  1
loop_
_geom_bond_atom_site_label_1
_geom_bond_atom_site_label_2
_geom_bond_distance
_geom_bond_site_symmetry_2
Ba0 O3 2.750606 1_546
Ba0 O7 2.810244 1_555
Ba0 O5 2.817329 1_656
Ba0 O6 2.934430 1_545
Ba0 O0 2.946110 1_556
Ba0 O4 2.955393 1_655
Ba0 O5 2.978601 1_546
Ba0 O2 3.029196 1_546
Ba0 O2 3.070504 1_646
Ba0 O0 3.168216 1_546
Ba1 O4 2.609388 1_565
Ba1 O6 2.625021 1_455
Ba1 O2 2.732742 1_556
Ba1 O0 2.733218 1_456
Ba1 O7 2.892794 1_455
Ba1 O5 2.909225 1_556
Ba2 O7 2.804752 1_555
Ba2 O0 2.829572 1_555
Ba2 O2 2.876596 1_545
Ba2 O5 2.886781 1_555
Ba2 O3 2.998371 1_555
Ba2 O1 3.004540 1_555
Ba2 O6 3.017393 1_555
Ba2 O3 3.129906 1_545
Ba2 O1 3.138851 1_655
Li0 O3 1.849362 1_555
Li0 O6 1.893356 1_555
Li0 O1 2.039662 1_555
Li0 O7 2.205836 1_565
O0 Ti2 2.027886 1_554
O0 Ti1 2.084891 1_655
O1 Ti0 1.860849 1_555
O1 Ti1 2.122097 1_555
O2 Ti1 1.912408 1_555
O2 Ti2 2.131117 1_564
O3 Ti0 1.965479 1_665
O3 Ti1 2.144473 1_555
O4 Ti0 1.892691 1_555
O4 Ti2 1.966746 1_555
O5 Ti2 1.906040 1_554
O5 Ti1 2.108073 1_555
O6 Ti2 1.868480 1_555
O7 Ti0 1.880828 1_655
