# generated using pymatgen
data_Lu2Mn3Sb3O14
_symmetry_space_group_name_H-M   'P 1'
_cell_length_a   7.22826578
_cell_length_b   7.22826578
_cell_length_c   7.20227037
_cell_angle_alpha   60.64424065
_cell_angle_beta   60.64424065
_cell_angle_gamma   60.72282640
_symmetry_Int_Tables_number   1
_chemical_formula_structural   Lu2Mn3Sb3O14
_chemical_formula_sum   'Lu2 Mn3 Sb3 O14'
_cell_volume   270.11321902
_cell_formula_units_Z   1
loop_
 _symmetry_equiv_pos_site_id
 _symmetry_equiv_pos_as_xyz
  1  'x, y, z'
loop_
 _atom_site_type_symbol
 _atom_site_label
 _atom_site_symmetry_multiplicity
 _atom_site_fract_x
 _atom_site_fract_y
 _atom_site_fract_z
 _atom_site_occupancy
  Lu  Lu0  1  0.00000000  0.00000000  0.00000000  1
  Lu  Lu1  1  0.00000000  0.00000000  0.50000000  1
  Mn  Mn0  1  0.50000000  0.00000000  0.00000000  1
  Mn  Mn1  1  0.00000000  0.50000000  0.00000000  1
  Mn  Mn2  1  0.50000000  0.50000000  0.50000000  1
  Sb  Sb0  1  0.50000000  0.50000000  0.00000000  1
  Sb  Sb1  1  0.00000000  0.50000000  0.50000000  1
  Sb  Sb2  1  0.50000000  0.00000000  0.50000000  1
  O  O0  1  0.87648000  0.87648000  0.87533600  1
  O  O1  1  0.12352000  0.12352000  0.12466400  1
  O  O2  1  0.57675800  0.57675800  0.17670100  1
  O  O3  1  0.16708100  0.16708100  0.59291600  1
  O  O4  1  0.15640700  0.59505600  0.57724400  1
  O  O5  1  0.58865300  0.16908400  0.16653300  1
  O  O6  1  0.16908400  0.58865300  0.16653300  1
  O  O7  1  0.59505600  0.15640700  0.57724400  1
  O  O8  1  0.42324200  0.42324200  0.82329900  1
  O  O9  1  0.83291900  0.83291900  0.40708400  1
  O  O10  1  0.84359300  0.40494400  0.42275600  1
  O  O11  1  0.41134700  0.83091600  0.83346700  1
  O  O12  1  0.83091600  0.41134700  0.83346700  1
  O  O13  1  0.40494400  0.84359300  0.42275600  1
loop_
_geom_bond_atom_site_label_1
_geom_bond_atom_site_label_2
_geom_bond_distance
_geom_bond_site_symmetry_2
Lu0 O0 2.179933 1_444
Lu0 O1 2.179933 1_555
Lu0 O3 2.448761 1_554
Lu0 O9 2.448761 1_445
Lu0 O11 2.481820 1_544
Lu0 O5 2.481820 1_455
Lu0 O6 2.481820 1_545
Lu0 O12 2.481820 1_454
Lu1 O0 2.224594 1_445
Lu1 O1 2.224594 1_555
Lu1 O7 2.436947 1_455
Lu1 O13 2.436947 1_545
Lu1 O10 2.436947 1_455
Lu1 O4 2.436947 1_545
Lu1 O3 2.525141 1_555
Lu1 O9 2.525141 1_445
Mn0 O1 2.241150 1_555
Mn0 O0 2.241150 1_544
Mn0 O5 2.509944 1_555
Mn0 O11 2.509944 1_544
Mn0 O7 2.520831 1_554
Mn0 O13 2.520831 1_545
Mn0 O8 2.549825 1_554
Mn0 O2 2.549825 1_545
Mn1 O0 2.241150 1_454
Mn1 O1 2.241150 1_555
Mn1 O6 2.509944 1_555
Mn1 O12 2.509944 1_454
Mn1 O4 2.520831 1_554
Mn1 O10 2.520831 1_455
Mn1 O2 2.549825 1_455
Mn1 O8 2.549825 1_554
Mn2 O2 1.950709 1_555
Mn2 O8 1.950709 1_555
Mn2 O10 2.073845 1_555
Mn2 O13 2.073845 1_555
Mn2 O7 2.073845 1_555
Mn2 O4 2.073845 1_555
O2 Sb0 1.980149 1_555
O3 Sb1 2.016988 1_555
O3 Sb2 2.016988 1_555
O4 Sb1 1.952167 1_555
O5 Sb0 2.003042 1_555
O5 Sb2 2.012877 1_555
O6 Sb0 2.003042 1_555
O6 Sb1 2.012877 1_555
O7 Sb2 1.952167 1_555
O8 Sb0 1.980149 1_556
O9 Sb1 2.016988 1_655
O9 Sb2 2.016988 1_565
O10 Sb1 1.952167 1_655
O11 Sb0 2.003042 1_556
O11 Sb2 2.012877 1_565
O12 Sb0 2.003042 1_556
O12 Sb1 2.012877 1_655
O13 Sb2 1.952167 1_565
