# generated using pymatgen
data_CaSm4Ti2Mn2O12
_symmetry_space_group_name_H-M   'P 1'
_cell_length_a   5.91494780
_cell_length_b   6.23979591
_cell_length_c   7.64885710
_cell_angle_alpha   89.64884913
_cell_angle_beta   87.08335387
_cell_angle_gamma   81.74536107
_symmetry_Int_Tables_number   1
_chemical_formula_structural   CaSm4Ti2Mn2O12
_chemical_formula_sum   'Ca1 Sm4 Ti2 Mn2 O12'
_cell_volume   279.01768843
_cell_formula_units_Z   1
loop_
 _symmetry_equiv_pos_site_id
 _symmetry_equiv_pos_as_xyz
  1  'x, y, z'
loop_
 _atom_site_type_symbol
 _atom_site_label
 _atom_site_symmetry_multiplicity
 _atom_site_fract_x
 _atom_site_fract_y
 _atom_site_fract_z
 _atom_site_occupancy
  Ca  Ca0  1  0.38956200  0.29776900  0.15514300  1
  Sm  Sm0  1  0.98276200  0.92443400  0.75166000  1
  Sm  Sm1  1  0.56091500  0.43555200  0.74097800  1
  Sm  Sm2  1  0.96262600  0.07571400  0.25154800  1
  Sm  Sm3  1  0.65127200  0.63580800  0.30144800  1
  Ti  Ti0  1  0.46507900  0.02177000  0.51381200  1
  Ti  Ti1  1  0.99075600  0.49709900  0.98637100  1
  Mn  Mn0  1  0.11705000  0.49426700  0.51498800  1
  Mn  Mn1  1  0.45436600  0.89571600  0.96696900  1
  O  O0  1  0.89900700  0.56192500  0.73380700  1
  O  O1  1  0.59507200  0.06192000  0.75145400  1
  O  O2  1  0.03717900  0.44644800  0.26083200  1
  O  O3  1  0.38520400  0.95261800  0.25049300  1
  O  O4  1  0.81101600  0.86163600  0.45893200  1
  O  O5  1  0.71538200  0.37082700  0.03659900  1
  O  O6  1  0.14876100  0.15134000  0.54590500  1
  O  O7  1  0.28672900  0.61799000  0.94255700  1
  O  O8  1  0.15349800  0.14905400  0.96406500  1
  O  O9  1  0.35818600  0.70864300  0.56852300  1
  O  O10  1  0.81672200  0.81457800  0.05049900  1
  O  O11  1  0.59385500  0.29572600  0.42008200  1
loop_
_geom_bond_atom_site_label_1
_geom_bond_atom_site_label_2
_geom_bond_distance
_geom_bond_site_symmetry_2
Ca0 O5 2.193963 1_555
Ca0 O2 2.267394 1_555
Ca0 O3 2.272806 1_545
Ca0 O8 2.354397 1_554
Ca0 O11 2.410692 1_555
Ca0 O7 2.591964 1_554
Mn0 O2 2.057285 1_555
Mn0 O0 2.067741 1_455
Mn0 O6 2.133750 1_555
Mn0 O9 2.146012 1_555
Mn0 O4 2.755119 1_455
Mn1 O7 2.130121 1_555
Mn1 O1 2.138420 1_565
Mn1 O8 2.205038 1_565
Mn1 O3 2.207678 1_556
Mn1 O10 2.254360 1_556
O0 Ti1 2.055277 1_555
O0 Sm1 2.250579 1_555
O0 Sm0 2.390206 1_555
O1 Ti0 2.039876 1_555
O1 Sm1 2.312296 1_555
O1 Sm0 2.330244 1_545
O2 Ti1 2.146628 1_454
O2 Sm2 2.418471 1_455
O2 Sm3 2.420919 1_455
O3 Ti0 2.152205 1_565
O3 Sm3 2.386667 1_555
O3 Sm2 2.506872 1_465
O4 Ti0 2.166146 1_565
O4 Sm3 2.201900 1_555
O4 Sm2 2.297387 1_565
O4 Sm0 2.560340 1_555
O5 Ti1 1.929401 1_554
O5 Sm1 2.490752 1_554
O5 Sm3 2.600826 1_555
O5 Sm2 2.768943 1_555
O6 Ti0 1.932849 1_555
O6 Sm0 2.379104 1_445
O6 Sm2 2.630310 1_455
O7 Ti1 2.015578 1_455
O7 Sm1 2.353790 1_555
O7 Sm0 2.875187 1_455
O8 Ti1 2.249373 1_455
O8 Sm2 2.490516 1_456
O8 Sm0 2.495025 1_445
O9 Ti0 2.170296 1_565
O9 Sm1 2.372404 1_555
O9 Sm3 2.609547 1_555
O9 Sm0 2.748520 1_455
O10 Ti1 2.144669 1_554
O10 Sm3 2.445906 1_555
O10 Sm2 2.516790 1_565
O10 Sm0 2.569993 1_554
O11 Ti0 2.078369 1_555
O11 Sm3 2.365118 1_555
O11 Sm1 2.598552 1_555
O11 Sm2 2.679553 1_555
