# generated using pymatgen
data_Tb2AlGe6
_symmetry_space_group_name_H-M   'P 1'
_cell_length_a   6.03133155
_cell_length_b   6.03133155
_cell_length_c   10.52566353
_cell_angle_alpha   81.85603944
_cell_angle_beta   81.85603944
_cell_angle_gamma   91.68752615
_symmetry_Int_Tables_number   1
_chemical_formula_structural   Tb2AlGe6
_chemical_formula_sum   'Tb4 Al2 Ge12'
_cell_volume   374.72853897
_cell_formula_units_Z   2
loop_
 _symmetry_equiv_pos_site_id
 _symmetry_equiv_pos_as_xyz
  1  'x, y, z'
loop_
 _atom_site_type_symbol
 _atom_site_label
 _atom_site_symmetry_multiplicity
 _atom_site_fract_x
 _atom_site_fract_y
 _atom_site_fract_z
 _atom_site_occupancy
  Tb  Tb0  1  0.66533200  0.16137400  0.33937200  1
  Tb  Tb1  1  0.33466800  0.83862600  0.66062800  1
  Tb  Tb2  1  0.83862600  0.33466800  0.66062800  1
  Tb  Tb3  1  0.16137400  0.66533200  0.33937200  1
  Al  Al0  1  0.20010500  0.20010500  0.19694100  1
  Al  Al1  1  0.79989500  0.79989500  0.80305900  1
  Ge  Ge0  1  0.85247000  0.85247000  0.56067300  1
  Ge  Ge1  1  0.14753000  0.14753000  0.43932700  1
  Ge  Ge2  1  0.50931800  0.50931800  0.11848500  1
  Ge  Ge3  1  0.49068200  0.49068200  0.88151500  1
  Ge  Ge4  1  0.63878200  0.63878200  0.41348600  1
  Ge  Ge5  1  0.36121800  0.36121800  0.58651400  1
  Ge  Ge6  1  0.93050300  0.93050300  0.11838600  1
  Ge  Ge7  1  0.06949700  0.06949700  0.88161400  1
  Ge  Ge8  1  0.50540100  0.93421300  0.11823000  1
  Ge  Ge9  1  0.49459900  0.06578700  0.88177000  1
  Ge  Ge10  1  0.06578700  0.49459900  0.88177000  1
  Ge  Ge11  1  0.93421300  0.50540100  0.11823000  1
loop_
_geom_bond_atom_site_label_1
_geom_bond_atom_site_label_2
_geom_bond_distance
_geom_bond_site_symmetry_2
Al0 Ge1 2.499152 1_555
Al0 Ge2 2.561369 1_555
Al0 Ge6 2.564747 1_445
Al0 Ge8 2.601319 1_545
Al0 Ge11 2.601319 1_455
Al0 Tb3 3.345398 1_545
Al0 Tb0 3.345398 1_455
Al0 Tb0 3.362530 1_555
Al0 Tb3 3.362530 1_555
Al1 Ge0 2.499152 1_555
Al1 Ge3 2.561369 1_555
Al1 Ge7 2.564747 1_665
Al1 Ge9 2.601319 1_565
Al1 Ge10 2.601319 1_655
Al1 Tb2 3.345398 1_565
Al1 Tb1 3.345398 1_655
Al1 Tb2 3.362530 1_555
Al1 Tb1 3.362530 1_555
Ge0 Ge1 2.547713 1_665
Ge0 Ge4 2.599204 1_555
Ge0 Tb0 3.132107 1_565
Ge0 Tb3 3.132107 1_655
Ge0 Tb1 3.145800 1_555
Ge0 Tb2 3.145800 1_555
Ge0 Tb2 3.229300 1_565
Ge0 Tb1 3.229300 1_655
Ge1 Ge5 2.599204 1_555
Ge1 Tb2 3.132107 1_455
Ge1 Tb1 3.132107 1_545
Ge1 Tb0 3.145800 1_555
Ge1 Tb3 3.145800 1_555
Ge1 Tb3 3.229300 1_545
Ge1 Tb0 3.229300 1_455
Ge2 Ge3 2.530761 1_554
Ge2 Ge8 2.563112 1_555
Ge2 Tb0 3.169972 1_555
Ge2 Tb3 3.169972 1_555
Ge3 Ge9 2.563112 1_555
Ge3 Tb1 3.169972 1_555
Ge3 Tb2 3.169972 1_555
Ge4 Ge5 2.651281 1_555
Ge4 Tb0 3.090848 1_555
Ge4 Tb3 3.090848 1_555
Ge4 Tb0 3.131625 1_565
Ge4 Tb3 3.131625 1_655
Ge4 Tb1 3.354220 1_555
Ge4 Tb2 3.354220 1_555
Ge5 Tb1 3.090848 1_555
Ge5 Tb2 3.090848 1_555
Ge5 Tb1 3.131625 1_545
Ge5 Tb2 3.131625 1_455
Ge5 Tb3 3.354220 1_555
Ge5 Tb0 3.354220 1_555
Ge6 Ge7 2.528099 1_664
Ge6 Ge8 2.564919 1_555
Ge6 Tb0 3.146750 1_565
Ge6 Tb3 3.146750 1_655
Ge7 Ge9 2.564919 1_555
Ge7 Tb1 3.146750 1_545
Ge7 Tb2 3.146750 1_455
Ge8 Ge9 2.513564 1_564
Ge8 Tb0 3.112465 1_565
Ge8 Tb3 3.117260 1_555
Ge9 Tb1 3.112465 1_545
Ge9 Tb2 3.117260 1_555
Ge10 Ge11 2.513564 1_456
Ge10 Ge3 2.563112 1_555
Ge10 Ge7 2.564919 1_555
Ge10 Tb2 3.112465 1_455
Ge10 Tb1 3.117260 1_555
Ge11 Ge2 2.563112 1_555
Ge11 Ge6 2.564919 1_555
Ge11 Tb3 3.112465 1_655
Ge11 Tb0 3.117260 1_555
