# generated using pymatgen
data_Tb5Co19P12
_symmetry_space_group_name_H-M   'P 1'
_cell_length_a   11.98721773
_cell_length_b   11.98721773
_cell_length_c   3.67571600
_cell_angle_alpha   90.00000000
_cell_angle_beta   90.00000000
_cell_angle_gamma   119.99999852
_symmetry_Int_Tables_number   1
_chemical_formula_structural   Tb5Co19P12
_chemical_formula_sum   'Tb5 Co19 P12'
_cell_volume   457.41391749
_cell_formula_units_Z   1
loop_
 _symmetry_equiv_pos_site_id
 _symmetry_equiv_pos_as_xyz
  1  'x, y, z'
loop_
 _atom_site_type_symbol
 _atom_site_label
 _atom_site_symmetry_multiplicity
 _atom_site_fract_x
 _atom_site_fract_y
 _atom_site_fract_z
 _atom_site_occupancy
  Tb  Tb0  1  0.33333300  0.66666700  0.00000000  1
  Tb  Tb1  1  0.66666700  0.33333300  0.00000000  1
  Tb  Tb2  1  0.18768400  0.00000000  0.50000000  1
  Tb  Tb3  1  0.00000000  0.18768400  0.50000000  1
  Tb  Tb4  1  0.81231600  0.81231600  0.50000000  1
  Co  Co0  1  0.20035200  0.37806800  0.00000000  1
  Co  Co1  1  0.62193200  0.82228400  0.00000000  1
  Co  Co2  1  0.17771600  0.79964800  0.00000000  1
  Co  Co3  1  0.82228400  0.62193200  0.00000000  1
  Co  Co4  1  0.79964800  0.17771600  0.00000000  1
  Co  Co5  1  0.37806800  0.20035200  0.00000000  1
  Co  Co6  1  0.55264300  0.00000000  0.00000000  1
  Co  Co7  1  0.00000000  0.55264300  0.00000000  1
  Co  Co8  1  0.44735700  0.44735700  0.00000000  1
  Co  Co9  1  0.12520000  0.48372000  0.50000000  1
  Co  Co10  1  0.51628000  0.64148000  0.50000000  1
  Co  Co11  1  0.35852000  0.87480000  0.50000000  1
  Co  Co12  1  0.64148000  0.51628000  0.50000000  1
  Co  Co13  1  0.87480000  0.35852000  0.50000000  1
  Co  Co14  1  0.48372000  0.12520000  0.50000000  1
  Co  Co15  1  0.71477100  0.00000000  0.50000000  1
  Co  Co16  1  0.00000000  0.71477100  0.50000000  1
  Co  Co17  1  0.28522900  0.28522900  0.50000000  1
  Co  Co18  1  0.00000000  0.00000000  0.00000000  1
  P  P0  1  0.36884800  0.00000000  0.00000000  1
  P  P1  1  0.00000000  0.36884800  0.00000000  1
  P  P2  1  0.63115200  0.63115200  0.00000000  1
  P  P3  1  0.31409000  0.47957900  0.50000000  1
  P  P4  1  0.52042100  0.83451100  0.50000000  1
  P  P5  1  0.16548900  0.68591000  0.50000000  1
  P  P6  1  0.83451100  0.52042100  0.50000000  1
  P  P7  1  0.68591000  0.16548900  0.50000000  1
  P  P8  1  0.47957900  0.31409000  0.50000000  1
  P  P9  1  0.81879400  0.00000000  0.00000000  1
  P  P10  1  0.00000000  0.81879400  0.00000000  1
  P  P11  1  0.18120600  0.18120600  0.00000000  1
loop_
_geom_bond_atom_site_label_1
_geom_bond_atom_site_label_2
_geom_bond_distance
_geom_bond_site_symmetry_2
Co0 P3 2.249053 1_554
Co0 P3 2.249053 1_555
Co0 P11 2.253855 1_555
Co0 P1 2.348353 1_555
Co0 Tb3 2.978760 1_555
Co0 Tb3 2.978760 1_554
Co0 Tb0 2.999085 1_555
Co1 P4 2.249053 1_555
Co1 P4 2.249053 1_554
Co1 P9 2.253855 1_565
Co1 P2 2.348353 1_555
Co1 Tb4 2.978760 1_555
Co1 Tb4 2.978760 1_554
Co1 Tb0 2.999084 1_555
Co2 P5 2.249053 1_554
Co2 P5 2.249053 1_555
Co2 P10 2.253855 1_555
Co2 P0 2.348353 1_565
Co2 Tb2 2.978760 1_565
Co2 Tb2 2.978760 1_564
Co2 Tb0 2.999074 1_555
Co3 P6 2.249053 1_555
Co3 P6 2.249053 1_554
Co3 P10 2.253855 1_655
Co3 P2 2.348353 1_555
Co3 Tb4 2.978760 1_555
Co3 Tb4 2.978760 1_554
Co3 Tb1 2.999084 1_555
Co4 P7 2.249053 1_555
Co4 P7 2.249053 1_554
Co4 P9 2.253855 1_555
Co4 P1 2.348353 1_655
Co4 Tb3 2.978760 1_655
Co4 Tb3 2.978760 1_654
Co4 Tb1 2.999074 1_555
Co5 P8 2.249053 1_555
Co5 P8 2.249053 1_554
Co5 P11 2.253855 1_555
Co5 P0 2.348353 1_555
Co5 Tb2 2.978760 1_555
Co5 Tb2 2.978760 1_554
Co5 Tb1 2.999085 1_555
Co6 P0 2.203191 1_555
Co6 P4 2.587655 1_544
Co6 P4 2.587655 1_545
Co6 P7 2.587655 1_555
Co6 P7 2.587655 1_554
Co7 P1 2.203191 1_555
Co7 P6 2.587655 1_455
Co7 P6 2.587655 1_454
Co7 P5 2.587655 1_554
Co7 P5 2.587655 1_555
Co8 P2 2.203191 1_555
Co8 P3 2.587655 1_554
Co8 P8 2.587655 1_555
Co8 P3 2.587655 1_555
Co8 P8 2.587655 1_554
Co9 P5 2.221939 1_555
Co9 P3 2.289489 1_555
Co9 P1 2.336588 1_556
Co9 P1 2.336588 1_555
Co9 Tb0 2.990038 1_555
Co9 Tb0 2.990038 1_556
Co9 Tb3 3.085368 1_555
Co10 P3 2.221939 1_555
Co10 P4 2.289489 1_555
Co10 P2 2.336588 1_556
Co10 P2 2.336588 1_555
Co10 Tb0 2.990044 1_555
Co10 Tb0 2.990044 1_556
Co10 Tb4 3.085368 1_555
Co11 P4 2.221939 1_555
Co11 P5 2.289489 1_555
Co11 P0 2.336588 1_565
Co11 P0 2.336588 1_566
Co11 Tb0 2.990035 1_556
Co11 Tb0 2.990035 1_555
Co11 Tb2 3.085367 1_565
Co12 P8 2.221939 1_555
Co12 P6 2.289489 1_555
Co12 P2 2.336588 1_556
Co12 P2 2.336588 1_555
Co12 Tb1 2.990044 1_556
Co12 Tb1 2.990044 1_555
Co12 Tb4 3.085368 1_555
Co13 P6 2.221939 1_555
Co13 P7 2.289489 1_555
Co13 P1 2.336588 1_655
Co13 P1 2.336588 1_656
Co13 Tb1 2.990035 1_555
Co13 Tb1 2.990035 1_556
Co13 Tb3 3.085367 1_655
Co14 P7 2.221939 1_555
Co14 P8 2.289489 1_555
Co14 P0 2.336588 1_555
Co14 P0 2.336588 1_556
Co14 Tb1 2.990038 1_555
Co14 Tb1 2.990038 1_556
Co14 Tb2 3.085368 1_555
Co15 P7 2.177446 1_555
Co15 P4 2.177446 1_545
Co15 P9 2.220945 1_556
Co15 P9 2.220945 1_555
Co15 Tb4 3.009912 1_545
Co15 Tb3 3.009913 1_655
Co16 P5 2.177446 1_555
Co16 P6 2.177446 1_455
Co16 P10 2.220945 1_556
Co16 P10 2.220945 1_555
Co16 Tb4 3.009912 1_455
Co16 Tb2 3.009913 1_565
Co17 P8 2.177446 1_555
Co17 P3 2.177446 1_555
Co17 P11 2.220945 1_555
Co17 P11 2.220945 1_556
Co17 Tb3 3.009913 1_555
Co17 Tb2 3.009913 1_555
Co18 P10 2.172156 1_545
Co18 P9 2.172156 1_455
Co18 P11 2.172156 1_555
Co18 Tb2 2.905058 1_555
Co18 Tb2 2.905058 1_554
Co18 Tb3 2.905058 1_554
Co18 Tb3 2.905058 1_555
Co18 Tb4 2.905058 1_445
Co18 Tb4 2.905058 1_444
P0 Tb2 2.844960 1_555
P0 Tb2 2.844960 1_554
P1 Tb3 2.844960 1_555
P1 Tb3 2.844960 1_554
P2 Tb4 2.844960 1_555
P2 Tb4 2.844960 1_554
P3 Tb0 2.818361 1_555
P3 Tb0 2.818361 1_556
P4 Tb0 2.818357 1_555
P4 Tb0 2.818357 1_556
P5 Tb0 2.818352 1_555
P5 Tb0 2.818352 1_556
P6 Tb1 2.818357 1_555
P6 Tb1 2.818357 1_556
P7 Tb1 2.818352 1_556
P7 Tb1 2.818352 1_555
P8 Tb1 2.818361 1_555
P8 Tb1 2.818361 1_556
P9 Tb4 2.875880 1_545
P9 Tb4 2.875880 1_544
P9 Tb3 2.875880 1_655
P9 Tb3 2.875880 1_654
P10 Tb4 2.875880 1_454
P10 Tb4 2.875880 1_455
P10 Tb2 2.875880 1_565
P10 Tb2 2.875880 1_564
P11 Tb2 2.875880 1_555
P11 Tb2 2.875880 1_554
P11 Tb3 2.875880 1_554
P11 Tb3 2.875880 1_555
