# generated using pymatgen
data_BaCe2EuO6
_symmetry_space_group_name_H-M   'P 1'
_cell_length_a   6.21199235
_cell_length_b   6.21892311
_cell_length_c   8.81602514
_cell_angle_alpha   90.00000000
_cell_angle_beta   90.00000000
_cell_angle_gamma   90.00000000
_symmetry_Int_Tables_number   1
_chemical_formula_structural   BaCe2EuO6
_chemical_formula_sum   'Ba2 Ce4 Eu2 O12'
_cell_volume   340.57982615
_cell_formula_units_Z   2
loop_
 _symmetry_equiv_pos_site_id
 _symmetry_equiv_pos_as_xyz
  1  'x, y, z'
loop_
 _atom_site_type_symbol
 _atom_site_label
 _atom_site_symmetry_multiplicity
 _atom_site_fract_x
 _atom_site_fract_y
 _atom_site_fract_z
 _atom_site_occupancy
  Ba  Ba0  1  0.24283927  0.52649747  0.00000000  1
  Ba  Ba1  1  0.75716073  0.02649747  0.00000000  1
  Ce  Ce0  1  0.75041341  0.49889126  0.74428461  1
  Ce  Ce1  1  0.24958659  -0.00110874  0.74428461  1
  Ce  Ce2  1  0.75041341  0.49889126  0.25571539  1
  Ce  Ce3  1  0.24958659  -0.00110874  0.25571539  1
  Eu  Eu0  1  0.74416253  0.96877831  0.50000000  1
  Eu  Eu1  1  0.25583747  0.46877831  0.50000000  1
  O  O0  1  0.32588782  0.98428052  0.00000000  1
  O  O1  1  0.85929075  0.53143383  0.50000000  1
  O  O2  1  0.14070925  0.03143383  0.50000000  1
  O  O3  1  0.67411218  0.48428052  0.00000000  1
  O  O4  1  0.54532061  0.20254787  0.68789387  1
  O  O5  1  0.04279519  0.29306580  0.78706681  1
  O  O6  1  0.95720481  0.79306580  0.21293319  1
  O  O7  1  0.45467939  0.70254787  0.31210613  1
  O  O8  1  0.95720481  0.79306580  0.78706681  1
  O  O9  1  0.45467939  0.70254787  0.68789387  1
  O  O10  1  0.54532061  0.20254787  0.31210613  1
  O  O11  1  0.04279519  0.29306580  0.21293319  1
loop_
_geom_bond_atom_site_label_1
_geom_bond_atom_site_label_2
_geom_bond_distance
_geom_bond_site_symmetry_2
Ba0 O11 2.678735 1_555
Ba0 O5 2.678735 1_554
Ba0 O3 2.691898 1_555
Ba0 O0 2.893284 1_555
Ba0 O6 3.069286 1_455
Ba0 O8 3.069286 1_454
Ba0 O7 3.240579 1_555
Ba0 O9 3.240579 1_554
Ba0 O0 3.411242 1_545
Ba1 O6 2.678735 1_545
Ba1 O8 2.678735 1_544
Ba1 O0 2.691898 1_545
Ba1 O3 2.893284 1_555
Ba1 O11 3.069286 1_655
Ba1 O5 3.069286 1_654
Ba1 O4 3.240579 1_554
Ba1 O10 3.240579 1_555
Ba1 O3 3.411242 1_545
Ce0 O5 2.253783 1_655
Ce0 O1 2.266380 1_555
Ce0 O8 2.267003 1_555
Ce0 O9 2.286080 1_555
Ce0 O4 2.294936 1_555
Ce0 O3 2.305473 1_556
Ce1 O8 2.253783 1_445
Ce1 O2 2.266380 1_555
Ce1 O5 2.267003 1_555
Ce1 O4 2.286080 1_555
Ce1 O9 2.294936 1_545
Ce1 O0 2.305473 1_546
Ce2 O11 2.253783 1_655
Ce2 O1 2.266380 1_555
Ce2 O6 2.267003 1_555
Ce2 O7 2.286080 1_555
Ce2 O10 2.294936 1_555
Ce2 O3 2.305473 1_555
Ce3 O6 2.253783 1_445
Ce3 O2 2.266380 1_555
Ce3 O11 2.267003 1_555
Ce3 O10 2.286080 1_555
Ce3 O7 2.294936 1_545
Ce3 O0 2.305473 1_545
Eu0 O2 2.493972 1_665
Eu0 O10 2.526493 1_565
Eu0 O4 2.526493 1_565
Eu0 O1 2.812268 1_555
Eu0 O9 2.952781 1_555
Eu0 O7 2.952781 1_555
Eu0 O8 3.057844 1_555
Eu0 O6 3.057844 1_555
Eu1 O1 2.493972 1_455
Eu1 O9 2.526493 1_555
Eu1 O7 2.526493 1_555
Eu1 O2 2.812268 1_555
Eu1 O10 2.952781 1_555
Eu1 O4 2.952781 1_555
Eu1 O11 3.057844 1_555
Eu1 O5 3.057844 1_555
