# generated using pymatgen
data_Ca2CrOsO6
_symmetry_space_group_name_H-M   'P 1'
_cell_length_a   4.87850867
_cell_length_b   5.41154900
_cell_length_c   13.35806212
_cell_angle_alpha   90.00000000
_cell_angle_beta   47.14374065
_cell_angle_gamma   90.00000000
_symmetry_Int_Tables_number   1
_chemical_formula_structural   Ca2CrOsO6
_chemical_formula_sum   'Ca4 Cr2 Os2 O12'
_cell_volume   258.51935039
_cell_formula_units_Z   2
loop_
 _symmetry_equiv_pos_site_id
 _symmetry_equiv_pos_as_xyz
  1  'x, y, z'
loop_
 _atom_site_type_symbol
 _atom_site_label
 _atom_site_symmetry_multiplicity
 _atom_site_fract_x
 _atom_site_fract_y
 _atom_site_fract_z
 _atom_site_occupancy
  Ca  Ca0  1  0.46409800  0.55419100  0.25732900  1
  Ca  Ca1  1  0.96409800  0.94580900  0.75732900  1
  Ca  Ca2  1  0.53590200  0.44580900  0.74267100  1
  Ca  Ca3  1  0.03590200  0.05419100  0.24267100  1
  Cr  Cr0  1  0.50000000  0.50000000  0.00000000  1
  Cr  Cr1  1  0.00000000  0.00000000  0.50000000  1
  Os  Os0  1  0.50000000  0.50000000  0.50000000  1
  Os  Os1  1  0.00000000  0.00000000  0.00000000  1
  O  O0  1  0.08359300  0.71156900  0.57757900  1
  O  O1  1  0.58359300  0.78843100  0.07757900  1
  O  O2  1  0.91640700  0.28843100  0.42242100  1
  O  O3  1  0.41640700  0.21156900  0.92242100  1
  O  O4  1  0.31735600  0.72682600  0.93452800  1
  O  O5  1  0.81735600  0.77317400  0.43452800  1
  O  O6  1  0.68264400  0.27317400  0.06547200  1
  O  O7  1  0.18264400  0.22682600  0.56547200  1
  O  O8  1  0.04115000  0.45459900  0.17393000  1
  O  O9  1  0.54115000  0.04540100  0.67393000  1
  O  O10  1  0.95885000  0.54540100  0.82607000  1
  O  O11  1  0.45885000  0.95459900  0.32607000  1
loop_
_geom_bond_atom_site_label_1
_geom_bond_atom_site_label_2
_geom_bond_distance
_geom_bond_site_symmetry_2
Ca0 O8 2.278242 1_655
Ca0 O11 2.346698 1_555
Ca0 O1 2.409955 1_555
Ca0 O2 2.460751 1_455
Ca0 O6 2.510082 1_555
Ca0 O5 2.608204 1_455
Ca1 O9 2.278242 1_665
Ca1 O10 2.346698 1_555
Ca1 O0 2.409955 1_655
Ca1 O3 2.460751 1_565
Ca1 O7 2.510082 1_665
Ca1 O4 2.608204 1_555
Ca2 O10 2.278242 1_455
Ca2 O9 2.346698 1_555
Ca2 O3 2.409955 1_555
Ca2 O0 2.460751 1_655
Ca2 O4 2.510082 1_555
Ca2 O7 2.608204 1_655
Ca3 O11 2.278242 1_445
Ca3 O8 2.346698 1_555
Ca3 O2 2.409955 1_455
Ca3 O1 2.460751 1_545
Ca3 O5 2.510082 1_445
Ca3 O6 2.608204 1_555
Cr0 O10 1.842401 1_554
Cr0 O8 1.842401 1_555
Cr0 O6 2.031157 1_555
Cr0 O4 2.031157 1_554
Cr0 O1 2.061894 1_555
Cr0 O3 2.061894 1_554
Cr1 O11 1.842401 1_545
Cr1 O9 1.842401 1_455
Cr1 O7 2.031157 1_555
Cr1 O5 2.031157 1_445
Cr1 O0 2.061894 1_545
Cr1 O2 2.061894 1_455
O0 Os0 1.909917 1_555
O1 Os1 1.909917 1_665
O2 Os0 1.909917 1_555
O3 Os1 1.909917 1_556
O4 Os1 1.872246 1_566
O5 Os0 1.872246 1_555
O6 Os1 1.872246 1_655
O7 Os0 1.872246 1_555
