# generated using pymatgen
data_CsP(HO)2
_symmetry_space_group_name_H-M   'P 1'
_cell_length_a   6.66450509
_cell_length_b   7.95760706
_cell_length_c   8.38496078
_cell_angle_alpha   90.00000000
_cell_angle_beta   90.00000000
_cell_angle_gamma   90.00000000
_symmetry_Int_Tables_number   1
_chemical_formula_structural   CsP(HO)2
_chemical_formula_sum   'Cs4 P4 H8 O8'
_cell_volume   444.68392448
_cell_formula_units_Z   4
loop_
 _symmetry_equiv_pos_site_id
 _symmetry_equiv_pos_as_xyz
  1  'x, y, z'
loop_
 _atom_site_type_symbol
 _atom_site_label
 _atom_site_symmetry_multiplicity
 _atom_site_fract_x
 _atom_site_fract_y
 _atom_site_fract_z
 _atom_site_occupancy
  Cs  Cs0  1  0.25000000  0.36449781  0.13421641  1
  Cs  Cs1  1  0.25000000  0.13550219  0.63421641  1
  Cs  Cs2  1  0.75000000  0.63550219  0.86578359  1
  Cs  Cs3  1  0.75000000  0.86449781  0.36578359  1
  P  P0  1  0.75000000  0.17113050  0.88863327  1
  P  P1  1  0.75000000  0.32886950  0.38863327  1
  P  P2  1  0.25000000  0.82886950  0.11136673  1
  P  P3  1  0.25000000  0.67113050  0.61136673  1
  H  H0  1  0.75000000  0.06691331  0.02586265  1
  H  H1  1  0.75000000  0.43308669  0.52586265  1
  H  H2  1  0.25000000  0.93308669  0.97413735  1
  H  H3  1  0.25000000  0.56691331  0.47413735  1
  H  H4  1  0.75000000  0.04933675  0.76444056  1
  H  H5  1  0.75000000  0.45066325  0.26444056  1
  H  H6  1  0.25000000  0.95066325  0.23555944  1
  H  H7  1  0.25000000  0.54933675  0.73555944  1
  O  O0  1  0.55592974  0.26673662  0.88235388  1
  O  O1  1  0.94407026  0.23326338  0.38235388  1
  O  O2  1  0.05592974  0.73326338  0.11764612  1
  O  O3  1  0.44407026  0.76673662  0.61764612  1
  O  O4  1  0.44407026  0.73326338  0.11764612  1
  O  O5  1  0.05592974  0.76673662  0.61764612  1
  O  O6  1  0.94407026  0.26673662  0.88235388  1
  O  O7  1  0.55592974  0.23326338  0.38235388  1
loop_
_geom_bond_atom_site_label_1
_geom_bond_atom_site_label_2
_geom_bond_distance
_geom_bond_site_symmetry_2
Cs0 O0 3.036796 1_554
Cs0 O6 3.036796 1_454
Cs0 O1 3.094604 1_455
Cs0 O7 3.094604 1_555
Cs0 O2 3.209888 1_555
Cs0 O4 3.209888 1_555
Cs0 H3 3.273877 1_555
Cs0 H6 3.401002 1_545
Cs1 O1 3.036796 1_455
Cs1 O7 3.036796 1_555
Cs1 O6 3.094604 1_455
Cs1 O0 3.094604 1_555
Cs1 O3 3.209888 1_545
Cs1 O5 3.209888 1_545
Cs1 H2 3.273877 1_545
Cs1 H7 3.401002 1_555
Cs2 O4 3.036796 1_556
Cs2 O2 3.036796 1_656
Cs2 O3 3.094604 1_555
Cs2 O5 3.094604 1_655
Cs2 O0 3.209888 1_555
Cs2 O6 3.209888 1_555
Cs2 H1 3.273877 1_555
Cs2 H4 3.401002 1_565
Cs3 O3 3.036796 1_555
Cs3 O5 3.036796 1_655
Cs3 O4 3.094604 1_555
Cs3 O2 3.094604 1_655
Cs3 O1 3.209888 1_565
Cs3 O7 3.209888 1_565
Cs3 H0 3.273877 1_565
Cs3 H5 3.401002 1_555
H0 P0 1.418378 1_554
H1 P1 1.418378 1_555
H2 P2 1.418378 1_556
H3 P3 1.418378 1_555
H4 P0 1.422580 1_555
H5 P1 1.422580 1_555
H6 P2 1.422580 1_555
H7 P3 1.422580 1_555
O0 P0 1.501473 1_555
O1 P1 1.501473 1_555
O2 P2 1.501473 1_555
O3 P3 1.501473 1_555
O4 P2 1.501473 1_555
O5 P3 1.501473 1_555
O6 P0 1.501473 1_555
O7 P1 1.501473 1_555
