# generated using pymatgen
data_Yb(InCu)6
_symmetry_space_group_name_H-M   'P 1'
_cell_length_a   7.11594355
_cell_length_b   7.11594355
_cell_length_c   7.11594355
_cell_angle_alpha   135.70461068
_cell_angle_beta   98.33359348
_cell_angle_gamma   98.00819367
_symmetry_Int_Tables_number   1
_chemical_formula_structural   Yb(InCu)6
_chemical_formula_sum   'Yb1 In6 Cu6'
_cell_volume   233.06923096
_cell_formula_units_Z   1
loop_
 _symmetry_equiv_pos_site_id
 _symmetry_equiv_pos_as_xyz
  1  'x, y, z'
loop_
 _atom_site_type_symbol
 _atom_site_label
 _atom_site_symmetry_multiplicity
 _atom_site_fract_x
 _atom_site_fract_y
 _atom_site_fract_z
 _atom_site_occupancy
  Yb  Yb0  1  0.00000000  0.00000000  0.00000000  1
  In  In0  1  0.34051200  0.34051200  0.00000000  1
  In  In1  1  0.65948800  0.65948800  0.00000000  1
  In  In2  1  0.66244700  0.00000000  0.66244700  1
  In  In3  1  0.33755300  0.00000000  0.33755300  1
  In  In4  1  0.82366100  0.32366100  0.50000000  1
  In  In5  1  0.17633900  0.67633900  0.50000000  1
  Cu  Cu0  1  0.50000000  0.00000000  0.00000000  1
  Cu  Cu1  1  0.50000000  0.50000000  0.50000000  1
  Cu  Cu2  1  0.00000000  0.00000000  0.50000000  1
  Cu  Cu3  1  0.00000000  0.50000000  0.00000000  1
  Cu  Cu4  1  0.76448300  0.50000000  0.26448300  1
  Cu  Cu5  1  0.23551700  0.50000000  0.73551700  1
loop_
_geom_bond_atom_site_label_1
_geom_bond_atom_site_label_2
_geom_bond_distance
_geom_bond_site_symmetry_2
In0 Yb0 3.179085 1_555
In1 Yb0 3.179085 1_665
In2 In3 3.023350 1_555
In2 Yb0 3.141150 1_656
In3 Yb0 3.141150 1_555
In4 Yb0 3.147567 1_655
In4 Yb0 3.147567 1_666
In5 Yb0 3.147567 1_555
In5 Yb0 3.147567 1_566
Cu0 Cu1 2.682678 1_555
Cu0 Cu1 2.682678 1_544
Cu0 Cu4 2.695391 1_555
Cu0 Cu5 2.695391 1_544
Cu0 In5 2.772063 1_544
Cu0 In4 2.772063 1_555
Cu0 In2 2.812608 1_554
Cu0 In3 2.812608 1_555
Cu0 In0 2.815222 1_555
Cu0 In1 2.815222 1_545
Cu0 Yb0 3.557972 1_555
Cu0 Yb0 3.557972 1_655
Cu1 Cu4 2.695391 1_555
Cu1 Cu5 2.695391 1_555
Cu1 In5 2.772063 1_555
Cu1 In4 2.772063 1_555
Cu1 In2 2.812608 1_565
Cu1 In3 2.812608 1_555
Cu1 In0 2.815222 1_555
Cu1 In1 2.815222 1_556
Cu1 Yb0 3.557972 1_555
Cu1 Yb0 3.557972 1_666
Cu2 Cu3 2.682678 1_556
Cu2 Cu3 2.682678 1_545
Cu2 Cu4 2.695391 1_445
Cu2 Cu5 2.695391 1_555
Cu2 In5 2.772063 1_545
Cu2 In4 2.772063 1_455
Cu2 In2 2.812608 1_455
Cu2 In3 2.812608 1_555
Cu2 In0 2.815222 1_556
Cu2 In1 2.815222 1_445
Cu2 Yb0 3.557972 1_555
Cu2 Yb0 3.557972 1_556
Cu3 Cu5 2.695391 1_554
Cu3 Cu4 2.695391 1_455
Cu3 In5 2.772063 1_555
Cu3 In4 2.772063 1_454
Cu3 In3 2.812608 1_565
Cu3 In2 2.812608 1_454
Cu3 In0 2.815222 1_555
Cu3 In1 2.815222 1_455
Cu3 Yb0 3.557972 1_555
Cu3 Yb0 3.557972 1_565
Cu4 In5 2.741112 1_655
Cu4 In4 2.741112 1_555
Cu4 In2 2.845757 1_554
Cu4 In2 2.845757 1_565
Cu4 In1 2.876559 1_555
Cu4 In0 2.876559 1_555
Cu4 Yb0 3.464108 1_655
Cu4 Yb0 3.464108 1_666
Cu5 In4 2.741112 1_455
Cu5 In5 2.741112 1_555
Cu5 In3 2.845757 1_566
Cu5 In3 2.845757 1_555
Cu5 In1 2.876559 1_556
Cu5 In0 2.876559 1_556
Cu5 Yb0 3.464108 1_555
Cu5 Yb0 3.464108 1_566
