# generated using pymatgen
data_TiO
_symmetry_space_group_name_H-M   'P 1'
_cell_length_a   10.79911345
_cell_length_b   10.42797597
_cell_length_c   10.72396859
_cell_angle_alpha   90.05656214
_cell_angle_beta   90.14973448
_cell_angle_gamma   86.45157479
_symmetry_Int_Tables_number   1
_chemical_formula_structural   TiO
_chemical_formula_sum   'Ti50 O50'
_cell_volume   1205.33736066
_cell_formula_units_Z   50
loop_
 _symmetry_equiv_pos_site_id
 _symmetry_equiv_pos_as_xyz
  1  'x, y, z'
loop_
 _atom_site_type_symbol
 _atom_site_label
 _atom_site_symmetry_multiplicity
 _atom_site_fract_x
 _atom_site_fract_y
 _atom_site_fract_z
 _atom_site_occupancy
  Ti  Ti0  1  0.63649100  0.11090700  0.11625300  1
  Ti  Ti1  1  0.62812100  0.85960400  0.52159100  1
  Ti  Ti2  1  0.77809200  0.35584200  0.54777800  1
  Ti  Ti3  1  0.07645700  0.02134000  0.01182900  1
  Ti  Ti4  1  0.21623500  0.81649000  0.16169400  1
  Ti  Ti5  1  0.44262200  0.53866800  0.93167100  1
  Ti  Ti6  1  0.61645200  0.39713600  0.09148400  1
  Ti  Ti7  1  0.18499000  0.05091300  0.36248300  1
  Ti  Ti8  1  0.97451400  0.99076500  0.25134000  1
  Ti  Ti9  1  0.44546900  0.55919300  0.53419500  1
  Ti  Ti10  1  0.56893600  0.95875700  0.78977000  1
  Ti  Ti11  1  0.59691500  0.18738600  0.58664900  1
  Ti  Ti12  1  0.84308000  0.03227700  0.82113000  1
  Ti  Ti13  1  0.07356900  0.85692500  0.49349800  1
  Ti  Ti14  1  0.40075800  0.24754300  0.14111800  1
  Ti  Ti15  1  0.29926400  0.42762400  0.69470000  1
  Ti  Ti16  1  0.83754500  0.68214300  0.40179200  1
  Ti  Ti17  1  0.62395400  0.75569600  0.96157100  1
  Ti  Ti18  1  0.21852700  0.68421900  0.92496100  1
  Ti  Ti19  1  0.23238900  0.69258200  0.66969100  1
  Ti  Ti20  1  0.81564300  0.42668800  0.29286500  1
  Ti  Ti21  1  0.24426600  0.51073600  0.13973600  1
  Ti  Ti22  1  0.67402800  0.24237000  0.87940600  1
  Ti  Ti23  1  0.01471700  0.60650200  0.59223700  1
  Ti  Ti24  1  0.27777600  0.92948600  0.80146800  1
  Ti  Ti25  1  0.60226300  0.48101600  0.72691100  1
  Ti  Ti26  1  0.86554700  0.28464000  0.05319700  1
  Ti  Ti27  1  0.37813100  0.20588300  0.84123900  1
  Ti  Ti28  1  0.42225400  0.88168900  0.02150800  1
  Ti  Ti29  1  0.50120500  0.09686500  0.36301500  1
  Ti  Ti30  1  0.56820500  0.86521800  0.23377600  1
  Ti  Ti31  1  0.54869200  0.36725600  0.36716600  1
  Ti  Ti32  1  0.46904800  0.74417700  0.72423100  1
  Ti  Ti33  1  0.00827600  0.82113400  0.75478400  1
  Ti  Ti34  1  0.16696900  0.39297500  0.92019700  1
  Ti  Ti35  1  0.33087100  0.21991000  0.52926300  1
  Ti  Ti36  1  0.91112000  0.31625600  0.79056800  1
  Ti  Ti37  1  0.03791900  0.27128200  0.27143700  1
  Ti  Ti38  1  0.02006700  0.69486700  0.23324300  1
  Ti  Ti39  1  0.74076300  0.64593400  0.15993400  1
  Ti  Ti40  1  0.05245700  0.30871500  0.56259300  1
  Ti  Ti41  1  0.47005300  0.62463400  0.17929500  1
  Ti  Ti42  1  0.30120100  0.70790700  0.37371000  1
  Ti  Ti43  1  0.81743900  0.90024700  0.04836000  1
  Ti  Ti44  1  0.36510400  0.93889200  0.54842200  1
  Ti  Ti45  1  0.86484900  0.07215800  0.52992900  1
  Ti  Ti46  1  0.14834100  0.16454500  0.75504300  1
  Ti  Ti47  1  0.77477600  0.61551800  0.62612500  1
  Ti  Ti48  1  0.18188000  0.49787600  0.41230200  1
  Ti  Ti49  1  0.74760900  0.16554600  0.32832900  1
  O  O0  1  0.37514800  0.74468500  0.54992700  1
  O  O1  1  0.13937800  0.45888200  0.58893100  1
  O  O2  1  0.17765400  0.55596500  0.79983700  1
  O  O3  1  0.90486800  0.68667900  0.72546100  1
  O  O4  1  0.16496900  0.00064300  0.18800500  1
  O  O5  1  0.44600800  0.25611500  0.68315400  1
  O  O6  1  0.49356900  0.90946800  0.40703800  1
  O  O7  1  0.02090500  0.03638200  0.44166800  1
  O  O8  1  0.24760300  0.30118600  0.06135300  1
  O  O9  1  0.60599300  0.92929500  0.06436300  1
  O  O10  1  0.42643600  0.45181900  0.11147600  1
  O  O11  1  0.67844700  0.09691800  0.73949400  1
  O  O12  1  0.99761700  0.16357900  0.12593300  1
  O  O13  1  0.59383900  0.65744700  0.60086700  1
  O  O14  1  0.90805400  0.29273800  0.40395300  1
  O  O15  1  0.51750900  0.21810500  0.99971900  1
  O  O16  1  0.91087200  0.45383800  0.64255600  1
  O  O17  1  0.72946000  0.33289800  0.72973700  1
  O  O18  1  0.23050600  0.88187600  0.97759400  1
  O  O19  1  0.69012900  0.75746000  0.31808700  1
  O  O20  1  0.57405900  0.63509400  0.83795500  1
  O  O21  1  0.79490400  0.00955500  0.20810000  1
  O  O22  1  0.78715200  0.45924400  0.11229200  1
  O  O23  1  0.13080000  0.66067800  0.08356900  1
  O  O24  1  0.46414400  0.57193800  0.35148000  1
  O  O25  1  0.99405400  0.57019400  0.38758400  1
  O  O26  1  0.96475300  0.90550900  0.92437600  1
  O  O27  1  0.15153400  0.41065300  0.25634900  1
  O  O28  1  0.77932300  0.11273800  0.98874900  1
  O  O29  1  0.35269200  0.39091200  0.86996000  1
  O  O30  1  0.72915200  0.88598000  0.87007400  1
  O  O31  1  0.42061000  0.02227900  0.88274500  1
  O  O32  1  0.15675400  0.68240300  0.48852200  1
  O  O33  1  0.39876700  0.80715700  0.20628100  1
  O  O34  1  0.88446400  0.73366800  0.11439000  1
  O  O35  1  0.76523900  0.52109400  0.45391700  1
  O  O36  1  0.58644000  0.39154600  0.54812400  1
  O  O37  1  0.34515700  0.40805600  0.50479500  1
  O  O38  1  0.94530300  0.82398700  0.35362600  1
  O  O39  1  0.28343700  0.07729400  0.65631600  1
  O  O40  1  0.40693100  0.26775000  0.32122900  1
  O  O41  1  0.90714800  0.94807600  0.65911900  1
  O  O42  1  0.98571200  0.37906800  0.94088400  1
  O  O43  1  0.44759000  0.06788900  0.18377200  1
  O  O44  1  0.91205200  0.21251900  0.62790400  1
  O  O45  1  0.69040300  0.03528400  0.47848400  1
  O  O46  1  0.15646700  0.88324800  0.65593400  1
  O  O47  1  0.59826900  0.41568100  0.90574200  1
  O  O48  1  0.16509600  0.22793900  0.43601600  1
  O  O49  1  0.99615700  0.13764800  0.84787800  1
loop_
_geom_bond_atom_site_label_1
_geom_bond_atom_site_label_2
_geom_bond_distance
_geom_bond_site_symmetry_2
O0 Ti44 2.021452 1_555
O0 Ti9 2.040807 1_555
O0 Ti42 2.093924 1_555
O0 Ti19 2.106397 1_555
O0 Ti32 2.124093 1_555
O1 Ti40 1.895450 1_555
O1 Ti23 1.981638 1_555
O1 Ti48 1.998258 1_555
O1 Ti15 2.072407 1_555
O2 Ti18 1.962263 1_555
O2 Ti19 2.106985 1_555
O2 Ti15 2.138754 1_555
O2 Ti34 2.144186 1_555
O3 Ti33 1.871606 1_655
O3 Ti47 1.943919 1_555
O3 Ti23 2.007775 1_655
O4 Ti7 1.957684 1_555
O4 Ti4 1.985442 1_545
O4 Ti3 2.120269 1_555
O4 Ti8 2.176187 1_445
O5 Ti27 1.934297 1_555
O5 Ti11 2.025657 1_555
O5 Ti35 2.111455 1_555
O5 Ti15 2.318422 1_555
O6 Ti1 1.946597 1_555
O6 Ti29 2.017533 1_565
O6 Ti44 2.067610 1_555
O6 Ti30 2.067616 1_555
O7 Ti45 1.950640 1_455
O7 Ti7 1.981238 1_555
O7 Ti13 2.000771 1_545
O7 Ti8 2.159972 1_445
O8 Ti14 1.912892 1_555
O8 Ti34 1.964352 1_554
O8 Ti21 2.338733 1_555
O9 Ti30 1.988397 1_555
O9 Ti0 2.019641 1_565
O9 Ti17 2.117456 1_554
O9 Ti28 2.124028 1_555
O9 Ti43 2.291633 1_555
O10 Ti41 2.024626 1_555
O10 Ti21 2.047588 1_555
O10 Ti6 2.106910 1_555
O10 Ti5 2.143274 1_554
O10 Ti14 2.188732 1_555
O11 Ti10 1.995192 1_545
O11 Ti12 2.055818 1_555
O11 Ti11 2.060240 1_555
O11 Ti22 2.130968 1_555
O12 Ti37 1.984720 1_655
O12 Ti26 2.002386 1_555
O12 Ti3 2.065869 1_655
O12 Ti8 2.276105 1_545
O13 Ti47 1.993543 1_555
O13 Ti32 2.059216 1_555
O13 Ti9 2.079429 1_555
O13 Ti25 2.281190 1_555
O13 Ti1 2.325005 1_555
O14 Ti37 2.001831 1_655
O14 Ti20 2.047137 1_555
O14 Ti2 2.162562 1_555
O14 Ti40 2.317660 1_655
O14 Ti49 2.386221 1_555
O15 Ti14 1.986046 1_556
O15 Ti0 2.068553 1_556
O15 Ti22 2.156551 1_555
O15 Ti27 2.275986 1_555
O15 Ti6 2.415231 1_556
O16 Ti2 2.074884 1_555
O16 Ti23 2.075823 1_655
O16 Ti36 2.140519 1_555
O16 Ti47 2.173982 1_555
O16 Ti40 2.254157 1_655
O17 Ti22 1.975768 1_555
O17 Ti25 2.002669 1_555
O17 Ti2 2.040234 1_555
O17 Ti36 2.062910 1_555
O18 Ti24 2.028000 1_555
O18 Ti4 2.098502 1_556
O18 Ti28 2.122268 1_556
O18 Ti18 2.148031 1_555
O18 Ti3 2.172568 1_566
O19 Ti30 1.904322 1_555
O19 Ti16 1.948366 1_555
O19 Ti39 2.109570 1_555
O19 Ti1 2.502091 1_555
O20 Ti17 1.925147 1_555
O20 Ti32 1.975638 1_555
O20 Ti25 2.007472 1_555
O20 Ti5 2.054739 1_555
O21 Ti8 1.990982 1_545
O21 Ti43 2.063255 1_545
O21 Ti49 2.113233 1_555
O21 Ti0 2.187050 1_555
O22 Ti20 1.986215 1_555
O22 Ti6 2.003189 1_555
O22 Ti39 2.044668 1_555
O22 Ti26 2.059915 1_555
O23 Ti18 1.972029 1_554
O23 Ti21 2.017400 1_555
O23 Ti38 2.022266 1_555
O23 Ti4 2.090928 1_555
O24 Ti41 1.929399 1_555
O24 Ti9 1.975753 1_555
O24 Ti42 2.203688 1_555
O24 Ti31 2.275162 1_555
O25 Ti16 1.999859 1_555
O25 Ti38 2.135543 1_655
O25 Ti48 2.135752 1_655
O25 Ti23 2.239660 1_655
O25 Ti20 2.706841 1_555
O26 Ti3 1.991460 1_666
O26 Ti33 2.062244 1_655
O26 Ti43 2.079349 1_556
O26 Ti12 2.116645 1_565
O27 Ti48 1.939783 1_555
O27 Ti21 1.947938 1_555
O27 Ti37 1.966226 1_555
O28 Ti0 2.064923 1_556
O28 Ti22 2.073933 1_555
O28 Ti12 2.083552 1_555
O28 Ti26 2.181486 1_556
O28 Ti43 2.318751 1_546
O29 Ti27 1.956240 1_555
O29 Ti5 1.983691 1_555
O29 Ti15 1.995076 1_555
O29 Ti34 2.076919 1_555
O30 Ti10 2.035217 1_555
O30 Ti17 2.073324 1_555
O30 Ti12 2.086594 1_565
O30 Ti43 2.143386 1_556
O31 Ti10 1.968336 1_545
O31 Ti27 1.991537 1_555
O31 Ti24 2.061881 1_545
O31 Ti28 2.089266 1_546
O32 Ti13 1.979798 1_555
O32 Ti42 2.020398 1_555
O32 Ti23 2.092185 1_555
O32 Ti48 2.092336 1_555
O32 Ti19 2.110714 1_555
O33 Ti30 1.983829 1_555
O33 Ti4 2.023631 1_555
O33 Ti41 2.029238 1_555
O33 Ti28 2.150537 1_555
O33 Ti42 2.356624 1_555
O34 Ti39 1.914255 1_555
O34 Ti38 1.962300 1_655
O34 Ti43 1.971517 1_555
O35 Ti16 1.977138 1_555
O35 Ti2 1.993763 1_555
O35 Ti20 2.045387 1_555
O35 Ti47 2.097287 1_555
O36 Ti31 2.000972 1_555
O36 Ti2 2.080103 1_555
O36 Ti25 2.142481 1_555
O36 Ti11 2.165110 1_555
O36 Ti9 2.250789 1_555
O37 Ti9 1.991335 1_555
O37 Ti35 1.995174 1_555
O37 Ti15 2.103966 1_555
O37 Ti48 2.181386 1_555
O38 Ti38 1.999728 1_655
O38 Ti16 2.006631 1_555
O38 Ti13 2.081732 1_655
O38 Ti8 2.097827 1_555
O39 Ti46 1.979664 1_555
O39 Ti44 2.010977 1_545
O39 Ti35 2.105359 1_555
O39 Ti24 2.195309 1_545
O40 Ti14 1.944176 1_555
O40 Ti31 1.963341 1_555
O40 Ti29 2.046308 1_555
O40 Ti35 2.441962 1_555
O41 Ti45 1.931161 1_565
O41 Ti33 1.953289 1_655
O41 Ti12 2.048486 1_565
O42 Ti36 1.932054 1_555
O42 Ti34 1.984740 1_655
O42 Ti26 2.067110 1_556
O43 Ti14 1.964164 1_555
O43 Ti29 2.033732 1_555
O43 Ti0 2.237990 1_555
O43 Ti30 2.471567 1_545
O43 Ti28 2.632416 1_545
O44 Ti45 1.895431 1_555
O44 Ti40 1.997760 1_655
O44 Ti36 2.051410 1_555
O44 Ti2 2.189355 1_555
O45 Ti45 2.021132 1_555
O45 Ti1 2.044034 1_545
O45 Ti11 2.164441 1_555
O45 Ti49 2.221066 1_555
O45 Ti29 2.438485 1_555
O46 Ti13 1.983058 1_555
O46 Ti33 2.059824 1_555
O46 Ti19 2.108394 1_555
O46 Ti24 2.109614 1_555
O47 Ti22 1.957689 1_555
O47 Ti6 2.009379 1_556
O47 Ti25 2.037294 1_555
O47 Ti5 2.069370 1_555
O48 Ti40 1.977688 1_555
O48 Ti7 2.006168 1_555
O48 Ti35 2.045512 1_555
O48 Ti37 2.262209 1_555
O49 Ti46 1.958802 1_655
O49 Ti12 2.060128 1_555
O49 Ti36 2.116037 1_555
O49 Ti3 2.276036 1_656
