# generated using pymatgen
data_TmGa6
_symmetry_space_group_name_H-M   'P 1'
_cell_length_a   14.41834900
_cell_length_b   14.41834900
_cell_length_c   17.70273500
_cell_angle_alpha   90.00000000
_cell_angle_beta   90.00000000
_cell_angle_gamma   90.00000000
_symmetry_Int_Tables_number   1
_chemical_formula_structural   TmGa6
_chemical_formula_sum   'Tm2 Ga12'
_cell_volume   3680.20012141
_cell_formula_units_Z   2
loop_
 _symmetry_equiv_pos_site_id
 _symmetry_equiv_pos_as_xyz
  1  'x, y, z'
loop_
 _atom_site_type_symbol
 _atom_site_label
 _atom_site_symmetry_multiplicity
 _atom_site_fract_x
 _atom_site_fract_y
 _atom_site_fract_z
 _atom_site_occupancy
  Tm  Tm0  1  0.50000000  0.00000000  0.00000000  1
  Tm  Tm1  1  0.00000000  0.50000000  0.00000000  1
  Ga  Ga0  1  0.87287200  0.00000000  0.35107400  1
  Ga  Ga1  1  0.12712800  0.00000000  0.35107400  1
  Ga  Ga2  1  0.00000000  0.87287200  0.35107400  1
  Ga  Ga3  1  0.00000000  0.12712800  0.64892600  1
  Ga  Ga4  1  0.12712800  0.00000000  0.64892600  1
  Ga  Ga5  1  0.00000000  0.12712800  0.35107400  1
  Ga  Ga6  1  0.00000000  0.87287200  0.64892600  1
  Ga  Ga7  1  0.87287200  0.00000000  0.64892600  1
  Ga  Ga8  1  0.00000000  0.50000000  0.15838700  1
  Ga  Ga9  1  0.50000000  0.00000000  0.15838700  1
  Ga  Ga10  1  0.50000000  0.00000000  0.84161300  1
  Ga  Ga11  1  0.00000000  0.50000000  0.84161300  1
loop_
_geom_bond_atom_site_label_1
_geom_bond_atom_site_label_2
_geom_bond_distance
_geom_bond_site_symmetry_2
Ga0 Ga5 2.592219 1_655
Ga0 Ga2 2.592219 1_645
Ga1 Ga5 2.592219 1_555
Ga1 Ga2 2.592219 1_545
Ga3 Ga7 2.592219 1_455
Ga3 Ga4 2.592219 1_555
Ga4 Ga6 2.592219 1_545
Ga6 Ga7 2.592219 1_465
Ga8 Tm1 2.803883 1_555
Ga9 Tm0 2.803883 1_555
Ga10 Tm0 2.803883 1_556
Ga11 Tm1 2.803883 1_556
