# generated using pymatgen
data_Na3TbV2O8
_symmetry_space_group_name_H-M   'P 1'
_cell_length_a   5.92088850
_cell_length_b   5.92088850
_cell_length_c   7.17047200
_cell_angle_alpha   90.00000000
_cell_angle_beta   90.00000000
_cell_angle_gamma   120.00000560
_symmetry_Int_Tables_number   1
_chemical_formula_structural   Na3TbV2O8
_chemical_formula_sum   'Na3 Tb1 V2 O8'
_cell_volume   217.69683598
_cell_formula_units_Z   1
loop_
 _symmetry_equiv_pos_site_id
 _symmetry_equiv_pos_as_xyz
  1  'x, y, z'
loop_
 _atom_site_type_symbol
 _atom_site_label
 _atom_site_symmetry_multiplicity
 _atom_site_fract_x
 _atom_site_fract_y
 _atom_site_fract_z
 _atom_site_occupancy
  Na  Na0  1  0.33333300  0.66666700  0.68049500  1
  Na  Na1  1  0.66666700  0.33333300  0.31950500  1
  Na  Na2  1  0.00000000  0.00000000  0.00000000  1
  Tb  Tb0  1  0.00000000  0.00000000  0.50000000  1
  V  V0  1  0.33333300  0.66666700  0.21900900  1
  V  V1  1  0.66666700  0.33333300  0.78099100  1
  O  O0  1  0.33333300  0.66666700  0.98504500  1
  O  O1  1  0.66666700  0.33333300  0.01495500  1
  O  O2  1  0.17334400  0.82665600  0.30826800  1
  O  O3  1  0.82665600  0.17334400  0.69173200  1
  O  O4  1  0.17334400  0.34668800  0.30826800  1
  O  O5  1  0.82665600  0.65331200  0.69173200  1
  O  O6  1  0.65331200  0.82665600  0.30826800  1
  O  O7  1  0.34668800  0.17334400  0.69173200  1
loop_
_geom_bond_atom_site_label_1
_geom_bond_atom_site_label_2
_geom_bond_distance
_geom_bond_site_symmetry_2
Na0 O0 2.183767 1_555
Na1 O1 2.183767 1_555
Na2 O5 2.836578 1_444
Na2 O7 2.836578 1_554
Na2 O6 2.836578 1_445
Na2 O4 2.836578 1_555
Na2 O2 2.836578 1_545
Na2 O3 2.836578 1_454
O0 V0 1.677632 1_556
O1 V1 1.677632 1_554
O2 V0 1.761147 1_555
O2 Tb0 2.247284 1_565
O3 V1 1.761147 1_555
O3 Tb0 2.247284 1_655
O4 V0 1.761152 1_555
O4 Tb0 2.247284 1_555
O5 V1 1.761152 1_555
O5 Tb0 2.247284 1_665
O6 V0 1.761152 1_555
O6 Tb0 2.247284 1_665
O7 V1 1.761152 1_555
O7 Tb0 2.247284 1_555
