# generated using pymatgen
data_Sr2Ca6Mn7FeO24
_symmetry_space_group_name_H-M   'P 1'
_cell_length_a   7.67431554
_cell_length_b   7.67431554
_cell_length_c   7.67309400
_cell_angle_alpha   90.00000000
_cell_angle_beta   90.00000000
_cell_angle_gamma   90.01665059
_symmetry_Int_Tables_number   1
_chemical_formula_structural   Sr2Ca6Mn7FeO24
_chemical_formula_sum   'Sr2 Ca6 Mn7 Fe1 O24'
_cell_volume   451.90776487
_cell_formula_units_Z   1
loop_
 _symmetry_equiv_pos_site_id
 _symmetry_equiv_pos_as_xyz
  1  'x, y, z'
loop_
 _atom_site_type_symbol
 _atom_site_label
 _atom_site_symmetry_multiplicity
 _atom_site_fract_x
 _atom_site_fract_y
 _atom_site_fract_z
 _atom_site_occupancy
  Sr  Sr0  1  0.24983700  0.24983700  0.75013700  1
  Sr  Sr1  1  0.24983700  0.24983700  0.24986300  1
  Ca  Ca0  1  0.75009200  0.24993900  0.75000300  1
  Ca  Ca1  1  0.75009800  0.75009800  0.75007100  1
  Ca  Ca2  1  0.24993900  0.75009200  0.75000300  1
  Ca  Ca3  1  0.75009200  0.24993900  0.24999700  1
  Ca  Ca4  1  0.75009800  0.75009800  0.24992900  1
  Ca  Ca5  1  0.24993900  0.75009200  0.24999700  1
  Mn  Mn0  1  0.50120700  0.99861200  0.00000000  1
  Mn  Mn1  1  0.99861200  0.50120700  0.00000000  1
  Mn  Mn2  1  0.50112700  0.50112700  0.00000000  1
  Mn  Mn3  1  0.99855800  0.99855800  0.50000000  1
  Mn  Mn4  1  0.50108500  0.99878200  0.50000000  1
  Mn  Mn5  1  0.99878200  0.50108500  0.50000000  1
  Mn  Mn6  1  0.50122500  0.50122500  0.50000000  1
  Fe  Fe0  1  0.99865500  0.99865500  0.00000000  1
  O  O0  1  0.99667800  0.99667800  0.74541200  1
  O  O1  1  0.50355100  0.99652900  0.74917800  1
  O  O2  1  0.99652900  0.50355100  0.74917800  1
  O  O3  1  0.50348900  0.50348900  0.74972400  1
  O  O4  1  0.99667800  0.99667800  0.25458800  1
  O  O5  1  0.50355100  0.99652900  0.25082200  1
  O  O6  1  0.99652900  0.50355100  0.25082200  1
  O  O7  1  0.50348900  0.50348900  0.25027600  1
  O  O8  1  0.99441400  0.25450300  0.00000000  1
  O  O9  1  0.50628400  0.25086600  0.00000000  1
  O  O10  1  0.99877000  0.74529000  0.00000000  1
  O  O11  1  0.50095800  0.74918000  0.00000000  1
  O  O12  1  0.99367200  0.25082700  0.50000000  1
  O  O13  1  0.50634900  0.25030800  0.50000000  1
  O  O14  1  0.99927000  0.74918700  0.50000000  1
  O  O15  1  0.50070700  0.74973300  0.50000000  1
  O  O16  1  0.74529000  0.99877000  0.00000000  1
  O  O17  1  0.25450300  0.99441400  0.00000000  1
  O  O18  1  0.74918000  0.50095800  0.00000000  1
  O  O19  1  0.25086600  0.50628400  0.00000000  1
  O  O20  1  0.74918700  0.99927000  0.50000000  1
  O  O21  1  0.25082700  0.99367200  0.50000000  1
  O  O22  1  0.74973300  0.50070700  0.50000000  1
  O  O23  1  0.25030800  0.50634900  0.50000000  1
loop_
_geom_bond_atom_site_label_1
_geom_bond_atom_site_label_2
_geom_bond_distance
_geom_bond_site_symmetry_2
Ca0 O12 2.678473 1_555
Ca0 O13 2.679341 1_555
Ca0 O9 2.679665 1_556
Ca0 O8 2.682632 1_556
Ca0 O1 2.712884 1_545
Ca0 O0 2.713315 1_545
Ca0 O2 2.713439 1_555
Ca0 O3 2.714767 1_555
Ca0 O20 2.716721 1_545
Ca0 O22 2.717254 1_555
Ca0 O18 2.718594 1_556
Ca0 O16 2.719642 1_546
Ca1 O1 2.675573 1_555
Ca1 O2 2.675573 1_555
Ca1 O0 2.676013 1_555
Ca1 O3 2.676090 1_555
Ca1 O16 2.705740 1_556
Ca1 O10 2.705740 1_556
Ca1 O11 2.708023 1_556
Ca1 O18 2.708023 1_556
Ca1 O20 2.708971 1_555
Ca1 O14 2.708971 1_555
Ca1 O15 2.710148 1_555
Ca1 O22 2.710148 1_555
Ca2 O21 2.678473 1_555
Ca2 O23 2.679341 1_555
Ca2 O19 2.679665 1_556
Ca2 O17 2.682632 1_556
Ca2 O2 2.712884 1_455
Ca2 O0 2.713315 1_455
Ca2 O1 2.713439 1_555
Ca2 O3 2.714767 1_555
Ca2 O14 2.716721 1_455
Ca2 O15 2.717254 1_555
Ca2 O11 2.718594 1_556
Ca2 O10 2.719642 1_456
Ca3 O12 2.678473 1_555
Ca3 O13 2.679341 1_555
Ca3 O9 2.679665 1_555
Ca3 O8 2.682632 1_555
Ca3 O5 2.712884 1_545
Ca3 O4 2.713315 1_545
Ca3 O6 2.713439 1_555
Ca3 O7 2.714767 1_555
Ca3 O20 2.716721 1_545
Ca3 O22 2.717254 1_555
Ca3 O18 2.718594 1_555
Ca3 O16 2.719642 1_545
Ca4 O5 2.675573 1_555
Ca4 O6 2.675573 1_555
Ca4 O4 2.676013 1_555
Ca4 O7 2.676090 1_555
Ca4 O16 2.705740 1_555
Ca4 O10 2.705740 1_555
Ca4 O11 2.708023 1_555
Ca4 O18 2.708023 1_555
Ca4 O20 2.708971 1_555
Ca4 O14 2.708971 1_555
Ca4 O15 2.710148 1_555
Ca4 O22 2.710148 1_555
Ca5 O21 2.678473 1_555
Ca5 O23 2.679341 1_555
Ca5 O19 2.679665 1_555
Ca5 O17 2.682632 1_555
Ca5 O6 2.712884 1_455
Ca5 O4 2.713315 1_455
Ca5 O5 2.713439 1_555
Ca5 O7 2.714767 1_555
Ca5 O14 2.716721 1_455
Ca5 O15 2.717254 1_555
Ca5 O11 2.718594 1_555
Ca5 O10 2.719642 1_455
Mn0 O16 1.873170 1_555
Mn0 O17 1.893549 1_555
Mn0 O11 1.914220 1_555
Mn0 O5 1.924731 1_555
Mn0 O1 1.924731 1_554
Mn0 O9 1.936258 1_565
Mn1 O10 1.873170 1_555
Mn1 O8 1.893549 1_555
Mn1 O18 1.914220 1_555
Mn1 O2 1.924731 1_554
Mn1 O6 1.924731 1_555
Mn1 O19 1.936258 1_655
Mn2 O11 1.903638 1_555
Mn2 O18 1.903638 1_555
Mn2 O7 1.920562 1_555
Mn2 O3 1.920562 1_554
Mn2 O19 1.921001 1_555
Mn2 O9 1.921001 1_555
Mn3 O0 1.883180 1_555
Mn3 O4 1.883180 1_555
Mn3 O20 1.913761 1_555
Mn3 O14 1.913761 1_555
Mn3 O21 1.936366 1_655
Mn3 O12 1.936366 1_565
Mn4 O20 1.904016 1_555
Mn4 O15 1.911282 1_555
Mn4 O1 1.912138 1_555
Mn4 O5 1.912138 1_555
Mn4 O21 1.920948 1_555
Mn4 O13 1.930701 1_565
Mn5 O14 1.904016 1_555
Mn5 O22 1.911282 1_555
Mn5 O2 1.912138 1_555
Mn5 O6 1.912138 1_555
Mn5 O12 1.920948 1_555
Mn5 O23 1.930701 1_655
Mn6 O15 1.907134 1_555
Mn6 O22 1.907134 1_555
Mn6 O3 1.916313 1_555
Mn6 O7 1.916313 1_555
Mn6 O23 1.926029 1_555
Mn6 O13 1.926029 1_555
Fe0 O10 1.944403 1_555
Fe0 O16 1.944403 1_555
Fe0 O4 1.953595 1_555
Fe0 O0 1.953595 1_554
Fe0 O17 1.963737 1_655
Fe0 O8 1.963737 1_565
O0 Sr0 2.747405 1_665
O1 Sr0 2.751796 1_565
O2 Sr0 2.751796 1_655
O3 Sr0 2.752518 1_555
O4 Sr1 2.747405 1_665
O5 Sr1 2.751796 1_565
O6 Sr1 2.751796 1_655
O7 Sr1 2.752518 1_555
O8 Sr0 2.742159 1_654
O8 Sr1 2.742159 1_655
O9 Sr0 2.747551 1_554
O9 Sr1 2.747551 1_555
O12 Sr1 2.747472 1_655
O12 Sr0 2.747472 1_655
O13 Sr1 2.749367 1_555
O13 Sr0 2.749367 1_555
O17 Sr0 2.742159 1_564
O17 Sr1 2.742159 1_565
O19 Sr0 2.747551 1_554
O19 Sr1 2.747551 1_555
O21 Sr1 2.747472 1_565
O21 Sr0 2.747472 1_565
O23 Sr1 2.749367 1_555
O23 Sr0 2.749367 1_555
