# generated using pymatgen
data_Ba3RuN3
_symmetry_space_group_name_H-M   'P 1'
_cell_length_a   8.22890400
_cell_length_b   8.22901608
_cell_length_c   5.64984509
_cell_angle_alpha   90.00000000
_cell_angle_beta   90.00000000
_cell_angle_gamma   120.00062349
_symmetry_Int_Tables_number   1
_chemical_formula_structural   Ba3RuN3
_chemical_formula_sum   'Ba6 Ru2 N6'
_cell_volume   331.32510939
_cell_formula_units_Z   2
loop_
 _symmetry_equiv_pos_site_id
 _symmetry_equiv_pos_as_xyz
  1  'x, y, z'
loop_
 _atom_site_type_symbol
 _atom_site_label
 _atom_site_symmetry_multiplicity
 _atom_site_fract_x
 _atom_site_fract_y
 _atom_site_fract_z
 _atom_site_occupancy
  Ba  Ba0  1  0.90500437  0.63832100  0.25000000  1
  Ba  Ba1  1  0.73332500  0.09496542  0.25000000  1
  Ba  Ba2  1  0.36165645  0.26671062  0.25000000  1
  Ba  Ba3  1  0.09518385  0.36193780  0.75000000  1
  Ba  Ba4  1  0.26674394  0.90484385  0.75000000  1
  Ba  Ba5  1  0.63808722  0.73321991  0.75000000  1
  Ru  Ru0  1  0.66667183  0.33338358  0.75000000  1
  Ru  Ru1  1  0.33332987  0.66661983  0.25000000  1
  N  N0  1  0.88104423  0.56565578  0.75000000  1
  N  N1  1  0.68462431  0.11896281  0.75000000  1
  N  N2  1  0.43435530  0.31539909  0.75000000  1
  N  N3  1  0.11870208  0.43416569  0.25000000  1
  N  N4  1  0.31545096  0.88129117  0.25000000  1
  N  N5  1  0.56581960  0.68452344  0.25000000  1
loop_
_geom_bond_atom_site_label_1
_geom_bond_atom_site_label_2
_geom_bond_distance
_geom_bond_site_symmetry_2
Ba0 N0 2.873799 1_554
Ba0 N0 2.873799 1_555
Ba0 N4 2.941450 1_655
Ba0 N3 2.978092 1_655
Ba0 N5 2.999350 1_555
Ba1 N1 2.873835 1_555
Ba1 N1 2.873835 1_554
Ba1 N5 2.941437 1_545
Ba1 N4 2.978191 1_545
Ba1 N3 2.999333 1_655
Ba2 N2 2.873831 1_555
Ba2 N2 2.873831 1_554
Ba2 N3 2.941232 1_555
Ba2 N5 2.977796 1_555
Ba2 N4 2.999637 1_545
Ba3 N3 2.873305 1_556
Ba3 N3 2.873305 1_555
Ba3 N1 2.942206 1_455
Ba3 N0 2.978175 1_455
Ba3 N2 3.000881 1_555
Ba4 N4 2.873340 1_555
Ba4 N4 2.873340 1_556
Ba4 N2 2.942196 1_565
Ba4 N1 2.978285 1_565
Ba4 N0 3.000865 1_455
Ba5 N5 2.873344 1_556
Ba5 N5 2.873344 1_555
Ba5 N0 2.941978 1_555
Ba5 N2 2.977903 1_555
Ba5 N1 3.001186 1_565
N0 Ru0 1.842117 1_555
N1 Ru0 1.842784 1_555
N2 Ru0 1.842176 1_555
N3 Ru1 1.843876 1_555
N4 Ru1 1.844503 1_555
N5 Ru1 1.843889 1_555
