# generated using pymatgen
data_CsMgAs(H3O2)2
_symmetry_space_group_name_H-M   'P 1'
_cell_length_a   7.27595342
_cell_length_b   7.27595342
_cell_length_c   7.27595342
_cell_angle_alpha   60.00000000
_cell_angle_beta   60.00000000
_cell_angle_gamma   60.00000000
_symmetry_Int_Tables_number   1
_chemical_formula_structural   CsMgAs(H3O2)2
_chemical_formula_sum   'Cs1 Mg1 As1 H6 O4'
_cell_volume   272.36715328
_cell_formula_units_Z   1
loop_
 _symmetry_equiv_pos_site_id
 _symmetry_equiv_pos_as_xyz
  1  'x, y, z'
loop_
 _atom_site_type_symbol
 _atom_site_label
 _atom_site_symmetry_multiplicity
 _atom_site_fract_x
 _atom_site_fract_y
 _atom_site_fract_z
 _atom_site_occupancy
  Cs  Cs0  1  0.00000000  0.00000000  0.00000000  1
  Mg  Mg0  1  0.50000000  0.50000000  0.50000000  1
  As  As0  1  0.25000000  0.25000000  0.25000000  1
  H  H0  1  0.69593800  0.30406200  0.30406200  1
  H  H1  1  0.30406200  0.69593800  0.69593800  1
  H  H2  1  0.30406200  0.69593800  0.30406200  1
  H  H3  1  0.69593800  0.30406200  0.69593800  1
  H  H4  1  0.30406200  0.30406200  0.69593800  1
  H  H5  1  0.69593800  0.69593800  0.30406200  1
  O  O0  1  0.15348100  0.15348100  0.15348100  1
  O  O1  1  0.15348100  0.15348100  0.53955800  1
  O  O2  1  0.15348100  0.53955800  0.15348100  1
  O  O3  1  0.53955800  0.15348100  0.15348100  1
loop_
_geom_bond_atom_site_label_1
_geom_bond_atom_site_label_2
_geom_bond_distance
_geom_bond_site_symmetry_2
Cs0 O3 2.735390 1_455
Cs0 O1 2.735390 1_554
Cs0 O2 2.735390 1_545
Cs0 O0 2.735396 1_555
Cs0 H0 3.128723 1_455
Cs0 H4 3.128723 1_554
Cs0 H2 3.128723 1_545
Cs0 H3 3.128723 1_454
Cs0 H1 3.128723 1_544
Cs0 H5 3.128723 1_445
As0 O0 1.720198 1_555
As0 O2 1.720204 1_555
As0 O1 1.720204 1_555
As0 O3 1.720204 1_555
H0 Mg0 2.016153 1_555
H1 Mg0 2.016153 1_555
H2 Mg0 2.016153 1_555
H3 Mg0 2.016153 1_555
H4 Mg0 2.016153 1_555
H5 Mg0 2.016153 1_555
