# generated using pymatgen
data_NaMg3Si4O11F
_symmetry_space_group_name_H-M   'P 1'
_cell_length_a   5.35558105
_cell_length_b   9.78254528
_cell_length_c   10.27944542
_cell_angle_alpha   61.61311135
_cell_angle_beta   84.24416787
_cell_angle_gamma   77.83330572
_symmetry_Int_Tables_number   1
_chemical_formula_structural   NaMg3Si4O11F
_chemical_formula_sum   'Na2 Mg6 Si8 O22 F2'
_cell_volume   463.15352219
_cell_formula_units_Z   2
loop_
 _symmetry_equiv_pos_site_id
 _symmetry_equiv_pos_as_xyz
  1  'x, y, z'
loop_
 _atom_site_type_symbol
 _atom_site_label
 _atom_site_symmetry_multiplicity
 _atom_site_fract_x
 _atom_site_fract_y
 _atom_site_fract_z
 _atom_site_occupancy
  Na  Na0  1  0.00043500  0.49848900  0.00244600  1
  Na  Na1  1  0.49990100  0.27051000  0.45960400  1
  Mg  Mg0  1  0.00001100  0.00077700  0.99838100  1
  Mg  Mg1  1  0.99995200  0.18043200  0.63940800  1
  Mg  Mg2  1  0.00032200  0.82140500  0.35688900  1
  Mg  Mg3  1  0.49991600  0.09037800  0.81936900  1
  Mg  Mg4  1  0.50012100  0.74105500  0.51794500  1
  Mg  Mg5  1  0.50014900  0.91152200  0.17679100  1
  Si  Si0  1  0.21564500  0.11675500  0.34439300  1
  Si  Si1  1  0.22256700  0.46354600  0.65946600  1
  Si  Si2  1  0.28063500  0.63422700  0.16822900  1
  Si  Si3  1  0.27217400  0.80178900  0.82791100  1
  Si  Si4  1  0.71939100  0.19702100  0.16883000  1
  Si  Si5  1  0.72752400  0.37006700  0.82853700  1
  Si  Si6  1  0.78443600  0.53890400  0.34392100  1
  Si  Si7  1  0.77713800  0.87761900  0.65875300  1
  O  O0  1  0.05498700  0.53098800  0.24866200  1
  O  O1  1  0.20503200  0.11002500  0.50187900  1
  O  O2  1  0.04977400  0.77122200  0.75092100  1
  O  O3  1  0.22731100  0.62421800  0.50545000  1
  O  O4  1  0.21203700  0.80377100  0.16922900  1
  O  O5  1  0.27686800  0.29080000  0.66641700  1
  O  O6  1  0.28706000  0.65399200  0.99903000  1
  O  O7  1  0.43861600  0.22244400  0.24187200  1
  O  O8  1  0.21302700  0.96960900  0.83172000  1
  O  O9  1  0.28521800  0.94266000  0.34711600  1
  O  O10  1  0.45402500  0.47792600  0.75013700  1
  O  O11  1  0.56101800  0.53558900  0.24166800  1
  O  O12  1  0.71329000  0.34649100  0.99977100  1
  O  O13  1  0.72290700  0.04324700  0.66602200  1
  O  O14  1  0.78819700  0.02676600  0.16927400  1
  O  O15  1  0.54535200  0.77260700  0.74894300  1
  O  O16  1  0.71503500  0.71024800  0.34681600  1
  O  O17  1  0.78687200  0.19869400  0.83178900  1
  O  O18  1  0.79578100  0.38845800  0.50138100  1
  O  O19  1  0.94460600  0.21958100  0.24976600  1
  O  O20  1  0.77299800  0.87092900  0.50471700  1
  O  O21  1  0.94966900  0.47782500  0.75148400  1
  F  F0  1  0.29551800  0.10193100  0.00269600  1
  F  F1  1  0.70448400  0.89548200  0.00236800  1
loop_
_geom_bond_atom_site_label_1
_geom_bond_atom_site_label_2
_geom_bond_distance
_geom_bond_site_symmetry_2
Na0 O12 2.363860 1_454
Na0 O6 2.365243 1_554
Na0 O21 2.725729 1_454
Na0 O2 2.733882 1_554
Na0 O0 2.746776 1_555
Na0 O19 2.755525 1_455
Na1 O18 2.324879 1_555
Na1 O1 2.325109 1_555
Na1 O13 2.403123 1_555
Na1 O5 2.403676 1_555
Na1 O11 2.556802 1_555
Na1 O7 2.559545 1_555
Mg0 O8 2.070623 1_545
Mg0 O17 2.071731 1_455
Mg0 O14 2.083460 1_456
Mg0 O4 2.084996 1_546
Mg1 O1 1.993704 1_655
Mg1 O18 1.994457 1_555
Mg1 O5 2.117726 1_655
Mg1 O13 2.118050 1_555
Mg1 O17 2.245506 1_555
Mg1 O8 2.246649 1_645
Mg2 O20 2.026418 1_455
Mg2 O3 2.028263 1_555
Mg2 O9 2.089010 1_555
Mg2 O16 2.089657 1_455
Mg2 O4 2.198144 1_555
Mg2 O14 2.199862 1_465
Mg3 O5 2.049743 1_555
Mg3 O13 2.050601 1_555
Mg3 O17 2.086925 1_555
Mg3 O8 2.087098 1_545
Mg4 O3 2.082949 1_555
Mg4 O20 2.084922 1_555
Mg4 O9 2.110323 1_555
Mg4 O16 2.112305 1_555
Mg4 O15 2.576069 1_555
Mg4 O10 2.586790 1_555
Mg5 O14 2.069568 1_565
Mg5 O4 2.070153 1_555
Mg5 O16 2.105260 1_555
Mg5 O9 2.106730 1_555
O0 Si2 1.638311 1_555
O0 Si6 1.674677 1_455
O1 Si0 1.584323 1_555
O2 Si3 1.642755 1_555
O2 Si7 1.676951 1_455
O3 Si1 1.618734 1_555
O4 Si2 1.626207 1_555
O5 Si1 1.620997 1_555
O6 Si2 1.653685 1_556
O6 Si3 1.658981 1_555
O7 Si4 1.637135 1_555
O7 Si0 1.684491 1_555
O8 Si3 1.623732 1_555
O9 Si0 1.652096 1_565
O10 Si5 1.638615 1_555
O10 Si1 1.689675 1_555
O11 Si2 1.637014 1_555
O11 Si6 1.684813 1_555
O12 Si4 1.653557 1_556
O12 Si5 1.658845 1_555
O13 Si7 1.620986 1_545
O14 Si4 1.626100 1_555
O15 Si3 1.639196 1_555
O15 Si7 1.690231 1_555
O16 Si6 1.652640 1_555
O17 Si5 1.623857 1_555
O18 Si6 1.583210 1_555
O19 Si4 1.638224 1_555
O19 Si0 1.674052 1_655
O20 Si7 1.618064 1_555
O21 Si5 1.643085 1_555
O21 Si1 1.677074 1_655
F0 Mg0 2.049818 1_554
F0 Mg5 2.058306 1_545
F0 Mg3 2.121086 1_554
F1 Mg0 2.049810 1_664
F1 Mg5 2.058763 1_555
F1 Mg3 2.120536 1_564
