# generated using pymatgen
data_Li7V3P8O29
_symmetry_space_group_name_H-M   'P 1'
_cell_length_a   9.85789844
_cell_length_b   9.85221160
_cell_length_c   13.92124646
_cell_angle_alpha   89.85441916
_cell_angle_beta   90.14356653
_cell_angle_gamma   59.94911287
_symmetry_Int_Tables_number   1
_chemical_formula_structural   Li7V3P8O29
_chemical_formula_sum   'Li14 V6 P16 O58'
_cell_volume   1170.30311989
_cell_formula_units_Z   2
loop_
 _symmetry_equiv_pos_site_id
 _symmetry_equiv_pos_as_xyz
  1  'x, y, z'
loop_
 _atom_site_type_symbol
 _atom_site_label
 _atom_site_symmetry_multiplicity
 _atom_site_fract_x
 _atom_site_fract_y
 _atom_site_fract_z
 _atom_site_occupancy
  Li  Li0  1  0.89939214  0.76412818  0.06608510  1
  Li  Li1  1  0.75823717  0.89511886  0.56094907  1
  Li  Li2  1  0.90713023  0.32022090  0.55776999  1
  Li  Li3  1  0.76402828  0.33989679  0.05652392  1
  Li  Li4  1  0.33431754  0.89993797  0.05878326  1
  Li  Li5  1  0.67391748  0.23181164  0.43959987  1
  Li  Li6  1  0.33420220  0.76602276  0.56258067  1
  Li  Li7  1  0.22966406  0.68214835  0.93713781  1
  Li  Li8  1  0.33566285  0.34275700  0.61152588  1
  Li  Li9  1  0.33461504  0.32735246  0.11354483  1
  Li  Li10  1  0.23289238  0.08733480  0.43602755  1
  Li  Li11  1  0.08781715  0.23386305  0.93871316  1
  Li  Li12  1  0.92374269  0.01105544  0.98507730  1
  Li  Li13  1  0.00920789  0.93266227  0.48691033  1
  V  V0  1  0.56461527  0.43648268  0.25230431  1
  V  V1  1  0.43606192  0.56510290  0.75293404  1
  V  V2  1  0.56450717  0.00350604  0.75430808  1
  V  V3  1  0.43818838  0.99773362  0.24966357  1
  V  V4  1  0.00244902  0.56575371  0.25397979  1
  V  V5  1  0.99703840  0.44204345  0.74759085  1
  P  P0  1  0.91338365  0.77444725  0.84497461  1
  P  P1  1  0.77317272  0.91651552  0.34378009  1
  P  P2  1  0.91497992  0.31207262  0.34346434  1
  P  P3  1  0.66418230  0.66441540  0.12820995  1
  P  P4  1  0.66635775  0.67349152  0.62830747  1
  P  P5  1  0.77734013  0.31208966  0.84288131  1
  P  P6  1  0.68295363  0.22505264  0.65815637  1
  P  P7  1  0.31325309  0.91787881  0.84338940  1
  P  P8  1  0.68852375  0.09284035  0.15891956  1
  P  P9  1  0.31220928  0.77368587  0.34355190  1
  P  P10  1  0.22677449  0.68467927  0.15724901  1
  P  P11  1  0.33893604  0.32976988  0.37064251  1
  P  P12  1  0.32823705  0.33304489  0.87168499  1
  P  P13  1  0.08682937  0.69521985  0.65919721  1
  P  P14  1  0.22731998  0.09283609  0.65676039  1
  P  P15  1  0.09254653  0.22706697  0.15827083  1
  O  O0  1  0.98365957  0.79832645  0.57940623  1
  O  O1  1  0.91453854  0.75549264  0.33790785  1
  O  O2  1  0.79195806  0.99025700  0.07958341  1
  O  O3  1  0.74948512  0.91643023  0.83793026  1
  O  O4  1  0.91454010  0.61842478  0.83336259  1
  O  O5  1  0.81128730  0.66959943  0.16161420  1
  O  O6  1  0.90568573  0.46927102  0.33252492  1
  O  O7  1  0.00018243  0.23224825  0.07000240  1
  O  O8  1  0.92288107  0.33268536  0.83560667  1
  O  O9  1  0.66750055  0.81928910  0.67496177  1
  O  O10  1  0.61766136  0.91541792  0.32596425  1
  O  O11  1  0.81598797  0.52046554  0.67135017  1
  O  O12  1  0.65435449  0.64312599  0.02258947  1
  O  O13  1  0.68210283  0.67925601  0.52206378  1
  O  O14  1  0.66614818  0.51773792  0.18066628  1
  O  O15  1  0.47188140  0.90990897  0.83073750  1
  O  O16  1  0.51317695  0.81418868  0.16591058  1
  O  O17  1  0.75135535  0.32668916  0.34163394  1
  O  O18  1  0.79013609  0.20598211  0.75034955  1
  O  O19  1  0.76737327  0.23326339  0.56934322  1
  O  O20  1  0.79241825  0.22058419  0.93328447  1
  O  O21  1  0.62553885  0.46793194  0.83353533  1
  O  O22  1  0.51855417  0.67076433  0.66243523  1
  O  O23  1  0.66326699  0.26015178  0.15295074  1
  O  O24  1  0.46595699  0.61666058  0.33660547  1
  O  O25  1  0.33878630  0.91621724  0.33691671  1
  O  O26  1  0.78100844  0.02338180  0.25887907  1
  O  O27  1  0.76938568  0.99964665  0.43672600  1
  O  O28  1  0.23608106  0.99832277  0.56913396  1
  O  O29  1  0.66796105  0.07655611  0.65725720  1
  O  O30  1  0.51774165  0.36916879  0.67001858  1
  O  O31  1  0.32918408  0.75528460  0.84257294  1
  O  O32  1  0.49364051  0.31993372  0.32802589  1
  O  O33  1  0.37397704  0.51927589  0.17183664  1
  O  O34  1  0.23982529  0.76610667  0.06833929  1
  O  O35  1  0.22115906  0.79097061  0.43403851  1
  O  O36  1  0.20802874  0.79125845  0.24977081  1
  O  O37  1  0.25319690  0.66999117  0.65500249  1
  O  O38  1  0.47729151  0.18963612  0.82666515  1
  O  O39  1  0.52604246  0.10409547  0.16726940  1
  O  O40  1  0.32320444  0.48716592  0.84139761  1
  O  O41  1  0.31803140  0.31896624  0.97842107  1
  O  O42  1  0.35716668  0.31606129  0.47856896  1
  O  O43  1  0.19849595  0.47948759  0.33216742  1
  O  O44  1  0.37472383  0.10905686  0.66965044  1
  O  O45  1  0.33080252  0.18249421  0.33234323  1
  O  O46  1  0.08043073  0.66892712  0.15483562  1
  O  O47  1  0.01607876  0.78608531  0.75907551  1
  O  O48  1  0.99387261  0.78098514  0.93718019  1
  O  O49  1  0.09892337  0.53144479  0.66644919  1
  O  O50  1  0.18393822  0.33011555  0.82332727  1
  O  O51  1  0.11457153  0.36960117  0.16938296  1
  O  O52  1  0.25933759  0.07772966  0.15792199  1
  O  O53  1  0.22805440  0.00794729  0.93233826  1
  O  O54  1  0.20576910  0.00942216  0.75027312  1
  O  O55  1  0.08129216  0.25851738  0.65241042  1
  O  O56  1  0.00384040  0.21792251  0.43181760  1
  O  O57  1  0.00698000  0.20531853  0.25032692  1
loop_
_geom_bond_atom_site_label_1
_geom_bond_atom_site_label_2
_geom_bond_distance
_geom_bond_site_symmetry_2
Li0 O2 1.939167 1_555
Li0 O46 1.974292 1_655
Li0 O5 2.049366 1_555
Li0 O48 2.068120 1_554
Li1 O0 1.946036 1_555
Li1 O27 2.041691 1_555
Li1 O29 2.051781 1_565
Li1 O9 2.132556 1_555
Li2 O19 1.959735 1_555
Li2 O55 1.998080 1_655
Li2 O56 2.013497 1_655
Li2 O11 2.333927 1_555
Li3 O20 2.021564 1_554
Li3 O7 2.025719 1_655
Li3 O23 2.046658 1_555
Li3 O14 2.306129 1_555
Li4 O34 1.963094 1_555
Li4 O53 2.047699 1_564
Li4 O52 2.059137 1_565
Li4 O16 2.129599 1_555
Li5 O27 1.990957 1_545
Li5 O17 2.007456 1_555
Li5 O19 2.028858 1_555
Li5 O32 2.181431 1_555
Li6 O37 1.985918 1_555
Li6 O28 1.991552 1_555
Li6 O35 2.053745 1_555
Li6 O22 2.094840 1_555
Li7 O31 1.981006 1_555
Li7 O48 2.020939 1_455
Li7 O34 2.029792 1_556
Li7 O40 2.135894 1_555
Li8 O42 1.867790 1_555
Li8 O30 2.100960 1_555
Li8 O49 2.271109 1_555
Li8 O44 2.281530 1_555
Li9 O41 1.893365 1_554
Li9 O51 2.142101 1_555
Li9 O39 2.187687 1_555
Li9 O33 2.263964 1_555
Li10 O56 1.961270 1_555
Li10 O25 2.022887 1_545
Li10 O28 2.041454 1_545
Li10 O45 2.190979 1_555
Li11 O53 1.947553 1_555
Li11 O8 2.011862 1_455
Li11 O7 2.026973 1_556
Li11 O50 2.297218 1_555
Li12 O2 1.932466 1_546
Li12 O20 1.941250 1_555
Li12 O48 2.121560 1_545
Li13 O0 1.949350 1_455
Li13 O35 1.986900 1_555
Li13 O27 2.222512 1_455
O0 P13 1.501335 1_655
O1 P1 1.500837 1_555
O1 V4 2.001070 1_655
O2 P8 1.503385 1_565
O3 P0 1.520455 1_555
O3 V2 1.958013 1_565
O4 P0 1.540410 1_555
O4 V5 1.925333 1_555
O5 P3 1.546837 1_555
O5 V4 2.074010 1_655
O6 P2 1.512228 1_555
O6 V4 1.979183 1_655
O7 P15 1.512989 1_555
O8 P5 1.549861 1_555
O8 V5 1.995796 1_555
O9 P4 1.583097 1_555
O9 V2 1.927500 1_565
O10 P1 1.557715 1_555
O10 V3 1.861534 1_555
O11 P4 1.603592 1_555
O11 V5 1.874601 1_555
O12 P3 1.495517 1_555
O13 P4 1.491456 1_555
O14 P3 1.608874 1_555
O14 V0 1.854914 1_555
O15 P7 1.536539 1_555
O15 V2 1.912940 1_565
O16 P3 1.573743 1_555
O16 V3 1.962686 1_555
O17 P2 1.546052 1_555
O17 V0 2.023047 1_555
O18 P6 1.609992 1_555
O18 P5 1.625945 1_555
O19 P6 1.516520 1_555
O20 P5 1.509246 1_555
O21 P5 1.520047 1_555
O21 V1 1.964055 1_555
O22 P4 1.546609 1_555
O22 V1 2.044144 1_555
O23 P8 1.540854 1_555
O23 V0 2.050294 1_555
O24 P9 1.533941 1_555
O24 V0 1.939466 1_555
O25 P9 1.554677 1_555
O25 V3 1.967183 1_555
O26 P1 1.608428 1_545
O26 P8 1.612417 1_555
O27 P1 1.523626 1_555
O28 P14 1.512734 1_565
O29 P6 1.542423 1_555
O29 V2 2.029903 1_555
O30 P6 1.543467 1_555
O30 V1 2.041165 1_555
O31 P7 1.529398 1_555
O31 V1 2.054111 1_555
O32 P11 1.594988 1_555
O32 V0 1.929100 1_555
O33 P10 1.559170 1_555
O33 V0 1.975219 1_555
O34 P10 1.513687 1_555
O35 P9 1.508344 1_555
O36 P9 1.613450 1_555
O36 P10 1.615380 1_555
O37 P13 1.532053 1_555
O37 V1 2.071464 1_555
O38 P12 1.574153 1_555
O38 V2 1.884494 1_555
O39 P8 1.553847 1_555
O39 V3 2.017828 1_545
O40 P12 1.551475 1_555
O40 V1 2.049786 1_555
O41 P12 1.500312 1_555
O42 P11 1.510385 1_555
O43 P11 1.525239 1_555
O43 V4 1.995440 1_555
O44 P14 1.549397 1_555
O44 V2 2.001176 1_555
O45 P11 1.586289 1_555
O45 V3 1.961060 1_545
O46 P10 1.526580 1_555
O46 V4 2.076049 1_555
O47 P0 1.609234 1_455
O47 P13 1.614625 1_555
O48 P0 1.525742 1_555
O49 P13 1.560252 1_555
O49 V5 1.986755 1_455
O50 P12 1.585530 1_555
O50 V5 1.916184 1_455
O51 P15 1.532765 1_555
O51 V4 2.054779 1_555
O52 P15 1.563779 1_555
O52 V3 1.988138 1_545
O53 P7 1.513449 1_545
O54 P14 1.608116 1_555
O54 P7 1.626828 1_545
O55 P14 1.544689 1_555
O55 V5 2.056334 1_455
O56 P2 1.521720 1_455
O57 P15 1.607727 1_555
O57 P2 1.633202 1_455
