# generated using pymatgen
data_Na2NbO3F5
_symmetry_space_group_name_H-M   'P 1'
_cell_length_a   7.74549700
_cell_length_b   8.29897900
_cell_length_c   10.41666200
_cell_angle_alpha   90.00000000
_cell_angle_beta   90.00000000
_cell_angle_gamma   90.00000000
_symmetry_Int_Tables_number   1
_chemical_formula_structural   Na2NbO3F5
_chemical_formula_sum   'Na8 Nb4 O12 F20'
_cell_volume   669.58008490
_cell_formula_units_Z   4
loop_
 _symmetry_equiv_pos_site_id
 _symmetry_equiv_pos_as_xyz
  1  'x, y, z'
loop_
 _atom_site_type_symbol
 _atom_site_label
 _atom_site_symmetry_multiplicity
 _atom_site_fract_x
 _atom_site_fract_y
 _atom_site_fract_z
 _atom_site_occupancy
  Na  Na0  1  0.04143600  0.50088000  0.74962700  1
  Na  Na1  1  0.95856400  0.00088000  0.25037300  1
  Na  Na2  1  0.95856400  0.50088000  0.24962700  1
  Na  Na3  1  0.04143600  0.00088000  0.75037300  1
  Na  Na4  1  0.75858300  0.25071100  0.96637800  1
  Na  Na5  1  0.24141700  0.75071100  0.03362200  1
  Na  Na6  1  0.75858300  0.75071100  0.53362200  1
  Na  Na7  1  0.24141700  0.25071100  0.46637800  1
  Nb  Nb0  1  0.77305200  0.24969500  0.56245900  1
  Nb  Nb1  1  0.22694800  0.74969500  0.43754100  1
  Nb  Nb2  1  0.77305200  0.74969500  0.93754100  1
  Nb  Nb3  1  0.22694800  0.24969500  0.06245900  1
  O  O0  1  0.55571600  0.33617300  0.48587200  1
  O  O1  1  0.44428400  0.83617300  0.51412800  1
  O  O2  1  0.55584900  0.66110500  0.01416700  1
  O  O3  1  0.44415100  0.16110500  0.98583300  1
  O  O4  1  0.44415100  0.66110500  0.51416700  1
  O  O5  1  0.55584900  0.16110500  0.48583300  1
  O  O6  1  0.44428400  0.33617300  0.98587200  1
  O  O7  1  0.55571600  0.83617300  0.01412800  1
  O  O8  1  0.35047500  0.46744900  0.72212700  1
  O  O9  1  0.64952500  0.96744900  0.27787300  1
  O  O10  1  0.64952500  0.46744900  0.22212700  1
  O  O11  1  0.35047500  0.96744900  0.77787300  1
  F  F0  1  0.70682700  0.24910800  0.74170100  1
  F  F1  1  0.29317300  0.74910800  0.25829900  1
  F  F2  1  0.70682700  0.74910800  0.75829900  1
  F  F3  1  0.29317300  0.24910800  0.24170100  1
  F  F4  1  0.02477900  0.24942900  0.63494400  1
  F  F5  1  0.97522100  0.74942900  0.36505600  1
  F  F6  1  0.02477900  0.74942900  0.86505600  1
  F  F7  1  0.97522100  0.24942900  0.13494400  1
  F  F8  1  0.82352700  0.48728800  0.57987100  1
  F  F9  1  0.17647300  0.98728800  0.42012900  1
  F  F10  1  0.82397800  0.51245700  0.91931800  1
  F  F11  1  0.17602200  0.01245700  0.08068200  1
  F  F12  1  0.17602200  0.51245700  0.41931800  1
  F  F13  1  0.82397800  0.01245700  0.58068200  1
  F  F14  1  0.17647300  0.48728800  0.07987100  1
  F  F15  1  0.82352700  0.98728800  0.92012900  1
  F  F16  1  0.09662100  0.25070500  0.89927600  1
  F  F17  1  0.90337900  0.75070500  0.10072400  1
  F  F18  1  0.09662100  0.75070500  0.60072400  1
  F  F19  1  0.90337900  0.25070500  0.39927600  1
loop_
_geom_bond_atom_site_label_1
_geom_bond_atom_site_label_2
_geom_bond_distance
_geom_bond_site_symmetry_2
Na0 O8 2.426653 1_555
Na1 O9 2.426653 1_545
Na2 O10 2.426653 1_555
Na3 O11 2.426653 1_545
Na4 O6 2.543733 1_555
Na4 O3 2.554486 1_555
Na5 O7 2.543733 1_555
Na5 O2 2.554486 1_555
Na6 O1 2.543733 1_555
Na6 O4 2.554486 1_555
Na7 O0 2.543733 1_555
Na7 O5 2.554486 1_555
Nb0 O0 1.996314 1_555
Nb0 O5 2.001978 1_555
Nb1 O1 1.996314 1_555
Nb1 O4 2.001978 1_555
Nb2 O7 1.996314 1_556
Nb2 O2 2.001978 1_556
Nb3 O6 1.996314 1_554
Nb3 O3 2.001978 1_554
O0 O5 1.452886 1_555
O1 O4 1.452886 1_555
O2 O7 1.452886 1_555
O3 O6 1.452886 1_555
F0 Nb0 1.936288 1_555
F0 Na4 2.374506 1_555
F1 Nb1 1.936288 1_555
F1 Na5 2.374506 1_555
F2 Nb2 1.936288 1_555
F2 Na6 2.374506 1_555
F3 Nb3 1.936288 1_555
F3 Na7 2.374506 1_555
F4 Nb0 2.090846 1_455
F4 Na3 2.391050 1_555
F4 Na0 2.407992 1_555
F4 Na7 2.428757 1_555
F5 Nb1 2.090846 1_655
F5 Na2 2.391050 1_555
F5 Na1 2.407992 1_565
F5 Na6 2.428757 1_555
F6 Nb2 2.090846 1_455
F6 Na0 2.391050 1_555
F6 Na3 2.407992 1_565
F6 Na5 2.428757 1_556
F7 Nb3 2.090846 1_655
F7 Na1 2.391050 1_555
F7 Na2 2.407992 1_555
F7 Na4 2.428757 1_554
F8 Nb0 2.018330 1_555
F8 Na6 2.294415 1_555
F8 Na0 2.447098 1_655
F9 Nb1 2.018330 1_555
F9 Na7 2.294415 1_565
F9 Na1 2.447098 1_465
F10 Nb2 2.016910 1_555
F10 Na4 2.283730 1_555
F10 Na0 2.443486 1_655
F11 Nb3 2.016910 1_555
F11 Na5 2.283730 1_545
F11 Na1 2.443486 1_455
F12 Nb1 2.016910 1_555
F12 Na7 2.283730 1_555
F12 Na2 2.443486 1_455
F13 Nb0 2.016910 1_555
F13 Na6 2.283730 1_545
F13 Na3 2.443486 1_655
F14 Nb3 2.018330 1_555
F14 Na5 2.294415 1_555
F14 Na2 2.447098 1_455
F15 Nb2 2.018330 1_555
F15 Na4 2.294415 1_565
F15 Na3 2.447098 1_665
F16 Nb3 1.976980 1_556
F16 Na3 2.624322 1_555
F16 Na0 2.631214 1_555
F16 Na4 2.709967 1_455
F17 Nb2 1.976980 1_554
F17 Na2 2.624322 1_555
F17 Na1 2.631214 1_565
F17 Na5 2.709967 1_655
F18 Nb1 1.976980 1_555
F18 Na0 2.624322 1_555
F18 Na3 2.631214 1_565
F18 Na6 2.709967 1_455
F19 Nb0 1.976980 1_555
F19 Na1 2.624322 1_555
F19 Na2 2.631214 1_555
F19 Na7 2.709967 1_655
