# generated using pymatgen
data_Te2W2SeS
_symmetry_space_group_name_H-M   'P 1'
_cell_length_a   3.39690969
_cell_length_b   3.39690969
_cell_length_c   38.87313900
_cell_angle_alpha   90.00000000
_cell_angle_beta   90.00000000
_cell_angle_gamma   119.99999402
_symmetry_Int_Tables_number   1
_chemical_formula_structural   Te2W2SeS
_chemical_formula_sum   'Te4 W4 Se2 S2'
_cell_volume   388.46175841
_cell_formula_units_Z   2
loop_
 _symmetry_equiv_pos_site_id
 _symmetry_equiv_pos_as_xyz
  1  'x, y, z'
loop_
 _atom_site_type_symbol
 _atom_site_label
 _atom_site_symmetry_multiplicity
 _atom_site_fract_x
 _atom_site_fract_y
 _atom_site_fract_z
 _atom_site_occupancy
  Te  Te0  1  0.00000000  0.00000000  0.70601100  1
  Te  Te1  1  0.33333300  0.66666700  0.42115900  1
  Te  Te2  1  0.33333300  0.66666700  0.51803200  1
  Te  Te3  1  0.00000000  0.00000000  0.60914600  1
  W  W0  1  0.00000000  0.00000000  0.09392900  1
  W  W1  1  0.00000000  0.00000000  0.46961000  1
  W  W2  1  0.33333300  0.66666700  0.28180600  1
  W  W3  1  0.33333300  0.66666700  0.65761400  1
  Se  Se0  1  0.33333300  0.66666700  0.05135500  1
  Se  Se1  1  0.33333300  0.66666700  0.13649600  1
  S  S0  1  0.00000000  0.00000000  0.32059700  1
  S  S1  1  0.00000000  0.00000000  0.24299200  1
loop_
_geom_bond_atom_site_label_1
_geom_bond_atom_site_label_2
_geom_bond_distance
_geom_bond_site_symmetry_2
Te0 W3 2.717679 1_545
Te0 W3 2.717681 1_555
Te0 W3 2.717681 1_445
Te1 W1 2.719132 1_565
Te1 W1 2.719134 1_555
Te1 W1 2.719134 1_665
Te2 W1 2.718351 1_565
Te2 W1 2.718354 1_555
Te2 W1 2.718354 1_665
Te3 W3 2.719590 1_545
Te3 W3 2.719592 1_555
Te3 W3 2.719592 1_445
Se0 W0 2.566184 1_565
Se0 W0 2.566186 1_555
Se0 W0 2.566186 1_665
Se1 W0 2.566008 1_565
Se1 W0 2.566011 1_665
Se1 W0 2.566011 1_555
S0 W2 2.473898 1_545
S0 W2 2.473900 1_445
S0 W2 2.473900 1_555
S1 W2 2.474443 1_545
S1 W2 2.474445 1_445
S1 W2 2.474445 1_555
