# generated using pymatgen
data_Dy2Mn12P7
_symmetry_space_group_name_H-M   'P 1'
_cell_length_a   9.30271071
_cell_length_b   9.30271071
_cell_length_c   3.60245600
_cell_angle_alpha   90.00000000
_cell_angle_beta   90.00000000
_cell_angle_gamma   120.00000503
_symmetry_Int_Tables_number   1
_chemical_formula_structural   Dy2Mn12P7
_chemical_formula_sum   'Dy2 Mn12 P7'
_cell_volume   269.99040228
_cell_formula_units_Z   1
loop_
 _symmetry_equiv_pos_site_id
 _symmetry_equiv_pos_as_xyz
  1  'x, y, z'
loop_
 _atom_site_type_symbol
 _atom_site_label
 _atom_site_symmetry_multiplicity
 _atom_site_fract_x
 _atom_site_fract_y
 _atom_site_fract_z
 _atom_site_occupancy
  Dy  Dy0  1  0.66666700  0.33333300  0.00000000  1
  Dy  Dy1  1  0.33333300  0.66666700  0.50000000  1
  Mn  Mn0  1  0.37629800  0.95117500  0.00000000  1
  Mn  Mn1  1  0.04882500  0.42512300  0.00000000  1
  Mn  Mn2  1  0.57487700  0.62370200  0.00000000  1
  Mn  Mn3  1  0.87921200  0.72325000  0.00000000  1
  Mn  Mn4  1  0.27675000  0.15596200  0.00000000  1
  Mn  Mn5  1  0.84403800  0.12078800  0.00000000  1
  Mn  Mn6  1  0.95502800  0.56355500  0.50000000  1
  Mn  Mn7  1  0.43644500  0.39147300  0.50000000  1
  Mn  Mn8  1  0.60852700  0.04497200  0.50000000  1
  Mn  Mn9  1  0.12304400  0.89618400  0.50000000  1
  Mn  Mn10  1  0.10381600  0.22686000  0.50000000  1
  Mn  Mn11  1  0.77314000  0.87695600  0.50000000  1
  P  P0  1  0.11921200  0.70857700  0.00000000  1
  P  P1  1  0.29142300  0.41063500  0.00000000  1
  P  P2  1  0.58936500  0.88078800  0.00000000  1
  P  P3  1  0.71814100  0.59197400  0.50000000  1
  P  P4  1  0.40802600  0.12616800  0.50000000  1
  P  P5  1  0.87383200  0.28185900  0.50000000  1
  P  P6  1  0.00000000  0.00000000  0.00000000  1
loop_
_geom_bond_atom_site_label_1
_geom_bond_atom_site_label_2
_geom_bond_distance
_geom_bond_site_symmetry_2
Dy0 P5 2.847918 1_555
Dy0 P5 2.847918 1_554
Dy0 P4 2.847927 1_554
Dy0 P4 2.847927 1_555
Dy0 P3 2.847932 1_555
Dy0 P3 2.847932 1_554
Dy1 P0 2.853193 1_555
Dy1 P0 2.853193 1_556
Dy1 P2 2.853198 1_556
Dy1 P2 2.853198 1_555
Dy1 P1 2.853200 1_555
Dy1 P1 2.853200 1_556
Mn0 P0 2.327137 1_555
Mn0 P4 2.345451 1_565
Mn0 P4 2.345451 1_564
Mn0 P2 2.378094 1_555
Mn1 P1 2.327137 1_555
Mn1 P5 2.345449 1_455
Mn1 P5 2.345449 1_454
Mn1 P0 2.378094 1_555
Mn2 P2 2.327137 1_555
Mn2 P3 2.345445 1_554
Mn2 P3 2.345445 1_555
Mn2 P1 2.378094 1_555
Mn3 P6 2.235599 1_665
Mn3 P3 2.269609 1_554
Mn3 P3 2.269609 1_555
Mn3 P0 2.303935 1_655
Mn4 P6 2.235599 1_555
Mn4 P4 2.269605 1_554
Mn4 P4 2.269605 1_555
Mn4 P1 2.303935 1_555
Mn5 P6 2.235599 1_655
Mn5 P5 2.269611 1_555
Mn5 P5 2.269611 1_554
Mn5 P2 2.303934 1_545
Mn6 P0 2.310141 1_655
Mn6 P0 2.310141 1_656
Mn6 P5 2.336311 1_555
Mn6 P3 2.347072 1_555
Mn7 P1 2.310141 1_555
Mn7 P1 2.310141 1_556
Mn7 P3 2.336313 1_555
Mn7 P4 2.347063 1_555
Mn8 P2 2.310141 1_545
Mn8 P2 2.310141 1_546
Mn8 P4 2.336320 1_555
Mn8 P5 2.347066 1_555
Mn9 P4 2.435926 1_565
Mn9 P0 2.495874 1_556
Mn9 P0 2.495874 1_555
Mn9 P6 2.567646 1_566
Mn9 P6 2.567646 1_565
Mn10 P5 2.435933 1_455
Mn10 P1 2.495874 1_556
Mn10 P1 2.495874 1_555
Mn10 P6 2.567645 1_556
Mn10 P6 2.567645 1_555
Mn11 P3 2.435923 1_555
Mn11 P2 2.495874 1_555
Mn11 P2 2.495874 1_556
Mn11 P6 2.567645 1_666
Mn11 P6 2.567645 1_665
