# generated using pymatgen
data_PrGePd
_symmetry_space_group_name_H-M   'P 1'
_cell_length_a   4.49246936
_cell_length_b   7.70283977
_cell_length_c   22.10927539
_cell_angle_alpha   90.00000000
_cell_angle_beta   90.00000000
_cell_angle_gamma   90.00000000
_symmetry_Int_Tables_number   1
_chemical_formula_structural   PrGePd
_chemical_formula_sum   'Pr12 Ge12 Pd12'
_cell_volume   765.08642626
_cell_formula_units_Z   12
loop_
 _symmetry_equiv_pos_site_id
 _symmetry_equiv_pos_as_xyz
  1  'x, y, z'
loop_
 _atom_site_type_symbol
 _atom_site_label
 _atom_site_symmetry_multiplicity
 _atom_site_fract_x
 _atom_site_fract_y
 _atom_site_fract_z
 _atom_site_occupancy
  Pr  Pr0  1  0.25000000  0.70955254  0.33292722  1
  Pr  Pr1  1  0.75000000  0.29044746  0.66707278  1
  Pr  Pr2  1  0.75000000  0.20955254  0.16707278  1
  Pr  Pr3  1  0.25000000  0.79044746  0.83292722  1
  Pr  Pr4  1  0.25000000  0.79214613  0.16609228  1
  Pr  Pr5  1  0.75000000  0.20785387  0.83390772  1
  Pr  Pr6  1  0.75000000  0.29214613  0.33390772  1
  Pr  Pr7  1  0.25000000  0.70785387  0.66609228  1
  Pr  Pr8  1  0.25000000  0.71772743  0.00173255  1
  Pr  Pr9  1  0.75000000  0.28227257  0.99826745  1
  Pr  Pr10  1  0.75000000  0.21772743  0.49826745  1
  Pr  Pr11  1  0.25000000  0.78227257  0.50173255  1
  Ge  Ge0  1  0.25000000  0.09208644  0.07249842  1
  Ge  Ge1  1  0.75000000  0.90791356  0.92750158  1
  Ge  Ge2  1  0.75000000  0.59208644  0.42750158  1
  Ge  Ge3  1  0.25000000  0.40791356  0.57249842  1
  Ge  Ge4  1  0.25000000  0.08577262  0.26994837  1
  Ge  Ge5  1  0.75000000  0.91422738  0.73005163  1
  Ge  Ge6  1  0.75000000  0.58577262  0.23005163  1
  Ge  Ge7  1  0.25000000  0.41422738  0.76994837  1
  Ge  Ge8  1  0.25000000  0.08615008  0.39649022  1
  Ge  Ge9  1  0.75000000  0.91384992  0.60350978  1
  Ge  Ge10  1  0.75000000  0.58615008  0.10350978  1
  Ge  Ge11  1  0.25000000  0.41384992  0.89649022  1
  Pd  Pd0  1  0.25000000  0.41830095  0.23769709  1
  Pd  Pd1  1  0.75000000  0.58169905  0.76230291  1
  Pd  Pd2  1  0.75000000  0.91830095  0.26230291  1
  Pd  Pd3  1  0.25000000  0.08169905  0.73769709  1
  Pd  Pd4  1  0.25000000  0.41678080  0.43432027  1
  Pd  Pd5  1  0.75000000  0.58321920  0.56567973  1
  Pd  Pd6  1  0.75000000  0.91678080  0.06567973  1
  Pd  Pd7  1  0.25000000  0.08321920  0.93432027  1
  Pd  Pd8  1  0.25000000  0.42160811  0.09371390  1
  Pd  Pd9  1  0.75000000  0.57839189  0.90628610  1
  Pd  Pd10  1  0.75000000  0.92160811  0.40628610  1
  Pd  Pd11  1  0.25000000  0.07839189  0.59371390  1
loop_
_geom_bond_atom_site_label_1
_geom_bond_atom_site_label_2
_geom_bond_distance
_geom_bond_site_symmetry_2
Ge0 Pd8 2.581229 1_555
Ge0 Pd6 2.625214 1_445
Ge0 Pd6 2.625214 1_545
Ge0 Pd7 3.055782 1_554
Ge0 Pr4 3.101594 1_545
Ge0 Pr9 3.144079 1_554
Ge0 Pr9 3.144079 1_454
Ge0 Pr2 3.199442 1_555
Ge0 Pr2 3.199442 1_455
Ge0 Pr8 3.280735 1_545
Ge1 Pd9 2.581229 1_555
Ge1 Pd7 2.625214 1_565
Ge1 Pd7 2.625214 1_665
Ge1 Pd6 3.055782 1_556
Ge1 Pr5 3.101594 1_565
Ge1 Pr8 3.144079 1_556
Ge1 Pr8 3.144079 1_656
Ge1 Pr3 3.199442 1_555
Ge1 Pr3 3.199442 1_655
Ge1 Pr9 3.280735 1_565
Ge2 Pd10 2.581229 1_555
Ge2 Pd4 2.625214 1_555
Ge2 Pd4 2.625214 1_655
Ge2 Pd5 3.055782 1_555
Ge2 Pr6 3.101594 1_555
Ge2 Pr11 3.144079 1_655
Ge2 Pr11 3.144079 1_555
Ge2 Pr0 3.199442 1_655
Ge2 Pr0 3.199442 1_555
Ge2 Pr10 3.280735 1_555
Ge3 Pd11 2.581229 1_555
Ge3 Pd5 2.625214 1_455
Ge3 Pd5 2.625214 1_555
Ge3 Pd4 3.055782 1_555
Ge3 Pr7 3.101594 1_555
Ge3 Pr10 3.144079 1_555
Ge3 Pr10 3.144079 1_455
Ge3 Pr1 3.199442 1_455
Ge3 Pr1 3.199442 1_555
Ge3 Pr11 3.280735 1_555
Ge4 Pd2 2.595816 1_445
Ge4 Pd2 2.595816 1_545
Ge4 Pd0 2.658811 1_555
Ge4 Ge8 2.797750 1_555
Ge4 Pr6 3.093907 1_555
Ge4 Pr6 3.093907 1_455
Ge4 Pr0 3.215123 1_545
Ge4 Pr4 3.223043 1_545
Ge4 Pr2 3.335869 1_455
Ge4 Pr2 3.335869 1_555
Ge5 Pd3 2.595816 1_665
Ge5 Pd3 2.595816 1_565
Ge5 Pd1 2.658811 1_555
Ge5 Ge9 2.797750 1_555
Ge5 Pr7 3.093907 1_655
Ge5 Pr7 3.093907 1_555
Ge5 Pr1 3.215123 1_565
Ge5 Pr5 3.223043 1_565
Ge5 Pr3 3.335869 1_655
Ge5 Pr3 3.335869 1_555
Ge6 Pd0 2.595816 1_555
Ge6 Pd0 2.595816 1_655
Ge6 Pd2 2.658811 1_555
Ge6 Pr4 3.093907 1_655
Ge6 Pr4 3.093907 1_555
Ge6 Pr2 3.215123 1_555
Ge6 Pr6 3.223043 1_555
Ge6 Pr0 3.335869 1_555
Ge6 Pr0 3.335869 1_655
Ge7 Pd1 2.595816 1_455
Ge7 Pd1 2.595816 1_555
Ge7 Pd3 2.658811 1_555
Ge7 Pr5 3.093907 1_555
Ge7 Pr5 3.093907 1_455
Ge7 Pr3 3.215123 1_555
Ge7 Pr7 3.223043 1_555
Ge7 Pr1 3.335869 1_555
Ge7 Pr1 3.335869 1_455
Ge8 Pd10 2.588220 1_545
Ge8 Pd10 2.588220 1_445
Ge8 Pd4 2.680620 1_555
Ge8 Pr6 3.078613 1_455
Ge8 Pr6 3.078613 1_555
Ge8 Pr0 3.223353 1_545
Ge8 Pr11 3.300472 1_545
Ge8 Pr10 3.337107 1_455
Ge8 Pr10 3.337107 1_555
Ge9 Pd11 2.588220 1_565
Ge9 Pd11 2.588220 1_665
Ge9 Pd5 2.680620 1_555
Ge9 Pr7 3.078613 1_555
Ge9 Pr7 3.078613 1_655
Ge9 Pr1 3.223353 1_565
Ge9 Pr10 3.300472 1_565
Ge9 Pr11 3.337107 1_555
Ge9 Pr11 3.337107 1_655
Ge10 Pd8 2.588220 1_555
Ge10 Pd8 2.588220 1_655
Ge10 Pd6 2.680620 1_555
Ge10 Ge6 2.797750 1_555
Ge10 Pr4 3.078613 1_555
Ge10 Pr4 3.078613 1_655
Ge10 Pr2 3.223353 1_555
Ge10 Pr9 3.300472 1_554
Ge10 Pr8 3.337107 1_655
Ge10 Pr8 3.337107 1_555
Ge11 Pd9 2.588220 1_455
Ge11 Pd9 2.588220 1_555
Ge11 Pd7 2.680620 1_555
Ge11 Ge7 2.797750 1_555
Ge11 Pr5 3.078613 1_555
Ge11 Pr5 3.078613 1_455
Ge11 Pr3 3.223353 1_555
Ge11 Pr8 3.300472 1_556
Ge11 Pr9 3.337107 1_555
Ge11 Pr9 3.337107 1_455
Pd0 Pr0 3.076708 1_555
Pd0 Pr2 3.173204 1_455
Pd0 Pr2 3.173204 1_555
Pd0 Pd8 3.183466 1_555
Pd0 Pr6 3.242626 1_555
Pd0 Pr6 3.242626 1_455
Pd0 Pr4 3.286153 1_555
Pd1 Pr1 3.076708 1_555
Pd1 Pr3 3.173204 1_555
Pd1 Pr3 3.173204 1_655
Pd1 Pd9 3.183466 1_555
Pd1 Pr7 3.242626 1_555
Pd1 Pr7 3.242626 1_655
Pd1 Pr5 3.286153 1_555
Pd2 Pr2 3.076708 1_565
Pd2 Pr0 3.173204 1_555
Pd2 Pr0 3.173204 1_655
Pd2 Pr4 3.242626 1_555
Pd2 Pr4 3.242626 1_655
Pd2 Pr6 3.286153 1_565
Pd3 Pr3 3.076708 1_545
Pd3 Pr1 3.173204 1_555
Pd3 Pr1 3.173204 1_455
Pd3 Pr5 3.242626 1_455
Pd3 Pr5 3.242626 1_555
Pd3 Pr7 3.286153 1_545
Pd4 Pr10 3.065193 1_555
Pd4 Pr10 3.065193 1_455
Pd4 Pr0 3.179803 1_555
Pd4 Pr11 3.185507 1_555
Pd4 Pr6 3.300889 1_455
Pd4 Pr6 3.300889 1_555
Pd5 Pr11 3.065193 1_655
Pd5 Pr11 3.065193 1_555
Pd5 Pr1 3.179803 1_555
Pd5 Pr10 3.185507 1_555
Pd5 Pr7 3.300889 1_555
Pd5 Pr7 3.300889 1_655
Pd6 Pr8 3.065193 1_655
Pd6 Pr8 3.065193 1_555
Pd6 Pr2 3.179803 1_565
Pd6 Pr9 3.185507 1_564
Pd6 Pr4 3.300889 1_555
Pd6 Pr4 3.300889 1_655
Pd7 Pr9 3.065193 1_555
Pd7 Pr9 3.065193 1_455
Pd7 Pr3 3.179803 1_545
Pd7 Pr8 3.185507 1_546
Pd7 Pr5 3.300889 1_455
Pd7 Pr5 3.300889 1_555
Pd8 Pr8 3.055891 1_555
Pd8 Pr2 3.216250 1_555
Pd8 Pr2 3.216250 1_455
Pd8 Pr9 3.263535 1_554
Pd8 Pr9 3.263535 1_454
Pd8 Pr4 3.272182 1_555
Pd9 Pr9 3.055891 1_555
Pd9 Pr3 3.216250 1_555
Pd9 Pr3 3.216250 1_655
Pd9 Pr8 3.263535 1_656
Pd9 Pr8 3.263535 1_556
Pd9 Pr5 3.272182 1_555
Pd10 Pr10 3.055891 1_565
Pd10 Pd2 3.183466 1_555
Pd10 Pr0 3.216250 1_555
Pd10 Pr0 3.216250 1_655
Pd10 Pr11 3.263535 1_655
Pd10 Pr11 3.263535 1_555
Pd10 Pr6 3.272182 1_565
Pd11 Pr11 3.055891 1_545
Pd11 Pd3 3.183466 1_555
Pd11 Pr1 3.216250 1_555
Pd11 Pr1 3.216250 1_455
Pd11 Pr10 3.263535 1_555
Pd11 Pr10 3.263535 1_455
Pd11 Pr7 3.272182 1_545
