# generated using pymatgen
data_Na2Sn
_symmetry_space_group_name_H-M   'P 1'
_cell_length_a   12.66132871
_cell_length_b   12.66132871
_cell_length_c   12.99177093
_cell_angle_alpha   119.16213287
_cell_angle_beta   119.16213287
_cell_angle_gamma   90.00000000
_symmetry_Int_Tables_number   1
_chemical_formula_structural   Na2Sn
_chemical_formula_sum   'Na32 Sn16'
_cell_volume   1509.22014177
_cell_formula_units_Z   16
loop_
 _symmetry_equiv_pos_site_id
 _symmetry_equiv_pos_as_xyz
  1  'x, y, z'
loop_
 _atom_site_type_symbol
 _atom_site_label
 _atom_site_symmetry_multiplicity
 _atom_site_fract_x
 _atom_site_fract_y
 _atom_site_fract_z
 _atom_site_occupancy
  Na  Na0  1  0.44449148  0.26906635  0.51119781  1
  Na  Na1  1  0.06670633  0.24213145  0.51119781  1
  Na  Na2  1  0.49213145  0.19449148  0.01119781  1
  Na  Na3  1  0.30550852  0.00786855  0.98880219  1
  Na  Na4  1  0.80550852  0.48093365  0.98880219  1
  Na  Na5  1  0.51906635  0.81670633  0.01119781  1
  Na  Na6  1  0.68329367  0.98093365  0.98880219  1
  Na  Na7  1  0.18329367  0.50786855  0.98880219  1
  Na  Na8  1  0.25786855  0.43329367  0.48880219  1
  Na  Na9  1  0.75786855  0.55550852  0.48880219  1
  Na  Na10  1  0.23093365  0.05550852  0.48880219  1
  Na  Na11  1  0.73093365  0.93329367  0.48880219  1
  Na  Na12  1  0.94449148  0.74213145  0.51119781  1
  Na  Na13  1  0.56670633  0.76906635  0.51119781  1
  Na  Na14  1  0.01906635  0.69449148  0.01119781  1
  Na  Na15  1  0.99213145  0.31670633  0.01119781  1
  Na  Na16  1  0.27431766  0.56404212  0.33381336  1
  Na  Na17  1  0.05949570  0.76977124  0.33381336  1
  Na  Na18  1  0.01977124  0.02431766  0.83381336  1
  Na  Na19  1  0.47568234  0.48022876  0.16618664  1
  Na  Na20  1  0.97568234  0.18595788  0.16618664  1
  Na  Na21  1  0.81404212  0.80949570  0.83381336  1
  Na  Na22  1  0.69050430  0.68595788  0.16618664  1
  Na  Na23  1  0.19050430  0.98022876  0.16618664  1
  Na  Na24  1  0.73022876  0.44050430  0.66618664  1
  Na  Na25  1  0.23022876  0.72568234  0.66618664  1
  Na  Na26  1  0.93595788  0.22568234  0.66618664  1
  Na  Na27  1  0.43595788  0.94050430  0.66618664  1
  Na  Na28  1  0.77431766  0.26977124  0.33381336  1
  Na  Na29  1  0.55949570  0.06404212  0.33381336  1
  Na  Na30  1  0.31404212  0.52431766  0.83381336  1
  Na  Na31  1  0.51977124  0.30949570  0.83381336  1
  Sn  Sn0  1  0.50937609  0.31400564  0.31722846  1
  Sn  Sn1  1  0.80785237  0.00322283  0.31722846  1
  Sn  Sn2  1  0.25322283  0.25937609  0.81722846  1
  Sn  Sn3  1  0.24062391  0.24677717  0.18277154  1
  Sn  Sn4  1  0.74062391  0.43599436  0.18277154  1
  Sn  Sn5  1  0.56400564  0.55785237  0.81722846  1
  Sn  Sn6  1  0.94214763  0.93599436  0.18277154  1
  Sn  Sn7  1  0.44214763  0.74677717  0.18277154  1
  Sn  Sn8  1  0.49677717  0.69214763  0.68277154  1
  Sn  Sn9  1  0.99677717  0.49062391  0.68277154  1
  Sn  Sn10  1  0.18599436  0.99062391  0.68277154  1
  Sn  Sn11  1  0.68599436  0.19214763  0.68277154  1
  Sn  Sn12  1  0.00937609  0.50322283  0.31722846  1
  Sn  Sn13  1  0.30785237  0.81400564  0.31722846  1
  Sn  Sn14  1  0.06400564  0.75937609  0.81722846  1
  Sn  Sn15  1  0.75322283  0.05785237  0.81722846  1
loop_
_geom_bond_atom_site_label_1
_geom_bond_atom_site_label_2
_geom_bond_distance
_geom_bond_site_symmetry_2
Na0 Na8 3.148199 1_555
Na0 Na24 3.239704 1_555
Na0 Sn11 3.277205 1_555
Na0 Sn0 3.280863 1_555
Na0 Sn5 3.381682 1_555
Na0 Na29 3.407329 1_555
Na0 Na31 3.571222 1_555
Na0 Sn3 3.611264 1_555
Na0 Na10 3.629552 1_555
Na0 Na23 3.712663 1_545
Na1 Na10 3.148199 1_555
Na1 Na26 3.239704 1_455
Na1 Sn9 3.277205 1_455
Na1 Sn1 3.280863 1_455
Na1 Sn2 3.381681 1_555
Na1 Na28 3.407329 1_455
Na1 Na30 3.571222 1_555
Na1 Sn6 3.611264 1_445
Na1 Na8 3.629552 1_555
Na1 Na20 3.712663 1_455
Na2 Na3 3.148199 1_554
Na2 Sn4 3.277205 1_555
Na2 Sn2 3.280863 1_554
Na2 Sn0 3.381681 1_555
Na2 Na31 3.407329 1_554
Na2 Na28 3.571222 1_555
Na2 Sn10 3.611264 1_544
Na2 Na6 3.629552 1_544
Na2 Na27 3.712663 1_544
Na3 Sn14 3.277205 1_545
Na3 Sn3 3.280863 1_556
Na3 Sn10 3.381681 1_545
Na3 Sn0 3.611264 1_556
Na3 Na5 3.629552 1_546
Na4 Sn5 3.277205 1_555
Na4 Sn4 3.280863 1_556
Na4 Sn11 3.381682 1_555
Na4 Sn12 3.611264 1_656
Na5 Na6 3.148200 1_554
Na5 Sn7 3.277205 1_555
Na5 Sn5 3.280863 1_554
Na5 Sn1 3.381682 1_565
Na5 Sn8 3.611264 1_554
Na6 Sn15 3.277205 1_565
Na6 Sn6 3.280863 1_556
Na6 Sn8 3.381682 1_555
Na6 Sn1 3.611264 1_566
Na7 Sn2 3.277205 1_555
Na7 Sn7 3.280863 1_556
Na7 Sn9 3.381681 1_455
Na7 Sn13 3.611264 1_556
Na8 Sn12 3.277205 1_555
Na8 Sn8 3.280863 1_555
Na8 Sn3 3.381681 1_555
Na8 Sn5 3.611264 1_555
Na9 Sn0 3.277205 1_555
Na9 Sn9 3.280863 1_555
Na9 Sn4 3.381681 1_555
Na9 Sn14 3.611264 1_655
Na10 Na17 3.239704 1_545
Na10 Sn13 3.277205 1_545
Na10 Sn10 3.280863 1_545
Na10 Sn6 3.381682 1_445
Na10 Na27 3.407329 1_545
Na10 Na23 3.571222 1_545
Na10 Sn2 3.611264 1_555
Na10 Na31 3.712663 1_555
Na11 Na13 3.148200 1_555
Na11 Na29 3.239704 1_565
Na11 Sn1 3.277205 1_565
Na11 Sn11 3.280863 1_565
Na11 Sn7 3.381682 1_555
Na11 Na26 3.407329 1_565
Na11 Na22 3.571222 1_555
Na11 Sn15 3.611264 1_565
Na11 Na12 3.629552 1_555
Na11 Na18 3.712663 1_665
Na12 Na9 3.148199 1_555
Na12 Na25 3.239704 1_655
Na12 Sn10 3.277205 1_655
Na12 Sn12 3.280863 1_655
Na12 Sn14 3.381681 1_655
Na12 Na17 3.407329 1_655
Na12 Na18 3.571222 1_665
Na12 Sn4 3.611264 1_555
Na12 Na22 3.712663 1_555
Na13 Na27 3.239704 1_555
Na13 Sn8 3.277205 1_555
Na13 Sn13 3.280863 1_555
Na13 Sn15 3.381682 1_565
Na13 Na16 3.407329 1_555
Na13 Na21 3.571222 1_555
Na13 Sn7 3.611264 1_555
Na13 Na9 3.629552 1_555
Na13 Na19 3.712663 1_555
Na14 Na7 3.148199 1_554
Na14 Na23 3.239704 1_555
Na14 Sn6 3.277205 1_455
Na14 Sn14 3.280863 1_554
Na14 Sn13 3.381682 1_555
Na14 Na21 3.407329 1_454
Na14 Na17 3.571222 1_555
Na14 Sn9 3.611264 1_454
Na14 Na4 3.629552 1_454
Na14 Na24 3.712663 1_454
Na15 Na4 3.148199 1_554
Na15 Na20 3.239704 1_555
Na15 Sn3 3.277205 1_655
Na15 Sn15 3.280863 1_554
Na15 Sn12 3.381681 1_655
Na15 Na18 3.407329 1_654
Na15 Na16 3.571222 1_655
Na15 Sn11 3.611264 1_554
Na15 Na7 3.629552 1_654
Na15 Na26 3.712663 1_554
Na16 Na8 3.239704 1_555
Na16 Sn13 3.316150 1_555
Na16 Sn12 3.320551 1_555
Na16 Sn8 3.392140 1_555
Na16 Sn3 3.416280 1_555
Na16 Na7 3.712663 1_554
Na17 Sn12 3.316150 1_555
Na17 Sn13 3.320551 1_555
Na17 Sn10 3.392140 1_555
Na17 Sn6 3.416280 1_455
Na17 Na4 3.712663 1_454
Na18 Na3 3.239704 1_555
Na18 Sn15 3.316150 1_455
Na18 Sn14 3.320551 1_545
Na18 Sn3 3.392140 1_556
Na18 Sn10 3.416280 1_545
Na19 Na2 3.239704 1_555
Na19 Sn7 3.316150 1_555
Na19 Sn4 3.320551 1_555
Na19 Sn2 3.392140 1_554
Na19 Na7 3.407329 1_554
Na19 Sn0 3.416280 1_555
Na19 Na9 3.571222 1_555
Na20 Sn6 3.316150 1_545
Na20 Sn3 3.320551 1_655
Na20 Sn15 3.392140 1_554
Na20 Na6 3.407329 1_544
Na20 Sn12 3.416280 1_655
Na20 Na8 3.571222 1_655
Na21 Na6 3.239704 1_555
Na21 Sn14 3.316150 1_655
Na21 Sn15 3.320551 1_565
Na21 Sn6 3.392140 1_556
Na21 Sn8 3.416280 1_555
Na21 Na9 3.712663 1_555
Na22 Na5 3.239704 1_555
Na22 Sn4 3.316150 1_555
Na22 Sn7 3.320551 1_555
Na22 Sn5 3.392140 1_554
Na22 Na4 3.407329 1_554
Na22 Sn1 3.416280 1_565
Na23 Sn3 3.316150 1_565
Na23 Sn6 3.320551 1_455
Na23 Sn14 3.392140 1_554
Na23 Na3 3.407329 1_564
Na23 Sn13 3.416280 1_555
Na24 Sn9 3.316150 1_555
Na24 Sn11 3.320551 1_555
Na24 Sn0 3.392140 1_555
Na24 Na9 3.407329 1_555
Na24 Sn5 3.416280 1_555
Na24 Na4 3.571222 1_555
Na25 Sn8 3.316150 1_555
Na25 Sn10 3.320551 1_555
Na25 Sn12 3.392140 1_555
Na25 Na8 3.407329 1_555
Na25 Sn14 3.416280 1_555
Na25 Na3 3.571222 1_565
Na25 Na5 3.712663 1_556
Na26 Sn11 3.316150 1_555
Na26 Sn9 3.320551 1_555
Na26 Sn1 3.392140 1_555
Na26 Sn2 3.416280 1_655
Na26 Na7 3.571222 1_655
Na27 Sn10 3.316150 1_555
Na27 Sn8 3.320551 1_555
Na27 Sn13 3.392140 1_555
Na27 Sn15 3.416280 1_565
Na27 Na6 3.571222 1_555
Na28 Na9 3.239704 1_555
Na28 Sn1 3.316150 1_555
Na28 Sn0 3.320551 1_555
Na28 Sn9 3.392140 1_555
Na28 Sn4 3.416280 1_555
Na28 Na6 3.712663 1_544
Na29 Sn0 3.316150 1_555
Na29 Sn1 3.320551 1_555
Na29 Sn11 3.392140 1_555
Na29 Sn7 3.416280 1_545
Na29 Na5 3.571222 1_545
Na29 Na3 3.712663 1_554
Na30 Na7 3.239704 1_555
Na30 Sn5 3.316150 1_555
Na30 Sn2 3.320551 1_555
Na30 Sn7 3.392140 1_556
Na30 Na5 3.407329 1_556
Na30 Sn9 3.416280 1_455
Na30 Na8 3.712663 1_555
Na31 Na4 3.239704 1_555
Na31 Sn2 3.316150 1_555
Na31 Sn5 3.320551 1_555
Na31 Sn4 3.392140 1_556
Na31 Sn11 3.416280 1_555
Sn0 Sn3 2.848296 1_555
Sn1 Sn6 2.848296 1_545
Sn5 Sn8 2.848296 1_555
Sn10 Sn2 2.848296 1_565
Sn11 Sn15 2.848296 1_555
Sn12 Sn4 2.848296 1_455
Sn13 Sn7 2.848296 1_555
Sn14 Sn9 2.848296 1_455
