# generated using pymatgen
data_Mg(Fe2O3)4
_symmetry_space_group_name_H-M   'P 1'
_cell_length_a   5.34268918
_cell_length_b   5.76167258
_cell_length_c   7.61891238
_cell_angle_alpha   98.31473276
_cell_angle_beta   88.08556323
_cell_angle_gamma   92.54382002
_symmetry_Int_Tables_number   1
_chemical_formula_structural   Mg(Fe2O3)4
_chemical_formula_sum   'Mg1 Fe8 O12'
_cell_volume   231.75129561
_cell_formula_units_Z   1
loop_
 _symmetry_equiv_pos_site_id
 _symmetry_equiv_pos_as_xyz
  1  'x, y, z'
loop_
 _atom_site_type_symbol
 _atom_site_label
 _atom_site_symmetry_multiplicity
 _atom_site_fract_x
 _atom_site_fract_y
 _atom_site_fract_z
 _atom_site_occupancy
  Mg  Mg0  1  0.74259100  0.74365100  0.74940400  1
  Fe  Fe0  1  0.27689300  0.53826200  0.09890200  1
  Fe  Fe1  1  0.23493700  0.94157400  0.41318900  1
  Fe  Fe2  1  0.23644600  0.54044700  0.59702700  1
  Fe  Fe3  1  0.25045000  0.93711600  0.91076800  1
  Fe  Fe4  1  0.79465200  0.38573900  0.92996900  1
  Fe  Fe5  1  0.70055200  0.12980100  0.57938800  1
  Fe  Fe6  1  0.76153800  0.66157600  0.31586100  1
  Fe  Fe7  1  0.74477100  0.04819800  0.12339100  1
  O  O0  1  0.40778200  0.60173200  0.84336400  1
  O  O1  1  0.08501300  0.87429000  0.67320800  1
  O  O2  1  0.12817900  0.59121700  0.34864200  1
  O  O3  1  0.39035400  0.88850700  0.15984100  1
  O  O4  1  0.59242700  0.40175500  0.15214000  1
  O  O5  1  0.89729100  0.03160800  0.36307600  1
  O  O6  1  0.88981800  0.41538100  0.67893500  1
  O  O7  1  0.60895800  0.07329800  0.84308100  1
  O  O8  1  0.93535900  0.72189800  0.00090000  1
  O  O9  1  0.39718200  0.24521300  0.50876100  1
  O  O10  1  0.08161100  0.23381000  0.01377200  1
  O  O11  1  0.54319500  0.78242800  0.52673700  1
loop_
_geom_bond_atom_site_label_1
_geom_bond_atom_site_label_2
_geom_bond_distance
_geom_bond_site_symmetry_2
Mg0 O1 2.045400 1_655
Mg0 O6 2.072308 1_555
Mg0 O11 2.077102 1_555
Mg0 O7 2.078654 1_565
Mg0 O0 2.082002 1_555
Mg0 O8 2.227265 1_556
Fe0 O4 1.969947 1_555
Fe0 O2 2.024210 1_555
Fe0 O10 2.034691 1_555
Fe0 O3 2.072336 1_555
Fe0 O0 2.122618 1_554
Fe0 O8 2.344664 1_455
Fe1 O5 1.963526 1_465
Fe1 O9 1.970116 1_565
Fe1 O3 2.062408 1_555
Fe1 O2 2.066763 1_555
Fe1 O11 2.181800 1_555
Fe1 O1 2.192037 1_555
Fe2 O9 1.960483 1_555
Fe2 O2 2.061477 1_555
Fe2 O6 2.067051 1_455
Fe2 O0 2.092728 1_555
Fe2 O1 2.115458 1_555
Fe2 O11 2.207032 1_555
Fe3 O10 2.013303 1_566
Fe3 O1 2.019204 1_555
Fe3 O7 2.113758 1_565
Fe3 O3 2.122579 1_556
Fe3 O0 2.129012 1_555
Fe3 O8 2.197020 1_456
Fe4 O10 1.967386 1_656
Fe4 O4 1.970420 1_556
Fe4 O6 1.991868 1_555
Fe4 O8 2.050291 1_556
Fe4 O7 2.050328 1_555
Fe4 O0 2.610220 1_555
Fe5 O9 1.901630 1_555
Fe5 O5 1.951514 1_555
Fe5 O6 1.961569 1_555
Fe5 O7 2.119219 1_555
Fe5 O11 2.124729 1_545
Fe6 O4 2.007102 1_555
Fe6 O11 2.012534 1_555
Fe6 O2 2.048478 1_655
Fe6 O5 2.204368 1_565
Fe6 O8 2.608690 1_555
Fe7 O5 2.040772 1_555
Fe7 O3 2.096018 1_545
Fe7 O4 2.205984 1_555
Fe7 O8 2.245285 1_545
Fe7 O10 2.250988 1_655
Fe7 O7 2.304481 1_554
