# generated using pymatgen
data_Sr6YSc(BO3)6
_symmetry_space_group_name_H-M   'P 1'
_cell_length_a   7.83183717
_cell_length_b   7.83183717
_cell_length_c   7.83183752
_cell_angle_alpha   105.12696128
_cell_angle_beta   105.12696128
_cell_angle_gamma   105.12696745
_symmetry_Int_Tables_number   1
_chemical_formula_structural   Sr6YSc(BO3)6
_chemical_formula_sum   'Sr6 Y1 Sc1 B6 O18'
_cell_volume   418.83525023
_cell_formula_units_Z   1
loop_
 _symmetry_equiv_pos_site_id
 _symmetry_equiv_pos_as_xyz
  1  'x, y, z'
loop_
 _atom_site_type_symbol
 _atom_site_label
 _atom_site_symmetry_multiplicity
 _atom_site_fract_x
 _atom_site_fract_y
 _atom_site_fract_z
 _atom_site_occupancy
  Sr  Sr0  1  0.35582400  0.73396700  0.84573300  1
  Sr  Sr1  1  0.84573300  0.35582400  0.73396700  1
  Sr  Sr2  1  0.73396700  0.84573300  0.35582400  1
  Sr  Sr3  1  0.64417600  0.26603300  0.15426700  1
  Sr  Sr4  1  0.15426700  0.64417600  0.26603300  1
  Sr  Sr5  1  0.26603300  0.15426700  0.64417600  1
  Y  Y0  1  0.00000000  0.00000000  0.00000000  1
  Sc  Sc0  1  0.50000000  0.50000000  0.50000000  1
  B  B0  1  0.38318200  0.04344900  0.29288000  1
  B  B1  1  0.29288000  0.38318200  0.04344900  1
  B  B2  1  0.04344900  0.29288000  0.38318200  1
  B  B3  1  0.70712000  0.61681800  0.95655100  1
  B  B4  1  0.95655100  0.70712000  0.61681800  1
  B  B5  1  0.61681800  0.95655100  0.70712000  1
  O  O0  1  0.43283900  0.49641100  0.21986500  1
  O  O1  1  0.21986500  0.43283900  0.49641100  1
  O  O2  1  0.80900700  0.02300200  0.73467700  1
  O  O3  1  0.02300200  0.73467700  0.80900700  1
  O  O4  1  0.73467700  0.80900700  0.02300200  1
  O  O5  1  0.26532300  0.19099300  0.97699800  1
  O  O6  1  0.19099300  0.97699800  0.26532300  1
  O  O7  1  0.97699800  0.26532300  0.19099300  1
  O  O8  1  0.53706400  0.06083500  0.80937900  1
  O  O9  1  0.06083500  0.80937900  0.53706400  1
  O  O10  1  0.80937900  0.53706400  0.06083500  1
  O  O11  1  0.46293600  0.93916500  0.19062100  1
  O  O12  1  0.93916500  0.19062100  0.46293600  1
  O  O13  1  0.19062100  0.46293600  0.93916500  1
  O  O14  1  0.50358900  0.78013500  0.56716100  1
  O  O15  1  0.78013500  0.56716100  0.50358900  1
  O  O16  1  0.56716100  0.50358900  0.78013500  1
  O  O17  1  0.49641100  0.21986500  0.43283900  1
loop_
_geom_bond_atom_site_label_1
_geom_bond_atom_site_label_2
_geom_bond_distance
_geom_bond_site_symmetry_2
B0 O11 1.372794 1_545
B0 O6 1.394999 1_545
B0 O17 1.399878 1_555
B1 O13 1.372794 1_554
B1 O5 1.394999 1_554
B1 O0 1.399878 1_555
B2 O12 1.372794 1_455
B2 O7 1.394999 1_455
B2 O1 1.399878 1_555
B3 O10 1.372794 1_556
B3 O4 1.394999 1_556
B3 O16 1.399878 1_555
B4 O9 1.372794 1_655
B4 O3 1.394999 1_655
B4 O15 1.399878 1_555
B5 O8 1.372794 1_565
B5 O2 1.394999 1_565
B5 O14 1.399878 1_555
O0 Sc0 2.109210 1_555
O0 Sr4 2.782277 1_555
O0 Sr3 2.788831 1_555
O0 Sr2 2.825246 1_555
O1 Sc0 2.109210 1_555
O1 Sr5 2.782277 1_555
O1 Sr4 2.788831 1_555
O1 Sr0 2.825247 1_555
O2 Y0 2.302530 1_656
O2 Sr1 2.548384 1_555
O2 Sr2 2.755128 1_545
O3 Y0 2.302530 1_566
O3 Sr0 2.548384 1_555
O3 Sr1 2.755128 1_455
O4 Y0 2.302530 1_665
O4 Sr2 2.548384 1_555
O4 Sr0 2.755128 1_554
O5 Y0 2.302530 1_556
O5 Sr5 2.548384 1_555
O5 Sr3 2.755128 1_556
O6 Y0 2.302530 1_565
O6 Sr4 2.548384 1_555
O6 Sr5 2.755128 1_565
O7 Y0 2.302530 1_655
O7 Sr3 2.548384 1_555
O7 Sr4 2.755128 1_655
O8 Sr3 2.535857 1_556
O8 Sr5 2.566440 1_555
O8 Sr0 2.710017 1_545
O9 Sr5 2.535857 1_565
O9 Sr4 2.566440 1_555
O9 Sr2 2.710017 1_455
O10 Sr4 2.535857 1_655
O10 Sr3 2.566440 1_555
O10 Sr1 2.710017 1_554
O11 Sr0 2.535857 1_554
O11 Sr2 2.566440 1_555
O11 Sr3 2.710017 1_565
O12 Sr2 2.535857 1_545
O12 Sr1 2.566440 1_555
O12 Sr5 2.710017 1_655
O13 Sr1 2.535857 1_455
O13 Sr0 2.566440 1_555
O13 Sr4 2.710017 1_556
O14 Sc0 2.109210 1_555
O14 Sr0 2.782277 1_555
O14 Sr2 2.788831 1_555
O14 Sr4 2.825247 1_555
O15 Sc0 2.109210 1_555
O15 Sr2 2.782277 1_555
O15 Sr1 2.788831 1_555
O15 Sr3 2.825247 1_555
O16 Sc0 2.109210 1_555
O16 Sr1 2.782277 1_555
O16 Sr0 2.788831 1_555
O16 Sr5 2.825246 1_555
O17 Sc0 2.109210 1_555
O17 Sr3 2.782277 1_555
O17 Sr5 2.788831 1_555
O17 Sr1 2.825247 1_555
