# generated using pymatgen
data_IrC2
_symmetry_space_group_name_H-M   'P 1'
_cell_length_a   3.65291042
_cell_length_b   3.65291042
_cell_length_c   7.83679144
_cell_angle_alpha   74.23900458
_cell_angle_beta   74.23900458
_cell_angle_gamma   44.48629104
_symmetry_Int_Tables_number   1
_chemical_formula_structural   IrC2
_chemical_formula_sum   'Ir2 C4'
_cell_volume   70.05140213
_cell_formula_units_Z   2
loop_
 _symmetry_equiv_pos_site_id
 _symmetry_equiv_pos_as_xyz
  1  'x, y, z'
loop_
 _atom_site_type_symbol
 _atom_site_label
 _atom_site_symmetry_multiplicity
 _atom_site_fract_x
 _atom_site_fract_y
 _atom_site_fract_z
 _atom_site_occupancy
  Ir  Ir0  1  0.13529200  0.13529200  0.70827300  1
  Ir  Ir1  1  0.86470800  0.86470800  0.29172700  1
  C  C0  1  0.81663800  0.81663800  0.78840500  1
  C  C1  1  0.18336200  0.18336200  0.21159500  1
  C  C2  1  0.59641400  0.59641400  0.51628700  1
  C  C3  1  0.40358600  0.40358600  0.48371300  1
loop_
_geom_bond_atom_site_label_1
_geom_bond_atom_site_label_2
_geom_bond_distance
_geom_bond_site_symmetry_2
C0 Ir0 2.059921 1_665
C0 Ir0 2.064502 1_565
C0 Ir0 2.064502 1_655
C1 Ir1 2.059921 1_445
C1 Ir1 2.064502 1_545
C1 Ir1 2.064502 1_455
C2 C3 1.400277 1_555
C2 Ir0 2.115891 1_565
C2 Ir0 2.115891 1_655
C2 Ir1 2.124754 1_555
C3 Ir1 2.115891 1_545
C3 Ir1 2.115891 1_455
C3 Ir0 2.124754 1_555
