# generated using pymatgen
data_Li2La3Ti2Nb2O13
_symmetry_space_group_name_H-M   'P 1'
_cell_length_a   17.07985179
_cell_length_b   17.07985179
_cell_length_c   17.07985179
_cell_angle_alpha   166.53151843
_cell_angle_beta   166.53151843
_cell_angle_gamma   19.09168608
_symmetry_Int_Tables_number   1
_chemical_formula_structural   Li2La3Ti2Nb2O13
_chemical_formula_sum   'Li2 La3 Ti2 Nb2 O13'
_cell_volume   270.26383931
_cell_formula_units_Z   1
loop_
 _symmetry_equiv_pos_site_id
 _symmetry_equiv_pos_as_xyz
  1  'x, y, z'
loop_
 _atom_site_type_symbol
 _atom_site_label
 _atom_site_symmetry_multiplicity
 _atom_site_fract_x
 _atom_site_fract_y
 _atom_site_fract_z
 _atom_site_occupancy
  Li  Li0  1  0.75000000  0.25000000  0.50000000  1
  Li  Li1  1  0.25000000  0.75000000  0.50000000  1
  La  La0  1  0.50000000  0.50000000  0.00000000  1
  La  La1  1  0.38062200  0.38062200  0.00000000  1
  La  La2  1  0.61937800  0.61937800  0.00000000  1
  Ti  Ti0  1  0.94172400  0.94172400  0.00000000  1
  Ti  Ti1  1  0.05827600  0.05827600  0.00000000  1
  Nb  Nb0  1  0.82020400  0.82020400  0.00000000  1
  Nb  Nb1  1  0.17979600  0.17979600  0.00000000  1
  O  O0  1  0.00000000  0.00000000  0.00000000  1
  O  O1  1  0.94192200  0.44192200  0.50000000  1
  O  O2  1  0.44192200  0.94192200  0.50000000  1
  O  O3  1  0.88326200  0.88326200  0.00000000  1
  O  O4  1  0.82927700  0.32927700  0.50000000  1
  O  O5  1  0.32927700  0.82927700  0.50000000  1
  O  O6  1  0.76372900  0.76372900  0.00000000  1
  O  O7  1  0.23627100  0.23627100  0.00000000  1
  O  O8  1  0.67072300  0.17072300  0.50000000  1
  O  O9  1  0.17072300  0.67072300  0.50000000  1
  O  O10  1  0.11673800  0.11673800  0.00000000  1
  O  O11  1  0.55807800  0.05807800  0.50000000  1
  O  O12  1  0.05807800  0.55807800  0.50000000  1
loop_
_geom_bond_atom_site_label_1
_geom_bond_atom_site_label_2
_geom_bond_distance
_geom_bond_site_symmetry_2
Li0 O6 2.055559 1_556
Li0 O6 2.055559 1_545
Li0 O7 2.055559 1_555
Li0 O7 2.055559 1_656
Li1 O6 2.055559 1_556
Li1 O6 2.055559 1_455
Li1 O7 2.055559 1_555
Li1 O7 2.055559 1_566
La0 O12 2.799849 1_655
La0 O11 2.799849 1_554
La0 O12 2.799849 1_554
La0 O11 2.799849 1_565
La0 O2 2.799849 1_555
La0 O1 2.799849 1_555
La0 O1 2.799849 1_454
La0 O2 2.799849 1_544
La0 O0 2.832466 1_554
La0 O0 2.832466 1_655
La0 O0 2.832466 1_666
La0 O0 2.832466 1_565
La1 O5 2.646337 1_555
La1 O4 2.646337 1_555
La1 O5 2.646337 1_544
La1 O4 2.646337 1_454
La1 O3 2.833862 1_545
La1 O3 2.833862 1_455
La1 O3 2.833862 1_556
La1 O3 2.833862 1_444
La1 O1 2.876740 1_555
La1 O2 2.876740 1_555
La1 O1 2.876740 1_454
La1 O2 2.876740 1_544
La2 O8 2.646337 1_565
La2 O9 2.646337 1_655
La2 O9 2.646337 1_554
La2 O8 2.646337 1_554
La2 O10 2.833862 1_666
La2 O10 2.833862 1_554
La2 O10 2.833862 1_655
La2 O10 2.833862 1_565
La2 O11 2.876740 1_565
La2 O12 2.876740 1_655
La2 O11 2.876740 1_554
La2 O12 2.876740 1_554
Nb0 O6 1.902456 1_555
Nb0 O4 2.026042 1_554
Nb0 O5 2.026042 1_554
Nb0 O4 2.026042 1_565
Nb0 O5 2.026042 1_655
Nb0 O3 2.124216 1_555
Nb1 O7 1.902456 1_555
Nb1 O9 2.026042 1_544
Nb1 O8 2.026042 1_454
Nb1 O9 2.026042 1_555
Nb1 O8 2.026042 1_555
Nb1 O10 2.124216 1_555
O0 Ti1 1.963126 1_555
O0 Ti0 1.963126 1_445
O1 Ti0 2.002867 1_556
O1 Ti0 2.002867 1_545
O2 Ti0 2.002867 1_556
O2 Ti0 2.002867 1_455
O3 Ti0 1.969392 1_555
O10 Ti1 1.969392 1_555
O11 Ti1 2.002867 1_555
O11 Ti1 2.002867 1_656
O12 Ti1 2.002867 1_555
O12 Ti1 2.002867 1_566
