# generated using pymatgen
data_Li9Mn2Co5O16
_symmetry_space_group_name_H-M   'P 1'
_cell_length_a   5.07218600
_cell_length_b   5.10882307
_cell_length_c   11.62345892
_cell_angle_alpha   90.78321700
_cell_angle_beta   91.94147470
_cell_angle_gamma   109.55903204
_symmetry_Int_Tables_number   1
_chemical_formula_structural   Li9Mn2Co5O16
_chemical_formula_sum   'Li9 Mn2 Co5 O16'
_cell_volume   283.55458134
_cell_formula_units_Z   1
loop_
 _symmetry_equiv_pos_site_id
 _symmetry_equiv_pos_as_xyz
  1  'x, y, z'
loop_
 _atom_site_type_symbol
 _atom_site_label
 _atom_site_symmetry_multiplicity
 _atom_site_fract_x
 _atom_site_fract_y
 _atom_site_fract_z
 _atom_site_occupancy
  Li  Li0  1  0.99888900  0.50006400  0.88410600  1
  Li  Li1  1  0.50000000  0.50000000  0.00000000  1
  Li  Li2  1  0.00111100  0.49993600  0.11589400  1
  Li  Li3  1  0.50195000  0.50170300  0.24576900  1
  Li  Li4  1  0.00456300  0.50060300  0.37677700  1
  Li  Li5  1  0.50000000  0.50000000  0.50000000  1
  Li  Li6  1  0.99543700  0.49939700  0.62322300  1
  Li  Li7  1  0.49805000  0.49829700  0.75423100  1
  Li  Li8  1  0.00000000  0.00000000  0.00000000  1
  Mn  Mn0  1  0.99978600  0.00264800  0.75310000  1
  Mn  Mn1  1  0.00021400  0.99735200  0.24690000  1
  Co  Co0  1  0.50190400  0.00214200  0.87901800  1
  Co  Co1  1  0.49809600  0.99785800  0.12098200  1
  Co  Co2  1  0.50028200  0.00157900  0.37616300  1
  Co  Co3  1  0.00000000  0.00000000  0.50000000  1
  Co  Co4  1  0.49971800  0.99842100  0.62383700  1
  O  O0  1  0.25015000  0.78205300  0.75446600  1
  O  O1  1  0.75611200  0.78579300  0.86194300  1
  O  O2  1  0.26985300  0.75917900  0.00947000  1
  O  O3  1  0.74901700  0.77022200  0.13399100  1
  O  O4  1  0.23870400  0.76823200  0.26024000  1
  O  O5  1  0.77378800  0.78107100  0.37419100  1
  O  O6  1  0.26916600  0.76198000  0.50466700  1
  O  O7  1  0.77027000  0.77699900  0.62130100  1
  O  O8  1  0.73014700  0.24082100  0.99053000  1
  O  O9  1  0.24388800  0.21420700  0.13805700  1
  O  O10  1  0.74985000  0.21794700  0.24553400  1
  O  O11  1  0.22973000  0.22300100  0.37869900  1
  O  O12  1  0.73083400  0.23802000  0.49533300  1
  O  O13  1  0.22621200  0.21892900  0.62580900  1
  O  O14  1  0.76129600  0.23176800  0.73976000  1
  O  O15  1  0.25098300  0.22977800  0.86600900  1
loop_
_geom_bond_atom_site_label_1
_geom_bond_atom_site_label_2
_geom_bond_distance
_geom_bond_site_symmetry_2
Li0 O8 2.023029 1_555
Li0 O2 2.087587 1_656
Li0 O15 2.185965 1_655
Li0 O14 2.200048 1_555
Li0 O1 2.214929 1_555
Li0 O0 2.220457 1_655
Li1 O2 2.041495 1_555
Li1 O8 2.041495 1_554
Li1 O15 2.137103 1_554
Li1 O3 2.137103 1_555
Li1 O9 2.308622 1_555
Li1 O1 2.308622 1_554
Li2 O2 2.023029 1_555
Li2 O8 2.087587 1_454
Li2 O3 2.185965 1_455
Li2 O4 2.200048 1_555
Li2 O9 2.214929 1_555
Li2 O10 2.220457 1_455
Li3 O9 1.997377 1_555
Li3 O3 2.036752 1_555
Li3 O5 2.156618 1_555
Li3 O4 2.211677 1_555
Li3 O10 2.214305 1_555
Li3 O11 2.282437 1_555
Li4 O4 2.046240 1_555
Li4 O11 2.097582 1_555
Li4 O6 2.098744 1_555
Li4 O5 2.132118 1_455
Li4 O12 2.135261 1_455
Li4 O10 2.153747 1_455
Li5 O6 2.053456 1_555
Li5 O12 2.053456 1_555
Li5 O11 2.094129 1_555
Li5 O7 2.094129 1_555
Li5 O13 2.233539 1_555
Li5 O5 2.233539 1_555
Li6 O14 2.046240 1_555
Li6 O7 2.097582 1_555
Li6 O12 2.098744 1_555
Li6 O13 2.132118 1_655
Li6 O6 2.135261 1_655
Li6 O0 2.153747 1_655
Li7 O1 1.997377 1_555
Li7 O15 2.036752 1_555
Li7 O13 2.156618 1_555
Li7 O14 2.211677 1_555
Li7 O0 2.214305 1_555
Li7 O7 2.282437 1_555
Li8 O9 2.052805 1_555
Li8 O1 2.052805 1_444
Li8 O2 2.126090 1_545
Li8 O8 2.126090 1_454
Li8 O3 2.146623 1_445
Li8 O15 2.146623 1_554
Mn0 O15 1.883446 1_655
Mn0 O1 1.892880 1_545
Mn0 O14 1.948793 1_555
Mn0 O0 1.959673 1_645
Mn0 O7 1.990831 1_545
Mn0 O13 2.009766 1_655
Mn1 O3 1.883446 1_455
Mn1 O9 1.892880 1_565
Mn1 O4 1.948793 1_555
Mn1 O10 1.959673 1_465
Mn1 O11 1.990831 1_565
Mn1 O5 2.009766 1_455
Co0 O8 1.848531 1_555
Co0 O0 1.964600 1_545
Co0 O1 1.972090 1_545
Co0 O15 1.994472 1_555
Co0 O2 2.102241 1_546
Co0 O14 2.211351 1_555
Co1 O2 1.848531 1_555
Co1 O10 1.964600 1_565
Co1 O9 1.972090 1_565
Co1 O3 1.994472 1_555
Co1 O8 2.102241 1_564
Co1 O4 2.211351 1_555
Co2 O12 1.908930 1_555
Co2 O4 1.942416 1_545
Co2 O11 2.050582 1_555
Co2 O5 2.059606 1_545
Co2 O6 2.076398 1_545
Co2 O10 2.090196 1_555
Co3 O13 1.920481 1_555
Co3 O5 1.920481 1_445
Co3 O11 1.977377 1_555
Co3 O7 1.977377 1_445
Co3 O6 2.110425 1_545
Co3 O12 2.110425 1_455
Co4 O6 1.908930 1_555
Co4 O14 1.942416 1_565
Co4 O7 2.050582 1_555
Co4 O13 2.059606 1_565
Co4 O12 2.076398 1_565
Co4 O0 2.090196 1_555
