# generated using pymatgen
data_Fe5(BO3)6
_symmetry_space_group_name_H-M   'P 1'
_cell_length_a   3.91203700
_cell_length_b   11.96928400
_cell_length_c   15.93255900
_cell_angle_alpha   90.00000000
_cell_angle_beta   90.00000000
_cell_angle_gamma   90.00000000
_symmetry_Int_Tables_number   1
_chemical_formula_structural   Fe5(BO3)6
_chemical_formula_sum   'Fe10 B12 O36'
_cell_volume   746.03063355
_cell_formula_units_Z   2
loop_
 _symmetry_equiv_pos_site_id
 _symmetry_equiv_pos_as_xyz
  1  'x, y, z'
loop_
 _atom_site_type_symbol
 _atom_site_label
 _atom_site_symmetry_multiplicity
 _atom_site_fract_x
 _atom_site_fract_y
 _atom_site_fract_z
 _atom_site_occupancy
  Fe  Fe0  1  0.00000000  0.37011100  0.61613400  1
  Fe  Fe1  1  0.00000000  0.37011100  0.38386600  1
  Fe  Fe2  1  0.50000000  0.62988900  0.88386600  1
  Fe  Fe3  1  0.50000000  0.62988900  0.11613400  1
  Fe  Fe4  1  0.00000000  0.44674300  0.80967100  1
  Fe  Fe5  1  0.00000000  0.44674300  0.19032900  1
  Fe  Fe6  1  0.50000000  0.55325700  0.69032900  1
  Fe  Fe7  1  0.50000000  0.55325700  0.30967100  1
  Fe  Fe8  1  0.00000000  0.49095800  0.00000000  1
  Fe  Fe9  1  0.50000000  0.50904200  0.50000000  1
  B  B0  1  0.00000000  0.12074400  0.62518500  1
  B  B1  1  0.00000000  0.12074400  0.37481500  1
  B  B2  1  0.50000000  0.87925600  0.87481500  1
  B  B3  1  0.50000000  0.87925600  0.12518500  1
  B  B4  1  0.00000000  0.20157400  0.76749300  1
  B  B5  1  0.00000000  0.20157400  0.23250700  1
  B  B6  1  0.50000000  0.79842600  0.73250700  1
  B  B7  1  0.50000000  0.79842600  0.26749300  1
  B  B8  1  0.00000000  0.24581900  0.92261000  1
  B  B9  1  0.00000000  0.24581900  0.07739000  1
  B  B10  1  0.50000000  0.75418100  0.57739000  1
  B  B11  1  0.50000000  0.75418100  0.42261000  1
  O  O0  1  0.50000000  0.54357300  0.00000000  1
  O  O1  1  0.00000000  0.45642700  0.50000000  1
  O  O2  1  0.50000000  0.48159800  0.80716400  1
  O  O3  1  0.50000000  0.48159800  0.19283600  1
  O  O4  1  0.00000000  0.51840200  0.69283600  1
  O  O5  1  0.00000000  0.51840200  0.30716400  1
  O  O6  1  0.50000000  0.41561800  0.60981300  1
  O  O7  1  0.50000000  0.41561800  0.39018700  1
  O  O8  1  0.00000000  0.58438200  0.89018700  1
  O  O9  1  0.00000000  0.58438200  0.10981300  1
  O  O10  1  0.00000000  0.36110400  0.91579300  1
  O  O11  1  0.00000000  0.36110400  0.08420700  1
  O  O12  1  0.50000000  0.63889600  0.58420700  1
  O  O13  1  0.50000000  0.63889600  0.41579300  1
  O  O14  1  0.00000000  0.30986600  0.73825700  1
  O  O15  1  0.00000000  0.30986600  0.26174300  1
  O  O16  1  0.50000000  0.69013400  0.76174300  1
  O  O17  1  0.50000000  0.69013400  0.23825700  1
  O  O18  1  0.00000000  0.21824200  0.58129000  1
  O  O19  1  0.00000000  0.21824200  0.41871000  1
  O  O20  1  0.50000000  0.78175800  0.91871000  1
  O  O21  1  0.50000000  0.78175800  0.08129000  1
  O  O22  1  0.00000000  0.19516100  0.00000000  1
  O  O23  1  0.50000000  0.80483900  0.50000000  1
  O  O24  1  0.00000000  0.11370500  0.71243900  1
  O  O25  1  0.00000000  0.11370500  0.28756100  1
  O  O26  1  0.50000000  0.88629500  0.78756100  1
  O  O27  1  0.50000000  0.88629500  0.21243900  1
  O  O28  1  0.00000000  0.17860900  0.85232200  1
  O  O29  1  0.00000000  0.17860900  0.14767800  1
  O  O30  1  0.50000000  0.82139100  0.64767800  1
  O  O31  1  0.50000000  0.82139100  0.35232200  1
  O  O32  1  0.00000000  0.02001500  0.58426500  1
  O  O33  1  0.00000000  0.02001500  0.41573500  1
  O  O34  1  0.50000000  0.97998500  0.91573500  1
  O  O35  1  0.50000000  0.97998500  0.08426500  1
loop_
_geom_bond_atom_site_label_1
_geom_bond_atom_site_label_2
_geom_bond_distance
_geom_bond_site_symmetry_2
Fe0 O18 1.900647 1_555
Fe0 O6 2.032937 1_455
Fe0 O6 2.032937 1_555
Fe0 O14 2.075052 1_555
Fe0 O1 2.119206 1_555
Fe0 O4 2.154955 1_555
Fe1 O19 1.900647 1_555
Fe1 O7 2.032937 1_455
Fe1 O7 2.032937 1_555
Fe1 O15 2.075052 1_555
Fe1 O1 2.119206 1_555
Fe1 O5 2.154955 1_555
Fe2 O20 1.900647 1_555
Fe2 O8 2.032937 1_555
Fe2 O8 2.032937 1_655
Fe2 O16 2.075052 1_555
Fe2 O0 2.119206 1_556
Fe2 O2 2.154955 1_555
Fe3 O21 1.900647 1_555
Fe3 O9 2.032937 1_655
Fe3 O9 2.032937 1_555
Fe3 O17 2.075052 1_555
Fe3 O0 2.119206 1_555
Fe3 O3 2.154955 1_555
Fe4 O10 1.977243 1_555
Fe4 O14 1.994667 1_555
Fe4 O2 2.000413 1_455
Fe4 O2 2.000413 1_555
Fe4 O4 2.049578 1_555
Fe4 O8 2.087990 1_555
Fe5 O11 1.977243 1_555
Fe5 O15 1.994667 1_555
Fe5 O3 2.000413 1_455
Fe5 O3 2.000413 1_555
Fe5 O5 2.049578 1_555
Fe5 O9 2.087990 1_555
Fe6 O12 1.977243 1_555
Fe6 O16 1.994667 1_555
Fe6 O4 2.000413 1_655
Fe6 O4 2.000413 1_555
Fe6 O2 2.049578 1_555
Fe6 O6 2.087990 1_555
Fe7 O13 1.977243 1_555
Fe7 O17 1.994667 1_555
Fe7 O5 2.000413 1_555
Fe7 O5 2.000413 1_655
Fe7 O3 2.049578 1_555
Fe7 O7 2.087990 1_555
Fe8 O11 2.053217 1_555
Fe8 O10 2.053217 1_554
Fe8 O0 2.054899 1_455
Fe8 O0 2.054899 1_555
Fe8 O9 2.076420 1_555
Fe8 O8 2.076420 1_554
Fe9 O12 2.053217 1_555
Fe9 O13 2.053217 1_555
Fe9 O1 2.054899 1_655
Fe9 O1 2.054899 1_555
Fe9 O6 2.076420 1_555
Fe9 O7 2.076420 1_555
B0 O18 1.360496 1_555
B0 O32 1.370640 1_555
B0 O24 1.392730 1_555
B1 O19 1.360496 1_555
B1 O33 1.370640 1_555
B1 O25 1.392730 1_555
B2 O20 1.360496 1_555
B2 O34 1.370640 1_555
B2 O26 1.392730 1_555
B3 O21 1.360496 1_555
B3 O35 1.370640 1_555
B3 O27 1.392730 1_555
B4 O24 1.369499 1_555
B4 O14 1.377334 1_555
B4 O28 1.379212 1_555
B5 O25 1.369499 1_555
B5 O15 1.377334 1_555
B5 O29 1.379212 1_555
B6 O26 1.369499 1_555
B6 O16 1.377334 1_555
B6 O30 1.379212 1_555
B7 O27 1.369499 1_555
B7 O17 1.377334 1_555
B7 O31 1.379212 1_555
B8 O22 1.374041 1_556
B8 O28 1.378859 1_555
B8 O10 1.384147 1_555
B9 O22 1.374041 1_555
B9 O29 1.378859 1_555
B9 O11 1.384147 1_555
B10 O23 1.374041 1_555
B10 O30 1.378859 1_555
B10 O12 1.384147 1_555
B11 O23 1.374041 1_555
B11 O31 1.378859 1_555
B11 O13 1.384147 1_555
