# generated using pymatgen
data_NbSb3O8
_symmetry_space_group_name_H-M   'P 1'
_cell_length_a   5.51981852
_cell_length_b   4.90160217
_cell_length_c   12.80846031
_cell_angle_alpha   67.86257086
_cell_angle_beta   90.00000000
_cell_angle_gamma   90.00000000
_symmetry_Int_Tables_number   1
_chemical_formula_structural   NbSb3O8
_chemical_formula_sum   'Nb2 Sb6 O16'
_cell_volume   320.99873446
_cell_formula_units_Z   2
loop_
 _symmetry_equiv_pos_site_id
 _symmetry_equiv_pos_as_xyz
  1  'x, y, z'
loop_
 _atom_site_type_symbol
 _atom_site_label
 _atom_site_symmetry_multiplicity
 _atom_site_fract_x
 _atom_site_fract_y
 _atom_site_fract_z
 _atom_site_occupancy
  Nb  Nb0  1  0.62271483  0.07474397  0.42416881  1
  Nb  Nb1  1  0.37728517  0.07474397  0.92416881  1
  Sb  Sb0  1  0.87962980  0.56043470  0.93063146  1
  Sb  Sb1  1  0.12037020  0.56043470  0.43063146  1
  Sb  Sb2  1  0.22567460  0.36911041  0.17860633  1
  Sb  Sb3  1  0.28191784  0.78553578  0.67486230  1
  Sb  Sb4  1  0.77432540  0.36911041  0.67860633  1
  Sb  Sb5  1  0.71808216  0.78553578  0.17486230  1
  O  O0  1  0.89957231  0.57813949  0.08833793  1
  O  O1  1  0.59966632  0.74800353  0.58862190  1
  O  O2  1  0.10042769  0.57813949  0.58833793  1
  O  O3  1  0.40033368  0.74800353  0.08862190  1
  O  O4  1  0.93263643  0.56025030  0.77625514  1
  O  O5  1  0.56709964  0.38941791  0.27497656  1
  O  O6  1  0.06736357  0.56025030  0.27625514  1
  O  O7  1  0.43290036  0.38941791  0.77497656  1
  O  O8  1  0.10130013  0.90372921  0.88267853  1
  O  O9  1  0.39328403  0.82784164  0.37932580  1
  O  O10  1  0.89869987  0.90372921  0.38267853  1
  O  O11  1  0.60671597  0.82784164  0.87932580  1
  O  O12  1  0.17128975  0.31513928  0.98561277  1
  O  O13  1  0.32801996  0.21365478  0.48992346  1
  O  O14  1  0.82871025  0.31513928  0.48561277  1
  O  O15  1  0.67198004  0.21365478  0.98992346  1
loop_
_geom_bond_atom_site_label_1
_geom_bond_atom_site_label_2
_geom_bond_distance
_geom_bond_site_symmetry_2
Nb0 O10 1.908274 1_545
Nb0 O5 1.975737 1_555
Nb0 O9 1.980458 1_545
Nb0 O14 1.999904 1_555
Nb0 O13 2.061832 1_555
Nb0 O1 2.115555 1_545
Nb1 O8 1.908274 1_545
Nb1 O7 1.975737 1_555
Nb1 O11 1.980458 1_545
Nb1 O12 1.999904 1_555
Nb1 O15 2.061832 1_555
Nb1 O3 2.115555 1_546
O0 Sb5 2.028373 1_555
O0 Sb0 2.057200 1_554
O0 Sb2 2.175741 1_655
O1 Sb4 2.023307 1_555
O1 Sb3 2.117396 1_555
O2 Sb3 2.028373 1_555
O2 Sb1 2.057200 1_555
O2 Sb4 2.175741 1_455
O3 Sb2 2.023307 1_555
O3 Sb5 2.117396 1_555
O4 Sb0 1.999190 1_555
O4 Sb4 2.022088 1_555
O4 Sb3 2.354194 1_655
O5 Sb5 2.057256 1_555
O5 Sb2 2.275494 1_555
O6 Sb1 1.999190 1_555
O6 Sb2 2.022088 1_555
O6 Sb5 2.354194 1_455
O7 Sb3 2.057256 1_555
O7 Sb4 2.275494 1_555
O8 Sb0 1.981649 1_455
O9 Sb1 1.941656 1_555
O10 Sb1 1.981649 1_655
O11 Sb0 1.941656 1_555
O12 Sb0 1.973634 1_455
O12 Sb2 2.600671 1_556
O13 Sb1 1.951117 1_555
O13 Sb3 2.516577 1_545
O14 Sb1 1.973634 1_655
O14 Sb4 2.600671 1_555
O15 Sb0 1.951117 1_555
O15 Sb5 2.516577 1_546
