# generated using pymatgen
data_FeCo2BO5
_symmetry_space_group_name_H-M   'P 1'
_cell_length_a   3.07234900
_cell_length_b   9.41770700
_cell_length_c   12.41582300
_cell_angle_alpha   90.00000000
_cell_angle_beta   90.00000000
_cell_angle_gamma   90.00000000
_symmetry_Int_Tables_number   1
_chemical_formula_structural   FeCo2BO5
_chemical_formula_sum   'Fe4 Co8 B4 O20'
_cell_volume   359.24541560
_cell_formula_units_Z   4
loop_
 _symmetry_equiv_pos_site_id
 _symmetry_equiv_pos_as_xyz
  1  'x, y, z'
loop_
 _atom_site_type_symbol
 _atom_site_label
 _atom_site_symmetry_multiplicity
 _atom_site_fract_x
 _atom_site_fract_y
 _atom_site_fract_z
 _atom_site_occupancy
  Fe  Fe0  1  0.50000000  0.74038600  0.38523300  1
  Fe  Fe1  1  0.50000000  0.25961400  0.61476700  1
  Fe  Fe2  1  0.50000000  0.24038600  0.11476700  1
  Fe  Fe3  1  0.50000000  0.75961400  0.88523300  1
  Co  Co0  1  0.00000000  0.50000000  0.50000000  1
  Co  Co1  1  0.00000000  0.00000000  0.00000000  1
  Co  Co2  1  0.50000000  0.00000000  0.50000000  1
  Co  Co3  1  0.50000000  0.50000000  0.00000000  1
  Co  Co4  1  0.00000000  0.49924600  0.21959900  1
  Co  Co5  1  0.00000000  0.50075400  0.78040100  1
  Co  Co6  1  0.00000000  0.99924600  0.28040100  1
  Co  Co7  1  0.00000000  0.00075400  0.71959900  1
  B  B0  1  0.50000000  0.72850900  0.63862600  1
  B  B1  1  0.50000000  0.27149100  0.36137400  1
  B  B2  1  0.50000000  0.22850900  0.86137400  1
  B  B3  1  0.50000000  0.77149100  0.13862600  1
  O  O0  1  0.00000000  0.60809600  0.35657900  1
  O  O1  1  0.00000000  0.39190400  0.64342100  1
  O  O2  1  0.00000000  0.10809600  0.14342100  1
  O  O3  1  0.00000000  0.89190400  0.85657900  1
  O  O4  1  0.50000000  0.87592200  0.63965500  1
  O  O5  1  0.50000000  0.12407800  0.36034500  1
  O  O6  1  0.50000000  0.37592200  0.86034500  1
  O  O7  1  0.50000000  0.62407800  0.13965500  1
  O  O8  1  0.00000000  0.38152000  0.07838500  1
  O  O9  1  0.00000000  0.61848000  0.92161500  1
  O  O10  1  0.00000000  0.88152000  0.42161500  1
  O  O11  1  0.00000000  0.11848000  0.57838500  1
  O  O12  1  0.50000000  0.65520800  0.73619600  1
  O  O13  1  0.50000000  0.34479200  0.26380400  1
  O  O14  1  0.50000000  0.15520800  0.76380400  1
  O  O15  1  0.50000000  0.84479200  0.23619600  1
  O  O16  1  0.50000000  0.65277400  0.54212300  1
  O  O17  1  0.50000000  0.34722600  0.45787700  1
  O  O18  1  0.50000000  0.15277400  0.95787700  1
  O  O19  1  0.50000000  0.84722600  0.04212300  1
loop_
_geom_bond_atom_site_label_1
_geom_bond_atom_site_label_2
_geom_bond_distance
_geom_bond_site_symmetry_2
Fe0 O0 2.009624 1_555
Fe0 O0 2.009624 1_655
Fe0 O10 2.080995 1_555
Fe0 O10 2.080995 1_655
Fe0 O15 2.095436 1_555
Fe0 O16 2.115463 1_555
Fe1 O1 2.009624 1_555
Fe1 O1 2.009624 1_655
Fe1 O11 2.080995 1_655
Fe1 O11 2.080995 1_555
Fe1 O14 2.095436 1_555
Fe1 O17 2.115463 1_555
Fe2 O2 2.009624 1_555
Fe2 O2 2.009624 1_655
Fe2 O8 2.080995 1_655
Fe2 O8 2.080995 1_555
Fe2 O13 2.095436 1_555
Fe2 O18 2.115463 1_554
Fe3 O3 2.009624 1_655
Fe3 O3 2.009624 1_555
Fe3 O9 2.080995 1_555
Fe3 O9 2.080995 1_655
Fe3 O12 2.095436 1_555
Fe3 O19 2.115463 1_556
Co0 O0 2.051149 1_555
Co0 O1 2.051149 1_555
Co0 O16 2.168742 1_455
Co0 O16 2.168742 1_555
Co0 O17 2.168742 1_455
Co0 O17 2.168742 1_555
Co1 O2 2.051149 1_555
Co1 O3 2.051149 1_544
Co1 O18 2.168742 1_554
Co1 O18 2.168742 1_454
Co1 O19 2.168742 1_545
Co1 O19 2.168742 1_445
Co2 O4 2.090929 1_545
Co2 O5 2.090929 1_555
Co2 O11 2.133544 1_655
Co2 O11 2.133544 1_555
Co2 O10 2.133544 1_545
Co2 O10 2.133544 1_645
Co3 O7 2.090929 1_555
Co3 O6 2.090929 1_554
Co3 O8 2.133544 1_655
Co3 O8 2.133544 1_555
Co3 O9 2.133544 1_654
Co3 O9 2.133544 1_554
Co4 O0 1.985778 1_555
Co4 O8 2.074429 1_555
Co4 O7 2.174198 1_555
Co4 O7 2.174198 1_455
Co4 O13 2.185618 1_555
Co4 O13 2.185618 1_455
Co5 O1 1.985778 1_555
Co5 O9 2.074429 1_555
Co5 O6 2.174198 1_455
Co5 O6 2.174198 1_555
Co5 O12 2.185618 1_555
Co5 O12 2.185618 1_455
Co6 O2 1.985778 1_565
Co6 O10 2.074429 1_555
Co6 O5 2.174198 1_565
Co6 O5 2.174198 1_465
Co6 O15 2.185618 1_455
Co6 O15 2.185618 1_555
Co7 O3 1.985778 1_545
Co7 O11 2.074429 1_555
Co7 O4 2.174198 1_545
Co7 O4 2.174198 1_445
Co7 O14 2.185618 1_555
Co7 O14 2.185618 1_455
B0 O4 1.388351 1_555
B0 O12 1.394299 1_555
B0 O16 1.394390 1_555
B1 O5 1.388351 1_555
B1 O13 1.394299 1_555
B1 O17 1.394390 1_555
B2 O6 1.388351 1_555
B2 O14 1.394299 1_555
B2 O18 1.394390 1_555
B3 O7 1.388351 1_555
B3 O15 1.394299 1_555
B3 O19 1.394390 1_555
