# generated using pymatgen
data_Tm2O3
_symmetry_space_group_name_H-M   'P 1'
_cell_length_a   8.99450822
_cell_length_b   8.99450682
_cell_length_c   8.99450773
_cell_angle_alpha   109.47122043
_cell_angle_beta   109.47121728
_cell_angle_gamma   109.47122392
_symmetry_Int_Tables_number   1
_chemical_formula_structural   Tm2O3
_chemical_formula_sum   'Tm16 O24'
_cell_volume   560.15767216
_cell_formula_units_Z   8
loop_
 _symmetry_equiv_pos_site_id
 _symmetry_equiv_pos_as_xyz
  1  'x, y, z'
loop_
 _atom_site_type_symbol
 _atom_site_label
 _atom_site_symmetry_multiplicity
 _atom_site_fract_x
 _atom_site_fract_y
 _atom_site_fract_z
 _atom_site_occupancy
  Tm  Tm0  1  0.50000000  0.50000000  0.50000000  1
  Tm  Tm1  1  0.00000000  0.00000000  0.50000000  1
  Tm  Tm2  1  0.50000000  0.00000000  0.00000000  1
  Tm  Tm3  1  0.00000000  0.50000000  0.00000000  1
  Tm  Tm4  1  0.25000000  0.21701140  0.96701140  1
  Tm  Tm5  1  0.28298860  0.53298860  0.75000000  1
  Tm  Tm6  1  0.53298860  0.75000000  0.28298860  1
  Tm  Tm7  1  0.21701140  0.96701140  0.25000000  1
  Tm  Tm8  1  0.96701140  0.25000000  0.21701140  1
  Tm  Tm9  1  0.75000000  0.28298860  0.53298860  1
  Tm  Tm10  1  0.75000000  0.78298860  0.03298860  1
  Tm  Tm11  1  0.71701140  0.46701140  0.25000000  1
  Tm  Tm12  1  0.46701140  0.25000000  0.71701140  1
  Tm  Tm13  1  0.78298860  0.03298860  0.75000000  1
  Tm  Tm14  1  0.03298860  0.75000000  0.78298860  1
  Tm  Tm15  1  0.25000000  0.71701140  0.46701140  1
  O  O0  1  0.53172806  0.77111375  0.54346560  1
  O  O1  1  0.98826147  0.95653440  0.72764816  1
  O  O2  1  0.26061531  0.77235184  0.72888625  1
  O  O3  1  0.51173853  0.23938469  0.96827194  1
  O  O4  1  0.95653440  0.72764816  0.98826147  1
  O  O5  1  0.72888625  0.26061531  0.77235184  1
  O  O6  1  0.23938469  0.96827194  0.51173853  1
  O  O7  1  0.54346560  0.53172806  0.77111375  1
  O  O8  1  0.77111375  0.54346560  0.53172806  1
  O  O9  1  0.72764816  0.98826147  0.95653440  1
  O  O10  1  0.77235184  0.72888625  0.26061531  1
  O  O11  1  0.96827194  0.51173853  0.23938469  1
  O  O12  1  0.46827194  0.22888625  0.45653440  1
  O  O13  1  0.01173853  0.04346560  0.27235184  1
  O  O14  1  0.73938469  0.22764816  0.27111375  1
  O  O15  1  0.48826147  0.76061531  0.03172806  1
  O  O16  1  0.04346560  0.27235184  0.01173853  1
  O  O17  1  0.27111375  0.73938469  0.22764816  1
  O  O18  1  0.76061531  0.03172806  0.48826147  1
  O  O19  1  0.45653440  0.46827194  0.22888625  1
  O  O20  1  0.22888625  0.45653440  0.46827194  1
  O  O21  1  0.27235184  0.01173853  0.04346560  1
  O  O22  1  0.22764816  0.27111375  0.73938469  1
  O  O23  1  0.03172806  0.48826147  0.76061531  1
loop_
_geom_bond_atom_site_label_1
_geom_bond_atom_site_label_2
_geom_bond_distance
_geom_bond_site_symmetry_2
O0 Tm13 2.200393 1_565
O0 Tm15 2.219011 1_555
O0 Tm0 2.237600 1_555
O0 Tm6 2.290791 1_555
O1 Tm14 2.200396 1_655
O1 Tm13 2.219002 1_565
O1 Tm1 2.237603 1_665
O1 Tm4 2.290794 1_665
O2 Tm15 2.200390 1_555
O2 Tm14 2.219019 1_555
O2 Tm2 2.237597 1_566
O2 Tm5 2.290787 1_555
O3 Tm12 2.200396 1_555
O3 Tm11 2.219012 1_556
O3 Tm2 2.237589 1_556
O3 Tm4 2.290802 1_555
O4 Tm10 2.200397 1_556
O4 Tm14 2.219002 1_655
O4 Tm3 2.237602 1_656
O4 Tm7 2.290794 1_656
O5 Tm12 2.200390 1_555
O5 Tm13 2.219019 1_555
O5 Tm3 2.237597 1_656
O5 Tm9 2.290788 1_555
O6 Tm15 2.200396 1_555
O6 Tm12 2.219011 1_565
O6 Tm1 2.237589 1_565
O6 Tm7 2.290802 1_555
O7 Tm10 2.200393 1_556
O7 Tm12 2.219010 1_555
O7 Tm0 2.237600 1_555
O7 Tm5 2.290791 1_555
O8 Tm14 2.200393 1_655
O8 Tm11 2.219011 1_555
O8 Tm0 2.237600 1_555
O8 Tm9 2.290791 1_555
O9 Tm13 2.200397 1_565
O9 Tm10 2.219002 1_556
O9 Tm2 2.237603 1_566
O9 Tm8 2.290794 1_566
O10 Tm11 2.200389 1_555
O10 Tm10 2.219019 1_555
O10 Tm1 2.237597 1_665
O10 Tm6 2.290788 1_555
O11 Tm11 2.200396 1_555
O11 Tm15 2.219012 1_655
O11 Tm3 2.237589 1_655
O11 Tm8 2.290802 1_555
O12 Tm7 2.200393 1_545
O12 Tm9 2.219011 1_555
O12 Tm0 2.237600 1_555
O12 Tm12 2.290791 1_555
O13 Tm8 2.200396 1_455
O13 Tm7 2.219002 1_545
O13 Tm1 2.237603 1_555
O13 Tm10 2.290794 1_445
O14 Tm9 2.200390 1_555
O14 Tm8 2.219019 1_555
O14 Tm2 2.237597 1_555
O14 Tm11 2.290787 1_555
O15 Tm6 2.200396 1_555
O15 Tm5 2.219012 1_554
O15 Tm2 2.237589 1_565
O15 Tm10 2.290802 1_555
O16 Tm4 2.200397 1_554
O16 Tm8 2.219002 1_455
O16 Tm3 2.237602 1_555
O16 Tm13 2.290794 1_454
O17 Tm6 2.200390 1_555
O17 Tm7 2.219019 1_555
O17 Tm3 2.237597 1_555
O17 Tm15 2.290788 1_555
O18 Tm9 2.200396 1_555
O18 Tm6 2.219011 1_545
O18 Tm1 2.237589 1_655
O18 Tm13 2.290802 1_555
O19 Tm4 2.200393 1_554
O19 Tm6 2.219010 1_555
O19 Tm0 2.237600 1_555
O19 Tm11 2.290791 1_555
O20 Tm8 2.200393 1_455
O20 Tm5 2.219011 1_555
O20 Tm0 2.237600 1_555
O20 Tm15 2.290791 1_555
O21 Tm7 2.200397 1_545
O21 Tm4 2.219002 1_554
O21 Tm2 2.237603 1_555
O21 Tm14 2.290794 1_544
O22 Tm5 2.200389 1_555
O22 Tm4 2.219019 1_555
O22 Tm1 2.237597 1_555
O22 Tm12 2.290788 1_555
O23 Tm5 2.200396 1_555
O23 Tm9 2.219012 1_455
O23 Tm3 2.237589 1_556
O23 Tm14 2.290802 1_555
