# generated using pymatgen
data_Sr5As3O13
_symmetry_space_group_name_H-M   'P 1'
_cell_length_a   10.07615176
_cell_length_b   10.07614476
_cell_length_c   7.43240423
_cell_angle_alpha   90.00000000
_cell_angle_beta   90.00000000
_cell_angle_gamma   119.99976669
_symmetry_Int_Tables_number   1
_chemical_formula_structural   Sr5As3O13
_chemical_formula_sum   'Sr10 As6 O26'
_cell_volume   653.50674196
_cell_formula_units_Z   2
loop_
 _symmetry_equiv_pos_site_id
 _symmetry_equiv_pos_as_xyz
  1  'x, y, z'
loop_
 _atom_site_type_symbol
 _atom_site_label
 _atom_site_symmetry_multiplicity
 _atom_site_fract_x
 _atom_site_fract_y
 _atom_site_fract_z
 _atom_site_occupancy
  Sr  Sr0  1  0.33333314  0.66666644  0.50074002  1
  Sr  Sr1  1  0.66666686  0.33333356  0.00074002  1
  Sr  Sr2  1  0.66666674  0.33333345  0.50249301  1
  Sr  Sr3  1  0.33333326  0.66666655  0.00249301  1
  Sr  Sr4  1  0.74367764  0.75400925  0.25239129  1
  Sr  Sr5  1  0.01033117  0.25632212  0.25239156  1
  Sr  Sr6  1  0.24599061  0.98966886  0.25239150  1
  Sr  Sr7  1  0.25632236  0.24599075  0.75239129  1
  Sr  Sr8  1  0.98966883  0.74367788  0.75239156  1
  Sr  Sr9  1  0.75400939  0.01033114  0.75239150  1
  As  As0  1  0.96732890  0.60032085  0.25268474  1
  As  As1  1  0.63299050  0.03267056  0.25268398  1
  As  As2  1  0.39968115  0.36700770  0.25268142  1
  As  As3  1  0.03267110  0.39967915  0.75268474  1
  As  As4  1  0.36700950  0.96732944  0.75268398  1
  As  As5  1  0.60031885  0.63299230  0.75268142  1
  O  O0  1  0.87254027  0.40515775  0.24994926  1
  O  O1  1  0.53261686  0.12746000  0.24994898  1
  O  O2  1  0.59484318  0.46738300  0.24994883  1
  O  O3  1  0.12745973  0.59484225  0.74994926  1
  O  O4  1  0.46738314  0.87254000  0.74994898  1
  O  O5  1  0.40515682  0.53261700  0.74994883  1
  O  O6  1  0.16040485  0.67537665  0.25314715  1
  O  O7  1  0.51497110  0.83959516  0.25314653  1
  O  O8  1  0.32462476  0.48502771  0.25314639  1
  O  O9  1  0.83959515  0.32462335  0.75314715  1
  O  O10  1  0.48502890  0.16040484  0.75314653  1
  O  O11  1  0.67537524  0.51497229  0.75314639  1
  O  O12  1  0.90472074  0.65214114  0.43719785  1
  O  O13  1  0.74741841  0.09527747  0.43719740  1
  O  O14  1  0.34785883  0.25258146  0.43719660  1
  O  O15  1  0.09527926  0.34785886  0.93719785  1
  O  O16  1  0.25258159  0.90472253  0.93719740  1
  O  O17  1  0.65214117  0.74741854  0.93719660  1
  O  O18  1  0.09232964  0.34267988  0.56982366  1
  O  O19  1  0.25035106  0.90767046  0.56982394  1
  O  O20  1  0.65732007  0.74965022  0.56982234  1
  O  O21  1  0.90767036  0.65732012  0.06982366  1
  O  O22  1  0.74964894  0.09232954  0.06982394  1
  O  O23  1  0.34267993  0.25034978  0.06982234  1
  O  O24  1  0.99999982  0.99999995  0.25930154  1
  O  O25  1  0.00000018  0.00000005  0.75930154  1
loop_
_geom_bond_atom_site_label_1
_geom_bond_atom_site_label_2
_geom_bond_distance
_geom_bond_site_symmetry_2
As0 O12 1.697256 1_555
As0 O21 1.698118 1_555
As0 O6 1.698674 1_655
As0 O0 1.703389 1_555
As1 O13 1.697257 1_555
As1 O22 1.698118 1_555
As1 O7 1.698670 1_545
As1 O1 1.703384 1_555
As2 O14 1.697258 1_555
As2 O23 1.698109 1_555
As2 O8 1.698672 1_555
As2 O2 1.703381 1_555
As3 O15 1.697256 1_555
As3 O18 1.698118 1_555
As3 O9 1.698674 1_455
As3 O3 1.703389 1_555
As4 O16 1.697257 1_555
As4 O19 1.698118 1_555
As4 O10 1.698670 1_565
As4 O4 1.703384 1_555
As5 O17 1.697258 1_555
As5 O20 1.698109 1_555
As5 O11 1.698672 1_555
As5 O5 1.703381 1_555
O0 Sr5 2.501842 1_655
O0 Sr1 2.599310 1_555
O0 Sr2 2.617028 1_555
O1 Sr6 2.501849 1_545
O1 Sr1 2.599311 1_555
O1 Sr2 2.617031 1_555
O2 Sr4 2.501848 1_555
O2 Sr1 2.599302 1_555
O2 Sr2 2.617025 1_555
O3 Sr8 2.501842 1_455
O3 Sr0 2.599310 1_555
O3 Sr3 2.617028 1_556
O4 Sr9 2.501849 1_565
O4 Sr0 2.599311 1_555
O4 Sr3 2.617031 1_556
O5 Sr7 2.501848 1_555
O5 Sr0 2.599302 1_555
O5 Sr3 2.617025 1_556
O6 Sr0 2.565763 1_555
O6 Sr3 2.582131 1_555
O6 Sr6 2.835787 1_555
O7 Sr0 2.565770 1_555
O7 Sr3 2.582130 1_555
O7 Sr4 2.835785 1_555
O8 Sr0 2.565774 1_555
O8 Sr3 2.582134 1_555
O8 Sr5 2.835802 1_555
O9 Sr1 2.565763 1_556
O9 Sr2 2.582131 1_555
O9 Sr9 2.835787 1_555
O10 Sr1 2.565770 1_556
O10 Sr2 2.582130 1_555
O10 Sr7 2.835785 1_555
O11 Sr1 2.565774 1_556
O11 Sr2 2.582134 1_555
O11 Sr8 2.835802 1_555
O12 Sr8 2.506368 1_555
O12 Sr4 2.690531 1_555
O12 Sr2 2.933091 1_555
O13 Sr9 2.506368 1_555
O13 Sr5 2.690549 1_655
O13 Sr2 2.933085 1_555
O14 Sr7 2.506370 1_555
O14 Sr6 2.690541 1_545
O14 Sr2 2.933094 1_555
O15 Sr5 2.506368 1_556
O15 Sr7 2.690531 1_555
O15 Sr3 2.933091 1_556
O16 Sr6 2.506368 1_556
O16 Sr8 2.690549 1_455
O16 Sr3 2.933085 1_556
O17 Sr4 2.506370 1_556
O17 Sr9 2.690541 1_565
O17 Sr3 2.933094 1_556
O18 Sr5 2.507409 1_555
O18 Sr7 2.670343 1_555
O18 Sr0 2.981677 1_555
O19 Sr6 2.507412 1_555
O19 Sr8 2.670353 1_455
O19 Sr0 2.981663 1_555
O20 Sr4 2.507401 1_555
O20 Sr9 2.670345 1_565
O20 Sr0 2.981672 1_555
O21 Sr8 2.507409 1_554
O21 Sr4 2.670343 1_555
O21 Sr1 2.981677 1_555
O22 Sr9 2.507412 1_554
O22 Sr5 2.670353 1_655
O22 Sr1 2.981663 1_555
O23 Sr7 2.507401 1_554
O23 Sr6 2.670345 1_545
O23 Sr1 2.981672 1_555
O24 Sr6 2.532815 1_655
O24 Sr5 2.532816 1_665
O24 Sr4 2.532825 1_555
O25 Sr9 2.532815 1_455
O25 Sr8 2.532816 1_445
O25 Sr7 2.532825 1_555
