# generated using pymatgen
data_Ho
_symmetry_space_group_name_H-M   'P 1'
_cell_length_a   7.13605904
_cell_length_b   7.13605904
_cell_length_c   17.41369887
_cell_angle_alpha   78.17648604
_cell_angle_beta   78.17648604
_cell_angle_gamma   60.00004598
_symmetry_Int_Tables_number   1
_chemical_formula_structural   Ho
_chemical_formula_sum   Ho24
_cell_volume   746.15647017
_cell_formula_units_Z   24
loop_
 _symmetry_equiv_pos_site_id
 _symmetry_equiv_pos_as_xyz
  1  'x, y, z'
loop_
 _atom_site_type_symbol
 _atom_site_label
 _atom_site_symmetry_multiplicity
 _atom_site_fract_x
 _atom_site_fract_y
 _atom_site_fract_z
 _atom_site_occupancy
  Ho  Ho0_0  1  0.00000000  0.00000000  0.00000000  1
  Ho  Ho0_1  1  0.00000000  0.00000000  0.50000000  1
  Ho  Ho0_2  1  1.00000000  0.50000000  0.00000000  1
  Ho  Ho0_3  1  1.00000000  0.50000000  0.50000000  1
  Ho  Ho0_4  1  0.50000000  0.00000000  0.00000000  1
  Ho  Ho0_5  1  0.50000000  0.00000000  0.50000000  1
  Ho  Ho0_6  1  0.50000000  0.50000000  0.00000000  1
  Ho  Ho0_7  1  0.50000000  0.50000000  0.50000000  1
  Ho  Ho1_0  1  0.11096623  0.11096623  0.16710279  1
  Ho  Ho1_1  1  0.11096623  0.11096624  0.66710279  1
  Ho  Ho1_2  1  0.11096623  0.61096624  0.16710279  1
  Ho  Ho1_3  1  0.11096623  0.61096623  0.66710279  1
  Ho  Ho1_4  1  0.61096624  0.11096624  0.16710279  1
  Ho  Ho1_5  1  0.61096623  0.11096623  0.66710279  1
  Ho  Ho1_6  1  0.61096623  0.61096624  0.16710279  1
  Ho  Ho1_7  1  0.61096623  0.61096624  0.66710279  1
  Ho  Ho2_0  1  0.38903376  0.38903377  0.33289721  1
  Ho  Ho2_1  1  0.38903376  0.38903377  0.83289721  1
  Ho  Ho2_2  1  0.38903376  0.88903376  0.33289721  1
  Ho  Ho2_3  1  0.38903376  0.88903376  0.83289721  1
  Ho  Ho2_4  1  0.88903376  0.38903376  0.33289721  1
  Ho  Ho2_5  1  0.88903376  0.38903377  0.83289721  1
  Ho  Ho2_6  1  0.88903376  0.88903376  0.33289721  1
  Ho  Ho2_7  1  0.88903376  0.88903377  0.83289721  1
loop_
_geom_bond_atom_site_label_1
_geom_bond_atom_site_label_2
_geom_bond_distance
_geom_bond_site_symmetry_2
Ho0_0 Ho1_2 3.498143 1_545
Ho0_0 Ho1_4 3.498143 1_455
Ho0_0 Ho2_3 3.498143 1_544
Ho0_0 Ho2_5 3.498143 1_454
Ho0_0 Ho1_0 3.498148 1_555
Ho0_0 Ho2_7 3.498148 1_444
Ho0_0 Ho0_2 3.568030 1_455
Ho0_0 Ho0_4 3.568030 1_455
Ho0_0 Ho0_4 3.568030 1_555
Ho0_0 Ho0_2 3.568030 1_445
Ho0_0 Ho0_6 3.568032 1_545
Ho0_0 Ho0_6 3.568032 1_455
Ho0_1 Ho2_2 3.498143 1_545
Ho0_1 Ho1_5 3.498143 1_455
Ho0_1 Ho1_3 3.498143 1_545
Ho0_1 Ho2_4 3.498143 1_455
Ho0_1 Ho1_1 3.498148 1_555
Ho0_1 Ho2_6 3.498148 1_445
Ho0_1 Ho0_3 3.568030 1_455
Ho0_1 Ho0_5 3.568030 1_455
Ho0_1 Ho0_5 3.568030 1_555
Ho0_1 Ho0_3 3.568030 1_445
Ho0_1 Ho0_7 3.568032 1_545
Ho0_1 Ho0_7 3.568032 1_455
Ho0_2 Ho1_6 3.498143 1_555
Ho0_2 Ho1_0 3.498143 1_655
Ho0_2 Ho2_1 3.498143 1_654
Ho0_2 Ho2_7 3.498143 1_554
Ho0_2 Ho1_2 3.498148 1_655
Ho0_2 Ho2_5 3.498148 1_554
Ho0_2 Ho0_6 3.568030 1_555
Ho0_2 Ho0_6 3.568030 1_655
Ho0_2 Ho0_4 3.568032 1_565
Ho0_2 Ho0_4 3.568032 1_655
Ho0_3 Ho1_7 3.498143 1_555
Ho0_3 Ho1_1 3.498143 1_655
Ho0_3 Ho2_6 3.498143 1_555
Ho0_3 Ho2_0 3.498143 1_655
Ho0_3 Ho1_3 3.498148 1_655
Ho0_3 Ho2_4 3.498148 1_555
Ho0_3 Ho0_7 3.568030 1_555
Ho0_3 Ho0_7 3.568030 1_655
Ho0_3 Ho0_5 3.568032 1_565
Ho0_3 Ho0_5 3.568032 1_655
Ho0_4 Ho1_6 3.498143 1_545
Ho0_4 Ho1_0 3.498143 1_555
Ho0_4 Ho2_7 3.498143 1_544
Ho0_4 Ho2_1 3.498143 1_554
Ho0_4 Ho1_4 3.498148 1_555
Ho0_4 Ho2_3 3.498148 1_544
Ho0_4 Ho0_6 3.568030 1_555
Ho0_4 Ho0_6 3.568030 1_545
Ho0_5 Ho1_1 3.498143 1_555
Ho0_5 Ho1_7 3.498143 1_545
Ho0_5 Ho2_6 3.498143 1_545
Ho0_5 Ho2_0 3.498143 1_555
Ho0_5 Ho1_5 3.498148 1_555
Ho0_5 Ho2_2 3.498148 1_545
Ho0_5 Ho0_7 3.568030 1_555
Ho0_5 Ho0_7 3.568030 1_545
Ho0_6 Ho1_4 3.498143 1_555
Ho0_6 Ho2_5 3.498143 1_554
Ho0_6 Ho1_2 3.498143 1_555
Ho0_6 Ho2_3 3.498143 1_554
Ho0_6 Ho1_6 3.498148 1_555
Ho0_6 Ho2_1 3.498148 1_554
Ho0_7 Ho1_5 3.498143 1_555
Ho0_7 Ho2_4 3.498143 1_555
Ho0_7 Ho2_2 3.498143 1_555
Ho0_7 Ho1_3 3.498143 1_555
Ho0_7 Ho1_7 3.498148 1_555
Ho0_7 Ho2_0 3.498148 1_555
Ho1_0 Ho2_2 3.480275 1_545
Ho1_0 Ho2_4 3.480275 1_455
Ho1_0 Ho2_6 3.480285 1_445
Ho1_0 Ho1_4 3.568030 1_455
Ho1_0 Ho1_2 3.568030 1_555
Ho1_0 Ho1_2 3.568030 1_545
Ho1_0 Ho1_4 3.568030 1_555
Ho1_0 Ho1_6 3.568032 1_545
Ho1_0 Ho1_6 3.568032 1_455
Ho1_1 Ho2_3 3.480275 1_545
Ho1_1 Ho2_5 3.480275 1_455
Ho1_1 Ho2_7 3.480285 1_445
Ho1_1 Ho1_3 3.568030 1_555
Ho1_1 Ho1_5 3.568030 1_555
Ho1_1 Ho1_5 3.568030 1_455
Ho1_1 Ho1_3 3.568030 1_545
Ho1_1 Ho1_7 3.568032 1_545
Ho1_1 Ho1_7 3.568032 1_455
Ho1_2 Ho2_0 3.480275 1_555
Ho1_2 Ho2_6 3.480275 1_455
Ho1_2 Ho2_4 3.480285 1_455
Ho1_2 Ho1_6 3.568030 1_455
Ho1_2 Ho1_6 3.568030 1_555
Ho1_2 Ho1_4 3.568032 1_465
Ho1_2 Ho1_4 3.568032 1_555
Ho1_3 Ho2_7 3.480275 1_455
Ho1_3 Ho2_1 3.480275 1_555
Ho1_3 Ho2_5 3.480285 1_455
Ho1_3 Ho1_7 3.568030 1_455
Ho1_3 Ho1_7 3.568030 1_555
Ho1_3 Ho1_5 3.568032 1_465
Ho1_3 Ho1_5 3.568032 1_555
Ho1_4 Ho2_6 3.480275 1_545
Ho1_4 Ho2_0 3.480275 1_555
Ho1_4 Ho2_2 3.480285 1_545
Ho1_4 Ho1_6 3.568030 1_555
Ho1_4 Ho1_6 3.568030 1_545
Ho1_5 Ho2_7 3.480275 1_545
Ho1_5 Ho2_1 3.480275 1_555
Ho1_5 Ho2_3 3.480285 1_545
Ho1_5 Ho1_7 3.568030 1_545
Ho1_5 Ho1_7 3.568030 1_555
Ho1_6 Ho2_4 3.480275 1_555
Ho1_6 Ho2_2 3.480275 1_555
Ho1_6 Ho2_0 3.480285 1_555
Ho1_7 Ho2_3 3.480275 1_555
Ho1_7 Ho2_5 3.480275 1_555
Ho1_7 Ho2_1 3.480285 1_555
Ho2_0 Ho2_2 3.568030 1_555
Ho2_0 Ho2_4 3.568030 1_555
Ho2_0 Ho2_4 3.568030 1_455
Ho2_0 Ho2_2 3.568030 1_545
Ho2_0 Ho2_6 3.568032 1_545
Ho2_0 Ho2_6 3.568032 1_455
Ho2_1 Ho2_3 3.568030 1_555
Ho2_1 Ho2_5 3.568030 1_555
Ho2_1 Ho2_5 3.568030 1_455
Ho2_1 Ho2_3 3.568030 1_545
Ho2_1 Ho2_7 3.568032 1_545
Ho2_1 Ho2_7 3.568032 1_455
Ho2_2 Ho2_6 3.568030 1_455
Ho2_2 Ho2_6 3.568030 1_555
Ho2_2 Ho2_4 3.568032 1_555
Ho2_2 Ho2_4 3.568032 1_465
Ho2_3 Ho2_7 3.568030 1_455
Ho2_3 Ho2_7 3.568030 1_555
Ho2_3 Ho2_5 3.568032 1_555
Ho2_3 Ho2_5 3.568032 1_465
Ho2_4 Ho2_6 3.568030 1_545
Ho2_4 Ho2_6 3.568030 1_555
Ho2_5 Ho2_7 3.568030 1_545
Ho2_5 Ho2_7 3.568030 1_555
