# generated using pymatgen
data_CaCd2(ClO)6
_symmetry_space_group_name_H-M   'P 1'
_cell_length_a   8.13546600
_cell_length_b   9.16937872
_cell_length_c   9.65585040
_cell_angle_alpha   102.48668608
_cell_angle_beta   89.29853147
_cell_angle_gamma   101.41789970
_symmetry_Int_Tables_number   1
_chemical_formula_structural   CaCd2(ClO)6
_chemical_formula_sum   'Ca2 Cd4 Cl12 O12'
_cell_volume   688.99183155
_cell_formula_units_Z   2
loop_
 _symmetry_equiv_pos_site_id
 _symmetry_equiv_pos_as_xyz
  1  'x, y, z'
loop_
 _atom_site_type_symbol
 _atom_site_label
 _atom_site_symmetry_multiplicity
 _atom_site_fract_x
 _atom_site_fract_y
 _atom_site_fract_z
 _atom_site_occupancy
  Ca  Ca0  1  0.67444400  0.87844800  0.14126900  1
  Ca  Ca1  1  0.32555600  0.12155200  0.85873100  1
  Cd  Cd0  1  0.13441500  0.56795500  0.69234400  1
  Cd  Cd1  1  0.86558500  0.43204500  0.30765600  1
  Cd  Cd2  1  0.65197700  0.54569000  0.68400600  1
  Cd  Cd3  1  0.34802300  0.45431000  0.31599400  1
  Cl  Cl0  1  0.23297000  0.83136900  0.88022600  1
  Cl  Cl1  1  0.76703000  0.16863100  0.11977400  1
  Cl  Cl2  1  0.69023300  0.80152500  0.87012000  1
  Cl  Cl3  1  0.30976700  0.19847500  0.12988000  1
  Cl  Cl4  1  0.91527300  0.67062100  0.53823700  1
  Cl  Cl5  1  0.08472700  0.32937900  0.46176300  1
  Cl  Cl6  1  0.40582400  0.65977800  0.55494100  1
  Cl  Cl7  1  0.59417600  0.34022200  0.44505900  1
  Cl  Cl8  1  0.12195100  0.53578000  0.17914000  1
  Cl  Cl9  1  0.87804900  0.46422000  0.82086000  1
  Cl  Cl10  1  0.63139300  0.60167300  0.20908800  1
  Cl  Cl11  1  0.36860700  0.39832700  0.79091200  1
  O  O0  1  0.00098200  0.02592900  0.76422900  1
  O  O1  1  0.99901800  0.97407100  0.23577100  1
  O  O2  1  0.55912000  0.00121900  0.71735900  1
  O  O3  1  0.44088000  0.99878100  0.28264100  1
  O  O4  1  0.22702700  0.91537900  0.44994400  1
  O  O5  1  0.77297300  0.08462100  0.55005600  1
  O  O6  1  0.69024200  0.95390300  0.52469900  1
  O  O7  1  0.30975800  0.04609700  0.47530100  1
  O  O8  1  0.99491600  0.83914100  0.17346300  1
  O  O9  1  0.00508400  0.16085900  0.82653700  1
  O  O10  1  0.35753700  0.86484600  0.25313900  1
  O  O11  1  0.64246300  0.13515400  0.74686100  1
loop_
_geom_bond_atom_site_label_1
_geom_bond_atom_site_label_2
_geom_bond_distance
_geom_bond_site_symmetry_2
Ca0 Cl2 2.568641 1_554
Ca0 O3 2.608966 1_555
Ca0 Cl1 2.670533 1_565
Ca0 Cl10 2.711700 1_555
Ca0 O1 2.714838 1_555
Ca0 O8 2.732089 1_555
Ca0 O10 2.773479 1_555
Ca1 Cl3 2.568641 1_556
Ca1 O2 2.608966 1_555
Ca1 Cl0 2.670533 1_545
Ca1 Cl11 2.711700 1_555
Ca1 O0 2.714838 1_555
Ca1 O9 2.732089 1_555
Ca1 O11 2.773479 1_555
Cd0 Cl9 2.540908 1_455
Cd0 Cl6 2.649497 1_555
Cd0 Cl0 2.672448 1_555
Cd0 Cl5 2.733465 1_555
Cd0 Cl4 2.759366 1_455
Cd0 Cl11 2.968656 1_555
Cd1 Cl8 2.540908 1_655
Cd1 Cl7 2.649497 1_555
Cd1 Cl1 2.672448 1_555
Cd1 Cl4 2.733465 1_555
Cd1 Cl5 2.759366 1_655
Cd1 Cl10 2.968656 1_555
Cd2 Cl9 2.591772 1_555
Cd2 Cl2 2.594427 1_555
Cd2 Cl7 2.624896 1_555
Cd2 Cl11 2.741820 1_555
Cd2 Cl4 2.744738 1_555
Cd2 Cl6 2.848164 1_555
Cd3 Cl8 2.591772 1_555
Cd3 Cl3 2.594427 1_555
Cd3 Cl6 2.624896 1_555
Cd3 Cl10 2.741820 1_555
Cd3 Cl5 2.744738 1_555
Cd3 Cl7 2.848164 1_555
O0 O9 1.247425 1_555
O1 O8 1.247425 1_555
O4 O7 1.227732 1_565
O5 O6 1.227732 1_545
O10 O3 1.254142 1_555
O11 O2 1.254142 1_555
