# generated using pymatgen
data_Li7Mn4CoO12
_symmetry_space_group_name_H-M   'P 1'
_cell_length_a   2.96818700
_cell_length_b   7.65461025
_cell_length_c   10.17235353
_cell_angle_alpha   107.51687089
_cell_angle_beta   88.44473214
_cell_angle_gamma   98.43054147
_symmetry_Int_Tables_number   1
_chemical_formula_structural   Li7Mn4CoO12
_chemical_formula_sum   'Li7 Mn4 Co1 O12'
_cell_volume   217.98476391
_cell_formula_units_Z   1
loop_
 _symmetry_equiv_pos_site_id
 _symmetry_equiv_pos_as_xyz
  1  'x, y, z'
loop_
 _atom_site_type_symbol
 _atom_site_label
 _atom_site_symmetry_multiplicity
 _atom_site_fract_x
 _atom_site_fract_y
 _atom_site_fract_z
 _atom_site_occupancy
  Li  Li0  1  0.81966100  0.65655000  0.75821500  1
  Li  Li1  1  0.16615800  0.33456500  0.25552100  1
  Li  Li2  1  0.50023200  0.99756500  0.74699800  1
  Li  Li3  1  0.18045400  0.34464600  0.75427500  1
  Li  Li4  1  0.48780600  0.98891600  0.24316100  1
  Li  Li5  1  0.84472300  0.67712700  0.24092000  1
  Li  Li6  1  0.33253600  0.66653400  0.00001300  1
  Mn  Mn0  1  0.00420800  0.99259800  0.00378600  1
  Mn  Mn1  1  0.66280100  0.34110000  0.99614400  1
  Mn  Mn2  1  0.32968700  0.66356100  0.49927900  1
  Mn  Mn3  1  0.00490600  0.00279600  0.49962200  1
  Co  Co0  1  0.66529800  0.33344600  0.50076100  1
  O  O0  1  0.46232400  0.86075400  0.89189200  1
  O  O1  1  0.70870900  0.49187100  0.38272300  1
  O  O2  1  0.10425400  0.17967000  0.89370400  1
  O  O3  1  0.73599100  0.48621100  0.88229700  1
  O  O4  1  0.04980400  0.17110900  0.38611800  1
  O  O5  1  0.37495900  0.82655000  0.37998900  1
  O  O6  1  0.28324900  0.50025300  0.61646600  1
  O  O7  1  0.56199800  0.15346900  0.10587300  1
  O  O8  1  0.95933100  0.83827600  0.61892000  1
  O  O9  1  0.62403200  0.17140300  0.61569900  1
  O  O10  1  0.93294700  0.84903800  0.11897800  1
  O  O11  1  0.20393300  0.47199100  0.10864700  1
loop_
_geom_bond_atom_site_label_1
_geom_bond_atom_site_label_2
_geom_bond_distance
_geom_bond_site_symmetry_2
Li0 O3 2.057591 1_555
Li0 O0 2.132057 1_555
Li0 O6 2.138483 1_555
Li0 O6 2.177259 1_655
Li0 O8 2.258355 1_555
Li0 O0 2.432714 1_655
Li1 O11 2.062467 1_555
Li1 O4 2.073304 1_555
Li1 O1 2.079464 1_555
Li1 O1 2.100931 1_455
Li1 O7 2.174757 1_555
Li1 O7 2.367212 1_455
Li2 O0 2.041419 1_555
Li2 O8 2.084465 1_455
Li2 O8 2.115558 1_555
Li2 O9 2.142292 1_565
Li2 O2 2.164376 1_565
Li2 O2 2.354712 1_665
Li3 O3 2.021641 1_455
Li3 O3 2.081422 1_555
Li3 O6 2.086232 1_555
Li3 O2 2.152800 1_555
Li3 O9 2.182904 1_555
Li3 O9 2.198229 1_455
Li4 O10 1.999481 1_555
Li4 O10 2.058206 1_455
Li4 O5 2.118516 1_555
Li4 O7 2.132199 1_565
Li4 O4 2.226666 1_565
Li4 O4 2.251884 1_665
Li5 O10 2.050076 1_555
Li5 O5 2.098917 1_655
Li5 O11 2.134024 1_655
Li5 O5 2.154118 1_555
Li5 O1 2.299233 1_555
Li5 O11 2.425898 1_555
Li6 O3 2.045744 1_554
Li6 O10 2.052570 1_455
Li6 O0 2.088454 1_554
Li6 O11 2.094154 1_555
Li6 O3 2.208581 1_454
Li6 O10 2.227429 1_555
Mn0 O10 1.821783 1_455
Mn0 O0 1.946775 1_554
Mn0 O0 1.957800 1_454
Mn0 O7 1.986893 1_465
Mn0 O7 2.015342 1_565
Mn0 O2 2.053087 1_564
Mn1 O3 1.819925 1_555
Mn1 O11 1.947792 1_556
Mn1 O11 1.957303 1_656
Mn1 O2 1.988777 1_655
Mn1 O2 2.019724 1_555
Mn1 O7 2.054053 1_556
Mn2 O1 1.954919 1_555
Mn2 O6 1.959659 1_555
Mn2 O8 1.963883 1_455
Mn2 O5 1.974950 1_555
Mn2 O1 2.236201 1_455
Mn2 O8 2.274494 1_555
Mn3 O9 1.943186 1_455
Mn3 O4 1.961514 1_555
Mn3 O5 1.970054 1_545
Mn3 O8 1.984444 1_445
Mn3 O9 2.223057 1_555
Mn3 O5 2.278755 1_445
Co0 O4 1.917786 1_655
Co0 O9 1.934224 1_555
Co0 O6 1.936240 1_555
Co0 O1 1.936815 1_555
Co0 O4 2.195299 1_555
Co0 O6 2.214884 1_655
