# generated using pymatgen
data_Nd2Ge(BO4)2
_symmetry_space_group_name_H-M   'P 1'
_cell_length_a   4.48456326
_cell_length_b   9.49397587
_cell_length_c   13.75131830
_cell_angle_alpha   90.00000000
_cell_angle_beta   90.00000000
_cell_angle_gamma   90.00000000
_symmetry_Int_Tables_number   1
_chemical_formula_structural   Nd2Ge(BO4)2
_chemical_formula_sum   'Nd8 Ge4 B8 O32'
_cell_volume   585.48073983
_cell_formula_units_Z   4
loop_
 _symmetry_equiv_pos_site_id
 _symmetry_equiv_pos_as_xyz
  1  'x, y, z'
loop_
 _atom_site_type_symbol
 _atom_site_label
 _atom_site_symmetry_multiplicity
 _atom_site_fract_x
 _atom_site_fract_y
 _atom_site_fract_z
 _atom_site_occupancy
  Nd  Nd0  1  0.45788999  0.52602902  0.64051216  1
  Nd  Nd1  1  0.04211001  0.02602902  0.85948784  1
  Nd  Nd2  1  0.04211001  0.47397098  0.14051216  1
  Nd  Nd3  1  0.45788999  0.97397098  0.35948784  1
  Nd  Nd4  1  0.54211001  0.47397098  0.35948784  1
  Nd  Nd5  1  0.95788999  0.97397098  0.14051216  1
  Nd  Nd6  1  0.95788999  0.52602902  0.85948784  1
  Nd  Nd7  1  0.54211001  0.02602902  0.64051216  1
  Ge  Ge0  1  0.92449551  0.75000000  0.50000000  1
  Ge  Ge1  1  0.57550449  0.25000000  0.00000000  1
  Ge  Ge2  1  0.07550449  0.25000000  0.50000000  1
  Ge  Ge3  1  0.42449551  0.75000000  0.00000000  1
  B  B0  1  0.53265255  0.70462262  0.20022031  1
  B  B1  1  0.96734745  0.20462262  0.29977969  1
  B  B2  1  0.96734745  0.29537738  0.70022031  1
  B  B3  1  0.53265255  0.79537738  0.79977969  1
  B  B4  1  0.46734745  0.29537738  0.79977969  1
  B  B5  1  0.03265255  0.79537738  0.70022031  1
  B  B6  1  0.03265255  0.70462262  0.29977969  1
  B  B7  1  0.46734745  0.20462262  0.20022031  1
  O  O0  1  0.53821751  0.55377075  0.19229470  1
  O  O1  1  0.96178249  0.05377075  0.30770530  1
  O  O2  1  0.96178249  0.44622925  0.69229470  1
  O  O3  1  0.53821751  0.94622925  0.80770530  1
  O  O4  1  0.46178249  0.44622925  0.80770530  1
  O  O5  1  0.03821751  0.94622925  0.69229470  1
  O  O6  1  0.03821751  0.55377075  0.30770530  1
  O  O7  1  0.46178249  0.05377075  0.19229470  1
  O  O8  1  0.65057721  0.76677432  0.10623656  1
  O  O9  1  0.84942279  0.26677432  0.39376344  1
  O  O10  1  0.84942279  0.23322568  0.60623656  1
  O  O11  1  0.65057721  0.73322568  0.89376344  1
  O  O12  1  0.34942279  0.23322568  0.89376344  1
  O  O13  1  0.15057721  0.73322568  0.60623656  1
  O  O14  1  0.15057721  0.76677432  0.39376344  1
  O  O15  1  0.34942279  0.26677432  0.10623656  1
  O  O16  1  0.22591300  0.76057827  0.21911985  1
  O  O17  1  0.27408700  0.26057827  0.28088015  1
  O  O18  1  0.27408700  0.23942173  0.71911985  1
  O  O19  1  0.22591300  0.73942173  0.78088015  1
  O  O20  1  0.77408700  0.23942173  0.78088015  1
  O  O21  1  0.72591300  0.73942173  0.71911985  1
  O  O22  1  0.72591300  0.76057827  0.28088015  1
  O  O23  1  0.77408700  0.26057827  0.21911985  1
  O  O24  1  0.70561723  0.60032881  0.49530996  1
  O  O25  1  0.79438277  0.10032881  0.00469004  1
  O  O26  1  0.79438277  0.39967119  0.99530996  1
  O  O27  1  0.70561723  0.89967119  0.50469004  1
  O  O28  1  0.29438277  0.39967119  0.50469004  1
  O  O29  1  0.20561723  0.89967119  0.99530996  1
  O  O30  1  0.20561723  0.60032881  0.00469004  1
  O  O31  1  0.29438277  0.10032881  0.49530996  1
loop_
_geom_bond_atom_site_label_1
_geom_bond_atom_site_label_2
_geom_bond_distance
_geom_bond_site_symmetry_2
Nd0 O28 2.337783 1_555
Nd0 O24 2.391379 1_555
Nd0 O4 2.420799 1_555
Nd0 O13 2.447663 1_555
Nd0 O2 2.455787 1_455
Nd0 O2 2.487459 1_555
Nd0 O21 2.591843 1_555
Nd1 O29 2.337783 1_545
Nd1 O25 2.391379 1_456
Nd1 O5 2.420799 1_545
Nd1 O12 2.447663 1_555
Nd1 O3 2.455787 1_545
Nd1 O3 2.487459 1_445
Nd1 O20 2.591843 1_455
Nd2 O30 2.337783 1_555
Nd2 O26 2.391379 1_454
Nd2 O6 2.420799 1_555
Nd2 O15 2.447663 1_555
Nd2 O0 2.455787 1_555
Nd2 O0 2.487459 1_455
Nd2 O23 2.591843 1_455
Nd3 O31 2.337783 1_565
Nd3 O27 2.391379 1_555
Nd3 O7 2.420799 1_565
Nd3 O14 2.447663 1_555
Nd3 O1 2.455787 1_465
Nd3 O1 2.487459 1_565
Nd3 O22 2.591843 1_555
Nd4 O24 2.337783 1_555
Nd4 O28 2.391379 1_555
Nd4 O0 2.420799 1_555
Nd4 O9 2.447663 1_555
Nd4 O6 2.455787 1_655
Nd4 O6 2.487459 1_555
Nd4 O17 2.591843 1_555
Nd5 O25 2.337783 1_565
Nd5 O29 2.391379 1_654
Nd5 O1 2.420799 1_565
Nd5 O8 2.447663 1_555
Nd5 O7 2.455787 1_565
Nd5 O7 2.487459 1_665
Nd5 O16 2.591843 1_655
Nd6 O26 2.337783 1_555
Nd6 O30 2.391379 1_656
Nd6 O2 2.420799 1_555
Nd6 O11 2.447663 1_555
Nd6 O4 2.455787 1_555
Nd6 O4 2.487459 1_655
Nd6 O19 2.591843 1_655
Nd7 O27 2.337783 1_545
Nd7 O31 2.391379 1_555
Nd7 O3 2.420799 1_545
Nd7 O10 2.447663 1_555
Nd7 O5 2.455787 1_645
Nd7 O5 2.487459 1_545
Nd7 O18 2.591843 1_555
Ge0 O27 1.728240 1_555
Ge0 O24 1.728240 1_555
Ge0 O14 1.785362 1_655
Ge0 O13 1.785362 1_655
Ge1 O25 1.728240 1_555
Ge1 O26 1.728240 1_554
Ge1 O15 1.785362 1_555
Ge1 O12 1.785362 1_554
Ge2 O28 1.728240 1_555
Ge2 O31 1.728240 1_555
Ge2 O9 1.785362 1_455
Ge2 O10 1.785362 1_455
Ge3 O29 1.728240 1_554
Ge3 O30 1.728240 1_555
Ge3 O8 1.785362 1_555
Ge3 O11 1.785362 1_554
B0 O0 1.436542 1_555
B0 O16 1.497337 1_555
B0 O22 1.504542 1_555
B0 O8 1.515965 1_555
B1 O1 1.436542 1_555
B1 O17 1.497337 1_655
B1 O23 1.504542 1_555
B1 O9 1.515965 1_555
B2 O2 1.436542 1_555
B2 O18 1.497337 1_655
B2 O20 1.504542 1_555
B2 O10 1.515965 1_555
B3 O3 1.436542 1_555
B3 O19 1.497337 1_555
B3 O21 1.504542 1_555
B3 O11 1.515965 1_555
B4 O4 1.436542 1_555
B4 O20 1.497337 1_555
B4 O18 1.504542 1_555
B4 O12 1.515965 1_555
B5 O5 1.436542 1_555
B5 O21 1.497337 1_455
B5 O19 1.504542 1_555
B5 O13 1.515965 1_555
B6 O6 1.436542 1_555
B6 O22 1.497337 1_455
B6 O16 1.504542 1_555
B6 O14 1.515965 1_555
B7 O7 1.436542 1_555
B7 O23 1.497337 1_555
B7 O17 1.504542 1_555
B7 O15 1.515965 1_555
