# generated using pymatgen
data_NbInRu
_symmetry_space_group_name_H-M   'P 1'
_cell_length_a   4.42807520
_cell_length_b   4.42807520
_cell_length_c   4.42807520
_cell_angle_alpha   60.00000000
_cell_angle_beta   60.00000000
_cell_angle_gamma   60.00000000
_symmetry_Int_Tables_number   1
_chemical_formula_structural   NbInRu
_chemical_formula_sum   'Nb1 In1 Ru1'
_cell_volume   61.39457038
_cell_formula_units_Z   1
loop_
 _symmetry_equiv_pos_site_id
 _symmetry_equiv_pos_as_xyz
  1  'x, y, z'
loop_
 _atom_site_type_symbol
 _atom_site_label
 _atom_site_symmetry_multiplicity
 _atom_site_fract_x
 _atom_site_fract_y
 _atom_site_fract_z
 _atom_site_occupancy
  Nb  Nb0  1  0.00000000  0.00000000  0.00000000  1
  In  In0  1  0.50000000  0.50000000  0.50000000  1
  Ru  Ru0  1  0.75000000  0.75000000  0.75000000  1
loop_
_geom_bond_atom_site_label_1
_geom_bond_atom_site_label_2
_geom_bond_distance
_geom_bond_site_symmetry_2
Nb0 Ru0 2.711631 1_454
Nb0 Ru0 2.711631 1_444
Nb0 Ru0 2.711631 1_445
Nb0 Ru0 2.711631 1_544
In0 Ru0 2.711631 1_545
In0 Ru0 2.711631 1_555
In0 Ru0 2.711631 1_554
In0 Ru0 2.711631 1_455
In0 Nb0 3.131122 1_656
In0 Nb0 3.131122 1_565
In0 Nb0 3.131122 1_665
In0 Nb0 3.131122 1_556
In0 Nb0 3.131122 1_566
In0 Nb0 3.131122 1_655
