# generated using pymatgen
data_Sr3CaNdMn5O15
_symmetry_space_group_name_H-M   'P 1'
_cell_length_a   5.50928300
_cell_length_b   9.42559426
_cell_length_c   12.10487833
_cell_angle_alpha   97.47856284
_cell_angle_beta   102.71429166
_cell_angle_gamma   105.05654348
_symmetry_Int_Tables_number   1
_chemical_formula_structural   Sr3CaNdMn5O15
_chemical_formula_sum   'Sr6 Ca2 Nd2 Mn10 O30'
_cell_volume   580.29556598
_cell_formula_units_Z   2
loop_
 _symmetry_equiv_pos_site_id
 _symmetry_equiv_pos_as_xyz
  1  'x, y, z'
loop_
 _atom_site_type_symbol
 _atom_site_label
 _atom_site_symmetry_multiplicity
 _atom_site_fract_x
 _atom_site_fract_y
 _atom_site_fract_z
 _atom_site_occupancy
  Sr  Sr0  1  0.55343100  0.95093900  0.14915900  1
  Sr  Sr1  1  0.35037100  0.14984700  0.54729400  1
  Sr  Sr2  1  0.84375700  0.64807900  0.04894000  1
  Sr  Sr3  1  0.24999600  0.25038600  0.24905100  1
  Sr  Sr4  1  0.64959500  0.85072900  0.44948500  1
  Sr  Sr5  1  0.04861500  0.44918200  0.65342700  1
  Ca  Ca0  1  0.75174100  0.74991300  0.75108800  1
  Ca  Ca1  1  0.14731500  0.34752000  0.94949900  1
  Nd  Nd0  1  0.94852300  0.55075900  0.35274400  1
  Nd  Nd1  1  0.45776200  0.05218100  0.84924700  1
  Mn  Mn0  1  0.50001900  0.50047300  0.50182900  1
  Mn  Mn1  1  0.69963900  0.30045000  0.09858000  1
  Mn  Mn2  1  0.10160100  0.90080300  0.29984700  1
  Mn  Mn3  1  0.90186800  0.10049500  0.70145800  1
  Mn  Mn4  1  0.29639700  0.69723600  0.89834700  1
  Mn  Mn5  1  0.60059000  0.40233400  0.80112300  1
  Mn  Mn6  1  0.79891400  0.19913300  0.40030700  1
  Mn  Mn7  1  0.20150900  0.79911800  0.60229400  1
  Mn  Mn8  1  0.00175300  0.00014600  0.99861700  1
  Mn  Mn9  1  0.39818800  0.59943500  0.19792400  1
  O  O0  1  0.06182400  0.93858800  0.68381000  1
  O  O1  1  0.24804100  0.73520800  0.27589700  1
  O  O2  1  0.66410500  0.34708900  0.47339400  1
  O  O3  1  0.43612500  0.52949900  0.87585900  1
  O  O4  1  0.86195000  0.14359300  0.07324300  1
  O  O5  1  0.73444200  0.25470600  0.72653900  1
  O  O6  1  0.94149300  0.05709000  0.32699400  1
  O  O7  1  0.33160600  0.65603600  0.51955300  1
  O  O8  1  0.14629200  0.86452900  0.91737600  1
  O  O9  1  0.51567300  0.44837700  0.11840000  1
  O  O10  1  0.52743600  0.48045200  0.66030500  1
  O  O11  1  0.73050500  0.28124500  0.25918800  1
  O  O12  1  0.12587300  0.87069200  0.45886200  1
  O  O13  1  0.92039000  0.08370100  0.86108100  1
  O  O14  1  0.32728700  0.67764100  0.05847200  1
  O  O15  1  0.87790500  0.12825600  0.54495000  1
  O  O16  1  0.07230100  0.92554500  0.13977600  1
  O  O17  1  0.49049800  0.52895600  0.34271000  1
  O  O18  1  0.29303400  0.72463900  0.74173100  1
  O  O19  1  0.69268600  0.32312900  0.94117200  1
  O  O20  1  0.15293700  0.35911400  0.44641900  1
  O  O21  1  0.35784400  0.14707000  0.03885200  1
  O  O22  1  0.74818800  0.73967100  0.25055500  1
  O  O23  1  0.55128700  0.94823300  0.65866000  1
  O  O24  1  0.93757000  0.55678100  0.84918200  1
  O  O25  1  0.25342000  0.24050900  0.75765800  1
  O  O26  1  0.44986600  0.04941400  0.34895400  1
  O  O27  1  0.85490900  0.65119000  0.55051400  1
  O  O28  1  0.65503000  0.85442800  0.94159200  1
  O  O29  1  0.03790000  0.45546000  0.15804300  1
loop_
_geom_bond_atom_site_label_1
_geom_bond_atom_site_label_2
_geom_bond_distance
_geom_bond_site_symmetry_2
Ca0 O18 2.451581 1_555
Ca0 O0 2.480979 1_655
Ca0 O10 2.496097 1_555
Ca0 O8 2.496341 1_655
Ca0 O24 2.601484 1_555
Ca0 O28 2.606585 1_555
Ca0 O23 2.653049 1_555
Ca0 O27 2.716223 1_555
Ca1 O9 2.422313 1_556
Ca1 O3 2.423390 1_555
Ca1 O19 2.433127 1_455
Ca1 O13 2.448467 1_455
Ca1 O25 2.654409 1_555
Ca1 O21 2.683862 1_556
Ca1 O24 2.808956 1_455
Ca1 O29 2.844460 1_556
Ca1 O4 2.937016 1_456
Ca1 O5 2.978697 1_455
Ca1 O14 3.026228 1_556
Ca1 O19 3.094642 1_555
Nd0 O17 2.452274 1_555
Nd0 O7 2.455732 1_655
Nd0 O1 2.493380 1_655
Nd0 O11 2.499119 1_555
Nd0 O29 2.606437 1_655
Nd0 O20 2.616296 1_655
Nd0 O22 2.629124 1_555
Nd0 O27 2.664668 1_555
Nd1 O13 2.457581 1_555
Nd1 O8 2.485732 1_545
Nd1 O0 2.494107 1_545
Nd1 O19 2.518826 1_555
Nd1 O21 2.578413 1_556
Nd1 O25 2.578501 1_555
Nd1 O23 2.597108 1_545
Nd1 O28 2.639134 1_545
Mn0 O2 1.926727 1_555
Mn0 O10 1.928711 1_555
Mn0 O20 1.939250 1_555
Mn0 O7 1.941499 1_555
Mn0 O17 1.970330 1_555
Mn0 O27 2.004991 1_555
Mn1 O19 1.938010 1_554
Mn1 O4 1.941424 1_555
Mn1 O9 1.944996 1_555
Mn1 O11 1.950242 1_555
Mn1 O29 1.961350 1_655
Mn1 O21 1.967969 1_555
Mn2 O6 1.932030 1_465
Mn2 O1 1.952059 1_555
Mn2 O16 1.958162 1_555
Mn2 O12 1.962685 1_555
Mn2 O26 1.970204 1_565
Mn2 O22 2.042070 1_455
Mn3 O15 1.926645 1_555
Mn3 O5 1.939254 1_555
Mn3 O13 1.941688 1_555
Mn3 O25 1.952944 1_655
Mn3 O0 1.961586 1_645
Mn3 O23 1.996105 1_545
Mn4 O18 1.943109 1_555
Mn4 O3 1.943927 1_555
Mn4 O14 1.945348 1_556
Mn4 O8 1.972343 1_555
Mn4 O24 1.982975 1_455
Mn4 O28 2.048166 1_555
Mn5 O3 1.928437 1_555
Mn5 O10 1.946454 1_555
Mn5 O5 1.947890 1_555
Mn5 O24 1.950466 1_555
Mn5 O19 1.958665 1_555
Mn5 O25 2.023374 1_555
Mn6 O6 1.934172 1_555
Mn6 O2 1.945592 1_555
Mn6 O15 1.954845 1_555
Mn6 O11 1.967588 1_555
Mn6 O26 1.977722 1_555
Mn6 O20 2.040382 1_655
Mn7 O18 1.927093 1_555
Mn7 O12 1.943126 1_555
Mn7 O7 1.949935 1_555
Mn7 O0 1.953515 1_555
Mn7 O27 1.961027 1_455
Mn7 O23 1.979610 1_555
Mn8 O16 1.930703 1_546
Mn8 O4 1.940804 1_456
Mn8 O8 1.944607 1_545
Mn8 O13 1.946573 1_455
Mn8 O28 1.954863 1_445
Mn8 O21 1.999009 1_556
Mn9 O14 1.930991 1_555
Mn9 O9 1.941421 1_555
Mn9 O22 1.946033 1_555
Mn9 O1 1.947332 1_555
Mn9 O17 1.964144 1_555
Mn9 O29 2.005687 1_555
O0 Sr4 3.076532 1_455
O0 Sr1 3.096974 1_565
O1 Sr4 2.569392 1_555
O1 Sr2 2.991960 1_455
O1 Sr0 3.080556 1_555
O2 Sr5 2.554541 1_655
O2 Sr1 2.586138 1_555
O2 Sr3 2.993095 1_555
O3 Sr2 2.587943 1_556
O3 Sr5 2.912042 1_555
O4 Sr3 2.536590 1_655
O4 Sr0 2.559159 1_545
O5 Sr1 2.548770 1_555
O5 Sr5 2.566595 1_655
O6 Sr0 2.551082 1_545
O6 Sr3 2.577373 1_655
O6 Sr1 2.945454 1_655
O6 Sr4 2.956889 1_545
O7 Sr4 2.558326 1_555
O7 Sr5 3.035384 1_555
O8 Sr0 3.041776 1_556
O8 Sr2 3.118353 1_456
O9 Sr2 2.613510 1_555
O9 Sr3 2.914498 1_555
O10 Sr5 2.558442 1_555
O10 Sr5 2.979400 1_655
O10 Sr1 3.042529 1_555
O11 Sr3 2.560336 1_555
O11 Sr3 2.978025 1_655
O11 Sr0 3.031360 1_545
O12 Sr4 2.557387 1_455
O12 Sr1 2.567508 1_565
O12 Sr4 2.965485 1_555
O14 Sr0 2.527351 1_555
O14 Sr2 2.580315 1_455
O14 Sr2 2.955537 1_555
O15 Sr1 2.551144 1_655
O15 Sr4 2.573728 1_545
O15 Sr5 2.950130 1_655
O15 Sr1 2.971714 1_555
O16 Sr2 2.562282 1_455
O16 Sr0 2.574311 1_555
O16 Sr0 2.955185 1_455
O16 Sr3 2.983495 1_565
O17 Sr3 2.586804 1_555
O17 Sr4 2.955855 1_555
O18 Sr5 2.554294 1_555
O19 Sr2 2.988828 1_556
O20 Sr3 2.693282 1_555
O20 Sr5 2.768353 1_555
O20 Sr1 2.778812 1_555
O21 Sr0 2.721337 1_545
O21 Sr3 2.845447 1_555
O22 Sr2 2.689239 1_555
O22 Sr4 2.721098 1_555
O22 Sr0 2.791011 1_555
O23 Sr1 2.785081 1_565
O23 Sr4 2.793865 1_555
O24 Sr2 2.663480 1_556
O24 Sr5 2.711584 1_655
O25 Sr1 2.787336 1_555
O25 Sr5 2.811750 1_555
O26 Sr1 2.686648 1_555
O26 Sr4 2.696888 1_545
O26 Sr0 2.708210 1_545
O26 Sr3 2.712399 1_555
O27 Sr5 2.721049 1_655
O27 Sr4 2.721667 1_555
O28 Sr2 2.768813 1_556
O28 Sr0 2.782529 1_556
O29 Sr2 2.682480 1_455
O29 Sr3 2.734303 1_555
