# generated using pymatgen
data_AlFe3B
_symmetry_space_group_name_H-M   'P 1'
_cell_length_a   3.82232200
_cell_length_b   3.82232200
_cell_length_c   3.82232200
_cell_angle_alpha   90.00000000
_cell_angle_beta   90.00000000
_cell_angle_gamma   90.00000000
_symmetry_Int_Tables_number   1
_chemical_formula_structural   AlFe3B
_chemical_formula_sum   'Al1 Fe3 B1'
_cell_volume   55.84468046
_cell_formula_units_Z   1
loop_
 _symmetry_equiv_pos_site_id
 _symmetry_equiv_pos_as_xyz
  1  'x, y, z'
loop_
 _atom_site_type_symbol
 _atom_site_label
 _atom_site_symmetry_multiplicity
 _atom_site_fract_x
 _atom_site_fract_y
 _atom_site_fract_z
 _atom_site_occupancy
  Al  Al0  1  0.50000000  0.50000000  0.50000000  1
  Fe  Fe0  1  0.50000000  0.00000000  0.00000000  1
  Fe  Fe1  1  0.00000000  0.50000000  0.00000000  1
  Fe  Fe2  1  0.00000000  0.00000000  0.50000000  1
  B  B0  1  0.00000000  0.00000000  0.00000000  1
loop_
_geom_bond_atom_site_label_1
_geom_bond_atom_site_label_2
_geom_bond_distance
_geom_bond_site_symmetry_2
Al0 Fe1 2.702790 1_555
Al0 Fe1 2.702790 1_556
Al0 Fe1 2.702790 1_656
Al0 Fe0 2.702790 1_566
Al0 Fe1 2.702790 1_655
Al0 Fe2 2.702790 1_555
Al0 Fe2 2.702790 1_565
Al0 Fe0 2.702790 1_556
Al0 Fe2 2.702790 1_655
Al0 Fe2 2.702790 1_665
Al0 Fe0 2.702790 1_555
Al0 Fe0 2.702790 1_565
B0 Fe2 1.911161 1_554
B0 Fe1 1.911161 1_555
B0 Fe0 1.911161 1_455
B0 Fe2 1.911161 1_555
B0 Fe1 1.911161 1_545
B0 Fe0 1.911161 1_555
