# generated using pymatgen
data_Lu12In2Fe3
_symmetry_space_group_name_H-M   'P 1'
_cell_length_a   8.15749244
_cell_length_b   8.15748797
_cell_length_c   8.15752811
_cell_angle_alpha   108.89905187
_cell_angle_beta   108.89905825
_cell_angle_gamma   110.62113047
_symmetry_Int_Tables_number   1
_chemical_formula_structural   Lu12In2Fe3
_chemical_formula_sum   'Lu12 In2 Fe3'
_cell_volume   417.75470690
_cell_formula_units_Z   1
loop_
 _symmetry_equiv_pos_site_id
 _symmetry_equiv_pos_as_xyz
  1  'x, y, z'
loop_
 _atom_site_type_symbol
 _atom_site_label
 _atom_site_symmetry_multiplicity
 _atom_site_fract_x
 _atom_site_fract_y
 _atom_site_fract_z
 _atom_site_occupancy
  Lu  Lu0  1  0.30954223  0.30954045  0.61908235  1
  Lu  Lu1  1  0.69046410  0.69046267  0.38092777  1
  Lu  Lu2  1  0.69046304  0.30953880  0.00000322  1
  Lu  Lu3  1  0.30954133  0.69046267  0.00000358  1
  Lu  Lu4  1  0.18899951  0.42758507  0.23858637  1
  Lu  Lu5  1  0.81100271  0.57241359  0.76141526  1
  Lu  Lu6  1  0.18899859  0.95041137  0.76141587  1
  Lu  Lu7  1  0.95041191  0.18899897  0.76141400  1
  Lu  Lu8  1  0.81100180  0.04958648  0.23858620  1
  Lu  Lu9  1  0.04958748  0.81100024  0.23858487  1
  Lu  Lu10  1  0.42758369  0.18899677  0.23858514  1
  Lu  Lu11  1  0.57241401  0.81099924  0.76141482  1
  In  In0  1  -0.00000436  0.50001227  0.50000210  1
  In  In1  1  0.49999662  0.00000737  0.50000266  1
  Fe  Fe0  1  0.37697047  0.37697126  0.00000868  1
  Fe  Fe1  1  0.62304014  0.62303999  0.00000331  1
  Fe  Fe2  1  -0.00001328  -0.00002720  -0.00003819  1
loop_
_geom_bond_atom_site_label_1
_geom_bond_atom_site_label_2
_geom_bond_distance
_geom_bond_site_symmetry_2
In0 Lu6 3.037811 1_555
In0 Lu5 3.037832 1_455
In0 Lu4 3.037952 1_555
In0 Lu8 3.037999 1_455
In0 Lu1 3.447420 1_455
In0 Lu2 3.447543 1_455
In0 Lu3 3.447617 1_556
In0 Lu0 3.447668 1_555
In0 Lu9 3.806259 1_555
In0 Lu10 3.806327 1_455
In0 Lu11 3.806359 1_555
In0 Lu7 3.806388 1_455
In1 Lu10 3.037851 1_555
In1 Lu9 3.037878 1_545
In1 Lu7 3.037929 1_555
In1 Lu11 3.037944 1_545
In1 Lu0 3.447465 1_555
In1 Lu2 3.447563 1_556
In1 Lu3 3.447591 1_545
In1 Lu1 3.447618 1_545
In1 Lu5 3.806285 1_555
In1 Lu6 3.806302 1_545
In1 Lu8 3.806364 1_555
In1 Lu4 3.806386 1_545
Fe0 Fe1 2.284854 1_555
Fe0 Lu3 2.798788 1_555
Fe0 Lu1 2.798812 1_555
Fe0 Lu2 2.798813 1_555
Fe0 Lu0 2.798844 1_554
Fe0 Lu4 2.857974 1_555
Fe0 Lu10 2.857988 1_555
Fe0 Lu7 2.858062 1_454
Fe0 Lu6 2.858068 1_544
Fe1 Lu3 2.798812 1_555
Fe1 Lu2 2.798830 1_555
Fe1 Lu0 2.798843 1_554
Fe1 Lu1 2.798853 1_555
Fe1 Lu11 2.857979 1_554
Fe1 Lu8 2.857979 1_565
Fe1 Lu9 2.857987 1_655
Fe1 Lu5 2.857999 1_554
Fe2 Lu6 2.863667 1_544
Fe2 Lu5 2.863690 1_444
Fe2 Lu7 2.863785 1_454
Fe2 Lu11 2.863790 1_444
Fe2 Lu9 2.863951 1_545
Fe2 Lu10 2.863974 1_555
Fe2 Lu8 2.864054 1_455
Fe2 Lu4 2.864084 1_555
