# generated using pymatgen
data_Cs(CrS2)2
_symmetry_space_group_name_H-M   'P 1'
_cell_length_a   3.59491900
_cell_length_b   12.06907300
_cell_length_c   13.28791700
_cell_angle_alpha   90.00000000
_cell_angle_beta   90.00000000
_cell_angle_gamma   90.00000000
_symmetry_Int_Tables_number   1
_chemical_formula_structural   Cs(CrS2)2
_chemical_formula_sum   'Cs4 Cr8 S16'
_cell_volume   576.52737065
_cell_formula_units_Z   4
loop_
 _symmetry_equiv_pos_site_id
 _symmetry_equiv_pos_as_xyz
  1  'x, y, z'
loop_
 _atom_site_type_symbol
 _atom_site_label
 _atom_site_symmetry_multiplicity
 _atom_site_fract_x
 _atom_site_fract_y
 _atom_site_fract_z
 _atom_site_occupancy
  Cs  Cs0  1  0.25000000  0.24324100  0.33744000  1
  Cs  Cs1  1  0.75000000  0.75675900  0.66256000  1
  Cs  Cs2  1  0.75000000  0.25675900  0.83744000  1
  Cs  Cs3  1  0.25000000  0.74324100  0.16256000  1
  Cr  Cr0  1  0.25000000  0.07199100  0.10107500  1
  Cr  Cr1  1  0.75000000  0.92800900  0.89892500  1
  Cr  Cr2  1  0.75000000  0.42800900  0.60107500  1
  Cr  Cr3  1  0.25000000  0.57199100  0.39892500  1
  Cr  Cr4  1  0.25000000  0.06920400  0.60398400  1
  Cr  Cr5  1  0.75000000  0.93079600  0.39601600  1
  Cr  Cr6  1  0.75000000  0.43079600  0.10398400  1
  Cr  Cr7  1  0.25000000  0.56920400  0.89601600  1
  S  S0  1  0.75000000  0.02089300  0.71477900  1
  S  S1  1  0.25000000  0.97910700  0.28522100  1
  S  S2  1  0.25000000  0.47910700  0.21477900  1
  S  S3  1  0.75000000  0.52089300  0.78522100  1
  S  S4  1  0.25000000  0.05445300  0.92533700  1
  S  S5  1  0.75000000  0.94554700  0.07466300  1
  S  S6  1  0.75000000  0.44554700  0.42533700  1
  S  S7  1  0.25000000  0.55445300  0.57466300  1
  S  S8  1  0.75000000  0.09895800  0.49106200  1
  S  S9  1  0.25000000  0.90104200  0.50893800  1
  S  S10  1  0.25000000  0.40104200  0.99106200  1
  S  S11  1  0.75000000  0.59895800  0.00893800  1
  S  S12  1  0.75000000  0.20390900  0.12265500  1
  S  S13  1  0.25000000  0.79609100  0.87734500  1
  S  S14  1  0.25000000  0.29609100  0.62265500  1
  S  S15  1  0.75000000  0.70390900  0.37734500  1
loop_
_geom_bond_atom_site_label_1
_geom_bond_atom_site_label_2
_geom_bond_distance
_geom_bond_site_symmetry_2
Cs0 S8 3.229578 1_455
Cs0 S8 3.229578 1_555
Cs0 S6 3.249099 1_555
Cs0 S6 3.249099 1_455
Cs0 S1 3.262495 1_545
Cs0 S2 3.280276 1_555
Cs0 S12 3.406138 1_555
Cs0 S12 3.406138 1_455
Cs1 S9 3.229578 1_655
Cs1 S9 3.229578 1_555
Cs1 S7 3.249099 1_655
Cs1 S7 3.249099 1_555
Cs1 S0 3.262495 1_565
Cs1 S3 3.280276 1_555
Cs1 S13 3.406138 1_655
Cs1 S13 3.406138 1_555
Cs2 S10 3.229578 1_555
Cs2 S10 3.229578 1_655
Cs2 S4 3.249099 1_555
Cs2 S4 3.249099 1_655
Cs2 S3 3.262495 1_555
Cs2 S0 3.280276 1_555
Cs2 S14 3.406138 1_555
Cs2 S14 3.406138 1_655
Cs3 S11 3.229578 1_555
Cs3 S11 3.229578 1_455
Cs3 S5 3.249099 1_455
Cs3 S5 3.249099 1_555
Cs3 S2 3.262495 1_555
Cs3 S1 3.280276 1_555
Cs3 S15 3.406138 1_455
Cs3 S15 3.406138 1_555
Cr0 S4 2.344765 1_554
Cr0 S5 2.383883 1_545
Cr0 S5 2.383883 1_445
Cr0 S12 2.418255 1_555
Cr0 S12 2.418255 1_455
Cr0 S1 2.691486 1_545
Cr1 S5 2.344765 1_556
Cr1 S4 2.383883 1_665
Cr1 S4 2.383883 1_565
Cr1 S13 2.418255 1_555
Cr1 S13 2.418255 1_655
Cr1 S0 2.691486 1_565
Cr2 S6 2.344765 1_555
Cr2 S7 2.383883 1_655
Cr2 S7 2.383883 1_555
Cr2 S14 2.418255 1_555
Cr2 S14 2.418255 1_655
Cr2 S3 2.691486 1_555
Cr3 S7 2.344765 1_555
Cr3 S6 2.383883 1_455
Cr3 S6 2.383883 1_555
Cr3 S15 2.418255 1_455
Cr3 S15 2.418255 1_555
Cr3 S2 2.691486 1_555
Cr4 S8 2.368820 1_455
Cr4 S8 2.368820 1_555
Cr4 S9 2.390437 1_545
Cr4 S0 2.395476 1_555
Cr4 S0 2.395476 1_455
Cr4 S14 2.749532 1_555
Cr5 S9 2.368820 1_555
Cr5 S9 2.368820 1_655
Cr5 S8 2.390437 1_565
Cr5 S1 2.395476 1_555
Cr5 S1 2.395476 1_655
Cr5 S15 2.749532 1_555
Cr6 S10 2.368820 1_654
Cr6 S10 2.368820 1_554
Cr6 S11 2.390437 1_555
Cr6 S2 2.395476 1_555
Cr6 S2 2.395476 1_655
Cr6 S12 2.749532 1_555
Cr7 S11 2.368820 1_456
Cr7 S11 2.368820 1_556
Cr7 S10 2.390437 1_555
Cr7 S3 2.395476 1_555
Cr7 S3 2.395476 1_455
Cr7 S13 2.749532 1_555
