# generated using pymatgen
data_Ca(BH4)2
_symmetry_space_group_name_H-M   'P 1'
_cell_length_a   6.97886800
_cell_length_b   6.97886800
_cell_length_c   4.36195500
_cell_angle_alpha   90.00000000
_cell_angle_beta   90.00000000
_cell_angle_gamma   90.00000000
_symmetry_Int_Tables_number   1
_chemical_formula_structural   Ca(BH4)2
_chemical_formula_sum   'Ca2 B4 H16'
_cell_volume   212.44726722
_cell_formula_units_Z   2
loop_
 _symmetry_equiv_pos_site_id
 _symmetry_equiv_pos_as_xyz
  1  'x, y, z'
loop_
 _atom_site_type_symbol
 _atom_site_label
 _atom_site_symmetry_multiplicity
 _atom_site_fract_x
 _atom_site_fract_y
 _atom_site_fract_z
 _atom_site_occupancy
  Ca  Ca0  1  0.00000000  0.50000000  0.50000000  1
  Ca  Ca1  1  0.50000000  0.00000000  0.00000000  1
  B  B0  1  0.79838400  0.68363000  0.00000000  1
  B  B1  1  0.20161600  0.31637000  0.00000000  1
  B  B2  1  0.31637000  0.79838400  0.50000000  1
  B  B3  1  0.68363000  0.20161600  0.50000000  1
  H  H0  1  0.62317800  0.69511300  0.00000000  1
  H  H1  1  0.37682200  0.30488700  0.00000000  1
  H  H2  1  0.30488700  0.62317800  0.50000000  1
  H  H3  1  0.69511300  0.37682200  0.50000000  1
  H  H4  1  0.86635300  0.76110900  0.77310700  1
  H  H5  1  0.13364700  0.23889100  0.77310700  1
  H  H6  1  0.23889100  0.86635300  0.27310700  1
  H  H7  1  0.76110900  0.13364700  0.27310700  1
  H  H8  1  0.86635300  0.76110900  0.22689300  1
  H  H9  1  0.13364700  0.23889100  0.22689300  1
  H  H10  1  0.23889100  0.86635300  0.72689300  1
  H  H11  1  0.76110900  0.13364700  0.72689300  1
  H  H12  1  0.82860000  0.50994000  0.00000000  1
  H  H13  1  0.17140000  0.49006000  0.00000000  1
  H  H14  1  0.49006000  0.82860000  0.50000000  1
  H  H15  1  0.50994000  0.17140000  0.50000000  1
loop_
_geom_bond_atom_site_label_1
_geom_bond_atom_site_label_2
_geom_bond_distance
_geom_bond_site_symmetry_2
Ca0 H2 2.294858 1_555
Ca0 H3 2.294858 1_455
Ca0 H4 2.368473 1_455
Ca0 H8 2.368473 1_455
Ca0 H5 2.368473 1_555
Ca0 H9 2.368473 1_555
Ca0 H13 2.488437 1_556
Ca0 H12 2.488437 1_456
Ca0 H13 2.488437 1_555
Ca0 H12 2.488437 1_455
Ca1 H1 2.294858 1_555
Ca1 H0 2.294858 1_545
Ca1 H11 2.368473 1_554
Ca1 H7 2.368473 1_555
Ca1 H6 2.368473 1_545
Ca1 H10 2.368473 1_544
Ca1 H14 2.488437 1_544
Ca1 H14 2.488437 1_545
Ca1 H15 2.488437 1_555
Ca1 H15 2.488437 1_554
B0 H8 1.223470 1_555
B0 H4 1.223470 1_554
B0 H0 1.225363 1_555
B0 H12 1.230365 1_555
B1 H9 1.223470 1_555
B1 H5 1.223470 1_554
B1 H1 1.225363 1_555
B1 H13 1.230365 1_555
B2 H6 1.223470 1_555
B2 H10 1.223470 1_555
B2 H2 1.225363 1_555
B2 H14 1.230365 1_555
B3 H11 1.223470 1_555
B3 H7 1.223470 1_555
B3 H3 1.225363 1_555
B3 H15 1.230365 1_555
