# generated using pymatgen
data_Sr3La2(BO3)4
_symmetry_space_group_name_H-M   'P 1'
_cell_length_a   7.44139900
_cell_length_b   8.94730100
_cell_length_c   16.83569800
_cell_angle_alpha   90.00000000
_cell_angle_beta   90.00000000
_cell_angle_gamma   90.00000000
_symmetry_Int_Tables_number   1
_chemical_formula_structural   Sr3La2(BO3)4
_chemical_formula_sum   'Sr12 La8 B16 O48'
_cell_volume   1120.92812523
_cell_formula_units_Z   4
loop_
 _symmetry_equiv_pos_site_id
 _symmetry_equiv_pos_as_xyz
  1  'x, y, z'
loop_
 _atom_site_type_symbol
 _atom_site_label
 _atom_site_symmetry_multiplicity
 _atom_site_fract_x
 _atom_site_fract_y
 _atom_site_fract_z
 _atom_site_occupancy
  Sr  Sr0  1  0.68159900  0.34849700  0.92458100  1
  Sr  Sr1  1  0.31840100  0.65150300  0.42458100  1
  Sr  Sr2  1  0.81840100  0.84849700  0.42458100  1
  Sr  Sr3  1  0.18159900  0.15150300  0.92458100  1
  Sr  Sr4  1  0.96603700  0.32549500  0.71909800  1
  Sr  Sr5  1  0.03396300  0.67450500  0.21909800  1
  Sr  Sr6  1  0.53396300  0.82549500  0.21909800  1
  Sr  Sr7  1  0.46603700  0.17450500  0.71909800  1
  Sr  Sr8  1  0.69144700  0.35252400  0.17295700  1
  Sr  Sr9  1  0.30855300  0.64747600  0.67295700  1
  Sr  Sr10  1  0.80855300  0.85252400  0.67295700  1
  Sr  Sr11  1  0.19144700  0.14747600  0.17295700  1
  La  La0  1  0.96793000  0.33115300  0.38002700  1
  La  La1  1  0.03207000  0.66884700  0.88002700  1
  La  La2  1  0.53207000  0.83115300  0.88002700  1
  La  La3  1  0.46793000  0.16884700  0.38002700  1
  La  La4  1  0.68291200  0.46661200  0.55229600  1
  La  La5  1  0.31708800  0.53338800  0.05229600  1
  La  La6  1  0.81708800  0.96661200  0.05229600  1
  La  La7  1  0.18291200  0.03338800  0.55229600  1
  B  B0  1  0.98399800  0.37089000  0.04722400  1
  B  B1  1  0.01600200  0.62911000  0.54722400  1
  B  B2  1  0.51600200  0.87089000  0.54722400  1
  B  B3  1  0.48399800  0.12911000  0.04722400  1
  B  B4  1  0.27799200  0.35638700  0.54943800  1
  B  B5  1  0.72200800  0.64361300  0.04943800  1
  B  B6  1  0.22200800  0.85638700  0.04943800  1
  B  B7  1  0.77799200  0.14361300  0.54943800  1
  B  B8  1  0.33651300  0.43984700  0.25839800  1
  B  B9  1  0.66348700  0.56015300  0.75839800  1
  B  B10  1  0.16348700  0.93984700  0.75839800  1
  B  B11  1  0.83651300  0.06015300  0.25839800  1
  B  B12  1  0.32819100  0.45066800  0.84241900  1
  B  B13  1  0.67180900  0.54933200  0.34241900  1
  B  B14  1  0.17180900  0.95066800  0.34241900  1
  B  B15  1  0.82819100  0.04933200  0.84241900  1
  O  O0  1  0.38263300  0.25934100  0.04464600  1
  O  O1  1  0.61736700  0.74065900  0.54464600  1
  O  O2  1  0.11736700  0.75934100  0.54464600  1
  O  O3  1  0.88263300  0.24065900  0.04464600  1
  O  O4  1  0.04561300  0.42741600  0.11920600  1
  O  O5  1  0.95438700  0.57258400  0.61920600  1
  O  O6  1  0.45438700  0.92741600  0.61920600  1
  O  O7  1  0.54561300  0.07258400  0.11920600  1
  O  O8  1  0.03745300  0.44234700  0.97668300  1
  O  O9  1  0.96254700  0.55765300  0.47668300  1
  O  O10  1  0.46254700  0.94234700  0.47668300  1
  O  O11  1  0.53745300  0.05765300  0.97668300  1
  O  O12  1  0.23516400  0.28196200  0.61856100  1
  O  O13  1  0.76483600  0.71803800  0.11856100  1
  O  O14  1  0.26483600  0.78196200  0.11856100  1
  O  O15  1  0.73516400  0.21803800  0.61856100  1
  O  O16  1  0.24719900  0.28154200  0.47795900  1
  O  O17  1  0.75280100  0.71845800  0.97795900  1
  O  O18  1  0.25280100  0.78154200  0.97795900  1
  O  O19  1  0.74719900  0.21845800  0.47795900  1
  O  O20  1  0.63890600  0.50621200  0.04949700  1
  O  O21  1  0.36109400  0.49378800  0.54949700  1
  O  O22  1  0.86109400  0.00621200  0.54949700  1
  O  O23  1  0.13890600  0.99378800  0.04949700  1
  O  O24  1  0.20727000  0.47454400  0.31530700  1
  O  O25  1  0.79273000  0.52545600  0.81530700  1
  O  O26  1  0.29273000  0.97454400  0.81530700  1
  O  O27  1  0.70727000  0.02545600  0.31530700  1
  O  O28  1  0.41239500  0.29677400  0.25812600  1
  O  O29  1  0.58760500  0.70322600  0.75812600  1
  O  O30  1  0.08760500  0.79677400  0.75812600  1
  O  O31  1  0.91239500  0.20322600  0.25812600  1
  O  O32  1  0.61274100  0.46032300  0.70011000  1
  O  O33  1  0.38725900  0.53967700  0.20011000  1
  O  O34  1  0.88725900  0.96032300  0.20011000  1
  O  O35  1  0.11274100  0.03967700  0.70011000  1
  O  O36  1  0.80647900  0.51092200  0.28890400  1
  O  O37  1  0.19352100  0.48907800  0.78890400  1
  O  O38  1  0.69352100  0.01092200  0.78890400  1
  O  O39  1  0.30647900  0.98907800  0.28890400  1
  O  O40  1  0.39853400  0.30840300  0.84540800  1
  O  O41  1  0.60146600  0.69159700  0.34540800  1
  O  O42  1  0.10146600  0.80840300  0.34540800  1
  O  O43  1  0.89853400  0.19159700  0.84540800  1
  O  O44  1  0.61816200  0.44012700  0.39715500  1
  O  O45  1  0.38183800  0.55987300  0.89715500  1
  O  O46  1  0.88183800  0.94012700  0.89715500  1
  O  O47  1  0.11816200  0.05987300  0.39715500  1
loop_
_geom_bond_atom_site_label_1
_geom_bond_atom_site_label_2
_geom_bond_distance
_geom_bond_site_symmetry_2
La0 O31 2.385955 1_555
La0 O24 2.450568 1_655
La0 O36 2.526665 1_555
La0 O19 2.536346 1_555
La0 O9 2.599342 1_555
La0 O47 2.687815 1_655
La0 O16 2.689635 1_655
La0 O44 2.794316 1_555
La1 O30 2.385955 1_555
La1 O25 2.450568 1_455
La1 O37 2.526665 1_555
La1 O18 2.536346 1_555
La1 O8 2.599342 1_555
La1 O46 2.687815 1_455
La1 O17 2.689635 1_455
La1 O45 2.794316 1_555
La2 O29 2.385955 1_555
La2 O26 2.450568 1_555
La2 O38 2.526665 1_565
La2 O17 2.536346 1_555
La2 O11 2.599342 1_565
La2 O45 2.687815 1_555
La2 O18 2.689635 1_555
La2 O46 2.794316 1_555
La3 O28 2.385955 1_555
La3 O27 2.450568 1_555
La3 O39 2.526665 1_545
La3 O16 2.536346 1_555
La3 O10 2.599342 1_545
La3 O44 2.687815 1_555
La3 O19 2.689635 1_555
La3 O47 2.794316 1_555
La4 O21 2.407550 1_555
La4 O5 2.499797 1_555
La4 O1 2.503337 1_555
La4 O15 2.518385 1_555
La4 O32 2.543368 1_555
La4 O9 2.571788 1_555
La4 O19 2.593244 1_555
La4 O44 2.666528 1_555
La5 O20 2.407550 1_555
La5 O4 2.499797 1_555
La5 O0 2.503337 1_555
La5 O14 2.518385 1_555
La5 O33 2.543368 1_555
La5 O8 2.571788 1_554
La5 O18 2.593244 1_554
La5 O45 2.666528 1_554
La6 O23 2.407550 1_655
La6 O7 2.499797 1_565
La6 O3 2.503337 1_565
La6 O13 2.518385 1_555
La6 O34 2.543368 1_555
La6 O11 2.571788 1_564
La6 O17 2.593244 1_554
La6 O46 2.666528 1_554
La7 O22 2.407550 1_455
La7 O6 2.499797 1_545
La7 O2 2.503337 1_545
La7 O12 2.518385 1_555
La7 O35 2.543368 1_555
La7 O10 2.571788 1_545
La7 O16 2.593244 1_555
La7 O47 2.666528 1_555
B0 O3 1.388732 1_555
B0 O4 1.390911 1_655
B0 O8 1.406202 1_654
B1 O2 1.388732 1_555
B1 O5 1.390911 1_455
B1 O9 1.406202 1_455
B2 O1 1.388732 1_555
B2 O6 1.390911 1_555
B2 O10 1.406202 1_555
B3 O0 1.388732 1_555
B3 O7 1.390911 1_555
B3 O11 1.406202 1_554
B4 O21 1.376139 1_555
B4 O12 1.378141 1_555
B4 O16 1.396109 1_555
B5 O20 1.376139 1_555
B5 O13 1.378141 1_555
B5 O17 1.396109 1_554
B6 O23 1.376139 1_555
B6 O14 1.378141 1_555
B6 O18 1.396109 1_554
B7 O22 1.376139 1_555
B7 O15 1.378141 1_555
B7 O19 1.396109 1_555
B8 O33 1.379640 1_555
B8 O24 1.392587 1_555
B8 O28 1.399132 1_555
B9 O32 1.379640 1_555
B9 O25 1.392587 1_555
B9 O29 1.399132 1_555
B10 O35 1.379640 1_565
B10 O26 1.392587 1_555
B10 O30 1.399132 1_555
B11 O34 1.379640 1_545
B11 O27 1.392587 1_555
B11 O31 1.399132 1_555
B12 O40 1.377235 1_555
B12 O37 1.390723 1_555
B12 O45 1.401167 1_555
B13 O41 1.377235 1_555
B13 O36 1.390723 1_555
B13 O44 1.401167 1_555
B14 O42 1.377235 1_555
B14 O39 1.390723 1_555
B14 O47 1.401167 1_565
B15 O43 1.377235 1_555
B15 O38 1.390723 1_555
B15 O46 1.401167 1_545
O0 Sr3 2.693485 1_554
O0 Sr11 2.773503 1_555
O0 Sr0 3.109937 1_554
O1 Sr2 2.693485 1_555
O1 Sr10 2.773503 1_555
O1 Sr1 3.109937 1_555
O2 Sr1 2.693485 1_555
O2 Sr9 2.773503 1_555
O2 Sr2 3.109937 1_455
O3 Sr0 2.693485 1_554
O3 Sr8 2.773503 1_555
O3 Sr3 3.109937 1_654
O4 Sr5 2.779092 1_555
O4 Sr8 2.865960 1_455
O4 Sr11 2.875786 1_555
O5 Sr4 2.779092 1_555
O5 Sr9 2.865960 1_655
O5 Sr10 2.875786 1_555
O6 Sr7 2.779092 1_565
O6 Sr10 2.865960 1_555
O6 Sr9 2.875786 1_555
O7 Sr6 2.779092 1_545
O7 Sr11 2.865960 1_555
O7 Sr8 2.875786 1_555
O8 Sr0 2.913196 1_455
O8 Sr3 2.948188 1_555
O9 Sr1 2.913196 1_655
O9 Sr2 2.948188 1_555
O10 Sr2 2.913196 1_555
O10 Sr1 2.948188 1_555
O11 Sr3 2.913196 1_555
O11 Sr0 2.948188 1_555
O12 Sr7 2.596325 1_555
O12 Sr4 2.650920 1_455
O13 Sr6 2.596325 1_555
O13 Sr5 2.650920 1_655
O14 Sr5 2.596325 1_555
O14 Sr6 2.650920 1_555
O15 Sr4 2.596325 1_555
O15 Sr7 2.650920 1_555
O20 Sr8 2.522708 1_555
O20 Sr0 2.552452 1_554
O21 Sr9 2.522708 1_555
O21 Sr1 2.552452 1_555
O22 Sr10 2.522708 1_545
O22 Sr2 2.552452 1_545
O23 Sr11 2.522708 1_565
O23 Sr3 2.552452 1_564
O24 Sr1 2.564224 1_555
O24 Sr5 2.736363 1_555
O25 Sr0 2.564224 1_555
O25 Sr4 2.736363 1_555
O26 Sr3 2.564224 1_565
O26 Sr7 2.736363 1_565
O27 Sr2 2.564224 1_545
O27 Sr6 2.736363 1_545
O28 Sr11 2.558062 1_555
O28 Sr8 2.572320 1_555
O29 Sr10 2.558062 1_555
O29 Sr9 2.572320 1_555
O30 Sr9 2.558062 1_555
O30 Sr10 2.572320 1_455
O31 Sr8 2.558062 1_555
O31 Sr11 2.572320 1_655
O32 Sr7 2.798883 1_555
O32 Sr9 2.852506 1_555
O32 Sr4 2.910188 1_555
O33 Sr6 2.798883 1_555
O33 Sr8 2.852506 1_555
O33 Sr5 2.910188 1_555
O34 Sr5 2.798883 1_655
O34 Sr11 2.852506 1_665
O34 Sr6 2.910188 1_555
O35 Sr4 2.798883 1_455
O35 Sr10 2.852506 1_445
O35 Sr7 2.910188 1_555
O36 Sr5 2.527636 1_655
O36 Sr8 2.559645 1_555
O37 Sr4 2.527636 1_455
O37 Sr9 2.559645 1_555
O38 Sr7 2.527636 1_555
O38 Sr10 2.559645 1_545
O39 Sr6 2.527636 1_555
O39 Sr11 2.559645 1_565
O40 Sr7 2.491919 1_555
O40 Sr0 2.518396 1_555
O40 Sr3 2.520598 1_555
O41 Sr6 2.491919 1_555
O41 Sr1 2.518396 1_555
O41 Sr2 2.520598 1_555
O42 Sr5 2.491919 1_555
O42 Sr2 2.518396 1_455
O42 Sr1 2.520598 1_555
O43 Sr4 2.491919 1_555
O43 Sr3 2.518396 1_655
O43 Sr0 2.520598 1_555
O44 Sr1 2.960704 1_555
O45 Sr0 2.960704 1_555
O46 Sr3 2.960704 1_665
O47 Sr2 2.960704 1_445
