# generated using pymatgen
data_Sr4LiMn2(GaO5)2
_symmetry_space_group_name_H-M   'P 1'
_cell_length_a   5.67676107
_cell_length_b   5.73335638
_cell_length_c   9.17150908
_cell_angle_alpha   71.86752857
_cell_angle_beta   72.16983958
_cell_angle_gamma   90.26317548
_symmetry_Int_Tables_number   1
_chemical_formula_structural   Sr4LiMn2(GaO5)2
_chemical_formula_sum   'Sr4 Li1 Mn2 Ga2 O10'
_cell_volume   268.40359217
_cell_formula_units_Z   1
loop_
 _symmetry_equiv_pos_site_id
 _symmetry_equiv_pos_as_xyz
  1  'x, y, z'
loop_
 _atom_site_type_symbol
 _atom_site_label
 _atom_site_symmetry_multiplicity
 _atom_site_fract_x
 _atom_site_fract_y
 _atom_site_fract_z
 _atom_site_occupancy
  Sr  Sr0  1  0.09136100  0.62759900  0.80202800  1
  Sr  Sr1  1  0.90499100  0.37151100  0.21594400  1
  Sr  Sr2  1  0.60507900  0.07014800  0.80184500  1
  Sr  Sr3  1  0.37937600  0.91110600  0.21588200  1
  Li  Li0  1  0.95958900  0.45658200  0.58157400  1
  Mn  Mn0  1  0.49506800  0.48886100  0.01586700  1
  Mn  Mn1  1  0.99188900  0.99748800  0.01136700  1
  Ga  Ga0  1  0.64634000  0.70208300  0.49723900  1
  Ga  Ga1  1  0.35931900  0.30428700  0.49233700  1
  O  O0  1  0.24537500  0.24565800  0.99422100  1
  O  O1  1  0.23826100  0.75452900  0.00709600  1
  O  O2  1  0.76066400  0.24515800  0.99328900  1
  O  O3  1  0.74944300  0.75094400  0.01434800  1
  O  O4  1  0.69632000  0.66718900  0.69216100  1
  O  O5  1  0.36050400  0.31576000  0.28985900  1
  O  O6  1  0.11148200  0.13873600  0.68213100  1
  O  O7  1  0.85018400  0.89690900  0.29873000  1
  O  O8  1  0.30620600  0.64579700  0.50439400  1
  O  O9  1  0.68902500  0.35012900  0.50397300  1
loop_
_geom_bond_atom_site_label_1
_geom_bond_atom_site_label_2
_geom_bond_distance
_geom_bond_site_symmetry_2
Li0 O9 2.041891 1_555
Li0 O8 2.049169 1_655
Li0 O6 2.090516 1_655
Li0 O4 2.137964 1_555
Mn0 O2 2.068001 1_554
Mn0 O3 2.073156 1_555
Mn0 O0 2.078295 1_554
Mn0 O1 2.113703 1_555
Mn0 O5 2.269016 1_555
Mn0 O4 2.680962 1_554
Mn1 O2 1.941812 1_564
Mn1 O0 1.955308 1_664
Mn1 O3 1.956541 1_555
Mn1 O1 1.978959 1_655
Mn1 O7 2.382687 1_555
Mn1 O6 2.729861 1_664
Ga0 O7 1.825809 1_555
Ga0 O4 1.845271 1_555
Ga0 O8 1.933951 1_555
Ga0 O9 2.017535 1_555
Ga1 O5 1.835550 1_555
Ga1 O6 1.835738 1_555
Ga1 O9 1.928431 1_555
Ga1 O8 2.014117 1_555
O0 Sr1 2.628576 1_456
O0 Sr3 2.631358 1_546
O0 Sr2 2.685667 1_555
O0 Sr0 2.688040 1_555
O1 Sr0 2.563045 1_554
O1 Sr2 2.568829 1_564
O1 Sr3 2.667796 1_555
O1 Sr1 2.682358 1_455
O2 Sr2 2.628299 1_555
O2 Sr0 2.638289 1_655
O2 Sr1 2.702978 1_556
O2 Sr3 2.709810 1_546
O3 Sr2 2.567336 1_564
O3 Sr0 2.571886 1_654
O3 Sr3 2.714628 1_555
O3 Sr1 2.728490 1_555
O4 Sr0 2.709623 1_655
O4 Sr2 2.785007 1_565
O5 Sr3 2.606121 1_545
O5 Sr1 2.862608 1_455
O5 Sr1 2.947609 1_555
O5 Sr3 3.260873 1_555
O6 Sr2 2.722531 1_455
O6 Sr0 2.779293 1_545
O7 Sr1 2.576640 1_565
O7 Sr3 2.858315 1_655
O7 Sr3 2.989025 1_555
O8 Sr3 2.510764 1_555
O8 Sr0 2.594736 1_555
O9 Sr1 2.512006 1_555
O9 Sr2 2.594888 1_555
