# generated using pymatgen
data_LiLa4Ga2(FeO6)2
_symmetry_space_group_name_H-M   'P 1'
_cell_length_a   5.89264205
_cell_length_b   5.67387954
_cell_length_c   7.85576272
_cell_angle_alpha   89.70496282
_cell_angle_beta   89.88410717
_cell_angle_gamma   88.66060428
_symmetry_Int_Tables_number   1
_chemical_formula_structural   LiLa4Ga2(FeO6)2
_chemical_formula_sum   'Li1 La4 Ga2 Fe2 O12'
_cell_volume   262.57496024
_cell_formula_units_Z   1
loop_
 _symmetry_equiv_pos_site_id
 _symmetry_equiv_pos_as_xyz
  1  'x, y, z'
loop_
 _atom_site_type_symbol
 _atom_site_label
 _atom_site_symmetry_multiplicity
 _atom_site_fract_x
 _atom_site_fract_y
 _atom_site_fract_z
 _atom_site_occupancy
  Li  Li0  1  0.31336700  0.12051800  0.76345800  1
  La  La0  1  0.46833400  0.52810700  0.74829200  1
  La  La1  1  0.90664800  0.01244100  0.75418700  1
  La  La2  1  0.56254700  0.51228600  0.24526100  1
  La  La3  1  0.05702800  0.98662400  0.24519800  1
  Ga  Ga0  1  0.01092800  0.50068100  0.99836600  1
  Ga  Ga1  1  0.50800700  0.00271900  0.48510400  1
  Fe  Fe0  1  0.01026700  0.50007500  0.50038400  1
  Fe  Fe1  1  0.50723900  0.99621600  0.01724800  1
  O  O0  1  0.52792600  0.91630500  0.73646200  1
  O  O1  1  0.02937600  0.59492300  0.74743200  1
  O  O2  1  0.46722200  0.10339100  0.25981500  1
  O  O3  1  0.97812400  0.40924700  0.25220900  1
  O  O4  1  0.70417700  0.29326100  0.54903900  1
  O  O5  1  0.17497800  0.20059900  0.95737700  1
  O  O6  1  0.30217900  0.69363800  0.03999300  1
  O  O7  1  0.79161800  0.79380400  0.45150600  1
  O  O8  1  0.29858800  0.71103400  0.44944000  1
  O  O9  1  0.81341900  0.78247100  0.04223500  1
  O  O10  1  0.69364700  0.30270700  0.95031000  1
  O  O11  1  0.20771300  0.20562300  0.55668300  1
loop_
_geom_bond_atom_site_label_1
_geom_bond_atom_site_label_2
_geom_bond_distance
_geom_bond_site_symmetry_2
Li0 O0 1.708502 1_545
Li0 O5 1.782394 1_555
Li0 O11 1.800369 1_555
La0 O0 2.239924 1_555
La0 O10 2.413535 1_555
La0 O4 2.466398 1_555
La0 O1 2.605491 1_555
La0 O6 2.657433 1_556
La0 O8 2.743241 1_555
La1 O0 2.314354 1_545
La1 O1 2.461459 1_645
La1 O5 2.508867 1_655
La1 O4 2.540057 1_555
La1 O10 2.565771 1_555
La1 O11 2.611184 1_655
La1 O9 2.668870 1_546
La1 O7 2.780007 1_545
La2 O2 2.401880 1_555
La2 O6 2.435592 1_555
La2 O8 2.488023 1_555
La2 O3 2.504976 1_555
La2 O7 2.671104 1_555
La2 O9 2.674034 1_555
La2 O10 2.712526 1_554
La2 O4 2.804433 1_555
La3 O3 2.432762 1_465
La3 O9 2.459803 1_455
La3 O7 2.514175 1_455
La3 O2 2.524162 1_565
La3 O8 2.631517 1_555
La3 O5 2.659741 1_564
La3 O6 2.711990 1_555
La3 O11 2.900288 1_565
Ga0 O5 1.965848 1_555
Ga0 O9 1.986623 1_456
Ga0 O1 2.043201 1_555
Ga0 O3 2.067737 1_456
Ga0 O6 2.084425 1_556
Ga0 O10 2.237224 1_455
Ga1 O2 1.871142 1_555
Ga1 O0 2.035075 1_545
Ga1 O7 2.043657 1_545
Ga1 O4 2.099052 1_555
Ga1 O8 2.107595 1_545
Ga1 O11 2.163376 1_555
Fe0 O1 2.020712 1_555
Fe0 O3 2.029487 1_455
Fe0 O11 2.060115 1_555
Fe0 O7 2.116599 1_455
Fe0 O8 2.136998 1_555
Fe0 O4 2.206319 1_455
Fe1 O2 2.014923 1_565
Fe1 O6 2.128930 1_555
Fe1 O10 2.141196 1_564
Fe1 O9 2.158978 1_555
Fe1 O0 2.256671 1_554
Fe1 O5 2.300284 1_564
