# generated using pymatgen
data_BaDySnSbO6
_symmetry_space_group_name_H-M   'P 1'
_cell_length_a   5.93200403
_cell_length_b   5.93200403
_cell_length_c   8.53083731
_cell_angle_alpha   90.00000000
_cell_angle_beta   90.00000000
_cell_angle_gamma   90.00000000
_symmetry_Int_Tables_number   1
_chemical_formula_structural   BaDySnSbO6
_chemical_formula_sum   'Ba2 Dy2 Sn2 Sb2 O12'
_cell_volume   300.18883438
_cell_formula_units_Z   2
loop_
 _symmetry_equiv_pos_site_id
 _symmetry_equiv_pos_as_xyz
  1  'x, y, z'
loop_
 _atom_site_type_symbol
 _atom_site_label
 _atom_site_symmetry_multiplicity
 _atom_site_fract_x
 _atom_site_fract_y
 _atom_site_fract_z
 _atom_site_occupancy
  Ba  Ba0  1  -0.00000000  0.50000000  0.25000000  1
  Ba  Ba1  1  0.50000000  -0.00000000  0.75000000  1
  Dy  Dy0  1  -0.00000000  -0.00000000  0.00000000  1
  Dy  Dy1  1  0.50000000  0.50000000  0.50000000  1
  Sn  Sn0  1  0.50000000  -0.00000000  0.25000000  1
  Sn  Sn1  1  0.00000000  0.50000000  0.75000000  1
  Sb  Sb0  1  0.00000000  -0.00000000  0.50000000  1
  Sb  Sb1  1  0.50000000  0.50000000  0.00000000  1
  O  O0  1  0.00000000  -0.00000000  0.26322578  1
  O  O1  1  0.50000000  0.50000000  0.23677422  1
  O  O2  1  0.00000000  -0.00000000  0.73677422  1
  O  O3  1  0.50000000  0.50000000  0.76322578  1
  O  O4  1  0.31139217  0.21760524  0.01242621  1
  O  O5  1  0.68860783  0.78239476  0.01242621  1
  O  O6  1  0.78239476  0.31139217  0.98757379  1
  O  O7  1  0.21760524  0.68860783  0.98757379  1
  O  O8  1  0.81139217  0.28239476  0.51242621  1
  O  O9  1  0.18860783  0.71760524  0.51242621  1
  O  O10  1  0.28239476  0.18860783  0.48757379  1
  O  O11  1  0.71760524  0.81139217  0.48757379  1
loop_
_geom_bond_atom_site_label_1
_geom_bond_atom_site_label_2
_geom_bond_distance
_geom_bond_site_symmetry_2
Ba0 O6 2.816002 1_454
Ba0 O8 2.816002 1_455
Ba0 O9 2.816002 1_555
Ba0 O7 2.816002 1_554
Ba0 O0 2.968147 1_565
Ba0 O1 2.968147 1_455
Ba0 O0 2.968147 1_555
Ba0 O1 2.968147 1_555
Ba0 O5 3.213376 1_455
Ba0 O11 3.213376 1_455
Ba0 O4 3.213376 1_555
Ba0 O10 3.213376 1_555
Ba1 O10 2.816002 1_555
Ba1 O11 2.816002 1_545
Ba1 O5 2.816002 1_546
Ba1 O4 2.816002 1_556
Ba1 O3 2.968147 1_545
Ba1 O2 2.968147 1_555
Ba1 O3 2.968147 1_555
Ba1 O2 2.968147 1_655
Ba1 O9 3.213376 1_545
Ba1 O7 3.213376 1_545
Ba1 O6 3.213376 1_555
Ba1 O8 3.213376 1_555
Dy0 O2 2.245536 1_554
Dy0 O0 2.245536 1_555
Dy0 O7 2.256006 1_544
Dy0 O5 2.256006 1_445
Dy0 O4 2.256006 1_555
Dy0 O6 2.256006 1_454
Dy1 O3 2.245536 1_555
Dy1 O1 2.245536 1_555
Dy1 O10 2.256006 1_555
Dy1 O11 2.256006 1_555
Dy1 O9 2.256006 1_555
Dy1 O8 2.256006 1_555
O0 Sb0 2.019882 1_555
O1 Sb1 2.019882 1_555
O2 Sb0 2.019882 1_555
O3 Sb1 2.019882 1_556
O4 Sb1 2.017222 1_555
O4 Sn0 2.650575 1_555
O5 Sb1 2.017222 1_555
O5 Sn0 2.650575 1_565
O6 Sb1 2.017222 1_556
O6 Sn1 2.650575 1_655
O7 Sb1 2.017222 1_556
O7 Sn1 2.650575 1_555
O8 Sb0 2.017222 1_655
O8 Sn1 2.650575 1_655
O9 Sb0 2.017222 1_565
O9 Sn1 2.650575 1_555
O10 Sb0 2.017222 1_555
O10 Sn0 2.650575 1_555
O11 Sb0 2.017222 1_665
O11 Sn0 2.650575 1_565
