# generated using pymatgen
data_Ti5Nb5Ge6
_symmetry_space_group_name_H-M   'P 1'
_cell_length_a   7.66552836
_cell_length_b   7.66552836
_cell_length_c   5.34214700
_cell_angle_alpha   90.00000000
_cell_angle_beta   90.00000000
_cell_angle_gamma   119.93251621
_symmetry_Int_Tables_number   1
_chemical_formula_structural   Ti5Nb5Ge6
_chemical_formula_sum   'Ti5 Nb5 Ge6'
_cell_volume   272.03549816
_cell_formula_units_Z   1
loop_
 _symmetry_equiv_pos_site_id
 _symmetry_equiv_pos_as_xyz
  1  'x, y, z'
loop_
 _atom_site_type_symbol
 _atom_site_label
 _atom_site_symmetry_multiplicity
 _atom_site_fract_x
 _atom_site_fract_y
 _atom_site_fract_z
 _atom_site_occupancy
  Ti  Ti0  1  0.25633800  0.99968200  0.50000000  1
  Ti  Ti1  1  0.99968200  0.25633800  0.50000000  1
  Ti  Ti2  1  0.25657600  0.25657600  0.00000000  1
  Ti  Ti3  1  0.74550500  0.00029800  0.00000000  1
  Ti  Ti4  1  0.00029800  0.74550500  0.00000000  1
  Nb  Nb0  1  0.66708300  0.33401800  0.24886100  1
  Nb  Nb1  1  0.33401800  0.66708300  0.24886100  1
  Nb  Nb2  1  0.33401800  0.66708300  0.75113900  1
  Nb  Nb3  1  0.66708300  0.33401800  0.75113900  1
  Nb  Nb4  1  0.74102500  0.74102500  0.50000000  1
  Ge  Ge0  1  0.38094000  0.38094000  0.50000000  1
  Ge  Ge1  1  0.61500100  0.00304200  0.50000000  1
  Ge  Ge2  1  0.00304200  0.61500100  0.50000000  1
  Ge  Ge3  1  0.61608500  0.61608500  0.00000000  1
  Ge  Ge4  1  0.38288700  0.00041600  0.00000000  1
  Ge  Ge5  1  0.00041600  0.38288700  0.00000000  1
loop_
_geom_bond_atom_site_label_1
_geom_bond_atom_site_label_2
_geom_bond_distance
_geom_bond_site_symmetry_2
Ge0 Ti0 2.582211 1_545
Ge0 Ti1 2.582211 1_455
Ge0 Nb1 2.743687 1_555
Ge0 Nb2 2.743687 1_555
Ge0 Nb3 2.743687 1_555
Ge0 Nb0 2.743687 1_555
Ge0 Nb4 2.763057 1_555
Ge0 Ti2 2.836424 1_556
Ge0 Ti2 2.836424 1_555
Ge1 Ti1 2.598366 1_555
Ge1 Nb4 2.627477 1_545
Ge1 Nb3 2.717611 1_555
Ge1 Nb0 2.717611 1_555
Ge1 Ti0 2.736581 1_545
Ge1 Nb1 2.745135 1_545
Ge1 Nb2 2.745135 1_545
Ge1 Ti3 2.856018 1_556
Ge1 Ti3 2.856018 1_555
Ge2 Ti0 2.598366 1_555
Ge2 Nb4 2.627477 1_455
Ge2 Nb1 2.717611 1_555
Ge2 Nb2 2.717611 1_555
Ge2 Ti1 2.736581 1_455
Ge2 Nb0 2.745135 1_455
Ge2 Nb3 2.745135 1_455
Ge2 Ti4 2.856018 1_556
Ge2 Ti4 2.856018 1_555
Ge3 Ti3 2.596632 1_565
Ge3 Ti4 2.596632 1_655
Ge3 Nb0 2.727430 1_555
Ge3 Nb1 2.727430 1_555
Ge3 Nb3 2.727430 1_554
Ge3 Nb2 2.727430 1_554
Ge3 Ti2 2.758637 1_555
Ge3 Nb4 2.837914 1_555
Ge3 Nb4 2.837914 1_554
Ge4 Ti2 2.586616 1_555
Ge4 Ti4 2.588485 1_545
Ge4 Nb1 2.735225 1_545
Ge4 Nb2 2.735225 1_544
Ge4 Nb0 2.737373 1_555
Ge4 Nb3 2.737373 1_554
Ge4 Ti3 2.780110 1_555
Ge4 Ti0 2.840818 1_544
Ge4 Ti0 2.840818 1_545
Ge5 Ti2 2.586616 1_555
Ge5 Ti3 2.588485 1_455
Ge5 Nb3 2.735225 1_454
Ge5 Nb0 2.735225 1_455
Ge5 Nb2 2.737373 1_554
Ge5 Nb1 2.737373 1_555
Ge5 Ti4 2.780110 1_555
Ge5 Ti1 2.840818 1_455
Ge5 Ti1 2.840818 1_454
