# generated using pymatgen
data_CuWO4
_symmetry_space_group_name_H-M   'P 1'
_cell_length_a   9.03414100
_cell_length_b   6.81977600
_cell_length_c   12.12812872
_cell_angle_alpha   89.50658364
_cell_angle_beta   90.00000000
_cell_angle_gamma   90.00000000
_symmetry_Int_Tables_number   1
_chemical_formula_structural   CuWO4
_chemical_formula_sum   'Cu8 W8 O32'
_cell_volume   747.19622330
_cell_formula_units_Z   8
loop_
 _symmetry_equiv_pos_site_id
 _symmetry_equiv_pos_as_xyz
  1  'x, y, z'
loop_
 _atom_site_type_symbol
 _atom_site_label
 _atom_site_symmetry_multiplicity
 _atom_site_fract_x
 _atom_site_fract_y
 _atom_site_fract_z
 _atom_site_occupancy
  Cu  Cu0  1  0.11411400  0.82068100  0.89194800  1
  Cu  Cu1  1  0.04080600  0.37398300  0.60941600  1
  Cu  Cu2  1  0.95919400  0.62601700  0.39058400  1
  Cu  Cu3  1  0.88588600  0.17931900  0.10805200  1
  Cu  Cu4  1  0.38588600  0.82068100  0.39194800  1
  Cu  Cu5  1  0.45919400  0.37398300  0.10941600  1
  Cu  Cu6  1  0.61411400  0.17931900  0.60805200  1
  Cu  Cu7  1  0.54080600  0.62601700  0.89058400  1
  W  W0  1  0.44170400  0.10476700  0.87749100  1
  W  W1  1  0.05829600  0.10476700  0.37749100  1
  W  W2  1  0.10156600  0.59196400  0.13839300  1
  W  W3  1  0.94170400  0.89523300  0.62250900  1
  W  W4  1  0.89843400  0.40803600  0.86160700  1
  W  W5  1  0.60156600  0.40803600  0.36160700  1
  W  W6  1  0.39843400  0.59196400  0.63839300  1
  W  W7  1  0.55829600  0.89523300  0.12250900  1
  O  O0  1  0.25409300  0.04959100  0.37624500  1
  O  O1  1  0.98957800  0.64259800  0.58210700  1
  O  O2  1  0.63391100  0.19599700  0.45142300  1
  O  O3  1  0.13391100  0.80400300  0.04857700  1
  O  O4  1  0.24590700  0.04959100  0.87624500  1
  O  O5  1  0.74590700  0.95040900  0.62375500  1
  O  O6  1  0.06613500  0.09875900  0.57022600  1
  O  O7  1  0.92685200  0.46354800  0.11309100  1
  O  O8  1  0.57314800  0.46354800  0.61309100  1
  O  O9  1  0.88961500  0.31768900  0.71992700  1
  O  O10  1  0.38961500  0.68231100  0.78007300  1
  O  O11  1  0.07314800  0.53645200  0.88690900  1
  O  O12  1  0.93386500  0.90124100  0.42977400  1
  O  O13  1  0.50551500  0.88244000  0.26593200  1
  O  O14  1  0.25379200  0.41632500  0.61951700  1
  O  O15  1  0.24620800  0.41632500  0.11951700  1
  O  O16  1  0.00551500  0.11756000  0.23406800  1
  O  O17  1  0.42685200  0.53645200  0.38690900  1
  O  O18  1  0.49448500  0.11756000  0.73406800  1
  O  O19  1  0.36608900  0.80400300  0.54857700  1
  O  O20  1  0.51042200  0.64259800  0.08210700  1
  O  O21  1  0.11038500  0.68231100  0.28007300  1
  O  O22  1  0.75409300  0.95040900  0.12375500  1
  O  O23  1  0.43386500  0.09875900  0.07022600  1
  O  O24  1  0.86608900  0.19599700  0.95142300  1
  O  O25  1  0.75379200  0.58367500  0.88048300  1
  O  O26  1  0.01042200  0.35740200  0.41789300  1
  O  O27  1  0.48957800  0.35740200  0.91789300  1
  O  O28  1  0.56613500  0.90124100  0.92977400  1
  O  O29  1  0.74620800  0.58367500  0.38048300  1
  O  O30  1  0.61038500  0.31768900  0.21992700  1
  O  O31  1  0.99448500  0.88244000  0.76593200  1
loop_
_geom_bond_atom_site_label_1
_geom_bond_atom_site_label_2
_geom_bond_distance
_geom_bond_site_symmetry_2
Cu0 O3 1.910431 1_556
Cu0 O31 1.915760 1_455
Cu0 O4 1.971255 1_565
Cu0 O11 1.974855 1_555
Cu1 O1 1.915534 1_455
Cu1 O9 1.949497 1_455
Cu1 O14 1.949702 1_555
Cu1 O6 1.953622 1_555
Cu1 O26 2.342676 1_555
Cu2 O26 1.915534 1_655
Cu2 O21 1.949497 1_655
Cu2 O29 1.949702 1_555
Cu2 O12 1.953622 1_555
Cu2 O1 2.342676 1_555
Cu3 O24 1.910431 1_554
Cu3 O16 1.915760 1_655
Cu3 O22 1.971255 1_545
Cu3 O7 1.974855 1_555
Cu4 O19 1.910431 1_555
Cu4 O13 1.915760 1_555
Cu4 O0 1.971255 1_565
Cu4 O17 1.974855 1_555
Cu5 O20 1.915534 1_555
Cu5 O30 1.949497 1_555
Cu5 O15 1.949702 1_555
Cu5 O23 1.953622 1_555
Cu5 O27 2.342676 1_554
Cu6 O2 1.910431 1_555
Cu6 O18 1.915760 1_555
Cu6 O5 1.971255 1_545
Cu6 O8 1.974855 1_555
Cu7 O27 1.915534 1_555
Cu7 O10 1.949497 1_555
Cu7 O25 1.949702 1_555
Cu7 O28 1.953622 1_555
Cu7 O20 2.342676 1_556
O0 W1 1.808529 1_555
O1 W3 1.846654 1_555
O2 W5 1.826449 1_555
O3 W2 1.826449 1_555
O4 W0 1.808529 1_555
O5 W3 1.808529 1_555
O6 W3 1.891330 1_445
O6 W1 2.338594 1_555
O7 W2 1.832235 1_655
O8 W6 1.832235 1_555
O9 W4 1.832162 1_555
O10 W6 1.832162 1_555
O11 W4 1.832235 1_455
O12 W1 1.891330 1_665
O12 W3 2.338594 1_555
O13 W7 1.805010 1_555
O14 W6 1.788689 1_555
O15 W2 1.788689 1_555
O16 W1 1.805010 1_555
O17 W5 1.832235 1_555
O18 W0 1.805010 1_555
O19 W6 1.826449 1_555
O20 W7 1.846654 1_555
O21 W2 1.832162 1_555
O22 W7 1.808529 1_555
O23 W7 1.891330 1_545
O23 W0 2.338594 1_554
O24 W4 1.826449 1_555
O25 W4 1.788689 1_555
O26 W1 1.846654 1_555
O27 W0 1.846654 1_555
O28 W0 1.891330 1_565
O28 W7 2.338594 1_556
O29 W5 1.788689 1_555
O30 W5 1.832162 1_555
O31 W3 1.805010 1_555
