# generated using pymatgen
data_Mg14TiSi
_symmetry_space_group_name_H-M   'P 1'
_cell_length_a   6.28697565
_cell_length_b   6.16059541
_cell_length_c   10.14967404
_cell_angle_alpha   90.00000000
_cell_angle_beta   90.00000000
_cell_angle_gamma   119.33723750
_symmetry_Int_Tables_number   1
_chemical_formula_structural   Mg14TiSi
_chemical_formula_sum   'Mg14 Ti1 Si1'
_cell_volume   342.69599649
_cell_formula_units_Z   1
loop_
 _symmetry_equiv_pos_site_id
 _symmetry_equiv_pos_as_xyz
  1  'x, y, z'
loop_
 _atom_site_type_symbol
 _atom_site_label
 _atom_site_symmetry_multiplicity
 _atom_site_fract_x
 _atom_site_fract_y
 _atom_site_fract_z
 _atom_site_occupancy
  Mg  Mg0  1  0.16708811  0.33354355  0.62500000  1
  Mg  Mg1  1  0.16599834  0.83299867  0.62500000  1
  Mg  Mg2  1  0.66721797  0.33121640  0.12500000  1
  Mg  Mg3  1  0.66535629  0.33354519  0.62500000  1
  Mg  Mg4  1  0.66721797  0.83600057  0.12500000  1
  Mg  Mg5  1  0.66535629  0.83181011  0.62500000  1
  Mg  Mg6  1  0.33003258  0.16564291  0.36789301  1
  Mg  Mg7  1  0.33003258  0.16564291  0.88210699  1
  Mg  Mg8  1  0.33003258  0.66439067  0.36789301  1
  Mg  Mg9  1  0.33003258  0.66439067  0.88210699  1
  Mg  Mg10  1  0.83929753  0.16964927  0.37310806  1
  Mg  Mg11  1  0.83929753  0.16964927  0.87689194  1
  Mg  Mg12  1  0.83789658  0.66894879  0.37074305  1
  Mg  Mg13  1  0.83789658  0.66894879  0.87925695  1
  Ti  Ti0  1  0.16160960  0.33080430  0.12500000  1
  Si  Si0  1  0.16563688  0.83281794  0.12500000  1
loop_
_geom_bond_atom_site_label_1
_geom_bond_atom_site_label_2
_geom_bond_distance
_geom_bond_site_symmetry_2
Mg0 Mg1 3.080303 1_545
Mg0 Mg1 3.080304 1_555
Mg0 Mg10 3.124704 1_455
Mg0 Mg11 3.124704 1_455
Mg0 Mg5 3.132595 1_555
Mg0 Mg3 3.132595 1_555
Mg0 Mg5 3.154380 1_445
Mg0 Mg3 3.154381 1_455
Mg0 Mg7 3.157130 1_555
Mg0 Mg6 3.157130 1_555
Mg0 Mg9 3.157135 1_555
Mg0 Mg8 3.157135 1_555
Mg1 Mg3 3.143045 1_565
Mg1 Mg5 3.143045 1_555
Mg1 Mg3 3.143943 1_455
Mg1 Mg5 3.143943 1_455
Mg1 Mg12 3.145349 1_455
Mg1 Mg13 3.145349 1_455
Mg1 Mg8 3.162583 1_555
Mg1 Mg9 3.162583 1_555
Mg1 Mg6 3.162589 1_565
Mg1 Mg7 3.162589 1_565
Mg2 Mg4 3.050824 1_545
Mg2 Mg7 3.081087 1_554
Mg2 Mg6 3.081087 1_555
Mg2 Ti0 3.109473 1_655
Mg2 Mg4 3.109771 1_555
Mg2 Si0 3.143200 1_655
Mg2 Si0 3.143868 1_545
Mg2 Ti0 3.177504 1_555
Mg3 Mg5 3.069609 1_555
Mg3 Mg5 3.090987 1_545
Mg3 Mg6 3.191751 1_555
Mg3 Mg7 3.191751 1_555
Mg4 Mg9 3.081087 1_554
Mg4 Mg8 3.081087 1_555
Mg4 Ti0 3.109473 1_665
Mg4 Si0 3.143200 1_655
Mg4 Si0 3.143868 1_555
Mg4 Ti0 3.177504 1_555
Mg5 Mg8 3.191751 1_555
Mg5 Mg9 3.191751 1_555
Mg6 Si0 3.045226 1_545
Mg6 Ti0 3.047928 1_555
Mg6 Mg8 3.072583 1_555
Mg6 Mg8 3.088012 1_545
Mg7 Si0 3.045226 1_546
Mg7 Ti0 3.047928 1_556
Mg7 Mg9 3.072583 1_555
Mg7 Mg9 3.088012 1_545
Mg8 Si0 3.045220 1_555
Mg8 Ti0 3.047934 1_555
Mg9 Si0 3.045220 1_556
Mg9 Ti0 3.047934 1_556
Mg10 Ti0 3.076019 1_655
Mg10 Mg12 3.080401 1_555
Mg10 Mg12 3.080401 1_545
Mg10 Mg2 3.091559 1_555
Mg10 Mg4 3.091565 1_545
Mg10 Mg8 3.097859 1_655
Mg10 Mg6 3.097859 1_655
Mg10 Mg3 3.135866 1_555
Mg10 Mg5 3.135872 1_545
Mg10 Mg8 3.190155 1_545
Mg10 Mg6 3.190155 1_555
Mg11 Ti0 3.076019 1_656
Mg11 Mg13 3.080401 1_555
Mg11 Mg13 3.080401 1_545
Mg11 Mg2 3.091559 1_556
Mg11 Mg4 3.091565 1_546
Mg11 Mg9 3.097859 1_655
Mg11 Mg7 3.097859 1_655
Mg11 Mg3 3.135866 1_555
Mg11 Mg5 3.135872 1_545
Mg11 Mg9 3.190155 1_545
Mg11 Mg7 3.190155 1_555
Mg12 Si0 3.073689 1_655
Mg12 Mg4 3.084442 1_555
Mg12 Mg2 3.084448 1_555
Mg12 Mg6 3.108036 1_665
Mg12 Mg8 3.108036 1_655
Mg12 Mg5 3.147930 1_555
Mg12 Mg3 3.147936 1_555
Mg12 Mg6 3.179396 1_555
Mg12 Mg8 3.179396 1_555
Mg13 Si0 3.073689 1_656
Mg13 Mg4 3.084442 1_556
Mg13 Mg2 3.084448 1_556
Mg13 Mg7 3.108036 1_665
Mg13 Mg9 3.108036 1_655
Mg13 Mg5 3.147930 1_555
Mg13 Mg3 3.147936 1_555
Mg13 Mg7 3.179396 1_555
Mg13 Mg9 3.179396 1_555
Si0 Ti0 3.080377 1_555
Si0 Ti0 3.080377 1_565
