# generated using pymatgen
data_Ba2WO3F4
_symmetry_space_group_name_H-M   'P 1'
_cell_length_a   7.57595540
_cell_length_b   7.57595540
_cell_length_c   7.32050015
_cell_angle_alpha   62.86364665
_cell_angle_beta   62.86364665
_cell_angle_gamma   78.37096330
_symmetry_Int_Tables_number   1
_chemical_formula_structural   Ba2WO3F4
_chemical_formula_sum   'Ba4 W2 O6 F8'
_cell_volume   332.74118091
_cell_formula_units_Z   2
loop_
 _symmetry_equiv_pos_site_id
 _symmetry_equiv_pos_as_xyz
  1  'x, y, z'
loop_
 _atom_site_type_symbol
 _atom_site_label
 _atom_site_symmetry_multiplicity
 _atom_site_fract_x
 _atom_site_fract_y
 _atom_site_fract_z
 _atom_site_occupancy
  Ba  Ba0  1  0.73966100  0.49893200  0.55477900  1
  Ba  Ba1  1  0.49893200  0.73966100  0.05477900  1
  Ba  Ba2  1  0.15449700  0.50128500  0.89013600  1
  Ba  Ba3  1  0.50128500  0.15449700  0.39013600  1
  W  W0  1  0.02856100  0.97431100  0.00765500  1
  W  W1  1  0.97431100  0.02856100  0.50765500  1
  O  O0  1  0.08411000  0.26896900  0.37569200  1
  O  O1  1  0.26896900  0.08411000  0.87569200  1
  O  O2  1  0.92480800  0.04981500  0.26156700  1
  O  O3  1  0.04981500  0.92480800  0.76156700  1
  O  O4  1  0.71994500  0.08421400  0.66118400  1
  O  O5  1  0.08421400  0.71994500  0.16118400  1
  F  F0  1  0.90042000  0.72466100  0.65391900  1
  F  F1  1  0.72466100  0.90042000  0.15391900  1
  F  F2  1  0.47826400  0.40459200  0.00190100  1
  F  F3  1  0.40459200  0.47826400  0.50190100  1
  F  F4  1  0.91889800  0.25093200  0.85820500  1
  F  F5  1  0.25093200  0.91889800  0.35820500  1
  F  F6  1  0.47610100  0.77222500  0.67396100  1
  F  F7  1  0.77222500  0.47610100  0.17396100  1
loop_
_geom_bond_atom_site_label_1
_geom_bond_atom_site_label_2
_geom_bond_distance
_geom_bond_site_symmetry_2
Ba0 F6 2.725234 1_555
Ba0 F7 2.767267 1_555
Ba0 F2 2.769426 1_556
Ba0 F0 2.777163 1_555
Ba0 F3 2.780302 1_555
Ba0 F4 2.867692 1_555
Ba0 O4 2.889819 1_555
Ba0 O5 2.901629 1_655
Ba0 O0 2.948475 1_655
Ba0 F1 3.146185 1_555
Ba1 F7 2.725234 1_555
Ba1 F6 2.767267 1_554
Ba1 F3 2.769426 1_555
Ba1 F1 2.777163 1_555
Ba1 F2 2.780302 1_555
Ba1 F5 2.867692 1_555
Ba1 O5 2.889819 1_555
Ba1 O4 2.901629 1_564
Ba1 O1 2.948475 1_564
Ba1 F0 3.146185 1_554
Ba2 F3 2.665419 1_555
Ba2 F7 2.666967 1_456
Ba2 F2 2.789633 1_556
Ba2 F6 2.861770 1_555
Ba2 F0 2.934769 1_455
Ba2 O5 2.940039 1_556
Ba2 O3 2.951286 1_555
Ba2 O0 2.993165 1_556
Ba2 F4 2.997934 1_455
Ba2 O1 3.141376 1_555
Ba3 F2 2.665419 1_555
Ba3 F6 2.666967 1_545
Ba3 F3 2.789633 1_555
Ba3 F7 2.861770 1_555
Ba3 F1 2.934769 1_545
Ba3 O4 2.940039 1_555
Ba3 O2 2.951286 1_555
Ba3 O1 2.993165 1_555
Ba3 F5 2.997934 1_545
Ba3 O0 3.141376 1_555
O0 W1 1.793072 1_455
O1 W0 1.793072 1_546
O2 W1 1.933724 1_555
O2 W0 1.963644 1_645
O3 W0 1.933724 1_556
O3 W1 1.963644 1_465
O4 W1 1.812045 1_555
O5 W0 1.812045 1_555
F0 W1 2.117689 1_565
F1 W0 2.117689 1_655
F4 W0 2.077193 1_646
F5 W1 2.077193 1_465
