# generated using pymatgen
data_Cr2HgS4
_symmetry_space_group_name_H-M   'P 1'
_cell_length_a   18.30086859
_cell_length_b   18.30086859
_cell_length_c   11.04963101
_cell_angle_alpha   81.19369906
_cell_angle_beta   81.19369906
_cell_angle_gamma   18.81852662
_symmetry_Int_Tables_number   1
_chemical_formula_structural   Cr2HgS4
_chemical_formula_sum   'Cr16 Hg8 S32'
_cell_volume   1179.30002681
_cell_formula_units_Z   8
loop_
 _symmetry_equiv_pos_site_id
 _symmetry_equiv_pos_as_xyz
  1  'x, y, z'
loop_
 _atom_site_type_symbol
 _atom_site_label
 _atom_site_symmetry_multiplicity
 _atom_site_fract_x
 _atom_site_fract_y
 _atom_site_fract_z
 _atom_site_occupancy
  Cr  Cr0_0  1  0.37706900  0.37706900  0.09793300  1
  Cr  Cr0_1  1  0.37706900  0.37706900  0.59793300  1
  Cr  Cr0_2  1  0.37706900  0.87706900  0.09793300  1
  Cr  Cr0_3  1  0.37706900  0.87706900  0.59793300  1
  Cr  Cr0_4  1  0.87706900  0.37706900  0.09793300  1
  Cr  Cr0_5  1  0.87706900  0.37706900  0.59793300  1
  Cr  Cr0_6  1  0.87706900  0.87706900  0.09793300  1
  Cr  Cr0_7  1  0.87706900  0.87706900  0.59793300  1
  Cr  Cr1_0  1  0.12293100  0.12293100  0.40206700  1
  Cr  Cr1_1  1  0.12293100  0.12293100  0.90206700  1
  Cr  Cr1_2  1  0.12293100  0.62293100  0.40206700  1
  Cr  Cr1_3  1  0.12293100  0.62293100  0.90206700  1
  Cr  Cr1_4  1  0.62293100  0.12293100  0.40206700  1
  Cr  Cr1_5  1  0.62293100  0.12293100  0.90206700  1
  Cr  Cr1_6  1  0.62293100  0.62293100  0.40206700  1
  Cr  Cr1_7  1  0.62293100  0.62293100  0.90206700  1
  Hg  Hg0_0  1  0.25000000  0.25000000  0.25000000  1
  Hg  Hg0_1  1  0.25000000  0.25000000  0.75000000  1
  Hg  Hg0_2  1  0.25000000  0.75000000  0.25000000  1
  Hg  Hg0_3  1  0.25000000  0.75000000  0.75000000  1
  Hg  Hg0_4  1  0.75000000  0.25000000  0.25000000  1
  Hg  Hg0_5  1  0.75000000  0.25000000  0.75000000  1
  Hg  Hg0_6  1  0.75000000  0.75000000  0.25000000  1
  Hg  Hg0_7  1  0.75000000  0.75000000  0.75000000  1
  S  S0_0  1  0.17043650  0.17043650  0.01338500  1
  S  S0_1  1  0.17043650  0.17043650  0.51338500  1
  S  S0_2  1  0.17043650  0.67043650  0.01338500  1
  S  S0_3  1  0.17043650  0.67043650  0.51338500  1
  S  S0_4  1  0.67043650  0.17043650  0.01338500  1
  S  S0_5  1  0.67043650  0.17043650  0.51338500  1
  S  S0_6  1  0.67043650  0.67043650  0.01338500  1
  S  S0_7  1  0.67043650  0.67043650  0.51338500  1
  S  S1_0  1  0.32956350  0.32956350  0.48661500  1
  S  S1_1  1  0.32956350  0.32956350  0.98661500  1
  S  S1_2  1  0.32956350  0.82956350  0.48661500  1
  S  S1_3  1  0.32956350  0.82956350  0.98661500  1
  S  S1_4  1  0.82956350  0.32956350  0.48661500  1
  S  S1_5  1  0.82956350  0.32956350  0.98661500  1
  S  S1_6  1  0.82956350  0.82956350  0.48661500  1
  S  S1_7  1  0.82956350  0.82956350  0.98661500  1
  S  S2_0  1  0.40919250  0.40919250  0.26931850  1
  S  S2_1  1  0.40919250  0.40919250  0.76931850  1
  S  S2_2  1  0.40919250  0.90919250  0.26931850  1
  S  S2_3  1  0.40919250  0.90919250  0.76931850  1
  S  S2_4  1  0.90919250  0.40919250  0.26931850  1
  S  S2_5  1  0.90919250  0.40919250  0.76931850  1
  S  S2_6  1  0.90919250  0.90919250  0.26931850  1
  S  S2_7  1  0.90919250  0.90919250  0.76931850  1
  S  S3_0  1  0.09080750  0.09080750  0.23068150  1
  S  S3_1  1  0.09080750  0.09080750  0.73068150  1
  S  S3_2  1  0.09080750  0.59080750  0.23068150  1
  S  S3_3  1  0.09080750  0.59080750  0.73068150  1
  S  S3_4  1  0.59080750  0.09080750  0.23068150  1
  S  S3_5  1  0.59080750  0.09080750  0.73068150  1
  S  S3_6  1  0.59080750  0.59080750  0.23068150  1
  S  S3_7  1  0.59080750  0.59080750  0.73068150  1
loop_
_geom_bond_atom_site_label_1
_geom_bond_atom_site_label_2
_geom_bond_distance
_geom_bond_site_symmetry_2
Cr0_0 S0_2 2.260285 1_555
Cr0_0 S0_4 2.260285 1_555
Cr0_0 S1_1 2.260615 1_554
Cr0_0 S3_2 2.346880 1_555
Cr0_0 S3_4 2.346880 1_555
Cr0_0 S2_0 2.369292 1_555
Cr0_1 S0_5 2.260285 1_555
Cr0_1 S0_3 2.260285 1_555
Cr0_1 S1_0 2.260615 1_555
Cr0_1 S3_3 2.346880 1_555
Cr0_1 S3_5 2.346880 1_555
Cr0_1 S2_1 2.369292 1_555
Cr0_2 S0_0 2.260285 1_565
Cr0_2 S0_6 2.260285 1_555
Cr0_2 S1_3 2.260615 1_554
Cr0_2 S3_0 2.346880 1_565
Cr0_2 S3_6 2.346880 1_555
Cr0_2 S2_2 2.369292 1_555
Cr0_3 S0_7 2.260285 1_555
Cr0_3 S0_1 2.260285 1_565
Cr0_3 S1_2 2.260615 1_555
Cr0_3 S3_7 2.346880 1_555
Cr0_3 S3_1 2.346880 1_565
Cr0_3 S2_3 2.369292 1_555
Cr0_4 S0_6 2.260285 1_555
Cr0_4 S0_0 2.260285 1_655
Cr0_4 S1_5 2.260615 1_554
Cr0_4 S3_0 2.346880 1_655
Cr0_4 S3_6 2.346880 1_555
Cr0_4 S2_4 2.369292 1_555
Cr0_5 S0_7 2.260285 1_555
Cr0_5 S0_1 2.260285 1_655
Cr0_5 S1_4 2.260615 1_555
Cr0_5 S3_7 2.346880 1_555
Cr0_5 S3_1 2.346880 1_655
Cr0_5 S2_5 2.369292 1_555
Cr0_6 S0_4 2.260285 1_565
Cr0_6 S0_2 2.260285 1_655
Cr0_6 S1_7 2.260615 1_554
Cr0_6 S3_4 2.346880 1_565
Cr0_6 S3_2 2.346880 1_655
Cr0_6 S2_6 2.369292 1_555
Cr0_7 S0_5 2.260285 1_565
Cr0_7 S0_3 2.260285 1_655
Cr0_7 S1_6 2.260615 1_555
Cr0_7 S3_5 2.346880 1_565
Cr0_7 S3_3 2.346880 1_655
Cr0_7 S2_7 2.369292 1_555
Cr1_0 S1_2 2.260285 1_545
Cr1_0 S1_4 2.260285 1_455
Cr1_0 S0_1 2.260615 1_555
Cr1_0 S2_2 2.346880 1_545
Cr1_0 S2_4 2.346880 1_455
Cr1_0 S3_0 2.369292 1_555
Cr1_1 S1_3 2.260285 1_545
Cr1_1 S1_5 2.260285 1_455
Cr1_1 S0_0 2.260615 1_556
Cr1_1 S2_3 2.346880 1_545
Cr1_1 S2_5 2.346880 1_455
Cr1_1 S3_1 2.369292 1_555
Cr1_2 S1_0 2.260285 1_555
Cr1_2 S1_6 2.260285 1_455
Cr1_2 S0_3 2.260615 1_555
Cr1_2 S2_6 2.346880 1_455
Cr1_2 S2_0 2.346880 1_555
Cr1_2 S3_2 2.369292 1_555
Cr1_3 S1_1 2.260285 1_555
Cr1_3 S1_7 2.260285 1_455
Cr1_3 S0_2 2.260615 1_556
Cr1_3 S2_7 2.346880 1_455
Cr1_3 S2_1 2.346880 1_555
Cr1_3 S3_3 2.369292 1_555
Cr1_4 S1_0 2.260285 1_555
Cr1_4 S1_6 2.260285 1_545
Cr1_4 S0_5 2.260615 1_555
Cr1_4 S2_6 2.346880 1_545
Cr1_4 S2_0 2.346880 1_555
Cr1_4 S3_4 2.369292 1_555
Cr1_5 S1_1 2.260285 1_555
Cr1_5 S1_7 2.260285 1_545
Cr1_5 S0_4 2.260615 1_556
Cr1_5 S2_7 2.346880 1_545
Cr1_5 S2_1 2.346880 1_555
Cr1_5 S3_5 2.369292 1_555
Cr1_6 S1_4 2.260285 1_555
Cr1_6 S1_2 2.260285 1_555
Cr1_6 S0_7 2.260615 1_555
Cr1_6 S2_4 2.346880 1_555
Cr1_6 S2_2 2.346880 1_555
Cr1_6 S3_6 2.369292 1_555
Cr1_7 S1_3 2.260285 1_555
Cr1_7 S1_5 2.260285 1_555
Cr1_7 S0_6 2.260615 1_556
Cr1_7 S2_5 2.346880 1_555
Cr1_7 S2_3 2.346880 1_555
Cr1_7 S3_7 2.369292 1_555
Hg0_0 Hg0_6 2.991926 1_545
Hg0_0 Hg0_6 2.991926 1_455
Hg0_1 Hg0_7 2.991926 1_455
Hg0_1 Hg0_7 2.991926 1_545
Hg0_2 Hg0_4 2.991926 1_465
Hg0_2 Hg0_4 2.991926 1_555
Hg0_3 Hg0_5 2.991926 1_555
Hg0_3 Hg0_5 2.991926 1_465
