# generated using pymatgen
data_DyMgSe3
_symmetry_space_group_name_H-M   'P 1'
_cell_length_a   7.29236196
_cell_length_b   12.93289000
_cell_length_c   7.49556724
_cell_angle_alpha   90.00000000
_cell_angle_beta   123.76664007
_cell_angle_gamma   90.00000000
_symmetry_Int_Tables_number   1
_chemical_formula_structural   DyMgSe3
_chemical_formula_sum   'Dy4 Mg4 Se12'
_cell_volume   587.66575447
_cell_formula_units_Z   4
loop_
 _symmetry_equiv_pos_site_id
 _symmetry_equiv_pos_as_xyz
  1  'x, y, z'
loop_
 _atom_site_type_symbol
 _atom_site_label
 _atom_site_symmetry_multiplicity
 _atom_site_fract_x
 _atom_site_fract_y
 _atom_site_fract_z
 _atom_site_occupancy
  Dy  Dy0  1  0.12289800  0.00000000  0.31733300  1
  Dy  Dy1  1  0.87710200  0.00000000  0.68266700  1
  Dy  Dy2  1  0.62289800  0.50000000  0.31733300  1
  Dy  Dy3  1  0.37710200  0.50000000  0.68266700  1
  Mg  Mg0  1  0.00000000  0.33802900  0.00000000  1
  Mg  Mg1  1  0.00000000  0.66197100  0.00000000  1
  Mg  Mg2  1  0.50000000  0.83802900  0.00000000  1
  Mg  Mg3  1  0.50000000  0.16197100  0.00000000  1
  Se  Se0  1  0.25340000  0.17051800  0.20295000  1
  Se  Se1  1  0.74660000  0.82948200  0.79705000  1
  Se  Se2  1  0.74660000  0.17051800  0.79705000  1
  Se  Se3  1  0.25340000  0.82948200  0.20295000  1
  Se  Se4  1  0.75340000  0.67051800  0.20295000  1
  Se  Se5  1  0.24660000  0.32948200  0.79705000  1
  Se  Se6  1  0.24660000  0.67051800  0.79705000  1
  Se  Se7  1  0.75340000  0.32948200  0.20295000  1
  Se  Se8  1  0.28359700  0.00000000  0.74384500  1
  Se  Se9  1  0.71640300  0.00000000  0.25615500  1
  Se  Se10  1  0.78359700  0.50000000  0.74384500  1
  Se  Se11  1  0.21640300  0.50000000  0.25615500  1
loop_
_geom_bond_atom_site_label_1
_geom_bond_atom_site_label_2
_geom_bond_distance
_geom_bond_site_symmetry_2
Dy0 Se3 2.722326 1_545
Dy0 Se0 2.722326 1_555
Dy0 Se8 2.725649 1_555
Dy0 Se9 2.736119 1_455
Dy1 Se1 2.722326 1_545
Dy1 Se2 2.722326 1_555
Dy1 Se9 2.725649 1_555
Dy1 Se8 2.736119 1_655
Dy2 Se4 2.722326 1_555
Dy2 Se7 2.722326 1_555
Dy2 Se10 2.725649 1_555
Dy2 Se11 2.736119 1_555
Dy3 Se6 2.722326 1_555
Dy3 Se5 2.722326 1_555
Dy3 Se11 2.725649 1_555
Dy3 Se10 2.736119 1_555
Mg0 Se10 2.682661 1_454
Mg0 Se11 2.682661 1_555
Mg0 Se0 2.701346 1_555
Mg0 Se2 2.701346 1_454
Mg0 Se5 2.932778 1_554
Mg0 Se7 2.932778 1_455
Mg1 Se10 2.682661 1_454
Mg1 Se11 2.682661 1_555
Mg1 Se1 2.701346 1_454
Mg1 Se3 2.701346 1_555
Mg1 Se4 2.932778 1_455
Mg1 Se6 2.932778 1_554
Mg2 Se8 2.682661 1_564
Mg2 Se9 2.682661 1_565
Mg2 Se4 2.701346 1_555
Mg2 Se6 2.701346 1_554
Mg2 Se3 2.932778 1_555
Mg2 Se1 2.932778 1_554
Mg3 Se8 2.682661 1_554
Mg3 Se9 2.682661 1_555
Mg3 Se5 2.701346 1_554
Mg3 Se7 2.701346 1_555
Mg3 Se2 2.932778 1_554
Mg3 Se0 2.932778 1_555
