# generated using pymatgen
data_TeMoWSe2S
_symmetry_space_group_name_H-M   'P 1'
_cell_length_a   3.34568371
_cell_length_b   3.34568371
_cell_length_c   38.11135400
_cell_angle_alpha   90.00000000
_cell_angle_beta   90.00000000
_cell_angle_gamma   119.99999423
_symmetry_Int_Tables_number   1
_chemical_formula_structural   TeMoWSe2S
_chemical_formula_sum   'Te2 Mo2 W2 Se4 S2'
_cell_volume   369.44925784
_cell_formula_units_Z   2
loop_
 _symmetry_equiv_pos_site_id
 _symmetry_equiv_pos_as_xyz
  1  'x, y, z'
loop_
 _atom_site_type_symbol
 _atom_site_label
 _atom_site_symmetry_multiplicity
 _atom_site_fract_x
 _atom_site_fract_y
 _atom_site_fract_z
 _atom_site_occupancy
  Te  Te0  1  0.33333300  0.66666700  0.41955300  1
  Te  Te1  1  0.33333300  0.66666700  0.51967200  1
  Mo  Mo0  1  0.00000000  0.00000000  0.09392900  1
  Mo  Mo1  1  0.33333300  0.66666700  0.28178700  1
  W  W0  1  0.00000000  0.00000000  0.46962100  1
  W  W1  1  0.33333300  0.66666700  0.65759300  1
  Se  Se0  1  0.00000000  0.00000000  0.70154000  1
  Se  Se1  1  0.33333300  0.66666700  0.05018100  1
  Se  Se2  1  0.33333300  0.66666700  0.13768200  1
  Se  Se3  1  0.00000000  0.00000000  0.61361500  1
  S  S0  1  0.00000000  0.00000000  0.32158000  1
  S  S1  1  0.00000000  0.00000000  0.24199400  1
loop_
_geom_bond_atom_site_label_1
_geom_bond_atom_site_label_2
_geom_bond_distance
_geom_bond_site_symmetry_2
Te0 W0 2.715191 1_565
Te0 W0 2.715194 1_665
Te0 W0 2.715194 1_555
Te1 W0 2.714736 1_565
Te1 W0 2.714738 1_555
Te1 W0 2.714738 1_665
Mo0 Se1 2.551679 1_545
Mo0 Se1 2.551681 1_445
Mo0 Se1 2.551681 1_555
Mo0 Se2 2.551804 1_545
Mo0 Se2 2.551806 1_445
Mo0 Se2 2.551806 1_555
Mo1 S1 2.455842 1_565
Mo1 S0 2.455842 1_565
Mo1 S1 2.455845 1_665
Mo1 S0 2.455845 1_555
Mo1 S1 2.455845 1_555
Mo1 S0 2.455845 1_665
Se0 W1 2.556641 1_545
Se0 W1 2.556643 1_445
Se0 W1 2.556643 1_555
Se3 W1 2.557415 1_545
Se3 W1 2.557418 1_555
Se3 W1 2.557418 1_445
