# generated using pymatgen
data_NbAlV2
_symmetry_space_group_name_H-M   'P 1'
_cell_length_a   5.45448518
_cell_length_b   5.45448518
_cell_length_c   17.48793600
_cell_angle_alpha   90.00000000
_cell_angle_beta   90.00000000
_cell_angle_gamma   109.27371003
_symmetry_Int_Tables_number   1
_chemical_formula_structural   NbAlV2
_chemical_formula_sum   'Nb8 Al8 V16'
_cell_volume   491.12973871
_cell_formula_units_Z   8
loop_
 _symmetry_equiv_pos_site_id
 _symmetry_equiv_pos_as_xyz
  1  'x, y, z'
loop_
 _atom_site_type_symbol
 _atom_site_label
 _atom_site_symmetry_multiplicity
 _atom_site_fract_x
 _atom_site_fract_y
 _atom_site_fract_z
 _atom_site_occupancy
  Nb  Nb0_0  1  0.25000000  0.25000000  0.37278500  1
  Nb  Nb0_1  1  0.25000000  0.25000000  0.87278500  1
  Nb  Nb0_2  1  0.25000000  0.75000000  0.37278500  1
  Nb  Nb0_3  1  0.25000000  0.75000000  0.87278500  1
  Nb  Nb0_4  1  0.75000000  0.25000000  0.37278500  1
  Nb  Nb0_5  1  0.75000000  0.25000000  0.87278500  1
  Nb  Nb0_6  1  0.75000000  0.75000000  0.37278500  1
  Nb  Nb0_7  1  0.75000000  0.75000000  0.87278500  1
  Al  Al0_0  1  0.00000000  0.00000000  0.00779350  1
  Al  Al0_1  1  0.00000000  0.00000000  0.50779350  1
  Al  Al0_2  1  0.00000000  0.50000000  0.00779350  1
  Al  Al0_3  1  0.00000000  0.50000000  0.50779350  1
  Al  Al0_4  1  0.50000000  0.00000000  0.00779350  1
  Al  Al0_5  1  0.50000000  0.00000000  0.50779350  1
  Al  Al0_6  1  0.50000000  0.50000000  0.00779350  1
  Al  Al0_7  1  0.50000000  0.50000000  0.50779350  1
  V  V0_0  1  0.00000000  0.00000000  0.23968750  1
  V  V0_1  1  0.00000000  0.00000000  0.73968750  1
  V  V0_2  1  0.00000000  0.50000000  0.23968750  1
  V  V0_3  1  0.00000000  0.50000000  0.73968750  1
  V  V0_4  1  0.50000000  0.00000000  0.23968750  1
  V  V0_5  1  0.50000000  0.00000000  0.73968750  1
  V  V0_6  1  0.50000000  0.50000000  0.23968750  1
  V  V0_7  1  0.50000000  0.50000000  0.73968750  1
  V  V1_0  1  0.25000000  0.25000000  0.12973400  1
  V  V1_1  1  0.25000000  0.25000000  0.62973400  1
  V  V1_2  1  0.25000000  0.75000000  0.12973400  1
  V  V1_3  1  0.25000000  0.75000000  0.62973400  1
  V  V1_4  1  0.75000000  0.25000000  0.12973400  1
  V  V1_5  1  0.75000000  0.25000000  0.62973400  1
  V  V1_6  1  0.75000000  0.75000000  0.12973400  1
  V  V1_7  1  0.75000000  0.75000000  0.62973400  1
loop_
_geom_bond_atom_site_label_1
_geom_bond_atom_site_label_2
_geom_bond_distance
_geom_bond_site_symmetry_2
Nb0_0 Nb0_4 2.727243 1_555
Nb0_0 Nb0_2 2.727243 1_555
Nb0_0 Nb0_2 2.727243 1_545
Nb0_0 Nb0_4 2.727243 1_455
Nb0_0 V0_6 2.812313 1_555
Nb0_0 V0_0 2.812313 1_555
Nb0_1 Nb0_5 2.727243 1_555
Nb0_1 Nb0_3 2.727243 1_555
Nb0_1 Nb0_3 2.727243 1_545
Nb0_1 Nb0_5 2.727243 1_455
Nb0_1 V0_1 2.812313 1_555
Nb0_1 V0_7 2.812313 1_555
Nb0_2 Nb0_6 2.727243 1_555
Nb0_2 Nb0_6 2.727243 1_455
Nb0_2 V0_2 2.812313 1_555
Nb0_2 V0_4 2.812313 1_565
Nb0_3 Nb0_7 2.727243 1_455
Nb0_3 Nb0_7 2.727243 1_555
Nb0_3 V0_5 2.812313 1_565
Nb0_3 V0_3 2.812313 1_555
Nb0_4 Nb0_6 2.727243 1_555
Nb0_4 Nb0_6 2.727243 1_545
Nb0_4 V0_4 2.812313 1_555
Nb0_4 V0_2 2.812313 1_655
Nb0_5 Nb0_7 2.727243 1_555
Nb0_5 Nb0_7 2.727243 1_545
Nb0_5 V0_3 2.812313 1_655
Nb0_5 V0_5 2.812313 1_555
Nb0_6 V0_6 2.812313 1_555
Nb0_6 V0_0 2.812313 1_665
Nb0_7 V0_1 2.812313 1_665
Nb0_7 V0_7 2.812313 1_555
Al0_0 V1_6 2.653089 1_445
Al0_0 V1_0 2.653089 1_555
Al0_0 Al0_4 2.727243 1_555
Al0_0 Al0_4 2.727243 1_455
Al0_0 Al0_2 2.727243 1_555
Al0_0 Al0_2 2.727243 1_545
Al0_0 Nb0_7 2.840034 1_444
Al0_0 Nb0_1 2.840034 1_554
Al0_1 V1_1 2.653089 1_555
Al0_1 V1_7 2.653089 1_445
Al0_1 Al0_3 2.727243 1_545
Al0_1 Al0_5 2.727243 1_555
Al0_1 Al0_5 2.727243 1_455
Al0_1 Al0_3 2.727243 1_555
Al0_1 Nb0_0 2.840034 1_555
Al0_1 Nb0_6 2.840034 1_445
Al0_2 V1_4 2.653089 1_455
Al0_2 V1_2 2.653089 1_555
Al0_2 Al0_6 2.727243 1_555
Al0_2 Al0_6 2.727243 1_455
Al0_2 Nb0_5 2.840034 1_454
Al0_2 Nb0_3 2.840034 1_554
Al0_3 V1_5 2.653089 1_455
Al0_3 V1_3 2.653089 1_555
Al0_3 Al0_7 2.727243 1_455
Al0_3 Al0_7 2.727243 1_555
Al0_3 Nb0_2 2.840034 1_555
Al0_3 Nb0_4 2.840034 1_455
Al0_4 V1_2 2.653089 1_545
Al0_4 V1_4 2.653089 1_555
Al0_4 Al0_6 2.727243 1_555
Al0_4 Al0_6 2.727243 1_545
Al0_4 Nb0_3 2.840034 1_544
Al0_4 Nb0_5 2.840034 1_554
Al0_5 V1_3 2.653089 1_545
Al0_5 V1_5 2.653089 1_555
Al0_5 Al0_7 2.727243 1_555
Al0_5 Al0_7 2.727243 1_545
Al0_5 Nb0_4 2.840034 1_555
Al0_5 Nb0_2 2.840034 1_545
Al0_6 V1_6 2.653089 1_555
Al0_6 V1_0 2.653089 1_555
Al0_6 Nb0_7 2.840034 1_554
Al0_6 Nb0_1 2.840034 1_554
Al0_7 V1_1 2.653089 1_555
Al0_7 V1_7 2.653089 1_555
Al0_7 Nb0_0 2.840034 1_555
Al0_7 Nb0_6 2.840034 1_555
V0_0 V1_0 2.487723 1_555
V0_0 V1_6 2.487723 1_445
V0_0 V0_2 2.727243 1_545
V0_0 V0_4 2.727243 1_555
V0_0 V0_2 2.727243 1_555
V0_0 V0_4 2.727243 1_455
V0_1 V1_7 2.487723 1_445
V0_1 V1_1 2.487723 1_555
V0_1 V0_3 2.727243 1_545
V0_1 V0_5 2.727243 1_455
V0_1 V0_5 2.727243 1_555
V0_1 V0_3 2.727243 1_555
V0_2 V1_2 2.487723 1_555
V0_2 V1_4 2.487723 1_455
V0_2 V0_6 2.727243 1_455
V0_2 V0_6 2.727243 1_555
V0_3 V1_5 2.487723 1_455
V0_3 V1_3 2.487723 1_555
V0_3 V0_7 2.727243 1_555
V0_3 V0_7 2.727243 1_455
V0_4 V1_2 2.487723 1_545
V0_4 V1_4 2.487723 1_555
V0_4 V0_6 2.727243 1_545
V0_4 V0_6 2.727243 1_555
V0_5 V1_3 2.487723 1_545
V0_5 V1_5 2.487723 1_555
V0_5 V0_7 2.727243 1_545
V0_5 V0_7 2.727243 1_555
V0_6 V1_6 2.487723 1_555
V0_6 V1_0 2.487723 1_555
V0_7 V1_7 2.487723 1_555
V0_7 V1_1 2.487723 1_555
V1_0 V1_2 2.727243 1_555
V1_0 V1_2 2.727243 1_545
V1_0 V1_4 2.727243 1_555
V1_0 V1_4 2.727243 1_455
V1_1 V1_5 2.727243 1_555
V1_1 V1_5 2.727243 1_455
V1_1 V1_3 2.727243 1_545
V1_1 V1_3 2.727243 1_555
V1_2 V1_6 2.727243 1_455
V1_2 V1_6 2.727243 1_555
V1_3 V1_7 2.727243 1_455
V1_3 V1_7 2.727243 1_555
V1_4 V1_6 2.727243 1_545
V1_4 V1_6 2.727243 1_555
V1_5 V1_7 2.727243 1_545
V1_5 V1_7 2.727243 1_555
