# generated using pymatgen
data_K2NaCd
_symmetry_space_group_name_H-M   'P 1'
_cell_length_a   14.97333742
_cell_length_b   14.37527192
_cell_length_c   14.37527213
_cell_angle_alpha   59.06925185
_cell_angle_beta   58.61394369
_cell_angle_gamma   58.61394110
_symmetry_Int_Tables_number   1
_chemical_formula_structural   K2NaCd
_chemical_formula_sum   'K2 Na1 Cd1'
_cell_volume   2126.16414450
_cell_formula_units_Z   1
loop_
 _symmetry_equiv_pos_site_id
 _symmetry_equiv_pos_as_xyz
  1  'x, y, z'
loop_
 _atom_site_type_symbol
 _atom_site_label
 _atom_site_symmetry_multiplicity
 _atom_site_fract_x
 _atom_site_fract_y
 _atom_site_fract_z
 _atom_site_occupancy
  K  K0  1  0.75057018  0.00000000  0.00000000  1
  K  K1  1  0.24942982  1.00000000  -0.00000000  1
  Na  Na0  1  -0.00000000  -0.00000000  0.00000000  1
  Cd  Cd0  1  0.50000000  -0.00000000  0.00000000  1
loop_
_geom_bond_atom_site_label_1
_geom_bond_atom_site_label_2
_geom_bond_distance
_geom_bond_site_symmetry_2
K0 Na0 3.734797 1_655
K1 Na0 3.734797 1_565
Cd0 K1 3.751872 1_545
Cd0 K0 3.751872 1_555
