# generated using pymatgen
data_CaSi
_symmetry_space_group_name_H-M   'P 1'
_cell_length_a   3.82890600
_cell_length_b   10.97998600
_cell_length_c   14.72556600
_cell_angle_alpha   90.00000000
_cell_angle_beta   90.00000000
_cell_angle_gamma   90.00000000
_symmetry_Int_Tables_number   1
_chemical_formula_structural   CaSi
_chemical_formula_sum   'Ca12 Si12'
_cell_volume   619.08244260
_cell_formula_units_Z   12
loop_
 _symmetry_equiv_pos_site_id
 _symmetry_equiv_pos_as_xyz
  1  'x, y, z'
loop_
 _atom_site_type_symbol
 _atom_site_label
 _atom_site_symmetry_multiplicity
 _atom_site_fract_x
 _atom_site_fract_y
 _atom_site_fract_z
 _atom_site_occupancy
  Ca  Ca0  1  0.25000000  0.64320100  0.84950900  1
  Ca  Ca1  1  0.25000000  0.85679900  0.34950900  1
  Ca  Ca2  1  0.75000000  0.35679900  0.15049100  1
  Ca  Ca3  1  0.75000000  0.14320100  0.65049100  1
  Ca  Ca4  1  0.25000000  0.33562400  0.82225600  1
  Ca  Ca5  1  0.25000000  0.16437600  0.32225600  1
  Ca  Ca6  1  0.75000000  0.66437600  0.17774400  1
  Ca  Ca7  1  0.75000000  0.83562400  0.67774400  1
  Ca  Ca8  1  0.25000000  0.01770900  0.88940200  1
  Ca  Ca9  1  0.25000000  0.48229100  0.38940200  1
  Ca  Ca10  1  0.75000000  0.98229100  0.11059800  1
  Ca  Ca11  1  0.75000000  0.51770900  0.61059800  1
  Si  Si0  1  0.25000000  0.31724600  0.55750100  1
  Si  Si1  1  0.25000000  0.18275400  0.05750100  1
  Si  Si2  1  0.75000000  0.68275400  0.44249900  1
  Si  Si3  1  0.75000000  0.81724600  0.94249900  1
  Si  Si4  1  0.25000000  0.73620600  0.53408700  1
  Si  Si5  1  0.25000000  0.76379400  0.03408700  1
  Si  Si6  1  0.75000000  0.26379400  0.46591300  1
  Si  Si7  1  0.75000000  0.23620600  0.96591300  1
  Si  Si8  1  0.25000000  0.96767900  0.54258900  1
  Si  Si9  1  0.25000000  0.53232100  0.04258900  1
  Si  Si10  1  0.75000000  0.03232100  0.45741100  1
  Si  Si11  1  0.75000000  0.46767900  0.95741100  1
loop_
_geom_bond_atom_site_label_1
_geom_bond_atom_site_label_2
_geom_bond_distance
_geom_bond_site_symmetry_2
Ca0 Si5 3.023388 1_556
Ca0 Si3 3.031858 1_455
Ca0 Si3 3.031858 1_555
Ca0 Si9 3.092906 1_556
Ca0 Si11 3.147063 1_555
Ca0 Si11 3.147063 1_455
Ca1 Si4 3.023388 1_555
Ca1 Si2 3.031858 1_555
Ca1 Si2 3.031858 1_455
Ca1 Si8 3.092906 1_555
Ca1 Si10 3.147063 1_465
Ca1 Si10 3.147063 1_565
Ca2 Si7 3.023388 1_554
Ca2 Si1 3.031858 1_555
Ca2 Si1 3.031858 1_655
Ca2 Si11 3.092906 1_554
Ca2 Si9 3.147063 1_655
Ca2 Si9 3.147063 1_555
Ca3 Si6 3.023388 1_555
Ca3 Si0 3.031858 1_555
Ca3 Si0 3.031858 1_655
Ca3 Si10 3.092906 1_555
Ca3 Si8 3.147063 1_545
Ca3 Si8 3.147063 1_645
Ca4 Si7 3.054797 1_455
Ca4 Si7 3.054797 1_555
Ca4 Si11 3.119063 1_555
Ca4 Si11 3.119063 1_455
Ca5 Si6 3.054797 1_455
Ca5 Si6 3.054797 1_555
Ca5 Si10 3.119063 1_555
Ca5 Si10 3.119063 1_455
Ca6 Si5 3.054797 1_555
Ca6 Si5 3.054797 1_655
Ca6 Si9 3.119063 1_555
Ca6 Si9 3.119063 1_655
Ca7 Si4 3.054797 1_655
Ca7 Si4 3.054797 1_555
Ca7 Si8 3.119063 1_655
Ca7 Si8 3.119063 1_555
Ca8 Si3 3.020137 1_445
Ca8 Si3 3.020137 1_545
Ca8 Si1 3.067802 1_556
Ca8 Si7 3.269581 1_455
Ca8 Si7 3.269581 1_555
Ca9 Si2 3.020137 1_555
Ca9 Si2 3.020137 1_455
Ca9 Si0 3.067802 1_555
Ca9 Si6 3.269581 1_455
Ca9 Si6 3.269581 1_555
Ca10 Si1 3.020137 1_565
Ca10 Si1 3.020137 1_665
Ca10 Si3 3.067802 1_554
Ca10 Si5 3.269581 1_555
Ca10 Si5 3.269581 1_655
Ca11 Si0 3.020137 1_555
Ca11 Si0 3.020137 1_655
Ca11 Si2 3.067802 1_555
Ca11 Si4 3.269581 1_655
Ca11 Si4 3.269581 1_555
Si0 Si6 2.414236 1_455
Si0 Si6 2.414236 1_555
Si1 Si7 2.414236 1_554
Si1 Si7 2.414236 1_454
Si2 Si4 2.414236 1_655
Si2 Si4 2.414236 1_555
Si3 Si5 2.414236 1_656
Si3 Si5 2.414236 1_556
Si4 Si8 2.544652 1_555
Si5 Si9 2.544652 1_555
Si10 Si8 2.396279 1_645
Si10 Si8 2.396279 1_545
Si10 Si6 2.544652 1_555
Si11 Si9 2.396279 1_656
Si11 Si9 2.396279 1_556
Si11 Si7 2.544652 1_555
