# generated using pymatgen
data_Fe2Ni3N4
_symmetry_space_group_name_H-M   'P 1'
_cell_length_a   5.58484080
_cell_length_b   6.92442226
_cell_length_c   5.51168370
_cell_angle_alpha   90.00000071
_cell_angle_beta   93.06786932
_cell_angle_gamma   128.31102793
_symmetry_Int_Tables_number   1
_chemical_formula_structural   Fe2Ni3N4
_chemical_formula_sum   'Fe4 Ni6 N8'
_cell_volume   166.85758689
_cell_formula_units_Z   2
loop_
 _symmetry_equiv_pos_site_id
 _symmetry_equiv_pos_as_xyz
  1  'x, y, z'
loop_
 _atom_site_type_symbol
 _atom_site_label
 _atom_site_symmetry_multiplicity
 _atom_site_fract_x
 _atom_site_fract_y
 _atom_site_fract_z
 _atom_site_occupancy
  Fe  Fe0  1  0.60617900  0.16819800  0.64735100  1
  Fe  Fe1  1  0.39382100  0.56201900  0.85264900  1
  Fe  Fe2  1  0.39382100  0.83180200  0.35264900  1
  Fe  Fe3  1  0.60617900  0.43798100  0.14735100  1
  Ni  Ni0  1  0.22988600  0.00429500  0.01143200  1
  Ni  Ni1  1  0.77011400  0.77440800  0.48856800  1
  Ni  Ni2  1  0.77011400  0.99570500  0.98856800  1
  Ni  Ni3  1  0.22988600  0.22559200  0.51143200  1
  Ni  Ni4  1  0.00000000  0.63864300  0.75000000  1
  Ni  Ni5  1  0.00000000  0.36135700  0.25000000  1
  N  N0  1  0.20117700  0.92122800  0.52965200  1
  N  N1  1  0.79882300  0.72005100  0.97034800  1
  N  N2  1  0.79882300  0.07877200  0.47034800  1
  N  N3  1  0.20117700  0.27994900  0.02965200  1
  N  N4  1  0.67415700  0.24426900  0.97689100  1
  N  N5  1  0.32584300  0.57011200  0.52310900  1
  N  N6  1  0.32584300  0.75573100  0.02310900  1
  N  N7  1  0.67415700  0.42988800  0.47689100  1
loop_
_geom_bond_atom_site_label_1
_geom_bond_atom_site_label_2
_geom_bond_distance
_geom_bond_site_symmetry_2
Fe0 N4 1.843600 1_555
Fe0 N2 1.852321 1_555
Fe0 N7 1.869651 1_555
Fe0 N0 1.873096 1_545
Fe1 N5 1.843600 1_555
Fe1 N3 1.852321 1_556
Fe1 N6 1.869651 1_556
Fe1 N1 1.873096 1_555
Fe2 N6 1.843600 1_555
Fe2 N0 1.852321 1_555
Fe2 N5 1.869651 1_555
Fe2 N2 1.873096 1_565
Fe3 N7 1.843600 1_555
Fe3 N1 1.852321 1_554
Fe3 N4 1.869651 1_554
Fe3 N3 1.873096 1_555
N0 Ni1 1.946179 1_455
N0 Ni4 1.996598 1_555
N0 Ni3 2.015017 1_565
N1 Ni0 1.946180 1_666
N1 Ni4 1.996598 1_655
N1 Ni2 2.015011 1_555
N2 Ni3 1.946179 1_655
N2 Ni5 1.996598 1_655
N2 Ni1 2.015017 1_545
N3 Ni2 1.946180 1_444
N3 Ni5 1.996598 1_555
N3 Ni0 2.015011 1_555
N4 Ni0 1.972915 1_556
N4 Ni5 2.027887 1_656
N4 Ni2 2.096107 1_545
N4 Ni4 2.532774 1_655
N5 Ni1 1.972916 1_555
N5 Ni5 2.027887 1_555
N5 Ni3 2.096100 1_555
N5 Ni4 2.532774 1_555
N6 Ni2 1.972915 1_554
N6 Ni4 2.027887 1_554
N6 Ni0 2.096107 1_565
N6 Ni5 2.532774 1_555
N7 Ni3 1.972916 1_555
N7 Ni4 2.027887 1_655
N7 Ni1 2.096100 1_555
N7 Ni5 2.532774 1_655
