# generated using pymatgen
data_BaCaMg6
_symmetry_space_group_name_H-M   'P 1'
_cell_length_a   5.46792800
_cell_length_b   7.05286900
_cell_length_c   12.22682400
_cell_angle_alpha   90.00000000
_cell_angle_beta   90.00000000
_cell_angle_gamma   90.00000000
_symmetry_Int_Tables_number   1
_chemical_formula_structural   BaCaMg6
_chemical_formula_sum   'Ba2 Ca2 Mg12'
_cell_volume   471.52233089
_cell_formula_units_Z   2
loop_
 _symmetry_equiv_pos_site_id
 _symmetry_equiv_pos_as_xyz
  1  'x, y, z'
loop_
 _atom_site_type_symbol
 _atom_site_label
 _atom_site_symmetry_multiplicity
 _atom_site_fract_x
 _atom_site_fract_y
 _atom_site_fract_z
 _atom_site_occupancy
  Ba  Ba0  1  0.50000000  0.50000000  0.15947900  1
  Ba  Ba1  1  0.50000000  0.00000000  0.65947900  1
  Ca  Ca0  1  0.00000000  0.50000000  0.34547700  1
  Ca  Ca1  1  0.00000000  0.00000000  0.84547700  1
  Mg  Mg0  1  0.00000000  0.76506400  0.08160200  1
  Mg  Mg1  1  0.00000000  0.23493600  0.08160200  1
  Mg  Mg2  1  0.00000000  0.00000000  0.33375900  1
  Mg  Mg3  1  0.50000000  0.25157400  0.41757700  1
  Mg  Mg4  1  0.50000000  0.74842600  0.41757700  1
  Mg  Mg5  1  0.50000000  0.00000000  0.16292800  1
  Mg  Mg6  1  0.00000000  0.26506400  0.58160200  1
  Mg  Mg7  1  0.00000000  0.73493600  0.58160200  1
  Mg  Mg8  1  0.00000000  0.50000000  0.83375900  1
  Mg  Mg9  1  0.50000000  0.75157400  0.91757700  1
  Mg  Mg10  1  0.50000000  0.24842600  0.91757700  1
  Mg  Mg11  1  0.50000000  0.50000000  0.66292800  1
loop_
_geom_bond_atom_site_label_1
_geom_bond_atom_site_label_2
_geom_bond_distance
_geom_bond_site_symmetry_2
Ba0 Mg0 3.446173 1_555
Ba0 Mg0 3.446173 1_655
Ba0 Mg1 3.446173 1_655
Ba0 Mg1 3.446173 1_555
Ba0 Mg9 3.449080 1_554
Ba0 Mg10 3.449080 1_554
Ba0 Mg5 3.526687 1_555
Ba0 Mg5 3.526687 1_565
Ba0 Ca0 3.556176 1_655
Ba0 Ca0 3.556176 1_555
Ba0 Mg4 3.609497 1_555
Ba0 Mg3 3.609497 1_555
Ba1 Mg6 3.446173 1_555
Ba1 Mg6 3.446173 1_655
Ba1 Mg7 3.446173 1_645
Ba1 Mg7 3.446173 1_545
Ba1 Mg3 3.449080 1_555
Ba1 Mg4 3.449080 1_545
Ba1 Mg11 3.526687 1_545
Ba1 Mg11 3.526687 1_555
Ba1 Ca1 3.556176 1_655
Ba1 Ca1 3.556176 1_555
Ba1 Mg10 3.609497 1_555
Ba1 Mg9 3.609497 1_545
Ca0 Mg7 3.328764 1_555
Ca0 Mg6 3.328764 1_555
Ca0 Mg4 3.364760 1_555
Ca0 Mg4 3.364760 1_455
Ca0 Mg3 3.364760 1_455
Ca0 Mg3 3.364760 1_555
Ca0 Mg2 3.529344 1_565
Ca0 Mg2 3.529344 1_555
Ca0 Mg0 3.728839 1_555
Ca0 Mg1 3.728839 1_555
Ca1 Mg1 3.328764 1_556
Ca1 Mg0 3.328764 1_546
Ca1 Mg10 3.364760 1_455
Ca1 Mg10 3.364760 1_555
Ca1 Mg9 3.364760 1_445
Ca1 Mg9 3.364760 1_545
Ca1 Mg8 3.529344 1_555
Ca1 Mg8 3.529344 1_545
Ca1 Mg6 3.728839 1_555
Ca1 Mg7 3.728839 1_545
Mg0 Mg1 3.313946 1_565
Mg0 Mg5 3.347965 1_565
Mg0 Mg5 3.347965 1_465
Mg0 Mg9 3.392000 1_454
Mg0 Mg9 3.392000 1_554
Mg0 Mg2 3.500134 1_565
Mg0 Mg8 3.560590 1_554
Mg1 Mg5 3.347965 1_455
Mg1 Mg5 3.347965 1_555
Mg1 Mg10 3.392000 1_454
Mg1 Mg10 3.392000 1_554
Mg1 Mg2 3.500134 1_555
Mg1 Mg8 3.560590 1_554
Mg2 Mg3 3.416583 1_455
Mg2 Mg3 3.416583 1_555
Mg2 Mg4 3.416583 1_445
Mg2 Mg4 3.416583 1_545
Mg2 Mg5 3.440540 1_455
Mg2 Mg5 3.440540 1_555
Mg2 Mg6 3.560590 1_555
Mg2 Mg7 3.560590 1_545
Mg3 Mg6 3.392000 1_555
Mg3 Mg6 3.392000 1_655
Mg3 Mg4 3.504232 1_555
Mg3 Mg4 3.548637 1_545
Mg3 Mg5 3.583628 1_555
Mg4 Mg7 3.392000 1_655
Mg4 Mg7 3.392000 1_555
Mg4 Mg5 3.583628 1_565
Mg5 Mg9 3.474060 1_544
Mg6 Mg7 3.313946 1_555
Mg6 Mg8 3.500134 1_555
Mg7 Mg8 3.500134 1_555
Mg8 Mg9 3.416583 1_455
Mg8 Mg9 3.416583 1_555
Mg10 Mg8 3.416583 1_655
Mg10 Mg8 3.416583 1_555
Mg10 Mg5 3.474060 1_556
Mg10 Mg9 3.504232 1_545
Mg10 Mg9 3.548637 1_555
Mg10 Mg11 3.583628 1_555
Mg11 Mg7 3.347965 1_655
Mg11 Mg7 3.347965 1_555
Mg11 Mg6 3.347965 1_555
Mg11 Mg6 3.347965 1_655
Mg11 Mg8 3.440540 1_555
Mg11 Mg8 3.440540 1_655
Mg11 Mg4 3.474060 1_555
Mg11 Mg3 3.474060 1_555
Mg11 Mg9 3.583628 1_555
