# generated using pymatgen
data_CsDySiS4
_symmetry_space_group_name_H-M   'P 1'
_cell_length_a   6.40610900
_cell_length_b   6.74577200
_cell_length_c   18.04430700
_cell_angle_alpha   90.00000000
_cell_angle_beta   90.00000000
_cell_angle_gamma   90.00000000
_symmetry_Int_Tables_number   1
_chemical_formula_structural   CsDySiS4
_chemical_formula_sum   'Cs4 Dy4 Si4 S16'
_cell_volume   779.76940236
_cell_formula_units_Z   4
loop_
 _symmetry_equiv_pos_site_id
 _symmetry_equiv_pos_as_xyz
  1  'x, y, z'
loop_
 _atom_site_type_symbol
 _atom_site_label
 _atom_site_symmetry_multiplicity
 _atom_site_fract_x
 _atom_site_fract_y
 _atom_site_fract_z
 _atom_site_occupancy
  Cs  Cs0  1  0.50157100  0.49352000  0.96692600  1
  Cs  Cs1  1  0.99842900  0.50648000  0.46692600  1
  Cs  Cs2  1  0.00157100  0.00648000  0.03307400  1
  Cs  Cs3  1  0.49842900  0.99352000  0.53307400  1
  Dy  Dy0  1  0.29188200  0.47949600  0.22864300  1
  Dy  Dy1  1  0.20811800  0.52050400  0.72864300  1
  Dy  Dy2  1  0.79188200  0.02050400  0.77135700  1
  Dy  Dy3  1  0.70811800  0.97949600  0.27135700  1
  Si  Si0  1  0.79088300  0.51733700  0.16967000  1
  Si  Si1  1  0.70911700  0.48266300  0.66967000  1
  Si  Si2  1  0.29088300  0.98266300  0.83033000  1
  Si  Si3  1  0.20911700  0.01733700  0.33033000  1
  S  S0  1  0.05333800  0.51106400  0.09887400  1
  S  S1  1  0.44666200  0.48893600  0.59887400  1
  S  S2  1  0.55333800  0.98893600  0.90112600  1
  S  S3  1  0.94666200  0.01106400  0.40112600  1
  S  S4  1  0.60491500  0.42298600  0.77936300  1
  S  S5  1  0.89508500  0.57701400  0.27936300  1
  S  S6  1  0.10491500  0.07701400  0.22063700  1
  S  S7  1  0.39508500  0.92298600  0.72063700  1
  S  S8  1  0.56825300  0.74730200  0.14895700  1
  S  S9  1  0.93174700  0.25269800  0.64895700  1
  S  S10  1  0.06825300  0.75269800  0.85104300  1
  S  S11  1  0.43174700  0.24730200  0.35104300  1
  S  S12  1  0.60463500  0.25430400  0.15866000  1
  S  S13  1  0.89536500  0.74569600  0.65866000  1
  S  S14  1  0.10463500  0.24569600  0.84134000  1
  S  S15  1  0.39536500  0.75430400  0.34134000  1
loop_
_geom_bond_atom_site_label_1
_geom_bond_atom_site_label_2
_geom_bond_distance
_geom_bond_site_symmetry_2
Cs0 S4 3.481256 1_555
Cs0 S2 3.562080 1_555
Cs0 S2 3.620167 1_545
Cs0 S8 3.728541 1_556
Cs0 S0 3.732003 1_556
Cs0 S14 3.794202 1_555
Cs0 S12 3.874210 1_556
Cs0 S10 3.890330 1_555
Cs1 S5 3.481256 1_555
Cs1 S3 3.562080 1_555
Cs1 S3 3.620167 1_565
Cs1 S9 3.728541 1_555
Cs1 S1 3.732003 1_655
Cs1 S15 3.794202 1_655
Cs1 S13 3.874210 1_555
Cs1 S11 3.890330 1_655
Cs2 S6 3.481256 1_555
Cs2 S0 3.562080 1_545
Cs2 S0 3.620167 1_555
Cs2 S10 3.728541 1_544
Cs2 S2 3.732003 1_444
Cs2 S12 3.794202 1_455
Cs2 S14 3.874210 1_554
Cs2 S8 3.890330 1_445
Cs3 S7 3.481256 1_555
Cs3 S1 3.562080 1_565
Cs3 S1 3.620167 1_555
Cs3 S11 3.728541 1_565
Cs3 S3 3.732003 1_565
Cs3 S13 3.794202 1_555
Cs3 S15 3.874210 1_555
Cs3 S9 3.890330 1_565
Dy0 S5 2.780599 1_455
Dy0 S0 2.804213 1_555
Dy0 S12 2.813615 1_555
Dy0 S15 2.830423 1_555
Dy0 S11 2.852052 1_555
Dy0 S8 2.909585 1_555
Dy0 S6 2.971016 1_555
Dy1 S4 2.780599 1_555
Dy1 S1 2.804213 1_555
Dy1 S13 2.813615 1_455
Dy1 S14 2.830423 1_555
Dy1 S10 2.852052 1_555
Dy1 S9 2.909585 1_455
Dy1 S7 2.971016 1_555
Dy2 S7 2.780599 1_545
Dy2 S2 2.804213 1_545
Dy2 S14 2.813615 1_655
Dy2 S13 2.830423 1_545
Dy2 S9 2.852052 1_555
Dy2 S10 2.909585 1_645
Dy2 S4 2.971016 1_555
Dy3 S6 2.780599 1_665
Dy3 S3 2.804213 1_565
Dy3 S15 2.813615 1_555
Dy3 S12 2.830423 1_565
Dy3 S8 2.852052 1_555
Dy3 S11 2.909585 1_565
Dy3 S5 2.971016 1_555
S0 Si0 2.111996 1_455
S1 Si1 2.111996 1_555
S2 Si2 2.111996 1_555
S3 Si3 2.111996 1_655
S4 Si1 2.127303 1_555
S5 Si0 2.127303 1_555
S6 Si3 2.127303 1_555
S7 Si2 2.127303 1_555
S8 Si0 2.140145 1_555
S9 Si1 2.140145 1_555
S10 Si2 2.140145 1_555
S11 Si3 2.140145 1_555
S12 Si0 2.147410 1_555
S13 Si1 2.147410 1_555
S14 Si2 2.147410 1_545
S15 Si3 2.147410 1_565
