# generated using pymatgen
data_Cs2Mo3O10
_symmetry_space_group_name_H-M   'P 1'
_cell_length_a   8.42458802
_cell_length_b   8.42458802
_cell_length_c   9.48661737
_cell_angle_alpha   83.73034056
_cell_angle_beta   83.73034056
_cell_angle_gamma   60.46130725
_symmetry_Int_Tables_number   1
_chemical_formula_structural   Cs2Mo3O10
_chemical_formula_sum   'Cs4 Mo6 O20'
_cell_volume   581.08842722
_cell_formula_units_Z   2
loop_
 _symmetry_equiv_pos_site_id
 _symmetry_equiv_pos_as_xyz
  1  'x, y, z'
loop_
 _atom_site_type_symbol
 _atom_site_label
 _atom_site_symmetry_multiplicity
 _atom_site_fract_x
 _atom_site_fract_y
 _atom_site_fract_z
 _atom_site_occupancy
  Cs  Cs0  1  0.24325054  0.40002654  0.66085359  1
  Cs  Cs1  1  0.59997346  0.75674946  0.83914641  1
  Cs  Cs2  1  0.75674946  0.59997346  0.33914641  1
  Cs  Cs3  1  0.40002654  0.24325054  0.16085359  1
  Mo  Mo0  1  0.72903016  0.27096984  0.75000000  1
  Mo  Mo1  1  0.27096984  0.72903016  0.25000000  1
  Mo  Mo2  1  0.03698170  0.17280358  0.97557422  1
  Mo  Mo3  1  0.82719642  0.96301830  0.52442578  1
  Mo  Mo4  1  0.96301830  0.82719642  0.02442578  1
  Mo  Mo5  1  0.17280358  0.03698170  0.47557422  1
  O  O0  1  0.65032205  0.44440778  0.62003291  1
  O  O1  1  0.55559222  0.34967795  0.87996709  1
  O  O2  1  0.34967795  0.55559222  0.37996709  1
  O  O3  1  0.44440778  0.65032205  0.12003291  1
  O  O4  1  0.90643198  0.32559218  0.81622361  1
  O  O5  1  0.67440782  0.09356802  0.68377639  1
  O  O6  1  0.09356802  0.67440782  0.18377639  1
  O  O7  1  0.32559218  0.90643198  0.31622361  1
  O  O8  1  0.90574220  0.04637249  0.90434202  1
  O  O9  1  0.95362751  0.09425780  0.59565798  1
  O  O10  1  0.09425780  0.95362751  0.09565798  1
  O  O11  1  0.04637249  0.90574220  0.40434202  1
  O  O12  1  0.95173784  0.32865487  0.10280622  1
  O  O13  1  0.67134513  0.04826216  0.39719378  1
  O  O14  1  0.04826216  0.67134513  0.89719378  1
  O  O15  1  0.32865487  0.95173784  0.60280622  1
  O  O16  1  0.25502356  0.13157585  0.92155718  1
  O  O17  1  0.86842415  0.74497644  0.57844282  1
  O  O18  1  0.74497644  0.86842415  0.07844282  1
  O  O19  1  0.13157585  0.25502356  0.42155718  1
loop_
_geom_bond_atom_site_label_1
_geom_bond_atom_site_label_2
_geom_bond_distance
_geom_bond_site_symmetry_2
Cs0 O2 3.081558 1_555
Cs0 O14 3.092340 1_555
Cs0 O19 3.120294 1_555
Cs0 O16 3.138795 1_555
Cs0 O17 3.165824 1_455
Cs0 O5 3.272579 1_555
Cs0 O4 3.355082 1_455
Cs0 O1 3.365448 1_555
Cs0 O15 3.573847 1_545
Cs0 O0 3.604613 1_555
Cs1 O3 3.081558 1_556
Cs1 O15 3.092340 1_555
Cs1 O18 3.120294 1_556
Cs1 O17 3.138795 1_555
Cs1 O16 3.165824 1_565
Cs1 O4 3.272579 1_555
Cs1 O5 3.355082 1_565
Cs1 O0 3.365448 1_555
Cs1 O14 3.573847 1_655
Cs1 O1 3.604613 1_555
Cs2 O0 3.081558 1_555
Cs2 O12 3.092340 1_555
Cs2 O17 3.120294 1_555
Cs2 O18 3.138795 1_555
Cs2 O19 3.165824 1_655
Cs2 O7 3.272579 1_555
Cs2 O6 3.355082 1_655
Cs2 O3 3.365448 1_555
Cs2 O13 3.573847 1_565
Cs2 O2 3.604613 1_555
Cs3 O1 3.081558 1_554
Cs3 O13 3.092340 1_555
Cs3 O16 3.120294 1_554
Cs3 O19 3.138795 1_555
Cs3 O18 3.165824 1_545
Cs3 O6 3.272579 1_555
Cs3 O7 3.355082 1_545
Cs3 O2 3.365448 1_555
Cs3 O12 3.573847 1_455
Cs3 O3 3.604613 1_555
Mo0 O0 1.710131 1_555
Mo0 O1 1.710131 1_555
Mo0 O4 1.945875 1_555
Mo0 O5 1.945875 1_555
Mo0 O9 2.243617 1_555
Mo0 O8 2.243617 1_555
Mo1 O3 1.710131 1_555
Mo1 O2 1.710131 1_555
Mo1 O6 1.945875 1_555
Mo1 O7 1.945875 1_555
Mo1 O10 2.243617 1_555
Mo1 O11 2.243617 1_555
Mo2 O12 1.709852 1_456
Mo2 O16 1.720949 1_555
Mo2 O4 1.921962 1_455
Mo2 O10 1.929284 1_546
Mo2 O8 2.072478 1_455
Mo3 O13 1.709852 1_565
Mo3 O17 1.720949 1_555
Mo3 O5 1.921962 1_565
Mo3 O11 1.929284 1_655
Mo3 O9 2.072478 1_565
Mo4 O14 1.709852 1_654
Mo4 O18 1.720949 1_555
Mo4 O6 1.921962 1_655
Mo4 O8 1.929284 1_564
Mo4 O10 2.072478 1_655
Mo5 O15 1.709852 1_545
Mo5 O19 1.720949 1_555
Mo5 O7 1.921962 1_545
Mo5 O9 1.929284 1_455
Mo5 O11 2.072478 1_545
