# generated using pymatgen
data_Li5Mn2CoO8
_symmetry_space_group_name_H-M   'P 1'
_cell_length_a   5.03241228
_cell_length_b   5.73729425
_cell_length_c   5.83131943
_cell_angle_alpha   60.65736337
_cell_angle_beta   106.02603398
_cell_angle_gamma   106.48993262
_symmetry_Int_Tables_number   1
_chemical_formula_structural   Li5Mn2CoO8
_chemical_formula_sum   'Li5 Mn2 Co1 O8'
_cell_volume   138.82494879
_cell_formula_units_Z   1
loop_
 _symmetry_equiv_pos_site_id
 _symmetry_equiv_pos_as_xyz
  1  'x, y, z'
loop_
 _atom_site_type_symbol
 _atom_site_label
 _atom_site_symmetry_multiplicity
 _atom_site_fract_x
 _atom_site_fract_y
 _atom_site_fract_z
 _atom_site_occupancy
  Li  Li0  1  0.49802800  0.26398300  0.73361100  1
  Li  Li1  1  0.50258000  0.74986900  0.74769900  1
  Li  Li2  1  0.50197200  0.73601700  0.26638800  1
  Li  Li3  1  0.49742000  0.25013000  0.25230100  1
  Li  Li4  1  0.00000000  0.50000000  0.50000000  1
  Mn  Mn0  1  0.00000000  0.00000300  0.00000000  1
  Mn  Mn1  1  0.00000000  0.50000000  0.00000000  1
  Co  Co0  1  0.00000000  0.00000000  0.50000000  1
  O  O0  1  0.23603600  0.85493900  0.90677800  1
  O  O1  1  0.22475900  0.36210900  0.88828200  1
  O  O2  1  0.21890000  0.36040500  0.35883600  1
  O  O3  1  0.21662500  0.89139000  0.35757200  1
  O  O4  1  0.78110000  0.63959400  0.64116400  1
  O  O5  1  0.78337500  0.10861000  0.64242800  1
  O  O6  1  0.76396400  0.14506000  0.09322200  1
  O  O7  1  0.77524100  0.63789100  0.11171800  1
loop_
_geom_bond_atom_site_label_1
_geom_bond_atom_site_label_2
_geom_bond_distance
_geom_bond_site_symmetry_2
Li0 O6 2.054402 1_556
Li0 O4 2.122879 1_555
Li0 O2 2.148614 1_555
Li0 O1 2.154908 1_555
Li0 O5 2.179956 1_555
Li0 O0 2.218453 1_545
Li1 O4 2.029826 1_555
Li1 O5 2.049249 1_565
Li1 O7 2.087365 1_556
Li1 O1 2.157711 1_555
Li1 O0 2.171928 1_555
Li1 O3 2.225066 1_555
Li2 O0 2.054398 1_554
Li2 O2 2.122883 1_555
Li2 O4 2.148618 1_555
Li2 O7 2.154903 1_555
Li2 O3 2.179960 1_555
Li2 O6 2.218449 1_565
Li3 O2 2.029826 1_555
Li3 O3 2.049245 1_545
Li3 O1 2.087365 1_554
Li3 O7 2.157715 1_555
Li3 O6 2.171928 1_555
Li3 O5 2.225066 1_555
Li4 O4 2.044559 1_455
Li4 O2 2.044563 1_555
Li4 O3 2.050122 1_555
Li4 O5 2.050122 1_455
Li4 O7 2.090502 1_455
Li4 O1 2.090502 1_555
Mn0 O6 1.939118 1_455
Mn0 O0 1.939148 1_544
Mn0 O1 1.940676 1_554
Mn0 O7 1.940701 1_445
Mn0 O3 1.944629 1_545
Mn0 O5 1.944631 1_454
Mn1 O1 1.936380 1_554
Mn1 O7 1.936380 1_455
Mn1 O0 1.936943 1_554
Mn1 O6 1.936948 1_455
Mn1 O4 1.954254 1_454
Mn1 O2 1.954254 1_555
Co0 O5 1.912925 1_455
Co0 O3 1.912925 1_545
Co0 O2 1.925128 1_555
Co0 O4 1.925132 1_445
Co0 O6 2.191098 1_455
Co0 O0 2.191098 1_545
