# generated using pymatgen
data_Ni12Mo18P7
_symmetry_space_group_name_H-M   'P 1'
_cell_length_a   7.74028215
_cell_length_b   7.74028215
_cell_length_c   18.83604734
_cell_angle_alpha   90.00000000
_cell_angle_beta   90.00000000
_cell_angle_gamma   120.00000000
_symmetry_Int_Tables_number   1
_chemical_formula_structural   Ni12Mo18P7
_chemical_formula_sum   'Ni24 Mo36 P14'
_cell_volume   977.31370574
_cell_formula_units_Z   2
loop_
 _symmetry_equiv_pos_site_id
 _symmetry_equiv_pos_as_xyz
  1  'x, y, z'
loop_
 _atom_site_type_symbol
 _atom_site_label
 _atom_site_symmetry_multiplicity
 _atom_site_fract_x
 _atom_site_fract_y
 _atom_site_fract_z
 _atom_site_occupancy
  Ni  Ni0  1  0.55732700  0.11465300  0.85690600  1
  Ni  Ni1  1  0.22494500  0.44988900  0.19373500  1
  Ni  Ni2  1  0.89321100  0.78642200  0.52993500  1
  Ni  Ni3  1  0.88534700  0.44267300  0.85690600  1
  Ni  Ni4  1  0.55011100  0.77505500  0.19373500  1
  Ni  Ni5  1  0.21357800  0.10678900  0.52993500  1
  Ni  Ni6  1  0.66666700  0.33333300  0.75361100  1
  Ni  Ni7  1  0.33333300  0.66666700  0.08489300  1
  Ni  Ni8  1  0.00000000  0.00000000  0.42020700  1
  Ni  Ni9  1  0.55732700  0.44267300  0.85690600  1
  Ni  Ni10  1  0.22494500  0.77505500  0.19373500  1
  Ni  Ni11  1  0.89321100  0.10678900  0.52993500  1
  Ni  Ni12  1  0.10715400  0.21430800  0.72353000  1
  Ni  Ni13  1  0.77506700  0.55013500  0.05576700  1
  Ni  Ni14  1  0.44204400  0.88408800  0.39025600  1
  Ni  Ni15  1  0.78569200  0.89284600  0.72353000  1
  Ni  Ni16  1  0.44986500  0.22493300  0.05576700  1
  Ni  Ni17  1  0.11591200  0.55795600  0.39025600  1
  Ni  Ni18  1  0.00000000  0.00000000  0.83072000  1
  Ni  Ni19  1  0.66666700  0.33333300  0.16473000  1
  Ni  Ni20  1  0.33333300  0.66666700  0.49595500  1
  Ni  Ni21  1  0.10715400  0.89284600  0.72353000  1
  Ni  Ni22  1  0.77506700  0.22493300  0.05576700  1
  Ni  Ni23  1  0.44204400  0.55795600  0.39025600  1
  Mo  Mo0  1  0.85899600  0.71799100  0.92817400  1
  Mo  Mo1  1  0.52620300  0.05240700  0.26359700  1
  Mo  Mo2  1  0.21162600  0.42325300  0.60610800  1
  Mo  Mo3  1  0.45508700  0.54491300  0.72482300  1
  Mo  Mo4  1  0.13959000  0.86041000  0.06945100  1
  Mo  Mo5  1  0.80840800  0.19159200  0.40375700  1
  Mo  Mo6  1  0.28200900  0.14100400  0.92817400  1
  Mo  Mo7  1  0.94759300  0.47379700  0.26359700  1
  Mo  Mo8  1  0.57674700  0.78837400  0.60610800  1
  Mo  Mo9  1  0.45508700  0.91017300  0.72482300  1
  Mo  Mo10  1  0.13959000  0.27918000  0.06945100  1
  Mo  Mo11  1  0.80840800  0.61681700  0.40375700  1
  Mo  Mo12  1  0.85899600  0.14100400  0.92817400  1
  Mo  Mo13  1  0.52620300  0.47379700  0.26359700  1
  Mo  Mo14  1  0.21162600  0.78837400  0.60610800  1
  Mo  Mo15  1  0.08982700  0.54491300  0.72482300  1
  Mo  Mo16  1  0.72082000  0.86041000  0.06945100  1
  Mo  Mo17  1  0.38318300  0.19159200  0.40375700  1
  Mo  Mo18  1  0.23736000  0.11868100  0.19099200  1
  Mo  Mo19  1  0.90992900  0.45496500  0.52762300  1
  Mo  Mo20  1  0.57090100  0.78545000  0.85533300  1
  Mo  Mo21  1  0.88131900  0.76264000  0.19099200  1
  Mo  Mo22  1  0.54503500  0.09007100  0.52762300  1
  Mo  Mo23  1  0.21455000  0.42909900  0.85533300  1
  Mo  Mo24  1  0.11950100  0.88049900  0.31030600  1
  Mo  Mo25  1  0.78666000  0.21334000  0.64466800  1
  Mo  Mo26  1  0.45343700  0.54656300  0.97468700  1
  Mo  Mo27  1  0.11950100  0.23900200  0.31030600  1
  Mo  Mo28  1  0.78666000  0.57332100  0.64466800  1
  Mo  Mo29  1  0.45343700  0.90687300  0.97468700  1
  Mo  Mo30  1  0.88131900  0.11868100  0.19099200  1
  Mo  Mo31  1  0.54503500  0.45496500  0.52762300  1
  Mo  Mo32  1  0.21455000  0.78545000  0.85533300  1
  Mo  Mo33  1  0.76099800  0.88049900  0.31030600  1
  Mo  Mo34  1  0.42667900  0.21334000  0.64466800  1
  Mo  Mo35  1  0.09312700  0.54656300  0.97468700  1
  P  P0  1  0.83297600  0.16702400  0.78821000  1
  P  P1  1  0.50168000  0.49832000  0.12418000  1
  P  P2  1  0.16798900  0.83201100  0.46213700  1
  P  P3  1  0.83297600  0.66595200  0.78821000  1
  P  P4  1  0.50168000  0.00335900  0.12418000  1
  P  P5  1  0.16798900  0.33597600  0.46213700  1
  P  P6  1  0.66666700  0.33333300  0.95727200  1
  P  P7  1  0.33333300  0.66666700  0.29393400  1
  P  P8  1  0.00000000  0.00000000  0.62673000  1
  P  P9  1  0.33404800  0.16702400  0.78821000  1
  P  P10  1  0.99664100  0.49832000  0.12418000  1
  P  P11  1  0.66402400  0.83201100  0.46213700  1
  P  P12  1  0.00000000  0.00000000  0.99817800  1
  P  P13  1  0.66666700  0.33333300  0.33457500  1
loop_
_geom_bond_atom_site_label_1
_geom_bond_atom_site_label_2
_geom_bond_distance
_geom_bond_site_symmetry_2
Ni0 P0 2.350749 1_555
Ni0 P9 2.350755 1_555
Ni0 P6 2.392231 1_555
Ni0 Ni6 2.436065 1_555
Ni0 Ni9 2.538967 1_555
Ni0 Ni3 2.538967 1_555
Ni1 P10 2.375335 1_455
Ni1 P1 2.375335 1_555
Ni1 P7 2.381947 1_555
Ni1 Ni7 2.512906 1_555
Ni1 Ni4 2.516877 1_555
Ni1 Ni10 2.516877 1_555
Ni2 P8 2.318162 1_665
Ni2 P11 2.351240 1_555
Ni2 P2 2.351252 1_655
Ni2 Ni5 2.479731 1_665
Ni2 Ni8 2.514264 1_665
Ni3 P0 2.350749 1_555
Ni3 P3 2.350755 1_555
Ni3 P6 2.392231 1_555
Ni3 Ni6 2.436065 1_555
Ni3 Ni9 2.538967 1_555
Ni4 P4 2.375335 1_565
Ni4 P1 2.375335 1_555
Ni4 P7 2.381947 1_555
Ni4 Ni7 2.512906 1_555
Ni5 P8 2.318162 1_555
Ni5 P5 2.351240 1_555
Ni5 P2 2.351252 1_545
Ni5 Ni8 2.514264 1_555
Ni6 P0 2.322925 1_555
Ni6 P9 2.322932 1_555
Ni6 P3 2.322932 1_555
Ni6 Ni9 2.436065 1_555
Ni7 P4 2.375163 1_565
Ni7 P10 2.375163 1_455
Ni7 P1 2.375176 1_555
Ni8 P11 2.386612 1_445
Ni8 P5 2.386612 1_555
Ni8 P2 2.386625 1_545
Ni9 P3 2.350751 1_555
Ni9 P9 2.350751 1_555
Ni9 P6 2.392231 1_555
Ni10 P4 2.375335 1_565
Ni10 P10 2.375335 1_455
Ni10 P7 2.381939 1_555
Ni10 Ni7 2.512898 1_555
Ni10 Ni4 2.516877 1_555
Ni11 P8 2.318162 1_655
Ni11 P5 2.351248 1_655
Ni11 P11 2.351248 1_545
Ni11 Ni5 2.479731 1_655
Ni11 Ni2 2.479731 1_545
Ni11 Ni8 2.514264 1_655
Ni12 P0 2.311996 1_455
Ni12 P9 2.311996 1_555
Ni12 P8 2.321261 1_555
Ni12 Ni18 2.477949 1_555
Ni12 Ni15 2.488207 1_445
Ni12 Ni21 2.488207 1_545
Ni13 P1 2.334648 1_555
Ni13 P10 2.334661 1_555
Ni13 P6 2.356695 1_554
Ni13 Ni19 2.514859 1_555
Ni13 Ni16 2.517155 1_555
Ni13 Ni22 2.517155 1_555
Ni14 P7 2.327207 1_555
Ni14 P2 2.374946 1_555
Ni14 P11 2.374959 1_555
Ni14 Ni20 2.467388 1_555
Ni14 Ni23 2.524354 1_555
Ni14 Ni17 2.524354 1_555
Ni15 P0 2.311996 1_565
Ni15 P3 2.311996 1_555
Ni15 P8 2.321261 1_665
Ni15 Ni18 2.477949 1_665
Ni15 Ni21 2.488207 1_655
Ni16 P1 2.334648 1_555
Ni16 P4 2.334661 1_555
Ni16 P6 2.356695 1_554
Ni16 Ni19 2.514859 1_555
Ni16 Ni22 2.517155 1_555
Ni17 P7 2.327207 1_555
Ni17 P2 2.374946 1_555
Ni17 P5 2.374959 1_555
Ni17 Ni20 2.467388 1_555
Ni17 Ni23 2.524354 1_555
Ni18 P0 2.378077 1_455
Ni18 P9 2.378077 1_555
Ni18 P3 2.378077 1_445
Ni18 Ni21 2.477949 1_545
Ni19 P1 2.340071 1_555
Ni19 P10 2.340071 1_555
Ni19 P4 2.340071 1_555
Ni19 Ni22 2.514851 1_555
Ni20 P2 2.306404 1_555
Ni20 P11 2.306424 1_555
Ni20 P5 2.306424 1_555
Ni20 Ni23 2.467392 1_555
Ni21 P3 2.311996 1_455
Ni21 P9 2.311996 1_565
Ni21 P8 2.321261 1_565
Ni22 P4 2.334652 1_555
Ni22 P10 2.334652 1_555
Ni22 P6 2.356687 1_554
Ni23 P7 2.327211 1_555
Ni23 P11 2.374950 1_555
Ni23 P5 2.374950 1_555
Mo0 P12 2.304834 1_665
Mo0 Ni9 2.611444 1_555
Mo0 Ni3 2.611444 1_555
Mo0 Ni18 2.634988 1_665
Mo0 P6 2.636079 1_555
Mo0 Ni13 2.653700 1_556
Mo0 P3 2.659346 1_555
Mo0 Mo26 2.866554 1_555
Mo0 Mo35 2.866554 1_655
Mo0 Mo20 2.879602 1_555
Mo0 Mo32 2.879602 1_655
Mo1 P13 2.309456 1_555
Mo1 Ni10 2.602270 1_545
Mo1 Ni4 2.602278 1_545
Mo1 Ni14 2.639103 1_545
Mo1 P4 2.646567 1_555
Mo1 P7 2.648112 1_545
Mo1 Ni19 2.648431 1_555
Mo1 Mo24 2.875009 1_545
Mo1 Mo33 2.875016 1_545
Mo1 Mo30 2.877285 1_555
Mo1 Mo18 2.877292 1_555
Mo2 Ni12 2.617945 1_555
Mo2 Ni20 2.639573 1_555
Mo2 Mo3 2.768325 1_555
Mo2 P5 2.774234 1_555
Mo2 Mo8 2.826140 1_555
Mo2 Ni11 2.845350 1_455
Mo2 Ni5 2.845353 1_555
Mo2 P8 2.863651 1_555
Mo2 Mo31 2.876146 1_555
Mo2 Mo25 2.939870 1_455
Mo2 Mo34 2.939870 1_555
Mo3 Ni15 2.628718 1_555
Mo3 Ni12 2.628718 1_555
Mo3 Mo8 2.768325 1_555
Mo3 Mo9 2.827215 1_555
Mo3 Ni9 2.840517 1_555
Mo3 P9 2.849277 1_555
Mo3 P3 2.849277 1_555
Mo3 Ni6 2.887925 1_555
Mo3 Mo34 2.889686 1_555
Mo4 P12 2.303157 1_564
Mo4 Ni10 2.605731 1_555
Mo4 Ni7 2.613663 1_555
Mo4 Ni13 2.649327 1_455
Mo4 Ni16 2.649327 1_565
Mo4 P10 2.653472 1_455
Mo4 P4 2.653472 1_565
Mo5 P13 2.304148 1_555
Mo5 Ni8 2.587212 1_655
Mo5 Ni11 2.634627 1_555
Mo5 Ni17 2.649872 1_655
Mo5 Ni14 2.649872 1_545
Mo5 P5 2.663499 1_655
Mo5 P11 2.663499 1_545
Mo6 P12 2.304834 1_555
Mo6 Ni0 2.611444 1_555
Mo6 Ni9 2.611444 1_555
Mo6 Ni18 2.634988 1_555
Mo6 P6 2.636079 1_555
Mo6 Ni16 2.653700 1_556
Mo6 P9 2.659346 1_555
Mo7 P13 2.309456 1_555
Mo7 Ni10 2.602270 1_655
Mo7 Ni1 2.602278 1_655
Mo7 Ni17 2.639103 1_655
Mo7 P10 2.646567 1_555
Mo7 P7 2.648112 1_655
Mo7 Ni19 2.648431 1_555
Mo8 Ni15 2.617945 1_555
Mo8 Ni20 2.639573 1_555
Mo8 Mo9 2.768317 1_555
Mo8 P11 2.774234 1_555
Mo8 Ni11 2.845350 1_565
Mo8 Ni2 2.845353 1_555
Mo8 P8 2.863651 1_665
Mo9 Ni15 2.628714 1_555
Mo9 Ni21 2.628722 1_555
Mo9 Ni0 2.840517 1_565
Mo9 P0 2.849279 1_565
Mo9 P9 2.849284 1_565
Mo9 Ni6 2.887925 1_565
Mo10 P12 2.303157 1_554
Mo10 Ni1 2.605728 1_555
Mo10 Ni7 2.613669 1_555
Mo10 Ni16 2.649322 1_555
Mo10 Ni22 2.649330 1_455
Mo10 P10 2.653466 1_455
Mo10 P1 2.653472 1_555
Mo10 Mo18 2.880503 1_555
Mo10 Mo30 2.880510 1_455
Mo10 Mo35 2.888447 1_554
Mo10 Mo26 2.888451 1_554
Mo11 P13 2.304159 1_555
Mo11 Ni8 2.587205 1_665
Mo11 Ni2 2.634624 1_555
Mo11 Ni23 2.649869 1_555
Mo11 Ni17 2.649877 1_655
Mo11 P11 2.663480 1_555
Mo11 P2 2.663497 1_655
Mo11 Mo33 2.854413 1_555
Mo11 Mo24 2.854417 1_655
Mo11 Mo19 2.935123 1_555
Mo11 Mo31 2.935123 1_555
Mo12 P12 2.304829 1_655
Mo12 Ni0 2.611444 1_555
Mo12 Ni3 2.611444 1_555
Mo12 Ni18 2.634983 1_655
Mo12 P6 2.636079 1_555
Mo12 Ni22 2.653706 1_556
Mo12 P0 2.659347 1_555
Mo12 Mo35 2.866554 1_655
Mo12 Mo29 2.866554 1_545
Mo12 Mo23 2.879602 1_655
Mo12 Mo20 2.879602 1_545
Mo13 P13 2.309467 1_555
Mo13 Ni4 2.602264 1_555
Mo13 Ni1 2.602264 1_555
Mo13 Ni23 2.639100 1_555
Mo13 P1 2.646565 1_555
Mo13 P7 2.648112 1_555
Mo13 Ni19 2.648441 1_555
Mo13 Mo27 2.875010 1_555
Mo13 Mo33 2.875010 1_555
Mo13 Mo21 2.877287 1_555
Mo13 Mo18 2.877287 1_555
Mo14 Ni21 2.617942 1_555
Mo14 Ni20 2.639573 1_555
Mo14 Mo9 2.768325 1_555
Mo14 Mo15 2.768325 1_555
Mo14 P2 2.774230 1_555
Mo14 Mo2 2.826140 1_555
Mo14 Mo8 2.826140 1_555
Mo14 Ni2 2.845347 1_455
Mo14 Ni5 2.845347 1_565
Mo14 P8 2.863644 1_565
Mo14 Mo22 2.876146 1_565
Mo14 Mo19 2.876146 1_455
Mo14 Mo28 2.939870 1_455
Mo14 Mo34 2.939870 1_565
Mo15 Ni12 2.628714 1_555
Mo15 Ni21 2.628722 1_555
Mo15 Mo2 2.768317 1_555
Mo15 Mo9 2.827215 1_555
Mo15 Mo3 2.827215 1_555
Mo15 Ni3 2.840517 1_455
Mo15 P0 2.849279 1_455
Mo15 P3 2.849284 1_455
Mo15 Ni6 2.887925 1_455
Mo15 Mo25 2.889692 1_455
Mo15 Mo28 2.889699 1_455
Mo15 Mo23 2.940099 1_555
Mo15 Mo32 2.940099 1_555
Mo16 P12 2.303157 1_664
Mo16 Ni4 2.605728 1_555
Mo16 Ni7 2.613669 1_555
Mo16 Ni13 2.649322 1_555
Mo16 Ni22 2.649330 1_565
Mo16 P4 2.653466 1_565
Mo16 P1 2.653472 1_555
Mo16 Mo21 2.880503 1_555
Mo16 Mo30 2.880510 1_565
Mo16 Mo29 2.888447 1_554
Mo16 Mo26 2.888451 1_554
Mo17 P13 2.304159 1_555
Mo17 Ni8 2.587205 1_555
Mo17 Ni5 2.634624 1_555
Mo17 Ni23 2.649869 1_555
Mo17 Ni14 2.649877 1_545
Mo17 P5 2.663480 1_555
Mo17 P2 2.663497 1_545
Mo17 Mo27 2.854413 1_555
Mo17 Mo24 2.854417 1_545
Mo17 Mo31 2.935123 1_555
Mo17 Mo22 2.935123 1_555
Mo18 Ni1 2.613528 1_555
Mo18 Ni10 2.613551 1_545
Mo18 Mo30 2.755858 1_455
Mo18 Mo21 2.755858 1_445
Mo18 Mo27 2.756811 1_555
Mo18 Mo24 2.756819 1_545
Mo18 Mo4 2.880511 1_545
Mo18 P1 2.896969 1_555
Mo18 P4 2.896985 1_555
Mo18 Ni16 2.918371 1_555
Mo18 Ni19 2.919972 1_555
Mo19 Ni2 2.633018 1_555
Mo19 Ni11 2.633026 1_555
Mo19 Mo28 2.735740 1_555
Mo19 Mo25 2.735740 1_555
Mo19 Mo31 2.824383 1_555
Mo19 Mo22 2.824383 1_555
Mo19 P2 2.863423 1_655
Mo19 P5 2.863439 1_655
Mo19 Mo2 2.876146 1_655
Mo19 Ni20 2.900201 1_655
Mo19 Ni17 2.932816 1_655
Mo19 Mo5 2.935123 1_555
Mo20 Ni9 2.602417 1_555
Mo20 Ni0 2.602417 1_565
Mo20 Mo23 2.758257 1_555
Mo20 Mo32 2.758257 1_555
Mo20 Mo26 2.760198 1_555
Mo20 Mo29 2.760198 1_555
Mo20 Ni15 2.869943 1_555
Mo20 P3 2.906081 1_555
Mo20 P0 2.906086 1_565
Mo20 Ni18 2.913494 1_665
Mo20 Mo9 2.940099 1_555
Mo20 Mo3 2.940099 1_555
Mo21 Ni4 2.613528 1_555
Mo21 Ni10 2.613551 1_655
Mo21 Mo30 2.755858 1_565
Mo21 Mo33 2.756811 1_555
Mo21 Mo24 2.756819 1_655
Mo21 Mo7 2.877292 1_555
Mo21 Mo4 2.880511 1_655
Mo21 P1 2.896969 1_555
Mo21 P10 2.896985 1_555
Mo21 Ni13 2.918371 1_555
Mo21 Ni19 2.919972 1_555
Mo22 Ni5 2.633018 1_555
Mo22 Ni11 2.633026 1_555
Mo22 Mo25 2.735740 1_555
Mo22 Mo34 2.735740 1_555
Mo22 Mo31 2.824383 1_555
Mo22 P2 2.863423 1_545
Mo22 P11 2.863439 1_545
Mo22 Mo8 2.876146 1_545
Mo22 Ni20 2.900201 1_545
Mo22 Ni14 2.932816 1_545
Mo22 Mo5 2.935123 1_555
Mo23 Ni3 2.602417 1_455
Mo23 Ni9 2.602417 1_555
Mo23 Mo32 2.758257 1_555
Mo23 Mo26 2.760198 1_555
Mo23 Mo35 2.760198 1_555
Mo23 Ni12 2.869943 1_555
Mo23 Mo6 2.879602 1_555
Mo23 P9 2.906081 1_555
Mo23 P0 2.906086 1_455
Mo23 Ni18 2.913494 1_555
Mo23 Mo3 2.940099 1_555
Mo24 Ni10 2.611445 1_555
Mo24 Ni8 2.617639 1_565
Mo24 Mo27 2.774914 1_565
Mo24 Mo33 2.774914 1_455
Mo24 Mo7 2.875009 1_455
Mo24 P7 2.883291 1_555
Mo24 Ni17 2.903818 1_555
Mo24 Ni14 2.903818 1_555
Mo24 P2 2.932845 1_555
Mo25 Ni11 2.590557 1_555
Mo25 Ni6 2.607456 1_555
Mo25 P0 2.774149 1_555
Mo25 Mo28 2.786355 1_555
Mo25 Mo34 2.786355 1_555
Mo25 P8 2.880044 1_655
Mo25 Ni12 2.888247 1_655
Mo25 Ni15 2.888247 1_545
Mo25 Mo9 2.889692 1_545
Mo25 Mo8 2.939870 1_545
Mo26 Ni9 2.619500 1_555
Mo26 Ni7 2.627131 1_556
Mo26 Mo35 2.788901 1_555
Mo26 Mo29 2.788901 1_555
Mo26 Mo6 2.866554 1_555
Mo26 P6 2.877440 1_555
Mo26 P1 2.889181 1_556
Mo26 Ni16 2.908952 1_556
Mo26 Ni13 2.908952 1_556
Mo27 Ni1 2.611441 1_555
Mo27 Ni8 2.617639 1_555
Mo27 Mo30 2.756819 1_455
Mo27 Mo33 2.774914 1_445
Mo27 Mo5 2.854419 1_455
Mo27 Mo7 2.875016 1_455
Mo27 P7 2.883298 1_555
Mo27 Ni23 2.903818 1_555
Mo27 Ni17 2.903818 1_555
Mo27 P5 2.932842 1_555
Mo28 Ni2 2.590553 1_555
Mo28 Ni6 2.607464 1_555
Mo28 Mo31 2.735740 1_555
Mo28 P3 2.774148 1_555
Mo28 Mo34 2.786355 1_555
Mo28 P8 2.880038 1_665
Mo28 Ni15 2.888240 1_555
Mo28 Ni21 2.888243 1_655
Mo28 Mo3 2.889686 1_555
Mo28 Mo8 2.939870 1_555
Mo29 Ni0 2.619500 1_565
Mo29 Ni7 2.627123 1_556
Mo29 Mo32 2.760198 1_555
Mo29 Mo35 2.788901 1_555
Mo29 Mo6 2.866554 1_565
Mo29 P6 2.877440 1_565
Mo29 Mo4 2.888453 1_556
Mo29 P4 2.889181 1_566
Mo29 Ni22 2.908958 1_566
Mo29 Ni16 2.908965 1_566
Mo30 Ni4 2.613540 1_545
Mo30 Ni1 2.613540 1_655
Mo30 Mo33 2.756819 1_545
Mo30 Mo7 2.877285 1_555
Mo30 P10 2.896965 1_555
Mo30 P4 2.896965 1_555
Mo30 Ni22 2.918367 1_555
Mo30 Ni19 2.919952 1_555
Mo31 Ni2 2.633022 1_555
Mo31 Ni5 2.633022 1_555
Mo31 Mo34 2.735740 1_555
Mo31 P11 2.863419 1_555
Mo31 P5 2.863419 1_555
Mo31 Mo8 2.876146 1_555
Mo31 Ni20 2.900201 1_555
Mo31 Ni23 2.932813 1_555
Mo32 Ni3 2.602417 1_455
Mo32 Ni0 2.602417 1_565
Mo32 Mo35 2.760198 1_555
Mo32 Ni21 2.869947 1_555
Mo32 Mo6 2.879602 1_565
Mo32 P3 2.906088 1_455
Mo32 P9 2.906088 1_565
Mo32 Ni18 2.913501 1_565
Mo32 Mo9 2.940099 1_555
Mo33 Ni4 2.611441 1_555
Mo33 Ni8 2.617639 1_665
Mo33 Mo5 2.854419 1_565
Mo33 P7 2.883298 1_555
Mo33 Ni14 2.903818 1_555
Mo33 Ni23 2.903818 1_555
Mo33 P11 2.932842 1_555
Mo34 Ni5 2.590553 1_555
Mo34 Ni6 2.607464 1_555
Mo34 P9 2.774148 1_555
Mo34 P8 2.880038 1_555
Mo34 Ni12 2.888240 1_555
Mo34 Ni21 2.888243 1_545
Mo34 Mo9 2.889699 1_545
Mo35 Ni3 2.619500 1_455
Mo35 Ni7 2.627123 1_556
Mo35 P6 2.877440 1_455
Mo35 Mo4 2.888453 1_556
Mo35 P10 2.889181 1_456
Mo35 Ni22 2.908958 1_456
Mo35 Ni13 2.908965 1_456
