# generated using pymatgen
data_Mg14MoC
_symmetry_space_group_name_H-M   'P 1'
_cell_length_a   6.22352164
_cell_length_b   6.22352116
_cell_length_c   9.60206786
_cell_angle_alpha   90.00000000
_cell_angle_beta   90.00000000
_cell_angle_gamma   120.00000254
_symmetry_Int_Tables_number   1
_chemical_formula_structural   Mg14MoC
_chemical_formula_sum   'Mg14 Mo1 C1'
_cell_volume   322.08297286
_cell_formula_units_Z   1
loop_
 _symmetry_equiv_pos_site_id
 _symmetry_equiv_pos_as_xyz
  1  'x, y, z'
loop_
 _atom_site_type_symbol
 _atom_site_label
 _atom_site_symmetry_multiplicity
 _atom_site_fract_x
 _atom_site_fract_y
 _atom_site_fract_z
 _atom_site_occupancy
  Mg  Mg0  1  0.17288035  0.83643967  0.12500000  1
  Mg  Mg1  1  0.16302219  0.83151060  0.62500000  1
  Mg  Mg2  1  0.66356033  0.32711965  0.12500000  1
  Mg  Mg3  1  0.66848940  0.33697781  0.62500000  1
  Mg  Mg4  1  0.66356033  0.83643967  0.12500000  1
  Mg  Mg5  1  0.66848940  0.83151060  0.62500000  1
  Mg  Mg6  1  0.32138048  0.17861952  0.38338329  1
  Mg  Mg7  1  0.32138048  0.17861952  0.86661671  1
  Mg  Mg8  1  0.32138048  0.64276195  0.38338329  1
  Mg  Mg9  1  0.32138048  0.64276195  0.86661671  1
  Mg  Mg10  1  0.85723805  0.17861952  0.38338329  1
  Mg  Mg11  1  0.85723805  0.17861952  0.86661671  1
  Mg  Mg12  1  0.83333300  0.66666700  0.37017736  1
  Mg  Mg13  1  0.83333300  0.66666700  0.87982264  1
  Mo  Mo0  1  0.16666700  0.33333300  0.12500000  1
  C  C0  1  0.16666700  0.33333300  0.62500000  1
loop_
_geom_bond_atom_site_label_1
_geom_bond_atom_site_label_2
_geom_bond_distance
_geom_bond_site_symmetry_2
Mg0 Mg12 2.981854 1_455
Mg0 Mg13 2.981854 1_454
Mg0 Mg2 3.053757 1_565
Mg0 Mg4 3.053757 1_555
Mg0 Mg8 3.094581 1_555
Mg0 Mg9 3.094581 1_554
Mg0 Mg6 3.094588 1_565
Mg0 Mg7 3.094588 1_564
Mg0 Mo0 3.111941 1_555
Mg0 Mo0 3.111941 1_565
Mg0 Mg2 3.169764 1_455
Mg0 Mg4 3.169764 1_455
Mg1 Mg13 3.023979 1_455
Mg1 Mg12 3.023979 1_455
Mg2 Mg4 3.053757 1_545
Mg2 Mg7 3.094588 1_554
Mg2 Mg6 3.094588 1_555
Mg2 Mo0 3.111941 1_655
Mg2 Mo0 3.111941 1_555
Mg2 Mg4 3.169764 1_555
Mg4 Mg8 3.094588 1_555
Mg4 Mg9 3.094588 1_554
Mg4 Mo0 3.111941 1_555
Mg4 Mo0 3.111941 1_665
Mg6 Mo0 2.989439 1_555
Mg7 Mo0 2.989439 1_556
Mg8 Mo0 2.989445 1_555
Mg9 Mo0 2.989445 1_556
Mg10 Mo0 2.989445 1_655
Mg10 Mg2 3.094581 1_555
Mg10 Mg4 3.094588 1_545
Mg10 Mg12 3.117007 1_545
Mg10 Mg12 3.117007 1_555
Mg11 Mo0 2.989445 1_656
Mg11 Mg2 3.094581 1_556
Mg11 Mg4 3.094588 1_546
Mg11 Mg13 3.117007 1_545
Mg11 Mg13 3.117007 1_555
Mg12 Mg4 2.981847 1_555
Mg12 Mg2 2.981854 1_555
Mg12 Mg5 3.023972 1_555
Mg12 Mg3 3.023979 1_555
Mg12 Mg6 3.117007 1_665
Mg12 Mg6 3.117007 1_555
Mg12 Mg8 3.117007 1_555
Mg12 Mg8 3.117007 1_655
Mg13 Mg4 2.981847 1_556
Mg13 Mg2 2.981854 1_556
Mg13 Mg5 3.023972 1_555
Mg13 Mg3 3.023979 1_555
Mg13 Mg7 3.117007 1_665
Mg13 Mg7 3.117007 1_555
Mg13 Mg9 3.117007 1_555
Mg13 Mg9 3.117007 1_655
C0 Mg7 2.857238 1_555
C0 Mg6 2.857238 1_555
C0 Mg9 2.857244 1_555
C0 Mg8 2.857244 1_555
C0 Mg10 2.857244 1_455
C0 Mg11 2.857244 1_455
