# generated using pymatgen
data_Na5GeAs3
_symmetry_space_group_name_H-M   'P 1'
_cell_length_a   7.51781232
_cell_length_b   8.27162510
_cell_length_c   15.72520543
_cell_angle_alpha   58.44910192
_cell_angle_beta   90.00000000
_cell_angle_gamma   90.00000000
_symmetry_Int_Tables_number   1
_chemical_formula_structural   Na5GeAs3
_chemical_formula_sum   'Na20 Ge4 As12'
_cell_volume   833.31227890
_cell_formula_units_Z   4
loop_
 _symmetry_equiv_pos_site_id
 _symmetry_equiv_pos_as_xyz
  1  'x, y, z'
loop_
 _atom_site_type_symbol
 _atom_site_label
 _atom_site_symmetry_multiplicity
 _atom_site_fract_x
 _atom_site_fract_y
 _atom_site_fract_z
 _atom_site_occupancy
  Na  Na0  1  0.49555507  0.08015012  0.24279491  1
  Na  Na1  1  0.99555507  0.91984988  0.25720509  1
  Na  Na2  1  0.50444493  0.91984988  0.75720509  1
  Na  Na3  1  0.00444493  0.08015012  0.74279491  1
  Na  Na4  1  0.03563648  0.41387280  0.41448172  1
  Na  Na5  1  0.53563648  0.58612720  0.08551828  1
  Na  Na6  1  0.96436352  0.58612720  0.58551828  1
  Na  Na7  1  0.46436352  0.41387280  0.91448172  1
  Na  Na8  1  0.51917407  0.26088052  0.41407327  1
  Na  Na9  1  0.01917407  0.73911948  0.08592673  1
  Na  Na10  1  0.48082593  0.73911948  0.58592673  1
  Na  Na11  1  0.98082593  0.26088052  0.91407327  1
  Na  Na12  1  0.66156742  0.99646300  0.08121024  1
  Na  Na13  1  0.16156742  0.00353700  0.41878976  1
  Na  Na14  1  0.33843258  0.00353700  0.91878976  1
  Na  Na15  1  0.83843258  0.99646300  0.58121024  1
  Na  Na16  1  0.85523700  0.31573433  0.25731234  1
  Na  Na17  1  0.35523700  0.68426567  0.24268766  1
  Na  Na18  1  0.14476300  0.68426567  0.74268766  1
  Na  Na19  1  0.64476300  0.31573433  0.75731234  1
  Ge  Ge0  1  0.85583530  0.65890174  0.91196976  1
  Ge  Ge1  1  0.35583530  0.34109826  0.58803024  1
  Ge  Ge2  1  0.14416470  0.34109826  0.08803024  1
  Ge  Ge3  1  0.64416470  0.65890174  0.41196976  1
  As  As0  1  0.76502838  0.92889776  0.41786023  1
  As  As1  1  0.26502838  0.07110224  0.08213977  1
  As  As2  1  0.23497162  0.07110224  0.58213977  1
  As  As3  1  0.73497162  0.92889776  0.91786023  1
  As  As4  1  0.74019733  0.64039703  0.26920089  1
  As  As5  1  0.24019733  0.35960297  0.23079911  1
  As  As6  1  0.25980267  0.35960297  0.73079911  1
  As  As7  1  0.75980267  0.64039703  0.76920089  1
  As  As8  1  0.80905719  0.34248801  0.06713808  1
  As  As9  1  0.30905719  0.65751199  0.43286192  1
  As  As10  1  0.19094281  0.65751199  0.93286192  1
  As  As11  1  0.69094281  0.34248801  0.56713808  1
loop_
_geom_bond_atom_site_label_1
_geom_bond_atom_site_label_2
_geom_bond_distance
_geom_bond_site_symmetry_2
As0 Ge3 2.457302 1_555
As0 Na16 2.935686 1_565
As0 Na15 2.952543 1_555
As0 Na13 3.045951 1_665
As0 Na6 3.067998 1_555
As0 Na1 3.096663 1_555
As0 Na0 3.105413 1_565
As0 Na10 3.110031 1_555
As0 Na8 3.284706 1_565
As1 Ge2 2.457302 1_555
As1 Na17 2.935686 1_545
As1 Na14 2.952543 1_554
As1 Na12 3.045951 1_545
As1 Na7 3.067998 1_554
As1 Na0 3.096663 1_555
As1 Na1 3.105413 1_445
As1 Na11 3.110031 1_454
As1 Na9 3.284706 1_545
As2 Ge1 2.457302 1_555
As2 Na18 2.935686 1_545
As2 Na13 2.952543 1_555
As2 Na15 3.045951 1_445
As2 Na4 3.067998 1_555
As2 Na3 3.096663 1_555
As2 Na2 3.105413 1_545
As2 Na8 3.110031 1_555
As2 Na10 3.284706 1_545
As3 Ge0 2.457302 1_555
As3 Na19 2.935686 1_565
As3 Na12 2.952543 1_556
As3 Na14 3.045951 1_565
As3 Na5 3.067998 1_556
As3 Na2 3.096663 1_555
As3 Na3 3.105413 1_665
As3 Na9 3.110031 1_656
As3 Na11 3.284706 1_565
As4 Ge3 2.438157 1_555
As4 Na16 2.918931 1_555
As4 Na17 2.919376 1_555
As4 Na1 2.933905 1_555
As4 Na12 2.941308 1_555
As4 Na4 3.030419 1_655
As4 Na8 3.212688 1_555
As4 Na9 3.302821 1_655
As4 Na5 3.502363 1_555
As5 Ge2 2.438157 1_555
As5 Na17 2.918931 1_555
As5 Na16 2.919376 1_455
As5 Na0 2.933905 1_555
As5 Na13 2.941308 1_555
As5 Na5 3.030419 1_555
As5 Na9 3.212688 1_555
As5 Na8 3.302821 1_555
As5 Na4 3.502363 1_555
As6 Ge1 2.438157 1_555
As6 Na18 2.918931 1_555
As6 Na19 2.919376 1_555
As6 Na3 2.933905 1_555
As6 Na14 2.941308 1_555
As6 Na6 3.030419 1_455
As6 Na10 3.212688 1_555
As6 Na11 3.302821 1_455
As6 Na7 3.502363 1_555
As7 Ge0 2.438157 1_555
As7 Na19 2.918931 1_555
As7 Na18 2.919376 1_655
As7 Na2 2.933905 1_555
As7 Na15 2.941308 1_555
As7 Na7 3.030419 1_555
As7 Na11 3.212688 1_555
As7 Na10 3.302821 1_555
As7 Na6 3.502363 1_555
As8 Ge0 2.498856 1_554
As8 Ge2 2.539855 1_655
As8 Na16 2.901757 1_555
As8 Na12 2.967778 1_545
As8 Na5 2.996615 1_555
As8 Na11 3.101138 1_554
As8 Na7 3.367934 1_554
As8 Na0 3.408915 1_555
As8 Na1 3.490787 1_545
As9 Ge1 2.498856 1_555
As9 Ge3 2.539855 1_555
As9 Na17 2.901757 1_555
As9 Na13 2.967778 1_565
As9 Na4 2.996615 1_555
As9 Na10 3.101138 1_555
As9 Na6 3.367934 1_455
As9 Na1 3.408915 1_455
As9 Na0 3.490787 1_565
As10 Ge2 2.498856 1_556
As10 Ge0 2.539855 1_455
As10 Na18 2.901757 1_555
As10 Na14 2.967778 1_565
As10 Na7 2.996615 1_555
As10 Na9 3.101138 1_556
As10 Na5 3.367934 1_556
As10 Na2 3.408915 1_555
As10 Na3 3.490787 1_565
As11 Ge3 2.498856 1_555
As11 Ge1 2.539855 1_555
As11 Na19 2.901757 1_555
As11 Na15 2.967778 1_545
As11 Na6 2.996615 1_555
As11 Na8 3.101138 1_555
As11 Na4 3.367934 1_655
As11 Na3 3.408915 1_655
As11 Na2 3.490787 1_545
