# generated using pymatgen
data_Ba3ThSe7
_symmetry_space_group_name_H-M   'P 1'
_cell_length_a   5.86729716
_cell_length_b   8.45987506
_cell_length_c   8.45987506
_cell_angle_alpha   69.34336509
_cell_angle_beta   69.70999527
_cell_angle_gamma   69.70999527
_symmetry_Int_Tables_number   1
_chemical_formula_structural   Ba3ThSe7
_chemical_formula_sum   'Ba3 Th1 Se7'
_cell_volume   356.28746512
_cell_formula_units_Z   1
loop_
 _symmetry_equiv_pos_site_id
 _symmetry_equiv_pos_as_xyz
  1  'x, y, z'
loop_
 _atom_site_type_symbol
 _atom_site_label
 _atom_site_symmetry_multiplicity
 _atom_site_fract_x
 _atom_site_fract_y
 _atom_site_fract_z
 _atom_site_occupancy
  Ba  Ba0  1  0.76061800  0.85516441  0.62359760  1
  Ba  Ba1  1  0.23938200  0.37640240  0.14483559  1
  Ba  Ba2  1  0.50000000  0.40830447  0.59169553  1
  Th  Th0  1  0.00000000  -0.00022747  0.00022747  1
  Se  Se0  1  0.90565029  0.38864592  0.80005250  1
  Se  Se1  1  0.09434971  0.19994750  0.61135408  1
  Se  Se2  1  0.20307352  0.70978525  0.29021475  1
  Se  Se3  1  0.79692648  0.70978525  0.29021475  1
  Se  Se4  1  0.76795423  0.19163725  0.27245329  1
  Se  Se5  1  0.23204577  0.72754671  0.80836275  1
  Se  Se6  1  0.50000000  0.05833031  0.94166969  1
loop_
_geom_bond_atom_site_label_1
_geom_bond_atom_site_label_2
_geom_bond_distance
_geom_bond_site_symmetry_2
Ba0 Se4 3.310517 1_565
Ba0 Se5 3.316076 1_555
Ba0 Se5 3.316091 1_655
Ba0 Se6 3.334607 1_565
Ba0 Se3 3.370674 1_555
Ba0 Se2 3.370678 1_655
Ba0 Se0 3.594991 1_555
Ba0 Se1 3.994992 1_565
Ba0 Se1 3.995004 1_665
Ba1 Se5 3.310517 1_554
Ba1 Se4 3.316076 1_555
Ba1 Se4 3.316091 1_455
Ba1 Se6 3.334607 1_554
Ba1 Se2 3.370674 1_555
Ba1 Se3 3.370678 1_455
Ba1 Se1 3.594991 1_555
Ba1 Se0 3.994992 1_554
Ba1 Se0 3.995004 1_454
Ba2 Se1 3.350774 1_555
Ba2 Se0 3.350774 1_555
Ba2 Se1 3.350779 1_655
Ba2 Se0 3.350779 1_455
Ba2 Se6 3.368568 1_555
Ba2 Se2 3.384614 1_555
Ba2 Se3 3.384614 1_555
Ba2 Se4 3.416843 1_555
Ba2 Se5 3.416843 1_555
Se0 Se1 2.380956 1_655
Se0 Th0 3.074674 1_656
Se1 Th0 3.074674 1_556
Se2 Se3 2.382985 1_455
Se2 Th0 3.034857 1_565
Se3 Th0 3.034857 1_665
Se4 Th0 2.953329 1_655
Se5 Th0 2.953329 1_566
Se6 Th0 2.987302 1_556
Se6 Th0 2.987302 1_656
