# generated using pymatgen
data_Ca4Cu5(TeO6)3
_symmetry_space_group_name_H-M   'P 1'
_cell_length_a   9.29326992
_cell_length_b   9.29326992
_cell_length_c   10.60372968
_cell_angle_alpha   81.55831914
_cell_angle_beta   81.55831914
_cell_angle_gamma   60.08194375
_symmetry_Int_Tables_number   1
_chemical_formula_structural   Ca4Cu5(TeO6)3
_chemical_formula_sum   'Ca8 Cu10 Te6 O36'
_cell_volume   782.25441541
_cell_formula_units_Z   2
loop_
 _symmetry_equiv_pos_site_id
 _symmetry_equiv_pos_as_xyz
  1  'x, y, z'
loop_
 _atom_site_type_symbol
 _atom_site_label
 _atom_site_symmetry_multiplicity
 _atom_site_fract_x
 _atom_site_fract_y
 _atom_site_fract_z
 _atom_site_occupancy
  Ca  Ca0  1  0.93482600  0.68426800  0.39161400  1
  Ca  Ca1  1  0.33023600  0.65514200  0.52959600  1
  Ca  Ca2  1  0.31573200  0.06517400  0.10838600  1
  Ca  Ca3  1  0.34485800  0.66976400  0.97040400  1
  Ca  Ca4  1  0.65514200  0.33023600  0.02959600  1
  Ca  Ca5  1  0.68426800  0.93482600  0.89161400  1
  Ca  Ca6  1  0.06517400  0.31573200  0.60838600  1
  Ca  Ca7  1  0.66976400  0.34485800  0.47040400  1
  Cu  Cu0  1  0.02869400  0.65444700  0.75948200  1
  Cu  Cu1  1  0.65444700  0.02869400  0.25948200  1
  Cu  Cu2  1  0.45873200  0.88011200  0.43620500  1
  Cu  Cu3  1  0.88011200  0.45873200  0.93620500  1
  Cu  Cu4  1  0.11988800  0.54126800  0.06379500  1
  Cu  Cu5  1  0.84479300  0.15520700  0.75000000  1
  Cu  Cu6  1  0.15520700  0.84479300  0.25000000  1
  Cu  Cu7  1  0.54126800  0.11988800  0.56379500  1
  Cu  Cu8  1  0.97130600  0.34555300  0.24051800  1
  Cu  Cu9  1  0.34555300  0.97130600  0.74051800  1
  Te  Te0  1  0.35739600  0.32336300  0.80455600  1
  Te  Te1  1  0.00000000  0.00000000  0.50000000  1
  Te  Te2  1  0.00000000  0.00000000  0.00000000  1
  Te  Te3  1  0.32336300  0.35739600  0.30455600  1
  Te  Te4  1  0.64260400  0.67663700  0.19544400  1
  Te  Te5  1  0.67663700  0.64260400  0.69544400  1
  O  O0  1  0.40948700  0.12552500  0.91392900  1
  O  O1  1  0.06004000  0.77182100  0.95971700  1
  O  O2  1  0.22045700  0.57660300  0.20021700  1
  O  O3  1  0.03598700  0.10895300  0.33259800  1
  O  O4  1  0.22817900  0.93996000  0.54028300  1
  O  O5  1  0.89104700  0.96401300  0.16740200  1
  O  O6  1  0.41336300  0.43361100  0.41124000  1
  O  O7  1  0.79110600  0.09588200  0.91959500  1
  O  O8  1  0.20889400  0.90411800  0.08040500  1
  O  O9  1  0.68380200  0.80183800  0.32056400  1
  O  O10  1  0.25359800  0.52442200  0.68932000  1
  O  O11  1  0.31619800  0.19816200  0.67943600  1
  O  O12  1  0.93996000  0.22817900  0.04028300  1
  O  O13  1  0.12125100  0.45035100  0.89071400  1
  O  O14  1  0.47557800  0.74640200  0.81068000  1
  O  O15  1  0.58663700  0.56638900  0.58876000  1
  O  O16  1  0.74640200  0.47557800  0.31068000  1
  O  O17  1  0.54964900  0.87874900  0.60928600  1
  O  O18  1  0.42339700  0.77954300  0.29978300  1
  O  O19  1  0.52442200  0.25359800  0.18932000  1
  O  O20  1  0.12552500  0.40948700  0.41392900  1
  O  O21  1  0.87874900  0.54964900  0.10928600  1
  O  O22  1  0.90411800  0.20889400  0.58040500  1
  O  O23  1  0.43361100  0.41336300  0.91124000  1
  O  O24  1  0.77954300  0.42339700  0.79978300  1
  O  O25  1  0.10895300  0.03598700  0.83259800  1
  O  O26  1  0.80183800  0.68380200  0.82056400  1
  O  O27  1  0.56638900  0.58663700  0.08876000  1
  O  O28  1  0.77182100  0.06004000  0.45971700  1
  O  O29  1  0.45035100  0.12125100  0.39071400  1
  O  O30  1  0.59051300  0.87447500  0.08607100  1
  O  O31  1  0.96401300  0.89104700  0.66740200  1
  O  O32  1  0.09588200  0.79110600  0.41959500  1
  O  O33  1  0.19816200  0.31619800  0.17943600  1
  O  O34  1  0.57660300  0.22045700  0.70021700  1
  O  O35  1  0.87447500  0.59051300  0.58607100  1
loop_
_geom_bond_atom_site_label_1
_geom_bond_atom_site_label_2
_geom_bond_distance
_geom_bond_site_symmetry_2
Ca0 O9 2.221552 1_555
Ca0 O35 2.223928 1_555
Ca0 O32 2.239045 1_655
Ca0 O20 2.269154 1_655
Ca0 O2 2.920839 1_655
Ca1 O10 2.180909 1_555
Ca1 O15 2.253472 1_555
Ca1 O32 2.295314 1_555
Ca1 O6 2.301685 1_555
Ca1 O4 2.338958 1_555
Ca1 O18 2.752507 1_555
Ca2 O33 2.221552 1_555
Ca2 O0 2.223928 1_554
Ca2 O8 2.239045 1_545
Ca2 O30 2.269154 1_545
Ca2 O18 2.920839 1_545
Ca3 O14 2.180909 1_555
Ca3 O23 2.253472 1_555
Ca3 O8 2.295314 1_556
Ca3 O27 2.301685 1_556
Ca3 O1 2.338958 1_555
Ca3 O2 2.752507 1_556
Ca4 O19 2.180909 1_555
Ca4 O27 2.253472 1_555
Ca4 O7 2.295314 1_554
Ca4 O23 2.301685 1_554
Ca4 O12 2.338958 1_555
Ca4 O24 2.752507 1_554
Ca5 O26 2.221552 1_555
Ca5 O30 2.223928 1_556
Ca5 O7 2.239045 1_565
Ca5 O0 2.269154 1_565
Ca5 O34 2.920839 1_565
Ca6 O11 2.221552 1_555
Ca6 O20 2.223928 1_555
Ca6 O22 2.239045 1_455
Ca6 O35 2.269154 1_455
Ca6 O24 2.920839 1_455
Ca7 O16 2.180909 1_555
Ca7 O6 2.253472 1_555
Ca7 O22 2.295314 1_555
Ca7 O15 2.301685 1_555
Ca7 O28 2.338958 1_555
Ca7 O34 2.752507 1_555
Cu0 O10 1.915776 1_555
Cu0 O26 2.003955 1_455
Cu0 O13 2.054966 1_555
Cu0 O31 2.091148 1_455
Cu1 O19 1.915776 1_555
Cu1 O9 2.003955 1_545
Cu1 O29 2.054966 1_555
Cu1 O5 2.091148 1_545
Cu2 O18 1.979016 1_555
Cu2 O9 2.097339 1_555
Cu2 O4 2.101248 1_555
Cu2 O17 2.126069 1_555
Cu2 O29 2.186375 1_565
Cu3 O24 1.979016 1_555
Cu3 O26 2.097339 1_555
Cu3 O12 2.101248 1_556
Cu3 O21 2.126069 1_556
Cu3 O13 2.186375 1_655
Cu4 O2 1.979016 1_555
Cu4 O33 2.097339 1_555
Cu4 O1 2.101248 1_554
Cu4 O13 2.126069 1_554
Cu4 O21 2.186375 1_455
Cu5 O22 1.872636 1_555
Cu5 O7 1.872636 1_555
Cu5 O24 2.375491 1_555
Cu5 O34 2.375491 1_555
Cu5 O31 2.377908 1_545
Cu5 O25 2.377908 1_655
Cu6 O8 1.872636 1_555
Cu6 O32 1.872636 1_555
Cu6 O2 2.375491 1_555
Cu6 O18 2.375491 1_555
Cu6 O5 2.377908 1_455
Cu6 O3 2.377908 1_565
Cu7 O34 1.979016 1_555
Cu7 O11 2.097339 1_555
Cu7 O28 2.101248 1_555
Cu7 O29 2.126069 1_555
Cu7 O17 2.186375 1_545
Cu8 O16 1.915776 1_555
Cu8 O33 2.003955 1_655
Cu8 O21 2.054966 1_555
Cu8 O3 2.091148 1_655
Cu9 O14 1.915776 1_555
Cu9 O11 2.003955 1_565
Cu9 O17 2.054966 1_555
Cu9 O25 2.091148 1_565
O0 Te0 1.900174 1_555
O1 Te2 2.001534 1_566
O2 Te3 1.998544 1_555
O3 Te1 1.980852 1_555
O4 Te1 2.001534 1_565
O5 Te2 1.980852 1_665
O6 Te3 1.893393 1_555
O7 Te2 1.956259 1_656
O8 Te2 1.956259 1_565
O9 Te4 2.075418 1_555
O10 Te0 1.947481 1_555
O11 Te0 2.075418 1_555
O12 Te2 2.001534 1_655
O13 Te0 2.046437 1_555
O14 Te5 1.947481 1_555
O15 Te5 1.893393 1_555
O16 Te4 1.947481 1_555
O17 Te5 2.046437 1_555
O18 Te4 1.998544 1_555
O19 Te3 1.947481 1_555
O20 Te3 1.900174 1_555
O21 Te4 2.046437 1_555
O22 Te1 1.956259 1_655
O23 Te0 1.893393 1_555
O24 Te5 1.998544 1_555
O25 Te2 1.980852 1_556
O26 Te5 2.075418 1_555
O27 Te4 1.893393 1_555
O28 Te1 2.001534 1_655
O29 Te3 2.046437 1_555
O30 Te4 1.900174 1_555
O31 Te1 1.980852 1_665
O32 Te1 1.956259 1_565
O33 Te3 2.075418 1_555
O34 Te0 1.998544 1_555
O35 Te5 1.900174 1_555
