# generated using pymatgen
data_Sr3In3Ga2
_symmetry_space_group_name_H-M   'P 1'
_cell_length_a   6.39320907
_cell_length_b   6.39320907
_cell_length_c   16.40159900
_cell_angle_alpha   90.00000000
_cell_angle_beta   90.00000000
_cell_angle_gamma   134.73027920
_symmetry_Int_Tables_number   1
_chemical_formula_structural   Sr3In3Ga2
_chemical_formula_sum   'Sr6 In6 Ga4'
_cell_volume   476.25972741
_cell_formula_units_Z   2
loop_
 _symmetry_equiv_pos_site_id
 _symmetry_equiv_pos_as_xyz
  1  'x, y, z'
loop_
 _atom_site_type_symbol
 _atom_site_label
 _atom_site_symmetry_multiplicity
 _atom_site_fract_x
 _atom_site_fract_y
 _atom_site_fract_z
 _atom_site_occupancy
  Sr  Sr0  1  0.91210700  0.08789300  0.39070600  1
  Sr  Sr1  1  0.08789300  0.91210700  0.60929400  1
  Sr  Sr2  1  0.91210700  0.08789300  0.10929400  1
  Sr  Sr3  1  0.08789300  0.91210700  0.89070600  1
  Sr  Sr4  1  0.63035200  0.36964800  0.25000000  1
  Sr  Sr5  1  0.36964800  0.63035200  0.75000000  1
  In  In0  1  0.33795300  0.66204700  0.25000000  1
  In  In1  1  0.66204700  0.33795300  0.75000000  1
  In  In2  1  0.62070200  0.37929800  0.46498100  1
  In  In3  1  0.37929800  0.62070200  0.53501900  1
  In  In4  1  0.62070200  0.37929800  0.03501900  1
  In  In5  1  0.37929800  0.62070200  0.96498100  1
  Ga  Ga0  1  0.79249900  0.20750100  0.90034900  1
  Ga  Ga1  1  0.20750100  0.79249900  0.09965100  1
  Ga  Ga2  1  0.79249900  0.20750100  0.59965100  1
  Ga  Ga3  1  0.20750100  0.79249900  0.40034900  1
loop_
_geom_bond_atom_site_label_1
_geom_bond_atom_site_label_2
_geom_bond_distance
_geom_bond_site_symmetry_2
Sr0 Sr4 4.047539 1_555
Sr0 Sr1 4.142144 1_645
Sr0 Sr4 4.244261 1_545
Sr0 Sr4 4.244261 1_655
Sr1 Sr5 4.047539 1_555
Sr1 Sr5 4.244261 1_565
Sr1 Sr5 4.244261 1_455
Sr2 Sr4 4.047539 1_555
Sr2 Sr3 4.142144 1_644
Sr2 Sr4 4.244261 1_655
Sr2 Sr4 4.244261 1_545
Sr3 Sr5 4.047539 1_555
Sr3 Sr5 4.244261 1_565
Sr3 Sr5 4.244261 1_455
In0 Sr4 3.450764 1_555
In0 Sr4 3.472246 1_455
In0 Sr4 3.472246 1_565
In0 Sr0 3.485073 1_455
In0 Sr0 3.485073 1_565
In0 Sr2 3.485073 1_455
In0 Sr2 3.485073 1_565
In1 Sr5 3.450764 1_555
In1 Sr5 3.472246 1_545
In1 Sr5 3.472246 1_655
In1 Sr3 3.485073 1_545
In1 Sr1 3.485073 1_545
In1 Sr3 3.485073 1_655
In1 Sr1 3.485073 1_655
In2 In3 3.071819 1_555
In2 Sr1 3.436038 1_545
In2 Sr1 3.436038 1_655
In2 Sr4 3.527871 1_555
In2 Sr0 3.648429 1_555
In2 Sr0 3.687573 1_455
In2 Sr0 3.687573 1_565
In3 Sr0 3.436038 1_455
In3 Sr0 3.436038 1_565
In3 Sr5 3.527871 1_555
In3 Sr1 3.648429 1_555
In3 Sr1 3.687573 1_545
In3 Sr1 3.687573 1_655
In4 In5 3.071819 1_554
In4 Sr3 3.436038 1_544
In4 Sr3 3.436038 1_654
In4 Sr4 3.527871 1_555
In4 Sr2 3.648429 1_555
In4 Sr2 3.687573 1_455
In4 Sr2 3.687573 1_565
In5 Sr2 3.436038 1_456
In5 Sr2 3.436038 1_566
In5 Sr5 3.527871 1_555
In5 Sr3 3.648429 1_555
In5 Sr3 3.687573 1_545
In5 Sr3 3.687573 1_655
Ga0 In5 2.868272 1_655
Ga0 In5 2.868272 1_545
Ga0 In1 2.907087 1_555
Ga0 In4 2.998242 1_556
Ga0 Sr3 3.451024 1_545
Ga0 Sr3 3.451024 1_655
Ga0 Sr3 3.489696 1_645
Ga0 Sr5 3.600537 1_545
Ga0 Sr5 3.600537 1_655
Ga0 Sr2 3.706353 1_556
Ga1 In4 2.868272 1_565
Ga1 In4 2.868272 1_455
Ga1 In0 2.907087 1_555
Ga1 In5 2.998242 1_554
Ga1 Sr2 3.451024 1_455
Ga1 Sr2 3.451024 1_565
Ga1 Sr2 3.489696 1_465
Ga1 Sr4 3.600537 1_455
Ga1 Sr4 3.600537 1_565
Ga1 Sr3 3.706353 1_554
Ga2 In3 2.868272 1_655
Ga2 In3 2.868272 1_545
Ga2 In1 2.907087 1_555
Ga2 In2 2.998242 1_555
Ga2 Sr1 3.451024 1_545
Ga2 Sr1 3.451024 1_655
Ga2 Sr1 3.489696 1_645
Ga2 Sr5 3.600537 1_545
Ga2 Sr5 3.600537 1_655
Ga2 Sr0 3.706353 1_555
Ga3 In2 2.868272 1_565
Ga3 In2 2.868272 1_455
Ga3 In0 2.907087 1_555
Ga3 In3 2.998242 1_555
Ga3 Sr0 3.451024 1_455
Ga3 Sr0 3.451024 1_565
Ga3 Sr0 3.489696 1_465
Ga3 Sr4 3.600537 1_455
Ga3 Sr4 3.600537 1_565
Ga3 Sr1 3.706353 1_555
