# generated using pymatgen
data_In(Ni11B3)2
_symmetry_space_group_name_H-M   'P 1'
_cell_length_a   7.39928698
_cell_length_b   7.39928698
_cell_length_c   7.39928698
_cell_angle_alpha   60.00000000
_cell_angle_beta   60.00000000
_cell_angle_gamma   60.00000000
_symmetry_Int_Tables_number   1
_chemical_formula_structural   In(Ni11B3)2
_chemical_formula_sum   'In1 Ni22 B6'
_cell_volume   286.45381946
_cell_formula_units_Z   1
loop_
 _symmetry_equiv_pos_site_id
 _symmetry_equiv_pos_as_xyz
  1  'x, y, z'
loop_
 _atom_site_type_symbol
 _atom_site_label
 _atom_site_symmetry_multiplicity
 _atom_site_fract_x
 _atom_site_fract_y
 _atom_site_fract_z
 _atom_site_occupancy
  In  In0  1  0.75000000  0.75000000  0.75000000  1
  Ni  Ni0  1  0.00171900  0.00171900  0.33527600  1
  Ni  Ni1  1  0.66128700  0.00171900  0.33527600  1
  Ni  Ni2  1  0.00171900  0.66128700  0.33527600  1
  Ni  Ni3  1  0.66128700  0.33527600  0.00171900  1
  Ni  Ni4  1  0.00171900  0.33527600  0.00171900  1
  Ni  Ni5  1  0.00171900  0.33527600  0.66128700  1
  Ni  Ni6  1  0.33527600  0.66128700  0.00171900  1
  Ni  Ni7  1  0.33527600  0.00171900  0.66128700  1
  Ni  Ni8  1  0.33527600  0.00171900  0.00171900  1
  Ni  Ni9  1  0.00171900  0.00171900  0.66128700  1
  Ni  Ni10  1  0.00171900  0.66128700  0.00171900  1
  Ni  Ni11  1  0.66128700  0.00171900  0.00171900  1
  Ni  Ni12  1  0.00000000  0.00000000  0.00000000  1
  Ni  Ni13  1  0.86209100  0.37930300  0.37930300  1
  Ni  Ni14  1  0.37930300  0.86209100  0.37930300  1
  Ni  Ni15  1  0.37930300  0.37930300  0.37930300  1
  Ni  Ni16  1  0.37930300  0.37930300  0.86209100  1
  Ni  Ni17  1  0.16802200  0.61065900  0.61065900  1
  Ni  Ni18  1  0.61065900  0.16802200  0.61065900  1
  Ni  Ni19  1  0.61065900  0.61065900  0.61065900  1
  Ni  Ni20  1  0.61065900  0.61065900  0.16802200  1
  Ni  Ni21  1  0.25000000  0.25000000  0.25000000  1
  B  B0  1  0.27290200  0.72709800  0.27290200  1
  B  B1  1  0.72709800  0.27290200  0.27290200  1
  B  B2  1  0.72709800  0.72709800  0.27290200  1
  B  B3  1  0.72709800  0.27290200  0.72709800  1
  B  B4  1  0.27290200  0.27290200  0.72709800  1
  B  B5  1  0.27290200  0.72709800  0.72709800  1
loop_
_geom_bond_atom_site_label_1
_geom_bond_atom_site_label_2
_geom_bond_distance
_geom_bond_site_symmetry_2
In0 Ni18 2.525477 1_565
In0 Ni17 2.525477 1_655
In0 Ni20 2.525477 1_556
In0 Ni19 2.525483 1_555
In0 Ni3 2.897038 1_556
In0 Ni2 2.897038 1_655
In0 Ni1 2.897038 1_565
In0 Ni6 2.897038 1_556
In0 Ni5 2.897038 1_655
In0 Ni7 2.897038 1_565
In0 Ni8 2.897041 1_566
In0 Ni0 2.897041 1_665
In0 Ni4 2.897041 1_656
In0 Ni10 2.897044 1_656
In0 Ni11 2.897044 1_566
In0 Ni9 2.897044 1_665
Ni0 Ni12 2.493588 1_555
Ni1 Ni12 2.493584 1_655
Ni10 Ni12 2.493580 1_565
Ni11 Ni12 2.493580 1_655
Ni12 Ni9 2.493580 1_554
Ni12 Ni5 2.493584 1_554
Ni12 Ni2 2.493584 1_545
Ni12 Ni7 2.493584 1_554
Ni12 Ni3 2.493584 1_455
Ni12 Ni6 2.493584 1_545
Ni12 Ni8 2.493588 1_555
Ni12 Ni4 2.493588 1_555
Ni13 Ni21 2.343549 1_655
Ni14 Ni21 2.343549 1_565
Ni15 Ni21 2.343549 1_555
Ni16 Ni21 2.343549 1_556
B0 Ni20 2.041154 1_555
B0 Ni17 2.041154 1_555
B0 Ni6 2.074296 1_555
B0 Ni2 2.074296 1_555
B0 Ni8 2.074300 1_565
B0 Ni0 2.074300 1_565
B0 Ni14 2.104748 1_555
B0 Ni15 2.104748 1_555
B1 Ni20 2.041154 1_555
B1 Ni18 2.041154 1_555
B1 Ni3 2.074296 1_555
B1 Ni1 2.074296 1_555
B1 Ni0 2.074300 1_655
B1 Ni4 2.074300 1_655
B1 Ni13 2.104748 1_555
B1 Ni15 2.104748 1_555
B2 Ni19 2.041154 1_555
B2 Ni20 2.041160 1_555
B2 Ni10 2.074299 1_655
B2 Ni11 2.074299 1_565
B2 Ni2 2.074303 1_655
B2 Ni1 2.074303 1_565
B2 Ni14 2.104748 1_555
B2 Ni13 2.104748 1_555
B3 Ni19 2.041154 1_555
B3 Ni18 2.041160 1_555
B3 Ni9 2.074299 1_655
B3 Ni11 2.074299 1_556
B3 Ni3 2.074303 1_556
B3 Ni5 2.074303 1_655
B3 Ni13 2.104748 1_555
B3 Ni16 2.104748 1_555
B4 Ni17 2.041154 1_555
B4 Ni18 2.041154 1_555
B4 Ni5 2.074296 1_555
B4 Ni7 2.074296 1_555
B4 Ni4 2.074300 1_556
B4 Ni8 2.074300 1_556
B4 Ni16 2.104748 1_555
B4 Ni15 2.104748 1_555
B5 Ni19 2.041154 1_555
B5 Ni17 2.041160 1_555
B5 Ni10 2.074299 1_556
B5 Ni9 2.074299 1_565
B5 Ni7 2.074303 1_565
B5 Ni6 2.074303 1_556
B5 Ni16 2.104748 1_555
B5 Ni14 2.104748 1_555
