# generated using pymatgen
data_Ce5(C2Br)3
_symmetry_space_group_name_H-M   'P 1'
_cell_length_a   3.78104600
_cell_length_b   11.29296208
_cell_length_c   13.88876590
_cell_angle_alpha   80.27680172
_cell_angle_beta   82.17667681
_cell_angle_gamma   80.36289857
_symmetry_Int_Tables_number   1
_chemical_formula_structural   Ce5(C2Br)3
_chemical_formula_sum   'Ce10 C12 Br6'
_cell_volume   572.71148932
_cell_formula_units_Z   2
loop_
 _symmetry_equiv_pos_site_id
 _symmetry_equiv_pos_as_xyz
  1  'x, y, z'
loop_
 _atom_site_type_symbol
 _atom_site_label
 _atom_site_symmetry_multiplicity
 _atom_site_fract_x
 _atom_site_fract_y
 _atom_site_fract_z
 _atom_site_occupancy
  Ce  Ce0  1  0.83010000  0.96094500  0.37885500  1
  Ce  Ce1  1  0.16990000  0.03905500  0.62114500  1
  Ce  Ce2  1  0.16657200  0.26774100  0.39911400  1
  Ce  Ce3  1  0.83342800  0.73225900  0.60088600  1
  Ce  Ce4  1  0.50194400  0.89279800  0.10331500  1
  Ce  Ce5  1  0.49805600  0.10720200  0.89668500  1
  Ce  Ce6  1  0.83884100  0.17606000  0.14625800  1
  Ce  Ce7  1  0.16115900  0.82394000  0.85374200  1
  Ce  Ce8  1  0.49968000  0.60562600  0.39501400  1
  Ce  Ce9  1  0.50032000  0.39437400  0.60498600  1
  C  C0  1  0.37158600  0.79002700  0.46680100  1
  C  C1  1  0.62841400  0.20997300  0.53319900  1
  C  C2  1  0.37313200  0.02732200  0.22641300  1
  C  C3  1  0.62686800  0.97267800  0.77358700  1
  C  C4  1  0.96299100  0.04173600  0.03228200  1
  C  C5  1  0.03700900  0.95826400  0.96771800  1
  C  C6  1  0.70029800  0.11539700  0.48400800  1
  C  C7  1  0.29970200  0.88460300  0.51599200  1
  C  C8  1  0.30103100  0.11193700  0.28600100  1
  C  C9  1  0.69896900  0.88806300  0.71399900  1
  C  C10  1  0.03677700  0.45090600  0.47554000  1
  C  C11  1  0.96322300  0.54909400  0.52446000  1
  Br  Br0  1  0.66936700  0.41153700  0.24972900  1
  Br  Br1  1  0.33063300  0.58846300  0.75027100  1
  Br  Br2  1  0.33094100  0.32880700  0.00931100  1
  Br  Br3  1  0.66905900  0.67119300  0.99068900  1
  Br  Br4  1  0.01491700  0.73099400  0.23917100  1
  Br  Br5  1  0.98508300  0.26900600  0.76082900  1
loop_
_geom_bond_atom_site_label_1
_geom_bond_atom_site_label_2
_geom_bond_distance
_geom_bond_site_symmetry_2
C0 C7 1.334197 1_555
C0 Ce8 2.407767 1_555
C0 Ce3 2.652649 1_455
C0 Ce3 2.652652 1_555
C0 Ce0 2.823233 1_555
C0 Ce0 2.823233 1_455
C1 C6 1.334197 1_555
C1 Ce9 2.407767 1_555
C1 Ce2 2.652649 1_655
C1 Ce2 2.652652 1_555
C1 Ce1 2.823233 1_655
C1 Ce1 2.823233 1_555
C2 C8 1.338212 1_555
C2 Ce4 2.423013 1_545
C2 Ce6 2.643169 1_455
C2 Ce6 2.643172 1_555
C2 Ce0 2.838324 1_445
C2 Ce0 2.838326 1_545
C3 C9 1.338212 1_555
C3 Ce5 2.423013 1_565
C3 Ce7 2.643169 1_655
C3 Ce7 2.643172 1_555
C3 Ce1 2.838324 1_665
C3 Ce1 2.838326 1_565
C4 C5 1.378358 1_644
C4 Ce6 2.323277 1_555
C4 Ce4 2.606559 1_545
C4 Ce4 2.606562 1_645
C4 Ce5 2.679458 1_654
C4 Ce5 2.679461 1_554
C5 Ce7 2.323277 1_555
C5 Ce5 2.606559 1_565
C5 Ce5 2.606562 1_465
C5 Ce4 2.679458 1_456
C5 Ce4 2.679461 1_556
C6 Ce0 2.407232 1_545
C6 Ce2 2.687502 1_655
C6 Ce2 2.687507 1_555
C6 Ce1 2.716103 1_655
C6 Ce1 2.716106 1_555
C7 Ce1 2.407232 1_565
C7 Ce3 2.687502 1_455
C7 Ce3 2.687507 1_555
C7 Ce0 2.716103 1_455
C7 Ce0 2.716106 1_555
C8 Ce2 2.497808 1_555
C8 Ce6 2.714814 1_555
C8 Ce6 2.714814 1_455
C8 Ce0 2.718435 1_545
C8 Ce0 2.718435 1_445
C9 Ce3 2.497808 1_555
C9 Ce7 2.714814 1_555
C9 Ce7 2.714814 1_655
C9 Ce1 2.718435 1_665
C9 Ce1 2.718435 1_565
C10 C11 1.366850 1_455
C10 Ce2 2.430241 1_555
C10 Ce9 2.609062 1_455
C10 Ce9 2.609062 1_555
C10 Ce8 2.682918 1_455
C10 Ce8 2.682918 1_555
C11 Ce3 2.430241 1_555
C11 Ce8 2.609062 1_555
C11 Ce8 2.609062 1_655
C11 Ce9 2.682918 1_655
C11 Ce9 2.682918 1_555
Br0 Ce2 3.062287 1_655
Br0 Ce2 3.062290 1_555
Br0 Ce8 3.155639 1_555
Br0 Ce6 3.164956 1_555
Br1 Ce3 3.062287 1_455
Br1 Ce3 3.062290 1_555
Br1 Ce9 3.155639 1_555
Br1 Ce7 3.164956 1_555
Br2 Ce6 3.009679 1_455
Br2 Ce6 3.009679 1_555
Br2 Ce5 3.103664 1_554
Br3 Ce7 3.009679 1_655
Br3 Ce7 3.009679 1_555
Br3 Ce4 3.103664 1_556
Br4 Ce8 3.037269 1_455
Br4 Ce8 3.037272 1_555
Br4 Ce4 3.050605 1_455
Br4 Ce4 3.050610 1_555
Br4 Ce0 3.423542 1_455
Br5 Ce9 3.037269 1_655
Br5 Ce9 3.037272 1_555
Br5 Ce5 3.050605 1_655
Br5 Ce5 3.050610 1_555
Br5 Ce1 3.423542 1_655
