# generated using pymatgen
data_Na3PH3S2N3O8
_symmetry_space_group_name_H-M   'P 1'
_cell_length_a   9.93788900
_cell_length_b   7.81486500
_cell_length_c   15.58368991
_cell_angle_alpha   60.27984295
_cell_angle_beta   90.00000000
_cell_angle_gamma   90.00000000
_symmetry_Int_Tables_number   1
_chemical_formula_structural   Na3PH3S2N3O8
_chemical_formula_sum   'Na12 P4 H12 S8 N12 O32'
_cell_volume   1051.07647775
_cell_formula_units_Z   4
loop_
 _symmetry_equiv_pos_site_id
 _symmetry_equiv_pos_as_xyz
  1  'x, y, z'
loop_
 _atom_site_type_symbol
 _atom_site_label
 _atom_site_symmetry_multiplicity
 _atom_site_fract_x
 _atom_site_fract_y
 _atom_site_fract_z
 _atom_site_occupancy
  Na  Na0  1  0.56825300  0.72447900  0.60518500  1
  Na  Na1  1  0.43174700  0.27552100  0.39481500  1
  Na  Na2  1  0.06825300  0.27552100  0.89481500  1
  Na  Na3  1  0.93174700  0.72447900  0.10518500  1
  Na  Na4  1  0.46776700  0.26180000  0.61418900  1
  Na  Na5  1  0.53223300  0.73820000  0.38581100  1
  Na  Na6  1  0.96776700  0.73820000  0.88581100  1
  Na  Na7  1  0.03223300  0.26180000  0.11418900  1
  Na  Na8  1  0.44965200  0.28771600  0.84173700  1
  Na  Na9  1  0.55034800  0.71228400  0.15826300  1
  Na  Na10  1  0.94965200  0.71228400  0.65826300  1
  Na  Na11  1  0.05034800  0.28771600  0.34173700  1
  P  P0  1  0.28627900  0.54379900  0.95835300  1
  P  P1  1  0.71372100  0.45620100  0.04164700  1
  P  P2  1  0.78627900  0.45620100  0.54164700  1
  P  P3  1  0.21372100  0.54379900  0.45835300  1
  H  H0  1  0.59113900  0.01146600  0.81325500  1
  H  H1  1  0.40886100  0.98853400  0.18674500  1
  H  H2  1  0.09113900  0.98853400  0.68674500  1
  H  H3  1  0.90886100  0.01146600  0.31325500  1
  H  H4  1  0.06045100  0.44760500  0.58690500  1
  H  H5  1  0.93954900  0.55239500  0.41309500  1
  H  H6  1  0.56045100  0.55239500  0.91309500  1
  H  H7  1  0.43954900  0.44760500  0.08690500  1
  H  H8  1  0.43539900  0.94596300  0.82680700  1
  H  H9  1  0.56460100  0.05403700  0.17319300  1
  H  H10  1  0.93539900  0.05403700  0.67319300  1
  H  H11  1  0.06460100  0.94596300  0.32680700  1
  S  S0  1  0.23195600  0.88305800  0.96934700  1
  S  S1  1  0.76804400  0.11694200  0.03065300  1
  S  S2  1  0.73195600  0.11694200  0.53065300  1
  S  S3  1  0.26804400  0.88305800  0.46934700  1
  S  S4  1  0.22612300  0.53787100  0.64807200  1
  S  S5  1  0.77387700  0.46212900  0.35192800  1
  S  S6  1  0.72612300  0.46212900  0.85192800  1
  S  S7  1  0.27387700  0.53787100  0.14807200  1
  N  N0  1  0.29838200  0.78650200  0.91281400  1
  N  N1  1  0.70161800  0.21349800  0.08718600  1
  N  N2  1  0.79838200  0.21349800  0.58718600  1
  N  N3  1  0.20161800  0.78650200  0.41281400  1
  N  N4  1  0.16653800  0.44143500  0.58298500  1
  N  N5  1  0.83346200  0.55856500  0.41701500  1
  N  N6  1  0.66653800  0.55856500  0.91701500  1
  N  N7  1  0.33346200  0.44143500  0.08298500  1
  N  N8  1  0.20488300  0.77350900  0.58333100  1
  N  N9  1  0.79511700  0.22649100  0.41666900  1
  N  N10  1  0.70488300  0.22649100  0.91666900  1
  N  N11  1  0.29511700  0.77350900  0.08333100  1
  O  O0  1  0.36757800  0.47959400  0.67032600  1
  O  O1  1  0.63242200  0.52040600  0.32967400  1
  O  O2  1  0.86757800  0.52040600  0.82967400  1
  O  O3  1  0.13242200  0.47959400  0.17032600  1
  O  O4  1  0.49962600  0.05369300  0.78610400  1
  O  O5  1  0.50037400  0.94630700  0.21389600  1
  O  O6  1  0.99962600  0.94630700  0.71389600  1
  O  O7  1  0.00037400  0.05369300  0.28610400  1
  O  O8  1  0.27710300  0.96590200  0.65287400  1
  O  O9  1  0.72289700  0.03409800  0.34712600  1
  O  O10  1  0.77710300  0.03409800  0.84712600  1
  O  O11  1  0.22289700  0.96590200  0.15287400  1
  O  O12  1  0.14315200  0.47726900  0.95798100  1
  O  O13  1  0.85684800  0.52273100  0.04201900  1
  O  O14  1  0.64315200  0.52273100  0.54201900  1
  O  O15  1  0.35684800  0.47726900  0.45798100  1
  O  O16  1  0.27390500  0.08809300  0.92631400  1
  O  O17  1  0.72609500  0.91190700  0.07368600  1
  O  O18  1  0.77390500  0.91190700  0.57368600  1
  O  O19  1  0.22609500  0.08809300  0.42631400  1
  O  O20  1  0.39564400  0.48147300  0.91288600  1
  O  O21  1  0.60435600  0.51852700  0.08711400  1
  O  O22  1  0.89564400  0.51852700  0.58711400  1
  O  O23  1  0.10435600  0.48147300  0.41288600  1
  O  O24  1  0.08354100  0.86715900  0.97403700  1
  O  O25  1  0.91645900  0.13284100  0.02596300  1
  O  O26  1  0.58354100  0.13284100  0.52596300  1
  O  O27  1  0.41645900  0.86715900  0.47403700  1
  O  O28  1  0.13861200  0.47158500  0.73371800  1
  O  O29  1  0.86138800  0.52841500  0.26628200  1
  O  O30  1  0.63861200  0.52841500  0.76628200  1
  O  O31  1  0.36138800  0.47158500  0.23371800  1
loop_
_geom_bond_atom_site_label_1
_geom_bond_atom_site_label_2
_geom_bond_distance
_geom_bond_site_symmetry_2
Na0 O30 2.307620 1_555
Na0 O27 2.331595 1_555
Na0 O14 2.355335 1_555
Na0 O18 2.418755 1_555
Na0 O0 2.596890 1_555
Na0 O26 2.797339 1_565
Na1 O31 2.307620 1_555
Na1 O26 2.331595 1_555
Na1 O15 2.355335 1_555
Na1 O19 2.418755 1_555
Na1 O1 2.596890 1_555
Na1 O27 2.797339 1_545
Na2 O28 2.307620 1_555
Na2 O25 2.331595 1_456
Na2 O12 2.355335 1_555
Na2 O16 2.418755 1_555
Na2 O2 2.596890 1_455
Na2 O24 2.797339 1_545
Na3 O29 2.307620 1_555
Na3 O24 2.331595 1_654
Na3 O13 2.355335 1_555
Na3 O17 2.418755 1_555
Na3 O3 2.596890 1_655
Na3 O25 2.797339 1_565
Na4 O4 2.366953 1_555
Na4 O26 2.367193 1_555
Na4 O15 2.431453 1_555
Na4 O0 2.475870 1_555
Na4 O14 2.487357 1_555
Na4 O8 2.814012 1_545
Na5 O5 2.366953 1_555
Na5 O27 2.367193 1_555
Na5 O14 2.431453 1_555
Na5 O1 2.475870 1_555
Na5 O15 2.487357 1_555
Na5 O9 2.814012 1_565
Na6 O6 2.366953 1_555
Na6 O24 2.367193 1_655
Na6 O13 2.431453 1_556
Na6 O2 2.475870 1_555
Na6 O12 2.487357 1_655
Na6 O10 2.814012 1_565
Na7 O7 2.366953 1_555
Na7 O25 2.367193 1_455
Na7 O12 2.431453 1_554
Na7 O3 2.475870 1_555
Na7 O13 2.487357 1_455
Na7 O11 2.814012 1_545
Na8 O16 2.276529 1_555
Na8 O20 2.339837 1_555
Na8 O4 2.432104 1_555
Na8 O0 2.465281 1_555
Na8 O30 2.500841 1_555
Na9 O17 2.276529 1_555
Na9 O21 2.339837 1_555
Na9 O5 2.432104 1_555
Na9 O1 2.465281 1_555
Na9 O31 2.500841 1_555
Na10 O18 2.276529 1_555
Na10 O22 2.339837 1_555
Na10 O6 2.432104 1_555
Na10 O2 2.465281 1_555
Na10 O28 2.500841 1_655
Na11 O19 2.276529 1_555
Na11 O23 2.339837 1_555
Na11 O7 2.432104 1_555
Na11 O3 2.465281 1_555
Na11 O29 2.500841 1_455
H0 O4 0.988216 1_555
H1 O5 0.988216 1_555
H2 O6 0.988216 1_455
H3 O7 0.988216 1_655
H4 N4 1.058530 1_555
H4 O22 1.729592 1_455
H5 N5 1.058530 1_555
H5 O23 1.729592 1_655
H6 N6 1.058530 1_555
H6 O20 1.729592 1_555
H7 N7 1.058530 1_555
H7 O21 1.729592 1_555
H8 O4 0.994504 1_565
H9 O5 0.994504 1_545
H10 O6 0.994504 1_545
H11 O7 0.994504 1_565
N0 S0 1.562192 1_555
N0 P0 1.667608 1_555
N1 S1 1.562192 1_555
N1 P1 1.667608 1_555
N2 S2 1.562192 1_555
N2 P2 1.667608 1_555
N3 S3 1.562192 1_555
N3 P3 1.667608 1_555
N4 S4 1.644790 1_555
N4 P3 1.758268 1_555
N5 S5 1.644790 1_555
N5 P2 1.758268 1_555
N6 S6 1.644790 1_555
N6 P1 1.758268 1_556
N7 S7 1.644790 1_555
N7 P0 1.758268 1_554
N8 S4 1.615968 1_555
N8 S3 1.665625 1_555
N8 Na10 2.733520 1_455
N9 S5 1.615968 1_555
N9 S2 1.665625 1_555
N9 Na11 2.733520 1_655
N10 S6 1.615968 1_555
N10 S1 1.665625 1_556
N10 Na8 2.733520 1_555
N11 S7 1.615968 1_555
N11 S0 1.665625 1_554
N11 Na9 2.733520 1_555
O0 S4 1.465351 1_555
O1 S5 1.465351 1_555
O2 S6 1.465351 1_555
O3 S7 1.465351 1_555
O12 P0 1.515423 1_555
O13 P1 1.515423 1_555
O14 P2 1.515423 1_555
O15 P3 1.515423 1_555
O16 S0 1.457914 1_545
O17 S1 1.457914 1_565
O18 S2 1.457914 1_565
O19 S3 1.457914 1_545
O20 P0 1.504232 1_555
O21 P1 1.504232 1_555
O22 P2 1.504232 1_555
O23 P3 1.504232 1_555
O24 S0 1.478918 1_555
O25 S1 1.478918 1_555
O26 S2 1.478918 1_555
O27 S3 1.478918 1_555
O28 S4 1.456200 1_555
O29 S5 1.456200 1_555
O30 S6 1.456200 1_555
O31 S7 1.456200 1_555
