# generated using pymatgen
data_FeNiSn
_symmetry_space_group_name_H-M   'P 1'
_cell_length_a   5.83285000
_cell_length_b   8.42827200
_cell_length_c   8.42680356
_cell_angle_alpha   59.99423540
_cell_angle_beta   90.00000000
_cell_angle_gamma   90.00000000
_symmetry_Int_Tables_number   1
_chemical_formula_structural   FeNiSn
_chemical_formula_sum   'Fe8 Ni8 Sn8'
_cell_volume   358.74645837
_cell_formula_units_Z   8
loop_
 _symmetry_equiv_pos_site_id
 _symmetry_equiv_pos_as_xyz
  1  'x, y, z'
loop_
 _atom_site_type_symbol
 _atom_site_label
 _atom_site_symmetry_multiplicity
 _atom_site_fract_x
 _atom_site_fract_y
 _atom_site_fract_z
 _atom_site_occupancy
  Fe  Fe0_0  1  0.25000000  0.33330800  0.33338400  1
  Fe  Fe0_1  1  0.25000000  0.33330800  0.83338400  1
  Fe  Fe0_2  1  0.25000000  0.83330800  0.33338400  1
  Fe  Fe0_3  1  0.25000000  0.83330800  0.83338400  1
  Fe  Fe0_4  1  0.75000000  0.33330800  0.33338400  1
  Fe  Fe0_5  1  0.75000000  0.33330800  0.83338400  1
  Fe  Fe0_6  1  0.75000000  0.83330800  0.33338400  1
  Fe  Fe0_7  1  0.75000000  0.83330800  0.83338400  1
  Ni  Ni0_0  1  0.25000000  0.16668400  0.16663200  1
  Ni  Ni0_1  1  0.25000000  0.16668400  0.66663200  1
  Ni  Ni0_2  1  0.25000000  0.66668400  0.16663200  1
  Ni  Ni0_3  1  0.25000000  0.66668400  0.66663200  1
  Ni  Ni0_4  1  0.75000000  0.16668400  0.16663200  1
  Ni  Ni0_5  1  0.75000000  0.16668400  0.66663200  1
  Ni  Ni0_6  1  0.75000000  0.66668400  0.16663200  1
  Ni  Ni0_7  1  0.75000000  0.66668400  0.66663200  1
  Sn  Sn0_0  1  0.00000000  0.00000800  0.49998400  1
  Sn  Sn0_1  1  0.00000000  0.00000800  0.99998400  1
  Sn  Sn0_2  1  0.00000000  0.50000800  0.49998400  1
  Sn  Sn0_3  1  0.00000000  0.50000800  0.99998400  1
  Sn  Sn0_4  1  0.50000000  0.00000800  0.49998400  1
  Sn  Sn0_5  1  0.50000000  0.00000800  0.99998400  1
  Sn  Sn0_6  1  0.50000000  0.50000800  0.49998400  1
  Sn  Sn0_7  1  0.50000000  0.50000800  0.99998400  1
loop_
_geom_bond_atom_site_label_1
_geom_bond_atom_site_label_2
_geom_bond_distance
_geom_bond_site_symmetry_2
Fe0_0 Ni0_1 2.431845 1_555
Fe0_0 Ni0_0 2.433203 1_555
Fe0_0 Ni0_2 2.433203 1_555
Fe0_0 Sn0_0 2.836223 1_555
Fe0_0 Sn0_4 2.836223 1_555
Fe0_0 Sn0_2 2.836223 1_555
Fe0_0 Sn0_6 2.836223 1_555
Fe0_0 Sn0_7 2.836485 1_554
Fe0_0 Sn0_3 2.836485 1_554
Fe0_0 Fe0_4 2.916425 1_555
Fe0_0 Fe0_4 2.916425 1_455
Fe0_1 Ni0_0 2.431845 1_556
Fe0_1 Ni0_1 2.433203 1_555
Fe0_1 Ni0_3 2.433203 1_555
Fe0_1 Sn0_1 2.836223 1_555
Fe0_1 Sn0_5 2.836223 1_555
Fe0_1 Sn0_3 2.836223 1_555
Fe0_1 Sn0_7 2.836223 1_555
Fe0_1 Sn0_6 2.836485 1_555
Fe0_1 Sn0_2 2.836485 1_555
Fe0_1 Fe0_5 2.916425 1_555
Fe0_1 Fe0_5 2.916425 1_455
Fe0_2 Ni0_3 2.431845 1_555
Fe0_2 Ni0_2 2.433203 1_555
Fe0_2 Ni0_0 2.433203 1_565
Fe0_2 Sn0_6 2.836223 1_555
Fe0_2 Sn0_2 2.836223 1_555
Fe0_2 Sn0_4 2.836223 1_565
Fe0_2 Sn0_0 2.836223 1_565
Fe0_2 Sn0_1 2.836485 1_564
Fe0_2 Sn0_5 2.836485 1_564
Fe0_2 Fe0_6 2.916425 1_555
Fe0_2 Fe0_6 2.916425 1_455
Fe0_3 Ni0_2 2.431845 1_556
Fe0_3 Ni0_3 2.433203 1_555
Fe0_3 Ni0_1 2.433203 1_565
Fe0_3 Sn0_3 2.836223 1_555
Fe0_3 Sn0_7 2.836223 1_555
Fe0_3 Sn0_5 2.836223 1_565
Fe0_3 Sn0_1 2.836223 1_565
Fe0_3 Sn0_0 2.836485 1_565
Fe0_3 Sn0_4 2.836485 1_565
Fe0_3 Fe0_7 2.916425 1_555
Fe0_3 Fe0_7 2.916425 1_455
Fe0_4 Ni0_5 2.431845 1_555
Fe0_4 Ni0_4 2.433203 1_555
Fe0_4 Ni0_6 2.433203 1_555
Fe0_4 Sn0_4 2.836223 1_555
Fe0_4 Sn0_0 2.836223 1_655
Fe0_4 Sn0_6 2.836223 1_555
Fe0_4 Sn0_2 2.836223 1_655
Fe0_4 Sn0_7 2.836485 1_554
Fe0_4 Sn0_3 2.836485 1_654
Fe0_5 Ni0_4 2.431845 1_556
Fe0_5 Ni0_5 2.433203 1_555
Fe0_5 Ni0_7 2.433203 1_555
Fe0_5 Sn0_5 2.836223 1_555
Fe0_5 Sn0_1 2.836223 1_655
Fe0_5 Sn0_7 2.836223 1_555
Fe0_5 Sn0_3 2.836223 1_655
Fe0_5 Sn0_6 2.836485 1_555
Fe0_5 Sn0_2 2.836485 1_655
Fe0_6 Ni0_7 2.431845 1_555
Fe0_6 Ni0_6 2.433203 1_555
Fe0_6 Ni0_4 2.433203 1_565
Fe0_6 Sn0_6 2.836223 1_555
Fe0_6 Sn0_2 2.836223 1_655
Fe0_6 Sn0_4 2.836223 1_565
Fe0_6 Sn0_0 2.836223 1_665
Fe0_6 Sn0_5 2.836485 1_564
Fe0_6 Sn0_1 2.836485 1_664
Fe0_7 Ni0_6 2.431845 1_556
Fe0_7 Ni0_7 2.433203 1_555
Fe0_7 Ni0_5 2.433203 1_565
Fe0_7 Sn0_7 2.836223 1_555
Fe0_7 Sn0_3 2.836223 1_655
Fe0_7 Sn0_5 2.836223 1_565
Fe0_7 Sn0_1 2.836223 1_665
Fe0_7 Sn0_4 2.836485 1_565
Fe0_7 Sn0_0 2.836485 1_665
Ni0_0 Sn0_4 2.836185 1_555
Ni0_0 Sn0_0 2.836185 1_555
Ni0_0 Sn0_7 2.836373 1_554
Ni0_0 Sn0_3 2.836373 1_554
Ni0_0 Sn0_1 2.836373 1_554
Ni0_0 Sn0_5 2.836373 1_554
Ni0_0 Ni0_4 2.916425 1_555
Ni0_0 Ni0_4 2.916425 1_455
Ni0_1 Sn0_1 2.836185 1_555
Ni0_1 Sn0_5 2.836185 1_555
Ni0_1 Sn0_0 2.836373 1_555
Ni0_1 Sn0_6 2.836373 1_555
Ni0_1 Sn0_4 2.836373 1_555
Ni0_1 Sn0_2 2.836373 1_555
Ni0_1 Ni0_5 2.916425 1_555
Ni0_1 Ni0_5 2.916425 1_455
Ni0_2 Sn0_2 2.836185 1_555
Ni0_2 Sn0_6 2.836185 1_555
Ni0_2 Sn0_1 2.836373 1_564
Ni0_2 Sn0_5 2.836373 1_564
Ni0_2 Sn0_7 2.836373 1_554
Ni0_2 Sn0_3 2.836373 1_554
Ni0_2 Ni0_6 2.916425 1_555
Ni0_2 Ni0_6 2.916425 1_455
Ni0_3 Sn0_7 2.836185 1_555
Ni0_3 Sn0_3 2.836185 1_555
Ni0_3 Sn0_0 2.836373 1_565
Ni0_3 Sn0_6 2.836373 1_555
Ni0_3 Sn0_4 2.836373 1_565
Ni0_3 Sn0_2 2.836373 1_555
Ni0_3 Ni0_7 2.916425 1_555
Ni0_3 Ni0_7 2.916425 1_455
Ni0_4 Sn0_4 2.836185 1_555
Ni0_4 Sn0_0 2.836185 1_655
Ni0_4 Sn0_7 2.836373 1_554
Ni0_4 Sn0_3 2.836373 1_654
Ni0_4 Sn0_5 2.836373 1_554
Ni0_4 Sn0_1 2.836373 1_654
Ni0_5 Sn0_5 2.836185 1_555
Ni0_5 Sn0_1 2.836185 1_655
Ni0_5 Sn0_6 2.836373 1_555
Ni0_5 Sn0_4 2.836373 1_555
Ni0_5 Sn0_0 2.836373 1_655
Ni0_5 Sn0_2 2.836373 1_655
Ni0_6 Sn0_6 2.836185 1_555
Ni0_6 Sn0_2 2.836185 1_655
Ni0_6 Sn0_1 2.836373 1_664
Ni0_6 Sn0_5 2.836373 1_564
Ni0_6 Sn0_7 2.836373 1_554
Ni0_6 Sn0_3 2.836373 1_654
Ni0_7 Sn0_7 2.836185 1_555
Ni0_7 Sn0_3 2.836185 1_655
Ni0_7 Sn0_6 2.836373 1_555
Ni0_7 Sn0_4 2.836373 1_565
Ni0_7 Sn0_0 2.836373 1_665
Ni0_7 Sn0_2 2.836373 1_655
Sn0_0 Sn0_4 2.916425 1_555
Sn0_0 Sn0_4 2.916425 1_455
Sn0_1 Sn0_5 2.916425 1_555
Sn0_1 Sn0_5 2.916425 1_455
Sn0_2 Sn0_6 2.916425 1_555
Sn0_2 Sn0_6 2.916425 1_455
Sn0_3 Sn0_7 2.916425 1_555
Sn0_3 Sn0_7 2.916425 1_455
