# generated using pymatgen
data_Na4Ho2(IrO4)3
_symmetry_space_group_name_H-M   'P 1'
_cell_length_a   3.19327800
_cell_length_b   9.44082091
_cell_length_c   9.44082091
_cell_angle_alpha   120.00000636
_cell_angle_beta   90.00000000
_cell_angle_gamma   90.00000000
_symmetry_Int_Tables_number   1
_chemical_formula_structural   Na4Ho2(IrO4)3
_chemical_formula_sum   'Na4 Ho2 Ir3 O12'
_cell_volume   246.48293179
_cell_formula_units_Z   1
loop_
 _symmetry_equiv_pos_site_id
 _symmetry_equiv_pos_as_xyz
  1  'x, y, z'
loop_
 _atom_site_type_symbol
 _atom_site_label
 _atom_site_symmetry_multiplicity
 _atom_site_fract_x
 _atom_site_fract_y
 _atom_site_fract_z
 _atom_site_occupancy
  Na  Na0  1  0.50000000  0.30103700  0.30103700  1
  Na  Na1  1  0.50000000  0.00000000  0.69896300  1
  Na  Na2  1  0.50000000  0.69896300  0.00000000  1
  Na  Na3  1  0.00000000  0.00000000  0.00000000  1
  Ho  Ho0  1  0.50000000  0.66666700  0.33333300  1
  Ho  Ho1  1  0.50000000  0.33333300  0.66666700  1
  Ir  Ir0  1  0.00000000  0.67022400  0.67022400  1
  Ir  Ir1  1  0.00000000  0.00000000  0.32977600  1
  Ir  Ir2  1  0.00000000  0.32977600  0.00000000  1
  O  O0  1  0.50000000  0.54268900  0.54268900  1
  O  O1  1  0.50000000  0.00000000  0.45731100  1
  O  O2  1  0.50000000  0.45731100  0.00000000  1
  O  O3  1  0.50000000  0.80337400  0.80337400  1
  O  O4  1  0.50000000  0.00000000  0.19662600  1
  O  O5  1  0.50000000  0.19662600  0.00000000  1
  O  O6  1  0.00000000  0.75567500  0.21723800  1
  O  O7  1  0.00000000  0.46156200  0.24432500  1
  O  O8  1  0.00000000  0.53843800  0.78276200  1
  O  O9  1  0.00000000  0.78276200  0.53843800  1
  O  O10  1  0.00000000  0.21723800  0.75567500  1
  O  O11  1  0.00000000  0.24432500  0.46156200  1
loop_
_geom_bond_atom_site_label_1
_geom_bond_atom_site_label_2
_geom_bond_distance
_geom_bond_site_symmetry_2
Na0 O0 2.281393 1_555
Na0 O7 2.438037 1_655
Na0 O11 2.438037 1_555
Na0 O11 2.438037 1_655
Na0 O7 2.438037 1_555
Na0 O5 2.499471 1_555
Na0 O4 2.499471 1_555
Na1 O1 2.281393 1_555
Na1 O9 2.438042 1_545
Na1 O9 2.438042 1_645
Na1 O10 2.438044 1_655
Na1 O10 2.438044 1_555
Na1 O5 2.499471 1_556
Na1 O3 2.499472 1_545
Na2 O2 2.281393 1_555
Na2 O8 2.438042 1_554
Na2 O8 2.438042 1_654
Na2 O6 2.438044 1_555
Na2 O6 2.438044 1_655
Na2 O4 2.499471 1_565
Na2 O3 2.499472 1_554
Na3 O3 2.448499 1_444
Na3 O3 2.448499 1_544
Na3 O5 2.448499 1_555
Na3 O4 2.448499 1_455
Na3 O5 2.448499 1_455
Na3 O4 2.448499 1_555
Ho0 O6 2.318980 1_555
Ho0 O6 2.318980 1_655
Ho0 O9 2.318991 1_655
Ho0 O9 2.318991 1_555
Ho0 O7 2.318992 1_555
Ho0 O7 2.318992 1_655
Ho0 O1 2.754965 1_565
Ho0 O2 2.754966 1_555
Ho0 O0 2.754974 1_555
Ho1 O10 2.318980 1_655
Ho1 O10 2.318980 1_555
Ho1 O8 2.318991 1_555
Ho1 O8 2.318991 1_655
Ho1 O11 2.318992 1_555
Ho1 O11 2.318992 1_655
Ho1 O2 2.754965 1_556
Ho1 O1 2.754966 1_555
Ho1 O0 2.754974 1_555
Ir0 O9 1.999656 1_555
Ir0 O8 1.999656 1_555
Ir0 O0 1.999739 1_455
Ir0 O0 1.999739 1_555
Ir0 O3 2.032097 1_555
Ir0 O3 2.032097 1_455
Ir1 O11 1.999664 1_555
Ir1 O6 1.999664 1_545
Ir1 O1 1.999739 1_455
Ir1 O1 1.999739 1_555
Ir1 O4 2.032097 1_455
Ir1 O4 2.032097 1_555
Ir2 O7 1.999664 1_555
Ir2 O10 1.999664 1_554
Ir2 O2 1.999739 1_555
Ir2 O2 1.999739 1_455
Ir2 O5 2.032097 1_555
Ir2 O5 2.032097 1_455
