# generated using pymatgen
data_SiCCl3
_symmetry_space_group_name_H-M   'P 1'
_cell_length_a   9.59651718
_cell_length_b   9.59651718
_cell_length_c   9.65350471
_cell_angle_alpha   84.01397088
_cell_angle_beta   84.01397088
_cell_angle_gamma   101.05467148
_symmetry_Int_Tables_number   1
_chemical_formula_structural   SiCCl3
_chemical_formula_sum   'Si6 C6 Cl18'
_cell_volume   860.70505239
_cell_formula_units_Z   6
loop_
 _symmetry_equiv_pos_site_id
 _symmetry_equiv_pos_as_xyz
  1  'x, y, z'
loop_
 _atom_site_type_symbol
 _atom_site_label
 _atom_site_symmetry_multiplicity
 _atom_site_fract_x
 _atom_site_fract_y
 _atom_site_fract_z
 _atom_site_occupancy
  Si  Si0  1  0.40709000  0.18170100  0.24334900  1
  Si  Si1  1  0.59291000  0.81829900  0.75665100  1
  Si  Si2  1  0.81829900  0.59291000  0.75665100  1
  Si  Si3  1  0.18170100  0.40709000  0.24334900  1
  Si  Si4  1  0.89488200  0.89488200  0.31376300  1
  Si  Si5  1  0.10511800  0.10511800  0.68623700  1
  C  C0  1  0.76768400  0.76768400  0.69620200  1
  C  C1  1  0.23231600  0.23231600  0.30379800  1
  C  C2  1  0.94032800  0.94032800  0.49240000  1
  C  C3  1  0.05967200  0.05967200  0.50760000  1
  C  C4  1  0.85610600  0.85610600  0.59836800  1
  C  C5  1  0.14389400  0.14389400  0.40163200  1
  Cl  Cl0  1  0.43850200  0.18611700  0.03086100  1
  Cl  Cl1  1  0.56149800  0.81388300  0.96913900  1
  Cl  Cl2  1  0.81388300  0.56149800  0.96913900  1
  Cl  Cl3  1  0.18611700  0.43850200  0.03086100  1
  Cl  Cl4  1  0.57311200  0.32073000  0.30227700  1
  Cl  Cl5  1  0.42688800  0.67927000  0.69772300  1
  Cl  Cl6  1  0.67927000  0.42688800  0.69772300  1
  Cl  Cl7  1  0.32073000  0.57311200  0.30227700  1
  Cl  Cl8  1  0.41302300  0.98127600  0.33272500  1
  Cl  Cl9  1  0.58697700  0.01872400  0.66727500  1
  Cl  Cl10  1  0.01872400  0.58697700  0.66727500  1
  Cl  Cl11  1  0.98127600  0.41302300  0.33272500  1
  Cl  Cl12  1  0.84227100  0.06509800  0.20154200  1
  Cl  Cl13  1  0.15772900  0.93490200  0.79845800  1
  Cl  Cl14  1  0.93490200  0.15772900  0.79845800  1
  Cl  Cl15  1  0.06509800  0.84227100  0.20154200  1
  Cl  Cl16  1  0.72572200  0.72572200  0.33220100  1
  Cl  Cl17  1  0.27427800  0.27427800  0.66779900  1
loop_
_geom_bond_atom_site_label_1
_geom_bond_atom_site_label_2
_geom_bond_distance
_geom_bond_site_symmetry_2
C0 C4 1.312097 1_555
C0 Si2 1.885983 1_555
C0 Si1 1.885983 1_555
C1 C5 1.312097 1_555
C1 Si0 1.885983 1_555
C1 Si3 1.885983 1_555
C2 C4 1.325723 1_555
C2 C3 1.487272 1_665
C2 Si4 1.896049 1_555
C3 C5 1.325723 1_555
C3 Si5 1.896049 1_555
Cl0 Si0 2.036740 1_555
Cl1 Si1 2.036740 1_555
Cl2 Si2 2.036740 1_555
Cl3 Si3 2.036740 1_555
Cl4 Si0 2.043092 1_555
Cl5 Si1 2.043092 1_555
Cl6 Si2 2.043092 1_555
Cl7 Si3 2.043092 1_555
Cl8 Si0 2.037933 1_565
Cl9 Si1 2.037933 1_545
Cl10 Si2 2.037933 1_455
Cl11 Si3 2.037933 1_655
Cl12 Si4 2.039123 1_545
Cl13 Si5 2.039123 1_565
Cl14 Si5 2.039123 1_655
Cl15 Si4 2.039123 1_455
Cl16 Si4 2.042318 1_555
Cl17 Si5 2.042318 1_555
