# generated using pymatgen
data_Pr3Bi4Pt3
_symmetry_space_group_name_H-M   'P 1'
_cell_length_a   8.80672001
_cell_length_b   8.80672001
_cell_length_c   8.80672001
_cell_angle_alpha   109.47122063
_cell_angle_beta   109.47122063
_cell_angle_gamma   109.47122063
_symmetry_Int_Tables_number   1
_chemical_formula_structural   Pr3Bi4Pt3
_chemical_formula_sum   'Pr6 Bi8 Pt6'
_cell_volume   525.80011537
_cell_formula_units_Z   2
loop_
 _symmetry_equiv_pos_site_id
 _symmetry_equiv_pos_as_xyz
  1  'x, y, z'
loop_
 _atom_site_type_symbol
 _atom_site_label
 _atom_site_symmetry_multiplicity
 _atom_site_fract_x
 _atom_site_fract_y
 _atom_site_fract_z
 _atom_site_occupancy
  Pr  Pr0  1  0.12500000  0.87500000  0.25000000  1
  Pr  Pr1  1  0.37500000  0.62500000  0.75000000  1
  Pr  Pr2  1  0.87500000  0.25000000  0.12500000  1
  Pr  Pr3  1  0.62500000  0.75000000  0.37500000  1
  Pr  Pr4  1  0.25000000  0.12500000  0.87500000  1
  Pr  Pr5  1  0.75000000  0.37500000  0.62500000  1
  Bi  Bi0  1  0.33404035  0.33404035  0.33404035  1
  Bi  Bi1  1  0.16595965  0.50000000  0.00000000  1
  Bi  Bi2  1  0.00000000  0.16595965  0.50000000  1
  Bi  Bi3  1  0.83404035  0.83404035  0.83404035  1
  Bi  Bi4  1  0.50000000  -0.00000000  0.16595965  1
  Bi  Bi5  1  0.66595965  0.50000000  0.00000000  1
  Bi  Bi6  1  0.50000000  -0.00000000  0.66595965  1
  Bi  Bi7  1  0.00000000  0.66595965  0.50000000  1
  Pt  Pt0  1  0.62500000  0.37500000  0.25000000  1
  Pt  Pt1  1  0.87500000  0.12500000  0.75000000  1
  Pt  Pt2  1  0.37500000  0.25000000  0.62500000  1
  Pt  Pt3  1  0.12500000  0.75000000  0.87500000  1
  Pt  Pt4  1  0.25000000  0.62500000  0.37500000  1
  Pt  Pt5  1  0.75000000  0.87500000  0.12500000  1
loop_
_geom_bond_atom_site_label_1
_geom_bond_atom_site_label_2
_geom_bond_distance
_geom_bond_site_symmetry_2
Pr0 Pt4 3.113646 1_555
Pr0 Pt5 3.113646 1_455
Pr0 Pt3 3.113646 1_554
Pr0 Pt2 3.113646 1_565
Pr1 Pt5 3.113646 1_556
Pr1 Pt4 3.113646 1_555
Pr1 Pt2 3.113646 1_555
Pr1 Pt3 3.113646 1_555
Pr2 Pt5 3.113646 1_545
Pr2 Pt1 3.113646 1_554
Pr2 Pt4 3.113646 1_655
Pr2 Pt0 3.113646 1_555
Pr3 Pt4 3.113646 1_555
Pr3 Pt0 3.113646 1_555
Pr3 Pt5 3.113646 1_555
Pr3 Pt1 3.113646 1_565
Pr4 Pt0 3.113646 1_556
Pr4 Pt1 3.113646 1_455
Pr4 Pt3 3.113646 1_545
Pr4 Pt2 3.113646 1_555
Pr5 Pt1 3.113646 1_555
Pr5 Pt0 3.113646 1_555
Pr5 Pt3 3.113646 1_655
Pr5 Pt2 3.113646 1_555
Bi0 Pt2 2.840755 1_555
Bi0 Pt0 2.840755 1_555
Bi0 Pt4 2.840755 1_555
Bi0 Pr1 3.515737 1_555
Bi0 Pr3 3.515737 1_555
Bi0 Pr5 3.515737 1_555
Bi0 Pr4 3.523527 1_554
Bi0 Pr2 3.523527 1_455
Bi0 Pr0 3.523527 1_545
Bi1 Pt3 2.840755 1_554
Bi1 Pt4 2.840755 1_555
Bi1 Pt1 2.840755 1_454
Bi1 Pr0 3.515737 1_555
Bi1 Pr2 3.515737 1_455
Bi1 Pr5 3.515737 1_454
Bi1 Pr4 3.523527 1_554
Bi1 Pr3 3.523527 1_555
Bi1 Pr1 3.523527 1_554
Bi2 Pt2 2.840755 1_555
Bi2 Pt5 2.840755 1_445
Bi2 Pt1 2.840755 1_455
Bi2 Pr3 3.515737 1_445
Bi2 Pr4 3.515737 1_555
Bi2 Pr0 3.515737 1_545
Bi2 Pr1 3.523527 1_555
Bi2 Pr5 3.523527 1_455
Bi2 Pr2 3.523527 1_455
Bi3 Pt5 2.840755 1_556
Bi3 Pt1 2.840755 1_565
Bi3 Pt3 2.840755 1_655
Bi3 Pr2 3.515737 1_566
Bi3 Pr0 3.515737 1_656
Bi3 Pr4 3.515737 1_665
Bi3 Pr3 3.523527 1_555
Bi3 Pr5 3.523527 1_555
Bi3 Pr1 3.523527 1_555
Bi4 Pt5 2.840755 1_545
Bi4 Pt0 2.840755 1_555
Bi4 Pt3 2.840755 1_544
Bi4 Pr1 3.515737 1_544
Bi4 Pr2 3.515737 1_555
Bi4 Pr4 3.515737 1_554
Bi4 Pr5 3.523527 1_555
Bi4 Pr0 3.523527 1_545
Bi4 Pr3 3.523527 1_545
Bi5 Pt5 2.840755 1_555
Bi5 Pt0 2.840755 1_555
Bi5 Pt2 2.840755 1_554
Bi5 Pr1 3.515737 1_554
Bi5 Pr3 3.515737 1_555
Bi5 Pr4 3.515737 1_554
Bi5 Pr0 3.523527 1_655
Bi5 Pr2 3.523527 1_555
Bi5 Pr5 3.523527 1_554
Bi6 Pt4 2.840755 1_545
Bi6 Pt2 2.840755 1_555
Bi6 Pt1 2.840755 1_555
Bi6 Pr0 3.515737 1_545
Bi6 Pr3 3.515737 1_545
Bi6 Pr5 3.515737 1_555
Bi6 Pr1 3.523527 1_545
Bi6 Pr4 3.523527 1_555
Bi6 Pr2 3.523527 1_556
Bi7 Pt0 2.840755 1_455
Bi7 Pt3 2.840755 1_555
Bi7 Pt4 2.840755 1_555
Bi7 Pr5 3.515737 1_455
Bi7 Pr1 3.515737 1_555
Bi7 Pr2 3.515737 1_455
Bi7 Pr4 3.523527 1_565
Bi7 Pr3 3.523527 1_455
Bi7 Pr0 3.523527 1_555
