# generated using pymatgen
data_BaEuHfNbO6
_symmetry_space_group_name_H-M   'P 1'
_cell_length_a   5.82249981
_cell_length_b   5.82249814
_cell_length_c   5.82248056
_cell_angle_alpha   60.00009987
_cell_angle_beta   60.00010935
_cell_angle_gamma   59.99988109
_symmetry_Int_Tables_number   1
_chemical_formula_structural   BaEuHfNbO6
_chemical_formula_sum   'Ba1 Eu1 Hf1 Nb1 O6'
_cell_volume   139.57646273
_cell_formula_units_Z   1
loop_
 _symmetry_equiv_pos_site_id
 _symmetry_equiv_pos_as_xyz
  1  'x, y, z'
loop_
 _atom_site_type_symbol
 _atom_site_label
 _atom_site_symmetry_multiplicity
 _atom_site_fract_x
 _atom_site_fract_y
 _atom_site_fract_z
 _atom_site_occupancy
  Ba  Ba0  1  0.75000087  0.74999954  0.74999980  1
  Eu  Eu0  1  0.24999842  0.25000002  0.25000078  1
  Hf  Hf0  1  0.00000030  0.00000002  0.99999984  1
  Nb  Nb0  1  0.49999947  0.50000027  0.50000013  1
  O  O0  1  0.74881656  0.25118430  0.25118357  1
  O  O1  1  0.25118379  0.74881552  0.74881616  1
  O  O2  1  0.74881656  0.25118430  0.74881557  1
  O  O3  1  0.25118379  0.74881552  0.25118453  1
  O  O4  1  0.74882049  0.74881927  0.25118012  1
  O  O5  1  0.25117975  0.25118126  0.74881949  1
loop_
_geom_bond_atom_site_label_1
_geom_bond_atom_site_label_2
_geom_bond_distance
_geom_bond_site_symmetry_2
Ba0 O5 2.911252 1_655
Ba0 O4 2.911256 1_556
Ba0 O4 2.911257 1_555
Ba0 O1 2.911261 1_655
Ba0 O3 2.911261 1_655
Ba0 O0 2.911263 1_556
Ba0 O2 2.911263 1_555
Ba0 O2 2.911268 1_565
Ba0 O0 2.911268 1_565
Ba0 O5 2.911269 1_565
Ba0 O3 2.911271 1_556
Ba0 O1 2.911272 1_555
Eu0 O4 2.911252 1_455
Eu0 O0 2.911256 1_455
Eu0 O2 2.911256 1_455
Eu0 O5 2.911257 1_555
Eu0 O5 2.911257 1_554
Eu0 O3 2.911265 1_545
Eu0 O1 2.911265 1_545
Eu0 O3 2.911266 1_555
Eu0 O1 2.911266 1_554
Eu0 O4 2.911269 1_545
Eu0 O2 2.911276 1_554
Eu0 O0 2.911276 1_555
Hf0 O4 2.068288 1_446
Hf0 O5 2.068289 1_555
Hf0 O2 2.068309 1_455
Hf0 O0 2.068309 1_456
Hf0 O3 2.068309 1_546
Hf0 O1 2.068309 1_545
Nb0 O1 2.048807 1_555
Nb0 O3 2.048807 1_555
Nb0 O0 2.048812 1_555
Nb0 O2 2.048812 1_555
Nb0 O5 2.048848 1_555
Nb0 O4 2.048853 1_555
