# generated using pymatgen
data_Ho5Ir3
_symmetry_space_group_name_H-M   'P 1'
_cell_length_a   6.33243610
_cell_length_b   10.76892899
_cell_length_c   10.76874243
_cell_angle_alpha   89.99956638
_cell_angle_beta   89.99907036
_cell_angle_gamma   90.00021274
_symmetry_Int_Tables_number   1
_chemical_formula_structural   Ho5Ir3
_chemical_formula_sum   'Ho20 Ir12'
_cell_volume   734.35882583
_cell_formula_units_Z   4
loop_
 _symmetry_equiv_pos_site_id
 _symmetry_equiv_pos_as_xyz
  1  'x, y, z'
loop_
 _atom_site_type_symbol
 _atom_site_label
 _atom_site_symmetry_multiplicity
 _atom_site_fract_x
 _atom_site_fract_y
 _atom_site_fract_z
 _atom_site_occupancy
  Ho  Ho0  1  0.38386296  0.83826245  0.54192450  1
  Ho  Ho1  1  0.88386038  0.66174419  0.54191263  1
  Ho  Ho2  1  0.88387103  0.83826568  0.95807406  1
  Ho  Ho3  1  0.38386858  0.66173731  0.95808652  1
  Ho  Ho4  1  0.88387161  0.54195692  0.83828662  1
  Ho  Ho5  1  0.38385457  0.95804495  0.83827257  1
  Ho  Ho6  1  0.38386971  0.54196171  0.66170619  1
  Ho  Ho7  1  0.88385379  0.95803788  0.66171562  1
  Ho  Ho8  1  0.61614160  0.16171543  0.45803159  1
  Ho  Ho9  1  0.11614106  0.33828009  0.45804730  1
  Ho  Ho10  1  0.11613594  0.16171247  0.04196876  1
  Ho  Ho11  1  0.61613530  0.33828737  0.04195414  1
  Ho  Ho12  1  0.11612754  0.45808309  0.16173484  1
  Ho  Ho13  1  0.61614117  0.04191674  0.16174950  1
  Ho  Ho14  1  0.61612635  0.45807764  0.33827078  1
  Ho  Ho15  1  0.11614204  0.04192146  0.33826127  1
  Ho  Ho16  1  0.50000704  0.74999169  0.25000009  1
  Ho  Ho17  1  -0.00000542  0.74999247  0.24999598  1
  Ho  Ho18  1  0.00001291  0.25000577  0.75000385  1
  Ho  Ho19  1  0.49998020  0.25000452  0.75000035  1
  Ir  Ir0  1  0.24999934  0.90348985  0.09651762  1
  Ir  Ir1  1  0.75000458  0.59652003  0.09652022  1
  Ir  Ir2  1  0.74999928  0.90349410  0.40349277  1
  Ir  Ir3  1  0.24999643  0.59651615  0.40349516  1
  Ir  Ir4  1  0.75000395  0.09648380  0.90350000  1
  Ir  Ir5  1  0.25000333  0.40350032  0.90350145  1
  Ir  Ir6  1  0.24999903  0.09648433  0.59648926  1
  Ir  Ir7  1  0.74999253  0.40350292  0.59648495  1
  Ir  Ir8  1  0.13063226  0.74999850  0.75000023  1
  Ir  Ir9  1  0.63063235  0.74999929  0.75000092  1
  Ir  Ir10  1  0.86936848  0.25000474  0.24999885  1
  Ir  Ir11  1  0.36937007  0.25000414  0.24999840  1
loop_
_geom_bond_atom_site_label_1
_geom_bond_atom_site_label_2
_geom_bond_distance
_geom_bond_site_symmetry_2
Ho0 Ir2 2.844508 1_555
Ho0 Ir9 2.892448 1_555
Ho0 Ir8 2.914710 1_555
Ho0 Ir6 2.965900 1_565
Ho0 Ir3 3.117422 1_555
Ho0 Ho16 3.365575 1_555
Ho1 Ir3 2.844427 1_655
Ho1 Ir8 2.892526 1_655
Ho1 Ir9 2.914788 1_555
Ho1 Ir7 2.966104 1_555
Ho1 Ir2 3.117383 1_555
Ho1 Ho17 3.365400 1_655
Ho2 Ir0 2.844559 1_656
Ho2 Ir8 2.892384 1_655
Ho2 Ir9 2.914776 1_555
Ho2 Ir4 2.965884 1_565
Ho2 Ir1 3.117471 1_556
Ho3 Ir1 2.844523 1_556
Ho3 Ir9 2.892458 1_555
Ho3 Ir8 2.914851 1_555
Ho3 Ir5 2.966098 1_555
Ho3 Ir0 3.117484 1_556
Ho4 Ir5 2.844626 1_655
Ho4 Ir8 2.892200 1_655
Ho4 Ir9 2.914599 1_555
Ho4 Ir1 2.965964 1_556
Ho4 Ir7 3.118050 1_555
Ho5 Ir4 2.844647 1_565
Ho5 Ir9 2.892260 1_555
Ho5 Ir8 2.914529 1_555
Ho5 Ir0 2.966032 1_556
Ho5 Ir6 3.117753 1_565
Ho6 Ir7 2.844597 1_555
Ho6 Ir9 2.892230 1_555
Ho6 Ir8 2.914570 1_555
Ho6 Ir3 2.965747 1_555
Ho6 Ir5 3.117966 1_555
Ho7 Ir6 2.844642 1_665
Ho7 Ir8 2.892262 1_655
Ho7 Ir9 2.914478 1_555
Ho7 Ir2 2.965817 1_555
Ho7 Ir4 3.117782 1_565
Ho8 Ir6 2.844686 1_555
Ho8 Ir11 2.892185 1_555
Ho8 Ir10 2.914430 1_555
Ho8 Ir2 2.965828 1_545
Ho8 Ir7 3.117890 1_555
Ho9 Ir7 2.844591 1_455
Ho9 Ir10 2.892276 1_455
Ho9 Ir11 2.914539 1_555
Ho9 Ir3 2.965986 1_555
Ho9 Ir6 3.117904 1_555
Ho10 Ir4 2.844732 1_454
Ho10 Ir10 2.892130 1_455
Ho10 Ir11 2.914489 1_555
Ho10 Ir0 2.965869 1_545
Ho10 Ir5 3.117961 1_554
Ho10 Ho18 3.366031 1_554
Ho11 Ir5 2.844598 1_554
Ho11 Ir11 2.892193 1_555
Ho11 Ir10 2.914571 1_555
Ho11 Ir1 2.966021 1_555
Ho11 Ir4 3.118061 1_554
Ho11 Ho19 3.365943 1_554
Ho12 Ir1 2.844470 1_455
Ho12 Ir10 2.892422 1_455
Ho12 Ir11 2.914836 1_555
Ho12 Ir5 2.966020 1_554
Ho12 Ir3 3.117552 1_555
Ho12 Ho17 3.365435 1_555
Ho13 Ir0 2.844553 1_545
Ho13 Ir11 2.892505 1_555
Ho13 Ir10 2.914810 1_555
Ho13 Ir4 2.966116 1_554
Ho13 Ir2 3.117311 1_545
Ho13 Ho16 3.365543 1_545
Ho14 Ir3 2.844527 1_555
Ho14 Ir11 2.892429 1_555
Ho14 Ir10 2.914808 1_555
Ho14 Ir7 2.965809 1_555
Ho14 Ir1 3.117487 1_555
Ho14 Ho16 3.365485 1_555
Ho15 Ir2 2.844535 1_445
Ho15 Ir10 2.892533 1_455
Ho15 Ir11 2.914787 1_555
Ho15 Ir6 2.965914 1_555
Ho15 Ir0 3.117355 1_545
Ho15 Ho17 3.365666 1_545
Ho16 Ir1 2.823006 1_555
Ho16 Ir3 2.823151 1_555
Ho16 Ir0 2.823241 1_555
Ho16 Ir2 2.823285 1_555
Ho16 Ho17 3.166139 1_655
Ho16 Ho17 3.166297 1_555
Ho16 Ho3 3.365429 1_554
Ho17 Ir1 2.822981 1_455
Ho17 Ir0 2.823162 1_555
Ho17 Ir3 2.823188 1_555
Ho17 Ir2 2.823293 1_455
Ho17 Ho2 3.365538 1_454
Ho18 Ir5 2.823260 1_555
Ho18 Ir4 2.823445 1_455
Ho18 Ir6 2.823498 1_555
Ho18 Ir7 2.823509 1_455
Ho18 Ho19 3.166011 1_555
Ho18 Ho19 3.166425 1_455
Ho18 Ho9 3.365872 1_555
Ho18 Ho4 3.365932 1_455
Ho18 Ho7 3.366144 1_445
Ho19 Ir5 2.823218 1_555
Ho19 Ir7 2.823429 1_555
Ho19 Ir6 2.823474 1_555
Ho19 Ir4 2.823548 1_555
Ho19 Ho5 3.365945 1_545
Ho19 Ho6 3.365978 1_555
Ho19 Ho8 3.366101 1_555
Ir8 Ir9 3.166217 1_455
Ir8 Ir9 3.166219 1_555
Ir10 Ir11 3.166208 1_555
Ir10 Ir11 3.166228 1_655
