# generated using pymatgen
data_BaP2S2O9
_symmetry_space_group_name_H-M   'P 1'
_cell_length_a   8.29172700
_cell_length_b   8.76774133
_cell_length_c   8.89332760
_cell_angle_alpha   118.69769652
_cell_angle_beta   83.46333200
_cell_angle_gamma   106.38225651
_symmetry_Int_Tables_number   1
_chemical_formula_structural   BaP2S2O9
_chemical_formula_sum   'Ba2 P4 S4 O18'
_cell_volume   543.92100931
_cell_formula_units_Z   2
loop_
 _symmetry_equiv_pos_site_id
 _symmetry_equiv_pos_as_xyz
  1  'x, y, z'
loop_
 _atom_site_type_symbol
 _atom_site_label
 _atom_site_symmetry_multiplicity
 _atom_site_fract_x
 _atom_site_fract_y
 _atom_site_fract_z
 _atom_site_occupancy
  Ba  Ba0  1  0.74765300  0.08473500  0.36868900  1
  Ba  Ba1  1  0.25234700  0.91526500  0.63131100  1
  P  P0  1  0.59179400  0.65812000  0.35075000  1
  P  P1  1  0.40820600  0.34188000  0.64925000  1
  P  P2  1  0.41285600  0.28865600  0.29088400  1
  P  P3  1  0.58714400  0.71134400  0.70911600  1
  S  S0  1  0.77640200  0.66809800  0.19919800  1
  S  S1  1  0.22359800  0.33190200  0.80080200  1
  S  S2  1  0.19358400  0.10222100  0.14416800  1
  S  S3  1  0.80641600  0.89777900  0.85583200  1
  O  O0  1  0.44238300  0.46704900  0.26864800  1
  O  O1  1  0.55761700  0.53295100  0.73135200  1
  O  O2  1  0.50611000  0.80955800  0.42010000  1
  O  O3  1  0.49389000  0.19044200  0.57990000  1
  O  O4  1  0.34913400  0.35456800  0.48440700  1
  O  O5  1  0.65086600  0.64543200  0.51559300  1
  O  O6  1  0.56764800  0.22162200  0.25348100  1
  O  O7  1  0.43235200  0.77837800  0.74651900  1
  O  O8  1  0.30092000  0.76332500  0.12013800  1
  O  O9  1  0.69908000  0.23667500  0.87986200  1
  O  O10  1  0.05854900  0.09011700  0.27811400  1
  O  O11  1  0.94145100  0.90988300  0.72188600  1
  O  O12  1  0.79713800  0.23347900  0.76263600  1
  O  O13  1  0.20286200  0.76652100  0.23736400  1
  O  O14  1  0.01275900  0.46394900  0.32905500  1
  O  O15  1  0.98724100  0.53605100  0.67094500  1
  O  O16  1  0.01051600  0.37258800  0.17012800  1
  O  O17  1  0.98948400  0.62741200  0.82987200  1
loop_
_geom_bond_atom_site_label_1
_geom_bond_atom_site_label_2
_geom_bond_distance
_geom_bond_site_symmetry_2
Ba0 O10 2.606065 1_655
Ba0 O6 2.693986 1_555
Ba0 O3 2.709779 1_555
Ba0 O2 2.857705 1_545
Ba0 O12 3.127471 1_555
Ba0 S0 3.285478 1_545
Ba1 O11 2.606065 1_455
Ba1 O7 2.693986 1_555
Ba1 O2 2.709779 1_555
Ba1 O3 2.857705 1_565
Ba1 O13 3.127471 1_555
Ba1 S1 3.285478 1_565
P0 S0 1.932692 1_555
P1 S1 1.932692 1_555
P2 S2 2.120246 1_555
P3 S3 2.120246 1_555
O0 P2 1.617245 1_555
O0 P0 1.653761 1_555
O1 P3 1.617245 1_555
O1 P1 1.653761 1_555
O2 P0 1.514604 1_555
O3 P1 1.514604 1_555
O4 P2 1.607858 1_555
O4 P1 1.659006 1_555
O5 P3 1.607858 1_555
O5 P0 1.659006 1_555
O6 P2 1.497998 1_555
O7 P3 1.497998 1_555
O10 S2 1.560339 1_555
O11 S3 1.560339 1_555
O12 O9 1.241185 1_555
O13 O8 1.241185 1_555
O14 O16 1.244966 1_555
O15 O17 1.244966 1_555
