# generated using pymatgen
data_CaAs
_symmetry_space_group_name_H-M   'P 1'
_cell_length_a   5.31407900
_cell_length_b   7.98186600
_cell_length_c   13.58536600
_cell_angle_alpha   90.00000000
_cell_angle_beta   90.00000000
_cell_angle_gamma   90.00000000
_symmetry_Int_Tables_number   1
_chemical_formula_structural   CaAs
_chemical_formula_sum   'Ca8 As8'
_cell_volume   576.24050464
_cell_formula_units_Z   8
loop_
 _symmetry_equiv_pos_site_id
 _symmetry_equiv_pos_as_xyz
  1  'x, y, z'
loop_
 _atom_site_type_symbol
 _atom_site_label
 _atom_site_symmetry_multiplicity
 _atom_site_fract_x
 _atom_site_fract_y
 _atom_site_fract_z
 _atom_site_occupancy
  Ca  Ca0  1  0.88385600  0.69357600  0.07668800  1
  Ca  Ca1  1  0.61614400  0.80642400  0.57668800  1
  Ca  Ca2  1  0.38385600  0.80642400  0.92331200  1
  Ca  Ca3  1  0.11614400  0.69357600  0.42331200  1
  Ca  Ca4  1  0.11614400  0.30642400  0.92331200  1
  Ca  Ca5  1  0.38385600  0.19357600  0.42331200  1
  Ca  Ca6  1  0.61614400  0.19357600  0.07668800  1
  Ca  Ca7  1  0.88385600  0.30642400  0.57668800  1
  As  As0  1  0.88800900  0.03553300  0.41868600  1
  As  As1  1  0.61199100  0.46446700  0.91868600  1
  As  As2  1  0.38800900  0.46446700  0.58131400  1
  As  As3  1  0.11199100  0.03553300  0.08131400  1
  As  As4  1  0.11199100  0.96446700  0.58131400  1
  As  As5  1  0.38800900  0.53553300  0.08131400  1
  As  As6  1  0.61199100  0.53553300  0.41868600  1
  As  As7  1  0.88800900  0.96446700  0.91868600  1
loop_
_geom_bond_atom_site_label_1
_geom_bond_atom_site_label_2
_geom_bond_distance
_geom_bond_site_symmetry_2
As0 As4 2.572888 1_645
As0 Ca5 2.922044 1_655
As0 Ca5 2.961908 1_555
As0 Ca3 2.987241 1_645
As0 Ca7 3.046833 1_555
As0 Ca1 3.168427 1_545
As1 As5 2.572888 1_556
As1 Ca4 2.922044 1_555
As1 Ca4 2.961908 1_655
As1 Ca2 2.987241 1_555
As1 Ca6 3.046833 1_556
As1 Ca0 3.168427 1_556
As2 As6 2.572888 1_555
As2 Ca7 2.922044 1_555
As2 Ca7 2.961908 1_455
As2 Ca1 2.987241 1_555
As2 Ca5 3.046833 1_555
As2 Ca3 3.168427 1_555
As3 As7 2.572888 1_444
As3 Ca6 2.922044 1_455
As3 Ca6 2.961908 1_555
As3 Ca0 2.987241 1_445
As3 Ca4 3.046833 1_554
As3 Ca2 3.168427 1_544
As4 Ca1 2.922044 1_455
As4 Ca1 2.961908 1_555
As4 Ca7 2.987241 1_465
As4 Ca3 3.046833 1_555
As4 Ca5 3.168427 1_565
As5 Ca0 2.922044 1_555
As5 Ca0 2.961908 1_455
As5 Ca6 2.987241 1_555
As5 Ca2 3.046833 1_554
As5 Ca4 3.168427 1_554
As6 Ca3 2.922044 1_555
As6 Ca3 2.961908 1_655
As6 Ca5 2.987241 1_555
As6 Ca1 3.046833 1_555
As6 Ca7 3.168427 1_555
As7 Ca2 2.922044 1_655
As7 Ca2 2.961908 1_555
As7 Ca4 2.987241 1_665
As7 Ca0 3.046833 1_556
As7 Ca6 3.168427 1_566
