# generated using pymatgen
data_LaCe(CoNi)5
_symmetry_space_group_name_H-M   'P 1'
_cell_length_a   4.01072100
_cell_length_b   4.93919135
_cell_length_c   8.46597129
_cell_angle_alpha   89.99999845
_cell_angle_beta   90.00000000
_cell_angle_gamma   90.00000000
_symmetry_Int_Tables_number   1
_chemical_formula_structural   LaCe(CoNi)5
_chemical_formula_sum   'La1 Ce1 Co5 Ni5'
_cell_volume   167.70850796
_cell_formula_units_Z   1
loop_
 _symmetry_equiv_pos_site_id
 _symmetry_equiv_pos_as_xyz
  1  'x, y, z'
loop_
 _atom_site_type_symbol
 _atom_site_label
 _atom_site_symmetry_multiplicity
 _atom_site_fract_x
 _atom_site_fract_y
 _atom_site_fract_z
 _atom_site_occupancy
  La  La0  1  0.00000000  0.49997600  0.50000000  1
  Ce  Ce0  1  0.00000000  0.00001100  0.00000000  1
  Co  Co0  1  0.00000000  0.99999900  0.33050700  1
  Co  Co1  1  0.00000000  0.49995900  0.84552200  1
  Co  Co2  1  0.00000000  0.49995900  0.15447800  1
  Co  Co3  1  0.00000000  0.99999900  0.66949300  1
  Co  Co4  1  0.50000000  0.99998600  0.50000000  1
  Ni  Ni0  1  0.50000000  0.49998100  0.00000000  1
  Ni  Ni1  1  0.50000000  0.24780900  0.24659900  1
  Ni  Ni2  1  0.50000000  0.75215600  0.75340600  1
  Ni  Ni3  1  0.50000000  0.75215600  0.24659400  1
  Ni  Ni4  1  0.50000000  0.24780900  0.75340100  1
loop_
_geom_bond_atom_site_label_1
_geom_bond_atom_site_label_2
_geom_bond_distance
_geom_bond_site_symmetry_2
La0 Ni4 3.189827 1_455
La0 Ni4 3.189827 1_555
La0 Ni1 3.189827 1_555
La0 Ni1 3.189827 1_455
La0 Ni3 3.189880 1_455
La0 Ni3 3.189880 1_555
La0 Ni2 3.189880 1_455
La0 Ni2 3.189880 1_555
Ce0 Co1 2.794278 1_554
Ce0 Co2 2.794278 1_555
Ce0 Co2 2.794732 1_545
Ce0 Co1 2.794732 1_544
Ce0 Co0 2.798063 1_545
Ce0 Co3 2.798063 1_544
Ce0 Ni4 3.142920 1_554
Ce0 Ni4 3.142920 1_454
Ce0 Ni1 3.142920 1_555
Ce0 Ni1 3.142920 1_455
Ce0 Ni3 3.143002 1_445
Ce0 Ni3 3.143002 1_545
Ce0 Ni2 3.143002 1_544
Ce0 Ni2 3.143002 1_444
Ce0 Ni0 3.181138 1_455
Ce0 Ni0 3.181138 1_555
Ce0 Ni0 3.181368 1_445
Ce0 Ni0 3.181368 1_545
Co0 Ni1 2.454428 1_565
Co0 Ni1 2.454428 1_465
Co0 Ni3 2.454521 1_555
Co0 Ni3 2.454521 1_455
Co0 Co4 2.465862 1_455
Co0 Co4 2.465862 1_555
Co0 La0 2.856107 1_565
Co0 La0 2.856303 1_555
Co0 Co2 2.884231 1_565
Co0 Co2 2.884570 1_555
Co1 Ni0 2.394124 1_556
Co1 Ni0 2.394124 1_456
Co1 Ni4 2.486115 1_455
Co1 Ni4 2.486115 1_555
Co1 Ni2 2.486218 1_455
Co1 Ni2 2.486218 1_555
Co1 Co2 2.615613 1_556
Co1 Co3 2.884232 1_545
Co1 Co3 2.884570 1_555
Co1 La0 2.925179 1_555
Co2 Ni0 2.394124 1_555
Co2 Ni0 2.394124 1_455
Co2 Ni1 2.486115 1_455
Co2 Ni1 2.486115 1_555
Co2 Ni3 2.486218 1_555
Co2 Ni3 2.486218 1_455
Co2 La0 2.925179 1_555
Co3 Ni4 2.454428 1_465
Co3 Ni4 2.454428 1_565
Co3 Ni2 2.454521 1_455
Co3 Ni2 2.454521 1_555
Co3 Co4 2.465862 1_555
Co3 Co4 2.465862 1_455
Co3 La0 2.856107 1_565
Co3 La0 2.856303 1_555
Co4 Ni1 2.469926 1_565
Co4 Ni4 2.469927 1_565
Co4 Ni2 2.469980 1_555
Co4 Ni3 2.469980 1_555
Co4 La0 3.181215 1_665
Co4 La0 3.181215 1_565
Co4 La0 3.181292 1_555
Co4 La0 3.181292 1_655
Ni0 Ni2 2.430985 1_554
Ni0 Ni3 2.430985 1_555
Ni0 Ni1 2.431013 1_555
Ni0 Ni4 2.431013 1_554
Ni1 Ni3 2.448125 1_545
Ni1 Ni3 2.491066 1_555
Ni2 Ni4 2.448125 1_565
Ni2 Ni4 2.491066 1_555
