# generated using pymatgen
data_YbAgSn
_symmetry_space_group_name_H-M   'P 1'
_cell_length_a   4.76644846
_cell_length_b   4.76644846
_cell_length_c   10.27955697
_cell_angle_alpha   90.00000000
_cell_angle_beta   90.00000000
_cell_angle_gamma   119.99999957
_symmetry_Int_Tables_number   1
_chemical_formula_structural   YbAgSn
_chemical_formula_sum   'Yb3 Ag3 Sn3'
_cell_volume   202.25293588
_cell_formula_units_Z   3
loop_
 _symmetry_equiv_pos_site_id
 _symmetry_equiv_pos_as_xyz
  1  'x, y, z'
loop_
 _atom_site_type_symbol
 _atom_site_label
 _atom_site_symmetry_multiplicity
 _atom_site_fract_x
 _atom_site_fract_y
 _atom_site_fract_z
 _atom_site_occupancy
  Yb  Yb0  1  0.66666700  0.33333300  0.00000000  1
  Yb  Yb1  1  0.66666700  0.33333300  0.66736724  1
  Yb  Yb2  1  0.66666700  0.33333300  0.33263276  1
  Ag  Ag0  1  0.00000000  0.00000000  0.80572562  1
  Ag  Ag1  1  0.00000000  0.00000000  0.19427438  1
  Ag  Ag2  1  0.33333300  0.66666700  0.50000000  1
  Sn  Sn0  1  0.33333300  0.66666700  0.83959890  1
  Sn  Sn1  1  0.00000000  0.00000000  0.50000000  1
  Sn  Sn2  1  0.33333300  0.66666700  0.16040110  1
loop_
_geom_bond_atom_site_label_1
_geom_bond_atom_site_label_2
_geom_bond_distance
_geom_bond_site_symmetry_2
Yb0 Yb2 3.419317 1_555
Yb0 Yb1 3.419317 1_554
Yb1 Yb2 3.440922 1_555
Ag0 Sn0 2.773849 1_545
Ag0 Sn0 2.773853 1_555
Ag0 Sn0 2.773853 1_445
Ag0 Yb1 3.097713 1_455
Ag0 Yb1 3.097717 1_555
Ag0 Yb1 3.097717 1_445
Ag0 Sn1 3.142724 1_555
Ag0 Yb0 3.400180 1_456
Ag0 Yb0 3.400183 1_556
Ag0 Yb0 3.400183 1_446
Ag1 Sn2 2.773849 1_545
Ag1 Sn2 2.773853 1_555
Ag1 Sn2 2.773853 1_445
Ag1 Yb2 3.097713 1_455
Ag1 Yb2 3.097717 1_555
Ag1 Yb2 3.097717 1_445
Ag1 Sn1 3.142724 1_555
Ag1 Yb0 3.400180 1_455
Ag1 Yb0 3.400183 1_555
Ag1 Yb0 3.400183 1_445
Ag2 Sn1 2.751908 1_565
Ag2 Sn1 2.751912 1_555
Ag2 Sn1 2.751912 1_665
Ag2 Yb1 3.245456 1_565
Ag2 Yb1 3.245456 1_455
Ag2 Yb2 3.245456 1_565
Ag2 Yb2 3.245456 1_455
Ag2 Yb1 3.245463 1_555
Ag2 Yb2 3.245463 1_555
Ag2 Sn0 3.490926 1_555
Ag2 Sn2 3.490926 1_555
Sn0 Yb0 3.208069 1_566
Sn0 Yb0 3.208069 1_456
Sn0 Yb0 3.208076 1_556
Sn0 Yb1 3.272238 1_565
Sn0 Yb1 3.272238 1_455
Sn0 Yb1 3.272245 1_555
Sn0 Sn2 3.297704 1_556
Sn1 Yb1 3.245456 1_455
Sn1 Yb2 3.245456 1_455
Sn1 Yb1 3.245459 1_555
Sn1 Yb1 3.245459 1_445
Sn1 Yb2 3.245459 1_555
Sn1 Yb2 3.245459 1_445
Sn2 Yb0 3.208069 1_565
Sn2 Yb0 3.208069 1_455
Sn2 Yb0 3.208076 1_555
Sn2 Yb2 3.272238 1_565
Sn2 Yb2 3.272238 1_455
Sn2 Yb2 3.272245 1_555
