# generated using pymatgen
data_Ti2Si6Mo
_symmetry_space_group_name_H-M   'P 1'
_cell_length_a   4.68920620
_cell_length_b   4.68920620
_cell_length_c   6.48611588
_cell_angle_alpha   90.00000000
_cell_angle_beta   90.00000000
_cell_angle_gamma   120.03725273
_symmetry_Int_Tables_number   1
_chemical_formula_structural   Ti2Si6Mo
_chemical_formula_sum   'Ti2 Si6 Mo1'
_cell_volume   123.46698620
_cell_formula_units_Z   1
loop_
 _symmetry_equiv_pos_site_id
 _symmetry_equiv_pos_as_xyz
  1  'x, y, z'
loop_
 _atom_site_type_symbol
 _atom_site_label
 _atom_site_symmetry_multiplicity
 _atom_site_fract_x
 _atom_site_fract_y
 _atom_site_fract_z
 _atom_site_occupancy
  Ti  Ti0  1  0.50000000  0.00000000  0.66622900  1
  Ti  Ti1  1  0.00000000  0.50000000  0.33377100  1
  Si  Si0  1  0.16563967  0.83436033  -0.00000000  1
  Si  Si1  1  0.15668563  0.31620619  0.66732580  1
  Si  Si2  1  0.68379381  0.84331437  0.33267420  1
  Si  Si3  1  0.83436033  0.16563967  -0.00000000  1
  Si  Si4  1  0.84331437  0.68379381  0.66732580  1
  Si  Si5  1  0.31620619  0.15668563  0.33267420  1
  Mo  Mo0  1  0.50000000  0.50000000  0.00000000  1
loop_
_geom_bond_atom_site_label_1
_geom_bond_atom_site_label_2
_geom_bond_distance
_geom_bond_site_symmetry_2
Si0 Si5 2.523999 1_565
Si0 Si4 2.523999 1_454
Si0 Ti1 2.555205 1_555
Si0 Ti0 2.555205 1_564
Si0 Si3 2.691137 1_465
Si0 Si3 2.714684 1_455
Si0 Si3 2.714684 1_565
Si1 Si3 2.523999 1_456
Si1 Si5 2.527985 1_555
Si1 Si4 2.567288 1_445
Si1 Ti1 2.568496 1_555
Si1 Ti0 2.666435 1_455
Si1 Ti0 2.679559 1_555
Si1 Si4 2.768790 1_455
Si1 Ti0 2.775838 1_565
Si1 Si4 2.789582 1_555
Si2 Si3 2.523999 1_565
Si2 Si4 2.527985 1_555
Si2 Si5 2.567288 1_665
Si2 Ti0 2.568496 1_565
Si2 Ti1 2.666435 1_665
Si2 Ti1 2.679559 1_655
Si2 Si5 2.768790 1_565
Si2 Ti1 2.775838 1_555
Si2 Si5 2.789582 1_555
Si3 Ti1 2.555205 1_655
Si3 Ti0 2.555205 1_554
Si4 Ti1 2.568496 1_655
Si4 Ti0 2.666435 1_665
Si4 Ti0 2.679559 1_565
Si4 Ti0 2.775838 1_555
Si5 Ti0 2.568496 1_555
Si5 Ti1 2.666435 1_545
Si5 Ti1 2.679559 1_555
Si5 Ti1 2.775838 1_655
Mo0 Si5 2.569316 1_555
Mo0 Si2 2.569316 1_555
Mo0 Si4 2.569316 1_554
Mo0 Si1 2.569316 1_554
Mo0 Si3 2.702134 1_565
Mo0 Si3 2.702134 1_455
Mo0 Si0 2.702134 1_545
Mo0 Si0 2.702134 1_655
Mo0 Si3 2.716165 1_555
Mo0 Si0 2.716165 1_555
