# generated using pymatgen
data_CoTe(PbO3)2
_symmetry_space_group_name_H-M   'P 1'
_cell_length_a   5.73349600
_cell_length_b   5.79424336
_cell_length_c   8.03740143
_cell_angle_alpha   90.31310889
_cell_angle_beta   90.00000000
_cell_angle_gamma   90.00000000
_symmetry_Int_Tables_number   1
_chemical_formula_structural   CoTe(PbO3)2
_chemical_formula_sum   'Co2 Te2 Pb4 O12'
_cell_volume   267.00870504
_cell_formula_units_Z   2
loop_
 _symmetry_equiv_pos_site_id
 _symmetry_equiv_pos_as_xyz
  1  'x, y, z'
loop_
 _atom_site_type_symbol
 _atom_site_label
 _atom_site_symmetry_multiplicity
 _atom_site_fract_x
 _atom_site_fract_y
 _atom_site_fract_z
 _atom_site_occupancy
  Co  Co0  1  0.50000000  0.50000000  0.50000000  1
  Co  Co1  1  0.00000000  0.00000000  0.00000000  1
  Te  Te0  1  0.50000000  0.50000000  0.00000000  1
  Te  Te1  1  0.00000000  0.00000000  0.50000000  1
  Pb  Pb0  1  0.99269700  0.49611000  0.75329800  1
  Pb  Pb1  1  0.50730300  0.99611000  0.25329800  1
  Pb  Pb2  1  0.00730300  0.50389000  0.24670200  1
  Pb  Pb3  1  0.49269700  0.00389000  0.74670200  1
  O  O0  1  0.50847500  0.55013400  0.75885000  1
  O  O1  1  0.99152500  0.05013400  0.25885000  1
  O  O2  1  0.49152500  0.44986600  0.24115000  1
  O  O3  1  0.00847500  0.94986600  0.74115000  1
  O  O4  1  0.22910100  0.75148800  0.47031500  1
  O  O5  1  0.27089900  0.25148800  0.97031500  1
  O  O6  1  0.77089900  0.24851200  0.52968500  1
  O  O7  1  0.72910100  0.74851200  0.02968500  1
  O  O8  1  0.74526200  0.77575000  0.47464000  1
  O  O9  1  0.75473800  0.27575000  0.97464000  1
  O  O10  1  0.25473800  0.22425000  0.52536000  1
  O  O11  1  0.24526200  0.72425000  0.02536000  1
loop_
_geom_bond_atom_site_label_1
_geom_bond_atom_site_label_2
_geom_bond_distance
_geom_bond_site_symmetry_2
Co0 O2 2.099653 1_555
Co0 O0 2.099653 1_555
Co0 O8 2.139012 1_555
Co0 O10 2.139012 1_555
Co0 O6 2.143952 1_555
Co0 O4 2.143952 1_555
Co1 O1 2.099653 1_455
Co1 O3 2.099653 1_544
Co1 O9 2.139012 1_454
Co1 O11 2.139012 1_545
Co1 O5 2.143952 1_554
Co1 O7 2.143952 1_445
O0 Te0 1.962038 1_556
O0 Pb3 2.633073 1_565
O0 Pb0 2.794205 1_555
O1 Te1 1.962038 1_655
O1 Pb2 2.633073 1_655
O1 Pb1 2.794205 1_545
O2 Te0 1.962038 1_555
O2 Pb1 2.633073 1_545
O2 Pb2 2.794205 1_555
O3 Te1 1.962038 1_565
O3 Pb0 2.633073 1_455
O3 Pb3 2.794205 1_565
O4 Te1 1.962653 1_565
O4 Pb2 2.622471 1_555
O4 Pb1 2.760925 1_555
O5 Te0 1.962653 1_556
O5 Pb3 2.622471 1_555
O5 Pb0 2.760925 1_455
O6 Te1 1.962653 1_655
O6 Pb0 2.622471 1_555
O6 Pb3 2.760925 1_555
O7 Te0 1.962653 1_555
O7 Pb1 2.622471 1_555
O7 Pb2 2.760925 1_655
O8 Te1 1.964729 1_665
O8 Pb1 2.584841 1_555
O8 Pb2 2.839605 1_655
O9 Te0 1.964729 1_556
O9 Pb0 2.584841 1_555
O9 Pb3 2.839605 1_555
O10 Te1 1.964729 1_555
O10 Pb3 2.584841 1_555
O10 Pb0 2.839605 1_455
O11 Te0 1.964729 1_555
O11 Pb2 2.584841 1_555
O11 Pb1 2.839605 1_555
