# generated using pymatgen
data_LaCe(CuSi)4
_symmetry_space_group_name_H-M   'P 1'
_cell_length_a   4.11046000
_cell_length_b   4.11046000
_cell_length_c   9.86941800
_cell_angle_alpha   90.00000000
_cell_angle_beta   90.00000000
_cell_angle_gamma   90.00000000
_symmetry_Int_Tables_number   1
_chemical_formula_structural   LaCe(CuSi)4
_chemical_formula_sum   'La1 Ce1 Cu4 Si4'
_cell_volume   166.75251613
_cell_formula_units_Z   1
loop_
 _symmetry_equiv_pos_site_id
 _symmetry_equiv_pos_as_xyz
  1  'x, y, z'
loop_
 _atom_site_type_symbol
 _atom_site_label
 _atom_site_symmetry_multiplicity
 _atom_site_fract_x
 _atom_site_fract_y
 _atom_site_fract_z
 _atom_site_occupancy
  La  La0  1  0.50000000  0.50000000  0.50000000  1
  Ce  Ce0  1  0.00000000  0.00000000  0.00000000  1
  Cu  Cu0  1  0.00000000  0.50000000  0.24883300  1
  Cu  Cu1  1  0.50000000  0.00000000  0.75116700  1
  Cu  Cu2  1  0.50000000  0.00000000  0.24883300  1
  Cu  Cu3  1  0.00000000  0.50000000  0.75116700  1
  Si  Si0  1  0.50000000  0.50000000  0.11999000  1
  Si  Si1  1  0.00000000  0.00000000  0.62340100  1
  Si  Si2  1  0.00000000  0.00000000  0.37659900  1
  Si  Si3  1  0.50000000  0.50000000  0.88001000  1
loop_
_geom_bond_atom_site_label_1
_geom_bond_atom_site_label_2
_geom_bond_distance
_geom_bond_site_symmetry_2
La0 Si1 3.151382 1_665
La0 Si2 3.151382 1_655
La0 Si2 3.151382 1_565
La0 Si2 3.151382 1_555
La0 Si1 3.151382 1_565
La0 Si2 3.151382 1_665
La0 Si1 3.151382 1_555
La0 Si1 3.151382 1_655
Ce0 Si0 3.138526 1_545
Ce0 Si0 3.138526 1_455
Ce0 Si3 3.138526 1_554
Ce0 Si3 3.138526 1_544
Ce0 Si3 3.138526 1_444
Ce0 Si3 3.138526 1_454
Ce0 Si0 3.138526 1_445
Ce0 Si0 3.138526 1_555
Ce0 Cu3 3.202359 1_544
Ce0 Cu1 3.202359 1_454
Ce0 Cu3 3.202359 1_554
Ce0 Cu1 3.202359 1_554
Ce0 Cu2 3.202359 1_555
Ce0 Cu2 3.202359 1_455
Ce0 Cu0 3.202359 1_545
Ce0 Cu0 3.202359 1_555
Cu0 Si2 2.411230 1_565
Cu0 Si2 2.411230 1_555
Cu0 Si0 2.416806 1_555
Cu0 Si0 2.416806 1_455
Cu0 La0 3.220059 1_455
Cu0 La0 3.220059 1_555
Cu1 Si1 2.411230 1_555
Cu1 Si1 2.411230 1_655
Cu1 Si3 2.416806 1_545
Cu1 Si3 2.416806 1_555
Cu1 La0 3.220059 1_545
Cu1 La0 3.220059 1_555
Cu2 Si2 2.411230 1_655
Cu2 Si2 2.411230 1_555
Cu2 Si0 2.416806 1_555
Cu2 Si0 2.416806 1_545
Cu2 La0 3.220059 1_545
Cu2 La0 3.220059 1_555
Cu3 Si1 2.411230 1_565
Cu3 Si1 2.411230 1_555
Cu3 Si3 2.416806 1_555
Cu3 Si3 2.416806 1_455
Cu3 La0 3.220059 1_455
Cu3 La0 3.220059 1_555
Si0 Si3 2.368463 1_554
Si1 Si2 2.435792 1_555
