# generated using pymatgen
data_SrNi3Ge2
_symmetry_space_group_name_H-M   'P 1'
_cell_length_a   4.01895303
_cell_length_b   4.01895279
_cell_length_c   14.19633066
_cell_angle_alpha   90.00000000
_cell_angle_beta   90.00000000
_cell_angle_gamma   119.99999363
_symmetry_Int_Tables_number   1
_chemical_formula_structural   SrNi3Ge2
_chemical_formula_sum   'Sr2 Ni6 Ge4'
_cell_volume   198.57867181
_cell_formula_units_Z   2
loop_
 _symmetry_equiv_pos_site_id
 _symmetry_equiv_pos_as_xyz
  1  'x, y, z'
loop_
 _atom_site_type_symbol
 _atom_site_label
 _atom_site_symmetry_multiplicity
 _atom_site_fract_x
 _atom_site_fract_y
 _atom_site_fract_z
 _atom_site_occupancy
  Sr  Sr0  1  0.00000000  -0.00000000  0.75000000  1
  Sr  Sr1  1  0.00000000  -0.00000000  0.25000000  1
  Ni  Ni0  1  0.00000000  -0.00000000  0.50000000  1
  Ni  Ni1  1  0.00000000  -0.00000000  -0.00000000  1
  Ni  Ni2  1  0.33333300  0.66666700  0.42761340  1
  Ni  Ni3  1  0.66666700  0.33333300  0.92761340  1
  Ni  Ni4  1  0.33333300  0.66666700  0.07238660  1
  Ni  Ni5  1  0.66666700  0.33333300  0.57238660  1
  Ge  Ge0  1  0.33333300  0.66666700  0.59410641  1
  Ge  Ge1  1  0.66666700  0.33333300  0.40589359  1
  Ge  Ge2  1  0.66666700  0.33333300  0.09410641  1
  Ge  Ge3  1  0.33333300  0.66666700  0.90589359  1
loop_
_geom_bond_atom_site_label_1
_geom_bond_atom_site_label_2
_geom_bond_distance
_geom_bond_site_symmetry_2
Ni0 Ni5 2.537714 1_455
Ni0 Ni2 2.537714 1_545
Ni0 Ni5 2.537718 1_445
Ni0 Ni2 2.537718 1_555
Ni0 Ni5 2.537718 1_555
Ni0 Ni2 2.537718 1_445
Ni0 Sr0 3.549083 1_555
Ni0 Sr1 3.549083 1_555
Ni1 Ni4 2.537714 1_545
Ni1 Ni3 2.537714 1_454
Ni1 Ni4 2.537718 1_555
Ni1 Ni3 2.537718 1_444
Ni1 Ni4 2.537718 1_445
Ni1 Ni3 2.537718 1_554
Ni1 Sr0 3.549083 1_554
Ni1 Sr1 3.549083 1_555
Ge0 Ni5 2.340739 1_565
Ge0 Ni5 2.340739 1_455
Ge0 Ni5 2.340746 1_555
Ge0 Ni2 2.363590 1_555
Ge0 Ni0 2.677459 1_565
Ge0 Ni0 2.677462 1_555
Ge0 Ni0 2.677462 1_665
Ge0 Sr0 3.206535 1_565
Ge0 Sr0 3.206538 1_555
Ge0 Sr0 3.206538 1_665
Ge1 Ni2 2.340739 1_545
Ge1 Ni2 2.340739 1_655
Ge1 Ni2 2.340746 1_555
Ge1 Ni5 2.363590 1_555
Ge1 Ni0 2.677459 1_655
Ge1 Ni0 2.677462 1_665
Ge1 Ni0 2.677462 1_555
Ge1 Sr1 3.206535 1_655
Ge1 Sr1 3.206538 1_665
Ge1 Sr1 3.206538 1_555
Ge2 Ni4 2.340739 1_545
Ge2 Ni4 2.340739 1_655
Ge2 Ni4 2.340746 1_555
Ge2 Ni3 2.363590 1_554
Ge2 Ni1 2.677459 1_655
Ge2 Ni1 2.677462 1_665
Ge2 Ni1 2.677462 1_555
Ge2 Sr1 3.206535 1_655
Ge2 Sr1 3.206538 1_665
Ge2 Sr1 3.206538 1_555
Ge3 Ni3 2.340739 1_565
Ge3 Ni3 2.340739 1_455
Ge3 Ni3 2.340746 1_555
Ge3 Ni4 2.363590 1_556
Ge3 Ni1 2.677459 1_566
Ge3 Ni1 2.677462 1_556
Ge3 Ni1 2.677462 1_666
Ge3 Sr0 3.206535 1_565
Ge3 Sr0 3.206538 1_555
Ge3 Sr0 3.206538 1_665
