# generated using pymatgen
data_Lu(VFe5)2
_symmetry_space_group_name_H-M   'P 1'
_cell_length_a   4.68365100
_cell_length_b   6.39451030
_cell_length_c   6.39451030
_cell_angle_alpha   97.29768702
_cell_angle_beta   111.48295671
_cell_angle_gamma   68.51704329
_symmetry_Int_Tables_number   1
_chemical_formula_structural   Lu(VFe5)2
_chemical_formula_sum   'Lu1 V2 Fe10'
_cell_volume   165.82196645
_cell_formula_units_Z   1
loop_
 _symmetry_equiv_pos_site_id
 _symmetry_equiv_pos_as_xyz
  1  'x, y, z'
loop_
 _atom_site_type_symbol
 _atom_site_label
 _atom_site_symmetry_multiplicity
 _atom_site_fract_x
 _atom_site_fract_y
 _atom_site_fract_z
 _atom_site_occupancy
  Lu  Lu0  1  0.00000000  0.00000000  0.00000000  1
  V  V0  1  0.00000000  0.35785500  0.35785500  1
  V  V1  1  0.00000000  0.64214500  0.64214500  1
  Fe  Fe0  1  0.50000000  0.00000000  0.50000000  1
  Fe  Fe1  1  0.00000000  0.00000000  0.50000000  1
  Fe  Fe2  1  0.50000000  0.50000000  0.00000000  1
  Fe  Fe3  1  0.00000000  0.50000000  0.00000000  1
  Fe  Fe4  1  0.72154700  0.77845300  0.22154700  1
  Fe  Fe5  1  0.27845300  0.22154700  0.77845300  1
  Fe  Fe6  1  0.50000000  0.77601300  0.77601300  1
  Fe  Fe7  1  0.50000000  0.22398700  0.22398700  1
  Fe  Fe8  1  0.64191400  0.35808600  0.64191400  1
  Fe  Fe9  1  0.35808600  0.64191400  0.35808600  1
loop_
_geom_bond_atom_site_label_1
_geom_bond_atom_site_label_2
_geom_bond_distance
_geom_bond_site_symmetry_2
Lu0 V0 3.023642 1_555
Lu0 V1 3.023642 1_544
V0 V1 2.402066 1_555
Fe0 Fe1 2.341826 1_655
Fe0 Fe1 2.341826 1_555
Fe0 Fe7 2.410141 1_555
Fe0 Fe6 2.410141 1_545
Fe0 Fe5 2.426904 1_555
Fe0 Fe4 2.426904 1_545
Fe0 V0 2.567284 1_555
Fe0 V1 2.567284 1_645
Fe0 Fe9 2.579435 1_545
Fe0 Fe8 2.579435 1_555
Fe0 Lu0 3.197255 1_656
Fe0 Lu0 3.197255 1_555
Fe1 Fe6 2.410141 1_545
Fe1 Fe7 2.410141 1_455
Fe1 Fe5 2.426904 1_555
Fe1 Fe4 2.426904 1_445
Fe1 V0 2.567284 1_555
Fe1 V1 2.567284 1_545
Fe1 Fe8 2.579435 1_455
Fe1 Fe9 2.579435 1_545
Fe1 Lu0 3.197255 1_555
Fe1 Lu0 3.197255 1_556
Fe2 Fe3 2.341826 1_555
Fe2 Fe3 2.341826 1_655
Fe2 Fe7 2.410141 1_555
Fe2 Fe6 2.410141 1_554
Fe2 Fe4 2.426904 1_555
Fe2 Fe5 2.426904 1_554
Fe2 V1 2.567284 1_554
Fe2 V0 2.567284 1_655
Fe2 Fe8 2.579435 1_554
Fe2 Fe9 2.579435 1_555
Fe2 Lu0 3.197255 1_655
Fe2 Lu0 3.197255 1_565
Fe3 Fe6 2.410141 1_454
Fe3 Fe7 2.410141 1_555
Fe3 Fe4 2.426904 1_455
Fe3 Fe5 2.426904 1_554
Fe3 V0 2.567284 1_555
Fe3 V1 2.567284 1_554
Fe3 Fe8 2.579435 1_454
Fe3 Fe9 2.579435 1_555
Fe3 Lu0 3.197255 1_555
Fe3 Lu0 3.197255 1_565
Fe4 Fe9 2.606426 1_655
Fe4 Fe9 2.606426 1_555
Fe4 V0 2.624483 1_655
Fe4 V1 2.624483 1_655
Fe4 Fe7 2.651203 1_565
Fe4 Fe6 2.651203 1_554
Fe4 Lu0 2.988527 1_565
Fe4 Lu0 2.988528 1_665
Fe5 Fe8 2.606426 1_455
Fe5 Fe8 2.606426 1_555
Fe5 V0 2.624483 1_555
Fe5 V1 2.624483 1_555
Fe5 Fe7 2.651203 1_556
Fe5 Fe6 2.651203 1_545
Fe5 Lu0 2.988527 1_656
Fe5 Lu0 2.988528 1_556
Fe6 V1 2.600678 1_655
Fe6 V1 2.600678 1_555
Fe6 Fe9 2.617872 1_555
Fe6 Fe8 2.617872 1_555
Fe6 Lu0 3.010959 1_666
Fe6 Lu0 3.010959 1_566
Fe7 V0 2.600678 1_555
Fe7 V0 2.600678 1_655
Fe7 Fe8 2.617872 1_555
Fe7 Fe9 2.617872 1_555
Fe7 Lu0 3.010959 1_555
Fe7 Lu0 3.010959 1_655
Fe8 Fe9 2.378589 1_555
Fe8 V1 2.888087 1_555
Fe8 V0 2.888087 1_555
Fe8 V1 2.888087 1_655
Fe8 V0 2.888087 1_655
Fe8 Lu0 3.000900 1_656
Fe9 V0 2.888087 1_655
Fe9 V1 2.888087 1_655
Fe9 V0 2.888087 1_555
Fe9 V1 2.888087 1_555
Fe9 Lu0 3.000900 1_565
