# generated using pymatgen
data_Sc2CdS4
_symmetry_space_group_name_H-M   'P 1'
_cell_length_a   7.62973602
_cell_length_b   7.62973721
_cell_length_c   7.62973632
_cell_angle_alpha   59.99999941
_cell_angle_beta   59.99999422
_cell_angle_gamma   59.99999359
_symmetry_Int_Tables_number   1
_chemical_formula_structural   Sc2CdS4
_chemical_formula_sum   'Sc4 Cd2 S8'
_cell_volume   314.06069078
_cell_formula_units_Z   2
loop_
 _symmetry_equiv_pos_site_id
 _symmetry_equiv_pos_as_xyz
  1  'x, y, z'
loop_
 _atom_site_type_symbol
 _atom_site_label
 _atom_site_symmetry_multiplicity
 _atom_site_fract_x
 _atom_site_fract_y
 _atom_site_fract_z
 _atom_site_occupancy
  Sc  Sc0  1  0.50000000  0.00000000  0.50000000  1
  Sc  Sc1  1  -0.00000000  0.50000000  0.50000000  1
  Sc  Sc2  1  0.50000000  0.50000000  0.00000000  1
  Sc  Sc3  1  0.50000000  0.50000000  0.50000000  1
  Cd  Cd0  1  0.87500000  0.87500000  0.87500000  1
  Cd  Cd1  1  0.12500000  0.12500000  0.12500000  1
  S  S0  1  0.73972485  0.73972485  0.73972485  1
  S  S1  1  0.26027515  0.26027515  0.71917354  1
  S  S2  1  0.26027515  0.71917354  0.26027515  1
  S  S3  1  0.71917354  0.26027515  0.26027515  1
  S  S4  1  0.73972485  0.28082646  0.73972485  1
  S  S5  1  0.28082646  0.73972485  0.73972485  1
  S  S6  1  0.26027515  0.26027515  0.26027515  1
  S  S7  1  0.73972485  0.73972485  0.28082646  1
loop_
_geom_bond_atom_site_label_1
_geom_bond_atom_site_label_2
_geom_bond_distance
_geom_bond_site_symmetry_2
Cd0 S0 2.528152 1_555
Cd0 S5 2.528158 1_655
Cd0 S7 2.528158 1_556
Cd0 S4 2.528158 1_565
Cd1 S6 2.528152 1_555
Cd1 S3 2.528158 1_455
Cd1 S1 2.528158 1_554
Cd1 S2 2.528158 1_545
S0 Sc1 2.591397 1_655
S0 Sc0 2.591397 1_565
S0 Sc2 2.591397 1_556
S1 Sc1 2.591392 1_555
S1 Sc0 2.591392 1_555
S1 Sc3 2.591398 1_555
S2 Sc2 2.591392 1_555
S2 Sc1 2.591392 1_555
S2 Sc3 2.591398 1_555
S3 Sc2 2.591392 1_555
S3 Sc0 2.591392 1_555
S3 Sc3 2.591398 1_555
S4 Sc2 2.591392 1_556
S4 Sc1 2.591392 1_655
S4 Sc3 2.591398 1_555
S5 Sc2 2.591392 1_556
S5 Sc0 2.591392 1_565
S5 Sc3 2.591398 1_555
S6 Sc1 2.591397 1_555
S6 Sc0 2.591397 1_555
S6 Sc2 2.591397 1_555
S7 Sc1 2.591392 1_655
S7 Sc0 2.591392 1_565
S7 Sc3 2.591398 1_555
