# generated using pymatgen
data_Ni7Sn8
_symmetry_space_group_name_H-M   'P 1'
_cell_length_a   4.08843300
_cell_length_b   5.25806693
_cell_length_c   12.46215900
_cell_angle_alpha   79.13053099
_cell_angle_beta   90.00000000
_cell_angle_gamma   90.00000000
_symmetry_Int_Tables_number   1
_chemical_formula_structural   Ni7Sn8
_chemical_formula_sum   'Ni7 Sn8'
_cell_volume   263.09585831
_cell_formula_units_Z   1
loop_
 _symmetry_equiv_pos_site_id
 _symmetry_equiv_pos_as_xyz
  1  'x, y, z'
loop_
 _atom_site_type_symbol
 _atom_site_label
 _atom_site_symmetry_multiplicity
 _atom_site_fract_x
 _atom_site_fract_y
 _atom_site_fract_z
 _atom_site_occupancy
  Ni  Ni0  1  0.50000000  0.37226700  0.29101300  1
  Ni  Ni1  1  0.00000000  0.87341900  0.78567600  1
  Ni  Ni2  1  0.00000000  0.12658100  0.21432400  1
  Ni  Ni3  1  0.50000000  0.62773300  0.70898700  1
  Ni  Ni4  1  0.00000000  0.00000000  0.00000000  1
  Ni  Ni5  1  0.50000000  0.50000000  0.50000000  1
  Ni  Ni6  1  0.00000000  0.50000000  0.00000000  1
  Sn  Sn0  1  0.50000000  0.85760700  0.33183000  1
  Sn  Sn1  1  0.00000000  0.35350000  0.81671100  1
  Sn  Sn2  1  0.00000000  0.64650000  0.18328900  1
  Sn  Sn3  1  0.50000000  0.14239300  0.66817000  1
  Sn  Sn4  1  0.50000000  0.22069800  0.07961300  1
  Sn  Sn5  1  0.00000000  0.74249600  0.56966100  1
  Sn  Sn6  1  0.00000000  0.25750400  0.43033900  1
  Sn  Sn7  1  0.50000000  0.77930200  0.92038700  1
loop_
_geom_bond_atom_site_label_1
_geom_bond_atom_site_label_2
_geom_bond_distance
_geom_bond_site_symmetry_2
Ni0 Sn0 2.657568 1_545
Ni0 Sn6 2.676294 1_555
Ni0 Sn6 2.676294 1_655
Ni0 Ni2 2.688246 1_655
Ni0 Ni2 2.688246 1_555
Ni0 Sn0 2.694580 1_555
Ni0 Sn2 2.707429 1_555
Ni0 Sn2 2.707429 1_655
Ni0 Ni5 2.809598 1_555
Ni0 Sn4 2.892678 1_555
Ni1 Sn1 2.624857 1_565
Ni1 Sn7 2.632248 1_555
Ni1 Sn7 2.632248 1_455
Ni1 Sn1 2.687809 1_555
Ni1 Ni3 2.688246 1_455
Ni1 Ni3 2.688246 1_555
Ni1 Sn3 2.746332 1_565
Ni1 Sn3 2.746332 1_465
Ni1 Ni4 2.871821 1_566
Ni1 Sn5 2.901681 1_555
Ni1 Ni6 3.001874 1_556
Ni2 Sn2 2.624857 1_545
Ni2 Sn4 2.632248 1_455
Ni2 Sn4 2.632248 1_555
Ni2 Sn2 2.687809 1_555
Ni2 Sn0 2.746332 1_445
Ni2 Sn0 2.746332 1_545
Ni2 Ni4 2.871821 1_555
Ni2 Sn6 2.901681 1_555
Ni2 Ni6 3.001874 1_555
Ni3 Sn3 2.657568 1_565
Ni3 Sn5 2.676294 1_655
Ni3 Sn5 2.676294 1_555
Ni3 Sn3 2.694580 1_555
Ni3 Sn1 2.707429 1_655
Ni3 Sn1 2.707429 1_555
Ni3 Ni5 2.809598 1_555
Ni3 Sn7 2.892678 1_555
Ni4 Ni6 2.629033 1_545
Ni4 Ni6 2.629033 1_555
Ni4 Sn4 2.635154 1_455
Ni4 Sn4 2.635154 1_555
Ni4 Sn7 2.635154 1_544
Ni4 Sn7 2.635154 1_444
Ni4 Sn2 2.659154 1_545
Ni4 Sn1 2.659154 1_554
Ni5 Sn0 2.538033 1_555
Ni5 Sn3 2.538033 1_555
Ni5 Sn5 2.641157 1_555
Ni5 Sn5 2.641157 1_655
Ni5 Sn6 2.641157 1_555
Ni5 Sn6 2.641157 1_655
Ni6 Sn2 2.544490 1_555
Ni6 Sn1 2.544490 1_554
Ni6 Sn7 2.602002 1_554
Ni6 Sn7 2.602002 1_454
Ni6 Sn4 2.602002 1_455
Ni6 Sn4 2.602002 1_555
Sn5 Sn6 2.928197 1_565
