# generated using pymatgen
data_LiGa
_symmetry_space_group_name_H-M   'P 1'
_cell_length_a   4.35706887
_cell_length_b   4.35707026
_cell_length_c   4.35706900
_cell_angle_alpha   60.00000201
_cell_angle_beta   59.99999141
_cell_angle_gamma   59.99999610
_symmetry_Int_Tables_number   1
_chemical_formula_structural   LiGa
_chemical_formula_sum   'Li2 Ga2'
_cell_volume   58.48821854
_cell_formula_units_Z   2
loop_
 _symmetry_equiv_pos_site_id
 _symmetry_equiv_pos_as_xyz
  1  'x, y, z'
loop_
 _atom_site_type_symbol
 _atom_site_label
 _atom_site_symmetry_multiplicity
 _atom_site_fract_x
 _atom_site_fract_y
 _atom_site_fract_z
 _atom_site_occupancy
  Li  Li0  1  0.62500000  0.62500000  0.62500000  1
  Li  Li1  1  0.37500000  0.37500000  0.37500000  1
  Ga  Ga0  1  0.12500000  0.12500000  0.12500000  1
  Ga  Ga1  1  0.87500000  0.87500000  0.87500000  1
loop_
_geom_bond_atom_site_label_1
_geom_bond_atom_site_label_2
_geom_bond_distance
_geom_bond_site_symmetry_2
Li0 Li1 2.668149 1_655
Li0 Li1 2.668149 1_556
Li0 Li1 2.668149 1_555
Li0 Li1 2.668150 1_565
Ga0 Ga1 2.668149 1_544
Ga0 Li1 2.668149 1_455
Ga0 Ga1 2.668149 1_445
Ga0 Li1 2.668149 1_554
Ga0 Li1 2.668149 1_555
Ga0 Ga1 2.668149 1_444
Ga0 Ga1 2.668150 1_454
Ga0 Li1 2.668150 1_545
Ga1 Li0 2.668149 1_655
Ga1 Li0 2.668149 1_556
Ga1 Li0 2.668149 1_555
Ga1 Li0 2.668150 1_565
