# generated using pymatgen
data_RbSm(ClO)4
_symmetry_space_group_name_H-M   'P 1'
_cell_length_a   7.08579800
_cell_length_b   8.40290300
_cell_length_c   8.70491000
_cell_angle_alpha   90.00000000
_cell_angle_beta   90.00000000
_cell_angle_gamma   90.00000000
_symmetry_Int_Tables_number   1
_chemical_formula_structural   RbSm(ClO)4
_chemical_formula_sum   'Rb2 Sm2 Cl8 O8'
_cell_volume   518.30142511
_cell_formula_units_Z   2
loop_
 _symmetry_equiv_pos_site_id
 _symmetry_equiv_pos_as_xyz
  1  'x, y, z'
loop_
 _atom_site_type_symbol
 _atom_site_label
 _atom_site_symmetry_multiplicity
 _atom_site_fract_x
 _atom_site_fract_y
 _atom_site_fract_z
 _atom_site_occupancy
  Rb  Rb0  1  0.00000000  0.09010800  0.00000000  1
  Rb  Rb1  1  0.50000000  0.90989200  0.50000000  1
  Sm  Sm0  1  0.00000000  0.40918400  0.50000000  1
  Sm  Sm1  1  0.50000000  0.59081600  0.00000000  1
  Cl  Cl0  1  0.17323500  0.59079300  0.20886900  1
  Cl  Cl1  1  0.82676500  0.59079300  0.79113100  1
  Cl  Cl2  1  0.32676500  0.40920700  0.70886900  1
  Cl  Cl3  1  0.67323500  0.40920700  0.29113100  1
  Cl  Cl4  1  0.15174200  0.17393400  0.33787000  1
  Cl  Cl5  1  0.84825800  0.17393400  0.66213000  1
  Cl  Cl6  1  0.34825800  0.82606600  0.83787000  1
  Cl  Cl7  1  0.65174200  0.82606600  0.16213000  1
  O  O0  1  0.43969300  0.16157000  0.05127000  1
  O  O1  1  0.56030700  0.16157000  0.94873000  1
  O  O2  1  0.06030700  0.83843000  0.55127000  1
  O  O3  1  0.93969300  0.83843000  0.44873000  1
  O  O4  1  0.23303300  0.57132500  0.39448600  1
  O  O5  1  0.76696700  0.57132500  0.60551400  1
  O  O6  1  0.26696700  0.42867500  0.89448600  1
  O  O7  1  0.73303300  0.42867500  0.10551400  1
loop_
_geom_bond_atom_site_label_1
_geom_bond_atom_site_label_2
_geom_bond_distance
_geom_bond_site_symmetry_2
Cl0 O4 1.678404 1_555
Cl0 Sm1 2.943949 1_555
Cl1 O5 1.678404 1_555
Cl1 Sm1 2.943949 1_556
Cl2 O6 1.678404 1_555
Cl2 Sm0 2.943949 1_555
Cl3 O7 1.678404 1_555
Cl3 Sm0 2.943949 1_655
Cl4 Sm0 2.656238 1_555
Cl4 Rb0 3.209746 1_555
Cl4 Rb1 3.606110 1_545
Cl5 Sm0 2.656238 1_655
Cl5 Rb0 3.209746 1_656
Cl5 Rb1 3.606110 1_545
Cl6 Sm1 2.656238 1_556
Cl6 Rb1 3.209746 1_555
Cl6 Rb0 3.606110 1_566
Cl7 Sm1 2.656238 1_555
Cl7 Rb1 3.209746 1_555
Cl7 Rb0 3.606110 1_665
O0 O1 1.235782 1_554
O0 Rb0 3.204151 1_555
O1 Rb0 3.204151 1_656
O2 O3 1.235782 1_455
O2 Rb1 3.204151 1_555
O3 Rb1 3.204151 1_555
O4 Sm0 2.329474 1_555
O4 Rb1 3.537764 1_555
O5 Sm0 2.329474 1_655
O5 Rb1 3.537764 1_555
O6 Sm1 2.329474 1_556
O6 Rb0 3.537764 1_556
O7 Sm1 2.329474 1_555
O7 Rb0 3.537764 1_655
