# generated using pymatgen
data_HfMg14Nb
_symmetry_space_group_name_H-M   'P 1'
_cell_length_a   6.41219212
_cell_length_b   6.15587741
_cell_length_c   10.16595127
_cell_angle_alpha   90.00000000
_cell_angle_beta   90.00000000
_cell_angle_gamma   118.68628812
_symmetry_Int_Tables_number   1
_chemical_formula_structural   HfMg14Nb
_chemical_formula_sum   'Hf1 Mg14 Nb1'
_cell_volume   352.02488625
_cell_formula_units_Z   1
loop_
 _symmetry_equiv_pos_site_id
 _symmetry_equiv_pos_as_xyz
  1  'x, y, z'
loop_
 _atom_site_type_symbol
 _atom_site_label
 _atom_site_symmetry_multiplicity
 _atom_site_fract_x
 _atom_site_fract_y
 _atom_site_fract_z
 _atom_site_occupancy
  Hf  Hf0  1  0.16226768  0.83113334  0.12500000  1
  Mg  Mg0  1  0.16476956  0.33238428  0.62500000  1
  Mg  Mg1  1  0.16572182  0.83286041  0.62500000  1
  Mg  Mg2  1  0.66162936  0.33223305  0.12500000  1
  Mg  Mg3  1  0.66513624  0.33204221  0.62500000  1
  Mg  Mg4  1  0.66162936  0.82939530  0.12500000  1
  Mg  Mg5  1  0.66513624  0.83309303  0.62500000  1
  Mg  Mg6  1  0.33222963  0.16962066  0.37085852  1
  Mg  Mg7  1  0.33222963  0.16962066  0.87914148  1
  Mg  Mg8  1  0.33222963  0.66260997  0.37085852  1
  Mg  Mg9  1  0.33222963  0.66260997  0.87914148  1
  Mg  Mg10  1  0.84335347  0.17167723  0.36864320  1
  Mg  Mg11  1  0.84335347  0.17167723  0.88135680  1
  Mg  Mg12  1  0.83810204  0.66905152  0.37406145  1
  Mg  Mg13  1  0.83810204  0.66905152  0.87593855  1
  Nb  Nb0  1  0.16188020  0.33093960  0.12500000  1
loop_
_geom_bond_atom_site_label_1
_geom_bond_atom_site_label_2
_geom_bond_distance
_geom_bond_site_symmetry_2
Hf0 Nb0 3.077939 1_555
Hf0 Nb0 3.077939 1_565
Hf0 Mg9 3.097786 1_554
Hf0 Mg8 3.097786 1_555
Hf0 Mg7 3.097792 1_564
Hf0 Mg6 3.097792 1_565
Hf0 Mg13 3.120233 1_454
Hf0 Mg12 3.120233 1_455
Hf0 Mg2 3.205067 1_455
Hf0 Mg4 3.205067 1_455
Hf0 Mg2 3.207152 1_565
Hf0 Mg4 3.207153 1_555
Mg0 Mg1 3.077943 1_555
Mg0 Mg1 3.077943 1_545
Mg0 Mg6 3.140818 1_555
Mg0 Mg7 3.140818 1_555
Mg0 Mg8 3.140824 1_555
Mg0 Mg9 3.140824 1_555
Mg0 Mg11 3.171868 1_455
Mg0 Mg10 3.171868 1_455
Mg0 Mg5 3.202734 1_445
Mg0 Mg3 3.202735 1_455
Mg0 Mg5 3.209458 1_555
Mg0 Mg3 3.209459 1_555
Mg1 Mg13 3.147076 1_455
Mg1 Mg12 3.147076 1_455
Mg1 Mg8 3.160302 1_555
Mg1 Mg9 3.160302 1_555
Mg1 Mg6 3.160308 1_565
Mg1 Mg7 3.160308 1_565
Mg1 Mg3 3.201654 1_565
Mg1 Mg5 3.201654 1_555
Mg1 Mg3 3.210538 1_455
Mg1 Mg5 3.210539 1_455
Mg2 Mg4 3.060470 1_555
Mg2 Mg4 3.095408 1_545
Mg2 Mg7 3.111340 1_554
Mg2 Mg6 3.111340 1_555
Mg2 Nb0 3.200673 1_555
Mg2 Nb0 3.211534 1_655
Mg3 Mg5 3.071470 1_545
Mg3 Mg5 3.084407 1_555
Mg3 Mg6 3.190986 1_555
Mg3 Mg7 3.190986 1_555
Mg4 Mg9 3.111340 1_554
Mg4 Mg8 3.111340 1_555
Mg4 Nb0 3.200673 1_555
Mg4 Nb0 3.211534 1_665
Mg5 Mg8 3.190986 1_555
Mg5 Mg9 3.190986 1_555
Mg6 Mg8 3.034782 1_555
Mg6 Nb0 3.076949 1_555
Mg6 Mg8 3.121096 1_545
Mg7 Mg9 3.034782 1_555
Mg7 Nb0 3.076949 1_556
Mg7 Mg9 3.121096 1_545
Mg8 Nb0 3.076955 1_555
Mg9 Nb0 3.076955 1_556
Mg10 Nb0 3.057006 1_655
Mg10 Mg12 3.078573 1_545
Mg10 Mg12 3.078573 1_555
Mg10 Mg2 3.094379 1_555
Mg10 Mg4 3.094385 1_545
Mg10 Mg8 3.140945 1_655
Mg10 Mg6 3.140945 1_655
Mg10 Mg3 3.186736 1_555
Mg10 Mg5 3.186742 1_545
Mg10 Mg8 3.271443 1_545
Mg10 Mg6 3.271444 1_555
Mg11 Nb0 3.057006 1_656
Mg11 Mg13 3.078573 1_545
Mg11 Mg13 3.078573 1_555
Mg11 Mg2 3.094379 1_556
Mg11 Mg4 3.094385 1_546
Mg11 Mg9 3.140945 1_655
Mg11 Mg7 3.140945 1_655
Mg11 Mg3 3.186736 1_555
Mg11 Mg5 3.186742 1_545
Mg11 Mg9 3.271443 1_545
Mg11 Mg7 3.271444 1_555
Mg12 Mg4 3.120542 1_555
Mg12 Mg2 3.120548 1_555
Mg12 Mg5 3.135726 1_555
Mg12 Mg3 3.135732 1_555
Mg12 Mg6 3.187831 1_665
Mg12 Mg8 3.187831 1_655
Mg12 Mg6 3.225069 1_555
Mg12 Mg8 3.225069 1_555
Mg13 Mg4 3.120542 1_556
Mg13 Mg2 3.120548 1_556
Mg13 Mg5 3.135726 1_555
Mg13 Mg3 3.135732 1_555
Mg13 Mg7 3.187831 1_665
Mg13 Mg9 3.187831 1_655
Mg13 Mg7 3.225069 1_555
Mg13 Mg9 3.225069 1_555
