# generated using pymatgen
data_Zn(CoO2)2
_symmetry_space_group_name_H-M   'P 1'
_cell_length_a   2.95632800
_cell_length_b   9.18805400
_cell_length_c   10.26824000
_cell_angle_alpha   90.00000000
_cell_angle_beta   90.00000000
_cell_angle_gamma   90.00000000
_symmetry_Int_Tables_number   1
_chemical_formula_structural   Zn(CoO2)2
_chemical_formula_sum   'Zn4 Co8 O16'
_cell_volume   278.91518970
_cell_formula_units_Z   4
loop_
 _symmetry_equiv_pos_site_id
 _symmetry_equiv_pos_as_xyz
  1  'x, y, z'
loop_
 _atom_site_type_symbol
 _atom_site_label
 _atom_site_symmetry_multiplicity
 _atom_site_fract_x
 _atom_site_fract_y
 _atom_site_fract_z
 _atom_site_occupancy
  Zn  Zn0  1  0.75000000  0.74477300  0.34399900  1
  Zn  Zn1  1  0.25000000  0.25522700  0.65600100  1
  Zn  Zn2  1  0.75000000  0.24477300  0.15600100  1
  Zn  Zn3  1  0.25000000  0.75522700  0.84399900  1
  Co  Co0  1  0.25000000  0.90661100  0.10333000  1
  Co  Co1  1  0.75000000  0.59338900  0.60333000  1
  Co  Co2  1  0.25000000  0.40661100  0.39667000  1
  Co  Co3  1  0.75000000  0.09338900  0.89667000  1
  Co  Co4  1  0.75000000  0.05859700  0.38427300  1
  Co  Co5  1  0.25000000  0.94140300  0.61572700  1
  Co  Co6  1  0.75000000  0.55859700  0.11572700  1
  Co  Co7  1  0.25000000  0.44140300  0.88427300  1
  O  O0  1  0.25000000  0.40258100  0.06395900  1
  O  O1  1  0.75000000  0.59741900  0.93604100  1
  O  O2  1  0.25000000  0.90258100  0.43604100  1
  O  O3  1  0.75000000  0.09741900  0.56395900  1
  O  O4  1  0.25000000  0.55943700  0.72274800  1
  O  O5  1  0.75000000  0.44056300  0.27725200  1
  O  O6  1  0.25000000  0.05943700  0.77725200  1
  O  O7  1  0.75000000  0.94056300  0.22274800  1
  O  O8  1  0.25000000  0.11507400  0.04291100  1
  O  O9  1  0.75000000  0.88492600  0.95708900  1
  O  O10  1  0.25000000  0.61507400  0.45708900  1
  O  O11  1  0.75000000  0.38492600  0.54291100  1
  O  O12  1  0.75000000  0.30481400  0.82289700  1
  O  O13  1  0.25000000  0.69518600  0.17710300  1
  O  O14  1  0.25000000  0.19518600  0.32289700  1
  O  O15  1  0.75000000  0.80481400  0.67710300  1
loop_
_geom_bond_atom_site_label_1
_geom_bond_atom_site_label_2
_geom_bond_distance
_geom_bond_site_symmetry_2
Co0 O7 1.945734 1_455
Co0 O7 1.945734 1_555
Co0 O8 2.013338 1_565
Co0 O13 2.085058 1_555
Co0 O9 2.116502 1_454
Co0 O9 2.116502 1_554
Co1 O4 1.945734 1_555
Co1 O4 1.945734 1_655
Co1 O11 2.013338 1_555
Co1 O15 2.085058 1_555
Co1 O10 2.116502 1_655
Co1 O10 2.116502 1_555
Co2 O5 1.945734 1_455
Co2 O5 1.945734 1_555
Co2 O10 2.013338 1_555
Co2 O14 2.085058 1_555
Co2 O11 2.116502 1_555
Co2 O11 2.116502 1_455
Co3 O6 1.945734 1_655
Co3 O6 1.945734 1_555
Co3 O9 2.013338 1_545
Co3 O12 2.085058 1_555
Co3 O8 2.116502 1_556
Co3 O8 2.116502 1_656
Co4 O3 1.879222 1_555
Co4 O7 1.981672 1_545
Co4 O14 2.038907 1_655
Co4 O14 2.038907 1_555
Co4 O2 2.126595 1_545
Co4 O2 2.126595 1_645
Co5 O2 1.879222 1_555
Co5 O6 1.981672 1_565
Co5 O15 2.038907 1_455
Co5 O15 2.038907 1_555
Co5 O3 2.126595 1_565
Co5 O3 2.126595 1_465
Co6 O1 1.879222 1_554
Co6 O5 1.981672 1_555
Co6 O13 2.038907 1_555
Co6 O13 2.038907 1_655
Co6 O0 2.126595 1_555
Co6 O0 2.126595 1_655
Co7 O0 1.879222 1_556
Co7 O4 1.981672 1_555
Co7 O12 2.038907 1_555
Co7 O12 2.038907 1_455
Co7 O1 2.126595 1_555
Co7 O1 2.126595 1_455
O0 Zn2 2.276082 1_455
O0 Zn2 2.276082 1_555
O1 Zn3 2.276082 1_555
O1 Zn3 2.276082 1_655
O2 Zn0 2.276082 1_555
O2 Zn0 2.276082 1_455
O3 Zn1 2.276082 1_555
O3 Zn1 2.276082 1_655
O4 Zn3 2.187751 1_555
O5 Zn2 2.187751 1_555
O6 Zn1 2.187751 1_555
O7 Zn0 2.187751 1_555
O8 Zn2 2.225655 1_455
O8 Zn2 2.225655 1_555
O9 Zn3 2.225655 1_555
O9 Zn3 2.225655 1_655
O10 Zn0 2.225655 1_555
O10 Zn0 2.225655 1_455
O11 Zn1 2.225655 1_655
O11 Zn1 2.225655 1_555
O12 Zn1 2.308552 1_655
O12 Zn1 2.308552 1_555
O13 Zn0 2.308552 1_555
O13 Zn0 2.308552 1_455
O14 Zn2 2.308552 1_555
O14 Zn2 2.308552 1_455
O15 Zn3 2.308552 1_655
O15 Zn3 2.308552 1_555
