# generated using pymatgen
data_Np3OF12
_symmetry_space_group_name_H-M   'P 1'
_cell_length_a   8.46029070
_cell_length_b   8.46029070
_cell_length_c   8.49338774
_cell_angle_alpha   64.20220750
_cell_angle_beta   64.20220750
_cell_angle_gamma   90.54405216
_symmetry_Int_Tables_number   1
_chemical_formula_structural   Np3OF12
_chemical_formula_sum   'Np6 O2 F24'
_cell_volume   477.72445404
_cell_formula_units_Z   2
loop_
 _symmetry_equiv_pos_site_id
 _symmetry_equiv_pos_as_xyz
  1  'x, y, z'
loop_
 _atom_site_type_symbol
 _atom_site_label
 _atom_site_symmetry_multiplicity
 _atom_site_fract_x
 _atom_site_fract_y
 _atom_site_fract_z
 _atom_site_occupancy
  Np  Np0  1  0.83316600  0.83316600  0.33520500  1
  Np  Np1  1  0.18194400  0.18194400  0.65940900  1
  Np  Np2  1  0.27904700  0.61478500  0.78802500  1
  Np  Np3  1  0.61478500  0.27904700  0.78802500  1
  Np  Np4  1  0.76653300  0.40209100  0.17725300  1
  Np  Np5  1  0.40209100  0.76653300  0.17725300  1
  O  O0  1  0.12216200  0.12216200  0.51085000  1
  O  O1  1  0.91394200  0.91394200  0.45690500  1
  F  F0  1  0.41396900  0.05740900  0.11210800  1
  F  F1  1  0.05740900  0.41396900  0.11210800  1
  F  F2  1  0.36454900  0.14770200  0.78727000  1
  F  F3  1  0.14770200  0.36454900  0.78727000  1
  F  F4  1  0.12780500  0.78900400  0.23853400  1
  F  F5  1  0.78900400  0.12780500  0.23853400  1
  F  F6  1  0.33965400  0.68058700  0.99351100  1
  F  F7  1  0.68058700  0.33965400  0.99351100  1
  F  F8  1  0.28796100  0.73766500  0.49053500  1
  F  F9  1  0.73766500  0.28796100  0.49053500  1
  F  F10  1  0.60228800  0.97329800  0.86487200  1
  F  F11  1  0.97329800  0.60228800  0.86487200  1
  F  F12  1  0.63752300  0.85030000  0.22211500  1
  F  F13  1  0.85030000  0.63752300  0.22211500  1
  F  F14  1  0.88434000  0.22800200  0.74409900  1
  F  F15  1  0.22800200  0.88434000  0.74409900  1
  F  F16  1  0.47973900  0.25986800  0.39649000  1
  F  F17  1  0.25986800  0.47973900  0.39649000  1
  F  F18  1  0.55554600  0.79452400  0.59566800  1
  F  F19  1  0.79452400  0.55554600  0.59566800  1
  F  F20  1  0.00300800  0.00300800  0.99777000  1
  F  F21  1  0.40227000  0.40227000  0.93778000  1
  F  F22  1  0.61656400  0.61656400  0.09399200  1
  F  F23  1  0.49855400  0.49855400  0.58812900  1
loop_
_geom_bond_atom_site_label_1
_geom_bond_atom_site_label_2
_geom_bond_distance
_geom_bond_site_symmetry_2
Np0 O1 1.795342 1_555
Np1 O0 1.791572 1_555
F0 Np5 2.265836 1_545
F0 Np3 2.314266 1_554
F1 Np4 2.265836 1_455
F1 Np2 2.314266 1_554
F2 Np1 2.201111 1_555
F2 Np3 2.385407 1_555
F3 Np1 2.201111 1_555
F3 Np2 2.385407 1_555
F4 Np5 2.176049 1_555
F4 Np0 2.351749 1_455
F5 Np4 2.176049 1_555
F5 Np0 2.351749 1_545
F6 Np5 2.222858 1_556
F6 Np2 2.288662 1_555
F7 Np4 2.222858 1_556
F7 Np3 2.288662 1_555
F8 Np2 2.239867 1_555
F8 Np5 2.294696 1_555
F9 Np3 2.239867 1_555
F9 Np4 2.294696 1_555
F10 Np5 2.227290 1_556
F10 Np3 2.365071 1_565
F11 Np4 2.227290 1_556
F11 Np2 2.365071 1_655
F12 Np0 2.224958 1_555
F12 Np5 2.341708 1_555
F13 Np0 2.224958 1_555
F13 Np4 2.341708 1_555
F14 Np3 2.223696 1_555
F14 Np1 2.386395 1_655
F15 Np2 2.223696 1_555
F15 Np1 2.386395 1_565
F16 Np4 2.205508 1_555
F16 Np1 2.357746 1_555
F17 Np5 2.205508 1_555
F17 Np1 2.357746 1_555
F18 Np2 2.212981 1_555
F18 Np0 2.313181 1_555
F19 Np3 2.212981 1_555
F19 Np0 2.313181 1_555
F20 Np0 2.266094 1_446
F20 Np1 2.285934 1_555
F21 Np2 2.266377 1_555
F21 Np3 2.266377 1_555
F22 Np5 2.260561 1_555
F22 Np4 2.260561 1_555
F23 Np2 2.458003 1_555
F23 Np3 2.458003 1_555
