# generated using pymatgen
data_Na2Mg3Zn2(Si2O5)6
_symmetry_space_group_name_H-M   'P 1'
_cell_length_a   10.28942330
_cell_length_b   10.28869863
_cell_length_c   14.41248082
_cell_angle_alpha   90.00001628
_cell_angle_beta   90.00473829
_cell_angle_gamma   119.99768508
_symmetry_Int_Tables_number   1
_chemical_formula_structural   Na2Mg3Zn2(Si2O5)6
_chemical_formula_sum   'Na4 Mg6 Zn4 Si24 O60'
_cell_volume   1321.38989914
_cell_formula_units_Z   2
loop_
 _symmetry_equiv_pos_site_id
 _symmetry_equiv_pos_as_xyz
  1  'x, y, z'
loop_
 _atom_site_type_symbol
 _atom_site_label
 _atom_site_symmetry_multiplicity
 _atom_site_fract_x
 _atom_site_fract_y
 _atom_site_fract_z
 _atom_site_occupancy
  Na  Na0  1  0.66666586  0.33327841  0.49999572  1
  Na  Na1  1  0.33340178  0.66667944  0.00000407  1
  Na  Na2  1  0.00000357  0.99992872  0.24999962  1
  Na  Na3  1  0.00000071  0.99997839  0.74999936  1
  Mg  Mg0  1  0.66696860  0.33365486  0.24618490  1
  Mg  Mg1  1  0.66666875  0.33333524  0.75360901  1
  Mg  Mg2  1  0.33334036  0.66667911  0.74639781  1
  Mg  Mg3  1  0.33303996  0.66668994  0.25381598  1
  Mg  Mg4  1  0.50046189  0.00002060  0.24996987  1
  Mg  Mg5  1  0.49954378  0.49955791  0.25003120  1
  Zn  Zn0  1  0.00000630  0.49958696  0.24999897  1
  Zn  Zn1  1  0.49948994  0.00000242  0.74998806  1
  Zn  Zn2  1  0.50050776  0.50050444  0.75000978  1
  Zn  Zn3  1  0.00000562  0.49951678  0.74999996  1
  Si  Si0  1  0.23786727  0.88560701  0.38994967  1
  Si  Si1  1  0.64765344  0.76215439  0.38994599  1
  Si  Si2  1  0.11374540  0.35137773  0.39003564  1
  Si  Si3  1  0.23790103  0.88639231  0.61012093  1
  Si  Si4  1  0.64849646  0.76206926  0.61011156  1
  Si  Si5  1  0.11357802  0.35150675  0.61010639  1
  Si  Si6  1  0.35150318  0.11357603  0.88988970  1
  Si  Si7  1  0.88642857  0.23793191  0.88989388  1
  Si  Si8  1  0.76210060  0.64849013  0.88987827  1
  Si  Si9  1  0.35234880  0.11450504  0.11005373  1
  Si  Si10  1  0.88626101  0.23763698  0.10996470  1
  Si  Si11  1  0.76213641  0.64774060  0.11004933  1
  Si  Si12  1  0.76335447  0.11278230  0.61071645  1
  Si  Si13  1  0.34943195  0.23664059  0.61069795  1
  Si  Si14  1  0.88724018  0.65057311  0.61066852  1
  Si  Si15  1  0.76339906  0.11345942  0.38942675  1
  Si  Si16  1  0.35008980  0.23646370  0.38943105  1
  Si  Si17  1  0.88698698  0.65066844  0.38942679  1
  Si  Si18  1  0.64991585  0.88637808  0.11056970  1
  Si  Si19  1  0.11301748  0.76368562  0.11057276  1
  Si  Si20  1  0.23660692  0.35006614  0.11057221  1
  Si  Si21  1  0.65057356  0.88721250  0.88930097  1
  Si  Si22  1  0.11276302  0.76333697  0.88933248  1
  Si  Si23  1  0.23665043  0.34943330  0.88928412  1
  O  O0  1  0.26383670  0.87174594  0.49999053  1
  O  O1  1  0.60804489  0.73629419  0.49997475  1
  O  O2  1  0.12816219  0.39202750  0.49994661  1
  O  O3  1  0.39195517  0.12824948  0.00002527  1
  O  O4  1  0.87183691  0.26386466  0.00005345  1
  O  O5  1  0.73616166  0.60790963  0.00000880  1
  O  O6  1  0.73655482  0.13498561  0.50004269  1
  O  O7  1  0.39828755  0.26338479  0.50003673  1
  O  O8  1  0.86518138  0.60168777  0.49996057  1
  O  O9  1  0.60171879  0.86510181  -0.00003690  1
  O  O10  1  0.13482197  0.73650878  0.00003956  1
  O  O11  1  0.26344913  0.39843718  -0.00004302  1
  O  O12  1  0.34049614  0.84540607  0.32637792  1
  O  O13  1  0.50484811  0.65953450  0.32633471  1
  O  O14  1  0.15605609  0.49576961  0.32682603  1
  O  O15  1  0.33984984  0.84392359  0.67318293  1
  O  O16  1  0.50409976  0.66015059  0.67316498  1
  O  O17  1  0.15605482  0.49594928  0.67314058  1
  O  O18  1  0.49590341  0.15605457  0.82683926  1
  O  O19  1  0.84395984  0.33990193  0.82685787  1
  O  O20  1  0.66015594  0.50407154  0.82681611  1
  O  O21  1  0.49515850  0.15469469  0.17366179  1
  O  O22  1  0.84395759  0.33972128  0.17317623  1
  O  O23  1  0.65951310  0.50490992  0.17362075  1
  O  O24  1  0.65944670  0.15796707  0.67016601  1
  O  O25  1  0.49850737  0.34055309  0.67015747  1
  O  O26  1  0.84205311  0.50145239  0.67011979  1
  O  O27  1  0.65858706  0.15628333  0.32947779  1
  O  O28  1  0.49768466  0.34145806  0.32951055  1
  O  O29  1  0.84201193  0.50153480  0.32989143  1
  O  O30  1  0.50232013  0.84378161  0.17048851  1
  O  O31  1  0.15799886  0.65953314  0.17010906  1
  O  O32  1  0.34142102  0.49770072  0.17052207  1
  O  O33  1  0.50149628  0.84205465  0.82984455  1
  O  O34  1  0.15795716  0.65940981  0.82988001  1
  O  O35  1  0.34056008  0.49852512  0.82983422  1
  O  O36  1  0.05771710  0.78420050  0.36608447  1
  O  O37  1  0.72542022  0.94217128  0.36579109  1
  O  O38  1  0.21692499  0.27469354  0.36574488  1
  O  O39  1  0.05795044  0.78407458  0.63402568  1
  O  O40  1  0.72615907  0.94204688  0.63407436  1
  O  O41  1  0.21590110  0.27389087  0.63400935  1
  O  O42  1  0.27384275  0.21589096  0.86592519  1
  O  O43  1  0.78410300  0.05799311  0.86599022  1
  O  O44  1  0.94205198  0.72612533  0.86597507  1
  O  O45  1  0.27458204  0.21675429  0.13420841  1
  O  O46  1  0.78307981  0.05777227  0.13425480  1
  O  O47  1  0.94228644  0.72648563  0.13391451  1
  O  O48  1  0.94236429  0.21553848  0.63406850  1
  O  O49  1  0.27315336  0.05766217  0.63414350  1
  O  O50  1  0.78449519  0.72680289  0.63409741  1
  O  O51  1  0.94251772  0.21546331  0.36599592  1
  O  O52  1  0.27391178  0.05753089  0.36577899  1
  O  O53  1  0.78346610  0.72608137  0.36576253  1
  O  O54  1  0.72608879  0.78361859  0.13422053  1
  O  O55  1  0.21653673  0.94261923  0.13423740  1
  O  O56  1  0.05748750  0.27294773  0.13400366  1
  O  O57  1  0.72684788  0.78450849  0.86585625  1
  O  O58  1  0.21550746  0.94231076  0.86590210  1
  O  O59  1  0.05764085  0.27317656  0.86593166  1
loop_
_geom_bond_atom_site_label_1
_geom_bond_atom_site_label_2
_geom_bond_distance
_geom_bond_site_symmetry_2
Na0 O6 2.479207 1_555
Na0 O7 2.481353 1_555
Na0 O8 2.481563 1_555
Na1 O11 2.479634 1_555
Na1 O9 2.480739 1_555
Na1 O10 2.481739 1_555
Na2 O56 3.061712 1_565
Na2 O51 3.061721 1_465
Na2 O36 3.065302 1_555
Na2 O47 3.065305 1_455
Na2 O52 3.067224 1_565
Na2 O54 3.067270 1_455
Na2 O55 3.067496 1_555
Na2 O53 3.067541 1_455
Na2 O45 3.072830 1_565
Na2 O37 3.072861 1_455
Na2 O38 3.073504 1_565
Na2 O46 3.073522 1_465
Na3 O49 3.061467 1_565
Na3 O57 3.061479 1_455
Na3 O50 3.061764 1_455
Na3 O58 3.061768 1_555
Na3 O48 3.062230 1_465
Na3 O59 3.062244 1_565
Na3 O40 3.066904 1_455
Na3 O42 3.066918 1_565
Na3 O39 3.067316 1_555
Na3 O44 3.067331 1_455
Na3 O43 3.067950 1_465
Na3 O41 3.067951 1_565
Mg0 O22 2.077069 1_555
Mg0 O23 2.083124 1_555
Mg0 O21 2.086355 1_555
Mg0 O29 2.138159 1_555
Mg0 O27 2.149773 1_555
Mg0 O28 2.150080 1_555
Mg1 O20 2.078767 1_555
Mg1 O19 2.079253 1_555
Mg1 O18 2.079381 1_555
Mg1 O24 2.138520 1_555
Mg1 O25 2.138722 1_555
Mg1 O26 2.139047 1_555
Mg2 O15 2.078798 1_555
Mg2 O17 2.079310 1_555
Mg2 O16 2.079409 1_555
Mg2 O35 2.138524 1_555
Mg2 O33 2.138644 1_555
Mg2 O34 2.138972 1_555
Mg3 O14 2.077045 1_555
Mg3 O12 2.083154 1_555
Mg3 O13 2.086332 1_555
Mg3 O31 2.138170 1_555
Mg3 O32 2.149771 1_555
Mg3 O30 2.150100 1_555
Mg4 O21 1.957518 1_555
Mg4 O12 1.958211 1_545
Mg4 O30 1.981759 1_545
Mg4 O27 1.982213 1_555
Mg5 O13 1.957469 1_555
Mg5 O23 1.958258 1_555
Mg5 O28 1.981761 1_555
Mg5 O32 1.982225 1_555
O0 Si0 1.626361 1_555
O0 Si3 1.628980 1_555
O1 Si1 1.625820 1_555
O1 Si4 1.628727 1_555
O2 Si2 1.626096 1_555
O2 Si5 1.629271 1_555
O3 Si9 1.625812 1_555
O3 Si6 1.628711 1_554
O4 Si10 1.626102 1_555
O4 Si7 1.629274 1_554
O5 Si11 1.626359 1_555
O5 Si8 1.628980 1_554
O6 Si15 1.651733 1_555
O6 Si12 1.653915 1_555
O7 Si16 1.651163 1_555
O7 Si13 1.653467 1_555
O8 Si17 1.652017 1_555
O8 Si14 1.654129 1_555
O9 Si18 1.651175 1_555
O9 Si21 1.653477 1_554
O10 Si19 1.652011 1_555
O10 Si22 1.654122 1_554
O11 Si20 1.651724 1_555
O11 Si23 1.653904 1_554
O12 Si0 1.600803 1_555
O13 Si1 1.600889 1_555
O14 Si2 1.606187 1_555
O14 Zn0 1.966851 1_555
O15 Si3 1.604849 1_555
O15 Zn1 1.965795 1_565
O16 Si4 1.604759 1_555
O16 Zn2 1.966025 1_555
O17 Si5 1.604798 1_555
O17 Zn3 1.966159 1_555
O18 Si6 1.604762 1_555
O18 Zn1 1.966035 1_555
O19 Si7 1.604799 1_555
O19 Zn3 1.966125 1_655
O20 Si8 1.604849 1_555
O20 Zn2 1.965850 1_555
O21 Si9 1.600889 1_555
O22 Si10 1.606183 1_555
O22 Zn0 1.966804 1_655
O23 Si11 1.600794 1_555
O24 Si12 1.609503 1_555
O24 Zn1 1.999841 1_555
O25 Si13 1.609417 1_555
O25 Zn2 1.999837 1_555
O26 Si14 1.609679 1_555
O26 Zn3 1.999821 1_655
O27 Si15 1.605832 1_555
O28 Si16 1.605893 1_555
O29 Si17 1.610801 1_555
O29 Zn0 2.000482 1_655
O30 Si18 1.605896 1_555
O31 Si19 1.610798 1_555
O31 Zn0 2.000470 1_555
O32 Si20 1.605835 1_555
O33 Si21 1.609418 1_555
O33 Zn1 1.999871 1_565
O34 Si22 1.609679 1_555
O34 Zn3 1.999836 1_555
O35 Si23 1.609504 1_555
O35 Zn2 1.999837 1_555
O36 Si17 1.635088 1_455
O36 Si0 1.645874 1_555
O37 Si15 1.638873 1_565
O37 Si1 1.646211 1_555
O38 Si16 1.639359 1_555
O38 Si2 1.646148 1_555
O39 Si14 1.634843 1_455
O39 Si3 1.645094 1_555
O40 Si12 1.635045 1_565
O40 Si4 1.645325 1_555
O41 Si13 1.635279 1_555
O41 Si5 1.644847 1_555
O42 Si23 1.635051 1_555
O42 Si6 1.645312 1_555
O43 Si21 1.635268 1_545
O43 Si7 1.644849 1_555
O44 Si22 1.634843 1_655
O44 Si8 1.645094 1_555
O45 Si20 1.638875 1_555
O45 Si9 1.646203 1_555
O46 Si18 1.639349 1_545
O46 Si10 1.646155 1_555
O47 Si19 1.635090 1_655
O47 Si11 1.645872 1_555
O48 Si12 1.635954 1_555
O48 Si5 1.647916 1_655
O49 Si13 1.635850 1_555
O49 Si3 1.648466 1_545
O50 Si14 1.635835 1_555
O50 Si4 1.648323 1_555
O51 Si15 1.636526 1_555
O51 Si2 1.648008 1_655
O52 Si16 1.636111 1_555
O52 Si0 1.652831 1_545
O53 Si17 1.636851 1_555
O53 Si1 1.652497 1_555
O54 Si18 1.636108 1_555
O54 Si11 1.652839 1_555
O55 Si19 1.636848 1_555
O55 Si9 1.652496 1_565
O56 Si20 1.636532 1_555
O56 Si10 1.648002 1_455
O57 Si21 1.635850 1_555
O57 Si8 1.648476 1_555
O58 Si22 1.635831 1_555
O58 Si6 1.648319 1_565
O59 Si23 1.635950 1_555
O59 Si7 1.647905 1_455
