# generated using pymatgen
data_BaEuZr2O6
_symmetry_space_group_name_H-M   'P 1'
_cell_length_a   8.45502196
_cell_length_b   8.45502196
_cell_length_c   8.44646105
_cell_angle_alpha   90.00000000
_cell_angle_beta   90.00000000
_cell_angle_gamma   90.00000000
_symmetry_Int_Tables_number   1
_chemical_formula_structural   BaEuZr2O6
_chemical_formula_sum   'Ba4 Eu4 Zr8 O24'
_cell_volume   603.81550879
_cell_formula_units_Z   4
loop_
 _symmetry_equiv_pos_site_id
 _symmetry_equiv_pos_as_xyz
  1  'x, y, z'
loop_
 _atom_site_type_symbol
 _atom_site_label
 _atom_site_symmetry_multiplicity
 _atom_site_fract_x
 _atom_site_fract_y
 _atom_site_fract_z
 _atom_site_occupancy
  Ba  Ba0  1  0.00000000  0.00000000  -0.00000000  1
  Ba  Ba1  1  0.50000000  0.00000000  0.50000000  1
  Ba  Ba2  1  0.50000000  0.50000000  0.50000000  1
  Ba  Ba3  1  0.00000000  0.50000000  0.50000000  1
  Eu  Eu0  1  0.50000000  0.00000000  -0.00000000  1
  Eu  Eu1  1  0.50000000  0.50000000  -0.00000000  1
  Eu  Eu2  1  0.00000000  0.50000000  -0.00000000  1
  Eu  Eu3  1  0.00000000  0.00000000  0.50000000  1
  Zr  Zr0  1  0.24974595  0.75025405  0.24845314  1
  Zr  Zr1  1  0.24974595  0.24974595  0.24845314  1
  Zr  Zr2  1  0.75025405  0.75025405  0.24845314  1
  Zr  Zr3  1  0.75025405  0.24974595  0.24845314  1
  Zr  Zr4  1  0.24974595  0.75025405  0.75154686  1
  Zr  Zr5  1  0.24974595  0.24974595  0.75154686  1
  Zr  Zr6  1  0.75025405  0.75025405  0.75154686  1
  Zr  Zr7  1  0.75025405  0.24974595  0.75154686  1
  O  O0  1  0.25043160  0.00000000  0.24840958  1
  O  O1  1  0.25058708  0.50000000  0.24639121  1
  O  O2  1  0.74956840  0.00000000  0.24840958  1
  O  O3  1  0.74941292  0.50000000  0.24639121  1
  O  O4  1  0.25043160  0.00000000  0.75159042  1
  O  O5  1  0.25058708  0.50000000  0.75360879  1
  O  O6  1  0.74956840  0.00000000  0.75159042  1
  O  O7  1  0.74941292  0.50000000  0.75360879  1
  O  O8  1  0.25248423  0.74751577  -0.00000000  1
  O  O9  1  0.25248423  0.25248423  -0.00000000  1
  O  O10  1  0.74751577  0.74751577  -0.00000000  1
  O  O11  1  0.74751577  0.25248423  -0.00000000  1
  O  O12  1  0.24828209  0.75171791  0.50000000  1
  O  O13  1  0.24828209  0.24828209  0.50000000  1
  O  O14  1  0.75171791  0.75171791  0.50000000  1
  O  O15  1  0.75171791  0.24828209  0.50000000  1
  O  O16  1  0.00000000  0.74956840  0.24840958  1
  O  O17  1  0.00000000  0.25043160  0.24840958  1
  O  O18  1  0.50000000  0.74941292  0.24639121  1
  O  O19  1  0.50000000  0.25058708  0.24639121  1
  O  O20  1  0.00000000  0.74956840  0.75159042  1
  O  O21  1  0.00000000  0.25043160  0.75159042  1
  O  O22  1  0.50000000  0.74941292  0.75360879  1
  O  O23  1  0.50000000  0.25058708  0.75360879  1
loop_
_geom_bond_atom_site_label_1
_geom_bond_atom_site_label_2
_geom_bond_distance
_geom_bond_site_symmetry_2
Ba0 O0 2.980901 1_555
Ba0 O17 2.980901 1_555
Ba0 O2 2.980901 1_455
Ba0 O16 2.980901 1_545
Ba0 O4 2.980901 1_554
Ba0 O21 2.980901 1_554
Ba0 O20 2.980901 1_544
Ba0 O6 2.980901 1_454
Ba0 O8 3.019006 1_545
Ba0 O11 3.019006 1_455
Ba0 O10 3.019006 1_445
Ba0 O9 3.019006 1_555
Ba1 O15 2.989372 1_555
Ba1 O14 2.989372 1_545
Ba1 O13 2.989372 1_555
Ba1 O12 2.989372 1_545
Ba1 O0 2.994725 1_555
Ba1 O2 2.994725 1_555
Ba1 O4 2.994725 1_555
Ba1 O6 2.994725 1_555
Ba1 O22 3.012897 1_545
Ba1 O18 3.012897 1_545
Ba1 O19 3.012897 1_555
Ba1 O23 3.012897 1_555
Ba2 O23 3.005924 1_555
Ba2 O1 3.005924 1_555
Ba2 O5 3.005924 1_555
Ba2 O18 3.005924 1_555
Ba2 O7 3.005924 1_555
Ba2 O22 3.005924 1_555
Ba2 O19 3.005924 1_555
Ba2 O3 3.005924 1_555
Ba2 O15 3.009843 1_555
Ba2 O12 3.009843 1_555
Ba2 O13 3.009843 1_555
Ba2 O14 3.009843 1_555
Ba3 O13 2.989372 1_555
Ba3 O12 2.989372 1_555
Ba3 O14 2.989372 1_455
Ba3 O15 2.989372 1_455
Ba3 O20 2.994725 1_555
Ba3 O17 2.994725 1_555
Ba3 O21 2.994725 1_555
Ba3 O16 2.994725 1_555
Ba3 O3 3.012897 1_455
Ba3 O7 3.012897 1_455
Ba3 O1 3.012897 1_555
Ba3 O5 3.012897 1_555
Eu0 O22 2.969863 1_544
Eu0 O23 2.969863 1_554
Eu0 O18 2.969863 1_545
Eu0 O19 2.969863 1_555
Eu0 O0 2.975721 1_555
Eu0 O2 2.975721 1_555
Eu0 O4 2.975721 1_554
Eu0 O6 2.975721 1_554
Eu0 O9 2.989449 1_555
Eu0 O10 2.989449 1_545
Eu0 O8 2.989449 1_545
Eu0 O11 2.989449 1_555
Eu1 O8 2.959597 1_555
Eu1 O9 2.959597 1_555
Eu1 O10 2.959597 1_555
Eu1 O11 2.959597 1_555
Eu1 O23 2.962789 1_554
Eu1 O5 2.962789 1_554
Eu1 O22 2.962789 1_554
Eu1 O7 2.962789 1_554
Eu1 O3 2.962789 1_555
Eu1 O1 2.962789 1_555
Eu1 O18 2.962789 1_555
Eu1 O19 2.962789 1_555
Eu2 O7 2.969863 1_454
Eu2 O3 2.969863 1_455
Eu2 O5 2.969863 1_554
Eu2 O1 2.969863 1_555
Eu2 O16 2.975721 1_555
Eu2 O17 2.975721 1_555
Eu2 O20 2.975721 1_554
Eu2 O21 2.975721 1_554
Eu2 O9 2.989449 1_555
Eu2 O11 2.989449 1_455
Eu2 O8 2.989449 1_555
Eu2 O10 2.989449 1_455
Eu3 O15 2.968760 1_455
Eu3 O14 2.968760 1_445
Eu3 O13 2.968760 1_555
Eu3 O12 2.968760 1_545
Eu3 O21 2.999872 1_555
Eu3 O16 2.999872 1_545
Eu3 O6 2.999872 1_455
Eu3 O20 2.999872 1_545
Eu3 O17 2.999872 1_555
Eu3 O0 2.999872 1_555
Eu3 O2 2.999872 1_455
Eu3 O4 2.999872 1_555
O0 Zr1 2.111615 1_555
O0 Zr0 2.111615 1_545
O1 Zr0 2.115987 1_555
O1 Zr1 2.115987 1_555
O2 Zr3 2.111615 1_555
O2 Zr2 2.111615 1_545
O3 Zr2 2.115987 1_555
O3 Zr3 2.115987 1_555
O4 Zr4 2.111615 1_545
O4 Zr5 2.111615 1_555
O5 Zr5 2.115987 1_555
O5 Zr4 2.115987 1_555
O6 Zr7 2.111615 1_555
O6 Zr6 2.111615 1_545
O7 Zr6 2.115987 1_555
O7 Zr7 2.115987 1_555
O8 Zr0 2.098805 1_555
O8 Zr4 2.098805 1_554
O9 Zr5 2.098805 1_554
O9 Zr1 2.098805 1_555
O10 Zr2 2.098805 1_555
O10 Zr6 2.098805 1_554
O11 Zr3 2.098805 1_555
O11 Zr7 2.098805 1_554
O12 Zr0 2.124753 1_555
O12 Zr4 2.124753 1_555
O13 Zr1 2.124753 1_555
O13 Zr5 2.124753 1_555
O14 Zr6 2.124753 1_555
O14 Zr2 2.124753 1_555
O15 Zr7 2.124753 1_555
O15 Zr3 2.124753 1_555
O16 Zr0 2.111615 1_555
O16 Zr2 2.111615 1_455
O17 Zr3 2.111615 1_455
O17 Zr1 2.111615 1_555
O18 Zr0 2.115987 1_555
O18 Zr2 2.115987 1_555
O19 Zr3 2.115987 1_555
O19 Zr1 2.115987 1_555
O20 Zr6 2.111615 1_455
O20 Zr4 2.111615 1_555
O21 Zr5 2.111615 1_555
O21 Zr7 2.111615 1_455
O22 Zr6 2.115987 1_555
O22 Zr4 2.115987 1_555
O23 Zr5 2.115987 1_555
O23 Zr7 2.115987 1_555
