# generated using pymatgen
data_Nd3Cu3Bi4
_symmetry_space_group_name_H-M   'P 1'
_cell_length_a   8.62398363
_cell_length_b   8.62398363
_cell_length_c   8.62398363
_cell_angle_alpha   109.47122063
_cell_angle_beta   109.47122063
_cell_angle_gamma   109.47122063
_symmetry_Int_Tables_number   1
_chemical_formula_structural   Nd3Cu3Bi4
_chemical_formula_sum   'Nd6 Cu6 Bi8'
_cell_volume   493.74405512
_cell_formula_units_Z   2
loop_
 _symmetry_equiv_pos_site_id
 _symmetry_equiv_pos_as_xyz
  1  'x, y, z'
loop_
 _atom_site_type_symbol
 _atom_site_label
 _atom_site_symmetry_multiplicity
 _atom_site_fract_x
 _atom_site_fract_y
 _atom_site_fract_z
 _atom_site_occupancy
  Nd  Nd0  1  0.12500000  0.87500000  0.25000000  1
  Nd  Nd1  1  0.37500000  0.62500000  0.75000000  1
  Nd  Nd2  1  0.87500000  0.25000000  0.12500000  1
  Nd  Nd3  1  0.62500000  0.75000000  0.37500000  1
  Nd  Nd4  1  0.25000000  0.12500000  0.87500000  1
  Nd  Nd5  1  0.75000000  0.37500000  0.62500000  1
  Cu  Cu0  1  0.62500000  0.37500000  0.25000000  1
  Cu  Cu1  1  0.87500000  0.12500000  0.75000000  1
  Cu  Cu2  1  0.37500000  0.25000000  0.62500000  1
  Cu  Cu3  1  0.12500000  0.75000000  0.87500000  1
  Cu  Cu4  1  0.25000000  0.62500000  0.37500000  1
  Cu  Cu5  1  0.75000000  0.87500000  0.12500000  1
  Bi  Bi0  1  0.33835569  0.33835569  0.33835569  1
  Bi  Bi1  1  0.16164431  0.50000000  -0.00000000  1
  Bi  Bi2  1  -0.00000000  0.16164431  0.50000000  1
  Bi  Bi3  1  0.83835569  0.83835569  0.83835569  1
  Bi  Bi4  1  0.50000000  -0.00000000  0.16164431  1
  Bi  Bi5  1  0.66164431  0.50000000  0.00000000  1
  Bi  Bi6  1  0.50000000  0.00000000  0.66164431  1
  Bi  Bi7  1  0.00000000  0.66164431  0.50000000  1
loop_
_geom_bond_atom_site_label_1
_geom_bond_atom_site_label_2
_geom_bond_distance
_geom_bond_site_symmetry_2
Cu0 Nd5 3.049039 1_555
Cu0 Nd4 3.049039 1_554
Cu0 Nd3 3.049039 1_555
Cu0 Nd2 3.049039 1_555
Cu1 Nd5 3.049039 1_555
Cu1 Nd2 3.049039 1_556
Cu1 Nd3 3.049039 1_545
Cu1 Nd4 3.049039 1_655
Cu2 Nd4 3.049039 1_555
Cu2 Nd5 3.049039 1_555
Cu2 Nd0 3.049039 1_545
Cu2 Nd1 3.049039 1_555
Cu3 Nd5 3.049039 1_455
Cu3 Nd4 3.049039 1_565
Cu3 Nd0 3.049039 1_556
Cu3 Nd1 3.049039 1_555
Cu4 Nd2 3.049039 1_455
Cu4 Nd0 3.049039 1_555
Cu4 Nd3 3.049039 1_555
Cu4 Nd1 3.049039 1_555
Cu5 Nd2 3.049039 1_565
Cu5 Nd1 3.049039 1_554
Cu5 Nd3 3.049039 1_555
Cu5 Nd0 3.049039 1_655
Bi0 Cu4 2.772511 1_555
Bi0 Cu0 2.772511 1_555
Bi0 Cu2 2.772511 1_555
Bi0 Nd1 3.419671 1_555
Bi0 Nd5 3.419671 1_555
Bi0 Nd3 3.419671 1_555
Bi0 Nd4 3.473856 1_554
Bi0 Nd0 3.473856 1_545
Bi0 Nd2 3.473856 1_455
Bi1 Cu1 2.772511 1_454
Bi1 Cu4 2.772511 1_555
Bi1 Cu3 2.772511 1_554
Bi1 Nd5 3.419671 1_454
Bi1 Nd2 3.419671 1_455
Bi1 Nd0 3.419671 1_555
Bi1 Nd1 3.473856 1_554
Bi1 Nd4 3.473856 1_554
Bi1 Nd3 3.473856 1_555
Bi2 Cu2 2.772511 1_555
Bi2 Cu5 2.772511 1_445
Bi2 Cu1 2.772511 1_455
Bi2 Nd4 3.419671 1_555
Bi2 Nd3 3.419671 1_445
Bi2 Nd0 3.419671 1_545
Bi2 Nd2 3.473856 1_455
Bi2 Nd1 3.473856 1_555
Bi2 Nd5 3.473856 1_455
Bi3 Cu5 2.772511 1_556
Bi3 Cu1 2.772511 1_565
Bi3 Cu3 2.772511 1_655
Bi3 Nd0 3.419671 1_656
Bi3 Nd2 3.419671 1_566
Bi3 Nd4 3.419671 1_665
Bi3 Nd3 3.473856 1_555
Bi3 Nd5 3.473856 1_555
Bi3 Nd1 3.473856 1_555
Bi4 Cu3 2.772511 1_544
Bi4 Cu5 2.772511 1_545
Bi4 Cu0 2.772511 1_555
Bi4 Nd2 3.419671 1_555
Bi4 Nd1 3.419671 1_544
Bi4 Nd4 3.419671 1_554
Bi4 Nd3 3.473856 1_545
Bi4 Nd0 3.473856 1_545
Bi4 Nd5 3.473856 1_555
Bi5 Cu0 2.772511 1_555
Bi5 Cu5 2.772511 1_555
Bi5 Cu2 2.772511 1_554
Bi5 Nd4 3.419671 1_554
Bi5 Nd3 3.419671 1_555
Bi5 Nd1 3.419671 1_554
Bi5 Nd5 3.473856 1_554
Bi5 Nd0 3.473856 1_655
Bi5 Nd2 3.473856 1_555
Bi6 Cu2 2.772511 1_555
Bi6 Cu1 2.772511 1_555
Bi6 Cu4 2.772511 1_545
Bi6 Nd5 3.419671 1_555
Bi6 Nd3 3.419671 1_545
Bi6 Nd0 3.419671 1_545
Bi6 Nd4 3.473856 1_555
Bi6 Nd1 3.473856 1_545
Bi6 Nd2 3.473856 1_556
Bi7 Cu0 2.772511 1_455
Bi7 Cu4 2.772511 1_555
Bi7 Cu3 2.772511 1_555
Bi7 Nd1 3.419671 1_555
Bi7 Nd5 3.419671 1_455
Bi7 Nd2 3.419671 1_455
Bi7 Nd3 3.473856 1_455
Bi7 Nd4 3.473856 1_565
Bi7 Nd0 3.473856 1_555
