# generated using pymatgen
data_Rb3(SeO4)2
_symmetry_space_group_name_H-M   'P 1'
_cell_length_a   6.15841454
_cell_length_b   6.15841454
_cell_length_c   8.52826787
_cell_angle_alpha   67.49247653
_cell_angle_beta   67.49247653
_cell_angle_gamma   60.11680434
_symmetry_Int_Tables_number   1
_chemical_formula_structural   Rb3(SeO4)2
_chemical_formula_sum   'Rb3 Se2 O8'
_cell_volume   251.51905036
_cell_formula_units_Z   1
loop_
 _symmetry_equiv_pos_site_id
 _symmetry_equiv_pos_as_xyz
  1  'x, y, z'
loop_
 _atom_site_type_symbol
 _atom_site_label
 _atom_site_symmetry_multiplicity
 _atom_site_fract_x
 _atom_site_fract_y
 _atom_site_fract_z
 _atom_site_occupancy
  Rb  Rb0  1  0.00275200  0.99724800  0.00000000  1
  Rb  Rb1  1  0.20259200  0.20755200  0.38592200  1
  Rb  Rb2  1  0.79244800  0.79740800  0.61407800  1
  Se  Se0  1  0.39584700  0.41491100  0.77206000  1
  Se  Se1  1  0.58508900  0.60415300  0.22794000  1
  O  O0  1  0.26323000  0.71555700  0.30537000  1
  O  O1  1  0.71843500  0.28198900  0.27905000  1
  O  O2  1  0.71063400  0.71788500  0.30511300  1
  O  O3  1  0.71801100  0.28156500  0.72095000  1
  O  O4  1  0.28444300  0.73677000  0.69463000  1
  O  O5  1  0.28211500  0.28936600  0.69488700  1
  O  O6  1  0.28393100  0.36252700  0.99111200  1
  O  O7  1  0.63747300  0.71606900  0.00888800  1
loop_
_geom_bond_atom_site_label_1
_geom_bond_atom_site_label_2
_geom_bond_distance
_geom_bond_site_symmetry_2
O0 Se1 1.680862 1_555
O0 Rb2 3.050743 1_455
O0 Rb0 3.054747 1_555
O0 Rb1 3.117891 1_555
O0 Rb1 3.171976 1_565
O1 Se1 1.670067 1_555
O1 Rb0 2.957954 1_645
O1 Rb1 3.169739 1_555
O1 Rb1 3.213992 1_655
O1 Rb2 3.223466 1_545
O2 Se1 1.674406 1_555
O2 Rb0 3.006636 1_655
O2 Rb2 3.112370 1_555
O2 Rb1 3.145838 1_565
O2 Rb1 3.159667 1_655
O3 Se0 1.670067 1_555
O3 Rb0 2.957954 1_646
O3 Rb2 3.169739 1_555
O3 Rb2 3.213992 1_545
O3 Rb1 3.223466 1_655
O4 Se0 1.680862 1_555
O4 Rb1 3.050743 1_565
O4 Rb0 3.054747 1_556
O4 Rb2 3.117891 1_555
O4 Rb2 3.171976 1_455
O5 Se0 1.674406 1_555
O5 Rb0 3.006636 1_546
O5 Rb1 3.112370 1_555
O5 Rb2 3.145838 1_455
O5 Rb2 3.159667 1_545
O6 Se0 1.686242 1_555
O6 Rb1 3.037038 1_556
O6 Rb0 3.415427 1_556
O6 Rb0 3.422749 1_546
O7 Se1 1.686242 1_555
O7 Rb2 3.037038 1_554
O7 Rb0 3.415427 1_555
O7 Rb0 3.422749 1_655
