# generated using pymatgen
data_Cd3(BO2)7
_symmetry_space_group_name_H-M   'P 1'
_cell_length_a   8.86746468
_cell_length_b   8.86746468
_cell_length_c   8.86746418
_cell_angle_alpha   60.41885849
_cell_angle_beta   60.41885849
_cell_angle_gamma   60.41886126
_symmetry_Int_Tables_number   1
_chemical_formula_structural   Cd3(BO2)7
_chemical_formula_sum   'Cd6 B14 O28'
_cell_volume   497.71107551
_cell_formula_units_Z   2
loop_
 _symmetry_equiv_pos_site_id
 _symmetry_equiv_pos_as_xyz
  1  'x, y, z'
loop_
 _atom_site_type_symbol
 _atom_site_label
 _atom_site_symmetry_multiplicity
 _atom_site_fract_x
 _atom_site_fract_y
 _atom_site_fract_z
 _atom_site_occupancy
  Cd  Cd0  1  0.95149500  0.95561700  0.54605800  1
  Cd  Cd1  1  0.54605800  0.95149500  0.95561700  1
  Cd  Cd2  1  0.95561700  0.54605800  0.95149500  1
  Cd  Cd3  1  0.04605800  0.45561700  0.45149500  1
  Cd  Cd4  1  0.45149500  0.04605800  0.45561700  1
  Cd  Cd5  1  0.45561700  0.45149500  0.04605800  1
  B  B0  1  0.74608700  0.25446900  0.75021400  1
  B  B1  1  0.75021400  0.74608700  0.25446900  1
  B  B2  1  0.25446900  0.75021400  0.74608700  1
  B  B3  1  0.25021400  0.75446900  0.24608700  1
  B  B4  1  0.24608700  0.25021400  0.75446900  1
  B  B5  1  0.75446900  0.24608700  0.25021400  1
  B  B6  1  0.57107800  0.27068400  0.57129000  1
  B  B7  1  0.57129000  0.57107800  0.27068400  1
  B  B8  1  0.27068400  0.57129000  0.57107800  1
  B  B9  1  0.07129000  0.77068400  0.07107800  1
  B  B10  1  0.07107800  0.07129000  0.77068400  1
  B  B11  1  0.77068400  0.07107800  0.07129000  1
  B  B12  1  0.60323200  0.60323200  0.60323200  1
  B  B13  1  0.10323200  0.10323200  0.10323200  1
  O  O0  1  0.78320300  0.78320300  0.78320300  1
  O  O1  1  0.28320300  0.28320300  0.28320300  1
  O  O2  1  0.48563400  0.48563400  0.48563400  1
  O  O3  1  0.98563400  0.98563400  0.98563400  1
  O  O4  1  0.44589000  0.75451800  0.61829900  1
  O  O5  1  0.61829900  0.44589000  0.75451800  1
  O  O6  1  0.75451800  0.61829900  0.44589000  1
  O  O7  1  0.11829900  0.25451800  0.94589000  1
  O  O8  1  0.94589000  0.11829900  0.25451800  1
  O  O9  1  0.25451800  0.94589000  0.11829900  1
  O  O10  1  0.74066600  0.43353600  0.20625900  1
  O  O11  1  0.20625900  0.74066600  0.43353600  1
  O  O12  1  0.43353600  0.20625900  0.74066600  1
  O  O13  1  0.70625900  0.93353600  0.24066600  1
  O  O14  1  0.24066600  0.70625900  0.93353600  1
  O  O15  1  0.93353600  0.24066600  0.70625900  1
  O  O16  1  0.62416000  0.18728100  0.43586300  1
  O  O17  1  0.43586300  0.62416000  0.18728100  1
  O  O18  1  0.18728100  0.43586300  0.62416000  1
  O  O19  1  0.93586300  0.68728100  0.12416000  1
  O  O20  1  0.12416000  0.93586300  0.68728100  1
  O  O21  1  0.68728100  0.12416000  0.93586300  1
  O  O22  1  0.22073100  0.60885200  0.73628300  1
  O  O23  1  0.73628300  0.22073100  0.60885200  1
  O  O24  1  0.60885200  0.73628300  0.22073100  1
  O  O25  1  0.23628300  0.10885200  0.72073100  1
  O  O26  1  0.72073100  0.23628300  0.10885200  1
  O  O27  1  0.10885200  0.72073100  0.23628300  1
loop_
_geom_bond_atom_site_label_1
_geom_bond_atom_site_label_2
_geom_bond_distance
_geom_bond_site_symmetry_2
Cd0 O0 2.228589 1_555
Cd0 O11 2.265631 1_655
Cd0 O8 2.267350 1_565
Cd0 O23 2.300535 1_565
Cd0 O20 2.314058 1_655
Cd1 O0 2.228589 1_555
Cd1 O12 2.265631 1_565
Cd1 O9 2.267350 1_556
Cd1 O24 2.300535 1_556
Cd1 O21 2.314058 1_565
Cd2 O0 2.228589 1_555
Cd2 O10 2.265631 1_556
Cd2 O7 2.267350 1_655
Cd2 O22 2.300535 1_655
Cd2 O19 2.314058 1_556
Cd3 O1 2.228589 1_555
Cd3 O15 2.265631 1_455
Cd3 O6 2.267350 1_455
Cd3 O27 2.300535 1_555
Cd3 O18 2.314058 1_555
Cd4 O1 2.228589 1_555
Cd4 O13 2.265631 1_545
Cd4 O4 2.267350 1_545
Cd4 O25 2.300535 1_555
Cd4 O16 2.314058 1_555
Cd5 O1 2.228589 1_555
Cd5 O14 2.265631 1_554
Cd5 O5 2.267350 1_554
Cd5 O26 2.300535 1_555
Cd5 O17 2.314058 1_555
B0 O15 1.461637 1_555
B0 O23 1.473741 1_555
B0 O21 1.478670 1_555
B0 O5 1.512930 1_555
B1 O13 1.461637 1_555
B1 O24 1.473741 1_555
B1 O19 1.478670 1_555
B1 O6 1.512930 1_555
B2 O14 1.461637 1_555
B2 O22 1.473741 1_555
B2 O20 1.478670 1_555
B2 O4 1.512930 1_555
B3 O11 1.461637 1_555
B3 O27 1.473741 1_555
B3 O17 1.478670 1_555
B3 O9 1.512930 1_555
B4 O12 1.461637 1_555
B4 O25 1.473741 1_555
B4 O18 1.478670 1_555
B4 O7 1.512930 1_555
B5 O10 1.461637 1_555
B5 O26 1.473741 1_555
B5 O16 1.478670 1_555
B5 O8 1.512930 1_555
B6 O12 1.449797 1_555
B6 O23 1.465824 1_555
B6 O16 1.478432 1_555
B6 O2 1.580196 1_555
B7 O10 1.449797 1_555
B7 O24 1.465824 1_555
B7 O17 1.478432 1_555
B7 O2 1.580195 1_555
B8 O11 1.449797 1_555
B8 O22 1.465824 1_555
B8 O18 1.478432 1_555
B8 O2 1.580196 1_555
B9 O14 1.449797 1_554
B9 O27 1.465824 1_555
B9 O19 1.478432 1_455
B9 O3 1.580196 1_454
B10 O15 1.449797 1_455
B10 O25 1.465824 1_555
B10 O20 1.478432 1_545
B10 O3 1.580195 1_445
B11 O13 1.449797 1_545
B11 O26 1.465824 1_555
B11 O21 1.478432 1_554
B11 O3 1.580196 1_544
B12 O6 1.381711 1_555
B12 O5 1.381711 1_555
B12 O4 1.381712 1_555
B13 O7 1.381711 1_554
B13 O8 1.381711 1_455
B13 O9 1.381712 1_545
