# generated using pymatgen
data_MnCu(AgO2)2
_symmetry_space_group_name_H-M   'P 1'
_cell_length_a   3.07060000
_cell_length_b   5.27894800
_cell_length_c   6.49809364
_cell_angle_alpha   74.01595381
_cell_angle_beta   90.00000000
_cell_angle_gamma   90.00000000
_symmetry_Int_Tables_number   1
_chemical_formula_structural   MnCu(AgO2)2
_chemical_formula_sum   'Mn1 Cu1 Ag2 O4'
_cell_volume   101.25882632
_cell_formula_units_Z   1
loop_
 _symmetry_equiv_pos_site_id
 _symmetry_equiv_pos_as_xyz
  1  'x, y, z'
loop_
 _atom_site_type_symbol
 _atom_site_label
 _atom_site_symmetry_multiplicity
 _atom_site_fract_x
 _atom_site_fract_y
 _atom_site_fract_z
 _atom_site_occupancy
  Mn  Mn0  1  0.50000000  0.00000000  0.50000000  1
  Cu  Cu0  1  0.00000000  0.50000000  0.50000000  1
  Ag  Ag0  1  0.00000000  0.00000000  0.00000000  1
  Ag  Ag1  1  0.50000000  0.50000000  0.00000000  1
  O  O0  1  0.50000000  0.37561500  0.33996600  1
  O  O1  1  0.00000000  0.89693000  0.33678200  1
  O  O2  1  0.50000000  0.62438500  0.66003400  1
  O  O3  1  0.00000000  0.10307000  0.66321800  1
loop_
_geom_bond_atom_site_label_1
_geom_bond_atom_site_label_2
_geom_bond_distance
_geom_bond_site_symmetry_2
Mn0 O0 1.969138 1_555
Mn0 O2 1.969138 1_545
Mn0 O3 2.023832 1_555
Mn0 O3 2.023832 1_655
Mn0 O1 2.023832 1_645
Mn0 O1 2.023832 1_545
Cu0 O2 2.060530 1_455
Cu0 O0 2.060530 1_555
Cu0 O0 2.060530 1_455
Cu0 O2 2.060530 1_555
Cu0 O3 2.071600 1_555
Cu0 O1 2.071600 1_555
Ag0 O1 2.104646 1_545
Ag0 O3 2.104646 1_554
Ag1 O0 2.124271 1_555
Ag1 O2 2.124271 1_554
