# generated using pymatgen
data_In4As5(BrO4)3
_symmetry_space_group_name_H-M   'P 1'
_cell_length_a   8.06245723
_cell_length_b   10.58878897
_cell_length_c   12.04821648
_cell_angle_alpha   70.58125766
_cell_angle_beta   79.72330473
_cell_angle_gamma   80.30204953
_symmetry_Int_Tables_number   1
_chemical_formula_structural   In4As5(BrO4)3
_chemical_formula_sum   'In8 As10 Br6 O24'
_cell_volume   947.87804297
_cell_formula_units_Z   2
loop_
 _symmetry_equiv_pos_site_id
 _symmetry_equiv_pos_as_xyz
  1  'x, y, z'
loop_
 _atom_site_type_symbol
 _atom_site_label
 _atom_site_symmetry_multiplicity
 _atom_site_fract_x
 _atom_site_fract_y
 _atom_site_fract_z
 _atom_site_occupancy
  In  In0  1  -0.00000000  0.50000000  -0.00000000  1
  In  In1  1  -0.00000000  0.00000000  -0.00000000  1
  In  In2  1  0.74111646  0.78937637  0.98688056  1
  In  In3  1  0.25888354  0.21062363  0.01311944  1
  In  In4  1  0.34889006  0.70906131  0.98795294  1
  In  In5  1  0.65110994  0.29093869  0.01204706  1
  In  In6  1  0.84739838  0.80097743  0.47864981  1
  In  In7  1  0.15260162  0.19902257  0.52135019  1
  As  As0  1  0.97065729  0.32116182  0.80425898  1
  As  As1  1  0.02934271  0.67883818  0.19574102  1
  As  As2  1  0.74397600  0.62258052  0.77211747  1
  As  As3  1  0.25602400  0.37741948  0.22788253  1
  As  As4  1  0.37438071  0.52322879  0.81772795  1
  As  As5  1  0.62561929  0.47677121  0.18227205  1
  As  As6  1  0.07551205  0.91073131  0.74641414  1
  As  As7  1  0.92448795  0.08926869  0.25358586  1
  As  As8  1  0.60328083  0.99170950  0.18216690  1
  As  As9  1  0.39671917  0.00829050  0.81783310  1
  Br  Br0  1  0.90319297  0.35961340  0.44060394  1
  Br  Br1  1  0.09680703  0.64038660  0.55939606  1
  Br  Br2  1  0.73885070  0.97077735  0.59067653  1
  Br  Br3  1  0.26114930  0.02922265  0.40932347  1
  Br  Br4  1  0.60944691  0.67693382  0.47606683  1
  Br  Br5  1  0.39055309  0.32306618  0.52393317  1
  O  O0  1  0.83795281  0.65534600  0.87891487  1
  O  O1  1  0.16204719  0.34465400  0.12108513  1
  O  O2  1  0.75987293  0.91774308  0.08934727  1
  O  O3  1  0.24012707  0.08225692  0.91065273  1
  O  O4  1  0.22406430  0.59290029  0.91734179  1
  O  O5  1  0.77593570  0.40709971  0.08265821  1
  O  O6  1  0.86204724  0.19514326  0.91778756  1
  O  O7  1  0.13795276  0.80485674  0.08221244  1
  O  O8  1  0.52830566  0.61285450  0.85260819  1
  O  O9  1  0.47169434  0.38714550  0.14739181  1
  O  O10  1  0.43775641  0.36042711  0.91430166  1
  O  O11  1  0.56224359  0.63957289  0.08569834  1
  O  O12  1  0.78270501  0.43876714  0.82830637  1
  O  O13  1  0.21729499  0.56123286  0.17169363  1
  O  O14  1  0.91024840  0.63608039  0.10330528  1
  O  O15  1  0.08975160  0.36391961  0.89669472  1
  O  O16  1  0.50267654  0.87903971  0.92998543  1
  O  O17  1  0.49732346  0.12096029  0.07001457  1
  O  O18  1  0.93431710  0.91212425  0.87865715  1
  O  O19  1  0.06568290  0.08787575  0.12134285  1
  O  O20  1  0.91308326  0.91599558  0.30621776  1
  O  O21  1  0.08691674  0.08400442  0.69378224  1
  O  O22  1  0.27126726  0.87717049  0.82304247  1
  O  O23  1  0.72873274  0.12282951  0.17695753  1
loop_
_geom_bond_atom_site_label_1
_geom_bond_atom_site_label_2
_geom_bond_distance
_geom_bond_site_symmetry_2
In0 O4 2.127983 1_554
In0 O5 2.127983 1_455
In0 O15 2.160768 1_554
In0 O14 2.160768 1_455
In0 O0 2.213899 1_454
In0 O1 2.213899 1_555
In1 O19 2.151840 1_555
In1 O18 2.151840 1_444
In1 O7 2.178474 1_545
In1 O6 2.178474 1_454
In1 O2 2.206049 1_445
In1 O3 2.206049 1_554
In2 O16 2.118840 1_555
In2 O2 2.155500 1_556
In2 O18 2.155542 1_555
In2 O0 2.192643 1_555
In2 O14 2.210122 1_556
In2 O11 2.217149 1_556
In3 O17 2.118840 1_555
In3 O3 2.155500 1_554
In3 O19 2.155542 1_555
In3 O1 2.192643 1_555
In3 O15 2.210122 1_554
In3 O10 2.217149 1_554
In4 O11 2.146485 1_556
In4 O4 2.160522 1_555
In4 O7 2.169469 1_556
In4 O16 2.207184 1_555
In4 O22 2.285738 1_555
In4 O8 2.357069 1_555
In4 O13 2.427739 1_556
In5 O10 2.146485 1_554
In5 O5 2.160522 1_555
In5 O6 2.169469 1_554
In5 O17 2.207184 1_555
In5 O23 2.285738 1_555
In5 O9 2.357069 1_555
In5 O12 2.427739 1_554
In6 O20 2.054766 1_555
In7 O21 2.054766 1_555
As0 O6 1.780718 1_555
As0 O15 1.797372 1_655
As0 O12 1.838071 1_555
As1 O7 1.780718 1_555
As1 O14 1.797372 1_455
As1 O13 1.838071 1_555
As2 O0 1.755952 1_555
As2 O12 1.827193 1_555
As2 O8 1.834899 1_555
As3 O1 1.755952 1_555
As3 O13 1.827193 1_555
As3 O9 1.834899 1_555
As4 O10 1.779967 1_555
As4 O4 1.794981 1_555
As4 O8 1.861571 1_555
As5 O11 1.779967 1_555
As5 O5 1.794981 1_555
As5 O9 1.861571 1_555
As6 O21 1.743355 1_565
As6 O18 1.788159 1_455
As6 O22 1.892713 1_555
As7 O20 1.743355 1_545
As7 O19 1.788159 1_655
As7 O23 1.892713 1_555
As8 O2 1.789830 1_555
As8 O17 1.793600 1_565
As8 O23 1.829524 1_565
As9 O3 1.789830 1_555
As9 O16 1.793600 1_545
As9 O22 1.829524 1_545
Br0 In7 2.515450 1_655
Br1 In6 2.515450 1_455
Br2 In6 2.546061 1_555
Br3 In7 2.546061 1_555
Br4 In6 2.510809 1_555
Br5 In7 2.510809 1_555
