# generated using pymatgen
data_PrH16C2N11O17
_symmetry_space_group_name_H-M   'P 1'
_cell_length_a   7.22363440
_cell_length_b   7.22363440
_cell_length_c   20.93275281
_cell_angle_alpha   85.96741322
_cell_angle_beta   85.96741322
_cell_angle_gamma   79.92911990
_symmetry_Int_Tables_number   1
_chemical_formula_structural   PrH16C2N11O17
_chemical_formula_sum   'Pr2 H32 C4 N22 O34'
_cell_volume   1070.92338001
_cell_formula_units_Z   2
loop_
 _symmetry_equiv_pos_site_id
 _symmetry_equiv_pos_as_xyz
  1  'x, y, z'
loop_
 _atom_site_type_symbol
 _atom_site_label
 _atom_site_symmetry_multiplicity
 _atom_site_fract_x
 _atom_site_fract_y
 _atom_site_fract_z
 _atom_site_occupancy
  Pr  Pr0  1  0.63923500  0.36076500  0.75000000  1
  Pr  Pr1  1  0.36076500  0.63923500  0.25000000  1
  H  H0  1  0.17469900  0.32901200  0.08794000  1
  H  H1  1  0.67098800  0.82530100  0.41206000  1
  H  H2  1  0.82530100  0.67098800  0.91206000  1
  H  H3  1  0.32901200  0.17469900  0.58794000  1
  H  H4  1  0.21629100  0.08432000  0.08271600  1
  H  H5  1  0.91568000  0.78370900  0.41728400  1
  H  H6  1  0.78370900  0.91568000  0.91728400  1
  H  H7  1  0.08432000  0.21629100  0.58271600  1
  H  H8  1  0.20908600  0.52666900  0.99811800  1
  H  H9  1  0.47333100  0.79091400  0.50188200  1
  H  H10  1  0.79091400  0.47333100  0.00188200  1
  H  H11  1  0.52666900  0.20908600  0.49811800  1
  H  H12  1  0.27711500  0.43451100  0.92291600  1
  H  H13  1  0.56548900  0.72288500  0.57708400  1
  H  H14  1  0.72288500  0.56548900  0.07708400  1
  H  H15  1  0.43451100  0.27711500  0.42291600  1
  H  H16  1  0.31722400  0.10300800  0.91406200  1
  H  H17  1  0.89699200  0.68277600  0.58593800  1
  H  H18  1  0.68277600  0.89699200  0.08593800  1
  H  H19  1  0.10300800  0.31722400  0.41406200  1
  H  H20  1  0.27861700  0.95912900  0.98213900  1
  H  H21  1  0.04087100  0.72138300  0.51786100  1
  H  H22  1  0.72138300  0.04087100  0.01786100  1
  H  H23  1  0.95912900  0.27861700  0.48213900  1
  H  H24  1  0.44813600  0.99550600  0.78087300  1
  H  H25  1  0.00449400  0.55186400  0.71912700  1
  H  H26  1  0.55186400  0.00449400  0.21912700  1
  H  H27  1  0.99550600  0.44813600  0.28087300  1
  H  H28  1  0.27829600  0.16054900  0.76886300  1
  H  H29  1  0.83945100  0.72170400  0.73113700  1
  H  H30  1  0.72170400  0.83945100  0.23113700  1
  H  H31  1  0.16054900  0.27829600  0.26886300  1
  C  C0  1  0.23927300  0.24012000  0.99744100  1
  C  C1  1  0.75988000  0.76072700  0.50255900  1
  C  C2  1  0.76072700  0.75988000  0.00255900  1
  C  C3  1  0.24012000  0.23927300  0.49744100  1
  N  N0  1  0.40576500  0.65551800  0.83806300  1
  N  N1  1  0.34448200  0.59423500  0.66193700  1
  N  N2  1  0.59423500  0.34448200  0.16193700  1
  N  N3  1  0.65551800  0.40576500  0.33806300  1
  N  N4  1  0.19333000  0.21579100  0.06021600  1
  N  N5  1  0.78420900  0.80667000  0.43978400  1
  N  N6  1  0.80667000  0.78420900  0.93978400  1
  N  N7  1  0.21579100  0.19333000  0.56021600  1
  N  N8  1  0.23369900  0.41340300  0.97016500  1
  N  N9  1  0.58659700  0.76630100  0.52983500  1
  N  N10  1  0.76630100  0.58659700  0.02983500  1
  N  N11  1  0.41340300  0.23369900  0.47016500  1
  N  N12  1  0.97023100  0.02976900  0.75000000  1
  N  N13  1  0.02976900  0.97023100  0.25000000  1
  N  N14  1  0.76593700  0.28596200  0.89295800  1
  N  N15  1  0.71403800  0.23406300  0.60704200  1
  N  N16  1  0.23406300  0.71403800  0.10704200  1
  N  N17  1  0.28596200  0.76593700  0.39295800  1
  N  N18  1  0.28867500  0.08945500  0.96209000  1
  N  N19  1  0.91054500  0.71132500  0.53791000  1
  N  N20  1  0.71132500  0.91054500  0.03791000  1
  N  N21  1  0.08945500  0.28867500  0.46209000  1
  O  O0  1  0.99260500  0.19749600  0.76063100  1
  O  O1  1  0.80250400  0.00739500  0.73936900  1
  O  O2  1  0.00739500  0.80250400  0.23936900  1
  O  O3  1  0.19749600  0.99260500  0.26063100  1
  O  O4  1  0.10344600  0.89655400  0.75000000  1
  O  O5  1  0.89655400  0.10344600  0.25000000  1
  O  O6  1  0.78467700  0.43951500  0.86151600  1
  O  O7  1  0.56048500  0.21532300  0.63848400  1
  O  O8  1  0.21532300  0.56048500  0.13848400  1
  O  O9  1  0.43951500  0.78467700  0.36151600  1
  O  O10  1  0.70848800  0.15977400  0.86362500  1
  O  O11  1  0.84022600  0.29151200  0.63637500  1
  O  O12  1  0.29151200  0.84022600  0.13637500  1
  O  O13  1  0.15977400  0.70848800  0.36362500  1
  O  O14  1  0.80176500  0.25831100  0.95108700  1
  O  O15  1  0.74168900  0.19823500  0.54891300  1
  O  O16  1  0.19823500  0.74168900  0.04891300  1
  O  O17  1  0.25831100  0.80176500  0.45108700  1
  O  O18  1  0.39499300  0.47833900  0.84218600  1
  O  O19  1  0.52166100  0.60500700  0.65781400  1
  O  O20  1  0.60500700  0.52166100  0.15781400  1
  O  O21  1  0.47833900  0.39499300  0.34218600  1
  O  O22  1  0.50930800  0.71091400  0.79099600  1
  O  O23  1  0.28908600  0.49069200  0.70900400  1
  O  O24  1  0.49069200  0.28908600  0.20900400  1
  O  O25  1  0.71091400  0.50930800  0.29099600  1
  O  O26  1  0.32116300  0.76286500  0.87797400  1
  O  O27  1  0.23713500  0.67883700  0.62202600  1
  O  O28  1  0.67883700  0.23713500  0.12202600  1
  O  O29  1  0.76286500  0.32116300  0.37797400  1
  O  O30  1  0.41133600  0.13339400  0.77913600  1
  O  O31  1  0.86660600  0.58866400  0.72086400  1
  O  O32  1  0.58866400  0.86660600  0.22086400  1
  O  O33  1  0.13339400  0.41133600  0.27913600  1
loop_
_geom_bond_atom_site_label_1
_geom_bond_atom_site_label_2
_geom_bond_distance
_geom_bond_site_symmetry_2
H0 N4 1.020338 1_555
H1 N5 1.020338 1_555
H2 N6 1.020338 1_555
H3 N7 1.020338 1_555
H4 N4 1.021887 1_555
H5 N5 1.021887 1_555
H6 N6 1.021887 1_555
H7 N7 1.021887 1_555
H8 N8 1.022378 1_555
H9 N9 1.022378 1_555
H10 N10 1.022378 1_555
H11 N11 1.022378 1_555
H12 N8 1.025532 1_555
H13 N9 1.025532 1_555
H14 N10 1.025532 1_555
H15 N11 1.025532 1_555
H16 N18 1.013369 1_555
H17 N19 1.013369 1_555
H18 N20 1.013369 1_555
H19 N21 1.013369 1_555
H20 N18 1.015756 1_565
H21 N19 1.015756 1_455
H22 N20 1.015756 1_545
H23 N21 1.015756 1_655
H24 O30 0.983754 1_565
H25 O31 0.983754 1_455
H26 O32 0.983754 1_545
H27 O33 0.983754 1_655
H28 O30 0.982603 1_555
H29 O31 0.982603 1_555
H30 O32 0.982603 1_555
H31 O33 0.982603 1_555
C0 N8 1.333994 1_555
C0 N4 1.339532 1_556
C0 N18 1.341545 1_555
C1 N9 1.333994 1_555
C1 N5 1.339532 1_555
C1 N19 1.341545 1_555
C2 N10 1.333994 1_555
C2 N6 1.339532 1_554
C2 N20 1.341545 1_555
C3 N11 1.333994 1_555
C3 N7 1.339532 1_555
C3 N21 1.341545 1_555
N0 O26 1.235446 1_555
N0 O22 1.279003 1_555
N0 O18 1.292260 1_555
N1 O27 1.235446 1_555
N1 O23 1.279003 1_555
N1 O19 1.292260 1_555
N2 O28 1.235446 1_555
N2 O24 1.279003 1_555
N2 O20 1.292260 1_555
N3 O29 1.235446 1_555
N3 O25 1.279003 1_555
N3 O21 1.292260 1_555
N12 O4 1.236192 1_645
N12 O1 1.286499 1_555
N12 O0 1.286499 1_555
N13 O5 1.236192 1_465
N13 O2 1.286499 1_555
N13 O3 1.286499 1_555
N14 O14 1.256786 1_555
N14 O6 1.272463 1_555
N14 O10 1.275536 1_555
N15 O15 1.256786 1_555
N15 O7 1.272463 1_555
N15 O11 1.275536 1_555
N16 O16 1.256786 1_555
N16 O8 1.272463 1_555
N16 O12 1.275536 1_555
N17 O17 1.256786 1_555
N17 O9 1.272463 1_555
N17 O13 1.275536 1_555
O0 Pr0 2.635610 1_555
O1 Pr0 2.635610 1_555
O2 Pr1 2.635610 1_555
O3 Pr1 2.635610 1_555
O6 Pr0 2.759938 1_555
O7 Pr0 2.759938 1_555
O8 Pr1 2.759938 1_555
O9 Pr1 2.759938 1_555
O10 Pr0 2.728196 1_555
O11 Pr0 2.728196 1_555
O12 Pr1 2.728196 1_555
O13 Pr1 2.728196 1_555
O18 Pr0 2.604901 1_555
O19 Pr0 2.604901 1_555
O20 Pr1 2.604901 1_555
O21 Pr1 2.604901 1_555
O22 Pr0 2.716005 1_555
O23 Pr0 2.716005 1_555
O24 Pr1 2.716005 1_555
O25 Pr1 2.716005 1_555
O30 Pr0 2.538366 1_555
O31 Pr0 2.538366 1_555
O32 Pr1 2.538366 1_555
O33 Pr1 2.538366 1_555
