# generated using pymatgen
data_MgAg20(BiO4)4
_symmetry_space_group_name_H-M   'P 1'
_cell_length_a   6.02087535
_cell_length_b   9.01836345
_cell_length_c   13.22515472
_cell_angle_alpha   91.28202177
_cell_angle_beta   89.29934403
_cell_angle_gamma   91.62815451
_symmetry_Int_Tables_number   1
_chemical_formula_structural   MgAg20(BiO4)4
_chemical_formula_sum   'Mg1 Ag20 Bi4 O16'
_cell_volume   717.58740952
_cell_formula_units_Z   1
loop_
 _symmetry_equiv_pos_site_id
 _symmetry_equiv_pos_as_xyz
  1  'x, y, z'
loop_
 _atom_site_type_symbol
 _atom_site_label
 _atom_site_symmetry_multiplicity
 _atom_site_fract_x
 _atom_site_fract_y
 _atom_site_fract_z
 _atom_site_occupancy
  Mg  Mg0  1  0.26686489  0.72759768  0.95737714  1
  Ag  Ag0  1  0.22511956  0.72535034  0.16303128  1
  Ag  Ag1  1  0.73700030  0.77802786  0.62992220  1
  Ag  Ag2  1  0.92974049  0.48011524  0.03192305  1
  Ag  Ag3  1  0.49881325  0.99771830  0.49672483  1
  Ag  Ag4  1  0.00832948  0.15097366  0.65387714  1
  Ag  Ag5  1  0.61048705  0.56599602  0.90062975  1
  Ag  Ag6  1  0.97016458  0.85813195  0.34263169  1
  Ag  Ag7  1  0.53305982  0.37069410  0.15385686  1
  Ag  Ag8  1  0.52635381  0.98506242  0.24535997  1
  Ag  Ag9  1  0.97065800  0.48153353  0.26020918  1
  Ag  Ag10  1  0.45073835  0.02107378  0.74512852  1
  Ag  Ag11  1  0.05848929  0.51281707  0.73932933  1
  Ag  Ag12  1  0.47737232  0.03638019  0.99654948  1
  Ag  Ag13  1  0.00566376  0.49865718  0.49521962  1
  Ag  Ag14  1  0.23441814  0.27270796  0.86779099  1
  Ag  Ag15  1  0.23190797  0.77395266  0.62954076  1
  Ag  Ag16  1  0.67301834  0.73131842  0.07677363  1
  Ag  Ag17  1  0.76451888  0.22416471  0.36960048  1
  Ag  Ag18  1  0.73557965  0.26076707  0.86122970  1
  Ag  Ag19  1  0.25956735  0.22355564  0.36636514  1
  Bi  Bi0  1  0.52457071  0.38070935  0.61275558  1
  Bi  Bi1  1  0.93246160  0.89761420  0.86788403  1
  Bi  Bi2  1  0.48060072  0.61907691  0.38460177  1
  Bi  Bi3  1  0.01204980  0.11131902  0.11939260  1
  O  O0  1  0.11101584  0.34503699  0.13935882  1
  O  O1  1  0.41150588  0.85958858  0.37160159  1
  O  O2  1  0.02551709  0.65463830  0.86702451  1
  O  O3  1  0.59078038  0.13777512  0.62025954  1
  O  O4  1  0.98611778  0.91526484  0.69957686  1
  O  O5  1  0.49453662  0.38935374  0.78809855  1
  O  O6  1  0.97698558  0.14473679  0.94058334  1
  O  O7  1  0.48640636  0.63893275  0.56913770  1
  O  O8  1  0.03890097  0.83912357  0.05088038  1
  O  O9  1  0.51354100  0.35689796  0.43605411  1
  O  O10  1  0.64739924  0.13336632  0.12607885  1
  O  O11  1  0.84746513  0.63369658  0.38161169  1
  O  O12  1  0.30424099  0.91380065  0.87569047  1
  O  O13  1  0.15843615  0.36785821  0.61255222  1
  O  O14  1  0.00688721  0.08865634  0.29424533  1
  O  O15  1  0.49104869  0.59595799  0.21787431  1
loop_
_geom_bond_atom_site_label_1
_geom_bond_atom_site_label_2
_geom_bond_distance
_geom_bond_site_symmetry_2
Mg0 O2 1.981239 1_555
Mg0 O12 2.022710 1_555
Mg0 O8 2.099028 1_556
Ag0 O15 2.150301 1_555
Ag0 O8 2.164238 1_555
Ag1 O7 2.091226 1_555
Ag1 O4 2.123060 1_555
Ag2 O0 2.210196 1_655
Ag2 O2 2.763498 1_654
Ag3 O1 2.111446 1_555
Ag3 O3 2.112160 1_565
Ag4 O13 2.208284 1_555
Ag4 O4 2.222872 1_445
Ag4 O3 2.557352 1_455
Ag5 O5 2.257453 1_555
Ag5 O2 2.637427 1_655
Ag5 Mg0 2.655560 1_555
Ag6 O14 2.193256 1_665
Ag6 O11 2.204691 1_555
Ag6 O1 2.688994 1_655
Ag7 O15 2.203366 1_555
Ag7 O10 2.287393 1_555
Ag7 O0 2.554189 1_555
Ag8 O1 2.134920 1_555
Ag8 O10 2.195310 1_565
Ag9 O0 2.173005 1_655
Ag9 O11 2.222889 1_555
Ag10 O3 2.130506 1_555
Ag10 O12 2.164353 1_545
Ag11 O2 2.106377 1_555
Ag11 O13 2.191855 1_555
Ag12 O10 2.161596 1_556
Ag12 O12 2.181668 1_545
Ag13 O13 2.196335 1_555
Ag13 O11 2.197866 1_455
Ag14 O6 2.138381 1_455
Ag14 O5 2.141454 1_555
Ag15 O7 2.121639 1_555
Ag15 O4 2.166304 1_455
Ag16 O8 2.406273 1_655
Ag16 O15 2.479664 1_555
Ag17 O9 2.124139 1_555
Ag17 O14 2.151130 1_655
Ag18 O6 2.117026 1_555
Ag18 O5 2.136956 1_555
Ag19 O9 2.124658 1_555
Ag19 O14 2.140721 1_555
Bi0 O13 2.204236 1_555
Bi0 O3 2.242543 1_555
Bi0 O5 2.323512 1_555
Bi0 O9 2.343539 1_555
Bi0 O7 2.429487 1_555
Bi1 O12 2.242538 1_655
Bi1 O4 2.253803 1_555
Bi1 O2 2.276859 1_655
Bi1 O6 2.416523 1_565
Bi1 O8 2.580768 1_656
Bi2 O11 2.208957 1_555
Bi2 O15 2.210479 1_555
Bi2 O1 2.230917 1_555
Bi2 O7 2.443682 1_555
Bi2 O9 2.488939 1_555
Bi3 O0 2.185172 1_555
Bi3 O10 2.210636 1_455
Bi3 O14 2.325771 1_555
Bi3 O6 2.403185 1_454
Bi3 O8 2.606224 1_545
