# generated using pymatgen
data_FeAgAs(S2N3)2
_symmetry_space_group_name_H-M   'P 1'
_cell_length_a   10.00057200
_cell_length_b   10.00057200
_cell_length_c   6.59183200
_cell_angle_alpha   90.00000000
_cell_angle_beta   90.00000000
_cell_angle_gamma   90.00000000
_symmetry_Int_Tables_number   1
_chemical_formula_structural   FeAgAs(S2N3)2
_chemical_formula_sum   'Fe2 Ag2 As2 S8 N12'
_cell_volume   659.25861271
_cell_formula_units_Z   2
loop_
 _symmetry_equiv_pos_site_id
 _symmetry_equiv_pos_as_xyz
  1  'x, y, z'
loop_
 _atom_site_type_symbol
 _atom_site_label
 _atom_site_symmetry_multiplicity
 _atom_site_fract_x
 _atom_site_fract_y
 _atom_site_fract_z
 _atom_site_occupancy
  Fe  Fe0  1  0.00000000  0.50000000  0.75000000  1
  Fe  Fe1  1  0.50000000  0.00000000  0.25000000  1
  Ag  Ag0  1  0.50000000  0.50000000  0.00000000  1
  Ag  Ag1  1  0.00000000  0.00000000  0.50000000  1
  As  As0  1  0.50000000  0.50000000  0.50000000  1
  As  As1  1  0.00000000  0.00000000  0.00000000  1
  S  S0  1  0.58990700  0.35564300  0.28742500  1
  S  S1  1  0.91009300  0.85564300  0.78742500  1
  S  S2  1  0.35564300  0.41009300  0.71257500  1
  S  S3  1  0.14435700  0.91009300  0.21257500  1
  S  S4  1  0.41009300  0.64435700  0.28742500  1
  S  S5  1  0.08990700  0.14435700  0.78742500  1
  S  S6  1  0.64435700  0.58990700  0.71257500  1
  S  S7  1  0.85564300  0.08990700  0.21257500  1
  N  N0  1  0.95128000  0.34653000  0.87456200  1
  N  N1  1  0.54872000  0.84653000  0.37456200  1
  N  N2  1  0.34653000  0.04872000  0.12543800  1
  N  N3  1  0.15347000  0.54872000  0.62543800  1
  N  N4  1  0.04872000  0.65347000  0.87456200  1
  N  N5  1  0.45128000  0.15347000  0.37456200  1
  N  N6  1  0.65347000  0.95128000  0.12543800  1
  N  N7  1  0.84653000  0.45128000  0.62543800  1
  N  N8  1  0.15422700  0.65422700  0.75000000  1
  N  N9  1  0.34577300  0.15422700  0.25000000  1
  N  N10  1  0.65422700  0.84577300  0.25000000  1
  N  N11  1  0.84577300  0.34577300  0.75000000  1
loop_
_geom_bond_atom_site_label_1
_geom_bond_atom_site_label_2
_geom_bond_distance
_geom_bond_site_symmetry_2
Fe0 N0 1.807528 1_455
Fe0 N7 1.807528 1_455
Fe0 N4 1.807528 1_555
Fe0 N3 1.807528 1_555
Fe1 N2 1.807528 1_555
Fe1 N6 1.807528 1_545
Fe1 N1 1.807528 1_545
Fe1 N5 1.807528 1_555
Ag0 S4 2.546032 1_555
Ag0 S6 2.546032 1_554
Ag0 S0 2.546032 1_555
Ag0 S2 2.546032 1_554
Ag1 S7 2.546032 1_455
Ag1 S1 2.546032 1_445
Ag1 S5 2.546032 1_555
Ag1 S3 2.546032 1_545
As0 S6 2.203651 1_555
As0 S2 2.203651 1_555
As0 S4 2.203651 1_555
As0 S0 2.203651 1_555
As1 S1 2.203651 1_444
As1 S7 2.203651 1_455
As1 S5 2.203651 1_554
As1 S3 2.203651 1_545
N0 N11 1.336993 1_555
N0 S5 2.517886 1_655
N1 N10 1.336993 1_555
N1 S4 2.517886 1_555
N2 N9 1.336993 1_555
N2 S3 2.517886 1_545
N3 N8 1.336993 1_555
N3 S2 2.517886 1_555
N4 N8 1.336993 1_555
N4 S1 2.517886 1_455
N5 N9 1.336993 1_555
N5 S0 2.517886 1_555
N6 S7 2.517886 1_565
N7 S6 2.517886 1_555
N10 N6 1.336993 1_555
N11 N7 1.336993 1_555
