# generated using pymatgen
data_Na2SO5
_symmetry_space_group_name_H-M   'P 1'
_cell_length_a   7.89656181
_cell_length_b   7.89656181
_cell_length_c   5.65308200
_cell_angle_alpha   90.00000000
_cell_angle_beta   90.00000000
_cell_angle_gamma   131.27245583
_symmetry_Int_Tables_number   1
_chemical_formula_structural   Na2SO5
_chemical_formula_sum   'Na4 S2 O10'
_cell_volume   264.93378808
_cell_formula_units_Z   2
loop_
 _symmetry_equiv_pos_site_id
 _symmetry_equiv_pos_as_xyz
  1  'x, y, z'
loop_
 _atom_site_type_symbol
 _atom_site_label
 _atom_site_symmetry_multiplicity
 _atom_site_fract_x
 _atom_site_fract_y
 _atom_site_fract_z
 _atom_site_occupancy
  Na  Na0  1  0.00000000  0.00000000  0.50000000  1
  Na  Na1  1  0.00000000  0.00000000  0.00000000  1
  Na  Na2  1  0.30484100  0.69515900  0.75000000  1
  Na  Na3  1  0.69515900  0.30484100  0.25000000  1
  S  S0  1  0.81700700  0.18299300  0.75000000  1
  S  S1  1  0.18299300  0.81700700  0.25000000  1
  O  O0  1  0.85959900  0.14040100  0.25000000  1
  O  O1  1  0.14040100  0.85959900  0.75000000  1
  O  O2  1  0.68206000  0.95989800  0.92767700  1
  O  O3  1  0.95989800  0.68206000  0.07232300  1
  O  O4  1  0.68206000  0.95989800  0.57232300  1
  O  O5  1  0.95989800  0.68206000  0.42767700  1
  O  O6  1  0.31794000  0.04010200  0.07232300  1
  O  O7  1  0.04010200  0.31794000  0.92767700  1
  O  O8  1  0.31794000  0.04010200  0.42767700  1
  O  O9  1  0.04010200  0.31794000  0.57232300  1
loop_
_geom_bond_atom_site_label_1
_geom_bond_atom_site_label_2
_geom_bond_distance
_geom_bond_site_symmetry_2
Na0 O8 2.349859 1_555
Na0 O9 2.349859 1_555
Na0 O4 2.349859 1_445
Na0 O5 2.349859 1_445
Na0 O1 2.465225 1_545
Na0 O0 2.465225 1_455
Na1 O6 2.349859 1_555
Na1 O7 2.349859 1_554
Na1 O2 2.349859 1_444
Na1 O3 2.349859 1_445
Na1 O1 2.465225 1_544
Na1 O0 2.465225 1_455
Na2 O1 2.365743 1_555
Na2 O7 2.456969 1_555
Na2 O9 2.456969 1_555
Na2 O2 2.456969 1_555
Na2 O4 2.456969 1_555
Na3 O0 2.365743 1_555
Na3 O8 2.456969 1_555
Na3 O6 2.456969 1_555
Na3 O3 2.456969 1_555
Na3 O5 2.456969 1_555
O2 S0 1.664714 1_565
O3 S1 1.664714 1_655
O4 S0 1.664714 1_565
O5 S1 1.664714 1_655
O6 S1 1.664714 1_545
O7 S0 1.664714 1_455
O8 S1 1.664714 1_545
O9 S0 1.664714 1_455
