# generated using pymatgen
data_Eu2Mo2O7
_symmetry_space_group_name_H-M   'P 1'
_cell_length_a   7.40067138
_cell_length_b   7.40229178
_cell_length_c   7.40317612
_cell_angle_alpha   60.01191694
_cell_angle_beta   60.00458435
_cell_angle_gamma   60.00896476
_symmetry_Int_Tables_number   1
_chemical_formula_structural   Eu2Mo2O7
_chemical_formula_sum   'Eu4 Mo4 O14'
_cell_volume   286.82960267
_cell_formula_units_Z   2
loop_
 _symmetry_equiv_pos_site_id
 _symmetry_equiv_pos_as_xyz
  1  'x, y, z'
loop_
 _atom_site_type_symbol
 _atom_site_label
 _atom_site_symmetry_multiplicity
 _atom_site_fract_x
 _atom_site_fract_y
 _atom_site_fract_z
 _atom_site_occupancy
  Eu  Eu0  1  0.62500000  0.12500000  0.12500000  1
  Eu  Eu1  1  0.12500000  0.62500000  0.12500000  1
  Eu  Eu2  1  0.12500000  0.12500000  0.62500000  1
  Eu  Eu3  1  0.12500000  0.12500000  0.12500000  1
  Mo  Mo0  1  0.12500000  0.62500000  0.62500000  1
  Mo  Mo1  1  0.62500000  0.12500000  0.62500000  1
  Mo  Mo2  1  0.62500000  0.62500000  0.12500000  1
  Mo  Mo3  1  0.62500000  0.62500000  0.62500000  1
  O  O0  1  0.24982364  0.25011765  0.25023359  1
  O  O1  1  0.00017636  -0.00011765  -0.00023359  1
  O  O2  1  0.69510637  0.69489212  0.30504098  1
  O  O3  1  0.30501408  0.30508335  0.69481003  1
  O  O4  1  0.69506498  0.30502570  0.69477784  1
  O  O5  1  0.30496821  0.69480415  0.30523185  1
  O  O6  1  0.30493145  0.69502163  0.69493569  1
  O  O7  1  0.69483918  0.30507499  0.30525754  1
  O  O8  1  0.55489363  0.55510788  0.94495902  1
  O  O9  1  0.94498592  0.94491665  0.55518997  1
  O  O10  1  0.55493502  0.94497430  0.55522216  1
  O  O11  1  0.94503179  0.55519585  0.94476815  1
  O  O12  1  0.94506855  0.55497837  0.55506431  1
  O  O13  1  0.55516082  0.94492501  0.94474246  1
loop_
_geom_bond_atom_site_label_1
_geom_bond_atom_site_label_2
_geom_bond_distance
_geom_bond_site_symmetry_2
Eu0 O0 2.267214 1_555
Eu0 O1 2.267214 1_655
Eu0 O2 2.642008 1_545
Eu0 O8 2.642008 1_554
Eu0 O13 2.642226 1_544
Eu0 O7 2.642226 1_555
Eu0 O10 2.643045 1_545
Eu0 O4 2.643045 1_554
Eu1 O1 2.266101 1_565
Eu1 O0 2.266101 1_555
Eu1 O8 2.640076 1_554
Eu1 O2 2.640076 1_455
Eu1 O11 2.641082 1_454
Eu1 O5 2.641082 1_555
Eu1 O6 2.641969 1_554
Eu1 O12 2.641969 1_455
Eu2 O1 2.265570 1_556
Eu2 O0 2.265570 1_555
Eu2 O9 2.640342 1_445
Eu2 O3 2.640342 1_555
Eu2 O4 2.640524 1_455
Eu2 O10 2.640524 1_545
Eu2 O6 2.641312 1_545
Eu2 O12 2.641312 1_455
Eu3 O1 2.267317 1_555
Eu3 O0 2.267317 1_555
Eu3 O7 2.642031 1_455
Eu3 O13 2.642031 1_544
Eu3 O9 2.642701 1_445
Eu3 O3 2.642701 1_554
Eu3 O5 2.642758 1_545
Eu3 O11 2.642758 1_454
Mo0 O12 1.989355 1_455
Mo0 O6 1.989355 1_555
Mo0 O5 1.989404 1_555
Mo0 O11 1.989404 1_455
Mo0 O3 1.990193 1_555
Mo0 O9 1.990193 1_455
Mo1 O4 1.989554 1_555
Mo1 O10 1.989554 1_545
Mo1 O7 1.989595 1_555
Mo1 O13 1.989595 1_545
Mo1 O3 1.990247 1_555
Mo1 O9 1.990247 1_545
Mo2 O8 1.990612 1_554
Mo2 O2 1.990612 1_555
Mo2 O5 1.990687 1_555
Mo2 O11 1.990687 1_554
Mo2 O7 1.990743 1_555
Mo2 O13 1.990743 1_554
Mo3 O8 1.990519 1_555
Mo3 O2 1.990519 1_555
Mo3 O6 1.990521 1_555
Mo3 O12 1.990521 1_555
Mo3 O10 1.990634 1_555
Mo3 O4 1.990634 1_555
