# generated using pymatgen
data_Sc3Ga5Co
_symmetry_space_group_name_H-M   'P 1'
_cell_length_a   6.32987463
_cell_length_b   7.83218163
_cell_length_c   7.83195668
_cell_angle_alpha   82.73915441
_cell_angle_beta   113.82580045
_cell_angle_gamma   66.17110479
_symmetry_Int_Tables_number   1
_chemical_formula_structural   Sc3Ga5Co
_chemical_formula_sum   'Sc6 Ga10 Co2'
_cell_volume   304.83797570
_cell_formula_units_Z   2
loop_
 _symmetry_equiv_pos_site_id
 _symmetry_equiv_pos_as_xyz
  1  'x, y, z'
loop_
 _atom_site_type_symbol
 _atom_site_label
 _atom_site_symmetry_multiplicity
 _atom_site_fract_x
 _atom_site_fract_y
 _atom_site_fract_z
 _atom_site_occupancy
  Sc  Sc0  1  0.42821456  0.46666113  0.96665781  1
  Sc  Sc1  1  0.92808610  0.53346078  0.03322253  1
  Sc  Sc2  1  0.76458466  0.24997178  0.75007175  1
  Sc  Sc3  1  0.26437454  0.75010503  0.24983669  1
  Sc  Sc4  1  0.42799016  0.03358231  0.53354293  1
  Sc  Sc5  1  0.92787482  0.96658324  0.46630395  1
  Ga  Ga0  1  0.45943316  0.34455519  0.34458702  1
  Ga  Ga1  1  0.45930948  0.65552072  0.65531064  1
  Ga  Ga2  1  0.95929594  0.84467529  0.84446674  1
  Ga  Ga3  1  0.95938142  0.15542997  0.15543875  1
  Ga  Ga4  1  0.24901056  0.25016124  0.75014861  1
  Ga  Ga5  1  0.74890918  0.74996309  0.24975062  1
  Ga  Ga6  1  0.36868871  0.12885524  0.12917355  1
  Ga  Ga7  1  0.36868491  0.87089574  0.87106219  1
  Ga  Ga8  1  0.86861916  0.62891522  0.62911424  1
  Ga  Ga9  1  0.86864540  0.37082411  0.37114411  1
  Co  Co0  1  0.20052877  0.49991701  0.50008205  1
  Co  Co1  1  0.70036645  -0.00007709  0.00008581  1
loop_
_geom_bond_atom_site_label_1
_geom_bond_atom_site_label_2
_geom_bond_distance
_geom_bond_site_symmetry_2
Sc0 Sc1 3.260528 1_556
Sc0 Sc1 3.260602 1_456
Sc0 Sc2 3.319188 1_555
Sc0 Sc3 3.487871 1_556
Sc1 Sc3 3.319183 1_655
Sc1 Sc2 3.487977 1_554
Sc2 Sc4 3.318549 1_555
Sc2 Sc5 3.490438 1_545
Sc3 Sc5 3.318414 1_455
Sc3 Sc4 3.490711 1_565
Sc4 Sc5 3.261800 1_545
Sc4 Sc5 3.261806 1_445
Ga0 Ga6 2.598454 1_555
Ga0 Ga9 2.607913 1_555
Ga0 Sc2 2.767368 1_555
Ga0 Sc3 2.767554 1_555
Ga0 Sc4 2.807202 1_555
Ga0 Sc1 2.808682 1_455
Ga0 Sc0 2.893791 1_554
Ga0 Sc5 2.893948 1_545
Ga1 Ga7 2.598379 1_555
Ga1 Ga8 2.608104 1_555
Ga1 Sc3 2.767139 1_555
Ga1 Sc2 2.767659 1_555
Ga1 Sc0 2.807859 1_555
Ga1 Sc5 2.808199 1_455
Ga1 Sc4 2.894086 1_565
Ga1 Sc1 2.894170 1_556
Ga2 Ga8 2.598440 1_555
Ga2 Ga7 2.608744 1_655
Ga2 Sc2 2.766138 1_565
Ga2 Sc3 2.766579 1_656
Ga2 Sc1 2.807138 1_556
Ga2 Sc4 2.807420 1_565
Ga2 Sc5 2.894654 1_555
Ga2 Sc0 2.894788 1_655
Ga3 Ga9 2.598335 1_555
Ga3 Ga6 2.608428 1_655
Ga3 Sc3 2.766428 1_645
Ga3 Sc2 2.766487 1_554
Ga3 Sc5 2.806334 1_545
Ga3 Sc0 2.807661 1_554
Ga3 Sc1 2.894537 1_555
Ga3 Sc4 2.894870 1_655
Ga4 Ga8 2.677664 1_455
Ga4 Ga6 2.679046 1_556
Ga4 Ga9 2.679448 1_455
Ga4 Ga7 2.680586 1_545
Ga4 Sc0 2.786458 1_555
Ga4 Sc4 2.786785 1_555
Ga4 Sc2 3.066712 1_455
Ga5 Ga7 2.677123 1_554
Ga5 Ga6 2.678625 1_565
Ga5 Ga9 2.679899 1_555
Ga5 Ga8 2.681300 1_555
Ga5 Sc1 2.786464 1_555
Ga5 Sc5 2.786825 1_555
Ga5 Sc3 3.066867 1_555
Ga6 Sc4 2.990567 1_555
Ga6 Sc1 2.991443 1_455
Ga6 Sc5 3.013590 1_545
Ga6 Sc0 3.017251 1_554
Ga6 Ga7 3.033295 1_544
Ga6 Sc3 3.392202 1_545
Ga6 Sc2 3.394416 1_454
Ga7 Sc0 2.989192 1_555
Ga7 Sc5 2.993333 1_455
Ga7 Sc4 3.014805 1_565
Ga7 Sc1 3.015402 1_556
Ga7 Sc3 3.392517 1_556
Ga7 Sc2 3.394533 1_465
Ga8 Sc1 2.988241 1_556
Ga8 Sc4 2.992596 1_565
Ga8 Sc5 3.016031 1_555
Ga8 Sc0 3.016425 1_655
Ga8 Ga9 3.033238 1_555
Ga8 Sc2 3.392991 1_555
Ga8 Sc3 3.395368 1_555
Ga9 Sc5 2.989783 1_545
Ga9 Sc0 2.990675 1_554
Ga9 Sc4 3.014337 1_655
Ga9 Sc1 3.017974 1_555
Ga9 Sc2 3.392693 1_555
Ga9 Sc3 3.395152 1_555
Co0 Ga4 2.411919 1_555
Co0 Ga5 2.414343 1_455
Co0 Ga1 2.454620 1_555
Co0 Ga0 2.454640 1_555
Co0 Ga8 2.591196 1_455
Co0 Ga9 2.591473 1_455
Co0 Sc2 2.854693 1_555
Co0 Sc3 2.855401 1_555
Co0 Sc4 3.268934 1_555
Co0 Sc5 3.270694 1_455
Co0 Sc0 3.270986 1_555
Co0 Sc1 3.272485 1_455
Co1 Ga5 2.410697 1_545
Co1 Ga4 2.413096 1_554
Co1 Ga3 2.455265 1_555
Co1 Ga2 2.455293 1_544
Co1 Ga7 2.590118 1_544
Co1 Ga6 2.590282 1_555
Co1 Sc3 2.854213 1_645
Co1 Sc2 2.855137 1_554
Co1 Sc5 3.268274 1_545
Co1 Sc4 3.270001 1_554
Co1 Sc1 3.270399 1_545
Co1 Sc0 3.271812 1_554
