# generated using pymatgen
data_Cs(BO)12
_symmetry_space_group_name_H-M   'P 1'
_cell_length_a   7.82090333
_cell_length_b   7.82090333
_cell_length_c   7.82090340
_cell_angle_alpha   73.23350036
_cell_angle_beta   73.23350036
_cell_angle_gamma   73.23350984
_symmetry_Int_Tables_number   1
_chemical_formula_structural   Cs(BO)12
_chemical_formula_sum   'Cs1 B12 O12'
_cell_volume   427.43580835
_cell_formula_units_Z   1
loop_
 _symmetry_equiv_pos_site_id
 _symmetry_equiv_pos_as_xyz
  1  'x, y, z'
loop_
 _atom_site_type_symbol
 _atom_site_label
 _atom_site_symmetry_multiplicity
 _atom_site_fract_x
 _atom_site_fract_y
 _atom_site_fract_z
 _atom_site_occupancy
  Cs  Cs0  1  0.00000000  0.00000000  0.00000000  1
  B  B0  1  0.30222900  0.51254900  0.30222900  1
  B  B1  1  0.30222900  0.30222900  0.51254900  1
  B  B2  1  0.51254900  0.30222900  0.30222900  1
  B  B3  1  0.69777100  0.48745100  0.69777100  1
  B  B4  1  0.69777100  0.69777100  0.48745100  1
  B  B5  1  0.48745100  0.69777100  0.69777100  1
  B  B6  1  0.45975300  0.79018900  0.45975300  1
  B  B7  1  0.45975300  0.45975300  0.79018900  1
  B  B8  1  0.79018900  0.45975300  0.45975300  1
  B  B9  1  0.54024700  0.20981100  0.54024700  1
  B  B10  1  0.54024700  0.54024700  0.20981100  1
  B  B11  1  0.20981100  0.54024700  0.54024700  1
  O  O0  1  0.19542000  0.58976300  0.19542000  1
  O  O1  1  0.19542000  0.19542000  0.58976300  1
  O  O2  1  0.58976300  0.19542000  0.19542000  1
  O  O3  1  0.80458000  0.41023700  0.80458000  1
  O  O4  1  0.80458000  0.80458000  0.41023700  1
  O  O5  1  0.41023700  0.80458000  0.80458000  1
  O  O6  1  0.36033000  0.89456400  0.36033000  1
  O  O7  1  0.36033000  0.36033000  0.89456400  1
  O  O8  1  0.89456400  0.36033000  0.36033000  1
  O  O9  1  0.63967000  0.10543600  0.63967000  1
  O  O10  1  0.63967000  0.63967000  0.10543600  1
  O  O11  1  0.10543600  0.63967000  0.63967000  1
loop_
_geom_bond_atom_site_label_1
_geom_bond_atom_site_label_2
_geom_bond_distance
_geom_bond_site_symmetry_2
Cs0 O1 3.264229 1_554
Cs0 O4 3.264229 1_445
Cs0 O2 3.264230 1_455
Cs0 O0 3.264230 1_545
Cs0 O5 3.264230 1_544
Cs0 O3 3.264230 1_454
B0 O0 1.257292 1_555
B1 O1 1.257292 1_555
B2 O2 1.257292 1_555
B3 O3 1.257292 1_555
B4 O4 1.257292 1_555
B5 O5 1.257292 1_555
B6 O6 1.221485 1_555
B7 O7 1.221485 1_555
B8 O8 1.221485 1_555
B9 O9 1.221485 1_555
B10 O10 1.221485 1_555
B11 O11 1.221485 1_555
