# generated using pymatgen
data_KSnN
_symmetry_space_group_name_H-M   'P 1'
_cell_length_a   3.46221200
_cell_length_b   3.46220893
_cell_length_c   12.23969900
_cell_angle_alpha   90.00000000
_cell_angle_beta   90.00000000
_cell_angle_gamma   120.00002934
_symmetry_Int_Tables_number   1
_chemical_formula_structural   KSnN
_chemical_formula_sum   'K2 Sn2 N2'
_cell_volume   127.05980091
_cell_formula_units_Z   2
loop_
 _symmetry_equiv_pos_site_id
 _symmetry_equiv_pos_as_xyz
  1  'x, y, z'
loop_
 _atom_site_type_symbol
 _atom_site_label
 _atom_site_symmetry_multiplicity
 _atom_site_fract_x
 _atom_site_fract_y
 _atom_site_fract_z
 _atom_site_occupancy
  K  K0  1  0.66667000  0.33334000  0.74838100  1
  K  K1  1  0.33333000  0.66666000  0.24838100  1
  Sn  Sn0  1  0.99999600  0.99999200  0.50502100  1
  Sn  Sn1  1  0.00000400  0.00000800  0.00502100  1
  N  N0  1  0.33333000  0.66666000  0.59123700  1
  N  N1  1  0.66667000  0.33334000  0.09123700  1
loop_
_geom_bond_atom_site_label_1
_geom_bond_atom_site_label_2
_geom_bond_distance
_geom_bond_site_symmetry_2
K0 N0 2.773987 1_555
K0 N0 2.773987 1_655
K0 N0 2.774029 1_545
K1 N1 2.773987 1_455
K1 N1 2.773987 1_555
K1 N1 2.774029 1_565
N0 Sn0 2.260353 1_455
N0 Sn0 2.260353 1_555
N0 Sn0 2.260357 1_445
N1 Sn1 2.260353 1_655
N1 Sn1 2.260353 1_555
N1 Sn1 2.260357 1_665
