# generated using pymatgen
data_Li3V5(H8O11)2
_symmetry_space_group_name_H-M   'P 1'
_cell_length_a   9.39430548
_cell_length_b   10.50242039
_cell_length_c   17.85584896
_cell_angle_alpha   90.00000000
_cell_angle_beta   90.00000000
_cell_angle_gamma   90.00000000
_symmetry_Int_Tables_number   1
_chemical_formula_structural   Li3V5(H8O11)2
_chemical_formula_sum   'Li12 V20 H64 O88'
_cell_volume   1761.71065142
_cell_formula_units_Z   4
loop_
 _symmetry_equiv_pos_site_id
 _symmetry_equiv_pos_as_xyz
  1  'x, y, z'
loop_
 _atom_site_type_symbol
 _atom_site_label
 _atom_site_symmetry_multiplicity
 _atom_site_fract_x
 _atom_site_fract_y
 _atom_site_fract_z
 _atom_site_occupancy
  Li  Li0  1  -0.00000000  0.59700210  0.76605897  1
  Li  Li1  1  -0.00000000  0.40299790  0.23394103  1
  Li  Li2  1  0.50000000  0.90299790  0.26605897  1
  Li  Li3  1  0.50000000  0.09700210  0.73394103  1
  Li  Li4  1  -0.00000000  0.27889969  0.69646572  1
  Li  Li5  1  -0.00000000  0.72110031  0.30353428  1
  Li  Li6  1  0.50000000  0.22110031  0.19646572  1
  Li  Li7  1  0.50000000  0.77889969  0.80353428  1
  Li  Li8  1  -0.00000000  0.10528906  0.56452716  1
  Li  Li9  1  -0.00000000  0.89471094  0.43547284  1
  Li  Li10  1  0.50000000  0.39471094  0.06452716  1
  Li  Li11  1  0.50000000  0.60528906  0.93547284  1
  V  V0  1  0.83400460  0.16190963  0.85339238  1
  V  V1  1  0.83400460  0.83809037  0.14660762  1
  V  V2  1  0.66599540  0.33809037  0.35339238  1
  V  V3  1  0.66599540  0.66190963  0.64660762  1
  V  V4  1  0.16599540  0.83809037  0.14660762  1
  V  V5  1  0.16599540  0.16190963  0.85339238  1
  V  V6  1  0.33400460  0.66190963  0.64660762  1
  V  V7  1  0.33400460  0.33809037  0.35339238  1
  V  V8  1  -0.00000000  0.90168360  0.85802944  1
  V  V9  1  -0.00000000  0.09831640  0.14197056  1
  V  V10  1  0.50000000  0.59831640  0.35802944  1
  V  V11  1  0.50000000  0.40168360  0.64197056  1
  V  V12  1  0.82423627  0.00000000  0.00000000  1
  V  V13  1  0.67576373  0.50000000  0.50000000  1
  V  V14  1  0.17576373  0.00000000  -0.00000000  1
  V  V15  1  0.32423627  0.50000000  0.50000000  1
  V  V16  1  -0.00000000  0.73600382  0.00502526  1
  V  V17  1  -0.00000000  0.26399618  0.99497474  1
  V  V18  1  0.50000000  0.76399618  0.50502526  1
  V  V19  1  0.50000000  0.23600382  0.49497474  1
  H  H0  1  0.84045512  0.44174844  0.84655892  1
  H  H1  1  0.84045512  0.55825156  0.15344108  1
  H  H2  1  0.65954488  0.05825156  0.34655892  1
  H  H3  1  0.65954488  0.94174844  0.65344108  1
  H  H4  1  0.15954488  0.55825156  0.15344108  1
  H  H5  1  0.15954488  0.44174844  0.84655892  1
  H  H6  1  0.34045512  0.94174844  0.65344108  1
  H  H7  1  0.34045512  0.05825156  0.34655892  1
  H  H8  1  0.76337979  0.47769575  0.77008264  1
  H  H9  1  0.76337979  0.52230425  0.22991736  1
  H  H10  1  0.73662021  0.02230425  0.27008264  1
  H  H11  1  0.73662021  0.97769575  0.72991736  1
  H  H12  1  0.23662021  0.52230425  0.22991736  1
  H  H13  1  0.23662021  0.47769575  0.77008264  1
  H  H14  1  0.26337979  0.97769575  0.72991736  1
  H  H15  1  0.26337979  0.02230425  0.27008264  1
  H  H16  1  0.91718212  0.49470353  0.63704432  1
  H  H17  1  0.91718212  0.50529647  0.36295568  1
  H  H18  1  0.58281788  0.00529647  0.13704432  1
  H  H19  1  0.58281788  0.99470353  0.86295568  1
  H  H20  1  0.08281788  0.50529647  0.36295568  1
  H  H21  1  0.08281788  0.49470353  0.63704432  1
  H  H22  1  0.41718212  0.99470353  0.86295568  1
  H  H23  1  0.41718212  0.00529647  0.13704432  1
  H  H24  1  0.78321615  0.13833364  0.65407510  1
  H  H25  1  0.78321615  0.86166636  0.34592490  1
  H  H26  1  0.71678385  0.36166636  0.15407510  1
  H  H27  1  0.71678385  0.63833364  0.84592490  1
  H  H28  1  0.21678385  0.86166636  0.34592490  1
  H  H29  1  0.21678385  0.13833364  0.65407510  1
  H  H30  1  0.28321615  0.63833364  0.84592490  1
  H  H31  1  0.28321615  0.36166636  0.15407510  1
  H  H32  1  0.77698295  0.26418305  0.60702673  1
  H  H33  1  0.77698295  0.73581695  0.39297327  1
  H  H34  1  0.72301705  0.23581695  0.10702673  1
  H  H35  1  0.72301705  0.76418305  0.89297327  1
  H  H36  1  0.22301705  0.73581695  0.39297327  1
  H  H37  1  0.22301705  0.26418305  0.60702673  1
  H  H38  1  0.27698295  0.76418305  0.89297327  1
  H  H39  1  0.27698295  0.23581695  0.10702673  1
  H  H40  1  0.91740981  0.29680683  0.46465531  1
  H  H41  1  0.91740981  0.70319317  0.53534469  1
  H  H42  1  0.58259019  0.20319317  0.96465531  1
  H  H43  1  0.58259019  0.79680683  0.03534469  1
  H  H44  1  0.08259019  0.70319317  0.53534469  1
  H  H45  1  0.08259019  0.29680683  0.46465531  1
  H  H46  1  0.41740981  0.79680683  0.03534469  1
  H  H47  1  0.41740981  0.20319317  0.96465531  1
  H  H48  1  -0.00000000  0.94270817  0.69356953  1
  H  H49  1  -0.00000000  0.05729183  0.30643047  1
  H  H50  1  0.50000000  0.55729183  0.19356953  1
  H  H51  1  0.50000000  0.44270817  0.80643047  1
  H  H52  1  -0.00000000  0.87509883  0.61460007  1
  H  H53  1  -0.00000000  0.12490117  0.38539993  1
  H  H54  1  0.50000000  0.62490117  0.11460007  1
  H  H55  1  0.50000000  0.37509883  0.88539993  1
  H  H56  1  0.77280692  0.06007913  0.47432655  1
  H  H57  1  0.77280692  0.93992087  0.52567345  1
  H  H58  1  0.72719308  0.43992087  0.97432655  1
  H  H59  1  0.72719308  0.56007913  0.02567345  1
  H  H60  1  0.22719308  0.93992087  0.52567345  1
  H  H61  1  0.22719308  0.06007913  0.47432655  1
  H  H62  1  0.27280692  0.56007913  0.02567345  1
  H  H63  1  0.27280692  0.43992087  0.97432655  1
  O  O0  1  -0.00000000  0.21276305  0.80387489  1
  O  O1  1  -0.00000000  0.78723695  0.19612511  1
  O  O2  1  0.50000000  0.28723695  0.30387489  1
  O  O3  1  0.50000000  0.71276305  0.69612511  1
  O  O4  1  0.85524445  0.29164291  0.92629733  1
  O  O5  1  0.85524445  0.70835709  0.07370267  1
  O  O6  1  0.64475555  0.20835709  0.42629733  1
  O  O7  1  0.64475555  0.79164291  0.57370267  1
  O  O8  1  0.14475555  0.70835709  0.07370267  1
  O  O9  1  0.14475555  0.29164291  0.92629733  1
  O  O10  1  0.35524445  0.79164291  0.57370267  1
  O  O11  1  0.35524445  0.20835709  0.42629733  1
  O  O12  1  0.70458403  0.21554760  0.80207595  1
  O  O13  1  0.70458403  0.78445240  0.19792405  1
  O  O14  1  0.79541597  0.28445240  0.30207595  1
  O  O15  1  0.79541597  0.71554760  0.69792405  1
  O  O16  1  0.29541597  0.78445240  0.19792405  1
  O  O17  1  0.29541597  0.21554760  0.80207595  1
  O  O18  1  0.20458403  0.71554760  0.69792405  1
  O  O19  1  0.20458403  0.28445240  0.30207595  1
  O  O20  1  0.85495188  0.99331099  0.81510950  1
  O  O21  1  0.85495188  0.00668901  0.18489050  1
  O  O22  1  0.64504812  0.50668901  0.31510950  1
  O  O23  1  0.64504812  0.49331099  0.68489050  1
  O  O24  1  0.14504812  0.00668901  0.18489050  1
  O  O25  1  0.14504812  0.99331099  0.81510950  1
  O  O26  1  0.35495188  0.49331099  0.68489050  1
  O  O27  1  0.35495188  0.50668901  0.31510950  1
  O  O28  1  -0.00000000  0.06768889  0.93707513  1
  O  O29  1  -0.00000000  0.93231111  0.06292487  1
  O  O30  1  0.50000000  0.43231111  0.43707513  1
  O  O31  1  0.50000000  0.56768889  0.56292487  1
  O  O32  1  -0.00000000  0.76787155  0.81164067  1
  O  O33  1  -0.00000000  0.23212845  0.18835933  1
  O  O34  1  0.50000000  0.73212845  0.31164067  1
  O  O35  1  0.50000000  0.26787155  0.68835933  1
  O  O36  1  0.86586216  0.84938969  0.94360542  1
  O  O37  1  0.86586216  0.15061031  0.05639458  1
  O  O38  1  0.63413784  0.65061031  0.44360542  1
  O  O39  1  0.63413784  0.34938969  0.55639458  1
  O  O40  1  0.13413784  0.15061031  0.05639458  1
  O  O41  1  0.13413784  0.84938969  0.94360542  1
  O  O42  1  0.36586216  0.34938969  0.55639458  1
  O  O43  1  0.36586216  0.65061031  0.44360542  1
  O  O44  1  0.71333766  0.92821733  0.06622649  1
  O  O45  1  0.71333766  0.07178267  0.93377351  1
  O  O46  1  0.78666234  0.57178267  0.56622649  1
  O  O47  1  0.78666234  0.42821733  0.43377351  1
  O  O48  1  0.28666234  0.07178267  0.93377351  1
  O  O49  1  0.28666234  0.92821733  0.06622649  1
  O  O50  1  0.21333766  0.42821733  0.43377351  1
  O  O51  1  0.21333766  0.57178267  0.56622649  1
  O  O52  1  -0.00000000  0.61051394  0.95197870  1
  O  O53  1  -0.00000000  0.38948606  0.04802130  1
  O  O54  1  0.50000000  0.88948606  0.45197870  1
  O  O55  1  0.50000000  0.11051394  0.54802130  1
  O  O56  1  0.82807266  0.50976267  0.80950287  1
  O  O57  1  0.82807266  0.49023733  0.19049713  1
  O  O58  1  0.67192734  0.99023733  0.30950287  1
  O  O59  1  0.67192734  0.00976267  0.69049713  1
  O  O60  1  0.17192734  0.49023733  0.19049713  1
  O  O61  1  0.17192734  0.50976267  0.80950287  1
  O  O62  1  0.32807266  0.00976267  0.69049713  1
  O  O63  1  0.32807266  0.99023733  0.30950287  1
  O  O64  1  -0.00000000  0.47047374  0.66793167  1
  O  O65  1  -0.00000000  0.52952626  0.33206833  1
  O  O66  1  0.50000000  0.02952626  0.16793167  1
  O  O67  1  0.50000000  0.97047374  0.83206833  1
  O  O68  1  0.84403935  0.20758529  0.63371840  1
  O  O69  1  0.84403935  0.79241471  0.36628160  1
  O  O70  1  0.65596065  0.29241471  0.13371840  1
  O  O71  1  0.65596065  0.70758529  0.86628160  1
  O  O72  1  0.15596065  0.79241471  0.36628160  1
  O  O73  1  0.15596065  0.20758529  0.63371840  1
  O  O74  1  0.34403935  0.70758529  0.86628160  1
  O  O75  1  0.34403935  0.29241471  0.13371840  1
  O  O76  1  -0.00000000  0.24052054  0.47232306  1
  O  O77  1  -0.00000000  0.75947946  0.52767694  1
  O  O78  1  0.50000000  0.25947946  0.97232306  1
  O  O79  1  0.50000000  0.74052054  0.02767694  1
  O  O80  1  -0.00000000  0.95839487  0.63974258  1
  O  O81  1  -0.00000000  0.04160513  0.36025742  1
  O  O82  1  0.50000000  0.54160513  0.13974258  1
  O  O83  1  0.50000000  0.45839487  0.86025742  1
  O  O84  1  0.83617401  0.00000000  0.50000000  1
  O  O85  1  0.66382599  0.50000000  0.00000000  1
  O  O86  1  0.16382599  0.00000000  0.50000000  1
  O  O87  1  0.33617401  0.50000000  -0.00000000  1
loop_
_geom_bond_atom_site_label_1
_geom_bond_atom_site_label_2
_geom_bond_distance
_geom_bond_site_symmetry_2
Li0 O32 1.970486 1_555
Li0 O56 2.012435 1_455
Li0 O61 2.012435 1_555
Li0 O64 2.199061 1_555
Li0 O15 2.593066 1_455
Li0 O18 2.593066 1_555
Li1 O33 1.970486 1_555
Li1 O57 2.012435 1_455
Li1 O60 2.012435 1_555
Li1 O65 2.199061 1_555
Li1 O19 2.593066 1_555
Li1 O14 2.593066 1_455
Li2 O34 1.970486 1_555
Li2 O58 2.012435 1_555
Li2 O63 2.012435 1_555
Li2 O66 2.199061 1_565
Li2 O13 2.593066 1_555
Li2 O16 2.593066 1_555
Li3 O35 1.970486 1_555
Li3 O62 2.012435 1_555
Li3 O59 2.012435 1_555
Li3 O67 2.199061 1_545
Li3 O17 2.593066 1_555
Li3 O12 2.593066 1_555
Li4 O68 1.990707 1_455
Li4 O73 1.990707 1_555
Li4 O0 2.039787 1_555
Li4 O64 2.075500 1_555
Li5 O72 1.990707 1_555
Li5 O69 1.990707 1_455
Li5 O1 2.039787 1_555
Li5 O65 2.075500 1_555
Li6 O75 1.990707 1_555
Li6 O70 1.990707 1_555
Li6 O2 2.039787 1_555
Li6 O66 2.075500 1_555
Li7 O74 1.990707 1_555
Li7 O71 1.990707 1_555
Li7 O3 2.039787 1_555
Li7 O67 2.075500 1_555
Li8 O80 2.045435 1_545
Li8 O76 2.174329 1_555
Li8 O73 2.197104 1_555
Li8 O68 2.197104 1_455
Li8 O86 2.217865 1_555
Li8 O84 2.217865 1_455
Li9 O81 2.045435 1_565
Li9 O77 2.174329 1_555
Li9 O69 2.197104 1_455
Li9 O72 2.197104 1_555
Li9 O84 2.217865 1_465
Li9 O86 2.217865 1_565
Li10 O82 2.045435 1_555
Li10 O78 2.174329 1_554
Li10 O70 2.197104 1_555
Li10 O75 2.197104 1_555
Li10 O87 2.217865 1_555
Li10 O85 2.217865 1_555
Li11 O83 2.045435 1_555
Li11 O79 2.174329 1_556
Li11 O71 2.197104 1_555
Li11 O74 2.197104 1_555
Li11 O87 2.217865 1_556
Li11 O85 2.217865 1_556
H0 O56 0.980602 1_555
H1 O57 0.980602 1_555
H2 O58 0.980602 1_545
H3 O59 0.980602 1_565
H4 O60 0.980602 1_555
H5 O61 0.980602 1_555
H6 O62 0.980602 1_565
H7 O63 0.980602 1_545
H8 O56 0.989052 1_555
H9 O57 0.989052 1_555
H10 O58 0.989052 1_545
H11 O59 0.989052 1_565
H12 O60 0.989052 1_555
H13 O61 0.989052 1_555
H14 O62 0.989052 1_565
H15 O63 0.989052 1_545
H16 O64 0.987036 1_655
H17 O65 0.987036 1_655
H18 O66 0.987036 1_555
H19 O67 0.987036 1_555
H20 O65 0.987036 1_555
H21 O64 0.987036 1_555
H22 O67 0.987036 1_555
H23 O66 0.987036 1_555
H24 O68 0.993776 1_555
H25 O69 0.993776 1_555
H26 O70 0.993776 1_555
H27 O71 0.993776 1_555
H28 O72 0.993776 1_555
H29 O73 0.993776 1_555
H30 O74 0.993776 1_555
H31 O75 0.993776 1_555
H32 O68 0.988591 1_555
H33 O69 0.988591 1_555
H34 O70 0.988591 1_555
H35 O71 0.988591 1_555
H36 O72 0.988591 1_555
H37 O73 0.988591 1_555
H38 O74 0.988591 1_555
H39 O75 0.988591 1_555
H40 O76 0.984977 1_655
H41 O77 0.984977 1_655
H42 O78 0.984977 1_555
H43 O79 0.984977 1_555
H44 O77 0.984977 1_555
H45 O76 0.984977 1_555
H46 O79 0.984977 1_555
H47 O78 0.984977 1_555
H48 O80 0.975144 1_555
H49 O81 0.975144 1_555
H50 O82 0.975144 1_555
H51 O83 0.975144 1_555
H52 O80 0.983280 1_555
H53 O81 0.983280 1_555
H54 O82 0.983280 1_555
H55 O83 0.983280 1_555
H56 O84 0.981148 1_555
H57 O84 0.981148 1_565
H58 O85 0.981148 1_556
H59 O85 0.981148 1_555
H60 O86 0.981148 1_565
H61 O86 0.981148 1_555
H62 O87 0.981148 1_555
H63 O87 0.981148 1_556
O0 V5 1.870502 1_555
O0 V0 1.870502 1_455
O1 V4 1.870502 1_555
O1 V1 1.870502 1_455
O2 V2 1.870502 1_555
O2 V7 1.870502 1_555
O3 V6 1.870502 1_555
O3 V3 1.870502 1_555
O4 V17 1.854015 1_655
O4 V0 1.894964 1_555
O5 V16 1.854015 1_655
O5 V1 1.894964 1_555
O6 V19 1.854015 1_555
O6 V2 1.894964 1_555
O7 V18 1.854015 1_555
O7 V3 1.894964 1_555
O8 V16 1.854015 1_555
O8 V4 1.894964 1_555
O9 V17 1.854015 1_555
O9 V5 1.894964 1_555
O10 V18 1.854015 1_555
O10 V6 1.894964 1_555
O11 V19 1.854015 1_555
O11 V7 1.894964 1_555
O12 V0 1.623315 1_555
O13 V1 1.623315 1_555
O14 V2 1.623315 1_555
O15 V3 1.623315 1_555
O16 V4 1.623315 1_555
O17 V5 1.623315 1_555
O18 V6 1.623315 1_555
O19 V7 1.623315 1_555
O20 V8 1.835788 1_655
O20 V0 1.908233 1_565
O21 V9 1.835788 1_655
O21 V1 1.908233 1_545
O22 V10 1.835788 1_555
O22 V2 1.908233 1_555
O23 V11 1.835788 1_555
O23 V3 1.908233 1_555
O24 V9 1.835788 1_555
O24 V4 1.908233 1_545
O25 V8 1.835788 1_555
O25 V5 1.908233 1_565
O26 V11 1.835788 1_555
O26 V6 1.908233 1_555
O27 V10 1.835788 1_555
O27 V7 1.908233 1_555
O28 V12 2.119950 1_456
O28 V14 2.119950 1_556
O28 V8 2.243161 1_545
O28 V17 2.306394 1_555
O28 V5 2.375643 1_555
O28 V0 2.375643 1_455
O29 V14 2.119950 1_565
O29 V12 2.119950 1_465
O29 V9 2.243161 1_565
O29 V16 2.306394 1_555
O29 V4 2.375643 1_555
O29 V1 2.375643 1_455
O30 V15 2.119950 1_555
O30 V13 2.119950 1_555
O30 V10 2.243161 1_555
O30 V19 2.306394 1_555
O30 V2 2.375643 1_555
O30 V7 2.375643 1_555
O31 V15 2.119950 1_555
O31 V13 2.119950 1_555
O31 V11 2.243161 1_555
O31 V18 2.306394 1_555
O31 V3 2.375643 1_555
O31 V6 2.375643 1_555
O32 V8 1.631290 1_555
O33 V9 1.631290 1_555
O34 V10 1.631290 1_555
O35 V11 1.631290 1_555
O36 V12 1.915442 1_566
O36 V16 2.051526 1_656
O36 V8 2.055346 1_655
O37 V12 1.915442 1_555
O37 V17 2.051526 1_654
O37 V9 2.055346 1_655
O38 V13 1.915442 1_555
O38 V18 2.051526 1_555
O38 V10 2.055346 1_555
O39 V13 1.915442 1_555
O39 V19 2.051526 1_555
O39 V11 2.055346 1_555
O40 V14 1.915442 1_555
O40 V17 2.051526 1_554
O40 V9 2.055346 1_555
O41 V14 1.915442 1_566
O41 V16 2.051526 1_556
O41 V8 2.055346 1_555
O42 V15 1.915442 1_555
O42 V19 2.051526 1_555
O42 V11 2.055346 1_555
O43 V15 1.915442 1_555
O43 V18 2.051526 1_555
O43 V10 2.055346 1_555
O44 V12 1.747029 1_565
O44 V1 2.059363 1_555
O45 V12 1.747029 1_556
O45 V0 2.059363 1_555
O46 V13 1.747029 1_555
O46 V3 2.059363 1_555
O47 V13 1.747029 1_555
O47 V2 2.059363 1_555
O48 V14 1.747029 1_556
O48 V5 2.059363 1_555
O49 V14 1.747029 1_565
O49 V4 2.059363 1_555
O50 V15 1.747029 1_555
O50 V7 2.059363 1_555
O51 V15 1.747029 1_555
O51 V6 2.059363 1_555
O52 V16 1.623009 1_556
O53 V17 1.623009 1_554
O54 V18 1.623009 1_555
O55 V19 1.623009 1_555
