# generated using pymatgen
data_TaCo4Si
_symmetry_space_group_name_H-M   'P 1'
_cell_length_a   4.74645422
_cell_length_b   4.74645422
_cell_length_c   7.41363700
_cell_angle_alpha   90.00000000
_cell_angle_beta   90.00000000
_cell_angle_gamma   120.00000312
_symmetry_Int_Tables_number   1
_chemical_formula_structural   TaCo4Si
_chemical_formula_sum   'Ta2 Co8 Si2'
_cell_volume   144.64403521
_cell_formula_units_Z   2
loop_
 _symmetry_equiv_pos_site_id
 _symmetry_equiv_pos_as_xyz
  1  'x, y, z'
loop_
 _atom_site_type_symbol
 _atom_site_label
 _atom_site_symmetry_multiplicity
 _atom_site_fract_x
 _atom_site_fract_y
 _atom_site_fract_z
 _atom_site_occupancy
  Ta  Ta0  1  0.33333300  0.66666700  0.41016800  1
  Ta  Ta1  1  0.66666700  0.33333300  0.58983200  1
  Co  Co0  1  0.00000000  0.00000000  0.50000000  1
  Co  Co1  1  0.00000000  0.00000000  0.00000000  1
  Co  Co2  1  0.82995000  0.17005000  0.24368900  1
  Co  Co3  1  0.82995000  0.65989900  0.24368900  1
  Co  Co4  1  0.34010100  0.17005000  0.24368900  1
  Co  Co5  1  0.17005000  0.82995000  0.75631100  1
  Co  Co6  1  0.17005000  0.34010100  0.75631100  1
  Co  Co7  1  0.65989900  0.82995000  0.75631100  1
  Si  Si0  1  0.66666700  0.33333300  0.95062200  1
  Si  Si1  1  0.33333300  0.66666700  0.04937800  1
loop_
_geom_bond_atom_site_label_1
_geom_bond_atom_site_label_2
_geom_bond_distance
_geom_bond_site_symmetry_2
Co0 Co5 2.359056 1_545
Co0 Co2 2.359056 1_455
Co0 Co6 2.359059 1_555
Co0 Co3 2.359059 1_445
Co0 Co7 2.359059 1_445
Co0 Co4 2.359059 1_555
Co0 Ta1 2.820129 1_455
Co0 Ta0 2.820129 1_545
Co0 Ta0 2.820133 1_445
Co0 Ta1 2.820133 1_445
Co0 Ta0 2.820133 1_555
Co0 Ta1 2.820133 1_555
Co1 Co5 2.284356 1_544
Co1 Co2 2.284356 1_455
Co1 Co3 2.284358 1_445
Co1 Co4 2.284358 1_555
Co1 Co7 2.284358 1_444
Co1 Co6 2.284358 1_554
Co1 Si0 2.764707 1_454
Co1 Si1 2.764707 1_545
Co1 Si0 2.764710 1_444
Co1 Si1 2.764710 1_555
Co1 Si1 2.764710 1_445
Co1 Si0 2.764710 1_554
Co2 Co4 2.325046 1_555
Co2 Co3 2.325046 1_555
Co2 Co3 2.421408 1_545
Co2 Co4 2.421408 1_655
Co2 Si0 2.553926 1_554
Co2 Ta0 2.675120 1_545
Co2 Ta0 2.675120 1_655
Co2 Si1 2.776359 1_545
Co2 Si1 2.776359 1_655
Co2 Ta1 2.896069 1_555
Co3 Co4 2.325046 1_555
Co3 Co4 2.421408 1_665
Co3 Si0 2.553926 1_554
Co3 Ta0 2.675116 1_655
Co3 Ta0 2.675124 1_555
Co3 Si1 2.776355 1_655
Co3 Si1 2.776363 1_555
Co3 Ta1 2.896069 1_555
Co4 Si0 2.553926 1_554
Co4 Ta0 2.675116 1_545
Co4 Ta0 2.675124 1_555
Co4 Si1 2.776355 1_545
Co4 Si1 2.776363 1_555
Co4 Ta1 2.896069 1_555
Co5 Co6 2.325046 1_555
Co5 Co7 2.325046 1_555
Co5 Co6 2.421408 1_565
Co5 Co7 2.421408 1_455
Co5 Si1 2.553926 1_556
Co5 Ta1 2.675120 1_565
Co5 Ta1 2.675120 1_455
Co5 Si0 2.776359 1_455
Co5 Si0 2.776359 1_565
Co5 Ta0 2.896069 1_555
Co6 Co7 2.325046 1_555
Co6 Co7 2.421408 1_445
Co6 Si1 2.553926 1_556
Co6 Ta1 2.675116 1_455
Co6 Ta1 2.675124 1_555
Co6 Si0 2.776355 1_455
Co6 Si0 2.776363 1_555
Co6 Ta0 2.896069 1_555
Co7 Si1 2.553926 1_556
Co7 Ta1 2.675116 1_565
Co7 Ta1 2.675124 1_555
Co7 Si0 2.776355 1_565
Co7 Si0 2.776363 1_555
Co7 Ta0 2.896069 1_555
Si0 Ta1 2.674766 1_555
Si0 Si1 2.836481 1_546
Si0 Si1 2.836481 1_656
Si0 Si1 2.836489 1_556
Si1 Ta0 2.674766 1_555
