# generated using pymatgen
data_Ti4Fe(PO4)6
_symmetry_space_group_name_H-M   'P 1'
_cell_length_a   8.65686514
_cell_length_b   8.65686514
_cell_length_c   8.65686460
_cell_angle_alpha   59.94264114
_cell_angle_beta   59.94264114
_cell_angle_gamma   59.94263551
_symmetry_Int_Tables_number   1
_chemical_formula_structural   Ti4Fe(PO4)6
_chemical_formula_sum   'Ti4 Fe1 P6 O24'
_cell_volume   458.14352706
_cell_formula_units_Z   1
loop_
 _symmetry_equiv_pos_site_id
 _symmetry_equiv_pos_as_xyz
  1  'x, y, z'
loop_
 _atom_site_type_symbol
 _atom_site_label
 _atom_site_symmetry_multiplicity
 _atom_site_fract_x
 _atom_site_fract_y
 _atom_site_fract_z
 _atom_site_occupancy
  Ti  Ti0  1  0.85335300  0.85335300  0.85335300  1
  Ti  Ti1  1  0.14664700  0.14664700  0.14664700  1
  Ti  Ti2  1  0.63519300  0.63519300  0.63519300  1
  Ti  Ti3  1  0.36480700  0.36480700  0.36480700  1
  Fe  Fe0  1  0.00000000  0.00000000  0.00000000  1
  P  P0  1  0.54408100  0.24690100  0.96847300  1
  P  P1  1  0.24690100  0.96847300  0.54408100  1
  P  P2  1  0.96847300  0.54408100  0.24690100  1
  P  P3  1  0.45591900  0.75309900  0.03152700  1
  P  P4  1  0.75309900  0.03152700  0.45591900  1
  P  P5  1  0.03152700  0.45591900  0.75309900  1
  O  O0  1  0.54825500  0.42035900  0.78748100  1
  O  O1  1  0.42035900  0.78748100  0.54825500  1
  O  O2  1  0.78748100  0.54825500  0.42035900  1
  O  O3  1  0.45174500  0.57964100  0.21251900  1
  O  O4  1  0.57964100  0.21251900  0.45174500  1
  O  O5  1  0.21251900  0.45174500  0.57964100  1
  O  O6  1  0.73976300  0.08528100  0.93596200  1
  O  O7  1  0.08528100  0.93596200  0.73976300  1
  O  O8  1  0.93596200  0.73976300  0.08528100  1
  O  O9  1  0.26023700  0.91471900  0.06403800  1
  O  O10  1  0.91471900  0.06403800  0.26023700  1
  O  O11  1  0.06403800  0.26023700  0.91471900  1
  O  O12  1  0.61741500  0.81474100  0.99121800  1
  O  O13  1  0.81474100  0.99121800  0.61741500  1
  O  O14  1  0.99121800  0.61741500  0.81474100  1
  O  O15  1  0.38258500  0.18525900  0.00878200  1
  O  O16  1  0.18525900  0.00878200  0.38258500  1
  O  O17  1  0.00878200  0.38258500  0.18525900  1
  O  O18  1  0.50866000  0.28348100  0.14076500  1
  O  O19  1  0.28348100  0.14076500  0.50866000  1
  O  O20  1  0.14076500  0.50866000  0.28348100  1
  O  O21  1  0.49134000  0.71651900  0.85923500  1
  O  O22  1  0.71651900  0.85923500  0.49134000  1
  O  O23  1  0.85923500  0.49134000  0.71651900  1
loop_
_geom_bond_atom_site_label_1
_geom_bond_atom_site_label_2
_geom_bond_distance
_geom_bond_site_symmetry_2
Fe0 O10 2.258903 1_455
Fe0 O7 2.258903 1_544
Fe0 O9 2.258903 1_545
Fe0 O6 2.258903 1_454
Fe0 O11 2.258903 1_554
Fe0 O8 2.258903 1_445
O0 P0 1.533579 1_555
O0 Ti2 1.927532 1_555
O1 P1 1.533579 1_555
O1 Ti2 1.927532 1_555
O2 P2 1.533579 1_555
O2 Ti2 1.927532 1_555
O3 P3 1.533579 1_555
O3 Ti3 1.927532 1_555
O4 P4 1.533579 1_555
O4 Ti3 1.927532 1_555
O5 P5 1.533579 1_555
O5 Ti3 1.927532 1_555
O6 P0 1.564935 1_555
O6 Ti0 2.065345 1_545
O7 P1 1.564935 1_555
O7 Ti0 2.065345 1_455
O8 P2 1.564935 1_555
O8 Ti0 2.065345 1_554
O9 P3 1.564935 1_555
O9 Ti1 2.065345 1_565
O10 P4 1.564935 1_555
O10 Ti1 2.065345 1_655
O11 P5 1.564935 1_555
O11 Ti1 2.065345 1_556
O12 P3 1.559861 1_556
O12 Ti0 1.884211 1_555
O13 P4 1.559861 1_565
O13 Ti0 1.884211 1_555
O14 P5 1.559861 1_655
O14 Ti0 1.884211 1_555
O15 P0 1.559861 1_554
O15 Ti1 1.884211 1_555
O16 P1 1.559861 1_545
O16 Ti1 1.884211 1_555
O17 P2 1.559861 1_455
O17 Ti1 1.884211 1_555
O18 P0 1.528601 1_554
O18 Ti3 1.969321 1_555
O19 P1 1.528602 1_545
O19 Ti3 1.969322 1_555
O20 P2 1.528601 1_455
O20 Ti3 1.969321 1_555
O21 P3 1.528601 1_556
O21 Ti2 1.969321 1_555
O22 P4 1.528602 1_565
O22 Ti2 1.969322 1_555
O23 P5 1.528601 1_655
O23 Ti2 1.969321 1_555
