# generated using pymatgen
data_Li2VPb2
_symmetry_space_group_name_H-M   'P 1'
_cell_length_a   7.21663800
_cell_length_b   15.05069800
_cell_length_c   15.05069800
_cell_angle_alpha   90.00000000
_cell_angle_beta   90.00000000
_cell_angle_gamma   90.00000000
_symmetry_Int_Tables_number   1
_chemical_formula_structural   Li2VPb2
_chemical_formula_sum   'Li32 V16 Pb32'
_cell_volume   1634.73817223
_cell_formula_units_Z   16
loop_
 _symmetry_equiv_pos_site_id
 _symmetry_equiv_pos_as_xyz
  1  'x, y, z'
loop_
 _atom_site_type_symbol
 _atom_site_label
 _atom_site_symmetry_multiplicity
 _atom_site_fract_x
 _atom_site_fract_y
 _atom_site_fract_z
 _atom_site_occupancy
  Li  Li0_0  1  0.00000000  0.31389950  0.06389950  1
  Li  Li0_1  1  0.00000000  0.31389950  0.56389950  1
  Li  Li0_2  1  0.00000000  0.81389950  0.06389950  1
  Li  Li0_3  1  0.00000000  0.81389950  0.56389950  1
  Li  Li0_4  1  0.50000000  0.31389950  0.06389950  1
  Li  Li0_5  1  0.50000000  0.31389950  0.56389950  1
  Li  Li0_6  1  0.50000000  0.81389950  0.06389950  1
  Li  Li0_7  1  0.50000000  0.81389950  0.56389950  1
  Li  Li1_0  1  0.00000000  0.18610050  0.43610050  1
  Li  Li1_1  1  0.00000000  0.18610050  0.93610050  1
  Li  Li1_2  1  0.00000000  0.68610050  0.43610050  1
  Li  Li1_3  1  0.00000000  0.68610050  0.93610050  1
  Li  Li1_4  1  0.50000000  0.18610050  0.43610050  1
  Li  Li1_5  1  0.50000000  0.18610050  0.93610050  1
  Li  Li1_6  1  0.50000000  0.68610050  0.43610050  1
  Li  Li1_7  1  0.50000000  0.68610050  0.93610050  1
  Li  Li2_0  1  0.00000000  0.43610050  0.31389950  1
  Li  Li2_1  1  0.00000000  0.43610050  0.81389950  1
  Li  Li2_2  1  0.00000000  0.93610050  0.31389950  1
  Li  Li2_3  1  0.00000000  0.93610050  0.81389950  1
  Li  Li2_4  1  0.50000000  0.43610050  0.31389950  1
  Li  Li2_5  1  0.50000000  0.43610050  0.81389950  1
  Li  Li2_6  1  0.50000000  0.93610050  0.31389950  1
  Li  Li2_7  1  0.50000000  0.93610050  0.81389950  1
  Li  Li3_0  1  0.00000000  0.06389950  0.18610050  1
  Li  Li3_1  1  0.00000000  0.06389950  0.68610050  1
  Li  Li3_2  1  0.00000000  0.56389950  0.18610050  1
  Li  Li3_3  1  0.00000000  0.56389950  0.68610050  1
  Li  Li3_4  1  0.50000000  0.06389950  0.18610050  1
  Li  Li3_5  1  0.50000000  0.06389950  0.68610050  1
  Li  Li3_6  1  0.50000000  0.56389950  0.18610050  1
  Li  Li3_7  1  0.50000000  0.56389950  0.68610050  1
  V  V0_0  1  0.00000000  0.00000000  0.00000000  1
  V  V0_1  1  0.00000000  0.00000000  0.50000000  1
  V  V0_2  1  0.00000000  0.50000000  0.00000000  1
  V  V0_3  1  0.00000000  0.50000000  0.50000000  1
  V  V0_4  1  0.50000000  0.00000000  0.00000000  1
  V  V0_5  1  0.50000000  0.00000000  0.50000000  1
  V  V0_6  1  0.50000000  0.50000000  0.00000000  1
  V  V0_7  1  0.50000000  0.50000000  0.50000000  1
  V  V1_0  1  0.00000000  0.25000000  0.25000000  1
  V  V1_1  1  0.00000000  0.25000000  0.75000000  1
  V  V1_2  1  0.00000000  0.75000000  0.25000000  1
  V  V1_3  1  0.00000000  0.75000000  0.75000000  1
  V  V1_4  1  0.50000000  0.25000000  0.25000000  1
  V  V1_5  1  0.50000000  0.25000000  0.75000000  1
  V  V1_6  1  0.50000000  0.75000000  0.25000000  1
  V  V1_7  1  0.50000000  0.75000000  0.75000000  1
  Pb  Pb0_0  1  0.25000000  0.08560300  0.33560300  1
  Pb  Pb0_1  1  0.25000000  0.08560300  0.83560300  1
  Pb  Pb0_2  1  0.25000000  0.58560300  0.33560300  1
  Pb  Pb0_3  1  0.25000000  0.58560300  0.83560300  1
  Pb  Pb0_4  1  0.75000000  0.08560300  0.33560300  1
  Pb  Pb0_5  1  0.75000000  0.08560300  0.83560300  1
  Pb  Pb0_6  1  0.75000000  0.58560300  0.33560300  1
  Pb  Pb0_7  1  0.75000000  0.58560300  0.83560300  1
  Pb  Pb1_0  1  0.25000000  0.41439700  0.16439700  1
  Pb  Pb1_1  1  0.25000000  0.41439700  0.66439700  1
  Pb  Pb1_2  1  0.25000000  0.91439700  0.16439700  1
  Pb  Pb1_3  1  0.25000000  0.91439700  0.66439700  1
  Pb  Pb1_4  1  0.75000000  0.41439700  0.16439700  1
  Pb  Pb1_5  1  0.75000000  0.41439700  0.66439700  1
  Pb  Pb1_6  1  0.75000000  0.91439700  0.16439700  1
  Pb  Pb1_7  1  0.75000000  0.91439700  0.66439700  1
  Pb  Pb2_0  1  0.25000000  0.16439700  0.08560300  1
  Pb  Pb2_1  1  0.25000000  0.16439700  0.58560300  1
  Pb  Pb2_2  1  0.25000000  0.66439700  0.08560300  1
  Pb  Pb2_3  1  0.25000000  0.66439700  0.58560300  1
  Pb  Pb2_4  1  0.75000000  0.16439700  0.08560300  1
  Pb  Pb2_5  1  0.75000000  0.16439700  0.58560300  1
  Pb  Pb2_6  1  0.75000000  0.66439700  0.08560300  1
  Pb  Pb2_7  1  0.75000000  0.66439700  0.58560300  1
  Pb  Pb3_0  1  0.25000000  0.33560300  0.41439700  1
  Pb  Pb3_1  1  0.25000000  0.33560300  0.91439700  1
  Pb  Pb3_2  1  0.25000000  0.83560300  0.41439700  1
  Pb  Pb3_3  1  0.25000000  0.83560300  0.91439700  1
  Pb  Pb3_4  1  0.75000000  0.33560300  0.41439700  1
  Pb  Pb3_5  1  0.75000000  0.33560300  0.91439700  1
  Pb  Pb3_6  1  0.75000000  0.83560300  0.41439700  1
  Pb  Pb3_7  1  0.75000000  0.83560300  0.91439700  1
loop_
_geom_bond_atom_site_label_1
_geom_bond_atom_site_label_2
_geom_bond_distance
_geom_bond_site_symmetry_2
Li0_0 Li1_1 2.720189 1_554
Li0_0 Pb1_4 2.798330 1_455
Li0_0 Pb1_0 2.798330 1_555
Li0_0 Pb2_0 2.902537 1_555
Li0_0 Pb2_4 2.902537 1_455
Li0_0 Pb3_5 2.902537 1_454
Li0_0 Pb3_1 2.902537 1_554
Li0_0 V0_2 2.961454 1_555
Li0_0 V1_0 2.961454 1_555
Li0_1 Li1_0 2.720189 1_555
Li0_1 Pb1_1 2.798330 1_555
Li0_1 Pb1_5 2.798330 1_455
Li0_1 Pb2_5 2.902537 1_455
Li0_1 Pb2_1 2.902537 1_555
Li0_1 Pb3_0 2.902537 1_555
Li0_1 Pb3_4 2.902537 1_455
Li0_1 V0_3 2.961454 1_555
Li0_1 V1_1 2.961454 1_555
Li0_2 Li1_3 2.720189 1_554
Li0_2 Pb1_6 2.798330 1_455
Li0_2 Pb1_2 2.798330 1_555
Li0_2 Pb2_6 2.902537 1_455
Li0_2 Pb2_2 2.902537 1_555
Li0_2 Pb3_3 2.902537 1_554
Li0_2 Pb3_7 2.902537 1_454
Li0_2 V0_0 2.961454 1_565
Li0_2 V1_2 2.961454 1_555
Li0_3 Li1_2 2.720189 1_555
Li0_3 Pb1_7 2.798330 1_455
Li0_3 Pb1_3 2.798330 1_555
Li0_3 Pb2_7 2.902537 1_455
Li0_3 Pb2_3 2.902537 1_555
Li0_3 Pb3_6 2.902537 1_455
Li0_3 Pb3_2 2.902537 1_555
Li0_3 V0_1 2.961454 1_565
Li0_3 V1_3 2.961454 1_555
Li0_4 Li1_5 2.720189 1_554
Li0_4 Pb1_4 2.798330 1_555
Li0_4 Pb1_0 2.798330 1_555
Li0_4 Pb2_0 2.902537 1_555
Li0_4 Pb2_4 2.902537 1_555
Li0_4 Pb3_1 2.902537 1_554
Li0_4 Pb3_5 2.902537 1_554
Li0_4 V0_6 2.961454 1_555
Li0_4 V1_4 2.961454 1_555
Li0_5 Li1_4 2.720189 1_555
Li0_5 Pb1_5 2.798330 1_555
Li0_5 Pb1_1 2.798330 1_555
Li0_5 Pb2_5 2.902537 1_555
Li0_5 Pb2_1 2.902537 1_555
Li0_5 Pb3_0 2.902537 1_555
Li0_5 Pb3_4 2.902537 1_555
Li0_5 V0_7 2.961454 1_555
Li0_5 V1_5 2.961454 1_555
Li0_6 Li1_7 2.720189 1_554
Li0_6 Pb1_6 2.798330 1_555
Li0_6 Pb1_2 2.798330 1_555
Li0_6 Pb2_2 2.902537 1_555
Li0_6 Pb2_6 2.902537 1_555
Li0_6 Pb3_3 2.902537 1_554
Li0_6 Pb3_7 2.902537 1_554
Li0_6 V0_4 2.961454 1_565
Li0_6 V1_6 2.961454 1_555
Li0_7 Li1_6 2.720189 1_555
Li0_7 Pb1_3 2.798330 1_555
Li0_7 Pb1_7 2.798330 1_555
Li0_7 Pb2_7 2.902537 1_555
Li0_7 Pb2_3 2.902537 1_555
Li0_7 Pb3_6 2.902537 1_555
Li0_7 Pb3_2 2.902537 1_555
Li0_7 V0_5 2.961454 1_565
Li0_7 V1_7 2.961454 1_555
Li1_0 Pb0_0 2.798330 1_555
Li1_0 Pb0_4 2.798330 1_455
Li1_0 Pb2_1 2.902537 1_555
Li1_0 Pb2_5 2.902537 1_455
Li1_0 Pb3_0 2.902537 1_555
Li1_0 Pb3_4 2.902537 1_455
Li1_0 V0_1 2.961454 1_555
Li1_0 V1_0 2.961454 1_555
Li1_1 Pb0_1 2.798330 1_555
Li1_1 Pb0_5 2.798330 1_455
Li1_1 Pb2_4 2.902537 1_456
Li1_1 Pb2_0 2.902537 1_556
Li1_1 Pb3_1 2.902537 1_555
Li1_1 Pb3_5 2.902537 1_455
Li1_1 V0_0 2.961454 1_556
Li1_1 V1_1 2.961454 1_555
Li1_2 Pb0_6 2.798330 1_455
Li1_2 Pb0_2 2.798330 1_555
Li1_2 Pb2_7 2.902537 1_455
Li1_2 Pb3_2 2.902537 1_555
Li1_2 Pb3_6 2.902537 1_455
Li1_2 Pb2_3 2.902537 1_555
Li1_2 V1_2 2.961454 1_555
Li1_2 V0_3 2.961454 1_555
Li1_3 Pb0_7 2.798330 1_455
Li1_3 Pb0_3 2.798330 1_555
Li1_3 Pb3_7 2.902537 1_455
Li1_3 Pb3_3 2.902537 1_555
Li1_3 Pb2_6 2.902537 1_456
Li1_3 Pb2_2 2.902537 1_556
Li1_3 V1_3 2.961454 1_555
Li1_3 V0_2 2.961454 1_556
Li1_4 Pb0_0 2.798330 1_555
Li1_4 Pb0_4 2.798330 1_555
Li1_4 Pb2_1 2.902537 1_555
Li1_4 Pb2_5 2.902537 1_555
Li1_4 Pb3_0 2.902537 1_555
Li1_4 Pb3_4 2.902537 1_555
Li1_4 V0_5 2.961454 1_555
Li1_4 V1_4 2.961454 1_555
Li1_5 Pb0_1 2.798330 1_555
Li1_5 Pb0_5 2.798330 1_555
Li1_5 Pb2_0 2.902537 1_556
Li1_5 Pb2_4 2.902537 1_556
Li1_5 Pb3_1 2.902537 1_555
Li1_5 Pb3_5 2.902537 1_555
Li1_5 V1_5 2.961454 1_555
Li1_5 V0_4 2.961454 1_556
Li1_6 Pb0_2 2.798330 1_555
Li1_6 Pb0_6 2.798330 1_555
Li1_6 Pb3_2 2.902537 1_555
Li1_6 Pb2_7 2.902537 1_555
Li1_6 Pb3_6 2.902537 1_555
Li1_6 Pb2_3 2.902537 1_555
Li1_6 V1_6 2.961454 1_555
Li1_6 V0_7 2.961454 1_555
Li1_7 Pb0_7 2.798330 1_555
Li1_7 Pb0_3 2.798330 1_555
Li1_7 Pb3_7 2.902537 1_555
Li1_7 Pb3_3 2.902537 1_555
Li1_7 Pb2_6 2.902537 1_556
Li1_7 Pb2_2 2.902537 1_556
Li1_7 V1_7 2.961454 1_555
Li1_7 V0_6 2.961454 1_556
Li2_0 Li3_2 2.720189 1_555
Li2_0 Pb3_4 2.798330 1_455
Li2_0 Pb3_0 2.798330 1_555
Li2_0 Pb0_2 2.902537 1_555
Li2_0 Pb0_6 2.902537 1_455
Li2_0 Pb1_4 2.902537 1_455
Li2_0 Pb1_0 2.902537 1_555
Li2_0 V0_3 2.961454 1_555
Li2_0 V1_0 2.961454 1_555
Li2_1 Li3_3 2.720189 1_555
Li2_1 Pb3_5 2.798330 1_455
Li2_1 Pb3_1 2.798330 1_555
Li2_1 Pb0_7 2.902537 1_455
Li2_1 Pb0_3 2.902537 1_555
Li2_1 Pb1_1 2.902537 1_555
Li2_1 Pb1_5 2.902537 1_455
Li2_1 V0_2 2.961454 1_556
Li2_1 V1_1 2.961454 1_555
Li2_2 Li3_0 2.720189 1_565
Li2_2 Pb3_2 2.798330 1_555
Li2_2 Pb3_6 2.798330 1_455
Li2_2 Pb0_0 2.902537 1_565
Li2_2 Pb0_4 2.902537 1_465
Li2_2 Pb1_2 2.902537 1_555
Li2_2 Pb1_6 2.902537 1_455
Li2_2 V0_1 2.961454 1_565
Li2_2 V1_2 2.961454 1_555
Li2_3 Li3_1 2.720189 1_565
Li2_3 Pb3_3 2.798330 1_555
Li2_3 Pb3_7 2.798330 1_455
Li2_3 Pb0_1 2.902537 1_565
Li2_3 Pb0_5 2.902537 1_465
Li2_3 Pb1_7 2.902537 1_455
Li2_3 Pb1_3 2.902537 1_555
Li2_3 V0_0 2.961454 1_566
Li2_3 V1_3 2.961454 1_555
Li2_4 Li3_6 2.720189 1_555
Li2_4 Pb3_0 2.798330 1_555
Li2_4 Pb3_4 2.798330 1_555
Li2_4 Pb0_2 2.902537 1_555
Li2_4 Pb0_6 2.902537 1_555
Li2_4 Pb1_4 2.902537 1_555
Li2_4 Pb1_0 2.902537 1_555
Li2_4 V0_7 2.961454 1_555
Li2_4 V1_4 2.961454 1_555
Li2_5 Li3_7 2.720189 1_555
Li2_5 Pb3_1 2.798330 1_555
Li2_5 Pb3_5 2.798330 1_555
Li2_5 Pb0_7 2.902537 1_555
Li2_5 Pb0_3 2.902537 1_555
Li2_5 Pb1_1 2.902537 1_555
Li2_5 Pb1_5 2.902537 1_555
Li2_5 V0_6 2.961454 1_556
Li2_5 V1_5 2.961454 1_555
Li2_6 Li3_4 2.720189 1_565
Li2_6 Pb3_6 2.798330 1_555
Li2_6 Pb3_2 2.798330 1_555
Li2_6 Pb0_0 2.902537 1_565
Li2_6 Pb0_4 2.902537 1_565
Li2_6 Pb1_6 2.902537 1_555
Li2_6 Pb1_2 2.902537 1_555
Li2_6 V0_5 2.961454 1_565
Li2_6 V1_6 2.961454 1_555
Li2_7 Li3_5 2.720189 1_565
Li2_7 Pb3_3 2.798330 1_555
Li2_7 Pb3_7 2.798330 1_555
Li2_7 Pb0_1 2.902537 1_565
Li2_7 Pb0_5 2.902537 1_565
Li2_7 Pb1_3 2.902537 1_555
Li2_7 Pb1_7 2.902537 1_555
Li2_7 V0_4 2.961454 1_566
Li2_7 V1_7 2.961454 1_555
Li3_0 Pb2_4 2.798330 1_455
Li3_0 Pb2_0 2.798330 1_555
Li3_0 Pb0_4 2.902537 1_455
Li3_0 Pb0_0 2.902537 1_555
Li3_0 Pb1_2 2.902537 1_545
Li3_0 Pb1_6 2.902537 1_445
Li3_0 V1_0 2.961454 1_555
Li3_0 V0_0 2.961454 1_555
Li3_1 Pb2_1 2.798330 1_555
Li3_1 Pb2_5 2.798330 1_455
Li3_1 Pb0_5 2.902537 1_455
Li3_1 Pb0_1 2.902537 1_555
Li3_1 Pb1_3 2.902537 1_545
Li3_1 Pb1_7 2.902537 1_445
Li3_1 V1_1 2.961454 1_555
Li3_1 V0_1 2.961454 1_555
Li3_2 Pb2_6 2.798330 1_455
Li3_2 Pb2_2 2.798330 1_555
Li3_2 Pb0_2 2.902537 1_555
Li3_2 Pb0_6 2.902537 1_455
Li3_2 Pb1_4 2.902537 1_455
Li3_2 Pb1_0 2.902537 1_555
Li3_2 V0_2 2.961454 1_555
Li3_2 V1_2 2.961454 1_555
Li3_3 Pb2_3 2.798330 1_555
Li3_3 Pb2_7 2.798330 1_455
Li3_3 Pb0_3 2.902537 1_555
Li3_3 Pb0_7 2.902537 1_455
Li3_3 Pb1_1 2.902537 1_555
Li3_3 Pb1_5 2.902537 1_455
Li3_3 V1_3 2.961454 1_555
Li3_3 V0_3 2.961454 1_555
Li3_4 Pb2_4 2.798330 1_555
Li3_4 Pb2_0 2.798330 1_555
Li3_4 Pb0_4 2.902537 1_555
Li3_4 Pb0_0 2.902537 1_555
Li3_4 Pb1_2 2.902537 1_545
Li3_4 Pb1_6 2.902537 1_545
Li3_4 V1_4 2.961454 1_555
Li3_4 V0_4 2.961454 1_555
Li3_5 Pb2_1 2.798330 1_555
Li3_5 Pb2_5 2.798330 1_555
Li3_5 Pb0_1 2.902537 1_555
Li3_5 Pb0_5 2.902537 1_555
Li3_5 Pb1_3 2.902537 1_545
Li3_5 Pb1_7 2.902537 1_545
Li3_5 V1_5 2.961454 1_555
Li3_5 V0_5 2.961454 1_555
Li3_6 Pb2_6 2.798330 1_555
Li3_6 Pb2_2 2.798330 1_555
Li3_6 Pb0_2 2.902537 1_555
Li3_6 Pb0_6 2.902537 1_555
Li3_6 Pb1_0 2.902537 1_555
Li3_6 Pb1_4 2.902537 1_555
Li3_6 V0_6 2.961454 1_555
Li3_6 V1_6 2.961454 1_555
Li3_7 Pb2_3 2.798330 1_555
Li3_7 Pb2_7 2.798330 1_555
Li3_7 Pb0_7 2.902537 1_555
Li3_7 Pb0_3 2.902537 1_555
Li3_7 Pb1_1 2.902537 1_555
Li3_7 Pb1_5 2.902537 1_555
Li3_7 V1_7 2.961454 1_555
Li3_7 V0_7 2.961454 1_555
V0_0 V0_4 3.608319 1_555
V0_0 V0_4 3.608319 1_455
V0_1 V0_5 3.608319 1_455
V0_1 V0_5 3.608319 1_555
V0_2 V0_6 3.608319 1_555
V0_2 V0_6 3.608319 1_455
V0_3 V0_7 3.608319 1_555
V0_3 V0_7 3.608319 1_455
V1_0 V1_4 3.608319 1_555
V1_0 V1_4 3.608319 1_455
V1_1 V1_5 3.608319 1_455
V1_1 V1_5 3.608319 1_555
V1_2 V1_6 3.608319 1_455
V1_2 V1_6 3.608319 1_555
V1_3 V1_7 3.608319 1_555
V1_3 V1_7 3.608319 1_455
Pb0_0 V0_1 3.322204 1_555
Pb0_0 V0_5 3.322204 1_555
Pb0_0 V1_4 3.322204 1_555
Pb0_0 V1_0 3.322204 1_555
Pb0_1 V1_1 3.322204 1_555
Pb0_1 V1_5 3.322204 1_555
Pb0_1 V0_0 3.322204 1_556
Pb0_1 V0_4 3.322204 1_556
Pb0_2 V0_3 3.322204 1_555
Pb0_2 V0_7 3.322204 1_555
Pb0_2 V1_6 3.322204 1_555
Pb0_2 V1_2 3.322204 1_555
Pb0_3 V0_6 3.322204 1_556
Pb0_3 V0_2 3.322204 1_556
Pb0_3 V1_3 3.322204 1_555
Pb0_3 V1_7 3.322204 1_555
Pb0_4 V0_1 3.322204 1_655
Pb0_4 V0_5 3.322204 1_555
Pb0_4 V1_0 3.322204 1_655
Pb0_4 V1_4 3.322204 1_555
Pb0_5 V1_5 3.322204 1_555
Pb0_5 V1_1 3.322204 1_655
Pb0_5 V0_0 3.322204 1_656
Pb0_5 V0_4 3.322204 1_556
Pb0_6 V0_7 3.322204 1_555
Pb0_6 V0_3 3.322204 1_655
Pb0_6 V1_2 3.322204 1_655
Pb0_6 V1_6 3.322204 1_555
Pb0_7 V0_6 3.322204 1_556
Pb0_7 V0_2 3.322204 1_656
Pb0_7 V1_7 3.322204 1_555
Pb0_7 V1_3 3.322204 1_655
Pb1_0 V1_0 3.322204 1_555
Pb1_0 V1_4 3.322204 1_555
Pb1_0 V0_6 3.322204 1_555
Pb1_0 V0_2 3.322204 1_555
Pb1_1 V1_1 3.322204 1_555
Pb1_1 V1_5 3.322204 1_555
Pb1_1 V0_3 3.322204 1_555
Pb1_1 V0_7 3.322204 1_555
Pb1_2 V1_6 3.322204 1_555
Pb1_2 V1_2 3.322204 1_555
Pb1_2 V0_4 3.322204 1_565
Pb1_2 V0_0 3.322204 1_565
Pb1_3 V1_3 3.322204 1_555
Pb1_3 V1_7 3.322204 1_555
Pb1_3 V0_5 3.322204 1_565
Pb1_3 V0_1 3.322204 1_565
Pb1_4 V1_0 3.322204 1_655
Pb1_4 V1_4 3.322204 1_555
Pb1_4 V0_2 3.322204 1_655
Pb1_4 V0_6 3.322204 1_555
Pb1_5 V1_1 3.322204 1_655
Pb1_5 V1_5 3.322204 1_555
Pb1_5 V0_7 3.322204 1_555
Pb1_5 V0_3 3.322204 1_655
Pb1_6 V1_6 3.322204 1_555
Pb1_6 V1_2 3.322204 1_655
Pb1_6 V0_4 3.322204 1_565
Pb1_6 V0_0 3.322204 1_665
Pb1_7 V1_7 3.322204 1_555
Pb1_7 V1_3 3.322204 1_655
Pb1_7 V0_1 3.322204 1_665
Pb1_7 V0_5 3.322204 1_565
Pb2_0 V1_0 3.322204 1_555
Pb2_0 V0_4 3.322204 1_555
Pb2_0 V1_4 3.322204 1_555
Pb2_0 V0_0 3.322204 1_555
Pb2_1 V0_1 3.322204 1_555
Pb2_1 V0_5 3.322204 1_555
Pb2_1 V1_5 3.322204 1_555
Pb2_1 V1_1 3.322204 1_555
Pb2_2 V0_6 3.322204 1_555
Pb2_2 V0_2 3.322204 1_555
Pb2_2 V1_6 3.322204 1_555
Pb2_2 V1_2 3.322204 1_555
Pb2_3 V0_3 3.322204 1_555
Pb2_3 V0_7 3.322204 1_555
Pb2_3 V1_3 3.322204 1_555
Pb2_3 V1_7 3.322204 1_555
Pb2_4 V0_0 3.322204 1_655
Pb2_4 V0_4 3.322204 1_555
Pb2_4 V1_0 3.322204 1_655
Pb2_4 V1_4 3.322204 1_555
Pb2_5 V0_1 3.322204 1_655
Pb2_5 V0_5 3.322204 1_555
Pb2_5 V1_5 3.322204 1_555
Pb2_5 V1_1 3.322204 1_655
Pb2_6 V0_6 3.322204 1_555
Pb2_6 V0_2 3.322204 1_655
Pb2_6 V1_2 3.322204 1_655
Pb2_6 V1_6 3.322204 1_555
Pb2_7 V0_3 3.322204 1_655
Pb2_7 V0_7 3.322204 1_555
Pb2_7 V1_7 3.322204 1_555
Pb2_7 V1_3 3.322204 1_655
Pb3_0 V1_0 3.322204 1_555
Pb3_0 V1_4 3.322204 1_555
Pb3_0 V0_7 3.322204 1_555
Pb3_0 V0_3 3.322204 1_555
Pb3_1 V1_1 3.322204 1_555
Pb3_1 V1_5 3.322204 1_555
Pb3_1 V0_2 3.322204 1_556
Pb3_1 V0_6 3.322204 1_556
Pb3_2 V1_6 3.322204 1_555
Pb3_2 V1_2 3.322204 1_555
Pb3_2 V0_5 3.322204 1_565
Pb3_2 V0_1 3.322204 1_565
Pb3_3 V1_3 3.322204 1_555
Pb3_3 V1_7 3.322204 1_555
Pb3_3 V0_0 3.322204 1_566
Pb3_3 V0_4 3.322204 1_566
Pb3_4 V1_0 3.322204 1_655
Pb3_4 V1_4 3.322204 1_555
Pb3_4 V0_3 3.322204 1_655
Pb3_4 V0_7 3.322204 1_555
Pb3_5 V1_1 3.322204 1_655
Pb3_5 V1_5 3.322204 1_555
Pb3_5 V0_2 3.322204 1_656
Pb3_5 V0_6 3.322204 1_556
Pb3_6 V1_2 3.322204 1_655
Pb3_6 V1_6 3.322204 1_555
Pb3_6 V0_1 3.322204 1_665
Pb3_6 V0_5 3.322204 1_565
Pb3_7 V1_7 3.322204 1_555
Pb3_7 V1_3 3.322204 1_655
Pb3_7 V0_0 3.322204 1_666
Pb3_7 V0_4 3.322204 1_566
