# generated using pymatgen
data_Ba2SrYb6O12
_symmetry_space_group_name_H-M   'P 1'
_cell_length_a   3.55474000
_cell_length_b   10.22275423
_cell_length_c   10.24359078
_cell_angle_alpha   59.75423879
_cell_angle_beta   90.00000000
_cell_angle_gamma   90.00000000
_symmetry_Int_Tables_number   1
_chemical_formula_structural   Ba2SrYb6O12
_chemical_formula_sum   'Ba2 Sr1 Yb6 O12'
_cell_volume   321.57166002
_cell_formula_units_Z   1
loop_
 _symmetry_equiv_pos_site_id
 _symmetry_equiv_pos_as_xyz
  1  'x, y, z'
loop_
 _atom_site_type_symbol
 _atom_site_label
 _atom_site_symmetry_multiplicity
 _atom_site_fract_x
 _atom_site_fract_y
 _atom_site_fract_z
 _atom_site_occupancy
  Ba  Ba0  1  0.75000000  0.99995000  0.00029900  1
  Ba  Ba1  1  0.75000000  0.66679800  0.66657300  1
  Sr  Sr0  1  0.25000000  0.33356500  0.33334900  1
  Yb  Yb0  1  0.75000000  0.33312700  0.64182100  1
  Yb  Yb1  1  0.75000000  0.02503300  0.33379800  1
  Yb  Yb2  1  0.75000000  0.64161900  0.02489200  1
  Yb  Yb3  1  0.25000000  0.66042700  0.34117100  1
  Yb  Yb4  1  0.25000000  0.99947400  0.65949200  1
  Yb  Yb5  1  0.25000000  0.34121500  0.99870200  1
  O  O0  1  0.75000000  0.14522800  0.49018200  1
  O  O1  1  0.75000000  0.36459000  0.14440100  1
  O  O2  1  0.75000000  0.49060600  0.36562600  1
  O  O3  1  0.25000000  0.89903000  0.50264700  1
  O  O4  1  0.25000000  0.59802600  0.89921700  1
  O  O5  1  0.25000000  0.50283500  0.59800400  1
  O  O6  1  0.75000000  0.86141800  0.80306400  1
  O  O7  1  0.75000000  0.33414600  0.86207800  1
  O  O8  1  0.75000000  0.80356900  0.33370300  1
  O  O9  1  0.25000000  0.09101100  0.15819400  1
  O  O10  1  0.25000000  0.75011200  0.09207700  1
  O  O11  1  0.25000000  0.15822000  0.75071000  1
loop_
_geom_bond_atom_site_label_1
_geom_bond_atom_site_label_2
_geom_bond_distance
_geom_bond_site_symmetry_2
Ba0 O11 2.854150 1_564
Ba0 O11 2.854150 1_664
Ba0 O10 2.854300 1_655
Ba0 O10 2.854300 1_555
Ba0 O9 2.856298 1_565
Ba0 O9 2.856298 1_665
Ba0 O8 2.964296 1_555
Ba0 O7 2.967056 1_564
Ba0 O6 2.995000 1_554
Ba1 O3 2.756588 1_555
Ba1 O3 2.756588 1_655
Ba1 O4 2.764900 1_655
Ba1 O4 2.764900 1_555
Ba1 O5 2.765492 1_655
Ba1 O5 2.765492 1_555
Ba1 O7 2.951957 1_555
Ba1 O6 2.952205 1_555
Ba1 O8 2.962882 1_555
O0 Yb4 2.404943 1_545
O0 Yb4 2.404943 1_645
O0 Yb1 2.461482 1_555
O0 Sr0 2.516111 1_555
O0 Sr0 2.516111 1_655
O0 Yb0 3.017999 1_555
O1 Yb5 2.408927 1_654
O1 Yb5 2.408927 1_554
O1 Yb2 2.454837 1_555
O1 Sr0 2.527330 1_555
O1 Sr0 2.527330 1_655
O1 Yb1 3.004798 1_555
O2 Yb3 2.407802 1_555
O2 Yb3 2.407802 1_655
O2 Yb0 2.451067 1_555
O2 Sr0 2.525941 1_555
O2 Sr0 2.525941 1_655
O2 Yb2 3.022819 1_555
O3 Yb4 2.301667 1_555
O3 Yb1 2.359105 1_465
O3 Yb1 2.359105 1_565
O4 Yb5 2.288132 1_555
O4 Yb2 2.364932 1_556
O4 Yb2 2.364932 1_456
O5 Yb3 2.290658 1_555
O5 Yb0 2.363441 1_555
O5 Yb0 2.363441 1_455
O6 Yb2 2.251342 1_556
O6 Yb4 2.285339 1_555
O6 Yb4 2.285339 1_655
O7 Yb0 2.261488 1_555
O7 Yb5 2.285784 1_555
O7 Yb5 2.285784 1_655
O8 Yb1 2.264462 1_565
O8 Yb3 2.278900 1_555
O8 Yb3 2.278900 1_655
O9 Yb5 2.236424 1_554
O9 Yb1 2.372222 1_555
O9 Yb1 2.372222 1_455
O10 Yb3 2.234854 1_555
O10 Yb2 2.373129 1_455
O10 Yb2 2.373129 1_555
O11 Yb4 2.243717 1_545
O11 Yb0 2.364541 1_555
O11 Yb0 2.364541 1_455
