# generated using pymatgen
data_Na5Fe3Ag2(As2O7)4
_symmetry_space_group_name_H-M   'P 1'
_cell_length_a   6.69675818
_cell_length_b   6.69675818
_cell_length_c   29.26266475
_cell_angle_alpha   86.90893321
_cell_angle_beta   86.90893321
_cell_angle_gamma   81.25618322
_symmetry_Int_Tables_number   1
_chemical_formula_structural   Na5Fe3Ag2(As2O7)4
_chemical_formula_sum   'Na10 Fe6 Ag4 As16 O56'
_cell_volume   1293.80016009
_cell_formula_units_Z   2
loop_
 _symmetry_equiv_pos_site_id
 _symmetry_equiv_pos_as_xyz
  1  'x, y, z'
loop_
 _atom_site_type_symbol
 _atom_site_label
 _atom_site_symmetry_multiplicity
 _atom_site_fract_x
 _atom_site_fract_y
 _atom_site_fract_z
 _atom_site_occupancy
  Na  Na0  1  0.09776000  0.33802300  0.94770900  1
  Na  Na1  1  0.66197700  0.90224000  0.55229100  1
  Na  Na2  1  0.90224000  0.66197700  0.05229100  1
  Na  Na3  1  0.33802300  0.09776000  0.44770900  1
  Na  Na4  1  0.52887200  0.47112800  0.75000000  1
  Na  Na5  1  0.47112800  0.52887200  0.25000000  1
  Na  Na6  1  0.32508000  0.10190700  0.84827600  1
  Na  Na7  1  0.89809300  0.67492000  0.65172400  1
  Na  Na8  1  0.67492000  0.89809300  0.15172400  1
  Na  Na9  1  0.10190700  0.32508000  0.34827600  1
  Fe  Fe0  1  0.66157800  0.70519100  0.93653500  1
  Fe  Fe1  1  0.29480900  0.33842200  0.56346500  1
  Fe  Fe2  1  0.33842200  0.29480900  0.06346500  1
  Fe  Fe3  1  0.70519100  0.66157800  0.43653500  1
  Fe  Fe4  1  0.13247700  0.86752300  0.75000000  1
  Fe  Fe5  1  0.86752300  0.13247700  0.25000000  1
  Ag  Ag0  1  0.83905300  0.11533100  0.85508400  1
  Ag  Ag1  1  0.88466900  0.16094700  0.64491600  1
  Ag  Ag2  1  0.16094700  0.88466900  0.14491600  1
  Ag  Ag3  1  0.11533100  0.83905300  0.35508400  1
  As  As0  1  0.38281200  0.79191700  0.03556300  1
  As  As1  1  0.20808300  0.61718800  0.46443700  1
  As  As2  1  0.61718800  0.20808300  0.96443700  1
  As  As3  1  0.79191700  0.38281200  0.53556300  1
  As  As4  1  0.15475800  0.82411500  0.94267700  1
  As  As5  1  0.17588500  0.84524200  0.55732300  1
  As  As6  1  0.84524200  0.17588500  0.05732300  1
  As  As7  1  0.82411500  0.15475800  0.44267700  1
  As  As8  1  0.01153500  0.39382200  0.74798500  1
  As  As9  1  0.60617800  0.98846500  0.75201500  1
  As  As10  1  0.98846500  0.60617800  0.25201500  1
  As  As11  1  0.39382200  0.01153500  0.24798500  1
  As  As12  1  0.95079300  0.60912400  0.84016300  1
  As  As13  1  0.39087600  0.04920700  0.65983700  1
  As  As14  1  0.04920700  0.39087600  0.15983700  1
  As  As15  1  0.60912400  0.95079300  0.34016300  1
  O  O0  1  0.10420800  0.41926200  0.86546200  1
  O  O1  1  0.58073800  0.89579200  0.63453800  1
  O  O2  1  0.89579200  0.58073800  0.13453800  1
  O  O3  1  0.41926200  0.10420800  0.36546200  1
  O  O4  1  0.84123300  0.49745000  0.79388700  1
  O  O5  1  0.50255000  0.15876700  0.70611300  1
  O  O6  1  0.15876700  0.50255000  0.20611300  1
  O  O7  1  0.49745000  0.84123300  0.29388700  1
  O  O8  1  0.27338600  0.60229300  0.06282600  1
  O  O9  1  0.39770700  0.72661400  0.43717400  1
  O  O10  1  0.72661400  0.39770700  0.93717400  1
  O  O11  1  0.60229300  0.27338600  0.56282600  1
  O  O12  1  0.37404600  0.67495100  0.92642000  1
  O  O13  1  0.32504900  0.62595400  0.57358000  1
  O  O14  1  0.62595400  0.32504900  0.07358000  1
  O  O15  1  0.67495100  0.37404600  0.42642000  1
  O  O16  1  0.19845700  0.91433200  0.99772400  1
  O  O17  1  0.08566800  0.80154300  0.50227600  1
  O  O18  1  0.80154300  0.08566800  0.00227600  1
  O  O19  1  0.91433200  0.19845700  0.49772400  1
  O  O20  1  0.09883200  0.03666200  0.90944900  1
  O  O21  1  0.96333800  0.90116800  0.59055100  1
  O  O22  1  0.90116800  0.96333800  0.09055100  1
  O  O23  1  0.03666200  0.09883200  0.40944900  1
  O  O24  1  0.85407400  0.39942300  0.70419800  1
  O  O25  1  0.60057700  0.14592600  0.79580200  1
  O  O26  1  0.14592600  0.60057700  0.29580200  1
  O  O27  1  0.39942300  0.85407400  0.20419800  1
  O  O28  1  0.60535800  0.71642800  0.00587900  1
  O  O29  1  0.28357200  0.39464200  0.49412100  1
  O  O30  1  0.39464200  0.28357200  0.99412100  1
  O  O31  1  0.71642800  0.60535800  0.50587900  1
  O  O32  1  0.06474100  0.80722400  0.81621200  1
  O  O33  1  0.19277600  0.93525900  0.68378800  1
  O  O34  1  0.93525900  0.19277600  0.18378800  1
  O  O35  1  0.80722400  0.06474100  0.31621200  1
  O  O36  1  0.18361100  0.55842700  0.73936500  1
  O  O37  1  0.44157300  0.81638900  0.76063500  1
  O  O38  1  0.81638900  0.44157300  0.26063500  1
  O  O39  1  0.55842700  0.18361100  0.23936500  1
  O  O40  1  0.11790600  0.16029500  0.76871000  1
  O  O41  1  0.83970500  0.88209400  0.73129000  1
  O  O42  1  0.88209400  0.83970500  0.23129000  1
  O  O43  1  0.16029500  0.11790600  0.26871000  1
  O  O44  1  0.40184100  0.97562600  0.07299600  1
  O  O45  1  0.02437400  0.59815900  0.42700400  1
  O  O46  1  0.59815900  0.02437400  0.92700400  1
  O  O47  1  0.97562600  0.40184100  0.57299600  1
  O  O48  1  0.96299900  0.68391800  0.95401500  1
  O  O49  1  0.31608200  0.03700100  0.54598500  1
  O  O50  1  0.03700100  0.31608200  0.04598500  1
  O  O51  1  0.68391800  0.96299900  0.45401500  1
  O  O52  1  0.73838200  0.71908200  0.86966400  1
  O  O53  1  0.28091800  0.26161800  0.63033600  1
  O  O54  1  0.26161800  0.28091800  0.13033600  1
  O  O55  1  0.71908200  0.73838200  0.36966400  1
loop_
_geom_bond_atom_site_label_1
_geom_bond_atom_site_label_2
_geom_bond_distance
_geom_bond_site_symmetry_2
Na0 O20 2.358990 1_555
Na0 O48 2.367838 1_455
Na0 O0 2.438255 1_555
Na0 O30 2.438773 1_555
Na0 O10 2.489918 1_455
Na0 O50 2.881646 1_556
Na1 O21 2.358990 1_555
Na1 O49 2.367838 1_565
Na1 O1 2.438255 1_555
Na1 O31 2.438773 1_555
Na1 O11 2.489918 1_565
Na1 O51 2.881646 1_555
Na2 O22 2.358990 1_555
Na2 O50 2.367838 1_655
Na2 O2 2.438255 1_555
Na2 O28 2.438773 1_555
Na2 O8 2.489918 1_655
Na2 O48 2.881646 1_554
Na3 O23 2.358990 1_555
Na3 O51 2.367838 1_545
Na3 O3 2.438255 1_555
Na3 O29 2.438773 1_555
Na3 O9 2.489918 1_545
Na3 O49 2.881646 1_555
Na4 O37 2.330576 1_555
Na4 O36 2.330576 1_555
Na4 O24 2.491273 1_555
Na4 O25 2.491273 1_555
Na4 O4 2.546029 1_555
Na4 O5 2.546029 1_555
Na5 O38 2.330576 1_555
Na5 O39 2.330576 1_555
Na5 O26 2.491273 1_555
Na5 O27 2.491273 1_555
Na5 O6 2.546029 1_555
Na5 O7 2.546029 1_555
Na6 O20 2.348477 1_555
Na6 O25 2.378981 1_555
Na6 O0 2.456975 1_555
Na6 O40 2.753916 1_555
Na7 O21 2.348477 1_555
Na7 O24 2.378981 1_555
Na7 O1 2.456975 1_555
Na7 O41 2.753916 1_555
Na8 O22 2.348477 1_555
Na8 O27 2.378981 1_555
Na8 O2 2.456975 1_555
Na8 O42 2.753916 1_555
Na9 O23 2.348477 1_555
Na9 O26 2.378981 1_555
Na9 O3 2.456975 1_555
Na9 O43 2.753916 1_555
Fe0 O52 1.997180 1_555
Fe0 O12 2.005687 1_555
Fe0 O10 2.038181 1_555
Fe0 O28 2.047067 1_556
Fe0 O48 2.091058 1_555
Fe0 O46 2.121205 1_565
Fe1 O53 1.997180 1_555
Fe1 O13 2.005687 1_555
Fe1 O11 2.038181 1_555
Fe1 O29 2.047067 1_555
Fe1 O49 2.091058 1_555
Fe1 O47 2.121205 1_455
Fe2 O54 1.997180 1_555
Fe2 O14 2.005687 1_555
Fe2 O8 2.038181 1_555
Fe2 O30 2.047067 1_554
Fe2 O50 2.091058 1_555
Fe2 O44 2.121205 1_545
Fe3 O55 1.997180 1_555
Fe3 O15 2.005687 1_555
Fe3 O9 2.038181 1_555
Fe3 O31 2.047067 1_555
Fe3 O51 2.091058 1_555
Fe3 O45 2.121205 1_655
Fe4 O32 1.999853 1_555
Fe4 O33 1.999853 1_555
Fe4 O41 2.050650 1_455
Fe4 O40 2.050650 1_565
Fe4 O36 2.083565 1_555
Fe4 O37 2.083565 1_555
Fe5 O35 1.999853 1_555
Fe5 O34 1.999853 1_555
Fe5 O42 2.050650 1_545
Fe5 O43 2.050650 1_655
Fe5 O39 2.083565 1_555
Fe5 O38 2.083565 1_555
Ag0 O25 2.400575 1_555
Ag0 O20 2.400898 1_655
Ag0 O32 2.637241 1_645
Ag0 O46 2.682729 1_555
Ag1 O24 2.400575 1_555
Ag1 O21 2.400898 1_545
Ag1 O33 2.637241 1_645
Ag1 O47 2.682729 1_555
Ag2 O27 2.400575 1_555
Ag2 O22 2.400898 1_455
Ag2 O34 2.637241 1_465
Ag2 O44 2.682729 1_555
Ag3 O26 2.400575 1_555
Ag3 O23 2.400898 1_565
Ag3 O35 2.637241 1_465
Ag3 O45 2.682729 1_555
As0 O8 1.701950 1_555
As0 O28 1.705834 1_555
As0 O44 1.713971 1_555
As0 O16 1.778793 1_554
As1 O9 1.701950 1_555
As1 O29 1.705834 1_555
As1 O45 1.713971 1_555
As1 O17 1.778793 1_555
As2 O10 1.701950 1_555
As2 O30 1.705834 1_555
As2 O46 1.713971 1_555
As2 O18 1.778793 1_556
As3 O11 1.701950 1_555
As3 O31 1.705834 1_555
As3 O47 1.713971 1_555
As3 O19 1.778793 1_555
As4 O20 1.685126 1_565
As4 O12 1.706049 1_555
As4 O48 1.711035 1_455
As4 O16 1.804147 1_555
As5 O21 1.685126 1_455
As5 O13 1.706049 1_555
As5 O49 1.711035 1_565
As5 O17 1.804147 1_555
As6 O22 1.685126 1_545
As6 O14 1.706049 1_555
As6 O50 1.711035 1_655
As6 O18 1.804147 1_555
As7 O23 1.685126 1_655
As7 O15 1.706049 1_555
As7 O51 1.711035 1_545
As7 O19 1.804147 1_555
As8 O24 1.698125 1_455
As8 O40 1.710714 1_555
As8 O36 1.712167 1_555
As8 O4 1.811405 1_455
As9 O25 1.698125 1_565
As9 O41 1.710714 1_555
As9 O37 1.712167 1_555
As9 O5 1.811405 1_565
As10 O26 1.698125 1_655
As10 O42 1.710714 1_555
As10 O38 1.712167 1_555
As10 O6 1.811405 1_655
As11 O27 1.698125 1_545
As11 O43 1.710714 1_555
As11 O39 1.712167 1_555
As11 O7 1.811405 1_545
As12 O0 1.674382 1_655
As12 O52 1.711300 1_555
As12 O32 1.727218 1_655
As12 O4 1.820586 1_555
As13 O1 1.674382 1_545
As13 O53 1.711300 1_555
As13 O33 1.727218 1_545
As13 O5 1.820586 1_555
As14 O2 1.674382 1_455
As14 O54 1.711300 1_555
As14 O34 1.727218 1_455
As14 O6 1.820586 1_555
As15 O3 1.674382 1_565
As15 O55 1.711300 1_555
As15 O35 1.727218 1_565
As15 O7 1.820586 1_555
