# generated using pymatgen
data_LaFe5Bi4O15
_symmetry_space_group_name_H-M   'P 1'
_cell_length_a   5.58313800
_cell_length_b   12.52827421
_cell_length_c   9.67717955
_cell_angle_alpha   97.24303101
_cell_angle_beta   106.78181927
_cell_angle_gamma   102.87975701
_symmetry_Int_Tables_number   1
_chemical_formula_structural   LaFe5Bi4O15
_chemical_formula_sum   'La2 Fe10 Bi8 O30'
_cell_volume   618.46638279
_cell_formula_units_Z   2
loop_
 _symmetry_equiv_pos_site_id
 _symmetry_equiv_pos_as_xyz
  1  'x, y, z'
loop_
 _atom_site_type_symbol
 _atom_site_label
 _atom_site_symmetry_multiplicity
 _atom_site_fract_x
 _atom_site_fract_y
 _atom_site_fract_z
 _atom_site_occupancy
  La  La0  1  0.37070400  0.17311900  0.56723900  1
  La  La1  1  0.16874500  0.56603900  0.76849300  1
  Fe  Fe0  1  0.51506500  0.11414100  0.91320500  1
  Fe  Fe1  1  0.30965500  0.50801400  0.10863300  1
  Fe  Fe2  1  0.10319900  0.90526700  0.30450500  1
  Fe  Fe3  1  0.90475700  0.30698700  0.50770700  1
  Fe  Fe4  1  0.71236000  0.71125300  0.71085400  1
  Fe  Fe5  1  0.60668300  0.40775100  0.80801200  1
  Fe  Fe6  1  0.40456600  0.80590800  0.00818600  1
  Fe  Fe7  1  0.20595900  0.20699300  0.20850300  1
  Fe  Fe8  1  0.01253700  0.61318100  0.40922700  1
  Fe  Fe9  1  0.81450500  0.01041700  0.61095300  1
  Bi  Bi0  1  0.08522800  0.28690000  0.89002500  1
  Bi  Bi1  1  0.87607500  0.68357700  0.08078700  1
  Bi  Bi2  1  0.68278200  0.08562700  0.28214600  1
  Bi  Bi3  1  0.48590600  0.48296600  0.48099000  1
  Bi  Bi4  1  0.29176900  0.88410400  0.68948500  1
  Bi  Bi5  1  0.99065100  0.98357000  0.98985500  1
  Bi  Bi6  1  0.78827000  0.38717800  0.18852300  1
  Bi  Bi7  1  0.58342300  0.78836000  0.38223200  1
  O  O0  1  0.37211400  0.95027400  0.93990400  1
  O  O1  1  0.78056700  0.15189700  0.54090300  1
  O  O2  1  0.57867900  0.54979200  0.74040000  1
  O  O3  1  0.17234300  0.34804800  0.14207600  1
  O  O4  1  0.97091000  0.75165400  0.33640400  1
  O  O5  1  0.19412000  0.05973000  0.71742200  1
  O  O6  1  0.58229400  0.25777200  0.32797300  1
  O  O7  1  0.38535100  0.65828900  0.52084900  1
  O  O8  1  0.99392700  0.45906300  0.92487100  1
  O  O9  1  0.79245000  0.85924100  0.12236800  1
  O  O10  1  0.68086600  0.03004400  0.77884200  1
  O  O11  1  0.07303800  0.22886300  0.37738000  1
  O  O12  1  0.87761100  0.62865500  0.57630000  1
  O  O13  1  0.47592400  0.43293600  0.98059800  1
  O  O14  1  0.27736700  0.83393600  0.18071200  1
  O  O15  1  0.49725500  0.76205800  0.82201300  1
  O  O16  1  0.89448900  0.96154100  0.41595700  1
  O  O17  1  0.70837100  0.36735200  0.62253600  1
  O  O18  1  0.29385400  0.15904400  0.02890000  1
  O  O19  1  0.08903900  0.55540300  0.21788300  1
  O  O20  1  0.81758900  0.84971100  0.63356200  1
  O  O21  1  0.21616400  0.05106900  0.24533200  1
  O  O22  1  0.01726800  0.44776600  0.44395400  1
  O  O23  1  0.61602400  0.25207100  0.84424200  1
  O  O24  1  0.42367300  0.64887000  0.04730100  1
  O  O25  1  0.42351500  0.93415700  0.47602500  1
  O  O26  1  0.83876800  0.13079100  0.08214900  1
  O  O27  1  0.62538500  0.52940600  0.27643800  1
  O  O28  1  0.21961900  0.33868000  0.67839000  1
  O  O29  1  0.02959000  0.73153600  0.87975200  1
loop_
_geom_bond_atom_site_label_1
_geom_bond_atom_site_label_2
_geom_bond_distance
_geom_bond_site_symmetry_2
La0 O11 2.388116 1_555
La0 O5 2.413680 1_555
La0 O1 2.441921 1_555
La0 O23 2.578236 1_555
La0 O17 2.608804 1_555
La0 O28 2.629100 1_555
La1 O8 2.412484 1_455
La1 O2 2.430351 1_555
La1 O12 2.430486 1_455
La1 O29 2.588447 1_555
La1 O15 2.604957 1_555
La1 O24 2.607733 1_556
La1 O28 2.971845 1_555
La1 O17 2.993733 1_455
Fe0 O23 1.955237 1_555
Fe0 O26 2.005589 1_556
Fe0 O18 2.011154 1_556
Fe0 O5 2.105821 1_555
Fe0 O0 2.107319 1_545
Fe0 O10 2.107611 1_555
Fe1 O27 1.960310 1_555
Fe1 O24 1.962925 1_555
Fe1 O19 1.976638 1_555
Fe1 O13 2.010277 1_554
Fe1 O8 2.019567 1_454
Fe1 O3 2.081044 1_555
Fe2 O16 1.979486 1_455
Fe2 O25 1.982456 1_555
Fe2 O14 1.992348 1_555
Fe2 O9 1.995269 1_455
Fe2 O4 1.998074 1_455
Fe2 O21 2.005250 1_565
Fe3 O28 1.955221 1_655
Fe3 O17 1.967306 1_555
Fe3 O22 1.972351 1_655
Fe3 O1 2.011132 1_555
Fe3 O6 2.018202 1_555
Fe3 O11 2.052867 1_655
Fe4 O29 1.973811 1_655
Fe4 O15 1.979576 1_555
Fe4 O20 2.010021 1_555
Fe4 O2 2.080057 1_555
Fe4 O7 2.090028 1_555
Fe4 O12 2.096932 1_555
Fe5 O2 1.994449 1_555
Fe5 O13 2.023809 1_555
Fe5 O23 2.033944 1_555
Fe5 O8 2.037577 1_555
Fe5 O17 2.070647 1_555
Fe5 O28 2.078367 1_555
Fe6 O14 2.015715 1_555
Fe6 O0 2.029534 1_554
Fe6 O29 2.032644 1_554
Fe6 O9 2.035730 1_555
Fe6 O15 2.056945 1_554
Fe6 O24 2.069641 1_555
Fe7 O3 1.983935 1_555
Fe7 O6 1.992985 1_555
Fe7 O11 1.993658 1_555
Fe7 O18 1.995787 1_555
Fe7 O26 1.998736 1_455
Fe7 O21 2.039538 1_555
Fe8 O7 1.960108 1_555
Fe8 O12 1.976985 1_455
Fe8 O4 1.988397 1_455
Fe8 O19 2.095625 1_555
Fe8 O27 2.114147 1_455
Fe8 O22 2.145511 1_555
Fe9 O5 1.982431 1_655
Fe9 O10 1.984402 1_555
Fe9 O1 2.003927 1_555
Fe9 O20 2.055767 1_545
Fe9 O16 2.110053 1_545
Fe9 O25 2.119598 1_545
Bi0 O8 2.330624 1_455
Bi0 O3 2.334633 1_556
Bi0 O13 2.363500 1_555
Bi0 O23 2.453692 1_455
Bi0 O28 2.486690 1_555
Bi0 O18 2.489844 1_556
Bi1 O9 2.359352 1_555
Bi1 O4 2.374255 1_555
Bi1 O24 2.382448 1_555
Bi1 O29 2.430729 1_654
Bi1 O14 2.431323 1_655
Bi1 O19 2.495986 1_655
Bi2 O11 2.344634 1_655
Bi2 O6 2.367410 1_555
Bi2 O1 2.396216 1_555
Bi2 O26 2.419542 1_555
Bi2 O16 2.435893 1_545
Bi2 O21 2.454326 1_555
Bi3 O12 2.365602 1_555
Bi3 O7 2.397856 1_555
Bi3 O2 2.407690 1_555
Bi3 O17 2.415952 1_555
Bi3 O27 2.416993 1_555
Bi3 O22 2.464363 1_555
Bi4 O0 2.336878 1_555
Bi4 O10 2.357073 1_565
Bi4 O5 2.383589 1_565
Bi4 O15 2.392861 1_555
Bi4 O20 2.468328 1_455
Bi4 O25 2.489930 1_555
Bi5 O18 2.367158 1_666
Bi5 O21 2.369235 1_666
Bi5 O26 2.374430 1_566
Bi5 O9 2.418642 1_556
Bi5 O0 2.425542 1_655
Bi5 O10 2.491889 1_565
Bi6 O19 2.310439 1_655
Bi6 O27 2.347942 1_555
Bi6 O22 2.364347 1_655
Bi6 O3 2.451564 1_655
Bi6 O13 2.475619 1_554
Bi6 O6 2.527575 1_555
Bi7 O20 2.336644 1_555
Bi7 O16 2.375801 1_555
Bi7 O25 2.394621 1_555
Bi7 O14 2.416695 1_555
Bi7 O4 2.456532 1_555
Bi7 O7 2.506443 1_555
