# generated using pymatgen
data_SrMg14Cr
_symmetry_space_group_name_H-M   'P 1'
_cell_length_a   6.52037719
_cell_length_b   6.47249514
_cell_length_c   10.47403009
_cell_angle_alpha   90.00000000
_cell_angle_beta   90.00000000
_cell_angle_gamma   119.75738215
_symmetry_Int_Tables_number   1
_chemical_formula_structural   SrMg14Cr
_chemical_formula_sum   'Sr1 Mg14 Cr1'
_cell_volume   383.74742320
_cell_formula_units_Z   1
loop_
 _symmetry_equiv_pos_site_id
 _symmetry_equiv_pos_as_xyz
  1  'x, y, z'
loop_
 _atom_site_type_symbol
 _atom_site_label
 _atom_site_symmetry_multiplicity
 _atom_site_fract_x
 _atom_site_fract_y
 _atom_site_fract_z
 _atom_site_occupancy
  Sr  Sr0  1  0.16256776  0.33128338  0.12500000  1
  Mg  Mg0  1  0.16752505  0.33376203  0.62500000  1
  Mg  Mg1  1  0.16440931  0.83220416  0.62500000  1
  Mg  Mg2  1  0.65787092  0.32083496  0.12500000  1
  Mg  Mg3  1  0.66629781  0.33548985  0.62500000  1
  Mg  Mg4  1  0.65787092  0.83703496  0.12500000  1
  Mg  Mg5  1  0.66629781  0.83080696  0.62500000  1
  Mg  Mg6  1  0.33747122  0.15901223  0.38263946  1
  Mg  Mg7  1  0.33747122  0.15901223  0.86736054  1
  Mg  Mg8  1  0.33747122  0.67845999  0.38263946  1
  Mg  Mg9  1  0.33747122  0.67845999  0.86736054  1
  Mg  Mg10  1  0.82633272  0.16316686  0.38925402  1
  Mg  Mg11  1  0.82633272  0.16316686  0.86074598  1
  Mg  Mg12  1  0.84052679  0.67026389  0.36403351  1
  Mg  Mg13  1  0.84052679  0.67026389  0.88596649  1
  Cr  Cr0  1  0.17355651  0.83677776  0.12500000  1
loop_
_geom_bond_atom_site_label_1
_geom_bond_atom_site_label_2
_geom_bond_distance
_geom_bond_site_symmetry_2
Mg0 Mg11 3.134818 1_455
Mg0 Mg10 3.134818 1_455
Mg0 Mg7 3.193010 1_555
Mg0 Mg6 3.193010 1_555
Mg0 Mg9 3.193017 1_555
Mg0 Mg8 3.193017 1_555
Mg0 Mg1 3.236296 1_545
Mg0 Mg1 3.236296 1_555
Mg0 Mg5 3.246650 1_555
Mg0 Mg3 3.246650 1_555
Mg0 Mg5 3.273755 1_445
Mg0 Mg3 3.273756 1_455
Mg1 Mg8 3.134038 1_555
Mg1 Mg9 3.134038 1_555
Mg1 Mg6 3.134044 1_565
Mg1 Mg7 3.134044 1_565
Mg1 Mg3 3.243396 1_455
Mg1 Mg5 3.243396 1_455
Mg1 Mg3 3.277000 1_565
Mg1 Mg5 3.277000 1_555
Mg1 Mg12 3.291279 1_455
Mg1 Mg13 3.291279 1_455
Mg2 Mg4 3.131393 1_545
Mg2 Mg6 3.251376 1_555
Mg2 Mg7 3.251376 1_554
Mg2 Sr0 3.257777 1_655
Mg2 Sr0 3.263657 1_555
Mg2 Mg4 3.341102 1_555
Mg3 Mg7 3.148752 1_555
Mg3 Mg6 3.148752 1_555
Mg3 Mg5 3.205938 1_555
Mg3 Mg5 3.266558 1_545
Mg4 Mg8 3.251376 1_555
Mg4 Mg9 3.251376 1_554
Mg4 Sr0 3.257777 1_665
Mg4 Sr0 3.263657 1_555
Mg5 Mg9 3.148753 1_555
Mg5 Mg8 3.148753 1_555
Mg6 Mg8 3.110372 1_545
Mg6 Sr0 3.329892 1_555
Mg6 Mg8 3.362123 1_555
Mg7 Mg9 3.110372 1_545
Mg7 Sr0 3.329892 1_556
Mg7 Mg9 3.362123 1_555
Mg8 Sr0 3.329898 1_555
Mg9 Sr0 3.329898 1_556
Mg10 Mg3 3.095999 1_555
Mg10 Mg5 3.096006 1_545
Mg10 Mg8 3.175056 1_545
Mg10 Mg6 3.175057 1_555
Mg10 Mg12 3.248005 1_555
Mg10 Mg12 3.248005 1_545
Mg10 Mg2 3.319858 1_555
Mg10 Mg4 3.319865 1_545
Mg10 Mg8 3.346961 1_655
Mg10 Mg6 3.346961 1_655
Mg10 Sr0 3.359051 1_655
Mg11 Mg3 3.095999 1_555
Mg11 Mg5 3.096006 1_545
Mg11 Mg9 3.175056 1_545
Mg11 Mg7 3.175057 1_555
Mg11 Mg13 3.248005 1_555
Mg11 Mg13 3.248005 1_545
Mg11 Mg2 3.319858 1_556
Mg11 Mg4 3.319865 1_546
Mg11 Mg9 3.346961 1_655
Mg11 Mg7 3.346961 1_655
Mg11 Sr0 3.359051 1_656
Mg12 Mg4 3.182448 1_555
Mg12 Mg2 3.182455 1_555
Mg12 Mg6 3.220167 1_665
Mg12 Mg8 3.220168 1_655
Mg12 Mg6 3.312500 1_555
Mg12 Mg8 3.312500 1_555
Mg12 Mg5 3.318654 1_555
Mg12 Mg3 3.318660 1_555
Mg13 Mg4 3.182448 1_556
Mg13 Mg2 3.182455 1_556
Mg13 Mg7 3.220167 1_665
Mg13 Mg9 3.220168 1_655
Mg13 Mg7 3.312500 1_555
Mg13 Mg9 3.312500 1_555
Mg13 Mg5 3.318654 1_555
Mg13 Mg3 3.318660 1_555
Cr0 Mg13 3.134003 1_454
Cr0 Mg12 3.134003 1_455
Cr0 Mg2 3.157086 1_565
Cr0 Mg4 3.157087 1_555
Cr0 Sr0 3.236845 1_565
Cr0 Sr0 3.236845 1_555
Cr0 Mg8 3.249849 1_555
Cr0 Mg9 3.249849 1_554
Cr0 Mg6 3.249855 1_565
Cr0 Mg7 3.249855 1_564
Cr0 Mg2 3.363291 1_455
Cr0 Mg4 3.363291 1_455
