# generated using pymatgen
data_LiYbF2
_symmetry_space_group_name_H-M   'P 1'
_cell_length_a   7.66720052
_cell_length_b   7.66720052
_cell_length_c   7.66720052
_cell_angle_alpha   128.41006739
_cell_angle_beta   128.41006739
_cell_angle_gamma   75.96167053
_symmetry_Int_Tables_number   1
_chemical_formula_structural   LiYbF2
_chemical_formula_sum   'Li4 Yb4 F8'
_cell_volume   269.09028806
_cell_formula_units_Z   4
loop_
 _symmetry_equiv_pos_site_id
 _symmetry_equiv_pos_as_xyz
  1  'x, y, z'
loop_
 _atom_site_type_symbol
 _atom_site_label
 _atom_site_symmetry_multiplicity
 _atom_site_fract_x
 _atom_site_fract_y
 _atom_site_fract_z
 _atom_site_occupancy
  Li  Li0  1  0.37500000  0.12500000  0.25000000  1
  Li  Li1  1  0.87500000  0.12500000  0.75000000  1
  Li  Li2  1  0.87500000  0.12500000  0.25000000  1
  Li  Li3  1  0.87500000  0.62500000  0.75000000  1
  Yb  Yb0  1  0.87500000  0.62500000  0.25000000  1
  Yb  Yb1  1  0.37500000  0.62500000  0.75000000  1
  Yb  Yb2  1  0.37500000  0.62500000  0.25000000  1
  Yb  Yb3  1  0.37500000  0.12500000  0.75000000  1
  F  F0  1  0.18558512  0.48412458  0.29853946  1
  F  F1  1  0.18558512  0.88704667  0.70146054  1
  F  F2  1  0.23412458  0.43558512  0.79853946  1
  F  F3  1  0.56441488  0.76587542  0.20146054  1
  F  F4  1  0.63704667  0.43558512  0.20146054  1
  F  F5  1  0.56441488  0.36295333  0.79853946  1
  F  F6  1  0.51587542  0.81441488  0.70146054  1
  F  F7  1  0.11295333  0.81441488  0.29853946  1
loop_
_geom_bond_atom_site_label_1
_geom_bond_atom_site_label_2
_geom_bond_distance
_geom_bond_site_symmetry_2
F0 Yb0 2.264129 1_455
F0 Yb1 2.264129 1_555
F0 Yb2 2.312223 1_555
F1 Yb0 2.264130 1_455
F1 Yb1 2.264135 1_555
F1 Yb3 2.312217 1_565
F2 Yb3 2.264129 1_555
F2 Yb2 2.264129 1_556
F2 Yb1 2.312223 1_555
F3 Yb1 2.264129 1_554
F3 Yb0 2.264129 1_555
F3 Yb2 2.312223 1_555
F4 Yb3 2.264130 1_554
F4 Yb2 2.264135 1_555
F4 Yb0 2.312217 1_555
F5 Yb0 2.264130 1_556
F5 Yb1 2.264135 1_555
F5 Yb3 2.312217 1_555
F6 Yb3 2.264129 1_565
F6 Yb2 2.264129 1_555
F6 Yb1 2.312223 1_555
F7 Yb3 2.264130 1_565
F7 Yb2 2.264135 1_555
F7 Yb0 2.312217 1_455
