# generated using pymatgen
data_KTb(MoO4)2
_symmetry_space_group_name_H-M   'P 1'
_cell_length_a   7.52470914
_cell_length_b   7.52470914
_cell_length_c   7.78723544
_cell_angle_alpha   61.67583657
_cell_angle_beta   61.67583657
_cell_angle_gamma   88.10456021
_symmetry_Int_Tables_number   1
_chemical_formula_structural   KTb(MoO4)2
_chemical_formula_sum   'K2 Tb2 Mo4 O16'
_cell_volume   331.00773602
_cell_formula_units_Z   2
loop_
 _symmetry_equiv_pos_site_id
 _symmetry_equiv_pos_as_xyz
  1  'x, y, z'
loop_
 _atom_site_type_symbol
 _atom_site_label
 _atom_site_symmetry_multiplicity
 _atom_site_fract_x
 _atom_site_fract_y
 _atom_site_fract_z
 _atom_site_occupancy
  K  K0  1  0.20005700  0.79994300  0.75000000  1
  K  K1  1  0.79994300  0.20005700  0.25000000  1
  Tb  Tb0  1  0.77078800  0.22921200  0.75000000  1
  Tb  Tb1  1  0.22921200  0.77078800  0.25000000  1
  Mo  Mo0  1  0.69480800  0.69759900  0.76085100  1
  Mo  Mo1  1  0.30519200  0.30240100  0.23914900  1
  Mo  Mo2  1  0.30240100  0.30519200  0.73914900  1
  Mo  Mo3  1  0.69759900  0.69480800  0.26085100  1
  O  O0  1  0.61304200  0.76903800  0.56104200  1
  O  O1  1  0.38695800  0.23096200  0.43895800  1
  O  O2  1  0.23096200  0.38695800  0.93895800  1
  O  O3  1  0.76903800  0.61304200  0.06104200  1
  O  O4  1  0.38346500  0.06805300  0.87528800  1
  O  O5  1  0.61653500  0.93194700  0.12471200  1
  O  O6  1  0.93194700  0.61653500  0.62471200  1
  O  O7  1  0.06805300  0.38346500  0.37528800  1
  O  O8  1  0.58524000  0.36743700  0.97074400  1
  O  O9  1  0.41476000  0.63256300  0.02925600  1
  O  O10  1  0.63256300  0.41476000  0.52925600  1
  O  O11  1  0.36743700  0.58524000  0.47074400  1
  O  O12  1  0.79336300  0.95255100  0.69123000  1
  O  O13  1  0.20663700  0.04744900  0.30877000  1
  O  O14  1  0.04744900  0.20663700  0.80877000  1
  O  O15  1  0.95255100  0.79336300  0.19123000  1
loop_
_geom_bond_atom_site_label_1
_geom_bond_atom_site_label_2
_geom_bond_distance
_geom_bond_site_symmetry_2
K0 O0 2.795387 1_555
K0 O2 2.795387 1_555
K0 O3 2.824620 1_456
K0 O1 2.824620 1_565
K0 O13 3.008194 1_565
K0 O15 3.008194 1_456
K0 O11 3.086362 1_555
K0 O9 3.086362 1_556
K0 O4 3.202547 1_565
K0 O6 3.202547 1_455
K1 O3 2.795387 1_555
K1 O1 2.795387 1_555
K1 O0 2.824620 1_545
K1 O2 2.824620 1_654
K1 O14 3.008194 1_654
K1 O12 3.008194 1_545
K1 O8 3.086362 1_554
K1 O10 3.086362 1_555
K1 O7 3.202547 1_655
K1 O5 3.202547 1_545
Mo0 O0 1.783644 1_555
Mo0 O12 1.802758 1_555
Mo0 O6 1.851113 1_555
Mo0 O9 1.991700 1_556
Mo0 O8 2.127652 1_555
Mo0 O3 2.446545 1_556
Mo1 O1 1.783644 1_555
Mo1 O13 1.802758 1_555
Mo1 O7 1.851113 1_555
Mo1 O8 1.991700 1_554
Mo1 O9 2.127652 1_555
Mo1 O2 2.446545 1_554
Mo2 O2 1.783644 1_555
Mo2 O14 1.802758 1_555
Mo2 O4 1.851113 1_555
Mo2 O11 1.991700 1_555
Mo2 O10 2.127652 1_555
Mo2 O1 2.446545 1_555
Mo3 O3 1.783644 1_555
Mo3 O15 1.802758 1_555
Mo3 O5 1.851113 1_555
Mo3 O10 1.991700 1_555
Mo3 O11 2.127652 1_555
Mo3 O0 2.446545 1_555
O4 Tb1 2.372647 1_546
O4 Tb0 2.707317 1_555
O5 Tb0 2.372647 1_564
O5 Tb1 2.707317 1_555
O6 Tb1 2.372647 1_655
O6 Tb0 2.707317 1_555
O7 Tb0 2.372647 1_455
O7 Tb1 2.707317 1_555
O8 Tb0 2.304164 1_555
O9 Tb1 2.304164 1_555
O10 Tb0 2.304164 1_555
O11 Tb1 2.304164 1_555
O12 Tb0 2.319285 1_565
O13 Tb1 2.319285 1_545
O14 Tb0 2.319285 1_455
O15 Tb1 2.319285 1_655
