# generated using pymatgen
data_K2Ni(CO5)2
_symmetry_space_group_name_H-M   'P 1'
_cell_length_a   6.24164100
_cell_length_b   6.96137500
_cell_length_c   11.38792416
_cell_angle_alpha   68.67030946
_cell_angle_beta   90.00000000
_cell_angle_gamma   90.00000000
_symmetry_Int_Tables_number   1
_chemical_formula_structural   K2Ni(CO5)2
_chemical_formula_sum   'K4 Ni2 C4 O20'
_cell_volume   460.91684132
_cell_formula_units_Z   2
loop_
 _symmetry_equiv_pos_site_id
 _symmetry_equiv_pos_as_xyz
  1  'x, y, z'
loop_
 _atom_site_type_symbol
 _atom_site_label
 _atom_site_symmetry_multiplicity
 _atom_site_fract_x
 _atom_site_fract_y
 _atom_site_fract_z
 _atom_site_occupancy
  K  K0  1  0.34062000  0.72203000  0.33984300  1
  K  K1  1  0.65938000  0.27797000  0.66015700  1
  K  K2  1  0.84062000  0.27797000  0.16015700  1
  K  K3  1  0.15938000  0.72203000  0.83984300  1
  Ni  Ni0  1  0.00000000  0.00000000  0.50000000  1
  Ni  Ni1  1  0.50000000  0.00000000  0.00000000  1
  C  C0  1  0.82767500  0.77246400  0.16550300  1
  C  C1  1  0.17232500  0.22753600  0.83449700  1
  C  C2  1  0.32767500  0.22753600  0.33449700  1
  C  C3  1  0.67232500  0.77246400  0.66550300  1
  O  O0  1  0.94720600  0.66239100  0.24894200  1
  O  O1  1  0.05279400  0.33760900  0.75105800  1
  O  O2  1  0.44720600  0.33760900  0.25105800  1
  O  O3  1  0.55279400  0.66239100  0.74894200  1
  O  O4  1  0.76139200  0.87823200  0.44358100  1
  O  O5  1  0.23860800  0.12176800  0.55641900  1
  O  O6  1  0.26139200  0.12176800  0.05641900  1
  O  O7  1  0.73860800  0.87823200  0.94358100  1
  O  O8  1  0.33208500  0.78515100  0.06567200  1
  O  O9  1  0.66791500  0.21484900  0.93432800  1
  O  O10  1  0.83208500  0.21484900  0.43432800  1
  O  O11  1  0.16791500  0.78515100  0.56567200  1
  O  O12  1  0.86101500  0.74541100  0.04695100  1
  O  O13  1  0.13898500  0.25458900  0.95304900  1
  O  O14  1  0.36101500  0.25458900  0.45304900  1
  O  O15  1  0.63898500  0.74541100  0.54695100  1
  O  O16  1  0.68361000  0.90140200  0.16565600  1
  O  O17  1  0.31639000  0.09859800  0.83434400  1
  O  O18  1  0.18361000  0.09859800  0.33434400  1
  O  O19  1  0.81639000  0.90140200  0.66565600  1
loop_
_geom_bond_atom_site_label_1
_geom_bond_atom_site_label_2
_geom_bond_distance
_geom_bond_site_symmetry_2
K0 O0 2.754327 1_455
K0 O18 2.777913 1_565
K0 O16 2.876667 1_555
K0 O11 2.964947 1_555
K0 O8 2.991028 1_555
K0 O14 3.035649 1_555
K0 O15 3.055574 1_555
K0 O4 3.226453 1_555
K0 O2 3.254951 1_555
K1 O1 2.754327 1_655
K1 O19 2.777913 1_545
K1 O17 2.876667 1_555
K1 O10 2.964947 1_555
K1 O9 2.991028 1_555
K1 O15 3.035649 1_555
K1 O14 3.055574 1_555
K1 O5 3.226453 1_555
K1 O3 3.254951 1_555
K2 O2 2.754327 1_555
K2 O16 2.777913 1_545
K2 O18 2.876667 1_655
K2 O9 2.964947 1_554
K2 O10 2.991028 1_555
K2 O12 3.035649 1_555
K2 O13 3.055574 1_654
K2 O6 3.226453 1_655
K2 O0 3.254951 1_555
K3 O3 2.754327 1_555
K3 O17 2.777913 1_565
K3 O19 2.876667 1_455
K3 O8 2.964947 1_556
K3 O11 2.991028 1_555
K3 O13 3.035649 1_555
K3 O12 3.055574 1_456
K3 O7 3.226453 1_455
K3 O1 3.254951 1_555
Ni0 O11 1.755276 1_545
Ni0 O10 1.755276 1_455
Ni0 O5 1.935350 1_555
Ni0 O4 1.935350 1_445
Ni0 O19 2.097937 1_445
Ni0 O18 2.097937 1_555
Ni1 O8 1.755276 1_545
Ni1 O9 1.755276 1_554
Ni1 O6 1.935350 1_555
Ni1 O7 1.935350 1_544
Ni1 O16 2.097937 1_545
Ni1 O17 2.097937 1_554
C0 O0 1.231657 1_555
C0 O16 1.270970 1_555
C0 O12 1.444436 1_555
C1 O1 1.231657 1_555
C1 O17 1.270970 1_555
C1 O13 1.444436 1_555
C2 O2 1.231657 1_555
C2 O18 1.270970 1_555
C2 O14 1.444436 1_555
C3 O3 1.231657 1_555
C3 O19 1.270970 1_555
C3 O15 1.444436 1_555
