# generated using pymatgen
data_LiZn(BH4)3
_symmetry_space_group_name_H-M   'P 1'
_cell_length_a   8.84007881
_cell_length_b   10.78584290
_cell_length_c   14.98312003
_cell_angle_alpha   90.00000000
_cell_angle_beta   90.00000000
_cell_angle_gamma   110.92074736
_symmetry_Int_Tables_number   1
_chemical_formula_structural   LiZn(BH4)3
_chemical_formula_sum   'Li8 Zn8 B24 H96'
_cell_volume   1334.42553509
_cell_formula_units_Z   8
loop_
 _symmetry_equiv_pos_site_id
 _symmetry_equiv_pos_as_xyz
  1  'x, y, z'
loop_
 _atom_site_type_symbol
 _atom_site_label
 _atom_site_symmetry_multiplicity
 _atom_site_fract_x
 _atom_site_fract_y
 _atom_site_fract_z
 _atom_site_occupancy
  Li  Li0  1  0.75052750  0.08402491  0.37164743  1
  Li  Li1  1  0.74947250  0.91597509  0.87164743  1
  Li  Li2  1  0.24947250  0.91597509  0.62835257  1
  Li  Li3  1  0.25052750  0.08402491  0.12835257  1
  Li  Li4  1  0.75605288  0.77420559  0.40482911  1
  Li  Li5  1  0.74394712  0.22579441  0.90482911  1
  Li  Li6  1  0.24394712  0.22579441  0.59517089  1
  Li  Li7  1  0.25605288  0.77420559  0.09517089  1
  Zn  Zn0  1  0.25259901  0.77065657  0.38673968  1
  Zn  Zn1  1  0.24740099  0.22934343  0.88673968  1
  Zn  Zn2  1  0.74740099  0.22934343  0.61326032  1
  Zn  Zn3  1  0.75259901  0.77065657  0.11326032  1
  Zn  Zn4  1  0.11124772  0.40998447  0.23214558  1
  Zn  Zn5  1  0.38875228  0.59001553  0.73214558  1
  Zn  Zn6  1  0.88875228  0.59001553  0.76785442  1
  Zn  Zn7  1  0.61124772  0.40998447  0.26785442  1
  B  B0  1  0.14569757  0.51674055  0.10495881  1
  B  B1  1  0.35430243  0.48325945  0.60495881  1
  B  B2  1  0.85430243  0.48325945  0.89504119  1
  B  B3  1  0.64569757  0.51674055  0.39504119  1
  B  B4  1  0.22455768  0.24467619  0.23761676  1
  B  B5  1  0.27544232  0.75532381  0.73761676  1
  B  B6  1  0.77544232  0.75532381  0.76238324  1
  B  B7  1  0.72455768  0.24467619  0.26238324  1
  B  B8  1  0.51083511  0.84648171  0.44138422  1
  B  B9  1  0.98916489  0.15351829  0.94138422  1
  B  B10  1  0.48916489  0.15351829  0.55861578  1
  B  B11  1  0.01083511  0.84648171  0.05861578  1
  B  B12  1  0.07160167  0.84391282  0.50024143  1
  B  B13  1  0.42839833  0.15608718  0.00024143  1
  B  B14  1  0.92839833  0.15608718  0.49975857  1
  B  B15  1  0.57160167  0.84391282  0.99975857  1
  B  B16  1  0.12713049  0.53112081  0.36820830  1
  B  B17  1  0.37286951  0.46887919  0.86820830  1
  B  B18  1  0.87286951  0.46887919  0.63179170  1
  B  B19  1  0.62713049  0.53112081  0.13179170  1
  B  B20  1  0.30882300  0.87178908  0.24178331  1
  B  B21  1  0.19117700  0.12821092  0.74178331  1
  B  B22  1  0.69117700  0.12821092  0.75821669  1
  B  B23  1  0.80882300  0.87178908  0.25821669  1
  H  H0  1  0.20292215  0.48796388  0.03918222  1
  H  H1  1  0.29707785  0.51203612  0.53918222  1
  H  H2  1  0.79707785  0.51203612  0.96081778  1
  H  H3  1  0.70292215  0.48796388  0.46081778  1
  H  H4  1  0.08927041  0.60418007  0.09796586  1
  H  H5  1  0.41072959  0.39581993  0.59796586  1
  H  H6  1  0.91072959  0.39581993  0.90203414  1
  H  H7  1  0.58927041  0.60418007  0.40203414  1
  H  H8  1  0.02297904  0.41613288  0.12351788  1
  H  H9  1  0.47702096  0.58386712  0.62351788  1
  H  H10  1  0.97702096  0.58386712  0.87648212  1
  H  H11  1  0.52297904  0.41613288  0.37648212  1
  H  H12  1  0.25355705  0.54811725  0.16376297  1
  H  H13  1  0.24644295  0.45188275  0.66376297  1
  H  H14  1  0.74644295  0.45188275  0.83623703  1
  H  H15  1  0.75355705  0.54811725  0.33623703  1
  H  H16  1  0.15294152  0.12597005  0.24674480  1
  H  H17  1  0.34705848  0.87402995  0.74674480  1
  H  H18  1  0.84705848  0.87402995  0.75325520  1
  H  H19  1  0.65294152  0.12597005  0.25325520  1
  H  H20  1  0.21281592  0.27969134  0.16103728  1
  H  H21  1  0.28718408  0.72030866  0.66103728  1
  H  H22  1  0.78718408  0.72030866  0.83896272  1
  H  H23  1  0.71281592  0.27969134  0.33896272  1
  H  H24  1  0.16307406  0.29308494  0.29802868  1
  H  H25  1  0.33692594  0.70691506  0.79802868  1
  H  H26  1  0.83692594  0.70691506  0.70197132  1
  H  H27  1  0.66307406  0.29308494  0.20197132  1
  H  H28  1  0.86838770  0.27649241  0.24240608  1
  H  H29  1  0.63161230  0.72350759  0.74240608  1
  H  H30  1  0.13161230  0.72350759  0.75759392  1
  H  H31  1  0.36838770  0.27649241  0.25759392  1
  H  H32  1  0.38437419  0.81557253  0.48709393  1
  H  H33  1  0.11562581  0.18442747  0.98709393  1
  H  H34  1  0.61562581  0.18442747  0.51290607  1
  H  H35  1  0.88437419  0.81557253  0.01290607  1
  H  H36  1  0.49152706  0.78634866  0.37028409  1
  H  H37  1  0.00847294  0.21365134  0.87028409  1
  H  H38  1  0.50847294  0.21365134  0.62971591  1
  H  H39  1  0.99152706  0.78634866  0.12971591  1
  H  H40  1  0.55654887  0.96564242  0.42966113  1
  H  H41  1  0.94345113  0.03435758  0.92966113  1
  H  H42  1  0.44345113  0.03435758  0.57033887  1
  H  H43  1  0.05654887  0.96564242  0.07033887  1
  H  H44  1  0.59819930  0.81116641  0.49018766  1
  H  H45  1  0.90180070  0.18883359  0.99018766  1
  H  H46  1  0.40180070  0.18883359  0.50981234  1
  H  H47  1  0.09819930  0.81116641  0.00981234  1
  H  H48  1  0.12089485  0.76868461  0.54217343  1
  H  H49  1  0.37910515  0.23131539  0.04217343  1
  H  H50  1  0.87910515  0.23131539  0.45782657  1
  H  H51  1  0.62089485  0.76868461  0.95782657  1
  H  H52  1  0.92417149  0.79197236  0.49500180  1
  H  H53  1  0.57582851  0.20802764  0.99500180  1
  H  H54  1  0.07582851  0.20802764  0.50499820  1
  H  H55  1  0.42417149  0.79197236  0.00499820  1
  H  H56  1  0.11030719  0.95396430  0.53442064  1
  H  H57  1  0.38969281  0.04603570  0.03442064  1
  H  H58  1  0.88969281  0.04603570  0.46557936  1
  H  H59  1  0.61030719  0.95396430  0.96557936  1
  H  H60  1  0.12998694  0.86762762  0.42281151  1
  H  H61  1  0.37001306  0.13237238  0.92281151  1
  H  H62  1  0.87001306  0.13237238  0.57718849  1
  H  H63  1  0.62998694  0.86762762  0.07718849  1
  H  H64  1  0.10013974  0.44201977  0.42026640  1
  H  H65  1  0.39986026  0.55798023  0.92026640  1
  H  H66  1  0.89986026  0.55798023  0.57973360  1
  H  H67  1  0.60013974  0.44201977  0.07973360  1
  H  H68  1  0.02976880  0.50360621  0.30310203  1
  H  H69  1  0.47023120  0.49639379  0.80310203  1
  H  H70  1  0.97023120  0.49639379  0.69689797  1
  H  H71  1  0.52976880  0.50360621  0.19689797  1
  H  H72  1  0.07748894  0.61397613  0.40397562  1
  H  H73  1  0.42251106  0.38602387  0.90397562  1
  H  H74  1  0.92251106  0.38602387  0.59602438  1
  H  H75  1  0.57748894  0.61397613  0.09602438  1
  H  H76  1  0.26926441  0.57427548  0.34394535  1
  H  H77  1  0.23073559  0.42572452  0.84394535  1
  H  H78  1  0.73073559  0.42572452  0.65605465  1
  H  H79  1  0.76926441  0.57427548  0.15605465  1
  H  H80  1  0.37820791  0.95542718  0.29656780  1
  H  H81  1  0.12179209  0.04457282  0.79656780  1
  H  H82  1  0.62179209  0.04457282  0.70343220  1
  H  H83  1  0.87820791  0.95542718  0.20343220  1
  H  H84  1  0.19439986  0.77323288  0.27134488  1
  H  H85  1  0.30560014  0.22676712  0.77134488  1
  H  H86  1  0.80560014  0.22676712  0.72865512  1
  H  H87  1  0.69439986  0.77323288  0.22865512  1
  H  H88  1  0.23315371  0.91674547  0.19108066  1
  H  H89  1  0.26684629  0.08325453  0.69108066  1
  H  H90  1  0.76684629  0.08325453  0.80891934  1
  H  H91  1  0.73315371  0.91674547  0.30891934  1
  H  H92  1  0.40340504  0.83049339  0.20363025  1
  H  H93  1  0.09659496  0.16950661  0.70363025  1
  H  H94  1  0.59659496  0.16950661  0.79636975  1
  H  H95  1  0.90340504  0.83049339  0.29636975  1
loop_
_geom_bond_atom_site_label_1
_geom_bond_atom_site_label_2
_geom_bond_distance
_geom_bond_site_symmetry_2
B0 H0 1.198189 1_555
B0 H4 1.218697 1_555
B0 H12 1.252799 1_555
B0 H8 1.261360 1_555
B1 H1 1.198189 1_555
B1 H5 1.218697 1_555
B1 H13 1.252799 1_555
B1 H9 1.261360 1_555
B2 H2 1.198189 1_555
B2 H6 1.218697 1_555
B2 H14 1.252799 1_555
B2 H10 1.261360 1_555
B3 H3 1.198189 1_555
B3 H7 1.218697 1_555
B3 H15 1.252799 1_555
B3 H11 1.261360 1_555
B4 H16 1.216520 1_555
B4 H20 1.223899 1_555
B4 H31 1.229791 1_555
B4 H24 1.260957 1_555
B5 H17 1.216520 1_555
B5 H21 1.223899 1_555
B5 H30 1.229791 1_555
B5 H25 1.260957 1_555
B6 H18 1.216520 1_555
B6 H22 1.223899 1_555
B6 H29 1.229791 1_555
B6 H26 1.260957 1_555
B7 H19 1.216520 1_555
B7 H23 1.223899 1_555
B7 H28 1.229791 1_555
B7 H27 1.260957 1_555
B8 H40 1.214538 1_555
B8 H44 1.219150 1_555
B8 H36 1.227031 1_555
B8 H32 1.250516 1_555
B9 H41 1.214538 1_555
B9 H45 1.219150 1_555
B9 H37 1.227031 1_655
B9 H33 1.250516 1_655
B10 H42 1.214538 1_555
B10 H46 1.219150 1_555
B10 H38 1.227031 1_555
B10 H34 1.250516 1_555
B11 H43 1.214538 1_555
B11 H47 1.219150 1_555
B11 H39 1.227031 1_455
B11 H35 1.250516 1_455
B12 H48 1.222899 1_555
B12 H52 1.223585 1_455
B12 H56 1.224029 1_555
B12 H60 1.258358 1_555
B13 H49 1.222899 1_555
B13 H53 1.223585 1_554
B13 H57 1.224029 1_555
B13 H61 1.258358 1_554
B14 H50 1.222899 1_555
B14 H54 1.223585 1_655
B14 H58 1.224029 1_555
B14 H62 1.258358 1_555
B15 H51 1.222899 1_555
B15 H55 1.223585 1_556
B15 H59 1.224029 1_555
B15 H63 1.258358 1_556
B16 H64 1.193792 1_555
B16 H76 1.228770 1_555
B16 H72 1.248390 1_555
B16 H68 1.264132 1_555
B17 H65 1.193792 1_555
B17 H77 1.228770 1_555
B17 H73 1.248390 1_555
B17 H69 1.264132 1_555
B18 H66 1.193792 1_555
B18 H78 1.228770 1_555
B18 H74 1.248390 1_555
B18 H70 1.264132 1_555
B19 H67 1.193792 1_555
B19 H79 1.228770 1_555
B19 H75 1.248390 1_555
B19 H71 1.264132 1_555
B20 H80 1.211876 1_555
B20 H92 1.220745 1_555
B20 H88 1.221203 1_555
B20 H84 1.257552 1_555
B21 H81 1.211876 1_555
B21 H93 1.220745 1_555
B21 H89 1.221203 1_555
B21 H85 1.257552 1_555
B22 H82 1.211876 1_555
B22 H94 1.220745 1_555
B22 H90 1.221203 1_555
B22 H86 1.257552 1_555
B23 H83 1.211876 1_555
B23 H95 1.220745 1_555
B23 H91 1.221203 1_555
B23 H87 1.257552 1_555
H4 Li7 1.899386 1_555
H5 Li6 1.899386 1_555
H6 Li5 1.899386 1_555
H7 Li4 1.899386 1_555
H8 Zn4 1.816383 1_555
H9 Zn5 1.816383 1_555
H10 Zn6 1.816383 1_555
H11 Zn7 1.816383 1_555
H12 Zn4 1.874460 1_555
H13 Zn5 1.874460 1_555
H14 Zn6 1.874460 1_555
H15 Zn7 1.874460 1_555
H16 Li3 2.091474 1_555
H17 Li2 2.091474 1_555
H18 Li1 2.091474 1_555
H19 Li0 2.091474 1_555
H20 Zn4 2.194845 1_555
H21 Zn5 2.194845 1_555
H22 Zn6 2.194845 1_555
H23 Zn7 2.194845 1_555
H24 Zn4 1.785117 1_555
H25 Zn5 1.785117 1_555
H26 Zn6 1.785117 1_555
H27 Zn7 1.785117 1_555
H28 Zn4 2.120933 1_655
H29 Zn5 2.120933 1_555
H30 Zn6 2.120933 1_455
H31 Zn7 2.120933 1_555
H32 Zn0 1.857294 1_555
H33 Zn1 1.857294 1_555
H34 Zn2 1.857294 1_555
H35 Zn3 1.857294 1_555
H36 Zn0 2.072507 1_555
H37 Zn1 2.072507 1_555
H38 Zn2 2.072507 1_555
H39 Zn3 2.072507 1_555
H40 Li0 1.939779 1_565
H41 Li1 1.939779 1_545
H42 Li2 1.939779 1_545
H43 Li3 1.939779 1_565
H44 Li4 2.034486 1_555
H45 Li5 2.034486 1_555
H46 Li6 2.034486 1_555
H47 Li7 2.034486 1_555
H48 Li2 2.047799 1_555
H49 Li3 2.047799 1_555
H50 Li0 2.047799 1_555
H51 Li1 2.047799 1_555
H52 Li4 1.966585 1_555
H53 Li5 1.966585 1_555
H54 Li6 1.966585 1_555
H55 Li7 1.966585 1_555
H56 Li2 2.005520 1_555
H57 Li3 2.005520 1_555
H58 Li0 2.005520 1_555
H59 Li1 2.005520 1_555
H60 Zn0 1.835891 1_555
H61 Zn1 1.835891 1_555
H62 Zn2 1.835891 1_555
H63 Zn3 1.835891 1_555
H68 Zn4 1.785550 1_555
H69 Zn5 1.785550 1_555
H70 Zn6 1.785550 1_555
H71 Zn7 1.785550 1_555
H72 Zn0 1.857580 1_555
H73 Zn1 1.857580 1_555
H74 Zn2 1.857580 1_555
H75 Zn3 1.857580 1_555
H84 Zn0 1.806939 1_555
H85 Zn1 1.806939 1_555
H86 Zn2 1.806939 1_555
H87 Zn3 1.806939 1_555
H88 Li3 1.991068 1_565
H88 Li7 2.166085 1_555
H89 Li2 1.991068 1_545
H89 Li6 2.166085 1_555
H90 Li1 1.991068 1_545
H90 Li5 2.166085 1_555
H91 Li0 1.991068 1_565
H91 Li4 2.166085 1_555
H92 Li7 2.035046 1_555
H93 Li6 2.035046 1_555
H94 Li5 2.035046 1_555
H95 Li4 2.035046 1_555
