# generated using pymatgen
data_CaSi4SnO10
_symmetry_space_group_name_H-M   'P 1'
_cell_length_a   7.56048200
_cell_length_b   7.56048200
_cell_length_c   15.97785700
_cell_angle_alpha   90.00000000
_cell_angle_beta   90.00000000
_cell_angle_gamma   90.00000000
_symmetry_Int_Tables_number   1
_chemical_formula_structural   CaSi4SnO10
_chemical_formula_sum   'Ca4 Si16 Sn4 O40'
_cell_volume   913.30849561
_cell_formula_units_Z   4
loop_
 _symmetry_equiv_pos_site_id
 _symmetry_equiv_pos_as_xyz
  1  'x, y, z'
loop_
 _atom_site_type_symbol
 _atom_site_label
 _atom_site_symmetry_multiplicity
 _atom_site_fract_x
 _atom_site_fract_y
 _atom_site_fract_z
 _atom_site_occupancy
  Ca  Ca0  1  0.50000000  0.50000000  0.50000000  1
  Ca  Ca1  1  0.00000000  0.00000000  0.50000000  1
  Ca  Ca2  1  0.00000000  0.00000000  0.00000000  1
  Ca  Ca3  1  0.50000000  0.50000000  0.00000000  1
  Si  Si0  1  0.15878600  0.24702000  0.65297900  1
  Si  Si1  1  0.84121400  0.75298000  0.65297900  1
  Si  Si2  1  0.24702000  0.15878600  0.84702100  1
  Si  Si3  1  0.74702000  0.34121400  0.65297900  1
  Si  Si4  1  0.25298000  0.65878600  0.65297900  1
  Si  Si5  1  0.34121400  0.74702000  0.84702100  1
  Si  Si6  1  0.65878600  0.25298000  0.84702100  1
  Si  Si7  1  0.75298000  0.84121400  0.84702100  1
  Si  Si8  1  0.34121400  0.25298000  0.34702100  1
  Si  Si9  1  0.65878600  0.74702000  0.34702100  1
  Si  Si10  1  0.25298000  0.34121400  0.15297900  1
  Si  Si11  1  0.75298000  0.15878600  0.34702100  1
  Si  Si12  1  0.24702000  0.84121400  0.34702100  1
  Si  Si13  1  0.15878600  0.75298000  0.15297900  1
  Si  Si14  1  0.84121400  0.24702000  0.15297900  1
  Si  Si15  1  0.74702000  0.65878600  0.15297900  1
  Sn  Sn0  1  0.50000000  0.00000000  0.54013900  1
  Sn  Sn1  1  0.00000000  0.50000000  0.95986100  1
  Sn  Sn2  1  0.00000000  0.50000000  0.45986100  1
  Sn  Sn3  1  0.50000000  0.00000000  0.04013900  1
  O  O0  1  0.23059300  0.10332700  0.58641000  1
  O  O1  1  0.76940700  0.89667300  0.58641000  1
  O  O2  1  0.10332700  0.23059300  0.91359000  1
  O  O3  1  0.60332700  0.26940700  0.58641000  1
  O  O4  1  0.39667300  0.73059300  0.58641000  1
  O  O5  1  0.26940700  0.60332700  0.91359000  1
  O  O6  1  0.73059300  0.39667300  0.91359000  1
  O  O7  1  0.89667300  0.76940700  0.91359000  1
  O  O8  1  0.26940700  0.39667300  0.41359000  1
  O  O9  1  0.73059300  0.60332700  0.41359000  1
  O  O10  1  0.39667300  0.26940700  0.08641000  1
  O  O11  1  0.89667300  0.23059300  0.41359000  1
  O  O12  1  0.10332700  0.76940700  0.41359000  1
  O  O13  1  0.23059300  0.89667300  0.08641000  1
  O  O14  1  0.76940700  0.10332700  0.08641000  1
  O  O15  1  0.25626800  0.05617500  0.36467700  1
  O  O16  1  0.60332700  0.73059300  0.08641000  1
  O  O17  1  0.75626800  0.55617500  0.63532300  1
  O  O18  1  0.44382500  0.24373200  0.86467700  1
  O  O19  1  0.94382500  0.25626800  0.63532300  1
  O  O20  1  0.05617500  0.74373200  0.63532300  1
  O  O21  1  0.25626800  0.94382500  0.86467700  1
  O  O22  1  0.74373200  0.05617500  0.86467700  1
  O  O23  1  0.55617500  0.75626800  0.86467700  1
  O  O24  1  0.69434900  0.69434900  0.25000000  1
  O  O25  1  0.80565100  0.19434900  0.25000000  1
  O  O26  1  0.19434900  0.80565100  0.25000000  1
  O  O27  1  0.30565100  0.30565100  0.25000000  1
  O  O28  1  0.80565100  0.80565100  0.75000000  1
  O  O29  1  0.69434900  0.30565100  0.75000000  1
  O  O30  1  0.30565100  0.69434900  0.75000000  1
  O  O31  1  0.19434900  0.19434900  0.75000000  1
  O  O32  1  0.94382500  0.74373200  0.13532300  1
  O  O33  1  0.75626800  0.44382500  0.13532300  1
  O  O34  1  0.24373200  0.55617500  0.13532300  1
  O  O35  1  0.44382500  0.75626800  0.36467700  1
  O  O36  1  0.55617500  0.24373200  0.36467700  1
  O  O37  1  0.05617500  0.25626800  0.13532300  1
  O  O38  1  0.74373200  0.94382500  0.36467700  1
  O  O39  1  0.24373200  0.44382500  0.63532300  1
loop_
_geom_bond_atom_site_label_1
_geom_bond_atom_site_label_2
_geom_bond_distance
_geom_bond_site_symmetry_2
Ca0 O3 2.357092 1_555
Ca0 O9 2.357092 1_555
Ca0 O4 2.357092 1_555
Ca0 O8 2.357092 1_555
Ca0 O39 2.934162 1_555
Ca0 O17 2.934162 1_555
Ca0 O36 2.934162 1_555
Ca0 O35 2.934162 1_555
Ca1 O11 2.357092 1_455
Ca1 O1 2.357092 1_445
Ca1 O12 2.357092 1_545
Ca1 O0 2.357092 1_555
Ca1 O20 2.934162 1_545
Ca1 O19 2.934162 1_455
Ca1 O38 2.934162 1_445
Ca1 O15 2.934162 1_555
Ca2 O2 2.357092 1_554
Ca2 O7 2.357092 1_444
Ca2 O13 2.357092 1_545
Ca2 O14 2.357092 1_455
Ca2 O37 2.934162 1_555
Ca2 O21 2.934162 1_544
Ca2 O22 2.934162 1_454
Ca2 O32 2.934162 1_445
Ca3 O5 2.357092 1_554
Ca3 O6 2.357092 1_554
Ca3 O16 2.357092 1_555
Ca3 O10 2.357092 1_555
Ca3 O23 2.934162 1_554
Ca3 O34 2.934162 1_555
Ca3 O18 2.934162 1_554
Ca3 O33 2.934162 1_555
O0 Si0 1.614399 1_555
O0 Sn0 2.303389 1_555
O1 Si1 1.614399 1_555
O1 Sn0 2.303389 1_565
O2 Si2 1.614399 1_555
O2 Sn1 2.303389 1_555
O3 Si3 1.614399 1_555
O3 Sn0 2.303389 1_555
O4 Si4 1.614399 1_555
O4 Sn0 2.303389 1_565
O5 Si5 1.614399 1_555
O5 Sn1 2.303389 1_555
O6 Si6 1.614399 1_555
O6 Sn1 2.303389 1_655
O7 Si7 1.614399 1_555
O7 Sn1 2.303389 1_655
O8 Si8 1.614399 1_555
O8 Sn2 2.303389 1_555
O9 Si9 1.614399 1_555
O9 Sn2 2.303389 1_655
O10 Si10 1.614399 1_555
O10 Sn3 2.303389 1_555
O11 Si11 1.614399 1_555
O11 Sn2 2.303389 1_655
O12 Si12 1.614399 1_555
O12 Sn2 2.303389 1_555
O13 Si13 1.614399 1_555
O13 Sn3 2.303389 1_565
O14 Si14 1.614399 1_555
O14 Sn3 2.303389 1_555
O15 Si8 1.644997 1_555
O15 Si12 1.650992 1_545
O16 Si15 1.614399 1_555
O16 Sn3 2.303389 1_565
O17 Si1 1.644997 1_555
O17 Si3 1.650992 1_555
O18 Si2 1.644997 1_555
O18 Si6 1.650992 1_555
O19 Si3 1.644997 1_555
O19 Si0 1.650992 1_655
O20 Si4 1.644997 1_555
O20 Si1 1.650992 1_455
O21 Si5 1.644997 1_555
O21 Si2 1.650992 1_565
O22 Si6 1.644997 1_555
O22 Si7 1.650992 1_545
O23 Si7 1.644997 1_555
O23 Si5 1.650992 1_555
O24 Si15 1.622946 1_555
O24 Si9 1.622946 1_555
O25 Si14 1.622946 1_555
O25 Si11 1.622946 1_555
O26 Si13 1.622946 1_555
O26 Si12 1.622946 1_555
O27 Si10 1.622946 1_555
O27 Si8 1.622946 1_555
O28 Si1 1.622946 1_555
O28 Si7 1.622946 1_555
O29 Si6 1.622946 1_555
O29 Si3 1.622946 1_555
O30 Si4 1.622946 1_555
O30 Si5 1.622946 1_555
O31 Si0 1.622946 1_555
O31 Si2 1.622946 1_555
O32 Si15 1.644997 1_555
O32 Si13 1.650992 1_655
O33 Si14 1.644997 1_555
O33 Si15 1.650992 1_555
O34 Si13 1.644997 1_555
O34 Si10 1.650992 1_555
O35 Si12 1.644997 1_555
O35 Si9 1.650992 1_555
O36 Si11 1.644997 1_555
O36 Si8 1.650992 1_555
O37 Si10 1.644997 1_555
O37 Si14 1.650992 1_455
O38 Si9 1.644997 1_555
O38 Si11 1.650992 1_565
O39 Si0 1.644997 1_555
O39 Si4 1.650992 1_555
