# generated using pymatgen
data_MnZn2SbO6
_symmetry_space_group_name_H-M   'P 1'
_cell_length_a   5.36751896
_cell_length_b   10.64147836
_cell_length_c   7.66834200
_cell_angle_alpha   90.00053295
_cell_angle_beta   90.00027212
_cell_angle_gamma   93.86371889
_symmetry_Int_Tables_number   1
_chemical_formula_structural   MnZn2SbO6
_chemical_formula_sum   'Mn4 Zn8 Sb4 O24'
_cell_volume   437.00742568
_cell_formula_units_Z   4
loop_
 _symmetry_equiv_pos_site_id
 _symmetry_equiv_pos_as_xyz
  1  'x, y, z'
loop_
 _atom_site_type_symbol
 _atom_site_label
 _atom_site_symmetry_multiplicity
 _atom_site_fract_x
 _atom_site_fract_y
 _atom_site_fract_z
 _atom_site_occupancy
  Mn  Mn0  1  0.50001900  0.50004300  0.50003300  1
  Mn  Mn1  1  0.50014500  0.49997500  0.99999700  1
  Mn  Mn2  1  0.49984200  0.00003500  0.49997300  1
  Mn  Mn3  1  0.49989200  0.99992200  0.00021200  1
  Zn  Zn0  1  0.52137800  0.27645600  0.75000100  1
  Zn  Zn1  1  0.52137000  0.77648900  0.74997200  1
  Zn  Zn2  1  0.47868100  0.22355600  0.24997500  1
  Zn  Zn3  1  0.47863600  0.72348500  0.25000100  1
  Zn  Zn4  1  0.04099500  0.00699600  0.74998800  1
  Zn  Zn5  1  0.04093500  0.50701200  0.74998200  1
  Zn  Zn6  1  0.95898200  0.49301200  0.24998200  1
  Zn  Zn7  1  0.95903900  0.99299500  0.24998300  1
  Sb  Sb0  1  0.00006000  0.25002200  0.49998500  1
  Sb  Sb1  1  0.00002600  0.75001500  0.49998400  1
  Sb  Sb2  1  0.99998900  0.24999500  0.99997400  1
  Sb  Sb3  1  0.99996000  0.74999000  0.99997500  1
  O  O0  1  0.87133100  0.29472600  0.24998900  1
  O  O1  1  0.87132200  0.79472500  0.24998800  1
  O  O2  1  0.12868400  0.20527400  0.74998900  1
  O  O3  1  0.12868000  0.70526800  0.74998800  1
  O  O4  1  0.39907500  0.45919900  0.74999500  1
  O  O5  1  0.39909500  0.95920300  0.75001400  1
  O  O6  1  0.60093900  0.04081300  0.25001800  1
  O  O7  1  0.60090500  0.54079900  0.24998900  1
  O  O8  1  0.33037300  0.33875300  0.43664700  1
  O  O9  1  0.33035000  0.83872200  0.43663900  1
  O  O10  1  0.66964900  0.16126100  0.93666700  1
  O  O11  1  0.66963700  0.66124400  0.93663100  1
  O  O12  1  0.33033100  0.33871400  0.06336100  1
  O  O13  1  0.33031100  0.83868700  0.06340300  1
  O  O14  1  0.66968200  0.16129100  0.56337300  1
  O  O15  1  0.66968600  0.66129400  0.56334800  1
  O  O16  1  0.15559000  0.09608600  0.07058400  1
  O  O17  1  0.15557400  0.59608900  0.07057800  1
  O  O18  1  0.84442100  0.40392100  0.57057500  1
  O  O19  1  0.84442000  0.90391900  0.57056900  1
  O  O20  1  0.15559100  0.09609100  0.42940200  1
  O  O21  1  0.15557600  0.59609600  0.42940800  1
  O  O22  1  0.84441300  0.40391500  0.92940900  1
  O  O23  1  0.84441800  0.90391000  0.92941800  1
loop_
_geom_bond_atom_site_label_1
_geom_bond_atom_site_label_2
_geom_bond_distance
_geom_bond_site_symmetry_2
Mn0 O15 1.949089 1_555
Mn0 O8 1.949531 1_555
Mn0 O4 2.030977 1_555
Mn0 O7 2.031309 1_555
Mn0 O21 2.238491 1_555
Mn0 O18 2.238525 1_555
Mn1 O11 1.948977 1_555
Mn1 O12 1.949605 1_556
Mn1 O7 2.030891 1_556
Mn1 O4 2.031283 1_555
Mn1 O22 2.237655 1_555
Mn1 O17 2.239330 1_556
Mn2 O9 1.949303 1_545
Mn2 O14 1.949676 1_555
Mn2 O6 2.030996 1_555
Mn2 O5 2.031257 1_545
Mn2 O20 2.237524 1_555
Mn2 O19 2.239401 1_545
Mn3 O13 1.948530 1_555
Mn3 O10 1.950531 1_564
Mn3 O6 2.030073 1_565
Mn3 O5 2.032214 1_554
Mn3 O16 2.237979 1_565
Mn3 O23 2.238963 1_554
O0 Sb0 2.103123 1_655
O0 Sb2 2.103194 1_554
O0 Zn6 2.130702 1_555
O0 Zn2 2.190951 1_555
O1 Sb1 2.103093 1_655
O1 Sb3 2.103154 1_554
O1 Zn7 2.130591 1_555
O1 Zn3 2.191342 1_555
O2 Sb2 2.103026 1_455
O2 Sb0 2.103102 1_555
O2 Zn4 2.130651 1_555
O2 Zn0 2.191209 1_555
O3 Sb3 2.103089 1_455
O3 Sb1 2.103154 1_555
O3 Zn5 2.130469 1_555
O3 Zn1 2.191305 1_555
O4 Zn5 2.021390 1_555
O4 Zn0 2.093961 1_555
O5 Zn4 2.021115 1_565
O5 Zn1 2.093612 1_555
O6 Zn7 2.021199 1_545
O6 Zn2 2.093870 1_555
O7 Zn6 2.020975 1_555
O7 Zn3 2.093316 1_555
O8 Sb0 2.011285 1_555
O8 Zn2 2.077744 1_555
O9 Sb1 2.011244 1_555
O9 Zn3 2.077776 1_555
O10 Sb2 2.011356 1_555
O10 Zn0 2.077625 1_555
O11 Sb3 2.011399 1_555
O11 Zn1 2.077907 1_555
O12 Sb2 2.011448 1_454
O12 Zn2 2.077288 1_555
O13 Sb3 2.011469 1_454
O13 Zn3 2.077435 1_555
O14 Sb0 2.011674 1_655
O14 Zn0 2.077292 1_555
O15 Sb1 2.011413 1_655
O15 Zn1 2.077495 1_555
O16 Sb2 1.964061 1_454
O16 Zn7 2.013232 1_445
O17 Sb3 1.964007 1_454
O17 Zn6 2.013289 1_455
O18 Sb0 1.964019 1_655
O18 Zn5 2.013156 1_655
O19 Sb1 1.963969 1_655
O19 Zn4 2.013303 1_665
O20 Sb0 1.964019 1_555
O20 Zn7 2.013346 1_445
O21 Sb1 1.963943 1_555
O21 Zn6 2.013427 1_455
O22 Sb2 1.964002 1_555
O22 Zn5 2.013335 1_655
O23 Sb3 1.963898 1_555
O23 Zn4 2.013435 1_665
