# generated using pymatgen
data_Ba10Pr2Y3(Cu3O7)5
_symmetry_space_group_name_H-M   'P 1'
_cell_length_a   3.88100100
_cell_length_b   3.94393900
_cell_length_c   59.08756600
_cell_angle_alpha   90.00000000
_cell_angle_beta   90.00000000
_cell_angle_gamma   90.00000000
_symmetry_Int_Tables_number   1
_chemical_formula_structural   Ba10Pr2Y3(Cu3O7)5
_chemical_formula_sum   'Ba10 Pr2 Y3 Cu15 O35'
_cell_volume   904.41976393
_cell_formula_units_Z   1
loop_
 _symmetry_equiv_pos_site_id
 _symmetry_equiv_pos_as_xyz
  1  'x, y, z'
loop_
 _atom_site_type_symbol
 _atom_site_label
 _atom_site_symmetry_multiplicity
 _atom_site_fract_x
 _atom_site_fract_y
 _atom_site_fract_z
 _atom_site_occupancy
  Ba  Ba0  1  0.50000000  0.50000000  0.13632000  1
  Ba  Ba1  1  0.50000000  0.50000000  0.93605700  1
  Ba  Ba2  1  0.50000000  0.50000000  0.73630200  1
  Ba  Ba3  1  0.50000000  0.50000000  0.53580800  1
  Ba  Ba4  1  0.50000000  0.50000000  0.33575900  1
  Ba  Ba5  1  0.50000000  0.50000000  0.26369800  1
  Ba  Ba6  1  0.50000000  0.50000000  0.06394300  1
  Ba  Ba7  1  0.50000000  0.50000000  0.86368000  1
  Ba  Ba8  1  0.50000000  0.50000000  0.66424100  1
  Ba  Ba9  1  0.50000000  0.50000000  0.46419200  1
  Pr  Pr0  1  0.50000000  0.50000000  0.60001000  1
  Pr  Pr1  1  0.50000000  0.50000000  0.39999000  1
  Y  Y0  1  0.50000000  0.50000000  0.19990600  1
  Y  Y1  1  0.50000000  0.50000000  0.00000000  1
  Y  Y2  1  0.50000000  0.50000000  0.80009400  1
  Cu  Cu0  1  0.00000000  0.00000000  0.17040900  1
  Cu  Cu1  1  0.00000000  0.00000000  0.97035000  1
  Cu  Cu2  1  0.00000000  0.00000000  0.77041900  1
  Cu  Cu3  1  0.00000000  0.00000000  0.56891600  1
  Cu  Cu4  1  0.00000000  0.00000000  0.36892700  1
  Cu  Cu5  1  0.00000000  0.00000000  0.22958100  1
  Cu  Cu6  1  0.00000000  0.00000000  0.02965000  1
  Cu  Cu7  1  0.00000000  0.00000000  0.82959100  1
  Cu  Cu8  1  0.00000000  0.00000000  0.63107300  1
  Cu  Cu9  1  0.00000000  0.00000000  0.43108400  1
  Cu  Cu10  1  0.00000000  0.00000000  0.29975000  1
  Cu  Cu11  1  0.00000000  0.00000000  0.09994200  1
  Cu  Cu12  1  0.00000000  0.00000000  0.90005800  1
  Cu  Cu13  1  0.00000000  0.00000000  0.70025000  1
  Cu  Cu14  1  0.00000000  0.00000000  0.50000000  1
  O  O0  1  0.00000000  0.00000000  0.13171300  1
  O  O1  1  0.00000000  0.00000000  0.93175500  1
  O  O2  1  0.00000000  0.00000000  0.73187900  1
  O  O3  1  0.00000000  0.00000000  0.53152300  1
  O  O4  1  0.00000000  0.00000000  0.33136300  1
  O  O5  1  0.00000000  0.00000000  0.26812100  1
  O  O6  1  0.00000000  0.00000000  0.06824500  1
  O  O7  1  0.00000000  0.00000000  0.86828700  1
  O  O8  1  0.00000000  0.00000000  0.66863700  1
  O  O9  1  0.00000000  0.00000000  0.46847700  1
  O  O10  1  0.00000000  0.50000000  0.17558500  1
  O  O11  1  0.00000000  0.50000000  0.97554700  1
  O  O12  1  0.00000000  0.50000000  0.77556600  1
  O  O13  1  0.00000000  0.50000000  0.57375900  1
  O  O14  1  0.00000000  0.50000000  0.37373500  1
  O  O15  1  0.00000000  0.50000000  0.22443400  1
  O  O16  1  0.00000000  0.50000000  0.02445300  1
  O  O17  1  0.00000000  0.50000000  0.82441500  1
  O  O18  1  0.00000000  0.50000000  0.62626500  1
  O  O19  1  0.00000000  0.50000000  0.42624100  1
  O  O20  1  0.00000000  0.50000000  0.10001900  1
  O  O21  1  0.00000000  0.50000000  0.89998100  1
  O  O22  1  0.00000000  0.50000000  0.70031600  1
  O  O23  1  0.00000000  0.50000000  0.50000000  1
  O  O24  1  0.00000000  0.50000000  0.29968400  1
  O  O25  1  0.50000000  0.00000000  0.17577000  1
  O  O26  1  0.50000000  0.00000000  0.97574000  1
  O  O27  1  0.50000000  0.00000000  0.77575100  1
  O  O28  1  0.50000000  0.00000000  0.57395000  1
  O  O29  1  0.50000000  0.00000000  0.37392200  1
  O  O30  1  0.50000000  0.00000000  0.22424900  1
  O  O31  1  0.50000000  0.00000000  0.02426000  1
  O  O32  1  0.50000000  0.00000000  0.82423000  1
  O  O33  1  0.50000000  0.00000000  0.62607800  1
  O  O34  1  0.50000000  0.00000000  0.42605000  1
loop_
_geom_bond_atom_site_label_1
_geom_bond_atom_site_label_2
_geom_bond_distance
_geom_bond_site_symmetry_2
Ba0 O0 2.779983 1_555
Ba0 O0 2.779983 1_655
Ba0 O0 2.779983 1_565
Ba0 O0 2.779983 1_665
Ba0 O20 2.892456 1_555
Ba0 O20 2.892456 1_655
Ba0 O10 3.024613 1_655
Ba0 O10 3.024613 1_555
Ba0 O25 3.053235 1_555
Ba0 O25 3.053235 1_565
Ba1 O1 2.778277 1_555
Ba1 O1 2.778277 1_655
Ba1 O1 2.778277 1_565
Ba1 O1 2.778277 1_665
Ba1 O21 2.882611 1_555
Ba1 O21 2.882611 1_655
Ba1 O11 3.034823 1_555
Ba1 O11 3.034823 1_655
Ba1 O26 3.063759 1_555
Ba1 O26 3.063759 1_565
Ba2 O2 2.778940 1_565
Ba2 O2 2.778940 1_655
Ba2 O2 2.778940 1_665
Ba2 O2 2.778940 1_555
Ba2 O22 2.878680 1_655
Ba2 O22 2.878680 1_555
Ba2 O12 3.024567 1_555
Ba2 O12 3.024567 1_655
Ba2 O27 3.053190 1_565
Ba2 O27 3.053190 1_555
Ba3 O3 2.778185 1_565
Ba3 O3 2.778185 1_665
Ba3 O3 2.778185 1_655
Ba3 O3 2.778185 1_555
Ba3 O23 2.870920 1_655
Ba3 O23 2.870920 1_555
Ba3 O13 2.965475 1_555
Ba3 O13 2.965475 1_655
Ba3 O28 2.994647 1_565
Ba3 O28 2.994647 1_555
Ba4 O4 2.778790 1_665
Ba4 O4 2.778790 1_555
Ba4 O4 2.778790 1_655
Ba4 O4 2.778790 1_565
Ba4 O24 2.882567 1_555
Ba4 O24 2.882567 1_655
Ba4 O14 2.966593 1_655
Ba4 O14 2.966593 1_555
Ba4 O29 2.995581 1_555
Ba4 O29 2.995581 1_565
Ba5 O5 2.778940 1_555
Ba5 O5 2.778940 1_655
Ba5 O5 2.778940 1_565
Ba5 O5 2.778940 1_665
Ba5 O24 2.878680 1_555
Ba5 O24 2.878680 1_655
Ba5 O15 3.024567 1_655
Ba5 O15 3.024567 1_555
Ba5 O30 3.053190 1_565
Ba5 O30 3.053190 1_555
Ba6 O6 2.778277 1_655
Ba6 O6 2.778277 1_565
Ba6 O6 2.778277 1_665
Ba6 O6 2.778277 1_555
Ba6 O20 2.882611 1_555
Ba6 O20 2.882611 1_655
Ba6 O16 3.034823 1_555
Ba6 O16 3.034823 1_655
Ba6 O31 3.063759 1_555
Ba6 O31 3.063759 1_565
Ba7 O7 2.779983 1_565
Ba7 O7 2.779983 1_555
Ba7 O7 2.779983 1_655
Ba7 O7 2.779983 1_665
Ba7 O21 2.892456 1_555
Ba7 O21 2.892456 1_655
Ba7 O17 3.024613 1_655
Ba7 O17 3.024613 1_555
Ba7 O32 3.053235 1_555
Ba7 O32 3.053235 1_565
Ba8 O8 2.778790 1_555
Ba8 O8 2.778790 1_565
Ba8 O8 2.778790 1_655
Ba8 O8 2.778790 1_665
Ba8 O22 2.882567 1_555
Ba8 O22 2.882567 1_655
Ba8 O18 2.966593 1_555
Ba8 O18 2.966593 1_655
Ba8 O33 2.995581 1_565
Ba8 O33 2.995581 1_555
Ba9 O9 2.778185 1_565
Ba9 O9 2.778185 1_655
Ba9 O9 2.778185 1_665
Ba9 O9 2.778185 1_555
Ba9 O23 2.870920 1_655
Ba9 O23 2.870920 1_555
Ba9 O19 2.965475 1_655
Ba9 O19 2.965475 1_555
Ba9 O34 2.994647 1_565
Ba9 O34 2.994647 1_555
Cu0 O25 1.966185 1_555
Cu0 O25 1.966185 1_455
Cu0 O10 1.995545 1_545
Cu0 O10 1.995545 1_555
Cu0 O0 2.286452 1_555
Cu1 O26 1.966462 1_555
Cu1 O26 1.966462 1_455
Cu1 O11 1.995736 1_545
Cu1 O11 1.995736 1_555
Cu1 O1 2.280485 1_555
Cu2 O27 1.965910 1_455
Cu2 O27 1.965910 1_555
Cu2 O12 1.995283 1_545
Cu2 O12 1.995283 1_555
Cu2 O2 2.277235 1_555
Cu3 O28 1.963165 1_555
Cu3 O28 1.963165 1_455
Cu3 O13 1.992624 1_555
Cu3 O13 1.992624 1_545
Cu3 O3 2.209461 1_555
Cu4 O29 1.962817 1_455
Cu4 O29 1.962817 1_555
Cu4 O14 1.992328 1_555
Cu4 O14 1.992328 1_545
Cu4 O4 2.219565 1_555
Cu5 O30 1.965910 1_455
Cu5 O30 1.965910 1_555
Cu5 O15 1.995283 1_545
Cu5 O15 1.995283 1_555
Cu5 O5 2.277235 1_555
Cu6 O31 1.966462 1_455
Cu6 O31 1.966462 1_555
Cu6 O16 1.995736 1_555
Cu6 O16 1.995736 1_545
Cu6 O6 2.280485 1_555
Cu7 O32 1.966185 1_555
Cu7 O32 1.966185 1_455
Cu7 O17 1.995545 1_545
Cu7 O17 1.995545 1_555
Cu7 O7 2.286452 1_555
Cu8 O33 1.962817 1_555
Cu8 O33 1.962817 1_455
Cu8 O18 1.992328 1_555
Cu8 O18 1.992328 1_545
Cu8 O8 2.219565 1_555
Cu9 O34 1.963165 1_455
Cu9 O34 1.963165 1_555
Cu9 O19 1.992624 1_555
Cu9 O19 1.992624 1_545
Cu9 O9 2.209461 1_555
Cu10 O4 1.867935 1_555
Cu10 O5 1.868881 1_555
Cu10 O24 1.971973 1_545
Cu10 O24 1.971973 1_555
Cu11 O6 1.872899 1_555
Cu11 O0 1.877271 1_555
Cu11 O20 1.971975 1_555
Cu11 O20 1.971975 1_545
Cu12 O1 1.872899 1_555
Cu12 O7 1.877271 1_555
Cu12 O21 1.971975 1_555
Cu12 O21 1.971975 1_545
Cu13 O8 1.867935 1_555
Cu13 O2 1.868881 1_555
Cu13 O22 1.971973 1_545
Cu13 O22 1.971973 1_555
Cu14 O3 1.862617 1_555
Cu14 O9 1.862617 1_555
Cu14 O23 1.971969 1_545
Cu14 O23 1.971969 1_555
O10 Y0 2.414686 1_455
O10 Y0 2.414686 1_555
O11 Y1 2.419336 1_456
O11 Y1 2.419336 1_556
O12 Y2 2.421985 1_555
O12 Y2 2.421985 1_455
O13 Pr0 2.484246 1_555
O13 Pr0 2.484246 1_455
O14 Pr1 2.484393 1_555
O14 Pr1 2.484393 1_455
O15 Y0 2.421985 1_455
O15 Y0 2.421985 1_555
O16 Y1 2.419336 1_455
O16 Y1 2.419336 1_555
O17 Y2 2.414686 1_555
O17 Y2 2.414686 1_455
O18 Pr0 2.484393 1_455
O18 Pr0 2.484393 1_555
O19 Pr1 2.484246 1_555
O19 Pr1 2.484246 1_455
O25 Y0 2.433625 1_545
O25 Y0 2.433625 1_555
O26 Y1 2.437926 1_546
O26 Y1 2.437926 1_556
O27 Y2 2.440813 1_545
O27 Y2 2.440813 1_555
O28 Pr0 2.501942 1_545
O28 Pr0 2.501942 1_555
O29 Pr1 2.502233 1_545
O29 Pr1 2.502233 1_555
O30 Y0 2.440813 1_545
O30 Y0 2.440813 1_555
O31 Y1 2.437926 1_555
O31 Y1 2.437926 1_545
O32 Y2 2.433625 1_555
O32 Y2 2.433625 1_545
O33 Pr0 2.502233 1_545
O33 Pr0 2.502233 1_555
O34 Pr1 2.501942 1_545
O34 Pr1 2.501942 1_555
