# generated using pymatgen
data_LiMn4(CoO6)2
_symmetry_space_group_name_H-M   'P 1'
_cell_length_a   5.07214096
_cell_length_b   5.06386302
_cell_length_c   10.23653615
_cell_angle_alpha   89.97263085
_cell_angle_beta   91.71000676
_cell_angle_gamma   59.90566980
_symmetry_Int_Tables_number   1
_chemical_formula_structural   LiMn4(CoO6)2
_chemical_formula_sum   'Li1 Mn4 Co2 O12'
_cell_volume   227.34250511
_cell_formula_units_Z   1
loop_
 _symmetry_equiv_pos_site_id
 _symmetry_equiv_pos_as_xyz
  1  'x, y, z'
loop_
 _atom_site_type_symbol
 _atom_site_label
 _atom_site_symmetry_multiplicity
 _atom_site_fract_x
 _atom_site_fract_y
 _atom_site_fract_z
 _atom_site_occupancy
  Li  Li0  1  0.49866200  0.84405800  0.25002000  1
  Mn  Mn0  1  0.33653500  0.32869400  0.99863600  1
  Mn  Mn1  1  0.33237300  0.83477300  0.50841000  1
  Mn  Mn2  1  0.66344800  0.16601600  0.50127700  1
  Mn  Mn3  1  0.66763200  0.66765900  0.99157600  1
  Co  Co0  1  0.00206100  0.99979500  0.99514500  1
  Co  Co1  1  0.99709300  0.50235600  0.50487600  1
  O  O0  1  0.00117000  0.16343600  0.59646900  1
  O  O1  1  0.00798100  0.33250800  0.09171100  1
  O  O2  1  0.99850700  0.66501200  0.90360100  1
  O  O3  1  0.33867100  0.00807900  0.89847600  1
  O  O4  1  0.99320400  0.84024700  0.40827300  1
  O  O5  1  0.33911200  0.14827500  0.40186600  1
  O  O6  1  0.34271800  0.49261500  0.59739300  1
  O  O7  1  0.34833300  0.66599000  0.09447100  1
  O  O8  1  0.65880700  0.98677400  0.09871200  1
  O  O9  1  0.65977300  0.33312200  0.90321600  1
  O  O10  1  0.64969400  0.51427800  0.40499800  1
  O  O11  1  0.66422700  0.84381400  0.60087400  1
loop_
_geom_bond_atom_site_label_1
_geom_bond_atom_site_label_2
_geom_bond_distance
_geom_bond_site_symmetry_2
Li0 O8 2.060048 1_555
Li0 O5 2.066713 1_565
Li0 O10 2.129414 1_555
Li0 O7 2.132665 1_555
Mn0 O3 1.916212 1_555
Mn0 O1 1.935915 1_556
Mn0 O2 1.938306 1_455
Mn0 O9 1.942934 1_555
Mn0 O8 1.944056 1_546
Mn0 O7 1.995974 1_556
Mn1 O0 1.921593 1_565
Mn1 O11 1.927022 1_555
Mn1 O6 1.933640 1_555
Mn1 O5 1.940596 1_565
Mn1 O10 1.956726 1_555
Mn1 O4 1.964152 1_455
Mn2 O11 1.921779 1_545
Mn2 O6 1.936146 1_555
Mn2 O4 1.937712 1_545
Mn2 O0 1.939562 1_655
Mn2 O5 1.948923 1_555
Mn2 O10 1.989264 1_555
Mn3 O3 1.919096 1_565
Mn3 O2 1.922328 1_555
Mn3 O8 1.936014 1_556
Mn3 O9 1.938181 1_555
Mn3 O7 1.961604 1_556
Mn3 O1 1.966146 1_656
Co0 O9 1.926383 1_465
Co0 O2 1.945161 1_455
Co0 O1 1.966516 1_566
Co0 O7 1.972379 1_556
Co0 O3 2.017073 1_565
Co0 O8 2.093971 1_456
Co1 O6 1.945947 1_655
Co1 O0 1.945950 1_655
Co1 O4 1.967049 1_555
Co1 O10 1.984828 1_555
Co1 O11 1.994734 1_555
Co1 O5 2.080355 1_655
