# generated using pymatgen
data_Ba4Y2Cu5PdO14
_symmetry_space_group_name_H-M   'P 1'
_cell_length_a   3.83193400
_cell_length_b   3.94887200
_cell_length_c   24.02141300
_cell_angle_alpha   90.00000000
_cell_angle_beta   90.00000000
_cell_angle_gamma   90.00000000
_symmetry_Int_Tables_number   1
_chemical_formula_structural   Ba4Y2Cu5PdO14
_chemical_formula_sum   'Ba4 Y2 Cu5 Pd1 O14'
_cell_volume   363.48762268
_cell_formula_units_Z   1
loop_
 _symmetry_equiv_pos_site_id
 _symmetry_equiv_pos_as_xyz
  1  'x, y, z'
loop_
 _atom_site_type_symbol
 _atom_site_label
 _atom_site_symmetry_multiplicity
 _atom_site_fract_x
 _atom_site_fract_y
 _atom_site_fract_z
 _atom_site_occupancy
  Ba  Ba0  1  0.50000000  0.50000000  0.08979700  1
  Ba  Ba1  1  0.50000000  0.50000000  0.59419900  1
  Ba  Ba2  1  0.50000000  0.50000000  0.40580100  1
  Ba  Ba3  1  0.50000000  0.50000000  0.91020300  1
  Y  Y0  1  0.50000000  0.50000000  0.24841600  1
  Y  Y1  1  0.50000000  0.50000000  0.75158400  1
  Cu  Cu0  1  0.00000000  0.00000000  0.17669500  1
  Cu  Cu1  1  0.00000000  0.00000000  0.67937300  1
  Cu  Cu2  1  0.00000000  0.00000000  0.32062700  1
  Cu  Cu3  1  0.00000000  0.00000000  0.82330500  1
  Cu  Cu4  1  0.00000000  0.00000000  0.00000000  1
  Pd  Pd0  1  0.00000000  0.00000000  0.50000000  1
  O  O0  1  0.00000000  0.00000000  0.07821300  1
  O  O1  1  0.00000000  0.00000000  0.58513800  1
  O  O2  1  0.00000000  0.00000000  0.41486200  1
  O  O3  1  0.00000000  0.00000000  0.92178700  1
  O  O4  1  0.00000000  0.50000000  0.00000000  1
  O  O5  1  0.00000000  0.50000000  0.50000000  1
  O  O6  1  0.50000000  0.00000000  0.18952500  1
  O  O7  1  0.50000000  0.00000000  0.69264400  1
  O  O8  1  0.50000000  0.00000000  0.30735600  1
  O  O9  1  0.50000000  0.00000000  0.81047500  1
  O  O10  1  0.00000000  0.50000000  0.18860600  1
  O  O11  1  0.00000000  0.50000000  0.69085100  1
  O  O12  1  0.00000000  0.50000000  0.30914900  1
  O  O13  1  0.00000000  0.50000000  0.81139400  1
loop_
_geom_bond_atom_site_label_1
_geom_bond_atom_site_label_2
_geom_bond_distance
_geom_bond_site_symmetry_2
Ba0 O0 2.765277 1_665
Ba0 O0 2.765277 1_555
Ba0 O0 2.765277 1_565
Ba0 O0 2.765277 1_655
Ba0 O4 2.885099 1_655
Ba0 O4 2.885099 1_555
Ba0 O10 3.050341 1_655
Ba0 O10 3.050341 1_555
Ba0 O6 3.104405 1_565
Ba0 O6 3.104405 1_555
Ba1 O1 2.759837 1_555
Ba1 O1 2.759837 1_565
Ba1 O1 2.759837 1_655
Ba1 O1 2.759837 1_665
Ba1 O5 2.964989 1_655
Ba1 O5 2.964989 1_555
Ba1 O11 3.010200 1_655
Ba1 O11 3.010200 1_555
Ba1 O7 3.080685 1_555
Ba1 O7 3.080685 1_565
Ba2 O2 2.759837 1_555
Ba2 O2 2.759837 1_665
Ba2 O2 2.759837 1_655
Ba2 O2 2.759837 1_565
Ba2 O5 2.964989 1_555
Ba2 O5 2.964989 1_655
Ba2 O12 3.010200 1_555
Ba2 O12 3.010200 1_655
Ba2 O8 3.080685 1_555
Ba2 O8 3.080685 1_565
Ba3 O3 2.765277 1_655
Ba3 O3 2.765277 1_665
Ba3 O3 2.765277 1_565
Ba3 O3 2.765277 1_555
Ba3 O4 2.885099 1_656
Ba3 O4 2.885099 1_556
Ba3 O13 3.050341 1_555
Ba3 O13 3.050341 1_655
Ba3 O9 3.104405 1_555
Ba3 O9 3.104405 1_565
Cu0 O6 1.940596 1_555
Cu0 O6 1.940596 1_455
Cu0 O10 1.995059 1_555
Cu0 O10 1.995059 1_545
Cu0 O0 2.365677 1_555
Cu1 O7 1.942307 1_455
Cu1 O7 1.942307 1_555
Cu1 O11 1.993594 1_555
Cu1 O11 1.993594 1_545
Cu1 O1 2.263658 1_555
Cu2 O8 1.942307 1_555
Cu2 O8 1.942307 1_455
Cu2 O12 1.993594 1_545
Cu2 O12 1.993594 1_555
Cu2 O2 2.263658 1_555
Cu3 O9 1.940596 1_455
Cu3 O9 1.940596 1_555
Cu3 O13 1.995059 1_555
Cu3 O13 1.995059 1_545
Cu3 O3 2.365677 1_555
Cu4 O0 1.878787 1_555
Cu4 O3 1.878787 1_554
Cu4 O4 1.974436 1_555
Cu4 O4 1.974436 1_545
O1 Pd0 2.045135 1_555
O2 Pd0 2.045135 1_555
O5 Pd0 1.974436 1_565
O5 Pd0 1.974436 1_555
O6 Y0 2.428913 1_555
O6 Y0 2.428913 1_545
O7 Y1 2.429599 1_555
O7 Y1 2.429599 1_545
O8 Y0 2.429599 1_555
O8 Y0 2.429599 1_545
O9 Y1 2.428913 1_545
O9 Y1 2.428913 1_555
O10 Y0 2.394806 1_455
O10 Y0 2.394806 1_555
O11 Y1 2.408173 1_455
O11 Y1 2.408173 1_555
O12 Y0 2.408173 1_455
O12 Y0 2.408173 1_555
O13 Y1 2.394806 1_455
O13 Y1 2.394806 1_555
