# generated using pymatgen
data_Yb5Al17(Fe2Si3)2
_symmetry_space_group_name_H-M   'P 1'
_cell_length_a   11.58165800
_cell_length_b   11.58165800
_cell_length_c   4.02091300
_cell_angle_alpha   90.00000000
_cell_angle_beta   90.00000000
_cell_angle_gamma   90.00000000
_symmetry_Int_Tables_number   1
_chemical_formula_structural   Yb5Al17(Fe2Si3)2
_chemical_formula_sum   'Yb5 Al17 Fe4 Si6'
_cell_volume   539.34436923
_cell_formula_units_Z   1
loop_
 _symmetry_equiv_pos_site_id
 _symmetry_equiv_pos_as_xyz
  1  'x, y, z'
loop_
 _atom_site_type_symbol
 _atom_site_label
 _atom_site_symmetry_multiplicity
 _atom_site_fract_x
 _atom_site_fract_y
 _atom_site_fract_z
 _atom_site_occupancy
  Yb  Yb0  1  0.25811800  0.50000000  0.00000000  1
  Yb  Yb1  1  0.74188200  0.50000000  0.00000000  1
  Yb  Yb2  1  0.50000000  0.74188200  0.00000000  1
  Yb  Yb3  1  0.50000000  0.25811800  0.00000000  1
  Yb  Yb4  1  0.00000000  0.00000000  0.00000000  1
  Al  Al0  1  0.20284000  0.20284000  0.00000000  1
  Al  Al1  1  0.79716000  0.79716000  0.00000000  1
  Al  Al2  1  0.20284000  0.79716000  0.00000000  1
  Al  Al3  1  0.79716000  0.20284000  0.00000000  1
  Al  Al4  1  0.50000000  0.50000000  0.50000000  1
  Al  Al5  1  0.11236500  0.37207500  0.50000000  1
  Al  Al6  1  0.88763500  0.62792500  0.50000000  1
  Al  Al7  1  0.11236500  0.62792500  0.50000000  1
  Al  Al8  1  0.88763500  0.37207500  0.50000000  1
  Al  Al9  1  0.37207500  0.88763500  0.50000000  1
  Al  Al10  1  0.62792500  0.11236500  0.50000000  1
  Al  Al11  1  0.37207500  0.11236500  0.50000000  1
  Al  Al12  1  0.62792500  0.88763500  0.50000000  1
  Al  Al13  1  0.32897200  0.32897200  0.50000000  1
  Al  Al14  1  0.67102800  0.67102800  0.50000000  1
  Al  Al15  1  0.32897200  0.67102800  0.50000000  1
  Al  Al16  1  0.67102800  0.32897200  0.50000000  1
  Fe  Fe0  1  0.29616800  0.00000000  0.00000000  1
  Fe  Fe1  1  0.70383200  0.00000000  0.00000000  1
  Fe  Fe2  1  0.00000000  0.70383200  0.00000000  1
  Fe  Fe3  1  0.00000000  0.29616800  0.00000000  1
  Si  Si0  1  0.17997500  0.00000000  0.50000000  1
  Si  Si1  1  0.82002500  0.00000000  0.50000000  1
  Si  Si2  1  0.00000000  0.82002500  0.50000000  1
  Si  Si3  1  0.00000000  0.17997500  0.50000000  1
  Si  Si4  1  0.00000000  0.50000000  0.00000000  1
  Si  Si5  1  0.50000000  0.00000000  0.00000000  1
loop_
_geom_bond_atom_site_label_1
_geom_bond_atom_site_label_2
_geom_bond_distance
_geom_bond_site_symmetry_2
Al0 Fe3 2.585958 1_555
Al0 Fe0 2.585958 1_555
Al0 Al13 2.882692 1_554
Al0 Al13 2.882692 1_555
Al0 Al11 2.996934 1_555
Al0 Al5 2.996934 1_555
Al0 Al11 2.996934 1_554
Al0 Al5 2.996934 1_554
Al1 Fe2 2.585958 1_655
Al1 Fe1 2.585958 1_565
Al1 Al14 2.882692 1_555
Al1 Al14 2.882692 1_554
Al1 Al12 2.996934 1_554
Al1 Al6 2.996934 1_554
Al1 Al12 2.996934 1_555
Al1 Al6 2.996934 1_555
Al2 Fe2 2.585958 1_555
Al2 Fe0 2.585958 1_565
Al2 Al9 2.996934 1_554
Al2 Al9 2.996934 1_555
Al2 Al7 2.996934 1_555
Al2 Al7 2.996934 1_554
Al3 Fe1 2.585958 1_555
Al3 Fe3 2.585958 1_655
Al3 Al8 2.996934 1_554
Al3 Al8 2.996934 1_555
Al4 Yb0 3.448151 1_555
Al4 Yb0 3.448151 1_556
Al4 Yb3 3.448151 1_556
Al4 Yb3 3.448151 1_555
Al4 Yb2 3.448151 1_555
Al4 Yb2 3.448151 1_556
Al4 Yb1 3.448151 1_556
Al4 Yb1 3.448151 1_555
Al5 Fe3 2.551152 1_556
Al5 Fe3 2.551152 1_555
Al5 Si3 2.577493 1_555
Al5 Al8 2.602746 1_455
Al5 Si4 2.816132 1_555
Al5 Si4 2.816132 1_556
Al5 Al7 2.963167 1_555
Al5 Yb0 3.014395 1_555
Al5 Yb0 3.014395 1_556
Al6 Fe2 2.551152 1_655
Al6 Fe2 2.551152 1_656
Al6 Si2 2.577493 1_655
Al6 Al7 2.602746 1_655
Al6 Si4 2.816132 1_656
Al6 Si4 2.816132 1_655
Al6 Al8 2.963167 1_555
Al6 Yb1 3.014395 1_556
Al6 Yb1 3.014395 1_555
Al7 Fe2 2.551152 1_556
Al7 Fe2 2.551152 1_555
Al7 Si2 2.577493 1_555
Al7 Si4 2.816132 1_556
Al7 Si4 2.816132 1_555
Al7 Yb0 3.014395 1_555
Al7 Yb0 3.014395 1_556
Al8 Fe3 2.551152 1_656
Al8 Fe3 2.551152 1_655
Al8 Si3 2.577493 1_655
Al8 Si4 2.816132 1_655
Al8 Si4 2.816132 1_656
Al8 Yb1 3.014395 1_555
Al8 Yb1 3.014395 1_556
Al9 Fe0 2.551152 1_565
Al9 Fe0 2.551152 1_566
Al9 Si0 2.577493 1_565
Al9 Si5 2.816132 1_565
Al9 Si5 2.816132 1_566
Al9 Yb2 3.014395 1_556
Al9 Yb2 3.014395 1_555
Al10 Fe1 2.551152 1_556
Al10 Fe1 2.551152 1_555
Al10 Al16 2.557855 1_555
Al10 Si1 2.577493 1_555
Al10 Al12 2.602746 1_545
Al10 Si5 2.816132 1_555
Al10 Si5 2.816132 1_556
Al10 Al11 2.963167 1_555
Al10 Al3 2.996934 1_556
Al10 Al3 2.996934 1_555
Al10 Yb3 3.014395 1_556
Al10 Yb3 3.014395 1_555
Al11 Fe0 2.551152 1_555
Al11 Fe0 2.551152 1_556
Al11 Al13 2.557855 1_555
Al11 Si0 2.577493 1_555
Al11 Al9 2.602746 1_545
Al11 Si5 2.816132 1_555
Al11 Si5 2.816132 1_556
Al11 Yb3 3.014395 1_555
Al11 Yb3 3.014395 1_556
Al12 Fe1 2.551152 1_565
Al12 Fe1 2.551152 1_566
Al12 Al14 2.557855 1_555
Al12 Si1 2.577493 1_565
Al12 Si5 2.816132 1_565
Al12 Si5 2.816132 1_566
Al12 Al9 2.963167 1_555
Al12 Yb2 3.014395 1_556
Al12 Yb2 3.014395 1_555
Al13 Al5 2.557855 1_555
Al13 Al4 2.801257 1_555
Al13 Yb3 2.939192 1_555
Al13 Yb3 2.939192 1_556
Al13 Yb0 2.939192 1_555
Al13 Yb0 2.939192 1_556
Al14 Al6 2.557855 1_555
Al14 Al4 2.801257 1_555
Al14 Yb1 2.939192 1_556
Al14 Yb1 2.939192 1_555
Al14 Yb2 2.939192 1_556
Al14 Yb2 2.939192 1_555
Al15 Al7 2.557855 1_555
Al15 Al9 2.557855 1_555
Al15 Al4 2.801257 1_555
Al15 Al2 2.882692 1_556
Al15 Al2 2.882692 1_555
Al15 Yb0 2.939192 1_555
Al15 Yb0 2.939192 1_556
Al15 Yb2 2.939192 1_556
Al15 Yb2 2.939192 1_555
Al16 Al8 2.557855 1_555
Al16 Al4 2.801257 1_555
Al16 Al3 2.882692 1_555
Al16 Al3 2.882692 1_556
Al16 Yb3 2.939192 1_555
Al16 Yb3 2.939192 1_556
Al16 Yb1 2.939192 1_556
Al16 Yb1 2.939192 1_555
Fe0 Si5 2.360713 1_555
Fe0 Si0 2.419269 1_554
Fe0 Si0 2.419269 1_555
Fe1 Si5 2.360713 1_555
Fe1 Si1 2.419269 1_555
Fe1 Si1 2.419269 1_554
Fe2 Si4 2.360713 1_555
Fe2 Si2 2.419269 1_554
Fe2 Si2 2.419269 1_555
Fe3 Si4 2.360713 1_555
Fe3 Si3 2.419269 1_554
Fe3 Si3 2.419269 1_555
Si0 Yb4 2.895979 1_555
Si0 Yb4 2.895979 1_556
Si1 Yb4 2.895979 1_656
Si1 Yb4 2.895979 1_655
Si2 Yb4 2.895979 1_565
Si2 Yb4 2.895979 1_566
Si3 Yb4 2.895979 1_555
Si3 Yb4 2.895979 1_556
Si4 Yb1 2.989434 1_455
Si4 Yb0 2.989434 1_555
Si5 Yb2 2.989434 1_545
Si5 Yb3 2.989434 1_555
