# generated using pymatgen
data_BaPr3(NiO4)2
_symmetry_space_group_name_H-M   'P 1'
_cell_length_a   6.95943281
_cell_length_b   6.95943281
_cell_length_c   5.48786600
_cell_angle_alpha   90.00000000
_cell_angle_beta   90.00000000
_cell_angle_gamma   133.98463471
_symmetry_Int_Tables_number   1
_chemical_formula_structural   BaPr3(NiO4)2
_chemical_formula_sum   'Ba1 Pr3 Ni2 O8'
_cell_volume   191.24836075
_cell_formula_units_Z   1
loop_
 _symmetry_equiv_pos_site_id
 _symmetry_equiv_pos_as_xyz
  1  'x, y, z'
loop_
 _atom_site_type_symbol
 _atom_site_label
 _atom_site_symmetry_multiplicity
 _atom_site_fract_x
 _atom_site_fract_y
 _atom_site_fract_z
 _atom_site_occupancy
  Ba  Ba0  1  0.85574700  0.14425300  0.50000000  1
  Pr  Pr0  1  0.36283500  0.63716500  0.00000000  1
  Pr  Pr1  1  0.63869100  0.36130900  0.00000000  1
  Pr  Pr2  1  0.13538000  0.86462000  0.50000000  1
  Ni  Ni0  1  0.49982100  0.50017900  0.50000000  1
  Ni  Ni1  1  0.99731400  0.00268600  0.00000000  1
  O  O0  1  0.17979200  0.82020800  0.00000000  1
  O  O1  1  0.65844400  0.34155600  0.50000000  1
  O  O2  1  0.32052500  0.67947500  0.50000000  1
  O  O3  1  0.82468500  0.17531500  0.00000000  1
  O  O4  1  0.26015100  0.24676700  0.76324600  1
  O  O5  1  0.75323300  0.73984900  0.23675400  1
  O  O6  1  0.26015100  0.24676700  0.23675400  1
  O  O7  1  0.75323300  0.73984900  0.76324600  1
loop_
_geom_bond_atom_site_label_1
_geom_bond_atom_site_label_2
_geom_bond_distance
_geom_bond_site_symmetry_2
Ba0 O1 2.527778 1_555
Ba0 O2 2.757302 1_655
Ba0 O2 2.757302 1_545
Ba0 O3 2.772641 1_555
Ba0 O3 2.772641 1_556
Ba0 O5 2.779954 1_545
Ba0 O7 2.779954 1_545
Ba0 O4 2.779954 1_655
Ba0 O6 2.779954 1_655
Ni0 O4 1.973253 1_555
Ni0 O6 1.973253 1_555
Ni0 O7 1.973253 1_555
Ni0 O5 1.973253 1_555
Ni0 O1 2.032223 1_555
Ni0 O2 2.297078 1_555
Ni1 O5 1.898384 1_545
Ni1 O6 1.898384 1_655
Ni1 O7 1.898384 1_544
Ni1 O4 1.898384 1_654
Ni1 O3 2.211663 1_555
Ni1 O0 2.337845 1_645
O0 Pr0 2.345084 1_555
O0 Pr1 2.770625 1_455
O0 Pr1 2.770625 1_565
O0 Pr2 2.802306 1_554
O0 Pr2 2.802306 1_555
O1 Pr2 2.736128 1_545
O1 Pr2 2.736128 1_655
O1 Pr1 2.755578 1_556
O1 Pr1 2.755578 1_555
O2 Pr2 2.372014 1_555
O2 Pr0 2.796962 1_556
O2 Pr0 2.796962 1_555
O3 Pr1 2.382891 1_555
O3 Pr0 2.763689 1_655
O3 Pr0 2.763689 1_545
O4 Pr1 2.519317 1_556
O4 Pr2 2.589707 1_545
O4 Pr0 2.623713 1_556
O5 Pr1 2.519317 1_555
O5 Pr2 2.589707 1_655
O5 Pr0 2.623713 1_555
O6 Pr1 2.519317 1_555
O6 Pr2 2.589707 1_545
O6 Pr0 2.623713 1_555
O7 Pr1 2.519317 1_556
O7 Pr2 2.589707 1_655
O7 Pr0 2.623713 1_556
