# generated using pymatgen
data_BaMg6Zr
_symmetry_space_group_name_H-M   'P 1'
_cell_length_a   5.24019200
_cell_length_b   6.79930800
_cell_length_c   11.66709000
_cell_angle_alpha   90.00000000
_cell_angle_beta   90.00000000
_cell_angle_gamma   90.00000000
_symmetry_Int_Tables_number   1
_chemical_formula_structural   BaMg6Zr
_chemical_formula_sum   'Ba2 Mg12 Zr2'
_cell_volume   415.69467608
_cell_formula_units_Z   2
loop_
 _symmetry_equiv_pos_site_id
 _symmetry_equiv_pos_as_xyz
  1  'x, y, z'
loop_
 _atom_site_type_symbol
 _atom_site_label
 _atom_site_symmetry_multiplicity
 _atom_site_fract_x
 _atom_site_fract_y
 _atom_site_fract_z
 _atom_site_occupancy
  Ba  Ba0  1  0.50000000  0.50000000  0.08711200  1
  Ba  Ba1  1  0.50000000  0.00000000  0.58711200  1
  Mg  Mg0  1  0.00000000  0.22871000  0.16989900  1
  Mg  Mg1  1  0.00000000  0.77129000  0.16989900  1
  Mg  Mg2  1  0.00000000  0.50000000  0.90667400  1
  Mg  Mg3  1  0.50000000  0.24122600  0.83944200  1
  Mg  Mg4  1  0.50000000  0.75877400  0.83944200  1
  Mg  Mg5  1  0.50000000  0.50000000  0.57314600  1
  Mg  Mg6  1  0.00000000  0.72871000  0.66989900  1
  Mg  Mg7  1  0.00000000  0.27129000  0.66989900  1
  Mg  Mg8  1  0.00000000  0.00000000  0.40667400  1
  Mg  Mg9  1  0.50000000  0.74122600  0.33944200  1
  Mg  Mg10  1  0.50000000  0.25877400  0.33944200  1
  Mg  Mg11  1  0.50000000  0.00000000  0.07314600  1
  Zr  Zr0  1  0.00000000  0.50000000  0.41438600  1
  Zr  Zr1  1  0.00000000  0.00000000  0.91438600  1
loop_
_geom_bond_atom_site_label_1
_geom_bond_atom_site_label_2
_geom_bond_distance
_geom_bond_site_symmetry_2
Ba0 Mg1 3.346689 1_655
Ba0 Mg0 3.346689 1_555
Ba0 Mg0 3.346689 1_655
Ba0 Mg1 3.346689 1_555
Ba0 Mg2 3.361058 1_654
Ba0 Mg2 3.361058 1_554
Ba0 Mg10 3.370021 1_555
Ba0 Mg9 3.370021 1_555
Ba0 Mg4 3.383120 1_554
Ba0 Mg3 3.383120 1_554
Ba0 Mg11 3.403557 1_565
Ba0 Mg11 3.403557 1_555
Ba1 Mg7 3.346689 1_555
Ba1 Mg7 3.346689 1_655
Ba1 Mg6 3.346689 1_645
Ba1 Mg6 3.346689 1_545
Ba1 Mg8 3.361058 1_655
Ba1 Mg8 3.361058 1_555
Ba1 Mg3 3.370021 1_555
Ba1 Mg4 3.370021 1_545
Ba1 Mg9 3.383120 1_545
Ba1 Mg10 3.383120 1_555
Ba1 Mg5 3.403557 1_555
Ba1 Mg5 3.403557 1_545
Mg0 Mg1 3.110139 1_545
Mg0 Mg8 3.170096 1_555
Mg0 Mg11 3.249214 1_555
Mg0 Mg11 3.249214 1_455
Mg0 Mg10 3.289295 1_555
Mg0 Mg10 3.289295 1_455
Mg0 Zr1 3.362314 1_554
Mg0 Zr0 3.396906 1_555
Mg1 Mg8 3.170096 1_565
Mg1 Mg11 3.249214 1_565
Mg1 Mg11 3.249214 1_465
Mg1 Mg9 3.289295 1_455
Mg1 Mg9 3.289295 1_555
Mg1 Zr1 3.362314 1_564
Mg1 Zr0 3.396906 1_555
Mg2 Mg7 3.170096 1_555
Mg2 Mg6 3.170096 1_555
Mg2 Mg3 3.252072 1_455
Mg2 Mg4 3.252072 1_455
Mg2 Mg3 3.252072 1_555
Mg2 Mg4 3.252072 1_555
Mg2 Zr1 3.400844 1_555
Mg2 Zr1 3.400844 1_565
Mg3 Zr1 3.212413 1_555
Mg3 Zr1 3.212413 1_655
Mg3 Mg4 3.280340 1_545
Mg3 Mg7 3.289295 1_555
Mg3 Mg7 3.289295 1_655
Mg4 Zr1 3.212413 1_565
Mg4 Zr1 3.212413 1_665
Mg4 Mg6 3.289295 1_655
Mg4 Mg6 3.289295 1_555
Mg5 Mg9 3.181942 1_555
Mg5 Zr0 3.208706 1_655
Mg5 Zr0 3.208706 1_555
Mg5 Mg7 3.249214 1_555
Mg5 Mg6 3.249214 1_655
Mg5 Mg7 3.249214 1_655
Mg5 Mg6 3.249214 1_555
Mg6 Mg7 3.110139 1_555
Mg6 Zr0 3.362314 1_555
Mg6 Zr1 3.396906 1_565
Mg7 Zr0 3.362314 1_555
Mg7 Zr1 3.396906 1_555
Mg8 Mg9 3.252072 1_545
Mg8 Mg9 3.252072 1_445
Mg8 Zr0 3.400844 1_555
Mg8 Zr0 3.400844 1_545
Mg9 Zr0 3.212413 1_555
Mg9 Zr0 3.212413 1_655
Mg10 Mg5 3.181942 1_555
Mg10 Zr0 3.212413 1_655
Mg10 Zr0 3.212413 1_555
Mg10 Mg8 3.252072 1_555
Mg10 Mg8 3.252072 1_655
Mg10 Mg9 3.280340 1_555
Mg11 Mg3 3.181942 1_554
Mg11 Mg4 3.181942 1_544
Mg11 Zr1 3.208706 1_654
Mg11 Zr1 3.208706 1_554
