# generated using pymatgen
data_BaSr3(CoO3)4
_symmetry_space_group_name_H-M   'P 1'
_cell_length_a   4.76676407
_cell_length_b   5.53623694
_cell_length_c   9.58456308
_cell_angle_alpha   90.01799443
_cell_angle_beta   90.01694311
_cell_angle_gamma   89.98825671
_symmetry_Int_Tables_number   1
_chemical_formula_structural   BaSr3(CoO3)4
_chemical_formula_sum   'Ba1 Sr3 Co4 O12'
_cell_volume   252.93597145
_cell_formula_units_Z   1
loop_
 _symmetry_equiv_pos_site_id
 _symmetry_equiv_pos_as_xyz
  1  'x, y, z'
loop_
 _atom_site_type_symbol
 _atom_site_label
 _atom_site_symmetry_multiplicity
 _atom_site_fract_x
 _atom_site_fract_y
 _atom_site_fract_z
 _atom_site_occupancy
  Ba  Ba0  1  0.24995100  0.50005100  0.16640900  1
  Sr  Sr0  1  0.24986700  0.00054400  0.66820800  1
  Sr  Sr1  1  0.75016600  0.99917600  0.33648700  1
  Sr  Sr2  1  0.75019600  0.49913300  0.83107700  1
  Co  Co0  1  0.49958500  0.49999300  0.50418000  1
  Co  Co1  1  0.00040100  0.49998300  0.50417700  1
  Co  Co2  1  0.49997100  0.00024500  0.99554500  1
  Co  Co3  1  0.00000800  0.00023800  0.99554900  1
  O  O0  1  0.74996500  0.50092300  0.35167700  1
  O  O1  1  0.74988200  0.00038200  0.84404700  1
  O  O2  1  0.25010900  0.99883500  0.14793200  1
  O  O3  1  0.25001300  0.49951100  0.65627100  1
  O  O4  1  0.75004100  0.77005800  0.07344800  1
  O  O5  1  0.75010400  0.22762800  0.07196800  1
  O  O6  1  0.74995900  0.26739000  0.57927100  1
  O  O7  1  0.75011600  0.72800100  0.57894200  1
  O  O8  1  0.25003100  0.73595700  0.43042500  1
  O  O9  1  0.24986600  0.26862400  0.43110900  1
  O  O10  1  0.24992000  0.22897600  0.91572100  1
  O  O11  1  0.24985100  0.77435000  0.91755700  1
loop_
_geom_bond_atom_site_label_1
_geom_bond_atom_site_label_2
_geom_bond_distance
_geom_bond_site_symmetry_2
Ba0 O2 2.767115 1_555
Ba0 O2 2.780440 1_545
Ba0 O11 2.827942 1_554
Ba0 O10 2.832504 1_554
Ba0 O9 2.842560 1_555
Ba0 O8 2.847273 1_555
Ba0 O4 2.950414 1_455
Ba0 O4 2.952028 1_555
Ba0 O5 2.961483 1_455
Ba0 O5 2.962590 1_555
Ba0 O0 2.971785 1_555
Ba0 O0 2.972518 1_455
Co0 O7 1.879518 1_555
Co0 O3 1.881826 1_555
Co0 O9 1.883545 1_555
Co0 O0 1.887328 1_555
Co0 O6 1.897393 1_555
Co0 O8 1.902837 1_555
Co1 O7 1.878762 1_455
Co1 O3 1.881423 1_555
Co1 O9 1.882661 1_555
Co1 O0 1.886926 1_455
Co1 O6 1.898170 1_455
Co1 O8 1.903687 1_555
Co2 O1 1.878448 1_555
Co2 O5 1.882121 1_556
Co2 O11 1.882482 1_545
Co2 O2 1.884915 1_546
Co2 O4 1.897867 1_546
Co2 O10 1.899747 1_555
Co3 O1 1.878583 1_455
Co3 O5 1.881389 1_456
Co3 O11 1.881590 1_545
Co3 O2 1.885057 1_546
Co3 O4 1.898123 1_446
Co3 O10 1.899983 1_555
O0 Sr1 2.762332 1_555
O0 Sr1 2.781557 1_545
O1 Sr2 2.764040 1_555
O1 Sr2 2.777777 1_545
O1 Sr0 2.918706 1_555
O1 Sr0 2.919404 1_655
O2 Sr1 2.990869 1_555
O2 Sr1 2.991287 1_455
O3 Sr0 2.764804 1_555
O3 Sr0 2.776160 1_565
O3 Sr2 2.913043 1_455
O3 Sr2 2.913659 1_555
O4 Sr2 2.764769 1_554
O4 Sr1 2.821874 1_555
O5 Sr2 2.755405 1_554
O5 Sr1 2.833617 1_545
O6 Sr2 2.732919 1_555
O6 Sr1 2.759996 1_545
O6 Sr0 2.930132 1_655
O6 Sr0 2.931747 1_555
O7 Sr2 2.728985 1_555
O7 Sr1 2.766988 1_555
O7 Sr0 2.946691 1_665
O7 Sr0 2.948519 1_565
O8 Sr0 2.708808 1_565
O8 Sr1 2.934241 1_455
O8 Sr1 2.936203 1_555
O9 Sr0 2.714599 1_555
O9 Sr1 2.953094 1_445
O9 Sr1 2.955341 1_545
O10 Sr0 2.687990 1_555
O10 Sr2 2.927037 1_455
O10 Sr2 2.930068 1_555
O11 Sr0 2.698457 1_565
O11 Sr2 2.946318 1_455
O11 Sr2 2.948869 1_555
