# generated using pymatgen
data_Mn4SiTeBr2O7
_symmetry_space_group_name_H-M   'P 1'
_cell_length_a   5.59195056
_cell_length_b   6.57535060
_cell_length_c   13.19395300
_cell_angle_alpha   90.05887754
_cell_angle_beta   93.32227713
_cell_angle_gamma   90.11838154
_symmetry_Int_Tables_number   1
_chemical_formula_structural   Mn4SiTeBr2O7
_chemical_formula_sum   'Mn8 Si2 Te2 Br4 O14'
_cell_volume   484.31224465
_cell_formula_units_Z   2
loop_
 _symmetry_equiv_pos_site_id
 _symmetry_equiv_pos_as_xyz
  1  'x, y, z'
loop_
 _atom_site_type_symbol
 _atom_site_label
 _atom_site_symmetry_multiplicity
 _atom_site_fract_x
 _atom_site_fract_y
 _atom_site_fract_z
 _atom_site_occupancy
  Mn  Mn0  1  0.14886600  0.75137800  0.33650100  1
  Mn  Mn1  1  0.85113100  0.24862100  0.66349800  1
  Mn  Mn2  1  0.35407100  0.50472800  0.63338500  1
  Mn  Mn3  1  0.64592300  0.49527500  0.36661100  1
  Mn  Mn4  1  0.95928000  0.25018200  0.17644700  1
  Mn  Mn5  1  0.04074600  0.74981600  0.82356600  1
  Mn  Mn6  1  0.64599900  0.00287000  0.36750100  1
  Mn  Mn7  1  0.35399500  0.99712800  0.63249800  1
  Si  Si0  1  0.15626700  0.25049200  0.43883500  1
  Si  Si1  1  0.84372900  0.74950600  0.56116300  1
  Te  Te0  1  0.70635100  0.74921800  0.15654900  1
  Te  Te1  1  0.29364800  0.25078200  0.84345000  1
  Br  Br0  1  0.42650600  0.24999900  0.17901800  1
  Br  Br1  1  0.57350900  0.75001100  0.82098100  1
  Br  Br2  1  0.85051700  0.25004200  0.98242900  1
  Br  Br3  1  0.14948900  0.74995900  0.01757800  1
  O  O0  1  0.49158900  0.74949900  0.26708800  1
  O  O1  1  0.50840400  0.25050100  0.73290800  1
  O  O2  1  0.15417500  0.25052800  0.56548400  1
  O  O3  1  0.84581900  0.74946800  0.43451400  1
  O  O4  1  0.87931500  0.24948000  0.38766300  1
  O  O5  1  0.12068500  0.75051900  0.61233100  1
  O  O6  1  0.29417500  0.03855800  0.40868600  1
  O  O7  1  0.70585300  0.53779000  0.59166600  1
  O  O8  1  0.70582200  0.96144100  0.59131200  1
  O  O9  1  0.29414400  0.46220900  0.40833400  1
  O  O10  1  0.89677300  0.95282100  0.22851000  1
  O  O11  1  0.10284200  0.45258100  0.77086800  1
  O  O12  1  0.10322200  0.04717800  0.77149200  1
  O  O13  1  0.89715500  0.54742100  0.22913300  1
loop_
_geom_bond_atom_site_label_1
_geom_bond_atom_site_label_2
_geom_bond_distance
_geom_bond_site_symmetry_2
Mn0 O0 2.171484 1_555
Mn0 O3 2.190471 1_455
Mn0 O6 2.243504 1_565
Mn0 O9 2.257066 1_555
Mn0 O13 2.354506 1_455
Mn0 O10 2.355974 1_455
Mn1 O1 2.171486 1_555
Mn1 O2 2.190466 1_655
Mn1 O8 2.243509 1_545
Mn1 O7 2.257060 1_555
Mn1 O11 2.354532 1_655
Mn1 O12 2.355990 1_655
Mn2 O7 2.084200 1_555
Mn2 O5 2.088063 1_555
Mn2 O2 2.172324 1_555
Mn2 O1 2.267713 1_555
Mn2 O11 2.382488 1_555
Mn3 O9 2.084204 1_555
Mn3 O4 2.088101 1_555
Mn3 O3 2.172299 1_555
Mn3 O0 2.267700 1_555
Mn3 O13 2.382445 1_555
Mn4 O10 2.108272 1_545
Mn4 O13 2.109925 1_555
Mn4 O4 2.847900 1_555
Mn5 O12 2.108295 1_565
Mn5 O11 2.109924 1_555
Mn5 O5 2.848116 1_555
Mn6 O6 2.084824 1_555
Mn6 O4 2.086275 1_555
Mn6 O3 2.168584 1_545
Mn6 O0 2.265670 1_545
Mn6 O10 2.395097 1_545
Mn7 O8 2.084843 1_555
Mn7 O5 2.086255 1_555
Mn7 O2 2.168579 1_565
Mn7 O1 2.265656 1_565
Mn7 O12 2.395126 1_565
Br0 Mn4 2.610961 1_455
Br0 Mn4 2.981402 1_555
Br0 Mn3 3.140735 1_555
Br0 Mn6 3.161347 1_555
Br1 Mn5 2.611015 1_655
Br1 Mn5 2.981353 1_555
Br1 Mn2 3.140830 1_555
Br1 Mn7 3.161346 1_555
Br2 Mn4 2.596604 1_556
Br3 Mn5 2.596507 1_554
O0 Te0 1.942250 1_555
O1 Te1 1.942258 1_555
O2 Si0 1.671719 1_555
O3 Si1 1.671719 1_555
O4 Si0 1.653215 1_655
O5 Si1 1.653217 1_455
O6 Si0 1.653407 1_555
O7 Si1 1.651377 1_555
O8 Si1 1.653410 1_555
O9 Si0 1.651378 1_555
O10 Te0 1.924037 1_555
O11 Te1 1.925154 1_555
O12 Te1 1.924035 1_555
O13 Te0 1.925151 1_555
