# generated using pymatgen
data_Zn(BiO2)2
_symmetry_space_group_name_H-M   'P 1'
_cell_length_a   5.89483187
_cell_length_b   5.89483187
_cell_length_c   11.20012000
_cell_angle_alpha   90.00000000
_cell_angle_beta   90.00000000
_cell_angle_gamma   147.34762241
_symmetry_Int_Tables_number   1
_chemical_formula_structural   Zn(BiO2)2
_chemical_formula_sum   'Zn2 Bi4 O8'
_cell_volume   209.98570474
_cell_formula_units_Z   2
loop_
 _symmetry_equiv_pos_site_id
 _symmetry_equiv_pos_as_xyz
  1  'x, y, z'
loop_
 _atom_site_type_symbol
 _atom_site_label
 _atom_site_symmetry_multiplicity
 _atom_site_fract_x
 _atom_site_fract_y
 _atom_site_fract_z
 _atom_site_occupancy
  Zn  Zn0  1  0.60406000  0.39594000  0.75000000  1
  Zn  Zn1  1  0.39594000  0.60406000  0.25000000  1
  Bi  Bi0  1  0.13260200  0.86739800  0.07679000  1
  Bi  Bi1  1  0.86739800  0.13260200  0.92321000  1
  Bi  Bi2  1  0.13260200  0.86739800  0.42321000  1
  Bi  Bi3  1  0.86739800  0.13260200  0.57679000  1
  O  O0  1  0.77885900  0.22114100  0.38260400  1
  O  O1  1  0.22114100  0.77885900  0.61739600  1
  O  O2  1  0.22114100  0.77885900  0.88260400  1
  O  O3  1  0.77885900  0.22114100  0.11739600  1
  O  O4  1  0.99813100  0.00186900  0.25000000  1
  O  O5  1  0.00186900  0.99813100  0.75000000  1
  O  O6  1  0.50000000  0.50000000  0.00000000  1
  O  O7  1  0.50000000  0.50000000  0.50000000  1
loop_
_geom_bond_atom_site_label_1
_geom_bond_atom_site_label_2
_geom_bond_distance
_geom_bond_site_symmetry_2
Bi0 O3 2.385591 1_455
Bi0 O3 2.385591 1_565
Bi0 O2 2.394521 1_554
Bi0 O6 2.395091 1_455
Bi0 O6 2.395091 1_565
Bi0 O4 2.465416 1_465
Bi1 O2 2.385591 1_655
Bi1 O2 2.385591 1_545
Bi1 O3 2.394521 1_556
Bi1 O6 2.395091 1_656
Bi1 O6 2.395091 1_546
Bi1 O5 2.465416 1_645
Bi2 O0 2.385591 1_455
Bi2 O0 2.385591 1_565
Bi2 O1 2.394521 1_555
Bi2 O7 2.395091 1_565
Bi2 O7 2.395091 1_455
Bi2 O4 2.465416 1_465
Bi3 O1 2.385591 1_655
Bi3 O1 2.385591 1_545
Bi3 O0 2.394521 1_555
Bi3 O7 2.395091 1_545
Bi3 O7 2.395091 1_655
Bi3 O5 2.465416 1_645
O0 Zn1 2.589678 1_655
O0 Zn1 2.589678 1_545
O1 Zn0 2.589678 1_455
O1 Zn0 2.589678 1_565
O2 Zn0 2.589678 1_455
O2 Zn0 2.589678 1_565
O3 Zn1 2.589678 1_545
O3 Zn1 2.589678 1_655
O4 Zn1 2.020573 1_545
O4 Zn1 2.020573 1_655
O5 Zn0 2.020573 1_455
O5 Zn0 2.020573 1_565
