# generated using pymatgen
data_ErMn2
_symmetry_space_group_name_H-M   'P 1'
_cell_length_a   5.45934381
_cell_length_b   5.45935286
_cell_length_c   8.87013130
_cell_angle_alpha   90.00015993
_cell_angle_beta   89.99988805
_cell_angle_gamma   119.99970692
_symmetry_Int_Tables_number   1
_chemical_formula_structural   ErMn2
_chemical_formula_sum   'Er4 Mn8'
_cell_volume   228.95154230
_cell_formula_units_Z   4
loop_
 _symmetry_equiv_pos_site_id
 _symmetry_equiv_pos_as_xyz
  1  'x, y, z'
loop_
 _atom_site_type_symbol
 _atom_site_label
 _atom_site_symmetry_multiplicity
 _atom_site_fract_x
 _atom_site_fract_y
 _atom_site_fract_z
 _atom_site_occupancy
  Er  Er0  1  0.33333300  0.66666600  0.43198774  1
  Er  Er1  1  0.66666700  0.33333400  0.93199614  1
  Er  Er2  1  0.66666700  0.33333400  0.56801226  1
  Er  Er3  1  0.33333300  0.66666600  0.06800386  1
  Mn  Mn0  1  0.16832312  0.33664623  0.75001212  1
  Mn  Mn1  1  0.83167588  0.16832412  0.24998588  1
  Mn  Mn2  1  0.33664623  0.16832312  0.24998888  1
  Mn  Mn3  1  0.66335377  0.83167688  0.75001112  1
  Mn  Mn4  1  -0.00000000  -0.00000000  -0.00000000  1
  Mn  Mn5  1  -0.00000000  -0.00000000  0.50000000  1
  Mn  Mn6  1  0.83167688  0.66335377  0.24998788  1
  Mn  Mn7  1  0.16832412  0.83167588  0.75001412  1
loop_
_geom_bond_atom_site_label_1
_geom_bond_atom_site_label_2
_geom_bond_distance
_geom_bond_site_symmetry_2
Er0 Mn2 3.171353 1_555
Er0 Mn6 3.171357 1_555
Er0 Mn6 3.171362 1_455
Er0 Mn2 3.171365 1_565
Er0 Mn1 3.171377 1_455
Er0 Mn1 3.171384 1_565
Er0 Mn5 3.209165 1_565
Er0 Mn5 3.209178 1_665
Er0 Mn5 3.209180 1_555
Er0 Mn3 3.223683 1_555
Er0 Mn0 3.223692 1_555
Er0 Mn7 3.223694 1_555
Er0 Er3 3.228585 1_555
Er0 Er2 3.374993 1_555
Er0 Er2 3.374999 1_455
Er0 Er2 3.375012 1_565
Er1 Mn0 3.171285 1_655
Er1 Mn7 3.171290 1_655
Er1 Mn0 3.171291 1_555
Er1 Mn7 3.171293 1_545
Er1 Mn3 3.171295 1_545
Er1 Mn3 3.171298 1_555
Er1 Mn4 3.209155 1_656
Er1 Mn4 3.209163 1_666
Er1 Mn4 3.209164 1_556
Er1 Mn1 3.223417 1_556
Er1 Mn6 3.223433 1_556
Er1 Mn2 3.223443 1_556
Er1 Er2 3.228585 1_555
Er1 Er3 3.374933 1_556
Er1 Er3 3.374948 1_656
Er1 Er3 3.374963 1_546
Er2 Mn3 3.171353 1_555
Er2 Mn0 3.171357 1_555
Er2 Mn0 3.171362 1_655
Er2 Mn3 3.171365 1_545
Er2 Mn7 3.171377 1_655
Er2 Mn7 3.171384 1_545
Er2 Mn5 3.209165 1_655
Er2 Mn5 3.209178 1_555
Er2 Mn5 3.209180 1_665
Er2 Mn2 3.223683 1_555
Er2 Mn6 3.223692 1_555
Er2 Mn1 3.223694 1_555
Er3 Mn6 3.171285 1_455
Er3 Mn1 3.171290 1_455
Er3 Mn6 3.171291 1_555
Er3 Mn1 3.171293 1_565
Er3 Mn2 3.171295 1_565
Er3 Mn2 3.171298 1_555
Er3 Mn4 3.209155 1_565
Er3 Mn4 3.209163 1_555
Er3 Mn4 3.209164 1_665
Er3 Mn7 3.223417 1_554
Er3 Mn0 3.223433 1_554
Er3 Mn3 3.223443 1_554
Mn0 Mn7 2.702539 1_555
Mn0 Mn3 2.702557 1_555
Mn0 Mn4 2.729529 1_556
Mn0 Mn5 2.729699 1_555
Mn0 Mn7 2.756814 1_545
Mn0 Mn3 2.756816 1_445
Mn1 Mn2 2.702534 1_555
Mn1 Mn6 2.702539 1_555
Mn1 Mn4 2.729509 1_655
Mn1 Mn5 2.729720 1_655
Mn1 Mn2 2.756809 1_655
Mn1 Mn6 2.756814 1_545
Mn2 Mn6 2.702557 1_555
Mn2 Mn4 2.729533 1_555
Mn2 Mn5 2.729692 1_555
Mn2 Mn6 2.756816 1_445
Mn3 Mn7 2.702534 1_555
Mn3 Mn4 2.729533 1_666
Mn3 Mn5 2.729692 1_665
Mn3 Mn7 2.756809 1_655
Mn4 Mn7 2.729509 1_544
Mn4 Mn6 2.729529 1_445
Mn5 Mn6 2.729699 1_445
Mn5 Mn7 2.729720 1_545
