# generated using pymatgen
data_HfCoGe
_symmetry_space_group_name_H-M   'P 1'
_cell_length_a   3.97473844
_cell_length_b   6.42647078
_cell_length_c   7.06572189
_cell_angle_alpha   90.00448210
_cell_angle_beta   90.00000000
_cell_angle_gamma   90.00000000
_symmetry_Int_Tables_number   1
_chemical_formula_structural   HfCoGe
_chemical_formula_sum   'Hf4 Co4 Ge4'
_cell_volume   180.48355232
_cell_formula_units_Z   4
loop_
 _symmetry_equiv_pos_site_id
 _symmetry_equiv_pos_as_xyz
  1  'x, y, z'
loop_
 _atom_site_type_symbol
 _atom_site_label
 _atom_site_symmetry_multiplicity
 _atom_site_fract_x
 _atom_site_fract_y
 _atom_site_fract_z
 _atom_site_occupancy
  Hf  Hf0  1  0.25000000  0.00194691  0.79780132  1
  Hf  Hf1  1  0.25000000  0.50204894  0.70213564  1
  Hf  Hf2  1  0.75000000  0.99805309  0.20219868  1
  Hf  Hf3  1  0.75000000  0.49795106  0.29786436  1
  Co  Co0  1  0.25000000  0.15211492  0.43515231  1
  Co  Co1  1  0.25000000  0.65211884  0.06484706  1
  Co  Co2  1  0.75000000  0.84788508  0.56484769  1
  Co  Co3  1  0.75000000  0.34788116  0.93515294  1
  Ge  Ge0  1  0.25000000  0.77611747  0.39355725  1
  Ge  Ge1  1  0.25000000  0.27608469  0.10643258  1
  Ge  Ge2  1  0.75000000  0.22388253  0.60644275  1
  Ge  Ge3  1  0.75000000  0.72391531  0.89356742  1
loop_
_geom_bond_atom_site_label_1
_geom_bond_atom_site_label_2
_geom_bond_distance
_geom_bond_site_symmetry_2
Co0 Ge2 2.372144 1_455
Co0 Ge2 2.372144 1_555
Co0 Ge0 2.434122 1_545
Co0 Ge1 2.455538 1_555
Co0 Hf0 2.738154 1_555
Co0 Hf2 2.763855 1_545
Co0 Hf2 2.763855 1_445
Co0 Hf1 2.935173 1_555
Co0 Hf3 3.135360 1_455
Co0 Hf3 3.135360 1_555
Co1 Ge3 2.372178 1_554
Co1 Ge3 2.372178 1_454
Co1 Ge1 2.434393 1_555
Co1 Ge0 2.455417 1_555
Co1 Hf1 2.738203 1_554
Co1 Hf3 2.764459 1_555
Co1 Hf3 2.764459 1_455
Co1 Hf0 2.935161 1_564
Co1 Hf2 3.135838 1_455
Co1 Hf2 3.135838 1_555
Co2 Ge0 2.372144 1_655
Co2 Ge0 2.372144 1_555
Co2 Ge2 2.434122 1_565
Co2 Ge3 2.455538 1_555
Co2 Hf2 2.738154 1_555
Co2 Hf0 2.763855 1_565
Co2 Hf0 2.763855 1_665
Co2 Hf3 2.935173 1_555
Co2 Hf1 3.135360 1_555
Co2 Hf1 3.135360 1_655
Co3 Ge1 2.372178 1_556
Co3 Ge1 2.372178 1_656
Co3 Ge3 2.434393 1_555
Co3 Ge2 2.455417 1_555
Co3 Hf3 2.738203 1_556
Co3 Hf1 2.764459 1_655
Co3 Hf1 2.764459 1_555
Co3 Hf2 2.935161 1_546
Co3 Hf0 3.135838 1_555
Co3 Hf0 3.135838 1_655
Ge0 Hf3 2.757214 1_455
Ge0 Hf3 2.757214 1_555
Ge0 Hf2 2.795049 1_555
Ge0 Hf2 2.795049 1_455
Ge0 Hf1 2.802961 1_555
Ge1 Hf2 2.756847 1_545
Ge1 Hf2 2.756847 1_445
Ge1 Hf3 2.794965 1_455
Ge1 Hf3 2.794965 1_555
Ge1 Hf0 2.803317 1_554
Ge2 Hf1 2.757214 1_655
Ge2 Hf1 2.757214 1_555
Ge2 Hf0 2.795049 1_655
Ge2 Hf0 2.795049 1_555
Ge2 Hf3 2.802961 1_555
Ge3 Hf0 2.756847 1_565
Ge3 Hf0 2.756847 1_665
Ge3 Hf1 2.794965 1_655
Ge3 Hf1 2.794965 1_555
Ge3 Hf2 2.803317 1_556
