# generated using pymatgen
data_TiFeBiPbO6
_symmetry_space_group_name_H-M   'P 1'
_cell_length_a   5.41642097
_cell_length_b   5.44248352
_cell_length_c   6.05501353
_cell_angle_alpha   63.29354782
_cell_angle_beta   63.43149117
_cell_angle_gamma   90.00000000
_symmetry_Int_Tables_number   1
_chemical_formula_structural   TiFeBiPbO6
_chemical_formula_sum   'Ti1 Fe1 Bi1 Pb1 O6'
_cell_volume   138.02752749
_cell_formula_units_Z   1
loop_
 _symmetry_equiv_pos_site_id
 _symmetry_equiv_pos_as_xyz
  1  'x, y, z'
loop_
 _atom_site_type_symbol
 _atom_site_label
 _atom_site_symmetry_multiplicity
 _atom_site_fract_x
 _atom_site_fract_y
 _atom_site_fract_z
 _atom_site_occupancy
  Ti  Ti0  1  0.21932800  0.71932800  0.56134400  1
  Fe  Fe0  1  0.73335000  0.23335000  0.53330000  1
  Bi  Bi0  1  0.52602000  0.52602000  0.94796000  1
  Pb  Pb0  1  0.99139300  0.99139300  0.01721300  1
  O  O0  1  0.41990500  0.90998000  0.66903700  1
  O  O1  1  0.91105800  0.42098300  0.66903700  1
  O  O2  1  0.91105800  0.90998000  0.66903700  1
  O  O3  1  0.41990500  0.42098300  0.66903700  1
  O  O4  1  0.40699700  0.90699700  0.18600500  1
  O  O5  1  0.93058600  0.43058600  0.13882900  1
loop_
_geom_bond_atom_site_label_1
_geom_bond_atom_site_label_2
_geom_bond_distance
_geom_bond_site_symmetry_2
Fe0 O5 1.847019 1_555
Fe0 O0 2.026545 1_545
Fe0 O3 2.026545 1_555
Fe0 O2 2.026545 1_545
Fe0 O1 2.026545 1_555
Bi0 O2 2.290329 1_555
Bi0 O1 2.290329 1_555
Bi0 O3 2.290330 1_555
Bi0 O0 2.290330 1_555
O0 Ti0 1.980918 1_555
O0 Pb0 2.547636 1_456
O1 Ti0 1.980918 1_655
O1 Pb0 2.547637 1_546
O2 Ti0 1.980918 1_655
O2 Pb0 2.547634 1_556
O3 Ti0 1.980918 1_555
O3 Pb0 2.547639 1_446
O4 Ti0 1.757437 1_555
O4 Pb0 2.821174 1_555
O4 Pb0 2.821174 1_455
O5 Pb0 2.780178 1_555
O5 Pb0 2.780188 1_545
