# generated using pymatgen
data_CaSm4Tm4O12
_symmetry_space_group_name_H-M   'P 1'
_cell_length_a   6.01045834
_cell_length_b   9.22716479
_cell_length_c   5.90517022
_cell_angle_alpha   80.51627562
_cell_angle_beta   82.93299319
_cell_angle_gamma   84.75133018
_symmetry_Int_Tables_number   1
_chemical_formula_structural   CaSm4Tm4O12
_chemical_formula_sum   'Ca1 Sm4 Tm4 O12'
_cell_volume   319.71826455
_cell_formula_units_Z   1
loop_
 _symmetry_equiv_pos_site_id
 _symmetry_equiv_pos_as_xyz
  1  'x, y, z'
loop_
 _atom_site_type_symbol
 _atom_site_label
 _atom_site_symmetry_multiplicity
 _atom_site_fract_x
 _atom_site_fract_y
 _atom_site_fract_z
 _atom_site_occupancy
  Ca  Ca0  1  0.30584200  0.88360500  0.87314500  1
  Sm  Sm0  1  0.08080900  0.23430000  0.95833100  1
  Sm  Sm1  1  0.42855000  0.73153500  0.40292900  1
  Sm  Sm2  1  0.54497700  0.30742600  0.50982400  1
  Sm  Sm3  1  0.85255400  0.74498200  0.00524400  1
  Tm  Tm0  1  0.96026400  0.97760800  0.48163600  1
  Tm  Tm1  1  0.94318200  0.55512200  0.54542400  1
  Tm  Tm2  1  0.58482800  0.07711200  0.09557600  1
  Tm  Tm3  1  0.45063600  0.50658000  0.98572600  1
  O  O0  1  0.09472600  0.75590600  0.65374500  1
  O  O1  1  0.16625300  0.62262000  0.19916500  1
  O  O2  1  0.26222000  0.97237300  0.24585100  1
  O  O3  1  0.24769100  0.44436500  0.71498700  1
  O  O4  1  0.40208200  0.11675800  0.77333300  1
  O  O5  1  0.37102000  0.28690400  0.17483400  1
  O  O6  1  0.64373500  0.66668000  0.73117400  1
  O  O7  1  0.73331500  0.87890000  0.31847600  1
  O  O8  1  0.67972500  0.53467300  0.28081200  1
  O  O9  1  0.91179000  0.01074300  0.85659800  1
  O  O10  1  0.77738700  0.36463300  0.77120400  1
  O  O11  1  0.81883000  0.17873700  0.28656800  1
loop_
_geom_bond_atom_site_label_1
_geom_bond_atom_site_label_2
_geom_bond_distance
_geom_bond_site_symmetry_2
Ca0 O4 2.244148 1_565
Ca0 O0 2.420373 1_555
Ca0 O2 2.448741 1_556
Ca0 O9 2.550700 1_465
Ca0 O6 2.867768 1_555
Ca0 O1 2.941757 1_556
O0 Tm0 2.255081 1_455
O0 Tm1 2.348148 1_455
O0 Sm1 2.359241 1_555
O0 Sm3 2.377327 1_456
O1 Tm3 2.288323 1_554
O1 Tm1 2.329154 1_455
O1 Sm3 2.420093 1_455
O1 Sm1 2.469489 1_555
O2 Tm0 2.149221 1_455
O2 Tm2 2.262331 1_565
O2 Sm1 2.437350 1_555
O2 Sm0 2.921283 1_564
O3 Tm1 2.273391 1_455
O3 Tm3 2.298673 1_555
O3 Sm2 2.411604 1_555
O3 Sm0 2.431301 1_555
O4 Tm2 2.274355 1_556
O4 Sm2 2.302102 1_555
O4 Sm0 2.363623 1_555
O5 Tm3 2.210151 1_554
O5 Tm2 2.305037 1_555
O5 Sm2 2.389731 1_555
O5 Sm0 2.412642 1_554
O6 Tm3 2.222954 1_555
O6 Tm1 2.247093 1_555
O6 Sm3 2.401595 1_556
O6 Sm1 2.425095 1_555
O7 Tm0 2.111494 1_555
O7 Tm2 2.251926 1_565
O7 Sm1 2.336777 1_555
O7 Sm3 2.393089 1_555
O8 Tm1 2.396952 1_555
O8 Sm1 2.400165 1_555
O8 Tm3 2.409167 1_554
O8 Sm2 2.447101 1_555
O8 Sm3 2.530832 1_555
O9 Tm0 2.264766 1_545
O9 Tm2 2.368696 1_556
O9 Sm3 2.506822 1_546
O9 Sm0 2.567096 1_655
O10 Tm1 2.254181 1_555
O10 Sm2 2.355044 1_555
O10 Sm0 2.376953 1_655
O10 Tm3 2.577057 1_555
O11 Tm0 2.177512 1_545
O11 Tm2 2.260437 1_555
O11 Sm2 2.341299 1_555
O11 Sm0 2.359763 1_654
