# generated using pymatgen
data_Fe(Si2O5)2
_symmetry_space_group_name_H-M   'P 1'
_cell_length_a   7.35647300
_cell_length_b   7.35647300
_cell_length_c   15.67873300
_cell_angle_alpha   90.00000000
_cell_angle_beta   90.00000000
_cell_angle_gamma   90.00000000
_symmetry_Int_Tables_number   1
_chemical_formula_structural   Fe(Si2O5)2
_chemical_formula_sum   'Fe4 Si16 O40'
_cell_volume   848.49689048
_cell_formula_units_Z   4
loop_
 _symmetry_equiv_pos_site_id
 _symmetry_equiv_pos_as_xyz
  1  'x, y, z'
loop_
 _atom_site_type_symbol
 _atom_site_label
 _atom_site_symmetry_multiplicity
 _atom_site_fract_x
 _atom_site_fract_y
 _atom_site_fract_z
 _atom_site_occupancy
  Fe  Fe0  1  0.50000000  0.00000000  0.58801800  1
  Fe  Fe1  1  0.00000000  0.50000000  0.91198200  1
  Fe  Fe2  1  0.00000000  0.50000000  0.41198200  1
  Fe  Fe3  1  0.50000000  0.00000000  0.08801800  1
  Si  Si0  1  0.17717200  0.25618100  0.64951400  1
  Si  Si1  1  0.82282800  0.74381900  0.64951400  1
  Si  Si2  1  0.25618100  0.17717200  0.85048600  1
  Si  Si3  1  0.75618100  0.32282800  0.64951400  1
  Si  Si4  1  0.24381900  0.67717200  0.64951400  1
  Si  Si5  1  0.32282800  0.75618100  0.85048600  1
  Si  Si6  1  0.67717200  0.24381900  0.85048600  1
  Si  Si7  1  0.74381900  0.82282800  0.85048600  1
  Si  Si8  1  0.32282800  0.24381900  0.35048600  1
  Si  Si9  1  0.67717200  0.75618100  0.35048600  1
  Si  Si10  1  0.24381900  0.32282800  0.14951400  1
  Si  Si11  1  0.74381900  0.17717200  0.35048600  1
  Si  Si12  1  0.25618100  0.82282800  0.35048600  1
  Si  Si13  1  0.17717200  0.74381900  0.14951400  1
  Si  Si14  1  0.82282800  0.25618100  0.14951400  1
  Si  Si15  1  0.75618100  0.67717200  0.14951400  1
  O  O0  1  0.27423200  0.10108400  0.59087000  1
  O  O1  1  0.72576800  0.89891600  0.59087000  1
  O  O2  1  0.10108400  0.27423200  0.90913000  1
  O  O3  1  0.60108400  0.22576800  0.59087000  1
  O  O4  1  0.39891600  0.77423200  0.59087000  1
  O  O5  1  0.22576800  0.60108400  0.90913000  1
  O  O6  1  0.77423200  0.39891600  0.90913000  1
  O  O7  1  0.89891600  0.72576800  0.90913000  1
  O  O8  1  0.22576800  0.39891600  0.40913000  1
  O  O9  1  0.77423200  0.60108400  0.40913000  1
  O  O10  1  0.39891600  0.22576800  0.09087000  1
  O  O11  1  0.89891600  0.27423200  0.40913000  1
  O  O12  1  0.10108400  0.72576800  0.40913000  1
  O  O13  1  0.27423200  0.89891600  0.09087000  1
  O  O14  1  0.72576800  0.10108400  0.09087000  1
  O  O15  1  0.24838900  0.03972200  0.37105100  1
  O  O16  1  0.60108400  0.77423200  0.09087000  1
  O  O17  1  0.74838900  0.53972200  0.62894900  1
  O  O18  1  0.46027800  0.25161100  0.87105100  1
  O  O19  1  0.96027800  0.24838900  0.62894900  1
  O  O20  1  0.03972200  0.75161100  0.62894900  1
  O  O21  1  0.24838900  0.96027800  0.87105100  1
  O  O22  1  0.75161100  0.03972200  0.87105100  1
  O  O23  1  0.53972200  0.74838900  0.87105100  1
  O  O24  1  0.71020200  0.71020200  0.25000000  1
  O  O25  1  0.78979800  0.21020200  0.25000000  1
  O  O26  1  0.21020200  0.78979800  0.25000000  1
  O  O27  1  0.28979800  0.28979800  0.25000000  1
  O  O28  1  0.78979800  0.78979800  0.75000000  1
  O  O29  1  0.71020200  0.28979800  0.75000000  1
  O  O30  1  0.28979800  0.71020200  0.75000000  1
  O  O31  1  0.21020200  0.21020200  0.75000000  1
  O  O32  1  0.96027800  0.75161100  0.12894900  1
  O  O33  1  0.74838900  0.46027800  0.12894900  1
  O  O34  1  0.25161100  0.53972200  0.12894900  1
  O  O35  1  0.46027800  0.74838900  0.37105100  1
  O  O36  1  0.53972200  0.25161100  0.37105100  1
  O  O37  1  0.03972200  0.24838900  0.12894900  1
  O  O38  1  0.75161100  0.96027800  0.37105100  1
  O  O39  1  0.25161100  0.46027800  0.62894900  1
loop_
_geom_bond_atom_site_label_1
_geom_bond_atom_site_label_2
_geom_bond_distance
_geom_bond_site_symmetry_2
Fe0 O3 1.820279 1_555
Fe0 O0 1.820279 1_555
Fe0 O1 1.820279 1_545
Fe0 O4 1.820279 1_545
Fe1 O5 1.820279 1_555
Fe1 O2 1.820279 1_555
Fe1 O7 1.820279 1_455
Fe1 O6 1.820279 1_455
Fe2 O12 1.820279 1_555
Fe2 O8 1.820279 1_555
Fe2 O11 1.820279 1_455
Fe2 O9 1.820279 1_455
Fe3 O14 1.820279 1_555
Fe3 O10 1.820279 1_555
Fe3 O13 1.820279 1_545
Fe3 O16 1.820279 1_545
O0 Si0 1.630044 1_555
O1 Si1 1.630044 1_555
O2 Si2 1.630044 1_555
O3 Si3 1.630044 1_555
O4 Si4 1.630044 1_555
O5 Si5 1.630044 1_555
O6 Si6 1.630044 1_555
O7 Si7 1.630044 1_555
O8 Si8 1.630044 1_555
O9 Si9 1.630044 1_555
O10 Si10 1.630044 1_555
O11 Si11 1.630044 1_555
O12 Si12 1.630044 1_555
O13 Si13 1.630044 1_555
O14 Si14 1.630044 1_555
O15 Si12 1.628836 1_545
O15 Si8 1.630381 1_555
O16 Si15 1.630044 1_555
O17 Si3 1.628836 1_555
O17 Si1 1.630381 1_555
O18 Si6 1.628836 1_555
O18 Si2 1.630381 1_555
O19 Si0 1.628836 1_655
O19 Si3 1.630381 1_555
O20 Si1 1.628836 1_455
O20 Si4 1.630381 1_555
O21 Si2 1.628836 1_565
O21 Si5 1.630381 1_555
O22 Si7 1.628836 1_545
O22 Si6 1.630381 1_555
O23 Si5 1.628836 1_555
O23 Si7 1.630381 1_555
O24 Si9 1.629610 1_555
O24 Si15 1.629610 1_555
O25 Si11 1.629610 1_555
O25 Si14 1.629610 1_555
O26 Si12 1.629610 1_555
O26 Si13 1.629610 1_555
O27 Si8 1.629610 1_555
O27 Si10 1.629610 1_555
O28 Si7 1.629610 1_555
O28 Si1 1.629610 1_555
O29 Si6 1.629610 1_555
O29 Si3 1.629610 1_555
O30 Si5 1.629610 1_555
O30 Si4 1.629610 1_555
O31 Si2 1.629610 1_555
O31 Si0 1.629610 1_555
O32 Si13 1.628836 1_655
O32 Si15 1.630381 1_555
O33 Si15 1.628836 1_555
O33 Si14 1.630381 1_555
O34 Si10 1.628836 1_555
O34 Si13 1.630381 1_555
O35 Si9 1.628836 1_555
O35 Si12 1.630381 1_555
O36 Si8 1.628836 1_555
O36 Si11 1.630381 1_555
O37 Si14 1.628836 1_455
O37 Si10 1.630381 1_555
O38 Si11 1.628836 1_565
O38 Si9 1.630381 1_555
O39 Si4 1.628836 1_555
O39 Si0 1.630381 1_555
