# generated using pymatgen
data_Li2TiV3O8
_symmetry_space_group_name_H-M   'P 1'
_cell_length_a   5.99220359
_cell_length_b   6.02058508
_cell_length_c   10.31677288
_cell_angle_alpha   106.59845781
_cell_angle_beta   90.62171255
_cell_angle_gamma   60.47806976
_symmetry_Int_Tables_number   1
_chemical_formula_structural   Li2TiV3O8
_chemical_formula_sum   'Li4 Ti2 V6 O16'
_cell_volume   306.58576227
_cell_formula_units_Z   2
loop_
 _symmetry_equiv_pos_site_id
 _symmetry_equiv_pos_as_xyz
  1  'x, y, z'
loop_
 _atom_site_type_symbol
 _atom_site_label
 _atom_site_symmetry_multiplicity
 _atom_site_fract_x
 _atom_site_fract_y
 _atom_site_fract_z
 _atom_site_occupancy
  Li  Li0  1  0.75007500  0.49997400  0.25000100  1
  Li  Li1  1  0.24994700  0.50007000  0.75003000  1
  Li  Li2  1  0.99401000  0.50396400  0.49946600  1
  Li  Li3  1  0.50612600  0.49606300  0.00057200  1
  Ti  Ti0  1  0.49915700  0.01914800  0.50058900  1
  Ti  Ti1  1  0.00076500  0.98127200  0.99941900  1
  V  V0  1  0.74994400  0.00004700  0.74997700  1
  V  V1  1  0.74980600  0.00010800  0.24997500  1
  V  V2  1  0.25014400  0.99982100  0.75000000  1
  V  V3  1  0.24990000  0.99982800  0.25003800  1
  V  V4  1  0.00195900  0.99906300  0.49866700  1
  V  V5  1  0.49803900  0.00091400  0.00133400  1
  O  O0  1  0.09819900  0.78446900  0.63354200  1
  O  O1  1  0.59778800  0.78310100  0.13468800  1
  O  O2  1  0.90206500  0.21680000  0.36537100  1
  O  O3  1  0.40186600  0.21553700  0.86637500  1
  O  O4  1  0.34303600  0.78511100  0.88547600  1
  O  O5  1  0.84412700  0.78476700  0.38566900  1
  O  O6  1  0.65571900  0.21544900  0.11430700  1
  O  O7  1  0.15720000  0.21459900  0.61452400  1
  O  O8  1  0.61743600  0.79906200  0.63291600  1
  O  O9  1  0.11080600  0.78752900  0.12881100  1
  O  O10  1  0.86188200  0.78755500  0.88006400  1
  O  O11  1  0.35979100  0.79899800  0.37511900  1
  O  O12  1  0.14049600  0.20072300  0.12495800  1
  O  O13  1  0.63793800  0.21269400  0.61990300  1
  O  O14  1  0.38876600  0.21278000  0.37128600  1
  O  O15  1  0.88293600  0.20061500  0.86694200  1
loop_
_geom_bond_atom_site_label_1
_geom_bond_atom_site_label_2
_geom_bond_distance
_geom_bond_site_symmetry_2
Li0 O1 2.180754 1_555
Li0 O2 2.181363 1_555
Li0 O5 2.186476 1_555
Li0 O6 2.186573 1_555
Li0 O11 2.228263 1_555
Li0 O12 2.228696 1_655
Li1 O4 2.182944 1_555
Li1 O7 2.183785 1_555
Li1 O3 2.195034 1_555
Li1 O0 2.195548 1_555
Li1 O10 2.231008 1_455
Li1 O13 2.231029 1_555
Li2 O5 2.158188 1_555
Li2 O2 2.182248 1_555
Li2 O0 2.200202 1_655
Li2 O8 2.205178 1_555
Li2 O7 2.208556 1_655
Li2 O14 2.252570 1_655
Li3 O6 2.156823 1_555
Li3 O1 2.180699 1_555
Li3 O3 2.201080 1_554
Li3 O15 2.207086 1_554
Li3 O4 2.207443 1_554
Li3 O9 2.255232 1_555
O0 V0 1.994171 1_465
O0 V2 2.050171 1_555
O0 V4 2.052657 1_555
O1 V3 1.987566 1_555
O1 V5 2.051866 1_565
O1 V1 2.052550 1_565
O2 V3 1.987214 1_645
O2 V4 2.051017 1_645
O2 V1 2.052770 1_555
O3 V0 1.993251 1_555
O3 V2 2.050327 1_545
O3 V5 2.053532 1_556
O4 Ti1 1.963442 1_555
O4 V2 2.059269 1_555
O4 V5 2.063345 1_566
O5 Ti0 1.972961 1_565
O5 V4 2.058488 1_655
O5 V1 2.063422 1_565
O6 Ti1 1.973112 1_644
O6 V5 2.058691 1_555
O6 V1 2.063254 1_555
O7 Ti0 1.962349 1_555
O7 V2 2.059537 1_545
O7 V4 2.063315 1_545
O8 V0 1.909017 1_565
O8 Ti0 2.051532 1_565
O8 V2 2.089458 1_555
O9 Ti1 1.920905 1_554
O9 V3 2.001634 1_555
O9 V1 2.072715 1_465
O10 Ti1 1.919081 1_655
O10 V0 2.000870 1_565
O10 V5 2.085593 1_566
O11 V3 1.910265 1_555
O11 Ti0 2.053517 1_565
O11 V4 2.076044 1_555
O12 V3 1.910441 1_545
O12 Ti1 2.052603 1_544
O12 V5 2.075261 1_555
O13 Ti0 1.917784 1_555
O13 V0 2.001383 1_555
O13 V4 2.086124 1_645
O14 Ti0 1.919764 1_555
O14 V3 2.003357 1_545
O14 V1 2.073520 1_555
O15 V0 1.909016 1_555
O15 Ti1 2.049812 1_645
O15 V2 2.088424 1_645
