# generated using pymatgen
data_CeMg5
_symmetry_space_group_name_H-M   'P 1'
_cell_length_a   10.49151036
_cell_length_b   6.18421682
_cell_length_c   35.91679670
_cell_angle_alpha   90.00000000
_cell_angle_beta   90.00000000
_cell_angle_gamma   90.00000000
_symmetry_Int_Tables_number   1
_chemical_formula_structural   CeMg5
_chemical_formula_sum   'Ce16 Mg80'
_cell_volume   2330.34551630
_cell_formula_units_Z   16
loop_
 _symmetry_equiv_pos_site_id
 _symmetry_equiv_pos_as_xyz
  1  'x, y, z'
loop_
 _atom_site_type_symbol
 _atom_site_label
 _atom_site_symmetry_multiplicity
 _atom_site_fract_x
 _atom_site_fract_y
 _atom_site_fract_z
 _atom_site_occupancy
  Ce  Ce0_0  1  0.25000000  0.25000000  0.36253883  1
  Ce  Ce0_1  1  0.25000000  0.25000000  0.86253883  1
  Ce  Ce0_2  1  0.25000000  0.75000000  0.36253883  1
  Ce  Ce0_3  1  0.25000000  0.75000000  0.86253883  1
  Ce  Ce0_4  1  0.75000000  0.25000000  0.36253883  1
  Ce  Ce0_5  1  0.75000000  0.25000000  0.86253883  1
  Ce  Ce0_6  1  0.75000000  0.75000000  0.36253883  1
  Ce  Ce0_7  1  0.75000000  0.75000000  0.86253883  1
  Ce  Ce1_0  1  0.25000000  0.00000000  0.11253883  1
  Ce  Ce1_1  1  0.25000000  0.00000000  0.61253883  1
  Ce  Ce1_2  1  0.25000000  0.50000000  0.11253883  1
  Ce  Ce1_3  1  0.25000000  0.50000000  0.61253883  1
  Ce  Ce1_4  1  0.75000000  0.00000000  0.11253883  1
  Ce  Ce1_5  1  0.75000000  0.00000000  0.61253883  1
  Ce  Ce1_6  1  0.75000000  0.50000000  0.11253883  1
  Ce  Ce1_7  1  0.75000000  0.50000000  0.61253883  1
  Mg  Mg0_0  1  0.00000000  0.00000000  0.99984191  1
  Mg  Mg0_1  1  0.00000000  0.00000000  0.49984191  1
  Mg  Mg0_2  1  0.00000000  0.50000000  0.99984191  1
  Mg  Mg0_3  1  0.00000000  0.50000000  0.49984191  1
  Mg  Mg0_4  1  0.50000000  0.00000000  0.99984191  1
  Mg  Mg0_5  1  0.50000000  0.00000000  0.49984191  1
  Mg  Mg0_6  1  0.50000000  0.50000000  0.99984191  1
  Mg  Mg0_7  1  0.50000000  0.50000000  0.49984191  1
  Mg  Mg1_0  1  0.00000000  0.00000000  0.32759118  1
  Mg  Mg1_1  1  0.00000000  0.00000000  0.82759118  1
  Mg  Mg1_2  1  0.00000000  0.50000000  0.32759118  1
  Mg  Mg1_3  1  0.00000000  0.50000000  0.82759118  1
  Mg  Mg1_4  1  0.50000000  0.00000000  0.32759118  1
  Mg  Mg1_5  1  0.50000000  0.00000000  0.82759118  1
  Mg  Mg1_6  1  0.50000000  0.50000000  0.32759118  1
  Mg  Mg1_7  1  0.50000000  0.50000000  0.82759118  1
  Mg  Mg2_0  1  0.00000000  0.25000000  0.41824932  1
  Mg  Mg2_1  1  0.00000000  0.25000000  0.91824932  1
  Mg  Mg2_2  1  0.00000000  0.75000000  0.41824932  1
  Mg  Mg2_3  1  0.00000000  0.75000000  0.91824932  1
  Mg  Mg2_4  1  0.50000000  0.25000000  0.41824932  1
  Mg  Mg2_5  1  0.50000000  0.25000000  0.91824932  1
  Mg  Mg2_6  1  0.50000000  0.75000000  0.41824932  1
  Mg  Mg2_7  1  0.50000000  0.75000000  0.91824932  1
  Mg  Mg3_0  1  0.25000000  0.00000000  0.27718181  1
  Mg  Mg3_1  1  0.25000000  0.00000000  0.77718181  1
  Mg  Mg3_2  1  0.25000000  0.50000000  0.27718181  1
  Mg  Mg3_3  1  0.25000000  0.50000000  0.77718181  1
  Mg  Mg3_4  1  0.75000000  0.00000000  0.27718181  1
  Mg  Mg3_5  1  0.75000000  0.00000000  0.77718181  1
  Mg  Mg3_6  1  0.75000000  0.50000000  0.27718181  1
  Mg  Mg3_7  1  0.75000000  0.50000000  0.77718181  1
  Mg  Mg4_0  1  0.25000000  0.00000000  0.44793045  1
  Mg  Mg4_1  1  0.25000000  0.00000000  0.94793045  1
  Mg  Mg4_2  1  0.25000000  0.50000000  0.44793045  1
  Mg  Mg4_3  1  0.25000000  0.50000000  0.94793045  1
  Mg  Mg4_4  1  0.75000000  0.00000000  0.44793045  1
  Mg  Mg4_5  1  0.75000000  0.00000000  0.94793045  1
  Mg  Mg4_6  1  0.75000000  0.50000000  0.44793045  1
  Mg  Mg4_7  1  0.75000000  0.50000000  0.94793045  1
  Mg  Mg5_0  1  0.00000000  0.25000000  0.24984191  1
  Mg  Mg5_1  1  0.00000000  0.25000000  0.74984190  1
  Mg  Mg5_2  1  0.00000000  0.75000000  0.24984191  1
  Mg  Mg5_3  1  0.00000000  0.75000000  0.74984190  1
  Mg  Mg5_4  1  0.50000000  0.25000000  0.24984191  1
  Mg  Mg5_5  1  0.50000000  0.25000000  0.74984190  1
  Mg  Mg5_6  1  0.50000000  0.75000000  0.24984191  1
  Mg  Mg5_7  1  0.50000000  0.75000000  0.74984190  1
  Mg  Mg6_0  1  0.00000000  0.25000000  0.07759118  1
  Mg  Mg6_1  1  0.00000000  0.25000000  0.57759118  1
  Mg  Mg6_2  1  0.00000000  0.75000000  0.07759118  1
  Mg  Mg6_3  1  0.00000000  0.75000000  0.57759118  1
  Mg  Mg6_4  1  0.50000000  0.25000000  0.07759118  1
  Mg  Mg6_5  1  0.50000000  0.25000000  0.57759118  1
  Mg  Mg6_6  1  0.50000000  0.75000000  0.07759118  1
  Mg  Mg6_7  1  0.50000000  0.75000000  0.57759118  1
  Mg  Mg7_0  1  0.00000000  0.00000000  0.16824932  1
  Mg  Mg7_1  1  0.00000000  0.00000000  0.66824932  1
  Mg  Mg7_2  1  0.00000000  0.50000000  0.16824932  1
  Mg  Mg7_3  1  0.00000000  0.50000000  0.66824932  1
  Mg  Mg7_4  1  0.50000000  0.00000000  0.16824932  1
  Mg  Mg7_5  1  0.50000000  0.00000000  0.66824932  1
  Mg  Mg7_6  1  0.50000000  0.50000000  0.16824932  1
  Mg  Mg7_7  1  0.50000000  0.50000000  0.66824932  1
  Mg  Mg8_0  1  0.25000000  0.25000000  0.02718180  1
  Mg  Mg8_1  1  0.25000000  0.25000000  0.52718181  1
  Mg  Mg8_2  1  0.25000000  0.75000000  0.02718180  1
  Mg  Mg8_3  1  0.25000000  0.75000000  0.52718181  1
  Mg  Mg8_4  1  0.75000000  0.25000000  0.02718180  1
  Mg  Mg8_5  1  0.75000000  0.25000000  0.52718181  1
  Mg  Mg8_6  1  0.75000000  0.75000000  0.02718180  1
  Mg  Mg8_7  1  0.75000000  0.75000000  0.52718181  1
  Mg  Mg9_0  1  0.25000000  0.25000000  0.19793046  1
  Mg  Mg9_1  1  0.25000000  0.25000000  0.69793045  1
  Mg  Mg9_2  1  0.25000000  0.75000000  0.19793046  1
  Mg  Mg9_3  1  0.25000000  0.75000000  0.69793045  1
  Mg  Mg9_4  1  0.75000000  0.25000000  0.19793046  1
  Mg  Mg9_5  1  0.75000000  0.25000000  0.69793045  1
  Mg  Mg9_6  1  0.75000000  0.75000000  0.19793046  1
  Mg  Mg9_7  1  0.75000000  0.75000000  0.69793045  1
loop_
_geom_bond_atom_site_label_1
_geom_bond_atom_site_label_2
_geom_bond_distance
_geom_bond_site_symmetry_2
Ce0_0 Ce0_2 3.092108 1_545
Ce0_0 Ce0_2 3.092108 1_555
Ce0_0 Mg1_6 3.293223 1_555
Ce0_0 Mg1_0 3.293223 1_555
Ce0_0 Mg1_4 3.293223 1_555
Ce0_0 Mg1_2 3.293223 1_555
Ce0_0 Mg2_0 3.298978 1_555
Ce0_0 Mg2_4 3.298978 1_555
Ce0_0 Mg3_2 3.433528 1_555
Ce0_0 Mg3_0 3.433528 1_555
Ce0_0 Mg4_0 3.434637 1_555
Ce0_0 Mg4_2 3.434637 1_555
Ce0_1 Ce0_3 3.092108 1_545
Ce0_1 Ce0_3 3.092108 1_555
Ce0_1 Mg1_3 3.293223 1_555
Ce0_1 Mg1_7 3.293223 1_555
Ce0_1 Mg1_1 3.293223 1_555
Ce0_1 Mg1_5 3.293223 1_555
Ce0_1 Mg2_1 3.298978 1_555
Ce0_1 Mg2_5 3.298978 1_555
Ce0_1 Mg3_1 3.433528 1_555
Ce0_1 Mg3_3 3.433528 1_555
Ce0_1 Mg4_1 3.434637 1_555
Ce0_1 Mg4_3 3.434637 1_555
Ce0_2 Mg1_6 3.293223 1_555
Ce0_2 Mg1_0 3.293223 1_565
Ce0_2 Mg1_4 3.293223 1_565
Ce0_2 Mg1_2 3.293223 1_555
Ce0_2 Mg2_2 3.298978 1_555
Ce0_2 Mg2_6 3.298978 1_555
Ce0_2 Mg3_0 3.433528 1_565
Ce0_2 Mg3_2 3.433528 1_555
Ce0_2 Mg4_2 3.434637 1_555
Ce0_2 Mg4_0 3.434637 1_565
Ce0_3 Mg1_1 3.293223 1_565
Ce0_3 Mg1_3 3.293223 1_555
Ce0_3 Mg1_7 3.293223 1_555
Ce0_3 Mg1_5 3.293223 1_565
Ce0_3 Mg2_7 3.298978 1_555
Ce0_3 Mg2_3 3.298978 1_555
Ce0_3 Mg3_1 3.433528 1_565
Ce0_3 Mg3_3 3.433528 1_555
Ce0_3 Mg4_1 3.434637 1_565
Ce0_3 Mg4_3 3.434637 1_555
Ce0_4 Ce0_6 3.092108 1_555
Ce0_4 Ce0_6 3.092108 1_545
Ce0_4 Mg1_6 3.293223 1_555
Ce0_4 Mg1_4 3.293223 1_555
Ce0_4 Mg1_0 3.293223 1_655
Ce0_4 Mg1_2 3.293223 1_655
Ce0_4 Mg2_4 3.298978 1_555
Ce0_4 Mg2_0 3.298978 1_655
Ce0_4 Mg3_4 3.433528 1_555
Ce0_4 Mg3_6 3.433528 1_555
Ce0_4 Mg4_6 3.434637 1_555
Ce0_4 Mg4_4 3.434637 1_555
Ce0_5 Ce0_7 3.092108 1_555
Ce0_5 Ce0_7 3.092108 1_545
Ce0_5 Mg1_3 3.293223 1_655
Ce0_5 Mg1_7 3.293223 1_555
Ce0_5 Mg1_1 3.293223 1_655
Ce0_5 Mg1_5 3.293223 1_555
Ce0_5 Mg2_5 3.298978 1_555
Ce0_5 Mg2_1 3.298978 1_655
Ce0_5 Mg3_7 3.433528 1_555
Ce0_5 Mg3_5 3.433528 1_555
Ce0_5 Mg4_5 3.434637 1_555
Ce0_5 Mg4_7 3.434637 1_555
Ce0_6 Mg1_6 3.293223 1_555
Ce0_6 Mg1_4 3.293223 1_565
Ce0_6 Mg1_0 3.293223 1_665
Ce0_6 Mg1_2 3.293223 1_655
Ce0_6 Mg2_2 3.298978 1_655
Ce0_6 Mg2_6 3.298978 1_555
Ce0_6 Mg3_4 3.433528 1_565
Ce0_6 Mg3_6 3.433528 1_555
Ce0_6 Mg4_4 3.434637 1_565
Ce0_6 Mg4_6 3.434637 1_555
Ce0_7 Mg1_1 3.293223 1_665
Ce0_7 Mg1_3 3.293223 1_655
Ce0_7 Mg1_7 3.293223 1_555
Ce0_7 Mg1_5 3.293223 1_565
Ce0_7 Mg2_3 3.298978 1_655
Ce0_7 Mg2_7 3.298978 1_555
Ce0_7 Mg3_7 3.433528 1_555
Ce0_7 Mg3_5 3.433528 1_565
Ce0_7 Mg4_7 3.434637 1_555
Ce0_7 Mg4_5 3.434637 1_565
Ce1_0 Ce1_2 3.092108 1_555
Ce1_0 Ce1_2 3.092108 1_545
Ce1_0 Mg6_2 3.293223 1_545
Ce1_0 Mg6_6 3.293223 1_545
Ce1_0 Mg6_0 3.293223 1_555
Ce1_0 Mg6_4 3.293223 1_555
Ce1_0 Mg7_4 3.298978 1_555
Ce1_0 Mg7_0 3.298978 1_555
Ce1_0 Mg8_2 3.433528 1_545
Ce1_0 Mg8_0 3.433528 1_555
Ce1_0 Mg9_2 3.434637 1_545
Ce1_0 Mg9_0 3.434637 1_555
Ce1_1 Ce1_3 3.092108 1_555
Ce1_1 Ce1_3 3.092108 1_545
Ce1_1 Mg6_1 3.293223 1_555
Ce1_1 Mg6_7 3.293223 1_545
Ce1_1 Mg6_5 3.293223 1_555
Ce1_1 Mg6_3 3.293223 1_545
Ce1_1 Mg7_1 3.298978 1_555
Ce1_1 Mg7_5 3.298978 1_555
Ce1_1 Mg8_1 3.433528 1_555
Ce1_1 Mg8_3 3.433528 1_545
Ce1_1 Mg9_1 3.434637 1_555
Ce1_1 Mg9_3 3.434637 1_545
Ce1_2 Mg6_6 3.293223 1_555
Ce1_2 Mg6_0 3.293223 1_555
Ce1_2 Mg6_2 3.293223 1_555
Ce1_2 Mg6_4 3.293223 1_555
Ce1_2 Mg7_2 3.298978 1_555
Ce1_2 Mg7_6 3.298978 1_555
Ce1_2 Mg8_2 3.433528 1_555
Ce1_2 Mg8_0 3.433528 1_555
Ce1_2 Mg9_2 3.434637 1_555
Ce1_2 Mg9_0 3.434637 1_555
Ce1_3 Mg6_1 3.293223 1_555
Ce1_3 Mg6_3 3.293223 1_555
Ce1_3 Mg6_5 3.293223 1_555
Ce1_3 Mg6_7 3.293223 1_555
Ce1_3 Mg7_3 3.298978 1_555
Ce1_3 Mg7_7 3.298978 1_555
Ce1_3 Mg8_1 3.433528 1_555
Ce1_3 Mg8_3 3.433528 1_555
Ce1_3 Mg9_1 3.434637 1_555
Ce1_3 Mg9_3 3.434637 1_555
Ce1_4 Ce1_6 3.092108 1_555
Ce1_4 Ce1_6 3.092108 1_545
Ce1_4 Mg6_6 3.293223 1_545
Ce1_4 Mg6_0 3.293223 1_655
Ce1_4 Mg6_2 3.293223 1_645
Ce1_4 Mg6_4 3.293223 1_555
Ce1_4 Mg7_4 3.298978 1_555
Ce1_4 Mg7_0 3.298978 1_655
Ce1_4 Mg8_4 3.433528 1_555
Ce1_4 Mg8_6 3.433528 1_545
Ce1_4 Mg9_4 3.434637 1_555
Ce1_4 Mg9_6 3.434637 1_545
Ce1_5 Ce1_7 3.092108 1_545
Ce1_5 Ce1_7 3.092108 1_555
Ce1_5 Mg6_7 3.293223 1_545
Ce1_5 Mg6_3 3.293223 1_645
Ce1_5 Mg6_5 3.293223 1_555
Ce1_5 Mg6_1 3.293223 1_655
Ce1_5 Mg7_1 3.298978 1_655
Ce1_5 Mg7_5 3.298978 1_555
Ce1_5 Mg8_5 3.433528 1_555
Ce1_5 Mg8_7 3.433528 1_545
Ce1_5 Mg9_7 3.434637 1_545
Ce1_5 Mg9_5 3.434637 1_555
Ce1_6 Mg6_2 3.293223 1_655
Ce1_6 Mg6_6 3.293223 1_555
Ce1_6 Mg6_0 3.293223 1_655
Ce1_6 Mg6_4 3.293223 1_555
Ce1_6 Mg7_2 3.298978 1_655
Ce1_6 Mg7_6 3.298978 1_555
Ce1_6 Mg8_4 3.433528 1_555
Ce1_6 Mg8_6 3.433528 1_555
Ce1_6 Mg9_4 3.434637 1_555
Ce1_6 Mg9_6 3.434637 1_555
Ce1_7 Mg6_5 3.293223 1_555
Ce1_7 Mg6_1 3.293223 1_655
Ce1_7 Mg6_3 3.293223 1_655
Ce1_7 Mg6_7 3.293223 1_555
Ce1_7 Mg7_3 3.298978 1_655
Ce1_7 Mg7_7 3.298978 1_555
Ce1_7 Mg8_5 3.433528 1_555
Ce1_7 Mg8_7 3.433528 1_555
Ce1_7 Mg9_7 3.434637 1_555
Ce1_7 Mg9_5 3.434637 1_555
Mg0_0 Mg0_2 3.092108 1_555
Mg0_0 Mg0_2 3.092108 1_545
Mg0_0 Mg6_2 3.191922 1_546
Mg0_0 Mg6_0 3.191922 1_556
Mg0_0 Mg8_6 3.199065 1_446
Mg0_0 Mg8_2 3.199065 1_546
Mg0_0 Mg8_0 3.199065 1_556
Mg0_0 Mg8_4 3.199065 1_456
Mg0_0 Mg4_5 3.218046 1_455
Mg0_0 Mg4_1 3.218046 1_555
Mg0_0 Mg2_1 3.313363 1_555
Mg0_0 Mg2_3 3.313363 1_545
Mg0_1 Mg0_3 3.092108 1_555
Mg0_1 Mg0_3 3.092108 1_545
Mg0_1 Mg6_3 3.191922 1_545
Mg0_1 Mg6_1 3.191922 1_555
Mg0_1 Mg8_5 3.199065 1_455
Mg0_1 Mg8_3 3.199065 1_545
Mg0_1 Mg8_7 3.199065 1_445
Mg0_1 Mg8_1 3.199065 1_555
Mg0_1 Mg4_0 3.218046 1_555
Mg0_1 Mg4_4 3.218046 1_455
Mg0_1 Mg2_2 3.313363 1_545
Mg0_1 Mg2_0 3.313363 1_555
Mg0_2 Mg6_0 3.191922 1_556
Mg0_2 Mg6_2 3.191922 1_556
Mg0_2 Mg8_6 3.199065 1_456
Mg0_2 Mg8_2 3.199065 1_556
Mg0_2 Mg8_0 3.199065 1_556
Mg0_2 Mg8_4 3.199065 1_456
Mg0_2 Mg4_3 3.218046 1_555
Mg0_2 Mg4_7 3.218046 1_455
Mg0_2 Mg2_3 3.313363 1_555
Mg0_2 Mg2_1 3.313363 1_555
Mg0_3 Mg6_3 3.191922 1_555
Mg0_3 Mg6_1 3.191922 1_555
Mg0_3 Mg8_5 3.199065 1_455
Mg0_3 Mg8_3 3.199065 1_555
Mg0_3 Mg8_7 3.199065 1_455
Mg0_3 Mg8_1 3.199065 1_555
Mg0_3 Mg4_2 3.218046 1_555
Mg0_3 Mg4_6 3.218046 1_455
Mg0_3 Mg2_2 3.313363 1_555
Mg0_3 Mg2_0 3.313363 1_555
Mg0_4 Mg0_6 3.092108 1_555
Mg0_4 Mg0_6 3.092108 1_545
Mg0_4 Mg6_4 3.191922 1_556
Mg0_4 Mg6_6 3.191922 1_546
Mg0_4 Mg8_4 3.199065 1_556
Mg0_4 Mg8_2 3.199065 1_546
Mg0_4 Mg8_0 3.199065 1_556
Mg0_4 Mg8_6 3.199065 1_546
Mg0_4 Mg4_5 3.218046 1_555
Mg0_4 Mg4_1 3.218046 1_555
Mg0_4 Mg2_5 3.313363 1_555
Mg0_4 Mg2_7 3.313363 1_545
Mg0_5 Mg0_7 3.092108 1_555
Mg0_5 Mg0_7 3.092108 1_545
Mg0_5 Mg6_5 3.191922 1_555
Mg0_5 Mg6_7 3.191922 1_545
Mg0_5 Mg8_7 3.199065 1_545
Mg0_5 Mg8_3 3.199065 1_545
Mg0_5 Mg8_1 3.199065 1_555
Mg0_5 Mg8_5 3.199065 1_555
Mg0_5 Mg4_4 3.218046 1_555
Mg0_5 Mg4_0 3.218046 1_555
Mg0_5 Mg2_6 3.313363 1_545
Mg0_5 Mg2_4 3.313363 1_555
Mg0_6 Mg6_4 3.191922 1_556
Mg0_6 Mg6_6 3.191922 1_556
Mg0_6 Mg8_4 3.199065 1_556
Mg0_6 Mg8_6 3.199065 1_556
Mg0_6 Mg8_2 3.199065 1_556
Mg0_6 Mg8_0 3.199065 1_556
Mg0_6 Mg4_3 3.218046 1_555
Mg0_6 Mg4_7 3.218046 1_555
Mg0_6 Mg2_5 3.313363 1_555
Mg0_6 Mg2_7 3.313363 1_555
Mg0_7 Mg6_5 3.191922 1_555
Mg0_7 Mg6_7 3.191922 1_555
Mg0_7 Mg8_7 3.199065 1_555
Mg0_7 Mg8_3 3.199065 1_555
Mg0_7 Mg8_1 3.199065 1_555
Mg0_7 Mg8_5 3.199065 1_555
Mg0_7 Mg4_2 3.218046 1_555
Mg0_7 Mg4_6 3.218046 1_555
Mg0_7 Mg2_6 3.313363 1_555
Mg0_7 Mg2_4 3.313363 1_555
Mg1_0 Mg1_2 3.092108 1_555
Mg1_0 Mg1_2 3.092108 1_545
Mg1_0 Mg3_4 3.187092 1_455
Mg1_0 Mg3_0 3.187092 1_555
Mg1_0 Mg5_2 3.191922 1_545
Mg1_0 Mg5_0 3.191922 1_555
Mg1_1 Mg1_3 3.092108 1_555
Mg1_1 Mg1_3 3.092108 1_545
Mg1_1 Mg3_5 3.187092 1_455
Mg1_1 Mg3_1 3.187092 1_555
Mg1_1 Mg5_3 3.191922 1_545
Mg1_1 Mg5_1 3.191922 1_555
Mg1_2 Mg3_6 3.187092 1_455
Mg1_2 Mg3_2 3.187092 1_555
Mg1_2 Mg5_2 3.191922 1_555
Mg1_2 Mg5_0 3.191922 1_555
Mg1_3 Mg3_7 3.187092 1_455
Mg1_3 Mg3_3 3.187092 1_555
Mg1_3 Mg5_3 3.191922 1_555
Mg1_3 Mg5_1 3.191922 1_555
Mg1_4 Mg1_6 3.092108 1_545
Mg1_4 Mg1_6 3.092108 1_555
Mg1_4 Mg3_0 3.187092 1_555
Mg1_4 Mg3_4 3.187092 1_555
Mg1_4 Mg5_4 3.191922 1_555
Mg1_4 Mg5_6 3.191922 1_545
Mg1_5 Mg1_7 3.092108 1_545
Mg1_5 Mg1_7 3.092108 1_555
Mg1_5 Mg3_5 3.187092 1_555
Mg1_5 Mg3_1 3.187092 1_555
Mg1_5 Mg5_5 3.191922 1_555
Mg1_5 Mg5_7 3.191922 1_545
Mg1_6 Mg3_2 3.187092 1_555
Mg1_6 Mg3_6 3.187092 1_555
Mg1_6 Mg5_4 3.191922 1_555
Mg1_6 Mg5_6 3.191922 1_555
Mg1_7 Mg3_3 3.187092 1_555
Mg1_7 Mg3_7 3.187092 1_555
Mg1_7 Mg5_7 3.191922 1_555
Mg1_7 Mg5_5 3.191922 1_555
Mg2_0 Mg2_2 3.092108 1_555
Mg2_0 Mg2_2 3.092108 1_545
Mg2_0 Mg4_4 3.225870 1_455
Mg2_0 Mg4_2 3.225870 1_555
Mg2_0 Mg4_6 3.225870 1_455
Mg2_0 Mg4_0 3.225870 1_555
Mg2_1 Mg2_3 3.092108 1_555
Mg2_1 Mg2_3 3.092108 1_545
Mg2_1 Mg4_5 3.225870 1_455
Mg2_1 Mg4_3 3.225870 1_555
Mg2_1 Mg4_7 3.225870 1_455
Mg2_1 Mg4_1 3.225870 1_555
Mg2_2 Mg4_4 3.225870 1_465
Mg2_2 Mg4_2 3.225870 1_555
Mg2_2 Mg4_0 3.225870 1_565
Mg2_2 Mg4_6 3.225870 1_455
Mg2_3 Mg4_1 3.225870 1_565
Mg2_3 Mg4_3 3.225870 1_555
Mg2_3 Mg4_7 3.225870 1_455
Mg2_3 Mg4_5 3.225870 1_465
Mg2_4 Mg2_6 3.092108 1_545
Mg2_4 Mg2_6 3.092108 1_555
Mg2_4 Mg4_2 3.225870 1_555
Mg2_4 Mg4_6 3.225870 1_555
Mg2_4 Mg4_0 3.225870 1_555
Mg2_4 Mg4_4 3.225870 1_555
Mg2_5 Mg2_7 3.092108 1_545
Mg2_5 Mg2_7 3.092108 1_555
Mg2_5 Mg4_5 3.225870 1_555
Mg2_5 Mg4_3 3.225870 1_555
Mg2_5 Mg4_7 3.225870 1_555
Mg2_5 Mg4_1 3.225870 1_555
Mg2_6 Mg4_2 3.225870 1_555
Mg2_6 Mg4_0 3.225870 1_565
Mg2_6 Mg4_4 3.225870 1_565
Mg2_6 Mg4_6 3.225870 1_555
Mg2_7 Mg4_1 3.225870 1_565
Mg2_7 Mg4_3 3.225870 1_555
Mg2_7 Mg4_7 3.225870 1_555
Mg2_7 Mg4_5 3.225870 1_565
Mg3_0 Mg3_2 3.092108 1_555
Mg3_0 Mg3_2 3.092108 1_545
Mg3_0 Mg5_4 3.199065 1_555
Mg3_0 Mg5_2 3.199065 1_545
Mg3_0 Mg5_0 3.199065 1_555
Mg3_0 Mg5_6 3.199065 1_545
Mg3_0 Mg9_0 3.239226 1_555
Mg3_0 Mg9_2 3.239226 1_545
Mg3_1 Mg3_3 3.092108 1_555
Mg3_1 Mg3_3 3.092108 1_545
Mg3_1 Mg5_1 3.199065 1_555
Mg3_1 Mg5_5 3.199065 1_555
Mg3_1 Mg5_7 3.199065 1_545
Mg3_1 Mg5_3 3.199065 1_545
Mg3_1 Mg9_1 3.239226 1_555
Mg3_1 Mg9_3 3.239226 1_545
Mg3_2 Mg5_4 3.199065 1_555
Mg3_2 Mg5_2 3.199065 1_555
Mg3_2 Mg5_0 3.199065 1_555
Mg3_2 Mg5_6 3.199065 1_555
Mg3_2 Mg9_0 3.239226 1_555
Mg3_2 Mg9_2 3.239226 1_555
Mg3_3 Mg5_1 3.199065 1_555
Mg3_3 Mg5_5 3.199065 1_555
Mg3_3 Mg5_3 3.199065 1_555
Mg3_3 Mg5_7 3.199065 1_555
Mg3_3 Mg9_1 3.239226 1_555
Mg3_3 Mg9_3 3.239226 1_555
Mg3_4 Mg3_6 3.092108 1_555
Mg3_4 Mg3_6 3.092108 1_545
Mg3_4 Mg5_2 3.199065 1_645
Mg3_4 Mg5_4 3.199065 1_555
Mg3_4 Mg5_0 3.199065 1_655
Mg3_4 Mg5_6 3.199065 1_545
Mg3_4 Mg9_6 3.239226 1_545
Mg3_4 Mg9_4 3.239226 1_555
Mg3_5 Mg3_7 3.092108 1_555
Mg3_5 Mg3_7 3.092108 1_545
Mg3_5 Mg5_5 3.199065 1_555
Mg3_5 Mg5_7 3.199065 1_545
Mg3_5 Mg5_3 3.199065 1_645
Mg3_5 Mg5_1 3.199065 1_655
Mg3_5 Mg9_7 3.239226 1_545
Mg3_5 Mg9_5 3.239226 1_555
Mg3_6 Mg5_4 3.199065 1_555
Mg3_6 Mg5_6 3.199065 1_555
Mg3_6 Mg5_0 3.199065 1_655
Mg3_6 Mg5_2 3.199065 1_655
Mg3_6 Mg9_6 3.239226 1_555
Mg3_6 Mg9_4 3.239226 1_555
Mg3_7 Mg5_3 3.199065 1_655
Mg3_7 Mg5_5 3.199065 1_555
Mg3_7 Mg5_7 3.199065 1_555
Mg3_7 Mg5_1 3.199065 1_655
Mg3_7 Mg9_5 3.239226 1_555
Mg3_7 Mg9_7 3.239226 1_555
Mg4_0 Mg4_2 3.092108 1_555
Mg4_0 Mg4_2 3.092108 1_545
Mg4_0 Mg8_3 3.239226 1_545
Mg4_0 Mg8_1 3.239226 1_555
Mg4_1 Mg4_3 3.092108 1_545
Mg4_1 Mg4_3 3.092108 1_555
Mg4_1 Mg8_0 3.239226 1_556
Mg4_1 Mg8_2 3.239226 1_546
Mg4_2 Mg8_1 3.239226 1_555
Mg4_2 Mg8_3 3.239226 1_555
Mg4_3 Mg8_0 3.239226 1_556
Mg4_3 Mg8_2 3.239226 1_556
Mg4_4 Mg4_6 3.092108 1_545
Mg4_4 Mg4_6 3.092108 1_555
Mg4_4 Mg8_5 3.239226 1_555
Mg4_4 Mg8_7 3.239226 1_545
Mg4_5 Mg4_7 3.092108 1_555
Mg4_5 Mg4_7 3.092108 1_545
Mg4_5 Mg8_4 3.239226 1_556
Mg4_5 Mg8_6 3.239226 1_546
Mg4_6 Mg8_5 3.239226 1_555
Mg4_6 Mg8_7 3.239226 1_555
Mg4_7 Mg8_6 3.239226 1_556
Mg4_7 Mg8_4 3.239226 1_556
Mg5_0 Mg5_2 3.092108 1_555
Mg5_0 Mg5_2 3.092108 1_545
Mg5_0 Mg9_0 3.218046 1_555
Mg5_0 Mg9_4 3.218046 1_455
Mg5_0 Mg7_2 3.313363 1_555
Mg5_0 Mg7_0 3.313363 1_555
Mg5_1 Mg5_3 3.092108 1_545
Mg5_1 Mg5_3 3.092108 1_555
Mg5_1 Mg9_1 3.218046 1_555
Mg5_1 Mg9_5 3.218046 1_455
Mg5_1 Mg7_1 3.313363 1_555
Mg5_1 Mg7_3 3.313363 1_555
Mg5_2 Mg9_6 3.218046 1_455
Mg5_2 Mg9_2 3.218046 1_555
Mg5_2 Mg7_2 3.313363 1_555
Mg5_2 Mg7_0 3.313363 1_565
Mg5_3 Mg9_7 3.218046 1_455
Mg5_3 Mg9_3 3.218046 1_555
Mg5_3 Mg7_1 3.313363 1_565
Mg5_3 Mg7_3 3.313363 1_555
Mg5_4 Mg5_6 3.092108 1_545
Mg5_4 Mg5_6 3.092108 1_555
Mg5_4 Mg9_0 3.218046 1_555
Mg5_4 Mg9_4 3.218046 1_555
Mg5_4 Mg7_4 3.313363 1_555
Mg5_4 Mg7_6 3.313363 1_555
Mg5_5 Mg5_7 3.092108 1_555
Mg5_5 Mg5_7 3.092108 1_545
Mg5_5 Mg9_1 3.218046 1_555
Mg5_5 Mg9_5 3.218046 1_555
Mg5_5 Mg7_7 3.313363 1_555
Mg5_5 Mg7_5 3.313363 1_555
Mg5_6 Mg9_2 3.218046 1_555
Mg5_6 Mg9_6 3.218046 1_555
Mg5_6 Mg7_6 3.313363 1_555
Mg5_6 Mg7_4 3.313363 1_565
Mg5_7 Mg9_7 3.218046 1_555
Mg5_7 Mg9_3 3.218046 1_555
Mg5_7 Mg7_5 3.313363 1_565
Mg5_7 Mg7_7 3.313363 1_555
Mg6_0 Mg6_2 3.092108 1_545
Mg6_0 Mg6_2 3.092108 1_555
Mg6_0 Mg8_0 3.187092 1_555
Mg6_0 Mg8_4 3.187092 1_455
Mg6_1 Mg6_3 3.092108 1_555
Mg6_1 Mg6_3 3.092108 1_545
Mg6_1 Mg8_5 3.187092 1_455
Mg6_1 Mg8_1 3.187092 1_555
Mg6_2 Mg8_2 3.187092 1_555
Mg6_2 Mg8_6 3.187092 1_455
Mg6_3 Mg8_3 3.187092 1_555
Mg6_3 Mg8_7 3.187092 1_455
Mg6_4 Mg6_6 3.092108 1_545
Mg6_4 Mg6_6 3.092108 1_555
Mg6_4 Mg8_0 3.187092 1_555
Mg6_4 Mg8_4 3.187092 1_555
Mg6_5 Mg6_7 3.092108 1_555
Mg6_5 Mg6_7 3.092108 1_545
Mg6_5 Mg8_1 3.187092 1_555
Mg6_5 Mg8_5 3.187092 1_555
Mg6_6 Mg8_2 3.187092 1_555
Mg6_6 Mg8_6 3.187092 1_555
Mg6_7 Mg8_3 3.187092 1_555
Mg6_7 Mg8_7 3.187092 1_555
Mg7_0 Mg7_2 3.092108 1_545
Mg7_0 Mg7_2 3.092108 1_555
Mg7_0 Mg9_4 3.225870 1_455
Mg7_0 Mg9_6 3.225870 1_445
Mg7_0 Mg9_0 3.225870 1_555
Mg7_0 Mg9_2 3.225870 1_545
Mg7_1 Mg7_3 3.092108 1_545
Mg7_1 Mg7_3 3.092108 1_555
Mg7_1 Mg9_3 3.225870 1_545
Mg7_1 Mg9_1 3.225870 1_555
Mg7_1 Mg9_5 3.225870 1_455
Mg7_1 Mg9_7 3.225870 1_445
Mg7_2 Mg9_2 3.225870 1_555
Mg7_2 Mg9_4 3.225870 1_455
Mg7_2 Mg9_6 3.225870 1_455
Mg7_2 Mg9_0 3.225870 1_555
Mg7_3 Mg9_7 3.225870 1_455
Mg7_3 Mg9_3 3.225870 1_555
Mg7_3 Mg9_1 3.225870 1_555
Mg7_3 Mg9_5 3.225870 1_455
Mg7_4 Mg7_6 3.092108 1_545
Mg7_4 Mg7_6 3.092108 1_555
Mg7_4 Mg9_4 3.225870 1_555
Mg7_4 Mg9_0 3.225870 1_555
Mg7_4 Mg9_6 3.225870 1_545
Mg7_4 Mg9_2 3.225870 1_545
Mg7_5 Mg7_7 3.092108 1_555
Mg7_5 Mg7_7 3.092108 1_545
Mg7_5 Mg9_5 3.225870 1_555
Mg7_5 Mg9_3 3.225870 1_545
Mg7_5 Mg9_7 3.225870 1_545
Mg7_5 Mg9_1 3.225870 1_555
Mg7_6 Mg9_2 3.225870 1_555
Mg7_6 Mg9_4 3.225870 1_555
Mg7_6 Mg9_6 3.225870 1_555
Mg7_6 Mg9_0 3.225870 1_555
Mg7_7 Mg9_5 3.225870 1_555
Mg7_7 Mg9_3 3.225870 1_555
Mg7_7 Mg9_1 3.225870 1_555
Mg7_7 Mg9_7 3.225870 1_555
Mg8_0 Mg8_2 3.092108 1_555
Mg8_0 Mg8_2 3.092108 1_545
Mg8_1 Mg8_3 3.092108 1_555
Mg8_1 Mg8_3 3.092108 1_545
Mg8_4 Mg8_6 3.092108 1_545
Mg8_4 Mg8_6 3.092108 1_555
Mg8_5 Mg8_7 3.092108 1_545
Mg8_5 Mg8_7 3.092108 1_555
Mg9_0 Mg9_2 3.092108 1_545
Mg9_0 Mg9_2 3.092108 1_555
Mg9_1 Mg9_3 3.092108 1_555
Mg9_1 Mg9_3 3.092108 1_545
Mg9_4 Mg9_6 3.092108 1_555
Mg9_4 Mg9_6 3.092108 1_545
Mg9_5 Mg9_7 3.092108 1_545
Mg9_5 Mg9_7 3.092108 1_555
