# generated using pymatgen
data_Li4MnCo3O8
_symmetry_space_group_name_H-M   'P 1'
_cell_length_a   5.93982514
_cell_length_b   5.93982514
_cell_length_c   5.93982499
_cell_angle_alpha   59.12902919
_cell_angle_beta   59.12902919
_cell_angle_gamma   59.12902702
_symmetry_Int_Tables_number   1
_chemical_formula_structural   Li4MnCo3O8
_chemical_formula_sum   'Li4 Mn1 Co3 O8'
_cell_volume   145.24377461
_cell_formula_units_Z   1
loop_
 _symmetry_equiv_pos_site_id
 _symmetry_equiv_pos_as_xyz
  1  'x, y, z'
loop_
 _atom_site_type_symbol
 _atom_site_label
 _atom_site_symmetry_multiplicity
 _atom_site_fract_x
 _atom_site_fract_y
 _atom_site_fract_z
 _atom_site_occupancy
  Li  Li0  1  0.00000000  0.00000000  0.50000000  1
  Li  Li1  1  0.50000000  0.00000000  0.00000000  1
  Li  Li2  1  0.00000000  0.50000000  0.00000000  1
  Li  Li3  1  0.50000000  0.50000000  0.50000000  1
  Mn  Mn0  1  0.00000000  0.00000000  0.00000000  1
  Co  Co0  1  0.50000000  0.50000000  0.00000000  1
  Co  Co1  1  0.00000000  0.50000000  0.50000000  1
  Co  Co2  1  0.50000000  0.00000000  0.50000000  1
  O  O0  1  0.76573600  0.76573600  0.23888200  1
  O  O1  1  0.23888200  0.76573600  0.76573600  1
  O  O2  1  0.76573600  0.23888200  0.76573600  1
  O  O3  1  0.25856200  0.25856200  0.25856200  1
  O  O4  1  0.23426400  0.23426400  0.76111800  1
  O  O5  1  0.76111800  0.23426400  0.23426400  1
  O  O6  1  0.23426400  0.76111800  0.23426400  1
  O  O7  1  0.74143800  0.74143800  0.74143800  1
loop_
_geom_bond_atom_site_label_1
_geom_bond_atom_site_label_2
_geom_bond_distance
_geom_bond_site_symmetry_2
Li0 O2 2.111696 1_455
Li0 O1 2.111696 1_545
Li0 O5 2.111696 1_455
Li0 O6 2.111696 1_545
Li0 O3 2.161978 1_555
Li0 O7 2.161978 1_445
Li1 O0 2.111696 1_545
Li1 O4 2.111696 1_554
Li1 O2 2.111696 1_554
Li1 O6 2.111696 1_545
Li1 O3 2.161978 1_555
Li1 O7 2.161978 1_544
Li2 O0 2.111696 1_455
Li2 O4 2.111696 1_554
Li2 O1 2.111696 1_554
Li2 O5 2.111696 1_455
Li2 O3 2.161978 1_555
Li2 O7 2.161978 1_454
Li3 O1 2.218235 1_555
Li3 O5 2.218235 1_555
Li3 O2 2.218235 1_555
Li3 O6 2.218235 1_555
Li3 O0 2.218235 1_555
Li3 O4 2.218235 1_555
Mn0 O6 1.954602 1_545
Mn0 O1 1.954602 1_544
Mn0 O5 1.954602 1_455
Mn0 O2 1.954602 1_454
Mn0 O4 1.954602 1_554
Mn0 O0 1.954602 1_445
Co0 O7 2.015458 1_554
Co0 O3 2.015458 1_555
Co0 O6 2.069246 1_555
Co0 O5 2.069246 1_555
Co0 O2 2.069246 1_554
Co0 O1 2.069246 1_554
Co1 O7 2.015458 1_455
Co1 O3 2.015458 1_555
Co1 O4 2.069246 1_555
Co1 O0 2.069246 1_455
Co1 O6 2.069246 1_555
Co1 O2 2.069246 1_455
Co2 O7 2.015458 1_545
Co2 O3 2.015458 1_555
Co2 O4 2.069246 1_555
Co2 O0 2.069246 1_545
Co2 O5 2.069246 1_555
Co2 O1 2.069246 1_545
