# generated using pymatgen
data_V2AgN3
_symmetry_space_group_name_H-M   'P 1'
_cell_length_a   2.94929300
_cell_length_b   2.94929304
_cell_length_c   26.20222200
_cell_angle_alpha   90.00000000
_cell_angle_beta   90.00000000
_cell_angle_gamma   119.99998830
_symmetry_Int_Tables_number   1
_chemical_formula_structural   V2AgN3
_chemical_formula_sum   'V6 Ag3 N9'
_cell_volume   197.38068476
_cell_formula_units_Z   3
loop_
 _symmetry_equiv_pos_site_id
 _symmetry_equiv_pos_as_xyz
  1  'x, y, z'
loop_
 _atom_site_type_symbol
 _atom_site_label
 _atom_site_symmetry_multiplicity
 _atom_site_fract_x
 _atom_site_fract_y
 _atom_site_fract_z
 _atom_site_occupancy
  V  V0  1  0.76515000  0.71016900  0.21375300  1
  V  V1  1  0.94502000  0.23485000  0.88041900  1
  V  V2  1  0.28983100  0.05498000  0.54708600  1
  V  V3  1  0.23485000  0.94502000  0.11958100  1
  V  V4  1  0.71016900  0.76515000  0.78624700  1
  V  V5  1  0.05498000  0.28983100  0.45291400  1
  Ag  Ag0  1  0.00000000  0.36217900  0.66666700  1
  Ag  Ag1  1  0.36217900  0.00000000  0.33333300  1
  Ag  Ag2  1  0.63782100  0.63782100  0.00000000  1
  N  N0  1  0.00000000  0.32703400  0.16666700  1
  N  N1  1  0.32703400  0.00000000  0.83333300  1
  N  N2  1  0.67296600  0.67296600  0.50000000  1
  N  N3  1  0.35522000  0.98942600  0.41508000  1
  N  N4  1  0.63420700  0.64478000  0.08174600  1
  N  N5  1  0.01057400  0.36579300  0.74841300  1
  N  N6  1  0.64478000  0.63420700  0.91825400  1
  N  N7  1  0.98942600  0.35522000  0.58492000  1
  N  N8  1  0.36579300  0.01057400  0.25158700  1
loop_
_geom_bond_atom_site_label_1
_geom_bond_atom_site_label_2
_geom_bond_distance
_geom_bond_site_symmetry_2
Ag0 N5 2.142103 1_555
Ag0 N7 2.142129 1_455
Ag1 N8 2.142103 1_555
Ag1 N3 2.142129 1_545
Ag2 N6 2.142103 1_554
Ag2 N4 2.142103 1_555
N0 V3 2.012878 1_545
N0 V0 2.012880 1_445
N0 V0 2.015299 1_455
N0 V3 2.015301 1_555
N0 V0 2.311173 1_555
N0 V3 2.311173 1_445
N1 V1 2.012878 1_455
N1 V4 2.012880 1_445
N1 V4 2.015299 1_545
N1 V1 2.015301 1_555
N1 V4 2.311173 1_555
N1 V1 2.311173 1_445
N2 V2 2.012880 1_665
N2 V5 2.012880 1_665
N2 V5 2.015301 1_555
N2 V2 2.015301 1_555
N2 V2 2.311170 1_565
N2 V5 2.311170 1_655
N3 V5 1.826567 1_565
N3 V5 2.048669 1_555
N3 V5 2.049020 1_665
N4 V3 1.826577 1_655
N4 V3 2.048686 1_555
N4 V3 2.049033 1_545
N5 V4 1.826563 1_445
N5 V4 2.048670 1_555
N5 V4 2.049024 1_455
N6 V1 1.826577 1_565
N6 V1 2.048686 1_555
N6 V1 2.049033 1_455
N7 V2 1.826567 1_655
N7 V2 2.048669 1_555
N7 V2 2.049020 1_665
N8 V0 1.826563 1_445
N8 V0 2.048670 1_555
N8 V0 2.049024 1_545
