# generated using pymatgen
data_Sr2Zn3Cd
_symmetry_space_group_name_H-M   'P 1'
_cell_length_a   6.05375625
_cell_length_b   6.05375625
_cell_length_c   7.84576429
_cell_angle_alpha   49.57286362
_cell_angle_beta   49.57286362
_cell_angle_gamma   47.16662287
_symmetry_Int_Tables_number   1
_chemical_formula_structural   Sr2Zn3Cd
_chemical_formula_sum   'Sr2 Zn3 Cd1'
_cell_volume   148.99862253
_cell_formula_units_Z   1
loop_
 _symmetry_equiv_pos_site_id
 _symmetry_equiv_pos_as_xyz
  1  'x, y, z'
loop_
 _atom_site_type_symbol
 _atom_site_label
 _atom_site_symmetry_multiplicity
 _atom_site_fract_x
 _atom_site_fract_y
 _atom_site_fract_z
 _atom_site_occupancy
  Sr  Sr0  1  0.44673810  0.44673810  0.80148088  1
  Sr  Sr1  1  0.55193599  0.55193599  0.19784941  1
  Zn  Zn0  1  0.17451522  0.17451522  0.40048118  1
  Zn  Zn1  1  0.15183084  0.15183084  0.78171909  1
  Zn  Zn2  1  0.83723022  0.83723022  0.22223486  1
  Cd  Cd0  1  0.83774964  0.83774964  0.59623358  1
loop_
_geom_bond_atom_site_label_1
_geom_bond_atom_site_label_2
_geom_bond_distance
_geom_bond_site_symmetry_2
Sr0 Zn1 3.251139 1_655
Sr0 Zn1 3.251139 1_565
Sr0 Zn0 3.301426 1_655
Sr0 Zn0 3.301426 1_565
Sr0 Zn0 3.334862 1_556
Sr0 Zn1 3.383856 1_555
Sr0 Zn2 3.400219 1_555
Sr0 Zn2 3.544502 1_546
Sr0 Zn2 3.544502 1_456
Sr1 Zn0 3.262574 1_555
Sr1 Zn2 3.303849 1_555
Sr1 Zn2 3.306606 1_545
Sr1 Zn2 3.306606 1_455
Sr1 Zn1 3.451718 1_555
Sr1 Zn1 3.554247 1_654
Sr1 Zn1 3.554247 1_564
Sr1 Zn0 3.647433 1_565
Sr1 Zn0 3.647433 1_655
Zn0 Zn2 2.740165 1_545
Zn0 Zn2 2.740165 1_455
Zn0 Zn1 2.818615 1_555
Zn1 Zn2 2.656587 1_446
Cd0 Zn1 2.826883 1_655
Cd0 Zn1 2.826883 1_565
Cd0 Zn0 2.863738 1_665
Cd0 Zn2 2.938387 1_555
Cd0 Sr1 3.282010 1_655
Cd0 Sr1 3.282010 1_565
Cd0 Sr1 3.339663 1_556
Cd0 Sr0 3.395683 1_555
Cd0 Sr0 3.560584 1_565
Cd0 Sr0 3.560584 1_655
