# generated using pymatgen
data_SrCrSnWO6
_symmetry_space_group_name_H-M   'P 1'
_cell_length_a   5.64726976
_cell_length_b   5.64726976
_cell_length_c   5.64726976
_cell_angle_alpha   60.00000000
_cell_angle_beta   60.00000000
_cell_angle_gamma   60.00000000
_symmetry_Int_Tables_number   1
_chemical_formula_structural   SrCrSnWO6
_chemical_formula_sum   'Sr1 Cr1 Sn1 W1 O6'
_cell_volume   127.35048477
_cell_formula_units_Z   1
loop_
 _symmetry_equiv_pos_site_id
 _symmetry_equiv_pos_as_xyz
  1  'x, y, z'
loop_
 _atom_site_type_symbol
 _atom_site_label
 _atom_site_symmetry_multiplicity
 _atom_site_fract_x
 _atom_site_fract_y
 _atom_site_fract_z
 _atom_site_occupancy
  Sr  Sr0  1  0.75000000  0.75000000  0.75000000  1
  Cr  Cr0  1  -0.00000000  0.00000000  0.00000000  1
  Sn  Sn0  1  0.25000000  0.25000000  0.25000000  1
  W  W0  1  0.50000000  0.50000000  0.50000000  1
  O  O0  1  0.74908733  0.25091267  0.25091267  1
  O  O1  1  0.25091267  0.74908733  0.74908733  1
  O  O2  1  0.74908733  0.25091267  0.74908733  1
  O  O3  1  0.25091267  0.74908733  0.25091267  1
  O  O4  1  0.74908733  0.74908733  0.25091267  1
  O  O5  1  0.25091267  0.25091267  0.74908733  1
loop_
_geom_bond_atom_site_label_1
_geom_bond_atom_site_label_2
_geom_bond_distance
_geom_bond_site_symmetry_2
Cr0 O4 2.003900 1_445
Cr0 O2 2.003900 1_454
Cr0 O1 2.003900 1_544
Cr0 O0 2.003900 1_455
Cr0 O3 2.003900 1_545
Cr0 O5 2.003900 1_554
O0 W0 1.989322 1_555
O0 Sn0 2.823644 1_655
O0 Sr0 2.823644 1_545
O0 Sr0 2.823644 1_554
O0 Sn0 2.823644 1_555
O1 W0 1.989322 1_555
O1 Sr0 2.823644 1_555
O1 Sn0 2.823644 1_556
O1 Sn0 2.823644 1_565
O1 Sr0 2.823644 1_455
O2 W0 1.989322 1_555
O2 Sr0 2.823644 1_555
O2 Sn0 2.823644 1_655
O2 Sn0 2.823644 1_556
O2 Sr0 2.823644 1_545
O3 W0 1.989322 1_555
O3 Sr0 2.823644 1_455
O3 Sn0 2.823644 1_565
O3 Sr0 2.823644 1_554
O3 Sn0 2.823644 1_555
O4 W0 1.989322 1_555
O4 Sr0 2.823644 1_555
O4 Sn0 2.823644 1_655
O4 Sn0 2.823644 1_565
O4 Sr0 2.823644 1_554
O5 W0 1.989322 1_555
O5 Sn0 2.823644 1_556
O5 Sr0 2.823644 1_545
O5 Sr0 2.823644 1_455
O5 Sn0 2.823644 1_555
