# generated using pymatgen
data_KMg6Ga
_symmetry_space_group_name_H-M   'P 1'
_cell_length_a   5.20725600
_cell_length_b   6.71018500
_cell_length_c   11.58988600
_cell_angle_alpha   90.00000000
_cell_angle_beta   90.00000000
_cell_angle_gamma   90.00000000
_symmetry_Int_Tables_number   1
_chemical_formula_structural   KMg6Ga
_chemical_formula_sum   'K2 Mg12 Ga2'
_cell_volume   404.96975293
_cell_formula_units_Z   2
loop_
 _symmetry_equiv_pos_site_id
 _symmetry_equiv_pos_as_xyz
  1  'x, y, z'
loop_
 _atom_site_type_symbol
 _atom_site_label
 _atom_site_symmetry_multiplicity
 _atom_site_fract_x
 _atom_site_fract_y
 _atom_site_fract_z
 _atom_site_occupancy
  K  K0  1  0.00000000  0.00000000  0.83392300  1
  K  K1  1  0.00000000  0.50000000  0.33392300  1
  Mg  Mg0  1  0.00000000  0.24508300  0.58235700  1
  Mg  Mg1  1  0.00000000  0.75491700  0.58235700  1
  Mg  Mg2  1  0.50000000  0.22877900  0.41597600  1
  Mg  Mg3  1  0.50000000  0.77122100  0.41597600  1
  Mg  Mg4  1  0.50000000  0.00000000  0.65392300  1
  Mg  Mg5  1  0.50000000  0.00000000  0.16790400  1
  Mg  Mg6  1  0.00000000  0.74508300  0.08235700  1
  Mg  Mg7  1  0.00000000  0.25491700  0.08235700  1
  Mg  Mg8  1  0.50000000  0.72877900  0.91597600  1
  Mg  Mg9  1  0.50000000  0.27122100  0.91597600  1
  Mg  Mg10  1  0.50000000  0.50000000  0.15392300  1
  Mg  Mg11  1  0.50000000  0.50000000  0.66790400  1
  Ga  Ga0  1  0.00000000  0.00000000  0.34759000  1
  Ga  Ga1  1  0.00000000  0.50000000  0.84759000  1
loop_
_geom_bond_atom_site_label_1
_geom_bond_atom_site_label_2
_geom_bond_distance
_geom_bond_site_symmetry_2
K0 Mg9 3.315938 1_455
K0 Mg9 3.315938 1_555
K0 Mg8 3.315938 1_445
K0 Mg8 3.315938 1_545
K0 Mg4 3.336319 1_455
K0 Mg4 3.336319 1_555
K0 Mg0 3.347447 1_555
K0 Mg1 3.347447 1_545
K0 Mg7 3.349096 1_556
K0 Mg6 3.349096 1_546
K1 Mg3 3.315938 1_455
K1 Mg3 3.315938 1_555
K1 Mg2 3.315938 1_455
K1 Mg2 3.315938 1_555
K1 Mg10 3.336319 1_555
K1 Mg10 3.336319 1_455
K1 Mg6 3.347447 1_555
K1 Mg7 3.347447 1_555
K1 Mg1 3.349096 1_555
K1 Mg0 3.349096 1_555
Mg0 Mg4 3.189264 1_455
Mg0 Mg4 3.189264 1_555
Mg0 Mg2 3.241810 1_455
Mg0 Mg2 3.241810 1_555
Mg0 Mg11 3.269229 1_455
Mg0 Mg11 3.269229 1_555
Mg0 Mg1 3.289105 1_545
Mg0 Mg1 3.421080 1_555
Mg1 Mg4 3.189264 1_565
Mg1 Mg4 3.189264 1_465
Mg1 Mg3 3.241810 1_455
Mg1 Mg3 3.241810 1_555
Mg1 Mg11 3.269229 1_455
Mg1 Mg11 3.269229 1_555
Mg2 Mg3 3.070299 1_545
Mg2 Mg4 3.156268 1_555
Mg2 Mg5 3.259300 1_555
Mg3 Mg4 3.156268 1_565
Mg3 Mg5 3.259300 1_565
Mg4 Mg9 3.540701 1_555
Mg4 Mg8 3.540701 1_545
Mg5 Mg7 3.269229 1_655
Mg5 Mg7 3.269229 1_555
Mg5 Mg6 3.269229 1_545
Mg5 Mg6 3.269229 1_645
Mg5 Mg9 3.440570 1_554
Mg5 Mg8 3.440570 1_544
Mg6 Mg8 3.241810 1_454
Mg6 Mg8 3.241810 1_554
Mg6 Mg7 3.289105 1_555
Mg6 Mg7 3.421080 1_565
Mg7 Mg9 3.241810 1_554
Mg7 Mg9 3.241810 1_454
Mg8 Mg9 3.070299 1_555
Mg10 Mg8 3.156268 1_554
Mg10 Mg9 3.156268 1_554
Mg10 Mg6 3.189264 1_655
Mg10 Mg6 3.189264 1_555
Mg10 Mg7 3.189264 1_555
Mg10 Mg7 3.189264 1_655
Mg10 Mg5 3.359003 1_555
Mg10 Mg5 3.359003 1_565
Mg10 Mg3 3.540701 1_555
Mg10 Mg2 3.540701 1_555
Mg11 Mg9 3.259300 1_555
Mg11 Mg8 3.259300 1_555
Mg11 Mg4 3.359003 1_565
Mg11 Mg4 3.359003 1_555
Mg11 Mg3 3.440570 1_555
Mg11 Mg2 3.440570 1_555
Ga0 Mg2 3.124701 1_555
Ga0 Mg2 3.124701 1_455
Ga0 Mg3 3.124701 1_545
Ga0 Mg3 3.124701 1_445
Ga0 Mg0 3.179304 1_555
Ga0 Mg1 3.179304 1_545
Ga0 Mg5 3.334044 1_455
Ga0 Mg5 3.334044 1_555
Ga0 K1 3.358830 1_545
Ga0 K1 3.358830 1_555
Ga1 Mg8 3.124701 1_555
Ga1 Mg9 3.124701 1_455
Ga1 Mg9 3.124701 1_555
Ga1 Mg8 3.124701 1_455
Ga1 Mg6 3.179304 1_556
Ga1 Mg7 3.179304 1_556
Ga1 Mg11 3.334044 1_455
Ga1 Mg11 3.334044 1_555
Ga1 K0 3.358830 1_555
Ga1 K0 3.358830 1_565
