# generated using pymatgen
data_TbHfO4
_symmetry_space_group_name_H-M   'P 1'
_cell_length_a   6.46338164
_cell_length_b   6.46338164
_cell_length_c   5.36097428
_cell_angle_alpha   66.53174840
_cell_angle_beta   66.53174840
_cell_angle_gamma   109.17640548
_symmetry_Int_Tables_number   1
_chemical_formula_structural   TbHfO4
_chemical_formula_sum   'Tb2 Hf2 O8'
_cell_volume   153.65435316
_cell_formula_units_Z   2
loop_
 _symmetry_equiv_pos_site_id
 _symmetry_equiv_pos_as_xyz
  1  'x, y, z'
loop_
 _atom_site_type_symbol
 _atom_site_label
 _atom_site_symmetry_multiplicity
 _atom_site_fract_x
 _atom_site_fract_y
 _atom_site_fract_z
 _atom_site_occupancy
  Tb  Tb0  1  0.37405200  0.62594800  0.75000000  1
  Tb  Tb1  1  0.62594800  0.37405200  0.25000000  1
  Hf  Hf0  1  0.11450100  0.88549900  0.25000000  1
  Hf  Hf1  1  0.88549900  0.11450100  0.75000000  1
  O  O0  1  0.57721300  0.02672100  0.70665600  1
  O  O1  1  0.78418800  0.73691300  0.70938600  1
  O  O2  1  0.26308700  0.21581200  0.79061400  1
  O  O3  1  0.02672100  0.57721300  0.20665600  1
  O  O4  1  0.97327900  0.42278700  0.79334400  1
  O  O5  1  0.73691300  0.78418800  0.20938600  1
  O  O6  1  0.21581200  0.26308700  0.29061400  1
  O  O7  1  0.42278700  0.97327900  0.29334400  1
loop_
_geom_bond_atom_site_label_1
_geom_bond_atom_site_label_2
_geom_bond_distance
_geom_bond_site_symmetry_2
Hf0 O3 2.019236 1_555
Hf0 O7 2.019236 1_555
Hf0 O1 2.031477 1_455
Hf0 O2 2.031477 1_564
Hf0 O5 2.432926 1_455
Hf0 O6 2.432926 1_565
Hf1 O0 2.019236 1_555
Hf1 O4 2.019236 1_555
Hf1 O5 2.031477 1_546
Hf1 O6 2.031477 1_655
Hf1 O1 2.432926 1_545
Hf1 O2 2.432926 1_655
O0 Tb0 2.351839 1_545
O0 Tb1 2.382462 1_555
O1 Tb1 2.365494 1_556
O1 Tb0 2.399120 1_555
O2 Tb1 2.365494 1_555
O2 Tb0 2.399120 1_555
O3 Tb1 2.351839 1_455
O3 Tb0 2.382462 1_554
O4 Tb0 2.351839 1_655
O4 Tb1 2.382462 1_556
O5 Tb0 2.365494 1_555
O5 Tb1 2.399120 1_555
O6 Tb0 2.365494 1_554
O6 Tb1 2.399120 1_555
O7 Tb1 2.351839 1_565
O7 Tb0 2.382462 1_555
