# generated using pymatgen
data_Mg(BO4)4
_symmetry_space_group_name_H-M   'P 1'
_cell_length_a   15.28203400
_cell_length_b   7.15304700
_cell_length_c   11.38271745
_cell_angle_alpha   82.82944503
_cell_angle_beta   90.00000000
_cell_angle_gamma   90.00000000
_symmetry_Int_Tables_number   1
_chemical_formula_structural   Mg(BO4)4
_chemical_formula_sum   'Mg4 B16 O64'
_cell_volume   1234.54867650
_cell_formula_units_Z   4
loop_
 _symmetry_equiv_pos_site_id
 _symmetry_equiv_pos_as_xyz
  1  'x, y, z'
loop_
 _atom_site_type_symbol
 _atom_site_label
 _atom_site_symmetry_multiplicity
 _atom_site_fract_x
 _atom_site_fract_y
 _atom_site_fract_z
 _atom_site_occupancy
  Mg  Mg0  1  0.65799400  0.57720700  0.60886800  1
  Mg  Mg1  1  0.15799400  0.42279300  0.89113200  1
  Mg  Mg2  1  0.34200600  0.42279300  0.39113200  1
  Mg  Mg3  1  0.84200600  0.57720700  0.10886800  1
  B  B0  1  0.63959500  0.28248900  0.84473200  1
  B  B1  1  0.13959500  0.71751100  0.65526800  1
  B  B2  1  0.36040500  0.71751100  0.15526800  1
  B  B3  1  0.86040500  0.28248900  0.34473200  1
  B  B4  1  0.01407600  0.13196700  0.81975500  1
  B  B5  1  0.51407600  0.86803300  0.68024500  1
  B  B6  1  0.98592400  0.86803300  0.18024500  1
  B  B7  1  0.48592400  0.13196700  0.31975500  1
  B  B8  1  0.55373100  0.20101400  0.66794500  1
  B  B9  1  0.05373100  0.79898600  0.83205500  1
  B  B10  1  0.44626900  0.79898600  0.33205500  1
  B  B11  1  0.94626900  0.20101400  0.16794500  1
  B  B12  1  0.74738600  0.54636000  0.86483400  1
  B  B13  1  0.24738600  0.45364000  0.63516600  1
  B  B14  1  0.25261400  0.45364000  0.13516600  1
  B  B15  1  0.75261400  0.54636000  0.36483400  1
  O  O0  1  0.57989100  0.76016800  0.66187700  1
  O  O1  1  0.07989100  0.23983200  0.83812300  1
  O  O2  1  0.42010900  0.23983200  0.33812300  1
  O  O3  1  0.92010900  0.76016800  0.16187600  1
  O  O4  1  0.69051200  0.43443800  0.80216800  1
  O  O5  1  0.19051200  0.56556200  0.69783200  1
  O  O6  1  0.30948800  0.56556200  0.19783200  1
  O  O7  1  0.80948800  0.43443800  0.30216800  1
  O  O8  1  0.77167000  0.71310300  0.67062900  1
  O  O9  1  0.27167000  0.28689700  0.82937100  1
  O  O10  1  0.22833000  0.28689700  0.32937100  1
  O  O11  1  0.72833000  0.71310300  0.17062900  1
  O  O12  1  0.78450600  0.08559300  0.08758300  1
  O  O13  1  0.28450600  0.91440700  0.41241700  1
  O  O14  1  0.21549400  0.91440700  0.91241700  1
  O  O15  1  0.71549400  0.08559300  0.58758300  1
  O  O16  1  0.73052600  0.53004300  0.47471600  1
  O  O17  1  0.23052600  0.46995700  0.02528400  1
  O  O18  1  0.26947400  0.46995700  0.52528400  1
  O  O19  1  0.76947400  0.53004300  0.97471600  1
  O  O20  1  0.70162800  0.01582800  0.49556000  1
  O  O21  1  0.20162800  0.98417200  0.00444000  1
  O  O22  1  0.29837200  0.98417200  0.50444000  1
  O  O23  1  0.79837200  0.01582800  0.99556000  1
  O  O24  1  0.59318900  0.17301700  0.78106800  1
  O  O25  1  0.09318900  0.82698300  0.71893200  1
  O  O26  1  0.40681100  0.82698300  0.21893200  1
  O  O27  1  0.90681100  0.17301700  0.28106800  1
  O  O28  1  0.50688100  0.54282500  0.84597800  1
  O  O29  1  0.00688100  0.45717500  0.65402200  1
  O  O30  1  0.49311900  0.45717500  0.15402200  1
  O  O31  1  0.99311900  0.54282500  0.34597800  1
  O  O32  1  0.63735000  0.23517000  0.97293300  1
  O  O33  1  0.13735000  0.76483000  0.52706700  1
  O  O34  1  0.36265000  0.76483000  0.02706700  1
  O  O35  1  0.86265000  0.23517000  0.47293300  1
  O  O36  1  0.41008700  0.91616200  0.98904100  1
  O  O37  1  0.91008700  0.08383800  0.51095900  1
  O  O38  1  0.58991300  0.08383800  0.01095900  1
  O  O39  1  0.08991300  0.91616200  0.48904100  1
  O  O40  1  0.93608900  0.19353000  0.75065000  1
  O  O41  1  0.43608900  0.80647000  0.74935000  1
  O  O42  1  0.06391100  0.80647000  0.24935000  1
  O  O43  1  0.56391100  0.19353000  0.25065000  1
  O  O44  1  0.93529900  0.39764800  0.70914300  1
  O  O45  1  0.43529900  0.60235200  0.79085700  1
  O  O46  1  0.06470100  0.60235200  0.29085700  1
  O  O47  1  0.56470100  0.39764800  0.20914300  1
  O  O48  1  0.00310800  0.94077100  0.86303700  1
  O  O49  1  0.50310800  0.05922900  0.63696300  1
  O  O50  1  0.99689200  0.05922900  0.13696300  1
  O  O51  1  0.49689200  0.94077100  0.36303700  1
  O  O52  1  0.92837600  0.36814900  0.10085700  1
  O  O53  1  0.42837600  0.63185100  0.39914300  1
  O  O54  1  0.07162400  0.63185100  0.89914300  1
  O  O55  1  0.57162400  0.36814900  0.60085700  1
  O  O56  1  0.78939800  0.70065800  0.78700000  1
  O  O57  1  0.28939800  0.29934200  0.71300000  1
  O  O58  1  0.21060200  0.29934200  0.21300000  1
  O  O59  1  0.71060200  0.70065800  0.28700000  1
  O  O60  1  0.50000000  0.50000000  0.00000000  1
  O  O61  1  0.00000000  0.50000000  0.50000000  1
  O  O62  1  0.00000000  0.50000000  0.00000000  1
  O  O63  1  0.50000000  0.50000000  0.50000000  1
loop_
_geom_bond_atom_site_label_1
_geom_bond_atom_site_label_2
_geom_bond_distance
_geom_bond_site_symmetry_2
Mg0 O0 1.923174 1_555
Mg0 O16 1.950084 1_555
Mg0 O55 2.005179 1_555
Mg0 O8 2.151188 1_555
Mg0 O4 2.360115 1_555
Mg1 O1 1.923174 1_555
Mg1 O17 1.950084 1_556
Mg1 O54 2.005179 1_555
Mg1 O9 2.151188 1_555
Mg1 O5 2.360115 1_555
Mg2 O2 1.923174 1_555
Mg2 O18 1.950084 1_555
Mg2 O53 2.005179 1_555
Mg2 O10 2.151188 1_555
Mg2 O6 2.360115 1_555
Mg3 O3 1.923170 1_555
Mg3 O19 1.950084 1_554
Mg3 O52 2.005179 1_555
Mg3 O11 2.151188 1_555
Mg3 O7 2.360115 1_555
B0 O24 1.335262 1_555
B0 O4 1.374803 1_555
B0 O32 1.456681 1_555
B1 O25 1.335262 1_555
B1 O5 1.374803 1_555
B1 O33 1.456681 1_555
B2 O26 1.335262 1_555
B2 O6 1.374803 1_555
B2 O34 1.456681 1_555
B3 O27 1.335262 1_555
B3 O7 1.374803 1_555
B3 O35 1.456681 1_555
B4 O1 1.300347 1_555
B4 O48 1.404645 1_545
B4 O40 1.465120 1_455
B5 O0 1.300347 1_555
B5 O49 1.404645 1_565
B5 O41 1.465120 1_555
B6 O3 1.300350 1_555
B6 O50 1.404645 1_565
B6 O42 1.465120 1_655
B7 O2 1.300347 1_555
B7 O51 1.404645 1_545
B7 O43 1.465120 1_555
B8 O49 1.356739 1_555
B8 O55 1.363556 1_555
B8 O24 1.413284 1_555
B9 O48 1.356739 1_555
B9 O54 1.363556 1_555
B9 O25 1.413284 1_555
B10 O51 1.356739 1_555
B10 O53 1.363556 1_555
B10 O26 1.413284 1_555
B11 O50 1.356739 1_555
B11 O52 1.363556 1_555
B11 O27 1.413284 1_555
B12 O19 1.286665 1_555
B12 O4 1.430989 1_555
B12 O56 1.473490 1_555
B13 O18 1.286665 1_555
B13 O5 1.430989 1_555
B13 O57 1.473490 1_555
B14 O17 1.286665 1_555
B14 O6 1.430989 1_555
B14 O58 1.473490 1_555
B15 O16 1.286665 1_555
B15 O7 1.430989 1_555
B15 O59 1.473490 1_555
O10 O58 1.344060 1_555
O11 O59 1.344060 1_555
O12 O23 1.233543 1_554
O13 O22 1.233543 1_555
O14 O21 1.233543 1_556
O15 O20 1.233543 1_555
O28 O45 1.305731 1_555
O28 O60 1.744848 1_556
O29 O44 1.305731 1_455
O29 O61 1.744848 1_555
O30 O47 1.305731 1_555
O30 O60 1.744848 1_555
O31 O46 1.305731 1_655
O31 O61 1.744848 1_655
O32 O38 1.329542 1_556
O33 O39 1.329542 1_555
O34 O36 1.329542 1_554
O35 O37 1.329542 1_555
O40 O44 1.477479 1_555
O41 O45 1.477479 1_555
O42 O46 1.477479 1_555
O43 O47 1.477479 1_555
O52 O62 1.770658 1_655
O53 O63 1.770658 1_555
O54 O62 1.770658 1_556
O55 O63 1.770658 1_555
O56 O8 1.344060 1_555
O57 O9 1.344060 1_555
