# generated using pymatgen
data_MnAlO3
_symmetry_space_group_name_H-M   'P 1'
_cell_length_a   4.86261800
_cell_length_b   4.98961947
_cell_length_c   5.23819045
_cell_angle_alpha   116.54490346
_cell_angle_beta   89.17355517
_cell_angle_gamma   117.59520691
_symmetry_Int_Tables_number   1
_chemical_formula_structural   MnAlO3
_chemical_formula_sum   'Mn2 Al2 O6'
_cell_volume   97.74293929
_cell_formula_units_Z   2
loop_
 _symmetry_equiv_pos_site_id
 _symmetry_equiv_pos_as_xyz
  1  'x, y, z'
loop_
 _atom_site_type_symbol
 _atom_site_label
 _atom_site_symmetry_multiplicity
 _atom_site_fract_x
 _atom_site_fract_y
 _atom_site_fract_z
 _atom_site_occupancy
  Mn  Mn0  1  0.35444500  0.65447100  0.05928700  1
  Mn  Mn1  1  0.64555500  0.34552900  0.94071300  1
  Al  Al0  1  0.14870100  0.84513800  0.45414400  1
  Al  Al1  1  0.85129900  0.15486200  0.54585600  1
  O  O0  1  0.78487800  0.97472900  0.25963900  1
  O  O1  1  0.08169600  0.56842700  0.28148800  1
  O  O2  1  0.44785400  0.24137400  0.25661000  1
  O  O3  1  0.55214600  0.75862600  0.74339000  1
  O  O4  1  0.91830400  0.43157300  0.71851200  1
  O  O5  1  0.21512200  0.02527100  0.74036100  1
loop_
_geom_bond_atom_site_label_1
_geom_bond_atom_site_label_2
_geom_bond_distance
_geom_bond_site_symmetry_2
Mn0 O1 1.781192 1_555
Mn0 O0 1.871241 1_555
Mn0 O3 2.047503 1_554
Mn0 O4 2.251806 1_454
Mn0 O2 2.434375 1_565
Mn0 O5 2.545689 1_554
Mn1 O4 1.781192 1_555
Mn1 O5 1.871241 1_555
Mn1 O2 2.047503 1_556
Mn1 O1 2.251806 1_656
Mn1 O3 2.434375 1_545
Mn1 O0 2.545689 1_556
Al0 O1 1.142823 1_555
Al0 O5 1.304047 1_565
Al0 O2 2.493211 1_565
Al1 O4 1.142823 1_555
Al1 O0 1.304047 1_545
Al1 O3 2.493211 1_545
