# generated using pymatgen
data_V2Fe(CuO2)3
_symmetry_space_group_name_H-M   'P 1'
_cell_length_a   6.01598715
_cell_length_b   6.01598715
_cell_length_c   9.09366406
_cell_angle_alpha   60.80670056
_cell_angle_beta   60.80670056
_cell_angle_gamma   28.98384973
_symmetry_Int_Tables_number   1
_chemical_formula_structural   V2Fe(CuO2)3
_chemical_formula_sum   'V2 Fe1 Cu3 O6'
_cell_volume   137.76229483
_cell_formula_units_Z   1
loop_
 _symmetry_equiv_pos_site_id
 _symmetry_equiv_pos_as_xyz
  1  'x, y, z'
loop_
 _atom_site_type_symbol
 _atom_site_label
 _atom_site_symmetry_multiplicity
 _atom_site_fract_x
 _atom_site_fract_y
 _atom_site_fract_z
 _atom_site_occupancy
  V  V0  1  0.33617600  0.33617600  0.82888800  1
  V  V1  1  0.66382400  0.66382400  0.17111200  1
  Fe  Fe0  1  0.00000000  0.00000000  0.50000000  1
  Cu  Cu0  1  0.00000000  0.00000000  0.00000000  1
  Cu  Cu1  1  0.33298400  0.33298400  0.33657600  1
  Cu  Cu2  1  0.66701600  0.66701600  0.66342400  1
  O  O0  1  0.18764400  0.18764400  0.30412400  1
  O  O1  1  0.52593200  0.52593200  0.62386100  1
  O  O2  1  0.85764300  0.85764300  0.96410200  1
  O  O3  1  0.81235600  0.81235600  0.69587600  1
  O  O4  1  0.14235700  0.14235700  0.03589800  1
  O  O5  1  0.47406800  0.47406800  0.37613900  1
loop_
_geom_bond_atom_site_label_1
_geom_bond_atom_site_label_2
_geom_bond_distance
_geom_bond_site_symmetry_2
Fe0 O1 1.992277 1_545
Fe0 O1 1.992277 1_455
Fe0 O5 1.992277 1_545
Fe0 O5 1.992277 1_455
Fe0 O3 2.006949 1_445
Fe0 O0 2.006949 1_555
Cu0 O4 1.844480 1_555
Cu0 O2 1.844480 1_444
Cu1 O5 1.851034 1_555
Cu1 O0 1.859317 1_555
Cu2 O1 1.851034 1_555
Cu2 O3 1.859317 1_555
O0 V1 2.035839 1_455
O0 V1 2.035839 1_545
O1 V0 2.051802 1_555
O2 V0 2.037317 1_655
O2 V0 2.037317 1_565
O2 V1 2.087824 1_556
O3 V0 2.035839 1_565
O3 V0 2.035839 1_655
O4 V1 2.037317 1_545
O4 V1 2.037317 1_455
O4 V0 2.087824 1_554
O5 V1 2.051802 1_555
