# generated using pymatgen
data_HoMgCr2O6
_symmetry_space_group_name_H-M   'P 1'
_cell_length_a   5.15683400
_cell_length_b   5.40130200
_cell_length_c   7.53689900
_cell_angle_alpha   90.00000000
_cell_angle_beta   90.00000000
_cell_angle_gamma   90.00000000
_symmetry_Int_Tables_number   1
_chemical_formula_structural   HoMgCr2O6
_chemical_formula_sum   'Ho2 Mg2 Cr4 O12'
_cell_volume   209.92990413
_cell_formula_units_Z   2
loop_
 _symmetry_equiv_pos_site_id
 _symmetry_equiv_pos_as_xyz
  1  'x, y, z'
loop_
 _atom_site_type_symbol
 _atom_site_label
 _atom_site_symmetry_multiplicity
 _atom_site_fract_x
 _atom_site_fract_y
 _atom_site_fract_z
 _atom_site_occupancy
  Ho  Ho0  1  0.01448600  0.68212400  0.00000000  1
  Ho  Ho1  1  0.51448600  0.31787600  0.50000000  1
  Mg  Mg0  1  0.48676600  0.19468900  0.00000000  1
  Mg  Mg1  1  0.98676600  0.80531100  0.50000000  1
  Cr  Cr0  1  0.99939300  0.24442800  0.74993200  1
  Cr  Cr1  1  0.99939300  0.24442800  0.25006800  1
  Cr  Cr2  1  0.49939400  0.75557200  0.24993200  1
  Cr  Cr3  1  0.49939400  0.75557200  0.75006800  1
  O  O0  1  0.10878600  0.18951300  0.50000000  1
  O  O1  1  0.19979200  0.94493500  0.81087000  1
  O  O2  1  0.19979200  0.94493500  0.18913000  1
  O  O3  1  0.32160300  0.44316800  0.80983400  1
  O  O4  1  0.32160300  0.44316800  0.19016600  1
  O  O5  1  0.37304200  0.71174600  0.50000000  1
  O  O6  1  0.60878600  0.81048700  0.00000000  1
  O  O7  1  0.69979200  0.05506500  0.31087000  1
  O  O8  1  0.69979200  0.05506500  0.68913000  1
  O  O9  1  0.82160300  0.55683200  0.69016600  1
  O  O10  1  0.82160300  0.55683200  0.30983400  1
  O  O11  1  0.87304200  0.28825400  0.00000000  1
loop_
_geom_bond_atom_site_label_1
_geom_bond_atom_site_label_2
_geom_bond_distance
_geom_bond_site_symmetry_2
Ho0 O6 2.204019 1_455
Ho0 O1 2.227132 1_554
Ho0 O2 2.227132 1_555
Ho0 O11 2.248979 1_455
Ho0 O4 2.495666 1_555
Ho0 O3 2.495666 1_554
Ho0 O10 2.626868 1_455
Ho0 O9 2.626868 1_454
Ho1 O0 2.204019 1_555
Ho1 O7 2.227132 1_555
Ho1 O8 2.227132 1_555
Ho1 O5 2.248979 1_555
Ho1 O10 2.495666 1_555
Ho1 O9 2.495666 1_555
Ho1 O3 2.626868 1_555
Ho1 O4 2.626868 1_555
Mg0 O11 2.055070 1_555
Mg0 O4 2.140309 1_555
Mg0 O3 2.140309 1_554
Mg0 O6 2.168492 1_545
Mg0 O1 2.457997 1_544
Mg0 O2 2.457997 1_545
Mg0 O8 2.695397 1_554
Mg0 O7 2.695397 1_555
Mg1 O5 2.055070 1_655
Mg1 O9 2.140309 1_555
Mg1 O10 2.140309 1_555
Mg1 O0 2.168492 1_665
Mg1 O7 2.457997 1_565
Mg1 O8 2.457997 1_565
Mg1 O2 2.695397 1_655
Mg1 O1 2.695397 1_655
Cr0 O8 1.908700 1_555
Cr0 O9 1.972503 1_555
Cr0 O1 1.973754 1_645
Cr0 O0 1.988614 1_655
Cr0 O11 2.008187 1_556
Cr0 O3 2.029038 1_655
Cr1 O7 1.908700 1_555
Cr1 O10 1.972503 1_555
Cr1 O2 1.973754 1_645
Cr1 O0 1.988614 1_655
Cr1 O11 2.008187 1_555
Cr1 O4 2.029038 1_655
Cr2 O2 1.908704 1_555
Cr2 O4 1.972506 1_555
Cr2 O7 1.973752 1_565
Cr2 O6 1.988612 1_555
Cr2 O5 2.008189 1_555
Cr2 O10 2.029034 1_555
Cr3 O1 1.908704 1_555
Cr3 O3 1.972506 1_555
Cr3 O8 1.973752 1_565
Cr3 O6 1.988612 1_556
Cr3 O5 2.008189 1_555
Cr3 O9 2.029034 1_555
