# generated using pymatgen
data_TiO2
_symmetry_space_group_name_H-M   'P 1'
_cell_length_a   10.59112378
_cell_length_b   10.78473663
_cell_length_c   10.48617618
_cell_angle_alpha   89.96794960
_cell_angle_beta   83.83199252
_cell_angle_gamma   83.35628125
_symmetry_Int_Tables_number   1
_chemical_formula_structural   TiO2
_chemical_formula_sum   'Ti30 O60'
_cell_volume   1182.74125959
_cell_formula_units_Z   30
loop_
 _symmetry_equiv_pos_site_id
 _symmetry_equiv_pos_as_xyz
  1  'x, y, z'
loop_
 _atom_site_type_symbol
 _atom_site_label
 _atom_site_symmetry_multiplicity
 _atom_site_fract_x
 _atom_site_fract_y
 _atom_site_fract_z
 _atom_site_occupancy
  Ti  Ti0  1  0.17952600  0.34793800  0.38516700  1
  Ti  Ti1  1  0.85582800  0.10086900  0.52685900  1
  Ti  Ti2  1  0.52256500  0.80652500  0.64302300  1
  Ti  Ti3  1  0.75344600  0.79094900  0.19929300  1
  Ti  Ti4  1  0.29551100  0.43981200  0.07341500  1
  Ti  Ti5  1  0.42214900  0.16314100  0.20481600  1
  Ti  Ti6  1  0.99532500  0.56025100  0.26346900  1
  Ti  Ti7  1  0.55775200  0.52110300  0.08098200  1
  Ti  Ti8  1  0.63806800  0.54453400  0.76243300  1
  Ti  Ti9  1  0.48469800  0.36854100  0.45512200  1
  Ti  Ti10  1  0.37323100  0.03956400  0.82894200  1
  Ti  Ti11  1  0.89706500  0.42671500  0.54039000  1
  Ti  Ti12  1  0.08563400  0.43012500  0.80119600  1
  Ti  Ti13  1  0.07197000  0.87230200  0.63600800  1
  Ti  Ti14  1  0.16630300  0.18658800  0.02715800  1
  Ti  Ti15  1  0.30487500  0.65396100  0.81090300  1
  Ti  Ti16  1  0.87502200  0.30017600  0.25659300  1
  Ti  Ti17  1  0.29867200  0.22995200  0.60744800  1
  Ti  Ti18  1  0.60449100  0.22234800  0.73561000  1
  Ti  Ti19  1  0.68390900  0.56013900  0.37316900  1
  Ti  Ti20  1  0.92344600  0.04584400  0.16762200  1
  Ti  Ti21  1  0.83016900  0.76706700  0.48629500  1
  Ti  Ti22  1  0.85860400  0.01416700  0.84005800  1
  Ti  Ti23  1  0.31849900  0.90020000  0.39495700  1
  Ti  Ti24  1  0.10511200  0.90403000  0.95964800  1
  Ti  Ti25  1  0.66002900  0.24876800  0.02789800  1
  Ti  Ti26  1  0.26466600  0.64090000  0.28492300  1
  Ti  Ti27  1  0.16328800  0.61382800  0.56816700  1
  Ti  Ti28  1  0.87519900  0.51448700  0.97051800  1
  Ti  Ti29  1  0.68780300  0.76122000  0.95038900  1
  O  O0  1  0.00898800  0.87395600  0.82527900  1
  O  O1  1  0.28666200  0.80361500  0.25715300  1
  O  O2  1  0.79456200  0.94851600  0.19951900  1
  O  O3  1  0.49857800  0.26621200  0.32089900  1
  O  O4  1  0.47630700  0.89313000  0.79744700  1
  O  O5  1  0.30741900  0.39744800  0.49097900  1
  O  O6  1  0.79177800  0.22087100  0.13477000  1
  O  O7  1  0.22673500  0.53927600  0.71738100  1
  O  O8  1  0.64545800  0.58304400  0.21098000  1
  O  O9  1  0.57196300  0.12446700  0.10402400  1
  O  O10  1  0.33859300  0.06805500  0.66748800  1
  O  O11  1  0.18720900  0.21004100  0.48508000  1
  O  O12  1  0.77402800  0.60159800  0.83962700  1
  O  O13  1  0.16703700  0.93695700  0.49697400  1
  O  O14  1  0.69828100  0.74786800  0.37214700  1
  O  O15  1  0.32372300  0.12868000  0.06386800  1
  O  O16  1  0.93711300  0.37320900  0.86538400  1
  O  O17  1  0.05945700  0.92364800  0.13536600  1
  O  O18  1  0.86100700  0.92237300  0.46848100  1
  O  O19  1  0.74648900  0.90200900  0.86639200  1
  O  O20  1  0.53334100  0.52887000  0.45574900  1
  O  O21  1  0.37444900  0.03727400  0.31107900  1
  O  O22  1  0.00669900  0.73500100  0.56733700  1
  O  O23  1  0.23471100  0.77774800  0.93071400  1
  O  O24  1  0.69718100  0.11286600  0.61083300  1
  O  O25  1  0.03171800  0.56461100  0.91300500  1
  O  O26  1  0.44724800  0.85621400  0.50362800  1
  O  O27  1  0.20494700  0.28768900  0.74710300  1
  O  O28  1  0.26899200  0.31194900  0.23040500  1
  O  O29  1  0.55747700  0.63688400  0.95273000  1
  O  O30  1  0.91455300  0.46175600  0.15195500  1
  O  O31  1  0.93679100  0.05420600  0.98027000  1
  O  O32  1  0.18266200  0.35098400  0.98707800  1
  O  O33  1  0.02971200  0.47203800  0.62848400  1
  O  O34  1  0.20812400  0.76383100  0.68204900  1
  O  O35  1  0.86678200  0.57593200  0.42582300  1
  O  O36  1  0.70853800  0.42266400  0.01800600  1
  O  O37  1  0.04002500  0.19140300  0.15661500  1
  O  O38  1  0.48043200  0.15945200  0.83792500  1
  O  O39  1  0.88590800  0.13846200  0.34315400  1
  O  O40  1  0.74500700  0.38369500  0.36352600  1
  O  O41  1  0.48381600  0.26783000  0.60028600  1
  O  O42  1  0.93014800  0.71791000  0.25031100  1
  O  O43  1  0.59712900  0.38784100  0.78882000  1
  O  O44  1  0.00063900  0.37031400  0.36461700  1
  O  O45  1  0.72912300  0.17241700  0.86783600  1
  O  O46  1  0.94518000  0.02962300  0.66755800  1
  O  O47  1  0.19299500  0.04287100  0.90317600  1
  O  O48  1  0.82191100  0.70011200  0.04079900  1
  O  O49  1  0.39716200  0.54275300  0.19947900  1
  O  O50  1  0.29148500  0.66778400  0.45937400  1
  O  O51  1  0.73610000  0.50196700  0.61322000  1
  O  O52  1  0.12960900  0.54819200  0.39300500  1
  O  O53  1  0.33398400  0.53404600  0.93322300  1
  O  O54  1  0.48436300  0.36063700  0.05865700  1
  O  O55  1  0.69674500  0.77734400  0.62157100  1
  O  O56  1  0.88274200  0.26418800  0.57302100  1
  O  O57  1  0.61424200  0.82710700  0.10287900  1
  O  O58  1  0.47896400  0.65180000  0.71590700  1
  O  O59  1  0.16389300  0.56056600  0.16028400  1
loop_
_geom_bond_atom_site_label_1
_geom_bond_atom_site_label_2
_geom_bond_distance
_geom_bond_site_symmetry_2
O0 Ti24 1.874070 1_555
O0 Ti13 2.024158 1_555
O0 Ti22 2.058475 1_465
O1 Ti26 1.816032 1_555
O1 Ti23 1.864004 1_555
O2 Ti3 1.802435 1_555
O2 Ti20 1.819336 1_565
O3 Ti9 1.772083 1_555
O3 Ti5 1.947839 1_555
O4 Ti10 1.821833 1_565
O4 Ti2 1.860086 1_555
O5 Ti9 1.864637 1_555
O5 Ti0 1.960094 1_555
O5 Ti17 2.185226 1_555
O6 Ti25 1.879365 1_555
O6 Ti16 1.886382 1_555
O6 Ti20 2.262711 1_555
O7 Ti15 1.894482 1_555
O7 Ti27 1.909387 1_555
O7 Ti12 2.124881 1_555
O8 Ti19 1.801243 1_555
O8 Ti7 1.893168 1_555
O9 Ti5 1.815392 1_555
O9 Ti25 1.852676 1_555
O10 Ti10 1.789460 1_555
O10 Ti17 1.873200 1_555
O11 Ti0 1.817855 1_555
O11 Ti17 1.862994 1_555
O12 Ti8 1.887746 1_555
O12 Ti28 1.999073 1_555
O12 Ti29 2.134719 1_555
O13 Ti23 1.832873 1_555
O13 Ti13 1.863179 1_555
O14 Ti3 1.917542 1_555
O14 Ti21 1.962978 1_555
O14 Ti19 2.047744 1_555
O15 Ti14 1.792949 1_555
O15 Ti5 1.957207 1_555
O16 Ti12 1.816482 1_655
O16 Ti28 1.892681 1_555
O17 Ti20 1.839222 1_465
O17 Ti24 1.859862 1_554
O18 Ti21 1.749312 1_555
O18 Ti1 2.013249 1_565
O19 Ti22 1.791887 1_565
O19 Ti29 1.888606 1_555
O20 Ti19 1.798325 1_555
O20 Ti9 1.860680 1_555
O21 Ti5 1.837265 1_555
O21 Ti23 1.843747 1_545
O22 Ti13 1.879916 1_555
O22 Ti27 1.989954 1_555
O22 Ti21 2.128115 1_455
O23 Ti24 1.819154 1_555
O23 Ti15 1.866711 1_555
O24 Ti1 1.802015 1_555
O24 Ti18 1.878124 1_555
O25 Ti28 1.842852 1_455
O25 Ti12 1.862996 1_555
O26 Ti2 1.791893 1_555
O26 Ti23 1.888549 1_555
O27 Ti17 1.750231 1_555
O27 Ti12 1.917309 1_555
O28 Ti0 1.807576 1_555
O28 Ti5 2.140881 1_555
O28 Ti4 2.162919 1_555
O29 Ti7 1.834662 1_556
O29 Ti29 2.030981 1_555
O29 Ti8 2.267594 1_555
O30 Ti6 1.911594 1_555
O30 Ti28 2.057011 1_554
O30 Ti16 2.117513 1_555
O31 Ti22 1.838211 1_555
O31 Ti20 1.957260 1_556
O31 Ti24 2.257743 1_645
O32 Ti14 1.845175 1_556
O32 Ti4 1.914241 1_556
O32 Ti12 2.410288 1_555
O33 Ti11 1.871962 1_455
O33 Ti12 2.000699 1_555
O33 Ti27 2.246564 1_555
O34 Ti13 1.854633 1_555
O34 Ti15 2.072326 1_555
O34 Ti27 2.137860 1_555
O35 Ti11 2.024130 1_555
O35 Ti6 2.056562 1_555
O35 Ti19 2.095572 1_555
O35 Ti21 2.136648 1_555
O36 Ti7 1.869603 1_555
O36 Ti25 2.000801 1_555
O36 Ti28 2.135263 1_554
O37 Ti14 1.796691 1_555
O37 Ti20 2.102332 1_455
O37 Ti16 2.159295 1_455
O38 Ti18 1.800027 1_555
O38 Ti10 1.825515 1_555
O39 Ti16 1.962926 1_555
O39 Ti1 1.968217 1_555
O39 Ti20 2.072855 1_555
O40 Ti16 1.829521 1_555
O40 Ti19 1.936808 1_555
O41 Ti9 1.869324 1_555
O41 Ti18 2.032643 1_555
O41 Ti17 2.042363 1_555
O42 Ti6 1.770656 1_555
O42 Ti3 2.069461 1_555
O43 Ti8 1.806527 1_555
O43 Ti18 1.860774 1_555
O44 Ti0 1.917320 1_555
O44 Ti16 2.045241 1_455
O44 Ti11 2.093570 1_455
O44 Ti6 2.303889 1_455
O45 Ti25 1.904960 1_556
O45 Ti18 2.045202 1_555
O45 Ti22 2.061887 1_555
O46 Ti1 1.947626 1_555
O46 Ti22 1.954268 1_555
O46 Ti13 2.041896 1_645
O47 Ti24 1.913682 1_545
O47 Ti10 1.978913 1_555
O47 Ti14 1.998600 1_556
O48 Ti29 1.850030 1_554
O48 Ti3 1.956075 1_555
O48 Ti28 2.126069 1_554
O49 Ti26 1.810956 1_555
O49 Ti7 1.986360 1_555
O49 Ti4 2.173274 1_555
O50 Ti27 1.825594 1_555
O50 Ti26 1.908527 1_555
O51 Ti8 1.810627 1_555
O51 Ti11 1.883883 1_555
O52 Ti27 2.050058 1_555
O52 Ti6 2.063210 1_455
O52 Ti26 2.076422 1_555
O52 Ti0 2.162676 1_555
O53 Ti4 1.823577 1_556
O53 Ti15 1.844899 1_555
O54 Ti7 2.001170 1_555
O54 Ti4 2.071744 1_555
O54 Ti25 2.091214 1_555
O55 Ti2 1.824653 1_555
O55 Ti21 1.885357 1_555
O56 Ti11 1.806140 1_555
O56 Ti1 1.888044 1_555
O57 Ti29 1.809499 1_554
O57 Ti3 1.880076 1_555
O58 Ti2 1.919075 1_555
O58 Ti15 1.996957 1_555
O58 Ti8 2.034893 1_555
O59 Ti4 1.943541 1_555
O59 Ti6 1.986062 1_455
O59 Ti26 2.028040 1_555
