# generated using pymatgen
data_Ti3Al2(SiO4)3
_symmetry_space_group_name_H-M   'P 1'
_cell_length_a   10.10637790
_cell_length_b   10.10637790
_cell_length_c   10.10637790
_cell_angle_alpha   109.47122063
_cell_angle_beta   109.47122063
_cell_angle_gamma   109.47122063
_symmetry_Int_Tables_number   1
_chemical_formula_structural   Ti3Al2(SiO4)3
_chemical_formula_sum   'Ti12 Al8 Si12 O48'
_cell_volume   794.62954661
_cell_formula_units_Z   4
loop_
 _symmetry_equiv_pos_site_id
 _symmetry_equiv_pos_as_xyz
  1  'x, y, z'
loop_
 _atom_site_type_symbol
 _atom_site_label
 _atom_site_symmetry_multiplicity
 _atom_site_fract_x
 _atom_site_fract_y
 _atom_site_fract_z
 _atom_site_occupancy
  Ti  Ti0  1  0.87500000  0.62500000  0.25000000  1
  Ti  Ti1  1  0.62500000  0.25000000  0.87500000  1
  Ti  Ti2  1  0.87500000  0.75000000  0.62500000  1
  Ti  Ti3  1  0.75000000  0.62500000  0.87500000  1
  Ti  Ti4  1  0.25000000  0.87500000  0.62500000  1
  Ti  Ti5  1  0.62500000  0.87500000  0.75000000  1
  Ti  Ti6  1  0.12500000  0.37500000  0.75000000  1
  Ti  Ti7  1  0.37500000  0.75000000  0.12500000  1
  Ti  Ti8  1  0.12500000  0.25000000  0.37500000  1
  Ti  Ti9  1  0.25000000  0.37500000  0.12500000  1
  Ti  Ti10  1  0.75000000  0.12500000  0.37500000  1
  Ti  Ti11  1  0.37500000  0.12500000  0.25000000  1
  Al  Al0  1  0.00000000  0.00000000  0.50000000  1
  Al  Al1  1  0.00000000  0.00000000  0.00000000  1
  Al  Al2  1  0.50000000  0.00000000  0.00000000  1
  Al  Al3  1  0.00000000  0.50000000  0.00000000  1
  Al  Al4  1  0.50000000  0.50000000  0.00000000  1
  Al  Al5  1  0.00000000  0.50000000  0.50000000  1
  Al  Al6  1  0.50000000  0.00000000  0.50000000  1
  Al  Al7  1  0.50000000  0.50000000  0.50000000  1
  Si  Si0  1  0.12500000  0.87500000  0.25000000  1
  Si  Si1  1  0.25000000  0.12500000  0.87500000  1
  Si  Si2  1  0.75000000  0.37500000  0.62500000  1
  Si  Si3  1  0.62500000  0.37500000  0.25000000  1
  Si  Si4  1  0.62500000  0.75000000  0.37500000  1
  Si  Si5  1  0.37500000  0.62500000  0.75000000  1
  Si  Si6  1  0.12500000  0.75000000  0.87500000  1
  Si  Si7  1  0.75000000  0.87500000  0.12500000  1
  Si  Si8  1  0.87500000  0.25000000  0.12500000  1
  Si  Si9  1  0.37500000  0.25000000  0.62500000  1
  Si  Si10  1  0.25000000  0.62500000  0.37500000  1
  Si  Si11  1  0.87500000  0.12500000  0.75000000  1
  O  O0  1  0.48423000  0.38347400  0.29673900  1
  O  O1  1  0.31250900  0.89924400  0.01577000  1
  O  O2  1  0.60075600  0.91326500  0.11652600  1
  O  O3  1  0.58673500  0.18749100  0.20326100  1
  O  O4  1  0.11652600  0.01577000  0.20326100  1
  O  O5  1  0.18749100  0.20326100  0.58673500  1
  O  O6  1  0.18749100  0.48423000  0.60075600  1
  O  O7  1  0.20326100  0.58673500  0.18749100  1
  O  O8  1  0.38347400  0.58673500  0.89924400  1
  O  O9  1  0.91326500  0.29673900  0.31250900  1
  O  O10  1  0.29673900  0.31250900  0.91326500  1
  O  O11  1  0.20326100  0.11652600  0.01577000  1
  O  O12  1  0.48423000  0.60075600  0.18749100  1
  O  O13  1  0.89924400  0.38347400  0.58673500  1
  O  O14  1  0.01577000  0.20326100  0.11652600  1
  O  O15  1  0.60075600  0.18749100  0.48423000  1
  O  O16  1  0.58673500  0.89924400  0.38347400  1
  O  O17  1  0.01577000  0.31250900  0.89924400  1
  O  O18  1  0.91326500  0.11652600  0.60075600  1
  O  O19  1  0.61652600  0.41326500  0.10075600  1
  O  O20  1  0.38347400  0.29673900  0.48423000  1
  O  O21  1  0.29673900  0.48423000  0.38347400  1
  O  O22  1  0.89924400  0.01577000  0.31250900  1
  O  O23  1  0.31250900  0.91326500  0.29673900  1
  O  O24  1  0.51577000  0.61652600  0.70326100  1
  O  O25  1  0.68749100  0.10075600  0.98423000  1
  O  O26  1  0.39924400  0.08673500  0.88347400  1
  O  O27  1  0.41326500  0.81250900  0.79673900  1
  O  O28  1  0.88347400  0.98423000  0.79673900  1
  O  O29  1  0.81250900  0.79673900  0.41326500  1
  O  O30  1  0.81250900  0.51577000  0.39924400  1
  O  O31  1  0.79673900  0.41326500  0.81250900  1
  O  O32  1  0.68749100  0.08673500  0.70326100  1
  O  O33  1  0.10075600  0.98423000  0.68749100  1
  O  O34  1  0.70326100  0.51577000  0.61652600  1
  O  O35  1  0.61652600  0.70326100  0.51577000  1
  O  O36  1  0.88347400  0.39924400  0.08673500  1
  O  O37  1  0.08673500  0.88347400  0.39924400  1
  O  O38  1  0.98423000  0.68749100  0.10075600  1
  O  O39  1  0.41326500  0.10075600  0.61652600  1
  O  O40  1  0.39924400  0.81250900  0.51577000  1
  O  O41  1  0.98423000  0.79673900  0.88347400  1
  O  O42  1  0.10075600  0.61652600  0.41326500  1
  O  O43  1  0.51577000  0.39924400  0.81250900  1
  O  O44  1  0.79673900  0.88347400  0.98423000  1
  O  O45  1  0.70326100  0.68749100  0.08673500  1
  O  O46  1  0.08673500  0.70326100  0.68749100  1
  O  O47  1  0.11652600  0.60075600  0.91326500  1
loop_
_geom_bond_atom_site_label_1
_geom_bond_atom_site_label_2
_geom_bond_distance
_geom_bond_site_symmetry_2
Al0 O33 1.917281 1_545
Al0 O18 1.917281 1_455
Al0 O22 1.917281 1_455
Al0 O29 1.917281 1_445
Al0 O5 1.917281 1_555
Al0 O37 1.917281 1_545
Al1 O14 1.917281 1_555
Al1 O11 1.917281 1_555
Al1 O4 1.917281 1_555
Al1 O44 1.917281 1_444
Al1 O41 1.917281 1_444
Al1 O28 1.917281 1_444
Al2 O25 1.917281 1_554
Al2 O3 1.917281 1_555
Al2 O1 1.917281 1_545
Al2 O27 1.917281 1_544
Al2 O2 1.917281 1_545
Al2 O26 1.917281 1_554
Al3 O38 1.917281 1_455
Al3 O7 1.917281 1_555
Al3 O17 1.917281 1_554
Al3 O47 1.917281 1_554
Al3 O31 1.917281 1_454
Al3 O36 1.917281 1_455
Al4 O43 1.917281 1_554
Al4 O8 1.917281 1_554
Al4 O12 1.917281 1_555
Al4 O10 1.917281 1_554
Al4 O45 1.917281 1_555
Al4 O19 1.917281 1_555
Al5 O30 1.917281 1_455
Al5 O6 1.917281 1_555
Al5 O46 1.917281 1_555
Al5 O13 1.917281 1_455
Al5 O42 1.917281 1_555
Al5 O9 1.917281 1_455
Al6 O40 1.917281 1_545
Al6 O16 1.917281 1_545
Al6 O39 1.917281 1_555
Al6 O15 1.917281 1_555
Al6 O32 1.917281 1_555
Al6 O23 1.917281 1_545
Al7 O0 1.917281 1_555
Al7 O21 1.917281 1_555
Al7 O20 1.917281 1_555
Al7 O35 1.917281 1_555
Al7 O34 1.917281 1_555
Al7 O24 1.917281 1_555
O0 Si3 1.660341 1_555
O0 Ti11 2.274385 1_555
O0 Ti9 2.377013 1_555
O1 Si6 1.660341 1_554
O1 Ti7 2.274385 1_555
O1 Ti11 2.377013 1_565
O2 Si7 1.660341 1_555
O2 Ti10 2.274385 1_565
O2 Ti7 2.377013 1_555
O3 Si3 1.660341 1_555
O3 Ti11 2.274385 1_555
O3 Ti10 2.377013 1_555
O4 Si0 1.660341 1_545
O4 Ti11 2.274385 1_555
O4 Ti8 2.377013 1_555
O5 Si9 1.660341 1_555
O5 Ti8 2.274385 1_555
O5 Ti6 2.377013 1_555
O6 Si5 1.660341 1_555
O6 Ti6 2.274385 1_555
O6 Ti8 2.377013 1_555
O7 Si10 1.660341 1_555
O7 Ti9 2.274385 1_555
O7 Ti7 2.377013 1_555
O8 Si5 1.660341 1_555
O8 Ti6 2.274385 1_555
O8 Ti7 2.377013 1_556
O9 Si8 1.660341 1_555
O9 Ti8 2.274385 1_655
O9 Ti10 2.377013 1_555
O10 Si1 1.660341 1_555
O10 Ti9 2.274385 1_556
O10 Ti6 2.377013 1_555
O11 Si1 1.660341 1_554
O11 Ti9 2.274385 1_555
O11 Ti11 2.377013 1_555
O12 Si4 1.660341 1_555
O12 Ti7 2.274385 1_555
O12 Ti9 2.377013 1_555
O13 Si2 1.660341 1_555
O13 Ti10 2.274385 1_555
O13 Ti6 2.377013 1_655
O14 Si8 1.660341 1_455
O14 Ti8 2.274385 1_555
O14 Ti9 2.377013 1_555
O15 Si2 1.660341 1_555
O15 Ti10 2.274385 1_555
O15 Ti11 2.377013 1_555
O16 Si4 1.660341 1_555
O16 Ti7 2.274385 1_555
O16 Ti10 2.377013 1_565
O17 Si11 1.660341 1_455
O17 Ti6 2.274385 1_555
O17 Ti9 2.377013 1_556
O18 Si11 1.660341 1_555
O18 Ti6 2.274385 1_655
O18 Ti10 2.377013 1_555
O19 Si3 1.660341 1_555
O19 Ti0 2.274385 1_555
O19 Ti1 2.377013 1_554
O20 Si9 1.660341 1_555
O20 Ti8 2.274385 1_555
O20 Ti11 2.377013 1_555
O21 Si10 1.660341 1_555
O21 Ti9 2.274385 1_555
O21 Ti8 2.377013 1_555
O22 Si7 1.660341 1_545
O22 Ti10 2.274385 1_555
O22 Ti8 2.377013 1_655
O23 Si0 1.660341 1_555
O23 Ti11 2.274385 1_565
O23 Ti7 2.377013 1_555
O24 Si5 1.660341 1_555
O24 Ti5 2.274385 1_555
O24 Ti3 2.377013 1_555
O25 Si8 1.660341 1_556
O25 Ti1 2.274385 1_555
O25 Ti5 2.377013 1_545
O26 Si1 1.660341 1_555
O26 Ti4 2.274385 1_545
O26 Ti1 2.377013 1_555
O27 Si5 1.660341 1_555
O27 Ti5 2.274385 1_555
O27 Ti4 2.377013 1_555
O28 Si11 1.660341 1_565
O28 Ti5 2.274385 1_555
O28 Ti2 2.377013 1_555
O29 Si4 1.660341 1_555
O29 Ti2 2.274385 1_555
O29 Ti0 2.377013 1_555
O30 Si3 1.660341 1_555
O30 Ti0 2.274385 1_555
O30 Ti2 2.377013 1_555
O31 Si2 1.660341 1_555
O31 Ti3 2.274385 1_555
O31 Ti1 2.377013 1_555
O32 Si11 1.660341 1_555
O32 Ti5 2.274385 1_545
O32 Ti1 2.377013 1_555
O33 Si1 1.660341 1_565
O33 Ti4 2.274385 1_555
O33 Ti2 2.377013 1_455
O34 Si2 1.660341 1_555
O34 Ti3 2.274385 1_555
O34 Ti2 2.377013 1_555
O35 Si4 1.660341 1_555
O35 Ti2 2.274385 1_555
O35 Ti5 2.377013 1_555
O36 Si8 1.660341 1_555
O36 Ti1 2.274385 1_554
O36 Ti0 2.377013 1_555
O37 Si0 1.660341 1_555
O37 Ti0 2.274385 1_455
O37 Ti4 2.377013 1_555
O38 Si0 1.660341 1_655
O38 Ti0 2.274385 1_555
O38 Ti3 2.377013 1_554
O39 Si9 1.660341 1_555
O39 Ti1 2.274385 1_555
O39 Ti4 2.377013 1_545
O40 Si10 1.660341 1_555
O40 Ti4 2.274385 1_555
O40 Ti5 2.377013 1_555
O41 Si6 1.660341 1_655
O41 Ti2 2.274385 1_555
O41 Ti3 2.377013 1_555
O42 Si10 1.660341 1_555
O42 Ti4 2.274385 1_555
O42 Ti0 2.377013 1_455
O43 Si9 1.660341 1_555
O43 Ti1 2.274385 1_555
O43 Ti3 2.377013 1_555
O44 Si7 1.660341 1_556
O44 Ti3 2.274385 1_555
O44 Ti5 2.377013 1_555
O45 Si7 1.660341 1_555
O45 Ti3 2.274385 1_554
O45 Ti0 2.377013 1_555
O46 Si6 1.660341 1_555
O46 Ti2 2.274385 1_455
O46 Ti4 2.377013 1_555
O47 Si6 1.660341 1_555
O47 Ti7 2.274385 1_556
O47 Ti6 2.377013 1_555
