# generated using pymatgen
data_NaPr(FeO3)4
_symmetry_space_group_name_H-M   'P 1'
_cell_length_a   5.39490807
_cell_length_b   5.39490807
_cell_length_c   7.69423241
_cell_angle_alpha   90.00000000
_cell_angle_beta   90.00000000
_cell_angle_gamma   90.00000000
_symmetry_Int_Tables_number   1
_chemical_formula_structural   NaPr(FeO3)4
_chemical_formula_sum   'Na1 Pr1 Fe4 O12'
_cell_volume   223.94088885
_cell_formula_units_Z   1
loop_
 _symmetry_equiv_pos_site_id
 _symmetry_equiv_pos_as_xyz
  1  'x, y, z'
loop_
 _atom_site_type_symbol
 _atom_site_label
 _atom_site_symmetry_multiplicity
 _atom_site_fract_x
 _atom_site_fract_y
 _atom_site_fract_z
 _atom_site_occupancy
  Na  Na0  1  0.50000000  0.50000000  -0.00000000  1
  Pr  Pr0  1  0.00000000  -0.00000000  0.50000000  1
  Fe  Fe0  1  -0.00000000  0.50000000  0.75622570  1
  Fe  Fe1  1  0.00000000  0.50000000  0.24377430  1
  Fe  Fe2  1  0.50000000  -0.00000000  0.24377430  1
  Fe  Fe3  1  0.50000000  -0.00000000  0.75622570  1
  O  O0  1  0.24257851  0.24257851  0.25874785  1
  O  O1  1  0.24257851  0.24257851  0.74125215  1
  O  O2  1  0.75742149  0.75742149  0.74125215  1
  O  O3  1  0.75742149  0.75742149  0.25874785  1
  O  O4  1  0.75742149  0.24257851  0.74125215  1
  O  O5  1  0.75742149  0.24257851  0.25874785  1
  O  O6  1  0.24257851  0.75742149  0.74125215  1
  O  O7  1  0.24257851  0.75742149  0.25874785  1
  O  O8  1  -0.00000000  0.50000000  0.50000000  1
  O  O9  1  -0.00000000  0.50000000  -0.00000000  1
  O  O10  1  0.50000000  -0.00000000  0.50000000  1
  O  O11  1  0.50000000  0.00000000  -0.00000000  1
loop_
_geom_bond_atom_site_label_1
_geom_bond_atom_site_label_2
_geom_bond_distance
_geom_bond_site_symmetry_2
Na0 O11 2.697454 1_555
Na0 O11 2.697454 1_565
Na0 O9 2.697454 1_555
Na0 O9 2.697454 1_655
Na0 O7 2.796585 1_555
Na0 O0 2.796585 1_555
Na0 O5 2.796585 1_555
Na0 O1 2.796585 1_554
Na0 O2 2.796585 1_554
Na0 O3 2.796585 1_555
Na0 O4 2.796585 1_554
Na0 O6 2.796585 1_554
Fe0 O9 1.875656 1_556
Fe0 O1 1.911703 1_555
Fe0 O2 1.911703 1_455
Fe0 O6 1.911703 1_555
Fe0 O4 1.911703 1_455
Fe0 O8 1.971460 1_555
Fe1 O9 1.875656 1_555
Fe1 O7 1.911703 1_555
Fe1 O0 1.911703 1_555
Fe1 O5 1.911703 1_455
Fe1 O3 1.911703 1_455
Fe1 O8 1.971460 1_555
Fe2 O11 1.875656 1_555
Fe2 O0 1.911703 1_555
Fe2 O5 1.911703 1_555
Fe2 O3 1.911703 1_545
Fe2 O7 1.911703 1_545
Fe2 O10 1.971460 1_555
Fe3 O11 1.875656 1_556
Fe3 O1 1.911703 1_555
Fe3 O4 1.911703 1_555
Fe3 O6 1.911703 1_545
Fe3 O2 1.911703 1_545
Fe3 O10 1.971460 1_555
O0 Pr0 2.621259 1_555
O1 Pr0 2.621259 1_555
O2 Pr0 2.621259 1_665
O3 Pr0 2.621259 1_665
O4 Pr0 2.621259 1_655
O5 Pr0 2.621259 1_655
O6 Pr0 2.621259 1_565
O7 Pr0 2.621259 1_565
O8 Pr0 2.697454 1_555
O8 Pr0 2.697454 1_565
O10 Pr0 2.697454 1_555
O10 Pr0 2.697454 1_655
