# generated using pymatgen
data_Na9(WO3)13
_symmetry_space_group_name_H-M   'P 1'
_cell_length_a   11.85153132
_cell_length_b   11.85153132
_cell_length_c   13.10657519
_cell_angle_alpha   72.46895686
_cell_angle_beta   72.46895686
_cell_angle_gamma   27.17627379
_symmetry_Int_Tables_number   1
_chemical_formula_structural   Na9(WO3)13
_chemical_formula_sum   'Na9 W13 O39'
_cell_volume   799.41610290
_cell_formula_units_Z   1
loop_
 _symmetry_equiv_pos_site_id
 _symmetry_equiv_pos_as_xyz
  1  'x, y, z'
loop_
 _atom_site_type_symbol
 _atom_site_label
 _atom_site_symmetry_multiplicity
 _atom_site_fract_x
 _atom_site_fract_y
 _atom_site_fract_z
 _atom_site_occupancy
  Na  Na0  1  0.65378600  0.65378600  0.96077400  1
  Na  Na1  1  0.34621400  0.34621400  0.03922600  1
  Na  Na2  1  0.03814600  0.03814600  0.11526100  1
  Na  Na3  1  0.96185400  0.96185400  0.88473900  1
  Na  Na4  1  0.50000000  0.50000000  0.50000000  1
  Na  Na5  1  0.19218600  0.19218600  0.57851500  1
  Na  Na6  1  0.11646000  0.11646000  0.34494000  1
  Na  Na7  1  0.80781400  0.80781400  0.42148500  1
  Na  Na8  1  0.88354000  0.88354000  0.65506000  1
  W  W0  1  0.19422600  0.19422600  0.07739300  1
  W  W1  1  0.57722400  0.57722400  0.22991900  1
  W  W2  1  0.72995200  0.72995200  0.69487200  1
  W  W3  1  0.50000000  0.50000000  0.00000000  1
  W  W4  1  0.11630200  0.11630200  0.84675700  1
  W  W5  1  0.65515500  0.65515500  0.46150500  1
  W  W6  1  0.96083000  0.96083000  0.38324500  1
  W  W7  1  0.88369800  0.88369800  0.15324300  1
  W  W8  1  0.80577400  0.80577400  0.92260700  1
  W  W9  1  0.34484500  0.34484500  0.53849500  1
  W  W10  1  0.42277600  0.42277600  0.77008100  1
  W  W11  1  0.03917000  0.03917000  0.61675500  1
  W  W12  1  0.27004800  0.27004800  0.30512800  1
  O  O0  1  0.50000000  0.00000000  0.00000000  1
  O  O1  1  0.38282200  0.88452800  0.15284400  1
  O  O2  1  0.00000000  0.50000000  0.00000000  1
  O  O3  1  0.29978700  0.81742100  0.92341600  1
  O  O4  1  0.46280900  0.95838700  0.38649200  1
  O  O5  1  0.45874700  0.45874700  0.88118900  1
  O  O6  1  0.81742100  0.29978700  0.92341600  1
  O  O7  1  0.15259700  0.15259700  0.96486100  1
  O  O8  1  0.41540500  0.92701800  0.77226300  1
  O  O9  1  0.54125300  0.54125300  0.11881100  1
  O  O10  1  0.34726400  0.84758000  0.53128900  1
  O  O11  1  0.88452800  0.38282200  0.15284400  1
  O  O12  1  0.61488100  0.61488100  0.34572800  1
  O  O13  1  0.22903200  0.22903200  0.18712000  1
  O  O14  1  0.95838700  0.46280900  0.38649200  1
  O  O15  1  0.69174200  0.69174200  0.57126900  1
  O  O16  1  0.84758000  0.34726400  0.53128900  1
  O  O17  1  0.77315900  0.27244700  0.30786100  1
  O  O18  1  0.61717800  0.11547200  0.84715600  1
  O  O19  1  0.70021300  0.18257900  0.07658400  1
  O  O20  1  0.92701800  0.41540500  0.77226300  1
  O  O21  1  0.18257900  0.70021300  0.07658400  1
  O  O22  1  0.77096800  0.77096800  0.81288000  1
  O  O23  1  0.11547200  0.61717800  0.84715600  1
  O  O24  1  0.84740300  0.84740300  0.03513900  1
  O  O25  1  0.30825800  0.30825800  0.42873100  1
  O  O26  1  0.65273600  0.15242000  0.46871100  1
  O  O27  1  0.92365500  0.92365500  0.27174300  1
  O  O28  1  0.58459500  0.07298200  0.22773700  1
  O  O29  1  0.27244700  0.77315900  0.30786100  1
  O  O30  1  0.00000000  0.00000000  0.50000000  1
  O  O31  1  0.72755300  0.22684100  0.69213900  1
  O  O32  1  0.07634500  0.07634500  0.72825700  1
  O  O33  1  0.38511900  0.38511900  0.65427200  1
  O  O34  1  0.53719100  0.04161300  0.61350800  1
  O  O35  1  0.15242000  0.65273600  0.46871100  1
  O  O36  1  0.07298200  0.58459500  0.22773700  1
  O  O37  1  0.22684100  0.72755300  0.69213900  1
  O  O38  1  0.04161300  0.53719100  0.61350800  1
loop_
_geom_bond_atom_site_label_1
_geom_bond_atom_site_label_2
_geom_bond_distance
_geom_bond_site_symmetry_2
Na0 O20 2.771322 1_555
Na0 O8 2.771322 1_555
Na0 O9 2.772012 1_556
Na0 O7 2.784896 1_655
Na0 O7 2.784896 1_565
Na0 O1 2.789343 1_556
Na0 O11 2.789343 1_556
Na0 O3 2.791354 1_555
Na0 O6 2.791354 1_555
Na0 O22 2.793355 1_555
Na0 O2 2.796929 1_656
Na0 O0 2.796929 1_566
Na1 O28 2.771322 1_555
Na1 O36 2.771322 1_555
Na1 O5 2.772012 1_554
Na1 O24 2.784896 1_545
Na1 O24 2.784896 1_455
Na1 O23 2.789343 1_554
Na1 O18 2.789343 1_554
Na1 O19 2.791354 1_555
Na1 O21 2.791354 1_555
Na1 O13 2.793355 1_555
Na1 O0 2.796929 1_555
Na1 O2 2.796929 1_555
Na2 O6 2.759330 1_454
Na2 O3 2.759330 1_544
Na2 O7 2.759957 1_554
Na2 O1 2.771967 1_545
Na2 O11 2.771967 1_455
Na2 O19 2.780298 1_455
Na2 O21 2.780298 1_545
Na2 O9 2.786088 1_455
Na2 O9 2.786088 1_545
Na2 O27 2.794888 1_445
Na2 O29 2.806570 1_545
Na2 O17 2.806570 1_455
Na3 O21 2.759330 1_656
Na3 O19 2.759330 1_566
Na3 O24 2.759957 1_556
Na3 O23 2.771967 1_655
Na3 O18 2.771967 1_565
Na3 O3 2.780298 1_655
Na3 O6 2.780298 1_565
Na3 O5 2.786088 1_655
Na3 O5 2.786088 1_565
Na3 O32 2.794888 1_665
Na3 O37 2.806570 1_655
Na3 O31 2.806570 1_565
Na4 O10 2.778027 1_555
Na4 O16 2.778027 1_555
Na4 O35 2.778027 1_555
Na4 O26 2.778027 1_555
Na4 O31 2.782359 1_555
Na4 O37 2.782359 1_555
Na4 O17 2.782359 1_555
Na4 O29 2.782359 1_555
Na4 O30 2.784409 1_565
Na4 O30 2.784409 1_655
Na4 O33 2.788728 1_555
Na4 O12 2.788728 1_555
Na5 O32 2.780018 1_555
Na5 O25 2.784189 1_555
Na5 O15 2.786155 1_455
Na5 O15 2.786155 1_545
Na5 O38 2.787101 1_555
Na5 O34 2.787101 1_555
Na5 O8 2.787582 1_545
Na5 O20 2.787582 1_455
Na5 O4 2.797322 1_545
Na5 O14 2.797322 1_455
Na5 O10 2.814856 1_545
Na5 O16 2.814856 1_455
Na6 O16 2.725710 1_455
Na6 O10 2.725710 1_545
Na6 O29 2.734050 1_545
Na6 O17 2.734050 1_455
Na6 O13 2.771345 1_555
Na6 O4 2.775878 1_545
Na6 O14 2.775878 1_455
Na6 O12 2.784624 1_545
Na6 O12 2.784624 1_455
Na6 O11 2.793266 1_455
Na6 O1 2.793266 1_545
Na6 O30 2.819577 1_555
Na7 O27 2.780018 1_555
Na7 O15 2.784189 1_555
Na7 O25 2.786155 1_565
Na7 O25 2.786155 1_655
Na7 O4 2.787101 1_555
Na7 O14 2.787101 1_555
Na7 O28 2.787582 1_565
Na7 O36 2.787582 1_655
Na7 O38 2.797322 1_655
Na7 O34 2.797322 1_565
Na7 O26 2.814856 1_565
Na7 O35 2.814856 1_655
Na8 O35 2.725710 1_655
Na8 O26 2.725710 1_565
Na8 O37 2.734050 1_655
Na8 O31 2.734050 1_565
Na8 O22 2.771345 1_555
Na8 O38 2.775878 1_655
Na8 O34 2.775878 1_565
Na8 O33 2.784624 1_565
Na8 O33 2.784624 1_655
Na8 O23 2.793266 1_655
Na8 O18 2.793266 1_565
Na8 O30 2.819577 1_665
O0 W8 1.952058 1_544
O0 W0 1.952058 1_555
O1 W1 1.961944 1_555
O1 W0 1.998530 1_565
O2 W8 1.952058 1_454
O2 W0 1.952058 1_555
O3 W4 1.937202 1_565
O3 W3 2.016919 1_556
O4 W5 1.929777 1_555
O4 W12 2.020067 1_565
O5 W10 1.885604 1_555
O5 W3 2.060479 1_556
O6 W4 1.937202 1_655
O6 W3 2.016919 1_556
O7 W4 1.974248 1_555
O7 W0 1.992994 1_556
O8 W4 1.907203 1_565
O8 W2 2.009710 1_555
O9 W1 1.885604 1_555
O9 W3 2.060479 1_555
O10 W5 1.947430 1_555
O10 W11 2.014948 1_565
O11 W1 1.961944 1_555
O11 W0 1.998530 1_655
O12 W1 1.967952 1_555
O12 W5 2.009055 1_555
O13 W0 1.850979 1_555
O13 W12 2.047223 1_555
O14 W5 1.929777 1_555
O14 W12 2.020067 1_655
O15 W5 1.879319 1_555
O15 W2 2.069631 1_555
O16 W5 1.947430 1_555
O16 W11 2.014948 1_655
O17 W1 1.940507 1_555
O17 W6 2.018231 1_545
O18 W10 1.961944 1_555
O18 W8 1.998530 1_545
O19 W7 1.937202 1_545
O19 W3 2.016919 1_555
O20 W4 1.907203 1_655
O20 W2 2.009710 1_555
O21 W7 1.937202 1_455
O21 W3 2.016919 1_555
O22 W8 1.850979 1_555
O22 W2 2.047223 1_555
O23 W10 1.961944 1_555
O23 W8 1.998530 1_455
O24 W7 1.974248 1_555
O24 W8 1.992994 1_554
O25 W9 1.879319 1_555
O25 W12 2.069631 1_555
O26 W9 1.947430 1_555
O26 W6 2.014948 1_545
O27 W6 1.909213 1_555
O27 W7 2.036144 1_555
O28 W7 1.907203 1_545
O28 W12 2.009710 1_555
O29 W1 1.940507 1_555
O29 W6 2.018231 1_455
O30 W11 2.003013 1_555
O30 W6 2.003013 1_445
O31 W10 1.940507 1_555
O31 W11 2.018231 1_655
O32 W11 1.909213 1_555
O32 W4 2.036144 1_555
O33 W10 1.967952 1_555
O33 W9 2.009055 1_555
O34 W9 1.929777 1_555
O34 W2 2.020067 1_545
O35 W9 1.947430 1_555
O35 W6 2.014948 1_455
O36 W7 1.907203 1_455
O36 W12 2.009710 1_555
O37 W10 1.940507 1_555
O37 W11 2.018231 1_565
O38 W9 1.929777 1_555
O38 W2 2.020067 1_455
