# generated using pymatgen
data_Mn5(AsO8)2
_symmetry_space_group_name_H-M   'P 1'
_cell_length_a   16.80229900
_cell_length_b   5.23756100
_cell_length_c   6.54090662
_cell_angle_alpha   79.98459852
_cell_angle_beta   90.00000000
_cell_angle_gamma   90.00000000
_symmetry_Int_Tables_number   1
_chemical_formula_structural   Mn5(AsO8)2
_chemical_formula_sum   'Mn10 As4 O32'
_cell_volume   566.84798851
_cell_formula_units_Z   2
loop_
 _symmetry_equiv_pos_site_id
 _symmetry_equiv_pos_as_xyz
  1  'x, y, z'
loop_
 _atom_site_type_symbol
 _atom_site_label
 _atom_site_symmetry_multiplicity
 _atom_site_fract_x
 _atom_site_fract_y
 _atom_site_fract_z
 _atom_site_occupancy
  Mn  Mn0  1  0.00000000  0.00000000  0.00000000  1
  Mn  Mn1  1  0.50000000  0.00000000  0.50000000  1
  Mn  Mn2  1  0.06708700  0.52910100  0.81703200  1
  Mn  Mn3  1  0.56708700  0.47089900  0.68296800  1
  Mn  Mn4  1  0.93291300  0.47089900  0.18296800  1
  Mn  Mn5  1  0.43291300  0.52910100  0.31703200  1
  Mn  Mn6  1  0.12952300  0.03306500  0.67332700  1
  Mn  Mn7  1  0.62952300  0.96693500  0.82667300  1
  Mn  Mn8  1  0.87047700  0.96693500  0.32667300  1
  Mn  Mn9  1  0.37047700  0.03306500  0.17332700  1
  As  As0  1  0.12859500  0.62632400  0.32397300  1
  As  As1  1  0.62859500  0.37367600  0.17602700  1
  As  As2  1  0.87140500  0.37367600  0.67602700  1
  As  As3  1  0.37140500  0.62632400  0.82397300  1
  O  O0  1  0.04282900  0.65612800  0.14553600  1
  O  O1  1  0.54282900  0.34387200  0.35446400  1
  O  O2  1  0.95717100  0.34387200  0.85446400  1
  O  O3  1  0.45717100  0.65612800  0.64553600  1
  O  O4  1  0.09532900  0.39327800  0.53079400  1
  O  O5  1  0.59532900  0.60672200  0.96920600  1
  O  O6  1  0.90467100  0.60672200  0.46920600  1
  O  O7  1  0.40467100  0.39327800  0.03079400  1
  O  O8  1  0.12990000  0.91863500  0.40456300  1
  O  O9  1  0.62990000  0.08136500  0.09543700  1
  O  O10  1  0.87010000  0.08136500  0.59543700  1
  O  O11  1  0.37010000  0.91863500  0.90456300  1
  O  O12  1  0.20410900  0.55111100  0.17685700  1
  O  O13  1  0.70410900  0.44888900  0.32314300  1
  O  O14  1  0.79589100  0.44888900  0.82314300  1
  O  O15  1  0.29589100  0.55111100  0.67685700  1
  O  O16  1  0.02135100  0.86829900  0.74624500  1
  O  O17  1  0.52135100  0.13170100  0.75375500  1
  O  O18  1  0.97864900  0.13170100  0.25375500  1
  O  O19  1  0.47864900  0.86829900  0.24624500  1
  O  O20  1  0.10106900  0.17239100  0.92214900  1
  O  O21  1  0.60106900  0.82760900  0.57785100  1
  O  O22  1  0.89893100  0.82760900  0.07785100  1
  O  O23  1  0.39893100  0.17239100  0.42214900  1
  O  O24  1  0.16388400  0.71732800  0.81106100  1
  O  O25  1  0.66388400  0.28267200  0.68893900  1
  O  O26  1  0.83611600  0.28267200  0.18893900  1
  O  O27  1  0.33611600  0.71732800  0.31106100  1
  O  O28  1  0.26479100  0.13070600  0.15972300  1
  O  O29  1  0.76479100  0.86929400  0.34027700  1
  O  O30  1  0.73520900  0.86929400  0.84027700  1
  O  O31  1  0.23520900  0.13070600  0.65972300  1
loop_
_geom_bond_atom_site_label_1
_geom_bond_atom_site_label_2
_geom_bond_distance
_geom_bond_site_symmetry_2
Mn0 O18 1.938462 1_455
Mn0 O16 1.938462 1_544
Mn0 O20 1.948968 1_554
Mn0 O22 1.948968 1_445
Mn0 O2 2.017792 1_454
Mn0 O0 2.017792 1_545
Mn1 O17 1.938462 1_555
Mn1 O19 1.938462 1_545
Mn1 O23 1.948968 1_555
Mn1 O21 1.948968 1_545
Mn1 O1 2.017792 1_555
Mn1 O3 2.017792 1_545
Mn2 O24 1.898750 1_555
Mn2 O16 1.917033 1_555
Mn2 O20 1.960219 1_555
Mn2 O2 2.080706 1_455
Mn2 O4 2.167914 1_555
Mn2 O0 2.392275 1_556
Mn3 O25 1.898750 1_555
Mn3 O17 1.917033 1_555
Mn3 O21 1.960219 1_555
Mn3 O3 2.080706 1_555
Mn3 O5 2.167914 1_555
Mn3 O1 2.392275 1_555
Mn4 O26 1.898750 1_555
Mn4 O18 1.917033 1_555
Mn4 O22 1.960219 1_555
Mn4 O0 2.080706 1_655
Mn4 O6 2.167914 1_555
Mn4 O2 2.392275 1_554
Mn5 O27 1.898750 1_555
Mn5 O19 1.917033 1_555
Mn5 O23 1.960219 1_555
Mn5 O1 2.080706 1_555
Mn5 O7 2.167914 1_555
Mn5 O3 2.392275 1_555
Mn6 O24 1.833427 1_545
Mn6 O31 1.845798 1_555
Mn6 O8 1.953493 1_545
Mn6 O20 1.955249 1_555
Mn6 O16 2.032851 1_545
Mn6 O4 2.036388 1_555
Mn7 O25 1.833427 1_565
Mn7 O30 1.845798 1_555
Mn7 O9 1.953493 1_566
Mn7 O21 1.955249 1_555
Mn7 O17 2.032851 1_565
Mn7 O5 2.036388 1_555
Mn8 O26 1.833427 1_565
Mn8 O29 1.845798 1_555
Mn8 O10 1.953493 1_565
Mn8 O22 1.955249 1_555
Mn8 O18 2.032851 1_565
Mn8 O6 2.036388 1_555
Mn9 O27 1.833427 1_545
Mn9 O28 1.845798 1_555
Mn9 O11 1.953493 1_544
Mn9 O23 1.955249 1_555
Mn9 O19 2.032851 1_545
Mn9 O7 2.036388 1_555
As0 O12 1.680142 1_555
As0 O8 1.703821 1_555
As0 O4 1.748711 1_555
As0 O0 1.843877 1_555
As1 O13 1.680142 1_555
As1 O9 1.703821 1_555
As1 O5 1.748711 1_554
As1 O1 1.843877 1_555
As2 O14 1.680142 1_555
As2 O10 1.703821 1_555
As2 O6 1.748711 1_555
As2 O2 1.843877 1_555
As3 O15 1.680142 1_555
As3 O11 1.703821 1_555
As3 O7 1.748711 1_556
As3 O3 1.843877 1_555
