# generated using pymatgen
data_Zn3TeO6
_symmetry_space_group_name_H-M   'P 1'
_cell_length_a   8.65664874
_cell_length_b   8.65664590
_cell_length_c   10.35006618
_cell_angle_alpha   87.42229144
_cell_angle_beta   87.42227343
_cell_angle_gamma   61.46590372
_symmetry_Int_Tables_number   1
_chemical_formula_structural   Zn3TeO6
_chemical_formula_sum   'Zn18 Te6 O36'
_cell_volume   680.46432839
_cell_formula_units_Z   6
loop_
 _symmetry_equiv_pos_site_id
 _symmetry_equiv_pos_as_xyz
  1  'x, y, z'
loop_
 _atom_site_type_symbol
 _atom_site_label
 _atom_site_symmetry_multiplicity
 _atom_site_fract_x
 _atom_site_fract_y
 _atom_site_fract_z
 _atom_site_occupancy
  Zn  Zn0  1  0.20121517  0.79878510  0.24999918  1
  Zn  Zn1  1  0.79878287  0.20121716  0.75000024  1
  Zn  Zn2  1  0.67642921  0.37576474  0.44871603  1
  Zn  Zn3  1  0.62423564  0.32357104  0.05128425  1
  Zn  Zn4  1  0.32357105  0.62423509  0.55128451  1
  Zn  Zn5  1  0.37576458  0.67642864  0.94871564  1
  Zn  Zn6  1  0.72467951  0.00144865  0.25734821  1
  Zn  Zn7  1  0.99855102  0.27532052  0.24265131  1
  Zn  Zn8  1  0.27532432  0.99855171  0.74265223  1
  Zn  Zn9  1  0.00144841  0.72467551  0.75734796  1
  Zn  Zn10  1  0.34188606  0.06562082  0.07351422  1
  Zn  Zn11  1  0.93437826  0.65811286  0.42648580  1
  Zn  Zn12  1  0.65811463  0.93437585  0.92648650  1
  Zn  Zn13  1  0.06562376  0.34188581  0.57351351  1
  Zn  Zn14  1  0.42702904  0.89801700  0.44197406  1
  Zn  Zn15  1  0.10198424  0.57296981  0.05802570  1
  Zn  Zn16  1  0.57296878  0.10198643  0.55802500  1
  Zn  Zn17  1  0.89801249  0.42703303  0.94197521  1
  Te  Te0  1  -0.00000103  -0.00000051  0.50000125  1
  Te  Te1  1  0.00000022  0.00000123  -0.00000116  1
  Te  Te2  1  0.66154046  0.66653751  0.19592603  1
  Te  Te3  1  0.33346297  0.33846049  0.30407469  1
  Te  Te4  1  0.33846061  0.33346385  0.80407559  1
  Te  Te5  1  0.66653626  0.66153818  0.69592423  1
  O  O0  1  0.76864901  0.08896559  0.42839219  1
  O  O1  1  0.91103339  0.23135166  0.07160758  1
  O  O2  1  0.23135013  0.91103505  0.57160839  1
  O  O3  1  0.08896551  0.76864994  0.92839228  1
  O  O4  1  0.42864717  0.42521641  0.42763817  1
  O  O5  1  0.57478477  0.57135286  0.07236173  1
  O  O6  1  0.57135306  0.57478024  0.57236230  1
  O  O7  1  0.42521713  0.42864907  0.92763784  1
  O  O8  1  0.54754606  0.23332779  0.20033484  1
  O  O9  1  0.76667247  0.45245367  0.29966512  1
  O  O10  1  0.45245319  0.76667365  0.79966504  1
  O  O11  1  0.23332624  0.54754695  0.70033509  1
  O  O12  1  0.42939270  0.12134347  0.40310469  1
  O  O13  1  0.87865704  0.57060828  0.09689534  1
  O  O14  1  0.44372197  0.75687249  0.29618721  1
  O  O15  1  0.57060750  0.87865478  0.59689464  1
  O  O16  1  0.73756707  0.77732852  0.32009606  1
  O  O17  1  0.22267176  0.26243273  0.17990434  1
  O  O18  1  0.26243427  0.22267232  0.67990430  1
  O  O19  1  0.77732819  0.73756498  0.82009540  1
  O  O20  1  0.58630563  0.88746259  0.10182354  1
  O  O21  1  0.11253780  0.41369434  0.39817659  1
  O  O22  1  0.41369546  0.11253890  0.89817699  1
  O  O23  1  0.88746082  0.58630386  0.60182246  1
  O  O24  1  0.04911271  0.09257021  0.84206499  1
  O  O25  1  0.90742957  0.95088688  0.65793521  1
  O  O26  1  0.95088890  0.90743068  0.15793406  1
  O  O27  1  0.09256877  0.04911178  0.34206563  1
  O  O28  1  0.90971793  0.23671880  0.56033387  1
  O  O29  1  0.76328107  0.09028217  0.93966655  1
  O  O30  1  0.09028060  0.76328083  0.43966626  1
  O  O31  1  0.23671875  0.90971937  0.06033359  1
  O  O32  1  0.75687240  0.44372143  0.79618666  1
  O  O33  1  0.55627804  0.24312790  0.70381339  1
  O  O34  1  0.24312747  0.55627802  0.20381304  1
  O  O35  1  0.12134392  0.42939327  0.90310445  1
loop_
_geom_bond_atom_site_label_1
_geom_bond_atom_site_label_2
_geom_bond_distance
_geom_bond_site_symmetry_2
O0 Te0 1.939573 1_655
O0 Zn16 2.075827 1_555
O0 Zn6 2.075959 1_555
O0 Zn2 2.232442 1_555
O1 Te1 1.939574 1_655
O1 Zn17 2.075832 1_554
O1 Zn7 2.075957 1_555
O1 Zn3 2.232431 1_555
O2 Te0 1.939576 1_565
O2 Zn14 2.075836 1_555
O2 Zn8 2.075972 1_555
O2 Zn4 2.232447 1_555
O3 Te1 1.939572 1_566
O3 Zn15 2.075836 1_556
O3 Zn9 2.075980 1_555
O3 Zn5 2.232439 1_555
O4 Te3 1.910732 1_555
O4 Zn2 1.997038 1_555
O4 Zn4 2.007425 1_555
O5 Te2 1.910739 1_555
O5 Zn3 1.997037 1_555
O5 Zn5 2.007433 1_554
O6 Te5 1.910726 1_555
O6 Zn4 1.997030 1_555
O6 Zn2 2.007406 1_555
O7 Te4 1.910732 1_555
O7 Zn5 1.997014 1_555
O7 Zn3 2.007426 1_556
O8 Te3 1.926969 1_555
O8 Zn3 1.930241 1_555
O8 Zn6 1.939843 1_555
O9 Te2 1.926970 1_555
O9 Zn2 1.930241 1_555
O9 Zn7 1.939840 1_555
O10 Te5 1.926976 1_555
O10 Zn5 1.930245 1_555
O10 Zn8 1.939823 1_555
O11 Te4 1.926974 1_555
O11 Zn4 1.930242 1_555
O11 Zn9 1.939821 1_555
O12 Te3 1.919600 1_555
O12 Zn14 1.966429 1_545
O12 Zn16 2.024839 1_555
O13 Te2 1.919601 1_555
O13 Zn15 1.966428 1_655
O13 Zn17 2.024836 1_554
O14 Te2 1.931853 1_555
O14 Zn14 1.941159 1_555
O14 Zn0 2.028352 1_555
O15 Te5 1.919595 1_555
O15 Zn16 1.966464 1_565
O15 Zn14 2.024843 1_555
O16 Zn11 1.888647 1_555
O16 Te2 1.947976 1_555
O16 Zn6 1.970969 1_565
O17 Zn10 1.888652 1_555
O17 Te3 1.947985 1_555
O17 Zn7 1.970971 1_455
O18 Zn13 1.888648 1_555
O18 Te4 1.947986 1_555
O18 Zn8 1.970965 1_545
O19 Zn12 1.888651 1_555
O19 Te5 1.947990 1_555
O19 Zn9 1.970962 1_655
O20 Te2 1.931288 1_555
O20 Zn10 1.959293 1_565
O20 Zn12 1.979414 1_554
O21 Te3 1.931287 1_555
O21 Zn11 1.959288 1_455
O21 Zn13 1.979414 1_555
O22 Te4 1.931282 1_555
O22 Zn12 1.959301 1_545
O22 Zn10 1.979430 1_556
O23 Te5 1.931282 1_555
O23 Zn13 1.959293 1_655
O23 Zn11 1.979422 1_555
O24 Te1 1.907889 1_556
O24 Zn8 1.981726 1_545
O24 Zn1 2.155572 1_455
O25 Te0 1.907892 1_665
O25 Zn9 1.981724 1_655
O25 Zn1 2.155576 1_565
O26 Te1 1.907904 1_665
O26 Zn6 1.981718 1_565
O26 Zn0 2.155550 1_655
O27 Te0 1.907907 1_555
O27 Zn7 1.981715 1_455
O27 Zn0 2.155558 1_545
O28 Te0 1.934193 1_655
O28 Zn13 1.967353 1_655
O28 Zn2 2.150413 1_555
O28 Zn1 2.220000 1_555
O29 Te1 1.934192 1_656
O29 Zn12 1.967353 1_545
O29 Zn3 2.150411 1_556
O29 Zn1 2.220000 1_555
O30 Te0 1.934196 1_565
O30 Zn11 1.967333 1_455
O30 Zn4 2.150425 1_555
O30 Zn0 2.220011 1_555
O31 Te1 1.934195 1_565
O31 Zn10 1.967321 1_565
O31 Zn5 2.150424 1_554
O31 Zn0 2.219995 1_555
O32 Te5 1.931848 1_555
O32 Zn17 1.941160 1_555
O32 Zn1 2.028331 1_555
O33 Te4 1.931851 1_555
O33 Zn16 1.941160 1_555
O33 Zn1 2.028337 1_555
O34 Te3 1.931849 1_555
O34 Zn15 1.941159 1_555
O34 Zn0 2.028349 1_555
O35 Te4 1.919592 1_555
O35 Zn17 1.966460 1_455
O35 Zn15 2.024844 1_556
