# generated using pymatgen
data_Ba5Y8Mn4O21
_symmetry_space_group_name_H-M   'P 1'
_cell_length_a   10.34835057
_cell_length_b   10.34835057
_cell_length_c   10.34835057
_cell_angle_alpha   94.52592065
_cell_angle_beta   94.52592065
_cell_angle_gamma   147.37102336
_symmetry_Int_Tables_number   1
_chemical_formula_structural   Ba5Y8Mn4O21
_chemical_formula_sum   'Ba5 Y8 Mn4 O21'
_cell_volume   573.47131182
_cell_formula_units_Z   1
loop_
 _symmetry_equiv_pos_site_id
 _symmetry_equiv_pos_as_xyz
  1  'x, y, z'
loop_
 _atom_site_type_symbol
 _atom_site_label
 _atom_site_symmetry_multiplicity
 _atom_site_fract_x
 _atom_site_fract_y
 _atom_site_fract_z
 _atom_site_occupancy
  Ba  Ba0  1  0.00000000  0.00000000  0.00000000  1
  Ba  Ba1  1  0.13923200  0.53371300  0.67294500  1
  Ba  Ba2  1  0.86076800  0.46628700  0.32705500  1
  Ba  Ba3  1  0.46628700  0.13923200  0.60551900  1
  Ba  Ba4  1  0.53371300  0.86076800  0.39448100  1
  Y  Y0  1  0.16984900  0.24874600  0.41859500  1
  Y  Y1  1  0.83015100  0.75125400  0.58140500  1
  Y  Y2  1  0.75125400  0.16984900  0.92110200  1
  Y  Y3  1  0.24874600  0.83015100  0.07889800  1
  Y  Y4  1  0.35930000  0.41032600  0.76962600  1
  Y  Y5  1  0.64070000  0.58967400  0.23037400  1
  Y  Y6  1  0.58967400  0.35930000  0.94897400  1
  Y  Y7  1  0.41032600  0.64070000  0.05102600  1
  Mn  Mn0  1  0.24813100  0.04026100  0.28839300  1
  Mn  Mn1  1  0.75186900  0.95973900  0.71160700  1
  Mn  Mn2  1  0.95973900  0.24813100  0.20787000  1
  Mn  Mn3  1  0.04026100  0.75186900  0.79213000  1
  O  O0  1  0.50000000  0.50000000  0.00000000  1
  O  O1  1  0.96158500  0.62728000  0.58886500  1
  O  O2  1  0.03841500  0.37272000  0.41113500  1
  O  O3  1  0.37272000  0.96158500  0.33430600  1
  O  O4  1  0.62728000  0.03841500  0.66569400  1
  O  O5  1  0.29908600  0.42843700  0.22536100  1
  O  O6  1  0.20307600  0.07372400  0.77463900  1
  O  O7  1  0.07372400  0.29908600  0.87064900  1
  O  O8  1  0.42843700  0.20307600  0.12935100  1
  O  O9  1  0.70091400  0.57156300  0.77463900  1
  O  O10  1  0.79692400  0.92627600  0.22536100  1
  O  O11  1  0.92627600  0.70091400  0.12935100  1
  O  O12  1  0.57156300  0.79692400  0.87064900  1
  O  O13  1  0.49300300  0.59963500  0.59436400  1
  O  O14  1  0.00527100  0.89863900  0.40563600  1
  O  O15  1  0.89863900  0.49300300  0.89336800  1
  O  O16  1  0.59963500  0.00527100  0.10663200  1
  O  O17  1  0.50699700  0.40036500  0.40563600  1
  O  O18  1  0.99472900  0.10136100  0.59436400  1
  O  O19  1  0.10136100  0.50699700  0.10663200  1
  O  O20  1  0.40036500  0.99472900  0.89336800  1
loop_
_geom_bond_atom_site_label_1
_geom_bond_atom_site_label_2
_geom_bond_distance
_geom_bond_site_symmetry_2
Ba0 O0 2.906949 1_445
Ba0 O0 2.906949 1_555
Ba0 O12 2.964939 1_444
Ba0 O8 2.964939 1_555
Ba0 O9 2.964939 1_444
Ba0 O5 2.964939 1_555
Ba0 O10 2.964942 1_445
Ba0 O6 2.964942 1_554
Ba0 O11 2.964945 1_445
Ba0 O7 2.964945 1_554
Ba1 O2 2.668009 1_555
Ba1 O1 2.820077 1_455
Ba1 O4 2.912538 1_455
Ba1 O4 2.912544 1_565
Ba1 O7 2.961585 1_555
Ba1 O12 2.961589 1_555
Ba1 O20 3.295536 1_555
Ba1 O15 3.295536 1_455
Ba1 O18 3.298480 1_455
Ba1 O13 3.298480 1_555
Ba2 O1 2.668009 1_555
Ba2 O2 2.820077 1_655
Ba2 O3 2.912538 1_655
Ba2 O3 2.912544 1_545
Ba2 O11 2.961585 1_555
Ba2 O8 2.961589 1_555
Ba2 O16 3.295536 1_555
Ba2 O19 3.295536 1_655
Ba2 O14 3.298480 1_655
Ba2 O17 3.298480 1_555
Ba3 O4 2.668007 1_555
Ba3 O3 2.820068 1_545
Ba3 O1 2.912541 1_445
Ba3 O1 2.912541 1_555
Ba3 O6 2.961584 1_555
Ba3 O9 2.961589 1_555
Ba3 O14 3.295536 1_545
Ba3 O17 3.295536 1_555
Ba3 O15 3.298480 1_555
Ba3 O20 3.298480 1_545
Ba4 O3 2.668007 1_555
Ba4 O4 2.820068 1_565
Ba4 O2 2.912541 1_555
Ba4 O2 2.912541 1_665
Ba4 O10 2.961584 1_555
Ba4 O5 2.961589 1_555
Ba4 O18 3.295536 1_565
Ba4 O13 3.295536 1_555
Ba4 O19 3.298480 1_555
Ba4 O16 3.298480 1_565
Mn0 O3 2.069619 1_545
Mn0 O14 2.119909 1_545
Mn0 O17 2.119913 1_555
Mn0 O11 2.157787 1_445
Mn0 O8 2.157792 1_555
Mn1 O4 2.069619 1_565
Mn1 O18 2.119909 1_565
Mn1 O13 2.119913 1_555
Mn1 O7 2.157787 1_665
Mn1 O12 2.157792 1_555
Mn2 O2 2.069619 1_655
Mn2 O16 2.119917 1_555
Mn2 O19 2.119917 1_655
Mn2 O10 2.157774 1_545
Mn2 O5 2.157783 1_655
Mn3 O1 2.069619 1_455
Mn3 O15 2.119917 1_455
Mn3 O20 2.119917 1_555
Mn3 O6 2.157774 1_565
Mn3 O9 2.157783 1_455
O0 Y5 2.343449 1_555
O0 Y4 2.343449 1_554
O0 Y7 2.343449 1_555
O0 Y6 2.343449 1_554
O1 Y1 2.537709 1_555
O2 Y0 2.537709 1_555
O3 Y3 2.537709 1_555
O4 Y2 2.537709 1_555
O5 Y5 2.303499 1_555
O5 Y0 2.462737 1_555
O5 Y7 2.469595 1_555
O6 Y4 2.303509 1_555
O6 Y1 2.462737 1_445
O6 Y6 2.469592 1_555
O7 Y7 2.303501 1_556
O7 Y2 2.462724 1_455
O7 Y4 2.469603 1_555
O8 Y6 2.303499 1_554
O8 Y3 2.462737 1_545
O8 Y5 2.469595 1_555
O9 Y4 2.303499 1_555
O9 Y1 2.462737 1_555
O9 Y6 2.469595 1_555
O10 Y5 2.303509 1_555
O10 Y0 2.462737 1_665
O10 Y7 2.469592 1_555
O11 Y6 2.303501 1_554
O11 Y3 2.462724 1_655
O11 Y5 2.469603 1_555
O12 Y7 2.303499 1_556
O12 Y2 2.462737 1_565
O12 Y4 2.469595 1_555
O13 Y0 2.285016 1_555
O13 Y4 2.330850 1_555
O13 Y1 2.353504 1_555
O14 Y1 2.285016 1_455
O14 Y5 2.330850 1_455
O14 Y0 2.353504 1_565
O15 Y2 2.285013 1_555
O15 Y6 2.330850 1_555
O15 Y3 2.353510 1_656
O16 Y3 2.285017 1_545
O16 Y7 2.330850 1_545
O16 Y2 2.353514 1_554
O17 Y1 2.285016 1_555
O17 Y5 2.330850 1_555
O17 Y0 2.353504 1_555
O18 Y0 2.285016 1_655
O18 Y4 2.330850 1_655
O18 Y1 2.353504 1_545
O19 Y3 2.285013 1_555
O19 Y7 2.330850 1_555
O19 Y2 2.353510 1_454
O20 Y2 2.285017 1_565
O20 Y6 2.330850 1_565
O20 Y3 2.353514 1_556
