# generated using pymatgen
data_TaIn3Se4
_symmetry_space_group_name_H-M   'P 1'
_cell_length_a   6.88464042
_cell_length_b   6.88464042
_cell_length_c   6.88464042
_cell_angle_alpha   109.47122063
_cell_angle_beta   109.47122063
_cell_angle_gamma   109.47122063
_symmetry_Int_Tables_number   1
_chemical_formula_structural   TaIn3Se4
_chemical_formula_sum   'Ta1 In3 Se4'
_cell_volume   251.20130786
_cell_formula_units_Z   1
loop_
 _symmetry_equiv_pos_site_id
 _symmetry_equiv_pos_as_xyz
  1  'x, y, z'
loop_
 _atom_site_type_symbol
 _atom_site_label
 _atom_site_symmetry_multiplicity
 _atom_site_fract_x
 _atom_site_fract_y
 _atom_site_fract_z
 _atom_site_occupancy
  Ta  Ta0  1  0.00000000  0.00000000  0.00000000  1
  In  In0  1  0.50000000  0.50000000  0.00000000  1
  In  In1  1  0.00000000  0.50000000  0.50000000  1
  In  In2  1  0.50000000  0.00000000  0.50000000  1
  Se  Se0  1  0.35090100  0.00000000  0.00000000  1
  Se  Se1  1  0.00000000  0.00000000  0.35090100  1
  Se  Se2  1  0.64909900  0.64909900  0.64909900  1
  Se  Se3  1  0.00000000  0.35090100  0.00000000  1
loop_
_geom_bond_atom_site_label_1
_geom_bond_atom_site_label_2
_geom_bond_distance
_geom_bond_site_symmetry_2
In0 Se2 3.247703 1_554
In0 Se3 3.247703 1_555
In0 Se0 3.247703 1_555
In0 Se1 3.247703 1_665
In1 Se0 3.247703 1_566
In1 Se2 3.247703 1_455
In1 Se3 3.247703 1_555
In1 Se1 3.247703 1_555
In2 Se3 3.247703 1_656
In2 Se2 3.247703 1_545
In2 Se1 3.247703 1_555
In2 Se0 3.247703 1_555
Se0 Ta0 2.415827 1_555
Se1 Ta0 2.415827 1_555
Se2 Ta0 2.415827 1_666
Se3 Ta0 2.415827 1_555
