# generated using pymatgen
data_Cr7Cd3(InS8)2
_symmetry_space_group_name_H-M   'P 1'
_cell_length_a   7.32668700
_cell_length_b   7.42964200
_cell_length_c   10.44049230
_cell_angle_alpha   88.80985926
_cell_angle_beta   90.00000000
_cell_angle_gamma   90.00000000
_symmetry_Int_Tables_number   1
_chemical_formula_structural   Cr7Cd3(InS8)2
_chemical_formula_sum   'Cr7 Cd3 In2 S16'
_cell_volume   568.20206060
_cell_formula_units_Z   1
loop_
 _symmetry_equiv_pos_site_id
 _symmetry_equiv_pos_as_xyz
  1  'x, y, z'
loop_
 _atom_site_type_symbol
 _atom_site_label
 _atom_site_symmetry_multiplicity
 _atom_site_fract_x
 _atom_site_fract_y
 _atom_site_fract_z
 _atom_site_occupancy
  Cr  Cr0  1  0.50000000  0.24810400  0.87456300  1
  Cr  Cr1  1  0.74696900  0.74932800  0.75221400  1
  Cr  Cr2  1  0.25195700  0.25067100  0.24714700  1
  Cr  Cr3  1  0.25303100  0.74932800  0.75221400  1
  Cr  Cr4  1  0.74804300  0.25067100  0.24714700  1
  Cr  Cr5  1  0.00000000  0.49860000  0.99840800  1
  Cr  Cr6  1  0.50000000  0.00117000  0.50201000  1
  Cd  Cd0  1  0.00000000  0.25311000  0.62735200  1
  Cd  Cd1  1  0.50000000  0.75349500  0.12603800  1
  Cd  Cd2  1  0.00000000  0.74689800  0.37373900  1
  In  In0  1  0.00000000  0.00219700  0.99881100  1
  In  In1  1  0.50000000  0.49842200  0.50187100  1
  S  S0  1  0.72852500  0.23296800  0.47972100  1
  S  S1  1  0.22721300  0.73332100  0.98112400  1
  S  S2  1  0.27147500  0.23296800  0.47972100  1
  S  S3  1  0.77278700  0.73332100  0.98112400  1
  S  S4  1  0.00000000  0.96007500  0.75226200  1
  S  S5  1  0.50000000  0.46149900  0.25281800  1
  S  S6  1  0.00000000  0.53229600  0.76586500  1
  S  S7  1  0.50000000  0.03135800  0.26603500  1
  S  S8  1  0.27363300  0.76632700  0.52135100  1
  S  S9  1  0.75900600  0.26726500  0.01183800  1
  S  S10  1  0.72636700  0.76632700  0.52135100  1
  S  S11  1  0.24099400  0.26726500  0.01183800  1
  S  S12  1  0.00000000  0.04011200  0.24530800  1
  S  S13  1  0.50000000  0.52509400  0.75531100  1
  S  S14  1  0.00000000  0.46731900  0.23209400  1
  S  S15  1  0.50000000  0.98048800  0.74072300  1
loop_
_geom_bond_atom_site_label_1
_geom_bond_atom_site_label_2
_geom_bond_distance
_geom_bond_site_symmetry_2
Cr0 S13 2.383026 1_555
Cr0 S9 2.384105 1_556
Cr0 S11 2.384105 1_556
Cr0 S15 2.453838 1_545
Cr1 S3 2.397895 1_555
Cr1 S10 2.415729 1_555
Cr1 S4 2.426634 1_655
Cr1 S6 2.459206 1_655
Cr1 S13 2.459360 1_555
Cr1 S15 2.495913 1_555
Cr2 S5 2.400749 1_555
Cr2 S12 2.420051 1_555
Cr2 S2 2.433223 1_555
Cr2 S7 2.446066 1_555
Cr2 S14 2.452103 1_555
Cr2 S11 2.458587 1_555
Cr3 S1 2.397895 1_555
Cr3 S8 2.415729 1_555
Cr3 S4 2.426634 1_555
Cr3 S6 2.459206 1_555
Cr3 S13 2.459360 1_555
Cr3 S15 2.495913 1_555
Cr4 S5 2.400749 1_555
Cr4 S12 2.420051 1_655
Cr4 S0 2.433223 1_555
Cr4 S7 2.446066 1_555
Cr4 S14 2.452103 1_655
Cr4 S9 2.458587 1_555
Cr5 S1 2.414941 1_555
Cr5 S3 2.414941 1_455
Cr5 S6 2.435559 1_555
Cr5 S14 2.446031 1_556
Cr5 S11 2.466041 1_556
Cr5 S9 2.466041 1_456
Cr6 S0 2.409726 1_555
Cr6 S2 2.409726 1_555
Cr6 S8 2.412707 1_545
Cr6 S10 2.412707 1_545
Cr6 S7 2.469240 1_555
Cr6 S15 2.493826 1_545
Cd0 S4 2.514508 1_545
Cd0 S2 2.522672 1_555
Cd0 S0 2.522672 1_455
Cd0 S6 2.553128 1_555
Cd1 S1 2.513061 1_554
Cd1 S3 2.513061 1_554
Cd1 S5 2.517769 1_555
Cd1 S7 2.554128 1_565
Cd2 S12 2.534241 1_565
Cd2 S10 2.534662 1_455
Cd2 S8 2.534662 1_555
Cd2 S14 2.574728 1_555
In0 S12 2.594731 1_556
In0 S4 2.599492 1_545
In0 S1 2.609852 1_545
In0 S3 2.609852 1_445
In0 S11 2.650596 1_556
In0 S9 2.650596 1_456
In1 S0 2.601057 1_555
In1 S2 2.601057 1_555
In1 S10 2.602060 1_555
In1 S8 2.602060 1_555
In1 S5 2.620327 1_555
In1 S13 2.657550 1_555
