# generated using pymatgen
data_KBaPrWO6
_symmetry_space_group_name_H-M   'P 1'
_cell_length_a   8.62993545
_cell_length_b   8.61455613
_cell_length_c   8.62108393
_cell_angle_alpha   90.00000000
_cell_angle_beta   90.00000000
_cell_angle_gamma   90.00000000
_symmetry_Int_Tables_number   1
_chemical_formula_structural   KBaPrWO6
_chemical_formula_sum   'K4 Ba4 Pr4 W4 O24'
_cell_volume   640.91778860
_cell_formula_units_Z   4
loop_
 _symmetry_equiv_pos_site_id
 _symmetry_equiv_pos_as_xyz
  1  'x, y, z'
loop_
 _atom_site_type_symbol
 _atom_site_label
 _atom_site_symmetry_multiplicity
 _atom_site_fract_x
 _atom_site_fract_y
 _atom_site_fract_z
 _atom_site_occupancy
  K  K0  1  0.50000000  0.00000000  0.50000000  1
  K  K1  1  0.50000000  0.50000000  0.00000000  1
  K  K2  1  0.00000000  0.50000000  -0.00000000  1
  K  K3  1  0.00000000  0.00000000  0.50000000  1
  Ba  Ba0  1  0.00000000  0.50000000  0.50000000  1
  Ba  Ba1  1  0.50000000  0.00000000  -0.00000000  1
  Ba  Ba2  1  0.00000000  0.00000000  0.00000000  1
  Ba  Ba3  1  0.50000000  0.50000000  0.50000000  1
  Pr  Pr0  1  0.75000000  0.75000000  0.75000000  1
  Pr  Pr1  1  0.25000000  0.25000000  0.75000000  1
  Pr  Pr2  1  0.25000000  0.75000000  0.25000000  1
  Pr  Pr3  1  0.75000000  0.25000000  0.25000000  1
  W  W0  1  0.25000000  0.25000000  0.25000000  1
  W  W1  1  0.75000000  0.75000000  0.25000000  1
  W  W2  1  0.75000000  0.25000000  0.75000000  1
  W  W3  1  0.25000000  0.75000000  0.75000000  1
  O  O0  1  0.02454357  0.22965039  0.26912606  1
  O  O1  1  0.97545643  0.77034961  0.26912606  1
  O  O2  1  0.97545643  0.22965039  0.73087394  1
  O  O3  1  0.02454357  0.77034961  0.73087394  1
  O  O4  1  0.26793243  0.02359943  0.22279115  1
  O  O5  1  0.26793243  0.97640057  0.77720885  1
  O  O6  1  0.73206757  0.97640057  0.22279115  1
  O  O7  1  0.73206757  0.02359943  0.77720885  1
  O  O8  1  0.22802322  0.26280741  0.02453009  1
  O  O9  1  0.77197678  0.26280741  0.97546991  1
  O  O10  1  0.22802322  0.73719259  0.97546991  1
  O  O11  1  0.77197678  0.73719259  0.02453009  1
  O  O12  1  0.47545643  0.27034961  0.23087394  1
  O  O13  1  0.52454357  0.72965039  0.23087394  1
  O  O14  1  0.52454357  0.27034961  0.76912606  1
  O  O15  1  0.47545643  0.72965039  0.76912606  1
  O  O16  1  0.23206757  0.47640057  0.27720885  1
  O  O17  1  0.23206757  0.52359943  0.72279115  1
  O  O18  1  0.76793243  0.52359943  0.27720885  1
  O  O19  1  0.76793243  0.47640057  0.72279115  1
  O  O20  1  0.27197678  0.23719259  0.47546991  1
  O  O21  1  0.72802322  0.23719259  0.52453009  1
  O  O22  1  0.27197678  0.76280741  0.52453009  1
  O  O23  1  0.72802322  0.76280741  0.47546991  1
loop_
_geom_bond_atom_site_label_1
_geom_bond_atom_site_label_2
_geom_bond_distance
_geom_bond_site_symmetry_2
K0 O22 2.844674 1_545
K0 O21 2.844674 1_555
K0 O23 2.844674 1_545
K0 O20 2.844674 1_555
K0 O4 3.124674 1_555
K0 O6 3.124674 1_545
K0 O7 3.124674 1_555
K0 O5 3.124674 1_545
K0 O13 3.294233 1_545
K0 O12 3.294233 1_555
K0 O15 3.294233 1_545
K0 O14 3.294233 1_555
K1 O14 2.814303 1_554
K1 O15 2.814303 1_554
K1 O12 2.814303 1_555
K1 O13 2.814303 1_555
K1 O11 3.119120 1_555
K1 O8 3.119120 1_555
K1 O9 3.119120 1_554
K1 O10 3.119120 1_554
K1 O19 3.331534 1_554
K1 O17 3.331534 1_554
K1 O18 3.331534 1_555
K1 O16 3.331534 1_555
K2 O9 2.844674 1_454
K2 O8 2.844674 1_555
K2 O10 2.844674 1_554
K2 O11 2.844674 1_455
K2 O19 3.124674 1_454
K2 O17 3.124674 1_554
K2 O18 3.124674 1_455
K2 O16 3.124674 1_555
K2 O3 3.294233 1_554
K2 O1 3.294233 1_455
K2 O0 3.294233 1_555
K2 O2 3.294233 1_454
K3 O1 2.814303 1_445
K3 O0 2.814303 1_555
K3 O3 2.814303 1_545
K3 O2 2.814303 1_455
K3 O22 3.119120 1_545
K3 O21 3.119120 1_455
K3 O23 3.119120 1_445
K3 O20 3.119120 1_555
K3 O7 3.331534 1_455
K3 O6 3.331534 1_445
K3 O4 3.331534 1_555
K3 O5 3.331534 1_545
Ba0 O18 2.782327 1_455
Ba0 O16 2.782327 1_555
Ba0 O17 2.782327 1_555
Ba0 O19 2.782327 1_455
Ba0 O0 3.070905 1_555
Ba0 O1 3.070905 1_455
Ba0 O2 3.070905 1_455
Ba0 O3 3.070905 1_555
Ba0 O20 3.267928 1_555
Ba0 O21 3.267928 1_455
Ba0 O22 3.267928 1_555
Ba0 O23 3.267928 1_455
Ba1 O7 2.782327 1_554
Ba1 O5 2.782327 1_544
Ba1 O4 2.782327 1_555
Ba1 O6 2.782327 1_545
Ba1 O12 3.070905 1_555
Ba1 O14 3.070905 1_554
Ba1 O13 3.070905 1_545
Ba1 O15 3.070905 1_544
Ba1 O10 3.267928 1_544
Ba1 O11 3.267928 1_545
Ba1 O8 3.267928 1_555
Ba1 O9 3.267928 1_554
Ba2 O11 3.007094 1_445
Ba2 O10 3.007094 1_544
Ba2 O8 3.007094 1_555
Ba2 O9 3.007094 1_454
Ba2 O5 3.012785 1_544
Ba2 O7 3.012785 1_454
Ba2 O6 3.012785 1_445
Ba2 O4 3.012785 1_555
Ba2 O3 3.056438 1_544
Ba2 O2 3.056438 1_454
Ba2 O0 3.056438 1_555
Ba2 O1 3.056438 1_445
Ba3 O20 3.007094 1_555
Ba3 O23 3.007094 1_555
Ba3 O21 3.007094 1_555
Ba3 O22 3.007094 1_555
Ba3 O18 3.012785 1_555
Ba3 O16 3.012785 1_555
Ba3 O17 3.012785 1_555
Ba3 O19 3.012785 1_555
Ba3 O12 3.056438 1_555
Ba3 O13 3.056438 1_555
Ba3 O14 3.056438 1_555
Ba3 O15 3.056438 1_555
O0 W0 1.960502 1_555
O0 Pr3 2.381485 1_455
O1 W1 1.960502 1_555
O1 Pr2 2.381485 1_655
O2 W2 1.960502 1_555
O2 Pr1 2.381485 1_655
O3 W3 1.960502 1_555
O3 Pr0 2.381485 1_455
O4 W0 1.970482 1_555
O4 Pr2 2.373632 1_545
O5 W3 1.970482 1_555
O5 Pr1 2.373632 1_565
O6 W1 1.970482 1_555
O6 Pr3 2.373632 1_565
O7 W2 1.970482 1_555
O7 Pr0 2.373632 1_545
O8 W0 1.956140 1_555
O8 Pr1 2.376896 1_554
O9 W2 1.956140 1_555
O9 Pr3 2.376896 1_556
O10 W3 1.956140 1_555
O10 Pr2 2.376896 1_556
O11 W1 1.956140 1_555
O11 Pr0 2.376896 1_554
O12 W0 1.960502 1_555
O12 Pr3 2.381485 1_555
O13 W1 1.960502 1_555
O13 Pr2 2.381485 1_555
O14 W2 1.960502 1_555
O14 Pr1 2.381485 1_555
O15 W3 1.960502 1_555
O15 Pr0 2.381485 1_555
O16 W0 1.970482 1_555
O16 Pr2 2.373632 1_555
O17 W3 1.970482 1_555
O17 Pr1 2.373632 1_555
O18 W1 1.970482 1_555
O18 Pr3 2.373632 1_555
O19 W2 1.970482 1_555
O19 Pr0 2.373632 1_555
O20 W0 1.956140 1_555
O20 Pr1 2.376896 1_555
O21 W2 1.956140 1_555
O21 Pr3 2.376896 1_555
O22 W3 1.956140 1_555
O22 Pr2 2.376896 1_555
O23 W1 1.956140 1_555
O23 Pr0 2.376896 1_555
