# generated using pymatgen
data_ErRhO3
_symmetry_space_group_name_H-M   'P 1'
_cell_length_a   5.18710261
_cell_length_b   5.72004523
_cell_length_c   7.53016477
_cell_angle_alpha   90.00000000
_cell_angle_beta   90.00000000
_cell_angle_gamma   90.00000000
_symmetry_Int_Tables_number   1
_chemical_formula_structural   ErRhO3
_chemical_formula_sum   'Er4 Rh4 O12'
_cell_volume   223.42346421
_cell_formula_units_Z   4
loop_
 _symmetry_equiv_pos_site_id
 _symmetry_equiv_pos_as_xyz
  1  'x, y, z'
loop_
 _atom_site_type_symbol
 _atom_site_label
 _atom_site_symmetry_multiplicity
 _atom_site_fract_x
 _atom_site_fract_y
 _atom_site_fract_z
 _atom_site_occupancy
  Er  Er0  1  0.03054878  0.41514884  0.25000000  1
  Er  Er1  1  0.96945122  0.58485116  0.75000000  1
  Er  Er2  1  0.53054878  0.08485116  0.75000000  1
  Er  Er3  1  0.46945122  0.91514884  0.25000000  1
  Rh  Rh0  1  0.00000000  -0.00000000  0.00000000  1
  Rh  Rh1  1  0.50000000  0.50000000  0.00000000  1
  Rh  Rh2  1  0.00000000  -0.00000000  0.50000000  1
  Rh  Rh3  1  0.50000000  0.50000000  0.50000000  1
  O  O0  1  0.32516915  0.18864793  0.06362986  1
  O  O1  1  0.67483085  0.81135207  0.93637014  1
  O  O2  1  0.82516915  0.31135207  0.93637014  1
  O  O3  1  0.67483085  0.81135207  0.56362986  1
  O  O4  1  0.17483085  0.68864793  0.06362986  1
  O  O5  1  0.32516915  0.18864793  0.43637014  1
  O  O6  1  0.17483085  0.68864793  0.43637014  1
  O  O7  1  0.82516915  0.31135207  0.56362986  1
  O  O8  1  0.63823271  0.55499821  0.25000000  1
  O  O9  1  0.36176729  0.44500179  0.75000000  1
  O  O10  1  0.13823271  0.94500179  0.75000000  1
  O  O11  1  0.86176729  0.05499821  0.25000000  1
loop_
_geom_bond_atom_site_label_1
_geom_bond_atom_site_label_2
_geom_bond_distance
_geom_bond_site_symmetry_2
Er0 O8 2.186566 1_455
Er0 O6 2.230935 1_555
Er0 O4 2.230935 1_555
Er0 O11 2.238392 1_455
Er0 O0 2.446133 1_555
Er0 O5 2.446133 1_555
Er0 O7 2.658003 1_455
Er0 O2 2.658003 1_454
Er1 O9 2.186566 1_655
Er1 O7 2.230935 1_555
Er1 O2 2.230935 1_555
Er1 O10 2.238392 1_655
Er1 O3 2.446133 1_555
Er1 O1 2.446133 1_555
Er1 O6 2.658003 1_655
Er1 O4 2.658003 1_656
Er2 O10 2.186566 1_545
Er2 O3 2.230935 1_545
Er2 O1 2.230935 1_545
Er2 O9 2.238392 1_555
Er2 O2 2.446133 1_555
Er2 O7 2.446133 1_555
Er2 O5 2.658003 1_555
Er2 O0 2.658003 1_556
Er3 O11 2.186566 1_565
Er3 O0 2.230935 1_565
Er3 O5 2.230935 1_565
Er3 O8 2.238392 1_555
Er3 O4 2.446133 1_555
Er3 O6 2.446133 1_555
Er3 O3 2.658003 1_555
Er3 O1 2.658003 1_554
O0 Rh1 2.055179 1_555
O0 Rh0 2.058856 1_555
O1 Rh1 2.055179 1_556
O1 Rh0 2.058856 1_666
O2 Rh0 2.055179 1_656
O2 Rh1 2.058856 1_556
O3 Rh3 2.055179 1_555
O3 Rh2 2.058856 1_665
O4 Rh0 2.055179 1_565
O4 Rh1 2.058856 1_555
O5 Rh3 2.055179 1_555
O5 Rh2 2.058856 1_555
O6 Rh2 2.055179 1_565
O6 Rh3 2.058856 1_555
O7 Rh2 2.055179 1_655
O7 Rh3 2.058856 1_555
O8 Rh1 2.038886 1_555
O8 Rh3 2.038886 1_555
O9 Rh1 2.038886 1_556
O9 Rh3 2.038886 1_555
O10 Rh2 2.038886 1_565
O10 Rh0 2.038886 1_566
O11 Rh2 2.038886 1_655
O11 Rh0 2.038886 1_655
