# generated using pymatgen
data_NbAu4
_symmetry_space_group_name_H-M   'P 1'
_cell_length_a   24.34272588
_cell_length_b   24.34272588
_cell_length_c   24.34272552
_cell_angle_alpha   13.88452765
_cell_angle_beta   13.88452765
_cell_angle_gamma   13.88452990
_symmetry_Int_Tables_number   1
_chemical_formula_structural   NbAu4
_chemical_formula_sum   'Nb8 Au32'
_cell_volume   722.86522825
_cell_formula_units_Z   8
loop_
 _symmetry_equiv_pos_site_id
 _symmetry_equiv_pos_as_xyz
  1  'x, y, z'
loop_
 _atom_site_type_symbol
 _atom_site_label
 _atom_site_symmetry_multiplicity
 _atom_site_fract_x
 _atom_site_fract_y
 _atom_site_fract_z
 _atom_site_occupancy
  Nb  Nb0_0  1  0.00000000  0.00000000  0.00000000  1
  Nb  Nb0_1  1  0.00000000  0.00000000  0.50000000  1
  Nb  Nb0_2  1  0.00000000  0.50000000  0.00000000  1
  Nb  Nb0_3  1  0.00000000  0.50000000  0.50000000  1
  Nb  Nb0_4  1  0.50000000  0.00000000  0.00000000  1
  Nb  Nb0_5  1  0.50000000  0.00000000  0.50000000  1
  Nb  Nb0_6  1  0.50000000  0.50000000  0.00000000  1
  Nb  Nb0_7  1  0.50000000  0.50000000  0.50000000  1
  Au  Au0_0  1  0.30064900  0.30064900  0.30064900  1
  Au  Au0_1  1  0.30064900  0.30064900  0.80064900  1
  Au  Au0_2  1  0.30064900  0.80064900  0.30064900  1
  Au  Au0_3  1  0.30064900  0.80064900  0.80064900  1
  Au  Au0_4  1  0.80064900  0.30064900  0.30064900  1
  Au  Au0_5  1  0.80064900  0.30064900  0.80064900  1
  Au  Au0_6  1  0.80064900  0.80064900  0.30064900  1
  Au  Au0_7  1  0.80064900  0.80064900  0.80064900  1
  Au  Au1_0  1  0.10013550  0.10013550  0.10013550  1
  Au  Au1_1  1  0.10013550  0.10013550  0.60013550  1
  Au  Au1_2  1  0.10013550  0.60013550  0.10013550  1
  Au  Au1_3  1  0.10013550  0.60013550  0.60013550  1
  Au  Au1_4  1  0.60013550  0.10013550  0.10013550  1
  Au  Au1_5  1  0.60013550  0.10013550  0.60013550  1
  Au  Au1_6  1  0.60013550  0.60013550  0.10013550  1
  Au  Au1_7  1  0.60013550  0.60013550  0.60013550  1
  Au  Au2_0  1  0.39986450  0.39986450  0.39986450  1
  Au  Au2_1  1  0.39986450  0.39986450  0.89986450  1
  Au  Au2_2  1  0.39986450  0.89986450  0.39986450  1
  Au  Au2_3  1  0.39986450  0.89986450  0.89986450  1
  Au  Au2_4  1  0.89986450  0.39986450  0.39986450  1
  Au  Au2_5  1  0.89986450  0.39986450  0.89986450  1
  Au  Au2_6  1  0.89986450  0.89986450  0.39986450  1
  Au  Au2_7  1  0.89986450  0.89986450  0.89986450  1
  Au  Au3_0  1  0.19935100  0.19935100  0.19935100  1
  Au  Au3_1  1  0.19935100  0.19935100  0.69935100  1
  Au  Au3_2  1  0.19935100  0.69935100  0.19935100  1
  Au  Au3_3  1  0.19935100  0.69935100  0.69935100  1
  Au  Au3_4  1  0.69935100  0.19935100  0.19935100  1
  Au  Au3_5  1  0.69935100  0.19935100  0.69935100  1
  Au  Au3_6  1  0.69935100  0.69935100  0.19935100  1
  Au  Au3_7  1  0.69935100  0.69935100  0.69935100  1
loop_
_geom_bond_atom_site_label_1
_geom_bond_atom_site_label_2
_geom_bond_distance
_geom_bond_site_symmetry_2
Au0_0 Nb0_6 2.910650 1_555
Au0_0 Nb0_5 2.910650 1_555
Au0_0 Nb0_3 2.910650 1_555
Au0_0 Au1_1 2.979316 1_555
Au0_0 Au1_4 2.979316 1_555
Au0_0 Au1_2 2.979316 1_555
Au0_1 Nb0_7 2.910650 1_555
Au0_1 Nb0_2 2.910650 1_556
Au0_1 Nb0_4 2.910650 1_556
Au0_1 Au1_0 2.979316 1_556
Au0_1 Au1_5 2.979316 1_555
Au0_1 Au1_3 2.979316 1_555
Au0_2 Nb0_4 2.910650 1_565
Au0_2 Nb0_1 2.910650 1_565
Au0_2 Nb0_7 2.910650 1_555
Au0_2 Au1_3 2.979316 1_555
Au0_2 Au1_6 2.979316 1_555
Au0_2 Au1_0 2.979316 1_565
Au0_3 Nb0_5 2.910650 1_565
Au0_3 Nb0_6 2.910650 1_556
Au0_3 Nb0_0 2.910650 1_566
Au0_3 Au1_2 2.979316 1_556
Au0_3 Au1_7 2.979316 1_555
Au0_3 Au1_1 2.979316 1_565
Au0_4 Nb0_2 2.910650 1_655
Au0_4 Nb0_1 2.910650 1_655
Au0_4 Nb0_7 2.910650 1_555
Au0_4 Au1_5 2.979316 1_555
Au0_4 Au1_6 2.979316 1_555
Au0_4 Au1_0 2.979316 1_655
Au0_5 Nb0_3 2.910650 1_655
Au0_5 Nb0_6 2.910650 1_556
Au0_5 Nb0_0 2.910650 1_656
Au0_5 Au1_4 2.979316 1_556
Au0_5 Au1_7 2.979316 1_555
Au0_5 Au1_1 2.979316 1_655
Au0_6 Nb0_0 2.910650 1_665
Au0_6 Nb0_5 2.910650 1_565
Au0_6 Nb0_3 2.910650 1_655
Au0_6 Au1_7 2.979316 1_555
Au0_6 Au1_2 2.979316 1_655
Au0_6 Au1_4 2.979316 1_565
Au0_7 Nb0_1 2.910650 1_665
Au0_7 Nb0_4 2.910650 1_566
Au0_7 Nb0_2 2.910650 1_656
Au0_7 Au1_6 2.979316 1_556
Au0_7 Au1_5 2.979316 1_565
Au0_7 Au1_3 2.979316 1_655
Au1_0 Au1_3 2.942284 1_554
Au1_0 Au1_5 2.942284 1_455
Au1_0 Au1_3 2.942284 1_545
Au1_0 Au1_5 2.942284 1_554
Au1_0 Au1_6 2.942284 1_455
Au1_0 Au1_6 2.942284 1_545
Au1_0 Au2_6 2.964927 1_445
Au1_0 Au2_3 2.964927 1_544
Au1_0 Au2_5 2.964927 1_454
Au1_1 Au1_4 2.942284 1_555
Au1_1 Au1_2 2.942284 1_555
Au1_1 Au1_4 2.942284 1_456
Au1_1 Au1_2 2.942284 1_546
Au1_1 Au1_7 2.942284 1_545
Au1_1 Au1_7 2.942284 1_455
Au1_1 Au2_7 2.964927 1_445
Au1_1 Au2_2 2.964927 1_545
Au1_1 Au2_4 2.964927 1_455
Au1_2 Au1_7 2.942284 1_554
Au1_2 Au1_7 2.942284 1_455
Au1_2 Au1_4 2.942284 1_555
Au1_2 Au1_4 2.942284 1_465
Au1_2 Au2_4 2.964927 1_455
Au1_2 Au2_1 2.964927 1_554
Au1_2 Au2_7 2.964927 1_454
Au1_3 Au1_6 2.942284 1_456
Au1_3 Au1_6 2.942284 1_555
Au1_3 Au1_5 2.942284 1_465
Au1_3 Au1_5 2.942284 1_555
Au1_3 Au2_5 2.964927 1_455
Au1_3 Au2_6 2.964927 1_455
Au1_3 Au2_0 2.964927 1_555
Au1_4 Au1_7 2.942284 1_545
Au1_4 Au1_7 2.942284 1_554
Au1_4 Au2_2 2.964927 1_545
Au1_4 Au2_1 2.964927 1_554
Au1_4 Au2_7 2.964927 1_544
Au1_5 Au1_6 2.942284 1_546
Au1_5 Au1_6 2.942284 1_555
Au1_5 Au2_3 2.964927 1_545
Au1_5 Au2_6 2.964927 1_545
Au1_5 Au2_0 2.964927 1_555
Au1_6 Au2_0 2.964927 1_555
Au1_6 Au2_5 2.964927 1_554
Au1_6 Au2_3 2.964927 1_554
Au1_7 Au2_1 2.964927 1_555
Au1_7 Au2_4 2.964927 1_555
Au1_7 Au2_2 2.964927 1_555
Au2_0 Au2_3 2.942284 1_554
Au2_0 Au2_5 2.942284 1_554
Au2_0 Au2_3 2.942284 1_545
Au2_0 Au2_5 2.942284 1_455
Au2_0 Au2_6 2.942284 1_545
Au2_0 Au2_6 2.942284 1_455
Au2_0 Au3_1 2.979316 1_555
Au2_0 Au3_4 2.979316 1_555
Au2_0 Au3_2 2.979316 1_555
Au2_1 Au2_4 2.942284 1_555
Au2_1 Au2_2 2.942284 1_555
Au2_1 Au2_4 2.942284 1_456
Au2_1 Au2_2 2.942284 1_546
Au2_1 Au2_7 2.942284 1_455
Au2_1 Au2_7 2.942284 1_545
Au2_1 Au3_0 2.979316 1_556
Au2_1 Au3_3 2.979316 1_555
Au2_1 Au3_5 2.979316 1_555
Au2_2 Au2_7 2.942284 1_455
Au2_2 Au2_7 2.942284 1_554
Au2_2 Au2_4 2.942284 1_465
Au2_2 Au2_4 2.942284 1_555
Au2_2 Au3_3 2.979316 1_555
Au2_2 Au3_6 2.979316 1_555
Au2_2 Au3_0 2.979316 1_565
Au2_3 Au2_6 2.942284 1_456
Au2_3 Au2_6 2.942284 1_555
Au2_3 Au2_5 2.942284 1_555
Au2_3 Au2_5 2.942284 1_465
Au2_3 Au3_2 2.979316 1_556
Au2_3 Au3_7 2.979316 1_555
Au2_3 Au3_1 2.979316 1_565
Au2_4 Au2_7 2.942284 1_545
Au2_4 Au2_7 2.942284 1_554
Au2_4 Au3_5 2.979316 1_555
Au2_4 Au3_6 2.979316 1_555
Au2_4 Au3_0 2.979316 1_655
Au2_5 Au2_6 2.942284 1_546
Au2_5 Au2_6 2.942284 1_555
Au2_5 Au3_4 2.979316 1_556
Au2_5 Au3_7 2.979316 1_555
Au2_5 Au3_1 2.979316 1_655
Au2_6 Au3_7 2.979316 1_555
Au2_6 Au3_2 2.979316 1_655
Au2_6 Au3_4 2.979316 1_565
Au2_7 Au3_6 2.979316 1_556
Au2_7 Au3_3 2.979316 1_655
Au2_7 Au3_5 2.979316 1_565
Au3_0 Nb0_1 2.910650 1_555
Au3_0 Nb0_4 2.910650 1_555
Au3_0 Nb0_2 2.910650 1_555
Au3_1 Nb0_0 2.910650 1_556
Au3_1 Nb0_5 2.910650 1_555
Au3_1 Nb0_3 2.910650 1_555
Au3_2 Nb0_3 2.910650 1_555
Au3_2 Nb0_0 2.910650 1_565
Au3_2 Nb0_6 2.910650 1_555
Au3_3 Nb0_2 2.910650 1_556
Au3_3 Nb0_7 2.910650 1_555
Au3_3 Nb0_1 2.910650 1_565
Au3_4 Nb0_5 2.910650 1_555
Au3_4 Nb0_0 2.910650 1_655
Au3_4 Nb0_6 2.910650 1_555
Au3_5 Nb0_4 2.910650 1_556
Au3_5 Nb0_7 2.910650 1_555
Au3_5 Nb0_1 2.910650 1_655
Au3_6 Nb0_7 2.910650 1_555
Au3_6 Nb0_4 2.910650 1_565
Au3_6 Nb0_2 2.910650 1_655
Au3_7 Nb0_6 2.910650 1_556
Au3_7 Nb0_5 2.910650 1_565
Au3_7 Nb0_3 2.910650 1_655
