# generated using pymatgen
data_YMg6Si
_symmetry_space_group_name_H-M   'P 1'
_cell_length_a   5.08297000
_cell_length_b   6.06274100
_cell_length_c   11.68177200
_cell_angle_alpha   90.00000000
_cell_angle_beta   90.00000000
_cell_angle_gamma   90.00000000
_symmetry_Int_Tables_number   1
_chemical_formula_structural   YMg6Si
_chemical_formula_sum   'Y2 Mg12 Si2'
_cell_volume   359.99402090
_cell_formula_units_Z   2
loop_
 _symmetry_equiv_pos_site_id
 _symmetry_equiv_pos_as_xyz
  1  'x, y, z'
loop_
 _atom_site_type_symbol
 _atom_site_label
 _atom_site_symmetry_multiplicity
 _atom_site_fract_x
 _atom_site_fract_y
 _atom_site_fract_z
 _atom_site_occupancy
  Y  Y0  1  0.50000000  0.50000000  0.67733200  1
  Y  Y1  1  0.50000000  0.00000000  0.17733200  1
  Mg  Mg0  1  0.50000000  0.74974600  0.92457000  1
  Mg  Mg1  1  0.50000000  0.25025400  0.92457000  1
  Mg  Mg2  1  0.00000000  0.24693300  0.57706000  1
  Mg  Mg3  1  0.00000000  0.75306700  0.57706000  1
  Mg  Mg4  1  0.00000000  0.50000000  0.83872100  1
  Mg  Mg5  1  0.00000000  0.00000000  0.82002700  1
  Mg  Mg6  1  0.50000000  0.24974600  0.42457000  1
  Mg  Mg7  1  0.50000000  0.75025400  0.42457000  1
  Mg  Mg8  1  0.00000000  0.74693300  0.07706000  1
  Mg  Mg9  1  0.00000000  0.25306700  0.07706000  1
  Mg  Mg10  1  0.00000000  0.00000000  0.33872100  1
  Mg  Mg11  1  0.00000000  0.50000000  0.32002700  1
  Si  Si0  1  0.50000000  0.00000000  0.66065600  1
  Si  Si1  1  0.50000000  0.50000000  0.16065600  1
loop_
_geom_bond_atom_site_label_1
_geom_bond_atom_site_label_2
_geom_bond_distance
_geom_bond_site_symmetry_2
Mg0 Mg1 3.028291 1_555
Mg0 Mg1 3.034450 1_565
Mg0 Mg8 3.103652 1_656
Mg0 Mg8 3.103652 1_556
Mg0 Mg4 3.123704 1_655
Mg0 Mg4 3.123704 1_555
Mg0 Si1 3.146214 1_556
Mg0 Mg5 3.201962 1_665
Mg0 Mg5 3.201962 1_565
Mg0 Y0 3.261013 1_555
Mg0 Y1 3.319707 1_566
Mg1 Mg9 3.103652 1_556
Mg1 Mg9 3.103652 1_656
Mg1 Mg4 3.123704 1_655
Mg1 Mg4 3.123704 1_555
Mg1 Si1 3.146214 1_556
Mg1 Mg5 3.201962 1_655
Mg1 Mg5 3.201962 1_555
Mg1 Y0 3.261013 1_555
Mg1 Y1 3.319707 1_556
Mg2 Mg3 2.994182 1_545
Mg2 Mg3 3.068559 1_555
Mg2 Mg6 3.103652 1_455
Mg2 Mg6 3.103652 1_555
Mg2 Si0 3.107101 1_555
Mg2 Si0 3.107101 1_455
Mg2 Y0 3.191431 1_455
Mg2 Y0 3.191431 1_555
Mg2 Mg5 3.208916 1_555
Mg2 Mg4 3.420118 1_555
Mg3 Mg7 3.103652 1_455
Mg3 Mg7 3.103652 1_555
Mg3 Si0 3.107101 1_565
Mg3 Si0 3.107101 1_465
Mg3 Y0 3.191431 1_455
Mg3 Y0 3.191431 1_555
Mg3 Mg5 3.208916 1_565
Mg3 Mg4 3.420118 1_555
Mg4 Mg5 3.039226 1_565
Mg4 Mg5 3.039226 1_555
Mg4 Mg9 3.161198 1_556
Mg4 Mg8 3.161198 1_556
Mg4 Y0 3.164417 1_455
Mg4 Y0 3.164417 1_555
Mg5 Si0 3.150429 1_555
Mg5 Si0 3.150429 1_455
Mg5 Mg9 3.371888 1_556
Mg5 Mg8 3.371888 1_546
Mg6 Mg7 3.028291 1_545
Mg6 Mg7 3.034450 1_555
Mg6 Si0 3.146214 1_555
Mg6 Y1 3.261013 1_555
Mg6 Y0 3.319707 1_555
Mg7 Si0 3.146214 1_565
Mg7 Y1 3.261013 1_565
Mg7 Y0 3.319707 1_555
Mg8 Mg9 2.994182 1_555
Mg8 Mg9 3.068559 1_565
Mg8 Si1 3.107101 1_555
Mg8 Si1 3.107101 1_455
Mg8 Y1 3.191431 1_565
Mg8 Y1 3.191431 1_465
Mg9 Si1 3.107101 1_455
Mg9 Si1 3.107101 1_555
Mg9 Y1 3.191431 1_455
Mg9 Y1 3.191431 1_555
Mg10 Mg11 3.039226 1_555
Mg10 Mg11 3.039226 1_545
Mg10 Mg6 3.123704 1_555
Mg10 Mg6 3.123704 1_455
Mg10 Mg7 3.123704 1_545
Mg10 Mg7 3.123704 1_445
Mg10 Mg2 3.161198 1_555
Mg10 Mg3 3.161198 1_545
Mg10 Y1 3.164417 1_455
Mg10 Y1 3.164417 1_555
Mg10 Mg9 3.420118 1_555
Mg10 Mg8 3.420118 1_545
Mg11 Si1 3.150429 1_455
Mg11 Si1 3.150429 1_555
Mg11 Mg6 3.201962 1_555
Mg11 Mg6 3.201962 1_455
Mg11 Mg7 3.201962 1_455
Mg11 Mg7 3.201962 1_555
Mg11 Mg8 3.208916 1_555
Mg11 Mg9 3.208916 1_555
Mg11 Mg3 3.371888 1_555
Mg11 Mg2 3.371888 1_555
Si0 Y0 3.037623 1_555
Si0 Y0 3.037623 1_545
Si1 Y1 3.037623 1_565
Si1 Y1 3.037623 1_555
