# generated using pymatgen
data_Cr3Te4
_symmetry_space_group_name_H-M   'P 1'
_cell_length_a   7.40159381
_cell_length_b   7.40159381
_cell_length_c   6.98398672
_cell_angle_alpha   63.06614049
_cell_angle_beta   63.06614049
_cell_angle_gamma   31.37459530
_symmetry_Int_Tables_number   1
_chemical_formula_structural   Cr3Te4
_chemical_formula_sum   'Cr3 Te4'
_cell_volume   175.77336816
_cell_formula_units_Z   1
loop_
 _symmetry_equiv_pos_site_id
 _symmetry_equiv_pos_as_xyz
  1  'x, y, z'
loop_
 _atom_site_type_symbol
 _atom_site_label
 _atom_site_symmetry_multiplicity
 _atom_site_fract_x
 _atom_site_fract_y
 _atom_site_fract_z
 _atom_site_occupancy
  Cr  Cr0  1  0.00000000  0.00000000  0.00000000  1
  Cr  Cr1  1  0.25933250  0.25933250  0.72285042  1
  Cr  Cr2  1  0.74066750  0.74066750  0.27714958  1
  Te  Te0  1  0.36666873  0.36666873  0.97336520  1
  Te  Te1  1  0.63333127  0.63333127  0.02663480  1
  Te  Te2  1  0.12261248  0.12261248  0.54784175  1
  Te  Te3  1  0.87738752  0.87738752  0.45215825  1
loop_
_geom_bond_atom_site_label_1
_geom_bond_atom_site_label_2
_geom_bond_distance
_geom_bond_site_symmetry_2
Cr0 Te3 2.798788 1_445
Cr0 Te2 2.798788 1_554
Cr0 Te0 2.825454 1_544
Cr0 Te0 2.825454 1_454
Cr0 Te1 2.825454 1_455
Cr0 Te1 2.825454 1_545
Cr1 Te3 2.723413 1_455
Cr1 Te3 2.723413 1_545
Cr1 Te2 2.744374 1_555
Cr1 Te0 2.814176 1_555
Cr1 Te1 2.854149 1_456
Cr1 Te1 2.854149 1_546
Cr2 Te2 2.723413 1_565
Cr2 Te2 2.723413 1_655
Cr2 Te3 2.744374 1_555
Cr2 Te1 2.814176 1_555
Cr2 Te0 2.854149 1_654
Cr2 Te0 2.854149 1_564
