# generated using pymatgen
data_YV(WO4)2
_symmetry_space_group_name_H-M   'P 1'
_cell_length_a   5.15481600
_cell_length_b   5.74923179
_cell_length_c   5.97076752
_cell_angle_alpha   106.86854690
_cell_angle_beta   91.47040090
_cell_angle_gamma   108.21558095
_symmetry_Int_Tables_number   1
_chemical_formula_structural   YV(WO4)2
_chemical_formula_sum   'Y1 V1 W2 O8'
_cell_volume   159.52794133
_cell_formula_units_Z   1
loop_
 _symmetry_equiv_pos_site_id
 _symmetry_equiv_pos_as_xyz
  1  'x, y, z'
loop_
 _atom_site_type_symbol
 _atom_site_label
 _atom_site_symmetry_multiplicity
 _atom_site_fract_x
 _atom_site_fract_y
 _atom_site_fract_z
 _atom_site_occupancy
  Y  Y0  1  0.47540300  0.09810700  0.70459900  1
  V  V0  1  0.97185600  0.09869400  0.22978500  1
  W  W0  1  0.71675000  0.58669400  0.38943100  1
  W  W1  1  0.22471200  0.61733500  0.06231200  1
  O  O0  1  0.70126300  0.82165500  0.66761200  1
  O  O1  1  0.74446900  0.29306900  0.48279700  1
  O  O2  1  0.61384700  0.78624700  0.17584700  1
  O  O3  1  0.84160900  0.38520300  0.06352700  1
  O  O4  1  0.19688400  0.88228200  0.95611500  1
  O  O5  1  0.26384100  0.38997600  0.79201600  1
  O  O6  1  0.32261400  0.40526300  0.26659400  1
  O  O7  1  0.12684700  0.83157000  0.38786300  1
loop_
_geom_bond_atom_site_label_1
_geom_bond_atom_site_label_2
_geom_bond_distance
_geom_bond_site_symmetry_2
O0 W0 1.833580 1_555
O0 Y0 2.212875 1_565
O1 W0 1.968196 1_555
O1 V0 2.198844 1_555
O1 Y0 2.217602 1_555
O2 W1 1.938201 1_555
O2 V0 2.073041 1_565
O2 W0 2.102085 1_555
O3 W1 2.009908 1_655
O3 W0 2.182864 1_555
O3 V0 2.399099 1_555
O3 Y0 2.583059 1_554
O4 W1 1.853476 1_556
O4 V0 2.320193 1_466
O4 Y0 2.436082 1_565
O5 W1 1.819653 1_556
O5 Y0 2.223177 1_555
O6 W0 1.976959 1_555
O6 V0 2.046087 1_455
O6 W1 2.108352 1_555
O7 W0 2.144534 1_455
O7 W1 2.144576 1_555
O7 V0 2.336098 1_465
O7 Y0 2.361227 1_565
