# generated using pymatgen
data_Mg6NbW
_symmetry_space_group_name_H-M   'P 1'
_cell_length_a   4.98774400
_cell_length_b   5.73824800
_cell_length_c   11.03011200
_cell_angle_alpha   90.00000000
_cell_angle_beta   90.00000000
_cell_angle_gamma   90.00000000
_symmetry_Int_Tables_number   1
_chemical_formula_structural   Mg6NbW
_chemical_formula_sum   'Mg12 Nb2 W2'
_cell_volume   315.69186526
_cell_formula_units_Z   2
loop_
 _symmetry_equiv_pos_site_id
 _symmetry_equiv_pos_as_xyz
  1  'x, y, z'
loop_
 _atom_site_type_symbol
 _atom_site_label
 _atom_site_symmetry_multiplicity
 _atom_site_fract_x
 _atom_site_fract_y
 _atom_site_fract_z
 _atom_site_occupancy
  Mg  Mg0  1  0.50000000  0.24976800  0.42308000  1
  Mg  Mg1  1  0.50000000  0.75023200  0.42308000  1
  Mg  Mg2  1  0.00000000  0.74637400  0.08630600  1
  Mg  Mg3  1  0.00000000  0.25362600  0.08630600  1
  Mg  Mg4  1  0.00000000  0.00000000  0.32053400  1
  Mg  Mg5  1  0.00000000  0.50000000  0.31563900  1
  Mg  Mg6  1  0.50000000  0.74976800  0.92308000  1
  Mg  Mg7  1  0.50000000  0.25023200  0.92308000  1
  Mg  Mg8  1  0.00000000  0.24637400  0.58630600  1
  Mg  Mg9  1  0.00000000  0.75362600  0.58630600  1
  Mg  Mg10  1  0.00000000  0.50000000  0.82053400  1
  Mg  Mg11  1  0.00000000  0.00000000  0.81563900  1
  Nb  Nb0  1  0.50000000  0.00000000  0.17265100  1
  Nb  Nb1  1  0.50000000  0.50000000  0.67265100  1
  W  W0  1  0.50000000  0.50000000  0.17240000  1
  W  W1  1  0.50000000  0.00000000  0.67240000  1
loop_
_geom_bond_atom_site_label_1
_geom_bond_atom_site_label_2
_geom_bond_distance
_geom_bond_site_symmetry_2
Mg0 Mg1 2.866461 1_545
Mg0 Mg1 2.871787 1_555
Mg0 Mg8 3.075910 1_655
Mg0 Mg8 3.075910 1_555
Mg0 Mg4 3.090780 1_555
Mg0 Mg4 3.090780 1_655
Mg0 W1 3.101097 1_555
Mg0 Nb1 3.104783 1_555
Mg0 Nb0 3.111950 1_555
Mg0 Mg5 3.112172 1_655
Mg0 Mg5 3.112172 1_555
Mg0 W0 3.115633 1_555
Mg1 Mg9 3.075910 1_655
Mg1 Mg9 3.075910 1_555
Mg1 Mg4 3.090780 1_565
Mg1 Mg4 3.090780 1_665
Mg1 W1 3.101097 1_565
Mg1 Nb1 3.104783 1_555
Mg1 Nb0 3.111950 1_565
Mg1 Mg5 3.112172 1_655
Mg1 Mg5 3.112172 1_555
Mg1 W0 3.115633 1_555
Mg2 Mg3 2.827510 1_555
Mg2 Mg5 2.897830 1_555
Mg2 Mg3 2.910738 1_565
Mg2 Mg4 2.965280 1_565
Mg2 W0 3.019916 1_455
Mg2 W0 3.019916 1_555
Mg2 Nb0 3.040486 1_465
Mg2 Nb0 3.040486 1_565
Mg2 Mg6 3.075910 1_454
Mg2 Mg6 3.075910 1_554
Mg3 Mg5 2.897830 1_555
Mg3 Mg4 2.965280 1_555
Mg3 W0 3.019916 1_455
Mg3 W0 3.019916 1_555
Mg3 Nb0 3.040486 1_455
Mg3 Nb0 3.040486 1_555
Mg3 Mg7 3.075910 1_554
Mg3 Mg7 3.075910 1_454
Mg4 Mg5 2.869632 1_555
Mg4 Mg5 2.869632 1_545
Mg4 Nb0 2.979950 1_455
Mg4 Nb0 2.979950 1_555
Mg4 Mg8 3.254592 1_555
Mg4 Mg9 3.254592 1_545
Mg5 W0 2.952222 1_455
Mg5 W0 2.952222 1_555
Mg5 Mg9 3.321330 1_555
Mg5 Mg8 3.321330 1_555
Mg6 Mg7 2.866461 1_555
Mg6 Mg7 2.871787 1_565
Mg6 W0 3.101097 1_556
Mg6 Nb0 3.104783 1_566
Mg6 Nb1 3.111950 1_555
Mg6 W1 3.115633 1_565
Mg7 W0 3.101097 1_556
Mg7 Nb0 3.104783 1_556
Mg7 Nb1 3.111950 1_555
Mg7 W1 3.115633 1_555
Mg8 Mg9 2.827510 1_545
Mg8 Mg9 2.910738 1_555
Mg8 W1 3.019916 1_555
Mg8 W1 3.019916 1_455
Mg8 Nb1 3.040486 1_455
Mg8 Nb1 3.040486 1_555
Mg9 W1 3.019916 1_565
Mg9 W1 3.019916 1_465
Mg9 Nb1 3.040486 1_455
Mg9 Nb1 3.040486 1_555
Mg10 Mg11 2.869632 1_565
Mg10 Mg11 2.869632 1_555
Mg10 Mg9 2.965280 1_555
Mg10 Mg8 2.965280 1_555
Mg10 Nb1 2.979950 1_555
Mg10 Nb1 2.979950 1_455
Mg10 Mg7 3.090780 1_555
Mg10 Mg6 3.090780 1_455
Mg10 Mg7 3.090780 1_455
Mg10 Mg6 3.090780 1_555
Mg10 Mg2 3.254592 1_556
Mg10 Mg3 3.254592 1_556
Mg11 Mg8 2.897830 1_555
Mg11 Mg9 2.897830 1_545
Mg11 W1 2.952222 1_455
Mg11 W1 2.952222 1_555
Mg11 Mg7 3.112172 1_455
Mg11 Mg6 3.112172 1_545
Mg11 Mg7 3.112172 1_555
Mg11 Mg6 3.112172 1_445
Mg11 Mg3 3.321330 1_556
Mg11 Mg2 3.321330 1_546
Nb0 W0 2.869125 1_555
Nb0 W0 2.869125 1_545
Nb1 W1 2.869125 1_565
Nb1 W1 2.869125 1_555
