# generated using pymatgen
data_SmRe2SiC
_symmetry_space_group_name_H-M   'P 1'
_cell_length_a   5.81540873
_cell_length_b   5.81540873
_cell_length_c   7.33355100
_cell_angle_alpha   90.00000000
_cell_angle_beta   90.00000000
_cell_angle_gamma   139.75942903
_symmetry_Int_Tables_number   1
_chemical_formula_structural   SmRe2SiC
_chemical_formula_sum   'Sm2 Re4 Si2 C2'
_cell_volume   160.21612583
_cell_formula_units_Z   2
loop_
 _symmetry_equiv_pos_site_id
 _symmetry_equiv_pos_as_xyz
  1  'x, y, z'
loop_
 _atom_site_type_symbol
 _atom_site_label
 _atom_site_symmetry_multiplicity
 _atom_site_fract_x
 _atom_site_fract_y
 _atom_site_fract_z
 _atom_site_occupancy
  Sm  Sm0  1  0.54399800  0.45600200  0.25000000  1
  Sm  Sm1  1  0.45600200  0.54399800  0.75000000  1
  Re  Re0  1  0.82555100  0.17444900  0.06126700  1
  Re  Re1  1  0.17444900  0.82555100  0.93873300  1
  Re  Re2  1  0.17444900  0.82555100  0.56126700  1
  Re  Re3  1  0.82555100  0.17444900  0.43873300  1
  Si  Si0  1  0.26596900  0.73403100  0.25000000  1
  Si  Si1  1  0.73403100  0.26596900  0.75000000  1
  C  C0  1  0.00000000  0.00000000  0.00000000  1
  C  C1  1  0.00000000  0.00000000  0.50000000  1
loop_
_geom_bond_atom_site_label_1
_geom_bond_atom_site_label_2
_geom_bond_distance
_geom_bond_site_symmetry_2
Re0 Si1 2.491921 1_554
Re0 Si0 2.518117 1_655
Re0 Si0 2.518117 1_545
Re1 Si0 2.491921 1_556
Re1 Si1 2.518117 1_565
Re1 Si1 2.518117 1_455
Re2 Si0 2.491921 1_555
Re2 Si1 2.518117 1_455
Re2 Si1 2.518117 1_565
Re3 Si1 2.491921 1_555
Re3 Si0 2.518117 1_655
Re3 Si0 2.518117 1_545
Si0 Sm0 3.036360 1_555
Si0 Sm0 3.142979 1_565
Si0 Sm0 3.142979 1_455
Si1 Sm1 3.036360 1_555
Si1 Sm1 3.142979 1_655
Si1 Sm1 3.142979 1_545
C0 Re1 1.957425 1_544
C0 Re0 1.957425 1_455
C0 Sm1 2.755724 1_554
C0 Sm0 2.755724 1_555
C0 Sm1 2.755724 1_444
C0 Sm0 2.755724 1_445
C1 Re2 1.957425 1_545
C1 Re3 1.957425 1_455
C1 Sm1 2.755724 1_445
C1 Sm1 2.755724 1_555
C1 Sm0 2.755724 1_555
C1 Sm0 2.755724 1_445
