# generated using pymatgen
data_ThSi3Rh
_symmetry_space_group_name_H-M   'P 1'
_cell_length_a   5.68816981
_cell_length_b   5.68816981
_cell_length_c   5.68816981
_cell_angle_alpha   135.93662979
_cell_angle_beta   135.93662979
_cell_angle_gamma   64.07832177
_symmetry_Int_Tables_number   1
_chemical_formula_structural   ThSi3Rh
_chemical_formula_sum   'Th1 Si3 Rh1'
_cell_volume   87.81147595
_cell_formula_units_Z   1
loop_
 _symmetry_equiv_pos_site_id
 _symmetry_equiv_pos_as_xyz
  1  'x, y, z'
loop_
 _atom_site_type_symbol
 _atom_site_label
 _atom_site_symmetry_multiplicity
 _atom_site_fract_x
 _atom_site_fract_y
 _atom_site_fract_z
 _atom_site_occupancy
  Th  Th0  1  -0.00003307  -0.00003307  -0.00000000  1
  Si  Si0  1  0.40969052  0.40969052  0.00000000  1
  Si  Si1  1  0.26437838  0.76437838  0.50000000  1
  Si  Si2  1  0.76437838  0.26437838  0.50000000  1
  Rh  Rh0  1  0.65558580  0.65558580  0.00000000  1
loop_
_geom_bond_atom_site_label_1
_geom_bond_atom_site_label_2
_geom_bond_distance
_geom_bond_site_symmetry_2
Si0 Th0 3.140642 1_655
Si0 Th0 3.140642 1_554
Si0 Th0 3.140642 1_565
Si0 Th0 3.140642 1_666
Si1 Th0 3.116800 1_666
Si1 Th0 3.116800 1_565
Si1 Th0 3.324858 1_566
Si1 Th0 3.324858 1_555
Si2 Th0 3.116800 1_666
Si2 Th0 3.116800 1_655
Si2 Th0 3.324858 1_656
Si2 Th0 3.324858 1_555
Rh0 Si0 2.371306 1_555
Rh0 Si2 2.377723 1_554
Rh0 Si1 2.377723 1_554
Rh0 Si1 2.377723 1_655
Rh0 Si2 2.377723 1_565
Rh0 Th0 3.321060 1_665
Rh0 Th0 3.370144 1_554
Rh0 Th0 3.370144 1_666
Rh0 Th0 3.370144 1_655
Rh0 Th0 3.370144 1_565
