# generated using pymatgen
data_Li10Zn(PS4)4
_symmetry_space_group_name_H-M   'P 1'
_cell_length_a   6.16184000
_cell_length_b   7.77789315
_cell_length_c   13.05876781
_cell_angle_alpha   89.56378230
_cell_angle_beta   89.90862519
_cell_angle_gamma   89.90298327
_symmetry_Int_Tables_number   1
_chemical_formula_structural   Li10Zn(PS4)4
_chemical_formula_sum   'Li10 Zn1 P4 S16'
_cell_volume   625.83642566
_cell_formula_units_Z   1
loop_
 _symmetry_equiv_pos_site_id
 _symmetry_equiv_pos_as_xyz
  1  'x, y, z'
loop_
 _atom_site_type_symbol
 _atom_site_label
 _atom_site_symmetry_multiplicity
 _atom_site_fract_x
 _atom_site_fract_y
 _atom_site_fract_z
 _atom_site_occupancy
  Li  Li0  1  0.99917500  0.74777500  0.84116800  1
  Li  Li1  1  0.50699600  0.74981600  0.65934400  1
  Li  Li2  1  0.49331500  0.73858500  0.15867300  1
  Li  Li3  1  0.49340400  0.25923800  0.65688800  1
  Li  Li4  1  0.50013300  0.25144000  0.16598700  1
  Li  Li5  1  0.99280300  0.23368800  0.84101800  1
  Li  Li6  1  0.48712000  0.99581000  0.92824400  1
  Li  Li7  1  0.48920700  0.03783900  0.42119000  1
  Li  Li8  1  0.99423100  0.48688200  0.56172400  1
  Li  Li9  1  0.98805000  0.47672800  0.08001500  1
  Zn  Zn0  1  0.99155700  0.76465000  0.34647300  1
  P  P0  1  0.00409800  0.99523600  0.58590600  1
  P  P1  1  0.99880600  0.99959900  0.09555400  1
  P  P2  1  0.50018800  0.49424300  0.91091800  1
  P  P3  1  0.49110400  0.51343500  0.40765400  1
  S  S0  1  0.88692000  0.98812300  0.94698300  1
  S  S1  1  0.90038300  0.01659300  0.43479800  1
  S  S2  1  0.33778500  0.00164500  0.59196800  1
  S  S3  1  0.33297200  0.99778800  0.09753200  1
  S  S4  1  0.89975800  0.77370200  0.65710800  1
  S  S5  1  0.89217300  0.77121300  0.16860500  1
  S  S6  1  0.39369500  0.71442800  0.83768400  1
  S  S7  1  0.38239600  0.74439100  0.33964900  1
  S  S8  1  0.83453100  0.49113900  0.90776200  1
  S  S9  1  0.82830800  0.50019300  0.39022300  1
  S  S10  1  0.39668100  0.51137600  0.55856600  1
  S  S11  1  0.38897400  0.49228800  0.05932400  1
  S  S12  1  0.38833500  0.27851100  0.83698300  1
  S  S13  1  0.35350000  0.31256600  0.33707700  1
  S  S14  1  0.88730100  0.21124600  0.65801400  1
  S  S15  1  0.89150900  0.20361400  0.17501900  1
loop_
_geom_bond_atom_site_label_1
_geom_bond_atom_site_label_2
_geom_bond_distance
_geom_bond_site_symmetry_2
Li0 S8 2.397389 1_555
Li0 S0 2.431958 1_555
Li0 S6 2.444718 1_655
Li0 S4 2.487993 1_555
Li1 S2 2.380656 1_565
Li1 S10 2.382789 1_555
Li1 S4 2.427683 1_555
Li1 S6 2.443900 1_555
Li2 S3 2.376841 1_555
Li2 S11 2.410606 1_555
Li2 S7 2.459844 1_555
Li2 S5 2.474902 1_555
Li3 S2 2.384808 1_555
Li3 S10 2.410360 1_555
Li3 S12 2.443943 1_555
Li3 S14 2.455092 1_555
Li4 S3 2.406031 1_545
Li4 S11 2.424349 1_555
Li4 S15 2.442393 1_555
Li4 S13 2.458138 1_555
Li5 S8 2.395359 1_555
Li5 S0 2.439182 1_545
Li5 S12 2.463021 1_655
Li5 S14 2.485146 1_555
Li6 S3 2.404861 1_556
Li6 S0 2.476592 1_555
Li6 S6 2.562339 1_555
Li6 S12 2.565829 1_565
Li7 S2 2.430653 1_555
Li7 S13 2.536295 1_555
Li7 S1 2.545111 1_555
Li7 S7 2.611652 1_545
Li8 S9 2.464790 1_555
Li8 S10 2.487714 1_655
Li8 S14 2.563692 1_555
Li8 S4 2.627299 1_555
Li9 S8 2.443327 1_554
Li9 S11 2.487783 1_655
Li9 S15 2.523348 1_555
Li9 S5 2.639552 1_555
P0 S4 2.055314 1_455
P0 S2 2.058478 1_565
P0 S14 2.060391 1_465
P0 S1 2.080513 1_465
P1 S15 2.012773 1_565
P1 S3 2.059304 1_655
P1 S0 2.062664 1_554
P1 S5 2.115033 1_555
P2 S11 2.054516 1_556
P2 S8 2.060619 1_555
P2 S6 2.061882 1_555
P2 S12 2.062379 1_555
P3 S13 2.009518 1_555
P3 S10 2.053879 1_555
P3 S9 2.092316 1_555
P3 S7 2.106597 1_555
S1 Zn0 2.348315 1_545
S5 Zn0 2.403197 1_555
S7 Zn0 2.414718 1_455
S9 Zn0 2.357215 1_555
