# generated using pymatgen
data_VCr2O4
_symmetry_space_group_name_H-M   'P 1'
_cell_length_a   6.01942438
_cell_length_b   6.26119323
_cell_length_c   6.01533554
_cell_angle_alpha   58.68012541
_cell_angle_beta   118.51936645
_cell_angle_gamma   121.39053891
_symmetry_Int_Tables_number   1
_chemical_formula_structural   VCr2O4
_chemical_formula_sum   'V2 Cr4 O8'
_cell_volume   158.54699906
_cell_formula_units_Z   2
loop_
 _symmetry_equiv_pos_site_id
 _symmetry_equiv_pos_as_xyz
  1  'x, y, z'
loop_
 _atom_site_type_symbol
 _atom_site_label
 _atom_site_symmetry_multiplicity
 _atom_site_fract_x
 _atom_site_fract_y
 _atom_site_fract_z
 _atom_site_occupancy
  V  V0  1  0.87367800  0.62394200  0.62627300  1
  V  V1  1  0.12649300  0.37656000  0.37354500  1
  Cr  Cr0  1  0.49978300  0.49963700  0.99997400  1
  Cr  Cr1  1  0.49990300  0.00005600  0.00002000  1
  Cr  Cr2  1  0.49992000  0.00000400  0.50010300  1
  Cr  Cr3  1  0.99991500  0.99985200  0.00018400  1
  O  O0  1  0.28011800  0.24573000  0.78760600  1
  O  O1  1  0.74611100  0.20801500  0.75453300  1
  O  O2  1  0.25434400  0.21649500  0.24605100  1
  O  O3  1  0.71238000  0.24653200  0.21978900  1
  O  O4  1  0.28778300  0.75347600  0.78002200  1
  O  O5  1  0.74551600  0.78373200  0.75414500  1
  O  O6  1  0.25417900  0.79197700  0.24563100  1
  O  O7  1  0.71987500  0.75399200  0.21212400  1
loop_
_geom_bond_atom_site_label_1
_geom_bond_atom_site_label_2
_geom_bond_distance
_geom_bond_site_symmetry_2
Cr0 O2 2.036743 1_556
Cr0 O5 2.037606 1_555
Cr0 O3 2.053238 1_556
Cr0 O0 2.053335 1_555
Cr0 O4 2.054118 1_555
Cr0 O7 2.054389 1_556
Cr1 O6 2.036206 1_545
Cr1 O1 2.037897 1_554
Cr1 O0 2.052174 1_554
Cr1 O3 2.053115 1_555
Cr1 O4 2.054792 1_544
Cr1 O7 2.055007 1_545
Cr2 O1 2.032388 1_555
Cr2 O5 2.032541 1_545
Cr2 O6 2.032545 1_545
Cr2 O2 2.033356 1_555
Cr2 O4 2.036217 1_545
Cr2 O3 2.039178 1_555
Cr3 O5 2.031183 1_554
Cr3 O2 2.032591 1_665
Cr3 O1 2.032877 1_564
Cr3 O6 2.033700 1_655
Cr3 O7 2.035973 1_555
Cr3 O0 2.039106 1_664
O0 V1 2.048997 1_555
O1 V0 2.088172 1_555
O2 V1 2.085898 1_555
O3 V1 2.049163 1_655
O4 V0 2.049130 1_455
O5 V0 2.087705 1_555
O6 V1 2.085555 1_555
O7 V0 2.049492 1_555
