# generated using pymatgen
data_Pr2(CuSn2)3
_symmetry_space_group_name_H-M   'P 1'
_cell_length_a   13.47917605
_cell_length_b   13.47917605
_cell_length_c   13.47917605
_cell_angle_alpha   160.84317215
_cell_angle_beta   160.84317215
_cell_angle_gamma   27.22112208
_symmetry_Int_Tables_number   1
_chemical_formula_structural   Pr2(CuSn2)3
_chemical_formula_sum   'Pr2 Cu3 Sn6'
_cell_volume   263.61605079
_cell_formula_units_Z   1
loop_
 _symmetry_equiv_pos_site_id
 _symmetry_equiv_pos_as_xyz
  1  'x, y, z'
loop_
 _atom_site_type_symbol
 _atom_site_label
 _atom_site_symmetry_multiplicity
 _atom_site_fract_x
 _atom_site_fract_y
 _atom_site_fract_z
 _atom_site_occupancy
  Pr  Pr0  1  0.99654800  0.99654800  0.00000000  1
  Pr  Pr1  1  0.68481100  0.68481100  0.00000000  1
  Cu  Cu0  1  0.58723400  0.08723400  0.50000000  1
  Cu  Cu1  1  0.08723400  0.58723400  0.50000000  1
  Cu  Cu2  1  0.23512500  0.23512500  0.00000000  1
  Sn  Sn0  1  0.78917500  0.28917500  0.50000000  1
  Sn  Sn1  1  0.28917500  0.78917500  0.50000000  1
  Sn  Sn2  1  0.90086200  0.40086200  0.50000000  1
  Sn  Sn3  1  0.40086200  0.90086200  0.50000000  1
  Sn  Sn4  1  0.13892900  0.13892900  0.00000000  1
  Sn  Sn5  1  0.53064600  0.53064600  0.00000000  1
loop_
_geom_bond_atom_site_label_1
_geom_bond_atom_site_label_2
_geom_bond_distance
_geom_bond_site_symmetry_2
Pr0 Sn5 3.295355 1_655
Pr0 Sn5 3.295355 1_666
Pr0 Sn5 3.295355 1_554
Pr0 Sn5 3.295355 1_565
Pr0 Sn3 3.363945 1_554
Pr0 Sn2 3.363945 1_554
Pr0 Sn3 3.363945 1_655
Pr0 Sn2 3.363945 1_565
Pr1 Sn4 3.392107 1_666
Pr1 Sn4 3.392107 1_655
Pr1 Sn4 3.392107 1_565
Pr1 Sn4 3.392107 1_554
Pr1 Sn0 3.536655 1_565
Pr1 Sn1 3.536655 1_655
Pr1 Sn1 3.536655 1_554
Pr1 Sn0 3.536655 1_554
Cu0 Sn4 2.620152 1_555
Cu0 Sn4 2.620152 1_656
Cu0 Sn5 2.688667 1_545
Cu0 Sn5 2.688667 1_556
Cu0 Pr0 3.267476 1_546
Cu0 Pr0 3.267476 1_445
Cu0 Pr1 3.401032 1_556
Cu0 Pr1 3.401032 1_545
Cu1 Sn4 2.620152 1_555
Cu1 Sn4 2.620152 1_566
Cu1 Sn5 2.688667 1_455
Cu1 Sn5 2.688667 1_556
Cu1 Pr0 3.267476 1_445
Cu1 Pr0 3.267476 1_456
Cu1 Pr1 3.401032 1_556
Cu1 Pr1 3.401032 1_455
Cu2 Sn4 2.520460 1_555
Cu2 Sn0 2.652576 1_454
Cu2 Sn1 2.652576 1_544
Cu2 Sn0 2.652576 1_555
Cu2 Sn1 2.652576 1_555
Cu2 Pr1 3.434978 1_455
Cu2 Pr1 3.434978 1_556
Cu2 Pr1 3.434978 1_444
Cu2 Pr1 3.434978 1_545
Sn0 Sn2 2.926344 1_555
Sn0 Sn1 3.171937 1_645
Sn0 Sn1 3.171937 1_544
Sn0 Sn1 3.171937 1_656
Sn0 Sn1 3.171937 1_555
Sn1 Sn3 2.926344 1_555
Sn2 Sn3 3.171937 1_555
Sn2 Sn3 3.171937 1_656
Sn2 Sn3 3.171937 1_544
Sn2 Sn3 3.171937 1_645
