# generated using pymatgen
data_Na4Sr2TiAs4
_symmetry_space_group_name_H-M   'P 1'
_cell_length_a   9.64395328
_cell_length_b   9.64395328
_cell_length_c   7.62299773
_cell_angle_alpha   89.91494680
_cell_angle_beta   89.91494680
_cell_angle_gamma   120.12822572
_symmetry_Int_Tables_number   1
_chemical_formula_structural   Na4Sr2TiAs4
_chemical_formula_sum   'Na8 Sr4 Ti2 As8'
_cell_volume   613.19993220
_cell_formula_units_Z   2
loop_
 _symmetry_equiv_pos_site_id
 _symmetry_equiv_pos_as_xyz
  1  'x, y, z'
loop_
 _atom_site_type_symbol
 _atom_site_label
 _atom_site_symmetry_multiplicity
 _atom_site_fract_x
 _atom_site_fract_y
 _atom_site_fract_z
 _atom_site_occupancy
  Na  Na0  1  0.47199100  0.94152100  0.38397900  1
  Na  Na1  1  0.94152100  0.47199100  0.88397900  1
  Na  Na2  1  0.86620100  0.72821800  0.20924300  1
  Na  Na3  1  0.27632700  0.13116400  0.22313600  1
  Na  Na4  1  0.85538100  0.13339800  0.21872300  1
  Na  Na5  1  0.13116400  0.27632700  0.72313600  1
  Na  Na6  1  0.72821800  0.86620100  0.70924300  1
  Na  Na7  1  0.13339800  0.85538100  0.71872300  1
  Sr  Sr0  1  0.05543000  0.53263800  0.38822900  1
  Sr  Sr1  1  0.47772200  0.53531500  0.38701200  1
  Sr  Sr2  1  0.53263800  0.05543000  0.88822900  1
  Sr  Sr3  1  0.53531500  0.47772200  0.88701200  1
  Ti  Ti0  1  0.66360000  0.32712500  0.49789300  1
  Ti  Ti1  1  0.32712500  0.66360000  0.99789300  1
  As  As0  1  0.19385000  0.38285200  0.10669100  1
  As  As1  1  0.61579500  0.80668700  0.09608100  1
  As  As2  1  0.19291600  0.80962700  0.10035800  1
  As  As3  1  0.80668700  0.61579500  0.59608100  1
  As  As4  1  0.38285200  0.19385000  0.60669100  1
  As  As5  1  0.80962700  0.19291600  0.60035800  1
  As  As6  1  0.66533200  0.33692400  0.17095300  1
  As  As7  1  0.33692400  0.66533200  0.67095300  1
loop_
_geom_bond_atom_site_label_1
_geom_bond_atom_site_label_2
_geom_bond_distance
_geom_bond_site_symmetry_2
Na0 Ti0 3.333727 1_565
Na1 Ti1 3.333727 1_655
As0 Ti1 2.483390 1_554
As0 Na3 3.040735 1_555
As0 Na4 3.045359 1_455
As0 Na5 3.059476 1_554
As0 Sr1 3.195111 1_555
As0 Sr0 3.226636 1_555
As0 Sr3 3.382342 1_554
As0 Na1 3.413346 1_454
As1 Ti1 2.523372 1_554
As1 Na4 2.974399 1_565
As1 Na2 2.997895 1_555
As1 Na6 3.092170 1_554
As1 Sr1 3.164873 1_555
As1 Na0 3.200068 1_555
As1 Sr3 3.279344 1_554
As1 Sr2 3.291191 1_564
As2 Ti1 2.469543 1_554
As2 Na3 2.940299 1_565
As2 Na2 2.956353 1_455
As2 Na7 3.040234 1_554
As2 Na0 3.181935 1_555
As2 Sr0 3.182398 1_555
As2 Sr2 3.338337 1_564
As2 Na1 3.362144 1_454
As3 Ti0 2.523372 1_555
As3 Na7 2.974399 1_655
As3 Na6 2.997895 1_555
As3 Na2 3.092170 1_555
As3 Sr3 3.164873 1_555
As3 Na1 3.200068 1_555
As3 Sr1 3.279344 1_555
As3 Sr0 3.291191 1_655
As4 Ti0 2.483390 1_555
As4 Na5 3.040735 1_555
As4 Na7 3.045359 1_545
As4 Na3 3.059476 1_555
As4 Sr3 3.195111 1_555
As4 Sr2 3.226636 1_555
As4 Sr1 3.382342 1_555
As4 Na0 3.413346 1_545
As5 Ti0 2.469543 1_555
As5 Na5 2.940299 1_655
As5 Na6 2.956353 1_545
As5 Na4 3.040234 1_555
As5 Na1 3.181935 1_555
As5 Sr2 3.182398 1_555
As5 Sr0 3.338337 1_655
As5 Na0 3.362144 1_545
As6 Ti0 2.493627 1_555
As6 Sr3 3.132004 1_554
As6 Na1 3.173034 1_554
As6 Sr2 3.192224 1_554
As6 Na3 3.269554 1_555
As6 Na2 3.277884 1_555
As6 Na4 3.309934 1_555
As7 Ti1 2.493627 1_555
As7 Sr1 3.132004 1_555
As7 Na0 3.173034 1_555
As7 Sr0 3.192224 1_555
As7 Na5 3.269554 1_555
As7 Na6 3.277884 1_555
As7 Na7 3.309934 1_555
