# generated using pymatgen
data_BaSrTbHfO6
_symmetry_space_group_name_H-M   'P 1'
_cell_length_a   8.56042545
_cell_length_b   8.56722104
_cell_length_c   8.55540863
_cell_angle_alpha   90.00000000
_cell_angle_beta   90.00000000
_cell_angle_gamma   90.00000000
_symmetry_Int_Tables_number   1
_chemical_formula_structural   BaSrTbHfO6
_chemical_formula_sum   'Ba4 Sr4 Tb4 Hf4 O24'
_cell_volume   627.44560140
_cell_formula_units_Z   4
loop_
 _symmetry_equiv_pos_site_id
 _symmetry_equiv_pos_as_xyz
  1  'x, y, z'
loop_
 _atom_site_type_symbol
 _atom_site_label
 _atom_site_symmetry_multiplicity
 _atom_site_fract_x
 _atom_site_fract_y
 _atom_site_fract_z
 _atom_site_occupancy
  Ba  Ba0  1  0.00000000  0.00000000  -0.00000000  1
  Ba  Ba1  1  0.50000000  0.50000000  0.50000000  1
  Ba  Ba2  1  0.50000000  0.00000000  -0.00000000  1
  Ba  Ba3  1  0.00000000  0.00000000  0.50000000  1
  Sr  Sr0  1  0.00000000  0.50000000  0.50000000  1
  Sr  Sr1  1  0.50000000  -0.00000000  0.50000000  1
  Sr  Sr2  1  0.50000000  0.50000000  -0.00000000  1
  Sr  Sr3  1  0.00000000  0.50000000  -0.00000000  1
  Tb  Tb0  1  0.25208110  0.25315237  0.25064391  1
  Tb  Tb1  1  0.74791890  0.74684763  0.25064391  1
  Tb  Tb2  1  0.74791890  0.25315237  0.74935609  1
  Tb  Tb3  1  0.25208110  0.74684763  0.74935609  1
  Hf  Hf0  1  0.74842086  0.74596843  0.74977389  1
  Hf  Hf1  1  0.25157914  0.25403157  0.74977389  1
  Hf  Hf2  1  0.25157914  0.74596843  0.25022611  1
  Hf  Hf3  1  0.74842086  0.25403157  0.25022611  1
  O  O0  1  0.98926958  0.22483614  0.27670769  1
  O  O1  1  0.01073042  0.77516386  0.27670769  1
  O  O2  1  0.01073042  0.22483614  0.72329231  1
  O  O3  1  0.98926958  0.77516386  0.72329231  1
  O  O4  1  0.27345453  0.98869491  0.22406653  1
  O  O5  1  0.27345453  0.01130509  0.77593347  1
  O  O6  1  0.72654547  0.01130509  0.22406653  1
  O  O7  1  0.72654547  0.98869491  0.77593347  1
  O  O8  1  0.21589050  0.28365940  0.98905288  1
  O  O9  1  0.78410950  0.28365940  0.01094712  1
  O  O10  1  0.21589050  0.71634060  0.01094712  1
  O  O11  1  0.78410950  0.71634060  0.98905288  1
  O  O12  1  0.51098772  0.28978760  0.21370180  1
  O  O13  1  0.48901228  0.71021240  0.21370180  1
  O  O14  1  0.48901228  0.28978760  0.78629820  1
  O  O15  1  0.51098772  0.71021240  0.78629820  1
  O  O16  1  0.21454738  0.51013006  0.29200819  1
  O  O17  1  0.21454738  0.48986994  0.70799181  1
  O  O18  1  0.78545262  0.48986994  0.29200819  1
  O  O19  1  0.78545262  0.51013006  0.70799181  1
  O  O20  1  0.29062086  0.21846102  0.51123034  1
  O  O21  1  0.70937914  0.21846102  0.48876966  1
  O  O22  1  0.29062086  0.78153898  0.48876966  1
  O  O23  1  0.70937914  0.78153898  0.51123034  1
loop_
_geom_bond_atom_site_label_1
_geom_bond_atom_site_label_2
_geom_bond_distance
_geom_bond_site_symmetry_2
Ba0 O5 3.027201 1_554
Ba0 O7 3.027201 1_444
Ba0 O6 3.027201 1_455
Ba0 O4 3.027201 1_545
Ba0 O3 3.053375 1_444
Ba0 O1 3.053375 1_545
Ba0 O0 3.053375 1_455
Ba0 O2 3.053375 1_554
Ba0 O10 3.054511 1_545
Ba0 O8 3.054511 1_554
Ba0 O9 3.054511 1_455
Ba0 O11 3.054511 1_444
Ba1 O22 3.006595 1_555
Ba1 O20 3.006595 1_555
Ba1 O23 3.006595 1_555
Ba1 O21 3.006595 1_555
Ba1 O17 3.024095 1_555
Ba1 O18 3.024095 1_555
Ba1 O19 3.024095 1_555
Ba1 O16 3.024095 1_555
Ba1 O13 3.041672 1_555
Ba1 O14 3.041672 1_555
Ba1 O15 3.041672 1_555
Ba1 O12 3.041672 1_555
Ba2 O5 2.728586 1_554
Ba2 O7 2.728586 1_544
Ba2 O4 2.728586 1_545
Ba2 O6 2.728586 1_555
Ba2 O12 3.084676 1_555
Ba2 O14 3.084676 1_554
Ba2 O13 3.084676 1_545
Ba2 O15 3.084676 1_544
Ba3 O1 2.714448 1_545
Ba3 O0 2.714448 1_455
Ba3 O2 2.714448 1_555
Ba3 O3 2.714448 1_445
Ba3 O20 3.114718 1_555
Ba3 O23 3.114718 1_445
Ba3 O22 3.114718 1_545
Ba3 O21 3.114718 1_455
Ba3 O7 3.325981 1_445
Ba3 O6 3.325981 1_455
Ba3 O5 3.325981 1_555
Ba3 O4 3.325981 1_545
Hf0 O19 2.076201 1_555
Hf0 O15 2.079100 1_555
Hf0 O11 2.085307 1_555
Hf0 O3 2.089205 1_555
Hf0 O23 2.090355 1_555
Hf0 O7 2.099867 1_555
Hf1 O17 2.076201 1_555
Hf1 O14 2.079100 1_555
Hf1 O8 2.085307 1_555
Hf1 O2 2.089205 1_555
Hf1 O20 2.090355 1_555
Hf1 O5 2.099867 1_555
Hf2 O16 2.076201 1_555
Hf2 O13 2.079100 1_555
Hf2 O10 2.085307 1_555
Hf2 O1 2.089205 1_555
Hf2 O22 2.090355 1_555
Hf2 O4 2.099867 1_555
Hf3 O18 2.076201 1_555
Hf3 O12 2.079100 1_555
Hf3 O9 2.085307 1_555
Hf3 O0 2.089205 1_555
Hf3 O21 2.090355 1_555
Hf3 O6 2.099867 1_555
O0 Tb0 2.273780 1_655
O0 Sr0 3.035653 1_655
O1 Tb1 2.273780 1_455
O1 Sr0 3.035653 1_555
O2 Tb2 2.273780 1_455
O2 Sr0 3.035653 1_555
O3 Tb3 2.273780 1_655
O3 Sr0 3.035653 1_655
O4 Tb0 2.284386 1_565
O4 Sr1 3.056694 1_565
O5 Tb3 2.284386 1_545
O5 Sr1 3.056694 1_555
O6 Tb1 2.284386 1_545
O6 Sr1 3.056694 1_555
O7 Tb2 2.284386 1_565
O7 Sr1 3.056694 1_565
O8 Tb0 2.274426 1_556
O8 Sr3 2.619071 1_556
O8 Sr2 3.059265 1_556
O9 Tb2 2.274426 1_554
O9 Sr3 2.619071 1_655
O9 Sr2 3.059265 1_555
O10 Tb3 2.274426 1_554
O10 Sr3 2.619071 1_555
O10 Sr2 3.059265 1_555
O11 Tb1 2.274426 1_556
O11 Sr3 2.619071 1_656
O11 Sr2 3.059265 1_556
O12 Tb0 2.260666 1_555
O12 Sr2 2.568058 1_555
O13 Tb1 2.260666 1_555
O13 Sr2 2.568058 1_555
O14 Tb2 2.260666 1_555
O14 Sr2 2.568058 1_556
O15 Tb3 2.260666 1_555
O15 Sr2 2.568058 1_556
O16 Tb0 2.252876 1_555
O16 Sr0 2.558741 1_555
O16 Sr3 3.101926 1_555
O17 Tb3 2.252876 1_555
O17 Sr0 2.558741 1_555
O17 Sr3 3.101926 1_556
O18 Tb1 2.252876 1_555
O18 Sr0 2.558741 1_655
O18 Sr3 3.101926 1_655
O19 Tb2 2.252876 1_555
O19 Sr0 2.558741 1_655
O19 Sr3 3.101926 1_656
O20 Tb0 2.273215 1_555
O20 Sr1 2.593210 1_555
O21 Tb2 2.273215 1_555
O21 Sr1 2.593210 1_555
O22 Tb3 2.273215 1_555
O22 Sr1 2.593210 1_565
O23 Tb1 2.273215 1_555
O23 Sr1 2.593210 1_565
