# generated using pymatgen
data_U3In
_symmetry_space_group_name_H-M   'P 1'
_cell_length_a   4.46626300
_cell_length_b   4.46626300
_cell_length_c   4.46626300
_cell_angle_alpha   90.00000000
_cell_angle_beta   90.00000000
_cell_angle_gamma   90.00000000
_symmetry_Int_Tables_number   1
_chemical_formula_structural   U3In
_chemical_formula_sum   'U3 In1'
_cell_volume   89.09080435
_cell_formula_units_Z   1
loop_
 _symmetry_equiv_pos_site_id
 _symmetry_equiv_pos_as_xyz
  1  'x, y, z'
loop_
 _atom_site_type_symbol
 _atom_site_label
 _atom_site_symmetry_multiplicity
 _atom_site_fract_x
 _atom_site_fract_y
 _atom_site_fract_z
 _atom_site_occupancy
  U  U0  1  0.00000000  0.50000000  0.50000000  1
  U  U1  1  0.50000000  0.00000000  0.50000000  1
  U  U2  1  0.50000000  0.50000000  0.00000000  1
  In  In0  1  0.00000000  0.00000000  0.00000000  1
loop_
_geom_bond_atom_site_label_1
_geom_bond_atom_site_label_2
_geom_bond_distance
_geom_bond_site_symmetry_2
U0 U2 3.158125 1_455
U0 U1 3.158125 1_555
U0 U2 3.158125 1_456
U0 U1 3.158125 1_565
U0 U2 3.158125 1_556
U0 U2 3.158125 1_555
U0 U1 3.158125 1_465
U0 U1 3.158125 1_455
U1 U2 3.158125 1_545
U1 U2 3.158125 1_556
U1 U2 3.158125 1_555
U1 U2 3.158125 1_546
In0 U0 3.158125 1_555
In0 U2 3.158125 1_455
In0 U1 3.158125 1_555
In0 U2 3.158125 1_545
In0 U0 3.158125 1_554
In0 U1 3.158125 1_554
In0 U2 3.158125 1_555
In0 U1 3.158125 1_454
In0 U2 3.158125 1_445
In0 U1 3.158125 1_455
In0 U0 3.158125 1_545
In0 U0 3.158125 1_544
