# generated using pymatgen
data_MgO
_symmetry_space_group_name_H-M   'P 1'
_cell_length_a   2.96053752
_cell_length_b   2.96053752
_cell_length_c   29.41562071
_cell_angle_alpha   90.00000000
_cell_angle_beta   90.00000000
_cell_angle_gamma   119.99985067
_symmetry_Int_Tables_number   1
_chemical_formula_structural   MgO
_chemical_formula_sum   'Mg12 O12'
_cell_volume   223.28031716
_cell_formula_units_Z   12
loop_
 _symmetry_equiv_pos_site_id
 _symmetry_equiv_pos_as_xyz
  1  'x, y, z'
loop_
 _atom_site_type_symbol
 _atom_site_label
 _atom_site_symmetry_multiplicity
 _atom_site_fract_x
 _atom_site_fract_y
 _atom_site_fract_z
 _atom_site_occupancy
  Mg  Mg0  1  0.66666778  0.33333222  0.16500111  1
  Mg  Mg1  1  0.33333222  0.66666778  0.83499889  1
  Mg  Mg2  1  0.33333222  0.66666778  0.66500111  1
  Mg  Mg3  1  0.66666778  0.33333222  0.33499889  1
  Mg  Mg4  1  0.66666844  0.33333156  0.58256071  1
  Mg  Mg5  1  0.33333156  0.66666844  0.41743929  1
  Mg  Mg6  1  0.33333156  0.66666844  0.08256071  1
  Mg  Mg7  1  0.66666844  0.33333156  0.91743929  1
  Mg  Mg8  1  0.00001432  0.99998568  0.75000000  1
  Mg  Mg9  1  0.99998568  0.00001432  0.25000000  1
  Mg  Mg10  1  -0.00000000  0.00000000  0.00000000  1
  Mg  Mg11  1  -0.00000000  0.00000000  0.50000000  1
  O  O0  1  0.66666868  0.33333132  0.04125484  1
  O  O1  1  0.33333132  0.66666868  0.95874516  1
  O  O2  1  0.33333132  0.66666868  0.54125484  1
  O  O3  1  0.66666868  0.33333132  0.45874516  1
  O  O4  1  0.66667228  0.33332772  0.79392053  1
  O  O5  1  0.33332772  0.66667228  0.20607947  1
  O  O6  1  0.33332772  0.66667228  0.29392053  1
  O  O7  1  0.66667228  0.33332772  0.70607947  1
  O  O8  1  0.00000074  -0.00000074  0.87623952  1
  O  O9  1  -0.00000074  0.00000074  0.12376048  1
  O  O10  1  -0.00000074  0.00000074  0.37623952  1
  O  O11  1  0.00000074  -0.00000074  0.62376048  1
loop_
_geom_bond_atom_site_label_1
_geom_bond_atom_site_label_2
_geom_bond_distance
_geom_bond_site_symmetry_2
Mg0 O5 2.093237 1_655
Mg0 O5 2.093237 1_545
Mg0 O5 2.093276 1_555
Mg0 O9 2.096000 1_655
Mg0 O9 2.096014 1_665
Mg0 O9 2.096014 1_555
Mg1 O4 2.093237 1_565
Mg1 O4 2.093237 1_455
Mg1 O4 2.093276 1_555
Mg1 O8 2.096000 1_565
Mg1 O8 2.096014 1_555
Mg1 O8 2.096014 1_665
Mg2 O7 2.093237 1_565
Mg2 O7 2.093237 1_455
Mg2 O7 2.093276 1_555
Mg2 O11 2.096000 1_565
Mg2 O11 2.096014 1_665
Mg2 O11 2.096014 1_555
Mg3 O6 2.093237 1_545
Mg3 O6 2.093237 1_655
Mg3 O6 2.093276 1_555
Mg3 O10 2.096000 1_655
Mg3 O10 2.096014 1_665
Mg3 O10 2.096014 1_555
Mg4 O11 2.095308 1_655
Mg4 O11 2.095317 1_665
Mg4 O11 2.095317 1_555
Mg4 O2 2.097114 1_655
Mg4 O2 2.097114 1_545
Mg4 O2 2.097134 1_555
Mg5 O10 2.095308 1_565
Mg5 O10 2.095317 1_555
Mg5 O10 2.095317 1_665
Mg5 O3 2.097114 1_565
Mg5 O3 2.097114 1_455
Mg5 O3 2.097134 1_555
Mg6 O9 2.095308 1_565
Mg6 O9 2.095317 1_665
Mg6 O9 2.095317 1_555
Mg6 O0 2.097114 1_455
Mg6 O0 2.097114 1_565
Mg6 O0 2.097134 1_555
Mg7 O8 2.095308 1_655
Mg7 O8 2.095317 1_665
Mg7 O8 2.095317 1_555
Mg7 O1 2.097114 1_545
Mg7 O1 2.097114 1_655
Mg7 O1 2.097134 1_555
Mg8 O7 2.142583 1_455
Mg8 O7 2.142583 1_565
Mg8 O4 2.142583 1_455
Mg8 O4 2.142583 1_565
Mg8 O7 2.142633 1_465
Mg8 O4 2.142633 1_465
Mg9 O5 2.142583 1_545
Mg9 O5 2.142583 1_655
Mg9 O6 2.142583 1_545
Mg9 O6 2.142583 1_655
Mg9 O5 2.142633 1_645
Mg9 O6 2.142633 1_645
Mg10 O0 2.096241 1_455
Mg10 O1 2.096241 1_544
Mg10 O0 2.096257 1_445
Mg10 O1 2.096257 1_444
Mg10 O1 2.096257 1_554
Mg10 O0 2.096257 1_555
Mg11 O3 2.096241 1_455
Mg11 O2 2.096241 1_545
Mg11 O2 2.096257 1_555
Mg11 O2 2.096257 1_445
Mg11 O3 2.096257 1_555
Mg11 O3 2.096257 1_445
