# generated using pymatgen
data_Mg4Te3W5O18
_symmetry_space_group_name_H-M   'P 1'
_cell_length_a   9.50104651
_cell_length_b   9.50104651
_cell_length_c   10.29223992
_cell_angle_alpha   88.71735152
_cell_angle_beta   88.71735152
_cell_angle_gamma   68.10235094
_symmetry_Int_Tables_number   1
_chemical_formula_structural   Mg4Te3W5O18
_chemical_formula_sum   'Mg8 Te6 W10 O36'
_cell_volume   861.73301784
_cell_formula_units_Z   2
loop_
 _symmetry_equiv_pos_site_id
 _symmetry_equiv_pos_as_xyz
  1  'x, y, z'
loop_
 _atom_site_type_symbol
 _atom_site_label
 _atom_site_symmetry_multiplicity
 _atom_site_fract_x
 _atom_site_fract_y
 _atom_site_fract_z
 _atom_site_occupancy
  Mg  Mg0  1  0.12039700  0.46207000  0.67871200  1
  Mg  Mg1  1  0.47384800  0.49667400  0.77027200  1
  Mg  Mg2  1  0.53793000  0.87960300  0.32128800  1
  Mg  Mg3  1  0.50332600  0.52615200  0.22972800  1
  Mg  Mg4  1  0.88646200  0.08345400  0.28037400  1
  Mg  Mg5  1  0.85445000  0.72924100  0.18181800  1
  Mg  Mg6  1  0.27075900  0.14555000  0.81818200  1
  Mg  Mg7  1  0.91654600  0.11353800  0.71962600  1
  Te  Te0  1  0.66711700  0.17555800  0.06599300  1
  Te  Te1  1  0.19674900  0.80168600  0.74713300  1
  Te  Te2  1  0.19831400  0.80325100  0.25286700  1
  Te  Te3  1  0.55622300  0.28077600  0.55655900  1
  Te  Te4  1  0.71922400  0.44377700  0.44344100  1
  Te  Te5  1  0.82444200  0.33288300  0.93400700  1
  W  W0  1  0.20455100  0.47847000  0.01365800  1
  W  W1  1  0.87029600  0.81030500  0.51721700  1
  W  W2  1  0.68660000  0.65020700  0.70493600  1
  W  W3  1  0.04265900  0.29063100  0.20189500  1
  W  W4  1  0.34979300  0.31340000  0.29506400  1
  W  W5  1  0.07120600  0.92879400  0.00000000  1
  W  W6  1  0.31528600  0.68471400  0.50000000  1
  W  W7  1  0.70936900  0.95734100  0.79810500  1
  W  W8  1  0.18969500  0.12970400  0.48278300  1
  W  W9  1  0.52153000  0.79544900  0.98634200  1
  O  O0  1  0.62521800  0.85317900  0.12639100  1
  O  O1  1  0.28959800  0.51516600  0.17779100  1
  O  O2  1  0.37798300  0.46399200  0.42237200  1
  O  O3  1  0.28776300  0.92562100  0.51764600  1
  O  O4  1  0.48483400  0.71040200  0.82220900  1
  O  O5  1  0.07437900  0.71223700  0.48235400  1
  O  O6  1  0.68672600  0.15728300  0.71727700  1
  O  O7  1  0.96594800  0.87945600  0.18027200  1
  O  O8  1  0.43013100  0.72804100  0.32928100  1
  O  O9  1  0.90105200  0.60768800  0.63515900  1
  O  O10  1  0.38385900  0.44619900  0.92997800  1
  O  O11  1  0.49638300  0.00367200  0.86079700  1
  O  O12  1  0.10328600  0.08821800  0.31847700  1
  O  O13  1  0.25501300  0.27407600  0.12404900  1
  O  O14  1  0.55380100  0.61614100  0.07002200  1
  O  O15  1  0.69909600  0.43966500  0.77959200  1
  O  O16  1  0.00674300  0.16544100  0.56352300  1
  O  O17  1  0.72592400  0.74498700  0.87595100  1
  O  O18  1  0.53600800  0.62201700  0.57762800  1
  O  O19  1  0.83455900  0.99325700  0.43647700  1
  O  O20  1  0.24560700  0.23374800  0.62312400  1
  O  O21  1  0.12915500  0.33276800  0.37136800  1
  O  O22  1  0.12054400  0.03405200  0.81972800  1
  O  O23  1  0.56033500  0.30090400  0.22040800  1
  O  O24  1  0.02686400  0.15165800  0.07804300  1
  O  O25  1  0.31790800  0.89802700  0.01864200  1
  O  O26  1  0.99632800  0.50361700  0.13920300  1
  O  O27  1  0.84271700  0.31327400  0.28272300  1
  O  O28  1  0.91178200  0.89671400  0.68152300  1
  O  O29  1  0.66723200  0.87084500  0.62863200  1
  O  O30  1  0.76625200  0.75439300  0.37687600  1
  O  O31  1  0.10197300  0.68209200  0.98135800  1
  O  O32  1  0.27195900  0.56986900  0.67071900  1
  O  O33  1  0.39231200  0.09894800  0.36484100  1
  O  O34  1  0.84834200  0.97313600  0.92195700  1
  O  O35  1  0.14682100  0.37478200  0.87360900  1
loop_
_geom_bond_atom_site_label_1
_geom_bond_atom_site_label_2
_geom_bond_distance
_geom_bond_site_symmetry_2
Mg0 O32 2.054353 1_555
Mg0 O9 2.078842 1_455
Mg0 O20 2.132739 1_555
Mg0 O35 2.137129 1_555
Mg1 O10 1.967352 1_555
Mg1 O15 2.006194 1_555
Mg1 O32 2.067342 1_555
Mg1 O4 2.151587 1_555
Mg1 O18 2.462668 1_555
Mg2 O8 2.054353 1_555
Mg2 O33 2.078842 1_565
Mg2 O30 2.132739 1_555
Mg2 O0 2.137129 1_555
Mg3 O14 1.967352 1_555
Mg3 O23 2.006194 1_555
Mg3 O8 2.067342 1_555
Mg3 O1 2.151587 1_555
Mg3 O2 2.462668 1_555
Mg4 O19 1.943450 1_545
Mg4 O27 2.065460 1_555
Mg4 O7 2.085944 1_545
Mg4 O12 2.122777 1_655
Mg4 O24 2.644982 1_655
Mg5 O7 2.070102 1_555
Mg5 O26 2.113052 1_555
Mg5 O0 2.137306 1_555
Mg5 O30 2.141610 1_555
Mg6 O22 2.070102 1_555
Mg6 O11 2.113052 1_555
Mg6 O35 2.137306 1_555
Mg6 O20 2.141610 1_555
Mg7 O16 1.943450 1_655
Mg7 O6 2.065460 1_555
Mg7 O22 2.085944 1_655
Mg7 O28 2.122777 1_545
Mg7 O34 2.644982 1_545
O0 W9 1.962410 1_554
O1 W0 1.981367 1_555
O1 W4 2.137365 1_555
O1 Te2 2.671149 1_555
O2 W4 2.054555 1_555
O2 W6 2.124358 1_555
O2 Te3 2.367205 1_555
O3 W8 1.841973 1_565
O3 W6 2.215925 1_555
O4 W9 1.981367 1_555
O4 W2 2.137365 1_555
O4 Te1 2.671149 1_555
O5 W1 1.841973 1_455
O5 W6 2.215925 1_555
O6 W7 1.994862 1_545
O6 Te3 2.137768 1_555
O7 Te2 2.194048 1_655
O7 W5 2.211344 1_655
O8 W6 2.159680 1_555
O8 Te2 2.204230 1_555
O9 W2 2.040578 1_555
O9 W1 2.180938 1_555
O10 W0 1.815100 1_556
O11 W7 1.998714 1_545
O11 W9 2.277573 1_545
O12 W8 2.005610 1_555
O12 W3 2.138069 1_555
O12 Te2 2.613971 1_545
O13 W4 2.097597 1_555
O13 W3 2.105681 1_555
O13 W0 2.126753 1_555
O14 W9 1.815100 1_554
O15 Te5 2.021065 1_555
O15 W2 2.089043 1_555
O16 W8 1.826209 1_555
O17 W2 2.097597 1_555
O17 W7 2.105681 1_555
O17 W9 2.126753 1_555
O18 W2 2.054555 1_555
O18 W6 2.124358 1_555
O18 Te4 2.367205 1_555
O19 W1 1.826209 1_555
O20 W8 1.958497 1_555
O21 W3 2.053998 1_555
O21 W8 2.114427 1_555
O21 W4 2.165662 1_555
O22 Te1 2.194048 1_545
O22 W5 2.211344 1_546
O23 Te0 2.021065 1_555
O23 W4 2.089043 1_555
O24 W3 1.903302 1_555
O24 W5 2.168372 1_545
O24 Te5 2.530709 1_454
O25 W9 1.839145 1_554
O25 W5 2.263363 1_555
O26 W3 1.998714 1_655
O26 W0 2.277573 1_655
O27 W3 1.994862 1_655
O27 Te4 2.137768 1_555
O28 W1 2.005610 1_555
O28 W7 2.138069 1_555
O28 Te1 2.613971 1_655
O29 W7 2.053998 1_555
O29 W1 2.114427 1_555
O29 W2 2.165662 1_555
O30 W1 1.958497 1_555
O31 W0 1.839145 1_556
O31 W5 2.263363 1_556
O32 W6 2.159680 1_555
O32 Te1 2.204230 1_555
O33 W4 2.040578 1_555
O33 W8 2.180938 1_555
O34 W7 1.903302 1_555
O34 W5 2.168372 1_656
O34 Te0 2.530709 1_566
O35 W0 1.962410 1_556
