# generated using pymatgen
data_Sr14Hg51
_symmetry_space_group_name_H-M   'P 1'
_cell_length_a   14.17250084
_cell_length_b   14.17250084
_cell_length_c   10.37258000
_cell_angle_alpha   90.00000000
_cell_angle_beta   90.00000000
_cell_angle_gamma   120.00000390
_symmetry_Int_Tables_number   1
_chemical_formula_structural   Sr14Hg51
_chemical_formula_sum   'Sr14 Hg51'
_cell_volume   1804.30681810
_cell_formula_units_Z   1
loop_
 _symmetry_equiv_pos_site_id
 _symmetry_equiv_pos_as_xyz
  1  'x, y, z'
loop_
 _atom_site_type_symbol
 _atom_site_label
 _atom_site_symmetry_multiplicity
 _atom_site_fract_x
 _atom_site_fract_y
 _atom_site_fract_z
 _atom_site_occupancy
  Sr  Sr0  1  0.79840100  0.99228400  0.50000000  1
  Sr  Sr1  1  0.19388300  0.20159900  0.50000000  1
  Sr  Sr2  1  0.00771600  0.80611700  0.50000000  1
  Sr  Sr3  1  0.86564400  0.34026600  0.50000000  1
  Sr  Sr4  1  0.47462200  0.13435600  0.50000000  1
  Sr  Sr5  1  0.65973400  0.52537800  0.50000000  1
  Sr  Sr6  1  0.44835000  0.39293400  0.00000000  1
  Sr  Sr7  1  0.94458400  0.55165000  0.00000000  1
  Sr  Sr8  1  0.60706600  0.05541600  0.00000000  1
  Sr  Sr9  1  0.21674600  0.94796000  0.00000000  1
  Sr  Sr10  1  0.73121400  0.78325400  0.00000000  1
  Sr  Sr11  1  0.05204000  0.26878600  0.00000000  1
  Sr  Sr12  1  0.33333300  0.66666700  0.69164300  1
  Sr  Sr13  1  0.33333300  0.66666700  0.30835700  1
  Hg  Hg0  1  0.82588900  0.04571400  0.85273500  1
  Hg  Hg1  1  0.21982500  0.17411100  0.85273500  1
  Hg  Hg2  1  0.95428600  0.78017500  0.85273500  1
  Hg  Hg3  1  0.83882500  0.28637900  0.85334800  1
  Hg  Hg4  1  0.44755500  0.16117500  0.85334800  1
  Hg  Hg5  1  0.71362100  0.55244500  0.85334800  1
  Hg  Hg6  1  0.83882500  0.28637900  0.14665200  1
  Hg  Hg7  1  0.44755500  0.16117500  0.14665200  1
  Hg  Hg8  1  0.71362100  0.55244500  0.14665200  1
  Hg  Hg9  1  0.82588900  0.04571400  0.14726500  1
  Hg  Hg10  1  0.21982500  0.17411100  0.14726500  1
  Hg  Hg11  1  0.95428600  0.78017500  0.14726500  1
  Hg  Hg12  1  0.38957700  0.48761900  0.50000000  1
  Hg  Hg13  1  0.09804200  0.61042300  0.50000000  1
  Hg  Hg14  1  0.51238100  0.90195800  0.50000000  1
  Hg  Hg15  1  0.27685900  0.84333900  0.50000000  1
  Hg  Hg16  1  0.56648000  0.72314100  0.50000000  1
  Hg  Hg17  1  0.15666100  0.43352000  0.50000000  1
  Hg  Hg18  1  0.00000000  0.00000000  0.00000000  1
  Hg  Hg19  1  0.66666700  0.33333300  0.00000000  1
  Hg  Hg20  1  0.43860800  0.32804000  0.66412400  1
  Hg  Hg21  1  0.88943100  0.56139200  0.66412400  1
  Hg  Hg22  1  0.67196000  0.11056900  0.66412400  1
  Hg  Hg23  1  0.22641700  0.00262000  0.66380800  1
  Hg  Hg24  1  0.77620400  0.77358300  0.66380800  1
  Hg  Hg25  1  0.99738000  0.22379600  0.66380800  1
  Hg  Hg26  1  0.22641700  0.00262000  0.33619200  1
  Hg  Hg27  1  0.77620400  0.77358300  0.33619200  1
  Hg  Hg28  1  0.99738000  0.22379600  0.33619200  1
  Hg  Hg29  1  0.43860800  0.32804000  0.33587600  1
  Hg  Hg30  1  0.88943100  0.56139200  0.33587600  1
  Hg  Hg31  1  0.67196000  0.11056900  0.33587600  1
  Hg  Hg32  1  0.52732000  0.58965800  0.77118900  1
  Hg  Hg33  1  0.06233800  0.47268000  0.77118900  1
  Hg  Hg34  1  0.41034200  0.93766200  0.77118900  1
  Hg  Hg35  1  0.14150400  0.74119000  0.77609600  1
  Hg  Hg36  1  0.59968600  0.85849600  0.77609600  1
  Hg  Hg37  1  0.25881000  0.40031400  0.77609600  1
  Hg  Hg38  1  0.14150400  0.74119000  0.22390400  1
  Hg  Hg39  1  0.59968600  0.85849600  0.22390400  1
  Hg  Hg40  1  0.25881000  0.40031400  0.22390400  1
  Hg  Hg41  1  0.52732000  0.58965800  0.22881100  1
  Hg  Hg42  1  0.06233800  0.47268000  0.22881100  1
  Hg  Hg43  1  0.41034200  0.93766200  0.22881100  1
  Hg  Hg44  1  0.00000000  0.00000000  0.68802100  1
  Hg  Hg45  1  0.66666700  0.33333300  0.69232600  1
  Hg  Hg46  1  0.66666700  0.33333300  0.30767400  1
  Hg  Hg47  1  0.00000000  0.00000000  0.31197900  1
  Hg  Hg48  1  0.46189200  0.68350900  0.00000000  1
  Hg  Hg49  1  0.22161800  0.53810800  0.00000000  1
  Hg  Hg50  1  0.31649100  0.77838200  0.00000000  1
loop_
_geom_bond_atom_site_label_1
_geom_bond_atom_site_label_2
_geom_bond_distance
_geom_bond_site_symmetry_2
Hg0 Hg9 3.055036 1_556
Hg0 Hg36 3.073024 1_545
Hg0 Hg25 3.159611 1_555
Hg0 Hg18 3.231216 1_656
Hg0 Hg44 3.320610 1_655
Hg0 Hg3 3.322959 1_555
Hg0 Hg22 3.381816 1_555
Hg0 Sr8 3.520869 1_556
Hg0 Sr11 3.531031 1_656
Hg0 Sr10 3.602627 1_546
Hg0 Sr0 3.717094 1_545
Hg1 Hg10 3.055036 1_556
Hg1 Hg37 3.073024 1_555
Hg1 Hg23 3.159617 1_555
Hg1 Hg18 3.231216 1_556
Hg1 Hg44 3.320610 1_555
Hg1 Hg4 3.322973 1_555
Hg1 Hg20 3.381807 1_555
Hg1 Sr6 3.520869 1_556
Hg1 Sr9 3.531031 1_546
Hg1 Sr11 3.602627 1_556
Hg1 Sr1 3.717094 1_555
Hg2 Hg35 3.073024 1_655
Hg2 Hg24 3.159606 1_555
Hg2 Hg44 3.320610 1_665
Hg2 Hg5 3.322965 1_555
Hg2 Hg21 3.381805 1_555
Hg2 Sr7 3.520869 1_556
Hg2 Sr10 3.531031 1_556
Hg2 Sr9 3.602627 1_656
Hg2 Sr2 3.717094 1_655
Hg3 Hg6 3.042319 1_556
Hg3 Hg33 3.060772 1_655
Hg3 Hg45 3.287743 1_555
Hg3 Sr11 3.501536 1_656
Hg3 Sr7 3.613820 1_556
Hg3 Sr8 3.614640 1_556
Hg3 Sr3 3.724329 1_555
Hg4 Hg7 3.042319 1_556
Hg4 Hg45 3.287743 1_555
Hg4 Sr9 3.501543 1_546
Hg4 Sr8 3.613809 1_556
Hg4 Sr6 3.614647 1_556
Hg4 Sr4 3.724327 1_555
Hg5 Hg8 3.042319 1_556
Hg5 Sr10 3.501548 1_556
Hg5 Sr6 3.613819 1_556
Hg5 Sr7 3.614634 1_556
Hg5 Sr5 3.724329 1_555
Hg6 Hg9 3.322959 1_555
Hg6 Sr11 3.501536 1_655
Hg6 Sr7 3.613820 1_555
Hg6 Sr8 3.614640 1_555
Hg6 Sr3 3.724329 1_555
Hg7 Sr9 3.501543 1_545
Hg7 Sr8 3.613809 1_555
Hg7 Sr6 3.614647 1_555
Hg7 Sr4 3.724327 1_555
Hg8 Sr10 3.501548 1_555
Hg8 Sr6 3.613819 1_555
Hg8 Sr7 3.614634 1_555
Hg8 Sr5 3.724329 1_555
Hg9 Sr8 3.520869 1_555
Hg9 Sr11 3.531031 1_655
Hg9 Sr10 3.602627 1_545
Hg9 Sr0 3.717094 1_545
Hg10 Hg40 3.073024 1_555
Hg10 Hg26 3.159617 1_555
Hg10 Hg18 3.231216 1_555
Hg10 Hg47 3.320610 1_555
Hg10 Hg7 3.322973 1_555
Hg10 Hg29 3.381807 1_555
Hg10 Sr6 3.520869 1_555
Hg10 Sr9 3.531031 1_545
Hg10 Sr11 3.602627 1_555
Hg10 Sr1 3.717094 1_555
Hg11 Hg2 3.055036 1_554
Hg11 Hg38 3.073024 1_655
Hg11 Hg27 3.159606 1_555
Hg11 Hg18 3.231216 1_665
Hg11 Hg47 3.320610 1_665
Hg11 Hg8 3.322965 1_555
Hg11 Hg30 3.381805 1_555
Hg11 Sr7 3.520869 1_555
Hg11 Sr10 3.531031 1_555
Hg11 Sr9 3.602627 1_655
Hg11 Sr2 3.717094 1_655
Hg12 Hg17 2.992246 1_555
Hg12 Hg16 3.009804 1_555
Hg12 Hg20 3.172945 1_555
Hg12 Hg29 3.172945 1_555
Hg12 Hg37 3.297584 1_555
Hg12 Hg40 3.297584 1_555
Hg12 Hg41 3.315379 1_555
Hg12 Hg32 3.315379 1_555
Hg12 Sr1 3.589063 1_555
Hg12 Sr5 3.591259 1_555
Hg12 Sr13 3.612313 1_555
Hg12 Sr12 3.612313 1_555
Hg13 Hg15 2.992245 1_555
Hg13 Hg17 3.009805 1_555
Hg13 Hg21 3.172957 1_455
Hg13 Hg30 3.172957 1_455
Hg13 Hg38 3.297584 1_555
Hg13 Hg35 3.297584 1_555
Hg13 Hg42 3.315379 1_555
Hg13 Hg33 3.315379 1_555
Hg13 Sr2 3.589063 1_555
Hg13 Sr3 3.591259 1_455
Hg13 Sr13 3.612302 1_555
Hg13 Sr12 3.612302 1_555
Hg14 Hg16 2.992246 1_555
Hg14 Hg15 3.009805 1_555
Hg14 Hg22 3.172953 1_565
Hg14 Hg31 3.172953 1_565
Hg14 Hg39 3.297584 1_555
Hg14 Hg36 3.297584 1_555
Hg14 Hg43 3.315379 1_555
Hg14 Hg34 3.315379 1_555
Hg14 Sr0 3.589063 1_555
Hg14 Sr4 3.591259 1_565
Hg14 Sr12 3.612305 1_555
Hg14 Sr13 3.612305 1_555
Hg15 Hg26 3.179268 1_565
Hg15 Hg23 3.179268 1_565
Hg15 Hg34 3.278646 1_555
Hg15 Hg43 3.278646 1_555
Hg15 Hg38 3.346662 1_555
Hg15 Hg35 3.346662 1_555
Hg15 Sr2 3.579935 1_555
Hg15 Sr12 3.586861 1_555
Hg15 Sr13 3.586861 1_555
Hg15 Sr4 3.647835 1_565
Hg16 Hg24 3.179280 1_555
Hg16 Hg27 3.179280 1_555
Hg16 Hg32 3.278646 1_555
Hg16 Hg41 3.278646 1_555
Hg16 Hg39 3.346662 1_555
Hg16 Hg36 3.346662 1_555
Hg16 Sr0 3.579935 1_555
Hg16 Sr12 3.586872 1_555
Hg16 Sr13 3.586872 1_555
Hg16 Sr5 3.647835 1_555
Hg17 Hg25 3.179276 1_455
Hg17 Hg28 3.179276 1_455
Hg17 Hg33 3.278646 1_555
Hg17 Hg42 3.278646 1_555
Hg17 Hg40 3.346662 1_555
Hg17 Hg37 3.346662 1_555
Hg17 Sr1 3.579935 1_555
Hg17 Sr13 3.586869 1_555
Hg17 Sr12 3.586869 1_555
Hg17 Sr3 3.647835 1_455
Hg18 Hg2 3.231216 1_444
Hg18 Hg9 3.231216 1_455
Hg18 Hg44 3.236027 1_554
Hg18 Hg47 3.236027 1_555
Hg18 Sr10 3.499387 1_445
Hg18 Sr11 3.499387 1_555
Hg18 Sr9 3.499387 1_545
Hg19 Hg46 3.191373 1_555
Hg19 Hg45 3.191373 1_554
Hg19 Hg7 3.214586 1_555
Hg19 Hg4 3.214586 1_554
Hg19 Hg8 3.214587 1_555
Hg19 Hg5 3.214587 1_554
Hg19 Hg6 3.214587 1_555
Hg19 Hg3 3.214587 1_554
Hg19 Sr8 3.591716 1_555
Hg19 Sr7 3.591720 1_555
Hg19 Sr6 3.591730 1_555
Hg20 Hg4 3.124264 1_555
Hg20 Hg45 3.208682 1_555
Hg20 Sr5 3.431708 1_555
Hg20 Sr1 3.453062 1_555
Hg20 Sr4 3.477738 1_555
Hg20 Sr6 3.588246 1_556
Hg21 Hg5 3.124242 1_555
Hg21 Hg45 3.208668 1_555
Hg21 Sr3 3.431713 1_555
Hg21 Sr2 3.453062 1_655
Hg21 Sr5 3.477726 1_555
Hg21 Sr7 3.588250 1_556
Hg22 Hg3 3.124252 1_555
Hg22 Hg45 3.208653 1_555
Hg22 Sr4 3.431701 1_555
Hg22 Sr0 3.453073 1_545
Hg22 Sr3 3.477730 1_555
Hg22 Sr8 3.588247 1_556
Hg23 Sr2 3.408516 1_545
Hg23 Sr4 3.489881 1_555
Hg23 Sr1 3.514603 1_555
Hg23 Sr9 3.559934 1_546
Hg24 Sr0 3.408522 1_555
Hg24 Sr5 3.489880 1_555
Hg24 Sr2 3.514591 1_655
Hg24 Sr10 3.559937 1_556
Hg25 Sr1 3.408509 1_655
Hg25 Sr3 3.489891 1_555
Hg25 Sr0 3.514595 1_545
Hg25 Sr11 3.559935 1_656
Hg26 Sr2 3.408516 1_545
Hg26 Sr4 3.489881 1_555
Hg26 Sr1 3.514603 1_555
Hg26 Sr9 3.559934 1_545
Hg27 Sr0 3.408522 1_555
Hg27 Sr5 3.489880 1_555
Hg27 Sr2 3.514591 1_655
Hg27 Sr10 3.559937 1_555
Hg28 Hg9 3.159611 1_555
Hg28 Sr1 3.408509 1_655
Hg28 Sr3 3.489891 1_555
Hg28 Sr0 3.514595 1_545
Hg28 Sr11 3.559935 1_655
Hg29 Hg7 3.124264 1_555
Hg29 Hg46 3.208682 1_555
Hg29 Sr5 3.431708 1_555
Hg29 Sr1 3.453062 1_555
Hg29 Sr4 3.477738 1_555
Hg29 Sr6 3.588246 1_555
Hg30 Hg8 3.124242 1_555
Hg30 Hg46 3.208668 1_555
Hg30 Sr3 3.431713 1_555
Hg30 Sr2 3.453062 1_655
Hg30 Sr5 3.477726 1_555
Hg30 Sr7 3.588250 1_555
Hg31 Hg6 3.124252 1_555
Hg31 Hg46 3.208653 1_555
Hg31 Hg9 3.381816 1_555
Hg31 Sr4 3.431701 1_555
Hg31 Sr0 3.453073 1_545
Hg31 Sr3 3.477730 1_555
Hg31 Sr8 3.588247 1_555
Hg32 Hg5 3.060780 1_555
Hg32 Hg48 3.081434 1_556
Hg32 Sr6 3.396819 1_556
Hg32 Sr12 3.525777 1_555
Hg32 Sr10 3.685470 1_556
Hg32 Sr5 3.738169 1_555
Hg33 Hg49 3.081442 1_556
Hg33 Sr7 3.396819 1_456
Hg33 Sr12 3.525766 1_555
Hg33 Sr11 3.685470 1_556
Hg33 Sr3 3.738169 1_455
Hg34 Hg4 3.060767 1_565
Hg34 Hg50 3.081441 1_556
Hg34 Sr8 3.396819 1_566
Hg34 Sr12 3.525763 1_555
Hg34 Sr9 3.685470 1_556
Hg34 Sr4 3.738169 1_565
Hg35 Hg50 3.242664 1_556
Hg35 Sr9 3.463172 1_556
Hg35 Sr12 3.485056 1_555
Hg35 Sr7 3.591894 1_456
Hg35 Sr2 3.793182 1_555
Hg36 Hg48 3.242660 1_556
Hg36 Sr10 3.463172 1_556
Hg36 Sr12 3.485066 1_555
Hg36 Sr8 3.591894 1_566
Hg36 Sr0 3.793182 1_555
Hg37 Hg49 3.242654 1_556
Hg37 Sr11 3.463172 1_556
Hg37 Sr12 3.485069 1_555
Hg37 Sr6 3.591894 1_556
Hg37 Sr1 3.793182 1_555
Hg38 Hg50 3.242664 1_555
Hg38 Sr9 3.463172 1_555
Hg38 Sr13 3.485056 1_555
Hg38 Sr7 3.591894 1_455
Hg38 Sr2 3.793182 1_555
Hg39 Hg9 3.073024 1_565
Hg39 Hg48 3.242660 1_555
Hg39 Sr10 3.463172 1_555
Hg39 Sr13 3.485066 1_555
Hg39 Sr8 3.591894 1_565
Hg39 Sr0 3.793182 1_555
Hg40 Hg49 3.242654 1_555
Hg40 Sr11 3.463172 1_555
Hg40 Sr13 3.485069 1_555
Hg40 Sr6 3.591894 1_555
Hg40 Sr1 3.793182 1_555
Hg41 Hg8 3.060780 1_555
Hg41 Hg48 3.081434 1_555
Hg41 Sr6 3.396819 1_555
Hg41 Sr13 3.525777 1_555
Hg41 Sr10 3.685470 1_555
Hg41 Sr5 3.738169 1_555
Hg42 Hg6 3.060772 1_455
Hg42 Hg49 3.081442 1_555
Hg42 Sr7 3.396819 1_455
Hg42 Sr13 3.525766 1_555
Hg42 Sr11 3.685470 1_555
Hg42 Sr3 3.738169 1_455
Hg43 Hg7 3.060767 1_565
Hg43 Hg50 3.081441 1_555
Hg43 Sr8 3.396819 1_565
Hg43 Sr13 3.525763 1_555
Hg43 Sr9 3.685470 1_555
Hg43 Sr4 3.738169 1_565
Hg44 Sr1 3.415613 1_555
Hg44 Sr0 3.415613 1_445
Hg44 Sr2 3.415613 1_545
Hg45 Hg5 3.287743 1_555
Hg45 Sr3 3.415358 1_555
Hg45 Sr4 3.415363 1_555
Hg45 Sr5 3.415369 1_555
Hg46 Hg7 3.287743 1_555
Hg46 Hg8 3.287743 1_555
Hg46 Hg6 3.287743 1_555
Hg46 Sr3 3.415358 1_555
Hg46 Sr4 3.415363 1_555
Hg46 Sr5 3.415369 1_555
Hg47 Hg9 3.320610 1_455
Hg47 Sr1 3.415613 1_555
Hg47 Sr0 3.415613 1_445
Hg47 Sr2 3.415613 1_545
Hg48 Hg49 2.970719 1_555
Hg48 Hg50 2.970719 1_555
Hg48 Sr10 3.342424 1_555
Hg48 Sr12 3.629311 1_554
Hg48 Sr13 3.629311 1_555
Hg49 Hg50 2.970719 1_555
Hg49 Sr11 3.342426 1_555
Hg49 Sr13 3.629306 1_555
Hg49 Sr12 3.629306 1_554
Hg50 Sr9 3.342437 1_555
Hg50 Sr13 3.629298 1_555
Hg50 Sr12 3.629298 1_554
