# generated using pymatgen
data_Li2ZrAl
_symmetry_space_group_name_H-M   'P 1'
_cell_length_a   4.64764175
_cell_length_b   4.64764175
_cell_length_c   4.64764175
_cell_angle_alpha   60.00000000
_cell_angle_beta   60.00000000
_cell_angle_gamma   60.00000000
_symmetry_Int_Tables_number   1
_chemical_formula_structural   Li2ZrAl
_chemical_formula_sum   'Li2 Zr1 Al1'
_cell_volume   70.98767233
_cell_formula_units_Z   1
loop_
 _symmetry_equiv_pos_site_id
 _symmetry_equiv_pos_as_xyz
  1  'x, y, z'
loop_
 _atom_site_type_symbol
 _atom_site_label
 _atom_site_symmetry_multiplicity
 _atom_site_fract_x
 _atom_site_fract_y
 _atom_site_fract_z
 _atom_site_occupancy
  Li  Li0  1  0.75000000  0.75000000  0.75000000  1
  Li  Li1  1  0.50000000  0.50000000  0.50000000  1
  Zr  Zr0  1  0.25000000  0.25000000  0.25000000  1
  Al  Al0  1  0.00000000  0.00000000  0.00000000  1
loop_
_geom_bond_atom_site_label_1
_geom_bond_atom_site_label_2
_geom_bond_distance
_geom_bond_site_symmetry_2
Li0 Li1 2.846088 1_555
Li0 Li1 2.846088 1_556
Li0 Li1 2.846088 1_565
Li0 Li1 2.846088 1_655
Li1 Zr0 2.846088 1_555
Li1 Zr0 2.846088 1_565
Li1 Zr0 2.846088 1_655
Li1 Zr0 2.846088 1_556
Al0 Zr0 2.846088 1_555
Al0 Zr0 2.846088 1_545
Al0 Li0 2.846088 1_444
Al0 Li0 2.846088 1_445
Al0 Li0 2.846088 1_544
Al0 Li0 2.846088 1_454
Al0 Zr0 2.846088 1_455
Al0 Zr0 2.846088 1_554
