# generated using pymatgen
data_GdNiPb
_symmetry_space_group_name_H-M   'P 1'
_cell_length_a   4.57298200
_cell_length_b   7.27882227
_cell_length_c   7.76715606
_cell_angle_alpha   89.95544367
_cell_angle_beta   90.00000000
_cell_angle_gamma   90.00000000
_symmetry_Int_Tables_number   1
_chemical_formula_structural   GdNiPb
_chemical_formula_sum   'Gd4 Ni4 Pb4'
_cell_volume   258.53688188
_cell_formula_units_Z   4
loop_
 _symmetry_equiv_pos_site_id
 _symmetry_equiv_pos_as_xyz
  1  'x, y, z'
loop_
 _atom_site_type_symbol
 _atom_site_label
 _atom_site_symmetry_multiplicity
 _atom_site_fract_x
 _atom_site_fract_y
 _atom_site_fract_z
 _atom_site_occupancy
  Gd  Gd0  1  0.25000000  0.51400444  0.20342928  1
  Gd  Gd1  1  0.75000000  0.48547080  0.79623123  1
  Gd  Gd2  1  0.75000000  0.98564043  0.70357383  1
  Gd  Gd3  1  0.25000000  0.01392679  0.29633768  1
  Ni  Ni0  1  0.25000000  0.79681209  0.91810973  1
  Ni  Ni1  1  0.75000000  0.20471442  0.08163769  1
  Ni  Ni2  1  0.75000000  0.70428325  0.41855011  1
  Ni  Ni3  1  0.25000000  0.29556332  0.58183151  1
  Pb  Pb0  1  0.25000000  0.69080786  0.58839648  1
  Pb  Pb1  1  0.75000000  0.30879967  0.41155571  1
  Pb  Pb2  1  0.75000000  0.80919555  0.08856954  1
  Pb  Pb3  1  0.25000000  0.19077938  0.91177721  1
loop_
_geom_bond_atom_site_label_1
_geom_bond_atom_site_label_2
_geom_bond_distance
_geom_bond_site_symmetry_2
Gd0 Ni0 3.023499 1_554
Gd0 Ni2 3.153048 1_455
Gd0 Ni2 3.153048 1_555
Gd0 Pb1 3.173091 1_555
Gd0 Pb1 3.173091 1_455
Gd0 Pb0 3.256202 1_555
Gd0 Pb2 3.261538 1_455
Gd0 Pb2 3.261538 1_555
Gd0 Pb3 3.267276 1_554
Gd0 Ni3 3.340535 1_555
Gd0 Ni1 3.345807 1_555
Gd0 Ni1 3.345807 1_455
Gd1 Ni1 3.013858 1_556
Gd1 Ni3 3.148893 1_655
Gd1 Ni3 3.148893 1_555
Gd1 Pb0 3.172392 1_555
Gd1 Pb0 3.172392 1_655
Gd1 Pb1 3.253739 1_555
Gd1 Pb3 3.260604 1_555
Gd1 Pb3 3.260604 1_655
Gd1 Pb2 3.273596 1_556
Gd1 Ni2 3.336898 1_555
Gd1 Ni0 3.356065 1_655
Gd1 Ni0 3.356065 1_555
Gd2 Ni2 3.016979 1_555
Gd2 Ni0 3.144877 1_555
Gd2 Ni0 3.144877 1_655
Gd2 Pb3 3.174354 1_665
Gd2 Pb3 3.174354 1_565
Gd2 Pb2 3.253537 1_556
Gd2 Pb0 3.261410 1_655
Gd2 Pb0 3.261410 1_555
Gd2 Pb1 3.266365 1_565
Gd2 Ni1 3.342597 1_566
Gd2 Ni3 3.347810 1_665
Gd2 Ni3 3.347810 1_565
Gd3 Ni3 3.021042 1_555
Gd3 Ni1 3.151804 1_455
Gd3 Ni1 3.151804 1_555
Gd3 Pb2 3.171235 1_545
Gd3 Pb2 3.171235 1_445
Gd3 Pb3 3.251603 1_554
Gd3 Pb1 3.261690 1_555
Gd3 Pb1 3.261690 1_455
Gd3 Pb0 3.266373 1_545
Gd3 Ni0 3.336930 1_544
Gd3 Ni2 3.347472 1_445
Gd3 Ni2 3.347472 1_545
Ni0 Pb2 2.643728 1_456
Ni0 Pb2 2.643728 1_556
Ni0 Pb0 2.675220 1_555
Ni0 Pb3 2.868001 1_565
Ni1 Pb3 2.641813 1_554
Ni1 Pb3 2.641813 1_654
Ni1 Pb1 2.672740 1_555
Ni1 Pb2 2.879373 1_545
Ni2 Pb0 2.641555 1_655
Ni2 Pb0 2.641555 1_555
Ni2 Pb2 2.673784 1_555
Ni2 Pb1 2.879210 1_555
Ni3 Pb1 2.643158 1_555
Ni3 Pb1 2.643158 1_455
Ni3 Pb3 2.673259 1_555
Ni3 Pb0 2.877406 1_555
