# generated using pymatgen
data_Sm3DyS4
_symmetry_space_group_name_H-M   'P 1'
_cell_length_a   3.97016664
_cell_length_b   5.62869828
_cell_length_c   7.96365533
_cell_angle_alpha   90.00000000
_cell_angle_beta   90.00000000
_cell_angle_gamma   90.00000000
_symmetry_Int_Tables_number   1
_chemical_formula_structural   Sm3DyS4
_chemical_formula_sum   'Sm3 Dy1 S4'
_cell_volume   177.96277148
_cell_formula_units_Z   1
loop_
 _symmetry_equiv_pos_site_id
 _symmetry_equiv_pos_as_xyz
  1  'x, y, z'
loop_
 _atom_site_type_symbol
 _atom_site_label
 _atom_site_symmetry_multiplicity
 _atom_site_fract_x
 _atom_site_fract_y
 _atom_site_fract_z
 _atom_site_occupancy
  Sm  Sm0  1  0.50000000  0.50000000  0.25320636  1
  Sm  Sm1  1  0.00000000  -0.00000000  0.50000000  1
  Sm  Sm2  1  0.50000000  0.50000000  0.74679364  1
  Dy  Dy0  1  0.00000000  -0.00000000  -0.00000000  1
  S  S0  1  0.00000000  0.50000000  0.50000000  1
  S  S1  1  0.50000000  -0.00000000  0.75848463  1
  S  S2  1  0.00000000  0.50000000  -0.00000000  1
  S  S3  1  0.50000000  -0.00000000  0.24151537  1
loop_
_geom_bond_atom_site_label_1
_geom_bond_atom_site_label_2
_geom_bond_distance
_geom_bond_site_symmetry_2
Dy0 S3 2.764021 1_455
Dy0 S3 2.764021 1_555
Dy0 S1 2.764021 1_554
Dy0 S1 2.764021 1_454
Dy0 S2 2.814349 1_555
Dy0 S2 2.814349 1_545
S0 Sm0 2.793434 1_555
S0 Sm0 2.793434 1_455
S0 Sm2 2.793434 1_555
S0 Sm2 2.793434 1_455
S0 Sm1 2.814349 1_555
S0 Sm1 2.814349 1_565
S1 Sm2 2.815889 1_555
S1 Sm2 2.815889 1_545
S1 Sm1 2.859704 1_655
S1 Sm1 2.859704 1_555
S2 Sm2 2.829597 1_554
S2 Sm2 2.829597 1_454
S2 Sm0 2.829597 1_455
S2 Sm0 2.829597 1_555
S3 Sm0 2.815889 1_555
S3 Sm0 2.815889 1_545
S3 Sm1 2.859704 1_655
S3 Sm1 2.859704 1_555
