# generated using pymatgen
data_MgCr(Si2O5)2
_symmetry_space_group_name_H-M   'P 1'
_cell_length_a   7.34417400
_cell_length_b   7.34417400
_cell_length_c   14.92063900
_cell_angle_alpha   90.00000000
_cell_angle_beta   90.00000000
_cell_angle_gamma   90.00000000
_symmetry_Int_Tables_number   1
_chemical_formula_structural   MgCr(Si2O5)2
_chemical_formula_sum   'Mg4 Cr4 Si16 O40'
_cell_volume   804.77289047
_cell_formula_units_Z   4
loop_
 _symmetry_equiv_pos_site_id
 _symmetry_equiv_pos_as_xyz
  1  'x, y, z'
loop_
 _atom_site_type_symbol
 _atom_site_label
 _atom_site_symmetry_multiplicity
 _atom_site_fract_x
 _atom_site_fract_y
 _atom_site_fract_z
 _atom_site_occupancy
  Mg  Mg0  1  0.25000000  0.75000000  0.50000000  1
  Mg  Mg1  1  0.75000000  0.25000000  0.50000000  1
  Mg  Mg2  1  0.75000000  0.25000000  0.00000000  1
  Mg  Mg3  1  0.25000000  0.75000000  0.00000000  1
  Cr  Cr0  1  0.25000000  0.25000000  0.57058200  1
  Cr  Cr1  1  0.75000000  0.75000000  0.92941800  1
  Cr  Cr2  1  0.75000000  0.75000000  0.42941800  1
  Cr  Cr3  1  0.25000000  0.25000000  0.07058200  1
  Si  Si0  1  0.91181900  0.49173800  0.64478500  1
  Si  Si1  1  0.58818100  0.00826200  0.64478500  1
  Si  Si2  1  0.99173800  0.41181900  0.85521500  1
  Si  Si3  1  0.49173800  0.58818100  0.64478500  1
  Si  Si4  1  0.00826200  0.91181900  0.64478500  1
  Si  Si5  1  0.08818100  0.99173800  0.85521500  1
  Si  Si6  1  0.41181900  0.50826200  0.85521500  1
  Si  Si7  1  0.50826200  0.08818100  0.85521500  1
  Si  Si8  1  0.08818100  0.50826200  0.35521500  1
  Si  Si9  1  0.41181900  0.99173800  0.35521500  1
  Si  Si10  1  0.00826200  0.58818100  0.14478500  1
  Si  Si11  1  0.50826200  0.41181900  0.35521500  1
  Si  Si12  1  0.99173800  0.08818100  0.35521500  1
  Si  Si13  1  0.91181900  0.00826200  0.14478500  1
  Si  Si14  1  0.58818100  0.49173800  0.14478500  1
  Si  Si15  1  0.49173800  0.91181900  0.14478500  1
  O  O0  1  0.98124900  0.33721200  0.57561400  1
  O  O1  1  0.51875100  0.16278800  0.57561400  1
  O  O2  1  0.83721200  0.48124900  0.92438600  1
  O  O3  1  0.33721200  0.51875100  0.57561400  1
  O  O4  1  0.16278800  0.98124900  0.57561400  1
  O  O5  1  0.01875100  0.83721200  0.92438600  1
  O  O6  1  0.48124900  0.66278800  0.92438600  1
  O  O7  1  0.66278800  0.01875100  0.92438600  1
  O  O8  1  0.01875100  0.66278800  0.42438600  1
  O  O9  1  0.48124900  0.83721200  0.42438600  1
  O  O10  1  0.16278800  0.51875100  0.07561400  1
  O  O11  1  0.66278800  0.48124900  0.42438600  1
  O  O12  1  0.83721200  0.01875100  0.42438600  1
  O  O13  1  0.98124900  0.16278800  0.07561400  1
  O  O14  1  0.51875100  0.33721200  0.07561400  1
  O  O15  1  0.00162600  0.30738400  0.37495200  1
  O  O16  1  0.33721200  0.98124900  0.07561400  1
  O  O17  1  0.50162600  0.80738400  0.62504800  1
  O  O18  1  0.19261600  0.49837400  0.87495200  1
  O  O19  1  0.69261600  0.50162600  0.62504800  1
  O  O20  1  0.80738400  0.99837400  0.62504800  1
  O  O21  1  0.00162600  0.19261600  0.87495200  1
  O  O22  1  0.49837400  0.30738400  0.87495200  1
  O  O23  1  0.30738400  0.00162600  0.87495200  1
  O  O24  1  0.44627300  0.94627300  0.25000000  1
  O  O25  1  0.55372700  0.44627300  0.25000000  1
  O  O26  1  0.94627300  0.05372800  0.25000000  1
  O  O27  1  0.05372800  0.55372700  0.25000000  1
  O  O28  1  0.55372700  0.05372800  0.75000000  1
  O  O29  1  0.44627300  0.55372700  0.75000000  1
  O  O30  1  0.05372800  0.94627300  0.75000000  1
  O  O31  1  0.94627300  0.44627300  0.75000000  1
  O  O32  1  0.69261600  0.99837400  0.12504800  1
  O  O33  1  0.50162600  0.69261600  0.12504800  1
  O  O34  1  0.99837400  0.80738400  0.12504800  1
  O  O35  1  0.19261600  0.00162600  0.37495200  1
  O  O36  1  0.30738400  0.49837400  0.37495200  1
  O  O37  1  0.80738400  0.50162600  0.12504800  1
  O  O38  1  0.49837400  0.19261600  0.37495200  1
  O  O39  1  0.99837400  0.69261600  0.62504800  1
loop_
_geom_bond_atom_site_label_1
_geom_bond_atom_site_label_2
_geom_bond_distance
_geom_bond_site_symmetry_2
Mg0 O3 2.137155 1_555
Mg0 O9 2.137155 1_555
Mg0 O4 2.137155 1_555
Mg0 O8 2.137155 1_555
Mg1 O12 2.137155 1_555
Mg1 O11 2.137155 1_555
Mg1 O1 2.137155 1_555
Mg1 O0 2.137155 1_555
Mg2 O7 2.137155 1_554
Mg2 O2 2.137155 1_554
Mg2 O14 2.137155 1_555
Mg2 O13 2.137155 1_555
Mg3 O5 2.137155 1_554
Mg3 O6 2.137155 1_554
Mg3 O16 2.137155 1_555
Mg3 O10 2.137155 1_555
Cr0 O4 2.076435 1_545
Cr0 O3 2.076435 1_555
Cr0 O0 2.076435 1_455
Cr0 O1 2.076435 1_555
Cr1 O5 2.076435 1_655
Cr1 O7 2.076435 1_565
Cr1 O2 2.076435 1_555
Cr1 O6 2.076435 1_555
Cr2 O8 2.076435 1_655
Cr2 O12 2.076435 1_565
Cr2 O9 2.076435 1_555
Cr2 O11 2.076435 1_555
Cr3 O16 2.076435 1_545
Cr3 O14 2.076435 1_555
Cr3 O13 2.076435 1_455
Cr3 O10 2.076435 1_555
O0 Si0 1.616510 1_555
O1 Si1 1.616510 1_555
O2 Si2 1.616510 1_555
O3 Si3 1.616510 1_555
O4 Si4 1.616510 1_555
O5 Si5 1.616510 1_555
O6 Si6 1.616510 1_555
O7 Si7 1.616510 1_555
O8 Si8 1.616510 1_555
O9 Si9 1.616510 1_555
O10 Si10 1.616510 1_555
O11 Si11 1.616510 1_555
O12 Si12 1.616510 1_555
O13 Si13 1.616510 1_555
O14 Si14 1.616510 1_555
O15 Si8 1.633177 1_555
O15 Si12 1.638189 1_455
O16 Si15 1.616510 1_555
O17 Si1 1.633177 1_565
O17 Si3 1.638189 1_555
O18 Si2 1.633177 1_455
O18 Si6 1.638189 1_555
O19 Si3 1.633177 1_555
O19 Si0 1.638189 1_555
O20 Si4 1.633177 1_655
O20 Si1 1.638189 1_565
O21 Si5 1.633177 1_545
O21 Si2 1.638189 1_455
O22 Si6 1.633177 1_555
O22 Si7 1.638189 1_555
O23 Si7 1.633177 1_555
O23 Si5 1.638189 1_545
O24 Si9 1.624816 1_555
O24 Si15 1.624816 1_555
O25 Si11 1.624816 1_555
O25 Si14 1.624816 1_555
O26 Si12 1.624815 1_555
O26 Si13 1.624817 1_555
O27 Si8 1.624815 1_555
O27 Si10 1.624817 1_555
O28 Si7 1.624815 1_555
O28 Si1 1.624817 1_555
O29 Si6 1.624816 1_555
O29 Si3 1.624816 1_555
O30 Si5 1.624815 1_555
O30 Si4 1.624817 1_555
O31 Si2 1.624816 1_555
O31 Si0 1.624816 1_555
O32 Si15 1.633177 1_555
O32 Si13 1.638189 1_565
O33 Si14 1.633177 1_555
O33 Si15 1.638189 1_555
O34 Si13 1.633177 1_565
O34 Si10 1.638189 1_655
O35 Si12 1.633177 1_455
O35 Si9 1.638189 1_545
O36 Si11 1.633177 1_555
O36 Si8 1.638189 1_555
O37 Si10 1.633177 1_655
O37 Si14 1.638189 1_555
O38 Si9 1.633177 1_545
O38 Si11 1.638189 1_555
O39 Si0 1.633177 1_555
O39 Si4 1.638189 1_655
