# generated using pymatgen
data_MgTi3
_symmetry_space_group_name_H-M   'P 1'
_cell_length_a   4.15906600
_cell_length_b   4.15906600
_cell_length_c   4.15906600
_cell_angle_alpha   90.00000000
_cell_angle_beta   90.00000000
_cell_angle_gamma   90.00000000
_symmetry_Int_Tables_number   1
_chemical_formula_structural   MgTi3
_chemical_formula_sum   'Mg1 Ti3'
_cell_volume   71.94281659
_cell_formula_units_Z   1
loop_
 _symmetry_equiv_pos_site_id
 _symmetry_equiv_pos_as_xyz
  1  'x, y, z'
loop_
 _atom_site_type_symbol
 _atom_site_label
 _atom_site_symmetry_multiplicity
 _atom_site_fract_x
 _atom_site_fract_y
 _atom_site_fract_z
 _atom_site_occupancy
  Mg  Mg0  1  0.00000000  0.00000000  0.00000000  1
  Ti  Ti0  1  0.50000000  0.50000000  0.00000000  1
  Ti  Ti1  1  0.50000000  0.00000000  0.50000000  1
  Ti  Ti2  1  0.00000000  0.50000000  0.50000000  1
loop_
_geom_bond_atom_site_label_1
_geom_bond_atom_site_label_2
_geom_bond_distance
_geom_bond_site_symmetry_2
Mg0 Ti0 2.940904 1_555
Mg0 Ti1 2.940904 1_554
Mg0 Ti2 2.940904 1_555
Mg0 Ti0 2.940904 1_545
Mg0 Ti2 2.940904 1_554
Mg0 Ti0 2.940904 1_445
Mg0 Ti2 2.940904 1_545
Mg0 Ti1 2.940904 1_455
Mg0 Ti0 2.940904 1_455
Mg0 Ti1 2.940904 1_555
Mg0 Ti1 2.940904 1_454
Mg0 Ti2 2.940904 1_544
Ti0 Ti1 2.940904 1_565
Ti0 Ti1 2.940904 1_564
Ti0 Ti2 2.940904 1_555
Ti0 Ti2 2.940904 1_554
Ti0 Ti2 2.940904 1_655
Ti0 Ti1 2.940904 1_554
Ti0 Ti2 2.940904 1_654
Ti0 Ti1 2.940904 1_555
Ti1 Ti2 2.940904 1_645
Ti1 Ti2 2.940904 1_555
Ti1 Ti2 2.940904 1_655
Ti1 Ti2 2.940904 1_545
