# generated using pymatgen
data_Al13(CuS8)3
_symmetry_space_group_name_H-M   'P 1'
_cell_length_a   7.01683531
_cell_length_b   7.01683531
_cell_length_c   17.26106247
_cell_angle_alpha   89.78779006
_cell_angle_beta   89.78779006
_cell_angle_gamma   60.38304907
_symmetry_Int_Tables_number   1
_chemical_formula_structural   Al13(CuS8)3
_chemical_formula_sum   'Al13 Cu3 S24'
_cell_volume   738.82255094
_cell_formula_units_Z   1
loop_
 _symmetry_equiv_pos_site_id
 _symmetry_equiv_pos_as_xyz
  1  'x, y, z'
loop_
 _atom_site_type_symbol
 _atom_site_label
 _atom_site_symmetry_multiplicity
 _atom_site_fract_x
 _atom_site_fract_y
 _atom_site_fract_z
 _atom_site_occupancy
  Al  Al0  1  0.33918500  0.82155300  0.16278100  1
  Al  Al1  1  0.00450300  0.49265300  0.49932700  1
  Al  Al2  1  0.66790300  0.16295200  0.83593100  1
  Al  Al3  1  0.16357200  0.16357200  0.33901300  1
  Al  Al4  1  0.83688600  0.83688600  0.66767900  1
  Al  Al5  1  0.82155300  0.33918500  0.16278100  1
  Al  Al6  1  0.49265300  0.00450300  0.49932700  1
  Al  Al7  1  0.16295200  0.66790300  0.83593100  1
  Al  Al8  1  0.33940200  0.33940200  0.16250900  1
  Al  Al9  1  0.66880500  0.66880500  0.83585700  1
  Al  Al10  1  0.83044000  0.83044000  0.29377600  1
  Al  Al11  1  0.49274000  0.49274000  0.62481500  1
  Al  Al12  1  0.16636200  0.16636200  0.95095000  1
  Cu  Cu0  1  0.83374600  0.83374600  0.04479000  1
  Cu  Cu1  1  0.50354600  0.50354600  0.37688700  1
  Cu  Cu2  1  0.16640700  0.16640700  0.70593300  1
  S  S0  1  0.65720300  0.65720300  0.08546800  1
  S  S1  1  0.32382000  0.32382000  0.41809000  1
  S  S2  1  0.99051300  0.99051300  0.75353700  1
  S  S3  1  0.18491200  0.65780100  0.08545800  1
  S  S4  1  0.85142500  0.32689600  0.41925000  1
  S  S5  1  0.52193800  0.98815500  0.75223100  1
  S  S6  1  0.49965600  0.49965600  0.24265300  1
  S  S7  1  0.17004100  0.17004100  0.57715400  1
  S  S8  1  0.83316700  0.83316700  0.91060300  1
  S  S9  1  0.65780100  0.18491200  0.08545800  1
  S  S10  1  0.32689600  0.85142500  0.41925000  1
  S  S11  1  0.98815500  0.52193800  0.75223100  1
  S  S12  1  0.01249700  0.47577700  0.24678700  1
  S  S13  1  0.67524700  0.14609600  0.58083900  1
  S  S14  1  0.34296000  0.81354600  0.91358600  1
  S  S15  1  0.16650100  0.16650100  0.09003200  1
  S  S16  1  0.83164900  0.83164900  0.42364100  1
  S  S17  1  0.50056700  0.50056700  0.75810800  1
  S  S18  1  0.47577700  0.01249700  0.24678700  1
  S  S19  1  0.14609600  0.67524700  0.58083900  1
  S  S20  1  0.81354600  0.34296000  0.91358600  1
  S  S21  1  0.01046300  0.01046300  0.24741300  1
  S  S22  1  0.67593700  0.67593700  0.58077800  1
  S  S23  1  0.34349200  0.34349200  0.91339000  1
loop_
_geom_bond_atom_site_label_1
_geom_bond_atom_site_label_2
_geom_bond_distance
_geom_bond_site_symmetry_2
Al0 S3 2.350509 1_555
Al0 S0 2.352898 1_555
Al0 S6 2.396870 1_555
Al0 S15 2.448171 1_565
Al0 S18 2.471895 1_565
Al0 S21 2.485727 1_565
Al1 S7 2.380837 1_555
Al1 S4 2.382173 1_455
Al1 S1 2.399050 1_555
Al1 S19 2.426965 1_555
Al1 S16 2.443986 1_455
Al1 S22 2.450444 1_455
Al2 S8 2.386952 1_545
Al2 S23 2.390383 1_555
Al2 S20 2.394785 1_555
Al2 S2 2.427491 1_545
Al2 S5 2.430309 1_545
Al2 S17 2.456429 1_555
Al3 S10 2.353118 1_545
Al3 S4 2.353118 1_455
Al3 S1 2.379962 1_555
Al3 S21 2.444242 1_555
Al3 S18 2.479598 1_555
Al3 S12 2.479598 1_555
Al4 S2 2.385918 1_555
Al4 S19 2.407688 1_655
Al4 S13 2.407688 1_565
Al4 S11 2.410307 1_555
Al4 S5 2.410307 1_555
Al4 S22 2.467108 1_555
Al5 S9 2.350509 1_555
Al5 S0 2.352898 1_555
Al5 S6 2.396870 1_555
Al5 S15 2.448171 1_655
Al5 S12 2.471895 1_655
Al5 S21 2.485727 1_655
Al6 S7 2.380837 1_555
Al6 S10 2.382173 1_545
Al6 S1 2.399050 1_555
Al6 S13 2.426965 1_555
Al6 S16 2.443986 1_545
Al6 S22 2.450444 1_545
Al7 S8 2.386952 1_455
Al7 S23 2.390383 1_555
Al7 S14 2.394785 1_555
Al7 S2 2.427491 1_455
Al7 S11 2.430309 1_455
Al7 S17 2.456429 1_555
Al8 S9 2.351657 1_555
Al8 S3 2.351657 1_555
Al8 S6 2.390696 1_555
Al8 S15 2.446667 1_555
Al8 S18 2.471773 1_555
Al8 S12 2.471773 1_555
Al9 S8 2.379396 1_555
Al9 S14 2.398213 1_555
Al9 S20 2.398213 1_555
Al9 S5 2.423122 1_555
Al9 S11 2.423122 1_555
Al9 S17 2.447259 1_555
Al10 S16 2.241719 1_555
Al10 S12 2.312575 1_655
Al10 S18 2.312575 1_565
Al10 S21 2.322479 1_665
Al11 S13 2.249485 1_555
Al11 S19 2.249485 1_555
Al11 S17 2.303143 1_555
Al11 S22 2.345504 1_555
Al12 S23 2.241608 1_555
Al12 S14 2.248130 1_545
Al12 S20 2.248130 1_455
Al12 S15 2.400711 1_556
Cu0 S0 2.250777 1_555
Cu0 S9 2.255705 1_565
Cu0 S3 2.255705 1_655
Cu0 S8 2.316251 1_554
Cu1 S4 2.246234 1_555
Cu1 S10 2.246234 1_555
Cu1 S1 2.290252 1_555
Cu1 S6 2.317704 1_555
Cu2 S7 2.223111 1_555
Cu2 S2 2.283063 1_445
Cu2 S5 2.312980 1_545
Cu2 S11 2.312980 1_455
