# generated using pymatgen
data_Li4Co3O7
_symmetry_space_group_name_H-M   'P 1'
_cell_length_a   10.48400019
_cell_length_b   10.48400019
_cell_length_c   5.16209655
_cell_angle_alpha   85.27644714
_cell_angle_beta   85.27644714
_cell_angle_gamma   151.86151507
_symmetry_Int_Tables_number   1
_chemical_formula_structural   Li4Co3O7
_chemical_formula_sum   'Li8 Co6 O14'
_cell_volume   251.76218658
_cell_formula_units_Z   2
loop_
 _symmetry_equiv_pos_site_id
 _symmetry_equiv_pos_as_xyz
  1  'x, y, z'
loop_
 _atom_site_type_symbol
 _atom_site_label
 _atom_site_symmetry_multiplicity
 _atom_site_fract_x
 _atom_site_fract_y
 _atom_site_fract_z
 _atom_site_occupancy
  Li  Li0  1  0.85676300  0.14323700  0.50000000  1
  Li  Li1  1  0.28631100  0.71368900  0.50000000  1
  Li  Li2  1  0.71368900  0.28631100  0.50000000  1
  Li  Li3  1  0.14323700  0.85676300  0.50000000  1
  Li  Li4  1  0.56876900  0.43123100  0.50000000  1
  Li  Li5  1  0.00000000  0.00000000  0.50000000  1
  Li  Li6  1  0.43123100  0.56876900  0.50000000  1
  Li  Li7  1  0.50000000  0.50000000  0.00000000  1
  Co  Co0  1  0.92992200  0.07007800  0.00000000  1
  Co  Co1  1  0.07007800  0.92992200  0.00000000  1
  Co  Co2  1  0.36033700  0.63966300  0.00000000  1
  Co  Co3  1  0.78518400  0.21481600  0.00000000  1
  Co  Co4  1  0.21481600  0.78518400  0.00000000  1
  Co  Co5  1  0.63966300  0.36033700  0.00000000  1
  O  O0  1  0.61688500  0.90308000  0.22995000  1
  O  O1  1  0.04988000  0.47832500  0.22639100  1
  O  O2  1  0.47832500  0.04988000  0.22639100  1
  O  O3  1  0.90308000  0.61688500  0.22995000  1
  O  O4  1  0.32152200  0.16938800  0.22536000  1
  O  O5  1  0.77689300  0.77689300  0.23398800  1
  O  O6  1  0.16938800  0.32152200  0.22536000  1
  O  O7  1  0.09692000  0.38311500  0.77005000  1
  O  O8  1  0.52167500  0.95012000  0.77360900  1
  O  O9  1  0.95012000  0.52167500  0.77360900  1
  O  O10  1  0.38311500  0.09692000  0.77005000  1
  O  O11  1  0.83061200  0.67847800  0.77464000  1
  O  O12  1  0.22310700  0.22310700  0.76601200  1
  O  O13  1  0.67847800  0.83061200  0.77464000  1
loop_
_geom_bond_atom_site_label_1
_geom_bond_atom_site_label_2
_geom_bond_distance
_geom_bond_site_symmetry_2
Li0 O6 2.059118 1_655
Li0 O13 2.059118 1_545
Li0 O0 2.143717 1_545
Li0 O7 2.143717 1_655
Li0 O8 2.145553 1_545
Li0 O1 2.145553 1_655
Li1 O0 2.123501 1_555
Li1 O7 2.123501 1_555
Li1 O8 2.142750 1_555
Li1 O1 2.142750 1_555
Li1 O9 2.160713 1_455
Li1 O2 2.160713 1_565
Li2 O3 2.123501 1_555
Li2 O10 2.123501 1_555
Li2 O9 2.142750 1_555
Li2 O2 2.142750 1_555
Li2 O8 2.160713 1_545
Li2 O1 2.160713 1_655
Li3 O4 2.059118 1_565
Li3 O11 2.059118 1_455
Li3 O3 2.143717 1_455
Li3 O10 2.143717 1_565
Li3 O9 2.145553 1_455
Li3 O2 2.145553 1_565
Li4 O12 2.126243 1_555
Li4 O5 2.126243 1_555
Li4 O10 2.175612 1_555
Li4 O3 2.175612 1_555
Li4 O11 2.227465 1_555
Li4 O4 2.227465 1_555
Li5 O12 2.058370 1_555
Li5 O5 2.058370 1_445
Li5 O4 2.183380 1_555
Li5 O6 2.183380 1_555
Li5 O13 2.183380 1_445
Li5 O11 2.183380 1_445
Li6 O12 2.126243 1_555
Li6 O5 2.126243 1_555
Li6 O7 2.175612 1_555
Li6 O0 2.175612 1_555
Li6 O13 2.227465 1_555
Li6 O6 2.227465 1_555
Li7 O11 2.099466 1_554
Li7 O13 2.099466 1_554
Li7 O4 2.099466 1_555
Li7 O6 2.099466 1_555
Li7 O5 2.146139 1_555
Li7 O12 2.146139 1_554
Co0 O5 1.962938 1_545
Co0 O12 1.962938 1_654
Co0 O13 1.979798 1_544
Co0 O6 1.979798 1_655
Co0 O0 2.031637 1_545
Co0 O7 2.031637 1_654
Co1 O5 1.962938 1_455
Co1 O12 1.962938 1_564
Co1 O11 1.979798 1_454
Co1 O4 1.979798 1_565
Co1 O3 2.031637 1_455
Co1 O10 2.031637 1_564
Co2 O13 1.920219 1_554
Co2 O6 1.920219 1_555
Co2 O1 2.039411 1_555
Co2 O8 2.039411 1_554
Co2 O7 2.058092 1_554
Co2 O0 2.058092 1_555
Co3 O2 1.985599 1_555
Co3 O9 1.985599 1_554
Co3 O0 2.012375 1_545
Co3 O7 2.012375 1_654
Co3 O8 2.060088 1_544
Co3 O1 2.060088 1_655
Co4 O1 1.985599 1_555
Co4 O8 1.985599 1_554
Co4 O3 2.012375 1_455
Co4 O10 2.012375 1_564
Co4 O9 2.060088 1_454
Co4 O2 2.060088 1_565
Co5 O11 1.920219 1_554
Co5 O4 1.920219 1_555
Co5 O2 2.039411 1_555
Co5 O9 2.039411 1_554
Co5 O10 2.058092 1_554
Co5 O3 2.058092 1_555
