# generated using pymatgen
data_NaZnBP2O11
_symmetry_space_group_name_H-M   'P 1'
_cell_length_a   10.05422209
_cell_length_b   10.05422209
_cell_length_c   14.68039772
_cell_angle_alpha   90.00000000
_cell_angle_beta   90.00000000
_cell_angle_gamma   119.99999767
_symmetry_Int_Tables_number   1
_chemical_formula_structural   NaZnBP2O11
_chemical_formula_sum   'Na6 Zn6 B6 P12 O66'
_cell_volume   1285.18430036
_cell_formula_units_Z   6
loop_
 _symmetry_equiv_pos_site_id
 _symmetry_equiv_pos_as_xyz
  1  'x, y, z'
loop_
 _atom_site_type_symbol
 _atom_site_label
 _atom_site_symmetry_multiplicity
 _atom_site_fract_x
 _atom_site_fract_y
 _atom_site_fract_z
 _atom_site_occupancy
  Na  Na0  1  0.73664496  0.26335504  0.75000000  1
  Na  Na1  1  0.52671008  0.26335504  0.41666700  1
  Na  Na2  1  0.26335504  0.73664496  0.25000000  1
  Na  Na3  1  0.47328992  0.73664496  0.91666700  1
  Na  Na4  1  0.73664496  0.47328992  0.08333300  1
  Na  Na5  1  0.26335504  0.52671008  0.58333300  1
  Zn  Zn0  1  0.49663322  0.50336678  0.75000000  1
  Zn  Zn1  1  0.00673356  0.50336678  0.41666700  1
  Zn  Zn2  1  0.50336678  0.49663322  0.25000000  1
  Zn  Zn3  1  0.99326644  0.49663322  0.91666700  1
  Zn  Zn4  1  0.49663322  0.99326644  0.08333300  1
  Zn  Zn5  1  0.50336678  0.00673356  0.58333300  1
  B  B0  1  0.15824363  0.84175637  0.75000000  1
  B  B1  1  0.68351274  0.84175637  0.41666700  1
  B  B2  1  0.84175637  0.15824363  0.25000000  1
  B  B3  1  0.31648726  0.15824363  0.91666700  1
  B  B4  1  0.15824363  0.31648726  0.08333300  1
  B  B5  1  0.84175637  0.68351274  0.58333300  1
  P  P0  1  0.62159266  0.77105214  0.59719212  1
  P  P1  1  0.14945948  0.37840734  0.26385912  1
  P  P2  1  0.37840734  0.22894786  0.09719212  1
  P  P3  1  0.85054052  0.22894786  0.06947488  1
  P  P4  1  0.22894786  0.85054052  0.93052512  1
  P  P5  1  0.85054052  0.62159266  0.76385912  1
  P  P6  1  0.77105214  0.62159266  0.40280788  1
  P  P7  1  0.14945948  0.77105214  0.56947488  1
  P  P8  1  0.77105214  0.14945948  0.43052512  1
  P  P9  1  0.22894786  0.37840734  0.90280788  1
  P  P10  1  0.37840734  0.14945948  0.73614088  1
  P  P11  1  0.62159266  0.85054052  0.23614088  1
  O  O0  1  0.77014825  0.11561805  0.86465441  1
  O  O1  1  0.34546979  0.22985175  0.53132141  1
  O  O2  1  0.22985175  0.88438195  0.36465441  1
  O  O3  1  0.65453021  0.88438195  0.80201259  1
  O  O4  1  0.88438195  0.65453021  0.19798741  1
  O  O5  1  0.65453021  0.77014825  0.03132141  1
  O  O6  1  0.11561805  0.77014825  0.13534559  1
  O  O7  1  0.34546979  0.11561805  0.30201259  1
  O  O8  1  0.11561805  0.34546979  0.69798741  1
  O  O9  1  0.88438195  0.22985175  0.63534559  1
  O  O10  1  0.22985175  0.34546979  0.46867859  1
  O  O11  1  0.77014825  0.65453021  0.96867859  1
  O  O12  1  0.77975825  0.77975825  0.00000000  1
  O  O13  1  0.00000000  0.22024175  0.66666700  1
  O  O14  1  0.22024175  0.22024175  0.50000000  1
  O  O15  1  0.22024175  0.00000000  0.33333300  1
  O  O16  1  1.00000000  0.77975825  0.16666700  1
  O  O17  1  0.77975825  1.00000000  0.83333300  1
  O  O18  1  0.57943040  0.75118949  0.49236209  1
  O  O19  1  0.17175909  0.42056960  0.15902909  1
  O  O20  1  0.42056960  0.24881051  0.99236209  1
  O  O21  1  0.82824091  0.24881051  0.17430491  1
  O  O22  1  0.24881051  0.82824091  0.82569509  1
  O  O23  1  0.82824091  0.57943040  0.65902909  1
  O  O24  1  0.75118949  0.57943040  0.50763791  1
  O  O25  1  0.17175909  0.75118949  0.67430491  1
  O  O26  1  0.75118949  0.17175909  0.32569509  1
  O  O27  1  0.24881051  0.42056960  0.00763791  1
  O  O28  1  0.42056960  0.17175909  0.84097091  1
  O  O29  1  0.57943040  0.82824091  0.34097091  1
  O  O30  1  0.62324229  0.91621067  0.63132625  1
  O  O31  1  0.29296838  0.37675771  0.29799325  1
  O  O32  1  0.37675771  0.08378933  0.13132625  1
  O  O33  1  0.70703162  0.08378933  0.03534075  1
  O  O34  1  0.08378933  0.70703162  0.96465925  1
  O  O35  1  0.70703162  0.62324229  0.79799325  1
  O  O36  1  0.91621067  0.62324229  0.36867375  1
  O  O37  1  0.29296838  0.91621067  0.53534075  1
  O  O38  1  0.91621067  0.29296838  0.46465925  1
  O  O39  1  0.08378933  0.37675771  0.86867375  1
  O  O40  1  0.37675771  0.29296838  0.70200675  1
  O  O41  1  0.62324229  0.70703162  0.20200675  1
  O  O42  1  0.78324277  0.78747505  0.60989303  1
  O  O43  1  0.00423228  0.21675723  0.27656003  1
  O  O44  1  0.21675723  0.21252495  0.10989303  1
  O  O45  1  0.99576772  0.21252495  0.05677397  1
  O  O46  1  0.21252495  0.99576772  0.94322603  1
  O  O47  1  0.99576772  0.78324277  0.77656003  1
  O  O48  1  0.78747505  0.78324277  0.39010697  1
  O  O49  1  0.00423228  0.78747505  0.55677397  1
  O  O50  1  0.78747505  0.00423228  0.44322603  1
  O  O51  1  0.21252495  0.21675723  0.89010697  1
  O  O52  1  0.21675723  0.00423228  0.72343997  1
  O  O53  1  0.78324277  0.99576772  0.22343997  1
  O  O54  1  0.37356751  0.50488057  0.85508017  1
  O  O55  1  0.13131305  0.62643249  0.52174717  1
  O  O56  1  0.62643249  0.49511943  0.35508017  1
  O  O57  1  0.86868695  0.49511943  0.81158683  1
  O  O58  1  0.49511943  0.86868695  0.18841317  1
  O  O59  1  0.86868695  0.37356751  0.02174717  1
  O  O60  1  0.50488057  0.37356751  0.14491983  1
  O  O61  1  0.13131305  0.50488057  0.31158683  1
  O  O62  1  0.50488057  0.13131305  0.68841317  1
  O  O63  1  0.49511943  0.62643249  0.64491983  1
  O  O64  1  0.62643249  0.13131305  0.47825283  1
  O  O65  1  0.37356751  0.86868695  0.97825283  1
loop_
_geom_bond_atom_site_label_1
_geom_bond_atom_site_label_2
_geom_bond_distance
_geom_bond_site_symmetry_2
Na0 O57 2.217260 1_555
Na0 O62 2.217260 1_555
Na0 O0 2.377655 1_555
Na0 O9 2.377655 1_555
Na1 O64 2.217254 1_555
Na1 O56 2.217260 1_555
Na1 O1 2.377655 1_555
Na1 O7 2.377655 1_555
Na2 O61 2.217260 1_555
Na2 O58 2.217260 1_555
Na2 O6 2.377655 1_555
Na2 O2 2.377655 1_555
Na3 O65 2.217254 1_555
Na3 O54 2.217260 1_555
Na3 O5 2.377655 1_556
Na3 O3 2.377655 1_555
Na4 O59 2.217254 1_555
Na4 O60 2.217260 1_555
Na4 O11 2.377655 1_554
Na4 O4 2.377655 1_555
Na5 O55 2.217254 1_555
Na5 O63 2.217260 1_555
Na5 O10 2.377655 1_555
Na5 O8 2.377655 1_555
B0 O47 1.485141 1_455
B0 O52 1.485141 1_565
B0 O25 1.485328 1_555
B0 O22 1.485328 1_555
B1 O50 1.485137 1_565
B1 O48 1.485141 1_555
B1 O18 1.485328 1_555
B1 O29 1.485339 1_555
B2 O53 1.485141 1_545
B2 O43 1.485141 1_655
B2 O21 1.485328 1_555
B2 O26 1.485328 1_555
B3 O46 1.485137 1_545
B3 O51 1.485141 1_555
B3 O20 1.485328 1_555
B3 O28 1.485339 1_555
B4 O45 1.485137 1_455
B4 O44 1.485141 1_555
B4 O27 1.485328 1_555
B4 O19 1.485339 1_555
B5 O49 1.485137 1_655
B5 O42 1.485141 1_555
B5 O24 1.485328 1_555
B5 O23 1.485339 1_555
O0 O17 1.297832 1_545
O1 O14 1.297832 1_555
O10 O14 1.297832 1_555
O11 O12 1.297832 1_556
O12 O5 1.297832 1_555
O13 O8 1.297827 1_555
O13 O9 1.297832 1_455
O15 O7 1.297827 1_555
O15 O2 1.297832 1_545
O16 O4 1.297827 1_555
O16 O6 1.297832 1_655
O17 O3 1.297827 1_555
O18 P0 1.582176 1_555
O19 P1 1.582176 1_555
O20 P2 1.582176 1_556
O21 P3 1.582176 1_555
O22 P4 1.582176 1_555
O23 P5 1.582176 1_555
O24 P6 1.582176 1_555
O25 P7 1.582176 1_555
O26 P8 1.582176 1_555
O27 P9 1.582176 1_554
O28 P10 1.582176 1_555
O29 P11 1.582176 1_555
O30 P0 1.535313 1_555
O30 Zn5 1.968335 1_565
O31 P1 1.535313 1_555
O31 Zn2 1.968335 1_555
O32 P2 1.535313 1_555
O32 Zn4 1.968335 1_545
O33 P3 1.535313 1_555
O33 Zn4 1.968330 1_545
O34 P4 1.535313 1_555
O34 Zn3 1.968330 1_455
O35 P5 1.535313 1_555
O35 Zn0 1.968335 1_555
O36 P6 1.535313 1_555
O36 Zn1 1.968335 1_655
O37 P7 1.535313 1_555
O37 Zn5 1.968330 1_565
O38 P8 1.535313 1_555
O38 Zn1 1.968330 1_655
O39 P9 1.535313 1_555
O39 Zn3 1.968335 1_455
O40 P10 1.535313 1_555
O40 Zn0 1.968335 1_555
O41 P11 1.535313 1_555
O41 Zn2 1.968335 1_555
O42 P0 1.560499 1_555
O43 P1 1.560499 1_555
O44 P2 1.560499 1_555
O45 P3 1.560499 1_555
O46 P4 1.560499 1_555
O47 P5 1.560499 1_555
O48 P6 1.560499 1_555
O49 P7 1.560499 1_555
O50 P8 1.560499 1_555
O51 P9 1.560499 1_555
O52 P10 1.560499 1_555
O53 P11 1.560499 1_555
O54 P9 1.540505 1_555
O54 Zn0 1.982353 1_555
O55 P7 1.540505 1_555
O55 Zn1 1.982353 1_555
O56 P6 1.540505 1_555
O56 Zn2 1.982353 1_555
O57 P5 1.540505 1_555
O57 Zn3 1.982352 1_555
O58 P11 1.540505 1_555
O58 Zn4 1.982352 1_555
O59 P3 1.540505 1_555
O59 Zn3 1.982353 1_554
O60 P2 1.540505 1_555
O60 Zn2 1.982353 1_555
O61 P1 1.540505 1_555
O61 Zn1 1.982352 1_555
O62 P10 1.540505 1_555
O62 Zn5 1.982352 1_555
O63 P0 1.540505 1_555
O63 Zn0 1.982353 1_555
O64 P8 1.540505 1_555
O64 Zn5 1.982353 1_555
O65 P4 1.540505 1_555
O65 Zn4 1.982353 1_556
