# generated using pymatgen
data_BaTiZnF7
_symmetry_space_group_name_H-M   'P 1'
_cell_length_a   10.08126200
_cell_length_b   5.71604500
_cell_length_c   9.68163113
_cell_angle_alpha   87.30159536
_cell_angle_beta   90.00000000
_cell_angle_gamma   90.00000000
_symmetry_Int_Tables_number   1
_chemical_formula_structural   BaTiZnF7
_chemical_formula_sum   'Ba4 Ti4 Zn4 F28'
_cell_volume   557.28487185
_cell_formula_units_Z   4
loop_
 _symmetry_equiv_pos_site_id
 _symmetry_equiv_pos_as_xyz
  1  'x, y, z'
loop_
 _atom_site_type_symbol
 _atom_site_label
 _atom_site_symmetry_multiplicity
 _atom_site_fract_x
 _atom_site_fract_y
 _atom_site_fract_z
 _atom_site_occupancy
  Ba  Ba0  1  0.31541400  0.73490900  0.49896900  1
  Ba  Ba1  1  0.81541400  0.26509100  0.00103100  1
  Ba  Ba2  1  0.68458600  0.26509100  0.50103100  1
  Ba  Ba3  1  0.18458600  0.73490900  0.99896900  1
  Ti  Ti0  1  0.61073000  0.80372100  0.81089600  1
  Ti  Ti1  1  0.38927000  0.19627900  0.18910400  1
  Ti  Ti2  1  0.88927000  0.80372100  0.31089600  1
  Ti  Ti3  1  0.11073000  0.19627900  0.68910400  1
  Zn  Zn0  1  0.39904900  0.30377400  0.80967400  1
  Zn  Zn1  1  0.89904900  0.69622600  0.69032600  1
  Zn  Zn2  1  0.10095100  0.30377400  0.30967400  1
  Zn  Zn3  1  0.60095100  0.69622600  0.19032600  1
  F  F0  1  0.44423200  0.88200200  0.12042100  1
  F  F1  1  0.05497200  0.63265800  0.37319200  1
  F  F2  1  0.71038200  0.51614800  0.75190700  1
  F  F3  1  0.28961800  0.48385200  0.24809300  1
  F  F4  1  0.45773800  0.10759600  0.36713700  1
  F  F5  1  0.80644000  0.74248300  0.49515500  1
  F  F6  1  0.78073900  0.97730400  0.75000700  1
  F  F7  1  0.95773800  0.89240400  0.13286300  1
  F  F8  1  0.44502800  0.63265800  0.87319200  1
  F  F9  1  0.21038200  0.48385200  0.74809300  1
  F  F10  1  0.05576800  0.88200200  0.62042100  1
  F  F11  1  0.55576800  0.11799800  0.87957900  1
  F  F12  1  0.28073900  0.02269600  0.74999300  1
  F  F13  1  0.95888900  0.61046700  0.87807400  1
  F  F14  1  0.54226200  0.89240400  0.63286300  1
  F  F15  1  0.04226200  0.10759600  0.86713700  1
  F  F16  1  0.21926100  0.02269600  0.24999300  1
  F  F17  1  0.94423200  0.11799800  0.37957900  1
  F  F18  1  0.45888900  0.38953300  0.62192600  1
  F  F19  1  0.94502800  0.36734200  0.62680800  1
  F  F20  1  0.04111100  0.38953300  0.12192600  1
  F  F21  1  0.71926100  0.97730400  0.25000700  1
  F  F22  1  0.54111100  0.61046700  0.37807400  1
  F  F23  1  0.30644000  0.25751700  0.00484500  1
  F  F24  1  0.19356000  0.25751700  0.50484500  1
  F  F25  1  0.69356000  0.74248300  0.99515500  1
  F  F26  1  0.55497200  0.36734200  0.12680800  1
  F  F27  1  0.78961800  0.51614800  0.25190700  1
loop_
_geom_bond_atom_site_label_1
_geom_bond_atom_site_label_2
_geom_bond_distance
_geom_bond_site_symmetry_2
Ba0 F22 2.670464 1_555
Ba0 F18 2.680547 1_555
Ba0 F14 2.798344 1_555
Ba0 F4 2.823097 1_565
Ba0 F3 2.890450 1_555
Ba0 F9 2.944833 1_555
Ba0 F1 2.963979 1_555
Ba0 F24 2.990653 1_555
Ba0 F10 3.005705 1_555
Ba0 F16 3.013766 1_565
Ba0 F12 3.018465 1_565
Ba0 F24 3.232951 1_565
Ba1 F20 2.670464 1_655
Ba1 F13 2.680547 1_554
Ba1 F15 2.798344 1_654
Ba1 F7 2.823097 1_545
Ba1 F27 2.890450 1_555
Ba1 F2 2.944833 1_554
Ba1 F26 2.963979 1_555
Ba1 F25 2.990653 1_554
Ba1 F11 3.005705 1_554
Ba1 F21 3.013766 1_545
Ba1 F6 3.018465 1_544
Ba1 F25 3.232951 1_544
Ba2 F18 2.670464 1_555
Ba2 F22 2.680547 1_555
Ba2 F4 2.798344 1_555
Ba2 F14 2.823097 1_545
Ba2 F2 2.890450 1_555
Ba2 F27 2.944833 1_555
Ba2 F19 2.963979 1_555
Ba2 F5 2.990653 1_555
Ba2 F17 3.005705 1_555
Ba2 F6 3.013766 1_545
Ba2 F21 3.018465 1_545
Ba2 F5 3.232951 1_545
Ba3 F13 2.670464 1_455
Ba3 F20 2.680547 1_556
Ba3 F7 2.798344 1_456
Ba3 F15 2.823097 1_565
Ba3 F9 2.890450 1_555
Ba3 F3 2.944833 1_556
Ba3 F8 2.963979 1_555
Ba3 F23 2.990653 1_556
Ba3 F0 3.005705 1_556
Ba3 F12 3.013766 1_565
Ba3 F16 3.018465 1_566
Ba3 F23 3.232951 1_566
F0 Zn3 2.003543 1_555
F0 Ti1 2.022077 1_565
F1 Ti2 2.013667 1_455
F1 Zn2 2.058146 1_555
F2 Ti0 2.031214 1_555
F2 Zn1 2.230429 1_555
F3 Ti1 2.031214 1_555
F3 Zn2 2.230429 1_555
F4 Ti1 1.903181 1_555
F5 Ti2 1.985801 1_555
F5 Zn1 2.113054 1_555
F6 Ti0 2.052898 1_555
F6 Zn1 2.103611 1_555
F7 Ti2 1.903181 1_555
F8 Ti0 2.013667 1_555
F8 Zn0 2.058146 1_555
F9 Ti3 2.031214 1_555
F9 Zn0 2.230429 1_555
F10 Zn1 2.003543 1_455
F10 Ti3 2.022077 1_565
F11 Zn0 2.003543 1_555
F11 Ti0 2.022077 1_545
F12 Ti3 2.052898 1_555
F12 Zn0 2.103611 1_555
F13 Zn1 1.955603 1_555
F14 Ti0 1.903181 1_555
F15 Ti3 1.903181 1_555
F16 Ti1 2.052898 1_555
F16 Zn2 2.103611 1_555
F17 Zn2 2.003543 1_655
F17 Ti2 2.022077 1_545
F18 Zn0 1.955603 1_555
F19 Ti3 2.013667 1_655
F19 Zn1 2.058146 1_555
F20 Zn2 1.955603 1_555
F21 Ti2 2.052898 1_555
F21 Zn3 2.103611 1_555
F22 Zn3 1.955603 1_555
F23 Ti1 1.985801 1_555
F23 Zn0 2.113054 1_554
F24 Ti3 1.985801 1_555
F24 Zn2 2.113054 1_555
F25 Ti0 1.985801 1_555
F25 Zn3 2.113054 1_556
F26 Ti1 2.013667 1_555
F26 Zn3 2.058146 1_555
F27 Ti2 2.031214 1_555
F27 Zn3 2.230429 1_555
