# generated using pymatgen
data_Sr3LaCr2(MoO6)2
_symmetry_space_group_name_H-M   'P 1'
_cell_length_a   5.59973900
_cell_length_b   5.72728800
_cell_length_c   7.99066079
_cell_angle_alpha   89.77467856
_cell_angle_beta   90.00000000
_cell_angle_gamma   90.00000000
_symmetry_Int_Tables_number   1
_chemical_formula_structural   Sr3LaCr2(MoO6)2
_chemical_formula_sum   'Sr3 La1 Cr2 Mo2 O12'
_cell_volume   256.26904136
_cell_formula_units_Z   1
loop_
 _symmetry_equiv_pos_site_id
 _symmetry_equiv_pos_as_xyz
  1  'x, y, z'
loop_
 _atom_site_type_symbol
 _atom_site_label
 _atom_site_symmetry_multiplicity
 _atom_site_fract_x
 _atom_site_fract_y
 _atom_site_fract_z
 _atom_site_occupancy
  Sr  Sr0  1  0.00000000  0.00037000  0.75515000  1
  Sr  Sr1  1  0.50000000  0.50376700  0.24629500  1
  Sr  Sr2  1  0.00000000  0.99169800  0.24448400  1
  La  La0  1  0.50000000  0.50375700  0.76472700  1
  Cr  Cr0  1  0.00000000  0.49861600  0.00018300  1
  Cr  Cr1  1  0.50000000  0.00130800  0.50012600  1
  Mo  Mo0  1  0.00000000  0.50043100  0.49916900  1
  Mo  Mo1  1  0.50000000  0.00134500  0.00255500  1
  O  O0  1  0.00000000  0.43898100  0.25118500  1
  O  O1  1  0.50000000  0.92762100  0.74681300  1
  O  O2  1  0.00000000  0.55737300  0.74919800  1
  O  O3  1  0.50000000  0.05992400  0.25388100  1
  O  O4  1  0.25111000  0.25640600  0.53813800  1
  O  O5  1  0.74689900  0.73912500  0.02321900  1
  O  O6  1  0.74889000  0.25640600  0.53813800  1
  O  O7  1  0.25310100  0.73912500  0.02321900  1
  O  O8  1  0.75378000  0.74908700  0.47139000  1
  O  O9  1  0.25606600  0.26278700  0.96037000  1
  O  O10  1  0.24622000  0.74908700  0.47139000  1
  O  O11  1  0.74393400  0.26278700  0.96037000  1
loop_
_geom_bond_atom_site_label_1
_geom_bond_atom_site_label_2
_geom_bond_distance
_geom_bond_site_symmetry_2
La0 O1 2.431246 1_555
La0 O11 2.489487 1_555
La0 O9 2.489487 1_555
La0 O6 2.692171 1_555
La0 O4 2.692171 1_555
La0 O2 2.819337 1_655
La0 O2 2.819337 1_555
La0 O5 2.831420 1_556
La0 O7 2.831420 1_556
La0 O8 3.076036 1_555
La0 O10 3.076036 1_555
Cr0 O7 1.985453 1_555
Cr0 O5 1.985453 1_455
Cr0 O11 1.996234 1_454
Cr0 O9 1.996234 1_554
Cr0 O2 2.032267 1_554
Cr0 O0 2.033221 1_555
Cr1 O3 1.994792 1_555
Cr1 O1 2.014240 1_545
Cr1 O8 2.039992 1_545
Cr1 O10 2.039992 1_545
Cr1 O4 2.042738 1_555
Cr1 O6 2.042738 1_555
Mo0 O8 1.993970 1_455
Mo0 O10 1.993970 1_555
Mo0 O6 2.006013 1_455
Mo0 O4 2.006013 1_555
Mo0 O0 2.013930 1_555
Mo0 O2 2.025604 1_555
Mo1 O3 2.037393 1_555
Mo1 O5 2.047497 1_545
Mo1 O7 2.047497 1_545
Mo1 O11 2.053677 1_554
Mo1 O9 2.053677 1_554
Mo1 O1 2.088339 1_544
O0 Sr2 2.562489 1_545
O0 Sr1 2.824599 1_555
O0 Sr1 2.824599 1_455
O0 Sr2 3.165812 1_555
O1 Sr0 2.831524 1_665
O1 Sr0 2.831524 1_565
O2 Sr0 2.537804 1_565
O2 Sr0 3.190284 1_555
O3 Sr1 2.542501 1_555
O3 Sr2 2.828042 1_645
O3 Sr2 2.828042 1_545
O3 Sr1 3.186086 1_545
O4 Sr0 2.667313 1_555
O4 Sr1 3.059712 1_555
O4 Sr2 3.132042 1_545
O5 Sr1 2.624309 1_555
O5 Sr2 2.692099 1_655
O5 Sr0 2.968264 1_664
O6 Sr0 2.667313 1_655
O6 Sr1 3.059712 1_555
O6 Sr2 3.132042 1_645
O7 Sr1 2.624309 1_555
O7 Sr2 2.692099 1_555
O7 Sr0 2.968264 1_564
O8 Sr2 2.664459 1_655
O8 Sr1 2.692332 1_555
O8 Sr0 3.023097 1_665
O9 Sr0 2.650164 1_555
O9 Sr1 3.002583 1_556
O9 Sr2 3.097258 1_546
O10 Sr2 2.664459 1_555
O10 Sr1 2.692332 1_555
O10 Sr0 3.023097 1_565
O11 Sr0 2.650164 1_655
O11 Sr1 3.002583 1_556
O11 Sr2 3.097258 1_646
