# generated using pymatgen
data_Ba5V3HO13
_symmetry_space_group_name_H-M   'P 1'
_cell_length_a   7.91192791
_cell_length_b   10.53824480
_cell_length_c   10.53822579
_cell_angle_alpha   120.00010754
_cell_angle_beta   90.00000000
_cell_angle_gamma   90.00000000
_symmetry_Int_Tables_number   1
_chemical_formula_structural   Ba5V3HO13
_chemical_formula_sum   'Ba10 V6 H2 O26'
_cell_volume   760.93623502
_cell_formula_units_Z   2
loop_
 _symmetry_equiv_pos_site_id
 _symmetry_equiv_pos_as_xyz
  1  'x, y, z'
loop_
 _atom_site_type_symbol
 _atom_site_label
 _atom_site_symmetry_multiplicity
 _atom_site_fract_x
 _atom_site_fract_y
 _atom_site_fract_z
 _atom_site_occupancy
  Ba  Ba0  1  0.49953561  0.66666427  0.33333144  1
  Ba  Ba1  1  0.99953561  0.33333573  0.66666856  1
  Ba  Ba2  1  0.50143992  0.33334036  0.66666934  1
  Ba  Ba3  1  0.00143992  0.66665964  0.33333066  1
  Ba  Ba4  1  0.75039439  0.24440798  0.98361938  1
  Ba  Ba5  1  0.75039429  0.01637807  0.26079332  1
  Ba  Ba6  1  0.75039433  0.73921432  0.75558816  1
  Ba  Ba7  1  0.25039439  0.75559202  0.01638062  1
  Ba  Ba8  1  0.25039429  0.98362193  0.73920568  1
  Ba  Ba9  1  0.25039433  0.26078568  0.24441184  1
  V  V0  1  0.74931041  0.96435592  0.59825178  1
  V  V1  1  0.74930984  0.40174402  0.36610238  1
  V  V2  1  0.74931093  0.63389822  0.03564503  1
  V  V3  1  0.24931041  0.03564408  0.40174822  1
  V  V4  1  0.24930984  0.59825598  0.63389762  1
  V  V5  1  0.24931093  0.36610178  0.96435497  1
  H  H0  1  0.57258807  0.00000140  0.00000434  1
  H  H1  1  0.07258807  0.99999860  0.99999566  1
  O  O0  1  0.75253733  0.87308536  0.40944002  1
  O  O1  1  0.75253980  0.59055193  0.46364614  1
  O  O2  1  0.75254162  0.53635322  0.12690621  1
  O  O3  1  0.25253733  0.12691464  0.59055998  1
  O  O4  1  0.25253980  0.40944807  0.53635386  1
  O  O5  1  0.25254162  0.46364678  0.87309379  1
  O  O6  1  0.57422664  0.90371315  0.64815531  1
  O  O7  1  0.57422840  0.35184668  0.25555935  1
  O  O8  1  0.57422959  0.74443754  0.09629198  1
  O  O9  1  0.07422664  0.09628685  0.35184469  1
  O  O10  1  0.07422840  0.64815332  0.74444065  1
  O  O11  1  0.07422959  0.25556246  0.90370802  1
  O  O12  1  0.42251068  0.09149168  0.34401526  1
  O  O13  1  0.42250730  0.65598413  0.74747760  1
  O  O14  1  0.42250585  0.25252319  0.90850789  1
  O  O15  1  0.92251068  0.90850832  0.65598474  1
  O  O16  1  0.92250730  0.34401587  0.25252240  1
  O  O17  1  0.92250585  0.74747681  0.09149211  1
  O  O18  1  0.74789259  0.15242007  0.67155666  1
  O  O19  1  0.74789065  0.32843747  0.48085704  1
  O  O20  1  0.74788898  0.51914932  0.84758502  1
  O  O21  1  0.24789259  0.84757993  0.32844334  1
  O  O22  1  0.24789065  0.67156253  0.51914296  1
  O  O23  1  0.24788898  0.48085068  0.15241498  1
  O  O24  1  0.69502177  0.00000018  0.00000123  1
  O  O25  1  0.19502177  0.99999982  0.99999877  1
loop_
_geom_bond_atom_site_label_1
_geom_bond_atom_site_label_2
_geom_bond_distance
_geom_bond_site_symmetry_2
Ba0 O0 2.763602 1_555
Ba0 O2 2.763645 1_555
Ba0 O1 2.763652 1_555
Ba0 O21 2.774841 1_555
Ba0 O22 2.774870 1_555
Ba0 O23 2.774898 1_555
Ba0 O8 3.050934 1_555
Ba0 O7 3.050986 1_555
Ba0 O6 3.051031 1_555
Ba1 O3 2.763602 1_655
Ba1 O5 2.763645 1_655
Ba1 O4 2.763652 1_655
Ba1 O18 2.774841 1_555
Ba1 O19 2.774870 1_555
Ba1 O20 2.774898 1_555
Ba1 O11 3.050934 1_655
Ba1 O10 3.050986 1_655
Ba1 O9 3.051031 1_655
Ba2 O5 2.740187 1_555
Ba2 O4 2.740203 1_555
Ba2 O3 2.740233 1_555
Ba2 O20 2.745521 1_555
Ba2 O19 2.745522 1_555
Ba2 O18 2.745556 1_555
Ba2 O13 3.127366 1_555
Ba2 O14 3.127460 1_555
Ba2 O12 3.127464 1_555
Ba3 O2 2.740187 1_455
Ba3 O1 2.740203 1_455
Ba3 O0 2.740233 1_455
Ba3 O23 2.745521 1_555
Ba3 O22 2.745522 1_555
Ba3 O21 2.745556 1_555
Ba3 O16 3.127366 1_455
Ba3 O17 3.127460 1_455
Ba3 O15 3.127464 1_455
Ba4 O2 2.664607 1_556
Ba4 O24 2.701898 1_556
Ba4 O11 2.717839 1_655
Ba4 O14 2.726092 1_555
Ba4 O16 2.830515 1_556
Ba4 O7 2.862265 1_556
Ba4 O18 2.926940 1_555
Ba5 O0 2.664555 1_545
Ba5 O24 2.701936 1_555
Ba5 O9 2.717784 1_655
Ba5 O12 2.726049 1_555
Ba5 O17 2.830508 1_545
Ba5 O8 2.862267 1_545
Ba5 O19 2.926890 1_555
Ba6 O1 2.664573 1_555
Ba6 O24 2.701894 1_566
Ba6 O10 2.717824 1_655
Ba6 O13 2.726098 1_555
Ba6 O15 2.830492 1_555
Ba6 O6 2.862213 1_555
Ba6 O20 2.926918 1_555
Ba7 O5 2.664607 1_554
Ba7 O25 2.701898 1_554
Ba7 O8 2.717839 1_555
Ba7 O17 2.726092 1_455
Ba7 O13 2.830515 1_554
Ba7 O10 2.862265 1_554
Ba7 O21 2.926940 1_555
Ba8 O3 2.664545 1_565
Ba8 O25 2.701947 1_555
Ba8 O6 2.717781 1_555
Ba8 O15 2.726047 1_455
Ba8 O14 2.830510 1_565
Ba8 O11 2.862268 1_565
Ba8 O22 2.926888 1_555
Ba9 O4 2.664573 1_555
Ba9 O25 2.701894 1_544
Ba9 O7 2.717824 1_555
Ba9 O16 2.726098 1_455
Ba9 O12 2.830492 1_555
Ba9 O9 2.862213 1_555
Ba9 O23 2.926918 1_555
H0 O24 0.968687 1_555
H1 O25 0.968687 1_555
O0 V0 1.723670 1_555
O1 V1 1.723639 1_555
O2 V2 1.723625 1_555
O3 V3 1.723670 1_555
O4 V4 1.723639 1_555
O5 V5 1.723625 1_555
O6 V0 1.714636 1_555
O7 V1 1.714603 1_555
O8 V2 1.714585 1_555
O9 V3 1.714636 1_555
O10 V4 1.714603 1_555
O11 V5 1.714585 1_555
O12 V3 1.718270 1_555
O13 V4 1.718247 1_555
O14 V5 1.718224 1_555
O15 V0 1.718270 1_555
O16 V1 1.718247 1_555
O17 V2 1.718224 1_555
O18 V0 1.730225 1_545
O19 V1 1.730194 1_555
O20 V2 1.730172 1_556
O21 V3 1.730225 1_565
O22 V4 1.730194 1_555
O23 V5 1.730172 1_554
