# generated using pymatgen
data_Mg(ScS2)2
_symmetry_space_group_name_H-M   'P 1'
_cell_length_a   12.81033700
_cell_length_b   7.47664300
_cell_length_c   6.32674100
_cell_angle_alpha   90.00000000
_cell_angle_beta   90.00000000
_cell_angle_gamma   90.00000000
_symmetry_Int_Tables_number   1
_chemical_formula_structural   Mg(ScS2)2
_chemical_formula_sum   'Mg4 Sc8 S16'
_cell_volume   605.96460165
_cell_formula_units_Z   4
loop_
 _symmetry_equiv_pos_site_id
 _symmetry_equiv_pos_as_xyz
  1  'x, y, z'
loop_
 _atom_site_type_symbol
 _atom_site_label
 _atom_site_symmetry_multiplicity
 _atom_site_fract_x
 _atom_site_fract_y
 _atom_site_fract_z
 _atom_site_occupancy
  Mg  Mg0  1  0.09411000  0.25000000  0.92625300  1
  Mg  Mg1  1  0.90589000  0.75000000  0.07374700  1
  Mg  Mg2  1  0.40589000  0.75000000  0.42625300  1
  Mg  Mg3  1  0.59411000  0.25000000  0.57374700  1
  Sc  Sc0  1  0.00000000  0.00000000  0.50000000  1
  Sc  Sc1  1  0.50000000  0.00000000  0.00000000  1
  Sc  Sc2  1  0.50000000  0.50000000  0.00000000  1
  Sc  Sc3  1  0.00000000  0.50000000  0.50000000  1
  Sc  Sc4  1  0.23407900  0.75000000  0.00280200  1
  Sc  Sc5  1  0.76592100  0.25000000  0.99719800  1
  Sc  Sc6  1  0.26592100  0.25000000  0.50280200  1
  Sc  Sc7  1  0.73407900  0.75000000  0.49719800  1
  S  S0  1  0.16966800  0.99851400  0.73438900  1
  S  S1  1  0.83033200  0.00148600  0.26561100  1
  S  S2  1  0.33033200  0.00148600  0.23438900  1
  S  S3  1  0.66966800  0.99851400  0.76561100  1
  S  S4  1  0.66966800  0.50148600  0.76561100  1
  S  S5  1  0.33033200  0.49851400  0.23438900  1
  S  S6  1  0.83033200  0.49851400  0.26561100  1
  S  S7  1  0.16966800  0.50148600  0.73438900  1
  S  S8  1  0.07662300  0.75000000  0.25496300  1
  S  S9  1  0.92337700  0.25000000  0.74503700  1
  S  S10  1  0.42337700  0.25000000  0.75496300  1
  S  S11  1  0.57662300  0.75000000  0.24503700  1
  S  S12  1  0.09127500  0.25000000  0.30229400  1
  S  S13  1  0.90872500  0.75000000  0.69770600  1
  S  S14  1  0.40872500  0.75000000  0.80229400  1
  S  S15  1  0.59127500  0.25000000  0.19770600  1
loop_
_geom_bond_atom_site_label_1
_geom_bond_atom_site_label_2
_geom_bond_distance
_geom_bond_site_symmetry_2
Mg0 S12 2.379391 1_556
Mg0 S7 2.438398 1_555
Mg0 S0 2.438398 1_545
Mg0 S9 2.469431 1_455
Mg1 S13 2.379391 1_554
Mg1 S1 2.438398 1_565
Mg1 S6 2.438398 1_555
Mg1 S8 2.469431 1_655
Mg2 S14 2.379391 1_555
Mg2 S2 2.438398 1_565
Mg2 S5 2.438398 1_555
Mg2 S11 2.469431 1_555
Mg3 S15 2.379391 1_555
Mg3 S4 2.438398 1_555
Mg3 S3 2.438398 1_545
Mg3 S10 2.469431 1_555
S0 Sc0 2.631215 1_565
S0 Sc4 2.648962 1_556
S0 Sc6 2.683761 1_565
S1 Sc0 2.631215 1_655
S1 Sc5 2.648962 1_554
S1 Sc7 2.683761 1_545
S2 Sc1 2.631215 1_555
S2 Sc6 2.648962 1_555
S2 Sc4 2.683761 1_545
S3 Sc1 2.631215 1_566
S3 Sc7 2.648962 1_555
S3 Sc5 2.683761 1_565
S4 Sc2 2.631215 1_556
S4 Sc7 2.648962 1_555
S4 Sc5 2.683761 1_555
S5 Sc2 2.631215 1_555
S5 Sc6 2.648962 1_555
S5 Sc4 2.683761 1_555
S6 Sc3 2.631215 1_655
S6 Sc5 2.648962 1_554
S6 Sc7 2.683761 1_555
S7 Sc3 2.631215 1_555
S7 Sc4 2.648962 1_556
S7 Sc6 2.683761 1_555
S8 Sc4 2.571714 1_555
S8 Sc3 2.619279 1_555
S8 Sc0 2.619279 1_565
S9 Sc5 2.571714 1_555
S9 Sc3 2.619279 1_655
S9 Sc0 2.619279 1_655
S10 Sc6 2.571714 1_555
S10 Sc1 2.619279 1_556
S10 Sc2 2.619279 1_556
S11 Sc7 2.571714 1_555
S11 Sc1 2.619279 1_565
S11 Sc2 2.619279 1_555
S12 Sc0 2.534862 1_555
S12 Sc3 2.534862 1_555
S12 Sc6 2.571895 1_555
S13 Sc0 2.534862 1_665
S13 Sc3 2.534862 1_655
S13 Sc7 2.571895 1_555
S14 Sc2 2.534862 1_556
S14 Sc1 2.534862 1_566
S14 Sc4 2.571895 1_556
S15 Sc1 2.534862 1_555
S15 Sc2 2.534862 1_555
S15 Sc5 2.571895 1_554
