# generated using pymatgen
data_LiMg6SbO8
_symmetry_space_group_name_H-M   'P 1'
_cell_length_a   8.69381127
_cell_length_b   4.33460960
_cell_length_c   4.33460960
_cell_angle_alpha   90.00000000
_cell_angle_beta   90.00000000
_cell_angle_gamma   90.00000000
_symmetry_Int_Tables_number   1
_chemical_formula_structural   LiMg6SbO8
_chemical_formula_sum   'Li1 Mg6 Sb1 O8'
_cell_volume   163.34663228
_cell_formula_units_Z   1
loop_
 _symmetry_equiv_pos_site_id
 _symmetry_equiv_pos_as_xyz
  1  'x, y, z'
loop_
 _atom_site_type_symbol
 _atom_site_label
 _atom_site_symmetry_multiplicity
 _atom_site_fract_x
 _atom_site_fract_y
 _atom_site_fract_z
 _atom_site_occupancy
  Li  Li0  1  0.00000000  0.00000000  0.00000000  1
  Mg  Mg0  1  0.00000000  0.50000000  0.50000000  1
  Mg  Mg1  1  0.50000000  0.50000000  0.50000000  1
  Mg  Mg2  1  0.22636409  0.00000000  0.50000000  1
  Mg  Mg3  1  0.77363591  0.00000000  0.50000000  1
  Mg  Mg4  1  0.22636409  0.50000000  -0.00000000  1
  Mg  Mg5  1  0.77363591  0.50000000  0.00000000  1
  Sb  Sb0  1  0.50000000  0.00000000  0.00000000  1
  O  O0  1  0.24222859  -0.00000000  -0.00000000  1
  O  O1  1  0.75777141  0.00000000  0.00000000  1
  O  O2  1  0.25392293  0.50000000  0.50000000  1
  O  O3  1  0.74607707  0.50000000  0.50000000  1
  O  O4  1  0.00000000  0.00000000  0.50000000  1
  O  O5  1  0.50000000  0.00000000  0.50000000  1
  O  O6  1  -0.00000000  0.50000000  0.00000000  1
  O  O7  1  0.50000000  0.50000000  0.00000000  1
loop_
_geom_bond_atom_site_label_1
_geom_bond_atom_site_label_2
_geom_bond_distance
_geom_bond_site_symmetry_2
Li0 O0 2.105890 1_555
Li0 O1 2.105890 1_455
Li0 O6 2.167305 1_555
Li0 O4 2.167305 1_555
Li0 O4 2.167305 1_554
Li0 O6 2.167305 1_545
Mg0 O6 2.167305 1_556
Mg0 O6 2.167305 1_555
Mg0 O4 2.167305 1_555
Mg0 O4 2.167305 1_565
Mg0 O2 2.207558 1_555
Mg0 O3 2.207558 1_455
Mg1 O2 2.139348 1_555
Mg1 O3 2.139348 1_555
Mg1 O5 2.167305 1_565
Mg1 O7 2.167305 1_555
Mg1 O7 2.167305 1_556
Mg1 O5 2.167305 1_555
Mg2 O4 1.967967 1_555
Mg2 O0 2.171689 1_555
Mg2 O0 2.171689 1_556
Mg2 O2 2.180508 1_545
Mg2 O2 2.180508 1_555
Mg2 O5 2.378939 1_555
Mg3 O4 1.967967 1_655
Mg3 O1 2.171689 1_555
Mg3 O1 2.171689 1_556
Mg3 O3 2.180508 1_545
Mg3 O3 2.180508 1_555
Mg3 O5 2.378939 1_555
Mg4 O6 1.967967 1_555
Mg4 O0 2.171689 1_555
Mg4 O0 2.171689 1_565
Mg4 O2 2.180508 1_554
Mg4 O2 2.180508 1_555
Mg4 O7 2.378939 1_555
Mg5 O6 1.967967 1_655
Mg5 O1 2.171689 1_555
Mg5 O1 2.171689 1_565
Mg5 O3 2.180508 1_554
Mg5 O3 2.180508 1_555
Mg5 O7 2.378939 1_555
O0 Sb0 2.241016 1_555
O1 Sb0 2.241016 1_555
O5 Sb0 2.167305 1_556
O5 Sb0 2.167305 1_555
O7 Sb0 2.167305 1_555
O7 Sb0 2.167305 1_565
