# generated using pymatgen
data_Nd10Se19
_symmetry_space_group_name_H-M   'P 1'
_cell_length_a   9.32667970
_cell_length_b   9.32667970
_cell_length_c   17.00037083
_cell_angle_alpha   90.00000000
_cell_angle_beta   90.00000000
_cell_angle_gamma   90.00000000
_symmetry_Int_Tables_number   1
_chemical_formula_structural   Nd10Se19
_chemical_formula_sum   'Nd20 Se38'
_cell_volume   1478.81047923
_cell_formula_units_Z   2
loop_
 _symmetry_equiv_pos_site_id
 _symmetry_equiv_pos_as_xyz
  1  'x, y, z'
loop_
 _atom_site_type_symbol
 _atom_site_label
 _atom_site_symmetry_multiplicity
 _atom_site_fract_x
 _atom_site_fract_y
 _atom_site_fract_z
 _atom_site_occupancy
  Nd  Nd0  1  0.25000000  0.75000000  0.11602687  1
  Nd  Nd1  1  0.25000000  0.75000000  0.61602687  1
  Nd  Nd2  1  0.75000000  0.25000000  0.88397313  1
  Nd  Nd3  1  0.75000000  0.25000000  0.38397313  1
  Nd  Nd4  1  0.55365883  0.64767908  0.89482091  1
  Nd  Nd5  1  0.35232092  0.05365883  0.39482091  1
  Nd  Nd6  1  0.14767908  0.44634117  0.39482091  1
  Nd  Nd7  1  0.94634117  0.85232092  0.89482091  1
  Nd  Nd8  1  0.44634117  0.35232092  0.10517909  1
  Nd  Nd9  1  0.64767908  0.94634117  0.60517909  1
  Nd  Nd10  1  0.85232092  0.55365883  0.60517909  1
  Nd  Nd11  1  0.05365883  0.14767908  0.10517909  1
  Nd  Nd12  1  0.45702056  0.34715384  0.62034021  1
  Nd  Nd13  1  0.65284616  0.95702156  0.12034021  1
  Nd  Nd14  1  0.84715384  0.54297844  0.12034021  1
  Nd  Nd15  1  0.04297844  0.15284616  0.62034021  1
  Nd  Nd16  1  0.54297844  0.65284616  0.37965979  1
  Nd  Nd17  1  0.34715384  0.04297844  0.87965979  1
  Nd  Nd18  1  0.15284616  0.45702056  0.87965979  1
  Nd  Nd19  1  0.95702156  0.84715384  0.37965979  1
  Se  Se0  1  0.75000000  0.25000000  0.06489391  1
  Se  Se1  1  0.75000000  0.25000000  0.56489391  1
  Se  Se2  1  0.25000000  0.75000000  0.93510609  1
  Se  Se3  1  0.25000000  0.75000000  0.43510609  1
  Se  Se4  1  0.85071742  0.55288217  0.93725391  1
  Se  Se5  1  0.44711783  0.35071742  0.43725391  1
  Se  Se6  1  0.05288217  0.14928258  0.43725391  1
  Se  Se7  1  0.64928258  0.94711783  0.93725391  1
  Se  Se8  1  0.14928258  0.44711783  0.06274609  1
  Se  Se9  1  0.55288217  0.64928258  0.56274609  1
  Se  Se10  1  0.94711783  0.85071742  0.56274609  1
  Se  Se11  1  0.35071742  0.05288217  0.06274609  1
  Se  Se12  1  0.45133387  0.34782976  0.92837223  1
  Se  Se13  1  0.65217024  0.95133387  0.42837223  1
  Se  Se14  1  0.84782976  0.54866613  0.42837223  1
  Se  Se15  1  0.04866613  0.15217024  0.92837223  1
  Se  Se16  1  0.54866613  0.65217024  0.07162777  1
  Se  Se17  1  0.34782976  0.04866613  0.57162777  1
  Se  Se18  1  0.15217024  0.45133387  0.57162777  1
  Se  Se19  1  0.95133387  0.84782976  0.07162777  1
  Se  Se20  1  0.88285517  0.06824352  0.24956921  1
  Se  Se21  1  0.93175648  0.38285517  0.74956921  1
  Se  Se22  1  0.56824352  0.11714483  0.74956921  1
  Se  Se23  1  0.61714483  0.43175648  0.24956921  1
  Se  Se24  1  0.11714483  0.93175648  0.75043079  1
  Se  Se25  1  0.06824352  0.61714483  0.25043079  1
  Se  Se26  1  0.43175648  0.88285517  0.25043079  1
  Se  Se27  1  0.38285517  0.56824352  0.75043079  1
  Se  Se28  1  0.97148078  0.32429571  0.25028892  1
  Se  Se29  1  0.67570429  0.47148078  0.75028892  1
  Se  Se30  1  0.82429571  0.02851922  0.75028892  1
  Se  Se31  1  0.52851922  0.17570429  0.25028892  1
  Se  Se32  1  0.02851922  0.67570429  0.74971108  1
  Se  Se33  1  0.32429571  0.52851922  0.24971108  1
  Se  Se34  1  0.17570429  0.97148078  0.24971108  1
  Se  Se35  1  0.47148078  0.82429571  0.74971108  1
  Se  Se36  1  0.75000000  0.75000000  0.25000000  1
  Se  Se37  1  0.25000000  0.25000000  0.75000000  1
loop_
_geom_bond_atom_site_label_1
_geom_bond_atom_site_label_2
_geom_bond_distance
_geom_bond_site_symmetry_2
Nd0 Se16 3.026815 1_555
Nd0 Se19 3.026815 1_455
Nd0 Se2 3.075720 1_554
Nd0 Se26 3.103201 1_555
Nd0 Se25 3.103201 1_555
Nd0 Se11 3.111725 1_565
Nd0 Se8 3.111725 1_555
Nd0 Se33 3.148376 1_555
Nd0 Se34 3.148376 1_555
Nd1 Se17 3.026815 1_565
Nd1 Se18 3.026815 1_555
Nd1 Se3 3.075720 1_555
Nd1 Se24 3.103201 1_555
Nd1 Se27 3.103201 1_555
Nd1 Se10 3.111725 1_455
Nd1 Se9 3.111725 1_555
Nd1 Se35 3.148376 1_555
Nd1 Se32 3.148376 1_555
Nd2 Se12 3.026815 1_555
Nd2 Se15 3.026815 1_655
Nd2 Se0 3.075720 1_556
Nd2 Se22 3.103201 1_555
Nd2 Se21 3.103201 1_555
Nd2 Se7 3.111725 1_545
Nd2 Se4 3.111725 1_555
Nd2 Se30 3.148376 1_555
Nd2 Se29 3.148376 1_555
Nd3 Se13 3.026815 1_545
Nd3 Se14 3.026815 1_555
Nd3 Se1 3.075720 1_555
Nd3 Se23 3.103201 1_555
Nd3 Se20 3.103201 1_555
Nd3 Se6 3.111725 1_655
Nd3 Se5 3.111725 1_555
Nd3 Se31 3.148376 1_555
Nd3 Se28 3.148376 1_555
Nd4 Se4 2.996356 1_555
Nd4 Se16 3.006435 1_556
Nd4 Se12 3.009500 1_555
Nd4 Se27 3.018628 1_555
Nd4 Se7 3.019163 1_555
Nd4 Se35 3.063750 1_555
Nd4 Se2 3.066057 1_555
Nd4 Se29 3.167584 1_555
Nd5 Se5 2.996356 1_555
Nd5 Se17 3.006435 1_555
Nd5 Se13 3.009500 1_545
Nd5 Se26 3.018628 1_545
Nd5 Se6 3.019163 1_555
Nd5 Se34 3.063750 1_545
Nd5 Se3 3.066057 1_545
Nd5 Se31 3.167584 1_555
Nd6 Se6 2.996356 1_555
Nd6 Se18 3.006435 1_555
Nd6 Se14 3.009500 1_455
Nd6 Se25 3.018628 1_555
Nd6 Se5 3.019163 1_555
Nd6 Se33 3.063750 1_555
Nd6 Se3 3.066057 1_555
Nd6 Se28 3.167584 1_455
Nd7 Se7 2.996356 1_555
Nd7 Se19 3.006435 1_556
Nd7 Se15 3.009500 1_665
Nd7 Se24 3.018628 1_655
Nd7 Se4 3.019163 1_555
Nd7 Se32 3.063750 1_655
Nd7 Se2 3.066057 1_655
Nd7 Se30 3.167584 1_565
Nd8 Se8 2.996356 1_555
Nd8 Se12 3.006435 1_554
Nd8 Se16 3.009500 1_555
Nd8 Se23 3.018628 1_555
Nd8 Se11 3.019163 1_555
Nd8 Se31 3.063750 1_555
Nd8 Se0 3.066057 1_555
Nd8 Se33 3.167584 1_555
Nd9 Se9 2.996356 1_555
Nd9 Se13 3.006435 1_555
Nd9 Se17 3.009500 1_565
Nd9 Se22 3.018628 1_565
Nd9 Se10 3.019163 1_555
Nd9 Se30 3.063750 1_565
Nd9 Se1 3.066057 1_565
Nd9 Se35 3.167584 1_555
Nd10 Se10 2.996356 1_555
Nd10 Se14 3.006435 1_555
Nd10 Se18 3.009500 1_655
Nd10 Se21 3.018628 1_555
Nd10 Se9 3.019163 1_555
Nd10 Se29 3.063750 1_555
Nd10 Se1 3.066057 1_555
Nd10 Se32 3.167584 1_655
Nd11 Se11 2.996356 1_555
Nd11 Se15 3.006435 1_554
Nd11 Se19 3.009500 1_445
Nd11 Se20 3.018628 1_455
Nd11 Se8 3.019163 1_555
Nd11 Se28 3.063750 1_455
Nd11 Se0 3.066057 1_455
Nd11 Se34 3.167584 1_545
Nd12 Se1 3.029235 1_555
Nd12 Se37 3.067228 1_555
Nd12 Se17 3.077825 1_555
Nd12 Se27 3.101866 1_555
Nd12 Se5 3.114082 1_555
Nd12 Se9 3.114220 1_555
Nd12 Se18 3.116718 1_555
Nd12 Se29 3.222572 1_555
Nd12 Se22 3.241079 1_555
Nd13 Se0 3.029226 1_565
Nd13 Se36 3.067233 1_555
Nd13 Se19 3.077828 1_555
Nd13 Se26 3.101868 1_555
Nd13 Se7 3.114083 1_554
Nd13 Se11 3.114217 1_565
Nd13 Se16 3.116726 1_555
Nd13 Se31 3.222567 1_565
Nd13 Se20 3.241076 1_565
Nd14 Se0 3.029226 1_555
Nd14 Se36 3.067233 1_555
Nd14 Se16 3.077828 1_555
Nd14 Se25 3.101868 1_655
Nd14 Se4 3.114083 1_554
Nd14 Se8 3.114217 1_655
Nd14 Se19 3.116726 1_555
Nd14 Se28 3.222567 1_555
Nd14 Se23 3.241076 1_555
Nd15 Se1 3.029226 1_455
Nd15 Se37 3.067233 1_555
Nd15 Se18 3.077828 1_555
Nd15 Se24 3.101868 1_545
Nd15 Se6 3.114083 1_555
Nd15 Se10 3.114217 1_445
Nd15 Se17 3.116726 1_555
Nd15 Se30 3.222567 1_455
Nd15 Se21 3.241076 1_455
Nd16 Se3 3.029226 1_555
Nd16 Se36 3.067233 1_555
Nd16 Se13 3.077828 1_555
Nd16 Se23 3.101868 1_555
Nd16 Se9 3.114083 1_555
Nd16 Se5 3.114217 1_555
Nd16 Se14 3.116726 1_555
Nd16 Se33 3.222567 1_555
Nd16 Se26 3.241076 1_555
Nd17 Se2 3.029226 1_545
Nd17 Se37 3.067233 1_555
Nd17 Se15 3.077828 1_555
Nd17 Se22 3.101868 1_555
Nd17 Se11 3.114083 1_556
Nd17 Se7 3.114217 1_545
Nd17 Se12 3.116726 1_555
Nd17 Se35 3.222567 1_545
Nd17 Se24 3.241076 1_545
Nd18 Se2 3.029235 1_555
Nd18 Se37 3.067228 1_555
Nd18 Se12 3.077825 1_555
Nd18 Se21 3.101866 1_455
Nd18 Se8 3.114082 1_556
Nd18 Se4 3.114220 1_455
Nd18 Se15 3.116718 1_555
Nd18 Se32 3.222572 1_555
Nd18 Se27 3.241079 1_555
Nd19 Se3 3.029226 1_655
Nd19 Se36 3.067233 1_555
Nd19 Se14 3.077828 1_555
Nd19 Se20 3.101868 1_565
Nd19 Se10 3.114083 1_555
Nd19 Se6 3.114217 1_665
Nd19 Se13 3.116726 1_555
Nd19 Se34 3.222567 1_655
Nd19 Se25 3.241076 1_655
Se20 Se28 2.527151 1_555
Se20 Se34 2.876547 1_645
Se21 Se29 2.527151 1_555
Se21 Se32 2.876547 1_655
Se22 Se30 2.527151 1_555
Se22 Se35 2.876547 1_545
Se23 Se31 2.527151 1_555
Se23 Se33 2.876547 1_555
Se24 Se32 2.527151 1_555
Se24 Se30 2.876547 1_465
Se25 Se33 2.527151 1_555
Se25 Se28 2.876547 1_455
Se26 Se34 2.527151 1_555
Se26 Se31 2.876547 1_565
Se27 Se35 2.527151 1_555
Se27 Se29 2.876547 1_555
