# generated using pymatgen
data_Li8(CoO2)5
_symmetry_space_group_name_H-M   'P 1'
_cell_length_a   5.36543360
_cell_length_b   5.36543360
_cell_length_c   14.33518142
_cell_angle_alpha   74.67750766
_cell_angle_beta   74.67750766
_cell_angle_gamma   39.16966481
_symmetry_Int_Tables_number   1
_chemical_formula_structural   Li8(CoO2)5
_chemical_formula_sum   'Li8 Co5 O10'
_cell_volume   250.19349783
_cell_formula_units_Z   1
loop_
 _symmetry_equiv_pos_site_id
 _symmetry_equiv_pos_as_xyz
  1  'x, y, z'
loop_
 _atom_site_type_symbol
 _atom_site_label
 _atom_site_symmetry_multiplicity
 _atom_site_fract_x
 _atom_site_fract_y
 _atom_site_fract_z
 _atom_site_occupancy
  Li  Li0  1  0.78766700  0.78766700  0.34170400  1
  Li  Li1  1  0.21390600  0.21390600  0.46344500  1
  Li  Li2  1  0.22782400  0.22782400  0.24314100  1
  Li  Li3  1  0.22330400  0.22330400  0.06637500  1
  Li  Li4  1  0.78892100  0.78892100  0.94674900  1
  Li  Li5  1  0.77781600  0.77781600  0.73013900  1
  Li  Li6  1  0.77764600  0.77764600  0.55798700  1
  Li  Li7  1  0.21195700  0.21195700  0.85325000  1
  Co  Co0  1  0.50028000  0.50028000  0.80057300  1
  Co  Co1  1  0.49366800  0.49366800  0.60542800  1
  Co  Co2  1  0.50246700  0.50246700  0.39940500  1
  Co  Co3  1  0.50164600  0.50164600  0.00221600  1
  Co  Co4  1  0.50793500  0.50793500  0.19833300  1
  O  O0  1  0.37567100  0.37567100  0.12101900  1
  O  O1  1  0.62758700  0.62758700  0.67257600  1
  O  O2  1  0.63628400  0.63628400  0.47499900  1
  O  O3  1  0.63927700  0.63927700  0.27705400  1
  O  O4  1  0.36601500  0.36601500  0.93432300  1
  O  O5  1  0.63679100  0.63679100  0.06574000  1
  O  O6  1  0.35642000  0.35642000  0.73135700  1
  O  O7  1  0.37000700  0.37000700  0.52422200  1
  O  O8  1  0.36284200  0.36284200  0.32960600  1
  O  O9  1  0.63655100  0.63655100  0.87989600  1
loop_
_geom_bond_atom_site_label_1
_geom_bond_atom_site_label_2
_geom_bond_distance
_geom_bond_site_symmetry_2
Li0 O8 1.941235 1_655
Li0 O8 1.941235 1_565
Li0 O3 1.972188 1_555
Li0 O2 2.086404 1_555
Li1 O2 1.950639 1_545
Li1 O2 1.950639 1_455
Li1 O7 2.005260 1_555
Li1 O8 2.080327 1_555
Li2 O0 1.957321 1_555
Li2 O3 2.007047 1_545
Li2 O3 2.007047 1_455
Li2 O8 2.085373 1_555
Li3 O0 1.914013 1_555
Li3 O5 2.001045 1_545
Li3 O5 2.001045 1_455
Li3 O4 2.032983 1_554
Li4 O4 1.948325 1_565
Li4 O4 1.948325 1_655
Li4 O5 1.950255 1_556
Li4 O9 2.029685 1_555
Li5 O1 1.921141 1_555
Li5 O6 1.968309 1_655
Li5 O6 1.968309 1_565
Li5 O9 2.220034 1_555
Li6 O1 1.897885 1_555
Li6 O7 2.021707 1_655
Li6 O7 2.021707 1_565
Li6 O2 2.100370 1_555
Li7 O6 1.937732 1_555
Li7 O9 1.948939 1_455
Li7 O9 1.948939 1_545
Li7 O4 2.189071 1_555
Co0 O1 1.923155 1_555
Co0 O6 1.977222 1_555
Co0 O4 2.014645 1_555
Co0 O9 2.017397 1_555
Co1 O1 1.868355 1_555
Co1 O7 1.932508 1_555
Co1 O6 1.943979 1_555
Co1 O2 2.015575 1_555
Co2 O3 1.904866 1_555
Co2 O7 1.910696 1_555
Co2 O8 1.945800 1_555
Co2 O2 1.956281 1_555
Co3 O0 1.818178 1_555
Co3 O5 1.842289 1_555
Co3 O4 1.891072 1_554
Co3 O9 1.895610 1_554
Co4 O0 1.961580 1_555
Co4 O3 1.969085 1_555
Co4 O5 1.980135 1_555
Co4 O8 2.035818 1_555
