# generated using pymatgen
data_CaMo2(PO5)2
_symmetry_space_group_name_H-M   'P 1'
_cell_length_a   10.12638968
_cell_length_b   8.91505181
_cell_length_c   7.19067712
_cell_angle_alpha   77.09211202
_cell_angle_beta   59.10741409
_cell_angle_gamma   43.80047389
_symmetry_Int_Tables_number   1
_chemical_formula_structural   CaMo2(PO5)2
_chemical_formula_sum   'Ca2 Mo4 P4 O20'
_cell_volume   373.54255662
_cell_formula_units_Z   2
loop_
 _symmetry_equiv_pos_site_id
 _symmetry_equiv_pos_as_xyz
  1  'x, y, z'
loop_
 _atom_site_type_symbol
 _atom_site_label
 _atom_site_symmetry_multiplicity
 _atom_site_fract_x
 _atom_site_fract_y
 _atom_site_fract_z
 _atom_site_occupancy
  Ca  Ca0  1  0.25000000  0.25000000  0.25000000  1
  Ca  Ca1  1  0.00000000  0.00000000  0.00000000  1
  Mo  Mo0  1  0.62500000  0.62500000  0.12500000  1
  Mo  Mo1  1  0.62500000  0.12500000  0.62500000  1
  Mo  Mo2  1  0.62500000  0.62500000  0.62500000  1
  Mo  Mo3  1  0.12500000  0.62500000  0.62500000  1
  P  P0  1  0.79485500  0.79485500  0.20514500  1
  P  P1  1  0.45514500  0.45514500  0.04485500  1
  P  P2  1  0.20514500  0.20514500  0.79485500  1
  P  P3  1  0.04485500  0.04485500  0.45514500  1
  O  O0  1  0.97283600  0.32155000  0.99803100  1
  O  O1  1  0.41585400  0.41585400  0.58414600  1
  O  O2  1  0.91203600  0.06487600  0.38334800  1
  O  O3  1  0.25196900  0.54241700  0.27716400  1
  O  O4  1  0.32155000  0.97283600  0.70758300  1
  O  O5  1  0.33796400  0.18512400  0.86665200  1
  O  O6  1  0.83414600  0.83414600  0.66585400  1
  O  O7  1  0.58414600  0.58414600  0.41585400  1
  O  O8  1  0.66585400  0.66585400  0.83414600  1
  O  O9  1  0.27716400  0.92845000  0.25196900  1
  O  O10  1  0.70758300  0.99803100  0.32155000  1
  O  O11  1  0.54241700  0.25196900  0.92845000  1
  O  O12  1  0.99803100  0.70758300  0.97283600  1
  O  O13  1  0.06487600  0.91203600  0.63974100  1
  O  O14  1  0.61025900  0.86665200  0.18512400  1
  O  O15  1  0.38334800  0.63974100  0.91203600  1
  O  O16  1  0.86665200  0.61025900  0.33796400  1
  O  O17  1  0.63974100  0.38334800  0.06487600  1
  O  O18  1  0.92845000  0.27716400  0.54241700  1
  O  O19  1  0.18512400  0.33796400  0.61025900  1
loop_
_geom_bond_atom_site_label_1
_geom_bond_atom_site_label_2
_geom_bond_distance
_geom_bond_site_symmetry_2
Ca0 O19 2.484682 1_555
Ca0 O14 2.484685 1_545
Ca0 O16 2.484687 1_455
Ca0 O5 2.484689 1_554
Ca0 O18 2.672278 1_455
Ca0 O9 2.672278 1_545
Ca0 O3 2.672278 1_555
Ca0 O11 2.672278 1_554
Ca1 O13 2.484682 1_544
Ca1 O17 2.484685 1_455
Ca1 O15 2.484687 1_544
Ca1 O2 2.484689 1_455
Ca1 O0 2.672278 1_454
Ca1 O12 2.672278 1_444
Ca1 O10 2.672278 1_445
Ca1 O4 2.672278 1_544
Mo0 O8 1.914843 1_554
Mo0 O7 1.914843 1_555
Mo0 O0 2.145945 1_554
Mo0 O9 2.145945 1_555
Mo0 O14 2.176238 1_555
Mo0 O17 2.176238 1_555
Mo1 O1 1.914843 1_555
Mo1 O6 1.914843 1_545
Mo1 O11 2.145945 1_555
Mo1 O10 2.145945 1_545
Mo1 O2 2.176245 1_555
Mo1 O5 2.176245 1_555
Mo2 O7 1.914843 1_555
Mo2 O8 1.914843 1_555
Mo2 O4 2.145945 1_555
Mo2 O18 2.145945 1_555
Mo2 O15 2.176241 1_555
Mo2 O16 2.176241 1_555
Mo3 O6 1.914843 1_455
Mo3 O1 1.914843 1_555
Mo3 O3 2.145945 1_555
Mo3 O12 2.145945 1_455
Mo3 O13 2.176247 1_555
Mo3 O19 2.176247 1_555
O0 P2 1.539347 1_655
O2 P3 1.559703 1_655
O3 P1 1.539347 1_555
O4 P2 1.539347 1_565
O5 P2 1.559703 1_555
O9 P3 1.539347 1_565
O10 P0 1.539347 1_555
O11 P1 1.539347 1_556
O12 P0 1.539347 1_556
O13 P3 1.559709 1_565
O14 P0 1.559713 1_555
O15 P1 1.559709 1_556
O16 P0 1.559709 1_555
O17 P1 1.559713 1_555
O18 P3 1.539347 1_655
O19 P2 1.559709 1_555
