# generated using pymatgen
data_Li4TiCo5O12
_symmetry_space_group_name_H-M   'P 1'
_cell_length_a   4.90686965
_cell_length_b   10.75104162
_cell_length_c   8.49178971
_cell_angle_alpha   113.24543582
_cell_angle_beta   89.99859058
_cell_angle_gamma   85.57900242
_symmetry_Int_Tables_number   1
_chemical_formula_structural   Li4TiCo5O12
_chemical_formula_sum   'Li8 Ti2 Co10 O24'
_cell_volume   410.15861866
_cell_formula_units_Z   2
loop_
 _symmetry_equiv_pos_site_id
 _symmetry_equiv_pos_as_xyz
  1  'x, y, z'
loop_
 _atom_site_type_symbol
 _atom_site_label
 _atom_site_symmetry_multiplicity
 _atom_site_fract_x
 _atom_site_fract_y
 _atom_site_fract_z
 _atom_site_occupancy
  Li  Li0  1  0.04317600  0.74138800  0.20719500  1
  Li  Li1  1  0.53463900  0.74783700  0.70585200  1
  Li  Li2  1  0.45703900  0.25858600  0.96590500  1
  Li  Li3  1  0.96540100  0.25220400  0.45796500  1
  Li  Li4  1  0.53629800  0.74447300  0.04667500  1
  Li  Li5  1  0.03549800  0.74424500  0.53158200  1
  Li  Li6  1  0.96405800  0.25548200  0.80221600  1
  Li  Li7  1  0.46417600  0.25577300  0.28745500  1
  Ti  Ti0  1  0.99840500  0.00015600  0.00008200  1
  Ti  Ti1  1  0.50147400  0.99986500  0.49989800  1
  Co  Co0  1  0.75008700  0.49998600  0.75040200  1
  Co  Co1  1  0.24997600  0.50000600  0.24885100  1
  Co  Co2  1  0.25002000  0.49998100  0.91539300  1
  Co  Co3  1  0.75000900  0.50000900  0.41457900  1
  Co  Co4  1  0.75004400  0.49998900  0.08486200  1
  Co  Co5  1  0.24999900  0.50000600  0.58418600  1
  Co  Co6  1  0.00029100  0.99989800  0.66665300  1
  Co  Co7  1  0.49963900  0.00010100  0.16672400  1
  Co  Co8  1  0.49965800  0.00097800  0.83385200  1
  Co  Co9  1  0.00025900  0.99903500  0.33291300  1
  O  O0  1  0.40865200  0.60255200  0.79834600  1
  O  O1  1  0.90364500  0.60296700  0.30194200  1
  O  O2  1  0.59633800  0.39703500  0.19906700  1
  O  O3  1  0.09145500  0.39743400  0.69585800  1
  O  O4  1  0.82459900  0.10723800  0.55334000  1
  O  O5  1  0.32361000  0.10809100  0.05433600  1
  O  O6  1  0.17631100  0.89190900  0.44625800  1
  O  O7  1  0.67532900  0.89274700  0.94620500  1
  O  O8  1  0.31032500  0.10776400  0.72456000  1
  O  O9  1  0.81070100  0.10789500  0.22562000  1
  O  O10  1  0.18967200  0.89220900  0.11687000  1
  O  O11  1  0.68915300  0.89215300  0.61778200  1
  O  O12  1  0.81067700  0.10821100  0.88276100  1
  O  O13  1  0.31027200  0.10724100  0.38268500  1
  O  O14  1  0.68932300  0.89176400  0.27457300  1
  O  O15  1  0.18959400  0.89281800  0.77558200  1
  O  O16  1  0.10613000  0.39761200  0.02801100  1
  O  O17  1  0.60011800  0.39909900  0.53218800  1
  O  O18  1  0.60549300  0.39938000  0.86508900  1
  O  O19  1  0.10541400  0.39872700  0.37274700  1
  O  O20  1  0.39393500  0.60236800  0.13029700  1
  O  O21  1  0.89991500  0.60090900  0.63302500  1
  O  O22  1  0.89459700  0.60059700  0.96566800  1
  O  O23  1  0.39459700  0.60128600  0.47394400  1
loop_
_geom_bond_atom_site_label_1
_geom_bond_atom_site_label_2
_geom_bond_distance
_geom_bond_site_symmetry_2
Li0 O1 2.105447 1_455
Li0 O20 2.110812 1_555
Li0 O6 2.176383 1_555
Li0 O22 2.179209 1_454
Li0 O14 2.189268 1_455
Li0 O10 2.212608 1_555
Li1 O15 2.123978 1_555
Li1 O23 2.133225 1_555
Li1 O0 2.134491 1_555
Li1 O11 2.153763 1_555
Li1 O7 2.173815 1_555
Li1 O21 2.209660 1_555
Li2 O2 2.105620 1_556
Li2 O16 2.111391 1_556
Li2 O5 2.175490 1_556
Li2 O18 2.178907 1_555
Li2 O12 2.188546 1_555
Li2 O8 2.214651 1_555
Li3 O13 2.123250 1_655
Li3 O19 2.131621 1_655
Li3 O3 2.135566 1_655
Li3 O9 2.154416 1_555
Li3 O4 2.173627 1_555
Li3 O17 2.209499 1_555
Li4 O20 2.084988 1_555
Li4 O14 2.140334 1_555
Li4 O10 2.146413 1_555
Li4 O22 2.167402 1_554
Li4 O0 2.185152 1_554
Li4 O7 2.230611 1_554
Li5 O1 2.083728 1_455
Li5 O6 2.144694 1_555
Li5 O11 2.148757 1_455
Li5 O23 2.166858 1_555
Li5 O21 2.182946 1_455
Li5 O15 2.233868 1_555
Li6 O16 2.085418 1_656
Li6 O12 2.140011 1_555
Li6 O8 2.145036 1_655
Li6 O18 2.168494 1_555
Li6 O3 2.184174 1_655
Li6 O4 2.232566 1_555
Li7 O2 2.083745 1_555
Li7 O5 2.145551 1_555
Li7 O9 2.149130 1_555
Li7 O19 2.165601 1_555
Li7 O17 2.183835 1_555
Li7 O13 2.231472 1_555
Co0 O3 1.883630 1_655
Co0 O0 1.883974 1_555
Co0 O18 1.889850 1_555
Co0 O22 1.889958 1_555
Co0 O21 1.920387 1_555
Co0 O17 1.920500 1_555
Co1 O1 1.905928 1_455
Co1 O2 1.906104 1_555
Co1 O16 1.928008 1_555
Co1 O20 1.928193 1_555
Co1 O19 1.954222 1_555
Co1 O23 1.954267 1_555
Co2 O16 1.890737 1_556
Co2 O20 1.890758 1_556
Co2 O22 1.933538 1_455
Co2 O18 1.933684 1_555
Co2 O3 1.950959 1_555
Co2 O0 1.951232 1_555
Co3 O1 1.916444 1_555
Co3 O2 1.916489 1_555
Co3 O21 1.921860 1_555
Co3 O17 1.921869 1_555
Co3 O23 1.937790 1_555
Co3 O19 1.937791 1_655
Co4 O22 1.918324 1_554
Co4 O18 1.918582 1_554
Co4 O1 1.926050 1_555
Co4 O2 1.926262 1_555
Co4 O16 1.944609 1_655
Co4 O20 1.944721 1_555
Co5 O19 1.867809 1_555
Co5 O23 1.867918 1_555
Co5 O21 1.912395 1_455
Co5 O17 1.912559 1_555
Co5 O3 1.917868 1_555
Co5 O0 1.917967 1_555
Co6 O15 1.928602 1_555
Co6 O8 1.929478 1_565
Co6 O4 1.929773 1_465
Co6 O6 1.930490 1_555
Co6 O12 1.932744 1_465
Co6 O11 1.933423 1_455
Co7 O13 1.928958 1_555
Co7 O7 1.929367 1_544
Co7 O10 1.929368 1_545
Co7 O5 1.929996 1_555
Co7 O14 1.933019 1_545
Co7 O9 1.933425 1_555
Co8 O8 1.928506 1_555
Co8 O5 1.929387 1_556
Co8 O12 1.929767 1_555
Co8 O7 1.931051 1_545
Co8 O15 1.931431 1_545
Co8 O11 1.933318 1_545
Co9 O6 1.928933 1_555
Co9 O10 1.928934 1_555
Co9 O14 1.929670 1_455
Co9 O4 1.930406 1_465
Co9 O13 1.931514 1_565
Co9 O9 1.933629 1_465
O4 Ti1 1.980185 1_545
O5 Ti0 1.992163 1_455
O6 Ti1 1.992114 1_555
O7 Ti0 1.980196 1_566
O8 Ti1 1.987543 1_545
O9 Ti0 1.985551 1_555
O10 Ti0 1.987927 1_465
O11 Ti1 1.985407 1_555
O12 Ti0 1.984755 1_556
O13 Ti1 1.985861 1_545
O14 Ti1 1.985177 1_555
O15 Ti0 1.985615 1_466
