# generated using pymatgen
data_K2EuSi4O10F
_symmetry_space_group_name_H-M   'P 1'
_cell_length_a   8.69532700
_cell_length_b   11.88809500
_cell_length_c   12.01798155
_cell_angle_alpha   66.76478950
_cell_angle_beta   90.00000000
_cell_angle_gamma   90.00000000
_symmetry_Int_Tables_number   1
_chemical_formula_structural   K2EuSi4O10F
_chemical_formula_sum   'K8 Eu4 Si16 O40 F4'
_cell_volume   1141.54936432
_cell_formula_units_Z   4
loop_
 _symmetry_equiv_pos_site_id
 _symmetry_equiv_pos_as_xyz
  1  'x, y, z'
loop_
 _atom_site_type_symbol
 _atom_site_label
 _atom_site_symmetry_multiplicity
 _atom_site_fract_x
 _atom_site_fract_y
 _atom_site_fract_z
 _atom_site_occupancy
  K  K0  1  0.25000000  0.94223200  0.44490600  1
  K  K1  1  0.75000000  0.05776800  0.55509400  1
  K  K2  1  0.25000000  0.41165500  0.08037300  1
  K  K3  1  0.75000000  0.58834500  0.91962700  1
  K  K4  1  0.25000000  0.49140800  0.47151400  1
  K  K5  1  0.75000000  0.50859200  0.52848600  1
  K  K6  1  0.25000000  0.03258800  0.03429000  1
  K  K7  1  0.75000000  0.96741200  0.96571000  1
  Eu  Eu0  1  0.99462600  0.78941800  0.28855900  1
  Eu  Eu1  1  0.49462600  0.21058200  0.71144100  1
  Eu  Eu2  1  0.00537400  0.21058200  0.71144100  1
  Eu  Eu3  1  0.50537400  0.78941800  0.28855900  1
  Si  Si0  1  0.07240700  0.71974600  0.03170800  1
  Si  Si1  1  0.57240700  0.28025400  0.96829200  1
  Si  Si2  1  0.92759300  0.28025400  0.96829200  1
  Si  Si3  1  0.42759300  0.71974600  0.03170800  1
  Si  Si4  1  0.92906100  0.51048400  0.24249500  1
  Si  Si5  1  0.42906100  0.48951600  0.75750500  1
  Si  Si6  1  0.07093900  0.48951600  0.75750500  1
  Si  Si7  1  0.57093900  0.51048400  0.24249500  1
  Si  Si8  1  0.07203800  0.25219100  0.37925800  1
  Si  Si9  1  0.57203800  0.74780900  0.62074200  1
  Si  Si10  1  0.92796200  0.74780900  0.62074200  1
  Si  Si11  1  0.42796200  0.25219100  0.37925800  1
  Si  Si12  1  0.06502800  0.88829800  0.76492700  1
  Si  Si13  1  0.56502800  0.11170200  0.23507300  1
  Si  Si14  1  0.93497200  0.11170200  0.23507300  1
  Si  Si15  1  0.43497200  0.88829800  0.76492700  1
  O  O0  1  0.96444500  0.00693400  0.74989500  1
  O  O1  1  0.46444500  0.99306600  0.25010500  1
  O  O2  1  0.03555500  0.99306600  0.25010500  1
  O  O3  1  0.53555500  0.00693400  0.74989500  1
  O  O4  1  0.05316800  0.81935100  0.08965900  1
  O  O5  1  0.55316800  0.18064900  0.91034100  1
  O  O6  1  0.94683200  0.18064900  0.91034100  1
  O  O7  1  0.44683200  0.81935100  0.08965900  1
  O  O8  1  0.96361900  0.58206400  0.32887000  1
  O  O9  1  0.46361900  0.41793600  0.67113000  1
  O  O10  1  0.03638100  0.41793600  0.67113000  1
  O  O11  1  0.53638100  0.58206400  0.32887000  1
  O  O12  1  0.04571400  0.24874800  0.51161000  1
  O  O13  1  0.54571400  0.75125200  0.48839000  1
  O  O14  1  0.95428600  0.75125200  0.48839000  1
  O  O15  1  0.45428600  0.24874800  0.51161000  1
  O  O16  1  0.25000000  0.66735900  0.03655500  1
  O  O17  1  0.75000000  0.33264100  0.96344500  1
  O  O18  1  0.01396500  0.77018900  0.88916400  1
  O  O19  1  0.51396500  0.22981100  0.11083600  1
  O  O20  1  0.98603500  0.22981100  0.11083600  1
  O  O21  1  0.48603500  0.77018900  0.88916400  1
  O  O22  1  0.96508000  0.59525000  0.09739900  1
  O  O23  1  0.46508000  0.40475000  0.90260100  1
  O  O24  1  0.03492000  0.40475000  0.90260100  1
  O  O25  1  0.53492000  0.59525000  0.09739900  1
  O  O26  1  0.04139000  0.38986300  0.27274800  1
  O  O27  1  0.54139000  0.61013700  0.72725200  1
  O  O28  1  0.95861000  0.61013700  0.72725200  1
  O  O29  1  0.45861000  0.38986300  0.27274800  1
  O  O30  1  0.75000000  0.46267100  0.24903600  1
  O  O31  1  0.25000000  0.53732900  0.75096400  1
  O  O32  1  0.03763400  0.84718900  0.64947000  1
  O  O33  1  0.53763400  0.15281100  0.35053000  1
  O  O34  1  0.96236600  0.15281100  0.35053000  1
  O  O35  1  0.46236600  0.84718900  0.64947000  1
  O  O36  1  0.25000000  0.91163600  0.77152700  1
  O  O37  1  0.75000000  0.08836400  0.22847300  1
  O  O38  1  0.25000000  0.21670000  0.35403300  1
  O  O39  1  0.75000000  0.78330000  0.64596700  1
  F  F0  1  0.75000000  0.82740000  0.21664300  1
  F  F1  1  0.25000000  0.17260000  0.78335700  1
  F  F2  1  0.25000000  0.75193100  0.34325200  1
  F  F3  1  0.75000000  0.24806900  0.65674800  1
loop_
_geom_bond_atom_site_label_1
_geom_bond_atom_site_label_2
_geom_bond_distance
_geom_bond_site_symmetry_2
K0 O2 2.864739 1_555
K0 O1 2.864739 1_555
K0 O32 2.922124 1_555
K0 O35 2.922124 1_555
K0 O38 3.004600 1_565
K1 O3 2.864739 1_555
K1 O0 2.864739 1_555
K1 O33 2.922124 1_555
K1 O34 2.922124 1_555
K1 O39 3.004600 1_545
K2 O24 2.864819 1_554
K2 O23 2.864819 1_554
K2 O26 2.868805 1_555
K2 O29 2.868805 1_555
K2 O16 2.873126 1_555
K2 O20 3.074263 1_455
K2 O19 3.074263 1_555
K2 O38 3.189640 1_555
K2 O22 3.360927 1_455
K2 O25 3.360927 1_555
K3 O25 2.864819 1_556
K3 O22 2.864819 1_556
K3 O27 2.868805 1_555
K3 O28 2.868805 1_555
K3 O17 2.873126 1_555
K3 O21 3.074263 1_555
K3 O18 3.074263 1_655
K3 O39 3.189640 1_555
K3 O23 3.360927 1_555
K3 O24 3.360927 1_655
K4 O10 2.883573 1_555
K4 O9 2.883573 1_555
K4 O11 2.973809 1_555
K4 O8 2.973809 1_455
K4 O12 3.257704 1_555
K4 O15 3.257704 1_555
K5 O8 2.883573 1_555
K5 O11 2.883573 1_555
K5 O10 2.973809 1_655
K5 O9 2.973809 1_555
K5 O13 3.257704 1_555
K5 O14 3.257704 1_555
K6 O7 2.909859 1_545
K6 O4 2.909859 1_545
K6 O2 3.076251 1_545
K6 O1 3.076251 1_545
K6 O6 3.193372 1_454
K6 O5 3.193372 1_554
K7 O6 2.909859 1_565
K7 O5 2.909859 1_565
K7 O3 3.076251 1_565
K7 O0 3.076251 1_565
K7 O7 3.193372 1_556
K7 O4 3.193372 1_656
Eu0 F0 2.273219 1_555
Eu0 O14 2.288379 1_555
Eu0 O2 2.306216 1_655
Eu0 F2 2.308769 1_655
Eu0 O4 2.329916 1_655
Eu0 O8 2.332721 1_555
Eu1 F1 2.273219 1_555
Eu1 O15 2.288379 1_555
Eu1 O3 2.306216 1_555
Eu1 F3 2.308769 1_555
Eu1 O5 2.329916 1_555
Eu1 O9 2.332721 1_555
Eu2 F1 2.273219 1_555
Eu2 O12 2.288379 1_555
Eu2 O0 2.306216 1_455
Eu2 F3 2.308769 1_455
Eu2 O6 2.329916 1_455
Eu2 O10 2.332721 1_555
Eu3 F0 2.273219 1_555
Eu3 O13 2.288379 1_555
Eu3 O1 2.306216 1_555
Eu3 F2 2.308769 1_555
Eu3 O7 2.329916 1_555
Eu3 O11 2.332721 1_555
O0 Si12 1.607992 1_645
O1 Si13 1.607992 1_565
O2 Si14 1.607992 1_465
O3 Si15 1.607992 1_545
O4 Si0 1.601825 1_555
O5 Si1 1.601825 1_555
O6 Si2 1.601825 1_555
O7 Si3 1.601825 1_555
O8 Si4 1.609014 1_555
O9 Si5 1.609014 1_555
O10 Si6 1.609014 1_555
O11 Si7 1.609014 1_555
O12 Si8 1.591452 1_555
O13 Si9 1.591452 1_555
O14 Si10 1.591452 1_555
O15 Si11 1.591452 1_555
O16 Si3 1.657489 1_555
O16 Si0 1.657489 1_555
O17 Si1 1.657489 1_555
O17 Si2 1.657489 1_555
O18 Si0 1.655892 1_556
O18 Si12 1.656441 1_555
O19 Si1 1.655892 1_554
O19 Si13 1.656441 1_555
O20 Si2 1.655892 1_554
O20 Si14 1.656441 1_555
O21 Si3 1.655892 1_556
O21 Si15 1.656441 1_555
O22 Si0 1.662155 1_655
O22 Si4 1.663675 1_555
O23 Si1 1.662155 1_555
O23 Si5 1.663675 1_555
O24 Si2 1.662155 1_455
O24 Si6 1.663675 1_555
O25 Si3 1.662155 1_555
O25 Si7 1.663675 1_555
O26 Si4 1.652596 1_455
O26 Si8 1.653841 1_555
O27 Si5 1.652596 1_555
O27 Si9 1.653841 1_555
O28 Si6 1.652596 1_655
O28 Si10 1.653841 1_555
O29 Si7 1.652596 1_555
O29 Si11 1.653841 1_555
O30 Si4 1.648708 1_555
O30 Si7 1.648708 1_555
O31 Si6 1.648708 1_555
O31 Si5 1.648708 1_555
O32 Si10 1.657181 1_455
O32 Si12 1.660101 1_555
O33 Si11 1.657181 1_555
O33 Si13 1.660101 1_555
O34 Si8 1.657181 1_655
O34 Si14 1.660101 1_555
O35 Si9 1.657181 1_555
O35 Si15 1.660101 1_555
O36 Si12 1.639376 1_555
O36 Si15 1.639376 1_555
O37 Si14 1.639376 1_555
O37 Si13 1.639376 1_555
O38 Si11 1.662950 1_555
O38 Si8 1.662950 1_555
O39 Si9 1.662950 1_555
O39 Si10 1.662950 1_555
F0 K7 2.811488 1_554
F1 K6 2.811488 1_556
F2 K4 2.863815 1_555
F2 K0 2.965005 1_555
F3 K5 2.863815 1_555
F3 K1 2.965005 1_555
