# generated using pymatgen
data_Cu5Sn(BO5)2
_symmetry_space_group_name_H-M   'P 1'
_cell_length_a   6.47402526
_cell_length_b   9.63949900
_cell_length_c   12.28677914
_cell_angle_alpha   90.00000000
_cell_angle_beta   94.58899064
_cell_angle_gamma   90.00000000
_symmetry_Int_Tables_number   1
_chemical_formula_structural   Cu5Sn(BO5)2
_chemical_formula_sum   'Cu20 Sn4 B8 O40'
_cell_volume   764.31509510
_cell_formula_units_Z   4
loop_
 _symmetry_equiv_pos_site_id
 _symmetry_equiv_pos_as_xyz
  1  'x, y, z'
loop_
 _atom_site_type_symbol
 _atom_site_label
 _atom_site_symmetry_multiplicity
 _atom_site_fract_x
 _atom_site_fract_y
 _atom_site_fract_z
 _atom_site_occupancy
  Cu  Cu0  1  0.01851900  0.49880000  0.27757400  1
  Cu  Cu1  1  0.98148100  0.99880000  0.22242600  1
  Cu  Cu2  1  0.98148100  0.50120000  0.72242600  1
  Cu  Cu3  1  0.01851900  0.00120000  0.77757400  1
  Cu  Cu4  1  0.00000000  0.50000000  0.00000000  1
  Cu  Cu5  1  0.00000000  0.00000000  0.50000000  1
  Cu  Cu6  1  0.52826000  0.48275200  0.27567200  1
  Cu  Cu7  1  0.47174000  0.98275200  0.22432800  1
  Cu  Cu8  1  0.47174000  0.51724800  0.72432800  1
  Cu  Cu9  1  0.52826000  0.01724800  0.77567200  1
  Cu  Cu10  1  0.50000000  0.50000000  0.00000000  1
  Cu  Cu11  1  0.50000000  0.00000000  0.50000000  1
  Cu  Cu12  1  0.74087600  0.48456100  0.49886800  1
  Cu  Cu13  1  0.25912400  0.98456100  0.00113200  1
  Cu  Cu14  1  0.25912400  0.51543900  0.50113200  1
  Cu  Cu15  1  0.74087600  0.01543900  0.99886800  1
  Cu  Cu16  1  0.78671800  0.26483300  0.87699500  1
  Cu  Cu17  1  0.21328200  0.76483300  0.62300500  1
  Cu  Cu18  1  0.21328200  0.73516700  0.12300500  1
  Cu  Cu19  1  0.78671800  0.23516700  0.37699500  1
  Sn  Sn0  1  0.28262700  0.26344100  0.87718700  1
  Sn  Sn1  1  0.71737300  0.76344100  0.62281300  1
  Sn  Sn2  1  0.71737300  0.73655900  0.12281300  1
  Sn  Sn3  1  0.28262700  0.23655900  0.37718700  1
  B  B0  1  0.18634500  0.72755400  0.86763400  1
  B  B1  1  0.81365500  0.22755400  0.63236600  1
  B  B2  1  0.81365500  0.27244600  0.13236600  1
  B  B3  1  0.18634500  0.77244600  0.36763400  1
  B  B4  1  0.69047900  0.74345300  0.86991700  1
  B  B5  1  0.30952100  0.24345300  0.63008300  1
  B  B6  1  0.30952100  0.25654700  0.13008300  1
  B  B7  1  0.69047900  0.75654700  0.36991700  1
  O  O0  1  0.82050100  0.34448000  0.03532200  1
  O  O1  1  0.17949900  0.84448000  0.46467800  1
  O  O2  1  0.17949900  0.65552000  0.96467800  1
  O  O3  1  0.82050100  0.15552000  0.53532200  1
  O  O4  1  0.49887600  0.41349600  0.85647100  1
  O  O5  1  0.50112400  0.91349600  0.64352900  1
  O  O6  1  0.50112400  0.58650400  0.14352900  1
  O  O7  1  0.49887600  0.08650400  0.35647100  1
  O  O8  1  0.16929600  0.66025700  0.76661300  1
  O  O9  1  0.83070400  0.16025700  0.73338700  1
  O  O10  1  0.83070400  0.33974300  0.23338700  1
  O  O11  1  0.16929600  0.83974300  0.26661300  1
  O  O12  1  0.78226500  0.37002900  0.63316700  1
  O  O13  1  0.21773500  0.87002900  0.86683300  1
  O  O14  1  0.21773500  0.62997100  0.36683300  1
  O  O15  1  0.78226500  0.12997100  0.13316700  1
  O  O16  1  0.68352100  0.66927100  0.77312500  1
  O  O17  1  0.31647900  0.16927100  0.72687500  1
  O  O18  1  0.31647900  0.33072900  0.22687500  1
  O  O19  1  0.68352100  0.83072900  0.27312500  1
  O  O20  1  0.08275600  0.10773400  0.91220100  1
  O  O21  1  0.91724400  0.60773400  0.58779900  1
  O  O22  1  0.91724400  0.89226600  0.08779900  1
  O  O23  1  0.08275600  0.39226600  0.41220100  1
  O  O24  1  0.55932500  0.13402900  0.90618200  1
  O  O25  1  0.44067500  0.63402900  0.59381800  1
  O  O26  1  0.44067500  0.86597100  0.09381800  1
  O  O27  1  0.55932500  0.36597100  0.40618200  1
  O  O28  1  0.01909300  0.39567000  0.85574200  1
  O  O29  1  0.98090700  0.89567000  0.64425800  1
  O  O30  1  0.98090700  0.60433000  0.14425800  1
  O  O31  1  0.01909300  0.10433000  0.35574200  1
  O  O32  1  0.28619300  0.38438900  0.62988200  1
  O  O33  1  0.71380700  0.88438900  0.87011800  1
  O  O34  1  0.71380700  0.61561100  0.37011800  1
  O  O35  1  0.28619300  0.11561100  0.12988200  1
  O  O36  1  0.31958800  0.33577200  0.03679400  1
  O  O37  1  0.68041200  0.83577200  0.46320600  1
  O  O38  1  0.68041200  0.66422800  0.96320600  1
  O  O39  1  0.31958800  0.16422800  0.53679400  1
loop_
_geom_bond_atom_site_label_1
_geom_bond_atom_site_label_2
_geom_bond_distance
_geom_bond_site_symmetry_2
Cu0 O30 1.927019 1_455
Cu0 O23 1.963064 1_555
Cu0 O10 2.004589 1_455
Cu0 O14 2.058785 1_555
Cu1 O31 1.927019 1_665
Cu1 O22 1.963064 1_555
Cu1 O11 2.004589 1_655
Cu1 O15 2.058785 1_565
Cu2 O28 1.927019 1_655
Cu2 O21 1.963064 1_555
Cu2 O8 2.004589 1_655
Cu2 O12 2.058785 1_555
Cu3 O29 1.927019 1_445
Cu3 O20 1.963064 1_555
Cu3 O9 2.004589 1_455
Cu3 O13 2.058785 1_545
Cu4 O2 1.966441 1_554
Cu4 O0 1.966441 1_455
Cu4 O28 2.050216 1_554
Cu4 O30 2.050216 1_455
Cu4 O36 2.615660 1_555
Cu4 O38 2.615660 1_454
Cu5 O3 1.966441 1_455
Cu5 O1 1.966441 1_545
Cu5 O31 2.050216 1_555
Cu5 O29 2.050216 1_445
Cu5 O39 2.615660 1_555
Cu5 O37 2.615660 1_445
Cu6 O6 1.903043 1_555
Cu6 O27 1.956382 1_555
Cu6 O34 2.051026 1_555
Cu6 O18 2.062826 1_555
Cu6 O10 2.483335 1_555
Cu7 O7 1.903043 1_565
Cu7 O26 1.956382 1_555
Cu7 O35 2.051026 1_565
Cu7 O19 2.062826 1_555
Cu7 O11 2.483335 1_555
Cu8 O4 1.903043 1_555
Cu8 O25 1.956382 1_555
Cu8 O32 2.051026 1_555
Cu8 O16 2.062826 1_555
Cu8 O8 2.483335 1_555
Cu9 O5 1.903043 1_545
Cu9 O24 1.956382 1_555
Cu9 O33 2.051026 1_545
Cu9 O17 2.062826 1_555
Cu9 O9 2.483335 1_555
Cu10 O6 1.950200 1_555
Cu10 O4 1.950200 1_554
Cu10 O38 2.039412 1_554
Cu10 O36 2.039412 1_555
Cu10 O0 2.568463 1_555
Cu10 O2 2.568463 1_554
Cu11 O7 1.950200 1_555
Cu11 O5 1.950200 1_545
Cu11 O37 2.039412 1_545
Cu11 O39 2.039412 1_555
Cu11 O1 2.568463 1_545
Cu11 O3 2.568463 1_555
Cu12 O21 1.925559 1_555
Cu12 O27 1.941902 1_555
Cu12 O12 1.985641 1_555
Cu12 O34 2.021051 1_555
Cu12 O23 2.683554 1_655
Cu13 O20 1.925559 1_564
Cu13 O26 1.941902 1_555
Cu13 O13 1.985641 1_554
Cu13 O35 2.021051 1_565
Cu13 O22 2.683554 1_455
Cu14 O23 1.925559 1_555
Cu14 O25 1.941902 1_555
Cu14 O14 1.985641 1_555
Cu14 O32 2.021051 1_555
Cu14 O21 2.683554 1_455
Cu15 O22 1.925559 1_546
Cu15 O24 1.941902 1_555
Cu15 O15 1.985641 1_556
Cu15 O33 2.021051 1_545
Cu15 O20 2.683554 1_655
Cu16 O24 1.992519 1_555
Cu16 O28 1.996223 1_655
Cu16 O9 2.071489 1_555
Cu16 O0 2.086507 1_556
Cu16 O4 2.348321 1_555
Cu16 O20 2.453757 1_655
Cu17 O25 1.992519 1_555
Cu17 O29 1.996223 1_455
Cu17 O8 2.071489 1_555
Cu17 O1 2.086507 1_555
Cu17 O5 2.348321 1_555
Cu17 O21 2.453757 1_455
Cu18 O26 1.992519 1_555
Cu18 O30 1.996223 1_455
Cu18 O11 2.071489 1_555
Cu18 O2 2.086507 1_554
Cu18 O6 2.348321 1_555
Cu18 O22 2.453757 1_455
Cu19 O27 1.992519 1_555
Cu19 O31 1.996223 1_655
Cu19 O10 2.071489 1_555
Cu19 O3 2.086507 1_555
Cu19 O7 2.348321 1_555
Cu19 O23 2.453757 1_655
B0 O2 1.383579 1_555
B0 O13 1.388492 1_555
B0 O8 1.397039 1_555
B1 O3 1.383579 1_555
B1 O12 1.388492 1_555
B1 O9 1.397039 1_555
B2 O0 1.383579 1_555
B2 O15 1.388492 1_555
B2 O10 1.397039 1_555
B3 O1 1.383579 1_555
B3 O14 1.388492 1_555
B3 O11 1.397039 1_555
B4 O33 1.366902 1_555
B4 O38 1.383201 1_555
B4 O16 1.385329 1_555
B5 O32 1.366902 1_555
B5 O39 1.383201 1_555
B5 O17 1.385329 1_555
B6 O35 1.366902 1_555
B6 O36 1.383201 1_555
B6 O18 1.385329 1_555
B7 O34 1.366902 1_555
B7 O37 1.383201 1_555
B7 O19 1.385329 1_555
O4 Sn0 2.043048 1_555
O5 Sn1 2.043048 1_555
O6 Sn2 2.043048 1_555
O7 Sn3 2.043048 1_555
O16 Sn1 2.085106 1_555
O17 Sn0 2.085106 1_555
O18 Sn3 2.085106 1_555
O19 Sn2 2.085106 1_555
O20 Sn0 2.049714 1_555
O21 Sn1 2.049714 1_555
O22 Sn2 2.049714 1_555
O23 Sn3 2.049714 1_555
O24 Sn0 2.188586 1_555
O25 Sn1 2.188586 1_555
O26 Sn2 2.188586 1_555
O27 Sn3 2.188586 1_555
O28 Sn0 2.129088 1_555
O29 Sn1 2.129088 1_555
O30 Sn2 2.129088 1_555
O31 Sn3 2.129088 1_555
O36 Sn0 2.077028 1_554
O37 Sn1 2.077028 1_555
O38 Sn2 2.077028 1_556
O39 Sn3 2.077028 1_555
