# generated using pymatgen
data_CaEr4Zr4O14
_symmetry_space_group_name_H-M   'P 1'
_cell_length_a   3.57022946
_cell_length_b   15.22401611
_cell_length_c   13.07659326
_cell_angle_alpha   30.80166137
_cell_angle_beta   56.71548097
_cell_angle_gamma   61.87566904
_symmetry_Int_Tables_number   1
_chemical_formula_structural   CaEr4Zr4O14
_chemical_formula_sum   'Ca1 Er4 Zr4 O14'
_cell_volume   304.25006003
_cell_formula_units_Z   1
loop_
 _symmetry_equiv_pos_site_id
 _symmetry_equiv_pos_as_xyz
  1  'x, y, z'
loop_
 _atom_site_type_symbol
 _atom_site_label
 _atom_site_symmetry_multiplicity
 _atom_site_fract_x
 _atom_site_fract_y
 _atom_site_fract_z
 _atom_site_occupancy
  Ca  Ca0  1  0.19779100  0.50000000  0.64815600  1
  Er  Er0  1  0.94964400  0.20805100  0.06936600  1
  Er  Er1  1  0.97623700  0.00000000  0.51232900  1
  Er  Er2  1  0.94964400  0.79194900  0.48546700  1
  Er  Er3  1  0.11305700  0.50000000  0.44237900  1
  Zr  Zr0  1  0.01972300  0.00000000  0.98941900  1
  Zr  Zr1  1  0.03097300  0.50000000  0.98576200  1
  Zr  Zr2  1  0.00965700  0.22749800  0.51736900  1
  Zr  Zr3  1  0.00965700  0.77250200  0.97236500  1
  O  O0  1  0.26823100  0.00000000  0.11522800  1
  O  O1  1  0.20364300  0.24209800  0.15727300  1
  O  O2  1  0.23685500  0.00000000  0.63163200  1
  O  O3  1  0.33653200  0.50000000  0.08215900  1
  O  O4  1  0.22960900  0.22929300  0.65547800  1
  O  O5  1  0.22960900  0.77070700  0.11406500  1
  O  O6  1  0.70387100  0.25847600  0.38977000  1
  O  O7  1  0.77060300  0.00000000  0.86448900  1
  O  O8  1  0.82446500  0.50000000  0.33727400  1
  O  O9  1  0.74098600  0.31177900  0.81581500  1
  O  O10  1  0.74098600  0.68822100  0.43937300  1
  O  O11  1  0.20364300  0.75790200  0.64146800  1
  O  O12  1  0.81857100  0.50000000  0.84122500  1
  O  O13  1  0.70387100  0.74152400  0.90672200  1
loop_
_geom_bond_atom_site_label_1
_geom_bond_atom_site_label_2
_geom_bond_distance
_geom_bond_site_symmetry_2
Ca0 O12 2.110762 1_455
Ca0 O9 2.316564 1_455
Ca0 O10 2.316564 1_455
Ca0 O10 2.326798 1_555
Ca0 O9 2.326798 1_555
Er0 O1 2.241274 1_655
Er0 O1 2.246190 1_555
Er0 O12 2.380462 1_554
Er0 O0 2.403057 1_655
Er0 O9 2.529628 1_654
Er0 O9 2.578596 1_554
Er1 O2 2.209534 1_555
Er1 O2 2.211984 1_655
Er1 O1 2.255379 1_655
Er1 O11 2.255385 1_645
Er1 O13 2.503554 1_545
Er1 O6 2.503554 1_555
Er2 O11 2.241274 1_655
Er2 O11 2.246190 1_555
Er2 O12 2.380465 1_555
Er2 O0 2.403049 1_665
Er2 O10 2.529626 1_655
Er2 O10 2.578584 1_555
Er3 O8 2.122483 1_455
Er3 O8 2.123325 1_555
Er3 O5 2.202312 1_555
Er3 O4 2.202315 1_555
Er3 O10 2.500462 1_455
Er3 O9 2.500462 1_455
O0 Zr0 2.249510 1_654
O0 Zr0 2.257385 1_554
O1 Zr1 2.221286 1_554
O2 Zr2 2.162766 1_555
O2 Zr3 2.162766 1_545
O3 Zr1 2.070851 1_554
O3 Zr1 2.075012 1_654
O4 Zr0 2.122219 1_555
O4 Zr2 2.347527 1_655
O4 Zr2 2.353861 1_555
O5 Zr0 2.122213 1_564
O5 Zr3 2.347528 1_654
O5 Zr3 2.353874 1_554
O6 Zr2 2.088187 1_555
O6 Zr2 2.088190 1_655
O6 Zr1 2.588433 1_654
O7 Zr2 2.203474 1_655
O7 Zr3 2.203474 1_645
O7 Zr0 2.246921 1_555
O7 Zr0 2.248268 1_655
O8 Zr3 2.352289 1_654
O8 Zr2 2.352289 1_655
O9 Zr0 2.861648 1_655
O10 Zr0 2.861648 1_664
O11 Zr1 2.221290 1_555
O12 Zr1 2.376086 1_555
O12 Zr1 2.391757 1_655
O13 Zr3 2.088187 1_555
O13 Zr3 2.088190 1_655
O13 Zr1 2.588433 1_655
