# generated using pymatgen
data_Al3P3H8C2NO13
_symmetry_space_group_name_H-M   'P 1'
_cell_length_a   10.50648180
_cell_length_b   13.93690295
_cell_length_c   17.48032740
_cell_angle_alpha   90.00000000
_cell_angle_beta   90.00000000
_cell_angle_gamma   90.00000000
_symmetry_Int_Tables_number   1
_chemical_formula_structural   Al3P3H8C2NO13
_chemical_formula_sum   'Al24 P24 H64 C16 N8 O104'
_cell_volume   2559.60618499
_cell_formula_units_Z   8
loop_
 _symmetry_equiv_pos_site_id
 _symmetry_equiv_pos_as_xyz
  1  'x, y, z'
loop_
 _atom_site_type_symbol
 _atom_site_label
 _atom_site_symmetry_multiplicity
 _atom_site_fract_x
 _atom_site_fract_y
 _atom_site_fract_z
 _atom_site_occupancy
  Al  Al0  1  0.62820216  0.44199849  0.89208890  1
  Al  Al1  1  0.87179784  0.94199849  0.10791110  1
  Al  Al2  1  0.12820216  0.55800151  0.60791110  1
  Al  Al3  1  0.37179784  0.05800151  0.39208890  1
  Al  Al4  1  0.37179784  0.55800151  0.10791110  1
  Al  Al5  1  0.12820216  0.05800151  0.89208890  1
  Al  Al6  1  0.87179784  0.44199849  0.39208890  1
  Al  Al7  1  0.62820216  0.94199849  0.60791110  1
  Al  Al8  1  0.66838143  0.52010166  0.69578781  1
  Al  Al9  1  0.83161857  0.02010166  0.30421219  1
  Al  Al10  1  0.16838143  0.47989834  0.80421219  1
  Al  Al11  1  0.33161857  0.97989834  0.19578781  1
  Al  Al12  1  0.33161857  0.47989834  0.30421219  1
  Al  Al13  1  0.16838143  0.97989834  0.69578781  1
  Al  Al14  1  0.83161857  0.52010166  0.19578781  1
  Al  Al15  1  0.66838143  0.02010166  0.80421219  1
  Al  Al16  1  0.87104013  0.76033541  0.80314502  1
  Al  Al17  1  0.62895987  0.26033541  0.19685498  1
  Al  Al18  1  0.37104013  0.23966459  0.69685498  1
  Al  Al19  1  0.12895987  0.73966459  0.30314502  1
  Al  Al20  1  0.12895987  0.23966459  0.19685498  1
  Al  Al21  1  0.37104013  0.73966459  0.80314502  1
  Al  Al22  1  0.62895987  0.76033541  0.30314502  1
  Al  Al23  1  0.87104013  0.26033541  0.69685498  1
  P  P0  1  0.86982220  0.93346216  0.91950405  1
  P  P1  1  0.63017780  0.43346216  0.08049595  1
  P  P2  1  0.36982220  0.06653784  0.58049595  1
  P  P3  1  0.13017780  0.56653784  0.41950405  1
  P  P4  1  0.13017780  0.06653784  0.08049595  1
  P  P5  1  0.36982220  0.56653784  0.91950405  1
  P  P6  1  0.63017780  0.93346216  0.41950405  1
  P  P7  1  0.86982220  0.43346216  0.58049595  1
  P  P8  1  0.87160140  0.53608738  0.83184239  1
  P  P9  1  0.62839860  0.03608738  0.16815761  1
  P  P10  1  0.37160140  0.46391262  0.66815761  1
  P  P11  1  0.12839860  0.96391262  0.33184239  1
  P  P12  1  0.12839860  0.46391262  0.16815761  1
  P  P13  1  0.37160140  0.96391262  0.83184239  1
  P  P14  1  0.62839860  0.53608738  0.33184239  1
  P  P15  1  0.87160140  0.03608738  0.66815761  1
  P  P16  1  0.62889054  0.74712866  0.70283691  1
  P  P17  1  0.87110946  0.24712866  0.29716309  1
  P  P18  1  0.12889054  0.25287134  0.79716309  1
  P  P19  1  0.37110946  0.75287134  0.20283691  1
  P  P20  1  0.37110946  0.25287134  0.29716309  1
  P  P21  1  0.12889054  0.75287134  0.70283691  1
  P  P22  1  0.87110946  0.74712866  0.20283691  1
  P  P23  1  0.62889054  0.24712866  0.79716309  1
  H  H0  1  0.48532230  0.27135124  0.94128551  1
  H  H1  1  0.01467770  0.77135124  0.05871449  1
  H  H2  1  0.98532230  0.72864876  0.55871449  1
  H  H3  1  0.51467770  0.22864876  0.44128551  1
  H  H4  1  0.51467770  0.72864876  0.05871449  1
  H  H5  1  0.98532230  0.22864876  0.94128551  1
  H  H6  1  0.01467770  0.27135124  0.44128551  1
  H  H7  1  0.48532230  0.77135124  0.55871449  1
  H  H8  1  0.36249253  0.20922532  0.90996968  1
  H  H9  1  0.13750747  0.70922532  0.09003032  1
  H  H10  1  0.86249253  0.79077468  0.59003032  1
  H  H11  1  0.63750747  0.29077468  0.40996968  1
  H  H12  1  0.63750747  0.79077468  0.09003032  1
  H  H13  1  0.86249253  0.29077468  0.90996968  1
  H  H14  1  0.13750747  0.20922532  0.40996968  1
  H  H15  1  0.36249253  0.70922532  0.59003032  1
  H  H16  1  0.05500957  0.35615548  0.00692856  1
  H  H17  1  0.44499043  0.85615548  0.99307144  1
  H  H18  1  0.55500957  0.64384452  0.49307144  1
  H  H19  1  0.94499043  0.14384452  0.50692856  1
  H  H20  1  0.94499043  0.64384452  0.99307144  1
  H  H21  1  0.55500957  0.14384452  0.00692856  1
  H  H22  1  0.44499043  0.35615548  0.50692856  1
  H  H23  1  0.05500957  0.85615548  0.49307144  1
  H  H24  1  0.91994633  0.41954078  0.97005273  1
  H  H25  1  0.58005367  0.91954078  0.02994727  1
  H  H26  1  0.41994633  0.58045922  0.52994727  1
  H  H27  1  0.08005367  0.08045922  0.47005273  1
  H  H28  1  0.08005367  0.58045922  0.02994727  1
  H  H29  1  0.41994633  0.08045922  0.97005273  1
  H  H30  1  0.58005367  0.41954078  0.47005273  1
  H  H31  1  0.91994633  0.91954078  0.52994727  1
  H  H32  1  0.90743569  0.35687699  0.05839717  1
  H  H33  1  0.59256431  0.85687699  0.94160283  1
  H  H34  1  0.40743569  0.64312301  0.44160283  1
  H  H35  1  0.09256431  0.14312301  0.55839717  1
  H  H36  1  0.09256431  0.64312301  0.94160283  1
  H  H37  1  0.40743569  0.14312301  0.05839717  1
  H  H38  1  0.59256431  0.35687699  0.55839717  1
  H  H39  1  0.90743569  0.85687699  0.44160283  1
  H  H40  1  0.85997592  0.18346223  0.05607938  1
  H  H41  1  0.64002408  0.68346223  0.94392062  1
  H  H42  1  0.35997592  0.81653777  0.44392062  1
  H  H43  1  0.14002408  0.31653777  0.55607938  1
  H  H44  1  0.14002408  0.81653777  0.94392062  1
  H  H45  1  0.35997592  0.31653777  0.05607938  1
  H  H46  1  0.64002408  0.18346223  0.55607938  1
  H  H47  1  0.85997592  0.68346223  0.44392062  1
  H  H48  1  0.73341463  0.25377472  0.01583700  1
  H  H49  1  0.76658537  0.75377472  0.98416300  1
  H  H50  1  0.23341463  0.74622528  0.48416300  1
  H  H51  1  0.26658537  0.24622528  0.51583700  1
  H  H52  1  0.26658537  0.74622528  0.98416300  1
  H  H53  1  0.23341463  0.24622528  0.01583700  1
  H  H54  1  0.76658537  0.25377472  0.51583700  1
  H  H55  1  0.73341463  0.75377472  0.48416300  1
  H  H56  1  0.78628209  0.14733828  0.96753109  1
  H  H57  1  0.71371791  0.64733828  0.03246891  1
  H  H58  1  0.28628209  0.85266172  0.53246891  1
  H  H59  1  0.21371791  0.35266172  0.46753109  1
  H  H60  1  0.21371791  0.85266172  0.03246891  1
  H  H61  1  0.28628209  0.35266172  0.96753109  1
  H  H62  1  0.71371791  0.14733828  0.46753109  1
  H  H63  1  0.78628209  0.64733828  0.53246891  1
  C  C0  1  0.95155618  0.35655981  0.00191796  1
  C  C1  1  0.54844382  0.85655981  0.99808204  1
  C  C2  1  0.45155618  0.64344019  0.49808204  1
  C  C3  1  0.04844382  0.14344019  0.50191796  1
  C  C4  1  0.04844382  0.64344019  0.99808204  1
  C  C5  1  0.45155618  0.14344019  0.00191796  1
  C  C6  1  0.54844382  0.35655981  0.50191796  1
  C  C7  1  0.95155618  0.85655981  0.49808204  1
  C  C8  1  0.81529571  0.20810441  0.00302135  1
  C  C9  1  0.68470429  0.70810441  0.99697865  1
  C  C10  1  0.31529571  0.79189559  0.49697865  1
  C  C11  1  0.18470429  0.29189559  0.50302135  1
  C  C12  1  0.18470429  0.79189559  0.99697865  1
  C  C13  1  0.31529571  0.29189559  0.00302135  1
  C  C14  1  0.68470429  0.20810441  0.50302135  1
  C  C15  1  0.81529571  0.70810441  0.49697865  1
  N  N0  1  0.40754764  0.23145090  0.95918202  1
  N  N1  1  0.09245236  0.73145090  0.04081798  1
  N  N2  1  0.90754764  0.76854910  0.54081798  1
  N  N3  1  0.59245236  0.26854910  0.45918202  1
  N  N4  1  0.59245236  0.76854910  0.04081798  1
  N  N5  1  0.90754764  0.26854910  0.95918202  1
  N  N6  1  0.09245236  0.23145090  0.45918202  1
  N  N7  1  0.40754764  0.73145090  0.54081798  1
  O  O0  1  0.61894185  0.49030565  0.79211967  1
  O  O1  1  0.88105815  0.99030565  0.20788033  1
  O  O2  1  0.11894185  0.50969435  0.70788033  1
  O  O3  1  0.38105815  0.00969435  0.29211967  1
  O  O4  1  0.38105815  0.50969435  0.20788033  1
  O  O5  1  0.11894185  0.00969435  0.79211967  1
  O  O6  1  0.88105815  0.49030565  0.29211967  1
  O  O7  1  0.61894185  0.99030565  0.70788033  1
  O  O8  1  0.86035074  0.64605375  0.84413952  1
  O  O9  1  0.63964926  0.14605375  0.15586048  1
  O  O10  1  0.36035074  0.35394625  0.65586048  1
  O  O11  1  0.13964926  0.85394625  0.34413952  1
  O  O12  1  0.13964926  0.35394625  0.15586048  1
  O  O13  1  0.36035074  0.85394625  0.84413952  1
  O  O14  1  0.63964926  0.64605375  0.34413952  1
  O  O15  1  0.86035074  0.14605375  0.65586048  1
  O  O16  1  0.79060804  0.48747488  0.89511884  1
  O  O17  1  0.70939196  0.98747488  0.10488116  1
  O  O18  1  0.29060804  0.51252512  0.60488116  1
  O  O19  1  0.20939196  0.01252512  0.39511884  1
  O  O20  1  0.20939196  0.51252512  0.10488116  1
  O  O21  1  0.29060804  0.01252512  0.89511884  1
  O  O22  1  0.70939196  0.48747488  0.39511884  1
  O  O23  1  0.79060804  0.98747488  0.60488116  1
  O  O24  1  0.67656140  0.64825611  0.67735606  1
  O  O25  1  0.82343860  0.14825611  0.32264394  1
  O  O26  1  0.17656140  0.35174389  0.82264394  1
  O  O27  1  0.32343860  0.85174389  0.17735606  1
  O  O28  1  0.32343860  0.35174389  0.32264394  1
  O  O29  1  0.17656140  0.85174389  0.67735606  1
  O  O30  1  0.82343860  0.64825611  0.17735606  1
  O  O31  1  0.67656140  0.14825611  0.82264394  1
  O  O32  1  0.62613913  0.31349374  0.86829481  1
  O  O33  1  0.87386087  0.81349374  0.13170519  1
  O  O34  1  0.12613913  0.68650626  0.63170519  1
  O  O35  1  0.37386087  0.18650626  0.36829481  1
  O  O36  1  0.37386087  0.68650626  0.13170519  1
  O  O37  1  0.12613913  0.18650626  0.86829481  1
  O  O38  1  0.87386087  0.31349374  0.36829481  1
  O  O39  1  0.62613913  0.81349374  0.63170519  1
  O  O40  1  0.91032745  0.84049167  0.87614899  1
  O  O41  1  0.58967255  0.34049167  0.12385101  1
  O  O42  1  0.41032745  0.15950833  0.62385101  1
  O  O43  1  0.08967255  0.65950833  0.37614899  1
  O  O44  1  0.08967255  0.15950833  0.12385101  1
  O  O45  1  0.41032745  0.65950833  0.87614899  1
  O  O46  1  0.58967255  0.84049167  0.37614899  1
  O  O47  1  0.91032745  0.34049167  0.62385101  1
  O  O48  1  0.97127598  0.01192311  0.90857617  1
  O  O49  1  0.52872402  0.51192311  0.09142383  1
  O  O50  1  0.47127598  0.98807689  0.59142383  1
  O  O51  1  0.02872402  0.48807689  0.40857617  1
  O  O52  1  0.02872402  0.98807689  0.09142383  1
  O  O53  1  0.47127598  0.48807689  0.90857617  1
  O  O54  1  0.52872402  0.01192311  0.40857617  1
  O  O55  1  0.97127598  0.51192311  0.59142383  1
  O  O56  1  0.85763569  0.90673706  0.00422729  1
  O  O57  1  0.64236431  0.40673706  0.99577271  1
  O  O58  1  0.35763569  0.09326294  0.49577271  1
  O  O59  1  0.14236431  0.59326294  0.50422729  1
  O  O60  1  0.14236431  0.09326294  0.99577271  1
  O  O61  1  0.35763569  0.59326294  0.00422729  1
  O  O62  1  0.64236431  0.90673706  0.50422729  1
  O  O63  1  0.85763569  0.40673706  0.49577271  1
  O  O64  1  0.74122095  0.96829423  0.88814663  1
  O  O65  1  0.75877905  0.46829423  0.11185337  1
  O  O66  1  0.24122095  0.03170577  0.61185337  1
  O  O67  1  0.25877905  0.53170577  0.38814663  1
  O  O68  1  0.25877905  0.03170577  0.11185337  1
  O  O69  1  0.24122095  0.53170577  0.88814663  1
  O  O70  1  0.75877905  0.96829423  0.38814663  1
  O  O71  1  0.74122095  0.46829423  0.61185337  1
  O  O72  1  0.00929442  0.50378227  0.84271667  1
  O  O73  1  0.49070558  0.00378227  0.15728333  1
  O  O74  1  0.50929442  0.49621773  0.65728333  1
  O  O75  1  0.99070558  0.99621773  0.34271667  1
  O  O76  1  0.99070558  0.49621773  0.15728333  1
  O  O77  1  0.50929442  0.99621773  0.84271667  1
  O  O78  1  0.49070558  0.50378227  0.34271667  1
  O  O79  1  0.00929442  0.00378227  0.65728333  1
  O  O80  1  0.71989962  0.78948835  0.76398924  1
  O  O81  1  0.78010038  0.28948835  0.23601076  1
  O  O82  1  0.21989962  0.21051165  0.73601076  1
  O  O83  1  0.28010038  0.71051165  0.26398924  1
  O  O84  1  0.28010038  0.21051165  0.23601076  1
  O  O85  1  0.21989962  0.71051165  0.76398924  1
  O  O86  1  0.78010038  0.78948835  0.26398924  1
  O  O87  1  0.71989962  0.28948835  0.73601076  1
  O  O88  1  0.49132248  0.74004342  0.73345266  1
  O  O89  1  0.00867752  0.24004342  0.26654734  1
  O  O90  1  0.99132248  0.25995658  0.76654734  1
  O  O91  1  0.50867752  0.75995658  0.23345266  1
  O  O92  1  0.50867752  0.25995658  0.26654734  1
  O  O93  1  0.99132248  0.75995658  0.73345266  1
  O  O94  1  0.00867752  0.74004342  0.23345266  1
  O  O95  1  0.49132248  0.24004342  0.76654734  1
  O  O96  1  0.82466105  0.50814955  0.75056951  1
  O  O97  1  0.67533895  0.00814955  0.24943049  1
  O  O98  1  0.32466105  0.49185045  0.74943049  1
  O  O99  1  0.17533895  0.99185045  0.25056951  1
  O  O100  1  0.17533895  0.49185045  0.24943049  1
  O  O101  1  0.32466105  0.99185045  0.75056951  1
  O  O102  1  0.67533895  0.50814955  0.25056951  1
  O  O103  1  0.82466105  0.00814955  0.74943049  1
loop_
_geom_bond_atom_site_label_1
_geom_bond_atom_site_label_2
_geom_bond_distance
_geom_bond_site_symmetry_2
Al0 O53 1.792713 1_555
Al0 O16 1.820993 1_555
Al0 O32 1.838749 1_555
Al0 O0 1.875226 1_555
Al0 O57 1.883757 1_555
Al1 O52 1.792713 1_655
Al1 O17 1.820993 1_555
Al1 O33 1.838749 1_555
Al1 O1 1.875226 1_555
Al1 O56 1.883757 1_555
Al2 O55 1.792713 1_455
Al2 O18 1.820993 1_555
Al2 O34 1.838749 1_555
Al2 O2 1.875226 1_555
Al2 O59 1.883757 1_555
Al3 O54 1.792713 1_555
Al3 O19 1.820993 1_555
Al3 O35 1.838749 1_555
Al3 O3 1.875226 1_555
Al3 O58 1.883757 1_555
Al4 O49 1.792713 1_555
Al4 O20 1.820993 1_555
Al4 O36 1.838749 1_555
Al4 O4 1.875226 1_555
Al4 O61 1.883757 1_555
Al5 O48 1.792713 1_455
Al5 O21 1.820993 1_555
Al5 O37 1.838749 1_555
Al5 O5 1.875226 1_555
Al5 O60 1.883757 1_555
Al6 O51 1.792713 1_655
Al6 O22 1.820993 1_555
Al6 O38 1.838749 1_555
Al6 O6 1.875226 1_555
Al6 O63 1.883757 1_555
Al7 O50 1.792713 1_555
Al7 O23 1.820993 1_555
Al7 O39 1.838749 1_555
Al7 O7 1.875226 1_555
Al7 O62 1.883757 1_555
Al8 O71 1.805458 1_555
Al8 O0 1.810475 1_555
Al8 O24 1.816938 1_555
Al8 O74 1.832363 1_555
Al8 O96 1.908074 1_555
Al9 O70 1.805458 1_545
Al9 O1 1.810475 1_545
Al9 O25 1.816938 1_555
Al9 O75 1.832363 1_545
Al9 O97 1.908074 1_555
Al10 O69 1.805458 1_555
Al10 O2 1.810475 1_555
Al10 O26 1.816938 1_555
Al10 O72 1.832363 1_555
Al10 O98 1.908074 1_555
Al11 O68 1.805458 1_565
Al11 O3 1.810475 1_565
Al11 O27 1.816938 1_555
Al11 O73 1.832363 1_565
Al11 O99 1.908074 1_555
Al12 O67 1.805458 1_555
Al12 O4 1.810475 1_555
Al12 O28 1.816938 1_555
Al12 O78 1.832363 1_555
Al12 O100 1.908074 1_555
Al13 O66 1.805458 1_565
Al13 O5 1.810475 1_565
Al13 O29 1.816938 1_555
Al13 O79 1.832363 1_565
Al13 O101 1.908074 1_555
Al14 O65 1.805458 1_555
Al14 O6 1.810475 1_555
Al14 O30 1.816938 1_555
Al14 O76 1.832363 1_555
Al14 O102 1.908074 1_555
Al15 O64 1.805458 1_545
Al15 O7 1.810475 1_545
Al15 O31 1.816938 1_555
Al15 O77 1.832363 1_545
Al15 O103 1.908074 1_555
Al16 O40 1.745530 1_555
Al16 O8 1.750120 1_555
Al16 O93 1.755334 1_555
Al16 O80 1.776278 1_555
Al17 O41 1.745530 1_555
Al17 O9 1.750120 1_555
Al17 O92 1.755334 1_555
Al17 O81 1.776278 1_555
Al18 O42 1.745530 1_555
Al18 O10 1.750120 1_555
Al18 O95 1.755334 1_555
Al18 O82 1.776278 1_555
Al19 O43 1.745530 1_555
Al19 O11 1.750120 1_555
Al19 O94 1.755334 1_555
Al19 O83 1.776278 1_555
Al20 O44 1.745530 1_555
Al20 O12 1.750120 1_555
Al20 O89 1.755334 1_555
Al20 O84 1.776278 1_555
Al21 O45 1.745530 1_555
Al21 O13 1.750120 1_555
Al21 O88 1.755334 1_555
Al21 O85 1.776278 1_555
Al22 O46 1.745530 1_555
Al22 O14 1.750120 1_555
Al22 O91 1.755334 1_555
Al22 O86 1.776278 1_555
Al23 O47 1.745530 1_555
Al23 O15 1.750120 1_555
Al23 O90 1.755334 1_555
Al23 O87 1.776278 1_555
H0 N0 1.036733 1_555
H1 N1 1.036733 1_555
H2 N2 1.036733 1_555
H3 N3 1.036733 1_555
H4 N4 1.036733 1_555
H5 N5 1.036733 1_555
H6 N6 1.036733 1_555
H7 N7 1.036733 1_555
H8 N0 1.029590 1_555
H9 N1 1.029590 1_555
H10 N2 1.029590 1_555
H11 N3 1.029590 1_555
H12 N4 1.029590 1_555
H13 N5 1.029590 1_555
H14 N6 1.029590 1_555
H15 N7 1.029590 1_555
C0 H16 1.090469 1_655
C0 H32 1.090693 1_555
C0 H24 1.091340 1_554
C0 N5 1.508773 1_554
C1 H17 1.090469 1_555
C1 H33 1.090693 1_555
C1 H25 1.091340 1_556
C1 N4 1.508773 1_556
C2 H18 1.090469 1_555
C2 H34 1.090693 1_555
C2 H26 1.091340 1_555
C2 N7 1.508773 1_555
C3 H19 1.090469 1_455
C3 H35 1.090693 1_555
C3 H27 1.091340 1_555
C3 N6 1.508773 1_555
C4 H20 1.090469 1_455
C4 H36 1.090693 1_555
C4 H28 1.091340 1_556
C4 N1 1.508773 1_556
C5 H21 1.090469 1_555
C5 H37 1.090693 1_555
C5 H29 1.091340 1_554
C5 N0 1.508773 1_554
C6 H22 1.090469 1_555
C6 H38 1.090693 1_555
C6 H30 1.091340 1_555
C6 N3 1.508773 1_555
C7 H23 1.090469 1_655
C7 H39 1.090693 1_555
C7 H31 1.091340 1_555
C7 N2 1.508773 1_555
C8 H56 1.093170 1_554
C8 H48 1.093347 1_555
C8 H40 1.094769 1_555
C8 N5 1.495442 1_554
C9 H57 1.093170 1_556
C9 H49 1.093347 1_555
C9 H41 1.094769 1_555
C9 N4 1.495442 1_556
C10 H58 1.093170 1_555
C10 H50 1.093347 1_555
C10 H42 1.094769 1_555
C10 N7 1.495442 1_555
C11 H59 1.093170 1_555
C11 H51 1.093347 1_555
C11 H43 1.094769 1_555
C11 N6 1.495442 1_555
C12 H60 1.093170 1_556
C12 H52 1.093347 1_555
C12 H44 1.094769 1_555
C12 N1 1.495442 1_556
C13 H61 1.093170 1_554
C13 H53 1.093347 1_555
C13 H45 1.094769 1_555
C13 N0 1.495442 1_554
C14 H62 1.093170 1_555
C14 H54 1.093347 1_555
C14 H46 1.094769 1_555
C14 N3 1.495442 1_555
C15 H63 1.093170 1_555
C15 H55 1.093347 1_555
C15 H47 1.094769 1_555
C15 N2 1.495442 1_555
O8 P8 1.552100 1_555
O9 P9 1.552100 1_555
O10 P10 1.552100 1_555
O11 P11 1.552100 1_555
O12 P12 1.552100 1_555
O13 P13 1.552100 1_555
O14 P14 1.552100 1_555
O15 P15 1.552100 1_555
O16 P8 1.551317 1_555
O17 P9 1.551317 1_565
O18 P10 1.551317 1_555
O19 P11 1.551317 1_545
O20 P12 1.551317 1_555
O21 P13 1.551317 1_545
O22 P14 1.551317 1_555
O23 P15 1.551317 1_565
O24 P16 1.532341 1_555
O25 P17 1.532341 1_555
O26 P18 1.532341 1_555
O27 P19 1.532341 1_555
O28 P20 1.532341 1_555
O29 P21 1.532341 1_555
O30 P22 1.532341 1_555
O31 P23 1.532341 1_555
O32 P23 1.549960 1_555
O33 P22 1.549960 1_555
O34 P21 1.549960 1_555
O35 P20 1.549960 1_555
O36 P19 1.549960 1_555
O37 P18 1.549960 1_555
O38 P17 1.549960 1_555
O39 P16 1.549960 1_555
O40 P0 1.560241 1_555
O41 P1 1.560241 1_555
O42 P2 1.560241 1_555
O43 P3 1.560241 1_555
O44 P4 1.560241 1_555
O45 P5 1.560241 1_555
O46 P6 1.560241 1_555
O47 P7 1.560241 1_555
O48 P0 1.538970 1_545
O49 P1 1.538970 1_555
O50 P2 1.538970 1_565
O51 P3 1.538970 1_555
O52 P4 1.538970 1_565
O53 P5 1.538970 1_555
O54 P6 1.538970 1_545
O55 P7 1.538970 1_555
O56 P0 1.532467 1_554
O57 P1 1.532467 1_556
O58 P2 1.532467 1_555
O59 P3 1.532467 1_555
O60 P4 1.532467 1_556
O61 P5 1.532467 1_554
O62 P6 1.532467 1_555
O63 P7 1.532467 1_555
O64 P0 1.536787 1_555
O65 P1 1.536787 1_555
O66 P2 1.536787 1_555
O67 P3 1.536787 1_555
O68 P4 1.536787 1_555
O69 P5 1.536787 1_555
O70 P6 1.536787 1_555
O71 P7 1.536787 1_555
O72 P8 1.526989 1_455
O73 P9 1.526989 1_555
O74 P10 1.526989 1_555
O75 P11 1.526989 1_655
O76 P12 1.526989 1_655
O77 P13 1.526989 1_555
O78 P14 1.526989 1_555
O79 P15 1.526989 1_455
O80 P16 1.550967 1_555
O81 P17 1.550967 1_555
O82 P18 1.550967 1_555
O83 P19 1.550967 1_555
O84 P20 1.550967 1_555
O85 P21 1.550967 1_555
O86 P22 1.550967 1_555
O87 P23 1.550967 1_555
O88 P16 1.544415 1_555
O89 P17 1.544415 1_455
O90 P18 1.544415 1_655
O91 P19 1.544415 1_555
O92 P20 1.544415 1_555
O93 P21 1.544415 1_655
O94 P22 1.544415 1_455
O95 P23 1.544415 1_555
O96 P8 1.553433 1_555
O97 P9 1.553433 1_555
O98 P10 1.553433 1_555
O99 P11 1.553433 1_555
O100 P12 1.553433 1_555
O101 P13 1.553433 1_555
O102 P14 1.553433 1_555
O103 P15 1.553433 1_555
