# generated using pymatgen
data_Li6Zn3(PS4)4
_symmetry_space_group_name_H-M   'P 1'
_cell_length_a   9.30877027
_cell_length_b   11.60006338
_cell_length_c   23.15904048
_cell_angle_alpha   90.03856570
_cell_angle_beta   90.02668880
_cell_angle_gamma   90.03295814
_symmetry_Int_Tables_number   1
_chemical_formula_structural   Li6Zn3(PS4)4
_chemical_formula_sum   'Li24 Zn12 P16 S64'
_cell_volume   2500.76578831
_cell_formula_units_Z   4
loop_
 _symmetry_equiv_pos_site_id
 _symmetry_equiv_pos_as_xyz
  1  'x, y, z'
loop_
 _atom_site_type_symbol
 _atom_site_label
 _atom_site_symmetry_multiplicity
 _atom_site_fract_x
 _atom_site_fract_y
 _atom_site_fract_z
 _atom_site_occupancy
  Li  Li0  1  0.75020735  0.99065963  0.87568445  1
  Li  Li1  1  0.25678090  0.75868116  0.74606180  1
  Li  Li2  1  0.24203834  0.24206670  0.74949480  1
  Li  Li3  1  0.24727810  0.75687924  0.99738466  1
  Li  Li4  1  0.50146769  0.49941339  0.25032379  1
  Li  Li5  1  0.50438982  0.99686656  0.25217257  1
  Li  Li6  1  0.50280203  0.50108072  0.50033279  1
  Li  Li7  1  0.50384316  0.99924442  0.49826945  1
  Li  Li8  1  0.00660133  0.75218699  0.37422811  1
  Li  Li9  1  0.00213842  0.24972612  0.37521919  1
  Li  Li10  1  0.50774068  0.50334647  0.75100162  1
  Li  Li11  1  0.51078499  0.00179016  0.74561929  1
  Li  Li12  1  0.99801118  0.75440610  0.62242230  1
  Li  Li13  1  0.98643585  0.24961208  0.62275773  1
  Li  Li14  1  0.49937322  0.49793271  0.00031157  1
  Li  Li15  1  0.50429247  0.00056050  0.00303571  1
  Li  Li16  1  0.99646662  0.74594864  0.87621312  1
  Li  Li17  1  0.99500916  0.25093529  0.87550549  1
  Li  Li18  1  0.99725024  0.74945053  0.12871331  1
  Li  Li19  1  0.00281577  0.24735577  0.12450052  1
  Li  Li20  1  0.50781085  0.74897363  0.62325663  1
  Li  Li21  1  0.50638031  0.74891138  0.87422318  1
  Li  Li22  1  0.99165886  0.99713092  0.74891643  1
  Li  Li23  1  0.00006869  0.00290600  0.00154209  1
  Zn  Zn0  1  0.49942348  0.25020196  0.12587531  1
  Zn  Zn1  1  0.50562365  0.74946629  0.12653566  1
  Zn  Zn2  1  0.49854434  0.25008704  0.37465690  1
  Zn  Zn3  1  0.49909306  0.75101476  0.37600661  1
  Zn  Zn4  1  0.99915383  0.50065709  0.25116372  1
  Zn  Zn5  1  0.99970707  0.00028082  0.25005277  1
  Zn  Zn6  1  0.50335536  0.24916947  0.62334035  1
  Zn  Zn7  1  0.99888365  0.50101530  0.49882641  1
  Zn  Zn8  1  0.99849201  0.99987361  0.50038552  1
  Zn  Zn9  1  0.49867519  0.25038689  0.87715747  1
  Zn  Zn10  1  0.98483178  0.49997797  0.74922184  1
  Zn  Zn11  1  0.99074282  0.50002405  0.99965428  1
  P  P0  1  0.75072297  0.24983787  0.24980790  1
  P  P1  1  0.75004928  0.74927505  0.25063036  1
  P  P2  1  0.74965465  0.25093744  0.49911451  1
  P  P3  1  0.75215657  0.74582359  0.49818950  1
  P  P4  1  0.25086420  0.49971355  0.37502007  1
  P  P5  1  0.24982673  0.00049948  0.37496803  1
  P  P6  1  0.75001464  0.25114020  0.74880096  1
  P  P7  1  0.74768792  0.74953735  0.75351438  1
  P  P8  1  0.24807726  0.49727340  0.62819960  1
  P  P9  1  0.24995903  0.99754310  0.62261533  1
  P  P10  1  0.74638153  0.25074021  0.99760944  1
  P  P11  1  0.75295799  0.75302813  0.00296482  1
  P  P12  1  0.24473768  0.49971194  0.87679834  1
  P  P13  1  0.25415769  0.00027601  0.87185651  1
  P  P14  1  0.25156858  0.50105732  0.12481891  1
  P  P15  1  0.24930868  0.00352383  0.12570677  1
  S  S0  1  0.86366555  0.35857051  0.05086475  1
  S  S1  1  0.87543910  0.85483759  0.05380245  1
  S  S2  1  0.86545127  0.36075534  0.30221334  1
  S  S3  1  0.86544960  0.86086498  0.30221401  1
  S  S4  1  0.36349120  0.61260142  0.17723210  1
  S  S5  1  0.37558740  0.10614201  0.17792447  1
  S  S6  1  0.86120209  0.36432171  0.55103817  1
  S  S7  1  0.86293684  0.86091401  0.55052085  1
  S  S8  1  0.36440978  0.61094472  0.42736695  1
  S  S9  1  0.36459876  0.11212977  0.42685156  1
  S  S10  1  0.85884441  0.36211763  0.80344887  1
  S  S11  1  0.87265542  0.85569140  0.80559077  1
  S  S12  1  0.36785799  0.60522207  0.67901061  1
  S  S13  1  0.36721853  0.11234904  0.67654919  1
  S  S14  1  0.36668626  0.60690622  0.92677503  1
  S  S15  1  0.37237242  0.10538232  0.92667332  1
  S  S16  1  0.63314935  0.64642582  0.30572121  1
  S  S17  1  0.63656712  0.14636840  0.30575062  1
  S  S18  1  0.64118207  0.64288127  0.55245887  1
  S  S19  1  0.63787771  0.14529285  0.55514960  1
  S  S20  1  0.13592186  0.89730556  0.43094111  1
  S  S21  1  0.13745778  0.39523184  0.43084200  1
  S  S22  1  0.63729476  0.64099089  0.80591192  1
  S  S23  1  0.62871779  0.14738806  0.80543096  1
  S  S24  1  0.13185148  0.89666077  0.67819230  1
  S  S25  1  0.12304656  0.39061772  0.68192075  1
  S  S26  1  0.62871907  0.64599470  0.05457735  1
  S  S27  1  0.63364845  0.14863673  0.05467384  1
  S  S28  1  0.13140562  0.89854008  0.92594939  1
  S  S29  1  0.12740713  0.39485510  0.93012198  1
  S  S30  1  0.13812114  0.89672747  0.18135618  1
  S  S31  1  0.13198049  0.39897876  0.17907183  1
  S  S32  1  0.86440081  0.13842508  0.19745010  1
  S  S33  1  0.86189926  0.63617601  0.19844307  1
  S  S34  1  0.86484011  0.13958577  0.44746024  1
  S  S35  1  0.87462288  0.64070087  0.44515278  1
  S  S36  1  0.36408285  0.38835529  0.32231096  1
  S  S37  1  0.36264769  0.88778094  0.32292150  1
  S  S38  1  0.86366742  0.14348643  0.69834063  1
  S  S39  1  0.87448367  0.64772801  0.69920667  1
  S  S40  1  0.36259917  0.38866662  0.57500693  1
  S  S41  1  0.37271818  0.89629425  0.57250951  1
  S  S42  1  0.86417115  0.14134867  0.94662092  1
  S  S43  1  0.86044789  0.63939340  0.94837946  1
  S  S44  1  0.36587148  0.39022146  0.82388651  1
  S  S45  1  0.37849258  0.89668669  0.81997195  1
  S  S46  1  0.36369196  0.38903629  0.07278444  1
  S  S47  1  0.36897224  0.88802254  0.07389299  1
  S  S48  1  0.63733512  0.35495639  0.19394922  1
  S  S49  1  0.63872713  0.85500256  0.19450740  1
  S  S50  1  0.63350646  0.35428663  0.44371346  1
  S  S51  1  0.64004893  0.85325092  0.44236205  1
  S  S52  1  0.13794190  0.60424875  0.31878125  1
  S  S53  1  0.13581657  0.10468859  0.31893828  1
  S  S54  1  0.62557469  0.35428109  0.69654180  1
  S  S55  1  0.63586981  0.85084546  0.69801839  1
  S  S56  1  0.13076902  0.59921814  0.57303729  1
  S  S57  1  0.12849772  0.10525540  0.57109393  1
  S  S58  1  0.63255532  0.35862379  0.94354210  1
  S  S59  1  0.63005496  0.85454978  0.94876051  1
  S  S60  1  0.12871540  0.60204690  0.81970368  1
  S  S61  1  0.12648514  0.10459499  0.82132896  1
  S  S62  1  0.13003475  0.60513825  0.06898354  1
  S  S63  1  0.14194010  0.10632344  0.07057319  1
loop_
_geom_bond_atom_site_label_1
_geom_bond_atom_site_label_2
_geom_bond_distance
_geom_bond_site_symmetry_2
Li0 S11 2.527040 1_555
Li0 S59 2.571245 1_555
Li0 S42 2.621484 1_565
Li0 S23 2.689998 1_565
Li1 S24 2.527571 1_555
Li1 S12 2.578609 1_555
Li1 S45 2.601681 1_555
Li1 S60 2.763109 1_555
Li2 S61 2.543798 1_555
Li2 S13 2.544881 1_555
Li2 S25 2.578688 1_555
Li2 S44 2.691182 1_555
Li3 S28 2.569977 1_555
Li3 S47 2.594139 1_556
Li3 S14 2.633668 1_555
Li3 S62 2.653745 1_556
Li4 S16 2.459665 1_555
Li4 S36 2.465278 1_555
Li4 S48 2.472487 1_555
Li4 S4 2.498370 1_555
Li5 S5 2.450284 1_565
Li5 S37 2.455538 1_555
Li5 S17 2.460551 1_565
Li5 S49 2.460962 1_555
Li6 S18 2.411587 1_555
Li6 S50 2.469856 1_555
Li6 S8 2.478313 1_555
Li6 S40 2.529370 1_555
Li7 S41 2.423883 1_555
Li7 S9 2.476557 1_565
Li7 S51 2.480545 1_555
Li7 S19 2.480977 1_565
Li8 S35 2.425430 1_455
Li8 S20 2.449743 1_555
Li8 S52 2.467709 1_555
Li8 S3 2.469804 1_455
Li9 S34 2.463304 1_455
Li9 S53 2.465553 1_555
Li9 S21 2.467419 1_555
Li9 S2 2.477743 1_455
Li10 S22 2.369510 1_555
Li10 S54 2.405087 1_555
Li10 S12 2.423679 1_555
Li10 S44 2.513622 1_555
Li11 S55 2.374425 1_545
Li11 S23 2.443307 1_555
Li11 S45 2.443593 1_545
Li11 S13 2.447912 1_555
Li12 S7 2.425457 1_555
Li12 S24 2.436539 1_655
Li12 S39 2.453364 1_555
Li12 S56 2.465176 1_655
Li13 S38 2.426666 1_555
Li13 S6 2.427212 1_555
Li13 S57 2.446590 1_655
Li13 S25 2.482518 1_655
Li14 S58 2.424440 1_554
Li14 S26 2.443840 1_555
Li14 S46 2.451724 1_555
Li14 S14 2.454916 1_554
Li15 S59 2.412467 1_544
Li15 S27 2.413318 1_555
Li15 S47 2.446774 1_545
Li15 S15 2.473183 1_554
Li16 S11 2.372058 1_555
Li16 S43 2.434584 1_555
Li16 S60 2.452679 1_655
Li16 S28 2.455824 1_655
Li17 S42 2.411381 1_555
Li17 S29 2.428857 1_655
Li17 S61 2.440235 1_655
Li17 S10 2.461215 1_555
Li18 S1 2.406787 1_555
Li18 S33 2.434074 1_555
Li18 S30 2.473415 1_655
Li18 S62 2.498911 1_655
Li19 S63 2.432000 1_555
Li19 S32 2.472670 1_455
Li19 S31 2.475800 1_555
Li19 S0 2.500638 1_455
Li20 S18 2.396914 1_555
Li20 S55 2.410183 1_555
Li20 S41 2.426290 1_555
Li20 S12 2.479333 1_555
Li21 S22 2.357119 1_555
Li21 S59 2.408427 1_555
Li21 S14 2.426397 1_555
Li21 S45 2.436830 1_555
Li22 S11 2.375704 1_555
Li22 S38 2.382740 1_565
Li22 S24 2.396930 1_655
Li22 S61 2.436175 1_665
Li23 S63 2.394310 1_555
Li23 S1 2.400571 1_445
Li23 S42 2.408475 1_454
Li23 S28 2.454796 1_544
P0 S17 2.061618 1_555
P0 S32 2.064226 1_555
P0 S2 2.064976 1_555
P0 S48 2.068041 1_555
P1 S16 2.058446 1_555
P1 S3 2.061999 1_555
P1 S33 2.065584 1_555
P1 S49 2.066336 1_555
P2 S6 2.061378 1_555
P2 S34 2.061528 1_555
P2 S50 2.062691 1_555
P2 S19 2.066511 1_555
P3 S18 2.018552 1_555
P3 S35 2.072726 1_555
P3 S7 2.075979 1_555
P3 S51 2.077503 1_555
P4 S8 2.060787 1_555
P4 S21 2.063147 1_555
P4 S36 2.066433 1_555
P4 S52 2.067377 1_555
P5 S20 2.058997 1_545
P5 S9 2.063288 1_555
P5 S37 2.065463 1_545
P5 S53 2.067152 1_555
P6 S38 2.011252 1_555
P6 S54 2.059203 1_555
P6 S10 2.068915 1_555
P6 S23 2.108406 1_555
P7 S22 2.028723 1_555
P7 S55 2.029414 1_555
P7 S11 2.078259 1_555
P7 S39 2.090626 1_555
P8 S12 2.047236 1_555
P8 S56 2.055519 1_555
P8 S40 2.059594 1_555
P8 S25 2.105930 1_555
P9 S41 2.008173 1_555
P9 S24 2.058334 1_555
P9 S57 2.065339 1_565
P9 S13 2.126029 1_565
P10 S42 2.051262 1_555
P10 S27 2.062172 1_556
P10 S58 2.063766 1_555
P10 S0 2.067072 1_556
P11 S1 2.018954 1_555
P11 S59 2.067321 1_554
P11 S26 2.075920 1_555
P11 S43 2.082615 1_554
P12 S14 2.041977 1_555
P12 S29 2.049193 1_555
P12 S60 2.079967 1_555
P12 S44 2.094530 1_555
P13 S45 2.056287 1_545
P13 S61 2.061163 1_555
P13 S28 2.066292 1_545
P13 S15 2.074660 1_555
P14 S31 2.054710 1_555
P14 S4 2.056274 1_555
P14 S46 2.056881 1_555
P14 S62 2.100474 1_555
P15 S63 2.013332 1_555
P15 S5 2.063095 1_555
P15 S30 2.066129 1_545
P15 S47 2.115807 1_545
S0 Zn11 2.345216 1_554
S2 Zn4 2.362651 1_555
S3 Zn5 2.374522 1_565
S4 Zn1 2.377214 1_555
S5 Zn0 2.361408 1_555
S6 Zn7 2.370803 1_555
S7 Zn8 2.353781 1_555
S8 Zn3 2.372415 1_555
S9 Zn2 2.361893 1_555
S10 Zn10 2.347744 1_555
S13 Zn6 2.375960 1_555
S15 Zn9 2.351223 1_555
S16 Zn3 2.383216 1_555
S17 Zn2 2.376134 1_555
S19 Zn6 2.348416 1_555
S20 Zn8 2.374835 1_455
S21 Zn7 2.376923 1_455
S23 Zn9 2.377626 1_555
S25 Zn10 2.386437 1_455
S26 Zn1 2.351918 1_555
S27 Zn0 2.381029 1_555
S29 Zn11 2.387650 1_455
S30 Zn5 2.373882 1_465
S31 Zn4 2.389230 1_455
S32 Zn5 2.375284 1_555
S33 Zn4 2.365988 1_555
S34 Zn8 2.383349 1_545
S35 Zn7 2.347810 1_555
S36 Zn2 2.369047 1_555
S37 Zn3 2.375950 1_555
S39 Zn10 2.310388 1_555
S40 Zn6 2.364690 1_555
S43 Zn11 2.344864 1_555
S44 Zn9 2.384338 1_555
S46 Zn0 2.388597 1_555
S47 Zn1 2.385644 1_555
S48 Zn0 2.367255 1_555
S49 Zn1 2.346434 1_555
S50 Zn2 2.364501 1_555
S51 Zn3 2.341699 1_555
S52 Zn4 2.357786 1_455
S53 Zn5 2.368750 1_455
S54 Zn6 2.376735 1_555
S56 Zn7 2.398430 1_455
S57 Zn8 2.373648 1_445
S58 Zn9 2.342437 1_555
S60 Zn10 2.419447 1_455
S62 Zn11 2.395744 1_454
