# generated using pymatgen
data_Ba2Mo15Se19
_symmetry_space_group_name_H-M   'P 1'
_cell_length_a   9.94973318
_cell_length_b   9.94973318
_cell_length_c   20.22584738
_cell_angle_alpha   75.76108262
_cell_angle_beta   75.76108262
_cell_angle_gamma   59.99999244
_symmetry_Int_Tables_number   1
_chemical_formula_structural   Ba2Mo15Se19
_chemical_formula_sum   'Ba4 Mo30 Se38'
_cell_volume   1662.63514457
_cell_formula_units_Z   2
loop_
 _symmetry_equiv_pos_site_id
 _symmetry_equiv_pos_as_xyz
  1  'x, y, z'
loop_
 _atom_site_type_symbol
 _atom_site_label
 _atom_site_symmetry_multiplicity
 _atom_site_fract_x
 _atom_site_fract_y
 _atom_site_fract_z
 _atom_site_occupancy
  Ba  Ba0  1  0.61511420  0.61511420  0.15465739  1
  Ba  Ba1  1  0.11511420  0.11511420  0.65465739  1
  Ba  Ba2  1  0.38488580  0.38488580  0.84534261  1
  Ba  Ba3  1  0.88488580  0.88488580  0.34534261  1
  Mo  Mo0  1  0.49987266  0.68437143  0.44189670  1
  Mo  Mo1  1  0.68437143  0.37385920  0.44189670  1
  Mo  Mo2  1  0.37385920  0.49987266  0.44189670  1
  Mo  Mo3  1  0.99987266  0.87385920  0.94189670  1
  Mo  Mo4  1  0.87385920  0.18437143  0.94189670  1
  Mo  Mo5  1  0.18437143  0.99987266  0.94189670  1
  Mo  Mo6  1  0.50012734  0.31562857  0.55810330  1
  Mo  Mo7  1  0.31562857  0.62614080  0.55810330  1
  Mo  Mo8  1  0.62614080  0.50012734  0.55810330  1
  Mo  Mo9  1  0.00012734  0.12614080  0.05810330  1
  Mo  Mo10  1  0.12614080  0.81562857  0.05810330  1
  Mo  Mo11  1  0.81562857  0.00012734  0.05810330  1
  Mo  Mo12  1  0.72199749  0.85851908  0.86757371  1
  Mo  Mo13  1  0.85851908  0.55190972  0.86757371  1
  Mo  Mo14  1  0.55190972  0.72199749  0.86757371  1
  Mo  Mo15  1  0.22199749  0.05190972  0.36757371  1
  Mo  Mo16  1  0.05190972  0.35851908  0.36757371  1
  Mo  Mo17  1  0.35851908  0.22199749  0.36757371  1
  Mo  Mo18  1  0.27800251  0.14148092  0.13242629  1
  Mo  Mo19  1  0.14148092  0.44809028  0.13242629  1
  Mo  Mo20  1  0.44809028  0.27800251  0.13242629  1
  Mo  Mo21  1  0.77800251  0.94809028  0.63242629  1
  Mo  Mo22  1  0.94809028  0.64148092  0.63242629  1
  Mo  Mo23  1  0.64148092  0.77800251  0.63242629  1
  Mo  Mo24  1  0.59322319  0.90677681  0.75000000  1
  Mo  Mo25  1  0.90677681  0.75000000  0.75000000  1
  Mo  Mo26  1  0.75000000  0.59322319  0.75000000  1
  Mo  Mo27  1  0.09322319  0.25000000  0.25000000  1
  Mo  Mo28  1  0.25000000  0.40677681  0.25000000  1
  Mo  Mo29  1  0.40677681  0.09322319  0.25000000  1
  Se  Se0  1  0.80005191  0.55613460  0.44877734  1
  Se  Se1  1  0.55613460  0.19503615  0.44877734  1
  Se  Se2  1  0.19503615  0.80005191  0.44877734  1
  Se  Se3  1  0.30005191  0.69503615  0.94877734  1
  Se  Se4  1  0.69503615  0.05613460  0.94877734  1
  Se  Se5  1  0.05613460  0.30005191  0.94877734  1
  Se  Se6  1  0.19994809  0.44386540  0.55122266  1
  Se  Se7  1  0.44386540  0.80496385  0.55122266  1
  Se  Se8  1  0.80496385  0.19994809  0.55122266  1
  Se  Se9  1  0.69994809  0.30496385  0.05122266  1
  Se  Se10  1  0.30496385  0.94386540  0.05122266  1
  Se  Se11  1  0.94386540  0.69994809  0.05122266  1
  Se  Se12  1  0.42215264  0.03134585  0.85858808  1
  Se  Se13  1  0.03134585  0.68791342  0.85858808  1
  Se  Se14  1  0.68791342  0.42215264  0.85858808  1
  Se  Se15  1  0.92215264  0.18791342  0.35858808  1
  Se  Se16  1  0.18791342  0.53134585  0.35858808  1
  Se  Se17  1  0.53134585  0.92215264  0.35858808  1
  Se  Se18  1  0.57784736  0.96865415  0.14141192  1
  Se  Se19  1  0.96865415  0.31208658  0.14141192  1
  Se  Se20  1  0.31208658  0.57784736  0.14141192  1
  Se  Se21  1  0.07784736  0.81208658  0.64141192  1
  Se  Se22  1  0.81208658  0.46865415  0.64141192  1
  Se  Se23  1  0.46865415  0.07784736  0.64141192  1
  Se  Se24  1  0.05418051  0.44581949  0.75000000  1
  Se  Se25  1  0.44581949  0.75000000  0.75000000  1
  Se  Se26  1  0.75000000  0.05418051  0.75000000  1
  Se  Se27  1  0.55418051  0.25000000  0.25000000  1
  Se  Se28  1  0.25000000  0.94581949  0.25000000  1
  Se  Se29  1  0.94581949  0.55418051  0.25000000  1
  Se  Se30  1  0.55452586  0.55452586  0.33642243  1
  Se  Se31  1  0.05452586  0.05452586  0.83642243  1
  Se  Se32  1  0.44547414  0.44547414  0.66357757  1
  Se  Se33  1  0.94547414  0.94547414  0.16357757  1
  Se  Se34  1  0.67557854  0.67557854  0.97326439  1
  Se  Se35  1  0.17557854  0.17557854  0.47326439  1
  Se  Se36  1  0.32442146  0.32442146  0.02673561  1
  Se  Se37  1  0.82442146  0.82442146  0.52673561  1
loop_
_geom_bond_atom_site_label_1
_geom_bond_atom_site_label_2
_geom_bond_distance
_geom_bond_site_symmetry_2
Ba0 Se19 3.296047 1_555
Ba0 Se20 3.296048 1_555
Ba0 Se18 3.296048 1_555
Ba0 Se34 3.517742 1_554
Ba0 Se30 3.524957 1_555
Ba0 Se10 3.783445 1_555
Ba0 Se9 3.783445 1_555
Ba0 Se11 3.783446 1_555
Ba0 Se28 3.932498 1_555
Ba0 Se27 3.932498 1_555
Ba0 Se29 3.932498 1_555
Ba1 Se22 3.296047 1_455
Ba1 Se21 3.296048 1_545
Ba1 Se23 3.296048 1_555
Ba1 Se35 3.517742 1_555
Ba1 Se31 3.524957 1_555
Ba1 Se7 3.783445 1_545
Ba1 Se8 3.783445 1_455
Ba1 Se6 3.783446 1_555
Ba1 Se25 3.932498 1_545
Ba1 Se26 3.932498 1_455
Ba1 Se24 3.932498 1_555
Ba2 Se13 3.296047 1_555
Ba2 Se14 3.296048 1_555
Ba2 Se12 3.296048 1_555
Ba2 Se36 3.517742 1_556
Ba2 Se32 3.524957 1_555
Ba2 Se4 3.783445 1_555
Ba2 Se3 3.783445 1_555
Ba2 Se5 3.783446 1_555
Ba2 Se26 3.932498 1_555
Ba2 Se25 3.932498 1_555
Ba2 Se24 3.932498 1_555
Ba3 Se16 3.296047 1_655
Ba3 Se15 3.296048 1_565
Ba3 Se17 3.296048 1_555
Ba3 Se37 3.517742 1_555
Ba3 Se33 3.524957 1_555
Ba3 Se1 3.783445 1_565
Ba3 Se2 3.783445 1_655
Ba3 Se0 3.783446 1_555
Ba3 Se27 3.932498 1_565
Ba3 Se28 3.932498 1_655
Ba3 Se29 3.932498 1_555
Mo0 Se30 2.568731 1_555
Mo0 Se7 2.582639 1_555
Mo0 Se0 2.621843 1_555
Mo0 Se2 2.631281 1_555
Mo0 Se17 2.656083 1_555
Mo1 Se30 2.568731 1_555
Mo1 Se8 2.582639 1_555
Mo1 Se1 2.621843 1_555
Mo1 Se0 2.631282 1_555
Mo1 Se15 2.656083 1_555
Mo2 Se30 2.568731 1_555
Mo2 Se6 2.582639 1_555
Mo2 Se2 2.621843 1_555
Mo2 Se1 2.631281 1_555
Mo2 Se16 2.656083 1_555
Mo3 Se31 2.568731 1_665
Mo3 Se11 2.582639 1_556
Mo3 Se3 2.621843 1_655
Mo3 Se4 2.631281 1_565
Mo3 Se13 2.656083 1_655
Mo4 Se31 2.568731 1_655
Mo4 Se9 2.582639 1_556
Mo4 Se4 2.621843 1_555
Mo4 Se5 2.631282 1_655
Mo4 Se14 2.656083 1_555
Mo5 Se31 2.568731 1_565
Mo5 Se10 2.582639 1_556
Mo5 Se5 2.621843 1_565
Mo5 Se3 2.631281 1_555
Mo5 Se12 2.656083 1_565
Mo6 Se32 2.568731 1_555
Mo6 Se1 2.582639 1_555
Mo6 Se6 2.621843 1_555
Mo6 Se8 2.631281 1_555
Mo6 Se23 2.656083 1_555
Mo7 Se32 2.568731 1_555
Mo7 Se2 2.582639 1_555
Mo7 Se7 2.621843 1_555
Mo7 Se6 2.631282 1_555
Mo7 Se21 2.656083 1_555
Mo8 Se32 2.568731 1_555
Mo8 Se0 2.582639 1_555
Mo8 Se8 2.621843 1_555
Mo8 Se7 2.631281 1_555
Mo8 Se22 2.656083 1_555
Mo9 Se33 2.568731 1_445
Mo9 Se5 2.582639 1_554
Mo9 Se9 2.621843 1_455
Mo9 Se10 2.631281 1_545
Mo9 Se19 2.656083 1_455
Mo10 Se33 2.568731 1_455
Mo10 Se3 2.582639 1_554
Mo10 Se10 2.621843 1_555
Mo10 Se11 2.631282 1_455
Mo10 Se20 2.656083 1_555
Mo11 Se33 2.568731 1_545
Mo11 Se4 2.582639 1_554
Mo11 Se11 2.621843 1_545
Mo11 Se9 2.631281 1_555
Mo11 Se18 2.656083 1_545
Mo12 Se34 2.556762 1_555
Mo12 Se12 2.621708 1_565
Mo12 Se13 2.653299 1_655
Mo12 Se26 2.731606 1_565
Mo12 Se4 2.734946 1_565
Mo13 Se34 2.556762 1_555
Mo13 Se13 2.621708 1_655
Mo13 Se14 2.653299 1_555
Mo13 Se24 2.731606 1_655
Mo13 Se5 2.734946 1_655
Mo14 Se34 2.556762 1_555
Mo14 Se14 2.621708 1_555
Mo14 Se12 2.653299 1_565
Mo14 Se25 2.731606 1_555
Mo14 Se3 2.734946 1_555
Mo15 Se35 2.556762 1_555
Mo15 Se15 2.621708 1_455
Mo15 Se17 2.653299 1_545
Mo15 Se28 2.731606 1_545
Mo15 Se2 2.734946 1_545
Mo16 Se35 2.556762 1_555
Mo16 Se16 2.621708 1_555
Mo16 Se15 2.653299 1_455
Mo16 Se29 2.731606 1_455
Mo16 Se0 2.734946 1_455
Mo17 Se35 2.556762 1_555
Mo17 Se17 2.621708 1_545
Mo17 Se16 2.653299 1_555
Mo17 Se27 2.731606 1_555
Mo17 Se1 2.734946 1_555
Mo18 Se36 2.556762 1_555
Mo18 Se18 2.621708 1_545
Mo18 Se19 2.653299 1_455
Mo18 Se28 2.731606 1_545
Mo18 Se10 2.734946 1_545
Mo19 Se36 2.556762 1_555
Mo19 Se19 2.621708 1_455
Mo19 Se20 2.653299 1_555
Mo19 Se29 2.731606 1_455
Mo19 Se11 2.734946 1_455
Mo20 Se36 2.556762 1_555
Mo20 Se20 2.621708 1_555
Mo20 Se18 2.653299 1_545
Mo20 Se27 2.731606 1_555
Mo20 Se9 2.734946 1_555
Mo21 Se37 2.556762 1_555
Mo21 Se21 2.621708 1_655
Mo21 Se23 2.653299 1_565
Mo21 Se26 2.731606 1_565
Mo21 Se8 2.734946 1_565
Mo22 Se37 2.556762 1_555
Mo22 Se22 2.621708 1_555
Mo22 Se21 2.653299 1_655
Mo22 Se24 2.731606 1_655
Mo22 Se6 2.734946 1_655
Mo23 Se37 2.556762 1_555
Mo23 Se23 2.621708 1_565
Mo23 Se22 2.653299 1_555
Mo23 Se25 2.731606 1_555
Mo23 Se7 2.734946 1_555
Mo24 Se12 2.578273 1_565
Mo24 Se23 2.578273 1_565
Mo24 Se26 2.621454 1_565
Mo24 Se25 2.621454 1_555
Mo25 Se13 2.578274 1_655
Mo25 Se21 2.578274 1_655
Mo25 Se26 2.621453 1_565
Mo25 Se24 2.621453 1_655
Mo26 Se22 2.578274 1_555
Mo26 Se14 2.578274 1_555
Mo26 Se25 2.621453 1_555
Mo26 Se24 2.621453 1_655
Mo27 Se19 2.578274 1_455
Mo27 Se15 2.578274 1_455
Mo27 Se28 2.621453 1_545
Mo27 Se29 2.621453 1_455
Mo28 Se16 2.578274 1_555
Mo28 Se20 2.578274 1_555
Mo28 Se27 2.621453 1_555
Mo28 Se29 2.621453 1_455
Mo29 Se17 2.578273 1_545
Mo29 Se18 2.578273 1_545
Mo29 Se28 2.621454 1_545
Mo29 Se27 2.621454 1_555
