# generated using pymatgen
data_BaZnMoF7
_symmetry_space_group_name_H-M   'P 1'
_cell_length_a   10.25004400
_cell_length_b   5.78530800
_cell_length_c   9.91071612
_cell_angle_alpha   87.34867095
_cell_angle_beta   90.00000000
_cell_angle_gamma   90.00000000
_symmetry_Int_Tables_number   1
_chemical_formula_structural   BaZnMoF7
_chemical_formula_sum   'Ba4 Zn4 Mo4 F28'
_cell_volume   587.07299444
_cell_formula_units_Z   4
loop_
 _symmetry_equiv_pos_site_id
 _symmetry_equiv_pos_as_xyz
  1  'x, y, z'
loop_
 _atom_site_type_symbol
 _atom_site_label
 _atom_site_symmetry_multiplicity
 _atom_site_fract_x
 _atom_site_fract_y
 _atom_site_fract_z
 _atom_site_occupancy
  Ba  Ba0  1  0.32335700  0.73573500  0.49712000  1
  Ba  Ba1  1  0.82335700  0.26426500  0.00288000  1
  Ba  Ba2  1  0.67664300  0.26426500  0.50288000  1
  Ba  Ba3  1  0.17664300  0.73573500  0.99712000  1
  Zn  Zn0  1  0.39704500  0.30848300  0.80934600  1
  Zn  Zn1  1  0.89704500  0.69151700  0.69065400  1
  Zn  Zn2  1  0.10295500  0.30848300  0.30934600  1
  Zn  Zn3  1  0.60295500  0.69151700  0.19065400  1
  Mo  Mo0  1  0.61131900  0.80469600  0.81466500  1
  Mo  Mo1  1  0.38868100  0.19530400  0.18533500  1
  Mo  Mo2  1  0.88868100  0.80469600  0.31466500  1
  Mo  Mo3  1  0.11131900  0.19530400  0.68533500  1
  F  F0  1  0.44731000  0.87155100  0.11890200  1
  F  F1  1  0.05989800  0.63075500  0.37591200  1
  F  F2  1  0.71150600  0.50765400  0.75135500  1
  F  F3  1  0.28849400  0.49234600  0.24864500  1
  F  F4  1  0.46064300  0.10316700  0.37578900  1
  F  F5  1  0.80121500  0.73821900  0.50695900  1
  F  F6  1  0.78422300  0.97930700  0.75028200  1
  F  F7  1  0.96064300  0.89683300  0.12421100  1
  F  F8  1  0.44010200  0.63075500  0.87591200  1
  F  F9  1  0.21150600  0.49234600  0.74864500  1
  F  F10  1  0.05269000  0.87155100  0.61890200  1
  F  F11  1  0.55269000  0.12844900  0.88109800  1
  F  F12  1  0.28422300  0.02069300  0.74971800  1
  F  F13  1  0.95800300  0.60502300  0.87304400  1
  F  F14  1  0.53935700  0.89683300  0.62421100  1
  F  F15  1  0.03935700  0.10316700  0.87578900  1
  F  F16  1  0.21577700  0.02069300  0.24971800  1
  F  F17  1  0.94731000  0.12844900  0.38109800  1
  F  F18  1  0.45800300  0.39497700  0.62695600  1
  F  F19  1  0.94010200  0.36924500  0.62408800  1
  F  F20  1  0.04199700  0.39497700  0.12695600  1
  F  F21  1  0.71577700  0.97930700  0.25028200  1
  F  F22  1  0.54199700  0.60502300  0.37304400  1
  F  F23  1  0.30121500  0.26178100  0.99304100  1
  F  F24  1  0.19878500  0.26178100  0.49304100  1
  F  F25  1  0.69878500  0.73821900  0.00695900  1
  F  F26  1  0.55989800  0.36924500  0.12408800  1
  F  F27  1  0.78849400  0.50765400  0.25135500  1
loop_
_geom_bond_atom_site_label_1
_geom_bond_atom_site_label_2
_geom_bond_distance
_geom_bond_site_symmetry_2
Ba0 F22 2.681864 1_555
Ba0 F18 2.685557 1_555
Ba0 F14 2.732319 1_555
Ba0 F4 2.776379 1_565
Ba0 F3 2.914689 1_555
Ba0 F24 3.026662 1_555
Ba0 F1 3.028515 1_555
Ba0 F9 3.030905 1_555
Ba0 F12 3.086689 1_565
Ba0 F16 3.093821 1_565
Ba0 F10 3.139881 1_555
Ba0 F24 3.298871 1_565
Ba1 F20 2.681864 1_655
Ba1 F13 2.685557 1_554
Ba1 F15 2.732319 1_654
Ba1 F7 2.776379 1_545
Ba1 F27 2.914689 1_555
Ba1 F25 3.026662 1_555
Ba1 F26 3.028515 1_555
Ba1 F2 3.030905 1_554
Ba1 F6 3.086689 1_544
Ba1 F21 3.093821 1_545
Ba1 F11 3.139881 1_554
Ba1 F25 3.298871 1_545
Ba2 F18 2.681864 1_555
Ba2 F22 2.685557 1_555
Ba2 F4 2.732319 1_555
Ba2 F14 2.776379 1_545
Ba2 F2 2.914689 1_555
Ba2 F5 3.026662 1_555
Ba2 F19 3.028515 1_555
Ba2 F27 3.030905 1_555
Ba2 F21 3.086689 1_545
Ba2 F6 3.093821 1_545
Ba2 F17 3.139881 1_555
Ba2 F5 3.298871 1_545
Ba3 F13 2.681864 1_455
Ba3 F20 2.685557 1_556
Ba3 F7 2.732319 1_456
Ba3 F15 2.776379 1_565
Ba3 F9 2.914689 1_555
Ba3 F23 3.026662 1_555
Ba3 F8 3.028515 1_555
Ba3 F3 3.030905 1_556
Ba3 F16 3.086689 1_566
Ba3 F12 3.093821 1_565
Ba3 F0 3.139881 1_556
Ba3 F23 3.298871 1_565
F0 Zn3 2.016728 1_555
F0 Mo1 2.101639 1_565
F1 Zn2 2.054251 1_555
F1 Mo2 2.098701 1_455
F2 Mo0 2.121600 1_555
F2 Zn1 2.247433 1_555
F3 Mo1 2.121600 1_555
F3 Zn2 2.247433 1_555
F4 Mo1 2.073141 1_555
F5 Zn1 2.075266 1_555
F5 Mo2 2.125049 1_555
F6 Mo0 2.123424 1_555
F6 Zn1 2.132993 1_555
F7 Mo2 2.073141 1_555
F8 Zn0 2.054251 1_555
F8 Mo0 2.098701 1_555
F9 Mo3 2.121600 1_555
F9 Zn0 2.247433 1_555
F10 Zn1 2.016728 1_455
F10 Mo3 2.101639 1_565
F11 Zn0 2.016728 1_555
F11 Mo0 2.101639 1_545
F12 Mo3 2.123424 1_555
F12 Zn0 2.132993 1_555
F13 Zn1 1.955656 1_555
F14 Mo0 2.073141 1_555
F15 Mo3 2.073141 1_555
F16 Mo1 2.123424 1_555
F16 Zn2 2.132993 1_555
F17 Zn2 2.016728 1_655
F17 Mo2 2.101639 1_545
F18 Zn0 1.955656 1_555
F19 Zn1 2.054251 1_555
F19 Mo3 2.098701 1_655
F20 Zn2 1.955656 1_555
F21 Mo2 2.123424 1_555
F21 Zn3 2.132993 1_555
F22 Zn3 1.955656 1_555
F23 Zn0 2.075266 1_555
F23 Mo1 2.125049 1_556
F24 Zn2 2.075266 1_555
F24 Mo3 2.125049 1_555
F25 Zn3 2.075266 1_555
F25 Mo0 2.125049 1_554
F26 Zn3 2.054251 1_555
F26 Mo1 2.098701 1_555
F27 Mo2 2.121600 1_555
F27 Zn3 2.247433 1_555
