# generated using pymatgen
data_SmCo3Ni2
_symmetry_space_group_name_H-M   'P 1'
_cell_length_a   4.04051400
_cell_length_b   4.92337619
_cell_length_c   4.92337560
_cell_angle_alpha   59.96820225
_cell_angle_beta   90.00000000
_cell_angle_gamma   90.00000000
_symmetry_Int_Tables_number   1
_chemical_formula_structural   SmCo3Ni2
_chemical_formula_sum   'Sm1 Co3 Ni2'
_cell_volume   84.79182712
_cell_formula_units_Z   1
loop_
 _symmetry_equiv_pos_site_id
 _symmetry_equiv_pos_as_xyz
  1  'x, y, z'
loop_
 _atom_site_type_symbol
 _atom_site_label
 _atom_site_symmetry_multiplicity
 _atom_site_fract_x
 _atom_site_fract_y
 _atom_site_fract_z
 _atom_site_occupancy
  Sm  Sm0  1  0.00000000  0.99998600  0.00001400  1
  Co  Co0  1  0.50000000  0.49999800  0.50000200  1
  Co  Co1  1  0.50000000  0.49999200  0.00002000  1
  Co  Co2  1  0.50000000  0.99998000  0.50000800  1
  Ni  Ni0  1  0.00000000  0.33310100  0.33315700  1
  Ni  Ni1  1  0.00000000  0.66684300  0.66689900  1
loop_
_geom_bond_atom_site_label_1
_geom_bond_atom_site_label_2
_geom_bond_distance
_geom_bond_site_symmetry_2
Co0 Co1 2.461614 1_555
Co0 Co2 2.461614 1_555
Co0 Co1 2.461762 1_556
Co0 Co2 2.461762 1_545
Co0 Ni1 2.471237 1_555
Co0 Ni1 2.471237 1_655
Co0 Ni0 2.471237 1_655
Co0 Ni0 2.471237 1_555
Co0 Sm0 3.183588 1_555
Co0 Sm0 3.183588 1_655
Co0 Sm0 3.183679 1_546
Co0 Sm0 3.183679 1_646
Co1 Co2 2.460505 1_554
Co1 Co2 2.460505 1_545
Co1 Ni1 2.469320 1_554
Co1 Ni1 2.469320 1_654
Co1 Ni0 2.469359 1_555
Co1 Ni0 2.469359 1_655
Co1 Sm0 3.184514 1_655
Co1 Sm0 3.184514 1_555
Co1 Sm0 3.184582 1_545
Co1 Sm0 3.184582 1_645
Co2 Ni0 2.469320 1_665
Co2 Ni0 2.469320 1_565
Co2 Ni1 2.469359 1_655
Co2 Ni1 2.469359 1_555
Co2 Sm0 3.184514 1_555
Co2 Sm0 3.184514 1_655
Co2 Sm0 3.184582 1_556
Co2 Sm0 3.184582 1_656
Ni0 Ni1 2.839859 1_554
Ni0 Ni1 2.839860 1_545
Ni0 Sm0 2.841225 1_545
Ni0 Sm0 2.842414 1_546
Ni0 Sm0 2.842534 1_555
Ni0 Ni1 2.846453 1_555
Ni1 Sm0 2.841225 1_556
Ni1 Sm0 2.842414 1_546
Ni1 Sm0 2.842533 1_555
