# generated using pymatgen
data_Cs(CrS2)2
_symmetry_space_group_name_H-M   'P 1'
_cell_length_a   7.88818627
_cell_length_b   7.88818627
_cell_length_c   7.88818627
_cell_angle_alpha   60.00000000
_cell_angle_beta   60.00000000
_cell_angle_gamma   60.00000000
_symmetry_Int_Tables_number   1
_chemical_formula_structural   Cs(CrS2)2
_chemical_formula_sum   'Cs2 Cr4 S8'
_cell_volume   347.06951883
_cell_formula_units_Z   2
loop_
 _symmetry_equiv_pos_site_id
 _symmetry_equiv_pos_as_xyz
  1  'x, y, z'
loop_
 _atom_site_type_symbol
 _atom_site_label
 _atom_site_symmetry_multiplicity
 _atom_site_fract_x
 _atom_site_fract_y
 _atom_site_fract_z
 _atom_site_occupancy
  Cs  Cs0  1  0.50000000  0.50000000  0.50000000  1
  Cs  Cs1  1  0.75000000  0.75000000  0.75000000  1
  Cr  Cr0  1  0.12500000  0.12500000  0.12500000  1
  Cr  Cr1  1  0.62500000  0.12500000  0.12500000  1
  Cr  Cr2  1  0.12500000  0.62500000  0.12500000  1
  Cr  Cr3  1  0.12500000  0.12500000  0.62500000  1
  S  S0  1  0.34427500  0.34427500  0.34427500  1
  S  S1  1  0.28282600  0.90572500  0.90572500  1
  S  S2  1  0.90572500  0.90572500  0.28282600  1
  S  S3  1  0.90572500  0.28282600  0.90572500  1
  S  S4  1  0.34427500  0.34427500  0.96717400  1
  S  S5  1  0.34427500  0.96717400  0.34427500  1
  S  S6  1  0.90572500  0.90572500  0.90572500  1
  S  S7  1  0.96717400  0.34427500  0.34427500  1
loop_
_geom_bond_atom_site_label_1
_geom_bond_atom_site_label_2
_geom_bond_distance
_geom_bond_site_symmetry_2
Cs0 S7 3.008917 1_555
Cs0 S5 3.008917 1_555
Cs0 S4 3.008917 1_555
Cs0 S0 3.008923 1_555
Cs1 S3 3.008917 1_555
Cs1 S2 3.008917 1_555
Cs1 S1 3.008917 1_555
Cs1 S6 3.008923 1_555
Cr0 S1 2.493703 1_544
Cr0 S2 2.493703 1_445
Cr0 S5 2.493703 1_545
Cr0 S7 2.493703 1_455
Cr0 S4 2.493703 1_554
Cr0 S3 2.493703 1_454
Cr1 S6 2.493705 1_544
Cr1 S0 2.493705 1_555
Cr1 S3 2.493709 1_554
Cr1 S5 2.493709 1_545
Cr1 S2 2.493709 1_545
Cr1 S4 2.493709 1_554
Cr2 S6 2.493705 1_454
Cr2 S0 2.493705 1_555
Cr2 S7 2.493709 1_455
Cr2 S4 2.493709 1_554
Cr2 S1 2.493709 1_554
Cr2 S2 2.493709 1_455
Cr3 S0 2.493705 1_555
Cr3 S6 2.493705 1_445
Cr3 S5 2.493709 1_545
Cr3 S7 2.493709 1_455
Cr3 S1 2.493709 1_545
Cr3 S3 2.493709 1_455
