# generated using pymatgen
data_YbGeAu
_symmetry_space_group_name_H-M   'P 1'
_cell_length_a   5.73544167
_cell_length_b   5.73544167
_cell_length_c   7.22926231
_cell_angle_alpha   51.51276503
_cell_angle_beta   51.51276503
_cell_angle_gamma   46.28362524
_symmetry_Int_Tables_number   1
_chemical_formula_structural   YbGeAu
_chemical_formula_sum   'Yb2 Ge2 Au2'
_cell_volume   126.53320965
_cell_formula_units_Z   2
loop_
 _symmetry_equiv_pos_site_id
 _symmetry_equiv_pos_as_xyz
  1  'x, y, z'
loop_
 _atom_site_type_symbol
 _atom_site_label
 _atom_site_symmetry_multiplicity
 _atom_site_fract_x
 _atom_site_fract_y
 _atom_site_fract_z
 _atom_site_occupancy
  Yb  Yb0  1  0.53726300  0.53726300  0.70077600  1
  Yb  Yb1  1  0.46273700  0.46273700  0.29922400  1
  Ge  Ge0  1  0.84450200  0.84450200  0.10433500  1
  Ge  Ge1  1  0.15549800  0.15549800  0.89566500  1
  Au  Au0  1  0.17878200  0.17878200  0.27918500  1
  Au  Au1  1  0.82121800  0.82121800  0.72081500  1
loop_
_geom_bond_atom_site_label_1
_geom_bond_atom_site_label_2
_geom_bond_distance
_geom_bond_site_symmetry_2
Ge0 Ge1 2.517551 1_664
Ge0 Yb0 3.114002 1_654
Ge0 Yb0 3.114002 1_564
Ge0 Yb0 3.190568 1_555
Ge0 Yb1 3.243567 1_555
Ge0 Yb1 3.316562 1_565
Ge0 Yb1 3.316562 1_655
Ge1 Yb1 3.114002 1_456
Ge1 Yb1 3.114002 1_546
Ge1 Yb1 3.190568 1_555
Ge1 Yb0 3.243567 1_555
Ge1 Yb0 3.316562 1_455
Ge1 Yb0 3.316562 1_545
Au0 Ge0 2.596790 1_455
Au0 Ge0 2.596790 1_545
Au0 Au1 2.849314 1_445
Au0 Ge1 2.944343 1_554
Au0 Yb1 3.095007 1_555
Au0 Yb1 3.138151 1_455
Au0 Yb1 3.138151 1_545
Au0 Yb0 3.221877 1_554
Au0 Yb0 3.231085 1_455
Au0 Yb0 3.231085 1_545
Au1 Ge1 2.596790 1_655
Au1 Ge1 2.596790 1_565
Au1 Ge0 2.944343 1_556
Au1 Yb0 3.095007 1_555
Au1 Yb0 3.138151 1_565
Au1 Yb0 3.138151 1_655
Au1 Yb1 3.221877 1_556
Au1 Yb1 3.231085 1_565
Au1 Yb1 3.231085 1_655
