# generated using pymatgen
data_Rb2LiNd2(WO4)4
_symmetry_space_group_name_H-M   'P 1'
_cell_length_a   7.59738435
_cell_length_b   8.10148832
_cell_length_c   7.58049331
_cell_angle_alpha   62.63637746
_cell_angle_beta   62.53013743
_cell_angle_gamma   88.33782908
_symmetry_Int_Tables_number   1
_chemical_formula_structural   Rb2LiNd2(WO4)4
_chemical_formula_sum   'Rb2 Li1 Nd2 W4 O16'
_cell_volume   357.60029619
_cell_formula_units_Z   1
loop_
 _symmetry_equiv_pos_site_id
 _symmetry_equiv_pos_as_xyz
  1  'x, y, z'
loop_
 _atom_site_type_symbol
 _atom_site_label
 _atom_site_symmetry_multiplicity
 _atom_site_fract_x
 _atom_site_fract_y
 _atom_site_fract_z
 _atom_site_occupancy
  Rb  Rb0  1  0.77421400  0.15539500  0.77067900  1
  Rb  Rb1  1  0.24697800  0.84968700  0.19750200  1
  Li  Li0  1  0.99217600  0.52555200  0.62956900  1
  Nd  Nd0  1  0.23919300  0.79435100  0.73616300  1
  Nd  Nd1  1  0.75394700  0.20489700  0.25567700  1
  W  W0  1  0.68263000  0.69562000  0.80093300  1
  W  W1  1  0.70907400  0.67970700  0.30014300  1
  W  W2  1  0.30418000  0.31722200  0.21255400  1
  W  W3  1  0.30682300  0.31764700  0.70759500  1
  O  O0  1  0.59722800  0.37819200  0.45867500  1
  O  O1  1  0.24878500  0.06797000  0.78298600  1
  O  O2  1  0.04040900  0.34267400  0.86723200  1
  O  O3  1  0.37427300  0.08859500  0.35962700  1
  O  O4  1  0.76630200  0.61565300  0.55256200  1
  O  O5  1  0.37055800  0.26350200  0.93615100  1
  O  O6  1  0.61799300  0.92114100  0.63964800  1
  O  O7  1  0.39981200  0.61414800  0.54176200  1
  O  O8  1  0.03905500  0.22931600  0.30515800  1
  O  O9  1  0.75033200  0.93486200  0.21275100  1
  O  O10  1  0.35899000  0.58495800  0.97759500  1
  O  O11  1  0.96202700  0.65650500  0.12151200  1
  O  O12  1  0.23302400  0.38458400  0.44218100  1
  O  O13  1  0.63476200  0.73507700  0.06697500  1
  O  O14  1  0.97354400  0.74008600  0.68553800  1
  O  O15  1  0.62369300  0.41099100  0.02811600  1
loop_
_geom_bond_atom_site_label_1
_geom_bond_atom_site_label_2
_geom_bond_distance
_geom_bond_site_symmetry_2
Li0 O2 1.923271 1_655
Li0 O14 1.956793 1_555
Li0 O4 2.068387 1_555
Li0 O12 2.375378 1_655
Li0 Rb1 2.812412 1_655
Li0 Rb0 2.929912 1_555
Nd0 O14 2.309749 1_455
Nd0 O10 2.376711 1_555
Nd0 O11 2.382658 1_456
Nd0 O1 2.408666 1_565
Nd0 O7 2.451010 1_555
Nd0 O3 2.463239 1_565
Nd0 O6 2.722274 1_555
Nd1 O9 2.357699 1_545
Nd1 O15 2.360955 1_555
Nd1 O8 2.390469 1_655
Nd1 O2 2.420820 1_654
Nd1 O0 2.440374 1_555
Nd1 O6 2.456978 1_545
Nd1 O3 2.684658 1_555
O0 W3 2.010003 1_555
O0 W1 2.147766 1_555
O0 Rb0 3.086855 1_555
O1 W3 1.835525 1_555
O1 Rb1 2.802597 1_546
O2 W3 1.882645 1_555
O2 Rb0 3.080945 1_455
O3 W2 1.884003 1_555
O3 Rb1 3.095758 1_545
O4 W1 1.990299 1_555
O4 W0 2.088510 1_555
O4 Rb1 3.289058 1_655
O4 Rb0 3.324505 1_555
O5 W3 1.868605 1_555
O5 W2 2.164395 1_556
O5 Rb1 2.899438 1_546
O5 Rb0 3.008408 1_555
O6 W0 1.876825 1_555
O6 Rb0 2.991335 1_565
O7 W3 2.086311 1_555
O7 W1 2.089318 1_555
O7 Rb1 3.144689 1_555
O8 W2 1.837487 1_555
O8 Rb0 2.904603 1_455
O9 W1 1.843181 1_555
O9 Rb0 2.899825 1_564
O10 W2 1.966537 1_556
O10 W0 2.151586 1_555
O10 Rb1 3.158289 1_556
O11 W1 1.836962 1_555
O11 Rb1 3.105442 1_655
O12 W2 1.899489 1_555
O12 W3 2.162532 1_555
O12 Rb0 3.148988 1_455
O12 Rb1 3.326646 1_555
O13 W1 1.954788 1_555
O13 W0 2.052044 1_554
O13 Rb1 2.918464 1_555
O13 Rb0 2.957319 1_564
O14 W0 1.937199 1_555
O14 Rb1 2.964392 1_655
O15 W0 2.044871 1_554
O15 W2 2.103318 1_555
O15 Rb0 3.304914 1_554
