# generated using pymatgen
data_MgFe3Ni2Sb(PO4)6
_symmetry_space_group_name_H-M   'P 1'
_cell_length_a   8.68056360
_cell_length_b   8.68129901
_cell_length_c   8.67852099
_cell_angle_alpha   60.34275978
_cell_angle_beta   60.33321802
_cell_angle_gamma   60.30507987
_symmetry_Int_Tables_number   1
_chemical_formula_structural   MgFe3Ni2Sb(PO4)6
_chemical_formula_sum   'Mg1 Fe3 Ni2 Sb1 P6 O24'
_cell_volume   465.86998558
_cell_formula_units_Z   1
loop_
 _symmetry_equiv_pos_site_id
 _symmetry_equiv_pos_as_xyz
  1  'x, y, z'
loop_
 _atom_site_type_symbol
 _atom_site_label
 _atom_site_symmetry_multiplicity
 _atom_site_fract_x
 _atom_site_fract_y
 _atom_site_fract_z
 _atom_site_occupancy
  Mg  Mg0  1  0.37480300  0.37531500  0.37717700  1
  Fe  Fe0  1  0.13377900  0.13381600  0.13336900  1
  Fe  Fe1  1  0.25400400  0.25420400  0.25323900  1
  Fe  Fe2  1  0.65222600  0.65198900  0.65197400  1
  Ni  Ni0  1  0.00492400  0.00575400  0.00580800  1
  Ni  Ni1  1  0.50932100  0.50899900  0.50903900  1
  Sb  Sb0  1  0.85834600  0.85857700  0.85922100  1
  P  P0  1  0.05027400  0.74756200  0.46155800  1
  P  P1  1  0.46175300  0.05069800  0.74782100  1
  P  P2  1  0.74706200  0.46236100  0.05172700  1
  P  P3  1  0.25837300  0.55502500  0.94790400  1
  P  P4  1  0.55502500  0.94860100  0.25824200  1
  P  P5  1  0.94848700  0.25773400  0.55478800  1
  O  O0  1  0.11777300  0.30509400  0.51186600  1
  O  O1  1  0.30599000  0.51173700  0.11722100  1
  O  O2  1  0.04849400  0.90051500  0.26677600  1
  O  O3  1  0.51165900  0.11784200  0.30595000  1
  O  O4  1  0.99355000  0.84562500  0.60466200  1
  O  O5  1  0.24907200  0.60582800  0.45681800  1
  O  O6  1  0.26695100  0.04806200  0.90040000  1
  O  O7  1  0.45577900  0.24975700  0.60647700  1
  O  O8  1  0.20027000  0.39305500  0.99264900  1
  O  O9  1  0.60482400  0.45580800  0.25062300  1
  O  O10  1  0.08903600  0.75289900  0.93572500  1
  O  O11  1  0.39297700  0.99378700  0.19985900  1
  O  O12  1  0.60376500  0.99592000  0.84628500  1
  O  O13  1  0.90009400  0.26778800  0.04851300  1
  O  O14  1  0.41155700  0.58398800  0.75318500  1
  O  O15  1  0.84422900  0.60451500  0.99941700  1
  O  O16  1  0.58423000  0.75361800  0.41086300  1
  O  O17  1  0.75284000  0.93701600  0.08871000  1
  O  O18  1  0.75362000  0.41079900  0.58389600  1
  O  O19  1  0.99384100  0.19969200  0.39245300  1
  O  O20  1  0.53257500  0.90664700  0.65657800  1
  O  O21  1  0.93635700  0.08845100  0.75251600  1
  O  O22  1  0.65728300  0.53397900  0.90625800  1
  O  O23  1  0.90673300  0.65663400  0.53012400  1
loop_
_geom_bond_atom_site_label_1
_geom_bond_atom_site_label_2
_geom_bond_distance
_geom_bond_site_symmetry_2
Mg0 O7 2.030083 1_555
Mg0 O5 2.032641 1_555
Mg0 O9 2.033084 1_555
Mg0 O0 2.185579 1_555
Mg0 O3 2.190678 1_555
Mg0 O1 2.199565 1_555
Fe0 O6 2.074024 1_554
Fe0 O13 2.074508 1_455
Fe0 O2 2.075357 1_545
Fe0 O19 2.176868 1_455
Fe0 O11 2.180438 1_545
Fe0 O8 2.181454 1_554
Fe1 O1 2.110938 1_555
Fe1 O3 2.113448 1_555
Fe1 O0 2.113675 1_555
Fe1 O11 2.135900 1_545
Fe1 O8 2.138811 1_554
Fe1 O19 2.139140 1_455
Fe2 O23 1.932388 1_555
Fe2 O22 1.932735 1_555
Fe2 O20 1.933701 1_555
Fe2 O14 2.092077 1_555
Fe2 O16 2.094035 1_555
Fe2 O18 2.095591 1_555
Ni0 O2 2.136593 1_545
Ni0 O6 2.140267 1_554
Ni0 O13 2.142356 1_455
Ni0 O17 2.229902 1_445
Ni0 O21 2.238708 1_454
Ni0 O10 2.239475 1_544
Ni1 O18 2.161136 1_555
Ni1 O14 2.161276 1_555
Ni1 O16 2.165086 1_555
Ni1 O9 2.176045 1_555
Ni1 O7 2.181747 1_555
Ni1 O5 2.184169 1_555
O0 P5 1.540257 1_455
O1 P3 1.540179 1_554
O2 P0 1.550847 1_555
O3 P4 1.539973 1_545
O4 P0 1.592237 1_655
O4 Sb0 1.954241 1_555
O5 P0 1.539391 1_555
O6 P1 1.550863 1_555
O7 P1 1.539508 1_555
O8 P3 1.533211 1_555
O9 P2 1.539448 1_555
O10 P3 1.610937 1_555
O10 Sb0 2.045905 1_455
O11 P4 1.533446 1_555
O12 P1 1.592429 1_565
O12 Sb0 1.954601 1_555
O13 P2 1.550953 1_555
O14 P3 1.540595 1_555
O15 P2 1.593204 1_556
O15 Sb0 1.955633 1_555
O16 P4 1.540248 1_555
O17 P4 1.611769 1_555
O17 Sb0 2.046377 1_554
O18 P5 1.540487 1_555
O19 P5 1.533167 1_555
O20 P1 1.518297 1_565
O21 P5 1.610661 1_555
O21 Sb0 2.046427 1_545
O22 P2 1.518164 1_556
O23 P0 1.518366 1_655
