# generated using pymatgen
data_Ni3(Sn2Pt)2
_symmetry_space_group_name_H-M   'P 1'
_cell_length_a   4.21192020
_cell_length_b   4.21290000
_cell_length_c   10.62016802
_cell_angle_alpha   90.00000000
_cell_angle_beta   90.00656227
_cell_angle_gamma   59.99230454
_symmetry_Int_Tables_number   1
_chemical_formula_structural   Ni3(Sn2Pt)2
_chemical_formula_sum   'Ni3 Sn4 Pt2'
_cell_volume   163.18852559
_cell_formula_units_Z   1
loop_
 _symmetry_equiv_pos_site_id
 _symmetry_equiv_pos_as_xyz
  1  'x, y, z'
loop_
 _atom_site_type_symbol
 _atom_site_label
 _atom_site_symmetry_multiplicity
 _atom_site_fract_x
 _atom_site_fract_y
 _atom_site_fract_z
 _atom_site_occupancy
  Ni  Ni0  1  0.33303000  0.33348500  0.12920500  1
  Ni  Ni1  1  0.00002600  0.99998700  0.24819900  1
  Ni  Ni2  1  0.00014100  0.99992900  0.74741200  1
  Sn  Sn0  1  0.33319700  0.33340100  0.37610300  1
  Sn  Sn1  1  0.33339700  0.33330200  0.86332400  1
  Sn  Sn2  1  0.66682500  0.66658700  0.13503800  1
  Sn  Sn3  1  0.66669100  0.66665400  0.63173400  1
  Pt  Pt0  1  0.00002200  0.99998900  0.99372600  1
  Pt  Pt1  1  0.00006900  0.99996500  0.50026000  1
loop_
_geom_bond_atom_site_label_1
_geom_bond_atom_site_label_2
_geom_bond_distance
_geom_bond_site_symmetry_2
Ni0 Sn2 2.430679 1_455
Ni0 Sn2 2.433755 1_555
Ni0 Sn2 2.433759 1_545
Ni0 Sn0 2.622098 1_555
Ni0 Ni1 2.740397 1_555
Ni0 Ni1 2.740397 1_545
Ni0 Ni1 2.741271 1_645
Ni0 Sn1 2.823701 1_554
Ni0 Pt0 2.825259 1_554
Ni0 Pt0 2.825259 1_544
Ni0 Pt0 2.826549 1_644
Ni1 Pt1 2.676930 1_555
Ni1 Pt0 2.702546 1_554
Ni1 Sn2 2.712561 1_465
Ni1 Sn2 2.712564 1_455
Ni1 Sn2 2.712918 1_555
Ni1 Sn0 2.785412 1_565
Ni1 Sn0 2.785415 1_555
Ni1 Sn0 2.785930 1_465
Ni2 Pt0 2.615896 1_555
Ni2 Pt1 2.624796 1_555
Ni2 Sn3 2.724057 1_555
Ni2 Sn3 2.724914 1_465
Ni2 Sn3 2.724914 1_455
Ni2 Sn1 2.725717 1_555
Ni2 Sn1 2.725723 1_565
Ni2 Sn1 2.725811 1_465
Pt0 Sn1 2.797999 1_465
Pt0 Sn1 2.798926 1_555
Pt0 Sn1 2.798929 1_565
Pt0 Sn2 2.857662 1_556
Pt0 Sn2 2.857761 1_466
Pt0 Sn2 2.857764 1_456
Pt1 Sn0 2.766312 1_565
Pt1 Sn0 2.766312 1_555
Pt1 Sn0 2.766572 1_465
Pt1 Sn3 2.803641 1_555
Pt1 Sn3 2.804584 1_465
Pt1 Sn3 2.804584 1_455
