# generated using pymatgen
data_CaMg14W
_symmetry_space_group_name_H-M   'P 1'
_cell_length_a   6.39065659
_cell_length_b   6.43428026
_cell_length_c   10.14696274
_cell_angle_alpha   90.00000000
_cell_angle_beta   90.00000000
_cell_angle_gamma   120.22607124
_symmetry_Int_Tables_number   1
_chemical_formula_structural   CaMg14W
_chemical_formula_sum   'Ca1 Mg14 W1'
_cell_volume   360.51081298
_cell_formula_units_Z   1
loop_
 _symmetry_equiv_pos_site_id
 _symmetry_equiv_pos_as_xyz
  1  'x, y, z'
loop_
 _atom_site_type_symbol
 _atom_site_label
 _atom_site_symmetry_multiplicity
 _atom_site_fract_x
 _atom_site_fract_y
 _atom_site_fract_z
 _atom_site_occupancy
  Ca  Ca0  1  0.16597188  0.33298544  0.12500000  1
  Mg  Mg0  1  0.16923020  0.33461460  0.62500000  1
  Mg  Mg1  1  0.16518350  0.83259125  0.62500000  1
  Mg  Mg2  1  0.66413247  0.32892250  0.12500000  1
  Mg  Mg3  1  0.66577453  0.33614551  0.62500000  1
  Mg  Mg4  1  0.66413247  0.83520897  0.12500000  1
  Mg  Mg5  1  0.66577453  0.82962802  0.62500000  1
  Mg  Mg6  1  0.32907100  0.15098429  0.37153771  1
  Mg  Mg7  1  0.32907100  0.15098429  0.87846229  1
  Mg  Mg8  1  0.32907100  0.67808771  0.37153771  1
  Mg  Mg9  1  0.32907100  0.67808771  0.87846229  1
  Mg  Mg10  1  0.82703175  0.16351637  0.38317630  1
  Mg  Mg11  1  0.82703175  0.16351637  0.86682370  1
  Mg  Mg12  1  0.84515353  0.67257726  0.36213168  1
  Mg  Mg13  1  0.84515353  0.67257726  0.88786832  1
  W  W0  1  0.17914587  0.83957243  0.12500000  1
loop_
_geom_bond_atom_site_label_1
_geom_bond_atom_site_label_2
_geom_bond_distance
_geom_bond_site_symmetry_2
Ca0 Mg7 3.153527 1_554
Ca0 Mg6 3.153527 1_555
Ca0 Mg9 3.153534 1_554
Ca0 Mg8 3.153534 1_555
Ca0 Mg4 3.194003 1_445
Ca0 Mg2 3.194003 1_455
Ca0 Mg4 3.196813 1_555
Ca0 Mg2 3.196813 1_555
Ca0 W0 3.217962 1_555
Ca0 W0 3.217962 1_545
Ca0 Mg11 3.219568 1_454
Ca0 Mg10 3.219568 1_455
Mg0 Mg10 3.097006 1_455
Mg0 Mg11 3.097006 1_455
Mg0 Mg5 3.168297 1_555
Mg0 Mg3 3.168297 1_555
Mg0 Mg6 3.204549 1_555
Mg0 Mg7 3.204549 1_555
Mg0 Mg8 3.204555 1_555
Mg0 Mg9 3.204555 1_555
Mg0 Mg1 3.217218 1_545
Mg0 Mg1 3.217218 1_555
Mg0 Mg5 3.222382 1_445
Mg0 Mg3 3.222382 1_455
Mg1 Mg8 3.122185 1_555
Mg1 Mg9 3.122185 1_555
Mg1 Mg6 3.122191 1_565
Mg1 Mg7 3.122191 1_565
Mg1 Mg3 3.181995 1_455
Mg1 Mg5 3.181996 1_455
Mg1 Mg12 3.199591 1_455
Mg1 Mg13 3.199591 1_455
Mg1 Mg3 3.208746 1_565
Mg1 Mg5 3.208746 1_555
Mg2 Mg7 3.112167 1_554
Mg2 Mg6 3.112167 1_555
Mg2 W0 3.113611 1_545
Mg2 Mg4 3.176691 1_545
Mg2 Mg4 3.257589 1_555
Mg2 W0 3.277230 1_655
Mg3 Mg5 3.175205 1_555
Mg3 Mg6 3.175360 1_555
Mg3 Mg7 3.175360 1_555
Mg3 Mg5 3.259075 1_545
Mg4 Mg9 3.112167 1_554
Mg4 Mg8 3.112167 1_555
Mg4 W0 3.113611 1_555
Mg4 W0 3.277230 1_655
Mg5 Mg8 3.175360 1_555
Mg5 Mg9 3.175360 1_555
Mg6 W0 3.042696 1_545
Mg7 W0 3.042696 1_546
Mg8 W0 3.042690 1_555
Mg9 W0 3.042690 1_556
Mg10 Mg3 3.077216 1_555
Mg10 Mg5 3.077223 1_545
Mg10 Mg8 3.144694 1_545
Mg10 Mg6 3.144694 1_555
Mg10 Mg2 3.192926 1_555
Mg10 Mg4 3.192933 1_545
Mg10 Mg12 3.225772 1_555
Mg10 Mg12 3.225772 1_545
Mg10 Mg8 3.251845 1_655
Mg10 Mg6 3.251845 1_655
Mg11 Mg3 3.077216 1_555
Mg11 Mg5 3.077223 1_545
Mg11 Mg9 3.144694 1_545
Mg11 Mg7 3.144694 1_555
Mg11 Mg2 3.192926 1_556
Mg11 Mg4 3.192933 1_546
Mg11 Mg13 3.225772 1_555
Mg11 Mg13 3.225772 1_545
Mg11 Mg9 3.251845 1_655
Mg11 Mg7 3.251845 1_655
Mg12 W0 3.031646 1_655
Mg12 Mg4 3.072738 1_555
Mg12 Mg2 3.072745 1_555
Mg12 Mg5 3.258239 1_555
Mg12 Mg3 3.258245 1_555
Mg13 W0 3.031646 1_656
Mg13 Mg4 3.072738 1_556
Mg13 Mg2 3.072745 1_556
Mg13 Mg5 3.258239 1_555
Mg13 Mg3 3.258245 1_555
