# generated using pymatgen
data_LiYbF2
_symmetry_space_group_name_H-M   'P 1'
_cell_length_a   7.50317463
_cell_length_b   7.50317463
_cell_length_c   7.50317463
_cell_angle_alpha   128.98910176
_cell_angle_beta   128.98910176
_cell_angle_gamma   75.02811011
_symmetry_Int_Tables_number   1
_chemical_formula_structural   LiYbF2
_chemical_formula_sum   'Li4 Yb4 F8'
_cell_volume   248.49743455
_cell_formula_units_Z   4
loop_
 _symmetry_equiv_pos_site_id
 _symmetry_equiv_pos_as_xyz
  1  'x, y, z'
loop_
 _atom_site_type_symbol
 _atom_site_label
 _atom_site_symmetry_multiplicity
 _atom_site_fract_x
 _atom_site_fract_y
 _atom_site_fract_z
 _atom_site_occupancy
  Li  Li0  1  0.37500000  0.12500000  0.25000000  1
  Li  Li1  1  0.87500000  0.12500000  0.75000000  1
  Li  Li2  1  0.87500000  0.12500000  0.25000000  1
  Li  Li3  1  0.87500000  0.62500000  0.75000000  1
  Yb  Yb0  1  0.87500000  0.62500000  0.25000000  1
  Yb  Yb1  1  0.37500000  0.62500000  0.75000000  1
  Yb  Yb2  1  0.37500000  0.62500000  0.25000000  1
  Yb  Yb3  1  0.37500000  0.12500000  0.75000000  1
  F  F0  1  0.17929300  0.44976700  0.27047400  1
  F  F1  1  0.17929300  0.90882000  0.72952600  1
  F  F2  1  0.19976700  0.42929300  0.77047400  1
  F  F3  1  0.57070700  0.80023300  0.22952600  1
  F  F4  1  0.65882000  0.42929300  0.22952600  1
  F  F5  1  0.57070700  0.34118000  0.77047400  1
  F  F6  1  0.55023300  0.82070700  0.72952600  1
  F  F7  1  0.09118000  0.82070700  0.27047400  1
loop_
_geom_bond_atom_site_label_1
_geom_bond_atom_site_label_2
_geom_bond_distance
_geom_bond_site_symmetry_2
F0 Yb1 2.286240 1_555
F0 Yb0 2.286240 1_455
F0 Yb2 2.333273 1_555
F0 Li0 2.466121 1_555
F0 Li1 2.466121 1_454
F1 Yb0 2.286242 1_455
F1 Yb1 2.286246 1_555
F1 Yb3 2.333267 1_565
F1 Li1 2.466118 1_465
F1 Li0 2.466123 1_566
F2 Yb2 2.286240 1_556
F2 Yb3 2.286240 1_555
F2 Yb1 2.333273 1_555
F2 Li3 2.466121 1_455
F2 Li2 2.466121 1_455
F3 Yb0 2.286240 1_555
F3 Yb1 2.286240 1_554
F3 Yb2 2.333273 1_555
F3 Li0 2.466121 1_565
F3 Li1 2.466121 1_565
F4 Yb3 2.286242 1_554
F4 Yb2 2.286246 1_555
F4 Yb0 2.333267 1_555
F4 Li2 2.466118 1_555
F4 Li3 2.466123 1_555
F5 Yb0 2.286242 1_556
F5 Yb1 2.286246 1_555
F5 Yb3 2.333267 1_555
F5 Li1 2.466118 1_555
F5 Li0 2.466123 1_555
F6 Yb3 2.286240 1_565
F6 Yb2 2.286240 1_555
F6 Yb1 2.333273 1_555
F6 Li3 2.466121 1_555
F6 Li2 2.466121 1_566
F7 Yb3 2.286242 1_565
F7 Yb2 2.286246 1_555
F7 Yb0 2.333267 1_455
F7 Li2 2.466118 1_465
F7 Li3 2.466123 1_454
