# generated using pymatgen
data_Ni4(SnSb3)3
_symmetry_space_group_name_H-M   'P 1'
_cell_length_a   8.00026310
_cell_length_b   8.00026310
_cell_length_c   9.17872618
_cell_angle_alpha   54.98759180
_cell_angle_beta   54.98759180
_cell_angle_gamma   71.46818134
_symmetry_Int_Tables_number   1
_chemical_formula_structural   Ni4(SnSb3)3
_chemical_formula_sum   'Ni4 Sn3 Sb9'
_cell_volume   394.02696213
_cell_formula_units_Z   1
loop_
 _symmetry_equiv_pos_site_id
 _symmetry_equiv_pos_as_xyz
  1  'x, y, z'
loop_
 _atom_site_type_symbol
 _atom_site_label
 _atom_site_symmetry_multiplicity
 _atom_site_fract_x
 _atom_site_fract_y
 _atom_site_fract_z
 _atom_site_occupancy
  Ni  Ni0  1  0.99936200  0.49938100  0.99997700  1
  Ni  Ni1  1  0.49938100  0.99936200  0.99997700  1
  Ni  Ni2  1  0.00295700  0.49884400  0.50009800  1
  Ni  Ni3  1  0.49884400  0.00295700  0.50009800  1
  Sn  Sn0  1  0.33433900  0.33433900  0.82417200  1
  Sn  Sn1  1  0.66532500  0.66532500  0.17615900  1
  Sn  Sn2  1  0.66547500  0.66547500  0.49346200  1
  Sb  Sb0  1  0.33613500  0.33613500  0.50588000  1
  Sb  Sb1  1  0.17571800  0.50478400  0.15881100  1
  Sb  Sb2  1  0.82187400  0.49553200  0.84172000  1
  Sb  Sb3  1  0.50478400  0.17571800  0.15881100  1
  Sb  Sb4  1  0.49553200  0.82187400  0.84172000  1
  Sb  Sb5  1  0.83969500  0.15923500  0.66636300  1
  Sb  Sb6  1  0.15932500  0.84201800  0.33319400  1
  Sb  Sb7  1  0.84201800  0.15932500  0.33319400  1
  Sb  Sb8  1  0.15923500  0.83969500  0.66636300  1
loop_
_geom_bond_atom_site_label_1
_geom_bond_atom_site_label_2
_geom_bond_distance
_geom_bond_site_symmetry_2
Ni0 Sb7 2.559519 1_556
Ni0 Sb2 2.563833 1_555
Ni0 Sb8 2.564704 1_655
Ni0 Sb1 2.566978 1_656
Ni0 Sn0 2.600480 1_655
Ni0 Sn1 2.601641 1_556
Ni1 Sb6 2.559519 1_556
Ni1 Sb4 2.563833 1_555
Ni1 Sb5 2.564704 1_565
Ni1 Sb3 2.566978 1_566
Ni1 Sn0 2.600480 1_565
Ni1 Sn1 2.601641 1_556
Ni2 Sb6 2.570450 1_555
Ni2 Sb5 2.574364 1_455
Ni2 Sb1 2.574536 1_555
Ni2 Sb2 2.578395 1_455
Ni2 Sb0 2.584512 1_555
Ni2 Sn2 2.622624 1_455
Ni3 Sb7 2.570450 1_555
Ni3 Sb8 2.574364 1_545
Ni3 Sb3 2.574536 1_555
Ni3 Sb4 2.578395 1_545
Ni3 Sb0 2.584512 1_555
Ni3 Sn2 2.622624 1_545
Sn0 Sn2 3.042392 1_555
Sn1 Sn2 2.913815 1_555
Sb0 Sn0 2.905074 1_555
Sb0 Sn1 3.024513 1_555
