# generated using pymatgen
data_MgP(CO4)2
_symmetry_space_group_name_H-M   'P 1'
_cell_length_a   18.23648300
_cell_length_b   6.24851300
_cell_length_c   8.13318433
_cell_angle_alpha   71.13718990
_cell_angle_beta   90.00000000
_cell_angle_gamma   90.00000000
_symmetry_Int_Tables_number   1
_chemical_formula_structural   MgP(CO4)2
_chemical_formula_sum   'Mg4 P4 C8 O32'
_cell_volume   877.01114547
_cell_formula_units_Z   4
loop_
 _symmetry_equiv_pos_site_id
 _symmetry_equiv_pos_as_xyz
  1  'x, y, z'
loop_
 _atom_site_type_symbol
 _atom_site_label
 _atom_site_symmetry_multiplicity
 _atom_site_fract_x
 _atom_site_fract_y
 _atom_site_fract_z
 _atom_site_occupancy
  Mg  Mg0  1  0.63352500  0.67287400  0.02068900  1
  Mg  Mg1  1  0.13352500  0.32712600  0.47931100  1
  Mg  Mg2  1  0.36647500  0.32712600  0.97931100  1
  Mg  Mg3  1  0.86647500  0.67287400  0.52068900  1
  P  P0  1  0.81001100  0.59221300  0.15105300  1
  P  P1  1  0.31001100  0.40778700  0.34894700  1
  P  P2  1  0.18998900  0.40778700  0.84894700  1
  P  P3  1  0.68998900  0.59221300  0.65105300  1
  C  C0  1  0.69899600  0.25990500  0.69093800  1
  C  C1  1  0.19899600  0.74009500  0.80906200  1
  C  C2  1  0.30100400  0.74009500  0.30906200  1
  C  C3  1  0.80100400  0.25990500  0.19093800  1
  C  C4  1  0.53782000  0.09242500  0.65546700  1
  C  C5  1  0.03782000  0.90757500  0.84453300  1
  C  C6  1  0.46218000  0.90757500  0.34453300  1
  C  C7  1  0.96218000  0.09242500  0.15546700  1
  O  O0  1  0.85334100  0.69108200  0.99163600  1
  O  O1  1  0.35334100  0.30891800  0.50836400  1
  O  O2  1  0.14665900  0.30891800  0.00836400  1
  O  O3  1  0.64665900  0.69108200  0.49163600  1
  O  O4  1  0.65752700  0.56690700  0.82687100  1
  O  O5  1  0.15752700  0.43309300  0.67312900  1
  O  O6  1  0.34247300  0.43309300  0.17312900  1
  O  O7  1  0.84247300  0.56690700  0.32687100  1
  O  O8  1  0.72682100  0.59757300  0.14711000  1
  O  O9  1  0.22682100  0.40242700  0.35289000  1
  O  O10  1  0.27317900  0.40242700  0.85289000  1
  O  O11  1  0.77317900  0.59757300  0.64711000  1
  O  O12  1  0.72093700  0.08034000  0.72015700  1
  O  O13  1  0.22093700  0.91966000  0.77984300  1
  O  O14  1  0.27906300  0.91966000  0.27984300  1
  O  O15  1  0.77906300  0.08034000  0.22015700  1
  O  O16  1  0.54829700  0.95260200  0.79065600  1
  O  O17  1  0.04829700  0.04739800  0.70934400  1
  O  O18  1  0.45170300  0.04739800  0.20934400  1
  O  O19  1  0.95170300  0.95260200  0.29065600  1
  O  O20  1  0.53069700  0.22990100  0.51853300  1
  O  O21  1  0.03069700  0.77009900  0.98146700  1
  O  O22  1  0.46930300  0.77009900  0.48146700  1
  O  O23  1  0.96930300  0.22990100  0.01853300  1
  O  O24  1  0.61034800  0.95029200  0.08951900  1
  O  O25  1  0.11034800  0.04970800  0.41048100  1
  O  O26  1  0.38965200  0.04970800  0.91048100  1
  O  O27  1  0.88965200  0.95029200  0.58951900  1
  O  O28  1  0.53923400  0.63620800  0.15615400  1
  O  O29  1  0.03923400  0.36379200  0.34384600  1
  O  O30  1  0.46076600  0.36379200  0.84384600  1
  O  O31  1  0.96076600  0.63620800  0.65615400  1
loop_
_geom_bond_atom_site_label_1
_geom_bond_atom_site_label_2
_geom_bond_distance
_geom_bond_site_symmetry_2
Mg0 O4 1.946747 1_554
Mg0 O8 1.964816 1_555
Mg0 O28 2.014933 1_555
Mg0 O24 2.030848 1_555
Mg0 O16 2.618513 1_554
Mg1 O5 1.946747 1_555
Mg1 O9 1.964816 1_555
Mg1 O29 2.014933 1_555
Mg1 O25 2.030848 1_555
Mg1 O17 2.618513 1_555
Mg2 O6 1.946747 1_556
Mg2 O10 1.964816 1_555
Mg2 O30 2.014933 1_555
Mg2 O26 2.030848 1_555
Mg2 O18 2.618513 1_556
Mg3 O7 1.946747 1_555
Mg3 O11 1.964816 1_555
Mg3 O31 2.014933 1_555
Mg3 O27 2.030848 1_555
Mg3 O19 2.618513 1_555
C0 O12 1.141526 1_555
C0 P3 2.002058 1_555
C1 O13 1.141526 1_555
C1 P2 2.002058 1_555
C2 O14 1.141526 1_555
C2 P1 2.002058 1_555
C3 O15 1.141526 1_555
C3 P0 2.002058 1_555
C4 O20 1.173256 1_555
C4 O16 1.177972 1_545
C5 O21 1.173256 1_555
C5 O17 1.177972 1_565
C6 O22 1.173256 1_555
C6 O18 1.177972 1_565
C7 O23 1.173256 1_555
C7 O19 1.177972 1_545
O0 P0 1.472824 1_556
O1 P1 1.472824 1_555
O2 P2 1.472824 1_554
O3 P3 1.472824 1_555
O4 P3 1.507992 1_555
O5 P2 1.507992 1_555
O6 P1 1.507992 1_555
O7 P0 1.507992 1_555
O8 P0 1.517573 1_555
O9 P1 1.517573 1_555
O10 P2 1.517573 1_555
O11 P3 1.517573 1_555
