# generated using pymatgen
data_Y6Zn(SiS7)2
_symmetry_space_group_name_H-M   'P 1'
_cell_length_a   9.93633292
_cell_length_b   9.93633292
_cell_length_c   5.63403100
_cell_angle_alpha   90.00000000
_cell_angle_beta   90.00000000
_cell_angle_gamma   120.00000616
_symmetry_Int_Tables_number   1
_chemical_formula_structural   Y6Zn(SiS7)2
_chemical_formula_sum   'Y6 Zn1 Si2 S14'
_cell_volume   481.72823948
_cell_formula_units_Z   1
loop_
 _symmetry_equiv_pos_site_id
 _symmetry_equiv_pos_as_xyz
  1  'x, y, z'
loop_
 _atom_site_type_symbol
 _atom_site_label
 _atom_site_symmetry_multiplicity
 _atom_site_fract_x
 _atom_site_fract_y
 _atom_site_fract_z
 _atom_site_occupancy
  Y  Y0  1  0.31114900  0.10061200  0.74978600  1
  Y  Y1  1  0.78946200  0.68885100  0.74978600  1
  Y  Y2  1  0.89938800  0.21053800  0.74978600  1
  Y  Y3  1  0.02222200  0.56609800  0.25074200  1
  Y  Y4  1  0.54387600  0.97777800  0.25074200  1
  Y  Y5  1  0.43390200  0.45612400  0.25074200  1
  Zn  Zn0  1  0.66666700  0.33333300  0.51000000  1
  Si  Si0  1  0.00000000  0.00000000  0.16510200  1
  Si  Si1  1  0.33333300  0.66666700  0.66174600  1
  S  S0  1  0.00000000  0.00000000  0.53862400  1
  S  S1  1  0.33333300  0.66666700  0.03606900  1
  S  S2  1  0.41704000  0.17156200  0.27657200  1
  S  S3  1  0.75452200  0.58296000  0.27657200  1
  S  S4  1  0.82843800  0.24547800  0.27657200  1
  S  S5  1  0.91661900  0.49812200  0.75669900  1
  S  S6  1  0.58150300  0.08338100  0.75669900  1
  S  S7  1  0.50187800  0.41849700  0.75669900  1
  S  S8  1  0.14658100  0.22534300  0.01325700  1
  S  S9  1  0.07876100  0.85341900  0.01325700  1
  S  S10  1  0.77465700  0.92123900  0.01325700  1
  S  S11  1  0.18689700  0.44145200  0.51043900  1
  S  S12  1  0.25455500  0.81310300  0.51043900  1
  S  S13  1  0.55854800  0.74544500  0.51043900  1
loop_
_geom_bond_atom_site_label_1
_geom_bond_atom_site_label_2
_geom_bond_distance
_geom_bond_site_symmetry_2
S0 Si0 2.104435 1_555
S0 Y0 2.980350 1_555
S0 Y1 2.980352 1_445
S0 Y2 2.980359 1_455
S1 Si1 2.108947 1_554
S1 Y3 2.988052 1_555
S1 Y4 2.988054 1_555
S1 Y5 2.988061 1_555
S2 Zn0 2.545319 1_555
S2 Y5 2.751415 1_555
S2 Y4 2.782757 1_545
S2 Y0 2.823190 1_555
S2 Y0 3.109807 1_554
S3 Zn0 2.545320 1_555
S3 Y3 2.751415 1_655
S3 Y5 2.782757 1_555
S3 Y1 2.823190 1_555
S3 Y1 3.109807 1_554
S4 Zn0 2.545313 1_555
S4 Y4 2.751415 1_545
S4 Y3 2.782757 1_655
S4 Y2 2.823187 1_555
S4 Y2 3.109805 1_554
S5 Zn0 2.591249 1_555
S5 Y1 2.753895 1_555
S5 Y2 2.776160 1_555
S5 Y3 2.931916 1_656
S5 Y3 2.995715 1_655
S6 Zn0 2.591247 1_555
S6 Y2 2.753885 1_555
S6 Y0 2.776170 1_555
S6 Y4 2.931916 1_546
S6 Y4 2.995715 1_545
S7 Zn0 2.591255 1_555
S7 Y0 2.753886 1_555
S7 Y1 2.776164 1_555
S7 Y5 2.931916 1_556
S7 Y5 2.995715 1_555
S8 Si0 2.146049 1_555
S8 Y2 2.810098 1_454
S8 Y0 2.905167 1_554
S8 Y5 2.941516 1_555
S9 Si0 2.146042 1_565
S9 Y0 2.810098 1_564
S9 Y1 2.905167 1_454
S9 Y3 2.941519 1_555
S10 Si0 2.146050 1_665
S10 Y1 2.810098 1_554
S10 Y2 2.905167 1_564
S10 Y4 2.941510 1_555
S11 Si1 2.143720 1_555
S11 Y5 2.797845 1_555
S11 Y3 2.894589 1_555
S11 Y2 2.947774 1_455
S12 Si1 2.143713 1_555
S12 Y3 2.797845 1_555
S12 Y4 2.894588 1_555
S12 Y0 2.947777 1_565
S13 Si1 2.143722 1_555
S13 Y4 2.797845 1_555
S13 Y5 2.894588 1_555
S13 Y1 2.947768 1_555
