# generated using pymatgen
data_BeAlSiN3
_symmetry_space_group_name_H-M   'P 1'
_cell_length_a   5.14681784
_cell_length_b   5.14681784
_cell_length_c   5.63305972
_cell_angle_alpha   62.94658872
_cell_angle_beta   62.94658872
_cell_angle_gamma   59.98851049
_symmetry_Int_Tables_number   1
_chemical_formula_structural   BeAlSiN3
_chemical_formula_sum   'Be2 Al2 Si2 N6'
_cell_volume   109.96039869
_cell_formula_units_Z   2
loop_
 _symmetry_equiv_pos_site_id
 _symmetry_equiv_pos_as_xyz
  1  'x, y, z'
loop_
 _atom_site_type_symbol
 _atom_site_label
 _atom_site_symmetry_multiplicity
 _atom_site_fract_x
 _atom_site_fract_y
 _atom_site_fract_z
 _atom_site_occupancy
  Be  Be0  1  0.83030100  0.66219600  0.50672800  1
  Be  Be1  1  0.66219600  0.83030100  0.00672800  1
  Al  Al0  1  0.50324700  0.33624100  0.49224600  1
  Al  Al1  1  0.33624100  0.50324700  0.99224600  1
  Si  Si0  1  0.17181300  0.00256000  0.49122400  1
  Si  Si1  1  0.00256000  0.17181300  0.99122400  1
  N  N0  1  0.72253300  0.53676400  0.88565400  1
  N  N1  1  0.02828600  0.89659000  0.86534100  1
  N  N2  1  0.37123700  0.18823900  0.88380700  1
  N  N3  1  0.89659000  0.02828600  0.36534100  1
  N  N4  1  0.18823900  0.37123700  0.38380700  1
  N  N5  1  0.53676400  0.72253300  0.38565400  1
loop_
_geom_bond_atom_site_label_1
_geom_bond_atom_site_label_2
_geom_bond_distance
_geom_bond_site_symmetry_2
Be0 N5 1.766164 1_555
Be0 N4 1.771716 1_655
Be0 N0 1.818882 1_555
Be0 N3 1.825311 1_565
Be1 N0 1.766164 1_554
Be1 N2 1.771716 1_564
Be1 N5 1.818882 1_555
Be1 N1 1.825311 1_654
Al0 N5 1.872454 1_555
Al0 N2 1.879658 1_555
Al0 N4 1.882235 1_555
Al0 N3 1.904214 1_555
Al1 N0 1.872454 1_555
Al1 N4 1.879658 1_556
Al1 N2 1.882235 1_555
Al1 N1 1.904214 1_555
N0 Si1 1.736220 1_655
N1 Si1 1.779768 1_565
N1 Si0 1.796045 1_565
N2 Si1 1.744523 1_555
N3 Si0 1.779768 1_655
N3 Si1 1.796045 1_654
N4 Si0 1.744523 1_555
N5 Si0 1.736220 1_565
