# generated using pymatgen
data_NpTl2F6
_symmetry_space_group_name_H-M   'P 1'
_cell_length_a   6.91583269
_cell_length_b   6.91583269
_cell_length_c   7.44849150
_cell_angle_alpha   90.00000000
_cell_angle_beta   90.00000000
_cell_angle_gamma   119.36895151
_symmetry_Int_Tables_number   1
_chemical_formula_structural   NpTl2F6
_chemical_formula_sum   'Np2 Tl4 F12'
_cell_volume   310.46636688
_cell_formula_units_Z   2
loop_
 _symmetry_equiv_pos_site_id
 _symmetry_equiv_pos_as_xyz
  1  'x, y, z'
loop_
 _atom_site_type_symbol
 _atom_site_label
 _atom_site_symmetry_multiplicity
 _atom_site_fract_x
 _atom_site_fract_y
 _atom_site_fract_z
 _atom_site_occupancy
  Np  Np0  1  0.44587643  0.55412357  0.25000000  1
  Np  Np1  1  0.55412357  0.44587643  0.75000000  1
  Tl  Tl0  1  0.84713792  0.15286208  0.99777736  1
  Tl  Tl1  1  0.15286208  0.84713792  0.00222264  1
  Tl  Tl2  1  0.15286208  0.84713792  0.49777736  1
  Tl  Tl3  1  0.84713792  0.15286208  0.50222264  1
  F  F0  1  0.10442100  0.50907867  0.25000000  1
  F  F1  1  0.89557900  0.49092133  0.75000000  1
  F  F2  1  0.49092133  0.89557900  0.25000000  1
  F  F3  1  0.50907867  0.10442100  0.75000000  1
  F  F4  1  0.60284204  0.39715796  0.04241372  1
  F  F5  1  0.39715796  0.60284204  0.95758628  1
  F  F6  1  0.39715796  0.60284204  0.54241372  1
  F  F7  1  0.60284204  0.39715796  0.45758628  1
  F  F8  1  0.22692339  0.18936747  0.25000000  1
  F  F9  1  0.77307661  0.81063253  0.75000000  1
  F  F10  1  0.81063253  0.77307661  0.25000000  1
  F  F11  1  0.18936747  0.22692339  0.75000000  1
loop_
_geom_bond_atom_site_label_1
_geom_bond_atom_site_label_2
_geom_bond_distance
_geom_bond_site_symmetry_2
F0 Np0 2.225291 1_555
F1 Np1 2.225291 1_555
F2 Np0 2.225291 1_555
F3 Np1 2.225291 1_555
F4 Np1 2.254385 1_554
F4 Np0 2.429700 1_555
F5 Np0 2.254385 1_556
F5 Np1 2.429700 1_555
F6 Np0 2.254385 1_555
F6 Np1 2.429700 1_555
F7 Np1 2.254385 1_555
F7 Np0 2.429700 1_555
F8 Np0 2.215781 1_555
F9 Np1 2.215781 1_555
F10 Np0 2.215781 1_555
F11 Np1 2.215781 1_555
