# generated using pymatgen
data_Tm4CdIr
_symmetry_space_group_name_H-M   'P 1'
_cell_length_a   9.45314763
_cell_length_b   9.45318420
_cell_length_c   9.45317095
_cell_angle_alpha   59.99967044
_cell_angle_beta   59.99954788
_cell_angle_gamma   59.99968375
_symmetry_Int_Tables_number   1
_chemical_formula_structural   Tm4CdIr
_chemical_formula_sum   'Tm16 Cd4 Ir4'
_cell_volume   597.32882233
_cell_formula_units_Z   4
loop_
 _symmetry_equiv_pos_site_id
 _symmetry_equiv_pos_as_xyz
  1  'x, y, z'
loop_
 _atom_site_type_symbol
 _atom_site_label
 _atom_site_symmetry_multiplicity
 _atom_site_fract_x
 _atom_site_fract_y
 _atom_site_fract_z
 _atom_site_occupancy
  Tm  Tm0  1  0.59892732  0.59892584  0.59892523  1
  Tm  Tm1  1  0.59892546  0.59892503  0.20322323  1
  Tm  Tm2  1  0.59892499  0.20322530  0.59892506  1
  Tm  Tm3  1  0.20322571  0.59892448  0.59892545  1
  Tm  Tm4  1  0.05955552  0.44044421  0.44044356  1
  Tm  Tm5  1  0.44044534  0.05955549  0.05955490  1
  Tm  Tm6  1  0.44044460  0.05955517  0.44044381  1
  Tm  Tm7  1  0.05955667  0.44044491  0.05955429  1
  Tm  Tm8  1  0.44044485  0.44044465  0.05955557  1
  Tm  Tm9  1  0.05955612  0.05955468  0.44044519  1
  Tm  Tm10  1  0.18819948  0.81180220  0.81180258  1
  Tm  Tm11  1  0.81180269  0.18819906  0.18820034  1
  Tm  Tm12  1  0.81180126  0.18819845  0.81180264  1
  Tm  Tm13  1  0.18819904  0.81180227  0.18819980  1
  Tm  Tm14  1  0.81180187  0.81180331  0.18819723  1
  Tm  Tm15  1  0.18819943  0.18819911  0.81180150  1
  Cd  Cd0  1  0.83072519  0.83072726  0.83072571  1
  Cd  Cd1  1  0.83072480  0.83072566  0.50781517  1
  Cd  Cd2  1  0.83072883  0.50781795  0.83072985  1
  Cd  Cd3  1  0.50780829  0.83072862  0.83073116  1
  Ir  Ir0  1  0.39126860  0.39126987  0.39126938  1
  Ir  Ir1  1  0.39127222  0.39127108  0.82618863  1
  Ir  Ir2  1  0.39127133  0.82618799  0.39126974  1
  Ir  Ir3  1  0.82618940  0.39126841  0.39126899  1
loop_
_geom_bond_atom_site_label_1
_geom_bond_atom_site_label_2
_geom_bond_distance
_geom_bond_site_symmetry_2
Cd0 Cd2 3.052484 1_555
Cd0 Cd1 3.052538 1_555
Cd0 Cd3 3.052549 1_555
Cd0 Tm14 3.210333 1_556
Cd0 Tm12 3.210336 1_565
Cd0 Tm10 3.210346 1_655
Cd0 Tm1 3.372243 1_556
Cd0 Tm2 3.372248 1_565
Cd0 Tm3 3.372259 1_655
Cd0 Tm5 3.418728 1_566
Cd0 Tm9 3.418736 1_665
Cd0 Tm7 3.418759 1_656
Cd1 Cd2 3.052522 1_555
Cd1 Cd3 3.052558 1_555
Cd1 Tm14 3.210267 1_555
Cd1 Tm13 3.210285 1_655
Cd1 Tm11 3.210292 1_565
Cd1 Tm0 3.372204 1_555
Cd1 Tm2 3.372298 1_565
Cd1 Tm3 3.372301 1_655
Cd1 Tm6 3.418714 1_565
Cd1 Tm4 3.418735 1_655
Cd1 Tm9 3.418807 1_665
Cd2 Cd3 3.052560 1_555
Cd2 Tm15 3.210289 1_655
Cd2 Tm11 3.210292 1_556
Cd2 Tm12 3.210335 1_555
Cd2 Tm1 3.372229 1_556
Cd2 Tm3 3.372247 1_655
Cd2 Tm0 3.372284 1_555
Cd2 Tm7 3.418729 1_656
Cd2 Tm8 3.418746 1_556
Cd2 Tm4 3.418774 1_655
Cd3 Tm10 3.210224 1_555
Cd3 Tm13 3.210232 1_556
Cd3 Tm15 3.210249 1_565
Cd3 Tm1 3.372266 1_556
Cd3 Tm0 3.372268 1_555
Cd3 Tm2 3.372302 1_565
Cd3 Tm8 3.418722 1_556
Cd3 Tm6 3.418749 1_565
Cd3 Tm5 3.418763 1_566
Ir0 Tm4 2.750590 1_555
Ir0 Tm8 2.750597 1_555
Ir0 Tm6 2.750612 1_555
Ir0 Tm3 2.782282 1_555
Ir0 Tm1 2.782285 1_555
Ir0 Tm2 2.782289 1_555
Ir0 Tm15 3.405280 1_555
Ir0 Tm11 3.405287 1_555
Ir0 Tm13 3.405289 1_555
Ir1 Tm7 2.750599 1_556
Ir1 Tm5 2.750614 1_556
Ir1 Tm8 2.750615 1_556
Ir1 Tm0 2.782267 1_555
Ir1 Tm2 2.782268 1_555
Ir1 Tm3 2.782271 1_555
Ir1 Tm12 3.405272 1_555
Ir1 Tm10 3.405303 1_555
Ir1 Tm15 3.405317 1_555
Ir2 Tm9 2.750605 1_565
Ir2 Tm5 2.750609 1_565
Ir2 Tm6 2.750626 1_565
Ir2 Tm3 2.782264 1_555
Ir2 Tm1 2.782270 1_555
Ir2 Tm0 2.782280 1_555
Ir2 Tm14 3.405284 1_555
Ir2 Tm13 3.405288 1_555
Ir2 Tm10 3.405308 1_555
Ir3 Tm7 2.750601 1_655
Ir3 Tm9 2.750603 1_655
Ir3 Tm4 2.750629 1_655
Ir3 Tm2 2.782253 1_555
Ir3 Tm1 2.782271 1_555
Ir3 Tm0 2.782293 1_555
Ir3 Tm11 3.405263 1_555
Ir3 Tm12 3.405313 1_555
Ir3 Tm14 3.405330 1_555
