# generated using pymatgen
data_Nd6ZnFe13
_symmetry_space_group_name_H-M   'P 1'
_cell_length_a   8.04725500
_cell_length_b   8.04725500
_cell_length_c   12.73482059
_cell_angle_alpha   108.41846053
_cell_angle_beta   108.41846053
_cell_angle_gamma   90.00000000
_symmetry_Int_Tables_number   1
_chemical_formula_structural   Nd6ZnFe13
_chemical_formula_sum   'Nd12 Zn2 Fe26'
_cell_volume   737.78025722
_cell_formula_units_Z   2
loop_
 _symmetry_equiv_pos_site_id
 _symmetry_equiv_pos_as_xyz
  1  'x, y, z'
loop_
 _atom_site_type_symbol
 _atom_site_label
 _atom_site_symmetry_multiplicity
 _atom_site_fract_x
 _atom_site_fract_y
 _atom_site_fract_z
 _atom_site_occupancy
  Nd  Nd0  1  0.97516300  0.47516300  0.62376400  1
  Nd  Nd1  1  0.64860100  0.14860100  0.62376400  1
  Nd  Nd2  1  0.14860100  0.97516300  0.62376400  1
  Nd  Nd3  1  0.47516300  0.64860100  0.62376400  1
  Nd  Nd4  1  0.02483700  0.52483700  0.37623600  1
  Nd  Nd5  1  0.35139900  0.85139900  0.37623600  1
  Nd  Nd6  1  0.85139900  0.02483700  0.37623600  1
  Nd  Nd7  1  0.52483700  0.35139900  0.37623600  1
  Nd  Nd8  1  0.60776800  0.60776800  0.21553600  1
  Nd  Nd9  1  0.10776800  0.10776800  0.21553600  1
  Nd  Nd10  1  0.39223200  0.39223200  0.78446400  1
  Nd  Nd11  1  0.89223200  0.89223200  0.78446400  1
  Zn  Zn0  1  0.25000000  0.25000000  0.50000000  1
  Zn  Zn1  1  0.75000000  0.75000000  0.50000000  1
  Fe  Fe0  1  0.11812300  0.61812300  0.87988700  1
  Fe  Fe1  1  0.76176400  0.26176400  0.87988700  1
  Fe  Fe2  1  0.26176400  0.11812300  0.87988700  1
  Fe  Fe3  1  0.61812300  0.76176400  0.87988700  1
  Fe  Fe4  1  0.88187700  0.38187700  0.12011300  1
  Fe  Fe5  1  0.23823600  0.73823600  0.12011300  1
  Fe  Fe6  1  0.73823600  0.88187700  0.12011300  1
  Fe  Fe7  1  0.38187700  0.23823600  0.12011300  1
  Fe  Fe8  1  0.71006400  0.56672100  0.00000000  1
  Fe  Fe9  1  0.28993600  0.43327900  0.00000000  1
  Fe  Fe10  1  0.78993600  0.06672100  0.00000000  1
  Fe  Fe11  1  0.21006400  0.93327900  0.00000000  1
  Fe  Fe12  1  0.56672100  0.28993600  0.00000000  1
  Fe  Fe13  1  0.43327900  0.71006400  0.00000000  1
  Fe  Fe14  1  0.06672100  0.21006400  0.00000000  1
  Fe  Fe15  1  0.93327900  0.78993600  0.00000000  1
  Fe  Fe16  1  0.28991700  0.78991700  0.80736400  1
  Fe  Fe17  1  0.51744700  0.01744700  0.80736400  1
  Fe  Fe18  1  0.01744700  0.28991700  0.80736400  1
  Fe  Fe19  1  0.78991700  0.51744700  0.80736400  1
  Fe  Fe20  1  0.71008300  0.21008300  0.19263600  1
  Fe  Fe21  1  0.48255300  0.98255300  0.19263600  1
  Fe  Fe22  1  0.98255300  0.71008300  0.19263600  1
  Fe  Fe23  1  0.21008300  0.48255300  0.19263600  1
  Fe  Fe24  1  0.00000000  0.50000000  0.00000000  1
  Fe  Fe25  1  0.50000000  0.00000000  0.00000000  1
loop_
_geom_bond_atom_site_label_1
_geom_bond_atom_site_label_2
_geom_bond_distance
_geom_bond_site_symmetry_2
Nd0 Zn1 3.325198 1_555
Nd0 Zn0 3.325198 1_655
Nd1 Zn0 3.325198 1_555
Nd1 Zn1 3.325198 1_545
Nd2 Zn0 3.325198 1_565
Nd2 Zn1 3.325198 1_455
Nd3 Zn1 3.325198 1_555
Nd3 Zn0 3.325198 1_555
Nd4 Zn1 3.325198 1_455
Nd4 Zn0 3.325198 1_555
Nd5 Zn1 3.325198 1_555
Nd5 Zn0 3.325198 1_565
Nd6 Zn1 3.325198 1_545
Nd6 Zn0 3.325198 1_655
Nd7 Zn0 3.325198 1_555
Nd7 Zn1 3.325198 1_555
Nd8 Zn1 3.240849 1_555
Nd9 Zn0 3.240849 1_555
Nd10 Zn0 3.240849 1_555
Nd11 Zn1 3.240849 1_555
Fe0 Fe24 2.446319 1_556
Fe0 Fe11 2.480448 1_556
Fe0 Fe13 2.480448 1_556
Fe0 Fe16 2.507803 1_555
Fe0 Fe18 2.543782 1_555
Fe0 Fe19 2.543782 1_455
Fe0 Fe9 2.562294 1_556
Fe0 Fe15 2.562294 1_456
Fe0 Fe5 2.736853 1_556
Fe0 Nd0 2.922887 1_455
Fe0 Nd10 3.153526 1_555
Fe0 Nd11 3.153526 1_455
Fe1 Fe24 2.446319 1_656
Fe1 Fe12 2.480448 1_556
Fe1 Fe10 2.480448 1_556
Fe1 Fe17 2.507803 1_555
Fe1 Fe19 2.543782 1_555
Fe1 Fe18 2.543782 1_655
Fe1 Fe8 2.562294 1_556
Fe1 Fe14 2.562294 1_656
Fe1 Fe4 2.736853 1_556
Fe1 Nd1 2.922887 1_555
Fe1 Nd10 3.153526 1_555
Fe1 Nd11 3.153526 1_545
Fe2 Fe25 2.446319 1_556
Fe2 Fe9 2.480448 1_556
Fe2 Fe7 2.736853 1_556
Fe2 Nd2 2.922887 1_545
Fe2 Nd10 3.153526 1_555
Fe2 Nd11 3.153526 1_445
Fe3 Fe8 2.480448 1_556
Fe3 Fe6 2.736853 1_556
Fe3 Nd3 2.922887 1_555
Fe3 Nd11 3.153526 1_555
Fe3 Nd10 3.153526 1_555
Fe4 Fe8 2.562294 1_555
Fe4 Nd4 2.922887 1_655
Fe4 Nd8 3.153526 1_555
Fe4 Nd9 3.153526 1_655
Fe5 Fe9 2.562294 1_555
Fe5 Nd5 2.922887 1_555
Fe5 Nd8 3.153526 1_555
Fe5 Nd9 3.153526 1_565
Fe6 Fe8 2.480448 1_555
Fe6 Nd6 2.922887 1_565
Fe6 Nd8 3.153526 1_555
Fe6 Nd9 3.153526 1_665
Fe7 Fe9 2.480448 1_555
Fe7 Nd7 2.922887 1_555
Fe7 Nd9 3.153526 1_555
Fe7 Nd8 3.153526 1_555
Fe8 Nd8 3.029136 1_555
Fe8 Nd10 3.029136 1_554
Fe9 Nd10 3.029136 1_554
Fe9 Nd8 3.029136 1_555
Fe10 Fe25 2.394171 1_555
Fe10 Fe4 2.480448 1_555
Fe10 Fe14 2.508333 1_655
Fe10 Fe15 2.508333 1_545
Fe10 Fe12 2.540307 1_555
Fe10 Fe6 2.562294 1_545
Fe10 Fe3 2.562294 1_544
Fe10 Fe20 2.640027 1_555
Fe10 Fe17 2.640027 1_554
Fe10 Nd11 3.029136 1_544
Fe10 Nd9 3.029136 1_655
Fe11 Fe25 2.394171 1_565
Fe11 Fe5 2.480448 1_555
Fe11 Fe14 2.508333 1_565
Fe11 Fe15 2.508333 1_455
Fe11 Fe13 2.540307 1_555
Fe11 Fe2 2.562294 1_564
Fe11 Fe7 2.562294 1_565
Fe11 Fe16 2.640027 1_554
Fe11 Fe21 2.640027 1_555
Fe11 Nd9 3.029136 1_565
Fe11 Nd11 3.029136 1_454
Fe12 Fe25 2.394171 1_555
Fe12 Fe4 2.480448 1_555
Fe12 Fe8 2.508333 1_555
Fe12 Fe9 2.508333 1_555
Fe12 Fe7 2.562294 1_555
Fe12 Fe2 2.562294 1_554
Fe12 Fe20 2.640027 1_555
Fe12 Fe17 2.640027 1_554
Fe12 Nd10 3.029136 1_554
Fe12 Nd8 3.029136 1_555
Fe13 Fe25 2.394171 1_565
Fe13 Fe5 2.480448 1_555
Fe13 Fe9 2.508333 1_555
Fe13 Fe8 2.508333 1_555
Fe13 Fe3 2.562294 1_554
Fe13 Fe6 2.562294 1_555
Fe13 Fe16 2.640027 1_554
Fe13 Fe21 2.640027 1_555
Fe13 Nd8 3.029136 1_555
Fe13 Nd10 3.029136 1_554
Fe14 Fe24 2.394171 1_555
Fe14 Fe2 2.480448 1_554
Fe14 Fe7 2.480448 1_555
Fe14 Fe9 2.540307 1_555
Fe14 Fe4 2.562294 1_455
Fe14 Fe18 2.640027 1_554
Fe14 Fe23 2.640027 1_555
Fe14 Nd9 3.029136 1_555
Fe14 Nd11 3.029136 1_444
Fe15 Fe24 2.394171 1_655
Fe15 Fe6 2.480448 1_555
Fe15 Fe3 2.480448 1_554
Fe15 Fe8 2.540307 1_555
Fe15 Fe5 2.562294 1_655
Fe15 Fe22 2.640027 1_555
Fe15 Fe19 2.640027 1_554
Fe15 Nd11 3.029136 1_554
Fe15 Nd9 3.029136 1_665
Fe16 Fe3 2.543782 1_555
Fe16 Fe2 2.543782 1_565
Fe16 Fe25 2.548104 1_566
Fe16 Fe17 2.589414 1_565
Fe16 Nd3 3.082949 1_555
Fe16 Nd2 3.082949 1_555
Fe16 Nd11 3.250643 1_455
Fe16 Nd10 3.250643 1_555
Fe16 Nd0 3.288371 1_455
Fe17 Fe2 2.543782 1_555
Fe17 Fe3 2.543782 1_545
Fe17 Fe25 2.548104 1_556
Fe17 Nd3 3.082949 1_545
Fe17 Nd2 3.082949 1_545
Fe17 Nd10 3.250643 1_555
Fe17 Nd11 3.250643 1_545
Fe17 Nd1 3.288370 1_555
Fe18 Fe2 2.507803 1_555
Fe18 Fe24 2.548104 1_556
Fe18 Fe19 2.589414 1_455
Fe18 Fe9 2.640027 1_556
Fe18 Nd0 3.082949 1_455
Fe18 Nd1 3.082949 1_455
Fe18 Nd10 3.250643 1_555
Fe18 Nd11 3.250643 1_445
Fe18 Nd2 3.288371 1_545
Fe19 Fe3 2.507803 1_555
Fe19 Fe24 2.548104 1_656
Fe19 Fe8 2.640027 1_556
Fe19 Nd0 3.082949 1_555
Fe19 Nd1 3.082949 1_555
Fe19 Nd11 3.250643 1_555
Fe19 Nd10 3.250643 1_555
Fe19 Nd3 3.288371 1_555
Fe20 Fe4 2.507803 1_555
Fe20 Fe6 2.543782 1_545
Fe20 Fe7 2.543782 1_555
Fe20 Fe25 2.548104 1_555
Fe20 Fe21 2.589414 1_545
Fe20 Nd6 3.082949 1_555
Fe20 Nd7 3.082949 1_555
Fe20 Nd8 3.250643 1_555
Fe20 Nd9 3.250643 1_655
Fe20 Nd4 3.288371 1_655
Fe21 Fe5 2.507803 1_555
Fe21 Fe6 2.543782 1_555
Fe21 Fe7 2.543782 1_565
Fe21 Fe25 2.548104 1_565
Fe21 Nd7 3.082949 1_565
Fe21 Nd6 3.082949 1_565
Fe21 Nd8 3.250643 1_555
Fe21 Nd9 3.250643 1_565
Fe21 Nd5 3.288370 1_555
Fe22 Fe6 2.507803 1_555
Fe22 Fe5 2.543782 1_655
Fe22 Fe4 2.543782 1_555
Fe22 Fe24 2.548104 1_655
Fe22 Fe23 2.589414 1_655
Fe22 Fe8 2.640027 1_555
Fe22 Nd4 3.082949 1_655
Fe22 Nd5 3.082949 1_655
Fe22 Nd8 3.250643 1_555
Fe22 Nd9 3.250643 1_665
Fe22 Nd6 3.288371 1_565
Fe23 Fe7 2.507803 1_555
Fe23 Fe5 2.543782 1_555
Fe23 Fe4 2.543782 1_455
Fe23 Fe24 2.548104 1_555
Fe23 Fe9 2.640027 1_555
Fe23 Nd4 3.082949 1_555
Fe23 Nd5 3.082949 1_555
Fe23 Nd9 3.250643 1_555
Fe23 Nd8 3.250643 1_555
Fe23 Nd7 3.288371 1_555
Fe24 Fe8 2.394171 1_455
Fe24 Fe9 2.394171 1_555
Fe24 Fe4 2.446319 1_455
Fe24 Fe5 2.446319 1_555
Fe25 Fe7 2.446319 1_555
Fe25 Fe6 2.446319 1_545
Fe25 Fe3 2.446319 1_544
