# generated using pymatgen
data_Cr5(Te3Se)2
_symmetry_space_group_name_H-M   'P 1'
_cell_length_a   3.85002882
_cell_length_b   3.85002882
_cell_length_c   25.06266800
_cell_angle_alpha   90.00000000
_cell_angle_beta   90.00000000
_cell_angle_gamma   120.00001409
_symmetry_Int_Tables_number   1
_chemical_formula_structural   Cr5(Te3Se)2
_chemical_formula_sum   'Cr5 Te6 Se2'
_cell_volume   321.72575754
_cell_formula_units_Z   1
loop_
 _symmetry_equiv_pos_site_id
 _symmetry_equiv_pos_as_xyz
  1  'x, y, z'
loop_
 _atom_site_type_symbol
 _atom_site_label
 _atom_site_symmetry_multiplicity
 _atom_site_fract_x
 _atom_site_fract_y
 _atom_site_fract_z
 _atom_site_occupancy
  Cr  Cr0  1  0.00000000  0.00000000  0.01105300  1
  Cr  Cr1  1  0.00000000  0.00000000  0.74358400  1
  Cr  Cr2  1  0.00000000  0.00000000  0.49958100  1
  Cr  Cr3  1  0.00000000  0.00000000  0.25618500  1
  Cr  Cr4  1  0.00000000  0.00000000  0.87680100  1
  Te  Te0  1  0.33333300  0.66666700  0.94199900  1
  Te  Te1  1  0.33333300  0.66666700  0.68468700  1
  Te  Te2  1  0.33333300  0.66666700  0.43689200  1
  Te  Te3  1  0.33333300  0.66666700  0.19071800  1
  Te  Te4  1  0.66666700  0.33333300  0.81090600  1
  Te  Te5  1  0.66666700  0.33333300  0.56114500  1
  Se  Se0  1  0.66666700  0.33333300  0.30372700  1
  Se  Se1  1  0.66666700  0.33333300  0.05772300  1
loop_
_geom_bond_atom_site_label_1
_geom_bond_atom_site_label_2
_geom_bond_distance
_geom_bond_site_symmetry_2
Cr0 Se1 2.511780 1_455
Cr0 Se1 2.511782 1_555
Cr0 Se1 2.511782 1_445
Cr0 Te0 2.817116 1_544
Cr0 Te0 2.817118 1_554
Cr0 Te0 2.817118 1_444
Cr1 Te1 2.668298 1_545
Cr1 Te1 2.668301 1_445
Cr1 Te1 2.668301 1_555
Cr1 Te4 2.790658 1_455
Cr1 Te4 2.790661 1_555
Cr1 Te4 2.790661 1_445
Cr2 Te5 2.705849 1_455
Cr2 Te5 2.705851 1_555
Cr2 Te5 2.705851 1_445
Cr2 Te2 2.722025 1_545
Cr2 Te2 2.722028 1_445
Cr2 Te2 2.722028 1_555
Cr3 Se0 2.522031 1_455
Cr3 Se0 2.522034 1_555
Cr3 Se0 2.522034 1_445
Cr3 Te3 2.762797 1_545
Cr3 Te3 2.762800 1_445
Cr3 Te3 2.762800 1_555
Cr4 Te0 2.758799 1_545
Cr4 Te0 2.758801 1_445
Cr4 Te0 2.758801 1_555
Cr4 Te4 2.769181 1_455
Cr4 Te4 2.769184 1_555
Cr4 Te4 2.769184 1_445
