# generated using pymatgen
data_ErCu4Pd
_symmetry_space_group_name_H-M   'P 1'
_cell_length_a   4.92364594
_cell_length_b   4.92364594
_cell_length_c   4.92364809
_cell_angle_alpha   59.99998546
_cell_angle_beta   59.99998546
_cell_angle_gamma   59.99999031
_symmetry_Int_Tables_number   1
_chemical_formula_structural   ErCu4Pd
_chemical_formula_sum   'Er1 Cu4 Pd1'
_cell_volume   84.40059520
_cell_formula_units_Z   1
loop_
 _symmetry_equiv_pos_site_id
 _symmetry_equiv_pos_as_xyz
  1  'x, y, z'
loop_
 _atom_site_type_symbol
 _atom_site_label
 _atom_site_symmetry_multiplicity
 _atom_site_fract_x
 _atom_site_fract_y
 _atom_site_fract_z
 _atom_site_occupancy
  Er  Er0  1  0.00000000  -0.00000000  -0.00000000  1
  Cu  Cu0  1  0.62417049  0.62417049  0.12748952  1
  Cu  Cu1  1  0.62417049  0.12748952  0.62417049  1
  Cu  Cu2  1  0.12748952  0.62417049  0.62417049  1
  Cu  Cu3  1  0.62417049  0.62417049  0.62417049  1
  Pd  Pd0  1  0.25000000  0.25000000  0.25000000  1
loop_
_geom_bond_atom_site_label_1
_geom_bond_atom_site_label_2
_geom_bond_distance
_geom_bond_site_symmetry_2
Er0 Pd0 3.015105 1_455
Er0 Pd0 3.015105 1_545
Er0 Pd0 3.015106 1_554
Er0 Pd0 3.015106 1_555
Cu0 Cu1 2.445481 1_555
Cu0 Cu2 2.445481 1_555
Cu0 Cu3 2.445482 1_555
Cu0 Cu1 2.478165 1_564
Cu0 Cu2 2.478165 1_654
Cu0 Cu3 2.478166 1_554
Cu0 Pd0 2.885016 1_565
Cu0 Pd0 2.885016 1_655
Cu0 Pd0 2.885021 1_555
Cu0 Er0 2.888499 1_665
Cu0 Er0 2.888504 1_655
Cu0 Er0 2.888504 1_565
Cu1 Cu2 2.445481 1_555
Cu1 Cu3 2.445481 1_555
Cu1 Cu2 2.478164 1_645
Cu1 Cu3 2.478165 1_545
Cu1 Pd0 2.885016 1_655
Cu1 Pd0 2.885017 1_556
Cu1 Pd0 2.885022 1_555
Cu1 Er0 2.888500 1_656
Cu1 Er0 2.888503 1_556
Cu1 Er0 2.888505 1_655
Cu2 Cu3 2.445481 1_555
Cu2 Cu3 2.478165 1_455
Cu2 Pd0 2.885016 1_565
Cu2 Pd0 2.885017 1_556
Cu2 Pd0 2.885022 1_555
Cu2 Er0 2.888500 1_566
Cu2 Er0 2.888503 1_556
Cu2 Er0 2.888505 1_565
Cu3 Pd0 2.885018 1_565
Cu3 Pd0 2.885018 1_655
Cu3 Pd0 2.885019 1_556
Cu3 Er0 2.888502 1_665
Cu3 Er0 2.888502 1_566
Cu3 Er0 2.888502 1_656
