# generated using pymatgen
data_KBa4(FeAs)10
_symmetry_space_group_name_H-M   'P 1'
_cell_length_a   8.96054061
_cell_length_b   8.96054061
_cell_length_c   8.96054061
_cell_angle_alpha   121.04622463
_cell_angle_beta   121.04622463
_cell_angle_gamma   88.19724084
_symmetry_Int_Tables_number   1
_chemical_formula_structural   KBa4(FeAs)10
_chemical_formula_sum   'K1 Ba4 Fe10 As10'
_cell_volume   500.41654529
_cell_formula_units_Z   1
loop_
 _symmetry_equiv_pos_site_id
 _symmetry_equiv_pos_as_xyz
  1  'x, y, z'
loop_
 _atom_site_type_symbol
 _atom_site_label
 _atom_site_symmetry_multiplicity
 _atom_site_fract_x
 _atom_site_fract_y
 _atom_site_fract_z
 _atom_site_occupancy
  K  K0  1  0.00000000  0.00000000  0.00000000  1
  Ba  Ba0  1  0.39358600  0.80228700  0.19587400  1
  Ba  Ba1  1  0.80228700  0.60641400  0.40870100  1
  Ba  Ba2  1  0.19771300  0.39358600  0.59129900  1
  Ba  Ba3  1  0.60641400  0.19771300  0.80412600  1
  Fe  Fe0  1  0.94986100  0.64970300  0.10047500  1
  Fe  Fe1  1  0.35029700  0.45077200  0.30015800  1
  Fe  Fe2  1  0.75000000  0.25000000  0.50000000  1
  Fe  Fe3  1  0.15061400  0.05013800  0.69984200  1
  Fe  Fe4  1  0.54922800  0.84938600  0.89952500  1
  Fe  Fe5  1  0.64970300  0.54922800  0.69984200  1
  Fe  Fe6  1  0.05013800  0.35029700  0.89952500  1
  Fe  Fe7  1  0.45077200  0.15061400  0.10047500  1
  Fe  Fe8  1  0.84938600  0.94986200  0.30015800  1
  Fe  Fe9  1  0.25000000  0.75000000  0.50000000  1
  As  As0  1  0.94484100  0.54494400  0.80083200  1
  As  As1  1  0.34424800  0.34424800  0.00000000  1
  As  As2  1  0.74411200  0.14400800  0.19916800  1
  As  As3  1  0.14400800  0.94484100  0.39989700  1
  As  As4  1  0.54494400  0.74411200  0.60010300  1
  As  As5  1  0.65575200  0.65575200  0.00000000  1
  As  As6  1  0.05515900  0.45505600  0.19916800  1
  As  As7  1  0.45505600  0.25588800  0.39989700  1
  As  As8  1  0.85599200  0.05515900  0.60010300  1
  As  As9  1  0.25588800  0.85599200  0.80083200  1
loop_
_geom_bond_atom_site_label_1
_geom_bond_atom_site_label_2
_geom_bond_distance
_geom_bond_site_symmetry_2
As0 Fe6 2.311078 1_655
As0 Fe0 2.317462 1_556
As0 Fe5 2.318458 1_555
As0 Fe2 2.320976 1_555
As0 Ba0 3.390971 1_656
As0 Ba1 3.406417 1_555
As0 K0 3.430265 1_666
As0 Ba2 3.473745 1_655
As1 Fe7 2.313601 1_555
As1 Fe1 2.313601 1_555
As1 Fe3 2.313606 1_554
As1 Fe6 2.313610 1_554
As1 Ba0 3.464776 1_555
As1 Ba1 3.464778 1_555
As1 Ba2 3.464778 1_554
As1 Ba3 3.464784 1_554
As2 Fe7 2.311081 1_555
As2 Fe4 2.317457 1_544
As2 Fe8 2.318441 1_545
As2 Fe2 2.320974 1_555
As2 Ba3 3.390985 1_554
As2 Ba2 3.406419 1_655
As2 K0 3.430264 1_655
As2 Ba1 3.473754 1_555
As3 Fe3 2.311076 1_565
As3 Fe8 2.317455 1_455
As3 Fe0 2.318456 1_455
As3 Fe9 2.320978 1_555
As3 Ba2 3.390970 1_565
As3 Ba0 3.406420 1_555
As3 K0 3.430266 1_565
As3 Ba3 3.473751 1_565
As4 Fe1 2.311080 1_555
As4 Fe5 2.317462 1_555
As4 Fe4 2.318458 1_555
As4 Fe9 2.320976 1_555
As4 Ba1 3.390971 1_555
As4 Ba3 3.406419 1_565
As4 K0 3.430265 1_666
As4 Ba0 3.473737 1_555
As5 Fe5 2.313601 1_554
As5 Fe0 2.313601 1_555
As5 Fe4 2.313601 1_554
As5 Fe8 2.313606 1_555
As5 Ba3 3.464776 1_554
As5 Ba1 3.464778 1_555
As5 Ba2 3.464778 1_554
As5 Ba0 3.464784 1_555
As6 Fe0 2.311080 1_455
As6 Fe6 2.317457 1_554
As6 Fe1 2.318458 1_555
As6 Fe9 2.320976 1_555
As6 Ba3 3.390971 1_454
As6 Ba2 3.406417 1_555
As6 K0 3.430265 1_555
As6 Ba1 3.473745 1_455
As7 Fe5 2.311080 1_555
As7 Fe1 2.317462 1_555
As7 Fe7 2.318458 1_555
As7 Fe2 2.320976 1_555
As7 Ba2 3.390971 1_555
As7 Ba0 3.406419 1_545
As7 K0 3.430265 1_555
As7 Ba3 3.473737 1_555
As8 Fe8 2.311076 1_545
As8 Fe3 2.317455 1_655
As8 Fe6 2.318454 1_655
As8 Fe2 2.320978 1_555
As8 Ba1 3.390970 1_545
As8 Ba3 3.406420 1_555
As8 K0 3.430266 1_656
As8 Ba0 3.473751 1_545
As9 Fe4 2.311081 1_555
As9 Fe7 2.317457 1_566
As9 Fe3 2.318441 1_565
As9 Fe9 2.320974 1_555
As9 Ba0 3.390985 1_556
As9 Ba1 3.406419 1_455
As9 K0 3.430264 1_566
As9 Ba2 3.473754 1_555
