# generated using pymatgen
data_V3CdO7
_symmetry_space_group_name_H-M   'P 1'
_cell_length_a   5.38524400
_cell_length_b   11.36430700
_cell_length_c   10.52900400
_cell_angle_alpha   90.00000000
_cell_angle_beta   90.00000000
_cell_angle_gamma   90.00000000
_symmetry_Int_Tables_number   1
_chemical_formula_structural   V3CdO7
_chemical_formula_sum   'V12 Cd4 O28'
_cell_volume   644.37047612
_cell_formula_units_Z   4
loop_
 _symmetry_equiv_pos_site_id
 _symmetry_equiv_pos_as_xyz
  1  'x, y, z'
loop_
 _atom_site_type_symbol
 _atom_site_label
 _atom_site_symmetry_multiplicity
 _atom_site_fract_x
 _atom_site_fract_y
 _atom_site_fract_z
 _atom_site_occupancy
  V  V0  1  0.26954500  0.32201700  0.75000000  1
  V  V1  1  0.76954500  0.17798300  0.25000000  1
  V  V2  1  0.23045500  0.82201700  0.75000000  1
  V  V3  1  0.73045500  0.67798300  0.25000000  1
  V  V4  1  0.22529500  0.80629100  0.46927600  1
  V  V5  1  0.72529500  0.69370900  0.53072400  1
  V  V6  1  0.27470500  0.30629100  0.03072400  1
  V  V7  1  0.77470500  0.19370900  0.96927600  1
  V  V8  1  0.77470500  0.19370900  0.53072400  1
  V  V9  1  0.27470500  0.30629100  0.46927600  1
  V  V10  1  0.72529500  0.69370900  0.96927600  1
  V  V11  1  0.22529500  0.80629100  0.03072400  1
  Cd  Cd0  1  0.77230000  0.43691300  0.75000000  1
  Cd  Cd1  1  0.27230000  0.06308700  0.25000000  1
  Cd  Cd2  1  0.72770000  0.93691300  0.75000000  1
  Cd  Cd3  1  0.22770000  0.56308700  0.25000000  1
  O  O0  1  0.27099200  0.96761700  0.75000000  1
  O  O1  1  0.77099200  0.53238300  0.25000000  1
  O  O2  1  0.22900800  0.46761700  0.75000000  1
  O  O3  1  0.72900800  0.03238300  0.25000000  1
  O  O4  1  0.25061900  0.94367000  0.41339600  1
  O  O5  1  0.75061900  0.55633000  0.58660400  1
  O  O6  1  0.24938100  0.44367000  0.08660400  1
  O  O7  1  0.74938100  0.05633000  0.91339600  1
  O  O8  1  0.74938100  0.05633000  0.58660400  1
  O  O9  1  0.24938100  0.44367000  0.41339600  1
  O  O10  1  0.75061900  0.55633000  0.91339600  1
  O  O11  1  0.25061900  0.94367000  0.08660400  1
  O  O12  1  0.95601000  0.72163500  0.38867200  1
  O  O13  1  0.45601000  0.77836500  0.61132800  1
  O  O14  1  0.54399000  0.22163500  0.11132800  1
  O  O15  1  0.04399000  0.27836500  0.88867200  1
  O  O16  1  0.47842800  0.70391000  0.11423000  1
  O  O17  1  0.97842800  0.79609000  0.88577000  1
  O  O18  1  0.02157200  0.20391000  0.38577000  1
  O  O19  1  0.52157200  0.29609000  0.61423000  1
  O  O20  1  0.52157200  0.29609000  0.88577000  1
  O  O21  1  0.02157200  0.20391000  0.11423000  1
  O  O22  1  0.97842800  0.79609000  0.61423000  1
  O  O23  1  0.47842800  0.70391000  0.38577000  1
  O  O24  1  0.95601000  0.72163500  0.11132800  1
  O  O25  1  0.45601000  0.77836500  0.88867200  1
  O  O26  1  0.54399000  0.22163500  0.38867200  1
  O  O27  1  0.04399000  0.27836500  0.61132800  1
loop_
_geom_bond_atom_site_label_1
_geom_bond_atom_site_label_2
_geom_bond_distance
_geom_bond_site_symmetry_2
Cd0 O5 2.194333 1_555
Cd0 O10 2.194333 1_555
Cd0 O2 2.484112 1_655
Cd0 O19 2.535311 1_555
Cd0 O20 2.535311 1_555
Cd0 O15 2.742076 1_655
Cd0 O27 2.742076 1_655
Cd1 O4 2.194333 1_545
Cd1 O11 2.194333 1_545
Cd1 O3 2.484112 1_555
Cd1 O21 2.535311 1_555
Cd1 O18 2.535311 1_555
Cd1 O14 2.742076 1_555
Cd1 O26 2.742076 1_555
Cd2 O7 2.194333 1_565
Cd2 O8 2.194333 1_565
Cd2 O0 2.484112 1_555
Cd2 O17 2.535311 1_555
Cd2 O22 2.535311 1_555
Cd2 O25 2.742076 1_555
Cd2 O13 2.742076 1_555
Cd3 O6 2.194333 1_555
Cd3 O9 2.194333 1_555
Cd3 O1 2.484112 1_455
Cd3 O16 2.535311 1_555
Cd3 O23 2.535311 1_555
Cd3 O24 2.742076 1_455
Cd3 O12 2.742076 1_455
O0 V2 1.668982 1_555
O1 V3 1.668982 1_555
O2 V0 1.668982 1_555
O3 V1 1.668982 1_555
O4 V4 1.673967 1_555
O5 V5 1.673967 1_555
O6 V6 1.673967 1_555
O7 V7 1.673967 1_555
O8 V8 1.673967 1_555
O9 V9 1.673967 1_555
O10 V10 1.673967 1_555
O11 V11 1.673967 1_555
O12 V4 1.936179 1_655
O12 V3 1.962992 1_555
O12 V5 1.970135 1_555
O13 V5 1.936179 1_555
O13 V2 1.962992 1_555
O13 V4 1.970135 1_555
O14 V6 1.936179 1_555
O14 V1 1.962992 1_555
O14 V7 1.970135 1_554
O15 V7 1.936179 1_455
O15 V0 1.962992 1_555
O15 V6 1.970135 1_556
O16 V3 1.993092 1_555
O16 V11 1.996254 1_555
O16 V10 2.027362 1_554
O17 V2 1.993092 1_655
O17 V10 1.996254 1_555
O17 V11 2.027362 1_656
O18 V1 1.993092 1_455
O18 V9 1.996254 1_555
O18 V8 2.027362 1_455
O19 V0 1.993092 1_555
O19 V8 1.996254 1_555
O19 V9 2.027362 1_555
O20 V0 1.993092 1_555
O20 V7 1.996254 1_555
O20 V6 2.027362 1_556
O21 V1 1.993092 1_455
O21 V6 1.996254 1_555
O21 V7 2.027362 1_454
O22 V2 1.993092 1_655
O22 V5 1.996254 1_555
O22 V4 2.027362 1_655
O23 V3 1.993092 1_555
O23 V4 1.996254 1_555
O23 V5 2.027362 1_555
O24 V11 1.936179 1_655
O24 V3 1.962992 1_555
O24 V10 1.970135 1_554
O25 V10 1.936179 1_555
O25 V2 1.962992 1_555
O25 V11 1.970135 1_556
O26 V9 1.936179 1_555
O26 V1 1.962992 1_555
O26 V8 1.970135 1_555
O27 V8 1.936179 1_455
O27 V0 1.962992 1_555
O27 V9 1.970135 1_555
