# generated using pymatgen
data_MnVO4
_symmetry_space_group_name_H-M   'P 1'
_cell_length_a   6.31046381
_cell_length_b   5.60863197
_cell_length_c   5.60553265
_cell_angle_alpha   63.12409017
_cell_angle_beta   124.17597759
_cell_angle_gamma   124.15664649
_symmetry_Int_Tables_number   1
_chemical_formula_structural   MnVO4
_chemical_formula_sum   'Mn2 V2 O8'
_cell_volume   133.09036962
_cell_formula_units_Z   2
loop_
 _symmetry_equiv_pos_site_id
 _symmetry_equiv_pos_as_xyz
  1  'x, y, z'
loop_
 _atom_site_type_symbol
 _atom_site_label
 _atom_site_symmetry_multiplicity
 _atom_site_fract_x
 _atom_site_fract_y
 _atom_site_fract_z
 _atom_site_occupancy
  Mn  Mn0  1  0.99992700  0.99996900  0.49990800  1
  Mn  Mn1  1  0.00003500  0.50001000  0.00006700  1
  V  V0  1  0.46309200  0.21302800  0.21307300  1
  V  V1  1  0.53681400  0.78694800  0.78684100  1
  O  O0  1  0.21126700  0.26059100  0.26076800  1
  O  O1  1  0.81057300  0.26102700  0.26109500  1
  O  O2  1  0.78889300  0.73944500  0.73939100  1
  O  O3  1  0.18949500  0.73900700  0.73904200  1
  O  O4  1  0.67964500  0.16503400  0.69418600  1
  O  O5  1  0.67962500  0.69414500  0.16516600  1
  O  O6  1  0.32033900  0.83486100  0.30585200  1
  O  O7  1  0.32029500  0.30593600  0.83461200  1
loop_
_geom_bond_atom_site_label_1
_geom_bond_atom_site_label_2
_geom_bond_distance
_geom_bond_site_symmetry_2
Mn0 O1 1.938830 1_565
Mn0 O0 1.939102 1_665
Mn0 O2 1.939229 1_555
Mn0 O3 1.939292 1_655
Mn0 O5 2.303105 1_555
Mn0 O7 2.303463 1_665
Mn1 O3 1.938970 1_554
Mn1 O1 1.938992 1_455
Mn1 O2 1.939487 1_454
Mn1 O0 1.939799 1_555
Mn1 O6 2.303508 1_555
Mn1 O4 2.304304 1_454
O0 V0 1.919849 1_555
O1 V0 1.921629 1_555
O2 V1 1.920286 1_555
O3 V1 1.921313 1_555
O4 V1 1.721276 1_545
O4 V0 2.197585 1_555
O5 V1 1.721068 1_554
O5 V0 2.199398 1_555
O6 V0 1.721666 1_565
O6 V1 2.197050 1_555
O7 V0 1.721702 1_556
O7 V1 2.198977 1_555
