# generated using pymatgen
data_Eu2MgAg2(WO4)4
_symmetry_space_group_name_H-M   'P 1'
_cell_length_a   7.36833592
_cell_length_b   7.53524476
_cell_length_c   8.78777888
_cell_angle_alpha   93.47243920
_cell_angle_beta   117.95601009
_cell_angle_gamma   114.15973153
_symmetry_Int_Tables_number   1
_chemical_formula_structural   Eu2MgAg2(WO4)4
_chemical_formula_sum   'Eu2 Mg1 Ag2 W4 O16'
_cell_volume   373.44299903
_cell_formula_units_Z   1
loop_
 _symmetry_equiv_pos_site_id
 _symmetry_equiv_pos_as_xyz
  1  'x, y, z'
loop_
 _atom_site_type_symbol
 _atom_site_label
 _atom_site_symmetry_multiplicity
 _atom_site_fract_x
 _atom_site_fract_y
 _atom_site_fract_z
 _atom_site_occupancy
  Eu  Eu0  1  0.02971445  0.72386359  0.35291119  1
  Eu  Eu1  1  0.97028555  0.27613641  0.64708881  1
  Mg  Mg0  1  0.00000000  0.50000000  0.00000000  1
  Ag  Ag0  1  0.50692138  0.66015481  0.76567961  1
  Ag  Ag1  1  0.49307862  0.33984519  0.23432039  1
  W  W0  1  0.99166238  0.22680249  0.25460547  1
  W  W1  1  0.00833762  0.77319751  0.74539453  1
  W  W2  1  0.48175450  0.84338374  0.13657978  1
  W  W3  1  0.51824550  0.15661626  0.86342022  1
  O  O0  1  0.78586162  0.37319952  0.10526631  1
  O  O1  1  0.21413838  0.62680048  0.89473369  1
  O  O2  1  0.27109828  0.89193757  0.67908286  1
  O  O3  1  0.72890172  0.10806243  0.32091714  1
  O  O4  1  0.63719401  0.70027627  0.20690489  1
  O  O5  1  0.36280599  0.29972373  0.79309511  1
  O  O6  1  0.28292263  0.76496736  0.22221974  1
  O  O7  1  0.71707737  0.23503264  0.77778026  1
  O  O8  1  0.86361948  0.67373285  0.87000238  1
  O  O9  1  0.13638052  0.32626715  0.12999762  1
  O  O10  1  0.11101885  0.06455742  0.34420970  1
  O  O11  1  0.88898115  0.93544258  0.65579030  1
  O  O12  1  0.67945654  0.99127368  0.01888704  1
  O  O13  1  0.32054346  0.00872632  0.98111296  1
  O  O14  1  0.84823577  0.54987968  0.54155791  1
  O  O15  1  0.15176423  0.45012032  0.45844209  1
loop_
_geom_bond_atom_site_label_1
_geom_bond_atom_site_label_2
_geom_bond_distance
_geom_bond_site_symmetry_2
Eu0 O10 2.400652 1_565
Eu0 O2 2.433051 1_555
Eu0 O4 2.472870 1_455
Eu0 O6 2.544597 1_555
Eu0 O0 2.587925 1_455
Eu0 O15 2.625231 1_555
Eu0 O14 2.676153 1_455
Eu1 O11 2.400652 1_545
Eu1 O3 2.433051 1_555
Eu1 O5 2.472870 1_655
Eu1 O7 2.544597 1_555
Eu1 O1 2.587925 1_655
Eu1 O14 2.625231 1_555
Eu1 O15 2.676153 1_655
Mg0 O9 2.051912 1_555
Mg0 O8 2.051912 1_454
Mg0 O7 2.109376 1_454
Mg0 O6 2.109376 1_555
Mg0 O1 2.121264 1_554
Mg0 O0 2.121264 1_455
Ag0 O8 2.295241 1_555
Ag0 O15 2.471908 1_555
Ag0 O5 2.553494 1_555
Ag0 O12 2.621355 1_556
Ag1 O9 2.295241 1_555
Ag1 O14 2.471908 1_555
Ag1 O4 2.553494 1_555
Ag1 O13 2.621355 1_554
O0 W3 2.021130 1_554
O0 W0 2.217544 1_555
O1 W2 2.021130 1_556
O1 W1 2.217544 1_555
O2 W3 1.946251 1_565
O2 W1 2.142807 1_555
O3 W2 1.946251 1_545
O3 W0 2.142807 1_555
O4 W2 1.812351 1_555
O5 W3 1.812351 1_555
O6 W2 1.854980 1_555
O7 W3 1.854980 1_555
O8 W1 1.854153 1_655
O9 W0 1.854153 1_455
O10 W0 1.798768 1_455
O11 W1 1.798768 1_655
O12 W0 2.116022 1_565
O12 W2 2.158013 1_555
O12 W3 2.173900 1_564
O13 W1 2.116022 1_545
O13 W3 2.158013 1_555
O13 W2 2.173900 1_546
O14 W1 1.860279 1_655
O15 W0 1.860279 1_455
