# generated using pymatgen
data_Sr4CaTb2(RuO6)2
_symmetry_space_group_name_H-M   'P 1'
_cell_length_a   6.27031512
_cell_length_b   6.12345805
_cell_length_c   8.12253586
_cell_angle_alpha   87.52327717
_cell_angle_beta   92.56403199
_cell_angle_gamma   94.20539948
_symmetry_Int_Tables_number   1
_chemical_formula_structural   Sr4CaTb2(RuO6)2
_chemical_formula_sum   'Sr4 Ca1 Tb2 Ru2 O12'
_cell_volume   310.47221038
_cell_formula_units_Z   1
loop_
 _symmetry_equiv_pos_site_id
 _symmetry_equiv_pos_as_xyz
  1  'x, y, z'
loop_
 _atom_site_type_symbol
 _atom_site_label
 _atom_site_symmetry_multiplicity
 _atom_site_fract_x
 _atom_site_fract_y
 _atom_site_fract_z
 _atom_site_occupancy
  Sr  Sr0  1  0.01415300  0.53214700  0.75589100  1
  Sr  Sr1  1  0.43953900  0.96387300  0.73980200  1
  Sr  Sr2  1  0.61449400  0.84906600  0.20383700  1
  Sr  Sr3  1  0.07215100  0.58891500  0.24757000  1
  Ca  Ca0  1  0.30455900  0.13864900  0.29875900  1
  Tb  Tb0  1  0.53347900  0.42624700  0.98238200  1
  Tb  Tb1  1  0.91015000  0.05506100  0.52021100  1
  Ru  Ru0  1  0.00253400  0.00254500  0.99692500  1
  Ru  Ru1  1  0.47739500  0.52161900  0.50384900  1
  O  O0  1  0.71930100  0.14873800  0.95092400  1
  O  O1  1  0.75653300  0.70824300  0.50170200  1
  O  O2  1  0.27034100  0.85799100  0.05378700  1
  O  O3  1  0.17669400  0.33517800  0.49806800  1
  O  O4  1  0.81679900  0.68690900  0.00082800  1
  O  O5  1  0.63474100  0.24071700  0.54727400  1
  O  O6  1  0.18336000  0.29224500  0.00711900  1
  O  O7  1  0.32700300  0.80363900  0.44435000  1
  O  O8  1  0.42789400  0.56228000  0.74183200  1
  O  O9  1  0.04876900  0.95598900  0.75887200  1
  O  O10  1  0.49639900  0.46650400  0.25361800  1
  O  O11  1  0.96121400  0.03011100  0.25021200  1
loop_
_geom_bond_atom_site_label_1
_geom_bond_atom_site_label_2
_geom_bond_distance
_geom_bond_site_symmetry_2
Ca0 O11 2.229116 1_455
Ca0 O3 2.266696 1_555
Ca0 O10 2.287693 1_555
Ca0 O7 2.333319 1_545
Ca0 O6 2.612437 1_555
Ca0 O2 2.676222 1_545
Ca0 O5 2.880441 1_555
O0 Ru0 2.059110 1_655
O0 Tb0 2.159889 1_555
O0 Sr1 2.628068 1_545
O0 Sr2 2.763594 1_546
O1 Ru1 2.019258 1_555
O1 Tb1 2.274914 1_565
O1 Sr2 2.670195 1_555
O1 Sr0 2.792779 1_655
O1 Sr3 3.069090 1_655
O2 Ru0 1.982410 1_564
O2 Sr2 2.433390 1_555
O2 Sr3 2.527298 1_555
O2 Sr1 2.836994 1_554
O3 Ru1 2.131121 1_555
O3 Tb1 2.312492 1_455
O3 Sr3 2.596261 1_555
O3 Sr0 2.732877 1_555
O4 Ru0 2.181940 1_664
O4 Tb0 2.303715 1_554
O4 Sr2 2.414028 1_555
O4 Sr3 2.586557 1_655
O4 Sr0 2.634920 1_654
O5 Ru1 2.054714 1_555
O5 Tb1 2.160197 1_555
O5 Sr1 2.540729 1_545
O6 Ru0 2.036834 1_554
O6 Tb0 2.300932 1_554
O6 Sr0 2.687678 1_554
O6 Sr3 2.866223 1_555
O7 Ru1 2.056957 1_555
O7 Sr3 2.546002 1_555
O7 Sr1 2.677729 1_555
O7 Sr2 2.708873 1_555
O8 Ru1 2.000384 1_555
O8 Tb0 2.185017 1_555
O8 Sr1 2.454227 1_555
O8 Sr0 2.594588 1_555
O9 Ru0 2.003503 1_565
O9 Tb1 2.169417 1_465
O9 Sr1 2.458865 1_555
O9 Sr0 2.589600 1_555
O10 Ru1 2.084719 1_555
O10 Tb0 2.251612 1_554
O10 Sr2 2.426957 1_555
O10 Sr3 2.813957 1_555
O11 Ru0 2.100561 1_654
O11 Tb1 2.243748 1_555
O11 Sr2 2.388876 1_545
O11 Sr3 2.839928 1_645
