# generated using pymatgen
data_Nd3BeCrS7
_symmetry_space_group_name_H-M   'P 1'
_cell_length_a   9.86718955
_cell_length_b   9.86718955
_cell_length_c   6.09901327
_cell_angle_alpha   90.00000000
_cell_angle_beta   90.00000000
_cell_angle_gamma   119.99999532
_symmetry_Int_Tables_number   1
_chemical_formula_structural   Nd3BeCrS7
_chemical_formula_sum   'Nd6 Be2 Cr2 S14'
_cell_volume   514.25340143
_cell_formula_units_Z   2
loop_
 _symmetry_equiv_pos_site_id
 _symmetry_equiv_pos_as_xyz
  1  'x, y, z'
loop_
 _atom_site_type_symbol
 _atom_site_label
 _atom_site_symmetry_multiplicity
 _atom_site_fract_x
 _atom_site_fract_y
 _atom_site_fract_z
 _atom_site_occupancy
  Nd  Nd0  1  0.84631473  0.23916957  0.26983385  1
  Nd  Nd1  1  0.76083043  0.60714517  0.26983385  1
  Nd  Nd2  1  0.39285483  0.15368527  0.26983385  1
  Nd  Nd3  1  0.15368527  0.76083043  0.76983385  1
  Nd  Nd4  1  0.23916957  0.39285483  0.76983385  1
  Nd  Nd5  1  0.60714517  0.84631473  0.76983385  1
  Be  Be0  1  0.66666700  0.33333300  0.85516281  1
  Be  Be1  1  0.33333300  0.66666700  0.35516281  1
  Cr  Cr0  1  0.00000000  0.00000000  0.45254402  1
  Cr  Cr1  1  0.00000000  0.00000000  0.95254402  1
  S  S0  1  0.91150765  0.13212931  0.69622697  1
  S  S1  1  0.86787069  0.77937735  0.69622697  1
  S  S2  1  0.22062265  0.08849235  0.69622697  1
  S  S3  1  0.08849235  0.86787069  0.19622697  1
  S  S4  1  0.13212931  0.22062265  0.19622697  1
  S  S5  1  0.77937735  0.91150765  0.19622697  1
  S  S6  1  0.57995623  0.10444603  0.98395588  1
  S  S7  1  0.89555397  0.47551020  0.98395588  1
  S  S8  1  0.52448980  0.42004377  0.98395588  1
  S  S9  1  0.42004377  0.89555397  0.48395588  1
  S  S10  1  0.10444603  0.52448980  0.48395588  1
  S  S11  1  0.47551020  0.57995623  0.48395588  1
  S  S12  1  0.66666700  0.33333300  0.51022607  1
  S  S13  1  0.33333300  0.66666700  0.01022607  1
loop_
_geom_bond_atom_site_label_1
_geom_bond_atom_site_label_2
_geom_bond_distance
_geom_bond_site_symmetry_2
Nd0 S7 2.753433 1_554
Nd0 S12 2.793216 1_555
Nd0 S6 2.867211 1_554
Nd0 S4 2.950355 1_655
Nd0 S10 2.991340 1_655
Nd0 S5 2.992543 1_545
Nd0 S0 2.995287 1_555
Nd1 S8 2.753433 1_554
Nd1 S12 2.793224 1_555
Nd1 S7 2.867211 1_554
Nd1 S5 2.950364 1_555
Nd1 S11 2.991339 1_555
Nd1 S3 2.992547 1_655
Nd1 S1 2.995283 1_555
Nd2 S6 2.753433 1_554
Nd2 S12 2.793223 1_555
Nd2 S8 2.867211 1_554
Nd2 S3 2.950360 1_545
Nd2 S9 2.991339 1_545
Nd2 S4 2.992553 1_555
Nd2 S2 2.995282 1_555
Nd3 S10 2.753433 1_555
Nd3 S13 2.793216 1_556
Nd3 S9 2.867211 1_555
Nd3 S1 2.950355 1_455
Nd3 S7 2.991340 1_455
Nd3 S2 2.992543 1_565
Nd3 S3 2.995287 1_556
Nd4 S11 2.753433 1_555
Nd4 S13 2.793224 1_556
Nd4 S10 2.867211 1_555
Nd4 S2 2.950364 1_555
Nd4 S8 2.991339 1_555
Nd4 S0 2.992547 1_455
Nd4 S4 2.995283 1_556
Nd5 S9 2.753433 1_555
Nd5 S13 2.793223 1_556
Nd5 S11 2.867211 1_555
Nd5 S0 2.950360 1_565
Nd5 S6 2.991339 1_565
Nd5 S1 2.992553 1_555
Nd5 S5 2.995282 1_556
Be0 S12 2.103774 1_555
Be0 S6 2.125424 1_555
Be0 S7 2.125425 1_555
Be0 S8 2.125432 1_555
Be1 S13 2.103774 1_555
Be1 S9 2.125424 1_555
Be1 S10 2.125425 1_555
Be1 S11 2.125432 1_555
Cr0 S0 2.410277 1_455
Cr0 S1 2.410284 1_445
Cr0 S2 2.410284 1_555
Cr0 S3 2.458540 1_545
Cr0 S4 2.458546 1_555
Cr0 S5 2.458547 1_445
Cr1 S3 2.410277 1_546
Cr1 S4 2.410284 1_556
Cr1 S5 2.410284 1_446
Cr1 S0 2.458540 1_455
Cr1 S1 2.458546 1_445
Cr1 S2 2.458547 1_555
