# generated using pymatgen
data_RbMn4(AsO4)3
_symmetry_space_group_name_H-M   'P 1'
_cell_length_a   6.53612281
_cell_length_b   10.12307781
_cell_length_c   17.43371948
_cell_angle_alpha   90.00000000
_cell_angle_beta   90.00000000
_cell_angle_gamma   90.00000000
_symmetry_Int_Tables_number   1
_chemical_formula_structural   RbMn4(AsO4)3
_chemical_formula_sum   'Rb4 Mn16 As12 O48'
_cell_volume   1153.51390051
_cell_formula_units_Z   4
loop_
 _symmetry_equiv_pos_site_id
 _symmetry_equiv_pos_as_xyz
  1  'x, y, z'
loop_
 _atom_site_type_symbol
 _atom_site_label
 _atom_site_symmetry_multiplicity
 _atom_site_fract_x
 _atom_site_fract_y
 _atom_site_fract_z
 _atom_site_occupancy
  Rb  Rb0  1  0.50000000  0.19391398  0.96483739  1
  Rb  Rb1  1  0.50000000  0.80608602  0.03516261  1
  Rb  Rb2  1  -0.00000000  0.69391398  0.53516261  1
  Rb  Rb3  1  -0.00000000  0.30608602  0.46483739  1
  Mn  Mn0  1  0.75396150  0.74668855  0.29902601  1
  Mn  Mn1  1  0.75396150  0.25331145  0.70097399  1
  Mn  Mn2  1  0.74603850  0.24668855  0.20097399  1
  Mn  Mn3  1  0.74603850  0.75331145  0.79902601  1
  Mn  Mn4  1  0.24603750  0.25331145  0.70097399  1
  Mn  Mn5  1  0.24603750  0.74668855  0.29902601  1
  Mn  Mn6  1  0.25396250  0.75331145  0.79902601  1
  Mn  Mn7  1  0.25396250  0.24668855  0.20097399  1
  Mn  Mn8  1  0.50000000  0.52499909  0.64552720  1
  Mn  Mn9  1  0.50000000  0.47500091  0.35447180  1
  Mn  Mn10  1  -0.00000000  0.02499909  0.85447280  1
  Mn  Mn11  1  -0.00000000  0.97500091  0.14552720  1
  Mn  Mn12  1  0.50000000  0.96046980  0.59118858  1
  Mn  Mn13  1  0.50000000  0.03953020  0.40881142  1
  Mn  Mn14  1  -0.00000000  0.46046980  0.90881142  1
  Mn  Mn15  1  -0.00000000  0.53953020  0.09118858  1
  As  As0  1  0.50000000  0.29512466  0.53755099  1
  As  As1  1  0.50000000  0.70487534  0.46244801  1
  As  As2  1  -0.00000000  0.79512466  0.96244901  1
  As  As3  1  -0.00000000  0.20487534  0.03755199  1
  As  As4  1  0.50000000  0.04514028  0.77686255  1
  As  As5  1  0.50000000  0.95485972  0.22313645  1
  As  As6  1  -0.00000000  0.54514028  0.72313745  1
  As  As7  1  -0.00000000  0.45485972  0.27686255  1
  As  As8  1  0.50000000  0.45548468  0.83500792  1
  As  As9  1  0.50000000  0.54451532  0.16499108  1
  As  As10  1  -0.00000000  0.95548468  0.66499208  1
  As  As11  1  -0.00000000  0.04451532  0.33500892  1
  O  O0  1  0.50000000  0.12940565  0.52093510  1
  O  O1  1  0.50000000  0.87059435  0.47906490  1
  O  O2  1  -0.00000000  0.62940565  0.97906490  1
  O  O3  1  -0.00000000  0.37059435  0.02093510  1
  O  O4  1  0.71625615  0.89182739  0.18448172  1
  O  O5  1  0.71625615  0.10817261  0.81551828  1
  O  O6  1  0.78374485  0.39182739  0.31551828  1
  O  O7  1  0.78374485  0.60817261  0.68448172  1
  O  O8  1  0.28374485  0.10817261  0.81551828  1
  O  O9  1  0.28374485  0.89182739  0.18448172  1
  O  O10  1  0.21625515  0.60817261  0.68448172  1
  O  O11  1  0.21625515  0.39182739  0.31551828  1
  O  O12  1  0.70340477  0.65507960  0.40737497  1
  O  O13  1  0.70340477  0.34492040  0.59262503  1
  O  O14  1  0.79659423  0.15507960  0.09262503  1
  O  O15  1  0.79659423  0.84492040  0.90737497  1
  O  O16  1  0.29659523  0.34492040  0.59262503  1
  O  O17  1  0.29659523  0.65507960  0.40737497  1
  O  O18  1  0.20340477  0.84492040  0.90737497  1
  O  O19  1  0.70953967  0.59556918  0.11817230  1
  O  O20  1  0.50000000  0.63363128  0.54897498  1
  O  O21  1  0.50000000  0.36636872  0.45102502  1
  O  O22  1  -0.00000000  0.13363128  0.95102502  1
  O  O23  1  -0.00000000  0.86636872  0.04897498  1
  O  O24  1  0.50000000  0.38453035  0.74352783  1
  O  O25  1  0.50000000  0.61546965  0.25647217  1
  O  O26  1  -0.00000000  0.88453035  0.75647217  1
  O  O27  1  -0.00000000  0.11546965  0.24352783  1
  O  O28  1  0.50000000  0.11233011  0.68545371  1
  O  O29  1  0.50000000  0.88766989  0.31454629  1
  O  O30  1  -0.00000000  0.61233011  0.81454629  1
  O  O31  1  -0.00000000  0.38766989  0.18545471  1
  O  O32  1  -0.00000000  0.12357027  0.67707008  1
  O  O33  1  -0.00000000  0.87642973  0.32293092  1
  O  O34  1  0.50000000  0.62357027  0.82292992  1
  O  O35  1  0.50000000  0.37642973  0.17707008  1
  O  O36  1  -0.00000000  0.62215263  0.27048564  1
  O  O37  1  -0.00000000  0.37784837  0.72951536  1
  O  O38  1  0.50000000  0.12215163  0.22951536  1
  O  O39  1  0.50000000  0.87784837  0.77048464  1
  O  O40  1  0.20954067  0.09556918  0.38182770  1
  O  O41  1  0.20954067  0.90443082  0.61817330  1
  O  O42  1  0.29045933  0.59556918  0.11817230  1
  O  O43  1  0.29045933  0.40443082  0.88182670  1
  O  O44  1  0.79045933  0.90443082  0.61817330  1
  O  O45  1  0.79045933  0.09556918  0.38182770  1
  O  O46  1  0.70953967  0.40443082  0.88182670  1
  O  O47  1  0.20340477  0.15507960  0.09262503  1
loop_
_geom_bond_atom_site_label_1
_geom_bond_atom_site_label_2
_geom_bond_distance
_geom_bond_site_symmetry_2
Mn0 O36 2.103095 1_655
Mn0 O33 2.117724 1_655
Mn0 O12 2.130079 1_555
Mn0 O29 2.205756 1_555
Mn0 O25 2.251712 1_555
Mn0 O4 2.491421 1_555
Mn1 O37 2.103105 1_655
Mn1 O32 2.117721 1_655
Mn1 O13 2.130079 1_555
Mn1 O28 2.205756 1_555
Mn1 O24 2.251712 1_555
Mn1 O5 2.491421 1_555
Mn2 O38 2.103105 1_555
Mn2 O35 2.117721 1_555
Mn2 O14 2.130078 1_555
Mn2 O31 2.205753 1_655
Mn2 O27 2.251712 1_655
Mn2 O6 2.491422 1_555
Mn3 O39 2.103105 1_555
Mn3 O34 2.117721 1_555
Mn3 O15 2.130078 1_555
Mn3 O30 2.205756 1_655
Mn3 O26 2.251712 1_655
Mn3 O7 2.491422 1_555
Mn4 O37 2.103100 1_555
Mn4 O32 2.117716 1_555
Mn4 O16 2.130080 1_555
Mn4 O28 2.205761 1_555
Mn4 O24 2.251716 1_555
Mn4 O8 2.491422 1_555
Mn5 O36 2.103090 1_555
Mn5 O33 2.117719 1_555
Mn5 O17 2.130080 1_555
Mn5 O29 2.205761 1_555
Mn5 O25 2.251716 1_555
Mn5 O9 2.491422 1_555
Mn6 O39 2.103100 1_555
Mn6 O34 2.117716 1_555
Mn6 O18 2.130080 1_555
Mn6 O30 2.205761 1_555
Mn6 O26 2.251716 1_555
Mn6 O10 2.491422 1_555
Mn7 O38 2.103100 1_555
Mn7 O35 2.117716 1_555
Mn7 O47 2.130080 1_555
Mn7 O31 2.205758 1_555
Mn7 O27 2.251716 1_555
Mn7 O11 2.491422 1_555
Mn8 O20 2.010647 1_555
Mn8 O10 2.147005 1_555
Mn8 O7 2.147005 1_555
Mn8 O24 2.222845 1_555
Mn8 O16 2.437471 1_555
Mn8 O13 2.437471 1_555
Mn9 O21 2.010662 1_555
Mn9 O11 2.147000 1_555
Mn9 O6 2.147000 1_555
Mn9 O25 2.222832 1_555
Mn9 O12 2.437478 1_555
Mn9 O17 2.437478 1_555
Mn10 O22 2.010647 1_555
Mn10 O5 2.147000 1_455
Mn10 O8 2.147005 1_555
Mn10 O26 2.222845 1_545
Mn10 O18 2.437471 1_545
Mn10 O15 2.437475 1_445
Mn11 O23 2.010647 1_555
Mn11 O4 2.147000 1_455
Mn11 O9 2.147005 1_555
Mn11 O27 2.222845 1_565
Mn11 O47 2.437471 1_565
Mn11 O14 2.437475 1_465
Mn12 O44 2.036504 1_555
Mn12 O41 2.036504 1_555
Mn12 O0 2.103497 1_565
Mn12 O1 2.156095 1_555
Mn12 O28 2.250335 1_565
Mn13 O40 2.036500 1_555
Mn13 O45 2.036500 1_555
Mn13 O1 2.103497 1_545
Mn13 O0 2.156095 1_555
Mn13 O29 2.250335 1_545
Mn14 O43 2.036504 1_555
Mn14 O46 2.036511 1_455
Mn14 O2 2.103497 1_555
Mn14 O3 2.156095 1_556
Mn14 O30 2.250335 1_555
Mn15 O42 2.036500 1_555
Mn15 O19 2.036506 1_455
Mn15 O3 2.103497 1_555
Mn15 O2 2.156095 1_554
Mn15 O31 2.250348 1_555
As0 O21 1.672012 1_555
As0 O0 1.702413 1_555
As0 O13 1.715662 1_555
As0 O16 1.715662 1_555
As1 O20 1.672027 1_555
As1 O1 1.702416 1_555
As1 O12 1.715652 1_555
As1 O17 1.715652 1_555
As2 O23 1.672012 1_556
As2 O2 1.702413 1_555
As2 O18 1.715662 1_555
As2 O15 1.715667 1_455
As3 O22 1.672027 1_554
As3 O3 1.702416 1_555
As3 O47 1.715652 1_555
As3 O14 1.715657 1_455
As4 O8 1.690918 1_555
As4 O5 1.690924 1_555
As4 O39 1.697155 1_545
As4 O28 1.732679 1_555
As5 O9 1.690911 1_555
As5 O4 1.690917 1_555
As5 O38 1.697156 1_565
As5 O29 1.732695 1_555
As6 O7 1.690918 1_455
As6 O10 1.690918 1_555
As6 O37 1.697155 1_555
As6 O30 1.732679 1_555
As7 O6 1.690918 1_455
As7 O11 1.690918 1_555
As7 O36 1.697164 1_555
As7 O31 1.732663 1_555
As8 O46 1.676028 1_555
As8 O43 1.676034 1_555
As8 O34 1.714523 1_555
As8 O24 1.749123 1_555
As9 O19 1.676028 1_555
As9 O42 1.676034 1_555
As9 O35 1.714525 1_555
As9 O25 1.749138 1_555
As10 O44 1.676034 1_455
As10 O41 1.676034 1_555
As10 O32 1.714523 1_565
As10 O26 1.749123 1_555
As11 O45 1.676034 1_455
As11 O40 1.676034 1_555
As11 O33 1.714523 1_545
As11 O27 1.749138 1_555
O4 Rb1 3.086724 1_555
O5 Rb0 3.086724 1_555
O6 Rb3 3.086721 1_655
O7 Rb2 3.086721 1_655
O8 Rb0 3.086721 1_555
O9 Rb1 3.086721 1_555
O10 Rb2 3.086721 1_555
O11 Rb3 3.086721 1_555
O12 Rb2 2.979229 1_655
O13 Rb3 2.979229 1_655
O14 Rb0 2.979225 1_554
O15 Rb1 2.979225 1_556
O16 Rb3 2.979229 1_555
O17 Rb2 2.979229 1_555
O18 Rb1 2.979229 1_556
O19 Rb1 2.917453 1_555
O20 Rb2 3.333258 1_655
O20 Rb2 3.333258 1_555
O21 Rb3 3.333258 1_655
O21 Rb3 3.333258 1_555
O22 Rb0 3.333258 1_455
O22 Rb0 3.333258 1_555
O23 Rb1 3.333258 1_455
O23 Rb1 3.333258 1_555
O40 Rb3 2.917456 1_555
O41 Rb2 2.917464 1_555
O42 Rb1 2.917456 1_555
O43 Rb0 2.917464 1_555
O44 Rb2 2.917464 1_655
O45 Rb3 2.917456 1_655
O46 Rb0 2.917461 1_555
O47 Rb0 2.979229 1_554
