# generated using pymatgen
data_LiYbAlF6
_symmetry_space_group_name_H-M   'P 1'
_cell_length_a   5.04574221
_cell_length_b   5.04574221
_cell_length_c   9.57720700
_cell_angle_alpha   90.00000000
_cell_angle_beta   90.00000000
_cell_angle_gamma   120.00000281
_symmetry_Int_Tables_number   1
_chemical_formula_structural   LiYbAlF6
_chemical_formula_sum   'Li2 Yb2 Al2 F12'
_cell_volume   211.16386924
_cell_formula_units_Z   2
loop_
 _symmetry_equiv_pos_site_id
 _symmetry_equiv_pos_as_xyz
  1  'x, y, z'
loop_
 _atom_site_type_symbol
 _atom_site_label
 _atom_site_symmetry_multiplicity
 _atom_site_fract_x
 _atom_site_fract_y
 _atom_site_fract_z
 _atom_site_occupancy
  Li  Li0  1  0.66666700  0.33333300  0.75000000  1
  Li  Li1  1  0.33333300  0.66666700  0.25000000  1
  Yb  Yb0  1  0.00000000  0.00000000  0.50000000  1
  Yb  Yb1  1  0.00000000  0.00000000  0.00000000  1
  Al  Al0  1  0.33333300  0.66666700  0.75000000  1
  Al  Al1  1  0.66666700  0.33333300  0.25000000  1
  F  F0  1  0.34150500  0.37239700  0.85877300  1
  F  F1  1  0.62760300  0.96910800  0.85877300  1
  F  F2  1  0.65849500  0.03089200  0.35877300  1
  F  F3  1  0.96910800  0.62760300  0.35877300  1
  F  F4  1  0.37239700  0.34150500  0.35877300  1
  F  F5  1  0.96910800  0.34150500  0.14122700  1
  F  F6  1  0.37239700  0.03089200  0.14122700  1
  F  F7  1  0.65849500  0.62760300  0.14122700  1
  F  F8  1  0.34150500  0.96910800  0.64122700  1
  F  F9  1  0.03089200  0.37239700  0.64122700  1
  F  F10  1  0.62760300  0.65849500  0.64122700  1
  F  F11  1  0.03089200  0.65849500  0.85877300  1
loop_
_geom_bond_atom_site_label_1
_geom_bond_atom_site_label_2
_geom_bond_distance
_geom_bond_site_symmetry_2
Al0 F8 1.831065 1_555
Al0 F11 1.831065 1_555
Al0 F9 1.831066 1_555
Al0 F1 1.831066 1_555
Al0 F0 1.831069 1_555
Al0 F10 1.831069 1_555
Al1 F5 1.831065 1_555
Al1 F2 1.831065 1_555
Al1 F6 1.831066 1_555
Al1 F3 1.831066 1_555
Al1 F4 1.831069 1_555
Al1 F7 1.831069 1_555
F0 Li0 2.034529 1_555
F0 Yb1 2.256444 1_556
F1 Li0 2.034525 1_565
F1 Yb1 2.256444 1_666
F2 Li1 2.034527 1_545
F2 Yb0 2.256444 1_655
F3 Li1 2.034525 1_655
F3 Yb0 2.256444 1_665
F4 Li1 2.034529 1_555
F4 Yb0 2.256444 1_555
F5 Li1 2.034527 1_655
F5 Yb1 2.256444 1_655
F6 Li1 2.034525 1_545
F6 Yb1 2.256444 1_555
F7 Li1 2.034529 1_555
F7 Yb1 2.256444 1_665
F8 Li0 2.034527 1_565
F8 Yb0 2.256444 1_565
F9 Li0 2.034525 1_455
F9 Yb0 2.256444 1_555
F10 Li0 2.034529 1_555
F10 Yb0 2.256444 1_665
F11 Li0 2.034527 1_455
F11 Yb1 2.256444 1_566
