# generated using pymatgen
data_NaSbWO7
_symmetry_space_group_name_H-M   'P 1'
_cell_length_a   7.38234215
_cell_length_b   7.38234215
_cell_length_c   7.38234215
_cell_angle_alpha   120.51971955
_cell_angle_beta   118.90903547
_cell_angle_gamma   90.50103978
_symmetry_Int_Tables_number   1
_chemical_formula_structural   NaSbWO7
_chemical_formula_sum   'Na2 Sb2 W2 O14'
_cell_volume   285.63689081
_cell_formula_units_Z   2
loop_
 _symmetry_equiv_pos_site_id
 _symmetry_equiv_pos_as_xyz
  1  'x, y, z'
loop_
 _atom_site_type_symbol
 _atom_site_label
 _atom_site_symmetry_multiplicity
 _atom_site_fract_x
 _atom_site_fract_y
 _atom_site_fract_z
 _atom_site_occupancy
  Na  Na0  1  0.50000000  0.50000000  0.00000000  1
  Na  Na1  1  0.00000000  0.50000000  0.50000000  1
  Sb  Sb0  1  0.00000000  0.00000000  0.50000000  1
  Sb  Sb1  1  0.00000000  0.50000000  0.00000000  1
  W  W0  1  0.00000000  0.00000000  0.00000000  1
  W  W1  1  0.50000000  0.00000000  0.50000000  1
  O  O0  1  0.61644800  0.36644800  0.25000000  1
  O  O1  1  0.38355200  0.63355200  0.75000000  1
  O  O2  1  0.93849200  0.68863000  0.87085100  1
  O  O3  1  0.93849200  0.06764000  0.24986200  1
  O  O4  1  0.30698000  0.05698000  0.25000000  1
  O  O5  1  0.31777900  0.06764000  0.62914900  1
  O  O6  1  0.31777900  0.68863000  0.25013800  1
  O  O7  1  0.92076500  0.67076500  0.25000000  1
  O  O8  1  0.06150800  0.31137000  0.12914900  1
  O  O9  1  0.06150800  0.93236000  0.75013800  1
  O  O10  1  0.69302000  0.94302000  0.75000000  1
  O  O11  1  0.68222100  0.93236000  0.37085100  1
  O  O12  1  0.68222100  0.31137000  0.74986200  1
  O  O13  1  0.07923500  0.32923500  0.75000000  1
loop_
_geom_bond_atom_site_label_1
_geom_bond_atom_site_label_2
_geom_bond_distance
_geom_bond_site_symmetry_2
Na0 O1 2.333717 1_554
Na0 O0 2.333717 1_555
Na0 O7 2.582594 1_555
Na0 O13 2.582594 1_554
Na0 O6 2.642240 1_555
Na0 O12 2.642240 1_554
Na0 O11 2.642245 1_555
Na0 O5 2.642245 1_554
Na1 O1 2.333717 1_555
Na1 O0 2.333717 1_455
Na1 O7 2.582594 1_455
Na1 O13 2.582594 1_555
Na1 O2 2.642240 1_455
Na1 O8 2.642240 1_555
Na1 O3 2.642246 1_455
Na1 O9 2.642246 1_555
O2 W0 1.932926 1_666
O2 Sb1 1.998826 1_656
O3 W0 1.932928 1_655
O3 Sb0 1.998820 1_655
O4 W1 1.967212 1_555
O4 W0 1.967212 1_555
O5 W1 1.932926 1_555
O5 Sb0 1.998826 1_555
O6 W1 1.932926 1_565
O6 Sb1 1.998826 1_555
O7 Sb0 2.007769 1_665
O7 Sb1 2.007769 1_655
O8 W0 1.932926 1_555
O8 Sb1 1.998826 1_555
O9 W0 1.932928 1_566
O9 Sb0 1.998820 1_565
O10 W0 1.967212 1_666
O10 W1 1.967212 1_565
O11 W1 1.932926 1_565
O11 Sb0 1.998826 1_665
O12 W1 1.932926 1_555
O12 Sb1 1.998826 1_656
O13 Sb1 2.007769 1_556
O13 Sb0 2.007769 1_555
