# generated using pymatgen
data_YbBO3
_symmetry_space_group_name_H-M   'P 1'
_cell_length_a   4.93263599
_cell_length_b   4.91961615
_cell_length_c   7.91112000
_cell_angle_alpha   90.00000000
_cell_angle_beta   90.00000000
_cell_angle_gamma   136.86615860
_symmetry_Int_Tables_number   1
_chemical_formula_structural   YbBO3
_chemical_formula_sum   'Yb2 B2 O6'
_cell_volume   131.25533479
_cell_formula_units_Z   2
loop_
 _symmetry_equiv_pos_site_id
 _symmetry_equiv_pos_as_xyz
  1  'x, y, z'
loop_
 _atom_site_type_symbol
 _atom_site_label
 _atom_site_symmetry_multiplicity
 _atom_site_fract_x
 _atom_site_fract_y
 _atom_site_fract_z
 _atom_site_occupancy
  Yb  Yb0  1  0.02241200  0.02198100  0.00006200  1
  Yb  Yb1  1  0.02241200  0.02198100  0.49993800  1
  B  B0  1  0.29767400  0.74844000  0.75000000  1
  B  B1  1  0.75381900  0.30326800  0.25000000  1
  O  O0  1  0.14772200  0.89213900  0.75000000  1
  O  O1  1  0.38507100  0.66377800  0.60650800  1
  O  O2  1  0.38507100  0.66377800  0.89349200  1
  O  O3  1  0.66208200  0.38307600  0.10641100  1
  O  O4  1  0.66208200  0.38307600  0.39358900  1
  O  O5  1  0.91165600  0.16748200  0.25000000  1
loop_
_geom_bond_atom_site_label_1
_geom_bond_atom_site_label_2
_geom_bond_distance
_geom_bond_site_symmetry_2
B0 O0 1.345378 1_555
B0 O1 1.382036 1_555
B0 O2 1.382036 1_555
B1 O5 1.345905 1_555
B1 O4 1.381522 1_555
B1 O3 1.381522 1_555
O0 Yb1 2.297805 1_565
O0 Yb0 2.297805 1_566
O1 Yb1 2.369338 1_665
O1 Yb1 2.374111 1_555
O2 Yb0 2.369338 1_666
O2 Yb0 2.374111 1_556
O3 Yb0 2.364888 1_665
O3 Yb0 2.374545 1_555
O4 Yb1 2.364888 1_665
O4 Yb1 2.374545 1_555
O5 Yb1 2.300278 1_655
O5 Yb0 2.300278 1_655
