# generated using pymatgen
data_CaTiFe5O8
_symmetry_space_group_name_H-M   'P 1'
_cell_length_a   6.66530188
_cell_length_b   6.32272898
_cell_length_c   6.13203064
_cell_angle_alpha   88.57251224
_cell_angle_beta   59.44620297
_cell_angle_gamma   118.48076929
_symmetry_Int_Tables_number   1
_chemical_formula_structural   CaTiFe5O8
_chemical_formula_sum   'Ca1 Ti1 Fe5 O8'
_cell_volume   183.00290024
_cell_formula_units_Z   1
loop_
 _symmetry_equiv_pos_site_id
 _symmetry_equiv_pos_as_xyz
  1  'x, y, z'
loop_
 _atom_site_type_symbol
 _atom_site_label
 _atom_site_symmetry_multiplicity
 _atom_site_fract_x
 _atom_site_fract_y
 _atom_site_fract_z
 _atom_site_occupancy
  Ca  Ca0  1  0.00000000  0.00000000  0.00000000  1
  Ti  Ti0  1  0.50000000  0.00000000  0.50000000  1
  Fe  Fe0  1  0.29166000  0.02381200  0.21728500  1
  Fe  Fe1  1  0.70834000  0.97618800  0.78271500  1
  Fe  Fe2  1  0.50000000  0.50000000  0.50000000  1
  Fe  Fe3  1  0.00000000  0.50000000  0.00000000  1
  Fe  Fe4  1  0.00000000  0.50000000  0.50000000  1
  O  O0  1  0.96028500  0.70605100  0.28499100  1
  O  O1  1  0.91183900  0.20110700  0.31772800  1
  O  O2  1  0.48275600  0.16900700  0.77747400  1
  O  O3  1  0.56001200  0.28990700  0.26714600  1
  O  O4  1  0.03971500  0.29394900  0.71500900  1
  O  O5  1  0.08816100  0.79889300  0.68227200  1
  O  O6  1  0.51724400  0.83099300  0.22252600  1
  O  O7  1  0.43998800  0.71009300  0.73285400  1
loop_
_geom_bond_atom_site_label_1
_geom_bond_atom_site_label_2
_geom_bond_distance
_geom_bond_site_symmetry_2
Ca0 O1 2.330263 1_455
Ca0 O5 2.330263 1_544
Ca0 O4 2.340290 1_554
Ca0 O0 2.340290 1_445
Ca0 O2 2.354057 1_554
Ca0 O6 2.354057 1_445
Fe0 O3 1.958303 1_555
Fe0 O0 1.970086 1_445
Fe0 O2 2.237757 1_554
Fe0 O6 2.354474 1_545
Fe0 O5 2.453246 1_545
Fe1 O7 1.958303 1_555
Fe1 O4 1.970086 1_665
Fe1 O6 2.237757 1_556
Fe1 O2 2.354474 1_565
Fe1 O1 2.453246 1_565
Fe2 O7 1.995977 1_555
Fe2 O3 1.995977 1_555
Fe2 O0 2.199512 1_555
Fe2 O4 2.199512 1_555
Fe2 O2 2.585018 1_555
Fe2 O6 2.585018 1_555
Fe3 O7 2.083368 1_554
Fe3 O3 2.083368 1_455
Fe3 O0 2.189385 1_455
Fe3 O4 2.189385 1_554
Fe3 O5 2.303501 1_554
Fe3 O1 2.303501 1_455
Fe4 O0 2.025790 1_455
Fe4 O4 2.025790 1_555
Fe4 O5 2.209035 1_555
Fe4 O1 2.209035 1_455
Fe4 O6 2.477518 1_555
Fe4 O2 2.477518 1_455
O1 Ti0 1.970332 1_555
O2 Ti0 2.014699 1_555
O3 Ti0 2.036751 1_555
O5 Ti0 1.970332 1_565
O6 Ti0 2.014699 1_565
O7 Ti0 2.036751 1_565
