# generated using pymatgen
data_Sr3NbCoO7
_symmetry_space_group_name_H-M   'P 1'
_cell_length_a   7.95339000
_cell_length_b   11.09965566
_cell_length_c   8.89943864
_cell_angle_alpha   85.39511379
_cell_angle_beta   116.54039297
_cell_angle_gamma   79.67994891
_symmetry_Int_Tables_number   1
_chemical_formula_structural   Sr3NbCoO7
_chemical_formula_sum   'Sr12 Nb4 Co4 O28'
_cell_volume   679.90998342
_cell_formula_units_Z   4
loop_
 _symmetry_equiv_pos_site_id
 _symmetry_equiv_pos_as_xyz
  1  'x, y, z'
loop_
 _atom_site_type_symbol
 _atom_site_label
 _atom_site_symmetry_multiplicity
 _atom_site_fract_x
 _atom_site_fract_y
 _atom_site_fract_z
 _atom_site_occupancy
  Sr  Sr0  1  0.23126300  0.38427200  0.15487100  1
  Sr  Sr1  1  0.73157500  0.38249900  0.15361300  1
  Sr  Sr2  1  0.98165600  0.38265800  0.65483300  1
  Sr  Sr3  1  0.48039700  0.38416600  0.65321000  1
  Sr  Sr4  1  0.76142200  0.63443200  0.84116400  1
  Sr  Sr5  1  0.26148200  0.63479800  0.84045900  1
  Sr  Sr6  1  0.51319900  0.63310100  0.34217400  1
  Sr  Sr7  1  0.01210200  0.63299000  0.34223100  1
  Sr  Sr8  1  0.63966800  0.96041700  0.76111800  1
  Sr  Sr9  1  0.13912700  0.96096500  0.75912300  1
  Sr  Sr10  1  0.39437600  0.96108500  0.25983200  1
  Sr  Sr11  1  0.88382300  0.96050300  0.25891000  1
  Nb  Nb0  1  0.92663000  0.19578300  0.95152600  1
  Nb  Nb1  1  0.42616100  0.19632300  0.95049200  1
  Nb  Nb2  1  0.67661300  0.19574100  0.45122200  1
  Nb  Nb3  1  0.17623700  0.19556400  0.45042500  1
  Co  Co0  1  0.08042900  0.78876400  0.05469700  1
  Co  Co1  1  0.82844200  0.78533200  0.55043900  1
  Co  Co2  1  0.58176700  0.78451100  0.05678700  1
  Co  Co3  1  0.32789800  0.78945800  0.55062500  1
  O  O0  1  0.99532400  0.01691300  0.00179900  1
  O  O1  1  0.49494800  0.01744000  0.99541000  1
  O  O2  1  0.74245300  0.01698900  0.49477900  1
  O  O3  1  0.24223300  0.01665800  0.49088200  1
  O  O4  1  0.15525900  0.60492400  0.10898600  1
  O  O5  1  0.64622200  0.60114800  0.09163200  1
  O  O6  1  0.90330700  0.60160200  0.60672300  1
  O  O7  1  0.39370800  0.60496800  0.59016700  1
  O  O8  1  0.85328000  0.39220000  0.90116100  1
  O  O9  1  0.35240900  0.39208200  0.90132500  1
  O  O10  1  0.60469200  0.39153800  0.40271100  1
  O  O11  1  0.10297300  0.39194000  0.40300600  1
  O  O12  1  0.95557300  0.80908100  0.81568600  1
  O  O13  1  0.43726300  0.80874200  0.78014700  1
  O  O14  1  0.69838100  0.80119600  0.29946000  1
  O  O15  1  0.19699000  0.80953300  0.29800700  1
  O  O16  1  0.81150900  0.80523300  0.04843900  1
  O  O17  1  0.33342100  0.80700200  0.04722100  1
  O  O18  1  0.58451200  0.80639200  0.54973100  1
  O  O19  1  0.06066400  0.80679300  0.54836100  1
  O  O20  1  0.04679400  0.20984600  0.19764400  1
  O  O21  1  0.54739900  0.20626400  0.19832900  1
  O  O22  1  0.79851100  0.20502700  0.69920500  1
  O  O23  1  0.29768300  0.20567400  0.69804800  1
  O  O24  1  0.17259300  0.20626600  0.94834200  1
  O  O25  1  0.67209000  0.20778100  0.94770700  1
  O  O26  1  0.92317600  0.20576900  0.44889300  1
  O  O27  1  0.42235900  0.20763200  0.44845000  1
loop_
_geom_bond_atom_site_label_1
_geom_bond_atom_site_label_2
_geom_bond_distance
_geom_bond_site_symmetry_2
Nb0 O0 1.921130 1_556
Nb0 O25 1.989598 1_555
Nb0 O24 1.992932 1_655
Nb0 O22 1.992968 1_555
Nb0 O20 1.993205 1_656
Nb0 O8 2.109041 1_555
Nb1 O1 1.920777 1_555
Nb1 O24 1.991270 1_555
Nb1 O25 1.993628 1_555
Nb1 O23 1.993790 1_555
Nb1 O21 1.995814 1_556
Nb1 O9 2.101940 1_555
Nb2 O2 1.919354 1_555
Nb2 O27 1.991611 1_555
Nb2 O26 1.993124 1_555
Nb2 O22 1.995310 1_555
Nb2 O21 1.995704 1_555
Nb2 O10 2.102373 1_555
Nb3 O3 1.921296 1_555
Nb3 O26 1.989345 1_455
Nb3 O20 1.990055 1_555
Nb3 O27 1.993588 1_555
Nb3 O23 1.994546 1_555
Nb3 O11 2.108607 1_555
Co0 O12 1.875231 1_454
Co0 O4 1.975127 1_555
Co0 O15 1.990983 1_555
Co0 O17 2.087474 1_555
Co0 O16 2.088761 1_455
Co0 O0 2.449973 1_465
Co1 O18 1.909164 1_555
Co1 O19 1.912007 1_655
Co1 O14 1.974009 1_555
Co1 O6 1.974517 1_555
Co1 O12 2.174046 1_555
Co1 O2 2.487452 1_565
Co2 O17 1.908036 1_555
Co2 O16 1.914768 1_555
Co2 O5 1.970796 1_555
Co2 O14 1.973413 1_555
Co2 O13 2.169953 1_554
Co2 O1 2.501230 1_564
Co3 O13 1.877186 1_555
Co3 O7 1.981626 1_555
Co3 O15 1.983065 1_555
Co3 O18 2.086287 1_555
Co3 O19 2.090312 1_555
Co3 O3 2.439660 1_565
O0 Sr11 2.862926 1_545
O0 Sr10 2.878199 1_645
O0 Sr8 2.901583 1_544
O0 Sr9 2.919971 1_644
O1 Sr11 2.836283 1_546
O1 Sr8 2.858068 1_545
O1 Sr10 2.862470 1_546
O1 Sr9 2.890114 1_545
O2 Sr10 2.841097 1_545
O2 Sr11 2.851571 1_545
O2 Sr9 2.881653 1_645
O2 Sr8 2.890900 1_545
O3 Sr10 2.869233 1_545
O3 Sr11 2.891426 1_445
O3 Sr8 2.902331 1_545
O3 Sr9 2.906442 1_545
O4 Sr0 2.370426 1_555
O4 Sr6 2.766321 1_555
O4 Sr7 2.791233 1_555
O4 Sr5 2.883040 1_554
O4 Sr4 2.904292 1_454
O5 Sr1 2.348447 1_555
O5 Sr4 2.785442 1_554
O5 Sr5 2.800612 1_554
O5 Sr7 2.874382 1_655
O5 Sr6 2.883964 1_555
O6 Sr2 2.351473 1_555
O6 Sr5 2.789522 1_655
O6 Sr4 2.799652 1_555
O6 Sr7 2.864805 1_655
O6 Sr6 2.871060 1_555
O7 Sr3 2.371663 1_555
O7 Sr6 2.782372 1_555
O7 Sr7 2.782775 1_555
O7 Sr5 2.874753 1_555
O7 Sr4 2.876043 1_555
O8 Sr4 2.600960 1_555
O8 Sr2 2.803239 1_555
O8 Sr1 2.817460 1_556
O8 Sr3 2.819672 1_555
O8 Sr0 2.819694 1_656
O9 Sr5 2.606134 1_555
O9 Sr2 2.807996 1_455
O9 Sr3 2.815551 1_555
O9 Sr1 2.818235 1_556
O9 Sr0 2.822894 1_556
O10 Sr6 2.593761 1_555
O10 Sr2 2.807112 1_555
O10 Sr3 2.814762 1_555
O10 Sr1 2.818057 1_555
O10 Sr0 2.820037 1_555
O11 Sr7 2.588249 1_555
O11 Sr3 2.807034 1_555
O11 Sr2 2.809844 1_455
O11 Sr0 2.817338 1_555
O11 Sr1 2.819890 1_455
O12 Sr9 2.574690 1_655
O12 Sr8 2.576177 1_555
O12 Sr5 2.734263 1_655
O12 Sr4 2.740187 1_555
O13 Sr8 2.573586 1_555
O13 Sr9 2.574816 1_555
O13 Sr5 2.727938 1_555
O13 Sr4 2.734618 1_555
O14 Sr10 2.592318 1_555
O14 Sr11 2.596125 1_555
O14 Sr6 2.676928 1_555
O14 Sr7 2.687836 1_655
O15 Sr10 2.596293 1_555
O15 Sr11 2.601796 1_455
O15 Sr6 2.746423 1_555
O15 Sr7 2.753709 1_555
O16 Sr8 2.588315 1_554
O16 Sr11 2.592337 1_555
O16 Sr4 2.707576 1_554
O16 Sr7 2.722735 1_655
O17 Sr9 2.586822 1_554
O17 Sr10 2.595590 1_555
O17 Sr5 2.717057 1_554
O17 Sr6 2.739335 1_555
O18 Sr8 2.588803 1_555
O18 Sr10 2.600568 1_555
O18 Sr4 2.707633 1_555
O18 Sr6 2.731021 1_555
O19 Sr9 2.586102 1_555
O19 Sr11 2.592564 1_455
O19 Sr5 2.711704 1_555
O19 Sr7 2.727272 1_555
O20 Sr1 2.718735 1_455
O20 Sr0 2.728423 1_555
O21 Sr1 2.748305 1_555
O21 Sr0 2.757490 1_555
O22 Sr2 2.753739 1_555
O22 Sr3 2.768367 1_555
O23 Sr2 2.751424 1_455
O23 Sr3 2.760249 1_555
O24 Sr2 2.744276 1_455
O24 Sr0 2.765276 1_556
O25 Sr1 2.732619 1_556
O25 Sr3 2.749933 1_555
O26 Sr2 2.751995 1_555
O26 Sr1 2.756506 1_555
O27 Sr3 2.742057 1_555
O27 Sr0 2.746161 1_555
