# generated using pymatgen
data_MgNi(GeO3)2
_symmetry_space_group_name_H-M   'P 1'
_cell_length_a   5.22476401
_cell_length_b   9.72615867
_cell_length_c   9.00858364
_cell_angle_alpha   89.99876394
_cell_angle_beta   89.99776452
_cell_angle_gamma   78.92447594
_symmetry_Int_Tables_number   1
_chemical_formula_structural   MgNi(GeO3)2
_chemical_formula_sum   'Mg4 Ni4 Ge8 O24'
_cell_volume   449.26175912
_cell_formula_units_Z   4
loop_
 _symmetry_equiv_pos_site_id
 _symmetry_equiv_pos_as_xyz
  1  'x, y, z'
loop_
 _atom_site_type_symbol
 _atom_site_label
 _atom_site_symmetry_multiplicity
 _atom_site_fract_x
 _atom_site_fract_y
 _atom_site_fract_z
 _atom_site_occupancy
  Mg  Mg0  1  0.74998300  0.50000600  0.23153600  1
  Mg  Mg1  1  0.74999300  0.00001600  0.73152400  1
  Mg  Mg2  1  0.25002100  0.49999300  0.76846200  1
  Mg  Mg3  1  0.25000400  0.99998400  0.26847700  1
  Ni  Ni0  1  0.75000800  0.99999900  0.09199700  1
  Ni  Ni1  1  0.24999100  0.99999900  0.90800600  1
  Ni  Ni2  1  0.75000200  0.50000000  0.59201600  1
  Ni  Ni3  1  0.24999400  0.50000100  0.40799200  1
  Ge  Ge0  1  0.79039300  0.30002100  0.90505200  1
  Ge  Ge1  1  0.79041700  0.80005000  0.40502500  1
  Ge  Ge2  1  0.70959700  0.69999400  0.90502300  1
  Ge  Ge3  1  0.70958300  0.19995100  0.40501000  1
  Ge  Ge4  1  0.20961200  0.69997900  0.09496100  1
  Ge  Ge5  1  0.20960300  0.19994400  0.59497300  1
  Ge  Ge6  1  0.29041100  0.30000200  0.09498700  1
  Ge  Ge7  1  0.29038800  0.80005600  0.59498200  1
  O  O0  1  0.59717600  0.36094100  0.06996700  1
  O  O1  1  0.59721500  0.86098700  0.56993100  1
  O  O2  1  0.90278400  0.63906600  0.06993600  1
  O  O3  1  0.90276800  0.13902200  0.56992300  1
  O  O4  1  0.40283500  0.63905500  0.93004000  1
  O  O5  1  0.40280900  0.13901100  0.43005500  1
  O  O6  1  0.09722500  0.36093800  0.93007100  1
  O  O7  1  0.09719700  0.86098700  0.43006000  1
  O  O8  1  0.11743800  0.38253300  0.24420400  1
  O  O9  1  0.11745600  0.88258100  0.74417900  1
  O  O10  1  0.38249900  0.61745000  0.24417400  1
  O  O11  1  0.38249200  0.11742500  0.74417200  1
  O  O12  1  0.88256600  0.61746200  0.75580700  1
  O  O13  1  0.88255800  0.11744900  0.25579700  1
  O  O14  1  0.61750100  0.38255500  0.75583800  1
  O  O15  1  0.61748200  0.88254600  0.25580700  1
  O  O16  1  0.86906200  0.11512700  0.90929100  1
  O  O17  1  0.86900400  0.61513700  0.40927800  1
  O  O18  1  0.63094400  0.88489100  0.90925800  1
  O  O19  1  0.63096900  0.38486500  0.40925900  1
  O  O20  1  0.13094200  0.88487000  0.09071500  1
  O  O21  1  0.13097200  0.38485600  0.59072500  1
  O  O22  1  0.36905500  0.11510600  0.09074700  1
  O  O23  1  0.36904900  0.61514500  0.59074200  1
loop_
_geom_bond_atom_site_label_1
_geom_bond_atom_site_label_2
_geom_bond_distance
_geom_bond_site_symmetry_2
Mg0 O10 2.039995 1_555
Mg0 O8 2.039996 1_655
Mg0 O19 2.114589 1_555
Mg0 O17 2.114750 1_555
Mg0 O0 2.236162 1_555
Mg0 O2 2.236218 1_555
Mg1 O9 2.039885 1_645
Mg1 O11 2.039945 1_555
Mg1 O18 2.114645 1_545
Mg1 O16 2.114905 1_555
Mg1 O3 2.235806 1_555
Mg1 O1 2.235995 1_545
Mg2 O14 2.039949 1_555
Mg2 O12 2.039975 1_455
Mg2 O23 2.114660 1_555
Mg2 O21 2.114808 1_555
Mg2 O4 2.236213 1_555
Mg2 O6 2.236225 1_555
Mg3 O13 2.039934 1_465
Mg3 O15 2.039963 1_555
Mg3 O22 2.114605 1_565
Mg3 O20 2.114874 1_555
Mg3 O7 2.235720 1_555
Mg3 O5 2.235961 1_565
Ni0 O15 2.065399 1_555
Ni0 O13 2.065446 1_565
Ni0 O20 2.087821 1_655
Ni0 O22 2.087829 1_565
Ni0 O16 2.148784 1_564
Ni0 O18 2.148995 1_554
Ni1 O11 2.065334 1_565
Ni1 O9 2.065393 1_555
Ni1 O16 2.087795 1_465
Ni1 O18 2.087832 1_555
Ni1 O20 2.148801 1_556
Ni1 O22 2.149003 1_566
Ni2 O14 2.065371 1_555
Ni2 O12 2.065492 1_555
Ni2 O23 2.087960 1_555
Ni2 O21 2.088033 1_655
Ni2 O17 2.148950 1_555
Ni2 O19 2.149207 1_555
Ni3 O10 2.065378 1_555
Ni3 O8 2.065491 1_555
Ni3 O19 2.088027 1_555
Ni3 O17 2.088094 1_455
Ni3 O21 2.149001 1_555
Ni3 O23 2.149254 1_555
Ge0 O14 1.728791 1_555
Ge0 O16 1.766444 1_555
Ge0 O6 1.826695 1_655
Ge0 O0 1.829606 1_556
Ge1 O15 1.728782 1_555
Ge1 O17 1.766611 1_555
Ge1 O7 1.826554 1_655
Ge1 O1 1.829538 1_555
Ge2 O12 1.728944 1_555
Ge2 O18 1.766470 1_555
Ge2 O4 1.826436 1_555
Ge2 O2 1.829575 1_556
Ge3 O13 1.728831 1_555
Ge3 O19 1.766626 1_555
Ge3 O5 1.826531 1_555
Ge3 O3 1.829572 1_555
Ge4 O10 1.728755 1_555
Ge4 O20 1.766418 1_555
Ge4 O2 1.826663 1_455
Ge4 O4 1.829674 1_554
Ge5 O11 1.728626 1_555
Ge5 O21 1.766609 1_555
Ge5 O3 1.826768 1_455
Ge5 O5 1.829627 1_555
Ge6 O8 1.728957 1_555
Ge6 O22 1.766460 1_555
Ge6 O0 1.826454 1_555
Ge6 O6 1.829611 1_554
Ge7 O9 1.728703 1_555
Ge7 O23 1.766605 1_555
Ge7 O1 1.826755 1_555
Ge7 O7 1.829657 1_555
