# generated using pymatgen
data_Pr2Cr3Co14
_symmetry_space_group_name_H-M   'P 1'
_cell_length_a   6.30760907
_cell_length_b   6.30760907
_cell_length_c   6.30760896
_cell_angle_alpha   83.49242959
_cell_angle_beta   83.49242959
_cell_angle_gamma   83.49242129
_symmetry_Int_Tables_number   1
_chemical_formula_structural   Pr2Cr3Co14
_chemical_formula_sum   'Pr2 Cr3 Co14'
_cell_volume   246.44374492
_cell_formula_units_Z   1
loop_
 _symmetry_equiv_pos_site_id
 _symmetry_equiv_pos_as_xyz
  1  'x, y, z'
loop_
 _atom_site_type_symbol
 _atom_site_label
 _atom_site_symmetry_multiplicity
 _atom_site_fract_x
 _atom_site_fract_y
 _atom_site_fract_z
 _atom_site_occupancy
  Pr  Pr0  1  0.64832800  0.64832800  0.64832800  1
  Pr  Pr1  1  0.35167200  0.35167200  0.35167200  1
  Cr  Cr0  1  0.00000000  0.00000000  0.50000000  1
  Cr  Cr1  1  0.00000000  0.50000000  0.00000000  1
  Cr  Cr2  1  0.50000000  0.00000000  0.00000000  1
  Co  Co0  1  0.28425200  0.71574800  0.00000000  1
  Co  Co1  1  0.71574800  0.00000000  0.28425200  1
  Co  Co2  1  0.00000000  0.28425200  0.71574800  1
  Co  Co3  1  0.28425200  0.00000000  0.71574800  1
  Co  Co4  1  0.00000000  0.71574800  0.28425200  1
  Co  Co5  1  0.71574800  0.28425200  0.00000000  1
  Co  Co6  1  0.34008500  0.34008500  0.86269100  1
  Co  Co7  1  0.34008500  0.86269100  0.34008500  1
  Co  Co8  1  0.86269100  0.34008500  0.34008500  1
  Co  Co9  1  0.65991500  0.65991500  0.13730900  1
  Co  Co10  1  0.65991500  0.13730900  0.65991500  1
  Co  Co11  1  0.13730900  0.65991500  0.65991500  1
  Co  Co12  1  0.90267800  0.90267800  0.90267800  1
  Co  Co13  1  0.09732200  0.09732200  0.09732200  1
loop_
_geom_bond_atom_site_label_1
_geom_bond_atom_site_label_2
_geom_bond_distance
_geom_bond_site_symmetry_2
Co0 Cr1 2.370581 1_555
Co0 Cr2 2.370581 1_565
Co0 Co4 2.387609 1_555
Co0 Co3 2.387609 1_564
Co0 Co7 2.506101 1_555
Co0 Co11 2.506101 1_554
Co0 Co9 2.587610 1_555
Co0 Co6 2.587610 1_554
Co0 Co13 2.662223 1_565
Co0 Co12 2.662223 1_454
Co0 Pr1 3.035256 1_555
Co0 Pr0 3.035256 1_554
Co1 Cr2 2.370581 1_555
Co1 Cr0 2.370581 1_655
Co1 Co4 2.387609 1_645
Co1 Co5 2.387609 1_555
Co1 Co9 2.506101 1_545
Co1 Co8 2.506101 1_555
Co1 Co10 2.587610 1_555
Co1 Co7 2.587610 1_545
Co1 Co12 2.662223 1_544
Co1 Co13 2.662223 1_655
Co1 Pr1 3.035256 1_555
Co1 Pr0 3.035257 1_545
Co2 Cr1 2.370581 1_556
Co2 Cr0 2.370581 1_555
Co2 Co3 2.387609 1_555
Co2 Co5 2.387609 1_456
Co2 Co6 2.506101 1_555
Co2 Co8 2.587610 1_455
Co2 Pr0 3.035256 1_455
Co2 Pr1 3.035257 1_555
Co3 Cr2 2.370581 1_556
Co3 Cr0 2.370581 1_555
Co3 Co6 2.506101 1_555
Co3 Co7 2.587610 1_545
Co3 Pr0 3.035256 1_545
Co3 Pr1 3.035257 1_555
Co4 Cr1 2.370581 1_555
Co4 Cr0 2.370581 1_565
Co4 Co9 2.506101 1_455
Co4 Co7 2.506101 1_555
Co4 Co8 2.587610 1_455
Co4 Pr1 3.035256 1_555
Co4 Pr0 3.035257 1_455
Co5 Cr2 2.370581 1_555
Co5 Cr1 2.370581 1_655
Co5 Co8 2.506101 1_555
Co5 Co9 2.587610 1_555
Co5 Co6 2.587610 1_554
Co5 Pr1 3.035256 1_555
Co5 Pr0 3.035256 1_554
Co6 Cr1 2.378140 1_556
Co6 Cr2 2.378140 1_556
Co6 Pr0 3.008941 1_555
Co6 Pr1 3.102740 1_556
Co6 Pr1 3.208553 1_555
Co7 Cr0 2.378140 1_565
Co7 Cr2 2.378140 1_565
Co7 Co9 2.557865 1_555
Co7 Pr0 3.008941 1_555
Co7 Pr1 3.102740 1_565
Co7 Pr1 3.208553 1_555
Co8 Cr0 2.378140 1_655
Co8 Cr1 2.378140 1_655
Co8 Co9 2.557865 1_555
Co8 Pr0 3.008941 1_555
Co8 Pr1 3.102740 1_655
Co8 Pr1 3.208553 1_555
Co9 Cr2 2.378140 1_565
Co9 Cr1 2.378140 1_655
Co9 Pr1 3.008941 1_555
Co9 Pr0 3.102740 1_554
Co9 Pr0 3.208553 1_555
Co10 Cr0 2.378140 1_655
Co10 Cr2 2.378140 1_556
Co10 Co5 2.506101 1_556
Co10 Co2 2.506101 1_655
Co10 Co12 2.526636 1_545
Co10 Co6 2.557865 1_555
Co10 Co8 2.557865 1_555
Co10 Co3 2.587610 1_555
Co10 Pr1 3.008941 1_555
Co10 Pr0 3.102740 1_545
Co10 Pr0 3.208553 1_555
Co11 Cr0 2.378140 1_565
Co11 Cr1 2.378140 1_556
Co11 Co3 2.506101 1_565
Co11 Co12 2.526636 1_455
Co11 Co6 2.557865 1_555
Co11 Co7 2.557865 1_555
Co11 Co4 2.587610 1_555
Co11 Co2 2.587610 1_555
Co11 Pr1 3.008941 1_555
Co11 Pr0 3.102740 1_455
Co11 Pr0 3.208553 1_555
Co12 Co13 2.355213 1_666
Co12 Co9 2.526636 1_556
Co12 Cr2 2.565837 1_566
Co12 Cr1 2.565837 1_656
Co12 Cr0 2.565837 1_665
Co12 Co5 2.662223 1_566
Co12 Co4 2.662223 1_656
Co12 Co3 2.662223 1_665
Co12 Co2 2.662223 1_665
Co12 Pr0 3.077661 1_555
Co13 Co7 2.526636 1_545
Co13 Co8 2.526636 1_455
Co13 Co6 2.526636 1_554
Co13 Cr1 2.565837 1_555
Co13 Cr2 2.565837 1_555
Co13 Cr0 2.565837 1_555
Co13 Co5 2.662223 1_455
Co13 Co3 2.662223 1_554
Co13 Co2 2.662223 1_554
Co13 Co4 2.662223 1_545
Co13 Pr1 3.077661 1_555
