# generated using pymatgen
data_Rb2P2Pt
_symmetry_space_group_name_H-M   'P 1'
_cell_length_a   7.90799521
_cell_length_b   7.90799521
_cell_length_c   6.17031016
_cell_angle_alpha   90.00000000
_cell_angle_beta   90.00000000
_cell_angle_gamma   131.00397799
_symmetry_Int_Tables_number   1
_chemical_formula_structural   Rb2P2Pt
_chemical_formula_sum   'Rb4 P4 Pt2'
_cell_volume   291.20138756
_cell_formula_units_Z   2
loop_
 _symmetry_equiv_pos_site_id
 _symmetry_equiv_pos_as_xyz
  1  'x, y, z'
loop_
 _atom_site_type_symbol
 _atom_site_label
 _atom_site_symmetry_multiplicity
 _atom_site_fract_x
 _atom_site_fract_y
 _atom_site_fract_z
 _atom_site_occupancy
  Rb  Rb0  1  0.78911017  0.21088983  0.25000000  1
  Rb  Rb1  1  0.21088983  0.78911017  0.75000000  1
  Rb  Rb2  1  0.42028775  0.57971225  0.25000000  1
  Rb  Rb3  1  0.57971225  0.42028775  0.75000000  1
  P  P0  1  0.93788469  0.73066738  0.25000000  1
  P  P1  1  0.06211531  0.26933262  0.75000000  1
  P  P2  1  0.26933262  0.06211531  0.25000000  1
  P  P3  1  0.73066738  0.93788469  0.75000000  1
  Pt  Pt0  1  -0.00000000  -0.00000000  0.00000000  1
  Pt  Pt1  1  -0.00000000  -0.00000000  0.50000000  1
loop_
_geom_bond_atom_site_label_1
_geom_bond_atom_site_label_2
_geom_bond_distance
_geom_bond_site_symmetry_2
P0 P2 2.173730 1_665
P0 Pt1 2.405069 1_665
P0 Pt0 2.405069 1_665
P0 Rb2 3.430329 1_555
P0 Rb0 3.454525 1_555
P0 Rb1 3.617101 1_655
P0 Rb1 3.617101 1_654
P0 Rb3 3.800335 1_554
P0 Rb3 3.800335 1_555
P1 P3 2.173730 1_445
P1 Pt0 2.405069 1_556
P1 Pt1 2.405069 1_555
P1 Rb3 3.430329 1_555
P1 Rb1 3.454525 1_555
P1 Rb0 3.617101 1_456
P1 Rb0 3.617101 1_455
P1 Rb2 3.800335 1_555
P1 Rb2 3.800335 1_556
P2 Pt0 2.405069 1_555
P2 Pt1 2.405069 1_555
P2 Rb2 3.430329 1_555
P2 Rb0 3.454525 1_555
P2 Rb1 3.617101 1_544
P2 Rb1 3.617101 1_545
P2 Rb3 3.800335 1_554
P2 Rb3 3.800335 1_555
P3 Pt1 2.405069 1_665
P3 Pt0 2.405069 1_666
P3 Rb3 3.430329 1_555
P3 Rb1 3.454525 1_555
P3 Rb0 3.617101 1_566
P3 Rb0 3.617101 1_565
P3 Rb2 3.800335 1_555
P3 Rb2 3.800335 1_556
Pt0 Rb1 3.404666 1_544
Pt0 Rb0 3.404666 1_455
Pt1 Rb1 3.404666 1_545
Pt1 Rb0 3.404666 1_455
