# generated using pymatgen
data_CsMg6Nb
_symmetry_space_group_name_H-M   'P 1'
_cell_length_a   14.36652000
_cell_length_b   14.36652000
_cell_length_c   8.30037800
_cell_angle_alpha   90.00000000
_cell_angle_beta   90.00000000
_cell_angle_gamma   90.00000000
_symmetry_Int_Tables_number   1
_chemical_formula_structural   CsMg6Nb
_chemical_formula_sum   'Cs8 Mg48 Nb8'
_cell_volume   1713.17226238
_cell_formula_units_Z   8
loop_
 _symmetry_equiv_pos_site_id
 _symmetry_equiv_pos_as_xyz
  1  'x, y, z'
loop_
 _atom_site_type_symbol
 _atom_site_label
 _atom_site_symmetry_multiplicity
 _atom_site_fract_x
 _atom_site_fract_y
 _atom_site_fract_z
 _atom_site_occupancy
  Cs  Cs0_0  1  0.00000000  0.00000000  0.25000000  1
  Cs  Cs0_1  1  0.00000000  0.00000000  0.75000000  1
  Cs  Cs0_2  1  0.00000000  0.50000000  0.25000000  1
  Cs  Cs0_3  1  0.00000000  0.50000000  0.75000000  1
  Cs  Cs0_4  1  0.50000000  0.00000000  0.25000000  1
  Cs  Cs0_5  1  0.50000000  0.00000000  0.75000000  1
  Cs  Cs0_6  1  0.50000000  0.50000000  0.25000000  1
  Cs  Cs0_7  1  0.50000000  0.50000000  0.75000000  1
  Mg  Mg0_0  1  0.00000000  0.25000000  0.25000000  1
  Mg  Mg0_1  1  0.00000000  0.25000000  0.75000000  1
  Mg  Mg0_2  1  0.00000000  0.75000000  0.25000000  1
  Mg  Mg0_3  1  0.00000000  0.75000000  0.75000000  1
  Mg  Mg0_4  1  0.50000000  0.25000000  0.25000000  1
  Mg  Mg0_5  1  0.50000000  0.25000000  0.75000000  1
  Mg  Mg0_6  1  0.50000000  0.75000000  0.25000000  1
  Mg  Mg0_7  1  0.50000000  0.75000000  0.75000000  1
  Mg  Mg1_0  1  0.25000000  0.00000000  0.25000000  1
  Mg  Mg1_1  1  0.25000000  0.00000000  0.75000000  1
  Mg  Mg1_2  1  0.25000000  0.50000000  0.25000000  1
  Mg  Mg1_3  1  0.25000000  0.50000000  0.75000000  1
  Mg  Mg1_4  1  0.75000000  0.00000000  0.25000000  1
  Mg  Mg1_5  1  0.75000000  0.00000000  0.75000000  1
  Mg  Mg1_6  1  0.75000000  0.50000000  0.25000000  1
  Mg  Mg1_7  1  0.75000000  0.50000000  0.75000000  1
  Mg  Mg2_0  1  0.35351450  0.14648550  0.00000000  1
  Mg  Mg2_1  1  0.35351450  0.14648550  0.50000000  1
  Mg  Mg2_2  1  0.35351450  0.64648550  0.00000000  1
  Mg  Mg2_3  1  0.35351450  0.64648550  0.50000000  1
  Mg  Mg2_4  1  0.85351450  0.14648550  0.00000000  1
  Mg  Mg2_5  1  0.85351450  0.14648550  0.50000000  1
  Mg  Mg2_6  1  0.85351450  0.64648550  0.00000000  1
  Mg  Mg2_7  1  0.85351450  0.64648550  0.50000000  1
  Mg  Mg3_0  1  0.14648550  0.35351450  0.00000000  1
  Mg  Mg3_1  1  0.14648550  0.35351450  0.50000000  1
  Mg  Mg3_2  1  0.14648550  0.85351450  0.00000000  1
  Mg  Mg3_3  1  0.14648550  0.85351450  0.50000000  1
  Mg  Mg3_4  1  0.64648550  0.35351450  0.00000000  1
  Mg  Mg3_5  1  0.64648550  0.35351450  0.50000000  1
  Mg  Mg3_6  1  0.64648550  0.85351450  0.00000000  1
  Mg  Mg3_7  1  0.64648550  0.85351450  0.50000000  1
  Mg  Mg4_0  1  0.35351450  0.35351450  0.00000000  1
  Mg  Mg4_1  1  0.35351450  0.35351450  0.50000000  1
  Mg  Mg4_2  1  0.35351450  0.85351450  0.00000000  1
  Mg  Mg4_3  1  0.35351450  0.85351450  0.50000000  1
  Mg  Mg4_4  1  0.85351450  0.35351450  0.00000000  1
  Mg  Mg4_5  1  0.85351450  0.35351450  0.50000000  1
  Mg  Mg4_6  1  0.85351450  0.85351450  0.00000000  1
  Mg  Mg4_7  1  0.85351450  0.85351450  0.50000000  1
  Mg  Mg5_0  1  0.14648550  0.14648550  0.00000000  1
  Mg  Mg5_1  1  0.14648550  0.14648550  0.50000000  1
  Mg  Mg5_2  1  0.14648550  0.64648550  0.00000000  1
  Mg  Mg5_3  1  0.14648550  0.64648550  0.50000000  1
  Mg  Mg5_4  1  0.64648550  0.14648550  0.00000000  1
  Mg  Mg5_5  1  0.64648550  0.14648550  0.50000000  1
  Mg  Mg5_6  1  0.64648550  0.64648550  0.00000000  1
  Mg  Mg5_7  1  0.64648550  0.64648550  0.50000000  1
  Nb  Nb0_0  1  0.25000000  0.25000000  0.25000000  1
  Nb  Nb0_1  1  0.25000000  0.25000000  0.75000000  1
  Nb  Nb0_2  1  0.25000000  0.75000000  0.25000000  1
  Nb  Nb0_3  1  0.25000000  0.75000000  0.75000000  1
  Nb  Nb0_4  1  0.75000000  0.25000000  0.25000000  1
  Nb  Nb0_5  1  0.75000000  0.25000000  0.75000000  1
  Nb  Nb0_6  1  0.75000000  0.75000000  0.25000000  1
  Nb  Nb0_7  1  0.75000000  0.75000000  0.75000000  1
loop_
_geom_bond_atom_site_label_1
_geom_bond_atom_site_label_2
_geom_bond_distance
_geom_bond_site_symmetry_2
Cs0_0 Mg0_2 3.591630 1_545
Cs0_0 Mg1_0 3.591630 1_555
Cs0_0 Mg1_4 3.591630 1_455
Cs0_0 Mg0_0 3.591630 1_555
Cs0_0 Mg5_1 3.628188 1_555
Cs0_0 Mg5_0 3.628188 1_555
Cs0_0 Mg2_4 3.628188 1_455
Cs0_0 Mg2_5 3.628188 1_455
Cs0_0 Mg3_3 3.628188 1_545
Cs0_0 Mg3_2 3.628188 1_545
Cs0_0 Mg4_6 3.628188 1_445
Cs0_0 Mg4_7 3.628188 1_445
Cs0_0 Cs0_1 4.150189 1_555
Cs0_0 Cs0_1 4.150189 1_554
Cs0_1 Mg0_1 3.591630 1_555
Cs0_1 Mg1_5 3.591630 1_455
Cs0_1 Mg1_1 3.591630 1_555
Cs0_1 Mg0_3 3.591630 1_545
Cs0_1 Mg5_1 3.628188 1_555
Cs0_1 Mg3_3 3.628188 1_545
Cs0_1 Mg2_5 3.628188 1_455
Cs0_1 Mg4_7 3.628188 1_445
Cs0_1 Mg5_0 3.628188 1_556
Cs0_1 Mg2_4 3.628188 1_456
Cs0_1 Mg3_2 3.628188 1_546
Cs0_1 Mg4_6 3.628188 1_446
Cs0_2 Mg1_6 3.591630 1_455
Cs0_2 Mg0_2 3.591630 1_555
Cs0_2 Mg0_0 3.591630 1_555
Cs0_2 Mg1_2 3.591630 1_555
Cs0_2 Mg5_2 3.628188 1_555
Cs0_2 Mg5_3 3.628188 1_555
Cs0_2 Mg2_7 3.628188 1_455
Cs0_2 Mg3_0 3.628188 1_555
Cs0_2 Mg2_6 3.628188 1_455
Cs0_2 Mg3_1 3.628188 1_555
Cs0_2 Mg4_5 3.628188 1_455
Cs0_2 Mg4_4 3.628188 1_455
Cs0_2 Cs0_3 4.150189 1_555
Cs0_2 Cs0_3 4.150189 1_554
Cs0_3 Mg0_1 3.591630 1_555
Cs0_3 Mg1_7 3.591630 1_455
Cs0_3 Mg0_3 3.591630 1_555
Cs0_3 Mg1_3 3.591630 1_555
Cs0_3 Mg5_3 3.628188 1_555
Cs0_3 Mg2_7 3.628188 1_455
Cs0_3 Mg3_1 3.628188 1_555
Cs0_3 Mg4_5 3.628188 1_455
Cs0_3 Mg5_2 3.628188 1_556
Cs0_3 Mg3_0 3.628188 1_556
Cs0_3 Mg2_6 3.628188 1_456
Cs0_3 Mg4_4 3.628188 1_456
Cs0_4 Mg1_0 3.591630 1_555
Cs0_4 Mg1_4 3.591630 1_555
Cs0_4 Mg0_6 3.591630 1_545
Cs0_4 Mg0_4 3.591630 1_555
Cs0_4 Mg5_5 3.628188 1_555
Cs0_4 Mg5_4 3.628188 1_555
Cs0_4 Mg3_7 3.628188 1_545
Cs0_4 Mg2_0 3.628188 1_555
Cs0_4 Mg3_6 3.628188 1_545
Cs0_4 Mg2_1 3.628188 1_555
Cs0_4 Mg4_2 3.628188 1_545
Cs0_4 Mg4_3 3.628188 1_545
Cs0_4 Cs0_5 4.150189 1_555
Cs0_4 Cs0_5 4.150189 1_554
Cs0_5 Mg0_5 3.591630 1_555
Cs0_5 Mg0_7 3.591630 1_545
Cs0_5 Mg1_1 3.591630 1_555
Cs0_5 Mg1_5 3.591630 1_555
Cs0_5 Mg5_5 3.628188 1_555
Cs0_5 Mg2_1 3.628188 1_555
Cs0_5 Mg3_7 3.628188 1_545
Cs0_5 Mg4_3 3.628188 1_545
Cs0_5 Mg5_4 3.628188 1_556
Cs0_5 Mg2_0 3.628188 1_556
Cs0_5 Mg3_6 3.628188 1_546
Cs0_5 Mg4_2 3.628188 1_546
Cs0_6 Mg0_4 3.591630 1_555
Cs0_6 Mg1_6 3.591630 1_555
Cs0_6 Mg1_2 3.591630 1_555
Cs0_6 Mg0_6 3.591630 1_555
Cs0_6 Mg5_6 3.628188 1_555
Cs0_6 Mg5_7 3.628188 1_555
Cs0_6 Mg2_3 3.628188 1_555
Cs0_6 Mg2_2 3.628188 1_555
Cs0_6 Mg3_4 3.628188 1_555
Cs0_6 Mg3_5 3.628188 1_555
Cs0_6 Mg4_0 3.628188 1_555
Cs0_6 Mg4_1 3.628188 1_555
Cs0_6 Cs0_7 4.150189 1_555
Cs0_6 Cs0_7 4.150189 1_554
Cs0_7 Mg0_5 3.591630 1_555
Cs0_7 Mg1_3 3.591630 1_555
Cs0_7 Mg1_7 3.591630 1_555
Cs0_7 Mg0_7 3.591630 1_555
Cs0_7 Mg5_7 3.628188 1_555
Cs0_7 Mg3_5 3.628188 1_555
Cs0_7 Mg2_3 3.628188 1_555
Cs0_7 Mg4_1 3.628188 1_555
Cs0_7 Mg5_6 3.628188 1_556
Cs0_7 Mg2_2 3.628188 1_556
Cs0_7 Mg3_4 3.628188 1_556
Cs0_7 Mg4_0 3.628188 1_556
Mg0_0 Mg5_1 3.308546 1_555
Mg0_0 Mg3_0 3.308546 1_555
Mg0_0 Mg5_0 3.308546 1_555
Mg0_0 Mg3_1 3.308546 1_555
Mg0_0 Mg2_5 3.308546 1_455
Mg0_0 Mg2_4 3.308546 1_455
Mg0_0 Mg4_4 3.308546 1_455
Mg0_0 Mg4_5 3.308546 1_455
Mg0_0 Nb0_0 3.591630 1_555
Mg0_0 Nb0_4 3.591630 1_455
Mg0_1 Mg3_1 3.308546 1_555
Mg0_1 Mg5_1 3.308546 1_555
Mg0_1 Mg4_5 3.308546 1_455
Mg0_1 Mg2_5 3.308546 1_455
Mg0_1 Mg5_0 3.308546 1_556
Mg0_1 Mg3_0 3.308546 1_556
Mg0_1 Mg2_4 3.308546 1_456
Mg0_1 Mg4_4 3.308546 1_456
Mg0_1 Nb0_1 3.591630 1_555
Mg0_1 Nb0_5 3.591630 1_455
Mg0_2 Mg3_3 3.308546 1_555
Mg0_2 Mg3_2 3.308546 1_555
Mg0_2 Mg4_6 3.308546 1_455
Mg0_2 Mg4_7 3.308546 1_455
Mg0_2 Mg5_3 3.308546 1_555
Mg0_2 Mg5_2 3.308546 1_555
Mg0_2 Mg2_7 3.308546 1_455
Mg0_2 Mg2_6 3.308546 1_455
Mg0_2 Nb0_2 3.591630 1_555
Mg0_2 Nb0_6 3.591630 1_455
Mg0_3 Mg3_3 3.308546 1_555
Mg0_3 Mg4_7 3.308546 1_455
Mg0_3 Mg5_3 3.308546 1_555
Mg0_3 Mg2_7 3.308546 1_455
Mg0_3 Mg3_2 3.308546 1_556
Mg0_3 Mg4_6 3.308546 1_456
Mg0_3 Mg5_2 3.308546 1_556
Mg0_3 Mg2_6 3.308546 1_456
Mg0_3 Nb0_3 3.591630 1_555
Mg0_3 Nb0_7 3.591630 1_455
Mg0_4 Mg5_5 3.308546 1_555
Mg0_4 Mg5_4 3.308546 1_555
Mg0_4 Mg3_4 3.308546 1_555
Mg0_4 Mg3_5 3.308546 1_555
Mg0_4 Mg2_0 3.308546 1_555
Mg0_4 Mg4_0 3.308546 1_555
Mg0_4 Mg4_1 3.308546 1_555
Mg0_4 Mg2_1 3.308546 1_555
Mg0_4 Nb0_0 3.591630 1_555
Mg0_4 Nb0_4 3.591630 1_555
Mg0_5 Mg3_5 3.308546 1_555
Mg0_5 Mg5_5 3.308546 1_555
Mg0_5 Mg4_1 3.308546 1_555
Mg0_5 Mg2_1 3.308546 1_555
Mg0_5 Mg5_4 3.308546 1_556
Mg0_5 Mg3_4 3.308546 1_556
Mg0_5 Mg2_0 3.308546 1_556
Mg0_5 Mg4_0 3.308546 1_556
Mg0_5 Nb0_1 3.591630 1_555
Mg0_5 Nb0_5 3.591630 1_555
Mg0_6 Mg3_7 3.308546 1_555
Mg0_6 Mg3_6 3.308546 1_555
Mg0_6 Mg4_2 3.308546 1_555
Mg0_6 Mg4_3 3.308546 1_555
Mg0_6 Mg5_7 3.308546 1_555
Mg0_6 Mg5_6 3.308546 1_555
Mg0_6 Mg2_2 3.308546 1_555
Mg0_6 Mg2_3 3.308546 1_555
Mg0_6 Nb0_2 3.591630 1_555
Mg0_6 Nb0_6 3.591630 1_555
Mg0_7 Mg3_7 3.308546 1_555
Mg0_7 Mg5_7 3.308546 1_555
Mg0_7 Mg4_3 3.308546 1_555
Mg0_7 Mg2_3 3.308546 1_555
Mg0_7 Mg3_6 3.308546 1_556
Mg0_7 Mg4_2 3.308546 1_556
Mg0_7 Mg5_6 3.308546 1_556
Mg0_7 Mg2_2 3.308546 1_556
Mg0_7 Nb0_7 3.591630 1_555
Mg0_7 Nb0_3 3.591630 1_555
Mg1_0 Mg2_0 3.308546 1_555
Mg1_0 Mg5_1 3.308546 1_555
Mg1_0 Mg2_1 3.308546 1_555
Mg1_0 Mg5_0 3.308546 1_555
Mg1_0 Mg4_2 3.308546 1_545
Mg1_0 Mg3_3 3.308546 1_545
Mg1_0 Mg4_3 3.308546 1_545
Mg1_0 Mg3_2 3.308546 1_545
Mg1_0 Nb0_2 3.591630 1_545
Mg1_0 Nb0_0 3.591630 1_555
Mg1_1 Mg2_1 3.308546 1_555
Mg1_1 Mg5_1 3.308546 1_555
Mg1_1 Mg4_3 3.308546 1_545
Mg1_1 Mg3_3 3.308546 1_545
Mg1_1 Mg5_0 3.308546 1_556
Mg1_1 Mg2_0 3.308546 1_556
Mg1_1 Mg4_2 3.308546 1_546
Mg1_1 Mg3_2 3.308546 1_546
Mg1_1 Nb0_1 3.591630 1_555
Mg1_1 Nb0_3 3.591630 1_545
Mg1_2 Mg2_2 3.308546 1_555
Mg1_2 Mg5_3 3.308546 1_555
Mg1_2 Mg2_3 3.308546 1_555
Mg1_2 Mg5_2 3.308546 1_555
Mg1_2 Mg4_0 3.308546 1_555
Mg1_2 Mg4_1 3.308546 1_555
Mg1_2 Mg3_0 3.308546 1_555
Mg1_2 Mg3_1 3.308546 1_555
Mg1_2 Nb0_2 3.591630 1_555
Mg1_2 Nb0_0 3.591630 1_555
Mg1_3 Mg5_3 3.308546 1_555
Mg1_3 Mg2_3 3.308546 1_555
Mg1_3 Mg4_1 3.308546 1_555
Mg1_3 Mg3_1 3.308546 1_555
Mg1_3 Mg5_2 3.308546 1_556
Mg1_3 Mg2_2 3.308546 1_556
Mg1_3 Mg4_0 3.308546 1_556
Mg1_3 Mg3_0 3.308546 1_556
Mg1_3 Nb0_1 3.591630 1_555
Mg1_3 Nb0_3 3.591630 1_555
Mg1_4 Mg2_4 3.308546 1_555
Mg1_4 Mg2_5 3.308546 1_555
Mg1_4 Mg5_5 3.308546 1_555
Mg1_4 Mg4_7 3.308546 1_545
Mg1_4 Mg5_4 3.308546 1_555
Mg1_4 Mg4_6 3.308546 1_545
Mg1_4 Mg3_7 3.308546 1_545
Mg1_4 Mg3_6 3.308546 1_545
Mg1_4 Nb0_4 3.591630 1_555
Mg1_4 Nb0_6 3.591630 1_545
Mg1_5 Mg2_5 3.308546 1_555
Mg1_5 Mg5_5 3.308546 1_555
Mg1_5 Mg4_7 3.308546 1_545
Mg1_5 Mg2_4 3.308546 1_556
Mg1_5 Mg3_7 3.308546 1_545
Mg1_5 Mg4_6 3.308546 1_546
Mg1_5 Mg5_4 3.308546 1_556
Mg1_5 Mg3_6 3.308546 1_546
Mg1_5 Nb0_7 3.591630 1_545
Mg1_5 Nb0_5 3.591630 1_555
Mg1_6 Mg2_6 3.308546 1_555
Mg1_6 Mg2_7 3.308546 1_555
Mg1_6 Mg5_7 3.308546 1_555
Mg1_6 Mg4_4 3.308546 1_555
Mg1_6 Mg4_5 3.308546 1_555
Mg1_6 Mg5_6 3.308546 1_555
Mg1_6 Mg3_4 3.308546 1_555
Mg1_6 Mg3_5 3.308546 1_555
Mg1_6 Nb0_4 3.591630 1_555
Mg1_6 Nb0_6 3.591630 1_555
Mg1_7 Mg2_7 3.308546 1_555
Mg1_7 Mg4_5 3.308546 1_555
Mg1_7 Mg5_7 3.308546 1_555
Mg1_7 Mg2_6 3.308546 1_556
Mg1_7 Mg3_5 3.308546 1_555
Mg1_7 Mg4_4 3.308546 1_556
Mg1_7 Mg5_6 3.308546 1_556
Mg1_7 Mg3_4 3.308546 1_556
Mg1_7 Nb0_7 3.591630 1_555
Mg1_7 Nb0_5 3.591630 1_555
Mg2_0 Nb0_0 2.954523 1_555
Mg2_0 Nb0_1 2.954523 1_554
Mg2_0 Mg4_0 2.974286 1_555
Mg2_0 Mg5_0 2.974286 1_555
Mg2_1 Nb0_1 2.954523 1_555
Mg2_1 Nb0_0 2.954523 1_555
Mg2_1 Mg5_1 2.974286 1_555
Mg2_1 Mg4_1 2.974286 1_555
Mg2_2 Nb0_2 2.954523 1_555
Mg2_2 Nb0_3 2.954523 1_554
Mg2_2 Mg5_2 2.974286 1_555
Mg2_2 Mg4_2 2.974286 1_555
Mg2_3 Nb0_3 2.954523 1_555
Mg2_3 Nb0_2 2.954523 1_555
Mg2_3 Mg5_3 2.974286 1_555
Mg2_3 Mg4_3 2.974286 1_555
Mg2_4 Nb0_4 2.954523 1_555
Mg2_4 Nb0_5 2.954523 1_554
Mg2_4 Mg4_4 2.974286 1_555
Mg2_4 Mg5_4 2.974286 1_555
Mg2_5 Nb0_5 2.954523 1_555
Mg2_5 Nb0_4 2.954523 1_555
Mg2_5 Mg5_5 2.974286 1_555
Mg2_5 Mg4_5 2.974286 1_555
Mg2_6 Nb0_6 2.954523 1_555
Mg2_6 Nb0_7 2.954523 1_554
Mg2_6 Mg5_6 2.974286 1_555
Mg2_6 Mg4_6 2.974286 1_555
Mg2_7 Nb0_7 2.954523 1_555
Mg2_7 Nb0_6 2.954523 1_555
Mg2_7 Mg4_7 2.974286 1_555
Mg2_7 Mg5_7 2.974286 1_555
Mg3_0 Nb0_0 2.954523 1_555
Mg3_0 Nb0_1 2.954523 1_554
Mg3_0 Mg4_0 2.974286 1_555
Mg3_0 Mg5_0 2.974286 1_555
Mg3_1 Nb0_1 2.954523 1_555
Mg3_1 Nb0_0 2.954523 1_555
Mg3_1 Mg5_1 2.974286 1_555
Mg3_1 Mg4_1 2.974286 1_555
Mg3_2 Nb0_2 2.954523 1_555
Mg3_2 Nb0_3 2.954523 1_554
Mg3_2 Mg5_2 2.974286 1_555
Mg3_2 Mg4_2 2.974286 1_555
Mg3_3 Nb0_3 2.954523 1_555
Mg3_3 Nb0_2 2.954523 1_555
Mg3_3 Mg5_3 2.974286 1_555
Mg3_3 Mg4_3 2.974286 1_555
Mg3_4 Nb0_4 2.954523 1_555
Mg3_4 Nb0_5 2.954523 1_554
Mg3_4 Mg4_4 2.974286 1_555
Mg3_4 Mg5_4 2.974286 1_555
Mg3_5 Nb0_5 2.954523 1_555
Mg3_5 Nb0_4 2.954523 1_555
Mg3_5 Mg5_5 2.974286 1_555
Mg3_5 Mg4_5 2.974286 1_555
Mg3_6 Nb0_6 2.954523 1_555
Mg3_6 Nb0_7 2.954523 1_554
Mg3_6 Mg5_6 2.974286 1_555
Mg3_6 Mg4_6 2.974286 1_555
Mg3_7 Nb0_7 2.954523 1_555
Mg3_7 Nb0_6 2.954523 1_555
Mg3_7 Mg4_7 2.974286 1_555
Mg3_7 Mg5_7 2.974286 1_555
Mg4_0 Nb0_0 2.954523 1_555
Mg4_0 Nb0_1 2.954523 1_554
Mg4_1 Nb0_1 2.954523 1_555
Mg4_1 Nb0_0 2.954523 1_555
Mg4_2 Nb0_2 2.954523 1_555
Mg4_2 Nb0_3 2.954523 1_554
Mg4_3 Nb0_3 2.954523 1_555
Mg4_3 Nb0_2 2.954523 1_555
Mg4_4 Nb0_4 2.954523 1_555
Mg4_4 Nb0_5 2.954523 1_554
Mg4_5 Nb0_5 2.954523 1_555
Mg4_5 Nb0_4 2.954523 1_555
Mg4_6 Nb0_6 2.954523 1_555
Mg4_6 Nb0_7 2.954523 1_554
Mg4_7 Nb0_7 2.954523 1_555
Mg4_7 Nb0_6 2.954523 1_555
Mg5_0 Nb0_0 2.954523 1_555
Mg5_0 Nb0_1 2.954523 1_554
Mg5_1 Nb0_1 2.954523 1_555
Mg5_1 Nb0_0 2.954523 1_555
Mg5_2 Nb0_2 2.954523 1_555
Mg5_2 Nb0_3 2.954523 1_554
Mg5_3 Nb0_3 2.954523 1_555
Mg5_3 Nb0_2 2.954523 1_555
Mg5_4 Nb0_4 2.954523 1_555
Mg5_4 Nb0_5 2.954523 1_554
Mg5_5 Nb0_5 2.954523 1_555
Mg5_5 Nb0_4 2.954523 1_555
Mg5_6 Nb0_6 2.954523 1_555
Mg5_6 Nb0_7 2.954523 1_554
Mg5_7 Nb0_7 2.954523 1_555
Mg5_7 Nb0_6 2.954523 1_555
