# generated using pymatgen
data_Ba3(LiBi)4
_symmetry_space_group_name_H-M   'P 1'
_cell_length_a   5.13532882
_cell_length_b   7.85190845
_cell_length_c   9.65168934
_cell_angle_alpha   114.00168320
_cell_angle_beta   105.42832799
_cell_angle_gamma   90.00000000
_symmetry_Int_Tables_number   1
_chemical_formula_structural   Ba3(LiBi)4
_chemical_formula_sum   'Ba3 Li4 Bi4'
_cell_volume   340.11683620
_cell_formula_units_Z   1
loop_
 _symmetry_equiv_pos_site_id
 _symmetry_equiv_pos_as_xyz
  1  'x, y, z'
loop_
 _atom_site_type_symbol
 _atom_site_label
 _atom_site_symmetry_multiplicity
 _atom_site_fract_x
 _atom_site_fract_y
 _atom_site_fract_z
 _atom_site_occupancy
  Ba  Ba0  1  0.13125780  0.63125780  0.26251561  1
  Ba  Ba1  1  0.86874220  0.36874220  0.73748439  1
  Ba  Ba2  1  0.00000000  -0.00000000  0.00000000  1
  Li  Li0  1  0.67483553  0.98182084  0.34967006  1
  Li  Li1  1  0.32516447  0.01817916  0.65032994  1
  Li  Li2  1  0.32516447  0.63215078  0.65032994  1
  Li  Li3  1  0.67483553  0.36784922  0.34967006  1
  Bi  Bi0  1  0.78631438  0.78631438  0.57262777  1
  Bi  Bi1  1  0.21368562  0.21368562  0.42737223  1
  Bi  Bi2  1  0.50000000  0.69246544  -0.00000000  1
  Bi  Bi3  1  0.50000000  0.30753456  0.00000000  1
loop_
_geom_bond_atom_site_label_1
_geom_bond_atom_site_label_2
_geom_bond_distance
_geom_bond_site_symmetry_2
Ba0 Li0 3.597704 1_455
Ba0 Li3 3.597704 1_455
Ba0 Li0 3.597708 1_555
Ba0 Li3 3.597708 1_555
Ba0 Li1 3.605225 1_565
Ba0 Li2 3.605225 1_555
Ba0 Bi0 3.665415 1_455
Ba0 Bi0 3.665418 1_555
Ba0 Bi3 3.712127 1_455
Ba0 Bi2 3.712127 1_455
Ba0 Bi3 3.712127 1_555
Ba0 Bi2 3.712128 1_555
Ba1 Li1 3.597704 1_655
Ba1 Li2 3.597704 1_655
Ba1 Li1 3.597708 1_555
Ba1 Li2 3.597708 1_555
Ba1 Li0 3.605225 1_545
Ba1 Li3 3.605225 1_555
Ba1 Bi1 3.665415 1_655
Ba1 Bi1 3.665418 1_555
Ba1 Bi2 3.712127 1_656
Ba1 Bi3 3.712127 1_656
Ba1 Bi2 3.712127 1_556
Ba1 Bi3 3.712128 1_556
Ba2 Bi3 3.524746 1_455
Ba2 Bi2 3.524746 1_545
Ba2 Bi2 3.524746 1_445
Ba2 Bi3 3.524746 1_555
Ba2 Bi0 3.604881 1_444
Ba2 Bi1 3.604881 1_555
Li0 Li3 3.031059 1_565
Li1 Li2 3.031059 1_545
Bi0 Li1 3.052747 1_665
Bi0 Li2 3.052751 1_655
Bi0 Li1 3.052756 1_565
Bi0 Li2 3.052760 1_555
Bi0 Li0 3.057280 1_555
Bi0 Li3 3.057286 1_555
Bi1 Li0 3.052747 1_445
Bi1 Li3 3.052751 1_455
Bi1 Li0 3.052756 1_545
Bi1 Li3 3.052760 1_555
Bi1 Li1 3.057280 1_555
Bi1 Li2 3.057286 1_555
Bi2 Bi3 3.022442 1_555
Bi2 Li0 3.083489 1_555
Bi2 Li2 3.083489 1_554
Bi3 Li1 3.083489 1_554
Bi3 Li3 3.083489 1_555
