# generated using pymatgen
data_Gd3SiBr3
_symmetry_space_group_name_H-M   'P 1'
_cell_length_a   10.09182715
_cell_length_b   10.13910926
_cell_length_c   10.14275216
_cell_angle_alpha   109.54862367
_cell_angle_beta   109.40399513
_cell_angle_gamma   109.37341592
_symmetry_Int_Tables_number   1
_chemical_formula_structural   Gd3SiBr3
_chemical_formula_sum   'Gd12 Si4 Br12'
_cell_volume   799.78164820
_cell_formula_units_Z   4
loop_
 _symmetry_equiv_pos_site_id
 _symmetry_equiv_pos_as_xyz
  1  'x, y, z'
loop_
 _atom_site_type_symbol
 _atom_site_label
 _atom_site_symmetry_multiplicity
 _atom_site_fract_x
 _atom_site_fract_y
 _atom_site_fract_z
 _atom_site_occupancy
  Gd  Gd0  1  0.47681200  0.48823643  0.23763218  1
  Gd  Gd1  1  0.75179436  0.23959219  0.26213159  1
  Gd  Gd2  1  0.74892729  0.01074414  0.48791703  1
  Gd  Gd3  1  0.23768893  0.47541932  0.48772216  1
  Gd  Gd4  1  0.26123652  0.75008305  0.23792748  1
  Gd  Gd5  1  0.02320192  0.26158122  0.01162556  1
  Gd  Gd6  1  0.01203789  0.02411385  0.26210356  1
  Gd  Gd7  1  0.48888713  0.75014212  0.01208423  1
  Gd  Gd8  1  0.48788277  0.23958506  0.47754359  1
  Gd  Gd9  1  0.01130503  0.48823385  0.75053619  1
  Gd  Gd10  1  0.26184782  0.01074563  0.02288410  1
  Gd  Gd11  1  0.23844837  0.26164671  0.74996154  1
  Si  Si0  1  0.25025175  0.24969401  0.24902579  1
  Si  Si1  1  0.50063027  0.00119250  0.25060062  1
  Si  Si2  1  0.99944282  0.24970351  0.50072121  1
  Si  Si3  1  0.24999483  0.50002229  0.99998419  1
  Br  Br0  1  0.24970445  0.75501766  0.74429573  1
  Br  Br1  1  0.51186874  0.50593122  0.75595999  1
  Br  Br2  1  0.98781166  0.74444189  0.99375941  1
  Br  Br3  1  0.74355489  0.24939491  0.75544888  1
  Br  Br4  1  0.99464739  0.98914315  0.74450294  1
  Br  Br5  1  0.25040660  0.99455348  0.50602688  1
  Br  Br6  1  0.75579395  0.51180989  0.50585572  1
  Br  Br7  1  0.50583056  0.24916863  0.99407981  1
  Br  Br8  1  0.75635617  0.74432202  0.25046352  1
  Br  Br9  1  0.74428657  0.99456508  0.98860032  1
  Br  Br10  1  0.99410935  0.50583220  0.24994905  1
  Br  Br11  1  0.50524097  0.75508399  0.51065474  1
loop_
_geom_bond_atom_site_label_1
_geom_bond_atom_site_label_2
_geom_bond_distance
_geom_bond_site_symmetry_2
Gd0 Si3 2.787833 1_554
Gd0 Si0 2.790067 1_555
Gd1 Si2 2.785351 1_555
Gd1 Si1 2.798233 1_555
Gd2 Si1 2.785223 1_555
Gd2 Si2 2.790347 1_555
Gd3 Si2 2.792434 1_455
Gd3 Si0 2.793534 1_555
Gd4 Si3 2.792484 1_554
Gd4 Si1 2.798076 1_565
Gd5 Si0 2.788221 1_555
Gd5 Si3 2.792242 1_554
Gd6 Si0 2.791966 1_555
Gd6 Si2 2.792497 1_455
Gd7 Si3 2.792386 1_554
Gd7 Si1 2.798970 1_565
Gd8 Si0 2.786126 1_555
Gd8 Si1 2.799466 1_555
Gd9 Si3 2.788390 1_555
Gd9 Si2 2.790886 1_455
Gd10 Si1 2.785186 1_555
Gd10 Si0 2.791411 1_555
Gd11 Si2 2.788005 1_455
Gd11 Si3 2.793040 1_555
Br0 Gd9 3.001204 1_555
Br0 Gd7 3.003143 1_556
Br0 Gd10 3.062406 1_566
Br0 Gd3 3.073882 1_555
Br1 Gd11 3.000927 1_555
Br1 Gd3 3.003449 1_555
Br1 Gd8 3.055244 1_555
Br1 Gd7 3.067581 1_556
Br2 Gd10 2.999197 1_666
Br2 Gd4 3.001734 1_656
Br2 Gd9 3.065754 1_655
Br2 Gd6 3.072696 1_666
Br3 Gd9 2.999497 1_655
Br3 Gd2 3.001975 1_555
Br3 Gd5 3.067994 1_656
Br3 Gd8 3.069553 1_555
Br4 Gd11 2.997920 1_665
Br4 Gd5 2.999763 1_666
Br4 Gd2 3.069823 1_565
Br4 Gd10 3.070342 1_666
Br5 Gd8 2.998239 1_565
Br5 Gd6 3.002936 1_565
Br5 Gd11 3.066125 1_565
Br5 Gd4 3.068695 1_555
Br6 Gd8 3.002241 1_555
Br6 Gd1 3.004035 1_555
Br6 Gd0 3.068241 1_555
Br6 Gd9 3.069049 1_655
Br7 Gd10 2.998899 1_556
Br7 Gd0 3.001343 1_556
Br7 Gd1 3.068396 1_556
Br7 Gd11 3.069968 1_555
Br8 Gd7 3.000005 1_555
Br8 Gd2 3.000604 1_565
Br8 Gd0 3.063902 1_555
Br8 Gd6 3.071908 1_665
Br9 Gd1 2.999622 1_566
Br9 Gd6 3.002114 1_666
Br9 Gd5 3.064522 1_666
Br9 Gd7 3.067048 1_556
Br10 Gd5 3.001691 1_655
Br10 Gd3 3.002550 1_655
Br10 Gd1 3.053958 1_555
Br10 Gd4 3.066991 1_655
Br11 Gd0 3.002361 1_555
Br11 Gd4 3.002566 1_555
Br11 Gd2 3.060715 1_565
Br11 Gd3 3.073555 1_555
