# generated using pymatgen
data_MgTl2Pb16(Br9O4)2
_symmetry_space_group_name_H-M   'P 1'
_cell_length_a   8.62888905
_cell_length_b   12.61479742
_cell_length_c   12.61479742
_cell_angle_alpha   90.00000000
_cell_angle_beta   90.00000000
_cell_angle_gamma   90.00000000
_symmetry_Int_Tables_number   1
_chemical_formula_structural   MgTl2Pb16(Br9O4)2
_chemical_formula_sum   'Mg1 Tl2 Pb16 Br18 O8'
_cell_volume   1373.14198444
_cell_formula_units_Z   1
loop_
 _symmetry_equiv_pos_site_id
 _symmetry_equiv_pos_as_xyz
  1  'x, y, z'
loop_
 _atom_site_type_symbol
 _atom_site_label
 _atom_site_symmetry_multiplicity
 _atom_site_fract_x
 _atom_site_fract_y
 _atom_site_fract_z
 _atom_site_occupancy
  Mg  Mg0  1  0.50000000  0.25000000  0.75000000  1
  Tl  Tl0  1  0.63744807  0.75000000  0.75000000  1
  Tl  Tl1  1  0.36255193  0.25000000  0.25000000  1
  Pb  Pb0  1  0.81961270  0.34192896  0.95339946  1
  Pb  Pb1  1  0.38216659  0.20374458  0.52723792  1
  Pb  Pb2  1  0.17274197  0.66888824  0.02346230  1
  Pb  Pb3  1  0.61783341  0.47276208  0.70374458  1
  Pb  Pb4  1  0.61783341  0.02723792  0.79625542  1
  Pb  Pb5  1  0.64081353  0.80571909  0.38684494  1
  Pb  Pb6  1  0.17274197  0.83111176  0.47653770  1
  Pb  Pb7  1  0.82725803  0.97653770  0.16888824  1
  Pb  Pb8  1  0.35918647  0.61315506  0.30571909  1
  Pb  Pb9  1  0.18038730  0.45339946  0.65807104  1
  Pb  Pb10  1  0.81961270  0.15807104  0.54660054  1
  Pb  Pb11  1  0.35918647  0.88684494  0.19428091  1
  Pb  Pb12  1  0.38216659  0.29625542  0.97276208  1
  Pb  Pb13  1  0.18038730  0.04660054  0.84192896  1
  Pb  Pb14  1  0.64081353  0.69428091  0.11315506  1
  Pb  Pb15  1  0.82725803  0.52346230  0.33111176  1
  Br  Br0  1  0.87546890  0.86930912  0.96185492  1
  Br  Br1  1  0.10824610  0.14064328  0.05215389  1
  Br  Br2  1  0.12453110  0.46185492  0.13069088  1
  Br  Br3  1  0.62230331  0.43359475  0.13197707  1
  Br  Br4  1  0.36419983  0.55331326  0.87008503  1
  Br  Br5  1  0.37769669  0.63197707  0.56640525  1
  Br  Br6  1  0.10824610  0.35935672  0.44784611  1
  Br  Br7  1  0.12453110  0.03814508  0.36930912  1
  Br  Br8  1  0.62230331  0.06640525  0.36802293  1
  Br  Br9  1  0.00000000  0.75000000  0.25000000  1
  Br  Br10  1  0.89175390  0.94784611  0.64064328  1
  Br  Br11  1  0.36419983  0.94668674  0.62991497  1
  Br  Br12  1  0.89175390  0.55215389  0.85935672  1
  Br  Br13  1  0.63580017  0.37008503  0.44668674  1
  Br  Br14  1  0.37769669  0.86802293  0.93359475  1
  Br  Br15  1  0.87546890  0.63069088  0.53814508  1
  Br  Br16  1  0.63580017  0.12991497  0.05331326  1
  Br  Br17  1  0.00000000  0.25000000  0.75000000  1
  O  O0  1  0.60540730  0.15670990  0.64857426  1
  O  O1  1  0.39459270  0.14857426  0.84329010  1
  O  O2  1  0.37274125  0.70333158  0.14247449  1
  O  O3  1  0.62725875  0.64247449  0.29666842  1
  O  O4  1  0.62725875  0.85752551  0.20333158  1
  O  O5  1  0.39459270  0.35142574  0.65670990  1
  O  O6  1  0.60540730  0.34329010  0.85142574  1
  O  O7  1  0.37274125  0.79666842  0.35752551  1
loop_
_geom_bond_atom_site_label_1
_geom_bond_atom_site_label_2
_geom_bond_distance
_geom_bond_site_symmetry_2
Mg0 O1 1.961951 1_555
Mg0 O5 1.961951 1_555
Mg0 O6 1.961951 1_555
Mg0 O0 1.961951 1_555
Pb1 Tl1 3.549680 1_555
Pb3 Tl0 3.549680 1_555
Pb4 Tl0 3.549680 1_545
Pb12 Tl1 3.549680 1_556
Br0 Pb7 2.970464 1_556
Br1 Pb13 2.971144 1_554
Br1 Pb12 3.231594 1_554
Br2 Pb2 2.970464 1_555
Br3 Pb0 3.051327 1_554
Br3 Pb15 3.274638 1_555
Br3 Pb14 3.300930 1_555
Br3 Pb12 3.365883 1_554
Br4 Pb2 2.932321 1_556
Br4 Pb3 3.197730 1_555
Br4 Pb9 3.355193 1_555
Br5 Pb9 3.051327 1_555
Br5 Pb6 3.274638 1_555
Br5 Pb8 3.300930 1_555
Br5 Pb3 3.365883 1_555
Br6 Pb9 2.971144 1_555
Br6 Pb1 3.231594 1_555
Br7 Pb6 2.970464 1_545
Br8 Pb10 3.051327 1_555
Br8 Pb7 3.274638 1_545
Br8 Pb5 3.300930 1_545
Br8 Pb1 3.365883 1_555
Br9 Pb6 3.381621 1_555
Br9 Pb7 3.381621 1_455
Br9 Pb15 3.381621 1_455
Br9 Pb2 3.381621 1_555
Br10 Pb10 2.971144 1_565
Br10 Pb4 3.231594 1_565
Br11 Pb6 2.932321 1_555
Br11 Pb4 3.197730 1_565
Br11 Pb13 3.355193 1_565
Br12 Pb0 2.971144 1_555
Br12 Pb3 3.231594 1_555
Br13 Pb15 2.932321 1_555
Br13 Pb1 3.197730 1_555
Br13 Pb10 3.355193 1_555
Br14 Pb13 3.051327 1_565
Br14 Pb2 3.274638 1_556
Br14 Pb11 3.300930 1_556
Br14 Pb4 3.365883 1_565
Br15 Pb15 2.970464 1_555
Br16 Pb7 2.932321 1_545
Br16 Pb12 3.197730 1_554
Br16 Pb0 3.355193 1_554
Br17 Pb9 3.217328 1_555
Br17 Pb0 3.217328 1_455
Br17 Pb10 3.217328 1_455
Br17 Pb13 3.217328 1_555
O0 Pb10 2.251994 1_555
O0 Pb4 2.479858 1_555
O0 Pb1 2.530926 1_555
O1 Pb13 2.251994 1_555
O1 Pb12 2.479858 1_555
O1 Pb4 2.530926 1_555
O2 Pb2 2.328308 1_555
O2 Pb14 2.345329 1_555
O2 Pb8 2.355510 1_555
O2 Pb11 2.408304 1_555
O3 Pb15 2.328308 1_555
O3 Pb8 2.345329 1_555
O3 Pb5 2.355510 1_555
O3 Pb14 2.408304 1_555
O4 Pb7 2.328308 1_555
O4 Pb11 2.345329 1_555
O4 Pb14 2.355510 1_555
O4 Pb5 2.408304 1_555
O5 Pb9 2.251994 1_555
O5 Pb1 2.479858 1_555
O5 Pb3 2.530926 1_555
O6 Pb0 2.251994 1_555
O6 Pb3 2.479858 1_555
O6 Pb12 2.530926 1_555
O7 Pb6 2.328308 1_555
O7 Pb5 2.345329 1_555
O7 Pb11 2.355510 1_555
O7 Pb8 2.408304 1_555
