# generated using pymatgen
data_Cr(RhSe2)2
_symmetry_space_group_name_H-M   'P 1'
_cell_length_a   6.62887238
_cell_length_b   6.62887238
_cell_length_c   6.57067016
_cell_angle_alpha   61.69754606
_cell_angle_beta   61.69754606
_cell_angle_gamma   32.59425835
_symmetry_Int_Tables_number   1
_chemical_formula_structural   Cr(RhSe2)2
_chemical_formula_sum   'Cr1 Rh2 Se4'
_cell_volume   135.23305623
_cell_formula_units_Z   1
loop_
 _symmetry_equiv_pos_site_id
 _symmetry_equiv_pos_as_xyz
  1  'x, y, z'
loop_
 _atom_site_type_symbol
 _atom_site_label
 _atom_site_symmetry_multiplicity
 _atom_site_fract_x
 _atom_site_fract_y
 _atom_site_fract_z
 _atom_site_occupancy
  Cr  Cr0  1  0.00000000  0.00000000  0.00000000  1
  Rh  Rh0  1  0.26016300  0.26016300  0.72452900  1
  Rh  Rh1  1  0.73983700  0.73983700  0.27547100  1
  Se  Se0  1  0.36730700  0.36730700  0.97157300  1
  Se  Se1  1  0.63269300  0.63269300  0.02842700  1
  Se  Se2  1  0.12794900  0.12794900  0.54275600  1
  Se  Se3  1  0.87205100  0.87205100  0.45724300  1
loop_
_geom_bond_atom_site_label_1
_geom_bond_atom_site_label_2
_geom_bond_distance
_geom_bond_site_symmetry_2
Cr0 Se0 2.580286 1_544
Cr0 Se1 2.580286 1_455
Cr0 Se1 2.580286 1_545
Cr0 Se0 2.580286 1_454
Cr0 Se3 2.616219 1_445
Cr0 Se2 2.616224 1_554
Cr0 Rh0 2.883772 1_554
Cr0 Rh1 2.883772 1_445
Rh0 Se3 2.470115 1_545
Rh0 Se3 2.470115 1_455
Rh0 Se2 2.498462 1_555
Rh0 Se0 2.584626 1_555
Rh0 Se1 2.622731 1_456
Rh0 Se1 2.622731 1_546
Rh1 Se2 2.470112 1_655
Rh1 Se2 2.470112 1_565
Rh1 Se3 2.498457 1_555
Rh1 Se1 2.584626 1_555
Rh1 Se0 2.622731 1_564
Rh1 Se0 2.622731 1_654
