# generated using pymatgen
data_KGd(SeO4)2
_symmetry_space_group_name_H-M   'P 1'
_cell_length_a   5.77999658
_cell_length_b   28.03221090
_cell_length_c   9.20517450
_cell_angle_alpha   90.00000000
_cell_angle_beta   90.00000000
_cell_angle_gamma   90.00000000
_symmetry_Int_Tables_number   1
_chemical_formula_structural   KGd(SeO4)2
_chemical_formula_sum   'K8 Gd8 Se16 O64'
_cell_volume   1491.47836878
_cell_formula_units_Z   8
loop_
 _symmetry_equiv_pos_site_id
 _symmetry_equiv_pos_as_xyz
  1  'x, y, z'
loop_
 _atom_site_type_symbol
 _atom_site_label
 _atom_site_symmetry_multiplicity
 _atom_site_fract_x
 _atom_site_fract_y
 _atom_site_fract_z
 _atom_site_occupancy
  K  K0  1  0.24473688  0.91876879  0.66038024  1
  K  K1  1  0.75526312  0.08123121  0.16038024  1
  K  K2  1  0.25526312  0.41876879  0.66038024  1
  K  K3  1  0.74473688  0.58123121  0.16038024  1
  K  K4  1  0.71348428  0.83225663  0.99893928  1
  K  K5  1  0.28651572  0.16774337  0.49893928  1
  K  K6  1  0.78651572  0.33225663  0.99893928  1
  K  K7  1  0.21348428  0.66774337  0.49893928  1
  Gd  Gd0  1  0.72473569  0.55290519  0.63197808  1
  Gd  Gd1  1  0.27526431  0.44709481  0.13197808  1
  Gd  Gd2  1  0.77526431  0.05290519  0.63197808  1
  Gd  Gd3  1  0.22473569  0.94709481  0.13197808  1
  Gd  Gd4  1  0.67749361  0.80118877  0.53640724  1
  Gd  Gd5  1  0.32250639  0.19881123  0.03640724  1
  Gd  Gd6  1  0.82250639  0.30118877  0.53640724  1
  Gd  Gd7  1  0.17749361  0.69881123  0.03640724  1
  Se  Se0  1  0.21008400  0.79301695  0.73591239  1
  Se  Se1  1  0.78991600  0.20698305  0.23591239  1
  Se  Se2  1  0.28991600  0.29301695  0.73591239  1
  Se  Se3  1  0.71008400  0.70698305  0.23591239  1
  Se  Se4  1  0.73478727  0.93323295  0.40278961  1
  Se  Se5  1  0.26521273  0.06676705  0.90278961  1
  Se  Se6  1  0.76521273  0.43323295  0.40278961  1
  Se  Se7  1  0.23478727  0.56676705  0.90278961  1
  Se  Se8  1  0.69035190  0.68264698  0.76995385  1
  Se  Se9  1  0.30964810  0.31735302  0.26995385  1
  Se  Se10  1  0.80964810  0.18264698  0.76995385  1
  Se  Se11  1  0.19035190  0.81735302  0.26995385  1
  Se  Se12  1  0.76373987  0.95557851  0.93002317  1
  Se  Se13  1  0.23626013  0.04442149  0.43002317  1
  Se  Se14  1  0.73626013  0.45557851  0.93002317  1
  Se  Se15  1  0.26373987  0.54442149  0.43002317  1
  O  O0  1  0.42453413  0.68232076  0.84144075  1
  O  O1  1  0.57546587  0.31767924  0.34144075  1
  O  O2  1  0.07546587  0.18232076  0.84144075  1
  O  O3  1  0.92453413  0.81767924  0.34144075  1
  O  O4  1  0.54472818  0.92310675  0.26987000  1
  O  O5  1  0.45527182  0.07689325  0.76987000  1
  O  O6  1  0.95527182  0.42310675  0.26987000  1
  O  O7  1  0.04472818  0.57689325  0.76987000  1
  O  O8  1  0.69049945  0.98843819  0.46500728  1
  O  O9  1  0.30950055  0.01156181  0.96500728  1
  O  O10  1  0.80950055  0.48843819  0.46500728  1
  O  O11  1  0.19049945  0.51156181  0.96500728  1
  O  O12  1  0.88277792  0.66844953  0.89793789  1
  O  O13  1  0.11722208  0.33155047  0.39793789  1
  O  O14  1  0.61722208  0.16844953  0.89793789  1
  O  O15  1  0.38277792  0.83155047  0.39793789  1
  O  O16  1  0.26887324  0.75518267  0.60216776  1
  O  O17  1  0.73112676  0.24481733  0.10216776  1
  O  O18  1  0.23112676  0.25518267  0.60216776  1
  O  O19  1  0.76887324  0.74481733  0.10216776  1
  O  O20  1  0.74781495  0.98271403  0.76967489  1
  O  O21  1  0.25218505  0.01728597  0.26967489  1
  O  O22  1  0.75218505  0.48271403  0.76967489  1
  O  O23  1  0.24781495  0.51728597  0.26967489  1
  O  O24  1  0.66984943  0.72964951  0.40155545  1
  O  O25  1  0.33015057  0.27035049  0.90155545  1
  O  O26  1  0.83015057  0.22964951  0.40155545  1
  O  O27  1  0.16984943  0.77035049  0.90155545  1
  O  O28  1  0.75391976  0.73682968  0.70597176  1
  O  O29  1  0.24608024  0.26317032  0.20597176  1
  O  O30  1  0.74608024  0.23682968  0.70597176  1
  O  O31  1  0.25391976  0.76317032  0.20597176  1
  O  O32  1  0.70296795  0.89365899  0.53723090  1
  O  O33  1  0.29703205  0.10634101  0.03723090  1
  O  O34  1  0.79703205  0.39365899  0.53723090  1
  O  O35  1  0.20296795  0.60634101  0.03723090  1
  O  O36  1  0.70369392  0.64245744  0.63626992  1
  O  O37  1  0.29630608  0.35754256  0.13626992  1
  O  O38  1  0.79630608  0.14245744  0.63626992  1
  O  O39  1  0.20369392  0.85754256  0.13626992  1
  O  O40  1  0.44392785  0.82919980  0.74057241  1
  O  O41  1  0.55607215  0.17080020  0.24057241  1
  O  O42  1  0.05607215  0.32919980  0.74057241  1
  O  O43  1  0.94392785  0.67080020  0.24057241  1
  O  O44  1  0.52002844  0.92380360  0.95285513  1
  O  O45  1  0.47997156  0.07619640  0.45285513  1
  O  O46  1  0.97997156  0.42380360  0.95285513  1
  O  O47  1  0.02002844  0.57619640  0.45285513  1
  O  O48  1  0.50456367  0.57207277  0.83790593  1
  O  O49  1  0.49543633  0.42792723  0.33790593  1
  O  O50  1  0.99543633  0.07207277  0.83790593  1
  O  O51  1  0.00456367  0.92792723  0.33790593  1
  O  O52  1  0.98813284  0.91698737  0.92819583  1
  O  O53  1  0.01186716  0.08301263  0.42819583  1
  O  O54  1  0.51186716  0.41698737  0.92819583  1
  O  O55  1  0.48813284  0.58301263  0.42819583  1
  O  O56  1  0.32877325  0.51021732  0.57316526  1
  O  O57  1  0.67122675  0.48978268  0.07316526  1
  O  O58  1  0.17122675  0.01021732  0.57316526  1
  O  O59  1  0.82877325  0.98978268  0.07316526  1
  O  O60  1  0.97981319  0.82706304  0.69509498  1
  O  O61  1  0.02018681  0.17293696  0.19509498  1
  O  O62  1  0.52018681  0.32706304  0.69509498  1
  O  O63  1  0.47981319  0.67293696  0.19509498  1
loop_
_geom_bond_atom_site_label_1
_geom_bond_atom_site_label_2
_geom_bond_distance
_geom_bond_site_symmetry_2
K0 O58 2.719673 1_565
K0 O40 2.859136 1_555
K0 O52 2.877488 1_455
K0 O32 2.965716 1_555
K0 O60 3.009226 1_455
K0 O44 3.130523 1_555
K0 O51 3.287035 1_555
K1 O59 2.719673 1_545
K1 O41 2.859136 1_555
K1 O53 2.877488 1_655
K1 O33 2.965716 1_555
K1 O61 3.009226 1_655
K1 O45 3.130523 1_555
K1 O50 3.287035 1_554
K2 O56 2.719673 1_555
K2 O42 2.859136 1_555
K2 O54 2.877488 1_555
K2 O34 2.965716 1_455
K2 O62 3.009226 1_555
K2 O46 3.130523 1_455
K2 O49 3.287035 1_555
K3 O57 2.719673 1_555
K3 O43 2.859136 1_555
K3 O55 2.877488 1_555
K3 O35 2.965716 1_655
K3 O63 3.009226 1_555
K3 O47 3.130523 1_655
K3 O48 3.287035 1_554
K4 O19 2.648286 1_556
K4 O44 2.831251 1_555
K4 O40 2.844501 1_555
K4 O52 2.930128 1_555
K4 O39 3.182565 1_656
K4 O60 3.195897 1_555
K4 O27 3.282228 1_655
K4 O39 3.283730 1_556
K4 O3 3.405161 1_556
K5 O18 2.648286 1_555
K5 O45 2.831251 1_555
K5 O41 2.844501 1_555
K5 O53 2.930128 1_555
K5 O38 3.182565 1_455
K5 O61 3.195897 1_555
K5 O26 3.282228 1_455
K5 O38 3.283730 1_555
K5 O2 3.405161 1_555
K6 O17 2.648286 1_556
K6 O46 2.831251 1_555
K6 O42 2.844501 1_655
K6 O54 2.930128 1_555
K6 O37 3.182565 1_556
K6 O62 3.195897 1_555
K6 O25 3.282228 1_555
K6 O37 3.283730 1_656
K6 O1 3.405161 1_556
K7 O16 2.648286 1_555
K7 O47 2.831251 1_555
K7 O43 2.844501 1_455
K7 O55 2.930128 1_555
K7 O36 3.182565 1_555
K7 O63 3.195897 1_555
K7 O24 3.282228 1_555
K7 O36 3.283730 1_455
K7 O0 3.405161 1_555
Gd0 O7 2.341837 1_655
Gd0 O48 2.345528 1_555
Gd0 O22 2.345909 1_555
Gd0 O10 2.422436 1_555
Gd0 O47 2.461331 1_655
Gd0 O55 2.470090 1_555
Gd0 O36 2.513602 1_555
Gd0 O56 2.638750 1_555
Gd1 O6 2.341837 1_455
Gd1 O49 2.345528 1_555
Gd1 O23 2.345909 1_555
Gd1 O11 2.422436 1_554
Gd1 O46 2.461331 1_454
Gd1 O54 2.470090 1_554
Gd1 O37 2.513602 1_555
Gd1 O57 2.638750 1_555
Gd2 O5 2.341837 1_555
Gd2 O50 2.345528 1_555
Gd2 O20 2.345909 1_545
Gd2 O8 2.422436 1_545
Gd2 O45 2.461331 1_555
Gd2 O53 2.470090 1_655
Gd2 O38 2.513602 1_555
Gd2 O58 2.638750 1_655
Gd3 O4 2.341837 1_555
Gd3 O51 2.345528 1_555
Gd3 O21 2.345909 1_565
Gd3 O9 2.422436 1_564
Gd3 O44 2.461331 1_554
Gd3 O52 2.470090 1_454
Gd3 O39 2.513602 1_555
Gd3 O59 2.638750 1_455
Gd4 O15 2.291470 1_555
Gd4 O3 2.339555 1_555
Gd4 O24 2.358921 1_555
Gd4 O60 2.390250 1_555
Gd4 O28 2.426176 1_555
Gd4 O40 2.443591 1_555
Gd4 O32 2.596334 1_555
Gd4 O16 2.758233 1_555
Gd5 O14 2.291470 1_554
Gd5 O2 2.339555 1_554
Gd5 O25 2.358921 1_554
Gd5 O61 2.390250 1_555
Gd5 O29 2.426176 1_555
Gd5 O41 2.443591 1_555
Gd5 O33 2.596334 1_555
Gd5 O17 2.758233 1_555
Gd6 O13 2.291470 1_655
Gd6 O1 2.339555 1_555
Gd6 O26 2.358921 1_555
Gd6 O62 2.390250 1_555
Gd6 O30 2.426176 1_555
Gd6 O42 2.443591 1_655
Gd6 O34 2.596334 1_555
Gd6 O18 2.758233 1_655
Gd7 O12 2.291470 1_454
Gd7 O0 2.339555 1_554
Gd7 O27 2.358921 1_554
Gd7 O63 2.390250 1_555
Gd7 O31 2.426176 1_555
Gd7 O43 2.443591 1_455
Gd7 O35 2.596334 1_555
Gd7 O19 2.758233 1_455
O0 Se8 1.671442 1_555
O1 Se9 1.671442 1_555
O2 Se10 1.671442 1_455
O3 Se11 1.671442 1_655
O4 Se4 1.668664 1_555
O5 Se5 1.668664 1_555
O6 Se6 1.668664 1_555
O7 Se7 1.668664 1_555
O8 Se4 1.669843 1_555
O9 Se5 1.669843 1_555
O10 Se6 1.669843 1_555
O11 Se7 1.669843 1_555
O12 Se8 1.668348 1_555
O13 Se9 1.668348 1_555
O14 Se10 1.668348 1_555
O15 Se11 1.668348 1_555
O16 Se0 1.660122 1_555
O17 Se1 1.660122 1_555
O18 Se2 1.660122 1_555
O19 Se3 1.660122 1_555
O20 Se12 1.663059 1_555
O21 Se13 1.663059 1_555
O22 Se14 1.663059 1_555
O23 Se15 1.663059 1_555
O24 Se3 1.668154 1_555
O25 Se2 1.668154 1_555
O26 Se1 1.668154 1_555
O27 Se0 1.668154 1_555
O28 Se8 1.669976 1_555
O29 Se9 1.669976 1_555
O30 Se10 1.669976 1_555
O31 Se11 1.669976 1_555
O32 Se4 1.672129 1_555
O33 Se5 1.672129 1_554
O34 Se6 1.672129 1_555
O35 Se7 1.672129 1_554
O36 Se8 1.670184 1_555
O37 Se9 1.670184 1_555
O38 Se10 1.670184 1_555
O39 Se11 1.670184 1_555
O40 Se0 1.690409 1_555
O41 Se1 1.690409 1_555
O42 Se2 1.690409 1_555
O43 Se3 1.690409 1_555
O44 Se12 1.679838 1_555
O45 Se13 1.679838 1_555
O46 Se14 1.679838 1_555
O47 Se15 1.679838 1_555
O48 Se7 1.676390 1_555
O49 Se6 1.676390 1_555
O50 Se5 1.676390 1_655
O51 Se4 1.676390 1_455
O52 Se12 1.689008 1_555
O53 Se13 1.689008 1_555
O54 Se14 1.689008 1_555
O55 Se15 1.689008 1_555
O56 Se15 1.672371 1_555
O57 Se14 1.672371 1_554
O58 Se13 1.672371 1_555
O59 Se12 1.672371 1_554
O60 Se0 1.680326 1_655
O61 Se1 1.680326 1_455
O62 Se2 1.680326 1_555
O63 Se3 1.680326 1_555
