# generated using pymatgen
data_Mg149Sc
_symmetry_space_group_name_H-M   'P 1'
_cell_length_a   15.94400128
_cell_length_b   15.94400698
_cell_length_c   15.58741473
_cell_angle_alpha   90.00000000
_cell_angle_beta   90.00000000
_cell_angle_gamma   120.00001183
_symmetry_Int_Tables_number   1
_chemical_formula_structural   Mg149Sc
_chemical_formula_sum   'Mg149 Sc1'
_cell_volume   3431.62218640
_cell_formula_units_Z   1
loop_
 _symmetry_equiv_pos_site_id
 _symmetry_equiv_pos_as_xyz
  1  'x, y, z'
loop_
 _atom_site_type_symbol
 _atom_site_label
 _atom_site_symmetry_multiplicity
 _atom_site_fract_x
 _atom_site_fract_y
 _atom_site_fract_z
 _atom_site_occupancy
  Mg  Mg0  1  0.60071141  0.99999147  0.00000000  1
  Mg  Mg1  1  0.39928105  0.99999147  0.00000000  1
  Mg  Mg2  1  0.59985155  0.19970210  0.00000000  1
  Mg  Mg3  1  0.00149548  0.20064499  0.00000000  1
  Mg  Mg4  1  0.19915051  0.20064499  0.00000000  1
  Mg  Mg5  1  0.79967734  0.20032266  0.00000000  1
  Mg  Mg6  1  0.40064531  0.20032266  0.00000000  1
  Mg  Mg7  1  0.00000853  0.39928959  0.00000000  1
  Mg  Mg8  1  0.39928105  0.39928959  0.00000000  1
  Mg  Mg9  1  0.80029790  0.40014945  0.00000000  1
  Mg  Mg10  1  0.59985155  0.40014945  0.00000000  1
  Mg  Mg11  1  0.20064747  0.40129595  0.00000000  1
  Mg  Mg12  1  0.79967734  0.59935469  0.00000000  1
  Mg  Mg13  1  0.39994171  0.60005729  0.00000000  1
  Mg  Mg14  1  0.20011558  0.60005729  0.00000000  1
  Mg  Mg15  1  0.60071141  0.60071995  0.00000000  1
  Mg  Mg16  1  0.00000853  0.60071995  0.00000000  1
  Mg  Mg17  1  0.20064747  0.79935153  0.00000000  1
  Mg  Mg18  1  0.59870405  0.79935153  0.00000000  1
  Mg  Mg19  1  0.39994171  0.79988442  0.00000000  1
  Mg  Mg20  1  0.00149548  0.80084949  0.00000000  1
  Mg  Mg21  1  0.79935501  0.80084949  0.00000000  1
  Mg  Mg22  1  0.79935501  0.99850452  0.00000000  1
  Mg  Mg23  1  0.19915051  0.99850552  0.00000000  1
  Mg  Mg24  1  0.26531130  0.13265565  0.16544452  1
  Mg  Mg25  1  0.86734435  0.13265565  0.16544452  1
  Mg  Mg26  1  0.86734435  0.73468870  0.16544452  1
  Mg  Mg27  1  0.06662725  0.13325350  0.16655088  1
  Mg  Mg28  1  0.86674650  0.93337375  0.16655088  1
  Mg  Mg29  1  0.06662725  0.93337375  0.16655088  1
  Mg  Mg30  1  0.66666700  0.33333300  0.16619712  1
  Mg  Mg31  1  0.66710338  0.13307448  0.16653146  1
  Mg  Mg32  1  0.46597111  0.13307448  0.16653146  1
  Mg  Mg33  1  0.46597111  0.33289662  0.16653146  1
  Mg  Mg34  1  0.86692552  0.33289662  0.16653146  1
  Mg  Mg35  1  0.66710338  0.53402889  0.16653146  1
  Mg  Mg36  1  0.86692552  0.53402889  0.16653146  1
  Mg  Mg37  1  0.46669774  0.53330226  0.16677710  1
  Mg  Mg38  1  0.06660451  0.53330226  0.16677710  1
  Mg  Mg39  1  0.46669774  0.93339649  0.16677710  1
  Mg  Mg40  1  0.26691570  0.33435674  0.16703801  1
  Mg  Mg41  1  0.06744104  0.33435674  0.16703801  1
  Mg  Mg42  1  0.66564326  0.73308430  0.16703801  1
  Mg  Mg43  1  0.06744104  0.73308430  0.16703801  1
  Mg  Mg44  1  0.66564326  0.93255896  0.16703801  1
  Mg  Mg45  1  0.26691570  0.93255896  0.16703801  1
  Mg  Mg46  1  0.26689873  0.53379745  0.16702805  1
  Mg  Mg47  1  0.26689873  0.73310127  0.16702805  1
  Mg  Mg48  1  0.46620255  0.73310127  0.16702805  1
  Mg  Mg49  1  0.19989797  0.99986767  0.33282090  1
  Mg  Mg50  1  0.79996970  0.99986867  0.33282090  1
  Mg  Mg51  1  0.00013233  0.20003030  0.33282090  1
  Mg  Mg52  1  0.19989797  0.20003030  0.33282090  1
  Mg  Mg53  1  0.79996970  0.80010203  0.33282090  1
  Mg  Mg54  1  0.00013233  0.80010203  0.33282090  1
  Mg  Mg55  1  0.59994824  0.19989748  0.33295147  1
  Mg  Mg56  1  0.80010252  0.40005076  0.33295147  1
  Mg  Mg57  1  0.59994824  0.40005076  0.33295147  1
  Mg  Mg58  1  0.39969418  0.19984759  0.33317006  1
  Mg  Mg59  1  0.80015241  0.19984759  0.33317006  1
  Mg  Mg60  1  0.80015241  0.60030582  0.33317006  1
  Mg  Mg61  1  0.60001082  0.00008153  0.33341994  1
  Mg  Mg62  1  0.40007171  0.00008253  0.33341994  1
  Mg  Mg63  1  0.99991747  0.39998918  0.33341994  1
  Mg  Mg64  1  0.40007171  0.39998918  0.33341994  1
  Mg  Mg65  1  0.99991747  0.59992829  0.33341994  1
  Mg  Mg66  1  0.60001082  0.59992929  0.33341994  1
  Mg  Mg67  1  0.40006780  0.59993220  0.33358321  1
  Mg  Mg68  1  0.19986439  0.59993220  0.33358321  1
  Mg  Mg69  1  0.40006780  0.80013461  0.33358321  1
  Mg  Mg70  1  0.20014248  0.40028496  0.33383269  1
  Mg  Mg71  1  0.20014248  0.79985752  0.33383269  1
  Mg  Mg72  1  0.59971404  0.79985752  0.33383269  1
  Mg  Mg73  1  0.00000000  0.00000000  0.33415889  1
  Mg  Mg74  1  0.26658319  0.13329159  0.50000000  1
  Mg  Mg75  1  0.86670841  0.13329159  0.50000000  1
  Mg  Mg76  1  0.06669871  0.13339743  0.50000000  1
  Mg  Mg77  1  0.66700650  0.13391446  0.50000000  1
  Mg  Mg78  1  0.46690795  0.13391446  0.50000000  1
  Mg  Mg79  1  0.46690795  0.33299250  0.50000000  1
  Mg  Mg80  1  0.86608554  0.33299350  0.50000000  1
  Mg  Mg81  1  0.06649333  0.33308937  0.50000000  1
  Mg  Mg82  1  0.26659604  0.33308937  0.50000000  1
  Mg  Mg83  1  0.66666700  0.33333300  0.50000000  1
  Mg  Mg84  1  0.86608554  0.53309305  0.50000000  1
  Mg  Mg85  1  0.66700650  0.53309305  0.50000000  1
  Mg  Mg86  1  0.46699440  0.53300560  0.50000000  1
  Mg  Mg87  1  0.06601120  0.53300560  0.50000000  1
  Mg  Mg88  1  0.26662236  0.53324571  0.50000000  1
  Mg  Mg89  1  0.06649333  0.73340396  0.50000000  1
  Mg  Mg90  1  0.66691063  0.73340396  0.50000000  1
  Mg  Mg91  1  0.26662236  0.73337764  0.50000000  1
  Mg  Mg92  1  0.46675529  0.73337764  0.50000000  1
  Mg  Mg93  1  0.86670841  0.73341681  0.50000000  1
  Mg  Mg94  1  0.06669871  0.93330129  0.50000000  1
  Mg  Mg95  1  0.86660257  0.93330129  0.50000000  1
  Mg  Mg96  1  0.26659604  0.93350667  0.50000000  1
  Mg  Mg97  1  0.66691063  0.93350667  0.50000000  1
  Mg  Mg98  1  0.46699440  0.93398880  0.50000000  1
  Mg  Mg99  1  0.00000000  0.00000000  0.66584111  1
  Mg  Mg100  1  0.20014248  0.40028496  0.66616831  1
  Mg  Mg101  1  0.20014248  0.79985752  0.66616831  1
  Mg  Mg102  1  0.59971404  0.79985752  0.66616831  1
  Mg  Mg103  1  0.40006780  0.59993220  0.66641679  1
  Mg  Mg104  1  0.19986439  0.59993220  0.66641679  1
  Mg  Mg105  1  0.40006780  0.80013461  0.66641679  1
  Mg  Mg106  1  0.60001082  0.00008153  0.66658006  1
  Mg  Mg107  1  0.40007171  0.00008253  0.66658006  1
  Mg  Mg108  1  0.99991747  0.39998918  0.66658006  1
  Mg  Mg109  1  0.40007171  0.39998918  0.66658006  1
  Mg  Mg110  1  0.99991747  0.59992829  0.66658006  1
  Mg  Mg111  1  0.60001082  0.59992929  0.66658006  1
  Mg  Mg112  1  0.39969418  0.19984759  0.66682994  1
  Mg  Mg113  1  0.80015241  0.19984759  0.66682994  1
  Mg  Mg114  1  0.80015241  0.60030582  0.66682994  1
  Mg  Mg115  1  0.59994824  0.19989748  0.66704753  1
  Mg  Mg116  1  0.80010252  0.40005076  0.66704753  1
  Mg  Mg117  1  0.59994824  0.40005076  0.66704753  1
  Mg  Mg118  1  0.19989797  0.99986767  0.66717910  1
  Mg  Mg119  1  0.79996970  0.99986867  0.66717910  1
  Mg  Mg120  1  0.00013233  0.20003030  0.66717910  1
  Mg  Mg121  1  0.19989797  0.20003030  0.66717910  1
  Mg  Mg122  1  0.79996970  0.80010203  0.66717910  1
  Mg  Mg123  1  0.00013233  0.80010203  0.66717910  1
  Mg  Mg124  1  0.26689873  0.53379745  0.83297195  1
  Mg  Mg125  1  0.26689873  0.73310127  0.83297195  1
  Mg  Mg126  1  0.46620255  0.73310127  0.83297195  1
  Mg  Mg127  1  0.26691570  0.33435674  0.83296199  1
  Mg  Mg128  1  0.06744104  0.33435674  0.83296199  1
  Mg  Mg129  1  0.66564326  0.73308430  0.83296199  1
  Mg  Mg130  1  0.06744104  0.73308430  0.83296199  1
  Mg  Mg131  1  0.66564326  0.93255896  0.83296199  1
  Mg  Mg132  1  0.26691570  0.93255896  0.83296199  1
  Mg  Mg133  1  0.46669774  0.53330226  0.83322290  1
  Mg  Mg134  1  0.06660451  0.53330226  0.83322290  1
  Mg  Mg135  1  0.46669774  0.93339649  0.83322290  1
  Mg  Mg136  1  0.66710338  0.13307448  0.83346854  1
  Mg  Mg137  1  0.46597111  0.13307448  0.83346854  1
  Mg  Mg138  1  0.46597111  0.33289662  0.83346854  1
  Mg  Mg139  1  0.86692552  0.33289662  0.83346854  1
  Mg  Mg140  1  0.66710338  0.53402889  0.83346854  1
  Mg  Mg141  1  0.86692552  0.53402889  0.83346854  1
  Mg  Mg142  1  0.66666700  0.33333300  0.83380288  1
  Mg  Mg143  1  0.06662725  0.13325350  0.83344812  1
  Mg  Mg144  1  0.86674650  0.93337375  0.83344812  1
  Mg  Mg145  1  0.06662725  0.93337375  0.83344812  1
  Mg  Mg146  1  0.26531130  0.13265565  0.83455548  1
  Mg  Mg147  1  0.86734435  0.13265565  0.83455548  1
  Mg  Mg148  1  0.86734435  0.73468870  0.83455548  1
  Sc  Sc0  1  0.00000000  0.00000000  0.00000000  1
loop_
_geom_bond_atom_site_label_1
_geom_bond_atom_site_label_2
_geom_bond_distance
_geom_bond_site_symmetry_2
Mg0 Mg22 3.179094 1_555
Mg0 Mg136 3.180397 1_564
Mg0 Mg31 3.180397 1_565
Mg0 Mg131 3.181195 1_554
Mg0 Mg44 3.181195 1_555
Mg0 Mg18 3.183123 1_555
Mg0 Mg5 3.183253 1_565
Mg0 Mg39 3.190963 1_555
Mg0 Mg135 3.190963 1_554
Mg0 Mg2 3.191065 1_565
Mg0 Mg19 3.195803 1_555
Mg0 Mg1 3.211606 1_555
Mg1 Mg23 3.179102 1_555
Mg1 Mg137 3.180397 1_564
Mg1 Mg32 3.180397 1_565
Mg1 Mg132 3.181202 1_554
Mg1 Mg45 3.181202 1_555
Mg1 Mg17 3.183129 1_555
Mg1 Mg6 3.183262 1_565
Mg1 Mg39 3.190948 1_555
Mg1 Mg135 3.190948 1_554
Mg1 Mg2 3.191064 1_565
Mg1 Mg19 3.195788 1_555
Mg2 Mg30 3.180527 1_555
Mg2 Mg5 3.181087 1_555
Mg2 Mg6 3.181103 1_555
Mg2 Mg31 3.186767 1_555
Mg2 Mg32 3.186774 1_555
Mg2 Mg9 3.195925 1_555
Mg3 Mg4 3.151412 1_555
Mg3 Mg7 3.179111 1_555
Mg3 Sc0 3.187230 1_555
Mg3 Mg41 3.191891 1_555
Mg3 Mg5 3.215222 1_455
Mg4 Mg8 3.179102 1_555
Mg4 Sc0 3.187237 1_555
Mg4 Mg40 3.191891 1_555
Mg4 Mg6 3.215206 1_555
Mg5 Mg9 3.181104 1_555
Mg5 Mg7 3.183261 1_655
Mg6 Mg8 3.183262 1_555
Mg7 Mg9 3.191063 1_455
Mg10 Mg142 3.180535 1_554
Mg10 Mg30 3.180535 1_555
Mg10 Mg12 3.181087 1_555
Mg10 Mg6 3.181103 1_555
Mg10 Mg140 3.186767 1_554
Mg10 Mg35 3.186767 1_555
Mg10 Mg138 3.186774 1_554
Mg10 Mg33 3.186774 1_555
Mg10 Mg8 3.191064 1_555
Mg10 Mg15 3.191065 1_555
Mg10 Mg9 3.195917 1_555
Mg10 Mg2 3.195934 1_555
Mg11 Mg14 3.173301 1_555
Mg11 Mg13 3.173308 1_555
Mg11 Mg124 3.182094 1_554
Mg11 Mg46 3.182094 1_555
Mg11 Mg7 3.183113 1_555
Mg11 Mg8 3.183129 1_555
Mg11 Mg3 3.187297 1_555
Mg11 Mg4 3.187314 1_555
Mg11 Mg128 3.187831 1_554
Mg11 Mg41 3.187831 1_555
Mg11 Mg127 3.187839 1_554
Mg11 Mg40 3.187839 1_555
Mg12 Mg140 3.176377 1_554
Mg12 Mg35 3.176377 1_555
Mg12 Mg141 3.176377 1_554
Mg12 Mg36 3.176377 1_555
Mg12 Mg9 3.181088 1_555
Mg12 Mg16 3.183253 1_655
Mg12 Mg15 3.183253 1_555
Mg12 Mg148 3.184721 1_554
Mg12 Mg26 3.184721 1_555
Mg12 Mg21 3.215207 1_555
Mg12 Mg20 3.215214 1_655
Mg13 Mg18 3.173316 1_555
Mg13 Mg14 3.186028 1_555
Mg13 Mg19 3.186045 1_555
Mg13 Mg46 3.186401 1_555
Mg13 Mg48 3.186409 1_555
Mg13 Mg37 3.186937 1_555
Mg13 Mg133 3.186937 1_554
Mg13 Mg8 3.195788 1_555
Mg13 Mg15 3.195803 1_555
Mg14 Mg17 3.173317 1_555
Mg14 Mg19 3.186036 1_555
Mg14 Mg46 3.186401 1_555
Mg14 Mg47 3.186409 1_555
Mg14 Mg38 3.186937 1_555
Mg14 Mg7 3.195787 1_555
Mg14 Mg16 3.195803 1_555
Mg15 Mg21 3.179086 1_555
Mg15 Mg35 3.180397 1_555
Mg15 Mg42 3.181195 1_555
Mg15 Mg18 3.183107 1_555
Mg15 Mg37 3.190963 1_555
Mg15 Mg8 3.211606 1_555
Mg16 Mg20 3.179079 1_555
Mg16 Mg36 3.180397 1_455
Mg16 Mg43 3.181195 1_555
Mg16 Mg17 3.183106 1_555
Mg16 Mg38 3.190964 1_555
Mg16 Mg9 3.191064 1_455
Mg16 Mg7 3.211607 1_555
Mg17 Mg19 3.173308 1_555
Mg17 Mg47 3.182094 1_555
Mg17 Mg20 3.187288 1_555
Mg17 Mg23 3.187313 1_555
Mg17 Mg43 3.187831 1_555
Mg17 Mg45 3.187839 1_555
Mg18 Mg19 3.173324 1_555
Mg18 Mg48 3.182093 1_555
Mg18 Mg22 3.187304 1_555
Mg18 Mg21 3.187305 1_555
Mg18 Mg42 3.187831 1_555
Mg18 Mg44 3.187839 1_555
Mg19 Mg47 3.186401 1_555
Mg19 Mg48 3.186409 1_555
Mg19 Mg39 3.186945 1_555
Mg20 Mg23 3.151420 1_555
Mg20 Mg26 3.175198 1_455
Mg20 Mg29 3.176243 1_555
Mg20 Sc0 3.187246 1_565
Mg20 Mg43 3.191883 1_555
Mg20 Mg21 3.222928 1_455
Mg21 Mg22 3.151413 1_555
Mg21 Mg26 3.175190 1_555
Mg21 Mg28 3.176243 1_555
Mg21 Sc0 3.187237 1_665
Mg21 Mg42 3.191890 1_555
Mg22 Mg25 3.175198 1_565
Mg22 Mg28 3.176227 1_555
Mg22 Sc0 3.187229 1_665
Mg22 Mg44 3.191890 1_555
Mg22 Mg5 3.215223 1_565
Mg22 Mg3 3.222928 1_665
Mg23 Mg24 3.175190 1_565
Mg23 Mg29 3.176235 1_555
Mg23 Sc0 3.187237 1_565
Mg23 Mg45 3.191891 1_555
Mg23 Mg6 3.215206 1_565
Mg23 Mg4 3.222913 1_565
Mg24 Mg27 3.172642 1_555
Mg24 Mg29 3.172642 1_545
Mg24 Mg4 3.175190 1_555
Mg24 Mg6 3.184720 1_555
Mg24 Mg52 3.188849 1_555
Mg24 Mg49 3.188849 1_545
Mg24 Mg33 3.196031 1_555
Mg24 Mg32 3.196031 1_555
Mg24 Mg40 3.203306 1_555
Mg24 Mg45 3.203306 1_545
Mg24 Mg58 3.205960 1_555
Mg25 Mg28 3.172644 1_545
Mg25 Mg27 3.172658 1_655
Mg25 Mg3 3.175198 1_655
Mg25 Mg5 3.184721 1_555
Mg25 Mg50 3.188841 1_545
Mg25 Mg51 3.188848 1_655
Mg25 Mg31 3.196031 1_555
Mg25 Mg34 3.196032 1_555
Mg25 Mg44 3.203305 1_545
Mg25 Mg41 3.203305 1_655
Mg25 Mg59 3.205968 1_555
Mg26 Mg29 3.172658 1_655
Mg26 Mg28 3.172659 1_555
Mg26 Mg54 3.188848 1_655
Mg26 Mg53 3.188849 1_555
Mg26 Mg35 3.196031 1_555
Mg26 Mg36 3.196033 1_555
Mg26 Mg42 3.203305 1_555
Mg26 Mg43 3.203305 1_655
Mg26 Mg60 3.205960 1_555
Mg27 Mg4 3.176235 1_555
Mg27 Mg3 3.176235 1_555
Mg27 Mg52 3.178571 1_555
Mg27 Mg51 3.178580 1_555
Mg27 Sc0 3.182004 1_555
Mg27 Mg29 3.186884 1_545
Mg27 Mg28 3.186891 1_445
Mg27 Mg73 3.195462 1_555
Mg27 Mg40 3.199924 1_555
Mg27 Mg41 3.199933 1_555
Mg28 Mg53 3.178580 1_555
Mg28 Mg50 3.178580 1_555
Mg28 Sc0 3.182004 1_665
Mg28 Mg29 3.186899 1_655
Mg28 Mg73 3.195462 1_665
Mg28 Mg44 3.199924 1_555
Mg28 Mg42 3.199932 1_555
Mg29 Mg49 3.178571 1_555
Mg29 Mg54 3.178580 1_555
Mg29 Sc0 3.182004 1_565
Mg29 Mg73 3.195462 1_565
Mg29 Mg45 3.199924 1_555
Mg29 Mg43 3.199933 1_555
Mg30 Mg9 3.180527 1_555
Mg30 Mg56 3.186044 1_555
Mg30 Mg55 3.186045 1_555
Mg30 Mg57 3.186053 1_555
Mg30 Mg34 3.196411 1_555
Mg30 Mg31 3.196412 1_555
Mg30 Mg32 3.196419 1_555
Mg30 Mg36 3.196419 1_555
Mg30 Mg33 3.196427 1_555
Mg30 Mg35 3.196428 1_555
Mg31 Mg5 3.176377 1_555
Mg31 Mg59 3.181491 1_555
Mg31 Mg61 3.184237 1_555
Mg31 Mg44 3.185454 1_545
Mg31 Mg34 3.185964 1_555
Mg31 Mg55 3.186140 1_555
Mg31 Mg39 3.189485 1_545
Mg31 Mg32 3.206853 1_555
Mg32 Mg6 3.176377 1_555
Mg32 Mg58 3.181499 1_555
Mg32 Mg62 3.184229 1_555
Mg32 Mg45 3.185453 1_545
Mg32 Mg33 3.185966 1_555
Mg32 Mg55 3.186132 1_555
Mg32 Mg39 3.189478 1_545
Mg33 Mg6 3.176377 1_555
Mg33 Mg8 3.180397 1_555
Mg33 Mg58 3.181491 1_555
Mg33 Mg64 3.184229 1_555
Mg33 Mg40 3.185453 1_555
Mg33 Mg57 3.186132 1_555
Mg33 Mg37 3.189494 1_555
Mg33 Mg35 3.206853 1_555
Mg34 Mg5 3.176377 1_555
Mg34 Mg7 3.180397 1_655
Mg34 Mg59 3.181491 1_555
Mg34 Mg63 3.184229 1_555
Mg34 Mg41 3.185453 1_655
Mg34 Mg56 3.186132 1_555
Mg34 Mg9 3.186775 1_555
Mg34 Mg38 3.189493 1_655
Mg34 Mg36 3.206854 1_555
Mg35 Mg60 3.181491 1_555
Mg35 Mg66 3.184237 1_555
Mg35 Mg42 3.185455 1_555
Mg35 Mg36 3.185964 1_555
Mg35 Mg57 3.186140 1_555
Mg35 Mg37 3.189493 1_555
Mg36 Mg60 3.181499 1_555
Mg36 Mg65 3.184229 1_555
Mg36 Mg43 3.185453 1_655
Mg36 Mg56 3.186140 1_555
Mg36 Mg9 3.186767 1_555
Mg36 Mg38 3.189493 1_655
Mg37 Mg40 3.178680 1_555
Mg37 Mg42 3.178680 1_555
Mg37 Mg66 3.183649 1_555
Mg37 Mg64 3.183649 1_555
Mg37 Mg67 3.185302 1_555
Mg37 Mg46 3.189553 1_555
Mg37 Mg48 3.189554 1_555
Mg37 Mg8 3.190956 1_555
Mg38 Mg43 3.178681 1_555
Mg38 Mg41 3.178681 1_555
Mg38 Mg65 3.183649 1_455
Mg38 Mg63 3.183649 1_455
Mg38 Mg68 3.185301 1_555
Mg38 Mg47 3.189553 1_555
Mg38 Mg46 3.189553 1_555
Mg38 Mg7 3.190956 1_555
Mg39 Mg45 3.178672 1_555
Mg39 Mg44 3.178688 1_555
Mg39 Mg62 3.183641 1_565
Mg39 Mg61 3.183649 1_565
Mg39 Mg69 3.185317 1_555
Mg39 Mg47 3.189561 1_555
Mg39 Mg48 3.189570 1_555
Mg40 Mg64 3.179112 1_555
Mg40 Mg46 3.180019 1_555
Mg40 Mg41 3.180424 1_555
Mg40 Mg70 3.180715 1_555
Mg40 Mg52 3.180861 1_555
Mg40 Mg8 3.181202 1_555
Mg41 Mg63 3.179113 1_455
Mg41 Mg46 3.180018 1_555
Mg41 Mg70 3.180715 1_555
Mg41 Mg51 3.180861 1_555
Mg41 Mg7 3.181203 1_555
Mg42 Mg66 3.179105 1_555
Mg42 Mg48 3.180018 1_555
Mg42 Mg44 3.180425 1_555
Mg42 Mg72 3.180723 1_555
Mg42 Mg53 3.180861 1_555
Mg43 Mg65 3.179113 1_455
Mg43 Mg47 3.180018 1_555
Mg43 Mg45 3.180424 1_555
Mg43 Mg71 3.180715 1_555
Mg43 Mg54 3.180861 1_555
Mg44 Mg61 3.179105 1_565
Mg44 Mg48 3.180018 1_555
Mg44 Mg72 3.180715 1_555
Mg44 Mg50 3.180861 1_555
Mg45 Mg62 3.179112 1_565
Mg45 Mg47 3.180020 1_555
Mg45 Mg71 3.180715 1_555
Mg45 Mg49 3.180861 1_555
Mg46 Mg48 3.177700 1_555
Mg46 Mg47 3.177701 1_555
Mg46 Mg67 3.181392 1_555
Mg46 Mg68 3.181393 1_555
Mg46 Mg70 3.187299 1_555
Mg47 Mg48 3.177700 1_555
Mg47 Mg69 3.181392 1_555
Mg47 Mg68 3.181393 1_555
Mg47 Mg71 3.187299 1_555
Mg48 Mg69 3.181385 1_555
Mg48 Mg67 3.181393 1_555
Mg48 Mg72 3.187291 1_555
Mg49 Mg54 3.185064 1_555
Mg49 Mg58 3.187021 1_565
Mg49 Mg73 3.188297 1_565
Mg49 Mg96 3.188452 1_555
Mg49 Mg94 3.189566 1_555
Mg49 Mg62 3.189873 1_565
Mg49 Mg71 3.190953 1_555
Mg49 Mg74 3.191356 1_565
Mg49 Mg52 3.191394 1_565
Mg50 Mg53 3.185081 1_555
Mg50 Mg59 3.187014 1_565
Mg50 Mg73 3.188305 1_665
Mg50 Mg97 3.188451 1_555
Mg50 Mg95 3.189574 1_555
Mg50 Mg61 3.189857 1_565
Mg50 Mg72 3.190968 1_555
Mg50 Mg75 3.191348 1_565
Mg50 Mg51 3.191385 1_665
Mg51 Mg52 3.185064 1_555
Mg51 Mg59 3.187029 1_455
Mg51 Mg73 3.188298 1_555
Mg51 Mg81 3.188452 1_555
Mg51 Mg76 3.189566 1_555
Mg51 Mg63 3.189874 1_455
Mg51 Mg70 3.190952 1_555
Mg51 Mg75 3.191356 1_455
Mg52 Mg58 3.187013 1_555
Mg52 Mg73 3.188297 1_555
Mg52 Mg82 3.188452 1_555
Mg52 Mg76 3.189566 1_555
Mg52 Mg64 3.189873 1_555
Mg52 Mg70 3.190953 1_555
Mg52 Mg74 3.191356 1_555
Mg53 Mg60 3.187014 1_555
Mg53 Mg73 3.188297 1_665
Mg53 Mg90 3.188451 1_555
Mg53 Mg95 3.189566 1_555
Mg53 Mg66 3.189865 1_555
Mg53 Mg72 3.190968 1_555
Mg53 Mg93 3.191356 1_555
Mg53 Mg54 3.191393 1_655
Mg54 Mg60 3.187021 1_455
Mg54 Mg73 3.188298 1_565
Mg54 Mg89 3.188452 1_555
Mg54 Mg94 3.189566 1_555
Mg54 Mg65 3.189874 1_455
Mg54 Mg71 3.190952 1_555
Mg54 Mg93 3.191356 1_455
Mg55 Mg62 3.186349 1_555
Mg55 Mg61 3.186374 1_555
Mg55 Mg78 3.186649 1_555
Mg55 Mg77 3.186657 1_555
Mg55 Mg83 3.189787 1_555
Mg55 Mg57 3.191245 1_555
Mg55 Mg56 3.191252 1_555
Mg55 Mg58 3.192455 1_555
Mg55 Mg59 3.192455 1_555
Mg56 Mg63 3.186349 1_555
Mg56 Mg65 3.186357 1_555
Mg56 Mg80 3.186649 1_555
Mg56 Mg84 3.186665 1_555
Mg56 Mg83 3.189787 1_555
Mg56 Mg57 3.191260 1_555
Mg56 Mg59 3.192440 1_555
Mg56 Mg60 3.192472 1_555
Mg57 Mg64 3.186349 1_555
Mg57 Mg66 3.186374 1_555
Mg57 Mg79 3.186649 1_555
Mg57 Mg85 3.186665 1_555
Mg57 Mg83 3.189795 1_555
Mg57 Mg58 3.192447 1_555
Mg57 Mg60 3.192463 1_555
Mg58 Mg74 3.184417 1_555
Mg58 Mg79 3.184704 1_555
Mg58 Mg78 3.184720 1_555
Mg58 Mg64 3.188056 1_555
Mg58 Mg62 3.188072 1_555
Mg59 Mg75 3.184426 1_555
Mg59 Mg77 3.184712 1_555
Mg59 Mg80 3.184712 1_555
Mg59 Mg63 3.188063 1_555
Mg59 Mg61 3.188071 1_555
Mg60 Mg93 3.184418 1_555
Mg60 Mg85 3.184712 1_555
Mg60 Mg84 3.184712 1_555
Mg60 Mg66 3.188063 1_555
Mg60 Mg65 3.188071 1_555
Mg61 Mg98 3.180490 1_545
Mg61 Mg97 3.184143 1_545
Mg61 Mg77 3.187008 1_555
Mg61 Mg62 3.187837 1_555
Mg61 Mg69 3.187924 1_545
Mg61 Mg72 3.190016 1_545
Mg62 Mg98 3.180490 1_545
Mg62 Mg96 3.184150 1_545
Mg62 Mg78 3.187000 1_555
Mg62 Mg69 3.187941 1_545
Mg62 Mg71 3.190039 1_545
Mg63 Mg87 3.180490 1_655
Mg63 Mg81 3.184151 1_655
Mg63 Mg80 3.186999 1_555
Mg63 Mg65 3.187831 1_555
Mg63 Mg68 3.187924 1_655
Mg63 Mg70 3.190039 1_655
Mg64 Mg86 3.180490 1_555
Mg64 Mg82 3.184150 1_555
Mg64 Mg79 3.187008 1_555
Mg64 Mg66 3.187837 1_555
Mg64 Mg67 3.187925 1_555
Mg64 Mg70 3.190039 1_555
Mg65 Mg87 3.180490 1_655
Mg65 Mg89 3.184151 1_655
Mg65 Mg84 3.186999 1_555
Mg65 Mg68 3.187924 1_655
Mg65 Mg71 3.190039 1_655
Mg66 Mg86 3.180490 1_555
Mg66 Mg90 3.184143 1_555
Mg66 Mg85 3.187000 1_555
Mg66 Mg67 3.187916 1_555
Mg66 Mg72 3.190032 1_555
Mg67 Mg88 3.181833 1_555
Mg67 Mg92 3.181833 1_555
Mg67 Mg86 3.185097 1_555
Mg67 Mg72 3.185389 1_555
Mg67 Mg70 3.185397 1_555
Mg67 Mg69 3.192029 1_555
Mg67 Mg68 3.192043 1_555
Mg68 Mg88 3.181825 1_555
Mg68 Mg91 3.181833 1_555
Mg68 Mg87 3.185096 1_555
Mg68 Mg71 3.185398 1_555
Mg68 Mg70 3.185399 1_555
Mg68 Mg69 3.192035 1_555
Mg69 Mg92 3.181825 1_555
Mg69 Mg91 3.181833 1_555
Mg69 Mg98 3.185105 1_555
Mg69 Mg72 3.185374 1_555
Mg69 Mg71 3.185405 1_555
Mg70 Mg88 3.174789 1_555
Mg70 Mg81 3.180300 1_555
Mg70 Mg82 3.180300 1_555
Mg71 Mg91 3.174781 1_555
Mg71 Mg89 3.180300 1_555
Mg71 Mg96 3.180300 1_555
Mg72 Mg92 3.174772 1_555
Mg72 Mg97 3.180300 1_555
Mg72 Mg90 3.180308 1_555
Mg73 Mg95 3.174137 1_445
Mg73 Mg94 3.174137 1_545
Mg73 Mg76 3.174137 1_555
Mg74 Mg96 3.185475 1_545
Mg74 Mg82 3.185475 1_555
Mg74 Mg94 3.187802 1_545
Mg74 Mg76 3.187802 1_555
Mg74 Mg79 3.189017 1_555
Mg74 Mg78 3.189024 1_555
Mg75 Mg97 3.185474 1_545
Mg75 Mg81 3.185474 1_655
Mg75 Mg76 3.187802 1_655
Mg75 Mg95 3.187803 1_545
Mg75 Mg77 3.189025 1_555
Mg75 Mg80 3.189026 1_555
Mg76 Mg99 3.174137 1_555
Mg76 Mg82 3.185527 1_555
Mg76 Mg81 3.185528 1_555
Mg76 Mg95 3.190333 1_445
Mg76 Mg94 3.190334 1_545
Mg77 Mg80 3.174116 1_555
Mg77 Mg83 3.182241 1_555
Mg77 Mg98 3.188304 1_545
Mg77 Mg78 3.190372 1_555
Mg77 Mg97 3.194539 1_545
Mg78 Mg79 3.174102 1_555
Mg78 Mg83 3.182247 1_555
Mg78 Mg98 3.188306 1_545
Mg78 Mg96 3.194538 1_545
Mg79 Mg83 3.182248 1_555
Mg79 Mg86 3.188321 1_555
Mg79 Mg85 3.190387 1_555
Mg79 Mg82 3.194546 1_555
Mg80 Mg83 3.182239 1_555
Mg80 Mg87 3.188304 1_655
Mg80 Mg84 3.190389 1_555
Mg80 Mg81 3.194538 1_655
Mg81 Mg82 3.190438 1_555
Mg81 Mg88 3.191075 1_555
Mg81 Mg87 3.191316 1_555
Mg82 Mg88 3.191084 1_555
Mg82 Mg86 3.191315 1_555
Mg83 Mg84 3.182255 1_555
Mg83 Mg85 3.182273 1_555
Mg84 Mg85 3.174116 1_555
Mg84 Mg87 3.188312 1_655
Mg84 Mg93 3.189010 1_555
Mg84 Mg89 3.194530 1_655
Mg85 Mg86 3.188296 1_555
Mg85 Mg93 3.189016 1_555
Mg85 Mg90 3.194523 1_555
Mg86 Mg90 3.191315 1_555
Mg86 Mg92 3.196641 1_555
Mg86 Mg88 3.196648 1_555
Mg87 Mg89 3.191316 1_555
Mg87 Mg88 3.196632 1_555
Mg87 Mg91 3.196640 1_555
Mg88 Mg91 3.190905 1_555
Mg88 Mg92 3.190912 1_555
Mg89 Mg93 3.185473 1_455
Mg89 Mg94 3.185528 1_555
Mg89 Mg96 3.190438 1_555
Mg89 Mg91 3.191067 1_555
Mg90 Mg93 3.185474 1_555
Mg90 Mg95 3.185527 1_555
Mg90 Mg97 3.190439 1_555
Mg90 Mg92 3.191067 1_555
Mg91 Mg92 3.190920 1_555
Mg91 Mg96 3.191068 1_555
Mg91 Mg98 3.196640 1_555
Mg92 Mg97 3.191067 1_555
Mg92 Mg98 3.196641 1_555
Mg93 Mg94 3.187802 1_655
Mg93 Mg95 3.187804 1_555
Mg94 Mg99 3.174137 1_565
Mg94 Mg96 3.185527 1_555
Mg94 Mg95 3.190333 1_455
Mg95 Mg99 3.174137 1_665
Mg95 Mg97 3.185527 1_555
Mg96 Mg98 3.191315 1_555
Mg97 Mg98 3.191315 1_555
Mg100 Mg88 3.174801 1_555
Mg100 Mg81 3.180313 1_555
Mg100 Mg82 3.180313 1_555
Mg100 Mg128 3.180702 1_555
Mg100 Mg127 3.180702 1_555
Mg100 Mg103 3.185397 1_555
Mg100 Mg104 3.185399 1_555
Mg100 Mg124 3.187286 1_555
Mg100 Mg108 3.190039 1_455
Mg100 Mg109 3.190039 1_555
Mg100 Mg120 3.190952 1_555
Mg100 Mg121 3.190953 1_555
Mg101 Mg91 3.174793 1_555
Mg101 Mg89 3.180313 1_555
Mg101 Mg96 3.180313 1_555
Mg101 Mg130 3.180702 1_555
Mg101 Mg132 3.180702 1_555
Mg101 Mg104 3.185398 1_555
Mg101 Mg105 3.185405 1_555
Mg101 Mg125 3.187286 1_555
Mg101 Mg110 3.190039 1_455
Mg101 Mg107 3.190039 1_565
Mg101 Mg123 3.190952 1_555
Mg101 Mg118 3.190953 1_555
Mg102 Mg92 3.174785 1_555
Mg102 Mg97 3.180313 1_555
Mg102 Mg90 3.180321 1_555
Mg102 Mg131 3.180702 1_555
Mg102 Mg129 3.180710 1_555
Mg102 Mg105 3.185374 1_555
Mg102 Mg103 3.185389 1_555
Mg102 Mg126 3.187278 1_555
Mg102 Mg106 3.190016 1_565
Mg102 Mg111 3.190032 1_555
Mg102 Mg122 3.190968 1_555
Mg102 Mg119 3.190968 1_555
Mg103 Mg124 3.181392 1_555
Mg103 Mg126 3.181393 1_555
Mg103 Mg88 3.181833 1_555
Mg103 Mg92 3.181833 1_555
Mg103 Mg86 3.185097 1_555
Mg103 Mg133 3.185302 1_555
Mg103 Mg111 3.187916 1_555
Mg103 Mg109 3.187925 1_555
Mg103 Mg105 3.192029 1_555
Mg103 Mg104 3.192043 1_555
Mg104 Mg125 3.181393 1_555
Mg104 Mg124 3.181393 1_555
Mg104 Mg88 3.181825 1_555
Mg104 Mg91 3.181833 1_555
Mg104 Mg87 3.185096 1_555
Mg104 Mg134 3.185301 1_555
Mg104 Mg110 3.187924 1_455
Mg104 Mg108 3.187924 1_455
Mg104 Mg105 3.192035 1_555
Mg105 Mg126 3.181385 1_555
Mg105 Mg125 3.181392 1_555
Mg105 Mg92 3.181825 1_555
Mg105 Mg91 3.181833 1_555
Mg105 Mg98 3.185105 1_555
Mg105 Mg135 3.185317 1_555
Mg105 Mg106 3.187924 1_565
Mg105 Mg107 3.187941 1_565
Mg106 Mg131 3.179105 1_545
Mg106 Mg98 3.180490 1_545
Mg106 Mg135 3.183649 1_545
Mg106 Mg97 3.184143 1_545
Mg106 Mg136 3.184237 1_555
Mg106 Mg115 3.186374 1_555
Mg106 Mg77 3.187008 1_555
Mg106 Mg107 3.187837 1_555
Mg106 Mg113 3.188071 1_555
Mg106 Mg119 3.189857 1_545
Mg107 Mg132 3.179112 1_545
Mg107 Mg98 3.180490 1_545
Mg107 Mg135 3.183641 1_545
Mg107 Mg96 3.184150 1_545
Mg107 Mg137 3.184229 1_555
Mg107 Mg115 3.186349 1_555
Mg107 Mg78 3.187000 1_555
Mg107 Mg112 3.188072 1_555
Mg107 Mg118 3.189873 1_545
Mg108 Mg128 3.179113 1_655
Mg108 Mg87 3.180490 1_655
Mg108 Mg134 3.183649 1_655
Mg108 Mg81 3.184151 1_655
Mg108 Mg139 3.184229 1_555
Mg108 Mg116 3.186349 1_555
Mg108 Mg80 3.186999 1_555
Mg108 Mg110 3.187831 1_555
Mg108 Mg113 3.188063 1_555
Mg108 Mg120 3.189874 1_655
Mg109 Mg127 3.179112 1_555
Mg109 Mg86 3.180490 1_555
Mg109 Mg133 3.183649 1_555
Mg109 Mg82 3.184150 1_555
Mg109 Mg138 3.184229 1_555
Mg109 Mg117 3.186349 1_555
Mg109 Mg79 3.187008 1_555
Mg109 Mg111 3.187837 1_555
Mg109 Mg112 3.188056 1_555
Mg109 Mg121 3.189873 1_555
Mg110 Mg130 3.179113 1_655
Mg110 Mg87 3.180490 1_655
Mg110 Mg134 3.183649 1_655
Mg110 Mg89 3.184151 1_655
Mg110 Mg141 3.184229 1_555
Mg110 Mg116 3.186357 1_555
Mg110 Mg84 3.186999 1_555
Mg110 Mg114 3.188071 1_555
Mg110 Mg123 3.189874 1_655
Mg111 Mg129 3.179105 1_555
Mg111 Mg86 3.180490 1_555
Mg111 Mg133 3.183649 1_555
Mg111 Mg90 3.184143 1_555
Mg111 Mg140 3.184237 1_555
Mg111 Mg117 3.186374 1_555
Mg111 Mg85 3.187000 1_555
Mg111 Mg114 3.188063 1_555
Mg111 Mg122 3.189865 1_555
Mg112 Mg138 3.181491 1_555
Mg112 Mg137 3.181499 1_555
Mg112 Mg74 3.184417 1_555
Mg112 Mg79 3.184704 1_555
Mg112 Mg78 3.184720 1_555
Mg112 Mg121 3.187013 1_555
Mg112 Mg118 3.187021 1_545
Mg112 Mg117 3.192447 1_555
Mg112 Mg115 3.192455 1_555
Mg112 Mg146 3.205960 1_555
Mg113 Mg136 3.181491 1_555
Mg113 Mg139 3.181491 1_555
Mg113 Mg75 3.184426 1_555
Mg113 Mg77 3.184712 1_555
Mg113 Mg80 3.184712 1_555
Mg113 Mg119 3.187014 1_545
Mg113 Mg120 3.187029 1_655
Mg113 Mg116 3.192440 1_555
Mg113 Mg115 3.192455 1_555
Mg113 Mg147 3.205968 1_555
Mg114 Mg140 3.181491 1_555
Mg114 Mg141 3.181499 1_555
Mg114 Mg93 3.184418 1_555
Mg114 Mg85 3.184712 1_555
Mg114 Mg84 3.184712 1_555
Mg114 Mg122 3.187014 1_555
Mg114 Mg123 3.187021 1_655
Mg114 Mg117 3.192463 1_555
Mg114 Mg116 3.192472 1_555
Mg114 Mg148 3.205960 1_555
Mg115 Mg142 3.186058 1_555
Mg115 Mg137 3.186144 1_555
Mg115 Mg136 3.186153 1_555
Mg115 Mg78 3.186636 1_555
Mg115 Mg77 3.186645 1_555
Mg115 Mg83 3.189774 1_555
Mg115 Mg117 3.191245 1_555
Mg115 Mg116 3.191252 1_555
Mg116 Mg142 3.186057 1_555
Mg116 Mg139 3.186145 1_555
Mg116 Mg141 3.186153 1_555
Mg116 Mg80 3.186637 1_555
Mg116 Mg84 3.186653 1_555
Mg116 Mg83 3.189774 1_555
Mg116 Mg117 3.191260 1_555
Mg117 Mg142 3.186066 1_555
Mg117 Mg138 3.186144 1_555
Mg117 Mg140 3.186153 1_555
Mg117 Mg79 3.186636 1_555
Mg117 Mg85 3.186653 1_555
Mg117 Mg83 3.189782 1_555
Mg118 Mg145 3.178559 1_555
Mg118 Mg132 3.180861 1_555
Mg118 Mg123 3.185064 1_555
Mg118 Mg99 3.188297 1_565
Mg118 Mg96 3.188452 1_555
Mg118 Mg146 3.188849 1_565
Mg118 Mg94 3.189566 1_555
Mg118 Mg74 3.191356 1_565
Mg118 Mg121 3.191394 1_565
Mg119 Mg144 3.178567 1_555
Mg119 Mg131 3.180861 1_555
Mg119 Mg122 3.185081 1_555
Mg119 Mg99 3.188305 1_665
Mg119 Mg97 3.188451 1_555
Mg119 Mg147 3.188841 1_565
Mg119 Mg95 3.189574 1_555
Mg119 Mg75 3.191348 1_565
Mg119 Mg120 3.191385 1_665
Mg120 Mg143 3.178567 1_555
Mg120 Mg128 3.180861 1_555
Mg120 Mg121 3.185064 1_555
Mg120 Mg99 3.188298 1_555
Mg120 Mg81 3.188452 1_555
Mg120 Mg147 3.188848 1_455
Mg120 Mg76 3.189566 1_555
Mg120 Mg75 3.191356 1_455
Mg121 Mg143 3.178559 1_555
Mg121 Mg127 3.180861 1_555
Mg121 Mg99 3.188297 1_555
Mg121 Mg82 3.188452 1_555
Mg121 Mg146 3.188849 1_555
Mg121 Mg76 3.189566 1_555
Mg121 Mg74 3.191356 1_555
Mg122 Mg144 3.178567 1_555
Mg122 Mg129 3.180861 1_555
Mg122 Mg99 3.188297 1_665
Mg122 Mg90 3.188451 1_555
Mg122 Mg148 3.188849 1_555
Mg122 Mg95 3.189566 1_555
Mg122 Mg93 3.191356 1_555
Mg122 Mg123 3.191393 1_655
Mg123 Mg145 3.178567 1_555
Mg123 Mg130 3.180861 1_555
Mg123 Mg99 3.188298 1_565
Mg123 Mg89 3.188452 1_555
Mg123 Mg148 3.188848 1_455
Mg123 Mg94 3.189566 1_555
Mg123 Mg93 3.191356 1_455
Mg124 Mg126 3.177700 1_555
Mg124 Mg125 3.177701 1_555
Mg124 Mg128 3.180018 1_555
Mg124 Mg127 3.180019 1_555
Mg124 Mg13 3.186401 1_556
Mg124 Mg14 3.186401 1_556
Mg124 Mg133 3.189553 1_555
Mg124 Mg134 3.189553 1_555
Mg125 Mg126 3.177700 1_555
Mg125 Mg130 3.180018 1_555
Mg125 Mg132 3.180020 1_555
Mg125 Mg17 3.182094 1_556
Mg125 Mg19 3.186401 1_556
Mg125 Mg14 3.186409 1_556
Mg125 Mg134 3.189553 1_555
Mg125 Mg135 3.189561 1_555
Mg126 Mg129 3.180018 1_555
Mg126 Mg131 3.180018 1_555
Mg126 Mg18 3.182093 1_556
Mg126 Mg13 3.186409 1_556
Mg126 Mg19 3.186409 1_556
Mg126 Mg133 3.189554 1_555
Mg126 Mg135 3.189570 1_555
Mg127 Mg133 3.178680 1_555
Mg127 Mg128 3.180424 1_555
Mg127 Mg8 3.181202 1_556
Mg127 Mg138 3.185453 1_555
Mg127 Mg4 3.191891 1_556
Mg127 Mg143 3.199924 1_555
Mg127 Mg146 3.203306 1_555
Mg128 Mg134 3.178681 1_555
Mg128 Mg7 3.181203 1_556
Mg128 Mg139 3.185453 1_455
Mg128 Mg3 3.191891 1_556
Mg128 Mg143 3.199933 1_555
Mg128 Mg147 3.203305 1_455
Mg129 Mg133 3.178680 1_555
Mg129 Mg131 3.180425 1_555
Mg129 Mg15 3.181195 1_556
Mg129 Mg140 3.185455 1_555
Mg129 Mg18 3.187831 1_556
Mg129 Mg21 3.191890 1_556
Mg129 Mg144 3.199931 1_555
Mg129 Mg148 3.203305 1_555
Mg130 Mg134 3.178681 1_555
Mg130 Mg132 3.180424 1_555
Mg130 Mg16 3.181195 1_556
Mg130 Mg141 3.185453 1_455
Mg130 Mg17 3.187831 1_556
Mg130 Mg20 3.191883 1_556
Mg130 Mg145 3.199933 1_555
Mg130 Mg148 3.203305 1_455
Mg131 Mg135 3.178688 1_555
Mg131 Mg136 3.185454 1_565
Mg131 Mg18 3.187839 1_556
Mg131 Mg22 3.191890 1_556
Mg131 Mg144 3.199924 1_555
Mg131 Mg147 3.203305 1_565
Mg132 Mg135 3.178672 1_555
Mg132 Mg137 3.185453 1_565
Mg132 Mg17 3.187839 1_556
Mg132 Mg23 3.191891 1_556
Mg132 Mg145 3.199924 1_555
Mg132 Mg146 3.203306 1_565
Mg133 Mg140 3.189493 1_555
Mg133 Mg138 3.189494 1_555
Mg133 Mg8 3.190956 1_556
Mg133 Mg15 3.190963 1_556
Mg134 Mg14 3.186937 1_556
Mg134 Mg141 3.189493 1_455
Mg134 Mg139 3.189493 1_455
Mg134 Mg7 3.190956 1_556
Mg134 Mg16 3.190964 1_556
Mg135 Mg19 3.186945 1_556
Mg135 Mg137 3.189478 1_565
Mg135 Mg136 3.189485 1_565
Mg136 Mg5 3.176377 1_556
Mg136 Mg139 3.185964 1_555
Mg136 Mg2 3.186767 1_556
Mg136 Mg147 3.196031 1_555
Mg136 Mg142 3.196412 1_555
Mg136 Mg137 3.206853 1_555
Mg137 Mg6 3.176377 1_556
Mg137 Mg138 3.185966 1_555
Mg137 Mg2 3.186774 1_556
Mg137 Mg146 3.196031 1_555
Mg137 Mg142 3.196419 1_555
Mg138 Mg6 3.176377 1_556
Mg138 Mg8 3.180397 1_556
Mg138 Mg146 3.196031 1_555
Mg138 Mg142 3.196427 1_555
Mg138 Mg140 3.206853 1_555
Mg139 Mg5 3.176377 1_556
Mg139 Mg7 3.180397 1_656
Mg139 Mg9 3.186775 1_556
Mg139 Mg147 3.196032 1_555
Mg139 Mg142 3.196411 1_555
Mg139 Mg141 3.206854 1_555
Mg140 Mg15 3.180397 1_556
Mg140 Mg141 3.185964 1_555
Mg140 Mg148 3.196031 1_555
Mg140 Mg142 3.196428 1_555
Mg141 Mg16 3.180397 1_656
Mg141 Mg9 3.186767 1_556
Mg141 Mg148 3.196033 1_555
Mg141 Mg142 3.196419 1_555
Mg142 Mg9 3.180527 1_556
Mg142 Mg2 3.180527 1_556
Mg143 Mg146 3.172643 1_555
Mg143 Mg147 3.172658 1_455
Mg143 Mg4 3.176248 1_556
Mg143 Mg3 3.176248 1_556
Mg143 Sc0 3.182017 1_556
Mg143 Mg145 3.186884 1_545
Mg143 Mg144 3.186891 1_445
Mg143 Mg99 3.195449 1_555
Mg144 Mg147 3.172644 1_565
Mg144 Mg148 3.172660 1_555
Mg144 Mg22 3.176240 1_556
Mg144 Mg21 3.176256 1_556
Mg144 Sc0 3.182016 1_666
Mg144 Mg145 3.186899 1_655
Mg144 Mg99 3.195449 1_665
Mg145 Mg146 3.172643 1_565
Mg145 Mg148 3.172658 1_455
Mg145 Mg23 3.176248 1_556
Mg145 Mg20 3.176256 1_556
Mg145 Sc0 3.182017 1_566
Mg145 Mg99 3.195449 1_565
Mg146 Mg4 3.175190 1_556
Mg146 Mg23 3.175190 1_546
Mg146 Mg6 3.184720 1_556
Mg147 Mg3 3.175198 1_656
Mg147 Mg22 3.175198 1_546
Mg147 Mg5 3.184721 1_556
Mg148 Mg21 3.175190 1_556
Mg148 Mg20 3.175198 1_656
