# generated using pymatgen
data_Mg3(SiO3)4
_symmetry_space_group_name_H-M   'P 1'
_cell_length_a   5.35925242
_cell_length_b   5.35925242
_cell_length_c   28.86776408
_cell_angle_alpha   88.48975015
_cell_angle_beta   88.48975015
_cell_angle_gamma   119.67405379
_symmetry_Int_Tables_number   1
_chemical_formula_structural   Mg3(SiO3)4
_chemical_formula_sum   'Mg6 Si8 O24'
_cell_volume   719.40094007
_cell_formula_units_Z   2
loop_
 _symmetry_equiv_pos_site_id
 _symmetry_equiv_pos_as_xyz
  1  'x, y, z'
loop_
 _atom_site_type_symbol
 _atom_site_label
 _atom_site_symmetry_multiplicity
 _atom_site_fract_x
 _atom_site_fract_y
 _atom_site_fract_z
 _atom_site_occupancy
  Mg  Mg0  1  0.02026900  0.01054600  0.49993000  1
  Mg  Mg1  1  0.01054600  0.02026900  0.99993000  1
  Mg  Mg2  1  0.31327700  0.65644800  0.50014200  1
  Mg  Mg3  1  0.65644800  0.31327700  0.00014200  1
  Mg  Mg4  1  0.66662700  0.33192500  0.50001900  1
  Mg  Mg5  1  0.33192500  0.66662700  0.00001900  1
  Si  Si0  1  0.02921200  0.36365300  0.40348000  1
  Si  Si1  1  0.36365300  0.02921200  0.90348000  1
  Si  Si2  1  0.30428400  0.30349300  0.59647500  1
  Si  Si3  1  0.30349300  0.30428400  0.09647500  1
  Si  Si4  1  0.36294600  0.02947600  0.40349000  1
  Si  Si5  1  0.02947600  0.36294600  0.90349000  1
  Si  Si6  1  0.97016200  0.63750100  0.59645800  1
  Si  Si7  1  0.63750100  0.97016200  0.09645800  1
  O  O0  1  0.67595900  0.69117700  0.47069600  1
  O  O1  1  0.69117700  0.67595900  0.97069600  1
  O  O2  1  0.65749000  0.97453700  0.52990800  1
  O  O3  1  0.97453700  0.65749000  0.02990800  1
  O  O4  1  0.01290800  0.35009600  0.46067000  1
  O  O5  1  0.35009600  0.01290800  0.96067000  1
  O  O6  1  0.32091200  0.31648000  0.53920700  1
  O  O7  1  0.31648000  0.32091200  0.03920700  1
  O  O8  1  0.34505400  0.01548300  0.46069100  1
  O  O9  1  0.01548300  0.34505400  0.96069100  1
  O  O10  1  0.98811500  0.65072600  0.53918000  1
  O  O11  1  0.65072600  0.98811500  0.03918000  1
  O  O12  1  0.70131200  0.20237700  0.38493000  1
  O  O13  1  0.20237700  0.70131200  0.88493000  1
  O  O14  1  0.63197200  0.46485700  0.61504400  1
  O  O15  1  0.46485700  0.63197200  0.11504400  1
  O  O16  1  0.20318600  0.70192500  0.38478400  1
  O  O17  1  0.70192500  0.20318600  0.88478400  1
  O  O18  1  0.13013800  0.96516100  0.61505700  1
  O  O19  1  0.96516100  0.13013800  0.11505700  1
  O  O20  1  0.20016200  0.20069500  0.38467800  1
  O  O21  1  0.20069500  0.20016200  0.88467800  1
  O  O22  1  0.13313300  0.46632800  0.61516100  1
  O  O23  1  0.46632800  0.13313300  0.11516100  1
loop_
_geom_bond_atom_site_label_1
_geom_bond_atom_site_label_2
_geom_bond_distance
_geom_bond_site_symmetry_2
Mg0 O0 2.019342 1_445
Mg0 O2 2.024148 1_445
Mg0 O6 2.036782 1_555
Mg0 O8 2.040196 1_555
Mg0 O4 2.135929 1_555
Mg0 O10 2.139540 1_445
Mg1 O1 2.019342 1_445
Mg1 O3 2.024148 1_446
Mg1 O7 2.036782 1_556
Mg1 O9 2.040196 1_555
Mg1 O5 2.135929 1_555
Mg1 O11 2.139540 1_446
Mg2 O0 2.020290 1_555
Mg2 O2 2.023488 1_555
Mg2 O10 2.037014 1_455
Mg2 O4 2.040520 1_555
Mg2 O6 2.135640 1_555
Mg2 O8 2.139676 1_565
Mg3 O1 2.020290 1_554
Mg3 O3 2.023488 1_555
Mg3 O11 2.037014 1_545
Mg3 O5 2.040520 1_554
Mg3 O7 2.135640 1_555
Mg3 O9 2.139676 1_654
Mg4 O2 2.057466 1_545
Mg4 O0 2.059717 1_555
Mg4 O8 2.108517 1_555
Mg4 O4 2.109010 1_655
Mg4 O6 2.110007 1_555
Mg4 O10 2.110793 1_555
Mg5 O3 2.057466 1_455
Mg5 O1 2.059717 1_554
Mg5 O9 2.108517 1_554
Mg5 O5 2.109010 1_564
Mg5 O7 2.110007 1_555
Mg5 O11 2.110793 1_555
O4 Si0 1.648735 1_555
O5 Si1 1.648735 1_555
O6 Si2 1.651024 1_555
O7 Si3 1.651024 1_555
O8 Si4 1.649091 1_555
O9 Si5 1.649091 1_555
O10 Si6 1.651359 1_555
O11 Si7 1.651359 1_555
O12 Si0 1.640740 1_655
O12 Si4 1.641020 1_555
O13 Si1 1.640740 1_565
O13 Si5 1.641020 1_555
O14 Si2 1.640015 1_555
O14 Si6 1.640450 1_555
O15 Si3 1.640015 1_555
O15 Si7 1.640450 1_555
O16 Si4 1.640848 1_565
O16 Si0 1.641785 1_555
O17 Si5 1.640848 1_655
O17 Si1 1.641785 1_555
O18 Si6 1.640185 1_455
O18 Si2 1.641125 1_565
O19 Si7 1.640185 1_545
O19 Si3 1.641125 1_655
O20 Si0 1.639409 1_555
O20 Si4 1.639916 1_555
O21 Si1 1.639409 1_555
O21 Si5 1.639916 1_555
O22 Si2 1.638644 1_555
O22 Si6 1.639498 1_455
O23 Si3 1.638644 1_555
O23 Si7 1.639498 1_545
