# generated using pymatgen
data_Mg6NbSn
_symmetry_space_group_name_H-M   'P 1'
_cell_length_a   4.98899500
_cell_length_b   6.35176800
_cell_length_c   10.81707000
_cell_angle_alpha   90.00000000
_cell_angle_beta   90.00000000
_cell_angle_gamma   90.00000000
_symmetry_Int_Tables_number   1
_chemical_formula_structural   Mg6NbSn
_chemical_formula_sum   'Mg12 Nb2 Sn2'
_cell_volume   342.78146915
_cell_formula_units_Z   2
loop_
 _symmetry_equiv_pos_site_id
 _symmetry_equiv_pos_as_xyz
  1  'x, y, z'
loop_
 _atom_site_type_symbol
 _atom_site_label
 _atom_site_symmetry_multiplicity
 _atom_site_fract_x
 _atom_site_fract_y
 _atom_site_fract_z
 _atom_site_occupancy
  Mg  Mg0  1  0.00000000  0.25532700  0.08452000  1
  Mg  Mg1  1  0.00000000  0.74467300  0.08452000  1
  Mg  Mg2  1  0.00000000  0.50000000  0.83354900  1
  Mg  Mg3  1  0.50000000  0.25388100  0.91867000  1
  Mg  Mg4  1  0.50000000  0.74611900  0.91867000  1
  Mg  Mg5  1  0.50000000  0.50000000  0.66570900  1
  Mg  Mg6  1  0.00000000  0.75532700  0.58452000  1
  Mg  Mg7  1  0.00000000  0.24467300  0.58452000  1
  Mg  Mg8  1  0.00000000  0.00000000  0.33354900  1
  Mg  Mg9  1  0.50000000  0.75388100  0.41867000  1
  Mg  Mg10  1  0.50000000  0.24611900  0.41867000  1
  Mg  Mg11  1  0.50000000  0.00000000  0.16570900  1
  Nb  Nb0  1  0.50000000  0.50000000  0.16745500  1
  Nb  Nb1  1  0.50000000  0.00000000  0.66745500  1
  Sn  Sn0  1  0.00000000  0.50000000  0.32690700  1
  Sn  Sn1  1  0.00000000  0.00000000  0.82690700  1
loop_
_geom_bond_atom_site_label_1
_geom_bond_atom_site_label_2
_geom_bond_distance
_geom_bond_site_symmetry_2
Mg0 Sn0 3.047900 1_555
Mg0 Mg3 3.072634 1_554
Mg0 Mg3 3.072634 1_454
Mg0 Nb0 3.072878 1_555
Mg0 Nb0 3.072878 1_455
Mg0 Mg11 3.102251 1_455
Mg0 Mg11 3.102251 1_555
Mg0 Mg1 3.108212 1_555
Mg0 Mg2 3.128135 1_554
Mg0 Mg8 3.144285 1_555
Mg0 Sn1 3.224190 1_554
Mg0 Mg1 3.243556 1_545
Mg1 Sn0 3.047900 1_555
Mg1 Mg4 3.072634 1_554
Mg1 Mg4 3.072634 1_454
Mg1 Nb0 3.072878 1_555
Mg1 Nb0 3.072878 1_455
Mg1 Mg11 3.102251 1_565
Mg1 Mg11 3.102251 1_465
Mg1 Mg2 3.128135 1_554
Mg1 Mg8 3.144285 1_565
Mg1 Sn1 3.224190 1_564
Mg2 Mg3 3.084509 1_455
Mg2 Mg4 3.084509 1_455
Mg2 Mg3 3.084509 1_555
Mg2 Mg4 3.084509 1_555
Mg2 Mg5 3.085238 1_555
Mg2 Mg5 3.085238 1_455
Mg2 Mg7 3.144285 1_555
Mg2 Mg6 3.144285 1_555
Mg2 Sn1 3.176697 1_555
Mg2 Sn1 3.176697 1_565
Mg3 Nb0 3.112239 1_556
Mg3 Mg4 3.126582 1_555
Mg3 Sn1 3.131811 1_655
Mg3 Sn1 3.131811 1_555
Mg3 Mg5 3.151380 1_555
Mg3 Nb1 3.159870 1_555
Mg3 Mg4 3.225186 1_545
Mg4 Nb0 3.112239 1_556
Mg4 Sn1 3.131811 1_565
Mg4 Sn1 3.131811 1_665
Mg4 Mg5 3.151380 1_555
Mg4 Nb1 3.159870 1_565
Mg5 Mg6 3.102251 1_555
Mg5 Mg7 3.102251 1_555
Mg5 Mg6 3.102251 1_655
Mg5 Mg7 3.102251 1_655
Mg5 Mg9 3.121108 1_555
Mg5 Nb1 3.175940 1_555
Mg5 Nb1 3.175940 1_565
Mg6 Sn1 3.047900 1_565
Mg6 Mg9 3.072634 1_555
Mg6 Mg9 3.072634 1_455
Mg6 Nb1 3.072878 1_465
Mg6 Nb1 3.072878 1_565
Mg6 Mg7 3.108212 1_565
Mg6 Mg8 3.128135 1_565
Mg6 Sn0 3.224190 1_555
Mg6 Mg7 3.243556 1_555
Mg7 Sn1 3.047900 1_555
Mg7 Nb1 3.072878 1_555
Mg7 Nb1 3.072878 1_455
Mg7 Mg8 3.128135 1_555
Mg7 Sn0 3.224190 1_555
Mg8 Mg9 3.084509 1_545
Mg8 Mg9 3.084509 1_445
Mg8 Sn0 3.176697 1_545
Mg8 Sn0 3.176697 1_555
Mg9 Nb1 3.112239 1_565
Mg9 Sn0 3.131811 1_555
Mg9 Sn0 3.131811 1_655
Mg9 Nb0 3.159870 1_555
Mg10 Mg7 3.072634 1_555
Mg10 Mg7 3.072634 1_655
Mg10 Mg8 3.084509 1_655
Mg10 Mg8 3.084509 1_555
Mg10 Nb1 3.112239 1_555
Mg10 Mg5 3.121108 1_555
Mg10 Mg9 3.126582 1_545
Mg10 Sn0 3.131811 1_555
Mg10 Sn0 3.131811 1_655
Mg10 Mg11 3.151380 1_555
Mg10 Nb0 3.159870 1_555
Mg10 Mg9 3.225186 1_555
Mg11 Mg8 3.085238 1_655
Mg11 Mg8 3.085238 1_555
Mg11 Mg3 3.121108 1_554
Mg11 Mg4 3.121108 1_544
Mg11 Mg9 3.151380 1_545
Mg11 Nb0 3.175940 1_545
Mg11 Nb0 3.175940 1_555
Nb0 Sn0 3.032732 1_555
Nb0 Sn0 3.032732 1_655
Nb1 Sn1 3.032732 1_555
Nb1 Sn1 3.032732 1_655
