# generated using pymatgen
data_Li3Cr5O8
_symmetry_space_group_name_H-M   'P 1'
_cell_length_a   6.11324058
_cell_length_b   10.68219375
_cell_length_c   5.98739449
_cell_angle_alpha   87.23604855
_cell_angle_beta   59.96407574
_cell_angle_gamma   105.87007286
_symmetry_Int_Tables_number   1
_chemical_formula_structural   Li3Cr5O8
_chemical_formula_sum   'Li6 Cr10 O16'
_cell_volume   317.44071553
_cell_formula_units_Z   2
loop_
 _symmetry_equiv_pos_site_id
 _symmetry_equiv_pos_as_xyz
  1  'x, y, z'
loop_
 _atom_site_type_symbol
 _atom_site_label
 _atom_site_symmetry_multiplicity
 _atom_site_fract_x
 _atom_site_fract_y
 _atom_site_fract_z
 _atom_site_occupancy
  Li  Li0  1  0.99616700  0.25046500  0.24997000  1
  Li  Li1  1  0.00390400  0.74959500  0.74950500  1
  Li  Li2  1  0.00189700  0.25058500  0.74953900  1
  Li  Li3  1  0.99842200  0.74960000  0.25064300  1
  Li  Li4  1  0.49833800  0.24985700  0.74647300  1
  Li  Li5  1  0.50191000  0.75012900  0.25311100  1
  Cr  Cr0  1  0.00019200  0.49988700  0.49982300  1
  Cr  Cr1  1  0.99944700  0.00010100  0.50027200  1
  Cr  Cr2  1  0.49973100  0.99989600  0.00031300  1
  Cr  Cr3  1  0.49979400  0.00006700  0.50024200  1
  Cr  Cr4  1  0.50024500  0.50005800  0.99992700  1
  Cr  Cr5  1  0.49570200  0.24796800  0.24645800  1
  Cr  Cr6  1  0.50387800  0.75189900  0.75380300  1
  Cr  Cr7  1  0.99967700  0.99983300  0.00023400  1
  Cr  Cr8  1  0.00056700  0.50010700  0.99951700  1
  Cr  Cr9  1  0.49999800  0.49993600  0.50003100  1
  O  O0  1  0.25514800  0.38954100  0.88241100  1
  O  O1  1  0.25600200  0.89093300  0.38278300  1
  O  O2  1  0.74359500  0.10919500  0.61762300  1
  O  O3  1  0.74542100  0.61045400  0.11726700  1
  O  O4  1  0.28736200  0.37761300  0.36717900  1
  O  O5  1  0.28509300  0.87830000  0.86903300  1
  O  O6  1  0.75206100  0.38899700  0.88847600  1
  O  O7  1  0.75031600  0.88880400  0.39122500  1
  O  O8  1  0.75659300  0.39248000  0.38082100  1
  O  O9  1  0.75689700  0.89306800  0.88292600  1
  O  O10  1  0.24237200  0.10693500  0.11728600  1
  O  O11  1  0.24403000  0.60743100  0.61845200  1
  O  O12  1  0.24932200  0.11126000  0.60943200  1
  O  O13  1  0.24867300  0.61104800  0.11119600  1
  O  O14  1  0.71441300  0.12165500  0.13139700  1
  O  O15  1  0.71283400  0.62230200  0.63263300  1
loop_
_geom_bond_atom_site_label_1
_geom_bond_atom_site_label_2
_geom_bond_distance
_geom_bond_site_symmetry_2
Li0 O0 2.113565 1_654
Li0 O2 2.123613 1_555
Li0 O8 2.289378 1_555
Li0 O14 2.320832 1_555
Li0 O10 2.330189 1_655
Li0 O4 2.350823 1_655
Li1 O3 2.114540 1_456
Li1 O1 2.120353 1_555
Li1 O11 2.292995 1_555
Li1 O5 2.321887 1_555
Li1 O9 2.333104 1_455
Li1 O15 2.349426 1_455
Li2 O4 2.129223 1_555
Li2 O14 2.136082 1_456
Li2 O12 2.299557 1_555
Li2 O6 2.300548 1_455
Li2 O0 2.307196 1_555
Li2 O2 2.336169 1_455
Li3 O15 2.128944 1_555
Li3 O5 2.133698 1_654
Li3 O7 2.301372 1_555
Li3 O13 2.303663 1_655
Li3 O3 2.309292 1_555
Li3 O1 2.333879 1_655
Li4 O8 2.123527 1_555
Li4 O10 2.144141 1_556
Li4 O0 2.284325 1_555
Li4 O2 2.299310 1_555
Li4 O12 2.305977 1_555
Li4 O6 2.349271 1_555
Li5 O11 2.122666 1_555
Li5 O9 2.141739 1_554
Li5 O3 2.285487 1_555
Li5 O1 2.303436 1_555
Li5 O7 2.308518 1_555
Li5 O13 2.346609 1_555
Cr0 O11 2.061142 1_555
Cr0 O8 2.061145 1_455
Cr0 O6 2.082525 1_455
Cr0 O13 2.083357 1_555
Cr0 O4 2.318851 1_555
Cr0 O15 2.320877 1_455
Cr1 O9 2.043110 1_545
Cr1 O10 2.043940 1_655
Cr1 O7 2.058959 1_545
Cr1 O12 2.062240 1_655
Cr1 O2 2.067317 1_555
Cr1 O1 2.071113 1_645
Cr2 O1 2.048810 1_555
Cr2 O2 2.050910 1_564
Cr2 O9 2.054304 1_554
Cr2 O5 2.055609 1_554
Cr2 O14 2.055756 1_565
Cr2 O10 2.056982 1_565
Cr3 O14 2.043578 1_555
Cr3 O5 2.044087 1_545
Cr3 O12 2.061614 1_555
Cr3 O2 2.061940 1_555
Cr3 O1 2.062265 1_545
Cr3 O7 2.062463 1_545
Cr4 O15 2.040625 1_555
Cr4 O4 2.041193 1_556
Cr4 O13 2.064568 1_556
Cr4 O6 2.066250 1_555
Cr4 O3 2.073190 1_556
Cr4 O0 2.074102 1_555
Cr5 O4 2.049912 1_555
Cr5 O14 2.058417 1_555
Cr5 O12 2.082869 1_555
Cr5 O6 2.086698 1_554
Cr5 O10 2.302518 1_555
Cr5 O8 2.373099 1_555
Cr6 O15 2.052041 1_555
Cr6 O5 2.059557 1_555
Cr6 O7 2.082293 1_555
Cr6 O13 2.083363 1_556
Cr6 O9 2.301761 1_555
Cr6 O11 2.372827 1_555
Cr7 O10 2.047252 1_665
Cr7 O9 2.047406 1_554
Cr7 O7 2.093256 1_555
Cr7 O12 2.093795 1_664
Cr7 O5 2.304775 1_654
Cr7 O14 2.306519 1_565
Cr8 O11 2.037207 1_555
Cr8 O8 2.039300 1_456
Cr8 O6 2.063909 1_455
Cr8 O13 2.064143 1_556
Cr8 O0 2.073999 1_555
Cr8 O3 2.074658 1_456
Cr9 O0 2.053378 1_555
Cr9 O11 2.054360 1_555
Cr9 O3 2.055510 1_555
Cr9 O8 2.056836 1_555
Cr9 O15 2.058135 1_555
Cr9 O4 2.058214 1_555
