# generated using pymatgen
data_La(Ho2C5)2
_symmetry_space_group_name_H-M   'P 1'
_cell_length_a   10.37237017
_cell_length_b   10.37237017
_cell_length_c   4.09321144
_cell_angle_alpha   88.43001615
_cell_angle_beta   88.43001615
_cell_angle_gamma   29.41267438
_symmetry_Int_Tables_number   1
_chemical_formula_structural   La(Ho2C5)2
_chemical_formula_sum   'La1 Ho4 C10'
_cell_volume   216.17859998
_cell_formula_units_Z   1
loop_
 _symmetry_equiv_pos_site_id
 _symmetry_equiv_pos_as_xyz
  1  'x, y, z'
loop_
 _atom_site_type_symbol
 _atom_site_label
 _atom_site_symmetry_multiplicity
 _atom_site_fract_x
 _atom_site_fract_y
 _atom_site_fract_z
 _atom_site_occupancy
  La  La0  1  0.00000000  0.00000000  0.00000000  1
  Ho  Ho0  1  0.60000200  0.60000200  0.40307400  1
  Ho  Ho1  1  0.20144400  0.20144400  0.79409200  1
  Ho  Ho2  1  0.79855600  0.79855600  0.20590800  1
  Ho  Ho3  1  0.39999800  0.39999800  0.59692600  1
  C  C0  1  0.08671500  0.08671500  0.51964900  1
  C  C1  1  0.67902400  0.67902400  0.92798500  1
  C  C2  1  0.27997400  0.27997400  0.32490500  1
  C  C3  1  0.87182800  0.87182800  0.73123200  1
  C  C4  1  0.47912000  0.47912000  0.12621900  1
  C  C5  1  0.52088000  0.52088000  0.87378100  1
  C  C6  1  0.12817200  0.12817200  0.26876800  1
  C  C7  1  0.72002600  0.72002600  0.67509500  1
  C  C8  1  0.32097600  0.32097600  0.07201500  1
  C  C9  1  0.91328500  0.91328500  0.48035100  1
loop_
_geom_bond_atom_site_label_1
_geom_bond_atom_site_label_2
_geom_bond_distance
_geom_bond_site_symmetry_2
C0 C6 1.303114 1_555
C0 La0 2.588333 1_556
C0 Ho1 2.589956 1_555
C0 Ho0 2.687973 1_455
C0 Ho0 2.687973 1_545
C0 La0 2.785921 1_555
C1 C7 1.303881 1_555
C1 Ho0 2.474072 1_556
C1 Ho2 2.683495 1_556
C1 Ho0 2.706187 1_555
C1 Ho1 2.724410 1_655
C1 Ho1 2.724410 1_565
C2 C8 1.303881 1_555
C2 Ho1 2.449427 1_555
C2 Ho3 2.681708 1_555
C2 Ho2 2.701781 1_545
C2 Ho2 2.701781 1_455
C2 Ho1 2.719850 1_554
C3 C9 1.303114 1_555
C3 Ho2 2.403071 1_556
C3 Ho2 2.638986 1_555
C3 Ho3 2.745496 1_655
C3 Ho3 2.745496 1_565
C3 La0 2.825713 1_666
C4 C5 1.311767 1_554
C4 Ho3 2.461575 1_555
C4 Ho0 2.706111 1_555
C4 La0 2.713637 1_565
C4 La0 2.713637 1_655
C4 Ho3 2.721960 1_554
C5 Ho0 2.461575 1_555
C5 Ho3 2.706111 1_555
C5 La0 2.713637 1_566
C5 La0 2.713637 1_656
C5 Ho0 2.721960 1_556
C6 Ho1 2.403071 1_554
C6 Ho1 2.638986 1_555
C6 Ho0 2.745496 1_455
C6 Ho0 2.745496 1_545
C6 La0 2.825713 1_555
C7 Ho2 2.449427 1_555
C7 Ho0 2.681708 1_555
C7 Ho1 2.701781 1_655
C7 Ho1 2.701781 1_565
C7 Ho2 2.719850 1_556
C8 Ho3 2.474072 1_554
C8 Ho1 2.683495 1_554
C8 Ho3 2.706187 1_555
C8 Ho2 2.724410 1_545
C8 Ho2 2.724410 1_455
C9 La0 2.588333 1_665
C9 Ho2 2.589956 1_555
C9 Ho3 2.687973 1_565
C9 Ho3 2.687973 1_655
C9 La0 2.785921 1_666
