# generated using pymatgen
data_CsUP2(HO4)2
_symmetry_space_group_name_H-M   'P 1'
_cell_length_a   8.53843900
_cell_length_b   10.80734664
_cell_length_c   10.90635261
_cell_angle_alpha   85.62959829
_cell_angle_beta   84.46474147
_cell_angle_gamma   88.55798293
_symmetry_Int_Tables_number   1
_chemical_formula_structural   CsUP2(HO4)2
_chemical_formula_sum   'Cs4 U4 P8 H8 O32'
_cell_volume   998.64841849
_cell_formula_units_Z   4
loop_
 _symmetry_equiv_pos_site_id
 _symmetry_equiv_pos_as_xyz
  1  'x, y, z'
loop_
 _atom_site_type_symbol
 _atom_site_label
 _atom_site_symmetry_multiplicity
 _atom_site_fract_x
 _atom_site_fract_y
 _atom_site_fract_z
 _atom_site_occupancy
  Cs  Cs0  1  0.83295900  0.22545100  0.58166200  1
  Cs  Cs1  1  0.16704100  0.77454900  0.41833800  1
  Cs  Cs2  1  0.34714300  0.73118400  0.93512600  1
  Cs  Cs3  1  0.65285700  0.26881600  0.06487400  1
  U  U0  1  0.30409500  0.13172400  0.69865000  1
  U  U1  1  0.69590500  0.86827600  0.30135000  1
  U  U2  1  0.17226400  0.35865100  0.19443500  1
  U  U3  1  0.82773600  0.64134900  0.80556500  1
  P  P0  1  0.26608900  0.42548900  0.50446600  1
  P  P1  1  0.73391100  0.57451100  0.49553400  1
  P  P2  1  0.22673100  0.06074700  0.04149400  1
  P  P3  1  0.77326900  0.93925300  0.95850600  1
  P  P4  1  0.10140500  0.37058200  0.87265300  1
  P  P5  1  0.89859500  0.62941800  0.12734700  1
  P  P6  1  0.39959900  0.12307000  0.36870700  1
  P  P7  1  0.60040100  0.87693000  0.63129300  1
  H  H0  1  0.42926500  0.40546500  0.48141400  1
  H  H1  1  0.57073500  0.59453500  0.51858600  1
  H  H2  1  0.06185500  0.06283300  0.06525500  1
  H  H3  1  0.93814500  0.93716700  0.93474500  1
  H  H4  1  0.25767500  0.41165400  0.86298000  1
  H  H5  1  0.74232500  0.58834600  0.13702000  1
  H  H6  1  0.25368100  0.06251600  0.38127500  1
  H  H7  1  0.74631900  0.93748400  0.61872500  1
  O  O0  1  0.10213300  0.24875500  0.80804900  1
  O  O1  1  0.89786700  0.75124500  0.19195100  1
  O  O2  1  0.19638900  0.30466700  0.57141800  1
  O  O3  1  0.80361100  0.69533300  0.42858200  1
  O  O4  1  0.47564000  0.95938800  0.69729400  1
  O  O5  1  0.52436000  0.04061200  0.30270600  1
  O  O6  1  0.26356600  0.04063900  0.90327600  1
  O  O7  1  0.73643400  0.95936100  0.09672400  1
  O  O8  1  0.04501500  0.34627900  0.01137600  1
  O  O9  1  0.95498500  0.65372100  0.98862400  1
  O  O10  1  0.00009000  0.52829000  0.18839800  1
  O  O11  1  0.99991000  0.47171000  0.81160200  1
  O  O12  1  0.02720000  0.25485100  0.27516000  1
  O  O13  1  0.97280000  0.74514900  0.72484000  1
  O  O14  1  0.32269800  0.45605700  0.10780000  1
  O  O15  1  0.67730200  0.54394300  0.89220000  1
  O  O16  1  0.20061000  0.45222900  0.37819200  1
  O  O17  1  0.79939000  0.54777100  0.62180800  1
  O  O18  1  0.37593900  0.24695100  0.29243700  1
  O  O19  1  0.62406100  0.75304900  0.70756300  1
  O  O20  1  0.28505300  0.18777200  0.07403600  1
  O  O21  1  0.71494700  0.81222800  0.92596400  1
  O  O22  1  0.29701900  0.95551600  0.12143300  1
  O  O23  1  0.70298100  0.04448400  0.87856700  1
  O  O24  1  0.15449900  0.03849200  0.64403700  1
  O  O25  1  0.84550100  0.96150800  0.35596300  1
  O  O26  1  0.23228300  0.53421000  0.58497800  1
  O  O27  1  0.76771700  0.46579000  0.41502200  1
  O  O28  1  0.44140300  0.14527300  0.49968600  1
  O  O29  1  0.55859700  0.85472700  0.50031400  1
  O  O30  1  0.45030500  0.23406900  0.74405000  1
  O  O31  1  0.54969500  0.76593100  0.25595000  1
loop_
_geom_bond_atom_site_label_1
_geom_bond_atom_site_label_2
_geom_bond_distance
_geom_bond_site_symmetry_2
Cs0 O27 3.124586 1_555
Cs0 H7 3.203537 1_545
Cs0 O2 3.229094 1_655
Cs0 O24 3.457520 1_655
Cs0 O17 3.544869 1_555
Cs0 O0 3.558177 1_655
Cs0 O30 3.565652 1_555
Cs0 O12 3.580665 1_655
Cs0 O28 3.683505 1_555
Cs0 O23 3.740733 1_555
Cs1 O26 3.124586 1_555
Cs1 H6 3.203537 1_565
Cs1 O3 3.229094 1_455
Cs1 O25 3.457520 1_455
Cs1 O16 3.544869 1_555
Cs1 O1 3.558177 1_455
Cs1 O31 3.565652 1_555
Cs1 O13 3.580665 1_455
Cs1 O29 3.683505 1_555
Cs1 O22 3.740733 1_555
Cs2 O19 3.257735 1_555
Cs2 O21 3.271737 1_555
Cs2 O22 3.274233 1_556
Cs2 O14 3.396059 1_556
Cs2 O6 3.400807 1_565
Cs2 O15 3.444374 1_555
Cs2 O9 3.455854 1_455
Cs2 O4 3.553406 1_555
Cs3 O18 3.257735 1_555
Cs3 O20 3.271737 1_555
Cs3 O23 3.274233 1_554
Cs3 O15 3.396059 1_554
Cs3 O7 3.400807 1_545
Cs3 O14 3.444374 1_555
Cs3 O8 3.455854 1_655
Cs3 O5 3.553406 1_555
H0 P0 1.405979 1_555
H1 P1 1.405979 1_555
H2 P2 1.406568 1_555
H3 P3 1.406568 1_555
H4 P4 1.408558 1_555
H5 P5 1.408558 1_555
H6 P6 1.412013 1_555
H7 P7 1.412013 1_555
O0 P4 1.539522 1_555
O0 U0 2.391712 1_555
O1 P5 1.539522 1_555
O1 U1 2.391712 1_555
O2 P0 1.549954 1_555
O2 U0 2.455410 1_555
O3 P1 1.549954 1_555
O3 U1 2.455410 1_555
O4 P7 1.532694 1_555
O4 U0 2.340351 1_565
O5 P6 1.532694 1_555
O5 U1 2.340351 1_545
O6 P2 1.540644 1_556
O6 U0 2.367001 1_555
O7 P3 1.540644 1_554
O7 U1 2.367001 1_555
O8 P4 1.547622 1_554
O8 U2 2.377160 1_555
O9 P5 1.547622 1_556
O9 U3 2.377160 1_555
O10 P5 1.530223 1_455
O10 U2 2.321919 1_555
O11 P4 1.530223 1_655
O11 U3 2.321919 1_555
O12 U2 1.810189 1_555
O13 U3 1.810189 1_555
O14 U2 1.825692 1_555
O15 U3 1.825692 1_555
O16 P0 1.540290 1_555
O16 U2 2.347905 1_555
O17 P1 1.540290 1_555
O17 U3 2.347905 1_555
O18 P6 1.540868 1_555
O18 U2 2.383347 1_555
O19 P7 1.540868 1_555
O19 U3 2.383347 1_555
O20 P2 1.549612 1_555
O20 U2 2.469477 1_555
O21 P3 1.549612 1_555
O21 U3 2.469477 1_555
O22 P2 1.526153 1_565
O23 P3 1.526153 1_545
O24 U0 1.817846 1_555
O25 U1 1.817846 1_555
O26 P0 1.525200 1_555
O27 P1 1.525200 1_555
O28 P6 1.542895 1_555
O28 U0 2.360964 1_555
O29 P7 1.542895 1_555
O29 U1 2.360964 1_555
O30 U0 1.816401 1_555
O31 U1 1.816401 1_555
