# generated using pymatgen
data_YCoO3
_symmetry_space_group_name_H-M   'P 1'
_cell_length_a   6.16575435
_cell_length_b   6.16575435
_cell_length_c   11.42833200
_cell_angle_alpha   90.00000000
_cell_angle_beta   90.00000000
_cell_angle_gamma   120.00000374
_symmetry_Int_Tables_number   1
_chemical_formula_structural   YCoO3
_chemical_formula_sum   'Y6 Co6 O18'
_cell_volume   376.25813590
_cell_formula_units_Z   6
loop_
 _symmetry_equiv_pos_site_id
 _symmetry_equiv_pos_as_xyz
  1  'x, y, z'
loop_
 _atom_site_type_symbol
 _atom_site_label
 _atom_site_symmetry_multiplicity
 _atom_site_fract_x
 _atom_site_fract_y
 _atom_site_fract_z
 _atom_site_occupancy
  Y  Y0  1  0.66666700  0.33333300  0.23044300  1
  Y  Y1  1  0.33333300  0.66666700  0.73044300  1
  Y  Y2  1  0.66666700  0.33333300  0.73044300  1
  Y  Y3  1  0.33333300  0.66666700  0.23044300  1
  Y  Y4  1  0.00000000  0.00000000  0.77613800  1
  Y  Y5  1  0.00000000  0.00000000  0.27613800  1
  Co  Co0  1  0.66559800  0.00000000  0.49956400  1
  Co  Co1  1  0.66559800  0.66559800  0.99956400  1
  Co  Co2  1  0.00000000  0.33440200  0.99956400  1
  Co  Co3  1  0.00000000  0.66559800  0.49956400  1
  Co  Co4  1  0.33440200  0.33440200  0.49956400  1
  Co  Co5  1  0.33440200  0.00000000  0.99956400  1
  O  O0  1  0.66666700  0.33333300  0.02192600  1
  O  O1  1  0.33333300  0.66666700  0.52192600  1
  O  O2  1  0.66666700  0.33333300  0.52192600  1
  O  O3  1  0.33333300  0.66666700  0.02192600  1
  O  O4  1  0.00000000  0.00000000  0.98201400  1
  O  O5  1  0.00000000  0.00000000  0.48201400  1
  O  O6  1  0.35873100  0.00000000  0.83976000  1
  O  O7  1  0.35873100  0.35873100  0.33976000  1
  O  O8  1  0.00000000  0.64126900  0.33976000  1
  O  O9  1  0.00000000  0.35873100  0.83976000  1
  O  O10  1  0.64126900  0.64126900  0.83976000  1
  O  O11  1  0.64126900  0.00000000  0.33976000  1
  O  O12  1  0.30764500  0.00000000  0.16471300  1
  O  O13  1  0.30764500  0.30764500  0.66471300  1
  O  O14  1  0.00000000  0.69235500  0.66471300  1
  O  O15  1  0.00000000  0.30764500  0.16471300  1
  O  O16  1  0.69235500  0.69235500  0.16471300  1
  O  O17  1  0.69235500  0.00000000  0.66471300  1
loop_
_geom_bond_atom_site_label_1
_geom_bond_atom_site_label_2
_geom_bond_distance
_geom_bond_site_symmetry_2
Co0 O11 1.832443 1_555
Co0 O17 1.894574 1_555
Co0 O2 2.067815 1_555
Co0 O1 2.067818 1_545
Co0 O5 2.071573 1_655
Co1 O10 1.832443 1_555
Co1 O16 1.894574 1_556
Co1 O3 2.067821 1_556
Co1 O0 2.067821 1_556
Co1 O4 2.071573 1_665
Co2 O9 1.832443 1_555
Co2 O15 1.894574 1_556
Co2 O0 2.067815 1_456
Co2 O3 2.067818 1_556
Co2 O4 2.071573 1_555
Co3 O8 1.832443 1_555
Co3 O14 1.894574 1_555
Co3 O1 2.067815 1_555
Co3 O2 2.067818 1_455
Co3 O5 2.071573 1_565
Co4 O7 1.832443 1_555
Co4 O13 1.894574 1_555
Co4 O1 2.067821 1_555
Co4 O2 2.067821 1_555
Co4 O5 2.071573 1_555
Co5 O6 1.832443 1_555
Co5 O12 1.894574 1_556
Co5 O3 2.067815 1_546
Co5 O0 2.067818 1_556
Co5 O4 2.071573 1_555
O0 Y0 2.383002 1_555
O1 Y1 2.383002 1_555
O2 Y2 2.383002 1_555
O3 Y3 2.383002 1_555
O4 Y4 2.352819 1_555
O5 Y5 2.352819 1_555
O6 Y4 2.328290 1_555
O6 Y1 2.342542 1_545
O6 Y2 2.342544 1_555
O7 Y5 2.328290 1_555
O7 Y3 2.342547 1_555
O7 Y0 2.342547 1_555
O8 Y5 2.328290 1_565
O8 Y3 2.342542 1_555
O8 Y0 2.342544 1_455
O9 Y4 2.328290 1_555
O9 Y2 2.342542 1_455
O9 Y1 2.342544 1_555
O10 Y4 2.328290 1_665
O10 Y1 2.342547 1_555
O10 Y2 2.342547 1_555
O11 Y5 2.328290 1_655
O11 Y0 2.342542 1_555
O11 Y3 2.342544 1_545
O12 Y3 2.266922 1_545
O12 Y0 2.266925 1_555
O12 Y5 2.284654 1_555
O13 Y1 2.266928 1_555
O13 Y2 2.266928 1_555
O13 Y4 2.284654 1_555
O14 Y1 2.266922 1_555
O14 Y2 2.266925 1_455
O14 Y4 2.284654 1_565
O15 Y0 2.266922 1_455
O15 Y3 2.266925 1_555
O15 Y5 2.284654 1_555
O16 Y3 2.266928 1_555
O16 Y0 2.266928 1_555
O16 Y5 2.284654 1_665
O17 Y2 2.266922 1_555
O17 Y1 2.266925 1_545
O17 Y4 2.284654 1_655
