# generated using pymatgen
data_CoH18S2Br(N3O2)2
_symmetry_space_group_name_H-M   'P 1'
_cell_length_a   7.35551000
_cell_length_b   13.07217100
_cell_length_c   13.69177200
_cell_angle_alpha   90.00000000
_cell_angle_beta   90.00000000
_cell_angle_gamma   90.00000000
_symmetry_Int_Tables_number   1
_chemical_formula_structural   CoH18S2Br(N3O2)2
_chemical_formula_sum   'Co4 H72 S8 Br4 N24 O16'
_cell_volume   1316.49789517
_cell_formula_units_Z   4
loop_
 _symmetry_equiv_pos_site_id
 _symmetry_equiv_pos_as_xyz
  1  'x, y, z'
loop_
 _atom_site_type_symbol
 _atom_site_label
 _atom_site_symmetry_multiplicity
 _atom_site_fract_x
 _atom_site_fract_y
 _atom_site_fract_z
 _atom_site_occupancy
  Co  Co0  1  0.00000000  0.50000000  0.00000000  1
  Co  Co1  1  0.00000000  0.00000000  0.50000000  1
  Co  Co2  1  0.50000000  0.00000000  0.00000000  1
  Co  Co3  1  0.50000000  0.50000000  0.50000000  1
  H  H0  1  0.30935800  0.55374600  0.06411600  1
  H  H1  1  0.30935800  0.44625400  0.93588400  1
  H  H2  1  0.69064200  0.05374600  0.43588400  1
  H  H3  1  0.69064200  0.94625400  0.56411600  1
  H  H4  1  0.69064200  0.44625400  0.93588400  1
  H  H5  1  0.69064200  0.55374600  0.06411600  1
  H  H6  1  0.30935800  0.94625400  0.56411600  1
  H  H7  1  0.30935800  0.05374600  0.43588400  1
  H  H8  1  0.15198900  0.59425900  0.14075000  1
  H  H9  1  0.15198900  0.40574100  0.85925000  1
  H  H10  1  0.84801100  0.09425900  0.35925000  1
  H  H11  1  0.84801100  0.90574100  0.64075000  1
  H  H12  1  0.84801100  0.40574100  0.85925000  1
  H  H13  1  0.84801100  0.59425900  0.14075000  1
  H  H14  1  0.15198900  0.90574100  0.64075000  1
  H  H15  1  0.15198900  0.09425900  0.35925000  1
  H  H16  1  0.21677700  0.47371500  0.14537500  1
  H  H17  1  0.21677700  0.52628500  0.85462500  1
  H  H18  1  0.78322300  0.97371500  0.35462500  1
  H  H19  1  0.78322300  0.02628500  0.64537500  1
  H  H20  1  0.78322300  0.52628500  0.85462500  1
  H  H21  1  0.78322300  0.47371500  0.14537500  1
  H  H22  1  0.21677700  0.02628500  0.64537500  1
  H  H23  1  0.21677700  0.97371500  0.35462500  1
  H  H24  1  0.25040200  0.96556900  0.87511100  1
  H  H25  1  0.25040200  0.03443100  0.12488900  1
  H  H26  1  0.74959800  0.46556900  0.62488900  1
  H  H27  1  0.74959800  0.53443100  0.37511100  1
  H  H28  1  0.74959800  0.03443100  0.12488900  1
  H  H29  1  0.74959800  0.96556900  0.87511100  1
  H  H30  1  0.25040200  0.53443100  0.37511100  1
  H  H31  1  0.25040200  0.46556900  0.62488900  1
  H  H32  1  0.35541100  0.85658400  0.90029600  1
  H  H33  1  0.35541100  0.14341600  0.09970400  1
  H  H34  1  0.64458900  0.35658400  0.59970400  1
  H  H35  1  0.64458900  0.64341600  0.40029600  1
  H  H36  1  0.64458900  0.14341600  0.09970400  1
  H  H37  1  0.64458900  0.85658400  0.90029600  1
  H  H38  1  0.35541100  0.64341600  0.40029600  1
  H  H39  1  0.35541100  0.35658400  0.59970400  1
  H  H40  1  0.20325300  0.90290700  0.97811700  1
  H  H41  1  0.20325300  0.09709300  0.02188300  1
  H  H42  1  0.79674700  0.40290700  0.52188300  1
  H  H43  1  0.79674700  0.59709300  0.47811700  1
  H  H44  1  0.79674700  0.09709300  0.02188300  1
  H  H45  1  0.79674700  0.90290700  0.97811700  1
  H  H46  1  0.20325300  0.59709300  0.47811700  1
  H  H47  1  0.20325300  0.40290700  0.52188300  1
  H  H48  1  0.38731500  0.89248900  0.14479900  1
  H  H49  1  0.38731500  0.10751100  0.85520100  1
  H  H50  1  0.61268500  0.39248900  0.35520100  1
  H  H51  1  0.61268500  0.60751100  0.64479900  1
  H  H52  1  0.61268500  0.10751100  0.85520100  1
  H  H53  1  0.61268500  0.89248900  0.14479900  1
  H  H54  1  0.38731500  0.60751100  0.64479900  1
  H  H55  1  0.38731500  0.39248900  0.35520100  1
  H  H56  1  0.50000000  0.81895500  0.06730200  1
  H  H57  1  0.50000000  0.18104500  0.93269800  1
  H  H58  1  0.50000000  0.31895500  0.43269800  1
  H  H59  1  0.50000000  0.68104500  0.56730200  1
  H  H60  1  0.00000000  0.69636400  0.01960600  1
  H  H61  1  0.00000000  0.30363600  0.98039400  1
  H  H62  1  0.00000000  0.19636400  0.48039400  1
  H  H63  1  0.00000000  0.80363600  0.51960600  1
  H  H64  1  0.11300300  0.66510100  0.92099000  1
  H  H65  1  0.11300300  0.33489900  0.07901000  1
  H  H66  1  0.88699700  0.16510100  0.57901000  1
  H  H67  1  0.88699700  0.83489900  0.42099000  1
  H  H68  1  0.88699700  0.33489900  0.07901000  1
  H  H69  1  0.88699700  0.66510100  0.92099000  1
  H  H70  1  0.11300300  0.83489900  0.42099000  1
  H  H71  1  0.11300300  0.16510100  0.57901000  1
  S  S0  1  0.00000000  0.86426300  0.17832500  1
  S  S1  1  0.00000000  0.13573700  0.82167500  1
  S  S2  1  0.00000000  0.36426300  0.32167500  1
  S  S3  1  0.00000000  0.63573700  0.67832500  1
  S  S4  1  0.00000000  0.72224900  0.23931600  1
  S  S5  1  0.00000000  0.27775100  0.76068400  1
  S  S6  1  0.00000000  0.22224900  0.26068400  1
  S  S7  1  0.00000000  0.77775100  0.73931600  1
  Br  Br0  1  0.50000000  0.82779800  0.44503400  1
  Br  Br1  1  0.50000000  0.17220200  0.55496600  1
  Br  Br2  1  0.50000000  0.32779800  0.05496600  1
  Br  Br3  1  0.50000000  0.67220200  0.94503400  1
  N  N0  1  0.18968400  0.53274600  0.09771000  1
  N  N1  1  0.18968400  0.46725400  0.90229000  1
  N  N2  1  0.81031600  0.03274600  0.40229000  1
  N  N3  1  0.81031600  0.96725400  0.59771000  1
  N  N4  1  0.81031600  0.46725400  0.90229000  1
  N  N5  1  0.81031600  0.53274600  0.09771000  1
  N  N6  1  0.18968400  0.96725400  0.59771000  1
  N  N7  1  0.18968400  0.03274600  0.40229000  1
  N  N8  1  0.00000000  0.64611700  0.96162800  1
  N  N9  1  0.00000000  0.35388300  0.03837200  1
  N  N10  1  0.00000000  0.14611700  0.53837200  1
  N  N11  1  0.00000000  0.85388300  0.46162800  1
  N  N12  1  0.50000000  0.89028600  0.09982100  1
  N  N13  1  0.50000000  0.10971400  0.90017900  1
  N  N14  1  0.50000000  0.39028600  0.40017900  1
  N  N15  1  0.50000000  0.60971400  0.59982100  1
  N  N16  1  0.30651600  0.92314500  0.93088900  1
  N  N17  1  0.30651600  0.07685500  0.06911100  1
  N  N18  1  0.69348400  0.42314500  0.56911100  1
  N  N19  1  0.69348400  0.57685500  0.43088900  1
  N  N20  1  0.69348400  0.07685500  0.06911100  1
  N  N21  1  0.69348400  0.92314500  0.93088900  1
  N  N22  1  0.30651600  0.57685500  0.43088900  1
  N  N23  1  0.30651600  0.42314500  0.56911100  1
  O  O0  1  0.00000000  0.85525700  0.06969400  1
  O  O1  1  0.00000000  0.14474300  0.93030600  1
  O  O2  1  0.00000000  0.35525700  0.43030600  1
  O  O3  1  0.00000000  0.64474300  0.56969400  1
  O  O4  1  0.16580200  0.91850300  0.21283300  1
  O  O5  1  0.16580200  0.08149700  0.78716700  1
  O  O6  1  0.83419800  0.41850300  0.28716700  1
  O  O7  1  0.83419800  0.58149700  0.71283300  1
  O  O8  1  0.83419800  0.08149700  0.78716700  1
  O  O9  1  0.83419800  0.91850300  0.21283300  1
  O  O10  1  0.16580200  0.58149700  0.71283300  1
  O  O11  1  0.16580200  0.41850300  0.28716700  1
  O  O12  1  0.50000000  0.68002800  0.24708700  1
  O  O13  1  0.50000000  0.31997200  0.75291300  1
  O  O14  1  0.50000000  0.18002800  0.25291300  1
  O  O15  1  0.50000000  0.81997200  0.74708700  1
loop_
_geom_bond_atom_site_label_1
_geom_bond_atom_site_label_2
_geom_bond_distance
_geom_bond_site_symmetry_2
Co0 N4 1.979811 1_454
Co0 N1 1.979811 1_554
Co0 N5 1.979811 1_455
Co0 N0 1.979811 1_555
Co0 N9 1.981004 1_555
Co0 N8 1.981004 1_554
Co1 N3 1.979811 1_445
Co1 N6 1.979811 1_545
Co1 N2 1.979811 1_455
Co1 N7 1.979811 1_555
Co1 N10 1.981004 1_555
Co1 N11 1.981004 1_545
Co2 N12 1.981129 1_545
Co2 N13 1.981129 1_554
Co2 N20 1.982463 1_555
Co2 N17 1.982463 1_555
Co2 N16 1.982463 1_544
Co2 N21 1.982463 1_544
Co3 N14 1.981129 1_555
Co3 N15 1.981129 1_555
Co3 N22 1.982463 1_555
Co3 N19 1.982463 1_555
Co3 N23 1.982463 1_555
Co3 N18 1.982463 1_555
H0 N0 1.030430 1_555
H1 N1 1.030430 1_555
H2 N2 1.030430 1_555
H3 N3 1.030430 1_555
H4 N4 1.030430 1_555
H5 N5 1.030430 1_555
H6 N6 1.030430 1_555
H7 N7 1.030430 1_555
H8 N0 1.034763 1_555
H9 N1 1.034763 1_555
H10 N2 1.034763 1_555
H11 N3 1.034763 1_555
H12 N4 1.034763 1_555
H13 N5 1.034763 1_555
H14 N6 1.034763 1_555
H15 N7 1.034763 1_555
H16 N0 1.030092 1_555
H17 N1 1.030092 1_555
H18 N2 1.030092 1_565
H19 N3 1.030092 1_545
H20 N4 1.030092 1_555
H21 N5 1.030092 1_555
H22 N6 1.030092 1_545
H23 N7 1.030092 1_565
H24 N16 1.030121 1_555
H25 N17 1.030121 1_555
H26 N18 1.030121 1_555
H27 N19 1.030121 1_555
H28 N20 1.030121 1_555
H29 N21 1.030121 1_555
H30 N22 1.030121 1_555
H31 N23 1.030121 1_555
H32 N16 1.030470 1_555
H33 N17 1.030470 1_555
H34 N18 1.030470 1_555
H35 N19 1.030470 1_555
H36 N20 1.030470 1_555
H37 N21 1.030470 1_555
H38 N22 1.030470 1_555
H39 N23 1.030470 1_555
H40 N16 1.032010 1_555
H41 N17 1.032010 1_555
H42 N18 1.032010 1_555
H43 N19 1.032010 1_555
H44 N20 1.032010 1_555
H45 N21 1.032010 1_555
H46 N22 1.032010 1_555
H47 N23 1.032010 1_555
H48 N12 1.032994 1_555
H49 N13 1.032994 1_555
H50 N14 1.032994 1_555
H51 N15 1.032994 1_555
H52 N13 1.032994 1_555
H53 N12 1.032994 1_555
H54 N15 1.032994 1_555
H55 N14 1.032994 1_555
H56 N12 1.033299 1_555
H57 N13 1.033299 1_555
H58 N14 1.033299 1_555
H59 N15 1.033299 1_555
H60 N8 1.030334 1_554
H61 N9 1.030334 1_556
H62 N10 1.030334 1_555
H63 N11 1.030334 1_555
H64 N8 1.030561 1_555
H65 N9 1.030561 1_555
H66 N10 1.030561 1_655
H67 N11 1.030561 1_655
H68 N9 1.030561 1_655
H69 N8 1.030561 1_655
H70 N11 1.030561 1_555
H71 N10 1.030561 1_555
S0 S4 2.035605 1_555
S1 S5 2.035605 1_555
S2 S6 2.035605 1_555
S3 S7 2.035605 1_555
O0 S0 1.492003 1_555
O1 S1 1.492003 1_555
O2 S2 1.492003 1_555
O3 S3 1.492003 1_555
O4 S0 1.487712 1_555
O5 S1 1.487712 1_555
O6 S2 1.487712 1_655
O7 S3 1.487712 1_655
O8 S1 1.487712 1_655
O9 S0 1.487712 1_655
O10 S3 1.487712 1_555
O11 S2 1.487712 1_555
