# generated using pymatgen
data_LiMg
_symmetry_space_group_name_H-M   'P 1'
_cell_length_a   5.69520297
_cell_length_b   5.69520297
_cell_length_c   4.89945524
_cell_angle_alpha   64.69179992
_cell_angle_beta   64.69179992
_cell_angle_gamma   34.47540185
_symmetry_Int_Tables_number   1
_chemical_formula_structural   LiMg
_chemical_formula_sum   'Li2 Mg2'
_cell_volume   80.44073330
_cell_formula_units_Z   2
loop_
 _symmetry_equiv_pos_site_id
 _symmetry_equiv_pos_as_xyz
  1  'x, y, z'
loop_
 _atom_site_type_symbol
 _atom_site_label
 _atom_site_symmetry_multiplicity
 _atom_site_fract_x
 _atom_site_fract_y
 _atom_site_fract_z
 _atom_site_occupancy
  Li  Li0  1  0.63329948  0.63329948  0.61645881  1
  Li  Li1  1  0.36670052  0.36670052  0.38354119  1
  Mg  Mg0  1  0.88460438  0.88460438  0.86454547  1
  Mg  Mg1  1  0.11539562  0.11539562  0.13545453  1
loop_
_geom_bond_atom_site_label_1
_geom_bond_atom_site_label_2
_geom_bond_distance
_geom_bond_site_symmetry_2
Li0 Li1 2.829111 1_655
Li0 Li1 2.829111 1_565
Li0 Mg0 2.949857 1_545
Li0 Mg0 2.949857 1_455
Li0 Mg1 2.975063 1_655
Li0 Mg1 2.975063 1_565
Li0 Mg1 2.984747 1_656
Li0 Mg1 2.984747 1_566
Li1 Mg1 2.949857 1_655
Li1 Mg1 2.949857 1_565
Li1 Mg0 2.975063 1_455
Li1 Mg0 2.975063 1_545
Li1 Mg0 2.984747 1_454
Li1 Mg0 2.984747 1_544
Mg0 Mg1 3.115663 1_566
Mg0 Mg1 3.115663 1_656
