# generated using pymatgen
data_Mg3CoB8P8(H8O13)4
_symmetry_space_group_name_H-M   'P 1'
_cell_length_a   7.85873311
_cell_length_b   8.45492248
_cell_length_c   14.76303107
_cell_angle_alpha   90.03062333
_cell_angle_beta   90.03111981
_cell_angle_gamma   90.23639252
_symmetry_Int_Tables_number   1
_chemical_formula_structural   Mg3CoB8P8(H8O13)4
_chemical_formula_sum   'Mg3 Co1 B8 P8 H32 O52'
_cell_volume   980.92065874
_cell_formula_units_Z   1
loop_
 _symmetry_equiv_pos_site_id
 _symmetry_equiv_pos_as_xyz
  1  'x, y, z'
loop_
 _atom_site_type_symbol
 _atom_site_label
 _atom_site_symmetry_multiplicity
 _atom_site_fract_x
 _atom_site_fract_y
 _atom_site_fract_z
 _atom_site_occupancy
  Mg  Mg0  1  0.24923500  0.80267300  0.53477300  1
  Mg  Mg1  1  0.24926600  0.30284400  0.96529400  1
  Mg  Mg2  1  0.75070200  0.19730800  0.46514700  1
  Co  Co0  1  0.75006400  0.69757800  0.03487800  1
  B  B0  1  0.58238500  0.72667400  0.83336800  1
  B  B1  1  0.41756600  0.77342500  0.33351700  1
  B  B2  1  0.41755400  0.27329400  0.16664300  1
  B  B3  1  0.58243700  0.22664600  0.66657400  1
  B  B4  1  0.08295300  0.44010000  0.78182600  1
  B  B5  1  0.91704400  0.05988900  0.28188100  1
  B  B6  1  0.91705700  0.56011500  0.21803000  1
  B  B7  1  0.08303500  0.94029900  0.71783700  1
  P  P0  1  0.43093300  0.43580500  0.78667200  1
  P  P1  1  0.56907000  0.06405300  0.28672000  1
  P  P2  1  0.56868700  0.56427000  0.21348000  1
  P  P3  1  0.43095900  0.93596900  0.71304700  1
  P  P4  1  0.93121900  0.22402600  0.66287100  1
  P  P5  1  0.06849600  0.27606700  0.16296800  1
  P  P6  1  0.06874000  0.77611100  0.33705000  1
  P  P7  1  0.93198600  0.72401200  0.83701500  1
  H  H0  1  0.64204100  0.68993000  0.61632800  1
  H  H1  1  0.35766600  0.80985800  0.11623000  1
  H  H2  1  0.35791000  0.31005300  0.38366000  1
  H  H3  1  0.64251600  0.18975400  0.88402200  1
  H  H4  1  0.77494300  0.49906700  0.39736300  1
  H  H5  1  0.22500600  0.00090700  0.89739300  1
  H  H6  1  0.22501800  0.50095100  0.60267200  1
  H  H7  1  0.77542100  0.99669700  0.10302600  1
  H  H8  1  0.03503400  0.72371000  0.13125400  1
  H  H9  1  0.96527500  0.77750100  0.63164700  1
  H  H10  1  0.96538100  0.27741100  0.86823200  1
  H  H11  1  0.03483500  0.22256900  0.36828600  1
  H  H12  1  0.85535900  0.88558000  0.47359400  1
  H  H13  1  0.14530900  0.61473600  0.97354000  1
  H  H14  1  0.14467000  0.11444800  0.52639300  1
  H  H15  1  0.85465500  0.38645200  0.02708800  1
  H  H16  1  0.72353800  0.92189700  0.55177100  1
  H  H17  1  0.27707500  0.57820600  0.05196500  1
  H  H18  1  0.27651300  0.07809000  0.44823600  1
  H  H19  1  0.72460600  0.42336300  0.94789300  1
  H  H20  1  0.75422700  0.51582400  0.50419900  1
  H  H21  1  0.24586000  0.98421100  0.00423000  1
  H  H22  1  0.24578600  0.48418500  0.49582000  1
  H  H23  1  0.75504600  0.01501000  0.99531300  1
  H  H24  1  0.45675600  0.66849000  0.95063700  1
  H  H25  1  0.54324700  0.82977200  0.45018800  1
  H  H26  1  0.54316000  0.32962400  0.04989800  1
  H  H27  1  0.45676300  0.17028400  0.54986100  1
  H  H28  1  0.77522400  0.57433900  0.65588600  1
  H  H29  1  0.22496800  0.92578300  0.15594200  1
  H  H30  1  0.22471800  0.42556100  0.34413300  1
  H  H31  1  0.77516800  0.07416100  0.84401600  1
  O  O0  1  0.75293900  0.28908900  0.68981400  1
  O  O1  1  0.24699000  0.21103600  0.18970600  1
  O  O2  1  0.24714600  0.71096600  0.31022200  1
  O  O3  1  0.75323000  0.78888600  0.81096700  1
  O  O4  1  0.95396900  0.06922900  0.71924200  1
  O  O5  1  0.04563000  0.43065500  0.21948500  1
  O  O6  1  0.04603600  0.93085100  0.28066400  1
  O  O7  1  0.95384800  0.56918000  0.78049200  1
  O  O8  1  0.75680900  0.43951800  0.45310900  1
  O  O9  1  0.24307200  0.06052300  0.95313700  1
  O  O10  1  0.24324100  0.56048400  0.54690800  1
  O  O11  1  0.75491300  0.93913800  0.04685600  1
  O  O12  1  0.93059100  0.65999000  0.13766900  1
  O  O13  1  0.07063200  0.84010900  0.63738200  1
  O  O14  1  0.07059800  0.34009700  0.86237700  1
  O  O15  1  0.92936200  0.16016100  0.36232100  1
  O  O16  1  0.94915900  0.19832400  0.56157000  1
  O  O17  1  0.05018400  0.30206800  0.06163300  1
  O  O18  1  0.05075100  0.80172900  0.43832200  1
  O  O19  1  0.95344000  0.69872100  0.93836400  1
  O  O20  1  0.75524400  0.64399100  0.60388000  1
  O  O21  1  0.24471800  0.85653100  0.10372800  1
  O  O22  1  0.24481200  0.35610200  0.39620200  1
  O  O23  1  0.75547800  0.14318500  0.89637600  1
  O  O24  1  0.74825800  0.98531500  0.27924000  1
  O  O25  1  0.25172100  0.51468800  0.77929700  1
  O  O26  1  0.25178200  0.01496700  0.72047400  1
  O  O27  1  0.74808800  0.48608000  0.22006300  1
  O  O28  1  0.44770100  0.33526500  0.87182500  1
  O  O29  1  0.55229400  0.16460900  0.37179200  1
  O  O30  1  0.54903000  0.66493900  0.12851100  1
  O  O31  1  0.44769500  0.83555700  0.62792700  1
  O  O32  1  0.06055800  0.35227200  0.69473000  1
  O  O33  1  0.93952300  0.14751300  0.19465500  1
  O  O34  1  0.93944800  0.64780200  0.30514300  1
  O  O35  1  0.06062500  0.85245500  0.80480700  1
  O  O36  1  0.74521300  0.93923000  0.48731700  1
  O  O37  1  0.25521400  0.56047200  0.98749800  1
  O  O38  1  0.25482700  0.06083800  0.51269600  1
  O  O39  1  0.74319400  0.43765000  0.01292100  1
  O  O40  1  0.56910000  0.70745900  0.93107500  1
  O  O41  1  0.42940300  0.79360900  0.43119200  1
  O  O42  1  0.42937900  0.29350400  0.06898100  1
  O  O43  1  0.57057000  0.20652100  0.56884800  1
  O  O44  1  0.56133900  0.07427600  0.71683000  1
  O  O45  1  0.43888500  0.42541200  0.21722900  1
  O  O46  1  0.43885400  0.92562100  0.28315600  1
  O  O47  1  0.56137500  0.57411100  0.78321400  1
  O  O48  1  0.45470900  0.34168800  0.69729100  1
  O  O49  1  0.54510600  0.15815200  0.19729800  1
  O  O50  1  0.54533500  0.65826200  0.30296300  1
  O  O51  1  0.45489500  0.84159100  0.80229100  1
loop_
_geom_bond_atom_site_label_1
_geom_bond_atom_site_label_2
_geom_bond_distance
_geom_bond_site_symmetry_2
Mg0 O10 2.055955 1_555
Mg0 O41 2.086170 1_555
Mg0 O13 2.090550 1_555
Mg0 O31 2.096365 1_555
Mg0 O18 2.111429 1_555
Mg0 O38 2.207398 1_565
Mg1 O9 2.056929 1_555
Mg1 O42 2.086051 1_556
Mg1 O14 2.093092 1_555
Mg1 O28 2.100075 1_555
Mg1 O17 2.114937 1_556
Mg1 O37 2.202880 1_555
Mg2 O8 2.056023 1_555
Mg2 O43 2.087327 1_555
Mg2 O15 2.092801 1_555
Mg2 O29 2.097807 1_555
Mg2 O16 2.110994 1_555
Mg2 O36 2.206862 1_545
Co0 O11 2.050114 1_555
Co0 O40 2.092039 1_554
Co0 O12 2.102016 1_555
Co0 O30 2.117099 1_555
Co0 O19 2.141755 1_554
Co0 O39 2.221708 1_555
B0 O40 1.455415 1_555
B0 O51 1.471855 1_555
B0 O3 1.477675 1_555
B0 O47 1.495474 1_555
B1 O41 1.454833 1_555
B1 O50 1.472364 1_555
B1 O2 1.477938 1_555
B1 O46 1.495327 1_555
B2 O42 1.454944 1_555
B2 O49 1.471522 1_555
B2 O1 1.478037 1_555
B2 O45 1.495675 1_555
B3 O43 1.455536 1_555
B3 O48 1.472204 1_555
B3 O0 1.478285 1_555
B3 O44 1.495661 1_555
B4 O14 1.462529 1_555
B4 O25 1.466749 1_555
B4 O7 1.493323 1_455
B4 O32 1.494435 1_555
B5 O15 1.461674 1_555
B5 O24 1.466814 1_545
B5 O6 1.492434 1_645
B5 O33 1.496156 1_555
B6 O12 1.460250 1_555
B6 O27 1.466016 1_555
B6 O5 1.492860 1_655
B6 O34 1.494057 1_555
B7 O13 1.461495 1_555
B7 O26 1.466875 1_565
B7 O4 1.492197 1_465
B7 O35 1.493764 1_555
H0 O20 0.989461 1_555
H1 O21 0.990183 1_555
H2 O22 0.989346 1_555
H3 O23 0.989523 1_555
H4 O8 0.975232 1_555
H5 O9 0.974838 1_555
H6 O10 0.975488 1_555
H7 O11 0.974281 1_555
H8 O12 0.984583 1_455
H9 O13 0.984466 1_655
H10 O14 0.984177 1_655
H11 O15 0.984625 1_455
H12 O36 0.999706 1_555
H13 O37 1.001068 1_555
H13 O19 1.748108 1_455
H14 O38 0.999549 1_555
H15 O39 1.000712 1_555
H16 O36 0.977769 1_555
H17 O37 0.978387 1_554
H18 O38 0.977768 1_555
H19 O39 0.978329 1_556
H20 O8 0.992538 1_555
H21 O9 0.993150 1_564
H22 O10 0.992471 1_555
H23 O11 0.995513 1_546
H24 O40 0.984590 1_555
H25 O41 0.984858 1_555
H26 O42 0.985034 1_555
H27 O43 0.984748 1_555
H28 O20 0.980837 1_555
H29 O21 0.980567 1_555
H30 O22 0.980731 1_555
H31 O23 0.981037 1_555
O0 P4 1.559010 1_555
O1 P5 1.559421 1_555
O2 P6 1.559716 1_555
O3 P7 1.558262 1_555
O4 P4 1.562183 1_555
O5 P5 1.561318 1_555
O6 P6 1.561854 1_555
O7 P7 1.562176 1_555
O16 P4 1.517822 1_555
O17 P5 1.519035 1_555
O18 P6 1.517335 1_555
O19 P7 1.520916 1_555
O24 P1 1.564036 1_565
O25 P0 1.564567 1_555
O26 P3 1.564848 1_545
O27 P2 1.562631 1_555
O28 P0 1.523874 1_555
O29 P1 1.522337 1_555
O30 P2 1.524419 1_555
O31 P3 1.522214 1_555
O32 P4 1.555614 1_455
O33 P5 1.555473 1_655
O34 P6 1.555958 1_655
O35 P7 1.555457 1_455
O44 P3 1.552542 1_545
O45 P2 1.553135 1_555
O46 P1 1.552379 1_565
O47 P0 1.552772 1_555
O48 P0 1.552314 1_555
O49 P1 1.553481 1_555
O50 P2 1.552646 1_555
O51 P3 1.552435 1_555
