# generated using pymatgen
data_Cu4O3
_symmetry_space_group_name_H-M   'P 1'
_cell_length_a   4.04840500
_cell_length_b   4.04840500
_cell_length_c   9.38647000
_cell_angle_alpha   90.00000000
_cell_angle_beta   90.00000000
_cell_angle_gamma   90.00000000
_symmetry_Int_Tables_number   1
_chemical_formula_structural   Cu4O3
_chemical_formula_sum   'Cu8 O6'
_cell_volume   153.84032956
_cell_formula_units_Z   2
loop_
 _symmetry_equiv_pos_site_id
 _symmetry_equiv_pos_as_xyz
  1  'x, y, z'
loop_
 _atom_site_type_symbol
 _atom_site_label
 _atom_site_symmetry_multiplicity
 _atom_site_fract_x
 _atom_site_fract_y
 _atom_site_fract_z
 _atom_site_occupancy
  Cu  Cu0  1  0.00000000  0.50000000  0.76339000  1
  Cu  Cu1  1  0.50000000  0.00000000  0.23661000  1
  Cu  Cu2  1  0.00000000  0.00000000  0.00000000  1
  Cu  Cu3  1  0.00000000  0.00000000  0.50000000  1
  Cu  Cu4  1  0.50000000  0.00000000  0.79601100  1
  Cu  Cu5  1  0.00000000  0.50000000  0.20398900  1
  Cu  Cu6  1  0.50000000  0.50000000  0.00000000  1
  Cu  Cu7  1  0.50000000  0.50000000  0.50000000  1
  O  O0  1  0.00000000  0.00000000  0.20280100  1
  O  O1  1  0.00000000  0.00000000  0.79719900  1
  O  O2  1  0.00000000  0.50000000  0.50806800  1
  O  O3  1  0.50000000  0.00000000  0.49193200  1
  O  O4  1  0.50000000  0.50000000  0.20280100  1
  O  O5  1  0.50000000  0.50000000  0.79719900  1
loop_
_geom_bond_atom_site_label_1
_geom_bond_atom_site_label_2
_geom_bond_distance
_geom_bond_site_symmetry_2
Cu0 O1 2.048928 1_555
Cu0 O5 2.048928 1_455
Cu0 O1 2.048928 1_565
Cu0 O5 2.048928 1_555
Cu0 O2 2.396572 1_555
Cu1 O0 2.048928 1_555
Cu1 O0 2.048928 1_655
Cu1 O4 2.048928 1_555
Cu1 O4 2.048928 1_545
Cu1 O3 2.396572 1_555
Cu2 O0 1.903586 1_555
Cu2 O1 1.903586 1_554
Cu3 O2 2.025619 1_555
Cu3 O2 2.025619 1_545
Cu3 O3 2.025619 1_555
Cu3 O3 2.025619 1_455
Cu4 O1 2.024233 1_655
Cu4 O5 2.024233 1_545
Cu4 O5 2.024233 1_555
Cu4 O1 2.024233 1_555
Cu5 O4 2.024233 1_555
Cu5 O4 2.024233 1_455
Cu5 O0 2.024233 1_555
Cu5 O0 2.024233 1_565
Cu6 O4 1.903586 1_555
Cu6 O5 1.903586 1_554
Cu7 O2 2.025619 1_555
Cu7 O3 2.025619 1_565
Cu7 O3 2.025619 1_555
Cu7 O2 2.025619 1_655
