# generated using pymatgen
data_Na2GeTeO6
_symmetry_space_group_name_H-M   'P 1'
_cell_length_a   6.17084572
_cell_length_b   6.17084572
_cell_length_c   6.17084604
_cell_angle_alpha   49.65910788
_cell_angle_beta   49.65910788
_cell_angle_gamma   49.65910369
_symmetry_Int_Tables_number   1
_chemical_formula_structural   Na2GeTeO6
_chemical_formula_sum   'Na2 Ge1 Te1 O6'
_cell_volume   125.53292867
_cell_formula_units_Z   1
loop_
 _symmetry_equiv_pos_site_id
 _symmetry_equiv_pos_as_xyz
  1  'x, y, z'
loop_
 _atom_site_type_symbol
 _atom_site_label
 _atom_site_symmetry_multiplicity
 _atom_site_fract_x
 _atom_site_fract_y
 _atom_site_fract_z
 _atom_site_occupancy
  Na  Na0  1  0.85876200  0.85876200  0.85876200  1
  Na  Na1  1  0.14077600  0.14077600  0.14077600  1
  Ge  Ge0  1  0.66220700  0.66220700  0.66220700  1
  Te  Te0  1  0.33724100  0.33724100  0.33724100  1
  O  O0  1  0.68849800  0.05885800  0.45780900  1
  O  O1  1  0.45780900  0.68849800  0.05885800  1
  O  O2  1  0.05885800  0.45780900  0.68849800  1
  O  O3  1  0.31560500  0.93547100  0.54477200  1
  O  O4  1  0.54477200  0.31560500  0.93547100  1
  O  O5  1  0.93547100  0.54477200  0.31560500  1
loop_
_geom_bond_atom_site_label_1
_geom_bond_atom_site_label_2
_geom_bond_distance
_geom_bond_site_symmetry_2
Na0 O4 2.322519 1_565
Na0 O3 2.322519 1_655
Na0 O5 2.322519 1_556
Na0 O2 2.545782 1_655
Na0 O1 2.545782 1_556
Na0 O0 2.545782 1_565
Na1 O1 2.312881 1_545
Na1 O0 2.312881 1_455
Na1 O2 2.312881 1_554
Na1 O5 2.570496 1_455
Na1 O4 2.570496 1_554
Na1 O3 2.570497 1_545
Ge0 O3 1.923131 1_555
Ge0 O4 1.923131 1_555
Ge0 O5 1.923131 1_555
Ge0 O2 1.964820 1_655
Ge0 O0 1.964820 1_565
Ge0 O1 1.964820 1_556
O0 Te0 1.953272 1_555
O1 Te0 1.953273 1_555
O2 Te0 1.953273 1_555
O3 Te0 1.975136 1_565
O4 Te0 1.975136 1_556
O5 Te0 1.975135 1_655
