# generated using pymatgen
data_KNa7V8O24
_symmetry_space_group_name_H-M   'P 1'
_cell_length_a   9.83239000
_cell_length_b   5.95518500
_cell_length_c   10.69251902
_cell_angle_alpha   75.46054426
_cell_angle_beta   90.00000000
_cell_angle_gamma   90.00000000
_symmetry_Int_Tables_number   1
_chemical_formula_structural   KNa7V8O24
_chemical_formula_sum   'K1 Na7 V8 O24'
_cell_volume   606.03613831
_cell_formula_units_Z   1
loop_
 _symmetry_equiv_pos_site_id
 _symmetry_equiv_pos_as_xyz
  1  'x, y, z'
loop_
 _atom_site_type_symbol
 _atom_site_label
 _atom_site_symmetry_multiplicity
 _atom_site_fract_x
 _atom_site_fract_y
 _atom_site_fract_z
 _atom_site_occupancy
  K  K0  1  0.80048300  0.50000000  0.50000000  1
  Na  Na0  1  0.40897700  0.50000000  0.50000000  1
  Na  Na1  1  0.90957800  0.00000000  0.00000000  1
  Na  Na2  1  0.58929600  0.00000000  0.50000000  1
  Na  Na3  1  0.09032600  0.50000000  0.00000000  1
  Na  Na4  1  0.29161500  0.00000000  0.00000000  1
  Na  Na5  1  0.20845400  0.00000000  0.50000000  1
  Na  Na6  1  0.70835000  0.50000000  0.00000000  1
  V  V0  1  0.08946300  0.71267800  0.28965300  1
  V  V1  1  0.58717500  0.21170100  0.79225200  1
  V  V2  1  0.08946300  0.28732200  0.71034700  1
  V  V3  1  0.58717500  0.78829900  0.20774800  1
  V  V4  1  0.91238800  0.78900100  0.71167500  1
  V  V5  1  0.41111400  0.28667000  0.20955300  1
  V  V6  1  0.91238800  0.21099900  0.28832500  1
  V  V7  1  0.41111400  0.71333000  0.79044700  1
  O  O0  1  0.09967000  0.78774300  0.12688200  1
  O  O1  1  0.59197800  0.28079000  0.62993600  1
  O  O2  1  0.09967000  0.21225700  0.87311800  1
  O  O3  1  0.59197800  0.71921000  0.37006400  1
  O  O4  1  0.90132100  0.71291100  0.87427400  1
  O  O5  1  0.40081700  0.21316100  0.37245700  1
  O  O6  1  0.90132100  0.28708900  0.12572600  1
  O  O7  1  0.40081700  0.78683900  0.62754300  1
  O  O8  1  0.01158900  0.42496300  0.34658100  1
  O  O9  1  0.50903300  0.92558000  0.85072500  1
  O  O10  1  0.01158900  0.57503700  0.65341900  1
  O  O11  1  0.50903300  0.07442000  0.14927500  1
  O  O12  1  0.99116200  0.07458800  0.65079100  1
  O  O13  1  0.49017800  0.57231300  0.15001200  1
  O  O14  1  0.99116200  0.92541200  0.34920900  1
  O  O15  1  0.49017800  0.42768700  0.84998800  1
  O  O16  1  0.24282500  0.71340400  0.35624700  1
  O  O17  1  0.74286700  0.21408300  0.85531000  1
  O  O18  1  0.24282500  0.28659600  0.64375300  1
  O  O19  1  0.74286700  0.78591700  0.14469000  1
  O  O20  1  0.75765000  0.79384000  0.64735200  1
  O  O21  1  0.25723100  0.28654300  0.14370900  1
  O  O22  1  0.75765000  0.20616000  0.35264800  1
  O  O23  1  0.25723100  0.71345700  0.85629100  1
loop_
_geom_bond_atom_site_label_1
_geom_bond_atom_site_label_2
_geom_bond_distance
_geom_bond_site_symmetry_2
K0 O3 2.631865 1_555
K0 O1 2.631865 1_555
K0 O22 2.665729 1_555
K0 O20 2.665729 1_555
K0 O10 2.750855 1_655
K0 O8 2.750855 1_655
K0 O14 3.237571 1_555
K0 O12 3.237571 1_555
Na0 O18 2.380292 1_555
Na0 O16 2.380292 1_555
Na0 O7 2.440039 1_555
Na0 O5 2.440039 1_555
Na0 O1 2.441599 1_555
Na0 O3 2.441599 1_555
Na1 O17 2.390699 1_554
Na1 O19 2.390699 1_545
Na1 O6 2.427089 1_555
Na1 O4 2.427089 1_544
Na1 O2 2.463883 1_654
Na1 O0 2.463883 1_645
Na2 O20 2.399701 1_545
Na2 O22 2.399701 1_555
Na2 O3 2.427661 1_545
Na2 O1 2.427661 1_555
Na2 O5 2.456904 1_555
Na2 O7 2.456904 1_545
Na3 O23 2.385257 1_554
Na3 O21 2.385257 1_555
Na3 O0 2.439794 1_555
Na3 O2 2.439794 1_554
Na3 O4 2.452054 1_454
Na3 O6 2.452054 1_455
Na4 O0 2.477732 1_545
Na4 O2 2.477732 1_554
Na4 O21 2.589182 1_555
Na4 O23 2.589182 1_544
Na4 O11 2.769319 1_555
Na4 O9 2.769319 1_544
Na5 O7 2.485836 1_545
Na5 O5 2.485836 1_555
Na5 O16 2.589778 1_545
Na5 O18 2.589778 1_555
Na5 O14 2.778695 1_445
Na5 O12 2.778695 1_455
Na6 O4 2.481739 1_554
Na6 O6 2.481739 1_555
Na6 O19 2.594317 1_555
Na6 O17 2.594317 1_554
Na6 O13 2.776109 1_555
Na6 O15 2.776109 1_554
O0 V0 1.687711 1_555
O1 V1 1.680824 1_555
O2 V2 1.687711 1_555
O3 V3 1.680824 1_555
O4 V4 1.686511 1_555
O5 V5 1.689108 1_555
O6 V6 1.686511 1_555
O7 V7 1.689108 1_555
O8 V6 1.833430 1_455
O8 V0 1.835447 1_555
O9 V7 1.830043 1_555
O9 V1 1.830197 1_565
O10 V4 1.833430 1_455
O10 V2 1.835447 1_555
O11 V5 1.830043 1_555
O11 V3 1.830197 1_545
O12 V2 1.830227 1_655
O12 V4 1.833103 1_545
O13 V3 1.828598 1_555
O13 V5 1.832892 1_555
O14 V0 1.830227 1_655
O14 V6 1.833103 1_565
O15 V1 1.828598 1_555
O15 V7 1.832892 1_555
O16 V0 1.668052 1_555
O17 V1 1.674228 1_555
O18 V2 1.668052 1_555
O19 V3 1.674228 1_555
O20 V4 1.666945 1_555
O21 V5 1.668898 1_555
O22 V6 1.666945 1_555
O23 V7 1.668898 1_555
