# generated using pymatgen
data_Fe4As3O23
_symmetry_space_group_name_H-M   'P 1'
_cell_length_a   7.91677100
_cell_length_b   7.92518221
_cell_length_c   7.94318736
_cell_angle_alpha   88.66466058
_cell_angle_beta   89.42636810
_cell_angle_gamma   89.62559158
_symmetry_Int_Tables_number   1
_chemical_formula_structural   Fe4As3O23
_chemical_formula_sum   'Fe4 As3 O23'
_cell_volume   498.20007885
_cell_formula_units_Z   1
loop_
 _symmetry_equiv_pos_site_id
 _symmetry_equiv_pos_as_xyz
  1  'x, y, z'
loop_
 _atom_site_type_symbol
 _atom_site_label
 _atom_site_symmetry_multiplicity
 _atom_site_fract_x
 _atom_site_fract_y
 _atom_site_fract_z
 _atom_site_occupancy
  Fe  Fe0  1  0.13320300  0.86831400  0.86768300  1
  Fe  Fe1  1  0.86020300  0.86051300  0.14264400  1
  Fe  Fe2  1  0.86048400  0.14197000  0.86008700  1
  Fe  Fe3  1  0.13099900  0.12967800  0.12953200  1
  As  As0  1  0.49490200  0.99822700  0.99860400  1
  As  As1  1  0.00017900  0.00327500  0.50001100  1
  As  As2  1  0.00030400  0.50002600  0.00286400  1
  O  O0  1  0.13394500  0.62720100  0.88105000  1
  O  O1  1  0.37553300  0.87095700  0.87164700  1
  O  O2  1  0.13521500  0.88275000  0.62659000  1
  O  O3  1  0.87922300  0.61530500  0.13885700  1
  O  O4  1  0.61679700  0.87100700  0.12675400  1
  O  O5  1  0.87643100  0.87133000  0.38730200  1
  O  O6  1  0.87593300  0.38666200  0.87234900  1
  O  O7  1  0.61734200  0.12746000  0.87270100  1
  O  O8  1  0.87958400  0.13865500  0.61573200  1
  O  O9  1  0.13474800  0.37014000  0.11923700  1
  O  O10  1  0.37184600  0.12489200  0.12595200  1
  O  O11  1  0.13425000  0.12016200  0.36917700  1
  O  O12  1  0.89278000  0.11802400  0.11814700  1
  O  O13  1  0.12186100  0.11373000  0.88625000  1
  O  O14  1  0.12129100  0.88609500  0.11340800  1
  O  O15  1  0.89467500  0.88220700  0.88248100  1
  O  O16  1  0.89254400  0.53155100  0.52815000  1
  O  O17  1  0.49382300  0.50880500  0.00379300  1
  O  O18  1  0.47792700  0.97011200  0.50495600  1
  O  O19  1  0.55201600  0.50676000  0.36543100  1
  O  O20  1  0.38466800  0.40981900  0.56936600  1
  O  O21  1  0.40464300  0.50329500  0.43714000  1
  O  O22  1  0.75265100  0.56108000  0.58210500  1
loop_
_geom_bond_atom_site_label_1
_geom_bond_atom_site_label_2
_geom_bond_distance
_geom_bond_site_symmetry_2
Fe0 O15 1.893496 1_455
Fe0 O0 1.911314 1_555
Fe0 O2 1.915711 1_555
Fe0 O1 1.919304 1_555
Fe0 O13 1.955385 1_565
Fe0 O14 1.961476 1_556
Fe1 O4 1.933500 1_555
Fe1 O3 1.949070 1_555
Fe1 O5 1.952800 1_555
Fe1 O12 2.063176 1_565
Fe1 O15 2.085022 1_554
Fe1 O14 2.088321 1_655
Fe2 O7 1.930543 1_555
Fe2 O8 1.946104 1_555
Fe2 O6 1.948639 1_555
Fe2 O12 2.072408 1_556
Fe2 O15 2.078375 1_545
Fe2 O13 2.091773 1_655
Fe3 O12 1.891958 1_455
Fe3 O11 1.903707 1_555
Fe3 O9 1.905966 1_555
Fe3 O10 1.906800 1_555
Fe3 O14 1.939734 1_545
Fe3 O13 1.941601 1_554
As0 O7 1.713051 1_565
As0 O4 1.715542 1_556
As0 O10 1.730556 1_566
As0 O1 1.733872 1_555
As1 O8 1.709549 1_455
As1 O5 1.711530 1_445
As1 O11 1.735116 1_555
As1 O2 1.740565 1_545
As2 O6 1.710794 1_454
As2 O3 1.712958 1_455
As2 O9 1.734349 1_555
As2 O0 1.737649 1_554
O16 O22 1.206973 1_555
O19 O21 1.293372 1_555
O20 O21 1.280186 1_555
