# generated using pymatgen
data_TbAl
_symmetry_space_group_name_H-M   'P 1'
_cell_length_a   5.62146619
_cell_length_b   5.83130166
_cell_length_c   11.44105915
_cell_angle_alpha   90.00033007
_cell_angle_beta   89.99999489
_cell_angle_gamma   90.00000000
_symmetry_Int_Tables_number   1
_chemical_formula_structural   TbAl
_chemical_formula_sum   'Tb8 Al8'
_cell_volume   375.04324046
_cell_formula_units_Z   8
loop_
 _symmetry_equiv_pos_site_id
 _symmetry_equiv_pos_as_xyz
  1  'x, y, z'
loop_
 _atom_site_type_symbol
 _atom_site_label
 _atom_site_symmetry_multiplicity
 _atom_site_fract_x
 _atom_site_fract_y
 _atom_site_fract_z
 _atom_site_occupancy
  Tb  Tb0  1  0.25000100  0.16341935  0.01416602  1
  Tb  Tb1  1  0.74999900  0.83658065  0.98583498  1
  Tb  Tb2  1  0.74999900  0.16340100  0.48583001  1
  Tb  Tb3  1  0.25000100  0.83659900  0.51416999  1
  Tb  Tb4  1  0.25000100  0.40369247  0.33306163  1
  Tb  Tb5  1  0.74999900  0.59630753  0.66693837  1
  Tb  Tb6  1  0.74999900  0.40367296  0.16694198  1
  Tb  Tb7  1  0.25000100  0.59632704  0.83305802  1
  Al  Al0  1  -0.00001333  0.93233525  0.25000724  1
  Al  Al1  1  0.49998667  0.06766475  0.74999276  1
  Al  Al2  1  0.00001333  0.06766475  0.74999276  1
  Al  Al3  1  0.50001333  0.93233525  0.25000724  1
  Al  Al4  1  0.25000000  0.66422200  0.09918485  1
  Al  Al5  1  0.75000000  0.33577800  0.90081515  1
  Al  Al6  1  0.75000000  0.66420066  0.40080145  1
  Al  Al7  1  0.25000000  0.33579934  0.59919855  1
loop_
_geom_bond_atom_site_label_1
_geom_bond_atom_site_label_2
_geom_bond_distance
_geom_bond_site_symmetry_2
Tb0 Tb7 3.265914 1_554
Tb0 Tb1 3.411400 1_544
Tb0 Tb1 3.411419 1_444
Tb0 Tb6 3.594180 1_555
Tb0 Tb6 3.594197 1_455
Tb0 Tb7 3.902420 1_544
Tb0 Tb4 3.908275 1_555
Tb1 Tb6 3.265907 1_556
Tb1 Tb7 3.594185 1_555
Tb1 Tb7 3.594202 1_655
Tb1 Tb6 3.902414 1_566
Tb1 Tb5 3.908286 1_555
Tb2 Tb5 3.265893 1_555
Tb2 Tb3 3.411292 1_545
Tb2 Tb3 3.411311 1_645
Tb2 Tb4 3.594231 1_555
Tb2 Tb4 3.594249 1_655
Tb2 Tb5 3.902448 1_545
Tb2 Tb6 3.908207 1_555
Tb3 Tb4 3.265893 1_555
Tb3 Tb5 3.594231 1_555
Tb3 Tb5 3.594249 1_455
Tb3 Tb4 3.902448 1_565
Tb3 Tb7 3.908207 1_555
Tb4 Tb6 3.392990 1_555
Tb4 Tb6 3.393009 1_455
Tb5 Tb7 3.392990 1_555
Tb5 Tb7 3.393009 1_655
Al0 Al6 2.719579 1_455
Al0 Al4 2.719778 1_555
Al0 Al3 2.810583 1_455
Al0 Al3 2.810883 1_555
Al0 Tb6 3.229920 1_465
Al0 Tb4 3.230036 1_565
Al0 Tb2 3.327143 1_465
Al0 Tb0 3.327434 1_565
Al0 Tb3 3.379537 1_555
Al0 Tb1 3.379584 1_454
Al0 Tb4 3.518685 1_555
Al0 Tb6 3.518748 1_455
Al1 Al7 2.719579 1_555
Al1 Al5 2.719778 1_555
Al1 Al2 2.810583 1_555
Al1 Al2 2.810883 1_655
Al1 Tb7 3.229915 1_545
Al1 Tb5 3.230031 1_545
Al1 Tb3 3.327139 1_545
Al1 Tb1 3.327438 1_545
Al1 Tb2 3.379532 1_555
Al1 Tb0 3.379589 1_556
Al1 Tb5 3.518680 1_555
Al1 Tb7 3.518744 1_555
Al2 Al7 2.719579 1_555
Al2 Al5 2.719778 1_455
Al2 Tb7 3.229920 1_545
Al2 Tb5 3.230036 1_445
Al2 Tb3 3.327143 1_545
Al2 Tb1 3.327443 1_445
Al2 Tb2 3.379537 1_455
Al2 Tb0 3.379594 1_556
Al2 Tb5 3.518685 1_455
Al2 Tb7 3.518748 1_555
Al3 Al6 2.719579 1_555
Al3 Al4 2.719778 1_555
Al3 Tb6 3.229915 1_565
Al3 Tb4 3.230031 1_565
Al3 Tb2 3.327139 1_565
Al3 Tb0 3.327429 1_565
Al3 Tb3 3.379532 1_555
Al3 Tb1 3.379579 1_554
Al3 Tb4 3.518680 1_555
Al3 Tb6 3.518744 1_555
Al4 Tb0 3.069192 1_565
Al4 Tb7 3.070403 1_554
Al4 Tb4 3.077010 1_555
Al4 Tb0 3.078061 1_555
Al4 Tb1 3.254563 1_554
Al4 Tb1 3.254573 1_454
Al4 Tb6 3.287788 1_555
Al4 Tb6 3.287798 1_455
Al5 Tb1 3.069195 1_545
Al5 Tb6 3.070403 1_556
Al5 Tb5 3.077010 1_555
Al5 Tb1 3.078064 1_555
Al5 Tb0 3.254568 1_556
Al5 Tb0 3.254577 1_656
Al5 Tb7 3.287788 1_555
Al5 Tb7 3.287798 1_655
Al6 Tb2 3.069233 1_565
Al6 Tb5 3.070521 1_555
Al6 Tb6 3.076817 1_555
Al6 Tb2 3.078090 1_555
Al6 Tb3 3.254715 1_555
Al6 Tb3 3.254725 1_655
Al6 Tb4 3.287628 1_555
Al6 Tb4 3.287637 1_655
Al7 Tb3 3.069233 1_545
Al7 Tb4 3.070521 1_555
Al7 Tb7 3.076817 1_555
Al7 Tb3 3.078090 1_555
Al7 Tb2 3.254715 1_555
Al7 Tb2 3.254725 1_455
Al7 Tb5 3.287628 1_555
Al7 Tb5 3.287637 1_455
