# generated using pymatgen
data_Eu2Ga2GeS7
_symmetry_space_group_name_H-M   'P 1'
_cell_length_a   9.69454700
_cell_length_b   9.69454700
_cell_length_c   6.35609700
_cell_angle_alpha   90.00000000
_cell_angle_beta   90.00000000
_cell_angle_gamma   90.00000000
_symmetry_Int_Tables_number   1
_chemical_formula_structural   Eu2Ga2GeS7
_chemical_formula_sum   'Eu4 Ga4 Ge2 S14'
_cell_volume   597.37295567
_cell_formula_units_Z   2
loop_
 _symmetry_equiv_pos_site_id
 _symmetry_equiv_pos_as_xyz
  1  'x, y, z'
loop_
 _atom_site_type_symbol
 _atom_site_label
 _atom_site_symmetry_multiplicity
 _atom_site_fract_x
 _atom_site_fract_y
 _atom_site_fract_z
 _atom_site_occupancy
  Eu  Eu0  1  0.84694900  0.65305100  0.51654900  1
  Eu  Eu1  1  0.65305100  0.15305100  0.48345100  1
  Eu  Eu2  1  0.15305100  0.34694900  0.51654900  1
  Eu  Eu3  1  0.34694900  0.84694900  0.48345100  1
  Ga  Ga0  1  0.35320600  0.14679400  0.96951500  1
  Ga  Ga1  1  0.14679400  0.64679400  0.03048500  1
  Ga  Ga2  1  0.64679400  0.85320600  0.96951500  1
  Ga  Ga3  1  0.85320600  0.35320600  0.03048500  1
  Ge  Ge0  1  0.50000000  0.50000000  0.00000000  1
  Ge  Ge1  1  0.00000000  0.00000000  0.00000000  1
  S  S0  1  0.35458500  0.14541500  0.31627000  1
  S  S1  1  0.14541500  0.64541500  0.68373000  1
  S  S2  1  0.64541500  0.85458500  0.31627000  1
  S  S3  1  0.85458500  0.35458500  0.68373000  1
  S  S4  1  0.00000000  0.50000000  0.20179300  1
  S  S5  1  0.50000000  0.00000000  0.79820700  1
  S  S6  1  0.34120700  0.58108200  0.22643700  1
  S  S7  1  0.15879300  0.08108200  0.77356300  1
  S  S8  1  0.65879300  0.41891800  0.22643700  1
  S  S9  1  0.84120700  0.91891800  0.77356300  1
  S  S10  1  0.58108200  0.65879300  0.77356300  1
  S  S11  1  0.91891800  0.15879300  0.22643700  1
  S  S12  1  0.41891800  0.34120700  0.77356300  1
  S  S13  1  0.08108200  0.84120700  0.22643700  1
loop_
_geom_bond_atom_site_label_1
_geom_bond_atom_site_label_2
_geom_bond_distance
_geom_bond_site_symmetry_2
Eu0 S4 2.899236 1_655
Eu0 S2 3.042208 1_555
Eu0 S10 3.052060 1_555
Eu0 S9 3.052060 1_555
Eu0 S3 3.083332 1_555
Eu0 S1 3.083332 1_655
Eu0 S8 3.446681 1_555
Eu0 S13 3.446681 1_655
Eu1 S5 2.899236 1_555
Eu1 S3 3.042208 1_555
Eu1 S11 3.052060 1_555
Eu1 S8 3.052060 1_555
Eu1 S2 3.083332 1_545
Eu1 S0 3.083332 1_555
Eu1 S9 3.446681 1_545
Eu1 S12 3.446681 1_555
Eu2 S4 2.899236 1_555
Eu2 S0 3.042208 1_555
Eu2 S7 3.052060 1_555
Eu2 S12 3.052060 1_555
Eu2 S3 3.083332 1_455
Eu2 S1 3.083332 1_555
Eu2 S6 3.446681 1_555
Eu2 S11 3.446681 1_455
Eu3 S5 2.899236 1_565
Eu3 S1 3.042208 1_555
Eu3 S13 3.052060 1_555
Eu3 S6 3.052060 1_555
Eu3 S2 3.083332 1_555
Eu3 S0 3.083332 1_565
Eu3 S10 3.446681 1_555
Eu3 S7 3.446681 1_565
Ga0 S0 2.204090 1_556
Ga0 S5 2.288237 1_555
Ga0 S12 2.347199 1_555
Ga0 S7 2.347199 1_555
Ga1 S1 2.204090 1_554
Ga1 S4 2.288237 1_555
Ga1 S6 2.347199 1_555
Ga1 S13 2.347199 1_555
Ga2 S2 2.204090 1_556
Ga2 S5 2.288237 1_565
Ga2 S9 2.347199 1_555
Ga2 S10 2.347199 1_555
Ga3 S3 2.204090 1_554
Ga3 S4 2.288237 1_655
Ga3 S11 2.347199 1_555
Ga3 S8 2.347199 1_555
Ge0 S10 2.249260 1_554
Ge0 S8 2.249260 1_555
Ge0 S6 2.249260 1_555
Ge0 S12 2.249260 1_554
Ge1 S9 2.249260 1_444
Ge1 S13 2.249260 1_545
Ge1 S11 2.249260 1_455
Ge1 S7 2.249260 1_554
