# generated using pymatgen
data_Mg4Si7
_symmetry_space_group_name_H-M   'P 1'
_cell_length_a   14.93338423
_cell_length_b   14.93338423
_cell_length_c   6.82987697
_cell_angle_alpha   85.41993727
_cell_angle_beta   85.41993727
_cell_angle_gamma   15.47506577
_symmetry_Int_Tables_number   1
_chemical_formula_structural   Mg4Si7
_chemical_formula_sum   'Mg8 Si14'
_cell_volume   405.07116924
_cell_formula_units_Z   2
loop_
 _symmetry_equiv_pos_site_id
 _symmetry_equiv_pos_as_xyz
  1  'x, y, z'
loop_
 _atom_site_type_symbol
 _atom_site_label
 _atom_site_symmetry_multiplicity
 _atom_site_fract_x
 _atom_site_fract_y
 _atom_site_fract_z
 _atom_site_occupancy
  Mg  Mg0  1  0.98315900  0.98315900  0.05820700  1
  Mg  Mg1  1  0.18908100  0.18908100  0.32082900  1
  Mg  Mg2  1  0.76575900  0.76575900  0.12800600  1
  Mg  Mg3  1  0.61646100  0.61646100  0.52682800  1
  Mg  Mg4  1  0.02925200  0.02925200  0.56128900  1
  Mg  Mg5  1  0.83595100  0.83595100  0.56893700  1
  Mg  Mg6  1  0.73242200  0.73242200  0.63183100  1
  Mg  Mg7  1  0.65399800  0.65399800  0.01766600  1
  Si  Si0  1  0.46722200  0.46722200  0.40551200  1
  Si  Si1  1  0.46192100  0.46192100  0.76270400  1
  Si  Si2  1  0.91377700  0.91377700  0.78494900  1
  Si  Si3  1  0.92232500  0.92232500  0.39546900  1
  Si  Si4  1  0.16520100  0.16520100  0.70710300  1
  Si  Si5  1  0.22095400  0.22095400  0.94046700  1
  Si  Si6  1  0.33419100  0.33419100  0.13942200  1
  Si  Si7  1  0.54143900  0.54143900  0.86264800  1
  Si  Si8  1  0.09585400  0.09585400  0.23645000  1
  Si  Si9  1  0.87975300  0.87975300  0.11530300  1
  Si  Si10  1  0.28012400  0.28012400  0.42097300  1
  Si  Si11  1  0.54231500  0.54231500  0.22865100  1
  Si  Si12  1  0.09188000  0.09188000  0.87767800  1
  Si  Si13  1  0.29918100  0.29918100  0.81277800  1
loop_
_geom_bond_atom_site_label_1
_geom_bond_atom_site_label_2
_geom_bond_distance
_geom_bond_site_symmetry_2
Mg0 Si3 2.806932 1_555
Mg0 Si2 2.883926 1_554
Mg0 Si7 2.903429 1_654
Mg0 Si7 2.903429 1_564
Mg0 Si1 2.952151 1_654
Mg0 Si1 2.952151 1_564
Mg0 Si11 2.964958 1_565
Mg0 Si11 2.964958 1_655
Mg0 Si9 3.053697 1_555
Mg0 Si0 3.116267 1_565
Mg0 Si0 3.116267 1_655
Mg1 Si4 2.675645 1_555
Mg1 Si5 2.691379 1_554
Mg1 Si10 2.832780 1_555
Mg1 Si8 2.863683 1_555
Mg1 Mg3 3.186451 1_455
Mg1 Mg3 3.186451 1_545
Mg2 Si5 2.777586 1_564
Mg2 Si5 2.777586 1_654
Mg2 Si6 2.859276 1_655
Mg2 Si6 2.859276 1_565
Mg2 Si10 2.892042 1_655
Mg2 Si10 2.892042 1_565
Mg2 Si13 3.051682 1_564
Mg2 Si13 3.051682 1_654
Mg3 Si4 2.815184 1_655
Mg3 Si4 2.815184 1_565
Mg3 Si8 2.922754 1_655
Mg3 Si8 2.922754 1_565
Mg3 Si7 3.060958 1_555
Mg3 Si11 3.111711 1_555
Mg3 Si12 3.167442 1_565
Mg3 Si12 3.167442 1_655
Mg3 Mg4 3.265131 1_655
Mg3 Mg4 3.265131 1_565
Mg4 Si8 2.846499 1_555
Mg4 Si7 2.920352 1_455
Mg4 Si7 2.920352 1_545
Mg4 Si12 2.958096 1_555
Mg4 Si0 2.976433 1_455
Mg4 Si0 2.976433 1_545
Mg4 Si11 3.035075 1_455
Mg4 Si11 3.035075 1_545
Mg4 Si1 3.076296 1_545
Mg4 Si1 3.076296 1_455
Mg5 Si3 2.729440 1_555
Mg5 Si13 2.776332 1_655
Mg5 Si13 2.776332 1_565
Mg5 Si2 2.833591 1_555
Mg5 Si10 2.839447 1_565
Mg5 Si10 2.839447 1_655
Mg6 Si10 2.789562 1_565
Mg6 Si10 2.789562 1_655
Mg6 Si4 2.845963 1_565
Mg6 Si4 2.845963 1_655
Mg6 Si5 2.913018 1_565
Mg6 Si5 2.913018 1_655
Mg6 Si13 3.141127 1_565
Mg6 Si13 3.141127 1_655
Mg7 Si5 2.842273 1_564
Mg7 Si5 2.842273 1_654
Mg7 Si4 2.921991 1_564
Mg7 Si4 2.921991 1_654
Mg7 Si12 2.935879 1_564
Mg7 Si12 2.935879 1_654
Mg7 Si8 2.970151 1_565
Mg7 Si8 2.970151 1_655
Si0 Si3 2.413969 1_455
Si0 Si3 2.413969 1_545
Si0 Si1 2.431967 1_555
Si0 Si11 2.442409 1_555
Si1 Si2 2.461837 1_545
Si1 Si2 2.461837 1_455
Si1 Si7 2.502595 1_555
Si2 Si9 2.395524 1_556
Si2 Si3 2.651730 1_555
Si3 Si9 2.374324 1_555
Si4 Si5 2.384682 1_555
Si6 Si9 2.419065 1_455
Si6 Si9 2.419065 1_545
Si10 Si6 2.400456 1_555
Si10 Si13 2.778884 1_555
Si11 Si7 2.501978 1_554
Si11 Si8 2.563077 1_655
Si11 Si8 2.563077 1_565
Si12 Si4 2.378733 1_555
Si12 Si8 2.462638 1_556
Si12 Si7 2.511180 1_455
Si12 Si7 2.511180 1_545
Si13 Si5 2.407262 1_555
Si13 Si6 2.534397 1_556
