# generated using pymatgen
data_Li12Mn7V(PO4)12
_symmetry_space_group_name_H-M   'P 1'
_cell_length_a   8.63947300
_cell_length_b   8.73647120
_cell_length_c   12.30209259
_cell_angle_alpha   89.60200761
_cell_angle_beta   87.67833025
_cell_angle_gamma   89.35522066
_symmetry_Int_Tables_number   1
_chemical_formula_structural   Li12Mn7V(PO4)12
_chemical_formula_sum   'Li12 Mn7 V1 P12 O48'
_cell_volume   927.70306024
_cell_formula_units_Z   1
loop_
 _symmetry_equiv_pos_site_id
 _symmetry_equiv_pos_as_xyz
  1  'x, y, z'
loop_
 _atom_site_type_symbol
 _atom_site_label
 _atom_site_symmetry_multiplicity
 _atom_site_fract_x
 _atom_site_fract_y
 _atom_site_fract_z
 _atom_site_occupancy
  Li  Li0  1  0.91946800  0.08145500  0.69615000  1
  Li  Li1  1  0.92003700  0.69662900  0.76011500  1
  Li  Li2  1  0.79236600  0.78193500  0.17387100  1
  Li  Li3  1  0.70947400  0.27866700  0.32659600  1
  Li  Li4  1  0.57688100  0.19365700  0.73856300  1
  Li  Li5  1  0.57684600  0.58465200  0.80310400  1
  Li  Li6  1  0.42111200  0.41925300  0.19809500  1
  Li  Li7  1  0.41986800  0.80487900  0.26320500  1
  Li  Li8  1  0.29225400  0.71851700  0.67188200  1
  Li  Li9  1  0.20654000  0.21698300  0.82774100  1
  Li  Li10  1  0.08342800  0.30567500  0.23713500  1
  Li  Li11  1  0.08134400  0.91809300  0.30305000  1
  Mn  Mn0  1  0.74694700  0.03754600  0.89815200  1
  Mn  Mn1  1  0.75201900  0.45873000  0.11008300  1
  Mn  Mn2  1  0.74879100  0.95762100  0.39089900  1
  Mn  Mn3  1  0.25198300  0.04015500  0.60884100  1
  Mn  Mn4  1  0.24744600  0.54289400  0.89010700  1
  Mn  Mn5  1  0.25245200  0.96279100  0.10174100  1
  Mn  Mn6  1  0.24877000  0.46295700  0.39799600  1
  V  V0  1  0.75200000  0.53143600  0.60743000  1
  P  P0  1  0.96513500  0.24980600  0.49352500  1
  P  P1  1  0.89394700  0.38337100  0.85504800  1
  P  P2  1  0.89993200  0.09870900  0.15473600  1
  P  P3  1  0.60295100  0.59840400  0.34762700  1
  P  P4  1  0.60259500  0.88582200  0.64116900  1
  P  P5  1  0.53973000  0.75245000  0.00518900  1
  P  P6  1  0.45997500  0.24914100  0.99607700  1
  P  P7  1  0.39778900  0.11599700  0.35962600  1
  P  P8  1  0.39522400  0.39991200  0.65701700  1
  P  P9  1  0.09980100  0.90080000  0.84488700  1
  P  P10  1  0.10508000  0.61717800  0.14082300  1
  P  P11  1  0.03921000  0.74682700  0.50501900  1
  O  O0  1  0.95213300  0.86519100  0.43374100  1
  O  O1  1  0.91788300  0.89281600  0.84958800  1
  O  O2  1  0.92942700  0.67859400  0.59572800  1
  O  O3  1  0.92958800  0.59619800  0.16694400  1
  O  O4  1  0.89807300  0.36764400  0.57530700  1
  O  O5  1  0.85634100  0.21421800  0.82244600  1
  O  O6  1  0.85633000  0.40465200  0.97758200  1
  O  O7  1  0.85957500  0.97656200  0.24672500  1
  O  O8  1  0.84963500  0.26108800  0.19292400  1
  O  O9  1  0.83315500  0.17496600  0.43447800  1
  O  O10  1  0.82955900  0.04393300  0.05235300  1
  O  O11  1  0.80165500  0.50189500  0.78640200  1
  O  O12  1  0.69521900  0.00559300  0.70250800  1
  O  O13  1  0.67391000  0.54537200  0.45197500  1
  O  O14  1  0.67174400  0.67515300  0.06606700  1
  O  O15  1  0.65098400  0.75879100  0.30606100  1
  O  O16  1  0.63525400  0.89712000  0.51728000  1
  O  O17  1  0.63945000  0.71785600  0.67871800  1
  O  O18  1  0.64474900  0.47512800  0.25629200  1
  O  O19  1  0.60461600  0.87276600  0.92365600  1
  O  O20  1  0.56969300  0.17998000  0.90411100  1
  O  O21  1  0.57646300  0.39214700  0.65190000  1
  O  O22  1  0.57470500  0.09354200  0.33394400  1
  O  O23  1  0.54588100  0.36318800  0.06747500  1
  O  O24  1  0.45444500  0.63764600  0.93456500  1
  O  O25  1  0.42525000  0.90838200  0.66617300  1
  O  O26  1  0.42078100  0.60514500  0.35139000  1
  O  O27  1  0.42981500  0.82193600  0.09693000  1
  O  O28  1  0.39492500  0.12796500  0.07672100  1
  O  O29  1  0.35754600  0.52439200  0.74817700  1
  O  O30  1  0.36108800  0.28531800  0.32274300  1
  O  O31  1  0.36585600  0.10539800  0.48343400  1
  O  O32  1  0.34574900  0.23983600  0.69746600  1
  O  O33  1  0.32730600  0.32739100  0.93606200  1
  O  O34  1  0.32378500  0.45768700  0.55470500  1
  O  O35  1  0.30467300  0.99685300  0.29807500  1
  O  O36  1  0.20010100  0.49662800  0.20279400  1
  O  O37  1  0.17097900  0.95660900  0.94697200  1
  O  O38  1  0.17326900  0.82129900  0.56195600  1
  O  O39  1  0.15107100  0.73877800  0.80609300  1
  O  O40  1  0.13878900  0.02223800  0.75244900  1
  O  O41  1  0.13570600  0.60429100  0.01667900  1
  O  O42  1  0.14256400  0.78573100  0.17627500  1
  O  O43  1  0.10163400  0.62718600  0.42146000  1
  O  O44  1  0.06933200  0.40369700  0.83149800  1
  O  O45  1  0.07420500  0.32053900  0.40255500  1
  O  O46  1  0.08191900  0.10623400  0.15068400  1
  O  O47  1  0.05179400  0.13148800  0.56444300  1
loop_
_geom_bond_atom_site_label_1
_geom_bond_atom_site_label_2
_geom_bond_distance
_geom_bond_site_symmetry_2
Li0 O47 1.993652 1_655
Li0 O5 1.999728 1_555
Li0 O12 2.052991 1_555
Li0 O40 2.101656 1_655
Li0 O1 2.496895 1_545
Li1 O11 2.012390 1_555
Li1 O2 2.027799 1_555
Li1 O1 2.042906 1_555
Li1 O39 2.133190 1_655
Li2 O14 1.966261 1_555
Li2 O3 1.999070 1_555
Li2 O15 2.004368 1_555
Li2 O7 2.029085 1_555
Li3 O9 1.949454 1_555
Li3 O18 2.000907 1_555
Li3 O22 2.002861 1_555
Li3 O8 2.008008 1_555
Li4 O12 1.969029 1_555
Li4 O21 2.029349 1_555
Li4 O20 2.037734 1_555
Li4 O32 2.113445 1_555
Li5 O24 1.951646 1_555
Li5 O17 1.977554 1_555
Li5 O11 2.067690 1_555
Li5 O29 2.110572 1_555
Li5 O21 2.516478 1_555
Li6 O23 1.960282 1_555
Li6 O30 1.978336 1_555
Li6 O36 2.017108 1_555
Li6 O18 2.149897 1_555
Li6 O26 2.497188 1_555
Li7 O35 1.981223 1_555
Li7 O27 2.048316 1_555
Li7 O26 2.048411 1_555
Li7 O15 2.119250 1_555
Li8 O38 1.940821 1_555
Li8 O29 2.018588 1_555
Li8 O39 2.020199 1_555
Li8 O25 2.027649 1_555
Li9 O32 1.974748 1_555
Li9 O33 1.986934 1_555
Li9 O44 2.005316 1_555
Li9 O40 2.045359 1_555
Li10 O36 1.992777 1_555
Li10 O45 2.038330 1_555
Li10 O46 2.048081 1_555
Li10 O8 2.153368 1_455
Li11 O0 1.974988 1_455
Li11 O42 1.998438 1_555
Li11 O35 2.054189 1_555
Li11 O7 2.119578 1_455
Li11 O46 2.484314 1_565
Mn0 O19 1.919703 1_545
Mn0 O20 1.961694 1_555
Mn0 O1 2.008390 1_545
Mn0 O5 2.021023 1_555
Mn0 O10 2.055035 1_556
Mn0 O12 2.483903 1_555
Mn1 O6 1.890631 1_554
Mn1 O18 1.995038 1_555
Mn1 O23 2.063573 1_555
Mn1 O14 2.082285 1_555
Mn1 O3 2.103623 1_555
Mn1 O8 2.178010 1_555
Mn2 O16 1.880290 1_555
Mn2 O7 1.987765 1_555
Mn2 O0 2.013271 1_555
Mn2 O22 2.048583 1_565
Mn2 O9 2.121592 1_565
Mn2 O15 2.224950 1_555
Mn3 O31 1.884232 1_555
Mn3 O40 1.990388 1_555
Mn3 O47 1.991406 1_555
Mn3 O25 2.024617 1_545
Mn3 O38 2.127760 1_545
Mn3 O32 2.240096 1_555
Mn4 O41 1.876803 1_556
Mn4 O29 1.960985 1_555
Mn4 O24 2.073999 1_555
Mn4 O33 2.080364 1_555
Mn4 O44 2.123880 1_555
Mn4 O39 2.168696 1_555
Mn5 O28 1.922317 1_565
Mn5 O27 1.953729 1_555
Mn5 O46 2.000179 1_565
Mn5 O42 2.019336 1_555
Mn5 O37 2.057762 1_554
Mn5 O35 2.495428 1_555
Mn6 O43 1.921663 1_555
Mn6 O45 1.964735 1_555
Mn6 O26 2.010700 1_555
Mn6 O30 2.029891 1_555
Mn6 O34 2.058656 1_555
Mn6 O36 2.469662 1_555
O0 P11 1.558051 1_655
O1 P9 1.572711 1_655
O2 P11 1.554970 1_655
O2 V0 2.011768 1_555
O3 P10 1.549696 1_655
O4 P0 1.536711 1_555
O4 V0 1.929575 1_555
O5 P1 1.574772 1_555
O6 P1 1.541219 1_555
O7 P2 1.581334 1_565
O8 P2 1.549469 1_555
O9 P0 1.531597 1_555
O10 P2 1.504003 1_555
O11 P1 1.563644 1_555
O11 V0 2.272531 1_555
O12 P4 1.543831 1_545
O13 P3 1.512440 1_555
O13 V0 2.055916 1_555
O14 P5 1.537069 1_555
O15 P3 1.543708 1_555
O16 P4 1.541400 1_555
O17 P4 1.568470 1_555
O17 V0 2.069358 1_555
O18 P3 1.589973 1_555
O19 P5 1.542162 1_556
O20 P6 1.566313 1_555
O21 P8 1.565250 1_555
O21 V0 2.011245 1_555
O22 P7 1.558681 1_555
O23 P6 1.548125 1_554
O24 P5 1.544128 1_556
O25 P4 1.561046 1_555
O26 P3 1.573109 1_555
O27 P5 1.566443 1_555
O28 P6 1.540926 1_554
O29 P8 1.589252 1_555
O30 P7 1.576840 1_555
O31 P7 1.539183 1_555
O32 P8 1.540347 1_555
O33 P6 1.539518 1_555
O34 P8 1.505659 1_555
O35 P7 1.543747 1_565
O36 P10 1.544158 1_555
O37 P9 1.506946 1_555
O38 P11 1.531135 1_555
O39 P9 1.551049 1_555
O40 P9 1.578759 1_545
O41 P10 1.544053 1_555
O42 P10 1.579434 1_555
O43 P11 1.548350 1_555
O44 P1 1.543106 1_455
O45 P0 1.562148 1_455
O46 P2 1.573142 1_455
O47 P0 1.553434 1_455
