# generated using pymatgen
data_EuIn2Ni
_symmetry_space_group_name_H-M   'P 1'
_cell_length_a   5.80063624
_cell_length_b   5.80063624
_cell_length_c   7.59888060
_cell_angle_alpha   89.99999273
_cell_angle_beta   90.00000727
_cell_angle_gamma   135.86708673
_symmetry_Int_Tables_number   1
_chemical_formula_structural   EuIn2Ni
_chemical_formula_sum   'Eu2 In4 Ni2'
_cell_volume   178.03812031
_cell_formula_units_Z   2
loop_
 _symmetry_equiv_pos_site_id
 _symmetry_equiv_pos_as_xyz
  1  'x, y, z'
loop_
 _atom_site_type_symbol
 _atom_site_label
 _atom_site_symmetry_multiplicity
 _atom_site_fract_x
 _atom_site_fract_y
 _atom_site_fract_z
 _atom_site_occupancy
  Eu  Eu0  1  0.05736957  0.94263043  0.25000000  1
  Eu  Eu1  1  0.94267452  0.05732548  0.75000000  1
  In  In0  1  0.65444461  0.34555539  0.94691035  1
  In  In1  1  0.34555542  0.65444458  0.05301071  1
  In  In2  1  0.34555642  0.65444358  0.44698929  1
  In  In3  1  0.65444461  0.34555539  0.55308965  1
  Ni  Ni0  1  0.78092827  0.21907173  0.25000000  1
  Ni  Ni1  1  0.21902558  0.78097442  0.75000000  1
loop_
_geom_bond_atom_site_label_1
_geom_bond_atom_site_label_2
_geom_bond_distance
_geom_bond_site_symmetry_2
Eu0 Ni0 2.972149 1_465
Eu0 Ni0 3.244395 1_455
Eu0 Ni0 3.244395 1_565
Eu0 In3 3.338061 1_455
Eu0 In3 3.338061 1_565
Eu0 In0 3.338062 1_564
Eu0 In0 3.338062 1_454
Eu0 In1 3.441063 1_555
Eu0 In2 3.441072 1_555
Eu0 In2 3.489368 1_455
Eu0 In2 3.489368 1_565
Eu0 In1 3.489375 1_455
Eu0 In1 3.489375 1_565
Eu1 Ni1 2.971179 1_645
Eu1 Ni1 3.245114 1_545
Eu1 Ni1 3.245114 1_655
Eu1 In2 3.337792 1_655
Eu1 In2 3.337792 1_545
Eu1 In1 3.337796 1_656
Eu1 In1 3.337796 1_546
Eu1 In3 3.441228 1_555
Eu1 In0 3.441228 1_555
Eu1 In0 3.488809 1_545
Eu1 In0 3.488809 1_655
Eu1 In3 3.488809 1_545
Eu1 In3 3.488809 1_655
In0 Ni0 2.674649 1_556
In0 Ni1 2.733112 1_655
In0 Ni1 2.733112 1_545
In0 In3 2.992596 1_555
In0 In1 3.101740 1_656
In0 In1 3.101740 1_546
In0 In1 3.417476 1_556
In1 Ni1 2.674385 1_554
In1 Ni0 2.733566 1_455
In1 Ni0 2.733566 1_565
In1 In2 2.993796 1_555
In2 Ni1 2.674391 1_555
In2 Ni0 2.733569 1_455
In2 Ni0 2.733569 1_565
In2 In3 3.101747 1_455
In2 In3 3.101747 1_565
In2 In3 3.417466 1_555
In3 Ni0 2.674650 1_555
In3 Ni1 2.733112 1_545
In3 Ni1 2.733112 1_655
