# generated using pymatgen
data_NaNiBP2O11
_symmetry_space_group_name_H-M   'P 1'
_cell_length_a   9.17515001
_cell_length_b   9.17515001
_cell_length_c   16.19297500
_cell_angle_alpha   90.00000000
_cell_angle_beta   90.00000000
_cell_angle_gamma   120.00000010
_symmetry_Int_Tables_number   1
_chemical_formula_structural   NaNiBP2O11
_chemical_formula_sum   'Na6 Ni6 B6 P12 O66'
_cell_volume   1180.54793009
_cell_formula_units_Z   6
loop_
 _symmetry_equiv_pos_site_id
 _symmetry_equiv_pos_as_xyz
  1  'x, y, z'
loop_
 _atom_site_type_symbol
 _atom_site_label
 _atom_site_symmetry_multiplicity
 _atom_site_fract_x
 _atom_site_fract_y
 _atom_site_fract_z
 _atom_site_occupancy
  Na  Na0  1  0.19591400  0.39182800  0.25000000  1
  Na  Na1  1  0.60817200  0.80408600  0.58333300  1
  Na  Na2  1  0.80408600  0.60817200  0.75000000  1
  Na  Na3  1  0.39182800  0.19591400  0.08333300  1
  Na  Na4  1  0.19591400  0.80408600  0.91666700  1
  Na  Na5  1  0.80408600  0.19591400  0.41666700  1
  Ni  Ni0  1  0.56478500  0.12957000  0.25000000  1
  Ni  Ni1  1  0.87043000  0.43521500  0.58333300  1
  Ni  Ni2  1  0.43521500  0.87043000  0.75000000  1
  Ni  Ni3  1  0.12957000  0.56478500  0.08333300  1
  Ni  Ni4  1  0.56478500  0.43521500  0.91666700  1
  Ni  Ni5  1  0.43521500  0.56478500  0.41666700  1
  B  B0  1  0.84268900  0.68537700  0.25000000  1
  B  B1  1  0.31462300  0.15731100  0.58333300  1
  B  B2  1  0.15731100  0.31462300  0.75000000  1
  B  B3  1  0.68537700  0.84268900  0.08333300  1
  B  B4  1  0.84268900  0.15731100  0.91666700  1
  B  B5  1  0.15731100  0.84268900  0.41666700  1
  P  P0  1  0.39804100  0.17566500  0.41736000  1
  P  P1  1  0.82433500  0.22237600  0.75069400  1
  P  P2  1  0.60195900  0.82433500  0.91736000  1
  P  P3  1  0.17566500  0.39804100  0.91597300  1
  P  P4  1  0.77762400  0.60195900  0.08402700  1
  P  P5  1  0.17566500  0.77762400  0.25069400  1
  P  P6  1  0.22237600  0.82433500  0.58264000  1
  P  P7  1  0.82433500  0.60195900  0.41597300  1
  P  P8  1  0.22237600  0.39804100  0.58402700  1
  P  P9  1  0.77762400  0.17566500  0.08264000  1
  P  P10  1  0.60195900  0.77762400  0.24930600  1
  P  P11  1  0.39804100  0.22237600  0.74930600  1
  O  O0  1  0.42887400  0.18693400  0.51289800  1
  O  O1  1  0.81306600  0.24194100  0.84623200  1
  O  O2  1  0.57112600  0.81306600  0.01289800  1
  O  O3  1  0.18693400  0.42887400  0.82043500  1
  O  O4  1  0.75805900  0.57112600  0.17956500  1
  O  O5  1  0.18693400  0.75805900  0.34623200  1
  O  O6  1  0.24194100  0.81306600  0.48710200  1
  O  O7  1  0.81306600  0.57112600  0.32043500  1
  O  O8  1  0.24194100  0.42887400  0.67956500  1
  O  O9  1  0.75805900  0.18693400  0.98710200  1
  O  O10  1  0.57112600  0.75805900  0.15376800  1
  O  O11  1  0.42887400  0.24194100  0.65376800  1
  O  O12  1  0.26722800  0.46711400  0.10373700  1
  O  O13  1  0.53288600  0.80011400  0.43707100  1
  O  O14  1  0.73277200  0.53288600  0.60373700  1
  O  O15  1  0.46711400  0.26722800  0.22959600  1
  O  O16  1  0.19988600  0.73277200  0.77040400  1
  O  O17  1  0.46711400  0.19988600  0.93707100  1
  O  O18  1  0.80011400  0.53288600  0.89626300  1
  O  O19  1  0.53288600  0.73277200  0.72959600  1
  O  O20  1  0.80011400  0.26722800  0.27040400  1
  O  O21  1  0.19988600  0.46711400  0.39626300  1
  O  O22  1  0.73277200  0.19988600  0.56292900  1
  O  O23  1  0.26722800  0.80011400  0.06292900  1
  O  O24  1  0.61709100  0.15383800  0.12329300  1
  O  O25  1  0.84616200  0.46325300  0.45662700  1
  O  O26  1  0.38290900  0.84616200  0.62329300  1
  O  O27  1  0.15383800  0.61709100  0.21004000  1
  O  O28  1  0.53674700  0.38290900  0.78996000  1
  O  O29  1  0.15383800  0.53674700  0.95662700  1
  O  O30  1  0.46325300  0.84616200  0.87670700  1
  O  O31  1  0.84616200  0.38290900  0.71004000  1
  O  O32  1  0.46325300  0.61709100  0.28996000  1
  O  O33  1  0.53674700  0.15383800  0.37670700  1
  O  O34  1  0.38290900  0.53674700  0.54337300  1
  O  O35  1  0.61709100  0.46325300  0.04337300  1
  O  O36  1  0.22133000  0.02143800  0.39859700  1
  O  O37  1  0.97856200  0.19989200  0.73193100  1
  O  O38  1  0.77867000  0.97856200  0.89859700  1
  O  O39  1  0.02143800  0.22133000  0.93473600  1
  O  O40  1  0.80010800  0.77867000  0.06526400  1
  O  O41  1  0.02143800  0.80010800  0.23193100  1
  O  O42  1  0.19989200  0.97856200  0.60140300  1
  O  O43  1  0.97856200  0.77867000  0.43473600  1
  O  O44  1  0.19989200  0.22133000  0.56526400  1
  O  O45  1  0.80010800  0.02143800  0.10140300  1
  O  O46  1  0.77867000  0.80010800  0.26806900  1
  O  O47  1  0.22133000  0.19989200  0.76806900  1
  O  O48  1  0.39292200  0.32995800  0.38331800  1
  O  O49  1  0.67004200  0.06296300  0.71665100  1
  O  O50  1  0.60707800  0.67004200  0.88331800  1
  O  O51  1  0.32995800  0.39292200  0.95001500  1
  O  O52  1  0.93703700  0.60707800  0.04998500  1
  O  O53  1  0.32995800  0.93703700  0.21665100  1
  O  O54  1  0.06296300  0.67004200  0.61668200  1
  O  O55  1  0.67004200  0.60707800  0.45001500  1
  O  O56  1  0.06296300  0.39292200  0.54998500  1
  O  O57  1  0.93703700  0.32995800  0.11668200  1
  O  O58  1  0.60707800  0.93703700  0.28334900  1
  O  O59  1  0.39292200  0.06296300  0.78334900  1
  O  O60  1  0.16159200  0.00000000  0.00000000  1
  O  O61  1  0.00000000  0.16159200  0.33333300  1
  O  O62  1  0.83840800  0.00000000  0.50000000  1
  O  O63  1  0.83840800  0.83840800  0.66666700  1
  O  O64  1  0.00000000  0.83840800  0.83333300  1
  O  O65  1  0.16159200  0.16159200  0.16666700  1
loop_
_geom_bond_atom_site_label_1
_geom_bond_atom_site_label_2
_geom_bond_distance
_geom_bond_site_symmetry_2
Na0 O32 2.374320 1_555
Na0 O27 2.374320 1_555
Na0 O61 2.391085 1_555
Na0 O65 2.391085 1_555
Na0 O12 2.462271 1_555
Na0 O21 2.462271 1_555
Na1 O34 2.374320 1_555
Na1 O26 2.374320 1_555
Na1 O62 2.391085 1_565
Na1 O63 2.391094 1_555
Na1 O13 2.462256 1_555
Na1 O19 2.462271 1_555
Na2 O28 2.374320 1_555
Na2 O31 2.374320 1_555
Na2 O64 2.391085 1_655
Na2 O63 2.391085 1_555
Na2 O14 2.462271 1_555
Na2 O18 2.462271 1_555
Na3 O35 2.374320 1_555
Na3 O24 2.374320 1_555
Na3 O60 2.391085 1_555
Na3 O65 2.391094 1_555
Na3 O17 2.462256 1_554
Na3 O15 2.462271 1_555
Na4 O30 2.374320 1_555
Na4 O29 2.374320 1_555
Na4 O60 2.391085 1_566
Na4 O64 2.391094 1_555
Na4 O23 2.462256 1_556
Na4 O16 2.462271 1_555
Na5 O25 2.374320 1_555
Na5 O33 2.374320 1_555
Na5 O62 2.391085 1_555
Na5 O61 2.391094 1_655
Na5 O22 2.462256 1_555
Na5 O20 2.462271 1_555
Ni0 O20 1.907710 1_555
Ni0 O15 1.907710 1_555
Ni0 O58 2.061135 1_545
Ni0 O53 2.061141 1_545
Ni0 O24 2.093507 1_555
Ni0 O33 2.093507 1_555
Ni1 O22 1.907710 1_555
Ni1 O14 1.907710 1_555
Ni1 O56 2.061131 1_655
Ni1 O54 2.061141 1_655
Ni1 O25 2.093491 1_555
Ni1 O31 2.093507 1_555
Ni2 O16 1.907710 1_555
Ni2 O19 1.907710 1_555
Ni2 O59 2.061135 1_565
Ni2 O49 2.061141 1_565
Ni2 O26 2.093507 1_555
Ni2 O30 2.093507 1_555
Ni3 O23 1.907710 1_555
Ni3 O12 1.907710 1_555
Ni3 O52 2.061131 1_455
Ni3 O57 2.061141 1_455
Ni3 O29 2.093491 1_554
Ni3 O27 2.093507 1_555
Ni4 O17 1.907710 1_555
Ni4 O18 1.907710 1_555
Ni4 O51 2.061140 1_555
Ni4 O50 2.061144 1_555
Ni4 O35 2.093491 1_556
Ni4 O28 2.093507 1_555
Ni5 O21 1.907710 1_555
Ni5 O13 1.907710 1_555
Ni5 O55 2.061140 1_555
Ni5 O48 2.061144 1_555
Ni5 O34 2.093491 1_555
Ni5 O32 2.093507 1_555
B0 O41 1.468692 1_655
B0 O46 1.468699 1_555
B0 O7 1.479421 1_555
B0 O4 1.479424 1_555
B1 O42 1.468695 1_545
B1 O44 1.468699 1_555
B1 O0 1.479421 1_555
B1 O11 1.479424 1_555
B2 O37 1.468692 1_455
B2 O47 1.468699 1_555
B2 O3 1.479421 1_555
B2 O8 1.479424 1_555
B3 O45 1.468695 1_565
B3 O40 1.468699 1_555
B3 O2 1.479421 1_555
B3 O10 1.479424 1_555
B4 O39 1.468690 1_655
B4 O38 1.468694 1_545
B4 O9 1.479433 1_555
B4 O1 1.479433 1_555
B5 O43 1.468690 1_455
B5 O36 1.468694 1_565
B5 O5 1.479433 1_555
B5 O6 1.479433 1_555
O0 P0 1.566786 1_555
O1 P1 1.566787 1_555
O2 P2 1.566786 1_554
O3 P3 1.566786 1_555
O4 P4 1.566786 1_555
O5 P5 1.566787 1_555
O6 P6 1.566787 1_555
O7 P7 1.566786 1_555
O8 P8 1.566786 1_555
O9 P9 1.566787 1_556
O10 P10 1.566786 1_555
O11 P11 1.566786 1_555
O24 P9 1.532305 1_555
O25 P7 1.532312 1_555
O26 P6 1.532305 1_555
O27 P5 1.532312 1_555
O28 P11 1.532312 1_555
O29 P3 1.532312 1_555
O30 P2 1.532305 1_555
O31 P1 1.532312 1_555
O32 P10 1.532312 1_555
O33 P0 1.532305 1_555
O34 P8 1.532312 1_555
O35 P4 1.532312 1_555
O36 P0 1.558579 1_555
O37 P1 1.558579 1_555
O38 P2 1.558579 1_555
O39 P3 1.558579 1_555
O40 P4 1.558579 1_555
O41 P5 1.558579 1_555
O42 P6 1.558579 1_555
O43 P7 1.558579 1_555
O44 P8 1.558579 1_555
O45 P9 1.558579 1_555
O46 P10 1.558579 1_555
O47 P11 1.558579 1_555
O48 P0 1.541642 1_555
O49 P1 1.541652 1_555
O50 P2 1.541642 1_555
O51 P3 1.541642 1_555
O52 P4 1.541651 1_555
O53 P5 1.541652 1_555
O54 P6 1.541647 1_555
O55 P7 1.541642 1_555
O56 P8 1.541651 1_555
O57 P9 1.541647 1_555
O58 P10 1.541656 1_555
O59 P11 1.541656 1_555
