# generated using pymatgen
data_BaYbAl3SiN4O3
_symmetry_space_group_name_H-M   'P 1'
_cell_length_a   6.19256199
_cell_length_b   6.19256199
_cell_length_c   10.19226700
_cell_angle_alpha   90.00000000
_cell_angle_beta   90.00000000
_cell_angle_gamma   119.99999994
_symmetry_Int_Tables_number   1
_chemical_formula_structural   BaYbAl3SiN4O3
_chemical_formula_sum   'Ba2 Yb2 Al6 Si2 N8 O6'
_cell_volume   338.48712188
_cell_formula_units_Z   2
loop_
 _symmetry_equiv_pos_site_id
 _symmetry_equiv_pos_as_xyz
  1  'x, y, z'
loop_
 _atom_site_type_symbol
 _atom_site_label
 _atom_site_symmetry_multiplicity
 _atom_site_fract_x
 _atom_site_fract_y
 _atom_site_fract_z
 _atom_site_occupancy
  Ba  Ba0  1  0.66666700  0.33333300  0.55347000  1
  Ba  Ba1  1  0.33333300  0.66666700  0.05347000  1
  Yb  Yb0  1  0.66666700  0.33333300  0.92574500  1
  Yb  Yb1  1  0.33333300  0.66666700  0.42574500  1
  Al  Al0  1  0.16549300  0.33098600  0.74113000  1
  Al  Al1  1  0.16549300  0.83450700  0.74113000  1
  Al  Al2  1  0.83450700  0.66901400  0.24113000  1
  Al  Al3  1  0.66901400  0.83450700  0.74113000  1
  Al  Al4  1  0.83450700  0.16549300  0.24113000  1
  Al  Al5  1  0.33098600  0.16549300  0.24113000  1
  Si  Si0  1  0.00000000  0.00000000  0.00189600  1
  Si  Si1  1  0.00000000  0.00000000  0.50189600  1
  N  N0  1  0.15020600  0.30041200  0.56029900  1
  N  N1  1  0.15020600  0.84979400  0.56029900  1
  N  N2  1  0.84979400  0.69958800  0.06029900  1
  N  N3  1  0.69958800  0.84979400  0.56029900  1
  N  N4  1  0.84979400  0.15020600  0.06029900  1
  N  N5  1  0.30041200  0.15020600  0.06029900  1
  N  N6  1  0.00000000  0.00000000  0.82224600  1
  N  N7  1  0.00000000  0.00000000  0.32224600  1
  O  O0  1  0.48753400  0.97506800  0.79188800  1
  O  O1  1  0.48753400  0.51246600  0.79188800  1
  O  O2  1  0.51246600  0.02493200  0.29188800  1
  O  O3  1  0.02493200  0.51246600  0.79188800  1
  O  O4  1  0.51246600  0.48753400  0.29188800  1
  O  O5  1  0.97506800  0.48753400  0.29188800  1
loop_
_geom_bond_atom_site_label_1
_geom_bond_atom_site_label_2
_geom_bond_distance
_geom_bond_site_symmetry_2
Ba0 O3 3.097832 1_655
Ba0 O0 3.097832 1_545
Ba0 O1 3.097835 1_555
Ba0 N3 3.102088 1_545
Ba0 N0 3.102088 1_655
Ba0 N1 3.102092 1_545
Ba0 N1 3.102092 1_655
Ba0 N3 3.102095 1_555
Ba0 N0 3.102095 1_555
Ba0 O2 3.137458 1_555
Ba0 O5 3.137458 1_555
Ba0 O4 3.137461 1_555
Ba1 O2 3.097832 1_565
Ba1 O5 3.097832 1_455
Ba1 O4 3.097835 1_555
Ba1 N2 3.102088 1_455
Ba1 N5 3.102088 1_565
Ba1 N4 3.102092 1_455
Ba1 N4 3.102092 1_565
Ba1 N5 3.102095 1_555
Ba1 N2 3.102095 1_555
Ba1 O0 3.137458 1_554
Ba1 O3 3.137458 1_554
Ba1 O1 3.137461 1_554
Al0 O3 1.807344 1_555
Al0 O1 1.807344 1_555
Al0 N0 1.850357 1_555
Al0 N6 1.958144 1_555
Al1 O3 1.807344 1_555
Al1 O0 1.807344 1_555
Al1 N1 1.850357 1_555
Al1 N6 1.958144 1_565
Al2 O5 1.807344 1_555
Al2 O4 1.807344 1_555
Al2 N2 1.850357 1_555
Al2 N7 1.958144 1_665
Al3 O0 1.807344 1_555
Al3 O1 1.807344 1_555
Al3 N3 1.850357 1_555
Al3 N6 1.958144 1_665
Al4 O2 1.807344 1_555
Al4 O5 1.807344 1_555
Al4 N4 1.850357 1_555
Al4 N7 1.958144 1_655
Al5 O2 1.807344 1_555
Al5 O4 1.807344 1_555
Al5 N5 1.850357 1_555
Al5 N7 1.958144 1_555
N0 Si1 1.717535 1_555
N0 Yb1 2.395585 1_555
N1 Si1 1.717535 1_565
N1 Yb1 2.395581 1_555
N2 Si0 1.717535 1_665
N2 Yb0 2.395585 1_554
N3 Si1 1.717535 1_665
N3 Yb1 2.395585 1_555
N4 Si0 1.717535 1_655
N4 Yb0 2.395581 1_554
N5 Si0 1.717535 1_555
N5 Yb0 2.395585 1_554
N6 Si0 1.831041 1_556
N7 Si1 1.831041 1_555
O0 Yb0 2.356459 1_565
O1 Yb0 2.356463 1_555
O2 Yb1 2.356459 1_545
O3 Yb0 2.356459 1_455
O4 Yb1 2.356463 1_555
O5 Yb1 2.356459 1_655
