# generated using pymatgen
data_TlP(HO2)2
_symmetry_space_group_name_H-M   'P 1'
_cell_length_a   6.62753300
_cell_length_b   9.16351083
_cell_length_c   15.16062909
_cell_angle_alpha   107.18528516
_cell_angle_beta   92.16586625
_cell_angle_gamma   89.49013115
_symmetry_Int_Tables_number   1
_chemical_formula_structural   TlP(HO2)2
_chemical_formula_sum   'Tl8 P8 H16 O32'
_cell_volume   878.98988637
_cell_formula_units_Z   8
loop_
 _symmetry_equiv_pos_site_id
 _symmetry_equiv_pos_as_xyz
  1  'x, y, z'
loop_
 _atom_site_type_symbol
 _atom_site_label
 _atom_site_symmetry_multiplicity
 _atom_site_fract_x
 _atom_site_fract_y
 _atom_site_fract_z
 _atom_site_occupancy
  Tl  Tl0  1  0.73148300  0.93038300  0.86282200  1
  Tl  Tl1  1  0.26851700  0.06961700  0.13717800  1
  Tl  Tl2  1  0.28246200  0.55755400  0.62452900  1
  Tl  Tl3  1  0.71753800  0.44244600  0.37547100  1
  Tl  Tl4  1  0.74633300  0.44231900  0.87700400  1
  Tl  Tl5  1  0.25366700  0.55768100  0.12299600  1
  Tl  Tl6  1  0.23092800  0.05883700  0.63421400  1
  Tl  Tl7  1  0.76907200  0.94116300  0.36578600  1
  P  P0  1  0.75834500  0.82284200  0.62397900  1
  P  P1  1  0.24165500  0.17715800  0.37602100  1
  P  P2  1  0.22909900  0.70708600  0.87916300  1
  P  P3  1  0.77090100  0.29291400  0.12083700  1
  P  P4  1  0.76753100  0.32402300  0.62210200  1
  P  P5  1  0.23246900  0.67597700  0.37789800  1
  P  P6  1  0.23552700  0.20074700  0.87079300  1
  P  P7  1  0.76447300  0.79925300  0.12920700  1
  H  H0  1  0.97751300  0.73708600  0.50935300  1
  H  H1  1  0.02248700  0.26291400  0.49064700  1
  H  H2  1  0.52145700  0.77373800  0.50745600  1
  H  H3  1  0.47854300  0.22626200  0.49254400  1
  H  H4  1  0.98898000  0.76424600  0.01452200  1
  H  H5  1  0.01102000  0.23575400  0.98547800  1
  H  H6  1  0.52419100  0.74873700  0.01036100  1
  H  H7  1  0.47580900  0.25126300  0.98963900  1
  H  H8  1  0.25869400  0.45102000  0.81644900  1
  H  H9  1  0.74130600  0.54898000  0.18355100  1
  H  H10  1  0.74279500  0.12449300  0.68019000  1
  H  H11  1  0.25720500  0.87550700  0.31981000  1
  H  H12  1  0.23164000  0.89785000  0.81404400  1
  H  H13  1  0.76836000  0.10215000  0.18595600  1
  H  H14  1  0.75360800  0.57903800  0.68546200  1
  H  H15  1  0.24639200  0.42096200  0.31453800  1
  O  O0  1  0.93534600  0.71843000  0.57096100  1
  O  O1  1  0.06465400  0.28157000  0.42903900  1
  O  O2  1  0.84044100  0.97704900  0.68516800  1
  O  O3  1  0.15955900  0.02295100  0.31483200  1
  O  O4  1  0.61342800  0.86140100  0.54806400  1
  O  O5  1  0.38657200  0.13859900  0.45193600  1
  O  O6  1  0.65181400  0.72838000  0.67653900  1
  O  O7  1  0.34818600  0.27162000  0.32346100  1
  O  O8  1  0.03913200  0.66808200  0.92233600  1
  O  O9  1  0.96086800  0.33191800  0.07766400  1
  O  O10  1  0.16328300  0.79301800  0.80551600  1
  O  O11  1  0.83671700  0.20698200  0.19448400  1
  O  O12  1  0.38624400  0.80259600  0.94794000  1
  O  O13  1  0.61375600  0.19740400  0.05206000  1
  O  O14  1  0.32969000  0.55356600  0.81805900  1
  O  O15  1  0.67031000  0.44643400  0.18194100  1
  O  O16  1  0.96173600  0.24818300  0.57994200  1
  O  O17  1  0.03826400  0.75181700  0.42005800  1
  O  O18  1  0.81893700  0.48381600  0.69723500  1
  O  O19  1  0.18106300  0.51618400  0.30276500  1
  O  O20  1  0.60971200  0.35037800  0.55214000  1
  O  O21  1  0.39028800  0.64962200  0.44786000  1
  O  O22  1  0.67354500  0.22768300  0.68237900  1
  O  O23  1  0.32645500  0.77231700  0.31762100  1
  O  O24  1  0.04393600  0.16205600  0.92031700  1
  O  O25  1  0.95606400  0.83794400  0.07968300  1
  O  O26  1  0.17259000  0.29891700  0.80885400  1
  O  O27  1  0.82741000  0.70108300  0.19114600  1
  O  O28  1  0.38307500  0.30293800  0.95015200  1
  O  O29  1  0.61692500  0.69706200  0.04984800  1
  O  O30  1  0.33265300  0.04852100  0.81975900  1
  O  O31  1  0.66734700  0.95147900  0.18024100  1
loop_
_geom_bond_atom_site_label_1
_geom_bond_atom_site_label_2
_geom_bond_distance
_geom_bond_site_symmetry_2
H0 O0 1.046253 1_555
H0 O17 1.470773 1_655
H1 O1 1.046253 1_555
H1 O16 1.470773 1_455
H2 O4 1.041133 1_555
H2 O21 1.488824 1_555
H3 O5 1.041133 1_555
H3 O20 1.488824 1_555
H4 O25 1.048335 1_555
H4 O8 1.463697 1_654
H5 O24 1.048335 1_555
H5 O9 1.463697 1_456
H6 O29 1.046354 1_555
H6 O12 1.475656 1_554
H7 O28 1.046354 1_555
H7 O13 1.475656 1_556
H8 O14 1.048065 1_555
H8 O26 1.481868 1_555
H9 O15 1.048065 1_555
H9 O27 1.481868 1_555
H10 O22 1.039593 1_555
H10 O2 1.513601 1_545
H11 O23 1.039593 1_555
H11 O3 1.513601 1_565
H12 O10 1.036674 1_555
H12 O30 1.517674 1_565
H13 O11 1.036674 1_555
H13 O31 1.517674 1_545
H14 O18 1.029641 1_555
H14 O6 1.559582 1_555
H15 O19 1.029641 1_555
H15 O7 1.559582 1_555
O0 P0 1.591999 1_555
O1 P1 1.591999 1_555
O2 P0 1.534372 1_555
O3 P1 1.534372 1_555
O4 P0 1.588278 1_555
O5 P1 1.588278 1_555
O6 P0 1.530918 1_555
O7 P1 1.530918 1_555
O8 P2 1.532906 1_555
O8 Tl4 2.765562 1_455
O9 P3 1.532906 1_555
O9 Tl5 2.765562 1_655
O10 P2 1.591728 1_555
O11 P3 1.591728 1_555
O12 P2 1.527343 1_555
O13 P3 1.527343 1_555
O14 P2 1.594223 1_555
O15 P3 1.594223 1_555
O16 P4 1.527060 1_555
O16 Tl6 2.747359 1_655
O17 P5 1.527060 1_555
O17 Tl7 2.747359 1_455
O18 P4 1.597360 1_555
O19 P5 1.597360 1_555
O20 P4 1.529828 1_555
O21 P5 1.529828 1_555
O22 P4 1.591224 1_555
O23 P5 1.591224 1_555
O24 P6 1.593465 1_555
O25 P7 1.593465 1_555
O26 P6 1.525750 1_555
O27 P7 1.525750 1_555
O28 P6 1.594453 1_555
O29 P7 1.594453 1_555
O30 P6 1.530586 1_555
O31 P7 1.530586 1_555
