# generated using pymatgen
data_PrCoSb2
_symmetry_space_group_name_H-M   'P 1'
_cell_length_a   4.38481100
_cell_length_b   4.38481100
_cell_length_c   9.94418400
_cell_angle_alpha   90.00000000
_cell_angle_beta   90.00000000
_cell_angle_gamma   90.00000000
_symmetry_Int_Tables_number   1
_chemical_formula_structural   PrCoSb2
_chemical_formula_sum   'Pr2 Co2 Sb4'
_cell_volume   191.19252497
_cell_formula_units_Z   2
loop_
 _symmetry_equiv_pos_site_id
 _symmetry_equiv_pos_as_xyz
  1  'x, y, z'
loop_
 _atom_site_type_symbol
 _atom_site_label
 _atom_site_symmetry_multiplicity
 _atom_site_fract_x
 _atom_site_fract_y
 _atom_site_fract_z
 _atom_site_occupancy
  Pr  Pr0  1  0.00000000  0.50000000  0.74266700  1
  Pr  Pr1  1  0.50000000  0.00000000  0.25733300  1
  Co  Co0  1  0.50000000  0.50000000  0.50000000  1
  Co  Co1  1  0.00000000  0.00000000  0.50000000  1
  Sb  Sb0  1  0.50000000  0.50000000  0.00000000  1
  Sb  Sb1  1  0.00000000  0.00000000  0.00000000  1
  Sb  Sb2  1  0.00000000  0.50000000  0.37092900  1
  Sb  Sb3  1  0.50000000  0.00000000  0.62907100  1
loop_
_geom_bond_atom_site_label_1
_geom_bond_atom_site_label_2
_geom_bond_distance
_geom_bond_site_symmetry_2
Pr0 Sb3 3.299898 1_555
Pr0 Sb3 3.299898 1_455
Pr0 Sb3 3.299898 1_565
Pr0 Sb3 3.299898 1_465
Pr0 Sb0 3.369711 1_556
Pr0 Sb1 3.369711 1_556
Pr0 Sb0 3.369711 1_456
Pr0 Sb1 3.369711 1_566
Pr1 Sb2 3.299898 1_655
Pr1 Sb2 3.299898 1_545
Pr1 Sb2 3.299898 1_555
Pr1 Sb2 3.299898 1_645
Pr1 Sb0 3.369711 1_545
Pr1 Sb1 3.369711 1_655
Pr1 Sb1 3.369711 1_555
Pr1 Sb0 3.369711 1_555
Co0 Sb3 2.540478 1_555
Co0 Sb3 2.540478 1_565
Co0 Sb2 2.540478 1_555
Co0 Sb2 2.540478 1_655
Co0 Pr1 3.260340 1_555
Co0 Pr0 3.260340 1_555
Co0 Pr0 3.260340 1_655
Co0 Pr1 3.260340 1_565
Co1 Sb3 2.540478 1_555
Co1 Sb3 2.540478 1_455
Co1 Sb2 2.540478 1_545
Co1 Sb2 2.540478 1_555
Co1 Pr0 3.260340 1_545
Co1 Pr1 3.260340 1_555
Co1 Pr0 3.260340 1_555
Co1 Pr1 3.260340 1_455
Sb0 Sb1 3.100530 1_655
Sb0 Sb1 3.100530 1_555
Sb0 Sb1 3.100530 1_665
Sb0 Sb1 3.100530 1_565
