# generated using pymatgen
data_Mg30TiBiO32
_symmetry_space_group_name_H-M   'P 1'
_cell_length_a   8.63605918
_cell_length_b   8.64756357
_cell_length_c   8.64756357
_cell_angle_alpha   90.00000000
_cell_angle_beta   90.00000000
_cell_angle_gamma   90.00000000
_symmetry_Int_Tables_number   1
_chemical_formula_structural   Mg30TiBiO32
_chemical_formula_sum   'Mg30 Ti1 Bi1 O32'
_cell_volume   645.80757730
_cell_formula_units_Z   1
loop_
 _symmetry_equiv_pos_site_id
 _symmetry_equiv_pos_as_xyz
  1  'x, y, z'
loop_
 _atom_site_type_symbol
 _atom_site_label
 _atom_site_symmetry_multiplicity
 _atom_site_fract_x
 _atom_site_fract_y
 _atom_site_fract_z
 _atom_site_occupancy
  Mg  Mg0  1  -0.00000000  -0.00000000  0.50000000  1
  Mg  Mg1  1  -0.00000000  0.50000000  -0.00000000  1
  Mg  Mg2  1  0.50000000  -0.00000000  -0.00000000  1
  Mg  Mg3  1  0.50000000  -0.00000000  0.50000000  1
  Mg  Mg4  1  0.50000000  0.50000000  -0.00000000  1
  Mg  Mg5  1  0.50000000  0.50000000  0.50000000  1
  Mg  Mg6  1  -0.00000000  0.24245597  0.24245597  1
  Mg  Mg7  1  -0.00000000  0.24245597  0.75754403  1
  Mg  Mg8  1  -0.00000000  0.75754403  0.24245597  1
  Mg  Mg9  1  -0.00000000  0.75754403  0.75754403  1
  Mg  Mg10  1  0.50000000  0.24874156  0.24874156  1
  Mg  Mg11  1  0.50000000  0.24874156  0.75125844  1
  Mg  Mg12  1  0.50000000  0.75125844  0.24874156  1
  Mg  Mg13  1  0.50000000  0.75125844  0.75125844  1
  Mg  Mg14  1  0.25114871  -0.00000000  0.24945227  1
  Mg  Mg15  1  0.25114871  -0.00000000  0.75054773  1
  Mg  Mg16  1  0.25697943  0.50000000  0.24263055  1
  Mg  Mg17  1  0.25697943  0.50000000  0.75736945  1
  Mg  Mg18  1  0.74885129  -0.00000000  0.24945227  1
  Mg  Mg19  1  0.74885129  -0.00000000  0.75054773  1
  Mg  Mg20  1  0.74302057  0.50000000  0.24263055  1
  Mg  Mg21  1  0.74302057  0.50000000  0.75736945  1
  Mg  Mg22  1  0.25114871  0.24945227  -0.00000000  1
  Mg  Mg23  1  0.25697943  0.24263055  0.50000000  1
  Mg  Mg24  1  0.25114871  0.75054773  -0.00000000  1
  Mg  Mg25  1  0.25697943  0.75736945  0.50000000  1
  Mg  Mg26  1  0.74885129  0.24945227  -0.00000000  1
  Mg  Mg27  1  0.74302057  0.24263055  0.50000000  1
  Mg  Mg28  1  0.74885129  0.75054773  -0.00000000  1
  Mg  Mg29  1  0.74302057  0.75736945  0.50000000  1
  Ti  Ti0  1  -0.00000000  -0.00000000  -0.00000000  1
  Bi  Bi0  1  -0.00000000  0.50000000  0.50000000  1
  O  O0  1  0.25759203  -0.00000000  -0.00000000  1
  O  O1  1  0.25394311  -0.00000000  0.50000000  1
  O  O2  1  0.25394311  0.50000000  -0.00000000  1
  O  O3  1  0.26830435  0.50000000  0.50000000  1
  O  O4  1  0.74240797  -0.00000000  -0.00000000  1
  O  O5  1  0.74605689  -0.00000000  0.50000000  1
  O  O6  1  0.74605689  0.50000000  -0.00000000  1
  O  O7  1  0.73169565  0.50000000  0.50000000  1
  O  O8  1  0.24927719  0.25077163  0.25077163  1
  O  O9  1  0.24927719  0.25077163  0.74922837  1
  O  O10  1  0.24927719  0.74922837  0.25077163  1
  O  O11  1  0.24927719  0.74922837  0.74922837  1
  O  O12  1  0.75072281  0.25077163  0.25077163  1
  O  O13  1  0.75072281  0.25077163  0.74922837  1
  O  O14  1  0.75072281  0.74922837  0.25077163  1
  O  O15  1  0.75072281  0.74922837  0.74922837  1
  O  O16  1  -0.00000000  -0.00000000  0.25770833  1
  O  O17  1  -0.00000000  -0.00000000  0.74229167  1
  O  O18  1  -0.00000000  0.50000000  0.23301451  1
  O  O19  1  -0.00000000  0.50000000  0.76698549  1
  O  O20  1  0.50000000  -0.00000000  0.25050191  1
  O  O21  1  0.50000000  -0.00000000  0.74949809  1
  O  O22  1  0.50000000  0.50000000  0.24764620  1
  O  O23  1  0.50000000  0.50000000  0.75235380  1
  O  O24  1  -0.00000000  0.25770833  -0.00000000  1
  O  O25  1  -0.00000000  0.23301451  0.50000000  1
  O  O26  1  -0.00000000  0.74229167  -0.00000000  1
  O  O27  1  -0.00000000  0.76698549  0.50000000  1
  O  O28  1  0.50000000  0.25050191  -0.00000000  1
  O  O29  1  0.50000000  0.24764620  0.50000000  1
  O  O30  1  0.50000000  0.74949809  -0.00000000  1
  O  O31  1  0.50000000  0.75235380  0.50000000  1
loop_
_geom_bond_atom_site_label_1
_geom_bond_atom_site_label_2
_geom_bond_distance
_geom_bond_site_symmetry_2
Mg0 O27 2.015008 1_545
Mg0 O25 2.015008 1_555
Mg0 O17 2.095233 1_555
Mg0 O16 2.095233 1_555
Mg0 O1 2.193068 1_555
Mg0 O5 2.193068 1_455
Mg1 O19 2.015008 1_554
Mg1 O18 2.015008 1_555
Mg1 O26 2.095233 1_555
Mg1 O24 2.095233 1_555
Mg1 O2 2.193068 1_555
Mg1 O6 2.193068 1_455
Mg2 O0 2.093450 1_555
Mg2 O4 2.093450 1_555
Mg2 O21 2.166231 1_554
Mg2 O20 2.166231 1_555
Mg2 O28 2.166231 1_555
Mg2 O30 2.166231 1_545
Mg3 O1 2.124962 1_555
Mg3 O5 2.124962 1_555
Mg3 O29 2.141536 1_555
Mg3 O31 2.141536 1_545
Mg3 O21 2.157551 1_555
Mg3 O20 2.157551 1_555
Mg4 O2 2.124962 1_555
Mg4 O6 2.124962 1_555
Mg4 O23 2.141536 1_554
Mg4 O22 2.141536 1_555
Mg4 O30 2.157551 1_555
Mg4 O28 2.157551 1_555
Mg5 O3 2.000937 1_555
Mg5 O7 2.000937 1_555
Mg5 O22 2.182246 1_555
Mg5 O23 2.182246 1_555
Mg5 O29 2.182246 1_555
Mg5 O31 2.182246 1_555
Mg6 O24 2.100798 1_555
Mg6 O16 2.100798 1_555
Mg6 O12 2.155173 1_455
Mg6 O8 2.155173 1_555
Mg6 O18 2.228624 1_555
Mg6 O25 2.228624 1_555
Mg7 O24 2.100798 1_556
Mg7 O17 2.100798 1_555
Mg7 O9 2.155173 1_555
Mg7 O13 2.155173 1_455
Mg7 O19 2.228624 1_555
Mg7 O25 2.228624 1_555
Mg8 O16 2.100798 1_565
Mg8 O26 2.100798 1_555
Mg8 O10 2.155173 1_555
Mg8 O14 2.155173 1_455
Mg8 O27 2.228624 1_555
Mg8 O18 2.228624 1_555
Mg9 O17 2.100798 1_565
Mg9 O26 2.100798 1_556
Mg9 O11 2.155173 1_555
Mg9 O15 2.155173 1_455
Mg9 O19 2.228624 1_555
Mg9 O27 2.228624 1_555
Mg10 O28 2.151062 1_555
Mg10 O20 2.151062 1_555
Mg10 O12 2.165399 1_555
Mg10 O8 2.165399 1_555
Mg10 O29 2.172794 1_555
Mg10 O22 2.172794 1_555
Mg11 O28 2.151062 1_556
Mg11 O21 2.151062 1_555
Mg11 O13 2.165399 1_555
Mg11 O9 2.165399 1_555
Mg11 O23 2.172794 1_555
Mg11 O29 2.172794 1_555
Mg12 O30 2.151062 1_555
Mg12 O20 2.151062 1_565
Mg12 O10 2.165399 1_555
Mg12 O14 2.165399 1_555
Mg12 O31 2.172794 1_555
Mg12 O22 2.172794 1_555
Mg13 O21 2.151062 1_565
Mg13 O30 2.151062 1_556
Mg13 O15 2.165399 1_555
Mg13 O11 2.165399 1_555
Mg13 O23 2.172794 1_555
Mg13 O31 2.172794 1_555
Mg14 O20 2.149114 1_555
Mg14 O0 2.157872 1_555
Mg14 O1 2.166762 1_555
Mg14 O8 2.168654 1_555
Mg14 O10 2.168654 1_545
Mg14 O16 2.170110 1_555
Mg15 O21 2.149114 1_555
Mg15 O0 2.157872 1_556
Mg15 O1 2.166762 1_555
Mg15 O11 2.168654 1_545
Mg15 O9 2.168654 1_555
Mg15 O17 2.170110 1_555
Mg16 O2 2.098327 1_555
Mg16 O22 2.099188 1_555
Mg16 O10 2.157393 1_555
Mg16 O8 2.157393 1_555
Mg16 O18 2.220847 1_555
Mg16 O3 2.227767 1_555
Mg17 O2 2.098327 1_556
Mg17 O23 2.099188 1_555
Mg17 O11 2.157393 1_555
Mg17 O9 2.157393 1_555
Mg17 O19 2.220847 1_555
Mg17 O3 2.227767 1_555
Mg18 O20 2.149114 1_555
Mg18 O4 2.157872 1_555
Mg18 O5 2.166762 1_555
Mg18 O14 2.168654 1_545
Mg18 O12 2.168654 1_555
Mg18 O16 2.170110 1_655
Mg19 O21 2.149114 1_555
Mg19 O4 2.157872 1_556
Mg19 O5 2.166762 1_555
Mg19 O15 2.168654 1_545
Mg19 O13 2.168654 1_555
Mg19 O17 2.170110 1_655
Mg20 O6 2.098327 1_555
Mg20 O22 2.099188 1_555
Mg20 O12 2.157393 1_555
Mg20 O14 2.157393 1_555
Mg20 O18 2.220847 1_655
Mg20 O7 2.227767 1_555
Mg21 O6 2.098327 1_556
Mg21 O23 2.099188 1_555
Mg21 O13 2.157393 1_555
Mg21 O15 2.157393 1_555
Mg21 O19 2.220847 1_655
Mg21 O7 2.227767 1_555
Mg22 O28 2.149114 1_555
Mg22 O0 2.157872 1_555
Mg22 O2 2.166762 1_555
Mg22 O8 2.168654 1_555
Mg22 O9 2.168654 1_554
Mg22 O24 2.170110 1_555
Mg23 O1 2.098327 1_555
Mg23 O29 2.099188 1_555
Mg23 O8 2.157393 1_555
Mg23 O9 2.157393 1_555
Mg23 O25 2.220847 1_555
Mg23 O3 2.227767 1_555
Mg24 O30 2.149114 1_555
Mg24 O0 2.157872 1_565
Mg24 O2 2.166762 1_555
Mg24 O11 2.168654 1_554
Mg24 O10 2.168654 1_555
Mg24 O26 2.170110 1_555
Mg25 O1 2.098327 1_565
Mg25 O31 2.099188 1_555
Mg25 O11 2.157393 1_555
Mg25 O10 2.157393 1_555
Mg25 O27 2.220847 1_555
Mg25 O3 2.227767 1_555
Mg26 O28 2.149114 1_555
Mg26 O4 2.157872 1_555
Mg26 O6 2.166762 1_555
Mg26 O13 2.168654 1_554
Mg26 O12 2.168654 1_555
Mg26 O24 2.170110 1_655
Mg27 O5 2.098327 1_555
Mg27 O29 2.099188 1_555
Mg27 O13 2.157393 1_555
Mg27 O12 2.157393 1_555
Mg27 O25 2.220847 1_655
Mg27 O7 2.227767 1_555
Mg28 O30 2.149114 1_555
Mg28 O4 2.157872 1_565
Mg28 O6 2.166762 1_555
Mg28 O14 2.168654 1_555
Mg28 O15 2.168654 1_554
Mg28 O26 2.170110 1_655
Mg29 O5 2.098327 1_565
Mg29 O31 2.099188 1_555
Mg29 O14 2.157393 1_555
Mg29 O15 2.157393 1_555
Mg29 O27 2.220847 1_655
Mg29 O7 2.227767 1_555
Bi0 O25 2.308774 1_555
Bi0 O18 2.308774 1_555
Bi0 O27 2.308774 1_555
Bi0 O19 2.308774 1_555
Bi0 O7 2.317092 1_455
Bi0 O3 2.317092 1_555
O0 Ti0 2.224580 1_555
O4 Ti0 2.224580 1_655
O16 Ti0 2.228549 1_555
O17 Ti0 2.228549 1_556
O24 Ti0 2.228549 1_555
O26 Ti0 2.228549 1_565
