# generated using pymatgen
data_Na4W4O15
_symmetry_space_group_name_H-M   'P 1'
_cell_length_a   5.25163300
_cell_length_b   7.75178166
_cell_length_c   8.68656513
_cell_angle_alpha   111.57432752
_cell_angle_beta   96.70296894
_cell_angle_gamma   92.61830522
_symmetry_Int_Tables_number   1
_chemical_formula_structural   Na4W4O15
_chemical_formula_sum   'Na4 W4 O15'
_cell_volume   325.09710152
_cell_formula_units_Z   1
loop_
 _symmetry_equiv_pos_site_id
 _symmetry_equiv_pos_as_xyz
  1  'x, y, z'
loop_
 _atom_site_type_symbol
 _atom_site_label
 _atom_site_symmetry_multiplicity
 _atom_site_fract_x
 _atom_site_fract_y
 _atom_site_fract_z
 _atom_site_occupancy
  Na  Na0  1  0.74728900  0.22537900  0.62724000  1
  Na  Na1  1  0.25271100  0.77462100  0.37276000  1
  Na  Na2  1  0.31821200  0.51303300  0.81350100  1
  Na  Na3  1  0.68178800  0.48696700  0.18649900  1
  W  W0  1  0.18736400  0.23328300  0.31636400  1
  W  W1  1  0.81263600  0.76671700  0.68363600  1
  W  W2  1  0.34612900  0.03480700  0.83953300  1
  W  W3  1  0.65387100  0.96519300  0.16046700  1
  O  O0  1  0.00000000  0.50000000  0.00000000  1
  O  O1  1  0.13307900  0.29800700  0.52958400  1
  O  O2  1  0.86692100  0.70199300  0.47041600  1
  O  O3  1  0.49180500  0.26328700  0.87257600  1
  O  O4  1  0.50819500  0.73671300  0.12742400  1
  O  O5  1  0.14522400  0.77183800  0.79705700  1
  O  O6  1  0.85477600  0.22816200  0.20294300  1
  O  O7  1  0.32954200  0.08332300  0.07643400  1
  O  O8  1  0.67045800  0.91667700  0.92356600  1
  O  O9  1  0.49814300  0.09753700  0.35788100  1
  O  O10  1  0.50185700  0.90246300  0.64211900  1
  O  O11  1  0.01701100  0.05564100  0.74853400  1
  O  O12  1  0.98298900  0.94435900  0.25146600  1
  O  O13  1  0.32451500  0.44751600  0.31231100  1
  O  O14  1  0.67548500  0.55248400  0.68768900  1
loop_
_geom_bond_atom_site_label_1
_geom_bond_atom_site_label_2
_geom_bond_distance
_geom_bond_site_symmetry_2
Na0 O9 2.372836 1_555
Na0 O11 2.385208 1_655
Na0 O1 2.406155 1_655
Na0 O14 2.449864 1_555
Na0 O3 2.582868 1_555
Na0 O10 2.815304 1_545
Na1 O10 2.372836 1_555
Na1 O12 2.385208 1_455
Na1 O2 2.406155 1_455
Na1 O13 2.449864 1_555
Na1 O4 2.582868 1_555
Na1 O9 2.815304 1_565
Na2 O5 2.284191 1_555
Na2 O14 2.341009 1_555
Na2 O3 2.371727 1_555
Na2 O1 2.464763 1_555
Na2 O0 2.482811 1_556
Na2 O4 2.677230 1_556
Na3 O6 2.284191 1_555
Na3 O13 2.341009 1_555
Na3 O4 2.371727 1_555
Na3 O2 2.464763 1_555
Na3 O0 2.482811 1_655
Na3 O3 2.677230 1_554
O1 W0 1.793430 1_555
O2 W1 1.793430 1_555
O3 W2 1.804339 1_555
O4 W3 1.804339 1_555
O5 W1 1.893718 1_455
O5 W2 2.136401 1_565
O6 W0 1.893718 1_655
O6 W3 2.136401 1_545
O7 W2 1.964556 1_554
O7 W3 2.148557 1_545
O7 W0 2.216624 1_555
O8 W3 1.964556 1_556
O8 W2 2.148557 1_565
O8 W1 2.216624 1_555
O9 W3 1.942236 1_545
O9 W0 2.049310 1_555
O10 W2 1.942236 1_565
O10 W1 2.049310 1_555
O11 W2 1.854389 1_555
O11 W1 2.279588 1_445
O12 W3 1.854389 1_555
O12 W0 2.279588 1_665
O13 W0 1.793750 1_555
O14 W1 1.793750 1_555
