# generated using pymatgen
data_CsLiU(PS4)2
_symmetry_space_group_name_H-M   'P 1'
_cell_length_a   13.24006715
_cell_length_b   13.24006715
_cell_length_c   13.24006738
_cell_angle_alpha   72.46178374
_cell_angle_beta   72.46178374
_cell_angle_gamma   72.46178663
_symmetry_Int_Tables_number   1
_chemical_formula_structural   CsLiU(PS4)2
_chemical_formula_sum   'Cs6 Li6 U6 P12 S48'
_cell_volume   2052.85942920
_cell_formula_units_Z   6
loop_
 _symmetry_equiv_pos_site_id
 _symmetry_equiv_pos_as_xyz
  1  'x, y, z'
loop_
 _atom_site_type_symbol
 _atom_site_label
 _atom_site_symmetry_multiplicity
 _atom_site_fract_x
 _atom_site_fract_y
 _atom_site_fract_z
 _atom_site_occupancy
  Cs  Cs0  1  0.25000000  0.25000000  0.25000000  1
  Cs  Cs1  1  0.75000000  0.75000000  0.75000000  1
  Cs  Cs2  1  0.42256281  0.42256281  0.42256281  1
  Cs  Cs3  1  0.92256281  0.92256281  0.92256281  1
  Cs  Cs4  1  0.57743719  0.57743719  0.57743719  1
  Cs  Cs5  1  0.07743719  0.07743719  0.07743719  1
  Li  Li0  1  0.88893714  0.61106286  0.25000000  1
  Li  Li1  1  0.61106286  0.25000000  0.88893714  1
  Li  Li2  1  0.25000000  0.88893714  0.61106286  1
  Li  Li3  1  0.38893714  0.75000000  0.11106286  1
  Li  Li4  1  0.75000000  0.11106286  0.38893714  1
  Li  Li5  1  0.11106286  0.38893714  0.75000000  1
  U  U0  1  0.58658434  0.91341566  0.25000000  1
  U  U1  1  0.91341566  0.25000000  0.58658434  1
  U  U2  1  0.25000000  0.58658434  0.91341566  1
  U  U3  1  0.08658434  0.75000000  0.41341566  1
  U  U4  1  0.75000000  0.41341566  0.08658434  1
  U  U5  1  0.41341566  0.08658434  0.75000000  1
  P  P0  1  0.18926310  0.17288827  0.62509332  1
  P  P1  1  0.17288827  0.62509332  0.18926310  1
  P  P2  1  0.62509332  0.18926310  0.17288827  1
  P  P3  1  0.68926310  0.12509332  0.67288827  1
  P  P4  1  0.12509332  0.67288827  0.68926310  1
  P  P5  1  0.67288827  0.68926310  0.12509332  1
  P  P6  1  0.81073690  0.82711173  0.37490668  1
  P  P7  1  0.82711173  0.37490668  0.81073690  1
  P  P8  1  0.37490668  0.81073690  0.82711173  1
  P  P9  1  0.31073690  0.87490668  0.32711173  1
  P  P10  1  0.87490668  0.32711173  0.31073690  1
  P  P11  1  0.32711173  0.31073690  0.87490668  1
  S  S0  1  0.35011895  0.16355509  0.54587665  1
  S  S1  1  0.16355509  0.54587665  0.35011895  1
  S  S2  1  0.54587665  0.35011895  0.16355509  1
  S  S3  1  0.85011895  0.04587665  0.66355509  1
  S  S4  1  0.04587665  0.66355509  0.85011895  1
  S  S5  1  0.66355509  0.85011895  0.04587665  1
  S  S6  1  0.64988105  0.83644491  0.45412335  1
  S  S7  1  0.83644491  0.45412335  0.64988105  1
  S  S8  1  0.45412335  0.64988105  0.83644491  1
  S  S9  1  0.14988105  0.95412335  0.33644491  1
  S  S10  1  0.95412335  0.33644491  0.14988105  1
  S  S11  1  0.33644491  0.14988105  0.95412335  1
  S  S12  1  0.37269344  0.30996149  0.71183792  1
  S  S13  1  0.30996149  0.71183792  0.37269344  1
  S  S14  1  0.71183792  0.37269344  0.30996149  1
  S  S15  1  0.87269344  0.21183792  0.80996149  1
  S  S16  1  0.21183792  0.80996149  0.87269344  1
  S  S17  1  0.80996149  0.87269344  0.21183792  1
  S  S18  1  0.62730656  0.69003851  0.28816208  1
  S  S19  1  0.69003851  0.28816208  0.62730656  1
  S  S20  1  0.28816208  0.62730656  0.69003851  1
  S  S21  1  0.12730656  0.78816208  0.19003851  1
  S  S22  1  0.78816208  0.19003851  0.12730656  1
  S  S23  1  0.19003851  0.12730656  0.78816208  1
  S  S24  1  0.09429053  0.32645772  0.58839735  1
  S  S25  1  0.32645772  0.58839735  0.09429053  1
  S  S26  1  0.58839735  0.09429053  0.32645772  1
  S  S27  1  0.59429053  0.08839735  0.82645772  1
  S  S28  1  0.08839735  0.82645772  0.59429053  1
  S  S29  1  0.82645772  0.59429053  0.08839735  1
  S  S30  1  0.90570947  0.67354228  0.41160265  1
  S  S31  1  0.67354228  0.41160265  0.90570947  1
  S  S32  1  0.41160265  0.90570947  0.67354228  1
  S  S33  1  0.40570947  0.91160265  0.17354228  1
  S  S34  1  0.91160265  0.17354228  0.40570947  1
  S  S35  1  0.17354228  0.40570947  0.91160265  1
  S  S36  1  0.61437724  0.08560145  0.57957294  1
  S  S37  1  0.08560145  0.57957294  0.61437724  1
  S  S38  1  0.57957294  0.61437724  0.08560145  1
  S  S39  1  0.11437724  0.07957294  0.58560145  1
  S  S40  1  0.07957294  0.58560145  0.11437724  1
  S  S41  1  0.58560145  0.11437724  0.07957294  1
  S  S42  1  0.38562276  0.91439855  0.42042706  1
  S  S43  1  0.91439855  0.42042706  0.38562276  1
  S  S44  1  0.42042706  0.38562276  0.91439855  1
  S  S45  1  0.88562276  0.92042706  0.41439855  1
  S  S46  1  0.92042706  0.41439855  0.88562276  1
  S  S47  1  0.41439855  0.88562276  0.92042706  1
loop_
_geom_bond_atom_site_label_1
_geom_bond_atom_site_label_2
_geom_bond_distance
_geom_bond_site_symmetry_2
Cs0 S2 4.233961 1_555
Cs0 S9 4.233961 1_545
Cs0 S1 4.233961 1_555
Cs0 S10 4.233961 1_455
Cs0 S0 4.233961 1_555
Cs0 S11 4.233961 1_554
Cs1 S8 4.233961 1_555
Cs1 S3 4.233961 1_565
Cs1 S7 4.233961 1_555
Cs1 S4 4.233961 1_655
Cs1 S6 4.233961 1_555
Cs1 S5 4.233961 1_556
Cs2 S14 3.599375 1_555
Cs2 S12 3.599375 1_555
Cs2 S13 3.599376 1_555
Cs2 S0 3.606908 1_555
Cs2 S2 3.606908 1_555
Cs2 S1 3.606908 1_555
Cs3 S15 3.599375 1_565
Cs3 S17 3.599375 1_556
Cs3 S16 3.599376 1_655
Cs3 S5 3.606908 1_556
Cs3 S3 3.606908 1_565
Cs3 S4 3.606908 1_655
Cs4 S20 3.599375 1_555
Cs4 S18 3.599375 1_555
Cs4 S19 3.599376 1_555
Cs4 S6 3.606908 1_555
Cs4 S8 3.606908 1_555
Cs4 S7 3.606908 1_555
Cs5 S21 3.599375 1_545
Cs5 S23 3.599375 1_554
Cs5 S22 3.599376 1_455
Cs5 S11 3.606908 1_554
Cs5 S9 3.606908 1_545
Cs5 S10 3.606908 1_455
Li0 S29 2.602969 1_555
Li0 S30 2.602969 1_555
Li0 S43 2.613279 1_555
Li0 S40 2.613279 1_655
Li1 S31 2.602969 1_555
Li1 S27 2.602969 1_555
Li1 S41 2.613279 1_556
Li1 S44 2.613279 1_555
Li2 S28 2.602969 1_555
Li2 S32 2.602969 1_555
Li2 S42 2.613279 1_555
Li2 S39 2.613279 1_565
Li3 S25 2.602969 1_555
Li3 S33 2.602969 1_555
Li3 S47 2.613279 1_554
Li3 S38 2.613279 1_555
Li4 S34 2.602969 1_555
Li4 S26 2.602969 1_555
Li4 S36 2.613279 1_555
Li4 S45 2.613279 1_545
Li5 S35 2.602969 1_555
Li5 S24 2.602969 1_555
Li5 S37 2.613279 1_555
Li5 S46 2.613279 1_455
P0 S24 2.045321 1_555
P0 S39 2.054992 1_555
P0 S0 2.055330 1_555
P0 S23 2.061581 1_555
P1 S25 2.045321 1_555
P1 S40 2.054992 1_555
P1 S1 2.055330 1_555
P1 S21 2.061581 1_555
P2 S26 2.045321 1_555
P2 S41 2.054992 1_555
P2 S2 2.055330 1_555
P2 S22 2.061581 1_555
P3 S27 2.045321 1_555
P3 S36 2.054992 1_555
P3 S3 2.055330 1_555
P3 S19 2.061581 1_555
P4 S28 2.045321 1_555
P4 S37 2.054992 1_555
P4 S4 2.055330 1_555
P4 S20 2.061581 1_555
P5 S29 2.045321 1_555
P5 S38 2.054992 1_555
P5 S5 2.055330 1_555
P5 S18 2.061581 1_555
P6 S30 2.045321 1_555
P6 S45 2.054992 1_555
P6 S6 2.055330 1_555
P6 S17 2.061581 1_555
P7 S31 2.045321 1_555
P7 S46 2.054992 1_555
P7 S7 2.055330 1_555
P7 S15 2.061581 1_555
P8 S32 2.045321 1_555
P8 S47 2.054992 1_555
P8 S8 2.055330 1_555
P8 S16 2.061581 1_555
P9 S33 2.045321 1_555
P9 S42 2.054992 1_555
P9 S9 2.055330 1_555
P9 S13 2.061581 1_555
P10 S34 2.045321 1_555
P10 S43 2.054992 1_555
P10 S10 2.055330 1_555
P10 S14 2.061581 1_555
P11 S35 2.045321 1_555
P11 S44 2.054992 1_555
P11 S11 2.055330 1_555
P11 S12 2.061581 1_555
S0 U5 2.869732 1_555
S1 U3 2.869732 1_555
S2 U4 2.869732 1_555
S3 U1 2.869732 1_555
S4 U2 2.869732 1_555
S5 U0 2.869732 1_555
S6 U0 2.869732 1_555
S7 U1 2.869732 1_555
S8 U2 2.869732 1_555
S9 U3 2.869732 1_555
S10 U4 2.869732 1_555
S11 U5 2.869732 1_555
S12 U5 2.755993 1_555
S13 U3 2.755993 1_555
S14 U4 2.755993 1_555
S15 U1 2.755993 1_555
S16 U2 2.755993 1_555
S17 U0 2.755993 1_555
S18 U0 2.755993 1_555
S19 U1 2.755993 1_555
S20 U2 2.755993 1_555
S21 U3 2.755993 1_555
S22 U4 2.755993 1_555
S23 U5 2.755993 1_555
S24 U1 2.875889 1_455
S25 U2 2.875889 1_554
S26 U0 2.875889 1_545
S27 U5 2.875889 1_555
S28 U3 2.875889 1_555
S29 U4 2.875889 1_555
S30 U3 2.875889 1_655
S31 U4 2.875889 1_556
S32 U5 2.875889 1_565
S33 U0 2.875889 1_555
S34 U1 2.875889 1_555
S35 U2 2.875889 1_555
S36 U5 2.923997 1_555
S37 U3 2.923997 1_555
S38 U4 2.923997 1_555
S39 U1 2.923997 1_455
S40 U2 2.923997 1_554
S41 U0 2.923997 1_545
S42 U0 2.923997 1_555
S43 U1 2.923997 1_555
S44 U2 2.923997 1_555
S45 U3 2.923997 1_655
S46 U4 2.923997 1_556
S47 U5 2.923997 1_565
