# generated using pymatgen
data_HoIn2Pd
_symmetry_space_group_name_H-M   'P 1'
_cell_length_a   10.73154356
_cell_length_b   10.73154675
_cell_length_c   10.73338128
_cell_angle_alpha   100.44014960
_cell_angle_beta   100.44005858
_cell_angle_gamma   129.61416696
_symmetry_Int_Tables_number   1
_chemical_formula_structural   HoIn2Pd
_chemical_formula_sum   'Ho10 In20 Pd10'
_cell_volume   861.65876845
_cell_formula_units_Z   10
loop_
 _symmetry_equiv_pos_site_id
 _symmetry_equiv_pos_as_xyz
  1  'x, y, z'
loop_
 _atom_site_type_symbol
 _atom_site_label
 _atom_site_symmetry_multiplicity
 _atom_site_fract_x
 _atom_site_fract_y
 _atom_site_fract_z
 _atom_site_occupancy
  Ho  Ho0  1  0.33057591  0.60982995  0.72082628  1
  Ho  Ho1  1  0.88933213  0.60982453  0.27938754  1
  Ho  Ho2  1  0.60982439  0.88933272  0.27938776  1
  Ho  Ho3  1  0.60982956  0.33057616  0.72082686  1
  Ho  Ho4  1  0.32521001  0.92152224  0.99996854  1
  Ho  Ho5  1  0.92152390  0.32521187  0.99996840  1
  Ho  Ho6  1  0.92166111  0.92166077  0.59636919  1
  Ho  Ho7  1  0.32518837  0.32518804  0.40360666  1
  Ho  Ho8  1  0.53793047  0.53793058  0.99993897  1
  Ho  Ho9  1  0.00883868  0.00883845  0.00003166  1
  In  In0  1  0.73095298  0.22345290  0.20798167  1
  In  In1  1  0.01550604  0.52296129  0.79177583  1
  In  In2  1  0.22352022  0.01541850  0.49238304  1
  In  In3  1  0.73112346  0.52314967  0.50768777  1
  In  In4  1  0.52314973  0.73112339  0.50768768  1
  In  In5  1  0.01541833  0.22352004  0.49238333  1
  In  In6  1  0.22345333  0.73095373  0.20798199  1
  In  In7  1  0.52296037  0.01550632  0.79177614  1
  In  In8  1  0.75196909  0.13484239  0.61714883  1
  In  In9  1  0.51777563  0.13502658  0.38284909  1
  In  In10  1  0.13502659  0.51777588  0.38284929  1
  In  In11  1  0.13484185  0.75196963  0.61714980  1
  In  In12  1  0.64473603  0.90643027  0.99999188  1
  In  In13  1  0.90643029  0.64473588  0.99999190  1
  In  In14  1  0.90611914  0.90611872  0.26148744  1
  In  In15  1  0.64478832  0.64478883  0.73847640  1
  In  In16  1  0.11891582  0.28118387  0.83763818  1
  In  In17  1  0.44367975  0.28135181  0.16243219  1
  In  In18  1  0.28135210  0.44367929  0.16243255  1
  In  In19  1  0.28118444  0.11891571  0.83763855  1
  Pd  Pd0  1  0.88439894  0.38441634  0.49980741  1
  Pd  Pd1  1  0.38441575  0.88439996  0.49980697  1
  Pd  Pd2  1  0.62818842  0.30641774  0.00002889  1
  Pd  Pd3  1  0.30641792  0.62818546  0.00002821  1
  Pd  Pd4  1  0.30632643  0.30632595  0.67795245  1
  Pd  Pd5  1  0.62845299  0.62845355  0.32198046  1
  Pd  Pd6  1  0.75984306  0.97402174  0.78592750  1
  Pd  Pd7  1  0.18811634  0.97390230  0.21424118  1
  Pd  Pd8  1  0.97390307  0.18811572  0.21424263  1
  Pd  Pd9  1  0.97402305  0.75984524  0.78592889  1
loop_
_geom_bond_atom_site_label_1
_geom_bond_atom_site_label_2
_geom_bond_distance
_geom_bond_site_symmetry_2
Ho0 Pd3 3.036356 1_556
Ho0 Pd4 3.036525 1_555
Ho0 In12 3.110280 1_555
Ho0 In15 3.110695 1_555
Ho0 In1 3.170531 1_555
Ho0 In5 3.173004 1_555
Ho0 In4 3.249769 1_555
Ho0 In7 3.249969 1_565
Ho0 In16 3.404267 1_555
Ho0 In11 3.439671 1_555
Ho0 In10 3.440654 1_555
Ho1 Pd2 3.037477 1_555
Ho1 Pd5 3.038322 1_555
Ho1 In14 3.111799 1_555
Ho1 In13 3.112256 1_554
Ho1 In0 3.171392 1_555
Ho1 In3 3.173698 1_555
Ho1 In6 3.247636 1_655
Ho1 In2 3.248037 1_665
Ho1 In17 3.405329 1_555
Ho1 In10 3.437866 1_655
Ho1 In11 3.438095 1_655
Ho2 Pd3 3.037485 1_555
Ho2 Pd5 3.038320 1_555
Ho2 In14 3.111811 1_555
Ho2 In12 3.112258 1_554
Ho2 In6 3.171387 1_555
Ho2 In4 3.173700 1_555
Ho2 In0 3.247633 1_565
Ho2 In5 3.248037 1_665
Ho2 In18 3.405336 1_555
Ho2 In9 3.437859 1_565
Ho2 In8 3.438084 1_565
Ho3 Pd2 3.036358 1_556
Ho3 Pd4 3.036510 1_555
Ho3 In13 3.110276 1_555
Ho3 In15 3.110700 1_555
Ho3 In7 3.170529 1_555
Ho3 In2 3.173005 1_555
Ho3 In3 3.249774 1_555
Ho3 In1 3.249969 1_655
Ho3 In19 3.404257 1_555
Ho3 In8 3.439670 1_555
Ho3 In9 3.440661 1_555
Ho4 Pd3 3.023494 1_556
Ho4 Pd9 3.093666 1_455
Ho4 Pd7 3.095521 1_556
Ho4 In6 3.170219 1_556
Ho4 In1 3.170224 1_555
Ho4 In19 3.172058 1_565
Ho4 In17 3.172392 1_566
Ho4 In0 3.210359 1_566
Ho4 In7 3.212520 1_565
Ho4 Pd2 3.241115 1_566
Ho4 In13 3.463780 1_455
Ho4 In12 3.534436 1_555
Ho5 Pd2 3.023467 1_556
Ho5 Pd6 3.093681 1_545
Ho5 Pd8 3.095553 1_556
Ho5 In0 3.170232 1_556
Ho5 In7 3.170240 1_555
Ho5 In16 3.172055 1_655
Ho5 In18 3.172394 1_656
Ho5 In6 3.210352 1_656
Ho5 In1 3.212517 1_655
Ho5 Pd3 3.241096 1_656
Ho5 In12 3.463797 1_545
Ho5 In13 3.534427 1_555
Ho6 Pd5 3.022019 1_555
Ho6 Pd9 3.095394 1_555
Ho6 Pd6 3.095398 1_555
Ho6 In3 3.169313 1_555
Ho6 In4 3.169316 1_555
Ho6 In16 3.170222 1_665
Ho6 In19 3.170226 1_665
Ho6 In2 3.211350 1_665
Ho6 In5 3.211354 1_665
Ho6 Pd4 3.239965 1_665
Ho6 In15 3.465555 1_555
Ho6 In14 3.536301 1_555
Ho7 Pd4 3.022043 1_555
Ho7 Pd8 3.094262 1_455
Ho7 Pd7 3.094272 1_545
Ho7 In2 3.170000 1_555
Ho7 In5 3.170005 1_555
Ho7 In18 3.170747 1_555
Ho7 In17 3.170749 1_555
Ho7 In3 3.211380 1_555
Ho7 In4 3.211383 1_555
Ho7 Pd5 3.242061 1_555
Ho7 In14 3.466002 1_445
Ho7 In15 3.536847 1_555
Ho8 Pd3 3.190621 1_556
Ho8 Pd2 3.190652 1_556
Ho8 Pd4 3.192983 1_555
Ho8 Pd5 3.193448 1_556
Ho8 In16 3.235477 1_555
Ho8 In19 3.235479 1_555
Ho8 In18 3.236485 1_556
Ho8 In17 3.236488 1_556
Ho8 In14 3.340089 1_556
Ho8 In15 3.340886 1_555
Ho8 In12 3.342323 1_555
Ho8 In13 3.342324 1_555
Ho9 Pd9 2.958190 1_444
Ho9 Pd6 2.958212 1_444
Ho9 Pd7 2.959301 1_545
Ho9 Pd8 2.959303 1_455
Ho9 In15 3.315694 1_444
Ho9 In14 3.316371 1_445
Ho9 In13 3.316409 1_444
Ho9 In12 3.316409 1_444
Ho9 In19 3.341466 1_554
Ho9 In16 3.341468 1_554
Ho9 In18 3.341960 1_555
Ho9 In17 3.341962 1_555
In0 Pd0 2.837086 1_555
In0 Pd2 2.840980 1_555
In0 Pd8 2.855268 1_555
In0 In9 3.014999 1_555
In0 In10 3.120681 1_655
In0 In12 3.146281 1_544
In0 In17 3.483658 1_555
In1 Pd0 2.838431 1_455
In1 Pd3 2.842275 1_556
In1 Pd9 2.855769 1_455
In1 In8 3.014575 1_455
In1 In11 3.117499 1_555
In1 In13 3.148484 1_455
In1 In16 3.484659 1_555
In2 Pd1 2.837478 1_545
In2 Pd4 2.840823 1_555
In2 Pd7 2.854206 1_545
In2 In9 3.118503 1_555
In3 Pd0 2.838508 1_555
In3 Pd5 2.841200 1_555
In3 Pd9 2.855125 1_555
In3 In9 3.015048 1_555
In4 Pd1 2.838526 1_555
In4 Pd5 2.841188 1_555
In4 Pd6 2.855110 1_555
In4 In8 3.118282 1_565
In5 Pd0 2.837493 1_455
In5 Pd4 2.840830 1_555
In5 Pd8 2.854195 1_455
In5 In8 3.015808 1_455
In6 Pd1 2.837079 1_555
In6 Pd3 2.841002 1_555
In6 Pd7 2.855253 1_555
In6 In9 3.120675 1_565
In7 Pd1 2.838439 1_545
In7 Pd2 2.842254 1_556
In7 Pd6 2.855770 1_545
In7 In8 3.117511 1_555
In8 Pd6 2.744280 1_545
In8 Pd0 2.792243 1_555
In8 Pd1 2.796777 1_545
In8 In9 3.218441 1_555
In9 Pd7 2.743258 1_545
In9 Pd0 2.789774 1_555
In9 Pd1 2.797183 1_545
In10 Pd8 2.743263 1_455
In10 Pd1 2.789780 1_555
In10 Pd0 2.797191 1_455
In10 In6 3.015003 1_555
In10 In4 3.015049 1_555
In10 In5 3.118509 1_555
In10 In11 3.218449 1_555
In10 In18 3.309401 1_555
In11 Pd9 2.744272 1_455
In11 Pd1 2.792251 1_555
In11 Pd0 2.796777 1_455
In11 In7 3.014572 1_565
In11 In2 3.015814 1_565
In11 In3 3.118275 1_455
In11 In19 3.311073 1_565
In12 Pd6 2.796634 1_555
In12 Pd8 2.797129 1_566
In12 Pd3 2.876443 1_556
In12 In7 3.148492 1_565
In13 Pd9 2.796634 1_555
In13 Pd7 2.797121 1_656
In13 Pd2 2.876439 1_556
In13 In6 3.146283 1_656
In14 Pd8 2.797705 1_565
In14 Pd7 2.797714 1_655
In14 Pd5 2.873894 1_555
In14 In2 3.148359 1_665
In14 In5 3.148363 1_665
In15 Pd6 2.797151 1_555
In15 Pd9 2.797160 1_555
In15 Pd4 2.876396 1_555
In15 In4 3.146556 1_555
In15 In3 3.146560 1_555
In16 Pd3 2.788415 1_556
In16 Pd4 2.789322 1_555
In16 Pd6 2.895913 1_445
In16 In19 3.151498 1_555
In16 In18 3.154482 1_556
In16 In8 3.311087 1_455
In16 In5 3.485673 1_555
In17 Pd2 2.788032 1_555
In17 Pd5 2.788931 1_555
In17 Pd7 2.897472 1_545
In17 In18 3.152647 1_555
In17 In19 3.154475 1_554
In17 In9 3.309400 1_555
In17 In3 3.485136 1_555
In18 Pd3 2.788023 1_555
In18 Pd5 2.788921 1_555
In18 Pd8 2.897476 1_455
In18 In6 3.483670 1_555
In18 In4 3.485133 1_555
In19 Pd2 2.788436 1_556
In19 Pd4 2.789325 1_555
In19 Pd9 2.895900 1_445
In19 In7 3.484639 1_555
In19 In2 3.485678 1_555
