# generated using pymatgen
data_ZnS
_symmetry_space_group_name_H-M   'P 1'
_cell_length_a   12.76791538
_cell_length_b   12.90834942
_cell_length_c   14.40824500
_cell_angle_alpha   94.27044922
_cell_angle_beta   87.82745546
_cell_angle_gamma   90.27096980
_symmetry_Int_Tables_number   1
_chemical_formula_structural   ZnS
_chemical_formula_sum   'Zn50 S50'
_cell_volume   2366.36260038
_cell_formula_units_Z   50
loop_
 _symmetry_equiv_pos_site_id
 _symmetry_equiv_pos_as_xyz
  1  'x, y, z'
loop_
 _atom_site_type_symbol
 _atom_site_label
 _atom_site_symmetry_multiplicity
 _atom_site_fract_x
 _atom_site_fract_y
 _atom_site_fract_z
 _atom_site_occupancy
  Zn  Zn0  1  0.35783160  0.76815218  0.92409738  1
  Zn  Zn1  1  0.34441893  0.30950997  0.22714373  1
  Zn  Zn2  1  0.51884912  0.40243397  0.07081667  1
  Zn  Zn3  1  0.61618040  0.30934690  0.72217488  1
  Zn  Zn4  1  0.16921815  0.11707133  0.19570216  1
  Zn  Zn5  1  0.89331046  0.36256370  0.64325235  1
  Zn  Zn6  1  0.38050172  0.93256401  0.76012479  1
  Zn  Zn7  1  0.69195298  0.16466724  0.18010408  1
  Zn  Zn8  1  0.19164194  0.12981746  0.89508721  1
  Zn  Zn9  1  0.61734484  0.87586239  0.78493988  1
  Zn  Zn10  1  0.84090801  0.44614263  0.42702762  1
  Zn  Zn11  1  0.59617907  0.84487593  0.21247535  1
  Zn  Zn12  1  0.85386640  0.74600473  0.99011902  1
  Zn  Zn13  1  0.86386754  0.98546471  0.08905188  1
  Zn  Zn14  1  0.20088581  0.63243177  0.09893963  1
  Zn  Zn15  1  0.69805659  0.53223410  0.93390862  1
  Zn  Zn16  1  0.16431065  0.15492299  0.60950776  1
  Zn  Zn17  1  0.99167612  0.77624597  0.23465457  1
  Zn  Zn18  1  0.02796215  0.98467425  0.41218519  1
  Zn  Zn19  1  0.95656381  0.01688887  0.72285831  1
  Zn  Zn20  1  0.00760387  0.35020473  0.01252403  1
  Zn  Zn21  1  0.72907525  0.09480928  0.53626466  1
  Zn  Zn22  1  0.94451836  0.32374404  0.16836418  1
  Zn  Zn23  1  0.47836670  0.19897529  0.51460116  1
  Zn  Zn24  1  0.43297760  0.03298731  0.03217227  1
  Zn  Zn25  1  0.18348345  0.76334938  0.59236141  1
  Zn  Zn26  1  0.82944495  0.95993300  0.83258973  1
  Zn  Zn27  1  0.53444087  0.68805460  0.12523054  1
  Zn  Zn28  1  0.62201320  0.02483465  0.03204431  1
  Zn  Zn29  1  0.71908437  0.91641590  0.48578045  1
  Zn  Zn30  1  0.32250939  0.84634562  0.16179162  1
  Zn  Zn31  1  0.05740863  0.47020066  0.60104603  1
  Zn  Zn32  1  0.39265931  0.77657581  0.32696680  1
  Zn  Zn33  1  0.21229335  0.28181622  0.40996545  1
  Zn  Zn34  1  0.32835204  0.05391288  0.37252021  1
  Zn  Zn35  1  0.75306018  0.66121399  0.27557821  1
  Zn  Zn36  1  0.65391450  0.37448359  0.25241110  1
  Zn  Zn37  1  0.67171927  0.52504830  0.63088490  1
  Zn  Zn38  1  0.03639627  0.33046683  0.75055970  1
  Zn  Zn39  1  0.51158770  0.53863680  0.37319575  1
  Zn  Zn40  1  0.21934467  0.53155699  0.36019377  1
  Zn  Zn41  1  0.30415423  0.47794534  0.60387464  1
  Zn  Zn42  1  0.45751914  0.22999154  0.88808764  1
  Zn  Zn43  1  0.88479733  0.61100820  0.15818270  1
  Zn  Zn44  1  0.63768701  0.06005320  0.83003329  1
  Zn  Zn45  1  0.01690202  0.67009260  0.72999251  1
  Zn  Zn46  1  0.94984726  0.54490273  0.84749716  1
  Zn  Zn47  1  0.82159917  0.65647192  0.75826098  1
  Zn  Zn48  1  0.35054943  0.48739829  0.90166784  1
  Zn  Zn49  1  0.96802411  0.72522515  0.49400378  1
  S  S0  1  0.67727713  0.82103490  0.62579024  1
  S  S1  1  0.01246957  0.12146213  0.12082563  1
  S  S2  1  0.31999995  0.90188645  0.60875890  1
  S  S3  1  0.04048864  0.15720380  0.98278261  1
  S  S4  1  0.18543801  0.32884206  0.56606153  1
  S  S5  1  0.32895864  0.15561036  0.13975944  1
  S  S6  1  0.17958405  0.37623306  0.28376657  1
  S  S7  1  0.96067791  0.83873894  0.08489162  1
  S  S8  1  0.68180266  0.30915345  0.09866411  1
  S  S9  1  0.77035913  0.48012332  0.78927797  1
  S  S10  1  0.58040054  0.16446955  0.62454920  1
  S  S11  1  0.54549976  0.47431741  0.74289034  1
  S  S12  1  0.39674822  0.22252446  0.38850538  1
  S  S13  1  0.24847849  0.62909223  0.94353286  1
  S  S14  1  0.35900893  0.52513666  0.46128219  1
  S  S15  1  0.88322482  0.29614395  0.32467046  1
  S  S16  1  0.45579860  0.78032085  0.78988948  1
  S  S17  1  0.35240723  0.66871636  0.19094537  1
  S  S18  1  0.01336633  0.81426789  0.63711413  1
  S  S19  1  0.75731829  0.68035050  0.60836265  1
  S  S20  1  0.85680669  0.56916124  0.00103194  1
  S  S21  1  0.88626200  0.18858666  0.55685079  1
  S  S22  1  0.78849948  0.06393232  0.96928867  1
  S  S23  1  0.14797437  0.10707598  0.35613590  1
  S  S24  1  0.53933977  0.56262016  0.99916562  1
  S  S25  1  0.09613104  0.15848967  0.76169318  1
  S  S26  1  0.69498331  0.51629793  0.35382637  1
  S  S27  1  0.15299878  0.70112807  0.42329525  1
  S  S28  1  0.36885540  0.34587158  0.98620104  1
  S  S29  1  0.74820614  0.38113122  0.55490475  1
  S  S30  1  0.07418879  0.42762474  0.88324404  1
  S  S31  1  0.76248141  0.78929573  0.86390707  1
  S  S32  1  0.51573045  0.72096924  0.42419207  1
  S  S33  1  0.98734955  0.54129133  0.47223795  1
  S  S34  1  0.15766686  0.86912800  0.24790404  1
  S  S35  1  0.17969753  0.60430718  0.66589273  1
  S  S36  1  0.70811486  0.98962542  0.18481243  1
  S  S37  1  0.63281327  0.23723592  0.86176595  1
  S  S38  1  0.38596493  0.42979683  0.73583333  1
  S  S39  1  0.65011535  0.79321568  0.36835984  1
  S  S40  1  0.47692990  0.42936187  0.23468420  1
  S  S41  1  0.35859452  0.07901270  0.86168677  1
  S  S42  1  0.21189965  0.83979614  0.37793971  1
  S  S43  1  0.43030890  0.93905856  0.27270567  1
  S  S44  1  0.73081789  0.23432824  0.33266480  1
  S  S45  1  0.30305106  0.90469489  0.02135368  1
  S  S46  1  0.99708109  0.06983751  0.56492789  1
  S  S47  1  0.91827646  0.84425250  0.38345795  1
  S  S48  1  0.30317205  0.04471103  0.54877878  1
  S  S49  1  0.06046569  0.60644937  0.19765099  1
loop_
_geom_bond_atom_site_label_1
_geom_bond_atom_site_label_2
_geom_bond_distance
_geom_bond_site_symmetry_2
Zn19 Zn26 2.375236 1_545
Zn20 Zn22 2.404514 1_455
Zn24 Zn28 2.416306 1_555
Zn31 Zn5 2.586853 1_455
Zn38 Zn5 2.493276 1_455
S0 S19 2.082188 1_555
S0 Zn9 2.444378 1_555
S0 Zn29 2.480390 1_555
S1 S3 2.092354 1_554
S1 Zn4 2.312228 1_555
S1 Zn13 2.608817 1_445
S1 Zn22 2.783858 1_455
S2 S48 2.108815 1_565
S2 Zn6 2.346520 1_555
S2 Zn25 2.496148 1_555
S3 Zn8 2.280593 1_555
S3 Zn20 2.530587 1_556
S4 Zn33 2.298814 1_555
S4 Zn16 2.386514 1_555
S4 Zn31 2.466685 1_555
S4 Zn41 2.485475 1_555
S5 Zn4 2.232136 1_555
S5 Zn1 2.283277 1_555
S5 Zn24 2.484075 1_555
S6 Zn40 2.279077 1_555
S6 Zn33 2.314835 1_555
S6 Zn1 2.370453 1_555
S7 Zn12 2.244924 1_554
S7 Zn13 2.262357 1_555
S7 Zn17 2.406362 1_555
S8 Zn7 2.282968 1_555
S8 Zn36 2.325939 1_555
S8 Zn2 2.469530 1_555
S9 Zn15 2.301842 1_555
S9 Zn47 2.434101 1_555
S9 Zn46 2.584157 1_555
S9 Zn37 2.748209 1_555
S9 Zn5 2.913846 1_555
S10 Zn23 2.161522 1_555
S10 Zn3 2.309440 1_555
S10 Zn21 2.385948 1_555
S11 S38 2.117925 1_555
S11 Zn3 2.311135 1_555
S11 Zn37 2.362316 1_555
S12 Zn23 2.169792 1_555
S12 Zn34 2.339960 1_555
S12 Zn33 2.480824 1_555
S12 Zn1 2.761551 1_555
S13 Zn48 2.281726 1_555
S13 Zn14 2.295117 1_556
S13 Zn0 2.295971 1_555
S14 Zn41 2.270653 1_555
S14 Zn39 2.297515 1_555
S14 Zn40 2.350416 1_555
S15 S44 2.102042 1_555
S15 Zn10 2.395858 1_555
S15 Zn22 2.407189 1_555
S16 Zn6 2.268230 1_555
S16 Zn0 2.277817 1_555
S16 Zn9 2.399649 1_555
S17 Zn32 2.388881 1_555
S17 Zn30 2.396546 1_555
S17 Zn14 2.410981 1_555
S17 Zn27 2.494701 1_555
S18 Zn25 2.325886 1_555
S18 Zn45 2.373331 1_555
S18 Zn49 2.374706 1_455
S18 Zn19 2.891694 1_465
S19 Zn37 2.316863 1_555
S19 Zn47 2.380999 1_555
S20 Zn12 2.300397 1_554
S20 Zn15 2.311220 1_554
S20 Zn43 2.328902 1_555
S20 Zn46 2.470635 1_554
S21 S46 2.103516 1_555
S21 Zn21 2.355808 1_555
S21 Zn5 2.488273 1_555
S22 Zn13 2.307592 1_546
S22 Zn26 2.342986 1_545
S22 Zn28 2.345826 1_556
S22 Zn44 2.830739 1_555
S23 Zn4 2.330261 1_555
S23 Zn18 2.360054 1_545
S23 Zn34 2.431252 1_555
S23 Zn33 2.476679 1_555
S24 Zn15 2.225458 1_555
S24 Zn27 2.340753 1_556
S24 Zn2 2.387905 1_556
S24 Zn48 2.959387 1_555
S25 Zn16 2.325634 1_555
S25 Zn8 2.367698 1_555
S25 Zn38 2.369365 1_555
S25 Zn19 2.592681 1_455
S26 Zn36 2.326330 1_555
S26 Zn35 2.357489 1_555
S26 Zn39 2.364083 1_555
S26 Zn10 2.389775 1_555
S27 S42 2.078665 1_555
S27 Zn40 2.449114 1_555
S27 Zn49 2.547514 1_455
S27 Zn25 2.551073 1_555
S28 Zn42 2.257691 1_555
S28 Zn48 2.287481 1_555
S28 Zn2 2.391298 1_556
S29 Zn37 2.288351 1_555
S29 Zn5 2.310556 1_555
S29 Zn10 2.357002 1_555
S30 Zn38 2.273246 1_555
S30 Zn46 2.297462 1_455
S30 Zn20 2.310901 1_556
S31 Zn12 2.301952 1_555
S31 Zn47 2.315781 1_555
S31 Zn26 2.426357 1_555
S31 Zn9 2.519113 1_555
S32 S39 2.110167 1_555
S32 Zn32 2.296536 1_555
S32 Zn39 2.413790 1_555
S33 Zn10 2.319542 1_555
S33 Zn31 2.339632 1_655
S33 Zn49 2.384372 1_555
S34 S42 2.083181 1_555
S34 Zn30 2.410220 1_555
S34 Zn17 2.436833 1_455
S35 Zn45 2.376728 1_555
S35 Zn25 2.378778 1_555
S35 Zn41 2.384096 1_555
S35 Zn31 2.480263 1_555
S36 Zn7 2.276143 1_565
S36 Zn13 2.375541 1_555
S36 Zn11 2.394808 1_555
S36 Zn28 2.568505 1_565
S37 Zn42 2.258494 1_555
S37 Zn3 2.295604 1_555
S37 Zn44 2.299426 1_555
S38 Zn41 2.329161 1_555
S38 Zn48 2.474501 1_555
S39 Zn29 2.421944 1_555
S39 Zn35 2.442703 1_555
S39 Zn11 2.511617 1_555
S40 Zn1 2.287340 1_555
S40 Zn36 2.399844 1_555
S40 Zn2 2.401153 1_555
S40 Zn39 2.410425 1_555
S41 Zn8 2.256987 1_555
S41 Zn6 2.314133 1_545
S41 Zn42 2.332578 1_555
S41 Zn24 2.772791 1_556
S42 Zn32 2.516329 1_555
S43 Zn32 2.333988 1_555
S43 Zn34 2.349408 1_565
S43 Zn30 2.397264 1_555
S43 Zn11 2.538535 1_555
S44 Zn7 2.381325 1_555
S44 Zn36 2.447189 1_555
S45 Zn30 2.233896 1_555
S45 Zn0 2.264707 1_554
S45 Zn24 2.339631 1_565
S46 Zn18 2.405261 1_645
S46 Zn19 2.460019 1_555
S46 Zn16 2.480839 1_655
S47 Zn18 2.307893 1_655
S47 Zn49 2.398214 1_555
S47 Zn17 2.412624 1_555
S48 Zn16 2.377781 1_555
S48 Zn34 2.559215 1_555
S49 Zn14 2.285108 1_555
S49 Zn43 2.336764 1_455
S49 Zn17 2.380819 1_455
