# generated using pymatgen
data_Nb12InSn3
_symmetry_space_group_name_H-M   'P 1'
_cell_length_a   5.32621300
_cell_length_b   5.36289400
_cell_length_c   10.60827200
_cell_angle_alpha   90.00000000
_cell_angle_beta   90.00000000
_cell_angle_gamma   90.00000000
_symmetry_Int_Tables_number   1
_chemical_formula_structural   Nb12InSn3
_chemical_formula_sum   'Nb12 In1 Sn3'
_cell_volume   303.01378756
_cell_formula_units_Z   1
loop_
 _symmetry_equiv_pos_site_id
 _symmetry_equiv_pos_as_xyz
  1  'x, y, z'
loop_
 _atom_site_type_symbol
 _atom_site_label
 _atom_site_symmetry_multiplicity
 _atom_site_fract_x
 _atom_site_fract_y
 _atom_site_fract_z
 _atom_site_occupancy
  Nb  Nb0  1  0.00000000  0.50000000  0.12825400  1
  Nb  Nb1  1  0.00000000  0.50000000  0.62935500  1
  Nb  Nb2  1  0.50000000  0.24383500  0.74891800  1
  Nb  Nb3  1  0.50000000  0.24383500  0.25108200  1
  Nb  Nb4  1  0.75217000  0.00000000  0.00000000  1
  Nb  Nb5  1  0.74813000  0.00000000  0.50000000  1
  Nb  Nb6  1  0.00000000  0.50000000  0.87174600  1
  Nb  Nb7  1  0.00000000  0.50000000  0.37064500  1
  Nb  Nb8  1  0.50000000  0.75616500  0.74891800  1
  Nb  Nb9  1  0.50000000  0.75616500  0.25108200  1
  Nb  Nb10  1  0.24783000  0.00000000  0.00000000  1
  Nb  Nb11  1  0.25187000  0.00000000  0.50000000  1
  In  In0  1  0.50000000  0.50000000  0.00000000  1
  Sn  Sn0  1  0.50000000  0.50000000  0.50000000  1
  Sn  Sn1  1  0.00000000  0.00000000  0.74984600  1
  Sn  Sn2  1  0.00000000  0.00000000  0.25015400  1
loop_
_geom_bond_atom_site_label_1
_geom_bond_atom_site_label_2
_geom_bond_distance
_geom_bond_site_symmetry_2
Nb0 Nb7 2.571350 1_555
Nb0 Nb6 2.721107 1_554
Nb0 Sn2 2.976977 1_555
Nb0 Sn2 2.976977 1_565
Nb1 Nb6 2.571350 1_555
Nb1 Nb7 2.744466 1_555
Nb1 Sn1 2.970515 1_555
Nb1 Sn1 2.970515 1_565
Nb1 Sn0 2.995857 1_555
Nb1 Sn0 2.995857 1_455
Nb2 Nb8 2.615323 1_545
Nb2 Nb8 2.747571 1_555
Nb2 Sn1 2.966852 1_655
Nb2 Sn1 2.966852 1_555
Nb2 Sn0 2.976576 1_555
Nb3 Nb9 2.615323 1_545
Nb3 Nb9 2.747571 1_555
Nb3 Sn2 2.966852 1_555
Nb3 Sn2 2.966852 1_655
Nb3 Sn0 2.976576 1_555
Nb4 Sn2 2.963869 1_655
Nb4 Sn1 2.963869 1_654
Nb5 Sn2 2.970599 1_655
Nb5 Sn1 2.970599 1_655
Nb5 Sn0 2.989443 1_545
Nb5 Sn0 2.989443 1_555
Nb6 Sn1 2.976977 1_555
Nb6 Sn1 2.976977 1_565
Nb7 Sn2 2.970515 1_555
Nb7 Sn2 2.970515 1_565
Nb7 Sn0 2.995857 1_555
Nb7 Sn0 2.995857 1_455
Nb8 Sn1 2.966852 1_665
Nb8 Sn1 2.966852 1_565
Nb8 Sn0 2.976576 1_555
Nb9 Sn2 2.966852 1_565
Nb9 Sn2 2.966852 1_665
Nb9 Sn0 2.976576 1_555
Nb10 Nb4 2.639991 1_455
Nb10 Nb4 2.686222 1_555
Nb10 Sn2 2.963869 1_555
Nb10 Sn1 2.963869 1_554
Nb11 Nb5 2.643186 1_555
Nb11 Nb5 2.683027 1_455
Nb11 Sn1 2.970599 1_555
Nb11 Sn2 2.970599 1_555
Nb11 Sn0 2.989443 1_545
Nb11 Sn0 2.989443 1_555
In0 Nb0 2.990525 1_555
In0 Nb0 2.990525 1_655
In0 Nb6 2.990525 1_654
In0 Nb6 2.990525 1_554
In0 Nb9 2.996959 1_555
In0 Nb3 2.996959 1_555
In0 Nb8 2.996959 1_554
In0 Nb2 2.996959 1_554
In0 Nb10 2.999017 1_555
In0 Nb4 2.999017 1_555
In0 Nb4 2.999017 1_565
In0 Nb10 2.999017 1_565
