# generated using pymatgen
data_FePNO4F
_symmetry_space_group_name_H-M   'P 1'
_cell_length_a   6.37886100
_cell_length_b   10.88951100
_cell_length_c   12.97498600
_cell_angle_alpha   90.00000000
_cell_angle_beta   90.00000000
_cell_angle_gamma   90.00000000
_symmetry_Int_Tables_number   1
_chemical_formula_structural   FePNO4F
_chemical_formula_sum   'Fe8 P8 N8 O32 F8'
_cell_volume   901.27726195
_cell_formula_units_Z   8
loop_
 _symmetry_equiv_pos_site_id
 _symmetry_equiv_pos_as_xyz
  1  'x, y, z'
loop_
 _atom_site_type_symbol
 _atom_site_label
 _atom_site_symmetry_multiplicity
 _atom_site_fract_x
 _atom_site_fract_y
 _atom_site_fract_z
 _atom_site_occupancy
  Fe  Fe0  1  0.49870600  0.02641500  0.11381500  1
  Fe  Fe1  1  0.50129400  0.52641500  0.88618500  1
  Fe  Fe2  1  0.00129400  0.02641500  0.61381500  1
  Fe  Fe3  1  0.99870600  0.52641500  0.38618500  1
  Fe  Fe4  1  0.24942000  0.27563300  0.25160600  1
  Fe  Fe5  1  0.75058000  0.77563300  0.74839400  1
  Fe  Fe6  1  0.25058000  0.27563300  0.75160600  1
  Fe  Fe7  1  0.74942000  0.77563300  0.24839400  1
  P  P0  1  0.00205500  0.02751500  0.18449000  1
  P  P1  1  0.99794500  0.52751500  0.81551000  1
  P  P2  1  0.49794500  0.02751500  0.68449000  1
  P  P3  1  0.50205500  0.52751500  0.31551000  1
  P  P4  1  0.33109900  0.27652300  0.99954200  1
  P  P5  1  0.66890100  0.77652300  0.00045800  1
  P  P6  1  0.16890100  0.27652300  0.49954200  1
  P  P7  1  0.83109900  0.77652300  0.50045800  1
  N  N0  1  0.77653200  0.33169700  0.11847300  1
  N  N1  1  0.22346800  0.83169700  0.88152700  1
  N  N2  1  0.72346800  0.33169700  0.61847300  1
  N  N3  1  0.27653200  0.83169700  0.38152700  1
  N  N4  1  0.19806500  0.58709200  0.09885100  1
  N  N5  1  0.80193500  0.08709200  0.90114900  1
  N  N6  1  0.30193500  0.58709200  0.59885100  1
  N  N7  1  0.69806500  0.08709200  0.40114900  1
  O  O0  1  0.47444100  0.16251000  0.01382500  1
  O  O1  1  0.52555900  0.66251000  0.98617500  1
  O  O2  1  0.02555900  0.16251000  0.51382500  1
  O  O3  1  0.97444100  0.66251000  0.48617500  1
  O  O4  1  0.30949800  0.55006300  0.38562300  1
  O  O5  1  0.69050200  0.05006300  0.61437700  1
  O  O6  1  0.19050200  0.55006300  0.88562300  1
  O  O7  1  0.80949800  0.05006300  0.11437700  1
  O  O8  1  0.19129400  0.28816200  0.09703100  1
  O  O9  1  0.80870600  0.78816200  0.90296900  1
  O  O10  1  0.30870600  0.28816200  0.59703100  1
  O  O11  1  0.69129400  0.78816200  0.40296900  1
  O  O12  1  0.02719000  0.39201900  0.48951700  1
  O  O13  1  0.97281000  0.89201900  0.51048300  1
  O  O14  1  0.47281000  0.39201900  0.98951700  1
  O  O15  1  0.52719000  0.89201900  0.01048300  1
  O  O16  1  0.30509800  0.26115700  0.40261100  1
  O  O17  1  0.69490200  0.76115700  0.59738900  1
  O  O18  1  0.19490200  0.26115700  0.90261100  1
  O  O19  1  0.80509800  0.76115700  0.09738900  1
  O  O20  1  0.19332800  0.99989000  0.11580500  1
  O  O21  1  0.80667200  0.49989000  0.88419500  1
  O  O22  1  0.30667200  0.99989000  0.61580500  1
  O  O23  1  0.69332800  0.49989000  0.38419500  1
  O  O24  1  0.04058100  0.14074600  0.25391600  1
  O  O25  1  0.95941900  0.64074600  0.74608400  1
  O  O26  1  0.45941900  0.14074600  0.75391600  1
  O  O27  1  0.54058100  0.64074600  0.24608400  1
  O  O28  1  0.45584300  0.41507600  0.24483400  1
  O  O29  1  0.54415700  0.91507600  0.75516600  1
  O  O30  1  0.04415700  0.41507600  0.74483400  1
  O  O31  1  0.95584300  0.91507600  0.25516600  1
  F  F0  1  0.03188100  0.40120500  0.27579800  1
  F  F1  1  0.96811900  0.90120500  0.72420200  1
  F  F2  1  0.46811900  0.40120500  0.77579800  1
  F  F3  1  0.53188100  0.90120500  0.22420200  1
  F  F4  1  0.47090900  0.15399600  0.22472100  1
  F  F5  1  0.52909100  0.65399600  0.77527900  1
  F  F6  1  0.02909100  0.15399600  0.72472100  1
  F  F7  1  0.97090900  0.65399600  0.27527900  1
loop_
_geom_bond_atom_site_label_1
_geom_bond_atom_site_label_2
_geom_bond_distance
_geom_bond_site_symmetry_2
Fe0 O20 1.969432 1_545
Fe0 O0 1.975720 1_555
Fe0 O15 1.993094 1_545
Fe0 O7 1.999167 1_555
Fe1 O21 1.969432 1_555
Fe1 O1 1.975720 1_555
Fe1 O14 1.993094 1_555
Fe1 O6 1.999167 1_555
Fe2 O22 1.969432 1_545
Fe2 O2 1.975720 1_555
Fe2 O13 1.993094 1_445
Fe2 O5 1.999167 1_455
Fe3 O23 1.969432 1_555
Fe3 O3 1.975720 1_555
Fe3 O12 1.993094 1_655
Fe3 O4 1.999167 1_655
Fe4 O24 1.983196 1_555
Fe4 O16 1.997448 1_555
Fe4 O28 2.011784 1_555
Fe4 O8 2.044152 1_555
Fe5 O25 1.983196 1_555
Fe5 O17 1.997448 1_555
Fe5 O29 2.011784 1_555
Fe5 O9 2.044152 1_555
Fe6 O26 1.983196 1_555
Fe6 O18 1.997448 1_555
Fe6 O30 2.011784 1_555
Fe6 O10 2.044152 1_555
Fe7 O27 1.983196 1_555
Fe7 O19 1.997448 1_555
Fe7 O31 2.011784 1_555
Fe7 O11 2.044152 1_555
O0 P4 1.553007 1_554
O1 P5 1.553007 1_556
O2 P6 1.553007 1_555
O3 P7 1.553007 1_555
O4 P3 1.548088 1_555
O5 P2 1.548088 1_555
O6 P1 1.548088 1_455
O7 P0 1.548088 1_655
O8 P4 1.552863 1_554
O9 P5 1.552863 1_556
O10 P6 1.552863 1_555
O11 P7 1.552863 1_555
O12 P6 1.554301 1_555
O13 P7 1.554301 1_555
O14 P4 1.554301 1_555
O15 P5 1.554301 1_555
O16 P6 1.537705 1_555
O17 P7 1.537705 1_555
O18 P4 1.537705 1_555
O19 P5 1.537705 1_555
O20 P0 1.540572 1_565
O21 P1 1.540572 1_555
O22 P2 1.540572 1_565
O23 P3 1.540572 1_555
O24 P0 1.546674 1_555
O25 P1 1.546674 1_555
O26 P2 1.546674 1_555
O27 P3 1.546674 1_555
O28 P3 1.557880 1_555
O29 P2 1.557880 1_565
O30 P1 1.557880 1_455
O31 P0 1.557880 1_665
F0 Fe4 1.973305 1_555
F0 Fe3 1.988780 1_455
F1 Fe5 1.973305 1_555
F1 Fe2 1.988780 1_665
F2 Fe6 1.973305 1_555
F2 Fe1 1.988780 1_555
F3 Fe7 1.973305 1_555
F3 Fe0 1.988780 1_565
F4 Fe4 1.967816 1_555
F4 Fe0 2.008062 1_555
F5 Fe5 1.967816 1_555
F5 Fe1 2.008062 1_555
F6 Fe6 1.967816 1_555
F6 Fe2 2.008062 1_555
F7 Fe7 1.967816 1_555
F7 Fe3 2.008062 1_555
