# generated using pymatgen
data_Rb2ZnBr4
_symmetry_space_group_name_H-M   'P 1'
_cell_length_a   29.58872400
_cell_length_b   13.73601700
_cell_length_c   7.92590700
_cell_angle_alpha   90.00000000
_cell_angle_beta   90.00000000
_cell_angle_gamma   90.00000000
_symmetry_Int_Tables_number   1
_chemical_formula_structural   Rb2ZnBr4
_chemical_formula_sum   'Rb24 Zn12 Br48'
_cell_volume   3221.33601890
_cell_formula_units_Z   12
loop_
 _symmetry_equiv_pos_site_id
 _symmetry_equiv_pos_as_xyz
  1  'x, y, z'
loop_
 _atom_site_type_symbol
 _atom_site_label
 _atom_site_symmetry_multiplicity
 _atom_site_fract_x
 _atom_site_fract_y
 _atom_site_fract_z
 _atom_site_occupancy
  Rb  Rb0  1  0.67099800  0.82390900  0.75004500  1
  Rb  Rb1  1  0.32900200  0.17609100  0.25004500  1
  Rb  Rb2  1  0.82900200  0.32390900  0.25004500  1
  Rb  Rb3  1  0.17099800  0.67609100  0.75004500  1
  Rb  Rb4  1  0.79251100  0.09856800  0.75889300  1
  Rb  Rb5  1  0.20748900  0.90143200  0.25889300  1
  Rb  Rb6  1  0.70748900  0.59856800  0.25889300  1
  Rb  Rb7  1  0.29251100  0.40143200  0.75889300  1
  Rb  Rb8  1  0.83678000  0.67701200  0.76094700  1
  Rb  Rb9  1  0.16322000  0.32298800  0.26094700  1
  Rb  Rb10  1  0.66322000  0.17701200  0.26094700  1
  Rb  Rb11  1  0.33678000  0.82298800  0.76094700  1
  Rb  Rb12  1  0.95879300  0.40886900  0.72041900  1
  Rb  Rb13  1  0.04120700  0.59113100  0.22041900  1
  Rb  Rb14  1  0.54120700  0.90886900  0.22041900  1
  Rb  Rb15  1  0.45879300  0.09113100  0.72041900  1
  Rb  Rb16  1  0.49574800  0.32352700  0.22014000  1
  Rb  Rb17  1  0.50425200  0.67647300  0.72014000  1
  Rb  Rb18  1  0.00425200  0.82352700  0.72014000  1
  Rb  Rb19  1  0.99574800  0.17647300  0.22014000  1
  Rb  Rb20  1  0.87572900  0.90031800  0.23744900  1
  Rb  Rb21  1  0.12427100  0.09968200  0.73744900  1
  Rb  Rb22  1  0.62427100  0.40031800  0.73744900  1
  Rb  Rb23  1  0.37572900  0.59968200  0.23744900  1
  Zn  Zn0  1  0.59258400  0.07983000  0.73143100  1
  Zn  Zn1  1  0.40741600  0.92017000  0.23143100  1
  Zn  Zn2  1  0.90741600  0.57983000  0.23143100  1
  Zn  Zn3  1  0.09258400  0.42017000  0.73143100  1
  Zn  Zn4  1  0.74201800  0.92142700  0.24785300  1
  Zn  Zn5  1  0.25798200  0.07857300  0.74785300  1
  Zn  Zn6  1  0.75798200  0.42142700  0.74785300  1
  Zn  Zn7  1  0.24201800  0.57857300  0.24785300  1
  Zn  Zn8  1  0.57425900  0.57883300  0.25291800  1
  Zn  Zn9  1  0.42574100  0.42116700  0.75291800  1
  Zn  Zn10  1  0.92574100  0.07883300  0.75291800  1
  Zn  Zn11  1  0.07425900  0.92116700  0.25291800  1
  Br  Br0  1  0.67379900  0.08092400  0.70974100  1
  Br  Br1  1  0.32620100  0.91907600  0.20974100  1
  Br  Br2  1  0.82620100  0.58092400  0.20974100  1
  Br  Br3  1  0.17379900  0.41907600  0.70974100  1
  Br  Br4  1  0.55960300  0.91784000  0.69529600  1
  Br  Br5  1  0.44039700  0.08216000  0.19529600  1
  Br  Br6  1  0.94039700  0.41784000  0.19529600  1
  Br  Br7  1  0.05960300  0.58216000  0.69529600  1
  Br  Br8  1  0.56170000  0.18348900  0.50870000  1
  Br  Br9  1  0.43830000  0.81651100  0.00870000  1
  Br  Br10  1  0.93830000  0.68348900  0.00870000  1
  Br  Br11  1  0.06170000  0.31651100  0.50870000  1
  Br  Br12  1  0.56525800  0.14172200  0.00028500  1
  Br  Br13  1  0.43474200  0.85827800  0.50028500  1
  Br  Br14  1  0.93474200  0.64172200  0.50028500  1
  Br  Br15  1  0.06525800  0.35827800  0.00028500  1
  Br  Br16  1  0.66069200  0.92081300  0.22557900  1
  Br  Br17  1  0.33930800  0.07918700  0.72557900  1
  Br  Br18  1  0.83930800  0.42081300  0.72557900  1
  Br  Br19  1  0.16069200  0.57918700  0.22557900  1
  Br  Br20  1  0.77502300  0.08107800  0.30671500  1
  Br  Br21  1  0.22497700  0.91892200  0.80671500  1
  Br  Br22  1  0.72497700  0.58107800  0.80671500  1
  Br  Br23  1  0.27502300  0.41892200  0.30671500  1
  Br  Br24  1  0.77507200  0.86887200  0.97939100  1
  Br  Br25  1  0.22492800  0.13112800  0.47939100  1
  Br  Br26  1  0.72492800  0.36887200  0.47939100  1
  Br  Br27  1  0.27507200  0.63112800  0.97939100  1
  Br  Br28  1  0.76546100  0.80871400  0.46842400  1
  Br  Br29  1  0.23453900  0.19128600  0.96842400  1
  Br  Br30  1  0.73453900  0.30871400  0.96842400  1
  Br  Br31  1  0.26546100  0.69128600  0.46842400  1
  Br  Br32  1  0.49344000  0.57535100  0.29712800  1
  Br  Br33  1  0.50656000  0.42464900  0.79712800  1
  Br  Br34  1  0.00656000  0.07535100  0.79712800  1
  Br  Br35  1  0.99344000  0.92464900  0.29712800  1
  Br  Br36  1  0.60793500  0.41952100  0.19568300  1
  Br  Br37  1  0.39206500  0.58047900  0.69568300  1
  Br  Br38  1  0.89206500  0.91952100  0.69568300  1
  Br  Br39  1  0.10793500  0.08047900  0.19568300  1
  Br  Br40  1  0.59436000  0.68846700  0.02483300  1
  Br  Br41  1  0.40564000  0.31153300  0.52483300  1
  Br  Br42  1  0.90564000  0.18846700  0.52483300  1
  Br  Br43  1  0.09436000  0.81153300  0.02483300  1
  Br  Br44  1  0.61020600  0.63469900  0.51522800  1
  Br  Br45  1  0.38979400  0.36530100  0.01522800  1
  Br  Br46  1  0.88979400  0.13469900  0.01522800  1
  Br  Br47  1  0.11020600  0.86530100  0.51522800  1
loop_
_geom_bond_atom_site_label_1
_geom_bond_atom_site_label_2
_geom_bond_distance
_geom_bond_site_symmetry_2
Br0 Zn0 2.409237 1_555
Br0 Rb4 3.542375 1_555
Br0 Rb0 3.545754 1_545
Br0 Rb10 3.806965 1_555
Br1 Zn1 2.409237 1_555
Br1 Rb5 3.542375 1_555
Br1 Rb1 3.545754 1_565
Br1 Rb11 3.806965 1_554
Br2 Zn2 2.409237 1_555
Br2 Rb6 3.542375 1_555
Br2 Rb2 3.545754 1_555
Br2 Rb8 3.806965 1_554
Br3 Zn3 2.409237 1_555
Br3 Rb7 3.542375 1_555
Br3 Rb3 3.545754 1_555
Br3 Rb9 3.806965 1_555
Br4 Zn0 2.446507 1_565
Br4 Rb0 3.566072 1_555
Br4 Rb17 3.703116 1_555
Br4 Rb14 3.804982 1_555
Br4 Rb15 3.821380 1_565
Br5 Zn1 2.446507 1_545
Br5 Rb1 3.566072 1_555
Br5 Rb16 3.703116 1_555
Br5 Rb15 3.804982 1_554
Br5 Rb14 3.821380 1_545
Br6 Zn2 2.446507 1_555
Br6 Rb2 3.566072 1_555
Br6 Rb19 3.703116 1_555
Br6 Rb12 3.804982 1_554
Br6 Rb13 3.821380 1_655
Br7 Zn3 2.446507 1_555
Br7 Rb3 3.566072 1_555
Br7 Rb18 3.703116 1_555
Br7 Rb13 3.804982 1_555
Br7 Rb12 3.821380 1_455
Br8 Zn0 2.445177 1_555
Br8 Rb16 3.569177 1_555
Br8 Rb10 3.589847 1_555
Br8 Rb15 3.700900 1_555
Br8 Rb22 3.947843 1_555
Br9 Zn1 2.445177 1_555
Br9 Rb17 3.569177 1_554
Br9 Rb11 3.589847 1_554
Br9 Rb14 3.700900 1_555
Br9 Rb23 3.947843 1_555
Br10 Zn2 2.445177 1_555
Br10 Rb18 3.569177 1_654
Br10 Rb8 3.589847 1_554
Br10 Rb13 3.700900 1_655
Br10 Rb20 3.947843 1_555
Br11 Zn3 2.445177 1_555
Br11 Rb19 3.569177 1_455
Br11 Rb9 3.589847 1_555
Br11 Rb12 3.700900 1_455
Br11 Rb21 3.947843 1_555
Br12 Zn0 2.432546 1_554
Br12 Rb10 3.592349 1_555
Br12 Rb16 3.674634 1_555
Br12 Rb14 3.712257 1_545
Br12 Rb15 3.914948 1_554
Br13 Zn1 2.432546 1_555
Br13 Rb11 3.592349 1_555
Br13 Rb17 3.674634 1_555
Br13 Rb15 3.712257 1_565
Br13 Rb14 3.914948 1_555
Br14 Zn2 2.432546 1_555
Br14 Rb8 3.592349 1_555
Br14 Rb18 3.674634 1_655
Br14 Rb12 3.712257 1_555
Br14 Rb13 3.914948 1_655
Br15 Zn3 2.432546 1_554
Br15 Rb9 3.592349 1_555
Br15 Rb19 3.674634 1_455
Br15 Rb13 3.712257 1_555
Br15 Rb12 3.914948 1_454
Br16 Zn4 2.412815 1_555
Br16 Rb10 3.531093 1_565
Br16 Rb14 3.539450 1_555
Br16 Rb0 4.008790 1_554
Br17 Zn5 2.412815 1_555
Br17 Rb11 3.531093 1_545
Br17 Rb15 3.539450 1_555
Br17 Rb1 4.008790 1_555
Br18 Zn6 2.412815 1_555
Br18 Rb8 3.531093 1_555
Br18 Rb12 3.539450 1_555
Br18 Rb2 4.008790 1_555
Br19 Zn7 2.412815 1_555
Br19 Rb9 3.531093 1_555
Br19 Rb13 3.539450 1_555
Br19 Rb3 4.008790 1_554
Br20 Zn4 2.445499 1_545
Br20 Rb10 3.579335 1_555
Br20 Rb4 3.629044 1_555
Br20 Rb2 3.725381 1_555
Br20 Rb20 3.917305 1_545
Br21 Zn5 2.445499 1_565
Br21 Rb11 3.579335 1_555
Br21 Rb5 3.629044 1_556
Br21 Rb3 3.725381 1_555
Br21 Rb21 3.917305 1_565
Br22 Zn6 2.445499 1_555
Br22 Rb8 3.579335 1_555
Br22 Rb6 3.629044 1_556
Br22 Rb0 3.725381 1_555
Br22 Rb22 3.917305 1_555
Br23 Zn7 2.445499 1_555
Br23 Rb9 3.579335 1_555
Br23 Rb7 3.629044 1_555
Br23 Rb1 3.725381 1_555
Br23 Rb23 3.917305 1_555
Br24 Zn4 2.450555 1_556
Br24 Rb0 3.628851 1_555
Br24 Rb20 3.638729 1_556
Br24 Rb4 3.643519 1_565
Br24 Rb8 3.643719 1_555
Br25 Zn5 2.450555 1_555
Br25 Rb1 3.628851 1_555
Br25 Rb21 3.638729 1_555
Br25 Rb5 3.643519 1_545
Br25 Rb9 3.643719 1_555
Br26 Zn6 2.450555 1_555
Br26 Rb2 3.628851 1_555
Br26 Rb22 3.638729 1_555
Br26 Rb6 3.643519 1_555
Br26 Rb10 3.643719 1_555
Br27 Zn7 2.450555 1_556
Br27 Rb3 3.628851 1_555
Br27 Rb23 3.638729 1_556
Br27 Rb7 3.643519 1_555
Br27 Rb11 3.643719 1_555
Br28 Zn4 2.436072 1_555
Br28 Rb0 3.583028 1_555
Br28 Rb8 3.619571 1_555
Br28 Rb6 3.746011 1_555
Br28 Rb20 3.947127 1_555
Br29 Zn5 2.436072 1_555
Br29 Rb1 3.583028 1_556
Br29 Rb9 3.619571 1_556
Br29 Rb7 3.746011 1_555
Br29 Rb21 3.947127 1_555
Br30 Zn6 2.436072 1_555
Br30 Rb2 3.583028 1_556
Br30 Rb10 3.619571 1_556
Br30 Rb4 3.746011 1_555
Br30 Rb22 3.947127 1_555
Br31 Zn7 2.436072 1_555
Br31 Rb3 3.583028 1_555
Br31 Rb11 3.619571 1_555
Br31 Rb5 3.746011 1_555
Br31 Rb23 3.947127 1_555
Br32 Zn8 2.417341 1_555
Br32 Rb16 3.513132 1_555
Br32 Rb23 3.530744 1_555
Br32 Rb17 3.643166 1_555
Br33 Zn9 2.417341 1_555
Br33 Rb17 3.513132 1_555
Br33 Rb22 3.530744 1_555
Br33 Rb16 3.643166 1_556
Br34 Zn10 2.417341 1_455
Br34 Rb18 3.513132 1_545
Br34 Rb21 3.530744 1_555
Br34 Rb19 3.643166 1_456
Br35 Zn11 2.417341 1_655
Br35 Rb19 3.513132 1_565
Br35 Rb20 3.530744 1_555
Br35 Rb18 3.643166 1_655
Br36 Zn8 2.446911 1_555
Br36 Rb16 3.577024 1_555
Br36 Rb22 3.673426 1_554
Br36 Rb10 3.746964 1_555
Br36 Rb6 3.869963 1_555
Br37 Zn9 2.446911 1_555
Br37 Rb17 3.577024 1_555
Br37 Rb23 3.673426 1_555
Br37 Rb11 3.746964 1_555
Br37 Rb7 3.869963 1_555
Br38 Zn10 2.446911 1_565
Br38 Rb18 3.577024 1_655
Br38 Rb20 3.673426 1_555
Br38 Rb8 3.746964 1_555
Br38 Rb4 3.869963 1_565
Br39 Zn11 2.446911 1_545
Br39 Rb19 3.577024 1_455
Br39 Rb21 3.673426 1_554
Br39 Rb9 3.746964 1_555
Br39 Rb5 3.869963 1_545
Br40 Zn8 2.426861 1_555
Br40 Rb17 3.601074 1_554
Br40 Rb0 3.653321 1_554
Br40 Rb14 3.747268 1_555
Br40 Rb6 4.021331 1_555
Br41 Zn9 2.426861 1_555
Br41 Rb16 3.601074 1_555
Br41 Rb1 3.653321 1_555
Br41 Rb15 3.747268 1_555
Br41 Rb7 4.021331 1_555
Br42 Zn10 2.426861 1_555
Br42 Rb19 3.601074 1_555
Br42 Rb2 3.653321 1_555
Br42 Rb12 3.747268 1_555
Br42 Rb4 4.021331 1_555
Br43 Zn11 2.426861 1_555
Br43 Rb18 3.601074 1_554
Br43 Rb3 3.653321 1_554
Br43 Rb13 3.747268 1_555
Br43 Rb5 4.021331 1_555
Br44 Zn8 2.458169 1_555
Br44 Rb6 3.558049 1_555
Br44 Rb17 3.577080 1_555
Br44 Rb0 3.667986 1_555
Br44 Rb22 3.693280 1_555
Br45 Zn9 2.458169 1_554
Br45 Rb7 3.558049 1_554
Br45 Rb16 3.577080 1_555
Br45 Rb1 3.667986 1_555
Br45 Rb23 3.693280 1_555
Br46 Zn10 2.458169 1_554
Br46 Rb4 3.558049 1_554
Br46 Rb19 3.577080 1_555
Br46 Rb2 3.667986 1_555
Br46 Rb20 3.693280 1_545
Br47 Zn11 2.458169 1_555
Br47 Rb5 3.558049 1_555
Br47 Rb18 3.577080 1_555
Br47 Rb3 3.667986 1_555
Br47 Rb21 3.693280 1_565
