# generated using pymatgen
data_YHfAu2
_symmetry_space_group_name_H-M   'P 1'
_cell_length_a   11.51493256
_cell_length_b   11.51493256
_cell_length_c   11.51493256
_cell_angle_alpha   123.81105593
_cell_angle_beta   117.94513217
_cell_angle_gamma   88.56276974
_symmetry_Int_Tables_number   1
_chemical_formula_structural   YHfAu2
_chemical_formula_sum   'Y1 Hf1 Au2'
_cell_volume   1061.32171807
_cell_formula_units_Z   1
loop_
 _symmetry_equiv_pos_site_id
 _symmetry_equiv_pos_as_xyz
  1  'x, y, z'
loop_
 _atom_site_type_symbol
 _atom_site_label
 _atom_site_symmetry_multiplicity
 _atom_site_fract_x
 _atom_site_fract_y
 _atom_site_fract_z
 _atom_site_occupancy
  Y  Y0  1  0.00000000  0.00000000  0.00000000  1
  Hf  Hf0  1  0.00000000  0.50000000  0.50000000  1
  Au  Au0  1  0.00000000  0.25399300  0.25399300  1
  Au  Au1  1  0.00000000  0.74600700  0.74600700  1
loop_
_geom_bond_atom_site_label_1
_geom_bond_atom_site_label_2
_geom_bond_distance
_geom_bond_site_symmetry_2
Au0 Hf0 2.668039 1_555
Au0 Y0 2.754651 1_555
Au1 Hf0 2.668039 1_555
Au1 Y0 2.754651 1_566
