# generated using pymatgen
data_Nd2Au
_symmetry_space_group_name_H-M   'P 1'
_cell_length_a   5.09689504
_cell_length_b   7.31253777
_cell_length_c   9.27315589
_cell_angle_alpha   90.00000000
_cell_angle_beta   90.00000000
_cell_angle_gamma   90.00000000
_symmetry_Int_Tables_number   1
_chemical_formula_structural   Nd2Au
_chemical_formula_sum   'Nd8 Au4'
_cell_volume   345.62199546
_cell_formula_units_Z   4
loop_
 _symmetry_equiv_pos_site_id
 _symmetry_equiv_pos_as_xyz
  1  'x, y, z'
loop_
 _atom_site_type_symbol
 _atom_site_label
 _atom_site_symmetry_multiplicity
 _atom_site_fract_x
 _atom_site_fract_y
 _atom_site_fract_z
 _atom_site_occupancy
  Nd  Nd0  1  0.75000000  0.64965804  0.58906838  1
  Nd  Nd1  1  0.75000000  0.14974945  0.91094192  1
  Nd  Nd2  1  0.25000000  0.35025055  0.41094192  1
  Nd  Nd3  1  0.25000000  0.85034196  0.08906838  1
  Nd  Nd4  1  0.75000000  0.00400642  0.32667797  1
  Nd  Nd5  1  0.75000000  0.50408846  0.17332108  1
  Nd  Nd6  1  0.25000000  0.99591154  0.67332108  1
  Nd  Nd7  1  0.25000000  0.49599358  0.82667797  1
  Au  Au0  1  0.75000000  0.24201477  0.59302258  1
  Au  Au1  1  0.75000000  0.74205240  0.90696707  1
  Au  Au2  1  0.25000000  0.75794760  0.40696707  1
  Au  Au3  1  0.25000000  0.25798523  0.09302258  1
loop_
_geom_bond_atom_site_label_1
_geom_bond_atom_site_label_2
_geom_bond_distance
_geom_bond_site_symmetry_2
Au0 Nd0 2.981132 1_555
Au0 Nd4 3.021479 1_555
Au0 Nd1 3.024334 1_555
Au0 Nd2 3.157836 1_655
Au0 Nd2 3.157836 1_555
Au0 Nd6 3.207452 1_545
Au0 Nd6 3.207452 1_645
Au1 Nd1 2.981528 1_565
Au1 Nd5 3.021363 1_556
Au1 Nd0 3.024358 1_555
Au1 Nd3 3.158037 1_556
Au1 Nd3 3.158037 1_656
Au1 Nd7 3.207249 1_655
Au1 Nd7 3.207249 1_555
Au2 Nd2 2.981528 1_555
Au2 Nd6 3.021363 1_555
Au2 Nd3 3.024358 1_555
Au2 Nd0 3.158037 1_455
Au2 Nd0 3.158037 1_555
Au2 Nd4 3.207249 1_565
Au2 Nd4 3.207249 1_465
Au3 Nd3 2.981132 1_545
Au3 Nd7 3.021479 1_554
Au3 Nd2 3.024334 1_555
Au3 Nd1 3.157836 1_554
Au3 Nd1 3.157836 1_454
Au3 Nd5 3.207452 1_455
Au3 Nd5 3.207452 1_555
