# generated using pymatgen
data_VNi3
_symmetry_space_group_name_H-M   'P 1'
_cell_length_a   3.48958609
_cell_length_b   3.48958493
_cell_length_c   4.33507915
_cell_angle_alpha   113.73356404
_cell_angle_beta   113.73344804
_cell_angle_gamma   89.99998583
_symmetry_Int_Tables_number   1
_chemical_formula_structural   VNi3
_chemical_formula_sum   'V1 Ni3'
_cell_volume   43.40330284
_cell_formula_units_Z   1
loop_
 _symmetry_equiv_pos_site_id
 _symmetry_equiv_pos_as_xyz
  1  'x, y, z'
loop_
 _atom_site_type_symbol
 _atom_site_label
 _atom_site_symmetry_multiplicity
 _atom_site_fract_x
 _atom_site_fract_y
 _atom_site_fract_z
 _atom_site_occupancy
  V  V0  1  0.00000000  -0.00000000  0.00000000  1
  Ni  Ni0  1  0.25000000  0.75000100  0.50000000  1
  Ni  Ni1  1  0.75000000  0.24999900  0.50000000  1
  Ni  Ni2  1  0.50000000  0.50000000  0.00000000  1
loop_
_geom_bond_atom_site_label_1
_geom_bond_atom_site_label_2
_geom_bond_distance
_geom_bond_site_symmetry_2
Ni0 Ni1 2.467504 1_465
Ni0 Ni1 2.467505 1_565
Ni0 Ni1 2.467514 1_555
Ni0 Ni1 2.467515 1_455
Ni0 Ni2 2.494062 1_566
Ni0 V0 2.494067 1_555
Ni0 Ni2 2.494067 1_555
Ni0 V0 2.494067 1_566
Ni0 V0 2.494067 1_565
Ni0 Ni2 2.494068 1_455
Ni0 V0 2.494068 1_666
Ni0 Ni2 2.494072 1_556
Ni1 Ni2 2.494062 1_545
Ni1 V0 2.494067 1_666
Ni1 Ni2 2.494067 1_556
Ni1 V0 2.494067 1_655
Ni1 V0 2.494067 1_656
Ni1 Ni2 2.494068 1_656
Ni1 V0 2.494068 1_555
Ni1 Ni2 2.494072 1_555
Ni2 V0 2.467509 1_655
Ni2 V0 2.467509 1_565
Ni2 V0 2.467510 1_665
Ni2 V0 2.467510 1_555
