# generated using pymatgen
data_LiVO3
_symmetry_space_group_name_H-M   'P 1'
_cell_length_a   5.68874567
_cell_length_b   7.46422039
_cell_length_c   7.46422104
_cell_angle_alpha   82.97939078
_cell_angle_beta   67.98238899
_cell_angle_gamma   67.98237587
_symmetry_Int_Tables_number   1
_chemical_formula_structural   LiVO3
_chemical_formula_sum   'Li4 V4 O12'
_cell_volume   272.33946013
_cell_formula_units_Z   4
loop_
 _symmetry_equiv_pos_site_id
 _symmetry_equiv_pos_as_xyz
  1  'x, y, z'
loop_
 _atom_site_type_symbol
 _atom_site_label
 _atom_site_symmetry_multiplicity
 _atom_site_fract_x
 _atom_site_fract_y
 _atom_site_fract_z
 _atom_site_occupancy
  Li  Li0  1  0.75891852  0.30868430  0.67369894  1
  Li  Li1  1  0.25891852  0.67369894  0.30868430  1
  Li  Li2  1  0.75968700  0.67546389  0.30512208  1
  Li  Li3  1  0.25968700  0.30512208  0.67546389  1
  V  V0  1  0.71725102  0.87779158  0.68986902  1
  V  V1  1  0.29546272  0.10373598  0.29130492  1
  V  V2  1  0.79546272  0.29130492  0.10373598  1
  V  V3  1  0.21725102  0.68986902  0.87779158  1
  O  O0  1  0.88845521  0.35534047  0.87292050  1
  O  O1  1  0.63248094  0.10869173  0.62559074  1
  O  O2  1  0.13248094  0.62559074  0.10869173  1
  O  O3  1  0.13063751  0.25182988  0.48400527  1
  O  O4  1  0.08768966  0.13918753  0.15363138  1
  O  O5  1  0.63063751  0.48400527  0.25182988  1
  O  O6  1  0.38845521  0.87292050  0.35534047  1
  O  O7  1  0.38616729  0.49728149  0.72948310  1
  O  O8  1  0.41824812  0.83378125  0.83658894  1
  O  O9  1  0.88616729  0.72948310  0.49728149  1
  O  O10  1  0.58768966  0.15363138  0.13918753  1
  O  O11  1  0.91824812  0.83658894  0.83378125  1
loop_
_geom_bond_atom_site_label_1
_geom_bond_atom_site_label_2
_geom_bond_distance
_geom_bond_site_symmetry_2
Li0 O3 1.971195 1_655
Li0 O7 1.973490 1_555
Li0 O1 2.001116 1_555
Li0 O0 2.004043 1_555
Li1 O5 1.971194 1_555
Li1 O9 1.973490 1_455
Li1 O2 2.001116 1_555
Li1 O6 2.004043 1_555
Li2 O9 1.967293 1_555
Li2 O5 1.970792 1_555
Li2 O6 1.995099 1_555
Li2 O2 1.998981 1_655
Li3 O7 1.967293 1_555
Li3 O3 1.970792 1_555
Li3 O0 1.995100 1_455
Li3 O1 1.998980 1_555
O0 V2 1.667775 1_556
O1 V0 1.667733 1_545
O2 V3 1.667734 1_554
O3 V1 1.664422 1_555
O4 V1 1.769973 1_555
O4 V2 1.771184 1_455
O5 V2 1.664422 1_555
O6 V1 1.667775 1_565
O7 V3 1.664635 1_555
O8 V3 1.769856 1_555
O8 V0 1.770542 1_555
O9 V0 1.664635 1_555
O10 V2 1.769973 1_555
O10 V1 1.771185 1_555
O11 V0 1.769856 1_555
O11 V3 1.770542 1_655
