# generated using pymatgen
data_Cs2TiI6
_symmetry_space_group_name_H-M   'P 1'
_cell_length_a   8.25653770
_cell_length_b   8.25653770
_cell_length_c   8.25653770
_cell_angle_alpha   60.00000000
_cell_angle_beta   60.00000000
_cell_angle_gamma   60.00000000
_symmetry_Int_Tables_number   1
_chemical_formula_structural   Cs2TiI6
_chemical_formula_sum   'Cs2 Ti1 I6'
_cell_volume   397.99618364
_cell_formula_units_Z   1
loop_
 _symmetry_equiv_pos_site_id
 _symmetry_equiv_pos_as_xyz
  1  'x, y, z'
loop_
 _atom_site_type_symbol
 _atom_site_label
 _atom_site_symmetry_multiplicity
 _atom_site_fract_x
 _atom_site_fract_y
 _atom_site_fract_z
 _atom_site_occupancy
  Cs  Cs0  1  0.25000000  0.25000000  0.25000000  1
  Cs  Cs1  1  0.75000000  0.75000000  0.75000000  1
  Ti  Ti0  1  0.00000000  0.00000000  -0.00000000  1
  I  I0  1  0.76277160  0.23722840  0.23722840  1
  I  I1  1  0.23722840  0.76277160  0.76277160  1
  I  I2  1  0.23722840  0.76277160  0.23722840  1
  I  I3  1  0.76277160  0.23722840  0.76277160  1
  I  I4  1  0.23722840  0.23722840  0.76277160  1
  I  I5  1  0.76277160  0.76277160  0.23722840  1
loop_
_geom_bond_atom_site_label_1
_geom_bond_atom_site_label_2
_geom_bond_distance
_geom_bond_site_symmetry_2
Cs0 I4 4.130961 1_555
Cs0 I2 4.130961 1_555
Cs0 I0 4.130961 1_555
Cs0 I3 4.130961 1_554
Cs0 I5 4.130961 1_545
Cs0 I5 4.130961 1_455
Cs0 I3 4.130961 1_455
Cs0 I1 4.130961 1_545
Cs0 I1 4.130961 1_554
Cs0 I2 4.130961 1_545
Cs0 I0 4.130961 1_455
Cs0 I4 4.130961 1_554
Cs1 I5 4.130961 1_556
Cs1 I3 4.130961 1_565
Cs1 I1 4.130961 1_655
Cs1 I4 4.130961 1_655
Cs1 I2 4.130961 1_556
Cs1 I2 4.130961 1_655
Cs1 I0 4.130961 1_565
Cs1 I0 4.130961 1_556
Cs1 I4 4.130961 1_565
Cs1 I5 4.130961 1_555
Cs1 I3 4.130961 1_555
Cs1 I1 4.130961 1_555
I0 Ti0 2.769999 1_655
I1 Ti0 2.769999 1_566
I2 Ti0 2.769999 1_565
I3 Ti0 2.769999 1_656
I4 Ti0 2.769999 1_556
I5 Ti0 2.769999 1_665
