# generated using pymatgen
data_YMg
_symmetry_space_group_name_H-M   'P 1'
_cell_length_a   5.38982532
_cell_length_b   3.76241468
_cell_length_c   5.39469108
_cell_angle_alpha   90.00000000
_cell_angle_beta   90.00000000
_cell_angle_gamma   90.00000000
_symmetry_Int_Tables_number   1
_chemical_formula_structural   YMg
_chemical_formula_sum   'Y2 Mg2'
_cell_volume   109.39763439
_cell_formula_units_Z   2
loop_
 _symmetry_equiv_pos_site_id
 _symmetry_equiv_pos_as_xyz
  1  'x, y, z'
loop_
 _atom_site_type_symbol
 _atom_site_label
 _atom_site_symmetry_multiplicity
 _atom_site_fract_x
 _atom_site_fract_y
 _atom_site_fract_z
 _atom_site_occupancy
  Y  Y0  1  0.25000000  0.50000000  0.25663673  1
  Y  Y1  1  0.75000000  0.50000000  0.74336327  1
  Mg  Mg0  1  0.75000000  0.00000000  0.23972830  1
  Mg  Mg1  1  0.25000000  0.00000000  0.76027170  1
loop_
_geom_bond_atom_site_label_1
_geom_bond_atom_site_label_2
_geom_bond_distance
_geom_bond_site_symmetry_2
Mg0 Y1 3.272493 1_544
Mg0 Y1 3.272493 1_554
Mg0 Y0 3.287828 1_655
Mg0 Y0 3.287828 1_645
Mg0 Y0 3.287828 1_555
Mg0 Y0 3.287828 1_545
Mg0 Y1 3.304661 1_545
Mg0 Y1 3.304661 1_555
Mg1 Y0 3.272493 1_556
Mg1 Y0 3.272493 1_546
Mg1 Y1 3.287828 1_545
Mg1 Y1 3.287828 1_555
Mg1 Y1 3.287828 1_455
Mg1 Y1 3.287828 1_445
Mg1 Y0 3.304661 1_555
Mg1 Y0 3.304661 1_545
