# generated using pymatgen
data_Li6MnV3(PO4)6
_symmetry_space_group_name_H-M   'P 1'
_cell_length_a   8.69679337
_cell_length_b   8.70498321
_cell_length_c   12.38943083
_cell_angle_alpha   90.00000000
_cell_angle_beta   90.93164713
_cell_angle_gamma   90.00000000
_symmetry_Int_Tables_number   1
_chemical_formula_structural   Li6MnV3(PO4)6
_chemical_formula_sum   'Li12 Mn2 V6 P12 O48'
_cell_volume   937.82332291
_cell_formula_units_Z   2
loop_
 _symmetry_equiv_pos_site_id
 _symmetry_equiv_pos_as_xyz
  1  'x, y, z'
loop_
 _atom_site_type_symbol
 _atom_site_label
 _atom_site_symmetry_multiplicity
 _atom_site_fract_x
 _atom_site_fract_y
 _atom_site_fract_z
 _atom_site_occupancy
  Li  Li0  1  0.08136671  0.09201462  0.69712994  1
  Li  Li1  1  0.08144094  0.70486248  0.75686544  1
  Li  Li2  1  0.20948984  0.77535684  0.17801010  1
  Li  Li3  1  0.28972881  0.27442794  0.32229190  1
  Li  Li4  1  0.41686838  0.20146490  0.74243190  1
  Li  Li5  1  0.42076343  0.59553797  0.80240939  1
  Li  Li6  1  0.58136671  0.40798538  0.19712994  1
  Li  Li7  1  0.58144094  0.79513752  0.25686544  1
  Li  Li8  1  0.70948984  0.72464316  0.67801010  1
  Li  Li9  1  0.78972881  0.22557206  0.82229190  1
  Li  Li10  1  0.91686838  0.29853510  0.24243190  1
  Li  Li11  1  0.92076343  0.90446203  0.30240939  1
  Mn  Mn0  1  0.25340548  0.03528381  0.89499473  1
  Mn  Mn1  1  0.75340548  0.46471619  0.39499473  1
  V  V0  1  0.24775173  0.53183688  0.60929321  1
  V  V1  1  0.24620762  0.45900603  0.11164408  1
  V  V2  1  0.25304073  0.95723443  0.38871576  1
  V  V3  1  0.74620762  0.04099397  0.61164408  1
  V  V4  1  0.74775173  0.96816312  0.10929321  1
  V  V5  1  0.75304073  0.54276557  0.88871576  1
  P  P0  1  0.03825300  0.24810292  0.49403687  1
  P  P1  1  0.10623117  0.38750961  0.85374195  1
  P  P2  1  0.10410006  0.09873336  0.15245346  1
  P  P3  1  0.39405325  0.88871320  0.64340049  1
  P  P4  1  0.39721927  0.59720074  0.35155515  1
  P  P5  1  0.45886446  0.75038555  0.00588295  1
  P  P6  1  0.53825300  0.25189708  0.99403687  1
  P  P7  1  0.60410006  0.40126664  0.65245346  1
  P  P8  1  0.60623117  0.11249039  0.35374195  1
  P  P9  1  0.89721927  0.90279926  0.85155515  1
  P  P10  1  0.89405325  0.61128680  0.14340049  1
  P  P11  1  0.95886446  0.74961445  0.50588295  1
  O  O0  1  0.04776835  0.86384365  0.43405024  1
  O  O1  1  0.06335956  0.67324970  0.59299662  1
  O  O2  1  0.06955957  0.59416164  0.16514881  1
  O  O3  1  0.07721548  0.89487708  0.84915435  1
  O  O4  1  0.11458115  0.35983863  0.57438375  1
  O  O5  1  0.14998336  0.41449433  0.97197165  1
  O  O6  1  0.14998628  0.21907093  0.82025578  1
  O  O7  1  0.14742546  0.97616598  0.24123665  1
  O  O8  1  0.15597893  0.26205741  0.18906145  1
  O  O9  1  0.16594742  0.16598556  0.43039601  1
  O  O10  1  0.17087437  0.04701019  0.04727338  1
  O  O11  1  0.19294625  0.50678690  0.78233711  1
  O  O12  1  0.30444380  0.01014540  0.70857208  1
  O  O13  1  0.33074402  0.54841364  0.45809988  1
  O  O14  1  0.33012351  0.66911243  0.06862589  1
  O  O15  1  0.34542880  0.76026027  0.31317858  1
  O  O16  1  0.35098240  0.72152135  0.67954255  1
  O  O17  1  0.35174476  0.47599981  0.26268016  1
  O  O18  1  0.35564488  0.90882543  0.52323957  1
  O  O19  1  0.38733154  0.86267520  0.92227765  1
  O  O20  1  0.42490390  0.39388309  0.65479290  1
  O  O21  1  0.43068221  0.09563583  0.33398890  1
  O  O22  1  0.43459012  0.17446301  0.90586878  1
  O  O23  1  0.44896605  0.36503684  0.06600896  1
  O  O24  1  0.54776835  0.63615635  0.93405024  1
  O  O25  1  0.56335956  0.82675030  0.09299662  1
  O  O26  1  0.56955957  0.90583836  0.66514881  1
  O  O27  1  0.57721548  0.60512292  0.34915435  1
  O  O28  1  0.61458115  0.14016137  0.07438375  1
  O  O29  1  0.64998336  0.08550567  0.47197165  1
  O  O30  1  0.64742546  0.52383402  0.74123665  1
  O  O31  1  0.64998628  0.28092907  0.32025578  1
  O  O32  1  0.65597893  0.23794259  0.68906145  1
  O  O33  1  0.66594742  0.33401444  0.93039601  1
  O  O34  1  0.67087437  0.45298981  0.54727338  1
  O  O35  1  0.69294625  0.99321310  0.28233711  1
  O  O36  1  0.80444380  0.48985460  0.20857208  1
  O  O37  1  0.83074402  0.95158636  0.95809988  1
  O  O38  1  0.83012351  0.83088757  0.56862589  1
  O  O39  1  0.84542880  0.73973973  0.81317858  1
  O  O40  1  0.85174476  0.02400019  0.76268016  1
  O  O41  1  0.85098240  0.77847865  0.17954255  1
  O  O42  1  0.85564488  0.59117457  0.02323957  1
  O  O43  1  0.88733154  0.63732480  0.42227765  1
  O  O44  1  0.92490390  0.10611691  0.15479290  1
  O  O45  1  0.93068221  0.40436417  0.83398890  1
  O  O46  1  0.93459012  0.32553699  0.40586878  1
  O  O47  1  0.94896605  0.13496316  0.56600896  1
loop_
_geom_bond_atom_site_label_1
_geom_bond_atom_site_label_2
_geom_bond_distance
_geom_bond_site_symmetry_2
Li0 O6 1.968970 1_555
Li0 O47 2.010934 1_455
Li0 O12 2.069509 1_555
Li0 O40 2.247386 1_455
Li0 O3 2.548725 1_545
Li1 O11 2.000763 1_555
Li1 O3 2.011481 1_555
Li1 O1 2.052305 1_555
Li1 O39 2.199652 1_455
Li1 O16 2.550846 1_555
Li2 O14 1.959298 1_555
Li2 O7 1.993580 1_555
Li2 O2 1.996977 1_555
Li2 O15 2.038394 1_555
Li3 O9 1.972488 1_555
Li3 O17 1.981970 1_555
Li3 O21 1.985004 1_555
Li3 O8 2.006695 1_555
Li4 O12 1.972885 1_555
Li4 O20 1.997980 1_555
Li4 O22 2.041821 1_555
Li4 O32 2.215190 1_555
Li4 O6 2.532402 1_555
Li5 O16 1.964233 1_555
Li5 O24 1.986568 1_555
Li5 O11 2.137326 1_555
Li5 O30 2.213222 1_555
Li5 O20 2.535684 1_555
Li6 O31 1.968970 1_555
Li6 O23 2.010934 1_555
Li6 O36 2.069509 1_555
Li6 O17 2.247386 1_555
Li6 O27 2.548725 1_555
Li7 O35 2.000763 1_555
Li7 O27 2.011481 1_555
Li7 O25 2.052305 1_555
Li7 O15 2.199652 1_555
Li7 O41 2.550846 1_555
Li8 O38 1.959298 1_555
Li8 O30 1.993580 1_555
Li8 O26 1.996977 1_555
Li8 O39 2.038394 1_555
Li9 O33 1.972488 1_555
Li9 O40 1.981970 1_555
Li9 O45 1.985004 1_555
Li9 O32 2.006695 1_555
Li10 O36 1.972885 1_555
Li10 O44 1.997980 1_555
Li10 O46 2.041821 1_555
Li10 O8 2.215190 1_655
Li10 O31 2.532402 1_555
Li11 O41 1.964233 1_555
Li11 O0 1.986568 1_655
Li11 O35 2.137326 1_555
Li11 O7 2.213222 1_655
Li11 O44 2.535684 1_565
Mn0 O19 1.927619 1_545
Mn0 O22 1.990482 1_555
Mn0 O10 2.032009 1_556
Mn0 O3 2.033722 1_545
Mn0 O6 2.049111 1_555
Mn0 O12 2.369140 1_555
Mn1 O43 1.927619 1_555
Mn1 O46 1.990482 1_555
Mn1 O34 2.032009 1_555
Mn1 O27 2.033722 1_555
Mn1 O31 2.049111 1_555
Mn1 O36 2.369140 1_555
O0 P11 1.549510 1_455
O0 V2 2.048407 1_555
O1 P11 1.549430 1_455
O1 V0 2.029085 1_555
O2 P10 1.552795 1_455
O2 V1 2.053507 1_555
O3 P9 1.567673 1_455
O4 P0 1.534973 1_555
O4 V0 1.937482 1_555
O5 P1 1.525605 1_555
O5 V1 1.948807 1_556
O6 P1 1.572248 1_555
O7 P2 1.573789 1_565
O7 V2 2.038344 1_555
O8 P2 1.556902 1_555
O8 V1 2.121202 1_555
O9 P0 1.547394 1_555
O9 V2 2.038434 1_545
O10 P2 1.504226 1_555
O11 P1 1.565612 1_555
O11 V0 2.214573 1_555
O12 P3 1.548270 1_545
O13 P4 1.510589 1_555
O13 V0 2.023515 1_555
O14 P5 1.544889 1_555
O14 V1 2.043148 1_555
O15 P4 1.561011 1_555
O15 V2 2.117999 1_555
O16 P3 1.569862 1_555
O16 V0 2.065081 1_555
O17 P4 1.570931 1_555
O17 V1 2.076062 1_555
O18 P3 1.530477 1_555
O18 V2 1.924386 1_555
O19 P5 1.547403 1_556
O20 P7 1.560497 1_555
O20 V0 2.026149 1_555
O21 P8 1.549232 1_555
O21 V2 2.081357 1_545
O22 P6 1.558311 1_555
O23 P6 1.546153 1_554
O23 V1 2.032391 1_555
O24 P5 1.549510 1_556
O24 V5 2.048407 1_555
O25 P5 1.549430 1_555
O25 V4 2.029085 1_555
O26 P3 1.552795 1_555
O26 V3 2.053507 1_565
O27 P4 1.567673 1_555
O28 P6 1.534973 1_554
O28 V4 1.937482 1_545
O29 P8 1.525605 1_555
O29 V3 1.948807 1_555
O30 P7 1.573789 1_555
O30 V5 2.038344 1_555
O31 P8 1.572248 1_555
O32 P7 1.556902 1_555
O32 V3 2.121202 1_555
O33 P6 1.547394 1_555
O33 V5 2.038434 1_555
O34 P7 1.504226 1_555
O35 P8 1.565612 1_565
O35 V4 2.214573 1_555
O36 P10 1.548270 1_555
O37 P9 1.510589 1_555
O37 V4 2.023515 1_556
O38 P11 1.544889 1_555
O38 V3 2.043148 1_565
O39 P9 1.561011 1_555
O39 V5 2.117999 1_555
O40 P9 1.570931 1_545
O40 V3 2.076062 1_555
O41 P10 1.569862 1_555
O41 V4 2.065081 1_555
O42 P10 1.530477 1_555
O42 V5 1.924386 1_554
O43 P11 1.547403 1_555
O44 P2 1.560497 1_655
O44 V4 2.026149 1_545
O45 P1 1.549232 1_655
O45 V5 2.081357 1_555
O46 P0 1.558311 1_655
O47 P0 1.546153 1_655
O47 V3 2.032391 1_555
