# generated using pymatgen
data_KEr(MoO4)2
_symmetry_space_group_name_H-M   'P 1'
_cell_length_a   5.11755200
_cell_length_b   8.06663100
_cell_length_c   18.42838300
_cell_angle_alpha   90.00000000
_cell_angle_beta   90.00000000
_cell_angle_gamma   90.00000000
_symmetry_Int_Tables_number   1
_chemical_formula_structural   KEr(MoO4)2
_chemical_formula_sum   'K4 Er4 Mo8 O32'
_cell_volume   760.74951645
_cell_formula_units_Z   4
loop_
 _symmetry_equiv_pos_site_id
 _symmetry_equiv_pos_as_xyz
  1  'x, y, z'
loop_
 _atom_site_type_symbol
 _atom_site_label
 _atom_site_symmetry_multiplicity
 _atom_site_fract_x
 _atom_site_fract_y
 _atom_site_fract_z
 _atom_site_occupancy
  K  K0  1  0.00000000  0.75000000  0.76990900  1
  K  K1  1  0.00000000  0.25000000  0.23009100  1
  K  K2  1  0.50000000  0.25000000  0.73009100  1
  K  K3  1  0.50000000  0.75000000  0.26990900  1
  Er  Er0  1  0.00000000  0.75000000  0.00587300  1
  Er  Er1  1  0.00000000  0.25000000  0.99412700  1
  Er  Er2  1  0.50000000  0.25000000  0.49412700  1
  Er  Er3  1  0.50000000  0.75000000  0.50587300  1
  Mo  Mo0  1  0.02236000  0.51610000  0.39911900  1
  Mo  Mo1  1  0.97764000  0.48390000  0.60088100  1
  Mo  Mo2  1  0.47764000  0.01610000  0.10088100  1
  Mo  Mo3  1  0.97764000  0.98390000  0.39911900  1
  Mo  Mo4  1  0.52236000  0.98390000  0.89911900  1
  Mo  Mo5  1  0.02236000  0.01610000  0.60088100  1
  Mo  Mo6  1  0.52236000  0.48390000  0.10088100  1
  Mo  Mo7  1  0.47764000  0.51610000  0.89911900  1
  O  O0  1  0.10213100  0.97444400  0.31074100  1
  O  O1  1  0.89786900  0.02555600  0.68925900  1
  O  O2  1  0.39786900  0.47444400  0.18925900  1
  O  O3  1  0.89786900  0.52555600  0.31074100  1
  O  O4  1  0.60213100  0.52555600  0.81074100  1
  O  O5  1  0.10213100  0.47444400  0.68925900  1
  O  O6  1  0.60213100  0.02555600  0.18925900  1
  O  O7  1  0.39786900  0.97444400  0.81074100  1
  O  O8  1  0.26760700  0.83738700  0.09855800  1
  O  O9  1  0.73239300  0.16261300  0.90144200  1
  O  O10  1  0.23239300  0.33738700  0.40144200  1
  O  O11  1  0.73239300  0.66261300  0.09855800  1
  O  O12  1  0.76760700  0.66261300  0.59855800  1
  O  O13  1  0.26760700  0.33738700  0.90144200  1
  O  O14  1  0.76760700  0.16261300  0.40144200  1
  O  O15  1  0.23239300  0.83738700  0.59855800  1
  O  O16  1  0.24699700  0.50480400  0.03466300  1
  O  O17  1  0.75300300  0.49519600  0.96533700  1
  O  O18  1  0.25300300  0.00480400  0.46533700  1
  O  O19  1  0.75300300  0.99519600  0.03466300  1
  O  O20  1  0.74699700  0.99519600  0.53466300  1
  O  O21  1  0.24699700  0.00480400  0.96533700  1
  O  O22  1  0.74699700  0.49519600  0.46533700  1
  O  O23  1  0.25300300  0.50480400  0.53466300  1
  O  O24  1  0.24710300  0.69039400  0.40781600  1
  O  O25  1  0.75289700  0.30960600  0.59218400  1
  O  O26  1  0.25289700  0.19039400  0.09218400  1
  O  O27  1  0.75289700  0.80960600  0.40781600  1
  O  O28  1  0.74710300  0.80960600  0.90781600  1
  O  O29  1  0.24710300  0.19039400  0.59218400  1
  O  O30  1  0.74710300  0.30960600  0.09218400  1
  O  O31  1  0.25289700  0.69039400  0.90781600  1
loop_
_geom_bond_atom_site_label_1
_geom_bond_atom_site_label_2
_geom_bond_distance
_geom_bond_site_symmetry_2
K0 O1 2.724516 1_465
K0 O5 2.724516 1_555
K0 O7 2.826643 1_555
K0 O4 2.826643 1_455
K0 O31 2.892215 1_555
K0 O28 2.892215 1_455
K1 O3 2.724516 1_455
K1 O0 2.724516 1_545
K1 O2 2.826643 1_555
K1 O6 2.826643 1_455
K1 O26 2.892215 1_555
K1 O30 2.892215 1_455
K2 O7 2.724516 1_545
K2 O4 2.724516 1_555
K2 O5 2.826643 1_555
K2 O1 2.826643 1_555
K2 O25 2.892215 1_555
K2 O29 2.892215 1_555
K3 O6 2.724516 1_565
K3 O2 2.724516 1_555
K3 O0 2.826643 1_555
K3 O3 2.826643 1_555
K3 O24 2.892215 1_555
K3 O27 2.892215 1_555
Er0 O31 2.274102 1_554
Er0 O28 2.274102 1_454
Er0 O8 2.299957 1_555
Er0 O11 2.299957 1_455
Er0 O19 2.406521 1_455
Er0 O16 2.406521 1_555
Er0 O17 2.525962 1_454
Er0 O21 2.525962 1_564
Er1 O26 2.274102 1_556
Er1 O30 2.274102 1_456
Er1 O13 2.299957 1_555
Er1 O9 2.299957 1_455
Er1 O21 2.406521 1_555
Er1 O17 2.406521 1_455
Er1 O16 2.525962 1_556
Er1 O19 2.525962 1_446
Er2 O25 2.274102 1_555
Er2 O29 2.274102 1_555
Er2 O14 2.299957 1_555
Er2 O10 2.299957 1_555
Er2 O18 2.406521 1_555
Er2 O22 2.406521 1_555
Er2 O23 2.525962 1_555
Er2 O20 2.525962 1_545
Er3 O24 2.274102 1_555
Er3 O27 2.274102 1_555
Er3 O15 2.299957 1_555
Er3 O12 2.299957 1_555
Er3 O20 2.406521 1_555
Er3 O23 2.406521 1_555
Er3 O22 2.525962 1_555
Er3 O18 2.525962 1_565
Mo0 O3 1.750499 1_455
Mo0 O10 1.798719 1_555
Mo0 O24 1.823522 1_555
Mo0 O22 1.871722 1_455
Mo1 O5 1.750499 1_655
Mo1 O12 1.798719 1_555
Mo1 O25 1.823522 1_555
Mo1 O23 1.871722 1_655
Mo2 O6 1.750499 1_555
Mo2 O8 1.798719 1_545
Mo2 O26 1.823522 1_555
Mo2 O19 1.871722 1_545
Mo3 O0 1.750499 1_655
Mo3 O14 1.798719 1_565
Mo3 O27 1.823522 1_555
Mo3 O18 1.871722 1_665
Mo4 O7 1.750499 1_555
Mo4 O9 1.798719 1_565
Mo4 O28 1.823522 1_555
Mo4 O21 1.871722 1_565
Mo5 O1 1.750499 1_455
Mo5 O15 1.798719 1_545
Mo5 O29 1.823522 1_555
Mo5 O20 1.871722 1_445
Mo6 O2 1.750499 1_555
Mo6 O11 1.798719 1_555
Mo6 O30 1.823522 1_555
Mo6 O16 1.871722 1_555
Mo7 O4 1.750499 1_555
Mo7 O13 1.798719 1_555
Mo7 O31 1.823522 1_555
Mo7 O17 1.871722 1_555
