# generated using pymatgen
data_MgSi4SnO10
_symmetry_space_group_name_H-M   'P 1'
_cell_length_a   7.64281300
_cell_length_b   7.64281300
_cell_length_c   15.05076200
_cell_angle_alpha   90.00000000
_cell_angle_beta   90.00000000
_cell_angle_gamma   90.00000000
_symmetry_Int_Tables_number   1
_chemical_formula_structural   MgSi4SnO10
_chemical_formula_sum   'Mg4 Si16 Sn4 O40'
_cell_volume   879.15399822
_cell_formula_units_Z   4
loop_
 _symmetry_equiv_pos_site_id
 _symmetry_equiv_pos_as_xyz
  1  'x, y, z'
loop_
 _atom_site_type_symbol
 _atom_site_label
 _atom_site_symmetry_multiplicity
 _atom_site_fract_x
 _atom_site_fract_y
 _atom_site_fract_z
 _atom_site_occupancy
  Mg  Mg0  1  0.25000000  0.75000000  0.50000000  1
  Mg  Mg1  1  0.75000000  0.25000000  0.50000000  1
  Mg  Mg2  1  0.75000000  0.25000000  0.00000000  1
  Mg  Mg3  1  0.25000000  0.75000000  0.00000000  1
  Si  Si0  1  0.88764100  0.48928600  0.64836200  1
  Si  Si1  1  0.61235900  0.01071400  0.64836200  1
  Si  Si2  1  0.98928600  0.38764100  0.85163800  1
  Si  Si3  1  0.48928600  0.61235900  0.64836200  1
  Si  Si4  1  0.01071400  0.88764100  0.64836200  1
  Si  Si5  1  0.11235900  0.98928600  0.85163800  1
  Si  Si6  1  0.38764100  0.51071400  0.85163800  1
  Si  Si7  1  0.51071400  0.11235900  0.85163800  1
  Si  Si8  1  0.11235900  0.51071400  0.35163800  1
  Si  Si9  1  0.38764100  0.98928600  0.35163800  1
  Si  Si10  1  0.01071400  0.61235900  0.14836200  1
  Si  Si11  1  0.51071400  0.38764100  0.35163800  1
  Si  Si12  1  0.98928600  0.11235900  0.35163800  1
  Si  Si13  1  0.88764100  0.01071400  0.14836200  1
  Si  Si14  1  0.61235900  0.48928600  0.14836200  1
  Si  Si15  1  0.48928600  0.88764100  0.14836200  1
  Sn  Sn0  1  0.25000000  0.25000000  0.59754200  1
  Sn  Sn1  1  0.75000000  0.75000000  0.90245800  1
  Sn  Sn2  1  0.75000000  0.75000000  0.40245800  1
  Sn  Sn3  1  0.25000000  0.25000000  0.09754200  1
  O  O0  1  0.95026800  0.34530000  0.57617300  1
  O  O1  1  0.54973200  0.15470000  0.57617300  1
  O  O2  1  0.84530000  0.45026800  0.92382700  1
  O  O3  1  0.34530000  0.54973200  0.57617300  1
  O  O4  1  0.15470000  0.95026800  0.57617300  1
  O  O5  1  0.04973200  0.84530000  0.92382700  1
  O  O6  1  0.45026800  0.65470000  0.92382700  1
  O  O7  1  0.65470000  0.04973200  0.92382700  1
  O  O8  1  0.04973200  0.65470000  0.42382700  1
  O  O9  1  0.45026800  0.84530000  0.42382700  1
  O  O10  1  0.15470000  0.54973200  0.07617300  1
  O  O11  1  0.65470000  0.45026800  0.42382700  1
  O  O12  1  0.84530000  0.04973200  0.42382700  1
  O  O13  1  0.95026800  0.15470000  0.07617300  1
  O  O14  1  0.54973200  0.34530000  0.07617300  1
  O  O15  1  0.01636700  0.32213800  0.36607600  1
  O  O16  1  0.34530000  0.95026800  0.07617300  1
  O  O17  1  0.51636700  0.82213800  0.63392400  1
  O  O18  1  0.17786200  0.48363300  0.86607600  1
  O  O19  1  0.67786200  0.51636700  0.63392400  1
  O  O20  1  0.82213800  0.98363300  0.63392400  1
  O  O21  1  0.01636700  0.17786200  0.86607600  1
  O  O22  1  0.48363300  0.32213800  0.86607600  1
  O  O23  1  0.32213800  0.01636700  0.86607600  1
  O  O24  1  0.42683800  0.92683800  0.25000000  1
  O  O25  1  0.57316200  0.42683800  0.25000000  1
  O  O26  1  0.92683800  0.07316300  0.25000000  1
  O  O27  1  0.07316300  0.57316200  0.25000000  1
  O  O28  1  0.57316200  0.07316300  0.75000000  1
  O  O29  1  0.42683800  0.57316200  0.75000000  1
  O  O30  1  0.07316300  0.92683800  0.75000000  1
  O  O31  1  0.92683800  0.42683800  0.75000000  1
  O  O32  1  0.67786200  0.98363300  0.13392400  1
  O  O33  1  0.51636700  0.67786200  0.13392400  1
  O  O34  1  0.98363300  0.82213800  0.13392400  1
  O  O35  1  0.17786200  0.01636700  0.36607600  1
  O  O36  1  0.32213800  0.48363300  0.36607600  1
  O  O37  1  0.82213800  0.51636700  0.13392400  1
  O  O38  1  0.48363300  0.17786200  0.36607600  1
  O  O39  1  0.98363300  0.67786200  0.63392400  1
loop_
_geom_bond_atom_site_label_1
_geom_bond_atom_site_label_2
_geom_bond_distance
_geom_bond_site_symmetry_2
Mg0 O8 2.046375 1_555
Mg0 O3 2.046375 1_555
Mg0 O9 2.046375 1_555
Mg0 O4 2.046375 1_555
Mg1 O1 2.046375 1_555
Mg1 O0 2.046375 1_555
Mg1 O12 2.046375 1_555
Mg1 O11 2.046375 1_555
Mg2 O13 2.046375 1_555
Mg2 O14 2.046375 1_555
Mg2 O7 2.046375 1_554
Mg2 O2 2.046375 1_554
Mg3 O10 2.046375 1_555
Mg3 O16 2.046375 1_555
Mg3 O6 2.046375 1_554
Mg3 O5 2.046375 1_554
O0 Si0 1.618824 1_555
O0 Sn0 2.425220 1_655
O1 Si1 1.618824 1_555
O1 Sn0 2.425220 1_555
O2 Si2 1.618824 1_555
O2 Sn1 2.425220 1_555
O3 Si3 1.618824 1_555
O3 Sn0 2.425220 1_555
O4 Si4 1.618824 1_555
O4 Sn0 2.425220 1_565
O5 Si5 1.618824 1_555
O5 Sn1 2.425220 1_455
O6 Si6 1.618824 1_555
O6 Sn1 2.425220 1_555
O7 Si7 1.618824 1_555
O7 Sn1 2.425220 1_545
O8 Si8 1.618824 1_555
O8 Sn2 2.425220 1_455
O9 Si9 1.618824 1_555
O9 Sn2 2.425220 1_555
O10 Si10 1.618824 1_555
O10 Sn3 2.425220 1_555
O11 Si11 1.618824 1_555
O11 Sn2 2.425220 1_555
O12 Si12 1.618824 1_555
O12 Sn2 2.425220 1_545
O13 Si13 1.618824 1_555
O13 Sn3 2.425220 1_655
O14 Si14 1.618824 1_555
O14 Sn3 2.425220 1_555
O15 Si12 1.631145 1_455
O15 Si8 1.631768 1_555
O16 Si15 1.618824 1_555
O16 Sn3 2.425220 1_565
O17 Si3 1.631145 1_555
O17 Si1 1.631768 1_565
O18 Si6 1.631145 1_555
O18 Si2 1.631768 1_455
O19 Si0 1.631145 1_555
O19 Si3 1.631768 1_555
O20 Si1 1.631145 1_565
O20 Si4 1.631768 1_655
O21 Si2 1.631145 1_455
O21 Si5 1.631768 1_545
O22 Si7 1.631145 1_555
O22 Si6 1.631768 1_555
O23 Si5 1.631145 1_545
O23 Si7 1.631768 1_555
O24 Si9 1.630218 1_555
O24 Si15 1.630218 1_555
O25 Si11 1.630218 1_555
O25 Si14 1.630218 1_555
O26 Si12 1.630217 1_555
O26 Si13 1.630221 1_555
O27 Si8 1.630217 1_555
O27 Si10 1.630221 1_555
O28 Si7 1.630217 1_555
O28 Si1 1.630221 1_555
O29 Si6 1.630218 1_555
O29 Si3 1.630218 1_555
O30 Si5 1.630217 1_555
O30 Si4 1.630221 1_555
O31 Si2 1.630218 1_555
O31 Si0 1.630218 1_555
O32 Si13 1.631145 1_565
O32 Si15 1.631768 1_555
O33 Si15 1.631145 1_555
O33 Si14 1.631768 1_555
O34 Si10 1.631145 1_655
O34 Si13 1.631768 1_565
O35 Si9 1.631145 1_545
O35 Si12 1.631768 1_455
O36 Si8 1.631145 1_555
O36 Si11 1.631768 1_555
O37 Si14 1.631145 1_555
O37 Si10 1.631768 1_655
O38 Si11 1.631145 1_555
O38 Si9 1.631768 1_545
O39 Si4 1.631145 1_655
O39 Si0 1.631768 1_555
