# generated using pymatgen
data_Li5MnO3F
_symmetry_space_group_name_H-M   'P 1'
_cell_length_a   4.74271461
_cell_length_b   6.79539215
_cell_length_c   6.79545058
_cell_angle_alpha   90.11913408
_cell_angle_beta   78.67993901
_cell_angle_gamma   78.68024724
_symmetry_Int_Tables_number   1
_chemical_formula_structural   Li5MnO3F
_chemical_formula_sum   'Li10 Mn2 O6 F2'
_cell_volume   210.38195504
_cell_formula_units_Z   2
loop_
 _symmetry_equiv_pos_site_id
 _symmetry_equiv_pos_as_xyz
  1  'x, y, z'
loop_
 _atom_site_type_symbol
 _atom_site_label
 _atom_site_symmetry_multiplicity
 _atom_site_fract_x
 _atom_site_fract_y
 _atom_site_fract_z
 _atom_site_occupancy
  Li  Li0  1  0.48966800  0.48443500  0.48443700  1
  Li  Li1  1  0.73892700  0.77087300  0.77087500  1
  Li  Li2  1  0.24364800  0.96853600  0.53933500  1
  Li  Li3  1  0.00792600  0.71369500  0.27794400  1
  Li  Li4  1  0.00792700  0.27794100  0.71369600  1
  Li  Li5  1  0.24364700  0.53933200  0.96853900  1
  Li  Li6  1  0.49300300  0.78566500  0.20245600  1
  Li  Li7  1  0.49300400  0.20245400  0.78566400  1
  Li  Li8  1  0.75383800  0.47356500  0.03901000  1
  Li  Li9  1  0.75383800  0.03900800  0.47356600  1
  Mn  Mn0  1  0.98585500  0.00132200  0.00130800  1
  Mn  Mn1  1  0.30110900  0.23830900  0.23829000  1
  O  O0  1  0.11064600  0.97561300  0.26644800  1
  O  O1  1  0.11064300  0.26645100  0.97561100  1
  O  O2  1  0.38149800  0.22188000  0.52824100  1
  O  O3  1  0.38149900  0.52823400  0.22188200  1
  O  O4  1  0.87700900  0.73819300  0.02361100  1
  O  O5  1  0.87701100  0.02360600  0.73819600  1
  F  F0  1  0.62465400  0.76945000  0.48143900  1
  F  F1  1  0.62465100  0.48143500  0.76945300  1
loop_
_geom_bond_atom_site_label_1
_geom_bond_atom_site_label_2
_geom_bond_distance
_geom_bond_site_symmetry_2
Li0 O2 1.958728 1_555
Li0 O3 1.958740 1_555
Li1 O5 1.952884 1_565
Li1 O4 1.952916 1_556
Li2 O5 1.951863 1_465
Li2 O2 1.954473 1_565
Li2 O0 2.070422 1_555
Li3 O3 1.931061 1_555
Li3 O0 1.933205 1_555
Li3 O4 1.944782 1_455
Li4 O2 1.931035 1_555
Li4 O1 1.933195 1_555
Li4 O5 1.944776 1_455
Li5 O4 1.951865 1_456
Li5 O3 1.954488 1_556
Li5 O1 2.070370 1_555
Li6 O3 1.921983 1_555
Li6 O4 1.948532 1_555
Li6 O0 1.978093 1_555
Li7 O2 1.921952 1_555
Li7 O5 1.948545 1_555
Li7 O1 1.978106 1_555
Li8 O3 1.918265 1_555
Li8 O1 1.950991 1_654
Li8 O4 1.993759 1_555
Li9 O2 1.918269 1_555
Li9 O0 1.951016 1_645
Li9 O5 1.993794 1_555
Mn0 O5 1.954228 1_554
Mn0 O4 1.954330 1_545
Mn0 O1 2.001511 1_654
Mn0 O0 2.001610 1_645
Mn1 O3 2.078078 1_555
Mn1 O2 2.078272 1_555
Mn1 O1 2.146041 1_554
Mn1 O0 2.146121 1_545
F0 Li2 2.002324 1_555
F0 Li3 2.025008 1_655
F0 Li9 2.040017 1_565
F0 Li6 2.105866 1_555
F0 Li1 2.140739 1_555
F0 Li0 2.154814 1_555
F1 Li5 2.002318 1_555
F1 Li4 2.025017 1_655
F1 Li8 2.040036 1_556
F1 Li7 2.105826 1_555
F1 Li1 2.140739 1_555
F1 Li0 2.154832 1_555
