# generated using pymatgen
data_Y2Al3Co14
_symmetry_space_group_name_H-M   'P 1'
_cell_length_a   8.36588840
_cell_length_b   8.36588840
_cell_length_c   8.17334500
_cell_angle_alpha   90.00000000
_cell_angle_beta   90.00000000
_cell_angle_gamma   120.00000320
_symmetry_Int_Tables_number   1
_chemical_formula_structural   Y2Al3Co14
_chemical_formula_sum   'Y4 Al6 Co28'
_cell_volume   495.39838092
_cell_formula_units_Z   2
loop_
 _symmetry_equiv_pos_site_id
 _symmetry_equiv_pos_as_xyz
  1  'x, y, z'
loop_
 _atom_site_type_symbol
 _atom_site_label
 _atom_site_symmetry_multiplicity
 _atom_site_fract_x
 _atom_site_fract_y
 _atom_site_fract_z
 _atom_site_occupancy
  Y  Y0  1  0.00000000  0.00000000  0.25000000  1
  Y  Y1  1  0.00000000  0.00000000  0.75000000  1
  Y  Y2  1  0.33333300  0.66666700  0.75000000  1
  Y  Y3  1  0.66666700  0.33333300  0.25000000  1
  Al  Al0  1  0.50000000  0.50000000  0.50000000  1
  Al  Al1  1  0.50000000  0.00000000  0.50000000  1
  Al  Al2  1  0.00000000  0.50000000  0.50000000  1
  Al  Al3  1  0.50000000  0.50000000  0.00000000  1
  Al  Al4  1  0.50000000  0.00000000  0.00000000  1
  Al  Al5  1  0.00000000  0.50000000  0.00000000  1
  Co  Co0  1  0.33333300  0.66666700  0.38965800  1
  Co  Co1  1  0.66666700  0.33333300  0.61034200  1
  Co  Co2  1  0.66666700  0.33333300  0.88965800  1
  Co  Co3  1  0.33333300  0.66666700  0.11034200  1
  Co  Co4  1  0.32700600  0.37012000  0.25000000  1
  Co  Co5  1  0.62988000  0.95688600  0.25000000  1
  Co  Co6  1  0.04311400  0.67299400  0.25000000  1
  Co  Co7  1  0.62988000  0.67299400  0.25000000  1
  Co  Co8  1  0.04311400  0.37012000  0.25000000  1
  Co  Co9  1  0.32700600  0.95688600  0.25000000  1
  Co  Co10  1  0.67299400  0.62988000  0.75000000  1
  Co  Co11  1  0.37012000  0.04311400  0.75000000  1
  Co  Co12  1  0.95688600  0.32700600  0.75000000  1
  Co  Co13  1  0.37012000  0.32700600  0.75000000  1
  Co  Co14  1  0.95688600  0.62988000  0.75000000  1
  Co  Co15  1  0.67299400  0.04311400  0.75000000  1
  Co  Co16  1  0.16249700  0.83750300  0.51289800  1
  Co  Co17  1  0.16249700  0.32499500  0.51289800  1
  Co  Co18  1  0.67500500  0.83750300  0.51289800  1
  Co  Co19  1  0.83750300  0.16249700  0.48710200  1
  Co  Co20  1  0.83750300  0.67500500  0.48710200  1
  Co  Co21  1  0.32499500  0.16249700  0.48710200  1
  Co  Co22  1  0.83750300  0.16249700  0.01289800  1
  Co  Co23  1  0.83750300  0.67500500  0.01289800  1
  Co  Co24  1  0.32499500  0.16249700  0.01289800  1
  Co  Co25  1  0.16249700  0.83750300  0.98710200  1
  Co  Co26  1  0.16249700  0.32499500  0.98710200  1
  Co  Co27  1  0.67500500  0.83750300  0.98710200  1
loop_
_geom_bond_atom_site_label_1
_geom_bond_atom_site_label_2
_geom_bond_distance
_geom_bond_site_symmetry_2
Al0 Co10 2.424426 1_555
Al0 Co7 2.424426 1_555
Al0 Co4 2.424426 1_555
Al0 Co13 2.424426 1_555
Al0 Co17 2.448064 1_555
Al0 Co18 2.448064 1_555
Al0 Co20 2.448064 1_555
Al0 Co21 2.448064 1_555
Al0 Co1 2.577930 1_555
Al0 Co0 2.577930 1_555
Al0 Y3 3.163477 1_555
Al0 Y2 3.163477 1_555
Al1 Co15 2.424426 1_555
Al1 Co9 2.424426 1_545
Al1 Co11 2.424426 1_555
Al1 Co5 2.424426 1_545
Al1 Co18 2.448057 1_545
Al1 Co21 2.448057 1_555
Al1 Co19 2.448064 1_555
Al1 Co16 2.448064 1_545
Al1 Co1 2.577923 1_555
Al1 Co0 2.577923 1_545
Al1 Y2 3.163471 1_545
Al1 Y3 3.163471 1_555
Al2 Co6 2.424426 1_555
Al2 Co12 2.424426 1_455
Al2 Co8 2.424426 1_555
Al2 Co14 2.424426 1_455
Al2 Co20 2.448057 1_455
Al2 Co17 2.448057 1_555
Al2 Co19 2.448064 1_455
Al2 Co16 2.448064 1_555
Al2 Co1 2.577923 1_455
Al2 Co0 2.577923 1_555
Al2 Y3 3.163471 1_455
Al2 Y2 3.163471 1_555
Al3 Co10 2.424426 1_554
Al3 Co7 2.424426 1_555
Al3 Co4 2.424426 1_555
Al3 Co13 2.424426 1_554
Al3 Co27 2.448064 1_554
Al3 Co26 2.448064 1_554
Al3 Co23 2.448064 1_555
Al3 Co24 2.448064 1_555
Al3 Co3 2.577930 1_555
Al3 Co2 2.577930 1_554
Al3 Y3 3.163477 1_555
Al3 Y2 3.163477 1_554
Al4 Co15 2.424426 1_554
Al4 Co9 2.424426 1_545
Al4 Co11 2.424426 1_554
Al4 Co5 2.424426 1_545
Al4 Co27 2.448057 1_544
Al4 Co24 2.448057 1_555
Al4 Co22 2.448064 1_555
Al4 Co25 2.448064 1_544
Al4 Co3 2.577923 1_545
Al4 Co2 2.577923 1_554
Al4 Y2 3.163471 1_544
Al4 Y3 3.163471 1_555
Al5 Co6 2.424426 1_555
Al5 Co12 2.424426 1_454
Al5 Co8 2.424426 1_555
Al5 Co14 2.424426 1_454
Al5 Co23 2.448057 1_455
Al5 Co26 2.448057 1_554
Al5 Co25 2.448064 1_554
Al5 Co22 2.448064 1_455
Al5 Co3 2.577923 1_555
Al5 Co2 2.577923 1_454
Al5 Y2 3.163471 1_554
Al5 Y3 3.163471 1_455
Co0 Co3 2.282946 1_555
Co0 Co18 2.672529 1_555
Co0 Co17 2.672529 1_555
Co0 Co16 2.672529 1_555
Co0 Co9 2.707243 1_555
Co0 Co6 2.707243 1_555
Co0 Co5 2.707247 1_555
Co0 Co8 2.707247 1_555
Co0 Co4 2.707251 1_555
Co0 Co7 2.707251 1_555
Co0 Y2 2.945199 1_555
Co1 Co2 2.282946 1_555
Co1 Co20 2.672529 1_555
Co1 Co21 2.672529 1_555
Co1 Co19 2.672529 1_555
Co1 Co12 2.707243 1_555
Co1 Co15 2.707243 1_555
Co1 Co14 2.707247 1_555
Co1 Co11 2.707247 1_555
Co1 Co13 2.707251 1_555
Co1 Co10 2.707251 1_555
Co1 Y3 2.945199 1_555
Co2 Co23 2.672529 1_556
Co2 Co24 2.672529 1_556
Co2 Co22 2.672529 1_556
Co2 Y3 2.945199 1_556
Co3 Co9 2.707243 1_555
Co3 Co6 2.707243 1_555
Co3 Co5 2.707247 1_555
Co3 Co8 2.707247 1_555
Co3 Co4 2.707251 1_555
Co3 Co7 2.707251 1_555
Co3 Y2 2.945199 1_554
Co4 Co8 2.375009 1_555
Co4 Co7 2.533810 1_555
Co4 Y0 2.932721 1_555
Co4 Y3 3.007278 1_555
Co5 Co7 2.375009 1_555
Co5 Co9 2.533810 1_555
Co5 Y0 2.932722 1_665
Co5 Y3 3.007269 1_565
Co6 Co9 2.375009 1_555
Co6 Co8 2.533810 1_555
Co6 Y0 2.932722 1_565
Co6 Y3 3.007273 1_455
Co7 Y0 2.932721 1_665
Co7 Y3 3.007278 1_555
Co8 Y0 2.932722 1_555
Co8 Y3 3.007269 1_455
Co9 Y0 2.932722 1_565
Co9 Y3 3.007273 1_565
Co10 Co14 2.375009 1_555
Co10 Co20 2.476735 1_555
Co10 Co23 2.476735 1_556
Co10 Co13 2.533810 1_555
Co10 Co27 2.596840 1_555
Co10 Co18 2.596840 1_555
Co10 Co2 2.707251 1_555
Co10 Y1 2.932721 1_665
Co10 Y2 3.007278 1_555
Co11 Co13 2.375009 1_555
Co11 Co24 2.476731 1_556
Co11 Co21 2.476731 1_555
Co11 Co15 2.533810 1_555
Co11 Co25 2.596837 1_545
Co11 Co16 2.596837 1_545
Co11 Co2 2.707247 1_555
Co11 Y1 2.932722 1_555
Co11 Y2 3.007269 1_545
Co12 Co15 2.375009 1_555
Co12 Co19 2.476734 1_555
Co12 Co22 2.476734 1_556
Co12 Co14 2.533810 1_555
Co12 Co26 2.596835 1_655
Co12 Co17 2.596835 1_655
Co12 Co2 2.707243 1_555
Co12 Y1 2.932722 1_655
Co12 Y2 3.007273 1_655
Co13 Co21 2.476735 1_555
Co13 Co24 2.476735 1_556
Co13 Co26 2.596840 1_555
Co13 Co17 2.596840 1_555
Co13 Co2 2.707251 1_555
Co13 Y1 2.932721 1_555
Co13 Y2 3.007278 1_555
Co14 Co20 2.476731 1_555
Co14 Co23 2.476731 1_556
Co14 Co25 2.596837 1_655
Co14 Co16 2.596837 1_655
Co14 Co2 2.707247 1_555
Co14 Y1 2.932722 1_665
Co14 Y2 3.007269 1_655
Co15 Co19 2.476734 1_555
Co15 Co22 2.476734 1_556
Co15 Co27 2.596835 1_545
Co15 Co18 2.596835 1_545
Co15 Co2 2.707243 1_555
Co15 Y1 2.932722 1_655
Co15 Y2 3.007273 1_545
Co16 Co20 2.364026 1_455
Co16 Co21 2.364026 1_565
Co16 Co9 2.476734 1_555
Co16 Co6 2.476734 1_555
Co16 Y1 3.049538 1_565
Co16 Y2 3.143774 1_555
Co16 Y0 3.187682 1_565
Co17 Co19 2.364026 1_455
Co17 Co21 2.364040 1_555
Co17 Co8 2.476731 1_555
Co17 Co4 2.476735 1_555
Co17 Y1 3.049544 1_555
Co17 Y2 3.143774 1_555
Co17 Y0 3.187687 1_555
Co18 Co19 2.364026 1_565
Co18 Co20 2.364040 1_555
Co18 Co5 2.476731 1_555
Co18 Co7 2.476735 1_555
Co18 Y1 3.049544 1_665
Co18 Y2 3.143774 1_555
Co18 Y0 3.187687 1_665
Co19 Co8 2.596837 1_655
Co19 Co5 2.596837 1_545
Co19 Y0 3.049538 1_655
Co19 Y3 3.143774 1_555
Co19 Y1 3.187682 1_655
Co20 Co6 2.596835 1_655
Co20 Co7 2.596840 1_555
Co20 Y0 3.049544 1_665
Co20 Y3 3.143774 1_555
Co20 Y1 3.187687 1_665
Co21 Co9 2.596835 1_545
Co21 Co4 2.596840 1_555
Co21 Y0 3.049544 1_555
Co21 Y3 3.143774 1_555
Co21 Y1 3.187687 1_555
Co22 Co27 2.364026 1_544
Co22 Co26 2.364026 1_654
Co22 Co8 2.596837 1_655
Co22 Co5 2.596837 1_545
Co22 Y0 3.049538 1_655
Co22 Y3 3.143774 1_555
Co22 Y1 3.187682 1_654
Co23 Co25 2.364026 1_654
Co23 Co27 2.364040 1_554
Co23 Co6 2.596835 1_655
Co23 Co7 2.596840 1_555
Co23 Y0 3.049544 1_665
Co23 Y3 3.143774 1_555
Co23 Y1 3.187687 1_664
Co24 Co25 2.364026 1_544
Co24 Co26 2.364040 1_554
Co24 Co9 2.596835 1_545
Co24 Co4 2.596840 1_555
Co24 Y0 3.049544 1_555
Co24 Y3 3.143774 1_555
Co24 Y1 3.187687 1_554
Co25 Co9 2.476734 1_556
Co25 Co6 2.476734 1_556
Co25 Co3 2.672529 1_556
Co25 Y1 3.049538 1_565
Co25 Y2 3.143774 1_555
Co25 Y0 3.187682 1_566
Co26 Co8 2.476731 1_556
Co26 Co4 2.476735 1_556
Co26 Co3 2.672529 1_556
Co26 Y1 3.049544 1_555
Co26 Y2 3.143774 1_555
Co26 Y0 3.187687 1_556
Co27 Co5 2.476731 1_556
Co27 Co7 2.476735 1_556
Co27 Co3 2.672529 1_556
Co27 Y1 3.049544 1_665
Co27 Y2 3.143774 1_555
Co27 Y0 3.187687 1_666
