# generated using pymatgen
data_Cs5Ga3Se7
_symmetry_space_group_name_H-M   'P 1'
_cell_length_a   11.24742559
_cell_length_b   11.24742559
_cell_length_c   9.76109236
_cell_angle_alpha   75.36004170
_cell_angle_beta   75.36004170
_cell_angle_gamma   70.74504296
_symmetry_Int_Tables_number   1
_chemical_formula_structural   Cs5Ga3Se7
_chemical_formula_sum   'Cs10 Ga6 Se14'
_cell_volume   1108.33348638
_cell_formula_units_Z   2
loop_
 _symmetry_equiv_pos_site_id
 _symmetry_equiv_pos_as_xyz
  1  'x, y, z'
loop_
 _atom_site_type_symbol
 _atom_site_label
 _atom_site_symmetry_multiplicity
 _atom_site_fract_x
 _atom_site_fract_y
 _atom_site_fract_z
 _atom_site_occupancy
  Cs  Cs0  1  0.02507990  0.43891596  0.71880633  1
  Cs  Cs1  1  0.43891596  0.02507990  0.71880633  1
  Cs  Cs2  1  0.97492010  0.56108404  0.28119367  1
  Cs  Cs3  1  0.56108404  0.97492010  0.28119367  1
  Cs  Cs4  1  0.28660510  0.71339490  -0.00000000  1
  Cs  Cs5  1  0.71339490  0.28660510  -0.00000000  1
  Cs  Cs6  1  0.84950016  0.15049984  0.50000000  1
  Cs  Cs7  1  0.15049984  0.84950016  0.50000000  1
  Cs  Cs8  1  0.42510077  0.42510077  0.69290122  1
  Cs  Cs9  1  0.57489923  0.57489923  0.30709878  1
  Ga  Ga0  1  0.21321781  0.21321781  0.18318077  1
  Ga  Ga1  1  0.78678219  0.78678219  0.81681923  1
  Ga  Ga2  1  0.07169177  0.07169177  0.05763274  1
  Ga  Ga3  1  0.92830823  0.92830823  0.94236726  1
  Ga  Ga4  1  0.34727907  0.34727907  0.33533816  1
  Ga  Ga5  1  0.65272093  0.65272093  0.66466184  1
  Se  Se0  1  0.00243467  0.28508348  0.11418869  1
  Se  Se1  1  0.28508348  0.00243467  0.11418869  1
  Se  Se2  1  0.99756533  0.71491652  0.88581131  1
  Se  Se3  1  0.71491652  0.99756533  0.88581131  1
  Se  Se4  1  0.20415182  0.20415182  0.43333663  1
  Se  Se5  1  0.79584818  0.79584818  0.56666337  1
  Se  Se6  1  0.06457078  0.06457078  0.81325387  1
  Se  Se7  1  0.93542922  0.93542922  0.18674613  1
  Se  Se8  1  0.35026355  0.35026355  0.07647842  1
  Se  Se9  1  0.64973645  0.64973645  0.92352158  1
  Se  Se10  1  0.25037981  0.55384880  0.39439203  1
  Se  Se11  1  0.55384880  0.25037981  0.39439203  1
  Se  Se12  1  0.74962019  0.44615120  0.60560797  1
  Se  Se13  1  0.44615120  0.74962019  0.60560797  1
loop_
_geom_bond_atom_site_label_1
_geom_bond_atom_site_label_2
_geom_bond_distance
_geom_bond_site_symmetry_2
Cs0 Se12 3.513567 1_455
Cs0 Se2 3.749561 1_455
Cs0 Se10 3.762325 1_555
Cs0 Se0 3.790985 1_556
Cs0 Se6 3.973194 1_555
Cs0 Se4 4.020952 1_555
Cs0 Se5 4.130952 1_455
Cs1 Se13 3.513567 1_545
Cs1 Se3 3.749561 1_545
Cs1 Se11 3.762325 1_555
Cs1 Se1 3.790985 1_556
Cs1 Se6 3.973194 1_555
Cs1 Se4 4.020952 1_555
Cs1 Se5 4.130952 1_545
Cs2 Se10 3.513567 1_655
Cs2 Se0 3.749561 1_655
Cs2 Se12 3.762325 1_555
Cs2 Se2 3.790985 1_554
Cs2 Se7 3.973194 1_555
Cs2 Se5 4.020952 1_555
Cs2 Se4 4.130952 1_655
Cs3 Se11 3.513567 1_565
Cs3 Se1 3.749561 1_565
Cs3 Se13 3.762325 1_555
Cs3 Se3 3.790985 1_554
Cs3 Se7 3.973194 1_555
Cs3 Se5 4.020952 1_555
Cs3 Se4 4.130952 1_565
Cs4 Se1 3.687364 1_565
Cs4 Se2 3.687364 1_454
Cs4 Se10 3.795217 1_555
Cs4 Se13 3.795217 1_554
Cs4 Se9 3.814658 1_554
Cs4 Se8 3.814658 1_555
Cs5 Se0 3.687364 1_655
Cs5 Se3 3.687364 1_544
Cs5 Se12 3.795217 1_554
Cs5 Se11 3.795217 1_555
Cs5 Se8 3.814658 1_555
Cs5 Se9 3.814658 1_554
Cs6 Se11 3.473609 1_555
Cs6 Se12 3.473609 1_555
Cs6 Se3 3.872171 1_545
Cs6 Se0 3.872171 1_655
Cs6 Se5 4.095862 1_545
Cs6 Se4 4.095862 1_655
Cs6 Se7 4.103440 1_545
Cs6 Se6 4.103440 1_655
Cs7 Se10 3.473609 1_555
Cs7 Se13 3.473609 1_555
Cs7 Se2 3.872171 1_455
Cs7 Se1 3.872171 1_565
Cs7 Se5 4.095862 1_455
Cs7 Se4 4.095862 1_565
Cs7 Se7 4.103440 1_455
Cs7 Se6 4.103440 1_565
Cs8 Se8 3.566048 1_556
Cs8 Se12 3.605625 1_555
Cs8 Se13 3.605625 1_555
Cs8 Se11 3.651521 1_555
Cs8 Se10 3.651521 1_555
Cs9 Se9 3.566048 1_554
Cs9 Se10 3.605625 1_555
Cs9 Se11 3.605625 1_555
Cs9 Se12 3.651521 1_555
Cs9 Se13 3.651521 1_555
Ga0 Se4 2.395473 1_555
Ga0 Se8 2.404305 1_555
Ga0 Se1 2.448553 1_555
Ga0 Se0 2.448553 1_555
Ga1 Se5 2.395473 1_555
Ga1 Se9 2.404305 1_555
Ga1 Se2 2.448553 1_555
Ga1 Se3 2.448553 1_555
Ga2 Se7 2.425393 1_445
Ga2 Se1 2.427212 1_555
Ga2 Se0 2.427212 1_555
Ga2 Se6 2.429067 1_554
Ga3 Se6 2.425393 1_665
Ga3 Se3 2.427212 1_555
Ga3 Se2 2.427212 1_555
Ga3 Se7 2.429067 1_556
Ga4 Se11 2.368017 1_555
Ga4 Se10 2.368017 1_555
Ga4 Se4 2.500086 1_555
Ga4 Se8 2.510325 1_555
Ga5 Se13 2.368017 1_555
Ga5 Se12 2.368017 1_555
Ga5 Se5 2.500086 1_555
Ga5 Se9 2.510325 1_555
