# generated using pymatgen
data_Sm3Co29(Si2B5)2
_symmetry_space_group_name_H-M   'P 1'
_cell_length_a   11.15799900
_cell_length_b   11.15799900
_cell_length_c   7.83892000
_cell_angle_alpha   90.00000000
_cell_angle_beta   90.00000000
_cell_angle_gamma   90.00000000
_symmetry_Int_Tables_number   1
_chemical_formula_structural   Sm3Co29(Si2B5)2
_chemical_formula_sum   'Sm6 Co58 Si8 B20'
_cell_volume   975.95292179
_cell_formula_units_Z   2
loop_
 _symmetry_equiv_pos_site_id
 _symmetry_equiv_pos_as_xyz
  1  'x, y, z'
loop_
 _atom_site_type_symbol
 _atom_site_label
 _atom_site_symmetry_multiplicity
 _atom_site_fract_x
 _atom_site_fract_y
 _atom_site_fract_z
 _atom_site_occupancy
  Sm  Sm0  1  0.25000000  0.75000000  0.00000000  1
  Sm  Sm1  1  0.25000000  0.25000000  0.00000000  1
  Sm  Sm2  1  0.75000000  0.75000000  0.00000000  1
  Sm  Sm3  1  0.75000000  0.25000000  0.00000000  1
  Sm  Sm4  1  0.00000000  0.00000000  0.50000000  1
  Sm  Sm5  1  0.50000000  0.50000000  0.50000000  1
  Co  Co0  1  0.33831200  0.67461500  0.33697500  1
  Co  Co1  1  0.27349100  0.00000000  0.52568900  1
  Co  Co2  1  0.50000000  0.77349100  0.52568900  1
  Co  Co3  1  0.50000000  0.22650900  0.52568900  1
  Co  Co4  1  0.83573800  0.50000000  0.97109500  1
  Co  Co5  1  0.00000000  0.66426200  0.97109500  1
  Co  Co6  1  0.00000000  0.33573800  0.97109500  1
  Co  Co7  1  0.16426200  0.50000000  0.97109500  1
  Co  Co8  1  0.66426200  0.00000000  0.02890500  1
  Co  Co9  1  0.33573800  0.00000000  0.02890500  1
  Co  Co10  1  0.50000000  0.83573800  0.02890500  1
  Co  Co11  1  0.50000000  0.16426200  0.02890500  1
  Co  Co12  1  0.88547800  0.38547800  0.25133000  1
  Co  Co13  1  0.88547800  0.61452200  0.25133000  1
  Co  Co14  1  0.11452200  0.38547800  0.25133000  1
  Co  Co15  1  0.11452200  0.61452200  0.25133000  1
  Co  Co16  1  0.61452200  0.88547800  0.74867000  1
  Co  Co17  1  0.38547800  0.11452200  0.74867000  1
  Co  Co18  1  0.38547800  0.88547800  0.74867000  1
  Co  Co19  1  0.61452200  0.11452200  0.74867000  1
  Co  Co20  1  0.89030600  0.39030600  0.69827700  1
  Co  Co21  1  0.89030600  0.60969400  0.69827700  1
  Co  Co22  1  0.10969400  0.39030600  0.69827700  1
  Co  Co23  1  0.10969400  0.60969400  0.69827700  1
  Co  Co24  1  0.60969400  0.89030600  0.30172300  1
  Co  Co25  1  0.39030600  0.10969400  0.30172300  1
  Co  Co26  1  0.39030600  0.89030600  0.30172300  1
  Co  Co27  1  0.60969400  0.10969400  0.30172300  1
  Co  Co28  1  0.33831200  0.32538500  0.33697500  1
  Co  Co29  1  0.82538500  0.16168800  0.33697500  1
  Co  Co30  1  0.17461500  0.83831200  0.33697500  1
  Co  Co31  1  0.66168800  0.67461500  0.33697500  1
  Co  Co32  1  0.16168800  0.82538500  0.66302500  1
  Co  Co33  1  0.83831200  0.17461500  0.66302500  1
  Co  Co34  1  0.32538500  0.33831200  0.66302500  1
  Co  Co35  1  0.61012200  0.50000000  0.88872800  1
  Co  Co36  1  0.16168800  0.17461500  0.66302500  1
  Co  Co37  1  0.67461500  0.33831200  0.66302500  1
  Co  Co38  1  0.32538500  0.66168800  0.66302500  1
  Co  Co39  1  0.83831200  0.82538500  0.66302500  1
  Co  Co40  1  0.72650900  0.00000000  0.52568900  1
  Co  Co41  1  0.00000000  0.88987800  0.88872800  1
  Co  Co42  1  0.17461500  0.16168800  0.33697500  1
  Co  Co43  1  0.82538500  0.83831200  0.33697500  1
  Co  Co44  1  0.00000000  0.11012200  0.88872800  1
  Co  Co45  1  0.38987800  0.50000000  0.88872800  1
  Co  Co46  1  0.50000000  0.00000000  0.53214000  1
  Co  Co47  1  0.00000000  0.50000000  0.46786000  1
  Co  Co48  1  0.11012200  0.00000000  0.11127200  1
  Co  Co49  1  0.22650900  0.50000000  0.47431100  1
  Co  Co50  1  0.00000000  0.27349100  0.47431100  1
  Co  Co51  1  0.00000000  0.72650900  0.47431100  1
  Co  Co52  1  0.77349100  0.50000000  0.47431100  1
  Co  Co53  1  0.50000000  0.61012200  0.11127200  1
  Co  Co54  1  0.50000000  0.38987800  0.11127200  1
  Co  Co55  1  0.88987800  0.00000000  0.11127200  1
  Co  Co56  1  0.67461500  0.66168800  0.66302500  1
  Co  Co57  1  0.66168800  0.32538500  0.33697500  1
  Si  Si0  1  0.50000000  0.68178000  0.82448900  1
  Si  Si1  1  0.31822000  0.50000000  0.17551100  1
  Si  Si2  1  0.00000000  0.18178000  0.17551100  1
  Si  Si3  1  0.00000000  0.81822000  0.17551100  1
  Si  Si4  1  0.68178000  0.50000000  0.17551100  1
  Si  Si5  1  0.18178000  0.00000000  0.82448900  1
  Si  Si6  1  0.81822000  0.00000000  0.82448900  1
  Si  Si7  1  0.50000000  0.31822000  0.82448900  1
  B  B0  1  0.68603900  0.18603900  0.51777700  1
  B  B1  1  0.31396100  0.81396100  0.51777700  1
  B  B2  1  0.31396100  0.18603900  0.51777700  1
  B  B3  1  0.68603900  0.81396100  0.51777700  1
  B  B4  1  0.18603900  0.68603900  0.48222300  1
  B  B5  1  0.18603900  0.31396100  0.48222300  1
  B  B6  1  0.50000000  0.25602100  0.26250100  1
  B  B7  1  0.50000000  0.74397900  0.26250100  1
  B  B8  1  0.24397900  0.00000000  0.26250100  1
  B  B9  1  0.75602100  0.00000000  0.26250100  1
  B  B10  1  0.25602100  0.50000000  0.73749900  1
  B  B11  1  0.00000000  0.24397900  0.73749900  1
  B  B12  1  0.00000000  0.75602100  0.73749900  1
  B  B13  1  0.74397900  0.50000000  0.73749900  1
  B  B14  1  0.50000000  0.00000000  0.14818700  1
  B  B15  1  0.00000000  0.50000000  0.85181300  1
  B  B16  1  0.50000000  0.00000000  0.89298900  1
  B  B17  1  0.00000000  0.50000000  0.10701100  1
  B  B18  1  0.81396100  0.68603900  0.48222300  1
  B  B19  1  0.81396100  0.31396100  0.48222300  1
loop_
_geom_bond_atom_site_label_1
_geom_bond_atom_site_label_2
_geom_bond_distance
_geom_bond_site_symmetry_2
Co0 Si1 2.334170 1_555
Co0 Sm0 2.942132 1_555
Co0 Sm5 2.946870 1_555
Co1 Co46 2.527893 1_555
Co1 Si5 2.556050 1_555
Co1 Sm4 3.058249 1_555
Co2 Co46 2.527893 1_565
Co2 Si0 2.556050 1_555
Co2 Sm5 3.058249 1_555
Co3 Co46 2.527893 1_555
Co3 Si7 2.556050 1_555
Co3 Sm5 3.058249 1_555
Co4 Si4 2.349200 1_556
Co4 Sm3 2.957677 1_556
Co4 Sm2 2.957677 1_556
Co5 Si3 2.349200 1_556
Co5 Sm0 2.957677 1_556
Co5 Sm2 2.957677 1_456
Co6 Si2 2.349200 1_556
Co6 Sm1 2.957677 1_556
Co6 Sm3 2.957677 1_456
Co7 Si1 2.349200 1_556
Co7 Sm1 2.957677 1_556
Co7 Sm0 2.957677 1_556
Co8 Si6 2.349200 1_554
Co8 Sm3 2.957677 1_555
Co8 Sm2 2.957677 1_545
Co9 Si5 2.349200 1_554
Co9 Sm0 2.957677 1_545
Co9 Sm1 2.957677 1_555
Co10 Si0 2.349200 1_554
Co10 Sm2 2.957677 1_555
Co10 Sm0 2.957677 1_555
Co11 Si7 2.349200 1_554
Co11 Sm1 2.957677 1_555
Co11 Sm3 2.957677 1_555
Co12 Co47 2.479267 1_655
Co12 Si4 2.674324 1_555
Co12 Si2 2.674324 1_655
Co12 Sm3 2.907192 1_555
Co13 Co47 2.479267 1_655
Co13 Si4 2.674324 1_555
Co13 Si3 2.674324 1_655
Co13 Sm2 2.907192 1_555
Co14 Co47 2.479267 1_555
Co14 Si2 2.674324 1_555
Co14 Si1 2.674324 1_555
Co14 Sm1 2.907192 1_555
Co15 Co47 2.479267 1_555
Co15 Si1 2.674324 1_555
Co15 Si3 2.674324 1_555
Co15 Sm0 2.907192 1_555
Co16 Co46 2.479267 1_565
Co16 Si0 2.674324 1_555
Co16 Si6 2.674324 1_565
Co16 Sm2 2.907192 1_556
Co17 Co46 2.479267 1_555
Co17 Si5 2.674324 1_555
Co17 Si7 2.674324 1_555
Co17 Sm1 2.907192 1_556
Co18 Co46 2.479267 1_565
Co18 Si0 2.674324 1_555
Co18 Si5 2.674324 1_565
Co18 Sm0 2.907192 1_556
Co19 Co46 2.479267 1_555
Co19 Si7 2.674324 1_555
Co19 Si6 2.674324 1_555
Co19 Sm3 2.907192 1_556
Co20 Co47 2.501723 1_655
Co20 Sm3 3.239735 1_556
Co21 Co47 2.501723 1_655
Co21 Sm2 3.239735 1_556
Co22 Co47 2.501723 1_555
Co22 Sm1 3.239735 1_556
Co23 Co47 2.501723 1_555
Co23 Sm0 3.239735 1_556
Co24 Co46 2.501723 1_565
Co24 Sm2 3.239735 1_555
Co25 Co46 2.501723 1_555
Co25 Sm1 3.239735 1_555
Co26 Co46 2.501723 1_565
Co26 Sm0 3.239735 1_555
Co27 Co46 2.501723 1_555
Co27 Sm3 3.239735 1_555
Co28 Si1 2.334170 1_555
Co28 Sm1 2.942132 1_555
Co28 Sm5 2.946870 1_555
Co29 Si2 2.334170 1_655
Co29 Sm3 2.942132 1_555
Co29 Sm4 2.946870 1_655
Co30 Si3 2.334170 1_555
Co30 Sm0 2.942132 1_555
Co30 Sm4 2.946870 1_565
Co31 Si4 2.334170 1_555
Co31 Sm2 2.942132 1_555
Co31 Sm5 2.946870 1_555
Co32 Si5 2.334170 1_565
Co32 Sm0 2.942132 1_556
Co32 Sm4 2.946870 1_565
Co33 Si6 2.334170 1_555
Co33 Sm3 2.942132 1_556
Co33 Sm4 2.946870 1_655
Co34 Si7 2.334170 1_555
Co34 Sm1 2.942132 1_556
Co34 Sm5 2.946870 1_555
Co35 Si4 2.386024 1_556
Co35 Si7 2.424332 1_555
Co35 Si0 2.424332 1_555
Co35 Sm2 3.313322 1_556
Co35 Sm3 3.313322 1_556
Co36 Si5 2.334170 1_555
Co36 Sm1 2.942132 1_556
Co36 Sm4 2.946870 1_555
Co37 Si7 2.334170 1_555
Co37 Sm3 2.942132 1_556
Co37 Sm5 2.946870 1_555
Co38 Si0 2.334170 1_555
Co38 Sm0 2.942132 1_556
Co38 Sm5 2.946870 1_555
Co39 Si6 2.334170 1_565
Co39 Sm2 2.942132 1_556
Co39 Sm4 2.946870 1_665
Co40 Co46 2.527893 1_555
Co40 Si6 2.556050 1_555
Co40 Sm4 3.058249 1_655
Co41 Si3 2.386024 1_556
Co41 Si6 2.424332 1_465
Co41 Si5 2.424332 1_565
Co41 Sm0 3.313322 1_556
Co41 Sm2 3.313322 1_456
Co42 Si2 2.334170 1_555
Co42 Sm1 2.942132 1_555
Co42 Sm4 2.946870 1_555
Co43 Si3 2.334170 1_655
Co43 Sm2 2.942132 1_555
Co43 Sm4 2.946870 1_665
Co44 Si2 2.386024 1_556
Co44 Si6 2.424332 1_455
Co44 Si5 2.424332 1_555
Co44 Sm1 3.313322 1_556
Co44 Sm3 3.313322 1_456
Co45 Si1 2.386024 1_556
Co45 Si7 2.424332 1_555
Co45 Si0 2.424332 1_555
Co45 Sm1 3.313322 1_556
Co45 Sm0 3.313322 1_556
Co47 Co51 2.527893 1_555
Co47 Co49 2.527893 1_555
Co47 Co50 2.527893 1_555
Co47 Co52 2.527893 1_455
Co48 Si5 2.386024 1_554
Co48 Si3 2.424332 1_545
Co48 Si2 2.424332 1_555
Co48 Sm1 3.313322 1_555
Co48 Sm0 3.313322 1_545
Co49 Si1 2.556050 1_555
Co49 Sm5 3.058249 1_555
Co50 Si2 2.556050 1_555
Co50 Sm4 3.058249 1_555
Co51 Si3 2.556050 1_555
Co51 Sm4 3.058249 1_565
Co52 Si4 2.556050 1_555
Co52 Sm5 3.058249 1_555
Co53 Si0 2.386024 1_554
Co53 Si1 2.424332 1_555
Co53 Si4 2.424332 1_555
Co53 Sm0 3.313322 1_555
Co53 Sm2 3.313322 1_555
Co54 Si7 2.386024 1_554
Co54 Si1 2.424332 1_555
Co54 Si4 2.424332 1_555
Co54 Sm1 3.313322 1_555
Co54 Sm3 3.313322 1_555
Co55 Si6 2.386024 1_554
Co55 Si3 2.424332 1_645
Co55 Si2 2.424332 1_655
Co55 Sm2 3.313322 1_545
Co55 Sm3 3.313322 1_555
Co56 Si0 2.334170 1_555
Co56 Sm2 2.942132 1_556
Co56 Sm5 2.946870 1_555
Co57 Si4 2.334170 1_555
Co57 Sm3 2.942132 1_555
Co57 Sm5 2.946870 1_555
Si0 Sm2 3.202125 1_556
Si0 Sm0 3.202125 1_556
Si0 Sm5 3.253325 1_555
Si1 Sm1 3.202125 1_555
Si1 Sm0 3.202125 1_555
Si1 Sm5 3.253325 1_555
Si2 Sm1 3.202125 1_555
Si2 Sm3 3.202125 1_455
Si2 Sm4 3.253325 1_555
Si3 Sm2 3.202125 1_455
Si3 Sm0 3.202125 1_555
Si3 Sm4 3.253325 1_565
Si4 Sm3 3.202125 1_555
Si4 Sm2 3.202125 1_555
Si4 Sm5 3.253325 1_555
Si5 Sm0 3.202125 1_546
Si5 Sm1 3.202125 1_556
Si5 Sm4 3.253325 1_555
Si6 Sm3 3.202125 1_556
Si6 Sm2 3.202125 1_546
Si6 Sm4 3.253325 1_655
Si7 Sm1 3.202125 1_556
Si7 Sm3 3.202125 1_556
Si7 Sm5 3.253325 1_555
B0 B19 2.037732 1_555
B0 Co33 2.049254 1_555
B0 Co37 2.049254 1_555
B0 Co27 2.078390 1_555
B0 Co29 2.121324 1_555
B0 Co57 2.121324 1_555
B0 Co40 2.125276 1_555
B0 Co3 2.125276 1_555
B0 Co19 2.132953 1_555
B1 B4 2.037732 1_555
B1 Co32 2.049254 1_555
B1 Co38 2.049254 1_555
B1 Co26 2.078390 1_555
B1 Co0 2.121324 1_555
B1 Co30 2.121324 1_555
B1 Co2 2.125276 1_555
B1 Co1 2.125276 1_565
B1 Co18 2.132953 1_555
B2 B5 2.037732 1_555
B2 Co36 2.049254 1_555
B2 Co34 2.049254 1_555
B2 Co25 2.078390 1_555
B2 Co42 2.121324 1_555
B2 Co28 2.121324 1_555
B2 Co1 2.125276 1_555
B2 Co3 2.125276 1_555
B2 Co17 2.132953 1_555
B3 Co39 2.049254 1_555
B3 Co56 2.049254 1_555
B3 Co24 2.078390 1_555
B3 Co31 2.121324 1_555
B3 Co43 2.121324 1_555
B3 Co2 2.125276 1_555
B3 Co40 2.125276 1_565
B3 Co16 2.132953 1_555
B4 Co30 2.049254 1_555
B4 Co0 2.049254 1_555
B4 Co23 2.078390 1_555
B4 Co32 2.121324 1_555
B4 Co38 2.121324 1_555
B4 Co51 2.125276 1_555
B4 Co49 2.125276 1_555
B4 Co15 2.132953 1_555
B5 Co42 2.049254 1_555
B5 Co28 2.049254 1_555
B5 Co22 2.078390 1_555
B5 Co36 2.121324 1_555
B5 Co34 2.121324 1_555
B5 Co50 2.125276 1_555
B5 Co49 2.125276 1_555
B5 Co14 2.132953 1_555
B6 Co54 1.906860 1_555
B6 Co57 2.048088 1_555
B6 Co28 2.048088 1_555
B6 Co27 2.063586 1_555
B6 Co25 2.063586 1_555
B6 Co3 2.089224 1_555
B6 Co11 2.097936 1_555
B7 Co53 1.906860 1_555
B7 Co31 2.048088 1_555
B7 Co0 2.048088 1_555
B7 Co24 2.063586 1_555
B7 Co26 2.063586 1_555
B7 Co2 2.089224 1_555
B7 Co10 2.097936 1_555
B8 Co48 1.906860 1_555
B8 Co42 2.048088 1_555
B8 Co30 2.048088 1_545
B8 Co25 2.063586 1_555
B8 Co26 2.063586 1_545
B8 Co1 2.089224 1_555
B8 Co9 2.097936 1_555
B9 Co55 1.906860 1_555
B9 Co29 2.048088 1_555
B9 Co43 2.048088 1_545
B9 Co27 2.063586 1_555
B9 Co24 2.063586 1_545
B9 Co40 2.089224 1_555
B9 Co8 2.097936 1_555
B10 Co45 1.906860 1_555
B10 Co38 2.048088 1_555
B10 Co34 2.048088 1_555
B10 Co23 2.063586 1_555
B10 Co22 2.063586 1_555
B10 Co49 2.089224 1_555
B10 Co7 2.097936 1_555
B11 Co44 1.906860 1_555
B11 Co36 2.048088 1_555
B11 Co33 2.048088 1_455
B11 Co22 2.063586 1_555
B11 Co20 2.063586 1_455
B11 Co50 2.089224 1_555
B11 Co6 2.097936 1_555
B12 Co41 1.906860 1_555
B12 Co32 2.048088 1_555
B12 Co39 2.048088 1_455
B12 Co23 2.063586 1_555
B12 Co21 2.063586 1_455
B12 Co51 2.089224 1_555
B12 Co5 2.097936 1_555
B13 Co35 1.906860 1_555
B13 Co56 2.048088 1_555
B13 Co37 2.048088 1_555
B13 Co21 2.063586 1_555
B13 Co20 2.063586 1_555
B13 Co52 2.089224 1_555
B13 Co4 2.097936 1_555
B14 B16 2.000477 1_554
B14 Co11 2.057569 1_555
B14 Co8 2.057569 1_555
B14 Co9 2.057569 1_555
B14 Co10 2.057569 1_545
B14 Co25 2.108253 1_555
B14 Co27 2.108253 1_555
B14 Co24 2.108253 1_545
B14 Co26 2.108253 1_545
B15 B17 2.000477 1_556
B15 Co7 2.057569 1_555
B15 Co6 2.057569 1_555
B15 Co4 2.057569 1_455
B15 Co5 2.057569 1_555
B15 Co23 2.108253 1_555
B15 Co22 2.108253 1_555
B15 Co20 2.108253 1_455
B15 Co21 2.108253 1_455
B16 Co11 2.120008 1_556
B16 Co8 2.120008 1_556
B16 Co10 2.120008 1_546
B16 Co9 2.120008 1_556
B16 Co16 2.132037 1_545
B16 Co19 2.132037 1_555
B16 Co17 2.132037 1_555
B16 Co18 2.132037 1_545
B17 Co7 2.120008 1_554
B17 Co4 2.120008 1_454
B17 Co5 2.120008 1_554
B17 Co6 2.120008 1_554
B17 Co13 2.132037 1_455
B17 Co15 2.132037 1_555
B17 Co14 2.132037 1_555
B17 Co12 2.132037 1_455
B18 B3 2.037732 1_555
B18 Co43 2.049254 1_555
B18 Co31 2.049254 1_555
B18 Co21 2.078390 1_555
B18 Co39 2.121324 1_555
B18 Co56 2.121324 1_555
B18 Co52 2.125276 1_555
B18 Co51 2.125276 1_655
B18 Co13 2.132953 1_555
B19 Co57 2.049254 1_555
B19 Co29 2.049254 1_555
B19 Co20 2.078390 1_555
B19 Co37 2.121324 1_555
B19 Co33 2.121324 1_555
B19 Co52 2.125276 1_555
B19 Co50 2.125276 1_655
B19 Co12 2.132953 1_555
