# generated using pymatgen
data_Li3MnCoO5
_symmetry_space_group_name_H-M   'P 1'
_cell_length_a   4.98146800
_cell_length_b   5.93708706
_cell_length_c   6.62068185
_cell_angle_alpha   103.22043410
_cell_angle_beta   96.90065563
_cell_angle_gamma   106.56596870
_symmetry_Int_Tables_number   1
_chemical_formula_structural   Li3MnCoO5
_chemical_formula_sum   'Li6 Mn2 Co2 O10'
_cell_volume   179.06656312
_cell_formula_units_Z   2
loop_
 _symmetry_equiv_pos_site_id
 _symmetry_equiv_pos_as_xyz
  1  'x, y, z'
loop_
 _atom_site_type_symbol
 _atom_site_label
 _atom_site_symmetry_multiplicity
 _atom_site_fract_x
 _atom_site_fract_y
 _atom_site_fract_z
 _atom_site_occupancy
  Li  Li0  1  0.89343400  0.79680800  0.30399600  1
  Li  Li1  1  0.70170000  0.40144200  0.89220100  1
  Li  Li2  1  0.10656600  0.20319200  0.69600400  1
  Li  Li3  1  0.29830000  0.59855800  0.10779900  1
  Li  Li4  1  0.50000000  0.00000000  0.50000000  1
  Li  Li5  1  0.50000000  0.50000000  0.50000000  1
  Mn  Mn0  1  0.69922800  0.89835700  0.89719200  1
  Mn  Mn1  1  0.30077200  0.10164300  0.10280800  1
  Co  Co0  1  0.09479200  0.68786900  0.68660000  1
  Co  Co1  1  0.90520800  0.31213100  0.31340000  1
  O  O0  1  0.99443400  0.77594900  0.99733700  1
  O  O1  1  0.82258900  0.35475900  0.59857300  1
  O  O2  1  0.18838400  0.14864000  0.37124100  1
  O  O3  1  0.40732300  0.58614700  0.80871100  1
  O  O4  1  0.58640300  0.95658600  0.17975000  1
  O  O5  1  0.81161600  0.85136000  0.62875900  1
  O  O6  1  0.59267700  0.41385300  0.19128900  1
  O  O7  1  0.00556600  0.22405100  0.00266300  1
  O  O8  1  0.17741100  0.64524100  0.40142700  1
  O  O9  1  0.41359700  0.04341400  0.82025000  1
loop_
_geom_bond_atom_site_label_1
_geom_bond_atom_site_label_2
_geom_bond_distance
_geom_bond_site_symmetry_2
Li0 O8 1.999786 1_655
Li0 O2 2.094670 1_665
Li0 O0 2.134607 1_554
Li0 O4 2.190373 1_555
Li0 O5 2.204881 1_555
Li0 O6 2.232436 1_555
Li1 O1 2.085358 1_555
Li1 O6 2.106167 1_556
Li1 O9 2.106649 1_555
Li1 O3 2.158238 1_555
Li1 O0 2.180392 1_555
Li1 O7 2.220518 1_656
Li2 O1 1.999786 1_455
Li2 O5 2.094670 1_445
Li2 O7 2.134607 1_556
Li2 O9 2.190373 1_555
Li2 O2 2.204881 1_555
Li2 O3 2.232436 1_555
Li3 O8 2.085358 1_555
Li3 O3 2.106167 1_554
Li3 O4 2.106649 1_555
Li3 O6 2.158238 1_555
Li3 O7 2.180392 1_555
Li3 O0 2.220518 1_454
Li4 O1 2.152601 1_555
Li4 O8 2.152601 1_545
Li4 O5 2.173114 1_545
Li4 O2 2.173114 1_555
Li4 O4 2.186284 1_545
Li4 O9 2.186284 1_555
Li5 O2 2.123693 1_555
Li5 O5 2.123693 1_555
Li5 O3 2.129650 1_555
Li5 O6 2.129650 1_555
Li5 O1 2.132465 1_555
Li5 O8 2.132465 1_555
Mn0 O5 1.910791 1_555
Mn0 O3 1.911846 1_555
Mn0 O0 1.930244 1_555
Mn0 O9 1.936746 1_565
Mn0 O7 1.999772 1_666
Mn0 O4 2.000663 1_556
Mn1 O2 1.910791 1_555
Mn1 O6 1.911846 1_555
Mn1 O7 1.930244 1_555
Mn1 O4 1.936746 1_545
Mn1 O0 1.999772 1_444
Mn1 O9 2.000663 1_554
Co0 O8 1.955937 1_555
Co0 O1 1.960438 1_455
Co0 O3 1.974638 1_555
Co0 O5 1.974771 1_455
Co0 O9 2.158084 1_565
Co0 O0 2.158699 1_455
Co1 O1 1.955937 1_555
Co1 O8 1.960438 1_655
Co1 O6 1.974638 1_555
Co1 O2 1.974771 1_655
Co1 O4 2.158084 1_545
Co1 O7 2.158699 1_655
