# generated using pymatgen
data_U2TeSeS2
_symmetry_space_group_name_H-M   'P 1'
_cell_length_a   3.80534200
_cell_length_b   6.77791300
_cell_length_c   11.09880400
_cell_angle_alpha   90.00000000
_cell_angle_beta   90.00000000
_cell_angle_gamma   90.00000000
_symmetry_Int_Tables_number   1
_chemical_formula_structural   U2TeSeS2
_chemical_formula_sum   'U4 Te2 Se2 S4'
_cell_volume   286.26342726
_cell_formula_units_Z   2
loop_
 _symmetry_equiv_pos_site_id
 _symmetry_equiv_pos_as_xyz
  1  'x, y, z'
loop_
 _atom_site_type_symbol
 _atom_site_label
 _atom_site_symmetry_multiplicity
 _atom_site_fract_x
 _atom_site_fract_y
 _atom_site_fract_z
 _atom_site_occupancy
  U  U0  1  0.75000000  0.18350300  0.66963000  1
  U  U1  1  0.75000000  0.68350300  0.83037000  1
  U  U2  1  0.25000000  0.79446800  0.34512400  1
  U  U3  1  0.25000000  0.29446800  0.15487600  1
  Te  Te0  1  0.25000000  0.24642700  0.45888600  1
  Te  Te1  1  0.25000000  0.74642700  0.04111400  1
  Se  Se0  1  0.75000000  0.78656100  0.53855700  1
  Se  Se1  1  0.75000000  0.28656100  0.96144300  1
  S  S0  1  0.75000000  0.02859300  0.23893200  1
  S  S1  1  0.75000000  0.52859300  0.26106800  1
  S  S2  1  0.25000000  0.96044800  0.76901800  1
  S  S3  1  0.25000000  0.46044800  0.73098200  1
loop_
_geom_bond_atom_site_label_1
_geom_bond_atom_site_label_2
_geom_bond_distance
_geom_bond_site_symmetry_2
Te0 U0 3.045161 1_555
Te0 U0 3.045161 1_455
Te0 U2 3.313346 1_545
Te0 U3 3.389823 1_555
Te1 U1 3.045161 1_554
Te1 U1 3.045161 1_454
Te1 U3 3.313346 1_555
Te1 U2 3.389823 1_555
Se0 U2 2.869164 1_655
Se0 U2 2.869164 1_555
Se0 U0 3.058556 1_565
Se0 U1 3.313245 1_555
Se1 U3 2.869164 1_656
Se1 U3 2.869164 1_556
Se1 U1 3.058556 1_555
Se1 U0 3.313245 1_555
S0 U2 2.743620 1_545
S0 U2 2.743620 1_645
S0 U3 2.781723 1_655
S0 U3 2.781723 1_555
S1 U3 2.743620 1_655
S1 U3 2.743620 1_555
S1 U2 2.781723 1_555
S1 U2 2.781723 1_655
S2 U0 2.668828 1_565
S2 U0 2.668828 1_465
S2 U1 2.758145 1_555
S2 U1 2.758145 1_455
S3 U1 2.668828 1_555
S3 U1 2.668828 1_455
S3 U0 2.758145 1_555
S3 U0 2.758145 1_455
