# generated using pymatgen
data_Mg149Se
_symmetry_space_group_name_H-M   'P 1'
_cell_length_a   15.90994145
_cell_length_b   15.90994690
_cell_length_c   15.58524120
_cell_angle_alpha   90.00000266
_cell_angle_beta   89.99999835
_cell_angle_gamma   120.00022003
_symmetry_Int_Tables_number   1
_chemical_formula_structural   Mg149Se
_chemical_formula_sum   'Mg149 Se1'
_cell_volume   3416.49278789
_cell_formula_units_Z   1
loop_
 _symmetry_equiv_pos_site_id
 _symmetry_equiv_pos_as_xyz
  1  'x, y, z'
loop_
 _atom_site_type_symbol
 _atom_site_label
 _atom_site_symmetry_multiplicity
 _atom_site_fract_x
 _atom_site_fract_y
 _atom_site_fract_z
 _atom_site_occupancy
  Mg  Mg0  1  0.80060913  0.00163949  0.00000003  1
  Mg  Mg1  1  0.20102988  0.00163987  -0.00000000  1
  Mg  Mg2  1  0.20103039  0.19939096  -0.00000005  1
  Mg  Mg3  1  0.99835945  0.19939064  0.00000002  1
  Mg  Mg4  1  0.80013489  0.19986376  -0.00000004  1
  Mg  Mg5  1  0.39972858  0.19986467  0.00000005  1
  Mg  Mg6  1  0.60028947  0.20057844  0.00000008  1
  Mg  Mg7  1  0.19928306  0.39856578  0.00000026  1
  Mg  Mg8  1  0.79942197  0.39971157  0.00000000  1
  Mg  Mg9  1  0.60028990  0.39971110  -0.00000016  1
  Mg  Mg10  1  0.40033853  0.40066138  0.00000007  1
  Mg  Mg11  1  0.00032277  0.40066115  0.00000009  1
  Mg  Mg12  1  0.59933851  0.59966127  -0.00000008  1
  Mg  Mg13  1  0.00032315  0.59966158  0.00000008  1
  Mg  Mg14  1  0.39970899  0.60029003  0.00000000  1
  Mg  Mg15  1  0.20058130  0.60029108  -0.00000028  1
  Mg  Mg16  1  0.80013503  0.60027086  -0.00000002  1
  Mg  Mg17  1  0.80060899  0.79896875  -0.00000023  1
  Mg  Mg18  1  0.99836001  0.79897008  0.00000019  1
  Mg  Mg19  1  0.39970876  0.79941901  -0.00000012  1
  Mg  Mg20  1  0.19928280  0.80071755  0.00000002  1
  Mg  Mg21  1  0.60143431  0.80071708  -0.00000010  1
  Mg  Mg22  1  0.40033874  0.99967694  -0.00000008  1
  Mg  Mg23  1  0.59933866  0.99967719  0.00000010  1
  Mg  Mg24  1  0.06618055  0.33232199  0.16596123  1
  Mg  Mg25  1  0.26614242  0.33232330  0.16596112  1
  Mg  Mg26  1  0.66767676  0.73385755  0.16596115  1
  Mg  Mg27  1  0.06618083  0.73385783  0.16596115  1
  Mg  Mg28  1  0.66767672  0.93381897  0.16596113  1
  Mg  Mg29  1  0.26614252  0.93381923  0.16596101  1
  Mg  Mg30  1  0.26643648  0.53287379  0.16610867  1
  Mg  Mg31  1  0.26643645  0.73356270  0.16610887  1
  Mg  Mg32  1  0.46712594  0.73356351  0.16610858  1
  Mg  Mg33  1  0.66666697  0.33333301  0.16612898  1
  Mg  Mg34  1  0.66684173  0.13343434  0.16616816  1
  Mg  Mg35  1  0.46659284  0.13343442  0.16616778  1
  Mg  Mg36  1  0.86656541  0.33315819  0.16616789  1
  Mg  Mg37  1  0.46659258  0.33315852  0.16616795  1
  Mg  Mg38  1  0.86656571  0.53340723  0.16616804  1
  Mg  Mg39  1  0.66684165  0.53340731  0.16616802  1
  Mg  Mg40  1  0.46655413  0.53344605  0.16632982  1
  Mg  Mg41  1  0.06689174  0.53344588  0.16633017  1
  Mg  Mg42  1  0.46655439  0.93310841  0.16633022  1
  Mg  Mg43  1  0.06612750  0.13225596  0.16677992  1
  Mg  Mg44  1  0.86774379  0.93387240  0.16677990  1
  Mg  Mg45  1  0.06612772  0.93387225  0.16677964  1
  Mg  Mg46  1  0.26678125  0.13339110  0.16716687  1
  Mg  Mg47  1  0.86660898  0.13339113  0.16716697  1
  Mg  Mg48  1  0.86660917  0.73321902  0.16716696  1
  Mg  Mg49  1  -0.00000014  0.00000006  0.33161015  1
  Mg  Mg50  1  0.19983936  0.39967993  0.33249840  1
  Mg  Mg51  1  0.60031985  0.80015959  0.33249797  1
  Mg  Mg52  1  0.19983966  0.80015948  0.33249834  1
  Mg  Mg53  1  0.39977257  0.19988665  0.33283803  1
  Mg  Mg54  1  0.80011417  0.19988673  0.33283759  1
  Mg  Mg55  1  0.80011433  0.60022694  0.33283781  1
  Mg  Mg56  1  0.60017817  0.20035682  0.33283700  1
  Mg  Mg57  1  0.60017818  0.39982118  0.33283688  1
  Mg  Mg58  1  0.79964211  0.39982144  0.33283683  1
  Mg  Mg59  1  0.20030033  0.60014945  0.33283146  1
  Mg  Mg60  1  0.39985021  0.60015040  0.33283121  1
  Mg  Mg61  1  0.39985031  0.79969951  0.33283136  1
  Mg  Mg62  1  0.39989850  0.99989189  0.33316293  1
  Mg  Mg63  1  0.59999345  0.99989171  0.33316296  1
  Mg  Mg64  1  0.39989827  0.40000668  0.33316278  1
  Mg  Mg65  1  0.00010931  0.40000789  0.33316270  1
  Mg  Mg66  1  0.59999344  0.60010195  0.33316264  1
  Mg  Mg67  1  0.00010892  0.60010137  0.33316288  1
  Mg  Mg68  1  0.19982953  0.99989869  0.33379120  1
  Mg  Mg69  1  0.80006944  0.99989899  0.33379136  1
  Mg  Mg70  1  0.19982996  0.19993073  0.33379137  1
  Mg  Mg71  1  0.00010091  0.19993102  0.33379106  1
  Mg  Mg72  1  0.00010080  0.80017004  0.33379113  1
  Mg  Mg73  1  0.80006911  0.80017010  0.33379134  1
  Mg  Mg74  1  0.06643137  0.13286158  0.50000006  1
  Mg  Mg75  1  0.86663420  0.13336457  0.49999999  1
  Mg  Mg76  1  0.26673050  0.13336601  0.50000004  1
  Mg  Mg77  1  0.66655445  0.13317338  0.49999985  1
  Mg  Mg78  1  0.46661912  0.13317339  0.50000012  1
  Mg  Mg79  1  0.26643615  0.33323864  0.49999994  1
  Mg  Mg80  1  0.06680211  0.33323928  0.50000005  1
  Mg  Mg81  1  0.66666712  0.33333316  0.50000002  1
  Mg  Mg82  1  0.86682680  0.33344593  0.49999985  1
  Mg  Mg83  1  0.46661865  0.33344555  0.50000016  1
  Mg  Mg84  1  0.86682672  0.53338094  0.49999978  1
  Mg  Mg85  1  0.66655427  0.53338130  0.50000004  1
  Mg  Mg86  1  0.26652422  0.53304821  0.50000011  1
  Mg  Mg87  1  0.06671359  0.53335725  0.50000006  1
  Mg  Mg88  1  0.46664273  0.53335733  0.49999998  1
  Mg  Mg89  1  0.86663421  0.73326955  0.50000000  1
  Mg  Mg90  1  0.46695169  0.73347580  0.50000014  1
  Mg  Mg91  1  0.26652396  0.73347595  0.49999997  1
  Mg  Mg92  1  0.06680213  0.73356215  0.49999988  1
  Mg  Mg93  1  0.66676041  0.73356266  0.49999991  1
  Mg  Mg94  1  0.46664271  0.93328563  0.49999983  1
  Mg  Mg95  1  0.26643644  0.93319663  0.49999978  1
  Mg  Mg96  1  0.66676032  0.93319812  0.50000014  1
  Mg  Mg97  1  0.06643111  0.93356874  0.50000006  1
  Mg  Mg98  1  0.86713776  0.93356898  0.49999994  1
  Mg  Mg99  1  0.19982994  0.99989890  0.66620775  1
  Mg  Mg100  1  0.80006913  0.99989911  0.66620797  1
  Mg  Mg101  1  0.19982989  0.19993099  0.66620757  1
  Mg  Mg102  1  0.00010089  0.19993093  0.66620786  1
  Mg  Mg103  1  0.00010123  0.80017036  0.66620742  1
  Mg  Mg104  1  0.80006900  0.80017026  0.66620790  1
  Mg  Mg105  1  0.39989824  0.99989162  0.66683633  1
  Mg  Mg106  1  0.59999299  0.99989175  0.66683645  1
  Mg  Mg107  1  0.39989820  0.40000689  0.66683636  1
  Mg  Mg108  1  0.00010984  0.40000792  0.66683618  1
  Mg  Mg109  1  0.59999324  0.60010163  0.66683629  1
  Mg  Mg110  1  0.00010950  0.60010164  0.66683604  1
  Mg  Mg111  1  0.20030046  0.60015008  0.66716837  1
  Mg  Mg112  1  0.39985048  0.60015053  0.66716823  1
  Mg  Mg113  1  0.39984981  0.79969931  0.66716853  1
  Mg  Mg114  1  0.60017769  0.20035671  0.66716308  1
  Mg  Mg115  1  0.60017763  0.39982118  0.66716349  1
  Mg  Mg116  1  0.79964254  0.39982119  0.66716331  1
  Mg  Mg117  1  0.39977285  0.19988695  0.66716207  1
  Mg  Mg118  1  0.80011431  0.19988680  0.66716207  1
  Mg  Mg119  1  0.80011403  0.60022729  0.66716227  1
  Mg  Mg120  1  0.19984000  0.39968030  0.66750191  1
  Mg  Mg121  1  0.60032025  0.80015949  0.66750188  1
  Mg  Mg122  1  0.19983918  0.80015922  0.66750208  1
  Mg  Mg123  1  0.00000006  -0.00000003  0.66838858  1
  Mg  Mg124  1  0.26678091  0.13339109  0.83283293  1
  Mg  Mg125  1  0.86660893  0.13339084  0.83283285  1
  Mg  Mg126  1  0.86660910  0.73321868  0.83283289  1
  Mg  Mg127  1  0.06612764  0.13225613  0.83322028  1
  Mg  Mg128  1  0.86774369  0.93387236  0.83322026  1
  Mg  Mg129  1  0.06612770  0.93387264  0.83322034  1
  Mg  Mg130  1  0.46655419  0.53344587  0.83366890  1
  Mg  Mg131  1  0.06689143  0.53344568  0.83366899  1
  Mg  Mg132  1  0.46655430  0.93310843  0.83366892  1
  Mg  Mg133  1  0.66684155  0.13343420  0.83383207  1
  Mg  Mg134  1  0.46659287  0.13343428  0.83383219  1
  Mg  Mg135  1  0.86656596  0.33315857  0.83383208  1
  Mg  Mg136  1  0.46659283  0.33315858  0.83383212  1
  Mg  Mg137  1  0.86656582  0.53340758  0.83383215  1
  Mg  Mg138  1  0.66684134  0.53340700  0.83383208  1
  Mg  Mg139  1  0.66666672  0.33333315  0.83387204  1
  Mg  Mg140  1  0.26643656  0.53287386  0.83389161  1
  Mg  Mg141  1  0.26643613  0.73356275  0.83389107  1
  Mg  Mg142  1  0.46712594  0.73356347  0.83389100  1
  Mg  Mg143  1  0.06618076  0.33232213  0.83403905  1
  Mg  Mg144  1  0.26614244  0.33232301  0.83403883  1
  Mg  Mg145  1  0.66767662  0.73385748  0.83403857  1
  Mg  Mg146  1  0.06618122  0.73385782  0.83403899  1
  Mg  Mg147  1  0.66767663  0.93381917  0.83403886  1
  Mg  Mg148  1  0.26614237  0.93381909  0.83403887  1
  Se  Se0  1  -0.00000004  -0.00000012  -0.00000002  1
loop_
_geom_bond_atom_site_label_1
_geom_bond_atom_site_label_2
_geom_bond_distance
_geom_bond_site_symmetry_2
Mg0 Mg4 3.157517 1_555
Mg0 Mg28 3.169449 1_545
Mg0 Mg147 3.169451 1_544
Mg0 Mg47 3.175404 1_555
Mg0 Mg125 3.175405 1_554
Mg0 Mg21 3.182843 1_545
Mg0 Se0 3.185420 1_655
Mg0 Mg23 3.186706 1_545
Mg1 Mg5 3.157512 1_555
Mg1 Mg29 3.169459 1_545
Mg1 Mg148 3.169460 1_544
Mg1 Mg46 3.175400 1_555
Mg1 Mg124 3.175402 1_554
Mg1 Mg20 3.182856 1_545
Mg1 Se0 3.185408 1_555
Mg1 Mg22 3.186722 1_545
Mg2 Mg5 3.157515 1_555
Mg2 Mg25 3.169450 1_555
Mg2 Mg46 3.175400 1_555
Mg2 Mg7 3.182852 1_555
Mg2 Se0 3.185411 1_555
Mg3 Mg4 3.157512 1_555
Mg3 Mg47 3.175395 1_555
Mg3 Mg7 3.182855 1_655
Mg3 Se0 3.185427 1_655
Mg4 Mg47 3.184850 1_555
Mg4 Mg6 3.185229 1_555
Mg4 Mg8 3.185254 1_555
Mg5 Mg9 3.185237 1_555
Mg5 Mg6 3.185249 1_555
Mg6 Mg8 3.168181 1_555
Mg6 Mg9 3.168187 1_555
Mg8 Mg9 3.168176 1_555
Mg10 Mg12 3.166067 1_555
Mg10 Mg40 3.172894 1_555
Mg10 Mg130 3.172911 1_554
Mg10 Mg37 3.178599 1_555
Mg10 Mg136 3.178601 1_554
Mg10 Mg25 3.179531 1_555
Mg10 Mg144 3.179533 1_554
Mg10 Mg14 3.181101 1_555
Mg10 Mg7 3.182241 1_555
Mg10 Mg2 3.186695 1_555
Mg10 Mg9 3.188801 1_555
Mg10 Mg5 3.189824 1_555
Mg11 Mg13 3.166083 1_555
Mg11 Mg41 3.172899 1_555
Mg11 Mg131 3.172910 1_554
Mg11 Mg135 3.178596 1_454
Mg11 Mg36 3.178598 1_455
Mg11 Mg143 3.179541 1_554
Mg11 Mg24 3.179542 1_555
Mg11 Mg15 3.181103 1_555
Mg11 Mg7 3.182246 1_555
Mg11 Mg3 3.186700 1_455
Mg11 Mg8 3.188793 1_455
Mg11 Mg4 3.189827 1_455
Mg12 Mg40 3.172893 1_555
Mg12 Mg130 3.172907 1_554
Mg12 Mg138 3.178600 1_554
Mg12 Mg39 3.178603 1_555
Mg12 Mg26 3.179535 1_555
Mg12 Mg145 3.179536 1_554
Mg12 Mg14 3.181108 1_555
Mg12 Mg21 3.182246 1_555
Mg12 Mg17 3.186691 1_555
Mg12 Mg9 3.188792 1_555
Mg12 Mg16 3.189823 1_555
Mg13 Mg41 3.172899 1_555
Mg13 Mg131 3.172910 1_554
Mg13 Mg137 3.178599 1_454
Mg13 Mg38 3.178601 1_455
Mg13 Mg27 3.179532 1_555
Mg13 Mg146 3.179533 1_554
Mg13 Mg15 3.181100 1_555
Mg13 Mg20 3.182234 1_555
Mg13 Mg18 3.186719 1_455
Mg13 Mg8 3.188776 1_455
Mg13 Mg16 3.189839 1_455
Mg14 Mg15 3.168118 1_555
Mg14 Mg19 3.168133 1_555
Mg14 Mg140 3.173982 1_554
Mg14 Mg30 3.173986 1_555
Mg14 Mg32 3.173993 1_555
Mg14 Mg142 3.173998 1_554
Mg14 Mg40 3.180099 1_555
Mg14 Mg7 3.199133 1_555
Mg14 Mg21 3.199150 1_555
Mg15 Mg19 3.168100 1_555
Mg15 Mg31 3.173986 1_555
Mg15 Mg30 3.173993 1_555
Mg15 Mg41 3.180107 1_555
Mg15 Mg20 3.199154 1_555
Mg15 Mg7 3.199161 1_555
Mg16 Mg17 3.157509 1_555
Mg16 Mg18 3.157517 1_555
Mg16 Mg39 3.174885 1_555
Mg16 Mg38 3.174896 1_555
Mg16 Mg48 3.184857 1_555
Mg16 Mg9 3.185214 1_555
Mg16 Mg8 3.185230 1_555
Mg17 Mg26 3.169451 1_555
Mg17 Mg48 3.175397 1_555
Mg17 Mg21 3.182857 1_555
Mg17 Se0 3.185416 1_665
Mg18 Mg27 3.169456 1_655
Mg18 Mg48 3.175395 1_555
Mg18 Mg20 3.182860 1_655
Mg18 Se0 3.185408 1_665
Mg19 Mg31 3.173989 1_555
Mg19 Mg32 3.173992 1_555
Mg19 Mg42 3.180105 1_555
Mg19 Mg22 3.181093 1_555
Mg19 Mg23 3.181100 1_555
Mg19 Mg20 3.199145 1_555
Mg19 Mg21 3.199166 1_555
Mg20 Mg29 3.170727 1_555
Mg20 Mg27 3.170731 1_555
Mg20 Mg22 3.182231 1_555
Mg20 Mg31 3.182248 1_555
Mg21 Mg28 3.170732 1_555
Mg21 Mg26 3.170736 1_555
Mg21 Mg32 3.182241 1_555
Mg21 Mg23 3.182247 1_555
Mg22 Mg23 3.166075 1_555
Mg22 Mg42 3.172901 1_555
Mg22 Mg35 3.178600 1_565
Mg22 Mg29 3.179532 1_555
Mg22 Mg6 3.188785 1_565
Mg22 Mg5 3.189841 1_565
Mg23 Mg42 3.172895 1_555
Mg23 Mg34 3.178600 1_565
Mg23 Mg28 3.179536 1_555
Mg23 Mg6 3.188791 1_565
Mg23 Mg4 3.189807 1_565
Mg24 Mg3 3.169443 1_455
Mg24 Mg47 3.170133 1_455
Mg24 Mg7 3.170733 1_555
Mg24 Mg25 3.181371 1_555
Mg24 Mg50 3.182500 1_555
Mg24 Mg36 3.182540 1_455
Mg24 Mg43 3.182644 1_555
Mg24 Mg30 3.188407 1_555
Mg24 Mg71 3.188917 1_555
Mg24 Mg65 3.191750 1_555
Mg24 Mg41 3.194233 1_555
Mg25 Mg46 3.170151 1_555
Mg25 Mg7 3.170730 1_555
Mg25 Mg50 3.182512 1_555
Mg25 Mg37 3.182529 1_555
Mg25 Mg43 3.182658 1_555
Mg25 Mg30 3.188412 1_555
Mg25 Mg70 3.188935 1_555
Mg25 Mg64 3.191738 1_555
Mg25 Mg40 3.194205 1_555
Mg26 Mg48 3.170150 1_555
Mg26 Mg28 3.181376 1_555
Mg26 Mg51 3.182500 1_555
Mg26 Mg39 3.182532 1_555
Mg26 Mg44 3.182655 1_555
Mg26 Mg32 3.188416 1_555
Mg26 Mg73 3.188932 1_555
Mg26 Mg66 3.191734 1_555
Mg26 Mg40 3.194202 1_555
Mg27 Mg48 3.170160 1_455
Mg27 Mg29 3.181366 1_555
Mg27 Mg52 3.182500 1_555
Mg27 Mg38 3.182524 1_455
Mg27 Mg45 3.182667 1_555
Mg27 Mg31 3.188406 1_555
Mg27 Mg72 3.188932 1_555
Mg27 Mg67 3.191744 1_555
Mg27 Mg41 3.194219 1_555
Mg28 Mg47 3.170149 1_565
Mg28 Mg51 3.182500 1_555
Mg28 Mg34 3.182535 1_565
Mg28 Mg44 3.182656 1_555
Mg28 Mg32 3.188395 1_555
Mg28 Mg69 3.188935 1_555
Mg28 Mg63 3.191745 1_555
Mg28 Mg42 3.194212 1_555
Mg29 Mg46 3.170165 1_565
Mg29 Mg52 3.182510 1_555
Mg29 Mg35 3.182522 1_565
Mg29 Mg45 3.182671 1_555
Mg29 Mg31 3.188412 1_555
Mg29 Mg68 3.188936 1_555
Mg29 Mg62 3.191742 1_555
Mg29 Mg42 3.194216 1_555
Mg30 Mg50 3.176910 1_555
Mg30 Mg41 3.179308 1_555
Mg30 Mg40 3.179319 1_555
Mg30 Mg7 3.182235 1_555
Mg30 Mg59 3.182898 1_555
Mg30 Mg60 3.182907 1_555
Mg30 Mg32 3.192950 1_555
Mg30 Mg31 3.192950 1_555
Mg31 Mg52 3.176908 1_555
Mg31 Mg41 3.179297 1_555
Mg31 Mg42 3.179314 1_555
Mg31 Mg59 3.182904 1_555
Mg31 Mg61 3.182907 1_555
Mg31 Mg32 3.192952 1_555
Mg32 Mg51 3.176906 1_555
Mg32 Mg42 3.179307 1_555
Mg32 Mg40 3.179321 1_555
Mg32 Mg61 3.182897 1_555
Mg32 Mg60 3.182903 1_555
Mg33 Mg6 3.170096 1_555
Mg33 Mg8 3.170101 1_555
Mg33 Mg9 3.170108 1_555
Mg33 Mg58 3.179220 1_555
Mg33 Mg56 3.179231 1_555
Mg33 Mg57 3.179239 1_555
Mg33 Mg35 3.181762 1_555
Mg33 Mg38 3.181764 1_555
Mg33 Mg36 3.181764 1_555
Mg33 Mg34 3.181768 1_555
Mg33 Mg39 3.181783 1_555
Mg33 Mg37 3.181785 1_555
Mg34 Mg4 3.174885 1_555
Mg34 Mg36 3.177583 1_555
Mg34 Mg6 3.178106 1_555
Mg34 Mg47 3.178667 1_555
Mg34 Mg54 3.181095 1_555
Mg34 Mg56 3.183587 1_555
Mg34 Mg35 3.185949 1_555
Mg34 Mg42 3.186858 1_545
Mg34 Mg63 3.187384 1_545
Mg35 Mg5 3.174894 1_555
Mg35 Mg37 3.177602 1_555
Mg35 Mg6 3.178100 1_555
Mg35 Mg46 3.178684 1_555
Mg35 Mg53 3.181110 1_555
Mg35 Mg56 3.183582 1_555
Mg35 Mg42 3.186871 1_545
Mg35 Mg62 3.187388 1_545
Mg36 Mg4 3.174892 1_555
Mg36 Mg8 3.178107 1_555
Mg36 Mg47 3.178668 1_555
Mg36 Mg54 3.181091 1_555
Mg36 Mg58 3.183592 1_555
Mg36 Mg38 3.185949 1_555
Mg36 Mg41 3.186864 1_655
Mg36 Mg65 3.187394 1_655
Mg37 Mg5 3.174887 1_555
Mg37 Mg9 3.178110 1_555
Mg37 Mg46 3.178665 1_555
Mg37 Mg53 3.181099 1_555
Mg37 Mg57 3.183581 1_555
Mg37 Mg39 3.185939 1_555
Mg37 Mg40 3.186871 1_555
Mg37 Mg64 3.187387 1_555
Mg38 Mg39 3.177599 1_555
Mg38 Mg8 3.178096 1_555
Mg38 Mg48 3.178687 1_555
Mg38 Mg55 3.181092 1_555
Mg38 Mg58 3.183581 1_555
Mg38 Mg41 3.186869 1_655
Mg38 Mg67 3.187389 1_655
Mg39 Mg9 3.178103 1_555
Mg39 Mg48 3.178669 1_555
Mg39 Mg55 3.181102 1_555
Mg39 Mg57 3.183585 1_555
Mg39 Mg40 3.186872 1_555
Mg39 Mg66 3.187387 1_555
Mg40 Mg60 3.180041 1_555
Mg40 Mg66 3.184501 1_555
Mg40 Mg64 3.184503 1_555
Mg41 Mg59 3.180038 1_555
Mg41 Mg65 3.184487 1_555
Mg41 Mg67 3.184495 1_555
Mg42 Mg61 3.180039 1_555
Mg42 Mg63 3.184498 1_555
Mg42 Mg62 3.184503 1_555
Mg43 Mg49 3.149607 1_555
Mg43 Se0 3.174441 1_555
Mg43 Mg47 3.183402 1_455
Mg43 Mg46 3.183403 1_555
Mg43 Mg71 3.188887 1_555
Mg43 Mg70 3.188894 1_555
Mg44 Mg49 3.149608 1_665
Mg44 Se0 3.174441 1_665
Mg44 Mg48 3.183403 1_555
Mg44 Mg47 3.183404 1_565
Mg44 Mg69 3.188886 1_555
Mg44 Mg73 3.188893 1_555
Mg45 Mg49 3.149612 1_565
Mg45 Se0 3.174436 1_565
Mg45 Mg48 3.183389 1_455
Mg45 Mg46 3.183394 1_565
Mg45 Mg68 3.188890 1_555
Mg45 Mg72 3.188893 1_555
Mg46 Mg53 3.166159 1_555
Mg46 Mg70 3.182266 1_555
Mg46 Mg68 3.182273 1_545
Mg46 Mg5 3.184848 1_555
Mg47 Mg54 3.166148 1_555
Mg47 Mg71 3.182266 1_655
Mg47 Mg69 3.182272 1_545
Mg48 Mg55 3.166161 1_555
Mg48 Mg72 3.182264 1_655
Mg48 Mg73 3.182267 1_555
Mg49 Mg73 3.180257 1_445
Mg49 Mg70 3.180257 1_555
Mg49 Mg69 3.180259 1_445
Mg49 Mg68 3.180267 1_545
Mg49 Mg71 3.180269 1_555
Mg49 Mg72 3.180270 1_545
Mg49 Mg74 3.199785 1_555
Mg49 Mg98 3.199787 1_445
Mg49 Mg97 3.199796 1_545
Mg50 Mg71 3.177964 1_555
Mg50 Mg70 3.177988 1_555
Mg50 Mg65 3.180322 1_555
Mg50 Mg64 3.180346 1_555
Mg50 Mg59 3.185803 1_555
Mg50 Mg60 3.185818 1_555
Mg50 Mg80 3.189831 1_555
Mg50 Mg79 3.189840 1_555
Mg50 Mg86 3.192455 1_555
Mg51 Mg69 3.177977 1_555
Mg51 Mg73 3.177979 1_555
Mg51 Mg66 3.180330 1_555
Mg51 Mg63 3.180344 1_555
Mg51 Mg60 3.185798 1_555
Mg51 Mg61 3.185809 1_555
Mg51 Mg93 3.189840 1_555
Mg51 Mg96 3.189848 1_555
Mg51 Mg90 3.192459 1_555
Mg52 Mg72 3.177981 1_555
Mg52 Mg68 3.177985 1_555
Mg52 Mg67 3.180319 1_555
Mg52 Mg62 3.180338 1_555
Mg52 Mg59 3.185824 1_555
Mg52 Mg61 3.185827 1_555
Mg52 Mg95 3.189828 1_555
Mg52 Mg92 3.189832 1_555
Mg52 Mg91 3.192454 1_555
Mg53 Mg70 3.181461 1_555
Mg53 Mg68 3.181464 1_545
Mg53 Mg64 3.182904 1_555
Mg53 Mg62 3.182912 1_545
Mg53 Mg57 3.184691 1_555
Mg53 Mg56 3.184708 1_555
Mg53 Mg76 3.185538 1_555
Mg53 Mg83 3.189643 1_555
Mg53 Mg78 3.189653 1_555
Mg54 Mg71 3.181460 1_655
Mg54 Mg69 3.181473 1_545
Mg54 Mg63 3.182903 1_545
Mg54 Mg65 3.182908 1_655
Mg54 Mg58 3.184713 1_555
Mg54 Mg56 3.184716 1_555
Mg54 Mg75 3.185548 1_555
Mg54 Mg82 3.189647 1_555
Mg54 Mg77 3.189651 1_555
Mg55 Mg72 3.181453 1_655
Mg55 Mg73 3.181480 1_555
Mg55 Mg67 3.182906 1_655
Mg55 Mg66 3.182922 1_555
Mg55 Mg58 3.184691 1_555
Mg55 Mg57 3.184705 1_555
Mg55 Mg89 3.185545 1_555
Mg55 Mg84 3.189641 1_555
Mg55 Mg85 3.189653 1_555
Mg56 Mg58 3.173455 1_555
Mg56 Mg57 3.173467 1_555
Mg56 Mg81 3.185030 1_555
Mg56 Mg62 3.187907 1_545
Mg56 Mg63 3.187925 1_545
Mg56 Mg78 3.189663 1_555
Mg56 Mg77 3.189669 1_555
Mg57 Mg58 3.173457 1_555
Mg57 Mg81 3.185040 1_555
Mg57 Mg64 3.187922 1_555
Mg57 Mg66 3.187931 1_555
Mg57 Mg83 3.189669 1_555
Mg57 Mg85 3.189672 1_555
Mg58 Mg81 3.185021 1_555
Mg58 Mg67 3.187924 1_655
Mg58 Mg65 3.187943 1_655
Mg58 Mg84 3.189665 1_555
Mg58 Mg82 3.189675 1_555
Mg59 Mg61 3.174819 1_555
Mg59 Mg60 3.174819 1_555
Mg59 Mg65 3.184628 1_555
Mg59 Mg67 3.184655 1_555
Mg59 Mg86 3.187880 1_555
Mg59 Mg91 3.187886 1_555
Mg59 Mg87 3.189946 1_555
Mg60 Mg61 3.174815 1_555
Mg60 Mg66 3.184657 1_555
Mg60 Mg64 3.184663 1_555
Mg60 Mg90 3.187882 1_555
Mg60 Mg86 3.187886 1_555
Mg60 Mg88 3.189943 1_555
Mg61 Mg63 3.184650 1_555
Mg61 Mg62 3.184671 1_555
Mg61 Mg90 3.187881 1_555
Mg61 Mg91 3.187885 1_555
Mg61 Mg94 3.189940 1_555
Mg62 Mg68 3.183155 1_555
Mg62 Mg78 3.183302 1_565
Mg62 Mg63 3.183500 1_555
Mg62 Mg94 3.183850 1_555
Mg62 Mg95 3.184733 1_555
Mg63 Mg69 3.183154 1_555
Mg63 Mg77 3.183299 1_565
Mg63 Mg94 3.183848 1_555
Mg63 Mg96 3.184728 1_555
Mg64 Mg70 3.183141 1_555
Mg64 Mg83 3.183308 1_555
Mg64 Mg66 3.183493 1_555
Mg64 Mg88 3.183852 1_555
Mg64 Mg79 3.184737 1_555
Mg65 Mg71 3.183161 1_555
Mg65 Mg82 3.183309 1_455
Mg65 Mg67 3.183480 1_555
Mg65 Mg87 3.183843 1_555
Mg65 Mg80 3.184738 1_555
Mg66 Mg73 3.183137 1_555
Mg66 Mg85 3.183308 1_555
Mg66 Mg88 3.183854 1_555
Mg66 Mg93 3.184728 1_555
Mg67 Mg72 3.183162 1_555
Mg67 Mg84 3.183303 1_455
Mg67 Mg87 3.183840 1_555
Mg67 Mg92 3.184725 1_555
Mg68 Mg95 3.175527 1_555
Mg68 Mg97 3.176245 1_555
Mg68 Mg76 3.176790 1_565
Mg68 Mg72 3.177662 1_555
Mg68 Mg70 3.182496 1_565
Mg69 Mg96 3.175527 1_555
Mg69 Mg98 3.176244 1_555
Mg69 Mg75 3.176773 1_565
Mg69 Mg73 3.177673 1_555
Mg69 Mg71 3.182483 1_665
Mg70 Mg79 3.175515 1_555
Mg70 Mg74 3.176244 1_555
Mg70 Mg76 3.176775 1_555
Mg70 Mg71 3.177680 1_555
Mg71 Mg80 3.175523 1_555
Mg71 Mg74 3.176262 1_555
Mg71 Mg75 3.176786 1_455
Mg72 Mg92 3.175531 1_555
Mg72 Mg97 3.176248 1_555
Mg72 Mg89 3.176784 1_455
Mg72 Mg73 3.182493 1_455
Mg73 Mg93 3.175521 1_555
Mg73 Mg98 3.176245 1_555
Mg73 Mg89 3.176778 1_555
Mg74 Mg98 3.170732 1_445
Mg74 Mg97 3.170736 1_545
Mg74 Mg76 3.182742 1_555
Mg74 Mg75 3.182770 1_455
Mg74 Mg79 3.185020 1_555
Mg74 Mg80 3.185053 1_555
Mg75 Mg77 3.181737 1_555
Mg75 Mg82 3.181753 1_555
Mg75 Mg96 3.182302 1_545
Mg75 Mg80 3.182320 1_655
Mg75 Mg98 3.182751 1_545
Mg76 Mg99 3.176774 1_545
Mg76 Mg83 3.181722 1_555
Mg76 Mg78 3.181750 1_555
Mg76 Mg79 3.182307 1_555
Mg76 Mg95 3.182348 1_545
Mg76 Mg97 3.182755 1_545
Mg77 Mg94 3.180383 1_545
Mg77 Mg78 3.180959 1_555
Mg77 Mg96 3.183235 1_545
Mg77 Mg81 3.183636 1_555
Mg77 Mg82 3.186313 1_555
Mg78 Mg94 3.180391 1_545
Mg78 Mg95 3.183248 1_545
Mg78 Mg81 3.183631 1_555
Mg78 Mg83 3.186323 1_555
Mg79 Mg80 3.176171 1_555
Mg79 Mg86 3.178259 1_555
Mg79 Mg83 3.183247 1_555
Mg79 Mg88 3.184566 1_555
Mg80 Mg86 3.178248 1_555
Mg80 Mg82 3.183241 1_455
Mg80 Mg87 3.184571 1_555
Mg81 Mg84 3.183628 1_555
Mg81 Mg82 3.183632 1_555
Mg81 Mg85 3.183653 1_555
Mg81 Mg83 3.183654 1_555
Mg82 Mg87 3.180372 1_655
Mg82 Mg84 3.180956 1_555
Mg83 Mg88 3.180394 1_555
Mg83 Mg85 3.180955 1_555
Mg84 Mg87 3.180377 1_655
Mg84 Mg89 3.181750 1_555
Mg84 Mg92 3.183225 1_655
Mg84 Mg85 3.186326 1_555
Mg85 Mg88 3.180390 1_555
Mg85 Mg89 3.181726 1_555
Mg85 Mg93 3.183236 1_555
Mg86 Mg88 3.181418 1_555
Mg86 Mg87 3.181437 1_555
Mg86 Mg90 3.188780 1_555
Mg86 Mg91 3.188797 1_555
Mg87 Mg91 3.181417 1_555
Mg87 Mg92 3.184545 1_555
Mg88 Mg90 3.181419 1_555
Mg88 Mg93 3.184548 1_555
Mg89 Mg93 3.182315 1_555
Mg89 Mg92 3.182335 1_655
Mg89 Mg97 3.182750 1_655
Mg89 Mg98 3.182755 1_555
Mg90 Mg96 3.178247 1_555
Mg90 Mg93 3.178254 1_555
Mg90 Mg94 3.181425 1_555
Mg90 Mg91 3.188795 1_555
Mg91 Mg95 3.178242 1_555
Mg91 Mg92 3.178249 1_555
Mg91 Mg94 3.181412 1_555
Mg92 Mg95 3.176162 1_555
Mg92 Mg97 3.185050 1_555
Mg93 Mg96 3.176190 1_555
Mg93 Mg98 3.185034 1_555
Mg94 Mg96 3.184556 1_555
Mg94 Mg95 3.184562 1_555
Mg95 Mg99 3.175517 1_555
Mg95 Mg97 3.185037 1_555
Mg96 Mg98 3.185047 1_555
Mg97 Mg98 3.170747 1_455
Mg97 Mg99 3.176233 1_555
Mg100 Mg96 3.175512 1_555
Mg100 Mg98 3.176241 1_555
Mg100 Mg75 3.176764 1_565
Mg100 Mg104 3.177674 1_555
Mg100 Mg121 3.177973 1_555
Mg100 Mg123 3.180269 1_665
Mg100 Mg118 3.181469 1_565
Mg100 Mg125 3.182274 1_565
Mg100 Mg102 3.182484 1_665
Mg100 Mg106 3.183156 1_555
Mg100 Mg128 3.188900 1_555
Mg100 Mg147 3.188942 1_555
Mg101 Mg79 3.175501 1_555
Mg101 Mg74 3.176228 1_555
Mg101 Mg76 3.176763 1_555
Mg101 Mg102 3.177676 1_555
Mg101 Mg120 3.177985 1_555
Mg101 Mg123 3.180258 1_555
Mg101 Mg117 3.181466 1_555
Mg101 Mg124 3.182277 1_555
Mg101 Mg99 3.182500 1_545
Mg101 Mg107 3.183141 1_555
Mg101 Mg127 3.188909 1_555
Mg101 Mg144 3.188943 1_555
Mg102 Mg80 3.175509 1_555
Mg102 Mg74 3.176246 1_555
Mg102 Mg75 3.176772 1_455
Mg102 Mg120 3.177973 1_555
Mg102 Mg123 3.180271 1_555
Mg102 Mg118 3.181459 1_455
Mg102 Mg125 3.182277 1_455
Mg102 Mg108 3.183158 1_555
Mg102 Mg127 3.188903 1_555
Mg102 Mg143 3.188936 1_555
Mg103 Mg92 3.175514 1_555
Mg103 Mg97 3.176226 1_555
Mg103 Mg89 3.176769 1_455
Mg103 Mg99 3.177661 1_555
Mg103 Mg122 3.177972 1_555
Mg103 Mg123 3.180265 1_565
Mg103 Mg119 3.181458 1_455
Mg103 Mg126 3.182285 1_455
Mg103 Mg104 3.182500 1_455
Mg103 Mg110 3.183164 1_555
Mg103 Mg129 3.188912 1_555
Mg103 Mg146 3.188955 1_555
Mg104 Mg93 3.175512 1_555
Mg104 Mg98 3.176236 1_555
Mg104 Mg89 3.176770 1_555
Mg104 Mg121 3.177969 1_555
Mg104 Mg123 3.180257 1_665
Mg104 Mg119 3.181475 1_555
Mg104 Mg126 3.182279 1_555
Mg104 Mg109 3.183142 1_555
Mg104 Mg128 3.188903 1_555
Mg104 Mg145 3.188938 1_555
Mg105 Mg122 3.180339 1_555
Mg105 Mg117 3.182917 1_565
Mg105 Mg99 3.183148 1_555
Mg105 Mg78 3.183292 1_565
Mg105 Mg106 3.183495 1_555
Mg105 Mg94 3.183845 1_555
Mg105 Mg132 3.184501 1_555
Mg105 Mg113 3.184668 1_555
Mg105 Mg95 3.184727 1_555
Mg105 Mg134 3.187398 1_565
Mg105 Mg114 3.187906 1_565
Mg105 Mg148 3.191749 1_555
Mg106 Mg121 3.180353 1_555
Mg106 Mg118 3.182908 1_565
Mg106 Mg77 3.183295 1_565
Mg106 Mg94 3.183841 1_555
Mg106 Mg132 3.184491 1_555
Mg106 Mg113 3.184652 1_555
Mg106 Mg96 3.184721 1_555
Mg106 Mg133 3.187393 1_565
Mg106 Mg114 3.187923 1_565
Mg106 Mg147 3.191754 1_555
Mg107 Mg120 3.180336 1_555
Mg107 Mg117 3.182905 1_555
Mg107 Mg83 3.183295 1_555
Mg107 Mg109 3.183488 1_555
Mg107 Mg88 3.183840 1_555
Mg107 Mg130 3.184495 1_555
Mg107 Mg112 3.184659 1_555
Mg107 Mg79 3.184727 1_555
Mg107 Mg136 3.187402 1_555
Mg107 Mg115 3.187916 1_555
Mg107 Mg144 3.191747 1_555
Mg108 Mg120 3.180322 1_555
Mg108 Mg118 3.182911 1_455
Mg108 Mg82 3.183303 1_455
Mg108 Mg110 3.183483 1_555
Mg108 Mg87 3.183827 1_555
Mg108 Mg131 3.184488 1_555
Mg108 Mg111 3.184630 1_555
Mg108 Mg80 3.184718 1_555
Mg108 Mg135 3.187408 1_455
Mg108 Mg116 3.187943 1_455
Mg108 Mg143 3.191764 1_555
Mg109 Mg121 3.180329 1_555
Mg109 Mg119 3.182915 1_555
Mg109 Mg85 3.183292 1_555
Mg109 Mg88 3.183839 1_555
Mg109 Mg130 3.184496 1_555
Mg109 Mg112 3.184653 1_555
Mg109 Mg93 3.184719 1_555
Mg109 Mg138 3.187401 1_555
Mg109 Mg115 3.187923 1_555
Mg109 Mg145 3.191746 1_555
Mg110 Mg122 3.180306 1_555
Mg110 Mg119 3.182920 1_455
Mg110 Mg84 3.183300 1_455
Mg110 Mg87 3.183822 1_555
Mg110 Mg131 3.184495 1_555
Mg110 Mg111 3.184645 1_555
Mg110 Mg92 3.184712 1_555
Mg110 Mg137 3.187409 1_455
Mg110 Mg116 3.187929 1_455
Mg110 Mg146 3.191757 1_555
Mg111 Mg113 3.174808 1_555
Mg111 Mg112 3.174826 1_555
Mg111 Mg131 3.180033 1_555
Mg111 Mg141 3.182901 1_555
Mg111 Mg140 3.182908 1_555
Mg111 Mg120 3.185811 1_555
Mg111 Mg122 3.185815 1_555
Mg111 Mg86 3.187879 1_555
Mg111 Mg91 3.187879 1_555
Mg111 Mg87 3.189944 1_555
Mg112 Mg113 3.174816 1_555
Mg112 Mg130 3.180033 1_555
Mg112 Mg142 3.182904 1_555
Mg112 Mg140 3.182919 1_555
Mg112 Mg121 3.185797 1_555
Mg112 Mg120 3.185813 1_555
Mg112 Mg90 3.187871 1_555
Mg112 Mg86 3.187879 1_555
Mg112 Mg88 3.189935 1_555
Mg113 Mg132 3.180031 1_555
Mg113 Mg142 3.182896 1_555
Mg113 Mg141 3.182906 1_555
Mg113 Mg121 3.185823 1_555
Mg113 Mg122 3.185827 1_555
Mg113 Mg90 3.187879 1_555
Mg113 Mg91 3.187881 1_555
Mg113 Mg94 3.189945 1_555
Mg114 Mg116 3.173461 1_555
Mg114 Mg115 3.173470 1_555
Mg114 Mg139 3.179245 1_555
Mg114 Mg134 3.183577 1_555
Mg114 Mg133 3.183592 1_555
Mg114 Mg117 3.184699 1_555
Mg114 Mg118 3.184725 1_555
Mg114 Mg81 3.185032 1_555
Mg114 Mg78 3.189657 1_555
Mg114 Mg77 3.189676 1_555
Mg115 Mg116 3.173475 1_555
Mg115 Mg139 3.179249 1_555
Mg115 Mg136 3.183571 1_555
Mg115 Mg138 3.183579 1_555
Mg115 Mg117 3.184682 1_555
Mg115 Mg119 3.184709 1_555
Mg115 Mg81 3.185049 1_555
Mg115 Mg83 3.189665 1_555
Mg115 Mg85 3.189676 1_555
Mg116 Mg139 3.179237 1_555
Mg116 Mg135 3.183586 1_555
Mg116 Mg137 3.183586 1_555
Mg116 Mg118 3.184705 1_555
Mg116 Mg119 3.184706 1_555
Mg116 Mg81 3.185026 1_555
Mg116 Mg84 3.189674 1_555
Mg116 Mg82 3.189675 1_555
Mg117 Mg124 3.166160 1_555
Mg117 Mg136 3.181097 1_555
Mg117 Mg134 3.181110 1_555
Mg117 Mg99 3.181464 1_545
Mg117 Mg76 3.185541 1_555
Mg117 Mg83 3.189638 1_555
Mg117 Mg78 3.189652 1_555
Mg118 Mg125 3.166152 1_555
Mg118 Mg135 3.181098 1_555
Mg118 Mg133 3.181105 1_555
Mg118 Mg75 3.185543 1_555
Mg118 Mg82 3.189646 1_555
Mg118 Mg77 3.189652 1_555
Mg119 Mg126 3.166153 1_555
Mg119 Mg137 3.181097 1_555
Mg119 Mg138 3.181102 1_555
Mg119 Mg89 3.185543 1_555
Mg119 Mg85 3.189651 1_555
Mg119 Mg84 3.189652 1_555
Mg120 Mg140 3.176907 1_555
Mg120 Mg143 3.182503 1_555
Mg120 Mg144 3.182508 1_555
Mg120 Mg80 3.189839 1_555
Mg120 Mg79 3.189843 1_555
Mg120 Mg86 3.192453 1_555
Mg121 Mg142 3.176906 1_555
Mg121 Mg145 3.182494 1_555
Mg121 Mg147 3.182504 1_555
Mg121 Mg93 3.189836 1_555
Mg121 Mg96 3.189843 1_555
Mg121 Mg90 3.192457 1_555
Mg122 Mg141 3.176901 1_555
Mg122 Mg99 3.177985 1_555
Mg122 Mg146 3.182490 1_555
Mg122 Mg148 3.182504 1_555
Mg122 Mg92 3.189836 1_555
Mg122 Mg95 3.189841 1_555
Mg122 Mg91 3.192461 1_555
Mg123 Mg129 3.149622 1_545
Mg123 Mg127 3.149628 1_555
Mg123 Mg128 3.149629 1_445
Mg123 Mg99 3.180268 1_545
Mg123 Mg74 3.199768 1_555
Mg123 Mg98 3.199774 1_445
Mg123 Mg97 3.199776 1_545
Mg124 Mg144 3.170143 1_555
Mg124 Mg148 3.170168 1_545
Mg124 Mg2 3.175398 1_556
Mg124 Mg136 3.178671 1_555
Mg124 Mg134 3.178691 1_555
Mg124 Mg99 3.182282 1_545
Mg124 Mg129 3.183388 1_545
Mg124 Mg127 3.183397 1_555
Mg124 Mg5 3.184855 1_556
Mg125 Mg143 3.170139 1_655
Mg125 Mg147 3.170145 1_545
Mg125 Mg3 3.175398 1_556
Mg125 Mg133 3.178670 1_555
Mg125 Mg135 3.178674 1_555
Mg125 Mg128 3.183400 1_545
Mg125 Mg127 3.183402 1_655
Mg125 Mg4 3.184853 1_556
Mg126 Mg145 3.170154 1_555
Mg126 Mg146 3.170164 1_655
Mg126 Mg17 3.175395 1_556
Mg126 Mg18 3.175403 1_556
Mg126 Mg138 3.178671 1_555
Mg126 Mg137 3.178678 1_555
Mg126 Mg129 3.183395 1_655
Mg126 Mg128 3.183408 1_555
Mg126 Mg16 3.184856 1_556
Mg127 Se0 3.174440 1_556
Mg127 Mg143 3.182643 1_555
Mg127 Mg144 3.182654 1_555
Mg128 Se0 3.174440 1_666
Mg128 Mg145 3.182656 1_555
Mg128 Mg147 3.182658 1_555
Mg129 Se0 3.174432 1_566
Mg129 Mg148 3.182673 1_555
Mg129 Mg146 3.182677 1_555
Mg129 Mg99 3.188907 1_555
Mg130 Mg140 3.179321 1_555
Mg130 Mg142 3.179324 1_555
Mg130 Mg14 3.180117 1_556
Mg130 Mg138 3.186867 1_555
Mg130 Mg136 3.186869 1_555
Mg130 Mg145 3.194202 1_555
Mg130 Mg144 3.194206 1_555
Mg131 Mg141 3.179299 1_555
Mg131 Mg140 3.179312 1_555
Mg131 Mg15 3.180113 1_556
Mg131 Mg135 3.186852 1_455
Mg131 Mg137 3.186867 1_455
Mg131 Mg146 3.194216 1_555
Mg131 Mg143 3.194232 1_555
Mg132 Mg22 3.172908 1_556
Mg132 Mg23 3.172909 1_556
Mg132 Mg142 3.179309 1_555
Mg132 Mg141 3.179316 1_555
Mg132 Mg19 3.180113 1_556
Mg132 Mg133 3.186856 1_565
Mg132 Mg134 3.186868 1_565
Mg132 Mg147 3.194211 1_555
Mg132 Mg148 3.194216 1_555
Mg133 Mg4 3.174883 1_556
Mg133 Mg135 3.177593 1_555
Mg133 Mg6 3.178105 1_556
Mg133 Mg23 3.178598 1_546
Mg133 Mg139 3.181773 1_555
Mg133 Mg147 3.182530 1_545
Mg133 Mg134 3.185945 1_555
Mg134 Mg5 3.174897 1_556
Mg134 Mg136 3.177603 1_555
Mg134 Mg6 3.178102 1_556
Mg134 Mg22 3.178597 1_546
Mg134 Mg139 3.181762 1_555
Mg134 Mg148 3.182523 1_545
Mg135 Mg4 3.174895 1_556
Mg135 Mg8 3.178109 1_556
Mg135 Mg139 3.181775 1_555
Mg135 Mg143 3.182536 1_655
Mg135 Mg137 3.185952 1_555
Mg136 Mg5 3.174888 1_556
Mg136 Mg9 3.178103 1_556
Mg136 Mg139 3.181776 1_555
Mg136 Mg144 3.182529 1_555
Mg136 Mg138 3.185931 1_555
Mg137 Mg16 3.174891 1_556
Mg137 Mg138 3.177600 1_555
Mg137 Mg8 3.178097 1_556
Mg137 Mg139 3.181769 1_555
Mg137 Mg146 3.182523 1_655
Mg138 Mg16 3.174886 1_556
Mg138 Mg9 3.178095 1_556
Mg138 Mg139 3.181776 1_555
Mg138 Mg145 3.182534 1_555
Mg139 Mg6 3.170087 1_556
Mg139 Mg9 3.170087 1_556
Mg139 Mg8 3.170090 1_556
Mg140 Mg15 3.173983 1_556
Mg140 Mg7 3.182238 1_556
Mg140 Mg143 3.188406 1_555
Mg140 Mg144 3.188417 1_555
Mg140 Mg142 3.192948 1_555
Mg140 Mg141 3.192953 1_555
Mg141 Mg15 3.173980 1_556
Mg141 Mg19 3.173989 1_556
Mg141 Mg20 3.182246 1_556
Mg141 Mg146 3.188395 1_555
Mg141 Mg148 3.188408 1_555
Mg141 Mg142 3.192957 1_555
Mg142 Mg19 3.173994 1_556
Mg142 Mg21 3.182243 1_556
Mg142 Mg147 3.188396 1_555
Mg142 Mg145 3.188414 1_555
Mg143 Mg3 3.169441 1_456
Mg143 Mg7 3.170734 1_556
Mg143 Mg144 3.181372 1_555
Mg144 Mg2 3.169447 1_556
Mg144 Mg7 3.170740 1_556
Mg145 Mg17 3.169450 1_556
Mg145 Mg21 3.170737 1_556
Mg145 Mg147 3.181380 1_555
Mg146 Mg18 3.169463 1_456
Mg146 Mg20 3.170726 1_556
Mg146 Mg148 3.181361 1_555
Mg147 Mg21 3.170731 1_556
Mg147 Mg23 3.179536 1_556
Mg148 Mg20 3.170728 1_556
Mg148 Mg22 3.179533 1_556
Mg148 Mg99 3.188947 1_555
