# generated using pymatgen
data_LiY4(AgO3)4
_symmetry_space_group_name_H-M   'P 1'
_cell_length_a   6.17700983
_cell_length_b   7.20911463
_cell_length_c   6.96486200
_cell_angle_alpha   90.00000000
_cell_angle_beta   90.00000000
_cell_angle_gamma   72.68391668
_symmetry_Int_Tables_number   1
_chemical_formula_structural   LiY4(AgO3)4
_chemical_formula_sum   'Li1 Y4 Ag4 O12'
_cell_volume   296.09381112
_cell_formula_units_Z   1
loop_
 _symmetry_equiv_pos_site_id
 _symmetry_equiv_pos_as_xyz
  1  'x, y, z'
loop_
 _atom_site_type_symbol
 _atom_site_label
 _atom_site_symmetry_multiplicity
 _atom_site_fract_x
 _atom_site_fract_y
 _atom_site_fract_z
 _atom_site_occupancy
  Li  Li0  1  0.81224900  0.78145700  0.25000000  1
  Y  Y0  1  0.04225500  0.88034900  0.75000000  1
  Y  Y1  1  0.44143900  0.54988800  0.25000000  1
  Y  Y2  1  0.57231300  0.44289100  0.75000000  1
  Y  Y3  1  0.97554200  0.13251300  0.25000000  1
  Ag  Ag0  1  0.01791000  0.48623100  0.50950900  1
  Ag  Ag1  1  0.51001200  0.00147100  0.50236500  1
  Ag  Ag2  1  0.51001200  0.00147100  0.99763500  1
  Ag  Ag3  1  0.01791000  0.48623100  0.99049100  1
  O  O0  1  0.73441800  0.38624300  0.44814500  1
  O  O1  1  0.17463700  0.06637200  0.53579300  1
  O  O2  1  0.84899300  0.93047100  0.04283100  1
  O  O3  1  0.28288600  0.61179800  0.94831000  1
  O  O4  1  0.28288600  0.61179800  0.55169000  1
  O  O5  1  0.84899300  0.93047100  0.45716900  1
  O  O6  1  0.17463700  0.06637200  0.96420700  1
  O  O7  1  0.73441800  0.38624300  0.05185500  1
  O  O8  1  0.17985200  0.37616600  0.25000000  1
  O  O9  1  0.58079900  0.12674500  0.75000000  1
  O  O10  1  0.48040700  0.85399400  0.25000000  1
  O  O11  1  0.83695500  0.62082300  0.75000000  1
loop_
_geom_bond_atom_site_label_1
_geom_bond_atom_site_label_2
_geom_bond_distance
_geom_bond_site_symmetry_2
Li0 O2 1.852744 1_555
Li0 O5 1.852744 1_555
Li0 O10 1.958830 1_555
Ag0 O11 2.085860 1_455
Ag0 O8 2.103472 1_555
Ag0 O4 2.113463 1_555
Ag0 O0 2.126058 1_455
Ag1 O1 1.996926 1_555
Ag1 O5 2.026684 1_545
Ag1 O9 2.053440 1_555
Ag1 O10 2.090214 1_545
Ag2 O6 1.996926 1_555
Ag2 O2 2.026684 1_546
Ag2 O9 2.053440 1_555
Ag2 O10 2.090214 1_546
Ag3 O11 2.085860 1_455
Ag3 O8 2.103472 1_556
Ag3 O3 2.113463 1_555
Ag3 O7 2.126058 1_456
O0 Y1 2.302286 1_555
O0 Y2 2.312141 1_555
O0 Y3 2.418055 1_555
O1 Y0 2.312088 1_545
O1 Y3 2.313621 1_455
O2 Y0 2.336358 1_654
O2 Y3 2.343568 1_565
O3 Y2 2.300161 1_555
O3 Y1 2.305070 1_556
O3 Y0 2.480357 1_555
O4 Y2 2.300161 1_555
O4 Y1 2.305070 1_555
O4 Y0 2.480357 1_555
O5 Y0 2.336358 1_655
O5 Y3 2.343568 1_565
O6 Y0 2.312088 1_545
O6 Y3 2.313621 1_456
O7 Y1 2.302286 1_555
O7 Y2 2.312141 1_554
O7 Y3 2.418055 1_555
O8 Y1 2.320343 1_555
O8 Y3 2.449019 1_455
O9 Y2 2.264084 1_555
O9 Y0 2.875078 1_645
O10 Y1 2.275612 1_555
O11 Y2 2.359211 1_555
O11 Y0 2.553632 1_655
