# generated using pymatgen
data_SmInCu4
_symmetry_space_group_name_H-M   'P 1'
_cell_length_a   5.11598684
_cell_length_b   5.11598684
_cell_length_c   5.11598684
_cell_angle_alpha   60.00000000
_cell_angle_beta   60.00000000
_cell_angle_gamma   60.00000000
_symmetry_Int_Tables_number   1
_chemical_formula_structural   SmInCu4
_chemical_formula_sum   'Sm1 In1 Cu4'
_cell_volume   94.68327236
_cell_formula_units_Z   1
loop_
 _symmetry_equiv_pos_site_id
 _symmetry_equiv_pos_as_xyz
  1  'x, y, z'
loop_
 _atom_site_type_symbol
 _atom_site_label
 _atom_site_symmetry_multiplicity
 _atom_site_fract_x
 _atom_site_fract_y
 _atom_site_fract_z
 _atom_site_occupancy
  Sm  Sm0  1  0.25000000  0.25000000  0.25000000  1
  In  In0  1  -0.00000000  0.00000000  -0.00000000  1
  Cu  Cu0  1  0.62563799  0.62563799  0.62563799  1
  Cu  Cu1  1  0.62563799  0.62563799  0.12308604  1
  Cu  Cu2  1  0.62563799  0.12308604  0.62563799  1
  Cu  Cu3  1  0.12308604  0.62563799  0.62563799  1
loop_
_geom_bond_atom_site_label_1
_geom_bond_atom_site_label_2
_geom_bond_distance
_geom_bond_site_symmetry_2
In0 Sm0 3.132889 1_545
In0 Sm0 3.132889 1_554
In0 Sm0 3.132889 1_455
In0 Sm0 3.132889 1_555
Cu0 Cu3 2.544938 1_655
Cu0 Cu1 2.544938 1_556
Cu0 Cu2 2.544938 1_565
Cu0 Cu2 2.571049 1_555
Cu0 Cu3 2.571049 1_555
Cu0 Cu1 2.571049 1_555
Cu0 In0 2.998132 1_656
Cu0 In0 2.998132 1_566
Cu0 In0 2.998132 1_665
Cu0 Sm0 3.000915 1_655
Cu0 Sm0 3.000915 1_556
Cu0 Sm0 3.000915 1_565
Cu1 Cu2 2.544938 1_564
Cu1 Cu3 2.544938 1_654
Cu1 Cu2 2.571049 1_555
Cu1 Cu3 2.571049 1_555
Cu1 In0 2.998132 1_665
Cu1 In0 2.998132 1_565
Cu1 In0 2.998132 1_655
Cu1 Sm0 3.000915 1_565
Cu1 Sm0 3.000915 1_655
Cu1 Sm0 3.000915 1_555
Cu2 Cu3 2.544938 1_645
Cu2 Cu3 2.571049 1_555
Cu2 In0 2.998132 1_656
Cu2 In0 2.998132 1_655
Cu2 In0 2.998132 1_556
Cu2 Sm0 3.000915 1_556
Cu2 Sm0 3.000915 1_655
Cu2 Sm0 3.000915 1_555
Cu3 In0 2.998132 1_566
Cu3 In0 2.998132 1_556
Cu3 In0 2.998132 1_565
Cu3 Sm0 3.000915 1_556
Cu3 Sm0 3.000915 1_565
Cu3 Sm0 3.000915 1_555
