# generated using pymatgen
data_Ho(GaCo)6
_symmetry_space_group_name_H-M   'P 1'
_cell_length_a   5.01488700
_cell_length_b   6.45391481
_cell_length_c   6.45391481
_cell_angle_alpha   83.94305536
_cell_angle_beta   67.13785773
_cell_angle_gamma   67.13785773
_symmetry_Int_Tables_number   1
_chemical_formula_structural   Ho(GaCo)6
_chemical_formula_sum   'Ho1 Ga6 Co6'
_cell_volume   177.10116500
_cell_formula_units_Z   1
loop_
 _symmetry_equiv_pos_site_id
 _symmetry_equiv_pos_as_xyz
  1  'x, y, z'
loop_
 _atom_site_type_symbol
 _atom_site_label
 _atom_site_symmetry_multiplicity
 _atom_site_fract_x
 _atom_site_fract_y
 _atom_site_fract_z
 _atom_site_occupancy
  Ho  Ho0  1  0.00000000  0.00000000  0.00000000  1
  Ga  Ga0  1  0.00000000  0.34540200  0.65459800  1
  Ga  Ga1  1  0.00000000  0.65459800  0.34540200  1
  Ga  Ga2  1  0.34225400  0.65774600  0.65774600  1
  Ga  Ga3  1  0.65774600  0.34225400  0.34225400  1
  Ga  Ga4  1  0.50000000  0.18622600  0.81377400  1
  Ga  Ga5  1  0.50000000  0.81377400  0.18622600  1
  Co  Co0  1  0.26182400  0.23817600  0.23817600  1
  Co  Co1  1  0.73817600  0.76182400  0.76182400  1
  Co  Co2  1  0.50000000  0.00000000  0.50000000  1
  Co  Co3  1  0.50000000  0.50000000  0.00000000  1
  Co  Co4  1  0.00000000  0.50000000  0.00000000  1
  Co  Co5  1  0.00000000  0.00000000  0.50000000  1
loop_
_geom_bond_atom_site_label_1
_geom_bond_atom_site_label_2
_geom_bond_distance
_geom_bond_site_symmetry_2
Ga0 Ga1 2.669059 1_555
Ga0 Ga4 2.859245 1_455
Ga0 Ga4 2.859245 1_555
Ga0 Ho0 2.981598 1_556
Ga1 Ga5 2.859245 1_555
Ga1 Ga5 2.859245 1_455
Ga1 Ho0 2.981598 1_565
Ga2 Ga3 2.581394 1_555
Ga2 Ho0 2.800364 1_566
Ga3 Ho0 2.800364 1_655
Ga4 Ho0 2.978505 1_656
Ga4 Ho0 2.978505 1_556
Ga5 Ho0 2.978505 1_565
Ga5 Ho0 2.978505 1_665
Co0 Co4 2.497683 1_555
Co0 Co5 2.497683 1_555
Co0 Co2 2.497683 1_555
Co0 Co3 2.497683 1_555
Co0 Ga0 2.523948 1_555
Co0 Ga1 2.523948 1_555
Co0 Ga5 2.526258 1_545
Co0 Ga4 2.526258 1_554
Co0 Ga3 2.648105 1_455
Co0 Ga3 2.648105 1_555
Co0 Ho0 3.175694 1_655
Co0 Ho0 3.175695 1_555
Co1 Co5 2.497683 1_665
Co1 Co4 2.497683 1_656
Co1 Co3 2.497683 1_556
Co1 Co2 2.497683 1_565
Co1 Ga0 2.523948 1_655
Co1 Ga1 2.523948 1_655
Co1 Ga5 2.526258 1_556
Co1 Ga4 2.526258 1_565
Co1 Ga2 2.648105 1_655
Co1 Ga2 2.648105 1_555
Co1 Ho0 3.175694 1_566
Co1 Ho0 3.175695 1_666
Co2 Ga4 2.461520 1_555
Co2 Ga5 2.461520 1_545
Co2 Co5 2.507443 1_555
Co2 Co5 2.507443 1_655
Co2 Ga1 2.536577 1_645
Co2 Ga0 2.536577 1_555
Co2 Ga2 2.607457 1_545
Co2 Ga3 2.607457 1_555
Co2 Ho0 3.226957 1_556
Co2 Ho0 3.226957 1_655
Co3 Ga5 2.461520 1_555
Co3 Ga4 2.461520 1_554
Co3 Co4 2.507443 1_555
Co3 Co4 2.507443 1_655
Co3 Ga0 2.536577 1_654
Co3 Ga1 2.536577 1_555
Co3 Ga2 2.607457 1_554
Co3 Ga3 2.607457 1_555
Co3 Ho0 3.226957 1_565
Co3 Ho0 3.226957 1_655
Co4 Ga4 2.461519 1_554
Co4 Ga5 2.461519 1_455
Co4 Ga1 2.536577 1_555
Co4 Ga0 2.536577 1_554
Co4 Ga3 2.607457 1_455
Co4 Ga2 2.607457 1_554
Co4 Ho0 3.226957 1_565
Co4 Ho0 3.226957 1_555
Co5 Ga5 2.461519 1_545
Co5 Ga4 2.461519 1_455
Co5 Ga0 2.536577 1_555
Co5 Ga1 2.536577 1_545
Co5 Ga3 2.607457 1_455
Co5 Ga2 2.607457 1_545
Co5 Ho0 3.226957 1_555
Co5 Ho0 3.226957 1_556
