# generated using pymatgen
data_Mg149Ag
_symmetry_space_group_name_H-M   'P 1'
_cell_length_a   15.88866224
_cell_length_b   15.88866890
_cell_length_c   15.59662804
_cell_angle_alpha   90.00000000
_cell_angle_beta   90.00000000
_cell_angle_gamma   120.00001158
_symmetry_Int_Tables_number   1
_chemical_formula_structural   Mg149Ag
_chemical_formula_sum   'Mg149 Ag1'
_cell_volume   3409.85682482
_cell_formula_units_Z   1
loop_
 _symmetry_equiv_pos_site_id
 _symmetry_equiv_pos_as_xyz
  1  'x, y, z'
loop_
 _atom_site_type_symbol
 _atom_site_label
 _atom_site_symmetry_multiplicity
 _atom_site_fract_x
 _atom_site_fract_y
 _atom_site_fract_z
 _atom_site_occupancy
  Mg  Mg0  1  0.80433486  0.00099468  -0.00000000  1
  Mg  Mg1  1  0.19666082  0.00099468  -0.00000000  1
  Mg  Mg2  1  0.99900532  0.19566514  0.00000000  1
  Mg  Mg3  1  0.19666082  0.19566514  0.00000000  1
  Mg  Mg4  1  0.39882079  0.19940990  0.00000000  1
  Mg  Mg5  1  0.80058910  0.19941090  0.00000000  1
  Mg  Mg6  1  0.59986086  0.19972273  -0.00000000  1
  Mg  Mg7  1  0.19919333  0.39838766  0.00000000  1
  Mg  Mg8  1  0.00003930  0.39928052  -0.00000000  1
  Mg  Mg9  1  0.39924222  0.39928052  0.00000000  1
  Mg  Mg10  1  0.59986086  0.40013914  0.00000000  1
  Mg  Mg11  1  0.80027727  0.40013914  0.00000000  1
  Mg  Mg12  1  0.40007913  0.59992087  -0.00000000  1
  Mg  Mg13  1  0.19984073  0.59992087  -0.00000000  1
  Mg  Mg14  1  0.00003930  0.60075878  0.00000000  1
  Mg  Mg15  1  0.60071948  0.60075878  0.00000000  1
  Mg  Mg16  1  0.80058910  0.60117921  0.00000000  1
  Mg  Mg17  1  0.40007913  0.80015827  -0.00000000  1
  Mg  Mg18  1  0.60161134  0.80080567  0.00000000  1
  Mg  Mg19  1  0.19919333  0.80080567  -0.00000000  1
  Mg  Mg20  1  0.99900532  0.80334018  0.00000000  1
  Mg  Mg21  1  0.80433486  0.80334018  -0.00000000  1
  Mg  Mg22  1  0.60071948  0.99996070  0.00000000  1
  Mg  Mg23  1  0.39924222  0.99996070  0.00000000  1
  Mg  Mg24  1  0.06546793  0.13093586  0.16333147  1
  Mg  Mg25  1  0.86906414  0.93453207  0.16333147  1
  Mg  Mg26  1  0.06546793  0.93453207  0.16333147  1
  Mg  Mg27  1  0.06630858  0.33209452  0.16612277  1
  Mg  Mg28  1  0.26578594  0.33209452  0.16612277  1
  Mg  Mg29  1  0.06630858  0.73421406  0.16612277  1
  Mg  Mg30  1  0.66790548  0.73421406  0.16612277  1
  Mg  Mg31  1  0.26578594  0.93369142  0.16612277  1
  Mg  Mg32  1  0.66790548  0.93369242  0.16612277  1
  Mg  Mg33  1  0.06665198  0.53332549  0.16647811  1
  Mg  Mg34  1  0.46667451  0.53332549  0.16647811  1
  Mg  Mg35  1  0.46667451  0.93334802  0.16647811  1
  Mg  Mg36  1  0.46693814  0.13344295  0.16657586  1
  Mg  Mg37  1  0.66650381  0.13344295  0.16657586  1
  Mg  Mg38  1  0.46693814  0.33349519  0.16657586  1
  Mg  Mg39  1  0.86655705  0.33349519  0.16657586  1
  Mg  Mg40  1  0.66650381  0.53306086  0.16657586  1
  Mg  Mg41  1  0.86655705  0.53306086  0.16657586  1
  Mg  Mg42  1  0.26643519  0.53286937  0.16650930  1
  Mg  Mg43  1  0.46712963  0.73356481  0.16650930  1
  Mg  Mg44  1  0.26643519  0.73356481  0.16650930  1
  Mg  Mg45  1  0.66666700  0.33333300  0.16660635  1
  Mg  Mg46  1  0.26758717  0.13379309  0.16724545  1
  Mg  Mg47  1  0.86620691  0.13379309  0.16724545  1
  Mg  Mg48  1  0.86620691  0.73241283  0.16724545  1
  Mg  Mg49  1  0.00000000  0.00000000  0.33205680  1
  Mg  Mg50  1  0.80036698  0.99980966  0.33264870  1
  Mg  Mg51  1  0.19944168  0.99980966  0.33264870  1
  Mg  Mg52  1  0.19944168  0.19963202  0.33264870  1
  Mg  Mg53  1  0.00019034  0.19963202  0.33264870  1
  Mg  Mg54  1  0.80036698  0.80055732  0.33264870  1
  Mg  Mg55  1  0.00019034  0.80055832  0.33264870  1
  Mg  Mg56  1  0.60023562  0.00000210  0.33310307  1
  Mg  Mg57  1  0.39976748  0.00000210  0.33310307  1
  Mg  Mg58  1  0.39976748  0.39976438  0.33310307  1
  Mg  Mg59  1  -0.00000210  0.39976438  0.33310307  1
  Mg  Mg60  1  -0.00000210  0.60023352  0.33310307  1
  Mg  Mg61  1  0.60023562  0.60023352  0.33310307  1
  Mg  Mg62  1  0.19997207  0.39994214  0.33320435  1
  Mg  Mg63  1  0.60005686  0.80002893  0.33320435  1
  Mg  Mg64  1  0.19997207  0.80002893  0.33320435  1
  Mg  Mg65  1  0.59996213  0.19992526  0.33334273  1
  Mg  Mg66  1  0.59996213  0.40003787  0.33334273  1
  Mg  Mg67  1  0.80007474  0.40003787  0.33334273  1
  Mg  Mg68  1  0.39993421  0.19996660  0.33345438  1
  Mg  Mg69  1  0.80003340  0.19996760  0.33345438  1
  Mg  Mg70  1  0.80003340  0.60006579  0.33345438  1
  Mg  Mg71  1  0.40001605  0.59998395  0.33342401  1
  Mg  Mg72  1  0.19996789  0.59998395  0.33342401  1
  Mg  Mg73  1  0.40001605  0.80003211  0.33342401  1
  Mg  Mg74  1  0.06663185  0.13326371  0.50000000  1
  Mg  Mg75  1  0.26655329  0.13327664  0.50000000  1
  Mg  Mg76  1  0.86672336  0.13327664  0.50000000  1
  Mg  Mg77  1  0.46684697  0.13343048  0.50000000  1
  Mg  Mg78  1  0.66658352  0.13343048  0.50000000  1
  Mg  Mg79  1  0.06650086  0.33313001  0.50000000  1
  Mg  Mg80  1  0.26663015  0.33313101  0.50000000  1
  Mg  Mg81  1  0.66666700  0.33333300  0.50000000  1
  Mg  Mg82  1  0.46684697  0.33341648  0.50000000  1
  Mg  Mg83  1  0.86656952  0.33341648  0.50000000  1
  Mg  Mg84  1  0.66658352  0.53315203  0.50000000  1
  Mg  Mg85  1  0.86656952  0.53315203  0.50000000  1
  Mg  Mg86  1  0.06653786  0.53326843  0.50000000  1
  Mg  Mg87  1  0.46673057  0.53326843  0.50000000  1
  Mg  Mg88  1  0.26660500  0.53321000  0.50000000  1
  Mg  Mg89  1  0.06650086  0.73336985  0.50000000  1
  Mg  Mg90  1  0.66686999  0.73337085  0.50000000  1
  Mg  Mg91  1  0.26660500  0.73339500  0.50000000  1
  Mg  Mg92  1  0.46679000  0.73339500  0.50000000  1
  Mg  Mg93  1  0.86672336  0.73344671  0.50000000  1
  Mg  Mg94  1  0.06663185  0.93336815  0.50000000  1
  Mg  Mg95  1  0.86673529  0.93336815  0.50000000  1
  Mg  Mg96  1  0.46673057  0.93346114  0.50000000  1
  Mg  Mg97  1  0.26663015  0.93349914  0.50000000  1
  Mg  Mg98  1  0.66686999  0.93349914  0.50000000  1
  Mg  Mg99  1  0.40001605  0.59998395  0.66657599  1
  Mg  Mg100  1  0.19996789  0.59998395  0.66657599  1
  Mg  Mg101  1  0.40001605  0.80003211  0.66657599  1
  Mg  Mg102  1  0.39993421  0.19996660  0.66654562  1
  Mg  Mg103  1  0.80003340  0.19996760  0.66654562  1
  Mg  Mg104  1  0.80003340  0.60006579  0.66654562  1
  Mg  Mg105  1  0.59996213  0.19992526  0.66665727  1
  Mg  Mg106  1  0.59996213  0.40003787  0.66665727  1
  Mg  Mg107  1  0.80007474  0.40003787  0.66665727  1
  Mg  Mg108  1  0.19997207  0.39994214  0.66679565  1
  Mg  Mg109  1  0.60005686  0.80002893  0.66679565  1
  Mg  Mg110  1  0.19997207  0.80002893  0.66679565  1
  Mg  Mg111  1  0.60023562  0.00000210  0.66689693  1
  Mg  Mg112  1  0.39976748  0.00000210  0.66689693  1
  Mg  Mg113  1  0.39976748  0.39976438  0.66689693  1
  Mg  Mg114  1  -0.00000210  0.39976438  0.66689693  1
  Mg  Mg115  1  -0.00000210  0.60023352  0.66689693  1
  Mg  Mg116  1  0.60023562  0.60023352  0.66689693  1
  Mg  Mg117  1  0.80036698  0.99980966  0.66735130  1
  Mg  Mg118  1  0.19944168  0.99980966  0.66735130  1
  Mg  Mg119  1  0.19944168  0.19963202  0.66735130  1
  Mg  Mg120  1  0.00019034  0.19963202  0.66735130  1
  Mg  Mg121  1  0.80036698  0.80055732  0.66735130  1
  Mg  Mg122  1  0.00019034  0.80055832  0.66735130  1
  Mg  Mg123  1  0.00000000  0.00000000  0.66794220  1
  Mg  Mg124  1  0.26758717  0.13379309  0.83275455  1
  Mg  Mg125  1  0.86620691  0.13379309  0.83275455  1
  Mg  Mg126  1  0.86620691  0.73241283  0.83275455  1
  Mg  Mg127  1  0.66666700  0.33333300  0.83339365  1
  Mg  Mg128  1  0.26643519  0.53286937  0.83349070  1
  Mg  Mg129  1  0.46712963  0.73356481  0.83349070  1
  Mg  Mg130  1  0.26643519  0.73356481  0.83349070  1
  Mg  Mg131  1  0.46693814  0.13344295  0.83342414  1
  Mg  Mg132  1  0.66650381  0.13344295  0.83342414  1
  Mg  Mg133  1  0.46693814  0.33349519  0.83342414  1
  Mg  Mg134  1  0.86655705  0.33349519  0.83342414  1
  Mg  Mg135  1  0.66650381  0.53306086  0.83342414  1
  Mg  Mg136  1  0.86655705  0.53306086  0.83342414  1
  Mg  Mg137  1  0.06665198  0.53332549  0.83352189  1
  Mg  Mg138  1  0.46667451  0.53332549  0.83352189  1
  Mg  Mg139  1  0.46667451  0.93334802  0.83352189  1
  Mg  Mg140  1  0.06630858  0.33209452  0.83387723  1
  Mg  Mg141  1  0.26578594  0.33209452  0.83387723  1
  Mg  Mg142  1  0.06630858  0.73421406  0.83387723  1
  Mg  Mg143  1  0.66790548  0.73421406  0.83387723  1
  Mg  Mg144  1  0.26578594  0.93369142  0.83387723  1
  Mg  Mg145  1  0.66790548  0.93369242  0.83387723  1
  Mg  Mg146  1  0.06546793  0.13093586  0.83666753  1
  Mg  Mg147  1  0.86906414  0.93453207  0.83666753  1
  Mg  Mg148  1  0.06546793  0.93453207  0.83666753  1
  Ag  Ag0  1  0.00000000  0.00000000  0.00000000  1
loop_
_geom_bond_atom_site_label_1
_geom_bond_atom_site_label_2
_geom_bond_distance
_geom_bond_site_symmetry_2
Mg0 Mg2 3.093053 1_555
Mg0 Mg25 3.122224 1_545
Mg0 Mg147 3.122237 1_544
Mg0 Mg21 3.140467 1_545
Mg0 Mg5 3.182745 1_555
Mg0 Mg47 3.185641 1_555
Mg0 Mg125 3.185641 1_554
Mg0 Mg145 3.199592 1_544
Mg0 Mg32 3.199592 1_545
Mg0 Mg18 3.201061 1_545
Mg0 Mg22 3.226993 1_545
Mg1 Mg3 3.093054 1_555
Mg1 Mg26 3.122231 1_545
Mg1 Mg148 3.122244 1_544
Mg1 Mg20 3.140474 1_445
Mg1 Mg4 3.182719 1_555
Mg1 Mg46 3.185641 1_555
Mg1 Mg124 3.185641 1_554
Mg1 Mg31 3.199584 1_545
Mg1 Mg144 3.199584 1_544
Mg1 Mg19 3.201046 1_545
Mg1 Mg23 3.226993 1_545
Mg2 Mg24 3.122224 1_655
Mg2 Mg3 3.140481 1_655
Mg2 Mg5 3.182743 1_555
Mg2 Mg47 3.185640 1_555
Mg2 Mg27 3.199592 1_655
Mg2 Mg7 3.201045 1_655
Mg2 Mg8 3.226994 1_655
Mg3 Mg4 3.182719 1_555
Mg3 Mg46 3.185641 1_555
Mg3 Mg7 3.201062 1_555
Mg3 Mg9 3.226993 1_555
Mg4 Mg9 3.172335 1_555
Mg4 Mg46 3.172523 1_555
Mg4 Mg6 3.191775 1_555
Mg5 Mg8 3.172334 1_655
Mg5 Mg6 3.191783 1_555
Mg7 Mg8 3.171408 1_555
Mg7 Mg9 3.171440 1_555
Mg10 Mg40 3.177258 1_555
Mg10 Mg135 3.177258 1_554
Mg10 Mg38 3.177266 1_555
Mg10 Mg133 3.177266 1_554
Mg10 Mg9 3.180763 1_555
Mg10 Mg15 3.180780 1_555
Mg10 Mg45 3.183125 1_555
Mg10 Mg127 3.183125 1_554
Mg10 Mg11 3.184349 1_555
Mg10 Mg6 3.184350 1_555
Mg10 Mg16 3.191783 1_555
Mg10 Mg4 3.191791 1_555
Mg11 Mg41 3.177258 1_555
Mg11 Mg136 3.177258 1_554
Mg11 Mg134 3.177274 1_554
Mg11 Mg39 3.177274 1_555
Mg11 Mg14 3.180787 1_655
Mg11 Mg8 3.180795 1_655
Mg11 Mg45 3.183108 1_555
Mg11 Mg127 3.183108 1_554
Mg11 Mg6 3.184349 1_555
Mg11 Mg5 3.191785 1_555
Mg11 Mg16 3.191785 1_555
Mg12 Mg138 3.178144 1_554
Mg12 Mg34 3.178144 1_555
Mg12 Mg15 3.181271 1_555
Mg12 Mg9 3.181280 1_555
Mg12 Mg17 3.181506 1_555
Mg12 Mg13 3.181520 1_555
Mg12 Mg128 3.182143 1_554
Mg12 Mg42 3.182143 1_555
Mg12 Mg129 3.182143 1_554
Mg12 Mg43 3.182143 1_555
Mg12 Mg18 3.196946 1_555
Mg12 Mg7 3.196962 1_555
Mg13 Mg33 3.178128 1_555
Mg13 Mg137 3.178128 1_554
Mg13 Mg14 3.181255 1_555
Mg13 Mg8 3.181263 1_555
Mg13 Mg17 3.181512 1_555
Mg13 Mg130 3.182143 1_554
Mg13 Mg44 3.182143 1_555
Mg13 Mg42 3.182159 1_555
Mg13 Mg19 3.196948 1_555
Mg13 Mg7 3.196964 1_555
Mg14 Mg19 3.171408 1_555
Mg14 Mg16 3.172342 1_455
Mg14 Mg142 3.175729 1_554
Mg14 Mg29 3.175729 1_555
Mg14 Mg41 3.181739 1_455
Mg14 Mg33 3.184951 1_555
Mg14 Mg8 3.201221 1_555
Mg14 Mg20 3.226994 1_455
Mg15 Mg18 3.171417 1_555
Mg15 Mg16 3.172326 1_555
Mg15 Mg30 3.175729 1_555
Mg15 Mg40 3.181740 1_555
Mg15 Mg34 3.184943 1_555
Mg15 Mg9 3.201212 1_555
Mg15 Mg21 3.226993 1_555
Mg16 Mg48 3.172524 1_555
Mg16 Mg21 3.182729 1_555
Mg16 Mg20 3.182735 1_555
Mg16 Mg40 3.186546 1_555
Mg16 Mg41 3.186555 1_555
Mg17 Mg35 3.178136 1_555
Mg17 Mg23 3.181264 1_555
Mg17 Mg22 3.181271 1_555
Mg17 Mg44 3.182143 1_555
Mg17 Mg43 3.182143 1_555
Mg17 Mg18 3.196946 1_555
Mg17 Mg19 3.196962 1_555
Mg18 Mg30 3.171197 1_555
Mg18 Mg32 3.171205 1_555
Mg18 Mg22 3.171417 1_555
Mg18 Mg43 3.188816 1_555
Mg18 Mg21 3.201061 1_555
Mg19 Mg29 3.171189 1_555
Mg19 Mg31 3.171197 1_555
Mg19 Mg23 3.171432 1_555
Mg19 Mg44 3.188825 1_555
Mg19 Mg20 3.201045 1_455
Mg20 Mg21 3.093053 1_555
Mg20 Mg26 3.122224 1_655
Mg20 Mg48 3.185641 1_555
Mg20 Mg29 3.199592 1_655
Mg21 Mg25 3.122224 1_555
Mg21 Mg48 3.185649 1_555
Mg21 Mg30 3.199591 1_555
Mg22 Mg5 3.172334 1_565
Mg22 Mg32 3.175721 1_555
Mg22 Mg6 3.180796 1_565
Mg22 Mg37 3.181740 1_565
Mg22 Mg35 3.184943 1_555
Mg22 Mg23 3.201204 1_555
Mg23 Mg4 3.172336 1_565
Mg23 Mg31 3.175737 1_555
Mg23 Mg6 3.180779 1_565
Mg23 Mg36 3.181740 1_565
Mg23 Mg35 3.184943 1_555
Mg24 Mg25 3.120594 1_445
Mg24 Mg26 3.120595 1_545
Mg24 Mg3 3.122232 1_555
Mg24 Mg49 3.189212 1_555
Mg24 Mg47 3.189516 1_455
Mg24 Mg46 3.189532 1_555
Mg24 Mg28 3.189782 1_555
Mg24 Mg27 3.189783 1_555
Mg24 Mg52 3.220691 1_555
Mg24 Mg53 3.220692 1_555
Mg25 Mg26 3.120593 1_655
Mg25 Mg49 3.189211 1_665
Mg25 Mg47 3.189518 1_565
Mg25 Mg48 3.189533 1_555
Mg25 Mg30 3.189782 1_555
Mg25 Mg32 3.189790 1_555
Mg25 Mg50 3.220699 1_555
Mg25 Mg54 3.220699 1_555
Mg26 Mg49 3.189212 1_565
Mg26 Mg46 3.189525 1_565
Mg26 Mg48 3.189525 1_455
Mg26 Mg31 3.189782 1_555
Mg26 Mg29 3.189783 1_555
Mg26 Mg51 3.220691 1_555
Mg26 Mg55 3.220692 1_555
Mg27 Mg47 3.165192 1_455
Mg27 Mg28 3.169428 1_555
Mg27 Mg7 3.171189 1_555
Mg27 Mg53 3.172987 1_555
Mg27 Mg8 3.175729 1_555
Mg27 Mg42 3.184912 1_555
Mg27 Mg39 3.184978 1_455
Mg27 Mg62 3.189625 1_555
Mg27 Mg59 3.190831 1_555
Mg27 Mg33 3.194572 1_555
Mg28 Mg46 3.165201 1_555
Mg28 Mg7 3.171197 1_555
Mg28 Mg52 3.172987 1_555
Mg28 Mg9 3.175737 1_555
Mg28 Mg42 3.184905 1_555
Mg28 Mg38 3.184978 1_555
Mg28 Mg62 3.189610 1_555
Mg28 Mg58 3.190839 1_555
Mg28 Mg34 3.194579 1_555
Mg28 Mg3 3.199592 1_555
Mg29 Mg48 3.165184 1_455
Mg29 Mg31 3.169429 1_555
Mg29 Mg55 3.172987 1_555
Mg29 Mg44 3.184920 1_555
Mg29 Mg41 3.184986 1_455
Mg29 Mg64 3.189625 1_555
Mg29 Mg60 3.190831 1_555
Mg29 Mg33 3.194588 1_555
Mg30 Mg48 3.165199 1_555
Mg30 Mg32 3.169446 1_555
Mg30 Mg54 3.172979 1_555
Mg30 Mg43 3.184920 1_555
Mg30 Mg40 3.184987 1_555
Mg30 Mg63 3.189625 1_555
Mg30 Mg61 3.190831 1_555
Mg30 Mg34 3.194579 1_555
Mg31 Mg46 3.165185 1_565
Mg31 Mg51 3.172987 1_555
Mg31 Mg44 3.184922 1_555
Mg31 Mg36 3.184978 1_565
Mg31 Mg64 3.189618 1_555
Mg31 Mg57 3.190839 1_565
Mg31 Mg35 3.194587 1_555
Mg32 Mg47 3.165184 1_565
Mg32 Mg50 3.172979 1_555
Mg32 Mg43 3.184928 1_555
Mg32 Mg37 3.184972 1_565
Mg32 Mg63 3.189626 1_555
Mg32 Mg56 3.190823 1_565
Mg32 Mg35 3.194563 1_555
Mg33 Mg41 3.177141 1_455
Mg33 Mg39 3.177141 1_455
Mg33 Mg42 3.177918 1_555
Mg33 Mg44 3.177918 1_555
Mg33 Mg59 3.182956 1_555
Mg33 Mg60 3.182964 1_555
Mg33 Mg8 3.184943 1_555
Mg33 Mg72 3.185099 1_555
Mg34 Mg40 3.177125 1_555
Mg34 Mg38 3.177134 1_555
Mg34 Mg42 3.177918 1_555
Mg34 Mg43 3.177927 1_555
Mg34 Mg61 3.182955 1_555
Mg34 Mg58 3.182956 1_555
Mg34 Mg9 3.184943 1_555
Mg34 Mg71 3.185107 1_555
Mg35 Mg37 3.177133 1_565
Mg35 Mg36 3.177150 1_565
Mg35 Mg43 3.177911 1_555
Mg35 Mg44 3.177918 1_555
Mg35 Mg56 3.182955 1_565
Mg35 Mg57 3.182956 1_565
Mg35 Mg73 3.185099 1_555
Mg36 Mg46 3.170223 1_555
Mg36 Mg37 3.170832 1_555
Mg36 Mg45 3.174706 1_555
Mg36 Mg6 3.177266 1_555
Mg36 Mg38 3.178564 1_555
Mg36 Mg65 3.180503 1_555
Mg36 Mg57 3.180763 1_555
Mg36 Mg68 3.185921 1_555
Mg36 Mg4 3.186539 1_555
Mg37 Mg47 3.170254 1_555
Mg37 Mg45 3.174691 1_555
Mg37 Mg6 3.177266 1_555
Mg37 Mg39 3.178571 1_555
Mg37 Mg65 3.180503 1_555
Mg37 Mg56 3.180763 1_555
Mg37 Mg69 3.185937 1_555
Mg37 Mg5 3.186546 1_555
Mg38 Mg46 3.170231 1_555
Mg38 Mg40 3.170832 1_555
Mg38 Mg45 3.174714 1_555
Mg38 Mg66 3.180503 1_555
Mg38 Mg58 3.180755 1_555
Mg38 Mg9 3.181732 1_555
Mg38 Mg68 3.185929 1_555
Mg38 Mg4 3.186546 1_555
Mg39 Mg47 3.170240 1_555
Mg39 Mg41 3.170833 1_555
Mg39 Mg45 3.174698 1_555
Mg39 Mg67 3.180511 1_555
Mg39 Mg59 3.180763 1_655
Mg39 Mg8 3.181739 1_655
Mg39 Mg69 3.185921 1_555
Mg39 Mg5 3.186538 1_555
Mg40 Mg48 3.170247 1_555
Mg40 Mg45 3.174707 1_555
Mg40 Mg41 3.178578 1_555
Mg40 Mg66 3.180495 1_555
Mg40 Mg61 3.180763 1_555
Mg40 Mg70 3.185937 1_555
Mg41 Mg48 3.170240 1_555
Mg41 Mg45 3.174698 1_555
Mg41 Mg67 3.180495 1_555
Mg41 Mg60 3.180763 1_655
Mg41 Mg70 3.185929 1_555
Mg42 Mg62 3.178821 1_555
Mg42 Mg71 3.186806 1_555
Mg42 Mg72 3.186815 1_555
Mg42 Mg43 3.188774 1_555
Mg42 Mg44 3.188783 1_555
Mg42 Mg7 3.188817 1_555
Mg43 Mg63 3.178821 1_555
Mg43 Mg71 3.186807 1_555
Mg43 Mg73 3.186807 1_555
Mg43 Mg44 3.188766 1_555
Mg44 Mg64 3.178821 1_555
Mg44 Mg73 3.186806 1_555
Mg44 Mg72 3.186807 1_555
Mg45 Mg6 3.183109 1_555
Mg45 Mg67 3.183156 1_555
Mg45 Mg65 3.183157 1_555
Mg45 Mg66 3.183172 1_555
Mg46 Mg68 3.168027 1_555
Mg46 Mg51 3.170845 1_545
Mg46 Mg52 3.170853 1_555
Mg47 Mg69 3.168035 1_555
Mg47 Mg53 3.170844 1_655
Mg47 Mg50 3.170845 1_545
Mg47 Mg5 3.172539 1_555
Mg48 Mg70 3.168027 1_555
Mg48 Mg55 3.170845 1_655
Mg48 Mg54 3.170853 1_555
Mg49 Mg51 3.170388 1_545
Mg49 Mg52 3.170388 1_555
Mg49 Mg55 3.170389 1_545
Mg49 Mg53 3.170389 1_555
Mg49 Mg50 3.170404 1_445
Mg49 Mg54 3.170404 1_445
Mg49 Mg94 3.197415 1_545
Mg49 Mg74 3.197415 1_555
Mg49 Mg95 3.197423 1_445
Mg50 Mg54 3.165854 1_555
Mg50 Mg53 3.174918 1_665
Mg50 Mg63 3.178474 1_555
Mg50 Mg56 3.181357 1_565
Mg50 Mg69 3.182921 1_565
Mg50 Mg95 3.186271 1_555
Mg50 Mg76 3.191471 1_565
Mg50 Mg98 3.191710 1_555
Mg51 Mg55 3.165837 1_555
Mg51 Mg52 3.174911 1_565
Mg51 Mg64 3.178484 1_555
Mg51 Mg57 3.181389 1_565
Mg51 Mg68 3.182920 1_565
Mg51 Mg94 3.186271 1_555
Mg51 Mg75 3.191471 1_565
Mg51 Mg97 3.191727 1_555
Mg52 Mg53 3.165837 1_555
Mg52 Mg62 3.178468 1_555
Mg52 Mg58 3.181381 1_555
Mg52 Mg68 3.182928 1_555
Mg52 Mg74 3.186271 1_555
Mg52 Mg75 3.191471 1_555
Mg52 Mg80 3.191727 1_555
Mg53 Mg62 3.178482 1_555
Mg53 Mg59 3.181375 1_555
Mg53 Mg69 3.182920 1_455
Mg53 Mg74 3.186271 1_555
Mg53 Mg76 3.191471 1_455
Mg53 Mg79 3.191719 1_555
Mg54 Mg55 3.174918 1_655
Mg54 Mg63 3.178482 1_555
Mg54 Mg61 3.181357 1_555
Mg54 Mg70 3.182922 1_555
Mg54 Mg95 3.186279 1_555
Mg54 Mg93 3.191471 1_555
Mg54 Mg90 3.191710 1_555
Mg55 Mg64 3.178490 1_555
Mg55 Mg60 3.181375 1_555
Mg55 Mg70 3.182920 1_455
Mg55 Mg94 3.186271 1_555
Mg55 Mg93 3.191471 1_455
Mg55 Mg89 3.191727 1_555
Mg56 Mg69 3.175858 1_555
Mg56 Mg63 3.175889 1_545
Mg56 Mg65 3.178690 1_555
Mg56 Mg73 3.179244 1_545
Mg56 Mg98 3.183060 1_545
Mg56 Mg57 3.185171 1_555
Mg56 Mg78 3.185372 1_555
Mg56 Mg96 3.185976 1_545
Mg57 Mg68 3.175851 1_555
Mg57 Mg64 3.175895 1_545
Mg57 Mg65 3.178673 1_555
Mg57 Mg73 3.179237 1_545
Mg57 Mg97 3.183059 1_545
Mg57 Mg77 3.185372 1_555
Mg57 Mg96 3.185968 1_545
Mg58 Mg68 3.175851 1_555
Mg58 Mg62 3.175895 1_555
Mg58 Mg66 3.178657 1_555
Mg58 Mg71 3.179254 1_555
Mg58 Mg80 3.183059 1_555
Mg58 Mg61 3.185179 1_555
Mg58 Mg82 3.185364 1_555
Mg58 Mg87 3.185968 1_555
Mg59 Mg69 3.175842 1_455
Mg59 Mg62 3.175911 1_555
Mg59 Mg67 3.178689 1_455
Mg59 Mg72 3.179244 1_555
Mg59 Mg79 3.183060 1_555
Mg59 Mg60 3.185188 1_555
Mg59 Mg83 3.185371 1_455
Mg59 Mg86 3.185968 1_555
Mg60 Mg70 3.175841 1_455
Mg60 Mg64 3.175903 1_555
Mg60 Mg67 3.178681 1_455
Mg60 Mg72 3.179244 1_555
Mg60 Mg89 3.183052 1_555
Mg60 Mg85 3.185371 1_455
Mg60 Mg86 3.185976 1_555
Mg61 Mg70 3.175858 1_555
Mg61 Mg63 3.175905 1_555
Mg61 Mg66 3.178674 1_555
Mg61 Mg71 3.179244 1_555
Mg61 Mg90 3.183060 1_555
Mg61 Mg84 3.185380 1_555
Mg61 Mg87 3.185976 1_555
Mg62 Mg71 3.178416 1_555
Mg62 Mg72 3.178433 1_555
Mg62 Mg88 3.182803 1_555
Mg62 Mg80 3.184400 1_555
Mg62 Mg79 3.184415 1_555
Mg63 Mg73 3.178408 1_555
Mg63 Mg71 3.178416 1_555
Mg63 Mg92 3.182794 1_555
Mg63 Mg98 3.184408 1_555
Mg63 Mg90 3.184416 1_555
Mg64 Mg73 3.178408 1_555
Mg64 Mg72 3.178417 1_555
Mg64 Mg91 3.182795 1_555
Mg64 Mg97 3.184408 1_555
Mg64 Mg89 3.184415 1_555
Mg65 Mg68 3.178505 1_555
Mg65 Mg69 3.178529 1_555
Mg65 Mg67 3.179522 1_555
Mg65 Mg66 3.179523 1_555
Mg65 Mg77 3.179828 1_555
Mg65 Mg78 3.179836 1_555
Mg65 Mg81 3.182149 1_555
Mg66 Mg70 3.178521 1_555
Mg66 Mg68 3.178521 1_555
Mg66 Mg67 3.179522 1_555
Mg66 Mg84 3.179820 1_555
Mg66 Mg82 3.179828 1_555
Mg66 Mg81 3.182165 1_555
Mg67 Mg70 3.178506 1_555
Mg67 Mg69 3.178522 1_555
Mg67 Mg85 3.179820 1_555
Mg67 Mg83 3.179836 1_555
Mg67 Mg81 3.182148 1_555
Mg68 Mg75 3.180513 1_555
Mg68 Mg77 3.181055 1_555
Mg68 Mg82 3.181063 1_555
Mg69 Mg76 3.180513 1_555
Mg69 Mg83 3.181055 1_555
Mg69 Mg78 3.181062 1_555
Mg70 Mg93 3.180513 1_555
Mg70 Mg84 3.181062 1_555
Mg70 Mg85 3.181063 1_555
Mg71 Mg72 3.178498 1_555
Mg71 Mg73 3.178499 1_555
Mg71 Mg88 3.181139 1_555
Mg71 Mg92 3.181140 1_555
Mg71 Mg87 3.181290 1_555
Mg72 Mg73 3.178498 1_555
Mg72 Mg91 3.181140 1_555
Mg72 Mg88 3.181140 1_555
Mg72 Mg86 3.181290 1_555
Mg73 Mg91 3.181139 1_555
Mg73 Mg92 3.181140 1_555
Mg73 Mg96 3.181282 1_555
Mg74 Mg94 3.176074 1_545
Mg74 Mg95 3.176081 1_445
Mg74 Mg76 3.176381 1_455
Mg74 Mg75 3.176382 1_555
Mg74 Mg79 3.176651 1_555
Mg74 Mg80 3.176665 1_555
Mg75 Mg97 3.174809 1_545
Mg75 Mg80 3.174809 1_555
Mg75 Mg94 3.176381 1_545
Mg75 Mg77 3.181177 1_555
Mg75 Mg82 3.181177 1_555
Mg76 Mg98 3.174800 1_545
Mg76 Mg79 3.174800 1_655
Mg76 Mg95 3.176375 1_545
Mg76 Mg78 3.181177 1_555
Mg76 Mg83 3.181179 1_555
Mg77 Mg78 3.173547 1_555
Mg77 Mg81 3.175529 1_555
Mg77 Mg96 3.176322 1_545
Mg77 Mg82 3.177511 1_555
Mg77 Mg97 3.178912 1_545
Mg78 Mg81 3.175522 1_555
Mg78 Mg96 3.176321 1_545
Mg78 Mg83 3.177510 1_555
Mg78 Mg98 3.178921 1_545
Mg79 Mg83 3.178920 1_455
Mg79 Mg88 3.179195 1_555
Mg79 Mg86 3.179639 1_555
Mg79 Mg80 3.179779 1_555
Mg80 Mg82 3.178912 1_555
Mg80 Mg88 3.179189 1_555
Mg80 Mg87 3.179622 1_555
Mg81 Mg83 3.175521 1_555
Mg81 Mg85 3.175521 1_555
Mg81 Mg84 3.175522 1_555
Mg81 Mg82 3.175536 1_555
Mg82 Mg84 3.173539 1_555
Mg82 Mg87 3.176307 1_555
Mg83 Mg85 3.173532 1_555
Mg83 Mg86 3.176305 1_655
Mg84 Mg87 3.176321 1_555
Mg84 Mg85 3.177510 1_555
Mg84 Mg90 3.178937 1_555
Mg84 Mg93 3.181185 1_555
Mg85 Mg86 3.176305 1_655
Mg85 Mg89 3.178920 1_655
Mg85 Mg93 3.181194 1_555
Mg86 Mg88 3.179264 1_555
Mg86 Mg91 3.179272 1_555
Mg86 Mg89 3.179639 1_555
Mg87 Mg88 3.179264 1_555
Mg87 Mg92 3.179273 1_555
Mg87 Mg90 3.179654 1_555
Mg87 Mg99 3.181290 1_555
Mg88 Mg92 3.180672 1_555
Mg88 Mg91 3.180673 1_555
Mg88 Mg99 3.181139 1_555
Mg89 Mg93 3.174808 1_455
Mg89 Mg94 3.176667 1_555
Mg89 Mg91 3.179187 1_555
Mg89 Mg97 3.179787 1_555
Mg90 Mg93 3.174800 1_555
Mg90 Mg95 3.176642 1_555
Mg90 Mg92 3.179195 1_555
Mg90 Mg98 3.179772 1_555
Mg91 Mg97 3.179189 1_555
Mg91 Mg96 3.179256 1_555
Mg91 Mg92 3.180672 1_555
Mg92 Mg98 3.179195 1_555
Mg92 Mg96 3.179257 1_555
Mg92 Mg99 3.181140 1_555
Mg93 Mg94 3.176381 1_655
Mg93 Mg95 3.176391 1_555
Mg94 Mg95 3.176089 1_455
Mg94 Mg97 3.176665 1_555
Mg95 Mg98 3.176633 1_555
Mg96 Mg97 3.179630 1_555
Mg96 Mg98 3.179646 1_555
Mg100 Mg110 3.178417 1_555
Mg100 Mg108 3.178433 1_555
Mg100 Mg99 3.178498 1_555
Mg100 Mg101 3.178498 1_555
Mg100 Mg115 3.179244 1_555
Mg100 Mg114 3.179244 1_555
Mg100 Mg91 3.181140 1_555
Mg100 Mg88 3.181140 1_555
Mg100 Mg86 3.181290 1_555
Mg100 Mg137 3.185099 1_555
Mg100 Mg130 3.186807 1_555
Mg100 Mg128 3.186815 1_555
Mg101 Mg110 3.178408 1_555
Mg101 Mg109 3.178408 1_555
Mg101 Mg99 3.178499 1_555
Mg101 Mg112 3.179237 1_565
Mg101 Mg111 3.179244 1_565
Mg101 Mg91 3.181139 1_555
Mg101 Mg92 3.181140 1_555
Mg101 Mg96 3.181282 1_555
Mg101 Mg139 3.185099 1_555
Mg101 Mg130 3.186806 1_555
Mg101 Mg129 3.186807 1_555
Mg102 Mg124 3.168027 1_555
Mg102 Mg112 3.175851 1_555
Mg102 Mg113 3.175851 1_555
Mg102 Mg105 3.178505 1_555
Mg102 Mg106 3.178521 1_555
Mg102 Mg75 3.180513 1_555
Mg102 Mg77 3.181055 1_555
Mg102 Mg82 3.181063 1_555
Mg102 Mg118 3.182920 1_545
Mg102 Mg119 3.182928 1_555
Mg102 Mg131 3.185921 1_555
Mg102 Mg133 3.185929 1_555
Mg103 Mg125 3.168035 1_555
Mg103 Mg114 3.175842 1_655
Mg103 Mg111 3.175858 1_555
Mg103 Mg107 3.178522 1_555
Mg103 Mg105 3.178529 1_555
Mg103 Mg76 3.180513 1_555
Mg103 Mg83 3.181055 1_555
Mg103 Mg78 3.181062 1_555
Mg103 Mg120 3.182920 1_655
Mg103 Mg117 3.182921 1_545
Mg103 Mg134 3.185921 1_555
Mg103 Mg132 3.185937 1_555
Mg104 Mg126 3.168027 1_555
Mg104 Mg115 3.175841 1_655
Mg104 Mg116 3.175858 1_555
Mg104 Mg107 3.178506 1_555
Mg104 Mg106 3.178521 1_555
Mg104 Mg93 3.180513 1_555
Mg104 Mg84 3.181062 1_555
Mg104 Mg85 3.181063 1_555
Mg104 Mg122 3.182920 1_655
Mg104 Mg121 3.182922 1_555
Mg104 Mg136 3.185929 1_555
Mg104 Mg135 3.185937 1_555
Mg105 Mg112 3.178673 1_555
Mg105 Mg111 3.178690 1_555
Mg105 Mg107 3.179522 1_555
Mg105 Mg106 3.179523 1_555
Mg105 Mg77 3.179828 1_555
Mg105 Mg78 3.179836 1_555
Mg105 Mg131 3.180503 1_555
Mg105 Mg132 3.180503 1_555
Mg105 Mg81 3.182149 1_555
Mg105 Mg127 3.183157 1_555
Mg106 Mg113 3.178657 1_555
Mg106 Mg116 3.178674 1_555
Mg106 Mg107 3.179522 1_555
Mg106 Mg84 3.179820 1_555
Mg106 Mg82 3.179828 1_555
Mg106 Mg135 3.180495 1_555
Mg106 Mg133 3.180503 1_555
Mg106 Mg81 3.182165 1_555
Mg106 Mg127 3.183172 1_555
Mg107 Mg115 3.178681 1_655
Mg107 Mg114 3.178689 1_655
Mg107 Mg85 3.179820 1_555
Mg107 Mg83 3.179836 1_555
Mg107 Mg136 3.180495 1_555
Mg107 Mg134 3.180511 1_555
Mg107 Mg81 3.182148 1_555
Mg107 Mg127 3.183156 1_555
Mg108 Mg113 3.175895 1_555
Mg108 Mg114 3.175911 1_555
Mg108 Mg99 3.178416 1_555
Mg108 Mg119 3.178468 1_555
Mg108 Mg120 3.178482 1_555
Mg108 Mg128 3.178821 1_555
Mg108 Mg88 3.182803 1_555
Mg108 Mg80 3.184400 1_555
Mg108 Mg79 3.184415 1_555
Mg108 Mg141 3.189610 1_555
Mg108 Mg140 3.189625 1_555
Mg109 Mg111 3.175889 1_565
Mg109 Mg116 3.175905 1_555
Mg109 Mg99 3.178416 1_555
Mg109 Mg117 3.178474 1_555
Mg109 Mg121 3.178482 1_555
Mg109 Mg129 3.178821 1_555
Mg109 Mg92 3.182794 1_555
Mg109 Mg98 3.184408 1_555
Mg109 Mg90 3.184416 1_555
Mg109 Mg143 3.189625 1_555
Mg109 Mg145 3.189626 1_555
Mg110 Mg112 3.175895 1_565
Mg110 Mg115 3.175903 1_555
Mg110 Mg118 3.178484 1_555
Mg110 Mg122 3.178490 1_555
Mg110 Mg130 3.178821 1_555
Mg110 Mg91 3.182795 1_555
Mg110 Mg97 3.184408 1_555
Mg110 Mg89 3.184415 1_555
Mg110 Mg144 3.189618 1_555
Mg110 Mg142 3.189625 1_555
Mg111 Mg132 3.180763 1_555
Mg111 Mg117 3.181357 1_545
Mg111 Mg139 3.182955 1_545
Mg111 Mg98 3.183060 1_545
Mg111 Mg112 3.185171 1_555
Mg111 Mg78 3.185372 1_555
Mg111 Mg96 3.185976 1_545
Mg111 Mg145 3.190823 1_545
Mg112 Mg131 3.180763 1_555
Mg112 Mg118 3.181389 1_545
Mg112 Mg139 3.182956 1_545
Mg112 Mg97 3.183059 1_545
Mg112 Mg77 3.185372 1_555
Mg112 Mg96 3.185968 1_545
Mg112 Mg144 3.190839 1_545
Mg113 Mg99 3.179254 1_555
Mg113 Mg133 3.180755 1_555
Mg113 Mg119 3.181381 1_555
Mg113 Mg138 3.182956 1_555
Mg113 Mg80 3.183059 1_555
Mg113 Mg116 3.185179 1_555
Mg113 Mg82 3.185364 1_555
Mg113 Mg87 3.185968 1_555
Mg113 Mg141 3.190839 1_555
Mg114 Mg134 3.180763 1_455
Mg114 Mg120 3.181375 1_555
Mg114 Mg137 3.182956 1_555
Mg114 Mg79 3.183060 1_555
Mg114 Mg115 3.185188 1_555
Mg114 Mg83 3.185371 1_455
Mg114 Mg86 3.185968 1_555
Mg114 Mg140 3.190831 1_555
Mg115 Mg136 3.180763 1_455
Mg115 Mg122 3.181375 1_555
Mg115 Mg137 3.182964 1_555
Mg115 Mg89 3.183052 1_555
Mg115 Mg85 3.185371 1_455
Mg115 Mg86 3.185976 1_555
Mg115 Mg142 3.190831 1_555
Mg116 Mg99 3.179244 1_555
Mg116 Mg135 3.180763 1_555
Mg116 Mg121 3.181357 1_555
Mg116 Mg138 3.182955 1_555
Mg116 Mg90 3.183060 1_555
Mg116 Mg84 3.185380 1_555
Mg116 Mg87 3.185976 1_555
Mg116 Mg143 3.190831 1_555
Mg117 Mg121 3.165854 1_555
Mg117 Mg123 3.170404 1_665
Mg117 Mg125 3.170845 1_565
Mg117 Mg145 3.172979 1_555
Mg117 Mg120 3.174918 1_665
Mg117 Mg95 3.186271 1_555
Mg117 Mg76 3.191471 1_565
Mg117 Mg98 3.191710 1_555
Mg117 Mg147 3.220687 1_555
Mg118 Mg122 3.165837 1_555
Mg118 Mg123 3.170388 1_565
Mg118 Mg124 3.170845 1_565
Mg118 Mg144 3.172987 1_555
Mg118 Mg119 3.174911 1_565
Mg118 Mg94 3.186271 1_555
Mg118 Mg75 3.191471 1_565
Mg118 Mg97 3.191727 1_555
Mg118 Mg148 3.220678 1_555
Mg119 Mg120 3.165837 1_555
Mg119 Mg123 3.170388 1_555
Mg119 Mg124 3.170853 1_555
Mg119 Mg141 3.172987 1_555
Mg119 Mg74 3.186271 1_555
Mg119 Mg75 3.191471 1_555
Mg119 Mg80 3.191727 1_555
Mg119 Mg146 3.220678 1_555
Mg120 Mg123 3.170389 1_555
Mg120 Mg125 3.170844 1_455
Mg120 Mg140 3.172987 1_555
Mg120 Mg74 3.186271 1_555
Mg120 Mg76 3.191471 1_455
Mg120 Mg79 3.191719 1_555
Mg120 Mg146 3.220679 1_555
Mg121 Mg123 3.170404 1_665
Mg121 Mg126 3.170853 1_555
Mg121 Mg143 3.172979 1_555
Mg121 Mg122 3.174918 1_655
Mg121 Mg95 3.186279 1_555
Mg121 Mg93 3.191471 1_555
Mg121 Mg90 3.191710 1_555
Mg121 Mg147 3.220687 1_555
Mg122 Mg123 3.170389 1_565
Mg122 Mg126 3.170845 1_455
Mg122 Mg142 3.172987 1_555
Mg122 Mg94 3.186271 1_555
Mg122 Mg93 3.191471 1_455
Mg122 Mg89 3.191727 1_555
Mg122 Mg148 3.220679 1_555
Mg123 Mg147 3.189211 1_445
Mg123 Mg148 3.189212 1_545
Mg123 Mg146 3.189212 1_555
Mg123 Mg94 3.197402 1_545
Mg123 Mg74 3.197402 1_555
Mg123 Mg95 3.197410 1_445
Mg124 Mg144 3.165185 1_545
Mg124 Mg141 3.165201 1_555
Mg124 Mg131 3.170223 1_555
Mg124 Mg133 3.170231 1_555
Mg124 Mg4 3.172523 1_556
Mg124 Mg3 3.185641 1_556
Mg124 Mg148 3.189524 1_545
Mg124 Mg146 3.189532 1_555
Mg125 Mg145 3.165184 1_545
Mg125 Mg140 3.165192 1_655
Mg125 Mg134 3.170240 1_555
Mg125 Mg132 3.170254 1_555
Mg125 Mg5 3.172539 1_556
Mg125 Mg2 3.185640 1_556
Mg125 Mg146 3.189516 1_655
Mg125 Mg147 3.189517 1_545
Mg126 Mg142 3.165184 1_655
Mg126 Mg143 3.165199 1_555
Mg126 Mg136 3.170240 1_555
Mg126 Mg135 3.170247 1_555
Mg126 Mg16 3.172524 1_556
Mg126 Mg20 3.185641 1_556
Mg126 Mg21 3.185649 1_556
Mg126 Mg148 3.189524 1_655
Mg126 Mg147 3.189533 1_555
Mg127 Mg132 3.174691 1_555
Mg127 Mg134 3.174698 1_555
Mg127 Mg136 3.174698 1_555
Mg127 Mg131 3.174706 1_555
Mg127 Mg135 3.174707 1_555
Mg127 Mg133 3.174714 1_555
Mg127 Mg6 3.183109 1_556
Mg128 Mg138 3.177918 1_555
Mg128 Mg137 3.177918 1_555
Mg128 Mg13 3.182159 1_556
Mg128 Mg141 3.184905 1_555
Mg128 Mg140 3.184912 1_555
Mg128 Mg99 3.186806 1_555
Mg128 Mg129 3.188774 1_555
Mg128 Mg130 3.188783 1_555
Mg128 Mg7 3.188817 1_556
Mg129 Mg139 3.177911 1_555
Mg129 Mg138 3.177927 1_555
Mg129 Mg17 3.182143 1_556
Mg129 Mg143 3.184920 1_555
Mg129 Mg145 3.184928 1_555
Mg129 Mg99 3.186807 1_555
Mg129 Mg130 3.188766 1_555
Mg129 Mg18 3.188816 1_556
Mg130 Mg139 3.177918 1_555
Mg130 Mg137 3.177918 1_555
Mg130 Mg17 3.182143 1_556
Mg130 Mg142 3.184920 1_555
Mg130 Mg144 3.184922 1_555
Mg130 Mg19 3.188825 1_556
Mg131 Mg132 3.170832 1_555
Mg131 Mg139 3.177150 1_545
Mg131 Mg6 3.177266 1_556
Mg131 Mg133 3.178564 1_555
Mg131 Mg23 3.181740 1_546
Mg131 Mg144 3.184978 1_545
Mg131 Mg4 3.186539 1_556
Mg132 Mg139 3.177133 1_545
Mg132 Mg6 3.177266 1_556
Mg132 Mg134 3.178571 1_555
Mg132 Mg22 3.181740 1_546
Mg132 Mg145 3.184972 1_545
Mg132 Mg5 3.186546 1_556
Mg133 Mg135 3.170832 1_555
Mg133 Mg138 3.177134 1_555
Mg133 Mg9 3.181732 1_556
Mg133 Mg141 3.184978 1_555
Mg133 Mg4 3.186546 1_556
Mg134 Mg136 3.170833 1_555
Mg134 Mg137 3.177141 1_655
Mg134 Mg8 3.181739 1_656
Mg134 Mg140 3.184978 1_655
Mg134 Mg5 3.186538 1_556
Mg135 Mg138 3.177125 1_555
Mg135 Mg136 3.178578 1_555
Mg135 Mg15 3.181740 1_556
Mg135 Mg143 3.184987 1_555
Mg135 Mg16 3.186546 1_556
Mg136 Mg137 3.177141 1_655
Mg136 Mg14 3.181739 1_656
Mg136 Mg142 3.184986 1_655
Mg136 Mg16 3.186555 1_556
Mg137 Mg8 3.184943 1_556
Mg137 Mg14 3.184951 1_556
Mg137 Mg140 3.194572 1_555
Mg137 Mg142 3.194588 1_555
Mg138 Mg15 3.184943 1_556
Mg138 Mg9 3.184943 1_556
Mg138 Mg99 3.185107 1_555
Mg138 Mg143 3.194579 1_555
Mg138 Mg141 3.194579 1_555
Mg139 Mg17 3.178136 1_556
Mg139 Mg22 3.184943 1_556
Mg139 Mg23 3.184943 1_556
Mg139 Mg145 3.194563 1_555
Mg139 Mg144 3.194587 1_555
Mg140 Mg141 3.169428 1_555
Mg140 Mg7 3.171189 1_556
Mg140 Mg8 3.175729 1_556
Mg140 Mg146 3.189783 1_555
Mg140 Mg2 3.199592 1_456
Mg141 Mg7 3.171197 1_556
Mg141 Mg9 3.175737 1_556
Mg141 Mg146 3.189782 1_555
Mg141 Mg3 3.199592 1_556
Mg142 Mg144 3.169429 1_555
Mg142 Mg19 3.171189 1_556
Mg142 Mg148 3.189783 1_555
Mg142 Mg20 3.199592 1_456
Mg143 Mg145 3.169446 1_555
Mg143 Mg18 3.171197 1_556
Mg143 Mg15 3.175729 1_556
Mg143 Mg147 3.189782 1_555
Mg143 Mg21 3.199591 1_556
Mg144 Mg19 3.171197 1_556
Mg144 Mg23 3.175737 1_556
Mg144 Mg148 3.189781 1_555
Mg145 Mg18 3.171205 1_556
Mg145 Mg22 3.175721 1_556
Mg145 Mg147 3.189789 1_555
Mg146 Mg147 3.120594 1_445
Mg146 Mg148 3.120595 1_545
Mg146 Mg2 3.122237 1_456
Mg146 Mg3 3.122244 1_556
Mg147 Mg148 3.120593 1_655
Mg147 Mg21 3.122237 1_556
Mg148 Mg20 3.122237 1_456
Ag0 Mg0 3.116789 1_455
Ag0 Mg21 3.116790 1_445
Ag0 Mg2 3.116791 1_455
Ag0 Mg20 3.116791 1_445
Ag0 Mg3 3.116798 1_555
Ag0 Mg1 3.116805 1_555
Ag0 Mg25 3.120158 1_445
Ag0 Mg26 3.120158 1_545
Ag0 Mg24 3.120158 1_555
Ag0 Mg147 3.120170 1_444
Ag0 Mg148 3.120171 1_544
Ag0 Mg146 3.120171 1_554
