# generated using pymatgen
data_Hf(VGa2)2
_symmetry_space_group_name_H-M   'P 1'
_cell_length_a   5.15087768
_cell_length_b   5.20757411
_cell_length_c   5.20757411
_cell_angle_alpha   75.84264359
_cell_angle_beta   60.35951314
_cell_angle_gamma   60.35951314
_symmetry_Int_Tables_number   1
_chemical_formula_structural   Hf(VGa2)2
_chemical_formula_sum   'Hf1 V2 Ga4'
_cell_volume   105.52061321
_cell_formula_units_Z   1
loop_
 _symmetry_equiv_pos_site_id
 _symmetry_equiv_pos_as_xyz
  1  'x, y, z'
loop_
 _atom_site_type_symbol
 _atom_site_label
 _atom_site_symmetry_multiplicity
 _atom_site_fract_x
 _atom_site_fract_y
 _atom_site_fract_z
 _atom_site_occupancy
  Hf  Hf0  1  -0.00000000  -0.00000000  0.00000000  1
  V  V0  1  0.25000000  0.50000000  0.50000000  1
  V  V1  1  0.75000000  0.50000000  0.50000000  1
  Ga  Ga0  1  0.30287797  -0.00000000  0.39424306  1
  Ga  Ga1  1  0.69712203  0.00000000  0.60575694  1
  Ga  Ga2  1  0.69712203  0.60575694  0.00000000  1
  Ga  Ga3  1  0.30287797  0.39424306  -0.00000000  1
loop_
_geom_bond_atom_site_label_1
_geom_bond_atom_site_label_2
_geom_bond_distance
_geom_bond_site_symmetry_2
V0 V1 2.575439 1_555
V0 V1 2.575439 1_455
Ga0 Ga2 2.523522 1_545
Ga0 Ga3 2.523522 1_555
Ga0 V0 2.647419 1_545
Ga0 V1 2.647419 1_455
Ga0 V0 2.647421 1_555
Ga0 V1 2.647422 1_545
Ga0 Hf0 2.741741 1_556
Ga0 Ga1 2.747610 1_455
Ga0 Ga1 2.747620 1_555
Ga0 Hf0 3.133201 1_555
Ga0 Hf0 3.133206 1_655
Ga1 Ga3 2.523522 1_556
Ga1 Ga2 2.523522 1_546
Ga1 V1 2.647419 1_555
Ga1 V0 2.647419 1_645
Ga1 V1 2.647421 1_545
Ga1 V0 2.647422 1_555
Ga1 Hf0 2.741741 1_655
Ga1 Hf0 3.133201 1_656
Ga1 Hf0 3.133206 1_556
Ga2 V1 2.647419 1_555
Ga2 V0 2.647419 1_654
Ga2 V1 2.647421 1_554
Ga2 V0 2.647422 1_555
Ga2 Hf0 2.741741 1_655
Ga2 Ga3 2.747610 1_655
Ga2 Ga3 2.747620 1_555
Ga2 Hf0 3.133201 1_665
Ga2 Hf0 3.133206 1_565
Ga3 V0 2.647419 1_554
Ga3 V1 2.647419 1_455
Ga3 V0 2.647421 1_555
Ga3 V1 2.647422 1_554
Ga3 Hf0 2.741741 1_565
Ga3 Hf0 3.133201 1_555
Ga3 Hf0 3.133206 1_655
