# generated using pymatgen
data_Li2Mn3FeO8
_symmetry_space_group_name_H-M   'P 1'
_cell_length_a   5.81433671
_cell_length_b   5.87125701
_cell_length_c   9.52459334
_cell_angle_alpha   89.94213866
_cell_angle_beta   90.54403732
_cell_angle_gamma   61.47183237
_symmetry_Int_Tables_number   1
_chemical_formula_structural   Li2Mn3FeO8
_chemical_formula_sum   'Li4 Mn6 Fe2 O16'
_cell_volume   285.64853187
_cell_formula_units_Z   2
loop_
 _symmetry_equiv_pos_site_id
 _symmetry_equiv_pos_as_xyz
  1  'x, y, z'
loop_
 _atom_site_type_symbol
 _atom_site_label
 _atom_site_symmetry_multiplicity
 _atom_site_fract_x
 _atom_site_fract_y
 _atom_site_fract_z
 _atom_site_occupancy
  Li  Li0  1  0.67197800  0.66351100  0.88840900  1
  Li  Li1  1  0.32868500  0.33552800  0.39185700  1
  Li  Li2  1  0.00539200  0.00610200  0.99791100  1
  Li  Li3  1  0.99608200  0.99226800  0.49715400  1
  Mn  Mn0  1  0.83511600  0.82863000  0.21469200  1
  Mn  Mn1  1  0.34153600  0.83317700  0.21427300  1
  Mn  Mn2  1  0.82827400  0.33930900  0.21588300  1
  Mn  Mn3  1  0.16685100  0.16954300  0.71328200  1
  Mn  Mn4  1  0.16911600  0.65922400  0.71805800  1
  Mn  Mn5  1  0.65840200  0.16900700  0.71290000  1
  Fe  Fe0  1  0.34088500  0.32495000  0.99144300  1
  Fe  Fe1  1  0.65417600  0.67334700  0.49336900  1
  O  O0  1  0.66213100  0.67481700  0.10734600  1
  O  O1  1  0.34494100  0.30433300  0.60116400  1
  O  O2  1  0.00976200  0.99312500  0.30943900  1
  O  O3  1  0.98273700  0.02770000  0.81270700  1
  O  O4  1  0.31550200  0.84496500  0.60542200  1
  O  O5  1  0.83694200  0.32065100  0.59838900  1
  O  O6  1  0.19043900  0.14586300  0.09966200  1
  O  O7  1  0.82765900  0.84201300  0.60532200  1
  O  O8  1  0.16022500  0.68022000  0.10245800  1
  O  O9  1  0.68602600  0.15554200  0.10347700  1
  O  O10  1  0.48889400  0.54720900  0.34407000  1
  O  O11  1  0.52725600  0.96503500  0.33226300  1
  O  O12  1  0.95719700  0.52727700  0.33533300  1
  O  O13  1  0.04258100  0.47060800  0.83496200  1
  O  O14  1  0.47991700  0.03610400  0.83237100  1
  O  O15  1  0.49099400  0.47024500  0.83422600  1
loop_
_geom_bond_atom_site_label_1
_geom_bond_atom_site_label_2
_geom_bond_distance
_geom_bond_site_symmetry_2
Li0 O15 1.947476 1_555
Li0 O13 1.968748 1_655
Li0 O14 1.992579 1_565
Li0 O0 2.086868 1_556
Li1 O10 1.931901 1_555
Li1 O12 1.968928 1_455
Li1 O1 1.998981 1_555
Li1 O11 2.000743 1_545
Li2 O3 1.767564 1_455
Li2 O6 1.896126 1_556
Li2 O9 1.926111 1_456
Li2 O8 1.948514 1_546
Li3 O2 1.790541 1_655
Li3 O7 1.908179 1_555
Li3 O4 1.920471 1_655
Li3 O5 1.954437 1_565
Mn0 O2 1.923379 1_655
Mn0 O0 1.929367 1_555
Mn0 O12 1.932735 1_555
Mn0 O11 1.941663 1_555
Mn0 O8 1.985485 1_655
Mn0 O9 1.986641 1_565
Mn1 O10 1.919133 1_555
Mn1 O2 1.931131 1_555
Mn1 O0 1.938778 1_555
Mn1 O6 1.941908 1_565
Mn1 O11 1.950785 1_555
Mn1 O8 1.984176 1_555
Mn2 O9 1.957626 1_555
Mn2 O12 1.962339 1_555
Mn2 O2 1.992124 1_645
Mn2 O0 2.010346 1_555
Mn2 O10 2.149996 1_555
Mn2 O6 2.170681 1_655
Mn3 O3 1.898818 1_455
Mn3 O1 1.908112 1_555
Mn3 O13 1.946753 1_555
Mn3 O14 1.952070 1_555
Mn3 O4 1.970173 1_545
Mn3 O5 1.999189 1_455
Mn4 O13 1.949035 1_555
Mn4 O15 1.983081 1_555
Mn4 O4 1.991531 1_555
Mn4 O7 2.041651 1_455
Mn4 O3 2.109630 1_465
Mn4 O1 2.148943 1_555
Mn5 O3 1.902144 1_555
Mn5 O1 1.914135 1_555
Mn5 O14 1.942889 1_555
Mn5 O15 1.947311 1_555
Mn5 O7 1.980576 1_545
Mn5 O5 1.990546 1_555
Fe0 O6 1.956185 1_556
Fe0 O9 2.050784 1_556
Fe0 O15 2.113095 1_555
Fe0 O13 2.119555 1_555
Fe0 O8 2.122502 1_556
Fe0 O14 2.131667 1_555
Fe1 O7 2.017658 1_555
Fe1 O10 2.037182 1_555
Fe1 O4 2.044209 1_555
Fe1 O5 2.071620 1_555
Fe1 O11 2.144321 1_555
Fe1 O12 2.171423 1_555
