# generated using pymatgen
data_Tl2(ReS2)3
_symmetry_space_group_name_H-M   'P 1'
_cell_length_a   9.75487668
_cell_length_b   9.75487668
_cell_length_c   11.99814908
_cell_angle_alpha   89.93928463
_cell_angle_beta   89.93928463
_cell_angle_gamma   61.01266407
_symmetry_Int_Tables_number   1
_chemical_formula_structural   Tl2(ReS2)3
_chemical_formula_sum   'Tl8 Re12 S24'
_cell_volume   998.68826463
_cell_formula_units_Z   4
loop_
 _symmetry_equiv_pos_site_id
 _symmetry_equiv_pos_as_xyz
  1  'x, y, z'
loop_
 _atom_site_type_symbol
 _atom_site_label
 _atom_site_symmetry_multiplicity
 _atom_site_fract_x
 _atom_site_fract_y
 _atom_site_fract_z
 _atom_site_occupancy
  Tl  Tl0  1  0.58560700  0.41439300  0.25000000  1
  Tl  Tl1  1  0.41439300  0.58560700  0.75000000  1
  Tl  Tl2  1  0.20702400  0.79297600  0.25000000  1
  Tl  Tl3  1  0.79297600  0.20702400  0.75000000  1
  Tl  Tl4  1  0.35369800  0.87642600  0.51316600  1
  Tl  Tl5  1  0.12357400  0.64630200  0.98683400  1
  Tl  Tl6  1  0.64630200  0.12357400  0.48683400  1
  Tl  Tl7  1  0.87642600  0.35369800  0.01316600  1
  Re  Re0  1  0.69209000  0.99234300  0.02538400  1
  Re  Re1  1  0.00765700  0.30791000  0.47461600  1
  Re  Re2  1  0.30791000  0.00765700  0.97461600  1
  Re  Re3  1  0.99234300  0.69209000  0.52538400  1
  Re  Re4  1  0.52614200  0.88430000  0.13111000  1
  Re  Re5  1  0.11570000  0.47385800  0.36889000  1
  Re  Re6  1  0.47385800  0.11570000  0.86889000  1
  Re  Re7  1  0.88430000  0.52614200  0.63111000  1
  Re  Re8  1  0.39874800  0.18681300  0.08247900  1
  Re  Re9  1  0.81318700  0.60125200  0.41752100  1
  Re  Re10  1  0.60125200  0.81318700  0.91752100  1
  Re  Re11  1  0.18681300  0.39874800  0.58247900  1
  S  S0  1  0.99060200  0.94224300  0.57269900  1
  S  S1  1  0.05775700  0.00939800  0.92730100  1
  S  S2  1  0.00939800  0.05775700  0.42730100  1
  S  S3  1  0.94224300  0.99060200  0.07269900  1
  S  S4  1  0.74610500  0.92600200  0.83097400  1
  S  S5  1  0.07399800  0.25389500  0.66902600  1
  S  S6  1  0.25389500  0.07399800  0.16902600  1
  S  S7  1  0.92600200  0.74610500  0.33097400  1
  S  S8  1  0.28392000  0.20891600  0.43122200  1
  S  S9  1  0.79108400  0.71608000  0.06877800  1
  S  S10  1  0.71608000  0.79108400  0.56877800  1
  S  S11  1  0.20891600  0.28392000  0.93122200  1
  S  S12  1  0.39256100  0.94360000  0.78306800  1
  S  S13  1  0.05640000  0.60743900  0.71693200  1
  S  S14  1  0.60743900  0.05640000  0.21693200  1
  S  S15  1  0.94360000  0.39256100  0.28306800  1
  S  S16  1  0.43807200  0.72981700  0.02089700  1
  S  S17  1  0.27018300  0.56192800  0.47910300  1
  S  S18  1  0.56192800  0.27018300  0.97910300  1
  S  S19  1  0.72981700  0.43807200  0.52089700  1
  S  S20  1  0.56140500  0.73142700  0.30654300  1
  S  S21  1  0.26857300  0.43859500  0.19345700  1
  S  S22  1  0.43859500  0.26857300  0.69345700  1
  S  S23  1  0.73142700  0.56140500  0.80654300  1
loop_
_geom_bond_atom_site_label_1
_geom_bond_atom_site_label_2
_geom_bond_distance
_geom_bond_site_symmetry_2
Re0 S4 2.409848 1_554
Re0 S14 2.419311 1_565
Re0 S18 2.434974 1_564
Re0 S9 2.437602 1_555
Re0 S3 2.497988 1_555
Re1 S5 2.409848 1_555
Re1 S15 2.419311 1_455
Re1 S19 2.434974 1_455
Re1 S8 2.437602 1_555
Re1 S2 2.497988 1_555
Re2 S6 2.409848 1_556
Re2 S12 2.419311 1_545
Re2 S16 2.434974 1_546
Re2 S11 2.437602 1_555
Re2 S1 2.497988 1_555
Re3 S7 2.409848 1_555
Re3 S13 2.419311 1_655
Re3 S17 2.434974 1_655
Re3 S10 2.437602 1_555
Re3 S0 2.497988 1_555
Re4 S14 2.409031 1_565
Re4 S9 2.412374 1_555
Re4 S6 2.433147 1_565
Re4 S16 2.453380 1_555
Re4 S20 2.504067 1_555
Re5 S15 2.409031 1_455
Re5 S8 2.412374 1_555
Re5 S7 2.433147 1_455
Re5 S17 2.453380 1_555
Re5 S21 2.504067 1_555
Re6 S12 2.409031 1_545
Re6 S11 2.412374 1_555
Re6 S4 2.433147 1_545
Re6 S18 2.453380 1_555
Re6 S22 2.504067 1_555
Re7 S13 2.409031 1_655
Re7 S10 2.412374 1_555
Re7 S5 2.433147 1_655
Re7 S19 2.453380 1_555
Re7 S23 2.504067 1_555
Re8 S6 2.405756 1_555
Re8 S14 2.420238 1_555
Re8 S11 2.433774 1_554
Re8 S18 2.445818 1_554
Re8 S21 2.529497 1_555
Re9 S7 2.405756 1_555
Re9 S15 2.420238 1_555
Re9 S10 2.433774 1_555
Re9 S19 2.445818 1_555
Re9 S20 2.529497 1_555
Re10 S4 2.405756 1_555
Re10 S12 2.420238 1_555
Re10 S9 2.433774 1_556
Re10 S16 2.445818 1_556
Re10 S23 2.529497 1_555
Re11 S5 2.405756 1_555
Re11 S13 2.420238 1_555
Re11 S8 2.433774 1_555
Re11 S17 2.445818 1_555
Re11 S22 2.529497 1_555
S0 S2 2.131211 1_665
S0 Tl6 3.117018 1_565
S0 Tl3 3.176477 1_565
S1 S3 2.131211 1_446
S1 Tl7 3.117018 1_456
S1 Tl3 3.176477 1_455
S2 Tl4 3.117018 1_545
S2 Tl2 3.176477 1_545
S3 Tl5 3.117018 1_654
S3 Tl2 3.176477 1_655
S4 Tl3 3.142626 1_565
S5 Tl3 3.142626 1_455
S6 Tl2 3.142626 1_545
S7 Tl2 3.142626 1_655
S8 Tl4 3.131210 1_545
S9 Tl5 3.131210 1_654
S10 Tl6 3.131210 1_565
S11 Tl7 3.131210 1_456
S20 Tl0 3.062150 1_555
S20 Tl4 3.077490 1_555
S21 Tl0 3.062150 1_555
S21 Tl5 3.077490 1_554
S22 Tl1 3.062150 1_555
S22 Tl6 3.077490 1_555
S23 Tl1 3.062150 1_555
S23 Tl7 3.077490 1_556
