# generated using pymatgen
data_Cr(WO4)2
_symmetry_space_group_name_H-M   'P 1'
_cell_length_a   5.77702300
_cell_length_b   5.02972700
_cell_length_c   10.49322067
_cell_angle_alpha   61.90608826
_cell_angle_beta   90.00000000
_cell_angle_gamma   90.00000000
_symmetry_Int_Tables_number   1
_chemical_formula_structural   Cr(WO4)2
_chemical_formula_sum   'Cr2 W4 O16'
_cell_volume   268.97567315
_cell_formula_units_Z   2
loop_
 _symmetry_equiv_pos_site_id
 _symmetry_equiv_pos_as_xyz
  1  'x, y, z'
loop_
 _atom_site_type_symbol
 _atom_site_label
 _atom_site_symmetry_multiplicity
 _atom_site_fract_x
 _atom_site_fract_y
 _atom_site_fract_z
 _atom_site_occupancy
  Cr  Cr0  1  0.34705300  0.50000000  0.75000000  1
  Cr  Cr1  1  0.65294700  0.50000000  0.25000000  1
  W  W0  1  0.17079000  0.26615800  0.49231900  1
  W  W1  1  0.17079000  0.73384200  0.00768100  1
  W  W2  1  0.82921000  0.73384200  0.50768100  1
  W  W3  1  0.82921000  0.26615800  0.99231900  1
  O  O0  1  0.34053600  0.70966400  0.86164900  1
  O  O1  1  0.34053600  0.29033600  0.63835100  1
  O  O2  1  0.65946400  0.29033600  0.13835100  1
  O  O3  1  0.65946400  0.70966400  0.36164900  1
  O  O4  1  0.88973800  0.18947600  0.39095900  1
  O  O5  1  0.88973800  0.81052400  0.10904100  1
  O  O6  1  0.11026200  0.81052400  0.60904100  1
  O  O7  1  0.11026200  0.18947600  0.89095900  1
  O  O8  1  0.59314200  0.25348600  0.87915000  1
  O  O9  1  0.59314200  0.74651400  0.62085000  1
  O  O10  1  0.40685800  0.74651400  0.12085000  1
  O  O11  1  0.40685800  0.25348600  0.37915000  1
  O  O12  1  0.89061200  0.67699000  0.88812900  1
  O  O13  1  0.10938800  0.32301000  0.11187100  1
  O  O14  1  0.89061200  0.32301000  0.61187100  1
  O  O15  1  0.10938800  0.67699000  0.38812900  1
loop_
_geom_bond_atom_site_label_1
_geom_bond_atom_site_label_2
_geom_bond_distance
_geom_bond_site_symmetry_2
Cr0 O0 1.910407 1_555
Cr0 O1 1.910407 1_555
Cr0 O9 1.952552 1_555
Cr0 O8 1.952552 1_555
Cr0 O6 2.079098 1_555
Cr0 O7 2.079098 1_555
Cr1 O3 1.910407 1_555
Cr1 O2 1.910407 1_555
Cr1 O11 1.952552 1_555
Cr1 O10 1.952552 1_555
Cr1 O5 2.079098 1_555
Cr1 O4 2.079098 1_555
O0 W1 1.870831 1_556
O1 W0 1.870831 1_555
O2 W3 1.870831 1_554
O3 W2 1.870831 1_555
O4 W2 2.056873 1_545
O4 W0 2.074262 1_655
O5 W3 2.056873 1_564
O5 W1 2.074262 1_655
O6 W0 2.056873 1_565
O6 W2 2.074262 1_455
O7 W1 2.056873 1_546
O7 W3 2.074262 1_455
O8 W3 1.829041 1_555
O9 W2 1.829041 1_555
O10 W1 1.829041 1_555
O11 W0 1.829041 1_555
O12 W3 1.860984 1_555
O12 W1 2.147838 1_656
O13 W1 1.860984 1_555
O13 W3 2.147838 1_454
O14 W2 1.860984 1_555
O14 W0 2.147838 1_655
O15 W0 1.860984 1_555
O15 W2 2.147838 1_455
