# generated using pymatgen
data_Ba2V2FeO9
_symmetry_space_group_name_H-M   'P 1'
_cell_length_a   6.06356300
_cell_length_b   8.27226700
_cell_length_c   9.33631361
_cell_angle_alpha   66.68806484
_cell_angle_beta   90.00000000
_cell_angle_gamma   90.00000000
_symmetry_Int_Tables_number   1
_chemical_formula_structural   Ba2V2FeO9
_chemical_formula_sum   'Ba4 V4 Fe2 O18'
_cell_volume   430.07352077
_cell_formula_units_Z   2
loop_
 _symmetry_equiv_pos_site_id
 _symmetry_equiv_pos_as_xyz
  1  'x, y, z'
loop_
 _atom_site_type_symbol
 _atom_site_label
 _atom_site_symmetry_multiplicity
 _atom_site_fract_x
 _atom_site_fract_y
 _atom_site_fract_z
 _atom_site_occupancy
  Ba  Ba0  1  0.25000000  0.31718000  0.58972700  1
  Ba  Ba1  1  0.75000000  0.68282000  0.41027300  1
  Ba  Ba2  1  0.25000000  0.72593700  0.76278500  1
  Ba  Ba3  1  0.75000000  0.27406300  0.23721500  1
  V  V0  1  0.25000000  0.95542300  0.33178400  1
  V  V1  1  0.75000000  0.04457700  0.66821600  1
  V  V2  1  0.25000000  0.56907600  0.17660500  1
  V  V3  1  0.75000000  0.43092400  0.82339500  1
  Fe  Fe0  1  0.50000000  0.00000000  0.00000000  1
  Fe  Fe1  1  0.00000000  0.00000000  0.00000000  1
  O  O0  1  0.25000000  0.45969400  0.05713200  1
  O  O1  1  0.75000000  0.54030600  0.94286800  1
  O  O2  1  0.99350300  0.00285000  0.78593400  1
  O  O3  1  0.00649700  0.99715000  0.21406600  1
  O  O4  1  0.49350300  0.99715000  0.21406600  1
  O  O5  1  0.50649700  0.00285000  0.78593400  1
  O  O6  1  0.25000000  0.73875600  0.45467300  1
  O  O7  1  0.75000000  0.26124400  0.54532700  1
  O  O8  1  0.25000000  0.07741400  0.44208700  1
  O  O9  1  0.75000000  0.92258600  0.55791300  1
  O  O10  1  0.47759000  0.50172300  0.29778800  1
  O  O11  1  0.52241000  0.49827700  0.70221200  1
  O  O12  1  0.97759000  0.49827700  0.70221200  1
  O  O13  1  0.02241000  0.50172300  0.29778800  1
  O  O14  1  0.25000000  0.80780900  0.05315900  1
  O  O15  1  0.75000000  0.19219100  0.94684100  1
  O  O16  1  0.25000000  0.14546600  0.94234800  1
  O  O17  1  0.75000000  0.85453400  0.05765200  1
loop_
_geom_bond_atom_site_label_1
_geom_bond_atom_site_label_2
_geom_bond_distance
_geom_bond_site_symmetry_2
Ba0 O12 2.705685 1_455
Ba0 O11 2.705685 1_555
Ba0 O8 2.828036 1_555
Ba0 O10 2.893218 1_555
Ba0 O13 2.893218 1_555
Ba0 O5 2.960706 1_555
Ba0 O2 2.960706 1_455
Ba0 O16 3.025707 1_555
Ba0 O7 3.119208 1_555
Ba0 O7 3.119208 1_455
Ba0 O6 3.204909 1_555
Ba1 O10 2.705685 1_555
Ba1 O13 2.705685 1_655
Ba1 O9 2.828036 1_555
Ba1 O11 2.893218 1_555
Ba1 O12 2.893218 1_555
Ba1 O3 2.960706 1_655
Ba1 O4 2.960706 1_555
Ba1 O17 3.025707 1_555
Ba1 O6 3.119208 1_555
Ba1 O6 3.119208 1_655
Ba1 O7 3.204909 1_555
Ba2 O12 2.727237 1_455
Ba2 O11 2.727237 1_555
Ba2 O0 2.759062 1_556
Ba2 O6 2.836338 1_555
Ba2 O5 2.846887 1_565
Ba2 O2 2.846887 1_465
Ba2 O14 3.043279 1_556
Ba2 O8 3.244737 1_565
Ba3 O10 2.727237 1_555
Ba3 O13 2.727237 1_655
Ba3 O1 2.759062 1_554
Ba3 O7 2.836338 1_555
Ba3 O3 2.846887 1_645
Ba3 O4 2.846887 1_545
Ba3 O15 3.043279 1_554
Ba3 O9 3.244737 1_545
Fe0 O16 1.876970 1_554
Fe0 O17 1.876970 1_545
Fe0 O4 1.989765 1_545
Fe0 O5 1.989765 1_554
Fe0 O15 2.108878 1_554
Fe0 O14 2.108878 1_545
Fe1 O16 1.876970 1_554
Fe1 O17 1.876970 1_445
Fe1 O3 1.989765 1_545
Fe1 O2 1.989765 1_454
Fe1 O15 2.108878 1_454
Fe1 O14 2.108878 1_545
O0 V2 1.691673 1_555
O1 V3 1.691673 1_555
O2 V1 1.790766 1_555
O3 V0 1.790766 1_555
O4 V0 1.790766 1_555
O5 V1 1.790766 1_555
O6 V0 1.703298 1_555
O7 V1 1.703298 1_555
O8 V0 1.703360 1_545
O9 V1 1.703360 1_565
O10 V2 1.730894 1_555
O11 V3 1.730894 1_555
O12 V3 1.730894 1_555
O13 V2 1.730894 1_555
O14 V2 1.851201 1_555
O15 V3 1.851201 1_555
