# generated using pymatgen
data_Li4Co3O7
_symmetry_space_group_name_H-M   'P 1'
_cell_length_a   5.08958100
_cell_length_b   6.44909773
_cell_length_c   7.72597878
_cell_angle_alpha   87.08714478
_cell_angle_beta   78.37790619
_cell_angle_gamma   83.57451169
_symmetry_Int_Tables_number   1
_chemical_formula_structural   Li4Co3O7
_chemical_formula_sum   'Li8 Co6 O14'
_cell_volume   246.72767824
_cell_formula_units_Z   2
loop_
 _symmetry_equiv_pos_site_id
 _symmetry_equiv_pos_as_xyz
  1  'x, y, z'
loop_
 _atom_site_type_symbol
 _atom_site_label
 _atom_site_symmetry_multiplicity
 _atom_site_fract_x
 _atom_site_fract_y
 _atom_site_fract_z
 _atom_site_occupancy
  Li  Li0  1  0.65131300  0.72268400  0.21076200  1
  Li  Li1  1  0.34868700  0.27731600  0.78923800  1
  Li  Li2  1  0.07417100  0.85693800  0.35298700  1
  Li  Li3  1  0.50000000  0.00000000  0.50000000  1
  Li  Li4  1  0.21604500  0.57325600  0.07172500  1
  Li  Li5  1  0.92582900  0.14306200  0.64701300  1
  Li  Li6  1  0.78395500  0.42674400  0.92827500  1
  Li  Li7  1  0.00000000  0.00000000  0.00000000  1
  Co  Co0  1  0.57475000  0.85892300  0.86200800  1
  Co  Co1  1  0.42525000  0.14107700  0.13799200  1
  Co  Co2  1  0.28531400  0.43232900  0.42898800  1
  Co  Co3  1  0.71468600  0.56767100  0.57101200  1
  Co  Co4  1  0.13880000  0.72025800  0.72218400  1
  Co  Co5  1  0.86120000  0.27974200  0.27781600  1
  O  O0  1  0.86652000  0.72451000  0.95009700  1
  O  O1  1  0.61091700  0.30207800  0.53610800  1
  O  O2  1  0.34836300  0.87539400  0.09468400  1
  O  O3  1  0.73074900  0.02455500  0.24495900  1
  O  O4  1  0.46764200  0.59419100  0.81932800  1
  O  O5  1  0.19043800  0.15228700  0.37527100  1
  O  O6  1  0.04171300  0.43578300  0.67367400  1
  O  O7  1  0.38908300  0.69792200  0.46389200  1
  O  O8  1  0.13348000  0.27549000  0.04990300  1
  O  O9  1  0.80956200  0.84771300  0.62472900  1
  O  O10  1  0.26925100  0.97544500  0.75504100  1
  O  O11  1  0.95828700  0.56421700  0.32632600  1
  O  O12  1  0.65163700  0.12460600  0.90531600  1
  O  O13  1  0.53235800  0.40580900  0.18067200  1
loop_
_geom_bond_atom_site_label_1
_geom_bond_atom_site_label_2
_geom_bond_distance
_geom_bond_site_symmetry_2
Li0 O2 2.068601 1_555
Li0 O3 2.072378 1_565
Li0 O0 2.089816 1_554
Li0 O11 2.096311 1_555
Li0 O7 2.143771 1_555
Li0 O13 2.231285 1_555
Li1 O12 2.068601 1_555
Li1 O10 2.072378 1_545
Li1 O8 2.089816 1_556
Li1 O6 2.096311 1_555
Li1 O1 2.143771 1_555
Li1 O4 2.231285 1_555
Li2 O11 2.071644 1_455
Li2 O5 2.081940 1_565
Li2 O7 2.109709 1_555
Li2 O2 2.198905 1_555
Li2 O3 2.234582 1_465
Li2 O9 2.256342 1_455
Li3 O10 2.089138 1_545
Li3 O3 2.089138 1_555
Li3 O9 2.131833 1_545
Li3 O5 2.131833 1_555
Li3 O7 2.134610 1_545
Li3 O1 2.134610 1_555
Li4 O8 2.033399 1_555
Li4 O4 2.113380 1_554
Li4 O13 2.128592 1_555
Li4 O11 2.135280 1_455
Li4 O2 2.158395 1_555
Li4 O0 2.278404 1_454
Li5 O6 2.071644 1_655
Li5 O9 2.081940 1_545
Li5 O1 2.109709 1_555
Li5 O12 2.198905 1_555
Li5 O10 2.234582 1_645
Li5 O5 2.256342 1_655
Li6 O0 2.033399 1_555
Li6 O13 2.113380 1_556
Li6 O4 2.128592 1_555
Li6 O6 2.135280 1_655
Li6 O12 2.158395 1_555
Li6 O8 2.278404 1_656
Li7 O8 2.052317 1_555
Li7 O0 2.052317 1_444
Li7 O3 2.102779 1_455
Li7 O10 2.102779 1_544
Li7 O2 2.113868 1_545
Li7 O12 2.113868 1_454
Co0 O12 1.860639 1_565
Co0 O0 1.865183 1_555
Co0 O4 1.912765 1_555
Co0 O2 1.930777 1_556
Co0 O10 1.964272 1_555
Co0 O9 1.976248 1_555
Co1 O2 1.860639 1_545
Co1 O8 1.865183 1_555
Co1 O13 1.912765 1_555
Co1 O12 1.930777 1_554
Co1 O3 1.964272 1_555
Co1 O5 1.976248 1_555
Co2 O7 1.895326 1_555
Co2 O5 2.004801 1_555
Co2 O6 2.040876 1_555
Co2 O11 2.066245 1_455
Co2 O13 2.074626 1_555
Co2 O1 2.075369 1_555
Co3 O1 1.895326 1_555
Co3 O9 2.004801 1_555
Co3 O11 2.040876 1_555
Co3 O6 2.066245 1_655
Co3 O4 2.074626 1_555
Co3 O7 2.075369 1_555
Co4 O10 1.889075 1_555
Co4 O0 2.008730 1_455
Co4 O6 2.024307 1_555
Co4 O4 2.040833 1_555
Co4 O9 2.046368 1_455
Co4 O7 2.142335 1_555
Co5 O3 1.889075 1_555
Co5 O8 2.008730 1_655
Co5 O11 2.024307 1_555
Co5 O13 2.040833 1_555
Co5 O5 2.046368 1_655
Co5 O1 2.142335 1_555
