# generated using pymatgen
data_Fe7Ge4
_symmetry_space_group_name_H-M   'P 1'
_cell_length_a   8.08263268
_cell_length_b   8.08272129
_cell_length_c   4.96371771
_cell_angle_alpha   90.00000936
_cell_angle_beta   90.00098402
_cell_angle_gamma   119.99625259
_symmetry_Int_Tables_number   1
_chemical_formula_structural   Fe7Ge4
_chemical_formula_sum   'Fe14 Ge8'
_cell_volume   280.84361266
_cell_formula_units_Z   2
loop_
 _symmetry_equiv_pos_site_id
 _symmetry_equiv_pos_as_xyz
  1  'x, y, z'
loop_
 _atom_site_type_symbol
 _atom_site_label
 _atom_site_symmetry_multiplicity
 _atom_site_fract_x
 _atom_site_fract_y
 _atom_site_fract_z
 _atom_site_occupancy
  Fe  Fe0  1  0.15883617  0.31770667  0.24995766  1
  Fe  Fe1  1  0.84114765  0.68233717  0.75004239  1
  Fe  Fe2  1  0.68231362  0.84114905  0.24996439  1
  Fe  Fe3  1  0.31768576  0.15883144  0.75003583  1
  Fe  Fe4  1  0.15884816  0.84116071  0.24995734  1
  Fe  Fe5  1  0.84117582  0.15881846  0.75004271  1
  Fe  Fe6  1  0.00000146  0.00000048  1.00001529  1
  Fe  Fe7  1  0.00000156  0.00000047  0.49998480  1
  Fe  Fe8  1  0.49997520  -0.00004992  1.00002080  1
  Fe  Fe9  1  1.00004775  0.50002538  1.00003454  1
  Fe  Fe10  1  0.49997530  -0.00004988  0.49997930  1
  Fe  Fe11  1  0.49997253  0.50002253  1.00001951  1
  Fe  Fe12  1  1.00004758  0.50002530  0.49996557  1
  Fe  Fe13  1  0.49997267  0.50002260  0.49998063  1
  Ge  Ge0  1  0.81018233  0.62036579  0.25002845  1
  Ge  Ge1  1  0.18983033  0.37964857  0.74997151  1
  Ge  Ge2  1  0.37960321  0.18980247  0.25001895  1
  Ge  Ge3  1  0.62035744  0.81018335  0.74998124  1
  Ge  Ge4  1  0.81018003  0.18980397  0.25002826  1
  Ge  Ge5  1  0.18982113  0.81018322  0.74997174  1
  Ge  Ge6  1  0.33335135  0.66667501  0.25000333  1
  Ge  Ge7  1  0.66667691  0.33333814  0.74999679  1
loop_
_geom_bond_atom_site_label_1
_geom_bond_atom_site_label_2
_geom_bond_distance
_geom_bond_site_symmetry_2
Fe0 Ge6 2.442816 1_555
Fe0 Ge4 2.469255 1_455
Fe0 Ge2 2.469268 1_555
Fe0 Ge1 2.519387 1_554
Fe0 Ge1 2.519514 1_555
Fe0 Fe6 2.546608 1_554
Fe0 Fe7 2.546835 1_555
Fe0 Fe9 2.692354 1_454
Fe0 Fe12 2.692568 1_455
Fe0 Fe11 2.692710 1_554
Fe0 Fe13 2.692861 1_555
Fe1 Ge7 2.443030 1_555
Fe1 Ge3 2.469077 1_555
Fe1 Ge5 2.469455 1_655
Fe1 Ge0 2.519422 1_556
Fe1 Ge0 2.519550 1_555
Fe1 Fe6 2.546420 1_665
Fe1 Fe7 2.546647 1_665
Fe1 Fe11 2.693034 1_555
Fe1 Fe9 2.693145 1_555
Fe1 Fe13 2.693182 1_555
Fe1 Fe12 2.693358 1_555
Fe2 Ge6 2.442746 1_555
Fe2 Ge0 2.469176 1_555
Fe2 Ge4 2.469321 1_565
Fe2 Ge3 2.519376 1_554
Fe2 Ge3 2.519558 1_555
Fe2 Fe6 2.546524 1_664
Fe2 Fe7 2.546654 1_665
Fe2 Fe8 2.692599 1_564
Fe3 Ge7 2.442948 1_555
Fe3 Ge5 2.469273 1_545
Fe3 Ge1 2.469348 1_555
Fe3 Ge2 2.519329 1_556
Fe3 Ge2 2.519512 1_555
Fe3 Fe6 2.546576 1_555
Fe3 Fe7 2.546705 1_555
Fe3 Fe8 2.692869 1_555
Fe4 Ge6 2.442808 1_555
Fe4 Ge2 2.469241 1_565
Fe4 Ge0 2.469420 1_455
Fe4 Ge5 2.519390 1_554
Fe4 Ge5 2.519523 1_555
Fe4 Fe6 2.546367 1_564
Fe4 Fe7 2.546594 1_565
Fe4 Fe8 2.692644 1_564
Fe4 Fe9 2.692654 1_454
Fe5 Ge7 2.443015 1_555
Fe5 Ge3 2.469277 1_545
Fe5 Ge1 2.469392 1_655
Fe5 Ge4 2.519427 1_556
Fe5 Ge4 2.519560 1_555
Fe5 Fe6 2.546179 1_655
Fe5 Fe7 2.546407 1_655
Fe5 Fe8 2.693183 1_555
Fe5 Fe9 2.693246 1_555
Fe6 Fe7 2.481708 1_556
Fe6 Fe7 2.482010 1_555
Fe6 Ge2 2.932688 1_556
Fe6 Ge4 2.932764 1_456
Fe6 Ge5 2.932905 1_545
Fe6 Ge0 2.932977 1_446
Fe6 Ge3 2.933019 1_445
Fe6 Ge1 2.933126 1_555
Fe7 Ge4 2.932624 1_455
Fe7 Ge2 2.932652 1_555
Fe7 Ge5 2.932763 1_545
Fe7 Ge0 2.932834 1_445
Fe7 Ge1 2.932983 1_555
Fe7 Ge3 2.932986 1_445
Fe8 Ge3 2.516361 1_545
Fe8 Ge5 2.516491 1_545
Fe8 Ge4 2.516752 1_556
Fe8 Ge2 2.516758 1_556
Fe8 Ge6 2.642434 1_546
Fe8 Ge7 2.643229 1_555
Fe9 Ge1 2.516489 1_655
Fe9 Ge5 2.516604 1_655
Fe9 Ge0 2.516654 1_556
Fe9 Ge4 2.516875 1_556
Fe9 Ge6 2.642523 1_656
Fe9 Ge7 2.643099 1_555
Fe10 Fe8 2.481653 1_554
Fe10 Fe8 2.482065 1_555
Fe10 Ge3 2.516252 1_545
Fe10 Ge5 2.516396 1_545
Fe10 Ge2 2.516649 1_555
Fe10 Ge4 2.516656 1_555
Fe10 Ge6 2.642396 1_545
Fe10 Ge7 2.643191 1_555
Fe10 Fe2 2.692784 1_545
Fe10 Fe4 2.692796 1_545
Fe10 Fe3 2.693057 1_555
Fe10 Fe5 2.693334 1_555
Fe11 Fe13 2.481666 1_556
Fe11 Fe13 2.482052 1_555
Fe11 Ge1 2.516389 1_555
Fe11 Ge3 2.516529 1_555
Fe11 Ge0 2.516760 1_556
Fe11 Ge2 2.516833 1_556
Fe11 Ge6 2.642300 1_556
Fe11 Ge7 2.643102 1_555
Fe11 Fe2 2.692661 1_556
Fe11 Fe3 2.693126 1_555
Fe12 Fe9 2.481517 1_554
Fe12 Fe9 2.482201 1_555
Fe12 Ge1 2.516324 1_655
Fe12 Ge5 2.516439 1_655
Fe12 Ge0 2.516489 1_555
Fe12 Ge4 2.516710 1_555
Fe12 Ge6 2.642552 1_655
Fe12 Ge7 2.643126 1_555
Fe12 Fe4 2.692870 1_655
Fe12 Fe5 2.693461 1_555
Fe13 Ge1 2.516293 1_555
Fe13 Ge3 2.516420 1_555
Fe13 Ge0 2.516663 1_555
Fe13 Ge2 2.516724 1_555
Fe13 Ge6 2.642263 1_555
Fe13 Ge7 2.643065 1_555
Fe13 Fe2 2.692847 1_555
Fe13 Fe3 2.693314 1_555
