# generated using pymatgen
data_NdMnFeGe2
_symmetry_space_group_name_H-M   'P 1'
_cell_length_a   6.14148420
_cell_length_b   6.14148420
_cell_length_c   6.14148420
_cell_angle_alpha   142.21691516
_cell_angle_beta   142.21691516
_cell_angle_gamma   54.50218933
_symmetry_Int_Tables_number   1
_chemical_formula_structural   NdMnFeGe2
_chemical_formula_sum   'Nd1 Mn1 Fe1 Ge2'
_cell_volume   86.35349084
_cell_formula_units_Z   1
loop_
 _symmetry_equiv_pos_site_id
 _symmetry_equiv_pos_as_xyz
  1  'x, y, z'
loop_
 _atom_site_type_symbol
 _atom_site_label
 _atom_site_symmetry_multiplicity
 _atom_site_fract_x
 _atom_site_fract_y
 _atom_site_fract_z
 _atom_site_occupancy
  Nd  Nd0  1  0.00000000  0.00000000  0.00000000  1
  Mn  Mn0  1  0.25000000  0.75000000  0.50000000  1
  Fe  Fe0  1  0.75000000  0.25000000  0.50000000  1
  Ge  Ge0  1  0.62287500  0.62287500  0.00000000  1
  Ge  Ge1  1  0.37712500  0.37712500  0.00000000  1
loop_
_geom_bond_atom_site_label_1
_geom_bond_atom_site_label_2
_geom_bond_distance
_geom_bond_site_symmetry_2
Mn0 Nd0 3.377347 1_565
Mn0 Nd0 3.377347 1_566
Mn0 Nd0 3.377347 1_666
Mn0 Nd0 3.377347 1_555
Fe0 Ge1 2.425084 1_656
Fe0 Ge1 2.425084 1_555
Fe0 Ge0 2.425084 1_545
Fe0 Ge0 2.425084 1_556
Fe0 Mn0 2.812130 1_645
Fe0 Mn0 2.812130 1_544
Fe0 Mn0 2.812130 1_555
Fe0 Mn0 2.812130 1_656
Fe0 Nd0 3.377347 1_655
Fe0 Nd0 3.377347 1_666
Fe0 Nd0 3.377347 1_555
Fe0 Nd0 3.377347 1_656
Ge0 Mn0 2.425084 1_655
Ge0 Mn0 2.425084 1_554
Ge0 Ge1 2.683507 1_555
Ge0 Nd0 3.115827 1_565
Ge0 Nd0 3.115827 1_554
Ge0 Nd0 3.115827 1_655
Ge0 Nd0 3.115827 1_666
Ge1 Mn0 2.425084 1_544
Ge1 Mn0 2.425084 1_555
Ge1 Nd0 3.115827 1_554
Ge1 Nd0 3.115827 1_666
Ge1 Nd0 3.115827 1_565
Ge1 Nd0 3.115827 1_655
