# generated using pymatgen
data_LiCu6OF11
_symmetry_space_group_name_H-M   'P 1'
_cell_length_a   5.41593784
_cell_length_b   4.82938870
_cell_length_c   8.40628673
_cell_angle_alpha   93.13842063
_cell_angle_beta   94.93702046
_cell_angle_gamma   87.39835981
_symmetry_Int_Tables_number   1
_chemical_formula_structural   LiCu6OF11
_chemical_formula_sum   'Li1 Cu6 O1 F11'
_cell_volume   218.54480463
_cell_formula_units_Z   1
loop_
 _symmetry_equiv_pos_site_id
 _symmetry_equiv_pos_as_xyz
  1  'x, y, z'
loop_
 _atom_site_type_symbol
 _atom_site_label
 _atom_site_symmetry_multiplicity
 _atom_site_fract_x
 _atom_site_fract_y
 _atom_site_fract_z
 _atom_site_occupancy
  Li  Li0  1  0.66907500  0.00305500  0.16308000  1
  Cu  Cu0  1  0.03271000  0.01780000  0.97734700  1
  Cu  Cu1  1  0.50293400  0.52267500  0.01316700  1
  Cu  Cu2  1  0.29693800  0.96002200  0.33460800  1
  Cu  Cu3  1  0.78614600  0.50649500  0.33723800  1
  Cu  Cu4  1  0.17007300  0.49882900  0.65828400  1
  Cu  Cu5  1  0.66564400  0.00644400  0.66774200  1
  O  O0  1  0.50458200  0.68509600  0.23122200  1
  F  F0  1  0.33420100  0.18411800  0.06942500  1
  F  F1  1  0.99035200  0.79614900  0.25675500  1
  F  F2  1  0.83389300  0.29877500  0.08160800  1
  F  F3  1  0.09628900  0.28728700  0.41873600  1
  F  F4  1  0.59613900  0.17754900  0.38256400  1
  F  F5  1  0.38049200  0.79662600  0.58529700  1
  F  F6  1  0.87055200  0.71046000  0.58047500  1
  F  F7  1  0.46699000  0.30767000  0.75880700  1
  F  F8  1  0.20370100  0.70585600  0.89066700  1
  F  F9  1  0.95574900  0.21357100  0.73704700  1
  F  F10  1  0.71854000  0.82152300  0.94186800  1
loop_
_geom_bond_atom_site_label_1
_geom_bond_atom_site_label_2
_geom_bond_distance
_geom_bond_site_symmetry_2
Li0 O0 1.946290 1_545
Cu0 F8 1.878135 1_545
Cu0 F2 1.915324 1_456
Cu0 F0 1.934929 1_556
Cu0 F10 1.977566 1_445
Cu0 F9 2.275207 1_455
Cu1 O0 1.953393 1_555
Cu1 F0 2.006682 1_555
Cu1 F8 2.037600 1_554
Cu1 F10 2.043021 1_554
Cu1 F2 2.104227 1_555
Cu1 F7 2.321993 1_554
Cu2 F1 1.920228 1_455
Cu2 O0 1.920727 1_555
Cu2 F4 1.971729 1_565
Cu2 F3 2.008227 1_565
Cu2 F5 2.292154 1_555
Cu3 O0 1.895909 1_555
Cu3 F4 2.002501 1_555
Cu3 F1 2.002637 1_555
Cu3 F3 2.032592 1_655
Cu3 F6 2.240444 1_555
Cu3 F2 2.350963 1_555
Cu4 F6 1.960601 1_455
Cu4 F7 1.966983 1_555
Cu4 F9 2.015175 1_455
Cu4 F5 2.027136 1_555
Cu4 F8 2.142501 1_555
Cu4 F3 2.220746 1_555
Cu5 F6 1.922052 1_545
Cu5 F9 1.931312 1_555
Cu5 F7 1.933280 1_555
Cu5 F5 1.942446 1_545
Cu5 F10 2.505649 1_545
Cu5 F4 2.569993 1_555
F0 Li0 2.087926 1_555
F1 Li0 2.082951 1_565
F2 Li0 1.906183 1_555
F4 Li0 2.048256 1_555
F10 Li0 2.045550 1_566
