# generated using pymatgen
data_HfMn
_symmetry_space_group_name_H-M   'P 1'
_cell_length_a   8.31291133
_cell_length_b   8.45737275
_cell_length_c   8.31287166
_cell_angle_alpha   59.42383425
_cell_angle_beta   61.15524119
_cell_angle_gamma   59.42353796
_symmetry_Int_Tables_number   1
_chemical_formula_structural   HfMn
_chemical_formula_sum   'Hf12 Mn12'
_cell_volume   413.01481730
_cell_formula_units_Z   12
loop_
 _symmetry_equiv_pos_site_id
 _symmetry_equiv_pos_as_xyz
  1  'x, y, z'
loop_
 _atom_site_type_symbol
 _atom_site_label
 _atom_site_symmetry_multiplicity
 _atom_site_fract_x
 _atom_site_fract_y
 _atom_site_fract_z
 _atom_site_occupancy
  Hf  Hf0  1  0.43238482  0.81761085  0.81758155  1
  Hf  Hf1  1  0.81758966  0.43242431  0.43238591  1
  Hf  Hf2  1  0.82778528  0.42221318  0.82778855  1
  Hf  Hf3  1  0.42224385  0.82776054  0.42224291  1
  Hf  Hf4  1  0.81758221  0.81760860  0.43238506  1
  Hf  Hf5  1  0.43238821  0.43242303  0.81758689  1
  Hf  Hf6  1  0.56761518  0.18238915  0.18241845  1
  Hf  Hf7  1  0.18241034  0.56757569  0.56761409  1
  Hf  Hf8  1  0.17221472  0.57778682  0.17221145  1
  Hf  Hf9  1  0.57775615  0.17223946  0.57775709  1
  Hf  Hf10  1  0.18241779  0.18239140  0.56761494  1
  Hf  Hf11  1  0.56761179  0.56757697  0.18241311  1
  Mn  Mn0  1  -0.00000000  0.00000000  0.50000000  1
  Mn  Mn1  1  -0.00000000  0.50000000  0.00000000  1
  Mn  Mn2  1  0.50000000  0.00000000  0.00000000  1
  Mn  Mn3  1  -0.00000000  0.00000000  0.00000000  1
  Mn  Mn4  1  0.20662291  0.20584447  0.88168297  1
  Mn  Mn5  1  0.20571593  0.88170862  0.20571824  1
  Mn  Mn6  1  0.88168317  0.20584287  0.20662479  1
  Mn  Mn7  1  0.20572102  0.20684545  0.20572232  1
  Mn  Mn8  1  0.79337709  0.79415553  0.11831703  1
  Mn  Mn9  1  0.79428407  0.11829138  0.79428176  1
  Mn  Mn10  1  0.11831683  0.79415713  0.79337521  1
  Mn  Mn11  1  0.79427898  0.79315455  0.79427768  1
loop_
_geom_bond_atom_site_label_1
_geom_bond_atom_site_label_2
_geom_bond_distance
_geom_bond_site_symmetry_2
Hf0 Mn10 2.823225 1_555
Hf0 Mn11 2.824204 1_555
Hf0 Mn3 3.013024 1_566
Hf0 Mn2 3.013159 1_566
Hf0 Mn5 3.021423 1_556
Hf0 Mn4 3.022072 1_565
Hf0 Hf10 3.045599 1_565
Hf0 Hf11 3.046253 1_556
Hf0 Hf9 3.116075 1_565
Hf0 Hf8 3.116088 1_556
Hf0 Hf5 3.257640 1_555
Hf0 Hf4 3.257850 1_555
Hf0 Hf3 3.284486 1_555
Hf0 Hf2 3.285039 1_555
Hf1 Mn8 2.823254 1_555
Hf1 Mn9 2.824216 1_555
Hf1 Mn1 3.013024 1_655
Hf1 Mn0 3.013191 1_655
Hf1 Mn7 3.021438 1_655
Hf1 Mn6 3.022144 1_555
Hf1 Hf11 3.045704 1_555
Hf1 Hf10 3.046242 1_655
Hf1 Hf8 3.116047 1_655
Hf1 Hf9 3.116197 1_555
Hf1 Hf4 3.257612 1_555
Hf1 Hf5 3.257886 1_555
Hf1 Hf3 3.284561 1_555
Hf1 Hf2 3.284985 1_555
Hf2 Mn6 2.851549 1_556
Hf2 Mn4 2.851552 1_655
Hf2 Mn9 2.879842 1_555
Hf2 Mn11 2.879913 1_555
Hf2 Mn1 2.902667 1_656
Hf2 Mn3 2.902687 1_656
Hf2 Hf7 3.116047 1_655
Hf2 Hf6 3.116088 1_556
Hf2 Hf5 3.284984 1_555
Hf2 Hf4 3.285049 1_555
Hf3 Mn7 2.853487 1_565
Hf3 Mn5 2.853579 1_555
Hf3 Mn10 2.880951 1_555
Hf3 Mn8 2.880953 1_555
Hf3 Mn2 2.902957 1_565
Hf3 Mn0 2.902968 1_565
Hf3 Hf6 3.116075 1_565
Hf3 Hf7 3.116197 1_555
Hf3 Hf4 3.284494 1_555
Hf3 Hf5 3.284566 1_555
Hf4 Mn8 2.823204 1_555
Hf4 Mn11 2.824188 1_555
Hf4 Mn3 3.013028 1_665
Hf4 Mn0 3.013176 1_665
Hf4 Mn5 3.021426 1_655
Hf4 Mn6 3.022088 1_565
Hf4 Hf6 3.045599 1_565
Hf4 Hf7 3.046242 1_655
Hf4 Hf9 3.116076 1_565
Hf4 Hf8 3.116084 1_655
Hf5 Mn10 2.823270 1_555
Hf5 Mn9 2.824206 1_555
Hf5 Mn1 3.013050 1_556
Hf5 Mn2 3.013190 1_556
Hf5 Mn7 3.021473 1_556
Hf5 Mn4 3.022159 1_555
Hf5 Hf7 3.045704 1_555
Hf5 Hf6 3.046253 1_556
Hf5 Hf8 3.116029 1_556
Hf5 Hf9 3.116152 1_555
Hf6 Mn6 2.823225 1_555
Hf6 Mn7 2.824204 1_555
Hf6 Mn3 3.013024 1_655
Hf6 Mn2 3.013159 1_555
Hf6 Mn9 3.021423 1_554
Hf6 Mn8 3.022072 1_545
Hf6 Hf9 3.284486 1_555
Hf6 Hf8 3.285039 1_555
Hf7 Mn4 2.823254 1_555
Hf7 Mn5 2.824216 1_555
Hf7 Mn1 3.013024 1_556
Hf7 Mn0 3.013191 1_565
Hf7 Mn11 3.021438 1_455
Hf7 Mn10 3.022144 1_555
Hf7 Hf9 3.284561 1_555
Hf7 Hf8 3.284985 1_555
Hf8 Mn10 2.851549 1_554
Hf8 Mn8 2.851552 1_455
Hf8 Mn5 2.879842 1_555
Hf8 Mn7 2.879913 1_555
Hf8 Mn1 2.902667 1_555
Hf8 Mn3 2.902687 1_565
Hf9 Mn11 2.853487 1_545
Hf9 Mn9 2.853579 1_555
Hf9 Mn6 2.880951 1_555
Hf9 Mn4 2.880953 1_555
Hf9 Mn2 2.902957 1_556
Hf9 Mn0 2.902968 1_655
Hf10 Mn4 2.823204 1_555
Hf10 Mn7 2.824188 1_555
Hf10 Mn3 3.013028 1_556
Hf10 Mn0 3.013176 1_555
Hf10 Mn9 3.021426 1_455
Hf10 Mn10 3.022088 1_545
Hf10 Hf3 3.116076 1_545
Hf10 Hf2 3.116084 1_455
Hf10 Hf7 3.257612 1_555
Hf10 Hf6 3.257850 1_555
Hf10 Hf9 3.284494 1_555
Hf10 Hf8 3.285049 1_555
Hf11 Mn6 2.823270 1_555
Hf11 Mn5 2.824206 1_555
Hf11 Mn1 3.013050 1_655
Hf11 Mn2 3.013190 1_565
Hf11 Mn11 3.021473 1_554
Hf11 Mn8 3.022159 1_555
Hf11 Hf2 3.116029 1_554
Hf11 Hf3 3.116152 1_555
Hf11 Hf6 3.257640 1_555
Hf11 Hf7 3.257886 1_555
Hf11 Hf9 3.284566 1_555
Hf11 Hf8 3.284984 1_555
Mn0 Mn10 2.489740 1_545
Mn0 Mn6 2.489740 1_455
Mn0 Mn7 2.573425 1_555
Mn0 Mn11 2.573425 1_445
Mn0 Mn5 2.573446 1_545
Mn0 Mn9 2.573446 1_455
Mn1 Mn11 2.488126 1_454
Mn1 Mn7 2.488126 1_555
Mn1 Mn4 2.572679 1_554
Mn1 Mn8 2.572679 1_455
Mn1 Mn10 2.572703 1_554
Mn1 Mn6 2.572703 1_455
Mn2 Mn4 2.489756 1_554
Mn2 Mn8 2.489756 1_545
Mn2 Mn7 2.573420 1_555
Mn2 Mn5 2.573479 1_545
Mn2 Mn9 2.573479 1_554
Mn3 Mn9 2.488048 1_454
Mn3 Mn5 2.488048 1_545
Mn3 Mn6 2.572639 1_455
Mn3 Mn8 2.572652 1_445
Mn3 Mn4 2.572652 1_554
Mn4 Mn5 2.694395 1_546
Mn4 Mn7 2.694399 1_556
Mn4 Mn6 2.748226 1_456
Mn5 Mn6 2.694372 1_465
Mn5 Mn7 2.749842 1_565
Mn6 Mn7 2.694404 1_655
Mn8 Mn9 2.694395 1_564
Mn10 Mn3 2.572639 1_566
Mn10 Mn9 2.694372 1_465
Mn10 Mn11 2.694404 1_455
Mn10 Mn8 2.748226 1_456
Mn11 Mn2 2.573420 1_566
Mn11 Mn8 2.694399 1_556
Mn11 Mn9 2.749842 1_565
