# generated using pymatgen
data_LaCeAl2O6
_symmetry_space_group_name_H-M   'P 1'
_cell_length_a   3.79529700
_cell_length_b   3.79529700
_cell_length_c   7.60617700
_cell_angle_alpha   90.00000000
_cell_angle_beta   90.00000000
_cell_angle_gamma   90.00000000
_symmetry_Int_Tables_number   1
_chemical_formula_structural   LaCeAl2O6
_chemical_formula_sum   'La1 Ce1 Al2 O6'
_cell_volume   109.56149805
_cell_formula_units_Z   1
loop_
 _symmetry_equiv_pos_site_id
 _symmetry_equiv_pos_as_xyz
  1  'x, y, z'
loop_
 _atom_site_type_symbol
 _atom_site_label
 _atom_site_symmetry_multiplicity
 _atom_site_fract_x
 _atom_site_fract_y
 _atom_site_fract_z
 _atom_site_occupancy
  La  La0  1  0.50000000  0.50000000  0.50000000  1
  Ce  Ce0  1  0.50000000  0.50000000  0.00000000  1
  Al  Al0  1  0.00000000  0.00000000  0.75105100  1
  Al  Al1  1  0.00000000  0.00000000  0.24894900  1
  O  O0  1  0.00000000  0.00000000  0.00000000  1
  O  O1  1  0.00000000  0.00000000  0.50000000  1
  O  O2  1  0.00000000  0.50000000  0.75104500  1
  O  O3  1  0.00000000  0.50000000  0.24895500  1
  O  O4  1  0.50000000  0.00000000  0.75104500  1
  O  O5  1  0.50000000  0.00000000  0.24895500  1
loop_
_geom_bond_atom_site_label_1
_geom_bond_atom_site_label_2
_geom_bond_distance
_geom_bond_site_symmetry_2
La0 O1 2.683680 1_555
La0 O1 2.683680 1_655
La0 O1 2.683680 1_565
La0 O1 2.683680 1_665
La0 O5 2.692068 1_555
La0 O2 2.692068 1_655
La0 O4 2.692068 1_565
La0 O5 2.692068 1_565
La0 O3 2.692068 1_555
La0 O2 2.692068 1_555
La0 O4 2.692068 1_555
La0 O3 2.692068 1_655
Ce0 O3 2.680816 1_655
Ce0 O4 2.680816 1_554
Ce0 O5 2.680816 1_555
Ce0 O2 2.680816 1_554
Ce0 O5 2.680816 1_565
Ce0 O3 2.680816 1_555
Ce0 O4 2.680816 1_564
Ce0 O2 2.680816 1_654
Ce0 O0 2.683680 1_665
Ce0 O0 2.683680 1_565
Ce0 O0 2.683680 1_555
Ce0 O0 2.683680 1_655
Al0 O0 1.893550 1_556
Al0 O2 1.897649 1_555
Al0 O4 1.897649 1_455
Al0 O4 1.897649 1_555
Al0 O2 1.897649 1_545
Al0 O1 1.909538 1_555
Al1 O0 1.893550 1_555
Al1 O5 1.897649 1_555
Al1 O3 1.897649 1_545
Al1 O5 1.897649 1_455
Al1 O3 1.897649 1_555
Al1 O1 1.909538 1_555
