# generated using pymatgen
data_NbRh
_symmetry_space_group_name_H-M   'P 1'
_cell_length_a   2.85862028
_cell_length_b   4.83995487
_cell_length_c   13.73477165
_cell_angle_alpha   90.00000000
_cell_angle_beta   90.00000000
_cell_angle_gamma   90.00000000
_symmetry_Int_Tables_number   1
_chemical_formula_structural   NbRh
_chemical_formula_sum   'Nb6 Rh6'
_cell_volume   190.02871250
_cell_formula_units_Z   6
loop_
 _symmetry_equiv_pos_site_id
 _symmetry_equiv_pos_as_xyz
  1  'x, y, z'
loop_
 _atom_site_type_symbol
 _atom_site_label
 _atom_site_symmetry_multiplicity
 _atom_site_fract_x
 _atom_site_fract_y
 _atom_site_fract_z
 _atom_site_occupancy
  Nb  Nb0  1  -0.00000000  0.04605412  0.25001612  1
  Nb  Nb1  1  0.00000000  0.95394588  0.75001612  1
  Nb  Nb2  1  0.00000000  0.33101573  0.58452319  1
  Nb  Nb3  1  0.00000000  0.66902524  0.41546033  1
  Nb  Nb4  1  0.00000000  0.33097476  0.91546033  1
  Nb  Nb5  1  -0.00000000  0.66898427  0.08452319  1
  Rh  Rh0  1  0.50000000  0.53361873  0.25000678  1
  Rh  Rh1  1  0.50000000  0.46638127  0.75000678  1
  Rh  Rh2  1  0.50000000  0.82937622  0.58280177  1
  Rh  Rh3  1  0.50000000  0.17065363  0.41719180  1
  Rh  Rh4  1  0.50000000  0.82934637  0.91719180  1
  Rh  Rh5  1  0.50000000  0.17062378  0.08280177  1
loop_
_geom_bond_atom_site_label_1
_geom_bond_atom_site_label_2
_geom_bond_distance
_geom_bond_site_symmetry_2
Nb0 Rh0 2.758902 1_555
Nb0 Rh0 2.758902 1_455
Nb0 Rh3 2.771059 1_555
Nb0 Rh3 2.771059 1_455
Nb0 Rh5 2.771468 1_555
Nb0 Rh5 2.771468 1_455
Nb0 Rh0 2.862541 1_545
Nb0 Rh0 2.862541 1_445
Nb1 Rh1 2.758902 1_455
Nb1 Rh1 2.758902 1_555
Nb1 Rh4 2.771059 1_455
Nb1 Rh4 2.771059 1_555
Nb1 Rh2 2.771468 1_555
Nb1 Rh2 2.771468 1_455
Nb1 Rh1 2.862541 1_565
Nb1 Rh1 2.862541 1_465
Nb2 Rh1 2.763720 1_455
Nb2 Rh1 2.763720 1_555
Nb2 Rh2 2.803825 1_555
Nb2 Rh2 2.803825 1_455
Nb2 Rh3 2.815550 1_455
Nb2 Rh3 2.815550 1_555
Nb2 Rh2 2.817489 1_545
Nb2 Rh2 2.817489 1_445
Nb3 Rh0 2.763427 1_555
Nb3 Rh0 2.763427 1_455
Nb3 Rh3 2.803872 1_555
Nb3 Rh3 2.803872 1_455
Nb3 Rh2 2.815648 1_455
Nb3 Rh2 2.815648 1_555
Nb3 Rh3 2.817444 1_565
Nb3 Rh3 2.817444 1_465
Nb4 Rh1 2.763427 1_455
Nb4 Rh1 2.763427 1_555
Nb4 Rh4 2.803872 1_455
Nb4 Rh4 2.803872 1_555
Nb4 Rh5 2.815648 1_456
Nb4 Rh5 2.815648 1_556
Nb4 Rh4 2.817444 1_445
Nb4 Rh4 2.817444 1_545
Nb5 Rh0 2.763720 1_555
Nb5 Rh0 2.763720 1_455
Nb5 Rh5 2.803825 1_555
Nb5 Rh5 2.803825 1_455
Nb5 Rh4 2.815550 1_554
Nb5 Rh4 2.815550 1_454
Nb5 Rh5 2.817489 1_565
Nb5 Rh5 2.817489 1_465
