# generated using pymatgen
data_Ba3CoO5
_symmetry_space_group_name_H-M   'P 1'
_cell_length_a   7.38861100
_cell_length_b   7.38860000
_cell_length_c   11.73449800
_cell_angle_alpha   89.99993969
_cell_angle_beta   90.00032398
_cell_angle_gamma   89.99965880
_symmetry_Int_Tables_number   1
_chemical_formula_structural   Ba3CoO5
_chemical_formula_sum   'Ba12 Co4 O20'
_cell_volume   640.60374470
_cell_formula_units_Z   4
loop_
 _symmetry_equiv_pos_site_id
 _symmetry_equiv_pos_as_xyz
  1  'x, y, z'
loop_
 _atom_site_type_symbol
 _atom_site_label
 _atom_site_symmetry_multiplicity
 _atom_site_fract_x
 _atom_site_fract_y
 _atom_site_fract_z
 _atom_site_occupancy
  Ba  Ba0  1  0.99999900  0.00000200  0.25000200  1
  Ba  Ba1  1  0.50000200  0.50000100  0.74999700  1
  Ba  Ba2  1  0.50000000  0.49999900  0.25000000  1
  Ba  Ba3  1  0.00000100  0.00000000  0.75000000  1
  Ba  Ba4  1  0.67611800  0.17611500  0.00000500  1
  Ba  Ba5  1  0.17611800  0.67611300  0.50000000  1
  Ba  Ba6  1  0.32388500  0.82388500  0.00000200  1
  Ba  Ba7  1  0.82388100  0.32388800  0.49999800  1
  Ba  Ba8  1  0.82388300  0.67611600  0.00000100  1
  Ba  Ba9  1  0.32388400  0.17611500  0.49999800  1
  Ba  Ba10  1  0.17611400  0.32388500  0.99999800  1
  Ba  Ba11  1  0.67611800  0.82388300  0.49999700  1
  Co  Co0  1  0.50000100  0.00000200  0.75000000  1
  Co  Co1  1  0.00000000  0.50000000  0.75000100  1
  Co  Co2  1  0.99999900  0.50000000  0.25000100  1
  Co  Co3  1  0.50000000  0.00000000  0.25000000  1
  O  O0  1  0.00000000  0.00000100  0.00001200  1
  O  O1  1  0.49999900  0.50000000  0.49999000  1
  O  O2  1  0.49999900  0.49999800  0.00001000  1
  O  O3  1  0.99999700  0.00000100  0.49998900  1
  O  O4  1  0.13677900  0.63677900  0.15633500  1
  O  O5  1  0.63677600  0.13677500  0.65633300  1
  O  O6  1  0.36321900  0.86321800  0.34366200  1
  O  O7  1  0.86322200  0.36322200  0.84366600  1
  O  O8  1  0.86322100  0.36322100  0.15633600  1
  O  O9  1  0.36322600  0.86322500  0.65633500  1
  O  O10  1  0.36321900  0.13678000  0.15633700  1
  O  O11  1  0.86322400  0.63677500  0.65633400  1
  O  O12  1  0.86322200  0.63678000  0.34366400  1
  O  O13  1  0.36322400  0.13677800  0.84366500  1
  O  O14  1  0.63678100  0.13678200  0.34366200  1
  O  O15  1  0.13677700  0.63677800  0.84366700  1
  O  O16  1  0.13678000  0.36322100  0.34366500  1
  O  O17  1  0.63677600  0.86322300  0.84366600  1
  O  O18  1  0.63678000  0.86321700  0.15633700  1
  O  O19  1  0.13677600  0.36322300  0.65633400  1
loop_
_geom_bond_atom_site_label_1
_geom_bond_atom_site_label_2
_geom_bond_distance
_geom_bond_site_symmetry_2
Ba0 O3 2.933472 1_555
Ba0 O0 2.933507 1_655
Ba0 O14 3.071055 1_555
Ba0 O6 3.071066 1_645
Ba0 O8 3.071070 1_555
Ba0 O16 3.071077 1_655
Ba0 O12 3.071085 1_545
Ba0 O10 3.071094 1_655
Ba0 O18 3.071094 1_545
Ba0 O4 3.071111 1_645
Ba1 O1 2.933707 1_555
Ba1 O2 2.933777 1_556
Ba1 O9 3.071081 1_555
Ba1 O11 3.071089 1_555
Ba1 O7 3.071092 1_555
Ba1 O5 3.071103 1_555
Ba1 O17 3.071105 1_555
Ba1 O19 3.071114 1_555
Ba1 O13 3.071119 1_555
Ba1 O15 3.071135 1_555
Ba2 O2 2.933507 1_555
Ba2 O1 2.933507 1_555
Ba2 O14 3.071047 1_555
Ba2 O6 3.071067 1_555
Ba2 O18 3.071070 1_555
Ba2 O10 3.071077 1_555
Ba2 O4 3.071084 1_555
Ba2 O8 3.071086 1_555
Ba2 O16 3.071094 1_555
Ba2 O12 3.071100 1_555
Ba3 O3 2.933754 1_455
Ba3 O0 2.933765 1_556
Ba3 O15 3.071089 1_545
Ba3 O7 3.071098 1_455
Ba3 O19 3.071103 1_555
Ba3 O13 3.071103 1_555
Ba3 O5 3.071106 1_455
Ba3 O9 3.071109 1_545
Ba3 O11 3.071119 1_445
Ba3 O17 3.071128 1_445
Ba4 O8 2.680961 1_555
Ba4 O7 2.681042 1_554
Ba4 O0 2.723933 1_655
Ba4 O2 2.723955 1_555
Ba4 O18 2.965565 1_545
Ba4 O10 2.965579 1_555
Ba4 O17 2.965585 1_544
Ba4 O13 2.965594 1_554
Ba5 O6 2.681015 1_555
Ba5 O9 2.681035 1_555
Ba5 O1 2.723923 1_555
Ba5 O3 2.723994 1_465
Ba5 O19 2.965536 1_555
Ba5 O16 2.965553 1_555
Ba5 O11 2.965567 1_455
Ba5 O12 2.965574 1_455
Ba6 O4 2.680997 1_555
Ba6 O15 2.681016 1_554
Ba6 O0 2.723959 1_565
Ba6 O2 2.723963 1_555
Ba6 O18 2.965560 1_555
Ba6 O17 2.965564 1_554
Ba6 O10 2.965567 1_565
Ba6 O13 2.965573 1_564
Ba7 O14 2.680990 1_555
Ba7 O5 2.681036 1_555
Ba7 O1 2.723926 1_555
Ba7 O3 2.723970 1_555
Ba7 O11 2.965535 1_555
Ba7 O12 2.965547 1_555
Ba7 O19 2.965569 1_655
Ba7 O16 2.965585 1_655
Ba8 O18 2.680984 1_555
Ba8 O17 2.681002 1_554
Ba8 O2 2.723973 1_555
Ba8 O0 2.723974 1_665
Ba8 O4 2.965559 1_655
Ba8 O8 2.965564 1_555
Ba8 O7 2.965564 1_554
Ba8 O15 2.965565 1_654
Ba9 O16 2.680970 1_555
Ba9 O19 2.681030 1_555
Ba9 O1 2.723967 1_555
Ba9 O3 2.723979 1_455
Ba9 O5 2.965545 1_555
Ba9 O9 2.965553 1_545
Ba9 O6 2.965586 1_545
Ba9 O14 2.965593 1_555
Ba10 O13 2.681010 1_555
Ba10 O10 2.681019 1_556
Ba10 O0 2.723957 1_556
Ba10 O2 2.723962 1_556
Ba10 O7 2.965521 1_455
Ba10 O15 2.965523 1_555
Ba10 O4 2.965576 1_556
Ba10 O8 2.965587 1_456
Ba11 O12 2.680972 1_555
Ba11 O11 2.681018 1_555
Ba11 O3 2.723941 1_565
Ba11 O1 2.723968 1_555
Ba11 O5 2.965562 1_565
Ba11 O6 2.965582 1_555
Ba11 O9 2.965585 1_555
Ba11 O14 2.965587 1_565
Co0 O9 1.802944 1_545
Co0 O5 1.802948 1_555
Co0 O13 1.802949 1_555
Co0 O17 1.802952 1_545
Co1 O11 1.802946 1_455
Co1 O19 1.802963 1_555
Co1 O15 1.802964 1_555
Co1 O7 1.802967 1_455
Co2 O12 1.802951 1_555
Co2 O16 1.802962 1_655
Co2 O8 1.802965 1_555
Co2 O4 1.802986 1_655
Co3 O10 1.802959 1_555
Co3 O14 1.802968 1_555
Co3 O6 1.802974 1_545
Co3 O18 1.802976 1_545
