# generated using pymatgen
data_Nd2Fe15Co2H3
_symmetry_space_group_name_H-M   'P 1'
_cell_length_a   6.45419461
_cell_length_b   6.45419461
_cell_length_c   6.45419459
_cell_angle_alpha   83.84453456
_cell_angle_beta   83.84453456
_cell_angle_gamma   83.84453599
_symmetry_Int_Tables_number   1
_chemical_formula_structural   Nd2Fe15Co2H3
_chemical_formula_sum   'Nd2 Fe15 Co2 H3'
_cell_volume   264.51956678
_cell_formula_units_Z   1
loop_
 _symmetry_equiv_pos_site_id
 _symmetry_equiv_pos_as_xyz
  1  'x, y, z'
loop_
 _atom_site_type_symbol
 _atom_site_label
 _atom_site_symmetry_multiplicity
 _atom_site_fract_x
 _atom_site_fract_y
 _atom_site_fract_z
 _atom_site_occupancy
  Nd  Nd0  1  0.65656100  0.65656100  0.65656100  1
  Nd  Nd1  1  0.34343900  0.34343900  0.34343900  1
  Fe  Fe0  1  0.00000000  0.00000000  0.50000000  1
  Fe  Fe1  1  0.50000000  0.00000000  0.00000000  1
  Fe  Fe2  1  0.00000000  0.50000000  0.00000000  1
  Fe  Fe3  1  0.71737500  0.28262500  0.00000000  1
  Fe  Fe4  1  0.00000000  0.71737500  0.28262500  1
  Fe  Fe5  1  0.28262500  0.00000000  0.71737500  1
  Fe  Fe6  1  0.00000000  0.28262500  0.71737500  1
  Fe  Fe7  1  0.71737500  0.00000000  0.28262500  1
  Fe  Fe8  1  0.28262500  0.71737500  0.00000000  1
  Fe  Fe9  1  0.33979400  0.33979400  0.84980900  1
  Fe  Fe10  1  0.84980900  0.33979400  0.33979400  1
  Fe  Fe11  1  0.33979400  0.84980900  0.33979400  1
  Fe  Fe12  1  0.66020600  0.66020600  0.15019100  1
  Fe  Fe13  1  0.15019100  0.66020600  0.66020600  1
  Fe  Fe14  1  0.66020600  0.15019100  0.66020600  1
  Co  Co0  1  0.90630400  0.90630400  0.90630400  1
  Co  Co1  1  0.09369600  0.09369600  0.09369600  1
  H  H0  1  0.50000000  0.50000000  0.00000000  1
  H  H1  1  0.00000000  0.50000000  0.50000000  1
  H  H2  1  0.50000000  0.00000000  0.50000000  1
loop_
_geom_bond_atom_site_label_1
_geom_bond_atom_site_label_2
_geom_bond_distance
_geom_bond_site_symmetry_2
Fe0 Fe5 2.417558 1_555
Fe0 Fe6 2.417558 1_555
Fe0 Fe4 2.417558 1_545
Fe0 Fe7 2.417558 1_455
Fe0 Fe11 2.468042 1_545
Fe0 Fe10 2.468042 1_455
Fe0 Fe14 2.468042 1_455
Fe0 Fe13 2.468042 1_545
Fe0 Nd1 3.307703 1_555
Fe0 Nd0 3.307703 1_445
Fe1 Fe3 2.417558 1_555
Fe1 Fe8 2.417558 1_545
Fe1 Fe5 2.417558 1_554
Fe1 Fe7 2.417558 1_555
Fe1 Fe11 2.468042 1_545
Fe1 Fe14 2.468042 1_554
Fe1 Fe9 2.468042 1_554
Fe1 Fe12 2.468042 1_545
Fe1 Nd1 3.307704 1_555
Fe1 Nd0 3.307704 1_544
Fe2 Fe3 2.417558 1_455
Fe2 Fe8 2.417558 1_555
Fe2 Fe4 2.417558 1_555
Fe2 Fe6 2.417558 1_554
Fe2 Fe9 2.468042 1_554
Fe2 Nd1 3.307704 1_555
Fe2 Nd0 3.307704 1_454
Fe3 H0 1.874724 1_555
Fe4 H1 1.874724 1_555
Fe5 H2 1.874724 1_555
Fe6 H1 1.874724 1_555
Fe7 H2 1.874724 1_555
Fe8 H0 1.874724 1_555
Fe9 H0 1.933174 1_556
Fe10 H1 1.933174 1_655
Fe10 Fe2 2.468042 1_655
Fe11 H2 1.933174 1_565
Fe12 H0 1.933174 1_555
Fe12 Fe2 2.468042 1_655
Fe13 H1 1.933174 1_555
Fe13 Fe2 2.468042 1_556
Fe14 H2 1.933174 1_555
Co0 Co1 2.308576 1_666
Co0 Fe12 2.644287 1_556
Co0 Fe13 2.644287 1_655
Co0 Fe14 2.644287 1_565
Co0 Fe0 2.646971 1_665
Co0 Fe1 2.646971 1_566
Co0 Fe2 2.646971 1_656
Co0 Fe6 2.696964 1_665
Co0 Fe5 2.696964 1_665
Co0 Fe7 2.696964 1_566
Co0 Fe4 2.696964 1_656
Co0 Fe8 2.696964 1_656
Co0 Fe3 2.696964 1_566
Co0 Nd0 3.076709 1_555
Co1 Fe9 2.644287 1_554
Co1 Fe10 2.644287 1_455
Co1 Fe11 2.644287 1_545
Co1 Fe0 2.646971 1_555
Co1 Fe1 2.646971 1_555
Co1 Fe2 2.646971 1_555
Co1 Fe4 2.696964 1_545
Co1 Fe7 2.696964 1_455
Co1 Fe6 2.696964 1_554
Co1 Fe5 2.696964 1_554
Co1 Fe3 2.696964 1_455
Co1 Fe8 2.696964 1_545
Co1 Nd1 3.076709 1_555
H0 Nd1 2.492754 1_555
H0 Nd0 2.492754 1_554
H1 Nd0 2.492754 1_455
H1 Nd1 2.492754 1_555
H2 Nd0 2.492754 1_545
H2 Nd1 2.492754 1_555
