# generated using pymatgen
data_Nd3AlSi5N10O
_symmetry_space_group_name_H-M   'P 1'
_cell_length_a   4.91519500
_cell_length_b   20.37794257
_cell_length_c   14.45904300
_cell_angle_alpha   44.80218946
_cell_angle_beta   90.00000000
_cell_angle_gamma   90.00000000
_symmetry_Int_Tables_number   1
_chemical_formula_structural   Nd3AlSi5N10O
_chemical_formula_sum   'Nd12 Al4 Si20 N40 O4'
_cell_volume   1020.51894453
_cell_formula_units_Z   4
loop_
 _symmetry_equiv_pos_site_id
 _symmetry_equiv_pos_as_xyz
  1  'x, y, z'
loop_
 _atom_site_type_symbol
 _atom_site_label
 _atom_site_symmetry_multiplicity
 _atom_site_fract_x
 _atom_site_fract_y
 _atom_site_fract_z
 _atom_site_occupancy
  Nd  Nd0  1  0.01891100  0.06059200  0.18907200  1
  Nd  Nd1  1  0.01392700  0.24630000  0.31652700  1
  Nd  Nd2  1  0.01891100  0.56059200  0.18974400  1
  Nd  Nd3  1  0.01392700  0.25370000  0.68347300  1
  Nd  Nd4  1  0.01392700  0.75370000  0.30912800  1
  Nd  Nd5  1  0.01891100  0.43940800  0.81092800  1
  Nd  Nd6  1  0.01392700  0.74630000  0.69087200  1
  Nd  Nd7  1  0.01891100  0.93940800  0.81025700  1
  Nd  Nd8  1  0.04231800  0.99998400  0.50300600  1
  Nd  Nd9  1  0.04231800  0.50001600  0.49699400  1
  Nd  Nd10  1  0.04231800  0.49998400  0.99702600  1
  Nd  Nd11  1  0.04231800  0.00001600  0.00297400  1
  Al  Al0  1  0.48469100  0.07240600  0.57346900  1
  Al  Al1  1  0.48469100  0.92759400  0.21828100  1
  Al  Al2  1  0.48469100  0.42759400  0.42653100  1
  Al  Al3  1  0.48469100  0.57240600  0.78171900  1
  Si  Si0  1  0.48014600  0.57205600  0.56745400  1
  Si  Si1  1  0.48042700  0.35763400  0.71327800  1
  Si  Si2  1  0.48042700  0.14236600  0.28672200  1
  Si  Si3  1  0.47855300  0.85585700  0.71706600  1
  Si  Si4  1  0.48014600  0.42794400  0.21156600  1
  Si  Si5  1  0.47855300  0.64414300  0.28293400  1
  Si  Si6  1  0.47855300  0.35585700  0.07121900  1
  Si  Si7  1  0.48042700  0.85763400  0.07145300  1
  Si  Si8  1  0.47855300  0.14414300  0.92878100  1
  Si  Si9  1  0.48014600  0.92794400  0.43254600  1
  Si  Si10  1  0.48042700  0.64236600  0.92854700  1
  Si  Si11  1  0.48014600  0.07205600  0.78843400  1
  Si  Si12  1  0.97105000  0.24941600  0.11716600  1
  Si  Si13  1  0.97554600  0.13355800  0.61902600  1
  Si  Si14  1  0.97554600  0.36644200  0.38097400  1
  Si  Si15  1  0.97554600  0.63355800  0.61385800  1
  Si  Si16  1  0.97105000  0.25058400  0.88283400  1
  Si  Si17  1  0.97105000  0.75058400  0.11599800  1
  Si  Si18  1  0.97554600  0.86644200  0.38614200  1
  Si  Si19  1  0.97105000  0.74941600  0.88400200  1
  N  N0  1  0.31844400  0.24856200  0.14214400  1
  N  N1  1  0.31826600  0.11009000  0.64915800  1
  N  N2  1  0.31844400  0.75143800  0.13926800  1
  N  N3  1  0.31826600  0.38991000  0.35084200  1
  N  N4  1  0.31844400  0.25143800  0.85785600  1
  N  N5  1  0.31826600  0.61009000  0.63066200  1
  N  N6  1  0.31844400  0.74856200  0.86073200  1
  N  N7  1  0.31826600  0.88991000  0.36933800  1
  N  N8  1  0.36325800  0.05091200  0.08374000  1
  N  N9  1  0.36895000  0.13475400  0.40667100  1
  N  N10  1  0.37070800  0.36788800  0.17427800  1
  N  N11  1  0.37109000  0.54431700  0.08607800  1
  N  N12  1  0.37070800  0.13211200  0.82572200  1
  N  N13  1  0.36895000  0.36524600  0.59332900  1
  N  N14  1  0.37109000  0.45568300  0.67471300  1
  N  N15  1  0.37070800  0.63211200  0.41005400  1
  N  N16  1  0.36325800  0.44908800  0.91626000  1
  N  N17  1  0.36895000  0.86524600  0.17618000  1
  N  N18  1  0.36895000  0.63475400  0.82382000  1
  N  N19  1  0.37070800  0.86788800  0.58994600  1
  N  N20  1  0.36325800  0.94908800  0.68556400  1
  N  N21  1  0.37109000  0.95568300  0.91392200  1
  N  N22  1  0.37109000  0.04431700  0.32528700  1
  N  N23  1  0.36325800  0.55091200  0.31443600  1
  N  N24  1  0.83403000  0.15093700  0.26414200  1
  N  N25  1  0.86193300  0.41528500  0.43259800  1
  N  N26  1  0.83220500  0.65341300  0.26321600  1
  N  N27  1  0.86193300  0.08471500  0.56740200  1
  N  N28  1  0.83220500  0.34658700  0.07004300  1
  N  N29  1  0.83249400  0.08379400  0.76630100  1
  N  N30  1  0.83249400  0.41620600  0.23369900  1
  N  N31  1  0.83403000  0.34906300  0.73585800  1
  N  N32  1  0.83249400  0.58379400  0.56611000  1
  N  N33  1  0.86193300  0.58471500  0.76316900  1
  N  N34  1  0.83249400  0.91620600  0.43389000  1
  N  N35  1  0.83220500  0.15341300  0.92995700  1
  N  N36  1  0.83403000  0.84906300  0.06601600  1
  N  N37  1  0.86193300  0.91528500  0.23683100  1
  N  N38  1  0.83403000  0.65093700  0.93398400  1
  N  N39  1  0.83220500  0.84658700  0.73678400  1
  O  O0  1  0.92263200  0.25000000  0.50000000  1
  O  O1  1  0.93029700  0.25000000  0.00000000  1
  O  O2  1  0.92263200  0.75000000  0.50000000  1
  O  O3  1  0.93029700  0.75000000  0.00000000  1
loop_
_geom_bond_atom_site_label_1
_geom_bond_atom_site_label_2
_geom_bond_distance
_geom_bond_site_symmetry_2
Nd0 O1 2.754472 1_455
Nd1 O0 2.743806 1_455
Nd2 O3 2.754472 1_455
Nd3 O0 2.743806 1_455
Nd4 O2 2.743792 1_455
Nd5 O1 2.754472 1_456
Nd6 O2 2.743792 1_455
Nd7 O3 2.754472 1_456
Al0 N9 1.845542 1_555
Al0 N27 1.864809 1_555
Al0 N20 1.875709 1_545
Al0 N1 1.910275 1_555
Al1 N17 1.845530 1_555
Al1 N37 1.864808 1_555
Al1 N8 1.875709 1_565
Al1 N7 1.910275 1_555
Al2 N13 1.845542 1_555
Al2 N25 1.864809 1_555
Al2 N23 1.875709 1_555
Al2 N3 1.910275 1_555
Al3 N18 1.845530 1_555
Al3 N33 1.864808 1_555
Al3 N16 1.875709 1_555
Al3 N5 1.910275 1_555
N0 Si12 1.742816 1_455
N0 Si2 1.807564 1_555
N0 Si6 1.808215 1_555
N1 Si13 1.720612 1_455
N1 Si11 1.753359 1_555
N1 Nd7 2.862023 1_545
N2 Si17 1.742816 1_455
N2 Si7 1.807560 1_555
N2 Si5 1.808219 1_555
N3 Si14 1.720612 1_455
N3 Si4 1.753359 1_555
N3 Nd2 2.862023 1_555
N4 Si16 1.742816 1_455
N4 Si1 1.807564 1_555
N4 Si8 1.808215 1_555
N5 Si15 1.720612 1_455
N5 Si0 1.753359 1_555
N5 Nd5 2.862023 1_555
N6 Si19 1.742816 1_455
N6 Si10 1.807560 1_555
N6 Si3 1.808219 1_555
N7 Si18 1.720612 1_455
N7 Si9 1.753359 1_555
N7 Nd0 2.862023 1_565
N8 Si8 1.705877 1_554
N8 Nd0 2.376854 1_555
N8 Nd11 2.578116 1_555
N9 Si2 1.717696 1_555
N9 Nd1 2.388810 1_555
N9 Nd8 2.575166 1_545
N10 Si4 1.736116 1_555
N10 Si6 1.755001 1_555
N10 Nd1 2.492562 1_555
N10 Nd10 2.574804 1_554
N11 Si10 1.735165 1_554
N11 Si4 1.759873 1_555
N11 Nd2 2.461430 1_555
N11 Nd10 2.595423 1_554
N12 Si11 1.736116 1_555
N12 Si8 1.755001 1_555
N12 Nd3 2.492562 1_555
N12 Nd11 2.574804 1_556
N13 Si1 1.717696 1_555
N13 Nd3 2.388810 1_555
N13 Nd9 2.575166 1_555
N14 Si1 1.735179 1_555
N14 Si0 1.759872 1_555
N14 Nd5 2.461420 1_555
N14 Nd9 2.595434 1_555
N15 Si0 1.736116 1_555
N15 Si5 1.754988 1_555
N15 Nd4 2.492563 1_555
N15 Nd9 2.574804 1_555
N16 Si6 1.705877 1_556
N16 Nd5 2.376854 1_555
N16 Nd10 2.578116 1_555
N17 Si7 1.717723 1_555
N17 Nd4 2.388810 1_555
N17 Nd11 2.575169 1_565
N18 Si10 1.717723 1_555
N18 Nd6 2.388810 1_555
N18 Nd10 2.575169 1_555
N19 Si9 1.736116 1_555
N19 Si3 1.754988 1_555
N19 Nd6 2.492563 1_555
N19 Nd8 2.574804 1_555
N20 Si3 1.705885 1_555
N20 Nd7 2.376864 1_555
N20 Nd8 2.578116 1_555
N21 Si7 1.735165 1_556
N21 Si11 1.759873 1_565
N21 Nd7 2.461420 1_555
N21 Nd11 2.595423 1_566
N22 Si2 1.735179 1_555
N22 Si9 1.759872 1_545
N22 Nd0 2.461420 1_555
N22 Nd8 2.595434 1_545
N23 Si5 1.705885 1_555
N23 Nd2 2.376854 1_555
N23 Nd9 2.578116 1_555
N24 Si12 1.716101 1_555
N24 Si2 1.754114 1_555
N24 Nd1 2.687153 1_655
N24 Nd8 2.713374 1_645
N24 Nd0 2.868665 1_655
N25 Si14 1.707034 1_555
N25 Nd9 2.629792 1_655
N25 Nd2 2.634070 1_655
N25 Nd3 2.758381 1_655
N26 Si17 1.713573 1_555
N26 Si5 1.749891 1_555
N26 Nd9 2.696162 1_655
N26 Nd4 2.709278 1_655
N26 Nd2 2.898279 1_655
N27 Si13 1.707034 1_555
N27 Nd8 2.629792 1_645
N27 Nd7 2.634077 1_645
N27 Nd1 2.758381 1_655
N28 Si12 1.713579 1_555
N28 Si6 1.749888 1_555
N28 Nd10 2.696155 1_654
N28 Nd1 2.709255 1_655
N28 Nd5 2.898291 1_654
N29 Si13 1.729997 1_555
N29 Si11 1.746521 1_555
N29 Nd7 2.692000 1_645
N29 Nd11 2.719952 1_656
N29 Nd3 2.886695 1_655
N30 Si14 1.729997 1_555
N30 Si4 1.746521 1_555
N30 Nd2 2.692008 1_655
N30 Nd10 2.719952 1_654
N30 Nd1 2.886695 1_655
N31 Si16 1.716101 1_555
N31 Si1 1.754114 1_555
N31 Nd3 2.687153 1_655
N31 Nd9 2.713374 1_655
N31 Nd5 2.868665 1_655
N32 Si15 1.730009 1_555
N32 Si0 1.746520 1_555
N32 Nd5 2.692016 1_655
N32 Nd9 2.719940 1_655
N32 Nd4 2.886682 1_655
N33 Si15 1.707047 1_555
N33 Nd10 2.629781 1_655
N33 Nd5 2.634077 1_655
N33 Nd6 2.758368 1_655
N34 Si18 1.730009 1_555
N34 Si9 1.746520 1_555
N34 Nd0 2.692016 1_665
N34 Nd8 2.719940 1_655
N34 Nd6 2.886682 1_655
N35 Si16 1.713579 1_555
N35 Si8 1.749888 1_555
N35 Nd11 2.696155 1_656
N35 Nd3 2.709255 1_655
N35 Nd0 2.898291 1_656
N36 Si17 1.716101 1_555
N36 Si7 1.754113 1_555
N36 Nd4 2.687164 1_655
N36 Nd11 2.713374 1_665
N36 Nd7 2.868653 1_654
N37 Si18 1.707047 1_555
N37 Nd11 2.629781 1_665
N37 Nd0 2.634077 1_665
N37 Nd4 2.758368 1_655
N38 Si19 1.716101 1_555
N38 Si10 1.754113 1_555
N38 Nd6 2.687164 1_655
N38 Nd10 2.713374 1_655
N38 Nd2 2.868665 1_656
N39 Si19 1.713573 1_555
N39 Si3 1.749891 1_555
N39 Nd8 2.696162 1_655
N39 Nd6 2.709278 1_655
N39 Nd7 2.898291 1_655
O0 Si13 1.692574 1_555
O0 Si14 1.692574 1_555
O1 Si16 1.697545 1_554
O1 Si12 1.697545 1_555
O2 Si15 1.692574 1_555
O2 Si18 1.692574 1_555
O3 Si17 1.697545 1_555
O3 Si19 1.697545 1_554
