# generated using pymatgen
data_Rb2TiOF5
_symmetry_space_group_name_H-M   'P 1'
_cell_length_a   6.65108753
_cell_length_b   6.65108753
_cell_length_c   8.07137600
_cell_angle_alpha   90.00000000
_cell_angle_beta   90.00000000
_cell_angle_gamma   96.20855920
_symmetry_Int_Tables_number   1
_chemical_formula_structural   Rb2TiOF5
_chemical_formula_sum   'Rb4 Ti2 O2 F10'
_cell_volume   354.95899846
_cell_formula_units_Z   2
loop_
 _symmetry_equiv_pos_site_id
 _symmetry_equiv_pos_as_xyz
  1  'x, y, z'
loop_
 _atom_site_type_symbol
 _atom_site_label
 _atom_site_symmetry_multiplicity
 _atom_site_fract_x
 _atom_site_fract_y
 _atom_site_fract_z
 _atom_site_occupancy
  Rb  Rb0  1  0.49162400  0.91918500  0.25000000  1
  Rb  Rb1  1  0.08081500  0.50837600  0.75000000  1
  Rb  Rb2  1  0.50837600  0.08081500  0.75000000  1
  Rb  Rb3  1  0.91918500  0.49162400  0.25000000  1
  Ti  Ti0  1  0.00000000  0.00000000  0.50000000  1
  Ti  Ti1  1  0.00000000  0.00000000  0.00000000  1
  O  O0  1  0.52224600  0.52224600  0.75000000  1
  O  O1  1  0.47775400  0.47775400  0.25000000  1
  F  F0  1  0.19172400  0.80827600  0.50000000  1
  F  F1  1  0.19172400  0.80827600  0.00000000  1
  F  F2  1  0.80827600  0.19172400  0.50000000  1
  F  F3  1  0.80827600  0.19172400  0.00000000  1
  F  F4  1  0.79083800  0.79083800  0.49846200  1
  F  F5  1  0.20916200  0.20916200  0.50153800  1
  F  F6  1  0.79083800  0.79083800  0.00153800  1
  F  F7  1  0.20916200  0.20916200  0.99846200  1
  F  F8  1  0.99705600  0.99705600  0.25000000  1
  F  F9  1  0.00294400  0.00294400  0.75000000  1
loop_
_geom_bond_atom_site_label_1
_geom_bond_atom_site_label_2
_geom_bond_distance
_geom_bond_site_symmetry_2
O0 Rb1 2.927456 1_555
O0 Rb2 2.927456 1_555
O1 Rb3 2.927456 1_555
O1 Rb0 2.927456 1_555
F0 Ti0 1.898379 1_565
F0 Rb1 2.876849 1_555
F0 Rb0 2.876849 1_555
F1 Ti1 1.898379 1_565
F1 Rb1 2.876849 1_554
F1 Rb0 2.876849 1_555
F2 Ti0 1.898379 1_655
F2 Rb2 2.876849 1_555
F2 Rb3 2.876849 1_555
F3 Ti1 1.898379 1_655
F3 Rb2 2.876849 1_554
F3 Rb3 2.876849 1_555
F4 Ti0 1.858004 1_665
F4 Rb3 3.013040 1_555
F4 Rb0 3.013040 1_555
F5 Ti0 1.858004 1_555
F5 Rb1 3.013040 1_555
F5 Rb2 3.013040 1_555
F6 Ti1 1.858004 1_665
F6 Rb3 3.013040 1_555
F6 Rb0 3.013040 1_555
F7 Ti1 1.858004 1_556
F7 Rb2 3.013040 1_555
F7 Rb1 3.013040 1_555
F8 Ti0 2.018013 1_665
F8 Ti1 2.018013 1_665
F9 Ti1 2.018013 1_556
F9 Ti0 2.018013 1_555
