# generated using pymatgen
data_Yb2Ti12(CuO4)9
_symmetry_space_group_name_H-M   'P 1'
_cell_length_a   6.44411928
_cell_length_b   10.50405568
_cell_length_c   10.50405568
_cell_angle_alpha   120.00000000
_cell_angle_beta   90.00000000
_cell_angle_gamma   90.00000000
_symmetry_Int_Tables_number   1
_chemical_formula_structural   Yb2Ti12(CuO4)9
_chemical_formula_sum   'Yb2 Ti12 Cu9 O36'
_cell_volume   615.75540458
_cell_formula_units_Z   1
loop_
 _symmetry_equiv_pos_site_id
 _symmetry_equiv_pos_as_xyz
  1  'x, y, z'
loop_
 _atom_site_type_symbol
 _atom_site_label
 _atom_site_symmetry_multiplicity
 _atom_site_fract_x
 _atom_site_fract_y
 _atom_site_fract_z
 _atom_site_occupancy
  Yb  Yb0  1  0.00120200  0.00000000  0.00000000  1
  Yb  Yb1  1  0.66546500  0.66666700  0.33333300  1
  Ti  Ti0  1  0.16986100  0.65596900  0.82627900  1
  Ti  Ti1  1  0.83333300  0.33333300  0.16666700  1
  Ti  Ti2  1  0.49680600  0.01069800  0.50705400  1
  Ti  Ti3  1  0.83333300  0.33333300  0.66666700  1
  Ti  Ti4  1  0.49247900  0.00000000  0.00000000  1
  Ti  Ti5  1  0.17418800  0.66666700  0.33333300  1
  Ti  Ti6  1  0.16986100  0.17031100  0.34403100  1
  Ti  Ti7  1  0.83333300  0.83333300  0.66666700  1
  Ti  Ti8  1  0.49680600  0.49635600  0.98930200  1
  Ti  Ti9  1  0.49680600  0.49294600  0.50364400  1
  Ti  Ti10  1  0.16986100  0.17372100  0.82968900  1
  Ti  Ti11  1  0.83333300  0.83333300  0.16666700  1
  Cu  Cu0  1  0.67179400  0.67055700  0.83519300  1
  Cu  Cu1  1  0.33333300  0.33333300  0.16666700  1
  Cu  Cu2  1  0.99487300  0.99611000  0.49814000  1
  Cu  Cu3  1  0.99487300  0.50186000  0.49797000  1
  Cu  Cu4  1  0.67179400  0.16480700  0.83536300  1
  Cu  Cu5  1  0.33333300  0.83333300  0.16666700  1
  Cu  Cu6  1  0.67179400  0.16463700  0.32944300  1
  Cu  Cu7  1  0.33333300  0.83333300  0.66666700  1
  Cu  Cu8  1  0.99487300  0.50203000  0.00389000  1
  O  O0  1  0.24222000  0.06366200  0.62127600  1
  O  O1  1  0.91715500  0.74123000  0.95792200  1
  O  O2  1  0.58058500  0.40603200  0.29087400  1
  O  O3  1  0.34772600  0.52287800  0.17431500  1
  O  O4  1  0.00337100  0.18318500  0.50185800  1
  O  O5  1  0.68398400  0.85750200  0.84165900  1
  O  O6  1  0.98268300  0.80916500  0.49167400  1
  O  O7  1  0.66329500  0.48348100  0.83147600  1
  O  O8  1  0.31894100  0.14378900  0.15901800  1
  O  O9  1  0.08608100  0.26063400  0.04246000  1
  O  O10  1  0.74951200  0.92543700  0.37541100  1
  O  O11  1  0.42444700  0.60300500  0.71205700  1
  O  O12  1  0.42444700  0.28794300  0.89094700  1
  O  O13  1  0.08608100  0.95754000  0.21817500  1
  O  O14  1  0.74951200  0.62458900  0.55002600  1
  O  O15  1  0.66329500  0.16852400  0.65200600  1
  O  O16  1  0.31894100  0.84098200  0.98477200  1
  O  O17  1  0.98268300  0.50832600  0.31749000  1
  O  O18  1  0.68398400  0.15834100  0.01584300  1
  O  O19  1  0.34772600  0.82568500  0.34856100  1
  O  O20  1  0.00337100  0.49814200  0.68132800  1
  O  O21  1  0.91715500  0.04207800  0.78330700  1
  O  O22  1  0.58058500  0.70912600  0.11515900  1
  O  O23  1  0.24222000  0.37872400  0.44238600  1
  O  O24  1  0.00337100  0.31867200  0.81681500  1
  O  O25  1  0.68398400  0.98415700  0.14249800  1
  O  O26  1  0.34772600  0.65143900  0.47712200  1
  O  O27  1  0.58058500  0.88484100  0.59396800  1
  O  O28  1  0.24222000  0.55761400  0.93633800  1
  O  O29  1  0.91715500  0.21669300  0.25877000  1
  O  O30  1  0.74951200  0.44997400  0.07456300  1
  O  O31  1  0.42444700  0.10905300  0.39699500  1
  O  O32  1  0.08608100  0.78182500  0.73936600  1
  O  O33  1  0.31894100  0.01522800  0.85621100  1
  O  O34  1  0.98268300  0.68251000  0.19083500  1
  O  O35  1  0.66329500  0.34799400  0.51651900  1
loop_
_geom_bond_atom_site_label_1
_geom_bond_atom_site_label_2
_geom_bond_distance
_geom_bond_site_symmetry_2
Cu0 O5 1.932215 1_555
Cu0 O1 1.938036 1_555
Cu0 O7 1.946599 1_555
Cu0 O11 1.949177 1_555
Cu1 O8 1.954250 1_555
Cu1 O3 1.954266 1_555
Cu1 O9 1.956450 1_555
Cu1 O2 1.956450 1_555
Cu2 O6 1.932215 1_555
Cu2 O10 1.938036 1_555
Cu2 O4 1.946584 1_665
Cu2 O0 1.949177 1_665
Cu3 O17 1.932225 1_555
Cu3 O14 1.938036 1_555
Cu3 O20 1.946594 1_655
Cu3 O23 1.949177 1_655
Cu4 O18 1.932225 1_556
Cu4 O21 1.938036 1_555
Cu4 O15 1.946578 1_555
Cu4 O12 1.949177 1_555
Cu5 O19 1.954235 1_555
Cu5 O16 1.954250 1_554
Cu5 O13 1.956450 1_555
Cu5 O22 1.956450 1_555
Cu6 O25 1.932220 1_545
Cu6 O29 1.938036 1_555
Cu6 O35 1.946589 1_555
Cu6 O31 1.949177 1_555
Cu7 O33 1.954250 1_565
Cu7 O26 1.954251 1_555
Cu7 O32 1.956450 1_555
Cu7 O27 1.956450 1_555
Cu8 O34 1.932220 1_555
Cu8 O30 1.938036 1_555
Cu8 O24 1.946589 1_654
Cu8 O28 1.949177 1_654
O0 Ti2 1.942431 1_555
O0 Ti10 1.953354 1_555
O1 Ti11 1.978441 1_556
O1 Ti0 2.031668 1_655
O1 Yb0 2.583711 1_666
O2 Ti1 1.985400 1_555
O2 Ti9 2.019789 1_555
O2 Yb1 2.602350 1_555
O3 Ti5 1.949103 1_555
O3 Ti8 2.058126 1_554
O3 Yb1 2.596317 1_555
O4 Ti6 1.921862 1_555
O4 Ti3 1.988643 1_455
O5 Ti7 1.975542 1_555
O5 Ti4 2.010018 1_566
O5 Yb0 2.587650 1_666
O6 Ti7 1.975558 1_555
O6 Ti5 2.010018 1_655
O6 Yb1 2.587650 1_555
O7 Ti8 1.921846 1_555
O7 Ti3 1.988643 1_555
O8 Ti4 1.949103 1_555
O8 Ti6 2.058126 1_555
O8 Yb0 2.596317 1_555
O9 Ti1 1.985400 1_455
O9 Ti10 2.019801 1_554
O9 Yb0 2.602335 1_555
O10 Ti11 1.978430 1_555
O10 Ti2 2.031668 1_565
O10 Yb1 2.583711 1_555
O11 Ti0 1.942431 1_555
O11 Ti9 1.953354 1_555
O12 Ti10 1.942431 1_555
O12 Ti8 1.953354 1_555
O13 Ti11 1.985400 1_455
O13 Ti6 2.019799 1_565
O13 Yb0 2.602345 1_565
O14 Ti7 1.978430 1_555
O14 Ti9 2.031668 1_555
O14 Yb1 2.583721 1_555
O15 Ti2 1.921850 1_555
O15 Ti3 1.988643 1_555
O16 Ti4 1.949106 1_566
O16 Ti0 2.058133 1_555
O16 Yb0 2.596319 1_566
O17 Ti1 1.975550 1_555
O17 Ti5 2.010018 1_655
O17 Yb1 2.587650 1_555
O18 Ti1 1.975545 1_555
O18 Ti4 2.010018 1_555
O18 Yb0 2.587650 1_655
O19 Ti5 1.949106 1_555
O19 Ti2 2.058133 1_565
O19 Yb1 2.596319 1_555
O20 Ti0 1.921855 1_555
O20 Ti3 1.988643 1_455
O21 Ti7 1.978440 1_545
O21 Ti10 2.031668 1_655
O21 Yb0 2.583721 1_656
O22 Ti11 1.985400 1_555
O22 Ti8 2.019790 1_554
O22 Yb1 2.602330 1_555
O23 Ti9 1.942431 1_555
O23 Ti6 1.953354 1_555
O24 Ti10 1.921845 1_555
O24 Ti3 1.988643 1_455
O25 Ti11 1.975551 1_555
O25 Ti4 2.010018 1_565
O25 Yb0 2.587650 1_665
O26 Ti5 1.949098 1_555
O26 Ti9 2.058144 1_555
O26 Yb1 2.596313 1_555
O27 Ti7 1.985400 1_555
O27 Ti2 2.019798 1_565
O27 Yb1 2.602343 1_555
O28 Ti8 1.942431 1_555
O28 Ti0 1.953363 1_555
O29 Ti1 1.978423 1_555
O29 Ti6 2.031668 1_655
O29 Yb0 2.583715 1_655
O30 Ti1 1.978439 1_555
O30 Ti8 2.031668 1_554
O30 Yb1 2.583715 1_555
O31 Ti6 1.942431 1_555
O31 Ti2 1.953363 1_555
O32 Ti7 1.985400 1_455
O32 Ti0 2.019782 1_555
O32 Yb0 2.602339 1_566
O33 Ti4 1.949098 1_556
O33 Ti10 2.058144 1_555
O33 Yb0 2.596313 1_556
O34 Ti11 1.975539 1_555
O34 Ti5 2.010018 1_655
O34 Yb1 2.587650 1_555
O35 Ti9 1.921855 1_555
O35 Ti3 1.988643 1_555
