# generated using pymatgen
data_ZrMo
_symmetry_space_group_name_H-M   'P 1'
_cell_length_a   5.99649927
_cell_length_b   5.99649927
_cell_length_c   9.00533800
_cell_angle_alpha   90.00000000
_cell_angle_beta   90.00000000
_cell_angle_gamma   112.30504986
_symmetry_Int_Tables_number   1
_chemical_formula_structural   ZrMo
_chemical_formula_sum   'Zr8 Mo8'
_cell_volume   299.58500608
_cell_formula_units_Z   8
loop_
 _symmetry_equiv_pos_site_id
 _symmetry_equiv_pos_as_xyz
  1  'x, y, z'
loop_
 _atom_site_type_symbol
 _atom_site_label
 _atom_site_symmetry_multiplicity
 _atom_site_fract_x
 _atom_site_fract_y
 _atom_site_fract_z
 _atom_site_occupancy
  Zr  Zr0_0  1  0.25000000  0.25000000  0.25000000  1
  Zr  Zr0_1  1  0.25000000  0.25000000  0.75000000  1
  Zr  Zr0_2  1  0.25000000  0.75000000  0.25000000  1
  Zr  Zr0_3  1  0.25000000  0.75000000  0.75000000  1
  Zr  Zr0_4  1  0.75000000  0.25000000  0.25000000  1
  Zr  Zr0_5  1  0.75000000  0.25000000  0.75000000  1
  Zr  Zr0_6  1  0.75000000  0.75000000  0.25000000  1
  Zr  Zr0_7  1  0.75000000  0.75000000  0.75000000  1
  Mo  Mo0_0  1  0.00000000  0.00000000  0.00000000  1
  Mo  Mo0_1  1  0.00000000  0.00000000  0.50000000  1
  Mo  Mo0_2  1  0.00000000  0.50000000  0.00000000  1
  Mo  Mo0_3  1  0.00000000  0.50000000  0.50000000  1
  Mo  Mo0_4  1  0.50000000  0.00000000  0.00000000  1
  Mo  Mo0_5  1  0.50000000  0.00000000  0.50000000  1
  Mo  Mo0_6  1  0.50000000  0.50000000  0.00000000  1
  Mo  Mo0_7  1  0.50000000  0.50000000  0.50000000  1
loop_
_geom_bond_atom_site_label_1
_geom_bond_atom_site_label_2
_geom_bond_distance
_geom_bond_site_symmetry_2
Zr0_0 Zr0_2 2.998250 1_555
Zr0_0 Zr0_4 2.998250 1_455
Zr0_0 Zr0_2 2.998250 1_545
Zr0_0 Zr0_4 2.998250 1_555
Zr0_1 Zr0_5 2.998250 1_455
Zr0_1 Zr0_3 2.998250 1_545
Zr0_1 Zr0_5 2.998250 1_555
Zr0_1 Zr0_3 2.998250 1_555
Zr0_2 Zr0_6 2.998250 1_455
Zr0_2 Zr0_6 2.998250 1_555
Zr0_3 Zr0_7 2.998250 1_555
Zr0_3 Zr0_7 2.998250 1_455
Zr0_4 Zr0_6 2.998250 1_545
Zr0_4 Zr0_6 2.998250 1_555
Zr0_5 Zr0_7 2.998250 1_555
Zr0_5 Zr0_7 2.998250 1_545
Mo0_0 Zr0_0 2.803093 1_555
Mo0_0 Zr0_1 2.803093 1_554
Mo0_0 Zr0_6 2.803093 1_445
Mo0_0 Zr0_7 2.803093 1_444
Mo0_0 Mo0_2 2.998250 1_545
Mo0_0 Mo0_2 2.998250 1_555
Mo0_0 Mo0_4 2.998250 1_555
Mo0_0 Mo0_4 2.998250 1_455
Mo0_1 Zr0_0 2.803093 1_555
Mo0_1 Zr0_1 2.803093 1_555
Mo0_1 Zr0_6 2.803093 1_445
Mo0_1 Zr0_7 2.803093 1_445
Mo0_1 Mo0_5 2.998250 1_455
Mo0_1 Mo0_3 2.998250 1_545
Mo0_1 Mo0_5 2.998250 1_555
Mo0_1 Mo0_3 2.998250 1_555
Mo0_2 Zr0_3 2.803093 1_554
Mo0_2 Zr0_4 2.803093 1_455
Mo0_2 Zr0_5 2.803093 1_454
Mo0_2 Zr0_2 2.803093 1_555
Mo0_2 Mo0_6 2.998250 1_455
Mo0_2 Mo0_6 2.998250 1_555
Mo0_3 Zr0_3 2.803093 1_555
Mo0_3 Zr0_4 2.803093 1_455
Mo0_3 Zr0_5 2.803093 1_455
Mo0_3 Zr0_2 2.803093 1_555
Mo0_3 Mo0_7 2.998250 1_555
Mo0_3 Mo0_7 2.998250 1_455
Mo0_4 Zr0_2 2.803093 1_545
Mo0_4 Zr0_4 2.803093 1_555
Mo0_4 Zr0_3 2.803093 1_544
Mo0_4 Zr0_5 2.803093 1_554
Mo0_4 Mo0_6 2.998250 1_545
Mo0_4 Mo0_6 2.998250 1_555
Mo0_5 Zr0_2 2.803093 1_545
Mo0_5 Zr0_4 2.803093 1_555
Mo0_5 Zr0_3 2.803093 1_545
Mo0_5 Zr0_5 2.803093 1_555
Mo0_5 Mo0_7 2.998250 1_555
Mo0_5 Mo0_7 2.998250 1_545
Mo0_6 Zr0_0 2.803093 1_555
Mo0_6 Zr0_7 2.803093 1_554
Mo0_6 Zr0_6 2.803093 1_555
Mo0_6 Zr0_1 2.803093 1_554
Mo0_7 Zr0_0 2.803093 1_555
Mo0_7 Zr0_7 2.803093 1_555
Mo0_7 Zr0_1 2.803093 1_555
Mo0_7 Zr0_6 2.803093 1_555
