# generated using pymatgen
data_BaAuO2
_symmetry_space_group_name_H-M   'P 1'
_cell_length_a   4.34064000
_cell_length_b   4.34064000
_cell_length_c   3.76679300
_cell_angle_alpha   90.00000000
_cell_angle_beta   90.00000000
_cell_angle_gamma   90.00000000
_symmetry_Int_Tables_number   1
_chemical_formula_structural   BaAuO2
_chemical_formula_sum   'Ba1 Au1 O2'
_cell_volume   70.97073306
_cell_formula_units_Z   1
loop_
 _symmetry_equiv_pos_site_id
 _symmetry_equiv_pos_as_xyz
  1  'x, y, z'
loop_
 _atom_site_type_symbol
 _atom_site_label
 _atom_site_symmetry_multiplicity
 _atom_site_fract_x
 _atom_site_fract_y
 _atom_site_fract_z
 _atom_site_occupancy
  Ba  Ba0  1  0.50000000  0.50000000  0.50000000  1
  Au  Au0  1  0.00000000  0.00000000  0.00000000  1
  O  O0  1  0.50000000  0.00000000  0.00000000  1
  O  O1  1  0.00000000  0.50000000  0.00000000  1
loop_
_geom_bond_atom_site_label_1
_geom_bond_atom_site_label_2
_geom_bond_distance
_geom_bond_site_symmetry_2
Ba0 O0 2.873582 1_556
Ba0 O0 2.873582 1_566
Ba0 O1 2.873582 1_555
Ba0 O1 2.873582 1_556
Ba0 O0 2.873582 1_555
Ba0 O0 2.873582 1_565
Ba0 O1 2.873582 1_656
Ba0 O1 2.873582 1_655
Au0 O1 2.170320 1_545
Au0 O0 2.170320 1_455
Au0 O1 2.170320 1_555
Au0 O0 2.170320 1_555
