# generated using pymatgen
data_AlF3
_symmetry_space_group_name_H-M   'P 1'
_cell_length_a   10.20704701
_cell_length_b   10.74507630
_cell_length_c   11.06849825
_cell_angle_alpha   91.01317139
_cell_angle_beta   88.36912297
_cell_angle_gamma   88.78775519
_symmetry_Int_Tables_number   1
_chemical_formula_structural   AlF3
_chemical_formula_sum   'Al25 F75'
_cell_volume   1212.97667272
_cell_formula_units_Z   25
loop_
 _symmetry_equiv_pos_site_id
 _symmetry_equiv_pos_as_xyz
  1  'x, y, z'
loop_
 _atom_site_type_symbol
 _atom_site_label
 _atom_site_symmetry_multiplicity
 _atom_site_fract_x
 _atom_site_fract_y
 _atom_site_fract_z
 _atom_site_occupancy
  Al  Al0  1  0.68575800  0.91921300  0.12864900  1
  Al  Al1  1  0.25619600  0.25609500  0.96404100  1
  Al  Al2  1  0.92246500  0.59262400  0.93910900  1
  Al  Al3  1  0.60944500  0.07176900  0.42570000  1
  Al  Al4  1  0.04926500  0.41521100  0.40749700  1
  Al  Al5  1  0.13133900  0.25664500  0.73861300  1
  Al  Al6  1  0.70238300  0.23489300  0.08022400  1
  Al  Al7  1  0.31157100  0.61774500  0.32649200  1
  Al  Al8  1  0.02237100  0.62066300  0.65046200  1
  Al  Al9  1  0.12508300  0.91704300  0.27680000  1
  Al  Al10  1  0.90069800  0.91361800  0.69305000  1
  Al  Al11  1  0.55379500  0.19891800  0.78505200  1
  Al  Al12  1  0.00820100  0.90569200  0.99187900  1
  Al  Al13  1  0.34679800  0.70675100  0.63339800  1
  Al  Al14  1  0.63221800  0.60747700  0.36071400  1
  Al  Al15  1  0.20416600  0.98481900  0.57813000  1
  Al  Al16  1  0.83003700  0.23022600  0.60477700  1
  Al  Al17  1  0.97662000  0.19812200  0.15331700  1
  Al  Al18  1  0.59453100  0.71657700  0.96879700  1
  Al  Al19  1  0.58156800  0.46876700  0.64815300  1
  Al  Al20  1  0.41236500  0.09179300  0.20009800  1
  Al  Al21  1  0.91399200  0.71627900  0.43945000  1
  Al  Al22  1  0.38767900  0.32319200  0.41572300  1
  Al  Al23  1  0.54974200  0.88037300  0.70359600  1
  Al  Al24  1  0.35796400  0.57083400  0.00902400  1
  F  F0  1  0.03226000  0.07085500  0.25708200  1
  F  F1  1  0.14736300  0.35653900  0.87586700  1
  F  F2  1  0.53490600  0.02110100  0.79014900  1
  F  F3  1  0.50978800  0.96260700  0.13753800  1
  F  F4  1  0.75137300  0.72169500  0.37395300  1
  F  F5  1  0.61683500  0.20397100  0.93609200  1
  F  F6  1  0.35639500  0.03492000  0.59540300  1
  F  F7  1  0.09738300  0.86070300  0.13037100  1
  F  F8  1  0.75244400  0.14520300  0.47683700  1
  F  F9  1  0.89508800  0.06986400  0.63407800  1
  F  F10  1  0.52346300  0.18658700  0.63278700  1
  F  F11  1  0.53851900  0.23017600  0.40893700  1
  F  F12  1  0.37383900  0.83270500  0.74381900  1
  F  F13  1  0.27111400  0.99468300  0.22406700  1
  F  F14  1  0.85604100  0.87576600  0.10257900  1
  F  F15  1  0.99243200  0.06364800  0.04475900  1
  F  F16  1  0.42275900  0.73918200  0.01158700  1
  F  F17  1  0.06214500  0.48098700  0.56360300  1
  F  F18  1  0.32741200  0.62001600  0.48801800  1
  F  F19  1  0.61067500  0.56249900  0.50734300  1
  F  F20  1  0.94888700  0.75420800  0.72953100  1
  F  F21  1  0.06850300  0.70449500  0.51083100  1
  F  F22  1  0.59859000  0.96794400  0.54336900  1
  F  F23  1  0.68872600  0.48641900  0.28298500  1
  F  F24  1  0.21207600  0.33317700  0.44174900  1
  F  F25  1  0.94359700  0.29848100  0.48649900  1
  F  F26  1  0.02361300  0.32607800  0.27158200  1
  F  F27  1  0.64123900  0.75008300  0.14061400  1
  F  F28  1  0.57561900  0.75198500  0.81272900  1
  F  F29  1  0.96132700  0.28492500  0.71260700  1
  F  F30  1  0.72089800  0.36260400  0.58505700  1
  F  F31  1  0.38811400  0.22398000  0.85409000  1
  F  F32  1  0.12849200  0.25042600  0.08204600  1
  F  F33  1  0.15140300  0.90814700  0.91206700  1
  F  F34  1  0.07898700  0.92477100  0.66909800  1
  F  F35  1  0.33906300  0.22202100  0.29001300  1
  F  F36  1  0.13643400  0.13851200  0.61703200  1
  F  F37  1  0.98597600  0.81679100  0.32693500  1
  F  F38  1  0.32411900  0.59316700  0.16499900  1
  F  F39  1  0.22754600  0.60139800  0.92687400  1
  F  F40  1  0.69356500  0.97807800  0.29562400  1
  F  F41  1  0.90834700  0.94764200  0.85503200  1
  F  F42  1  0.81329600  0.20939000  0.22273900  1
  F  F43  1  0.87538100  0.25981200  0.02819800  1
  F  F44  1  0.23598700  0.77025700  0.30874400  1
  F  F45  1  0.75739500  0.63899100  0.94851600  1
  F  F46  1  0.45437800  0.39631400  0.54411100  1
  F  F47  1  0.69096100  0.55111300  0.72842700  1
  F  F48  1  0.46319000  0.02951500  0.35098200  1
  F  F49  1  0.73153900  0.19539300  0.73821600  1
  F  F50  1  0.54689900  0.36893400  0.77083500  1
  F  F51  1  0.40633300  0.45874600  0.32886200  1
  F  F52  1  0.48466000  0.67933000  0.32246600  1
  F  F53  1  0.72816000  0.88882900  0.71020900  1
  F  F54  1  0.55438900  0.18951800  0.17682500  1
  F  F55  1  0.52727300  0.55524300  0.96626500  1
  F  F56  1  0.16676400  0.52752000  0.33476300  1
  F  F57  1  0.93760300  0.55150500  0.37224900  1
  F  F58  1  0.16790700  0.14574300  0.85243800  1
  F  F59  1  0.72917600  0.06644700  0.07145300  1
  F  F60  1  0.65996200  0.38636700  0.08075800  1
  F  F61  1  0.87957900  0.85759200  0.53226100  1
  F  F62  1  0.51295000  0.76764700  0.58484200  1
  F  F63  1  0.86390300  0.62530200  0.57110000  1
  F  F64  1  0.33477600  0.39992700  0.01939400  1
  F  F65  1  0.26760200  0.82888800  0.54981700  1
  F  F66  1  0.24547200  0.34130700  0.66899300  1
  F  F67  1  0.97223900  0.54125500  0.79230600  1
  F  F68  1  0.65497200  0.87309900  0.97187600  1
  F  F69  1  0.98738400  0.73668800  0.96055600  1
  F  F70  1  0.34395500  0.14695900  0.06112400  1
  F  F71  1  0.96347100  0.49995100  0.04920100  1
  F  F72  1  0.43525700  0.57593400  0.69192000  1
  F  F73  1  0.18925900  0.65056800  0.69304500  1
  F  F74  1  0.14391300  0.97997100  0.42931400  1
loop_
_geom_bond_atom_site_label_1
_geom_bond_atom_site_label_2
_geom_bond_distance
_geom_bond_site_symmetry_2
Al0 F59 1.774584 1_565
Al0 F14 1.804025 1_555
Al0 F68 1.833724 1_554
Al0 F3 1.845554 1_555
Al0 F27 1.888567 1_555
Al0 F40 1.947125 1_555
Al1 F31 1.812569 1_555
Al1 F32 1.821547 1_556
Al1 F70 1.840420 1_556
Al1 F1 1.843794 1_555
Al1 F64 1.858534 1_556
Al1 F58 1.949558 1_555
Al2 F71 1.644974 1_556
Al2 F69 1.712025 1_555
Al2 F45 1.746578 1_555
Al2 F67 1.764218 1_555
Al3 F22 1.732499 1_545
Al3 F8 1.775770 1_555
Al3 F48 1.790059 1_555
Al3 F11 1.849953 1_555
Al3 F40 1.914517 1_545
Al4 F26 1.797511 1_555
Al4 F17 1.864397 1_555
Al4 F25 1.882410 1_455
Al4 F57 1.889666 1_455
Al4 F56 1.892989 1_555
Al4 F24 1.915215 1_555
Al5 F66 1.672432 1_555
Al5 F29 1.787665 1_455
Al5 F58 1.790996 1_555
Al5 F36 1.832409 1_555
Al5 F1 1.857614 1_555
Al6 F60 1.675200 1_555
Al6 F59 1.825245 1_555
Al6 F43 1.867865 1_555
Al6 F5 1.868354 1_554
Al6 F54 1.902756 1_555
Al6 F42 1.987163 1_555
Al7 F56 1.785768 1_555
Al7 F18 1.799507 1_555
Al7 F38 1.802802 1_555
Al7 F44 1.812682 1_555
Al7 F52 1.899272 1_555
Al7 F51 1.946323 1_555
Al8 F17 1.800713 1_555
Al8 F20 1.805625 1_455
Al8 F73 1.814000 1_555
Al8 F21 1.856737 1_555
Al8 F63 1.862630 1_455
Al8 F67 1.864104 1_455
Al9 F7 1.752677 1_555
Al9 F13 1.810714 1_555
Al9 F74 1.824123 1_555
Al9 F37 1.877597 1_455
Al9 F0 1.906581 1_565
Al9 F44 1.964954 1_555
Al10 F53 1.791955 1_555
Al10 F9 1.812394 1_565
Al10 F20 1.827301 1_555
Al10 F41 1.827629 1_555
Al10 F34 1.838266 1_655
Al10 F61 1.888285 1_555
Al11 F10 1.725495 1_555
Al11 F5 1.808686 1_555
Al11 F50 1.836409 1_555
Al11 F31 1.848297 1_555
Al11 F49 1.872034 1_555
Al11 F2 1.926070 1_555
Al12 F33 1.687165 1_555
Al12 F15 1.788040 1_466
Al12 F69 1.860461 1_455
Al12 F7 1.870587 1_556
Al12 F41 1.904953 1_455
Al12 F14 1.985849 1_456
Al13 F72 1.795112 1_555
Al13 F65 1.808927 1_555
Al13 F12 1.837962 1_555
Al13 F73 1.838679 1_555
Al13 F18 1.862780 1_555
Al13 F62 1.897539 1_555
Al14 F23 1.632581 1_555
Al14 F19 1.711097 1_555
Al14 F52 1.744245 1_555
Al14 F4 1.753233 1_555
Al15 F6 1.670133 1_565
Al15 F34 1.745646 1_555
Al15 F74 1.774851 1_555
Al15 F65 1.802416 1_555
Al15 F36 1.816652 1_565
Al16 F30 1.808214 1_555
Al16 F49 1.811975 1_555
Al16 F9 1.870492 1_555
Al16 F8 1.875083 1_555
Al16 F25 1.891791 1_555
Al16 F29 1.914499 1_555
Al17 F42 1.816432 1_555
Al17 F32 1.823213 1_655
Al17 F15 1.864230 1_555
Al17 F43 1.873508 1_555
Al17 F0 1.889838 1_655
Al17 F26 1.958043 1_655
Al18 F28 1.790300 1_555
Al18 F68 1.803723 1_555
Al18 F16 1.813275 1_556
Al18 F45 1.849956 1_555
Al18 F55 1.878028 1_555
Al18 F27 2.002060 1_556
Al19 F47 1.699874 1_555
Al19 F50 1.777658 1_555
Al19 F19 1.890382 1_555
Al19 F72 1.912394 1_555
Al19 F30 1.912629 1_555
Al19 F46 1.927125 1_555
Al20 F3 1.806539 1_545
Al20 F70 1.811346 1_555
Al20 F13 1.813702 1_545
Al20 F54 1.822959 1_555
Al20 F35 1.836411 1_555
Al20 F48 1.892135 1_555
Al21 F21 1.787043 1_655
Al21 F37 1.812809 1_555
Al21 F4 1.830294 1_555
Al21 F63 1.835608 1_555
Al21 F61 1.840111 1_555
Al21 F57 1.916041 1_555
Al22 F51 1.770007 1_555
Al22 F46 1.771567 1_555
Al22 F24 1.807908 1_555
Al22 F11 1.816779 1_555
Al22 F35 1.836489 1_555
Al23 F2 1.777101 1_565
Al23 F62 1.823983 1_555
Al23 F53 1.828783 1_555
Al23 F28 1.869139 1_555
Al23 F12 1.919811 1_555
Al23 F22 2.075508 1_555
Al24 F39 1.663625 1_554
Al24 F38 1.762188 1_555
Al24 F55 1.782395 1_554
Al24 F64 1.861690 1_555
Al24 F16 1.939135 1_555
