# generated using pymatgen
data_KMg14BO15
_symmetry_space_group_name_H-M   'P 1'
_cell_length_a   4.50369200
_cell_length_b   8.30908400
_cell_length_c   8.69761600
_cell_angle_alpha   90.00000000
_cell_angle_beta   90.00000000
_cell_angle_gamma   90.00000000
_symmetry_Int_Tables_number   1
_chemical_formula_structural   KMg14BO15
_chemical_formula_sum   'K1 Mg14 B1 O15'
_cell_volume   325.47831671
_cell_formula_units_Z   1
loop_
 _symmetry_equiv_pos_site_id
 _symmetry_equiv_pos_as_xyz
  1  'x, y, z'
loop_
 _atom_site_type_symbol
 _atom_site_label
 _atom_site_symmetry_multiplicity
 _atom_site_fract_x
 _atom_site_fract_y
 _atom_site_fract_z
 _atom_site_occupancy
  K  K0  1  0.00000000  0.00000000  0.98499800  1
  Mg  Mg0  1  0.00000000  0.00000000  0.50333300  1
  Mg  Mg1  1  0.00000000  0.50000000  0.49466500  1
  Mg  Mg2  1  0.50000000  0.73825100  0.00127800  1
  Mg  Mg3  1  0.50000000  0.26174900  0.00127800  1
  Mg  Mg4  1  0.50000000  0.74964100  0.49723100  1
  Mg  Mg5  1  0.50000000  0.25035900  0.49723100  1
  Mg  Mg6  1  0.50000000  0.00000000  0.74565700  1
  Mg  Mg7  1  0.50000000  0.50000000  0.75826700  1
  Mg  Mg8  1  0.50000000  0.00000000  0.24883900  1
  Mg  Mg9  1  0.50000000  0.50000000  0.24581700  1
  Mg  Mg10  1  0.00000000  0.73372000  0.73867600  1
  Mg  Mg11  1  0.00000000  0.26628000  0.73867600  1
  Mg  Mg12  1  0.00000000  0.75668400  0.25508700  1
  Mg  Mg13  1  0.00000000  0.24331600  0.25508700  1
  B  B0  1  0.00000000  0.50000000  0.06099400  1
  O  O0  1  0.00000000  0.50000000  0.72123800  1
  O  O1  1  0.00000000  0.00000000  0.26801900  1
  O  O2  1  0.00000000  0.50000000  0.23281500  1
  O  O3  1  0.50000000  0.74661400  0.75311500  1
  O  O4  1  0.50000000  0.25338600  0.75311500  1
  O  O5  1  0.50000000  0.75022500  0.24753000  1
  O  O6  1  0.50000000  0.24977500  0.24753000  1
  O  O7  1  0.50000000  0.00000000  0.00356300  1
  O  O8  1  0.50000000  0.50000000  0.01018500  1
  O  O9  1  0.50000000  0.00000000  0.49880300  1
  O  O10  1  0.50000000  0.50000000  0.48562800  1
  O  O11  1  0.00000000  0.66721400  0.00908700  1
  O  O12  1  0.00000000  0.33278600  0.00908700  1
  O  O13  1  0.00000000  0.74545300  0.49158400  1
  O  O14  1  0.00000000  0.25454700  0.49158400  1
loop_
_geom_bond_atom_site_label_1
_geom_bond_atom_site_label_2
_geom_bond_distance
_geom_bond_site_symmetry_2
K0 O7 2.257628 1_456
K0 O7 2.257628 1_556
K0 O1 2.461608 1_556
K0 O12 2.773073 1_556
K0 O11 2.773073 1_546
Mg0 O1 2.046671 1_555
Mg0 O13 2.117520 1_545
Mg0 O14 2.117520 1_555
Mg0 O9 2.252191 1_455
Mg0 O9 2.252191 1_555
Mg1 O0 1.970645 1_555
Mg1 O14 2.039666 1_555
Mg1 O13 2.039666 1_555
Mg1 O10 2.253217 1_455
Mg1 O10 2.253217 1_555
Mg1 O2 2.277471 1_555
Mg2 O8 1.981163 1_555
Mg2 O5 2.144115 1_555
Mg2 O3 2.159545 1_554
Mg2 O7 2.174985 1_565
Mg2 O11 2.328910 1_555
Mg2 O11 2.328910 1_655
Mg3 O8 1.981163 1_555
Mg3 O6 2.144115 1_555
Mg3 O4 2.159545 1_554
Mg3 O7 2.174985 1_555
Mg3 O12 2.328910 1_655
Mg3 O12 2.328910 1_555
Mg4 O10 2.076742 1_555
Mg4 O9 2.080299 1_565
Mg4 O5 2.171809 1_555
Mg4 O3 2.225723 1_555
Mg4 O13 2.252650 1_655
Mg4 O13 2.252650 1_555
Mg5 O10 2.076742 1_555
Mg5 O9 2.080299 1_555
Mg5 O6 2.171809 1_555
Mg5 O4 2.225723 1_555
Mg5 O14 2.252650 1_655
Mg5 O14 2.252650 1_555
Mg6 O3 2.106405 1_545
Mg6 O4 2.106405 1_555
Mg6 O9 2.147041 1_555
Mg6 O7 2.243167 1_556
Mg7 O3 2.049626 1_555
Mg7 O4 2.049626 1_555
Mg7 O8 2.191086 1_556
Mg7 O0 2.274761 1_555
Mg7 O0 2.274761 1_655
Mg7 O10 2.371309 1_555
Mg8 O5 2.075433 1_545
Mg8 O6 2.075433 1_555
Mg8 O7 2.133316 1_555
Mg8 O9 2.174091 1_555
Mg8 O1 2.258017 1_555
Mg8 O1 2.258017 1_655
Mg9 O8 2.049437 1_555
Mg9 O5 2.079194 1_555
Mg9 O6 2.079194 1_555
Mg9 O10 2.085784 1_555
Mg9 O2 2.254684 1_655
Mg9 O2 2.254684 1_555
Mg10 O0 1.947913 1_555
Mg10 O13 2.151321 1_555
Mg10 O3 2.257888 1_555
Mg10 O3 2.257888 1_455
Mg10 O11 2.415978 1_556
Mg11 O0 1.947913 1_555
Mg11 O14 2.151321 1_555
Mg11 O4 2.257888 1_555
Mg11 O4 2.257888 1_455
Mg11 O12 2.415978 1_556
Mg12 O1 2.024859 1_565
Mg12 O13 2.059076 1_555
Mg12 O2 2.141588 1_555
Mg12 O5 2.253444 1_455
Mg12 O5 2.253444 1_555
Mg12 O11 2.265085 1_555
Mg13 O1 2.024859 1_555
Mg13 O14 2.059076 1_555
Mg13 O2 2.141588 1_555
Mg13 O6 2.253444 1_555
Mg13 O6 2.253444 1_455
Mg13 O12 2.265085 1_555
B0 O11 1.460904 1_555
B0 O12 1.460904 1_555
B0 O2 1.494433 1_555
