# generated using pymatgen
data_Ba4CaCu6(HgO8)2
_symmetry_space_group_name_H-M   'P 1'
_cell_length_a   3.71410000
_cell_length_b   7.43637600
_cell_length_c   16.86498500
_cell_angle_alpha   90.00000000
_cell_angle_beta   90.00000000
_cell_angle_gamma   90.00000000
_symmetry_Int_Tables_number   1
_chemical_formula_structural   Ba4CaCu6(HgO8)2
_chemical_formula_sum   'Ba4 Ca1 Cu6 Hg2 O16'
_cell_volume   465.80151048
_cell_formula_units_Z   1
loop_
 _symmetry_equiv_pos_site_id
 _symmetry_equiv_pos_as_xyz
  1  'x, y, z'
loop_
 _atom_site_type_symbol
 _atom_site_label
 _atom_site_symmetry_multiplicity
 _atom_site_fract_x
 _atom_site_fract_y
 _atom_site_fract_z
 _atom_site_occupancy
  Ba  Ba0  1  0.50000000  0.00000000  0.81738100  1
  Ba  Ba1  1  0.50000000  0.50000000  0.81719300  1
  Ba  Ba2  1  0.50000000  0.00000000  0.18207800  1
  Ba  Ba3  1  0.50000000  0.50000000  0.18199700  1
  Ca  Ca0  1  0.50000000  0.00000000  0.40242900  1
  Cu  Cu0  1  0.00000000  0.75010500  0.67951800  1
  Cu  Cu1  1  0.00000000  0.24989500  0.67951800  1
  Cu  Cu2  1  0.00000000  0.73671600  0.31588800  1
  Cu  Cu3  1  0.00000000  0.26328400  0.31588800  1
  Cu  Cu4  1  0.00000000  0.74528500  0.51069700  1
  Cu  Cu5  1  0.00000000  0.25471500  0.51069700  1
  Hg  Hg0  1  0.00000000  0.75011100  0.00051700  1
  Hg  Hg1  1  0.00000000  0.24988900  0.00051700  1
  O  O0  1  0.50000000  0.75903000  0.49476000  1
  O  O1  1  0.50000000  0.24097000  0.49476000  1
  O  O2  1  0.00000000  0.00000000  0.48785800  1
  O  O3  1  0.00000000  0.50000000  0.49884800  1
  O  O4  1  0.00000000  0.74959000  0.88187000  1
  O  O5  1  0.00000000  0.25041000  0.88187000  1
  O  O6  1  0.00000000  0.75266000  0.11930400  1
  O  O7  1  0.00000000  0.24734000  0.11930400  1
  O  O8  1  0.50000000  0.76590000  0.30054300  1
  O  O9  1  0.50000000  0.23410000  0.30054300  1
  O  O10  1  0.50000000  0.75015700  0.70332000  1
  O  O11  1  0.50000000  0.24984300  0.70332000  1
  O  O12  1  0.00000000  0.00000000  0.30703300  1
  O  O13  1  0.00000000  0.50000000  0.28847100  1
  O  O14  1  0.00000000  0.00000000  0.70275800  1
  O  O15  1  0.00000000  0.50000000  0.70254400  1
loop_
_geom_bond_atom_site_label_1
_geom_bond_atom_site_label_2
_geom_bond_distance
_geom_bond_site_symmetry_2
Ba0 O11 2.674373 1_555
Ba0 O10 2.674373 1_545
Ba0 O14 2.680591 1_655
Ba0 O14 2.680591 1_555
Ba0 O5 2.845891 1_555
Ba0 O4 2.845891 1_545
Ba0 O5 2.845891 1_655
Ba0 O4 2.845891 1_645
Ba1 O10 2.673717 1_555
Ba1 O11 2.673717 1_555
Ba1 O15 2.680907 1_555
Ba1 O15 2.680907 1_655
Ba1 O5 2.843120 1_655
Ba1 O5 2.843120 1_555
Ba1 O4 2.843120 1_655
Ba1 O4 2.843120 1_555
Ba2 O8 2.649948 1_545
Ba2 O9 2.649948 1_555
Ba2 O12 2.808846 1_655
Ba2 O12 2.808846 1_555
Ba2 O7 2.820021 1_555
Ba2 O6 2.820021 1_545
Ba2 O7 2.820021 1_655
Ba2 O6 2.820021 1_645
Ba3 O13 2.583236 1_655
Ba3 O13 2.583236 1_555
Ba3 O8 2.811930 1_555
Ba3 O9 2.811930 1_555
Ba3 O6 2.845474 1_655
Ba3 O6 2.845474 1_555
Ba3 O7 2.845474 1_555
Ba3 O7 2.845474 1_655
Ca0 O2 2.350409 1_555
Ca0 O2 2.350409 1_655
Ca0 O1 2.373986 1_555
Ca0 O0 2.373986 1_545
Ca0 O8 2.446049 1_545
Ca0 O9 2.446049 1_555
Ca0 O12 2.457039 1_655
Ca0 O12 2.457039 1_555
Cu0 O14 1.899196 1_565
Cu0 O10 1.899940 1_455
Cu0 O10 1.899940 1_555
Cu0 O15 1.899983 1_555
Cu1 O14 1.899196 1_555
Cu1 O11 1.899940 1_555
Cu1 O11 1.899940 1_455
Cu1 O15 1.899983 1_555
Cu2 O13 1.820025 1_555
Cu2 O8 1.887514 1_455
Cu2 O8 1.887514 1_555
Cu2 O12 1.963566 1_565
Cu3 O13 1.820025 1_555
Cu3 O9 1.887514 1_555
Cu3 O9 1.887514 1_455
Cu3 O12 1.963566 1_555
Cu4 O3 1.834945 1_555
Cu4 O0 1.879182 1_555
Cu4 O0 1.879182 1_455
Cu4 O2 1.932923 1_565
Cu5 O3 1.834945 1_555
Cu5 O1 1.879182 1_455
Cu5 O1 1.879182 1_555
Cu5 O2 1.932923 1_555
Hg0 O4 2.000984 1_554
Hg0 O6 2.003431 1_555
Hg1 O5 2.000984 1_554
Hg1 O7 2.003431 1_555
