# generated using pymatgen
data_CeMg2
_symmetry_space_group_name_H-M   'P 1'
_cell_length_a   11.85078141
_cell_length_b   11.85078141
_cell_length_c   16.56851149
_cell_angle_alpha   76.31585541
_cell_angle_beta   76.31585541
_cell_angle_gamma   32.11451832
_symmetry_Int_Tables_number   1
_chemical_formula_structural   CeMg2
_chemical_formula_sum   'Ce16 Mg32'
_cell_volume   1198.94203674
_cell_formula_units_Z   16
loop_
 _symmetry_equiv_pos_site_id
 _symmetry_equiv_pos_as_xyz
  1  'x, y, z'
loop_
 _atom_site_type_symbol
 _atom_site_label
 _atom_site_symmetry_multiplicity
 _atom_site_fract_x
 _atom_site_fract_y
 _atom_site_fract_z
 _atom_site_occupancy
  Ce  Ce0_0  1  0.32846352  0.32846352  0.23493536  1
  Ce  Ce0_1  1  0.32846352  0.32846352  0.73493536  1
  Ce  Ce0_2  1  0.32846352  0.82846352  0.23493536  1
  Ce  Ce0_3  1  0.32846352  0.82846352  0.73493536  1
  Ce  Ce0_4  1  0.82846352  0.32846351  0.23493536  1
  Ce  Ce0_5  1  0.82846352  0.32846352  0.73493536  1
  Ce  Ce0_6  1  0.82846352  0.82846352  0.23493536  1
  Ce  Ce0_7  1  0.82846352  0.82846352  0.73493536  1
  Ce  Ce1_0  1  0.17153649  0.17153649  0.26506464  1
  Ce  Ce1_1  1  0.17153649  0.17153649  0.76506464  1
  Ce  Ce1_2  1  0.17153649  0.67153649  0.26506464  1
  Ce  Ce1_3  1  0.17153649  0.67153649  0.76506464  1
  Ce  Ce1_4  1  0.67153648  0.17153648  0.26506464  1
  Ce  Ce1_5  1  0.67153648  0.17153648  0.76506464  1
  Ce  Ce1_6  1  0.67153649  0.67153648  0.26506464  1
  Ce  Ce1_7  1  0.67153649  0.67153649  0.76506464  1
  Mg  Mg0_0  1  0.15646035  0.15646035  0.05956836  1
  Mg  Mg0_1  1  0.15646035  0.15646035  0.55956836  1
  Mg  Mg0_2  1  0.15646035  0.65646035  0.05956836  1
  Mg  Mg0_3  1  0.15646035  0.65646035  0.55956836  1
  Mg  Mg0_4  1  0.65646035  0.15646035  0.05956836  1
  Mg  Mg0_5  1  0.65646034  0.15646034  0.55956836  1
  Mg  Mg0_6  1  0.65646035  0.65646035  0.05956836  1
  Mg  Mg0_7  1  0.65646035  0.65646035  0.55956836  1
  Mg  Mg1_0  1  0.01328944  0.01328944  0.09358811  1
  Mg  Mg1_1  1  0.01328944  0.01328944  0.59358811  1
  Mg  Mg1_2  1  0.01328944  0.51328944  0.09358811  1
  Mg  Mg1_3  1  0.01328944  0.51328944  0.59358811  1
  Mg  Mg1_4  1  0.51328944  0.01328944  0.09358811  1
  Mg  Mg1_5  1  0.51328944  0.01328944  0.59358811  1
  Mg  Mg1_6  1  0.51328944  0.51328944  0.09358811  1
  Mg  Mg1_7  1  0.51328944  0.51328944  0.59358811  1
  Mg  Mg2_0  1  0.48671056  0.48671056  0.40641190  1
  Mg  Mg2_1  1  0.48671056  0.48671056  0.90641190  1
  Mg  Mg2_2  1  0.48671056  0.98671056  0.40641190  1
  Mg  Mg2_3  1  0.48671056  0.98671056  0.90641190  1
  Mg  Mg2_4  1  0.98671056  0.48671056  0.40641190  1
  Mg  Mg2_5  1  0.98671056  0.48671056  0.90641190  1
  Mg  Mg2_6  1  0.98671056  0.98671056  0.40641190  1
  Mg  Mg2_7  1  0.98671056  0.98671056  0.90641190  1
  Mg  Mg3_0  1  0.34353966  0.34353966  0.44043164  1
  Mg  Mg3_1  1  0.34353966  0.34353966  0.94043164  1
  Mg  Mg3_2  1  0.34353966  0.84353966  0.44043164  1
  Mg  Mg3_3  1  0.34353966  0.84353966  0.94043164  1
  Mg  Mg3_4  1  0.84353966  0.34353966  0.44043164  1
  Mg  Mg3_5  1  0.84353965  0.34353966  0.94043164  1
  Mg  Mg3_6  1  0.84353966  0.84353966  0.44043164  1
  Mg  Mg3_7  1  0.84353966  0.84353966  0.94043164  1
loop_
_geom_bond_atom_site_label_1
_geom_bond_atom_site_label_2
_geom_bond_distance
_geom_bond_site_symmetry_2
Ce0_0 Ce1_4 2.819646 1_555
Ce0_0 Ce1_2 2.819646 1_555
Ce0_0 Ce0_6 3.277901 1_545
Ce0_0 Ce0_6 3.277901 1_455
Ce0_0 Mg0_4 3.426825 1_555
Ce0_0 Mg0_2 3.426825 1_555
Ce0_0 Mg1_2 3.476489 1_555
Ce0_0 Mg1_4 3.476489 1_555
Ce0_0 Ce1_0 3.485165 1_555
Ce0_0 Mg2_4 3.493167 1_455
Ce0_0 Mg2_2 3.493167 1_545
Ce0_0 Mg3_0 3.505137 1_555
Ce0_1 Ce1_5 2.819646 1_555
Ce0_1 Ce1_3 2.819646 1_555
Ce0_1 Ce0_7 3.277901 1_545
Ce0_1 Ce0_7 3.277901 1_455
Ce0_1 Mg0_5 3.426825 1_555
Ce0_1 Mg0_3 3.426825 1_555
Ce0_1 Mg1_3 3.476489 1_555
Ce0_1 Mg1_5 3.476489 1_555
Ce0_1 Ce1_1 3.485165 1_555
Ce0_1 Mg2_3 3.493167 1_545
Ce0_1 Mg2_5 3.493167 1_455
Ce0_1 Mg3_1 3.505137 1_555
Ce0_2 Ce1_6 2.819646 1_555
Ce0_2 Ce1_0 2.819646 1_565
Ce0_2 Ce0_4 3.277901 1_465
Ce0_2 Ce0_4 3.277901 1_555
Ce0_2 Mg0_0 3.426825 1_565
Ce0_2 Mg0_6 3.426825 1_555
Ce0_2 Mg1_0 3.476489 1_565
Ce0_2 Mg1_6 3.476489 1_555
Ce0_2 Ce1_2 3.485165 1_555
Ce0_2 Mg2_6 3.493167 1_455
Ce0_2 Mg2_0 3.493167 1_555
Ce0_2 Mg3_2 3.505137 1_555
Ce0_3 Ce1_1 2.819646 1_565
Ce0_3 Ce1_7 2.819646 1_555
Ce0_3 Ce0_5 3.277901 1_555
Ce0_3 Ce0_5 3.277901 1_465
Ce0_3 Mg0_7 3.426825 1_555
Ce0_3 Mg0_1 3.426825 1_565
Ce0_3 Mg1_7 3.476489 1_555
Ce0_3 Mg1_1 3.476489 1_565
Ce0_3 Ce1_3 3.485165 1_555
Ce0_3 Mg2_7 3.493167 1_455
Ce0_3 Mg2_1 3.493167 1_555
Ce0_3 Mg3_3 3.505137 1_555
Ce0_4 Ce1_6 2.819646 1_555
Ce0_4 Ce1_0 2.819646 1_655
Ce0_4 Mg0_0 3.426825 1_655
Ce0_4 Mg0_6 3.426825 1_555
Ce0_4 Mg1_0 3.476489 1_655
Ce0_4 Mg1_6 3.476489 1_555
Ce0_4 Ce1_4 3.485165 1_555
Ce0_4 Mg2_6 3.493167 1_545
Ce0_4 Mg2_0 3.493167 1_555
Ce0_4 Mg3_4 3.505137 1_555
Ce0_5 Ce1_1 2.819646 1_655
Ce0_5 Ce1_7 2.819646 1_555
Ce0_5 Mg0_7 3.426825 1_555
Ce0_5 Mg0_1 3.426825 1_655
Ce0_5 Mg1_7 3.476489 1_555
Ce0_5 Mg1_1 3.476489 1_655
Ce0_5 Ce1_5 3.485165 1_555
Ce0_5 Mg2_1 3.493167 1_555
Ce0_5 Mg2_7 3.493167 1_545
Ce0_5 Mg3_5 3.505137 1_555
Ce0_6 Ce1_4 2.819646 1_565
Ce0_6 Ce1_2 2.819646 1_655
Ce0_6 Mg0_4 3.426825 1_565
Ce0_6 Mg0_2 3.426825 1_655
Ce0_6 Mg1_2 3.476489 1_655
Ce0_6 Mg1_4 3.476489 1_565
Ce0_6 Ce1_6 3.485165 1_555
Ce0_6 Mg2_2 3.493167 1_555
Ce0_6 Mg2_4 3.493167 1_555
Ce0_6 Mg3_6 3.505137 1_555
Ce0_7 Ce1_5 2.819646 1_565
Ce0_7 Ce1_3 2.819646 1_655
Ce0_7 Mg0_5 3.426825 1_565
Ce0_7 Mg0_3 3.426825 1_655
Ce0_7 Mg1_3 3.476489 1_655
Ce0_7 Mg1_5 3.476489 1_565
Ce0_7 Ce1_7 3.485165 1_555
Ce0_7 Mg2_3 3.493167 1_555
Ce0_7 Mg2_5 3.493167 1_555
Ce0_7 Mg3_7 3.505137 1_555
Ce1_0 Ce1_6 3.277901 1_455
Ce1_0 Ce1_6 3.277901 1_545
Ce1_0 Mg3_4 3.426825 1_455
Ce1_0 Mg3_2 3.426825 1_545
Ce1_0 Mg2_4 3.476489 1_455
Ce1_0 Mg2_2 3.476489 1_545
Ce1_0 Mg1_4 3.493167 1_555
Ce1_0 Mg1_2 3.493167 1_555
Ce1_0 Mg0_0 3.505137 1_555
Ce1_1 Ce1_7 3.277901 1_455
Ce1_1 Ce1_7 3.277901 1_545
Ce1_1 Mg3_3 3.426825 1_545
Ce1_1 Mg3_5 3.426825 1_455
Ce1_1 Mg2_5 3.476489 1_455
Ce1_1 Mg2_3 3.476489 1_545
Ce1_1 Mg1_5 3.493167 1_555
Ce1_1 Mg1_3 3.493167 1_555
Ce1_1 Mg0_1 3.505137 1_555
Ce1_2 Ce1_4 3.277901 1_555
Ce1_2 Ce1_4 3.277901 1_465
Ce1_2 Mg3_6 3.426825 1_455
Ce1_2 Mg3_0 3.426825 1_555
Ce1_2 Mg2_0 3.476489 1_555
Ce1_2 Mg2_6 3.476489 1_455
Ce1_2 Mg1_6 3.493167 1_555
Ce1_2 Mg1_0 3.493167 1_565
Ce1_2 Mg0_2 3.505137 1_555
Ce1_3 Ce1_5 3.277901 1_465
Ce1_3 Ce1_5 3.277901 1_555
Ce1_3 Mg3_7 3.426825 1_455
Ce1_3 Mg3_1 3.426825 1_555
Ce1_3 Mg2_7 3.476489 1_455
Ce1_3 Mg2_1 3.476489 1_555
Ce1_3 Mg1_7 3.493167 1_555
Ce1_3 Mg1_1 3.493167 1_565
Ce1_3 Mg0_3 3.505137 1_555
Ce1_4 Mg3_6 3.426825 1_545
Ce1_4 Mg3_0 3.426825 1_555
Ce1_4 Mg2_0 3.476489 1_555
Ce1_4 Mg2_6 3.476489 1_545
Ce1_4 Mg1_6 3.493167 1_555
Ce1_4 Mg1_0 3.493167 1_655
Ce1_4 Mg0_4 3.505137 1_555
Ce1_5 Mg3_7 3.426825 1_545
Ce1_5 Mg3_1 3.426825 1_555
Ce1_5 Mg2_1 3.476489 1_555
Ce1_5 Mg2_7 3.476489 1_545
Ce1_5 Mg1_7 3.493167 1_555
Ce1_5 Mg1_1 3.493167 1_655
Ce1_5 Mg0_5 3.505137 1_555
Ce1_6 Mg3_4 3.426825 1_555
Ce1_6 Mg3_2 3.426825 1_555
Ce1_6 Mg2_4 3.476489 1_555
Ce1_6 Mg2_2 3.476489 1_555
Ce1_6 Mg1_4 3.493167 1_565
Ce1_6 Mg1_2 3.493167 1_655
Ce1_6 Mg0_6 3.505137 1_555
Ce1_7 Mg3_3 3.426825 1_555
Ce1_7 Mg3_5 3.426825 1_555
Ce1_7 Mg2_5 3.476489 1_555
Ce1_7 Mg2_3 3.476489 1_555
Ce1_7 Mg1_5 3.493167 1_565
Ce1_7 Mg1_3 3.493167 1_655
Ce1_7 Mg0_7 3.505137 1_555
Mg0_0 Mg1_4 3.098345 1_555
Mg0_0 Mg1_2 3.098345 1_555
Mg0_0 Mg3_3 3.166889 1_544
Mg0_0 Mg3_5 3.166889 1_454
Mg0_0 Mg1_0 3.169662 1_555
Mg0_0 Mg2_5 3.191053 1_454
Mg0_0 Mg2_3 3.191053 1_544
Mg0_0 Mg0_6 3.277901 1_545
Mg0_0 Mg0_6 3.277901 1_455
Mg0_1 Mg1_5 3.098345 1_555
Mg0_1 Mg1_3 3.098345 1_555
Mg0_1 Mg3_4 3.166889 1_455
Mg0_1 Mg3_2 3.166889 1_545
Mg0_1 Mg1_1 3.169662 1_555
Mg0_1 Mg2_4 3.191053 1_455
Mg0_1 Mg2_2 3.191053 1_545
Mg0_1 Mg0_7 3.277901 1_545
Mg0_1 Mg0_7 3.277901 1_455
Mg0_2 Mg1_6 3.098345 1_555
Mg0_2 Mg1_0 3.098345 1_565
Mg0_2 Mg3_7 3.166889 1_454
Mg0_2 Mg3_1 3.166889 1_554
Mg0_2 Mg1_2 3.169662 1_555
Mg0_2 Mg2_1 3.191053 1_554
Mg0_2 Mg2_7 3.191053 1_454
Mg0_2 Mg0_4 3.277901 1_465
Mg0_2 Mg0_4 3.277901 1_555
Mg0_3 Mg1_1 3.098345 1_565
Mg0_3 Mg1_7 3.098345 1_555
Mg0_3 Mg3_6 3.166889 1_455
Mg0_3 Mg3_0 3.166889 1_555
Mg0_3 Mg1_3 3.169662 1_555
Mg0_3 Mg2_0 3.191053 1_555
Mg0_3 Mg2_6 3.191053 1_455
Mg0_3 Mg0_5 3.277901 1_555
Mg0_3 Mg0_5 3.277901 1_465
Mg0_4 Mg1_6 3.098345 1_555
Mg0_4 Mg1_0 3.098345 1_655
Mg0_4 Mg3_7 3.166889 1_544
Mg0_4 Mg3_1 3.166889 1_554
Mg0_4 Mg1_4 3.169662 1_555
Mg0_4 Mg2_7 3.191053 1_544
Mg0_4 Mg2_1 3.191053 1_554
Mg0_5 Mg1_1 3.098345 1_655
Mg0_5 Mg1_7 3.098345 1_555
Mg0_5 Mg3_6 3.166889 1_545
Mg0_5 Mg3_0 3.166889 1_555
Mg0_5 Mg1_5 3.169662 1_555
Mg0_5 Mg2_0 3.191053 1_555
Mg0_5 Mg2_6 3.191053 1_545
Mg0_6 Mg1_4 3.098345 1_565
Mg0_6 Mg1_2 3.098345 1_655
Mg0_6 Mg3_3 3.166889 1_554
Mg0_6 Mg3_5 3.166889 1_554
Mg0_6 Mg1_6 3.169662 1_555
Mg0_6 Mg2_5 3.191053 1_554
Mg0_6 Mg2_3 3.191053 1_554
Mg0_7 Mg1_5 3.098345 1_565
Mg0_7 Mg1_3 3.098345 1_655
Mg0_7 Mg3_2 3.166889 1_555
Mg0_7 Mg3_4 3.166889 1_555
Mg0_7 Mg1_7 3.169662 1_555
Mg0_7 Mg2_4 3.191053 1_555
Mg0_7 Mg2_2 3.191053 1_555
Mg1_0 Mg3_5 3.191053 1_454
Mg1_0 Mg3_3 3.191053 1_544
Mg1_0 Mg1_6 3.277901 1_455
Mg1_0 Mg1_6 3.277901 1_545
Mg1_0 Mg2_7 3.302798 1_444
Mg1_1 Mg3_4 3.191053 1_455
Mg1_1 Mg3_2 3.191053 1_545
Mg1_1 Mg1_7 3.277901 1_545
Mg1_1 Mg1_7 3.277901 1_455
Mg1_1 Mg2_6 3.302798 1_445
Mg1_2 Mg3_1 3.191053 1_554
Mg1_2 Mg3_7 3.191053 1_454
Mg1_2 Mg1_4 3.277901 1_555
Mg1_2 Mg1_4 3.277901 1_465
Mg1_2 Mg2_5 3.302798 1_454
Mg1_3 Mg3_0 3.191053 1_555
Mg1_3 Mg3_6 3.191053 1_455
Mg1_3 Mg1_5 3.277901 1_465
Mg1_3 Mg1_5 3.277901 1_555
Mg1_3 Mg2_4 3.302798 1_455
Mg1_4 Mg3_1 3.191053 1_554
Mg1_4 Mg3_7 3.191053 1_544
Mg1_4 Mg2_3 3.302798 1_544
Mg1_5 Mg3_0 3.191053 1_555
Mg1_5 Mg3_6 3.191053 1_545
Mg1_5 Mg2_2 3.302798 1_545
Mg1_6 Mg3_5 3.191053 1_554
Mg1_6 Mg3_3 3.191053 1_554
Mg1_6 Mg2_1 3.302798 1_554
Mg1_7 Mg3_4 3.191053 1_555
Mg1_7 Mg3_2 3.191053 1_555
Mg1_7 Mg2_0 3.302798 1_555
Mg2_0 Mg3_4 3.098345 1_555
Mg2_0 Mg3_2 3.098345 1_555
Mg2_0 Mg3_0 3.169662 1_555
Mg2_0 Mg2_6 3.277901 1_545
Mg2_0 Mg2_6 3.277901 1_455
Mg2_1 Mg3_5 3.098345 1_555
Mg2_1 Mg3_3 3.098345 1_555
Mg2_1 Mg3_1 3.169662 1_555
Mg2_1 Mg2_7 3.277901 1_455
Mg2_1 Mg2_7 3.277901 1_545
Mg2_2 Mg3_0 3.098345 1_565
Mg2_2 Mg3_6 3.098345 1_555
Mg2_2 Mg3_2 3.169662 1_555
Mg2_2 Mg2_4 3.277901 1_465
Mg2_2 Mg2_4 3.277901 1_555
Mg2_3 Mg3_1 3.098345 1_565
Mg2_3 Mg3_7 3.098345 1_555
Mg2_3 Mg3_3 3.169662 1_555
Mg2_3 Mg2_5 3.277901 1_465
Mg2_3 Mg2_5 3.277901 1_555
Mg2_4 Mg3_0 3.098345 1_655
Mg2_4 Mg3_6 3.098345 1_555
Mg2_4 Mg3_4 3.169662 1_555
Mg2_5 Mg3_1 3.098345 1_655
Mg2_5 Mg3_7 3.098345 1_555
Mg2_5 Mg3_5 3.169662 1_555
Mg2_6 Mg3_2 3.098345 1_655
Mg2_6 Mg3_4 3.098345 1_565
Mg2_6 Mg3_6 3.169662 1_555
Mg2_7 Mg3_5 3.098345 1_565
Mg2_7 Mg3_3 3.098345 1_655
Mg2_7 Mg3_7 3.169662 1_555
Mg3_0 Mg3_6 3.277901 1_455
Mg3_0 Mg3_6 3.277901 1_545
Mg3_1 Mg3_7 3.277901 1_455
Mg3_1 Mg3_7 3.277901 1_545
Mg3_2 Mg3_4 3.277901 1_555
Mg3_2 Mg3_4 3.277901 1_465
Mg3_3 Mg3_5 3.277901 1_555
Mg3_3 Mg3_5 3.277901 1_465
