# generated using pymatgen
data_LaMn2Ni3
_symmetry_space_group_name_H-M   'P 1'
_cell_length_a   5.19425184
_cell_length_b   5.19425184
_cell_length_c   3.99697300
_cell_angle_alpha   90.00000000
_cell_angle_beta   90.00000000
_cell_angle_gamma   119.99999795
_symmetry_Int_Tables_number   1
_chemical_formula_structural   LaMn2Ni3
_chemical_formula_sum   'La1 Mn2 Ni3'
_cell_volume   93.39160942
_cell_formula_units_Z   1
loop_
 _symmetry_equiv_pos_site_id
 _symmetry_equiv_pos_as_xyz
  1  'x, y, z'
loop_
 _atom_site_type_symbol
 _atom_site_label
 _atom_site_symmetry_multiplicity
 _atom_site_fract_x
 _atom_site_fract_y
 _atom_site_fract_z
 _atom_site_occupancy
  La  La0  1  0.00000000  0.00000000  0.00000000  1
  Mn  Mn0  1  0.33333300  0.66666700  0.00000000  1
  Mn  Mn1  1  0.66666700  0.33333300  0.00000000  1
  Ni  Ni0  1  0.50000000  0.00000000  0.50000000  1
  Ni  Ni1  1  0.00000000  0.50000000  0.50000000  1
  Ni  Ni2  1  0.50000000  0.50000000  0.50000000  1
loop_
_geom_bond_atom_site_label_1
_geom_bond_atom_site_label_2
_geom_bond_distance
_geom_bond_site_symmetry_2
La0 Mn0 2.998900 1_545
La0 Mn1 2.998900 1_455
La0 Mn0 2.998904 1_555
La0 Mn0 2.998904 1_445
La0 Mn1 2.998904 1_555
La0 Mn1 2.998904 1_445
La0 Ni0 3.277043 1_555
La0 Ni1 3.277043 1_555
La0 Ni1 3.277043 1_544
La0 Ni1 3.277043 1_554
La0 Ni0 3.277043 1_554
La0 Ni1 3.277043 1_545
La0 Ni0 3.277043 1_454
La0 Ni0 3.277043 1_455
La0 Ni2 3.277043 1_444
La0 Ni2 3.277043 1_445
La0 Ni2 3.277043 1_555
La0 Ni2 3.277043 1_554
Mn0 Ni1 2.498459 1_554
Mn0 Ni0 2.498459 1_565
Mn0 Ni0 2.498459 1_564
Mn0 Ni1 2.498459 1_555
Mn0 Ni2 2.498462 1_554
Mn0 Ni2 2.498462 1_555
Mn0 Mn1 2.998900 1_455
Mn0 Mn1 2.998900 1_565
Mn0 Mn1 2.998909 1_555
Mn1 Ni1 2.498459 1_655
Mn1 Ni1 2.498459 1_654
Mn1 Ni0 2.498459 1_555
Mn1 Ni0 2.498459 1_554
Mn1 Ni2 2.498462 1_554
Mn1 Ni2 2.498462 1_555
Ni0 Ni2 2.597126 1_545
Ni0 Ni2 2.597126 1_555
Ni0 Ni1 2.597126 1_545
Ni0 Ni1 2.597126 1_655
Ni1 Ni2 2.597126 1_455
Ni1 Ni2 2.597126 1_555
