# generated using pymatgen
data_Ta2AgS4
_symmetry_space_group_name_H-M   'P 1'
_cell_length_a   3.38093560
_cell_length_b   3.38093560
_cell_length_c   14.00884000
_cell_angle_alpha   90.00000000
_cell_angle_beta   90.00000000
_cell_angle_gamma   119.99999213
_symmetry_Int_Tables_number   1
_chemical_formula_structural   Ta2AgS4
_chemical_formula_sum   'Ta2 Ag1 S4'
_cell_volume   138.67770232
_cell_formula_units_Z   1
loop_
 _symmetry_equiv_pos_site_id
 _symmetry_equiv_pos_as_xyz
  1  'x, y, z'
loop_
 _atom_site_type_symbol
 _atom_site_label
 _atom_site_symmetry_multiplicity
 _atom_site_fract_x
 _atom_site_fract_y
 _atom_site_fract_z
 _atom_site_occupancy
  Ta  Ta0  1  0.00000000  0.00000000  0.24274000  1
  Ta  Ta1  1  0.00000000  0.00000000  0.75726000  1
  Ag  Ag0  1  0.00000000  0.00000000  0.50000000  1
  S  S0  1  0.66666700  0.33333300  0.35527200  1
  S  S1  1  0.33333300  0.66666700  0.64472800  1
  S  S2  1  0.33333300  0.66666700  0.86520800  1
  S  S3  1  0.66666700  0.33333300  0.13479200  1
loop_
_geom_bond_atom_site_label_1
_geom_bond_atom_site_label_2
_geom_bond_distance
_geom_bond_site_symmetry_2
Ag0 S1 2.814405 1_545
Ag0 S0 2.814405 1_455
Ag0 S1 2.814407 1_555
Ag0 S1 2.814407 1_445
Ag0 S0 2.814407 1_555
Ag0 S0 2.814407 1_445
S0 Ta0 2.509065 1_655
S0 Ta0 2.509067 1_665
S0 Ta0 2.509067 1_555
S1 Ta1 2.509065 1_565
S1 Ta1 2.509067 1_665
S1 Ta1 2.509067 1_555
S2 Ta1 2.469223 1_565
S2 Ta1 2.469225 1_555
S2 Ta1 2.469225 1_665
S3 Ta0 2.469223 1_655
S3 Ta0 2.469225 1_555
S3 Ta0 2.469225 1_665
