# generated using pymatgen
data_Te2Mo3W(Se2S)2
_symmetry_space_group_name_H-M   'P 1'
_cell_length_a   3.34250814
_cell_length_b   3.34250814
_cell_length_c   39.92948600
_cell_angle_alpha   90.00000000
_cell_angle_beta   90.00000000
_cell_angle_gamma   120.00000274
_symmetry_Int_Tables_number   1
_chemical_formula_structural   Te2Mo3W(Se2S)2
_chemical_formula_sum   'Te2 Mo3 W1 Se4 S2'
_cell_volume   386.33965362
_cell_formula_units_Z   1
loop_
 _symmetry_equiv_pos_site_id
 _symmetry_equiv_pos_as_xyz
  1  'x, y, z'
loop_
 _atom_site_type_symbol
 _atom_site_label
 _atom_site_symmetry_multiplicity
 _atom_site_fract_x
 _atom_site_fract_y
 _atom_site_fract_z
 _atom_site_occupancy
  Te  Te0  1  0.33333300  0.66666700  0.42202100  1
  Te  Te1  1  0.33333300  0.66666700  0.51701600  1
  Mo  Mo0  1  0.00000000  0.00000000  0.09394900  1
  Mo  Mo1  1  0.00000000  0.00000000  0.46950800  1
  Mo  Mo2  1  0.33333300  0.66666700  0.28088900  1
  W  W0  1  0.33333300  0.66666700  0.65859000  1
  Se  Se0  1  0.00000000  0.00000000  0.32262200  1
  Se  Se1  1  0.00000000  0.00000000  0.70052500  1
  Se  Se2  1  0.00000000  0.00000000  0.23906100  1
  Se  Se3  1  0.00000000  0.00000000  0.61670100  1
  S  S0  1  0.33333300  0.66666700  0.05596400  1
  S  S1  1  0.33333300  0.66666700  0.13190300  1
loop_
_geom_bond_atom_site_label_1
_geom_bond_atom_site_label_2
_geom_bond_distance
_geom_bond_site_symmetry_2
Mo0 S1 2.453733 1_545
Mo0 S1 2.453735 1_555
Mo0 S1 2.453735 1_445
Mo0 S0 2.454497 1_545
Mo0 S0 2.454500 1_555
Mo0 S0 2.454500 1_445
Mo1 Te0 2.705444 1_545
Mo1 Te0 2.705446 1_555
Mo1 Te0 2.705446 1_445
Mo1 Te1 2.706032 1_545
Mo1 Te1 2.706034 1_555
Mo1 Te1 2.706034 1_445
Mo2 Se0 2.549691 1_565
Mo2 Se0 2.549693 1_665
Mo2 Se0 2.549693 1_555
Mo2 Se2 2.552172 1_565
Mo2 Se2 2.552174 1_555
Mo2 Se2 2.552174 1_665
Se1 W0 2.554970 1_545
Se1 W0 2.554972 1_555
Se1 W0 2.554972 1_445
Se3 W0 2.553767 1_545
Se3 W0 2.553769 1_445
Se3 W0 2.553769 1_555
