# generated using pymatgen
data_CsPbBr3
_symmetry_space_group_name_H-M   'P 1'
_cell_length_a   8.19814187
_cell_length_b   8.19814187
_cell_length_c   8.37386178
_cell_angle_alpha   119.30823798
_cell_angle_beta   119.30823798
_cell_angle_gamma   90.00000000
_symmetry_Int_Tables_number   1
_chemical_formula_structural   CsPbBr3
_chemical_formula_sum   'Cs2 Pb2 Br6'
_cell_volume   406.14133522
_cell_formula_units_Z   2
loop_
 _symmetry_equiv_pos_site_id
 _symmetry_equiv_pos_as_xyz
  1  'x, y, z'
loop_
 _atom_site_type_symbol
 _atom_site_label
 _atom_site_symmetry_multiplicity
 _atom_site_fract_x
 _atom_site_fract_y
 _atom_site_fract_z
 _atom_site_occupancy
  Cs  Cs0  1  0.25000000  0.75000000  0.50000000  1
  Cs  Cs1  1  0.75000000  0.25000000  0.50000000  1
  Pb  Pb0  1  0.00000000  -0.00000000  -0.00000000  1
  Pb  Pb1  1  0.50000000  0.50000000  -0.00000000  1
  Br  Br0  1  0.25000000  0.25000000  0.50000000  1
  Br  Br1  1  0.75000000  0.75000000  0.50000000  1
  Br  Br2  1  0.18451992  0.68451992  0.00000000  1
  Br  Br3  1  0.81548008  0.31548008  -0.00000000  1
  Br  Br4  1  0.31548008  0.18451992  0.00000000  1
  Br  Br5  1  0.68451992  0.81548008  -0.00000000  1
loop_
_geom_bond_atom_site_label_1
_geom_bond_atom_site_label_2
_geom_bond_distance
_geom_bond_site_symmetry_2
Br0 Pb1 3.021456 1_556
Br0 Pb0 3.021456 1_555
Br0 Cs0 4.099071 1_555
Br0 Cs0 4.099071 1_545
Br0 Cs1 4.099071 1_555
Br0 Cs1 4.099071 1_455
Br1 Pb0 3.021456 1_666
Br1 Pb1 3.021456 1_555
Br1 Cs0 4.099071 1_555
Br1 Cs1 4.099071 1_565
Br1 Cs0 4.099071 1_655
Br1 Cs1 4.099071 1_555
Br2 Pb1 2.996253 1_555
Br2 Pb0 2.996253 1_565
Br2 Cs0 3.702141 1_555
Br2 Cs1 3.702141 1_454
Br3 Pb0 2.996253 1_655
Br3 Pb1 2.996253 1_555
Br3 Cs1 3.702141 1_554
Br3 Cs0 3.702141 1_655
Br4 Pb0 2.996253 1_555
Br4 Pb1 2.996253 1_555
Br4 Cs1 3.702141 1_555
Br4 Cs0 3.702141 1_544
Br5 Pb0 2.996253 1_665
Br5 Pb1 2.996253 1_555
Br5 Cs1 3.702141 1_565
Br5 Cs0 3.702141 1_554
