# generated using pymatgen
data_Ba3Cr2O8
_symmetry_space_group_name_H-M   'P 1'
_cell_length_a   5.84787425
_cell_length_b   5.84934565
_cell_length_c   14.82527774
_cell_angle_alpha   78.55629247
_cell_angle_beta   90.11905371
_cell_angle_gamma   120.02599628
_symmetry_Int_Tables_number   1
_chemical_formula_structural   Ba3Cr2O8
_chemical_formula_sum   'Ba6 Cr4 O16'
_cell_volume   427.50010918
_cell_formula_units_Z   2
loop_
 _symmetry_equiv_pos_site_id
 _symmetry_equiv_pos_as_xyz
  1  'x, y, z'
loop_
 _atom_site_type_symbol
 _atom_site_label
 _atom_site_symmetry_multiplicity
 _atom_site_fract_x
 _atom_site_fract_y
 _atom_site_fract_z
 _atom_site_occupancy
  Ba  Ba0  1  0.98636700  0.01082000  0.00004800  1
  Ba  Ba1  1  0.50335700  0.02338500  0.49998800  1
  Ba  Ba2  1  0.60336300  0.20776400  0.19059300  1
  Ba  Ba3  1  0.10248700  0.20610700  0.69056600  1
  Ba  Ba4  1  0.89773700  0.79523100  0.30937100  1
  Ba  Ba5  1  0.39656400  0.79349100  0.80938000  1
  Cr  Cr0  1  0.20357500  0.40864100  0.38947400  1
  Cr  Cr1  1  0.29541000  0.59367400  0.11040200  1
  Cr  Cr2  1  0.70290200  0.40750500  0.88957600  1
  Cr  Cr3  1  0.79657200  0.59399100  0.61042800  1
  O  O0  1  0.67835700  0.31301300  0.00755600  1
  O  O1  1  0.16341800  0.30255500  0.50745300  1
  O  O2  1  0.82938000  0.64283000  0.49254300  1
  O  O3  1  0.35402800  0.65993000  0.99251300  1
  O  O4  1  0.10574900  0.73357400  0.65100300  1
  O  O5  1  0.60320500  0.73013500  0.15247800  1
  O  O6  1  0.62088600  0.24475700  0.65363800  1
  O  O7  1  0.11490400  0.24424900  0.15230200  1
  O  O8  1  0.62673200  0.73303700  0.65029700  1
  O  O9  1  0.11998400  0.72710400  0.15005800  1
  O  O10  1  0.87270800  0.75656000  0.84912100  1
  O  O11  1  0.37490400  0.75778700  0.35036800  1
  O  O12  1  0.39356500  0.27763500  0.84946000  1
  O  O13  1  0.89609800  0.28176400  0.34761800  1
  O  O14  1  0.87870200  0.27718300  0.84661000  1
  O  O15  1  0.37904600  0.27728000  0.34715600  1
loop_
_geom_bond_atom_site_label_1
_geom_bond_atom_site_label_2
_geom_bond_distance
_geom_bond_site_symmetry_2
Ba0 O14 2.750978 1_554
Ba0 O5 2.773105 1_545
Ba0 O7 2.777249 1_655
Ba0 O10 2.825824 1_544
Ba0 O12 2.830260 1_654
Ba0 O9 2.852469 1_645
Ba0 O0 3.105884 1_555
Ba0 O3 3.223775 1_544
Ba0 O3 3.273258 1_654
Ba1 O15 2.757927 1_555
Ba1 O6 2.758841 1_555
Ba1 O13 2.802634 1_555
Ba1 O4 2.804175 1_545
Ba1 O8 2.844015 1_545
Ba1 O11 2.844411 1_545
Ba2 O0 2.647011 1_555
Ba2 O13 2.859878 1_555
Ba2 O15 2.862612 1_555
Ba2 O11 2.888505 1_545
Ba2 O7 2.938794 1_655
Ba2 O5 2.957798 1_545
Ba2 O9 2.968998 1_655
Ba2 O9 2.994330 1_545
Ba2 O5 2.995539 1_555
Ba2 O7 3.013695 1_555
Ba3 O1 2.647633 1_555
Ba3 O14 2.859368 1_455
Ba3 O10 2.875728 1_445
Ba3 O12 2.878064 1_555
Ba3 O4 2.946225 1_545
Ba3 O8 2.949211 1_445
Ba3 O6 2.968654 1_555
Ba3 O6 2.977298 1_455
Ba3 O8 3.012615 1_555
Ba3 O4 3.014423 1_555
Ba4 O2 2.648794 1_555
Ba4 O7 2.860198 1_665
Ba4 O5 2.863606 1_555
Ba4 O9 2.886328 1_655
Ba4 O13 2.939002 1_555
Ba4 O11 2.958979 1_655
Ba4 O15 2.971520 1_555
Ba4 O15 2.977270 1_665
Ba4 O11 3.008350 1_555
Ba4 O13 3.014697 1_565
Ba5 O3 2.647657 1_555
Ba5 O6 2.854519 1_565
Ba5 O4 2.870802 1_555
Ba5 O8 2.884353 1_555
Ba5 O10 2.948133 1_555
Ba5 O12 2.948530 1_555
Ba5 O14 2.964619 1_455
Ba5 O14 2.981405 1_565
Ba5 O10 3.012172 1_455
Ba5 O12 3.015070 1_565
Cr0 O1 1.710161 1_555
Cr0 O11 1.730789 1_555
Cr0 O13 1.735385 1_455
Cr0 O15 1.737811 1_555
Cr1 O3 1.709692 1_554
Cr1 O9 1.730050 1_555
Cr1 O7 1.737063 1_555
Cr1 O5 1.738133 1_555
Cr2 O0 1.709804 1_556
Cr2 O10 1.732625 1_555
Cr2 O12 1.732820 1_555
Cr2 O14 1.738807 1_555
Cr3 O2 1.709159 1_555
Cr3 O8 1.731748 1_555
Cr3 O4 1.735062 1_655
Cr3 O6 1.738380 1_555
