# generated using pymatgen
data_Sm12Sn(GeS7)4
_symmetry_space_group_name_H-M   'P 1'
_cell_length_a   10.10195400
_cell_length_b   11.60787971
_cell_length_c   11.63550532
_cell_angle_alpha   119.86971562
_cell_angle_beta   115.71157730
_cell_angle_gamma   90.02006953
_symmetry_Int_Tables_number   1
_chemical_formula_structural   Sm12Sn(GeS7)4
_chemical_formula_sum   'Sm12 Sn1 Ge4 S28'
_cell_volume   1024.30166885
_cell_formula_units_Z   1
loop_
 _symmetry_equiv_pos_site_id
 _symmetry_equiv_pos_as_xyz
  1  'x, y, z'
loop_
 _atom_site_type_symbol
 _atom_site_label
 _atom_site_symmetry_multiplicity
 _atom_site_fract_x
 _atom_site_fract_y
 _atom_site_fract_z
 _atom_site_occupancy
  Sm  Sm0  1  0.77903600  0.47954500  0.65659000  1
  Sm  Sm1  1  0.76917900  0.98461100  0.62928200  1
  Sm  Sm2  1  0.86300900  0.28406400  0.23072100  1
  Sm  Sm3  1  0.87569800  0.76336600  0.22129000  1
  Sm  Sm4  1  0.36929900  0.23745700  0.13597000  1
  Sm  Sm5  1  0.34409500  0.71416700  0.12429900  1
  Sm  Sm6  1  0.21998700  0.59341900  0.34614200  1
  Sm  Sm7  1  0.23550300  0.08407000  0.36850600  1
  Sm  Sm8  1  0.12839800  0.78082700  0.76181300  1
  Sm  Sm9  1  0.12861900  0.31123700  0.78157600  1
  Sm  Sm10  1  0.63311600  0.83356400  0.86638500  1
  Sm  Sm11  1  0.65239600  0.35746000  0.87431400  1
  Sn  Sn0  1  0.00027400  0.02012100  0.99992200  1
  Ge  Ge0  1  0.66609400  0.62023200  0.33259400  1
  Ge  Ge1  1  0.66726600  0.11959100  0.33459500  1
  Ge  Ge2  1  0.33457300  0.53124800  0.66397100  1
  Ge  Ge3  1  0.33235300  0.03559300  0.67003600  1
  S  S0  1  0.67282400  0.43807300  0.34735000  1
  S  S1  1  0.66062600  0.92324500  0.31992200  1
  S  S2  1  0.33409100  0.34544300  0.66923300  1
  S  S3  1  0.33230500  0.84326900  0.66435300  1
  S  S4  1  0.89858200  0.27109200  0.47953600  1
  S  S5  1  0.89838600  0.77304800  0.48102100  1
  S  S6  1  0.58324600  0.08308900  0.10178100  1
  S  S7  1  0.58096600  0.58268000  0.10138800  1
  S  S8  1  0.51820400  0.24021100  0.41634800  1
  S  S9  1  0.52087200  0.74179700  0.41960100  1
  S  S10  1  0.10512400  0.53409000  0.50882100  1
  S  S11  1  0.09980200  0.04432100  0.52809700  1
  S  S12  1  0.41294500  0.72564100  0.89686800  1
  S  S13  1  0.42088600  0.23242700  0.90028200  1
  S  S14  1  0.47449600  0.56676700  0.57274100  1
  S  S15  1  0.48901500  0.07763600  0.59584300  1
  S  S16  1  0.73577500  0.60538400  0.90413100  1
  S  S17  1  0.75393800  0.08845800  0.90545100  1
  S  S18  1  0.15297600  0.25825900  0.24597300  1
  S  S19  1  0.16806000  0.78672800  0.26542100  1
  S  S20  1  0.09402300  0.56833100  0.83157800  1
  S  S21  1  0.09442700  0.05974400  0.84663200  1
  S  S22  1  0.26190400  0.44856300  0.09695500  1
  S  S23  1  0.25025200  0.94870400  0.08970700  1
  S  S24  1  0.83955900  0.77864100  0.74959400  1
  S  S25  1  0.83484000  0.26911600  0.73786800  1
  S  S26  1  0.90274700  0.48277400  0.16478000  1
  S  S27  1  0.91023600  0.98389000  0.16072000  1
loop_
_geom_bond_atom_site_label_1
_geom_bond_atom_site_label_2
_geom_bond_distance
_geom_bond_site_symmetry_2
Ge0 S0 2.203794 1_555
Ge0 S7 2.234068 1_555
Ge0 S9 2.243985 1_555
Ge0 S5 2.250558 1_555
Ge1 S1 2.197861 1_545
Ge1 S4 2.240718 1_555
Ge1 S8 2.247322 1_555
Ge1 S6 2.258229 1_555
Ge2 S2 2.188002 1_555
Ge2 S14 2.243254 1_555
Ge2 S10 2.249728 1_555
Ge2 S12 2.260190 1_555
Ge3 S3 2.200283 1_545
Ge3 S13 2.240558 1_555
Ge3 S11 2.248787 1_555
Ge3 S15 2.256668 1_555
S0 Sm2 2.928623 1_555
S0 Sm4 2.936030 1_555
S0 Sm0 3.042078 1_555
S1 Sm1 2.947420 1_555
S1 Sm5 3.077751 1_555
S1 Sm3 3.086506 1_555
S2 Sm7 2.973287 1_555
S2 Sm9 3.007554 1_555
S2 Sm11 3.010559 1_555
S3 Sm10 2.972993 1_555
S3 Sm8 2.983083 1_555
S3 Sm6 3.010679 1_555
S4 Sm2 2.839875 1_555
S4 Sm0 2.958540 1_555
S4 Sm9 3.041386 1_655
S5 Sm3 2.873836 1_555
S5 Sm1 2.906327 1_555
S5 Sm8 3.033226 1_655
S6 Sm4 2.842350 1_555
S6 Sm2 2.917286 1_555
S6 Sm10 3.072688 1_544
S7 Sm5 2.877006 1_555
S7 Sm3 2.947369 1_555
S7 Sm11 3.018544 1_554
S8 Sm0 2.888520 1_555
S8 Sm4 2.923130 1_555
S8 Sm7 3.059854 1_555
S9 Sm1 2.832692 1_555
S9 Sm5 2.945471 1_555
S9 Sm6 3.035054 1_555
S10 Sm8 2.815111 1_555
S10 Sm6 2.933800 1_555
S10 Sm2 2.941015 1_455
S11 Sm9 2.921544 1_555
S11 Sm7 2.932911 1_555
S11 Sm3 3.145005 1_445
S12 Sm10 2.786970 1_555
S12 Sm8 2.868275 1_555
S12 Sm5 3.074452 1_556
S13 Sm11 2.952095 1_555
S13 Sm4 2.979265 1_556
S13 Sm9 3.030473 1_555
S14 Sm10 2.922154 1_555
S14 Sm6 2.930662 1_555
S14 Sm0 3.134202 1_555
S15 Sm7 2.807160 1_555
S15 Sm11 2.940444 1_555
S15 Sm1 2.965233 1_545
S16 Sm0 2.742729 1_555
S16 Sm3 2.776812 1_556
S16 Sm11 2.803963 1_555
S16 Sm10 3.008212 1_555
S17 Sn0 2.554700 1_655
S17 Sm1 2.893728 1_545
S17 Sm2 2.917835 1_556
S17 Sm10 2.937204 1_545
S17 Sm11 3.426419 1_555
S18 Sn0 2.549407 1_554
S18 Sm2 2.881690 1_455
S18 Sm4 2.931124 1_555
S18 Sm7 2.942338 1_555
S18 Sm6 3.427775 1_555
S19 Sm3 2.757681 1_455
S19 Sm5 2.779410 1_555
S19 Sm6 2.804462 1_555
S19 Sm7 2.996911 1_565
S20 Sm0 2.760227 1_455
S20 Sm5 2.763387 1_556
S20 Sm9 2.795443 1_555
S20 Sm8 3.016979 1_555
S21 Sn0 2.566364 1_555
S21 Sm4 2.875233 1_556
S21 Sm1 2.922843 1_445
S21 Sm8 2.947206 1_545
S21 Sm9 3.412015 1_555
S22 Sm6 2.760975 1_555
S22 Sm9 2.775738 1_554
S22 Sm4 2.840875 1_555
S22 Sm5 3.014639 1_555
S23 Sn0 2.594348 1_564
S23 Sm7 2.890829 1_565
S23 Sm8 2.895944 1_554
S23 Sm5 3.038878 1_555
S23 Sm4 3.257144 1_565
S24 Sn0 2.595806 1_665
S24 Sm8 2.858503 1_655
S24 Sm10 2.863448 1_555
S24 Sm0 3.046457 1_555
S24 Sm1 3.263868 1_555
S25 Sm9 2.783328 1_655
S25 Sm11 2.808468 1_555
S25 Sm1 2.838659 1_545
S25 Sm0 3.002986 1_555
S26 Sm11 2.760176 1_554
S26 Sm6 2.793317 1_655
S26 Sm2 2.845983 1_555
S26 Sm3 3.023064 1_555
S27 Sn0 2.600916 1_664
S27 Sm7 2.880652 1_665
S27 Sm10 2.887202 1_554
S27 Sm3 3.029978 1_555
S27 Sm2 3.247067 1_565
