# generated using pymatgen
data_Ta2O5
_symmetry_space_group_name_H-M   'P 1'
_cell_length_a   3.84373200
_cell_length_b   6.33799900
_cell_length_c   40.95155647
_cell_angle_alpha   89.15395892
_cell_angle_beta   90.00000000
_cell_angle_gamma   90.00000000
_symmetry_Int_Tables_number   1
_chemical_formula_structural   Ta2O5
_chemical_formula_sum   'Ta22 O55'
_cell_volume   997.53543054
_cell_formula_units_Z   11
loop_
 _symmetry_equiv_pos_site_id
 _symmetry_equiv_pos_as_xyz
  1  'x, y, z'
loop_
 _atom_site_type_symbol
 _atom_site_label
 _atom_site_symmetry_multiplicity
 _atom_site_fract_x
 _atom_site_fract_y
 _atom_site_fract_z
 _atom_site_occupancy
  Ta  Ta0  1  0.00000000  0.82711900  0.35864600  1
  Ta  Ta1  1  0.00000000  0.83306600  0.63356500  1
  Ta  Ta2  1  0.00000000  0.86183200  0.08239700  1
  Ta  Ta3  1  0.00000000  0.92920800  0.91170300  1
  Ta  Ta4  1  0.00000000  0.38320600  0.31875000  1
  Ta  Ta5  1  0.00000000  0.48494100  0.69125700  1
  Ta  Ta6  1  0.00000000  0.51214100  0.14286900  1
  Ta  Ta7  1  0.00000000  0.46119900  0.86241900  1
  Ta  Ta8  1  0.00000000  0.46634900  0.41693600  1
  Ta  Ta9  1  0.00000000  0.38002300  0.59215900  1
  Ta  Ta10  1  0.00000000  0.42197500  0.04596700  1
  Ta  Ta11  1  0.00000000  0.45440400  0.95330300  1
  Ta  Ta12  1  0.00000000  0.99324200  0.99877400  1
  Ta  Ta13  1  0.00000000  0.95063300  0.18037000  1
  Ta  Ta14  1  0.00000000  0.91898100  0.81994600  1
  Ta  Ta15  1  0.00000000  0.38841800  0.22648500  1
  Ta  Ta16  1  0.00000000  0.37490700  0.77664000  1
  Ta  Ta17  1  0.00000000  0.91564000  0.27248900  1
  Ta  Ta18  1  0.00000000  0.93138800  0.72888100  1
  Ta  Ta19  1  0.00000000  0.34880300  0.50106300  1
  Ta  Ta20  1  0.00000000  0.90949900  0.45465700  1
  Ta  Ta21  1  0.00000000  0.88197900  0.54616800  1
  O  O0  1  0.00000000  0.71698400  0.31415700  1
  O  O1  1  0.00000000  0.80055300  0.68298400  1
  O  O2  1  0.00000000  0.54516700  0.09258400  1
  O  O3  1  0.00000000  0.58602600  0.90942900  1
  O  O4  1  0.00000000  0.74316900  0.03697800  1
  O  O5  1  0.00000000  0.74008900  0.97059300  1
  O  O6  1  0.00000000  0.21448200  0.44639000  1
  O  O7  1  0.00000000  0.22282600  0.54823200  1
  O  O8  1  0.50000000  0.32223700  0.49580000  1
  O  O9  1  0.00000000  0.33776400  0.00081400  1
  O  O10  1  0.00000000  0.64989500  0.25060400  1
  O  O11  1  0.00000000  0.60757800  0.73892300  1
  O  O12  1  0.50000000  0.43204000  0.04973600  1
  O  O13  1  0.50000000  0.42576700  0.95067500  1
  O  O14  1  0.50000000  0.93885700  0.27989900  1
  O  O15  1  0.50000000  0.91892200  0.72527100  1
  O  O16  1  0.00000000  0.99647200  0.50009100  1
  O  O17  1  0.50000000  0.90593800  0.08845900  1
  O  O18  1  0.50000000  0.90191500  0.91744800  1
  O  O19  1  0.00000000  0.49957600  0.36615100  1
  O  O20  1  0.00000000  0.50598700  0.64065200  1
  O  O21  1  0.50000000  0.42049500  0.41175100  1
  O  O22  1  0.50000000  0.41064300  0.58642800  1
  O  O23  1  0.00000000  0.58747400  0.46294500  1
  O  O24  1  0.00000000  0.60792100  0.52619200  1
  O  O25  1  0.00000000  0.78201400  0.40858700  1
  O  O26  1  0.00000000  0.71566800  0.58922300  1
  O  O27  1  0.00000000  0.03651100  0.22643700  1
  O  O28  1  0.00000000  0.03609200  0.77320800  1
  O  O29  1  0.00000000  0.26047600  0.27327000  1
  O  O30  1  0.00000000  0.23014800  0.71840700  1
  O  O31  1  0.00000000  0.83247400  0.13377200  1
  O  O32  1  0.00000000  0.81796100  0.86461700  1
  O  O33  1  0.50000000  0.41060800  0.31446300  1
  O  O34  1  0.50000000  0.44614400  0.68677400  1
  O  O35  1  0.00000000  0.11735600  0.05442700  1
  O  O36  1  0.00000000  0.11863300  0.95297900  1
  O  O37  1  0.50000000  0.00549000  0.00521400  1
  O  O38  1  0.50000000  0.86338700  0.36437500  1
  O  O39  1  0.50000000  0.86642500  0.63813300  1
  O  O40  1  0.50000000  0.46606700  0.13759100  1
  O  O41  1  0.50000000  0.49242300  0.85780400  1
  O  O42  1  0.50000000  0.36247400  0.22088900  1
  O  O43  1  0.50000000  0.35520700  0.77092300  1
  O  O44  1  0.00000000  0.62385100  0.18802800  1
  O  O45  1  0.00000000  0.61382900  0.80715600  1
  O  O46  1  0.50000000  0.90199600  0.45102300  1
  O  O47  1  0.50000000  0.90844900  0.55235600  1
  O  O48  1  0.50000000  0.92874400  0.17997000  1
  O  O49  1  0.50000000  0.92401800  0.81732300  1
  O  O50  1  0.00000000  0.10600000  0.33702000  1
  O  O51  1  0.00000000  0.11917600  0.61458100  1
  O  O52  1  0.00000000  0.24968200  0.17046800  1
  O  O53  1  0.00000000  0.24318900  0.82422500  1
  O  O54  1  0.00000000  0.20017500  0.88862900  1
loop_
_geom_bond_atom_site_label_1
_geom_bond_atom_site_label_2
_geom_bond_distance
_geom_bond_site_symmetry_2
O0 Ta0 1.960639 1_555
O0 Ta17 2.105596 1_555
O0 Ta4 2.121062 1_555
O1 Ta5 2.023897 1_555
O1 Ta1 2.031220 1_555
O1 Ta18 2.065520 1_555
O2 Ta2 2.043880 1_555
O2 Ta6 2.066783 1_555
O2 Ta10 2.073181 1_555
O3 Ta11 1.969726 1_555
O3 Ta7 2.092137 1_555
O3 Ta3 2.178453 1_555
O4 Ta2 2.016548 1_555
O4 Ta10 2.063386 1_555
O4 Ta12 2.210561 1_554
O5 Ta11 1.953901 1_555
O5 Ta12 1.990200 1_555
O6 Ta20 1.957475 1_545
O6 Ta8 1.986531 1_555
O6 Ta19 2.407056 1_555
O7 Ta9 2.069187 1_555
O7 Ta19 2.079233 1_555
O7 Ta21 2.163188 1_545
O8 Ta19 1.941505 1_555
O8 Ta19 1.941505 1_655
O9 Ta10 1.932131 1_555
O9 Ta11 2.071132 1_554
O9 Ta12 2.186410 1_544
O10 Ta17 1.919540 1_555
O10 Ta15 1.941741 1_555
O11 Ta18 2.087141 1_555
O11 Ta5 2.111694 1_555
O11 Ta16 2.119688 1_555
O12 Ta10 1.929184 1_555
O12 Ta10 1.929184 1_655
O13 Ta11 1.933564 1_555
O13 Ta11 1.933564 1_655
O14 Ta17 1.951569 1_655
O14 Ta17 1.951569 1_555
O15 Ta18 1.929252 1_655
O15 Ta18 1.929252 1_555
O16 Ta20 1.948321 1_555
O16 Ta21 2.011623 1_555
O16 Ta19 2.234016 1_565
O17 Ta2 1.958415 1_555
O17 Ta2 1.958415 1_655
O18 Ta3 1.943615 1_555
O18 Ta3 1.943615 1_655
O19 Ta4 2.086698 1_555
O19 Ta8 2.087264 1_555
O19 Ta0 2.094100 1_555
O20 Ta5 2.074676 1_555
O20 Ta1 2.088995 1_555
O20 Ta9 2.151245 1_555
O21 Ta8 1.955745 1_655
O21 Ta8 1.955745 1_555
O22 Ta9 1.945499 1_655
O22 Ta9 1.945499 1_555
O23 Ta8 2.045005 1_555
O23 Ta20 2.064073 1_555
O23 Ta19 2.157594 1_555
O24 Ta21 1.930871 1_555
O24 Ta19 1.950900 1_555
O25 Ta8 2.024706 1_555
O25 Ta0 2.060860 1_555
O25 Ta20 2.063319 1_555
O26 Ta1 1.972546 1_555
O26 Ta21 2.040824 1_555
O26 Ta9 2.128939 1_555
O27 Ta13 1.971172 1_545
O27 Ta17 2.025052 1_545
O27 Ta15 2.230416 1_555
O28 Ta18 1.941939 1_545
O28 Ta14 2.042634 1_545
O28 Ta16 2.154073 1_555
O29 Ta4 2.028959 1_555
O29 Ta15 2.069400 1_555
O29 Ta17 2.186276 1_545
O30 Ta18 1.935327 1_545
O30 Ta5 1.947045 1_555
O30 Ta16 2.567749 1_555
O31 Ta6 2.058748 1_555
O31 Ta13 2.060218 1_555
O31 Ta2 2.109360 1_555
O32 Ta14 1.929212 1_555
O32 Ta3 2.062867 1_555
O32 Ta7 2.264276 1_555
O33 Ta4 1.937434 1_555
O33 Ta4 1.937434 1_655
O34 Ta5 1.946553 1_655
O34 Ta5 1.946553 1_555
O35 Ta10 1.956471 1_555
O35 Ta2 1.969774 1_545
O35 Ta12 2.421968 1_544
O36 Ta12 2.025985 1_545
O36 Ta3 2.087697 1_545
O36 Ta11 2.128354 1_555
O37 Ta12 1.941585 1_644
O37 Ta12 1.941585 1_544
O38 Ta0 1.950139 1_655
O38 Ta0 1.950139 1_555
O39 Ta1 1.942790 1_655
O39 Ta1 1.942790 1_555
O40 Ta6 1.956380 1_655
O40 Ta6 1.956380 1_555
O41 Ta7 1.940965 1_555
O41 Ta7 1.940965 1_655
O42 Ta15 1.942739 1_655
O42 Ta15 1.942739 1_555
O43 Ta16 1.940318 1_555
O43 Ta16 1.940318 1_655
O44 Ta6 1.989971 1_555
O44 Ta13 2.090169 1_555
O44 Ta15 2.153465 1_555
O45 Ta16 1.977535 1_555
O45 Ta14 2.011172 1_555
O45 Ta7 2.448019 1_555
O46 Ta20 1.928260 1_555
O46 Ta20 1.928260 1_655
O47 Ta21 1.946069 1_655
O47 Ta21 1.946069 1_555
O48 Ta13 1.926954 1_555
O48 Ta13 1.926954 1_655
O49 Ta14 1.925104 1_555
O49 Ta14 1.925104 1_655
O50 Ta4 1.899413 1_555
O50 Ta0 1.965278 1_545
O51 Ta9 1.879234 1_555
O51 Ta1 1.962409 1_545
O52 Ta13 1.932400 1_545
O52 Ta6 1.997247 1_555
O52 Ta15 2.468828 1_555
O53 Ta14 2.064865 1_545
O53 Ta7 2.102253 1_555
O53 Ta16 2.108613 1_555
O54 Ta3 1.947914 1_545
O54 Ta7 1.958714 1_555
