# generated using pymatgen
data_CeCo5H4
_symmetry_space_group_name_H-M   'P 1'
_cell_length_a   5.13917566
_cell_length_b   5.13917566
_cell_length_c   4.04183900
_cell_angle_alpha   90.00000000
_cell_angle_beta   90.00000000
_cell_angle_gamma   118.04190628
_symmetry_Int_Tables_number   1
_chemical_formula_structural   CeCo5H4
_chemical_formula_sum   'Ce1 Co5 H4'
_cell_volume   94.21755260
_cell_formula_units_Z   1
loop_
 _symmetry_equiv_pos_site_id
 _symmetry_equiv_pos_as_xyz
  1  'x, y, z'
loop_
 _atom_site_type_symbol
 _atom_site_label
 _atom_site_symmetry_multiplicity
 _atom_site_fract_x
 _atom_site_fract_y
 _atom_site_fract_z
 _atom_site_occupancy
  Ce  Ce0  1  0.50000000  0.50000000  0.50000000  1
  Co  Co0  1  0.86565100  0.13434900  0.50000000  1
  Co  Co1  1  0.13434900  0.86565100  0.50000000  1
  Co  Co2  1  0.00000000  0.50000000  0.00000000  1
  Co  Co3  1  0.50000000  0.00000000  0.00000000  1
  Co  Co4  1  0.00000000  0.00000000  0.00000000  1
  H  H0  1  0.63547600  0.36452400  0.00000000  1
  H  H1  1  0.36452400  0.63547600  0.00000000  1
  H  H2  1  0.00000000  0.50000000  0.50000000  1
  H  H3  1  0.50000000  0.00000000  0.50000000  1
loop_
_geom_bond_atom_site_label_1
_geom_bond_atom_site_label_2
_geom_bond_distance
_geom_bond_site_symmetry_2
Ce0 H0 2.347206 1_556
Ce0 H1 2.347206 1_555
Ce0 H1 2.347206 1_556
Ce0 H0 2.347206 1_555
Ce0 H3 2.569588 1_565
Ce0 H2 2.569588 1_655
Ce0 H2 2.569588 1_555
Ce0 H3 2.569588 1_555
Co0 H3 1.669729 1_555
Co0 H2 1.669729 1_655
Co0 Co4 2.342170 1_655
Co0 Co4 2.342170 1_656
Co1 H2 1.669729 1_555
Co1 H3 1.669729 1_565
Co1 Co4 2.342170 1_565
Co1 Co4 2.342170 1_566
Co2 H0 1.663686 1_455
Co2 H1 1.663686 1_555
Co2 H2 2.020920 1_555
Co2 H2 2.020920 1_554
Co2 Co4 2.569588 1_565
Co2 Co4 2.569588 1_555
Co3 H1 1.663686 1_545
Co3 H0 1.663686 1_555
Co3 H3 2.020920 1_555
Co3 H3 2.020920 1_554
Co3 Co4 2.569588 1_655
Co3 Co4 2.569588 1_555
