# generated using pymatgen
data_Li4MnCo2O7
_symmetry_space_group_name_H-M   'P 1'
_cell_length_a   2.97005000
_cell_length_b   6.47149483
_cell_length_c   13.60472853
_cell_angle_alpha   83.97619837
_cell_angle_beta   86.99168136
_cell_angle_gamma   76.81672731
_symmetry_Int_Tables_number   1
_chemical_formula_structural   Li4MnCo2O7
_chemical_formula_sum   'Li8 Mn2 Co4 O14'
_cell_volume   253.08455238
_cell_formula_units_Z   2
loop_
 _symmetry_equiv_pos_site_id
 _symmetry_equiv_pos_as_xyz
  1  'x, y, z'
loop_
 _atom_site_type_symbol
 _atom_site_label
 _atom_site_symmetry_multiplicity
 _atom_site_fract_x
 _atom_site_fract_y
 _atom_site_fract_z
 _atom_site_occupancy
  Li  Li0  1  0.15194400  0.93124200  0.78460600  1
  Li  Li1  1  0.99438700  0.50291700  0.50081700  1
  Li  Li2  1  0.84829400  0.07727100  0.21643500  1
  Li  Li3  1  0.55995400  0.22280100  0.64282800  1
  Li  Li4  1  0.42946500  0.77892600  0.35735100  1
  Li  Li5  1  0.29896900  0.35607300  0.06476800  1
  Li  Li6  1  0.72268900  0.62760000  0.92686900  1
  Li  Li7  1  0.40638400  0.29395700  0.86245100  1
  Mn  Mn0  1  0.99817000  0.01255800  0.99614000  1
  Mn  Mn1  1  0.70661900  0.14113900  0.42808600  1
  Co  Co0  1  0.85562200  0.56218000  0.72099800  1
  Co  Co1  1  0.59120600  0.70908400  0.14103000  1
  Co  Co2  1  0.27926800  0.85310500  0.57385400  1
  Co  Co3  1  0.15272300  0.42629100  0.28434100  1
  O  O0  1  0.54403700  0.96777300  0.90700400  1
  O  O1  1  0.45003200  0.55322900  0.61066400  1
  O  O2  1  0.30483800  0.12007700  0.32176000  1
  O  O3  1  0.98830400  0.28436300  0.74339600  1
  O  O4  1  0.83250700  0.83398500  0.46742700  1
  O  O5  1  0.75066100  0.39906500  0.18614300  1
  O  O6  1  0.15354500  0.69298500  0.04213900  1
  O  O7  1  0.73101900  0.86846200  0.67840800  1
  O  O8  1  0.53944600  0.45087300  0.38906200  1
  O  O9  1  0.46634600  0.02764200  0.09411800  1
  O  O10  1  0.10726000  0.16150700  0.53576400  1
  O  O11  1  0.01414300  0.73466900  0.24319400  1
  O  O12  1  0.86097700  0.30187700  0.96761200  1
  O  O13  1  0.26118900  0.60835000  0.81273400  1
loop_
_geom_bond_atom_site_label_1
_geom_bond_atom_site_label_2
_geom_bond_distance
_geom_bond_site_symmetry_2
Li0 O13 2.038152 1_555
Li0 O7 2.088033 1_455
Li0 O0 2.143977 1_555
Li0 O7 2.180401 1_555
Li0 O3 2.241844 1_465
Li0 O0 2.379284 1_455
Li1 O4 2.092040 1_555
Li1 O1 2.135810 1_555
Li1 O8 2.155495 1_655
Li1 O10 2.162968 1_655
Li1 O1 2.164747 1_655
Li1 O8 2.186655 1_555
Li2 O5 2.036579 1_555
Li2 O2 2.090905 1_555
Li2 O2 2.104092 1_655
Li2 O9 2.153073 1_555
Li2 O11 2.154569 1_645
Li2 O9 2.400952 1_655
Li3 O3 2.043903 1_555
Li3 O1 2.090653 1_555
Li3 O3 2.115506 1_455
Li3 O10 2.121304 1_655
Li3 O10 2.157960 1_555
Li3 O7 2.238792 1_545
Li4 O4 2.072987 1_555
Li4 O8 2.075130 1_555
Li4 O11 2.114533 1_555
Li4 O2 2.160405 1_565
Li4 O4 2.249063 1_455
Li4 O11 2.256769 1_655
Li5 O12 2.012022 1_454
Li5 O12 2.062766 1_554
Li5 O9 2.069981 1_555
Li5 O6 2.116287 1_555
Li5 O5 2.250253 1_455
Li5 O5 2.258995 1_555
Li6 O12 2.074368 1_555
Li6 O0 2.135004 1_555
Li6 O13 2.155753 1_555
Li6 O13 2.161867 1_655
Li6 O6 2.207439 1_656
Li6 O6 2.242884 1_556
Li7 O12 2.030306 1_555
Li7 O13 2.030912 1_555
Li7 O0 2.086685 1_545
Li7 O12 2.099473 1_455
Li7 O3 2.106314 1_455
Li7 O3 2.300604 1_555
Mn0 O12 1.827118 1_555
Mn0 O0 1.948739 1_545
Mn0 O0 1.958598 1_645
Mn0 O9 2.000900 1_656
Mn0 O9 2.004312 1_556
Mn0 O6 2.050619 1_646
Mn1 O2 1.957495 1_555
Mn1 O4 1.958598 1_545
Mn1 O10 1.968336 1_655
Mn1 O8 1.973964 1_555
Mn1 O2 2.220136 1_655
Mn1 O10 2.234285 1_555
Co0 O3 1.747858 1_555
Co0 O13 1.870311 1_655
Co0 O7 1.961707 1_555
Co0 O1 1.986841 1_555
Co0 O13 2.090511 1_555
Co0 O1 2.250941 1_655
Co1 O6 1.945596 1_555
Co1 O11 1.965604 1_655
Co1 O5 1.991188 1_555
Co1 O9 2.048122 1_565
Co1 O6 2.079566 1_655
Co1 O11 2.136720 1_555
Co2 O1 1.909937 1_555
Co2 O10 1.964299 1_565
Co2 O7 2.030816 1_555
Co2 O4 2.046112 1_455
Co2 O7 2.096992 1_455
Co2 O4 2.122931 1_555
Co3 O5 1.885372 1_455
Co3 O8 1.917551 1_555
Co3 O2 1.947894 1_555
Co3 O11 1.969900 1_555
Co3 O5 2.151121 1_555
Co3 O8 2.239604 1_455
