# generated using pymatgen
data_Mg14AlCoO16
_symmetry_space_group_name_H-M   'P 1'
_cell_length_a   8.50883900
_cell_length_b   8.50883900
_cell_length_c   4.24324500
_cell_angle_alpha   90.00000000
_cell_angle_beta   90.00000000
_cell_angle_gamma   90.00000000
_symmetry_Int_Tables_number   1
_chemical_formula_structural   Mg14AlCoO16
_chemical_formula_sum   'Mg14 Al1 Co1 O16'
_cell_volume   307.21238549
_cell_formula_units_Z   1
loop_
 _symmetry_equiv_pos_site_id
 _symmetry_equiv_pos_as_xyz
  1  'x, y, z'
loop_
 _atom_site_type_symbol
 _atom_site_label
 _atom_site_symmetry_multiplicity
 _atom_site_fract_x
 _atom_site_fract_y
 _atom_site_fract_z
 _atom_site_occupancy
  Mg  Mg0  1  0.50000000  0.00000000  0.00000000  1
  Mg  Mg1  1  0.00000000  0.50000000  0.00000000  1
  Mg  Mg2  1  0.25203800  0.00000000  0.50000000  1
  Mg  Mg3  1  0.74796200  0.00000000  0.50000000  1
  Mg  Mg4  1  0.25637200  0.50000000  0.50000000  1
  Mg  Mg5  1  0.74362800  0.50000000  0.50000000  1
  Mg  Mg6  1  0.00000000  0.25203800  0.50000000  1
  Mg  Mg7  1  0.50000000  0.25637200  0.50000000  1
  Mg  Mg8  1  0.00000000  0.74796200  0.50000000  1
  Mg  Mg9  1  0.50000000  0.74362800  0.50000000  1
  Mg  Mg10  1  0.25583800  0.25583800  0.00000000  1
  Mg  Mg11  1  0.74416200  0.25583800  0.00000000  1
  Mg  Mg12  1  0.25583800  0.74416200  0.00000000  1
  Mg  Mg13  1  0.74416200  0.74416200  0.00000000  1
  Al  Al0  1  0.00000000  0.00000000  0.00000000  1
  Co  Co0  1  0.50000000  0.50000000  0.00000000  1
  O  O0  1  0.00000000  0.22847900  0.00000000  1
  O  O1  1  0.50000000  0.23293200  0.00000000  1
  O  O2  1  0.00000000  0.77152100  0.00000000  1
  O  O3  1  0.50000000  0.76706800  0.00000000  1
  O  O4  1  0.24895200  0.24895200  0.50000000  1
  O  O5  1  0.75104800  0.24895200  0.50000000  1
  O  O6  1  0.24895200  0.75104800  0.50000000  1
  O  O7  1  0.75104800  0.75104800  0.50000000  1
  O  O8  1  0.00000000  0.00000000  0.50000000  1
  O  O9  1  0.50000000  0.00000000  0.50000000  1
  O  O10  1  0.00000000  0.50000000  0.50000000  1
  O  O11  1  0.50000000  0.50000000  0.50000000  1
  O  O12  1  0.22847900  0.00000000  0.00000000  1
  O  O13  1  0.77152100  0.00000000  0.00000000  1
  O  O14  1  0.23293200  0.50000000  0.00000000  1
  O  O15  1  0.76706800  0.50000000  0.00000000  1
loop_
_geom_bond_atom_site_label_1
_geom_bond_atom_site_label_2
_geom_bond_distance
_geom_bond_site_symmetry_2
Mg0 O1 1.981981 1_555
Mg0 O3 1.981981 1_545
Mg0 O9 2.121622 1_554
Mg0 O9 2.121622 1_555
Mg0 O12 2.310328 1_555
Mg0 O13 2.310328 1_555
Mg1 O14 1.981981 1_555
Mg1 O15 1.981981 1_455
Mg1 O10 2.121622 1_555
Mg1 O10 2.121622 1_554
Mg1 O0 2.310328 1_555
Mg1 O2 2.310328 1_555
Mg2 O9 2.109869 1_555
Mg2 O6 2.118455 1_545
Mg2 O4 2.118455 1_555
Mg2 O12 2.131072 1_555
Mg2 O12 2.131072 1_556
Mg2 O8 2.144551 1_555
Mg3 O9 2.109869 1_555
Mg3 O7 2.118455 1_545
Mg3 O5 2.118455 1_555
Mg3 O13 2.131072 1_556
Mg3 O13 2.131072 1_555
Mg3 O8 2.144551 1_655
Mg4 O11 2.072991 1_555
Mg4 O14 2.130977 1_556
Mg4 O14 2.130977 1_555
Mg4 O4 2.137060 1_555
Mg4 O6 2.137060 1_555
Mg4 O10 2.181428 1_555
Mg5 O11 2.072991 1_555
Mg5 O15 2.130977 1_556
Mg5 O15 2.130977 1_555
Mg5 O5 2.137060 1_555
Mg5 O7 2.137060 1_555
Mg5 O10 2.181428 1_655
Mg6 O10 2.109869 1_555
Mg6 O5 2.118455 1_455
Mg6 O4 2.118455 1_555
Mg6 O0 2.131072 1_555
Mg6 O0 2.131072 1_556
Mg6 O8 2.144551 1_555
Mg7 O11 2.072991 1_555
Mg7 O1 2.130977 1_556
Mg7 O1 2.130977 1_555
Mg7 O4 2.137060 1_555
Mg7 O5 2.137060 1_555
Mg7 O9 2.181428 1_555
Mg8 O10 2.109869 1_555
Mg8 O7 2.118455 1_455
Mg8 O6 2.118455 1_555
Mg8 O2 2.131072 1_555
Mg8 O2 2.131072 1_556
Mg8 O8 2.144551 1_565
Mg9 O11 2.072991 1_555
Mg9 O3 2.130977 1_556
Mg9 O3 2.130977 1_555
Mg9 O6 2.137060 1_555
Mg9 O7 2.137060 1_555
Mg9 O9 2.181428 1_565
Mg10 O1 2.086658 1_555
Mg10 O14 2.086658 1_555
Mg10 O4 2.123240 1_554
Mg10 O4 2.123240 1_555
Mg10 O12 2.189296 1_555
Mg10 O0 2.189296 1_555
Mg11 O1 2.086658 1_555
Mg11 O15 2.086658 1_555
Mg11 O5 2.123240 1_554
Mg11 O5 2.123240 1_555
Mg11 O0 2.189296 1_655
Mg11 O13 2.189296 1_555
Mg12 O14 2.086658 1_555
Mg12 O3 2.086658 1_555
Mg12 O6 2.123240 1_554
Mg12 O6 2.123240 1_555
Mg12 O12 2.189296 1_565
Mg12 O2 2.189296 1_555
Mg13 O15 2.086658 1_555
Mg13 O3 2.086658 1_555
Mg13 O7 2.123240 1_554
Mg13 O7 2.123240 1_555
Mg13 O13 2.189296 1_565
Mg13 O2 2.189296 1_655
Al0 O13 1.944091 1_455
Al0 O12 1.944091 1_555
Al0 O0 1.944091 1_555
Al0 O2 1.944091 1_545
Al0 O8 2.121622 1_554
Al0 O8 2.121622 1_555
Co0 O11 2.121622 1_555
Co0 O11 2.121622 1_554
Co0 O15 2.272439 1_555
Co0 O3 2.272439 1_555
Co0 O1 2.272439 1_555
Co0 O14 2.272439 1_555
