# generated using pymatgen
data_Na7Mn4Fe8(PO4)12
_symmetry_space_group_name_H-M   'P 1'
_cell_length_a   9.34189543
_cell_length_b   9.34189543
_cell_length_c   12.08585007
_cell_angle_alpha   68.98807194
_cell_angle_beta   68.98807194
_cell_angle_gamma   85.62735989
_symmetry_Int_Tables_number   1
_chemical_formula_structural   Na7Mn4Fe8(PO4)12
_chemical_formula_sum   'Na7 Mn4 Fe8 P12 O48'
_cell_volume   917.48075773
_cell_formula_units_Z   1
loop_
 _symmetry_equiv_pos_site_id
 _symmetry_equiv_pos_as_xyz
  1  'x, y, z'
loop_
 _atom_site_type_symbol
 _atom_site_label
 _atom_site_symmetry_multiplicity
 _atom_site_fract_x
 _atom_site_fract_y
 _atom_site_fract_z
 _atom_site_occupancy
  Na  Na0  1  0.24929900  0.00119600  0.87416000  1
  Na  Na1  1  0.75027900  0.49941300  0.37636600  1
  Na  Na2  1  0.99880400  0.75070100  0.12584000  1
  Na  Na3  1  0.50058700  0.24972100  0.62363400  1
  Na  Na4  1  0.11026200  0.88973800  0.50000000  1
  Na  Na5  1  0.87850200  0.60542400  0.75808200  1
  Na  Na6  1  0.39457600  0.12149800  0.24191800  1
  Mn  Mn0  1  0.88899000  0.11101000  0.00000000  1
  Mn  Mn1  1  0.39365900  0.60634100  0.50000000  1
  Mn  Mn2  1  0.60375700  0.89182100  0.74889600  1
  Mn  Mn3  1  0.10817900  0.39624300  0.25110400  1
  Fe  Fe0  1  0.22473200  0.66117900  0.77820400  1
  Fe  Fe1  1  0.72515600  0.15686000  0.28141000  1
  Fe  Fe2  1  0.33882100  0.77526800  0.22179600  1
  Fe  Fe3  1  0.84314000  0.27484400  0.71859000  1
  Fe  Fe4  1  0.28302800  0.34194700  0.96968200  1
  Fe  Fe5  1  0.77291400  0.83977400  0.47082700  1
  Fe  Fe6  1  0.16022600  0.22708600  0.52917300  1
  Fe  Fe7  1  0.65805300  0.71697200  0.03031800  1
  P  P0  1  0.07900500  0.04778800  0.19775100  1
  P  P1  1  0.58036800  0.54126100  0.70192200  1
  P  P2  1  0.95221200  0.92099500  0.80224900  1
  P  P3  1  0.45873900  0.41963200  0.29807800  1
  P  P4  1  0.42131800  0.95683100  0.54509100  1
  P  P5  1  0.92173500  0.45555600  0.05273500  1
  P  P6  1  0.54444400  0.07826500  0.94726500  1
  P  P7  1  0.04316900  0.57868200  0.45490900  1
  P  P8  1  0.34015400  0.65984600  0.00000000  1
  P  P9  1  0.84082400  0.15917600  0.50000000  1
  P  P10  1  0.15992400  0.34060900  0.75172900  1
  P  P11  1  0.65939100  0.84007600  0.24827100  1
  O  O0  1  0.98989000  0.93417500  0.91230600  1
  O  O1  1  0.48837600  0.43758500  0.41000800  1
  O  O2  1  0.06582500  0.01011000  0.08769400  1
  O  O3  1  0.56241500  0.51162400  0.58999200  1
  O  O4  1  0.50970700  0.06435600  0.83613000  1
  O  O5  1  0.00873700  0.56478000  0.34337700  1
  O  O6  1  0.43522000  0.99126300  0.65662300  1
  O  O7  1  0.93564400  0.49029300  0.16387000  1
  O  O8  1  0.05472900  0.80911600  0.74180000  1
  O  O9  1  0.56298900  0.29932100  0.25114800  1
  O  O10  1  0.19088400  0.94527100  0.25820000  1
  O  O11  1  0.70067900  0.43701100  0.74885200  1
  O  O12  1  0.43717800  0.18935700  0.00491300  1
  O  O13  1  0.94588800  0.69340800  0.51184100  1
  O  O14  1  0.30659200  0.05411200  0.48815900  1
  O  O15  1  0.81064300  0.56282200  0.99508700  1
  O  O16  1  0.86170800  0.28410900  0.09824600  1
  O  O17  1  0.36539300  0.78344300  0.59064800  1
  O  O18  1  0.71589100  0.13829200  0.90175400  1
  O  O19  1  0.21655700  0.63460700  0.40935200  1
  O  O20  1  0.63564900  0.70993900  0.66668400  1
  O  O21  1  0.14267500  0.21920100  0.15100400  1
  O  O22  1  0.78079900  0.85732500  0.84899600  1
  O  O23  1  0.29006100  0.36435100  0.33331600  1
  O  O24  1  0.91615400  0.02834500  0.30152000  1
  O  O25  1  0.41822700  0.50858100  0.81109700  1
  O  O26  1  0.97165500  0.08384600  0.69848000  1
  O  O27  1  0.49141900  0.58177300  0.18890300  1
  O  O28  1  0.58406000  0.98634900  0.43785400  1
  O  O29  1  0.08366600  0.48004700  0.94561400  1
  O  O30  1  0.51995300  0.91633400  0.05438600  1
  O  O31  1  0.01365100  0.41594000  0.56214600  1
  O  O32  1  0.27243300  0.73981400  0.89503200  1
  O  O33  1  0.76541800  0.23703400  0.39879900  1
  O  O34  1  0.26018600  0.72756700  0.10496800  1
  O  O35  1  0.76296600  0.23458200  0.60120100  1
  O  O36  1  0.22755600  0.26325800  0.85796900  1
  O  O37  1  0.73179400  0.75984400  0.34858600  1
  O  O38  1  0.24015600  0.26820600  0.65141400  1
  O  O39  1  0.73674200  0.77244400  0.14203100  1
  O  O40  1  0.19323900  0.51894600  0.68989000  1
  O  O41  1  0.69548100  0.01906100  0.18708800  1
  O  O42  1  0.98093900  0.30451900  0.81291200  1
  O  O43  1  0.48105400  0.80676100  0.31011000  1
  O  O44  1  0.30138600  0.48255400  0.06064500  1
  O  O45  1  0.80475000  0.98240900  0.56486000  1
  O  O46  1  0.51744600  0.69861400  0.93935500  1
  O  O47  1  0.01759100  0.19525000  0.43514000  1
loop_
_geom_bond_atom_site_label_1
_geom_bond_atom_site_label_2
_geom_bond_distance
_geom_bond_site_symmetry_2
Na0 O32 2.364244 1_545
Na0 O36 2.383726 1_555
Na0 O4 2.387467 1_555
Na0 O0 2.387561 1_445
Na0 O2 2.562259 1_556
Na0 O6 2.610219 1_545
Na1 O37 2.335247 1_555
Na1 O33 2.366338 1_555
Na1 O5 2.391964 1_655
Na1 O1 2.412220 1_555
Na1 O7 2.558656 1_555
Na1 O3 2.586559 1_555
Na2 O34 2.364244 1_655
Na2 O39 2.383726 1_555
Na2 O7 2.387467 1_555
Na2 O2 2.387561 1_665
Na2 O0 2.562259 1_554
Na2 O5 2.610219 1_655
Na3 O38 2.335247 1_555
Na3 O35 2.366338 1_555
Na3 O6 2.391964 1_545
Na3 O3 2.412220 1_555
Na3 O4 2.558656 1_555
Na3 O1 2.586559 1_555
Na4 O13 2.413707 1_455
Na4 O14 2.413707 1_565
Na4 O10 2.602026 1_555
Na4 O8 2.602026 1_555
Na4 O45 2.831099 1_455
Na4 O47 2.831099 1_565
Na4 O17 2.932304 1_555
Na4 O19 2.932304 1_555
Na5 O11 2.429936 1_555
Na5 O8 2.519278 1_655
Na5 O15 2.585317 1_555
Na5 O13 2.628663 1_555
Na5 O42 2.822317 1_555
Na5 O20 2.829572 1_555
Na5 O40 2.890400 1_655
Na5 O22 2.895793 1_555
Na6 O9 2.429936 1_555
Na6 O10 2.519278 1_545
Na6 O12 2.585317 1_555
Na6 O14 2.628663 1_555
Na6 O41 2.822317 1_555
Na6 O23 2.829572 1_555
Na6 O43 2.890400 1_545
Na6 O21 2.895793 1_555
Mn0 O42 2.243014 1_554
Mn0 O41 2.243014 1_555
Mn0 O2 2.245556 1_655
Mn0 O0 2.245556 1_544
Mn0 O16 2.277465 1_555
Mn0 O18 2.277465 1_554
Mn1 O3 2.185862 1_555
Mn1 O1 2.185862 1_555
Mn1 O17 2.243435 1_555
Mn1 O19 2.243435 1_555
Mn1 O43 2.290639 1_555
Mn1 O40 2.290639 1_555
Mn2 O4 2.195405 1_565
Mn2 O6 2.208790 1_555
Mn2 O20 2.210030 1_555
Mn2 O45 2.255320 1_555
Mn2 O46 2.262285 1_555
Mn2 O22 2.318813 1_555
Mn3 O7 2.195405 1_455
Mn3 O5 2.208790 1_555
Mn3 O23 2.210030 1_555
Mn3 O47 2.255320 1_555
Mn3 O44 2.262285 1_555
Mn3 O21 2.318813 1_555
Fe0 O32 1.994194 1_555
Fe0 O40 2.071990 1_555
Fe0 O8 2.087130 1_555
Fe0 O17 2.098968 1_555
Fe0 O29 2.160180 1_555
Fe0 O25 2.274573 1_555
Fe1 O33 1.975583 1_555
Fe1 O9 1.985159 1_555
Fe1 O28 2.054943 1_545
Fe1 O16 2.063943 1_555
Fe1 O41 2.089718 1_555
Fe1 O24 2.111683 1_555
Fe2 O34 1.994194 1_555
Fe2 O43 2.071990 1_555
Fe2 O10 2.087130 1_555
Fe2 O19 2.098968 1_555
Fe2 O30 2.160180 1_555
Fe2 O27 2.274573 1_555
Fe3 O35 1.975583 1_555
Fe3 O11 1.985159 1_555
Fe3 O31 2.054943 1_655
Fe3 O18 2.063943 1_555
Fe3 O42 2.089718 1_555
Fe3 O26 2.111683 1_555
Fe4 O36 1.975702 1_555
Fe4 O12 1.994613 1_556
Fe4 O25 2.028835 1_555
Fe4 O44 2.041695 1_556
Fe4 O21 2.050142 1_556
Fe4 O29 2.229487 1_555
Fe5 O37 2.032146 1_555
Fe5 O13 2.116107 1_555
Fe5 O45 2.131734 1_555
Fe5 O20 2.172589 1_555
Fe5 O28 2.211527 1_555
Fe5 O24 2.211739 1_565
Fe6 O38 2.032146 1_555
Fe6 O14 2.116107 1_555
Fe6 O47 2.131734 1_555
Fe6 O23 2.172589 1_555
Fe6 O31 2.211527 1_555
Fe6 O26 2.211739 1_455
Fe7 O39 1.975702 1_555
Fe7 O15 1.994613 1_554
Fe7 O27 2.028835 1_555
Fe7 O46 2.041695 1_554
Fe7 O22 2.050142 1_554
Fe7 O30 2.229487 1_555
O0 P2 1.538866 1_555
O1 P3 1.540499 1_555
O2 P0 1.538866 1_555
O3 P1 1.540499 1_555
O4 P6 1.539620 1_555
O5 P7 1.542780 1_555
O6 P4 1.542780 1_555
O7 P5 1.539620 1_555
O8 P2 1.560927 1_455
O9 P3 1.558048 1_555
O10 P0 1.560927 1_565
O11 P1 1.558048 1_555
O12 P6 1.557528 1_554
O13 P7 1.542692 1_655
O14 P4 1.542692 1_545
O15 P5 1.557528 1_556
O16 P5 1.570431 1_555
O17 P4 1.575742 1_555
O18 P6 1.570431 1_555
O19 P7 1.575742 1_555
O20 P1 1.554427 1_555
O21 P0 1.578821 1_555
O22 P2 1.578821 1_555
O23 P3 1.554427 1_555
O24 P0 1.559117 1_655
O25 P1 1.573825 1_555
O26 P2 1.559117 1_545
O27 P3 1.573825 1_555
O28 P4 1.569000 1_555
O29 P5 1.566124 1_456
O30 P6 1.566124 1_564
O31 P7 1.569000 1_555
O32 P8 1.546475 1_556
O33 P9 1.556601 1_555
O34 P8 1.546475 1_555
O35 P9 1.556601 1_555
O36 P10 1.554600 1_555
O37 P11 1.532407 1_555
O38 P10 1.532407 1_555
O39 P11 1.554600 1_555
O40 P10 1.565360 1_555
O41 P11 1.573773 1_545
O42 P10 1.573773 1_655
O43 P11 1.565360 1_555
O44 P8 1.562715 1_555
O45 P9 1.556307 1_565
O46 P8 1.562715 1_556
O47 P9 1.556307 1_455
