# generated using pymatgen
data_Dy3Ga8Rh3
_symmetry_space_group_name_H-M   'P 1'
_cell_length_a   8.17578944
_cell_length_b   8.17578944
_cell_length_c   8.17578944
_cell_angle_alpha   150.04757717
_cell_angle_beta   105.53493360
_cell_angle_gamma   82.28381282
_symmetry_Int_Tables_number   1
_chemical_formula_structural   Dy3Ga8Rh3
_chemical_formula_sum   'Dy3 Ga8 Rh3'
_cell_volume   257.39878880
_cell_formula_units_Z   1
loop_
 _symmetry_equiv_pos_site_id
 _symmetry_equiv_pos_as_xyz
  1  'x, y, z'
loop_
 _atom_site_type_symbol
 _atom_site_label
 _atom_site_symmetry_multiplicity
 _atom_site_fract_x
 _atom_site_fract_y
 _atom_site_fract_z
 _atom_site_occupancy
  Dy  Dy0  1  0.50000000  0.50000000  0.00000000  1
  Dy  Dy1  1  0.17058300  0.17058300  0.00000000  1
  Dy  Dy2  1  0.82941700  0.82941700  0.00000000  1
  Ga  Ga0  1  0.09208000  0.37638600  0.71569400  1
  Ga  Ga1  1  0.90792000  0.62361400  0.28430600  1
  Ga  Ga2  1  0.66069200  0.37638600  0.28430600  1
  Ga  Ga3  1  0.33930800  0.62361400  0.71569400  1
  Ga  Ga4  1  0.79647000  0.16754500  0.62892500  1
  Ga  Ga5  1  0.20353000  0.83245500  0.37107500  1
  Ga  Ga6  1  0.53862000  0.16754500  0.37107500  1
  Ga  Ga7  1  0.46138000  0.83245500  0.62892500  1
  Rh  Rh0  1  0.00000000  0.50000000  0.50000000  1
  Rh  Rh1  1  0.78156300  0.00000000  0.78156300  1
  Rh  Rh2  1  0.21843700  0.00000000  0.21843700  1
loop_
_geom_bond_atom_site_label_1
_geom_bond_atom_site_label_2
_geom_bond_distance
_geom_bond_site_symmetry_2
Dy0 Ga2 3.198262 1_555
Dy0 Ga1 3.198262 1_555
Dy0 Ga0 3.198262 1_554
Dy0 Ga3 3.198262 1_554
Dy0 Ga6 3.216739 1_554
Dy0 Ga5 3.216739 1_544
Dy0 Ga5 3.216739 1_555
Dy0 Ga4 3.216739 1_554
Dy0 Ga4 3.216739 1_565
Dy0 Ga6 3.216739 1_565
Dy0 Ga7 3.216739 1_555
Dy0 Ga7 3.216739 1_544
Dy0 Rh2 3.496238 1_565
Dy0 Rh1 3.496238 1_554
Dy0 Rh1 3.496238 1_565
Dy0 Rh2 3.496238 1_554
Dy1 Rh0 2.979297 1_544
Dy1 Rh0 2.979297 1_555
Dy1 Rh2 3.013774 1_555
Dy1 Rh1 3.013774 1_454
Dy1 Ga3 3.058135 1_555
Dy1 Ga3 3.058135 1_544
Dy1 Ga1 3.058135 1_455
Dy1 Ga1 3.058135 1_444
Dy1 Ga5 3.172386 1_544
Dy1 Ga5 3.172386 1_555
Dy1 Ga7 3.172386 1_544
Dy1 Ga7 3.172386 1_555
Dy2 Rh0 2.979297 1_665
Dy2 Rh0 2.979297 1_654
Dy2 Rh2 3.013774 1_665
Dy2 Rh1 3.013774 1_564
Dy2 Ga0 3.058135 1_665
Dy2 Ga0 3.058135 1_654
Dy2 Ga2 3.058135 1_565
Dy2 Ga2 3.058135 1_554
Dy2 Ga4 3.172386 1_565
Dy2 Ga4 3.172386 1_554
Dy2 Ga6 3.172386 1_565
Dy2 Ga6 3.172386 1_554
Ga0 Rh2 2.604153 1_555
Ga0 Rh2 2.604153 1_566
Ga0 Rh0 2.621247 1_555
Ga0 Ga5 2.668266 1_545
Ga0 Ga5 2.668266 1_556
Ga0 Ga4 2.711182 1_455
Ga1 Rh1 2.604153 1_554
Ga1 Rh1 2.604153 1_565
Ga1 Rh0 2.621247 1_655
Ga1 Ga4 2.668266 1_554
Ga1 Ga4 2.668266 1_565
Ga1 Ga5 2.711182 1_655
Ga2 Rh1 2.604153 1_554
Ga2 Rh1 2.604153 1_565
Ga2 Rh0 2.621247 1_655
Ga2 Ga7 2.668266 1_544
Ga2 Ga7 2.668266 1_555
Ga2 Ga6 2.711182 1_555
Ga3 Rh2 2.604153 1_555
Ga3 Rh2 2.604153 1_566
Ga3 Rh0 2.621247 1_555
Ga3 Ga6 2.668266 1_555
Ga3 Ga6 2.668266 1_566
Ga3 Ga7 2.711182 1_555
Ga4 Ga6 2.551050 1_555
Ga4 Rh1 2.556783 1_555
Ga5 Ga7 2.551050 1_555
Ga5 Rh2 2.556783 1_565
Ga6 Rh2 2.556783 1_555
Ga7 Rh1 2.556783 1_565
