# generated using pymatgen
data_Sr2YbCu2(BiO4)2
_symmetry_space_group_name_H-M   'P 1'
_cell_length_a   15.91360655
_cell_length_b   15.91360655
_cell_length_c   15.91360655
_cell_angle_alpha   166.54391827
_cell_angle_beta   166.54391827
_cell_angle_gamma   19.07402662
_symmetry_Int_Tables_number   1
_chemical_formula_structural   Sr2YbCu2(BiO4)2
_chemical_formula_sum   'Sr2 Yb1 Cu2 Bi2 O8'
_cell_volume   218.20082612
_cell_formula_units_Z   1
loop_
 _symmetry_equiv_pos_site_id
 _symmetry_equiv_pos_as_xyz
  1  'x, y, z'
loop_
 _atom_site_type_symbol
 _atom_site_label
 _atom_site_symmetry_multiplicity
 _atom_site_fract_x
 _atom_site_fract_y
 _atom_site_fract_z
 _atom_site_occupancy
  Sr  Sr0  1  0.10831500  0.10831500  0.00000000  1
  Sr  Sr1  1  0.89168500  0.89168500  0.00000000  1
  Yb  Yb0  1  0.00000000  0.00000000  0.00000000  1
  Cu  Cu0  1  0.45480900  0.45480900  0.00000000  1
  Cu  Cu1  1  0.54519100  0.54519100  0.00000000  1
  Bi  Bi0  1  0.30023800  0.30023800  0.00000000  1
  Bi  Bi1  1  0.69976200  0.69976200  0.00000000  1
  O  O0  1  0.54948100  0.04948100  0.50000000  1
  O  O1  1  0.45051900  0.95051900  0.50000000  1
  O  O2  1  0.04948100  0.54948100  0.50000000  1
  O  O3  1  0.95051900  0.45051900  0.50000000  1
  O  O4  1  0.19916800  0.19916800  0.00000000  1
  O  O5  1  0.80083200  0.80083200  0.00000000  1
  O  O6  1  0.36594300  0.36594300  0.00000000  1
  O  O7  1  0.63405700  0.63405700  0.00000000  1
loop_
_geom_bond_atom_site_label_1
_geom_bond_atom_site_label_2
_geom_bond_distance
_geom_bond_site_symmetry_2
Cu0 O1 1.869243 1_544
Cu0 O3 1.869243 1_454
Cu0 O1 1.869243 1_555
Cu0 O3 1.869243 1_555
Cu1 O0 1.869243 1_554
Cu1 O2 1.869243 1_554
Cu1 O0 1.869243 1_565
Cu1 O2 1.869243 1_655
Bi0 O6 2.062304 1_555
Bi0 O5 2.636707 1_556
Bi0 O5 2.636707 1_444
Bi0 O5 2.636707 1_545
Bi0 O5 2.636707 1_455
Bi1 O7 2.062304 1_555
Bi1 O4 2.636707 1_666
Bi1 O4 2.636707 1_554
Bi1 O4 2.636707 1_655
Bi1 O4 2.636707 1_565
O0 Yb0 2.426517 1_555
O0 Yb0 2.426517 1_656
O0 Sr0 2.624124 1_656
O0 Sr0 2.624124 1_555
O1 Yb0 2.426517 1_666
O1 Yb0 2.426517 1_565
O1 Sr1 2.624124 1_455
O1 Sr1 2.624124 1_556
O2 Yb0 2.426517 1_555
O2 Yb0 2.426517 1_566
O2 Sr0 2.624124 1_566
O2 Sr0 2.624124 1_555
O3 Yb0 2.426517 1_666
O3 Yb0 2.426517 1_655
O3 Sr1 2.624124 1_545
O3 Sr1 2.624124 1_556
O4 Sr0 2.851632 1_555
O5 Sr1 2.851632 1_555
O6 Sr1 2.757662 1_444
O6 Sr1 2.757662 1_455
O6 Sr1 2.757662 1_556
O6 Sr1 2.757662 1_545
O7 Sr0 2.757662 1_565
O7 Sr0 2.757662 1_655
O7 Sr0 2.757662 1_554
O7 Sr0 2.757662 1_666
