# generated using pymatgen
data_Mg6VNi
_symmetry_space_group_name_H-M   'P 1'
_cell_length_a   4.80608900
_cell_length_b   6.05789000
_cell_length_c   10.46714100
_cell_angle_alpha   90.00000000
_cell_angle_beta   90.00000000
_cell_angle_gamma   90.00000000
_symmetry_Int_Tables_number   1
_chemical_formula_structural   Mg6VNi
_chemical_formula_sum   'Mg12 V2 Ni2'
_cell_volume   304.74828232
_cell_formula_units_Z   2
loop_
 _symmetry_equiv_pos_site_id
 _symmetry_equiv_pos_as_xyz
  1  'x, y, z'
loop_
 _atom_site_type_symbol
 _atom_site_label
 _atom_site_symmetry_multiplicity
 _atom_site_fract_x
 _atom_site_fract_y
 _atom_site_fract_z
 _atom_site_occupancy
  Mg  Mg0  1  0.50000000  0.24824300  0.08307200  1
  Mg  Mg1  1  0.50000000  0.75175700  0.08307200  1
  Mg  Mg2  1  0.00000000  0.24569200  0.91061000  1
  Mg  Mg3  1  0.00000000  0.75430800  0.91061000  1
  Mg  Mg4  1  0.00000000  0.50000000  0.17524300  1
  Mg  Mg5  1  0.00000000  0.50000000  0.67221900  1
  Mg  Mg6  1  0.50000000  0.74824300  0.58307200  1
  Mg  Mg7  1  0.50000000  0.25175700  0.58307200  1
  Mg  Mg8  1  0.00000000  0.74569200  0.41061000  1
  Mg  Mg9  1  0.00000000  0.25430800  0.41061000  1
  Mg  Mg10  1  0.00000000  0.00000000  0.67524300  1
  Mg  Mg11  1  0.00000000  0.00000000  0.17221900  1
  V  V0  1  0.50000000  0.50000000  0.83267600  1
  V  V1  1  0.50000000  0.00000000  0.33267600  1
  Ni  Ni0  1  0.50000000  0.50000000  0.33250300  1
  Ni  Ni1  1  0.50000000  0.00000000  0.83250300  1
loop_
_geom_bond_atom_site_label_1
_geom_bond_atom_site_label_2
_geom_bond_distance
_geom_bond_site_symmetry_2
Mg0 Mg11 2.984431 1_655
Mg0 Mg11 2.984431 1_555
Mg0 Mg4 3.005225 1_555
Mg0 Mg4 3.005225 1_655
Mg0 Mg2 3.005587 1_654
Mg0 Mg2 3.005587 1_554
Mg0 Mg1 3.007658 1_545
Mg0 V1 3.014530 1_555
Mg0 Ni1 3.023288 1_554
Mg0 Ni0 3.023642 1_555
Mg0 V0 3.032368 1_554
Mg0 Mg1 3.050232 1_555
Mg1 Mg11 2.984431 1_665
Mg1 Mg11 2.984431 1_565
Mg1 Mg4 3.005225 1_555
Mg1 Mg4 3.005225 1_655
Mg1 Mg3 3.005587 1_554
Mg1 Mg3 3.005587 1_654
Mg1 V1 3.014530 1_565
Mg1 Ni1 3.023288 1_564
Mg1 Ni0 3.023642 1_555
Mg1 V0 3.032368 1_554
Mg2 Mg5 2.932531 1_555
Mg2 Ni1 2.942496 1_455
Mg2 Ni1 2.942496 1_555
Mg2 V0 2.968741 1_455
Mg2 V0 2.968741 1_555
Mg2 Mg3 2.976750 1_545
Mg2 Mg3 3.081140 1_555
Mg2 Mg4 3.169540 1_556
Mg3 Mg5 2.932531 1_555
Mg3 Ni1 2.942496 1_465
Mg3 Ni1 2.942496 1_565
Mg3 V0 2.968741 1_455
Mg3 V0 2.968741 1_555
Mg3 Mg4 3.169540 1_556
Mg4 Mg9 2.878312 1_555
Mg4 Mg8 2.878312 1_555
Mg4 Ni0 2.912756 1_555
Mg4 Ni0 2.912756 1_455
Mg5 V0 2.931796 1_455
Mg5 V0 2.931796 1_555
Mg5 Mg6 2.984431 1_455
Mg5 Mg7 2.984431 1_455
Mg5 Mg6 2.984431 1_555
Mg5 Mg7 2.984431 1_555
Mg5 Mg8 3.116655 1_555
Mg5 Mg9 3.116655 1_555
Mg6 Mg8 3.005587 1_655
Mg6 Mg8 3.005587 1_555
Mg6 Mg7 3.007658 1_555
Mg6 V0 3.014530 1_555
Mg6 Ni0 3.023288 1_555
Mg6 Ni1 3.023642 1_565
Mg6 V1 3.032368 1_565
Mg6 Mg7 3.050232 1_565
Mg7 Mg9 3.005587 1_555
Mg7 Mg9 3.005587 1_655
Mg7 V0 3.014530 1_555
Mg7 Ni0 3.023288 1_555
Mg7 Ni1 3.023642 1_555
Mg7 V1 3.032368 1_555
Mg8 Ni0 2.942496 1_555
Mg8 Ni0 2.942496 1_455
Mg8 V1 2.968741 1_565
Mg8 V1 2.968741 1_465
Mg8 Mg9 2.976750 1_555
Mg8 Mg9 3.081140 1_565
Mg9 Ni0 2.942496 1_555
Mg9 Ni0 2.942496 1_455
Mg9 V1 2.968741 1_555
Mg9 V1 2.968741 1_455
Mg10 Mg2 2.878312 1_555
Mg10 Mg3 2.878312 1_545
Mg10 Ni1 2.912756 1_455
Mg10 Ni1 2.912756 1_555
Mg10 Mg7 3.005225 1_555
Mg10 Mg6 3.005225 1_445
Mg10 Mg7 3.005225 1_455
Mg10 Mg6 3.005225 1_545
Mg10 Mg5 3.029110 1_545
Mg10 Mg5 3.029110 1_555
Mg10 Mg8 3.169540 1_545
Mg10 Mg9 3.169540 1_555
Mg11 V1 2.931796 1_455
Mg11 V1 2.931796 1_555
Mg11 Mg8 2.932531 1_545
Mg11 Mg9 2.932531 1_555
Mg11 Mg4 3.029110 1_545
Mg11 Mg4 3.029110 1_555
Mg11 Mg3 3.116655 1_544
Mg11 Mg2 3.116655 1_554
Ni0 V1 3.028946 1_565
Ni0 V1 3.028946 1_555
Ni1 V0 3.028946 1_545
Ni1 V0 3.028946 1_555
