# generated using pymatgen
data_ZnFe8Co3O16
_symmetry_space_group_name_H-M   'P 1'
_cell_length_a   6.04434200
_cell_length_b   6.04434200
_cell_length_c   8.54767900
_cell_angle_alpha   90.00000000
_cell_angle_beta   90.00000000
_cell_angle_gamma   90.00000000
_symmetry_Int_Tables_number   1
_chemical_formula_structural   ZnFe8Co3O16
_chemical_formula_sum   'Zn1 Fe8 Co3 O16'
_cell_volume   312.28150474
_cell_formula_units_Z   1
loop_
 _symmetry_equiv_pos_site_id
 _symmetry_equiv_pos_as_xyz
  1  'x, y, z'
loop_
 _atom_site_type_symbol
 _atom_site_label
 _atom_site_symmetry_multiplicity
 _atom_site_fract_x
 _atom_site_fract_y
 _atom_site_fract_z
 _atom_site_occupancy
  Zn  Zn0  1  0.50000000  0.50000000  0.00000000  1
  Fe  Fe0  1  0.50000000  0.74989200  0.37491800  1
  Fe  Fe1  1  0.00000000  0.25010300  0.87508300  1
  Fe  Fe2  1  0.25010300  0.00000000  0.12491700  1
  Fe  Fe3  1  0.74989200  0.50000000  0.62508200  1
  Fe  Fe4  1  0.74989700  0.00000000  0.12491700  1
  Fe  Fe5  1  0.25010800  0.50000000  0.62508200  1
  Fe  Fe6  1  0.50000000  0.25010800  0.37491800  1
  Fe  Fe7  1  0.00000000  0.74989700  0.87508300  1
  Co  Co0  1  0.00000000  0.00000000  0.50000000  1
  Co  Co1  1  0.50000000  0.00000000  0.75018600  1
  Co  Co2  1  0.00000000  0.50000000  0.24981400  1
  O  O0  1  0.50000000  0.27045000  0.61471500  1
  O  O1  1  0.00000000  0.77059800  0.11472900  1
  O  O2  1  0.27045000  0.50000000  0.38528500  1
  O  O3  1  0.77059800  0.00000000  0.88527100  1
  O  O4  1  0.72955000  0.50000000  0.38528500  1
  O  O5  1  0.22940200  0.00000000  0.88527100  1
  O  O6  1  0.50000000  0.72955000  0.61471500  1
  O  O7  1  0.00000000  0.22940200  0.11472900  1
  O  O8  1  0.50000000  0.22945700  0.13521800  1
  O  O9  1  0.00000000  0.72915300  0.63551300  1
  O  O10  1  0.72915300  0.00000000  0.36448700  1
  O  O11  1  0.22945700  0.50000000  0.86478200  1
  O  O12  1  0.27084700  0.00000000  0.36448700  1
  O  O13  1  0.77054300  0.50000000  0.86478200  1
  O  O14  1  0.50000000  0.77054300  0.13521800  1
  O  O15  1  0.00000000  0.27084700  0.63551300  1
loop_
_geom_bond_atom_site_label_1
_geom_bond_atom_site_label_2
_geom_bond_distance
_geom_bond_site_symmetry_2
Fe0 O10 2.052254 1_565
Fe0 O12 2.052254 1_565
Fe0 O14 2.052677 1_555
Fe0 O2 2.052890 1_555
Fe0 O4 2.052890 1_555
Fe0 O6 2.053392 1_555
Fe1 O15 2.051602 1_555
Fe1 O7 2.052235 1_556
Fe1 O11 2.052508 1_555
Fe1 O13 2.052508 1_455
Fe1 O5 2.053159 1_555
Fe1 O3 2.053159 1_455
Fe2 O12 2.051602 1_555
Fe2 O5 2.052235 1_554
Fe2 O8 2.052508 1_555
Fe2 O14 2.052508 1_545
Fe2 O7 2.053159 1_555
Fe2 O1 2.053159 1_545
Fe3 O9 2.052254 1_655
Fe3 O15 2.052254 1_655
Fe3 O13 2.052677 1_555
Fe3 O0 2.052890 1_555
Fe3 O6 2.052890 1_555
Fe3 O4 2.053392 1_555
Fe4 O10 2.051602 1_555
Fe4 O3 2.052235 1_554
Fe4 O8 2.052508 1_555
Fe4 O14 2.052508 1_545
Fe4 O1 2.053159 1_645
Fe4 O7 2.053159 1_655
Fe5 O15 2.052254 1_555
Fe5 O9 2.052254 1_555
Fe5 O11 2.052677 1_555
Fe5 O0 2.052890 1_555
Fe5 O6 2.052890 1_555
Fe5 O2 2.053392 1_555
Fe6 O10 2.052254 1_555
Fe6 O12 2.052254 1_555
Fe6 O8 2.052677 1_555
Fe6 O2 2.052890 1_555
Fe6 O4 2.052890 1_555
Fe6 O0 2.053392 1_555
Fe7 O9 2.051602 1_555
Fe7 O1 2.052235 1_556
Fe7 O13 2.052508 1_455
Fe7 O11 2.052508 1_555
Fe7 O3 2.053159 1_465
Fe7 O5 2.053159 1_565
Co0 O9 2.005437 1_545
Co0 O10 2.005437 1_455
Co0 O12 2.005437 1_555
Co0 O15 2.005437 1_555
Co1 O3 2.002097 1_555
Co1 O5 2.002097 1_555
Co1 O6 2.003271 1_545
Co1 O0 2.003271 1_555
Co2 O7 2.002097 1_555
Co2 O1 2.002097 1_555
Co2 O4 2.003271 1_455
Co2 O2 2.003271 1_555
O8 Zn0 2.002481 1_555
O11 Zn0 2.002481 1_556
O13 Zn0 2.002481 1_556
O14 Zn0 2.002481 1_555
