# generated using pymatgen
data_CaMnN2
_symmetry_space_group_name_H-M   'P 1'
_cell_length_a   5.40803300
_cell_length_b   10.46227700
_cell_length_c   14.82272200
_cell_angle_alpha   90.00000000
_cell_angle_beta   90.00000000
_cell_angle_gamma   90.00000000
_symmetry_Int_Tables_number   1
_chemical_formula_structural   CaMnN2
_chemical_formula_sum   'Ca16 Mn16 N32'
_cell_volume   838.67463968
_cell_formula_units_Z   16
loop_
 _symmetry_equiv_pos_site_id
 _symmetry_equiv_pos_as_xyz
  1  'x, y, z'
loop_
 _atom_site_type_symbol
 _atom_site_label
 _atom_site_symmetry_multiplicity
 _atom_site_fract_x
 _atom_site_fract_y
 _atom_site_fract_z
 _atom_site_occupancy
  Ca  Ca0  1  0.72473500  0.01443400  0.43158600  1
  Ca  Ca1  1  0.22473500  0.48556600  0.56841400  1
  Ca  Ca2  1  0.27526500  0.51443400  0.06841400  1
  Ca  Ca3  1  0.77526500  0.98556600  0.93158600  1
  Ca  Ca4  1  0.27526500  0.98556600  0.56841400  1
  Ca  Ca5  1  0.77526500  0.51443400  0.43158600  1
  Ca  Ca6  1  0.72473500  0.48556600  0.93158600  1
  Ca  Ca7  1  0.22473500  0.01443400  0.06841400  1
  Ca  Ca8  1  0.90035300  0.28009500  0.31093300  1
  Ca  Ca9  1  0.40035300  0.21990500  0.68906700  1
  Ca  Ca10  1  0.09964700  0.78009500  0.18906700  1
  Ca  Ca11  1  0.59964700  0.71990500  0.81093300  1
  Ca  Ca12  1  0.09964700  0.71990500  0.68906700  1
  Ca  Ca13  1  0.59964700  0.78009500  0.31093300  1
  Ca  Ca14  1  0.90035300  0.21990500  0.81093300  1
  Ca  Ca15  1  0.40035300  0.28009500  0.18906700  1
  Mn  Mn0  1  0.72031000  0.01119400  0.18833700  1
  Mn  Mn1  1  0.22031000  0.48880600  0.81166300  1
  Mn  Mn2  1  0.27969000  0.51119400  0.31166300  1
  Mn  Mn3  1  0.77969000  0.98880600  0.68833700  1
  Mn  Mn4  1  0.27969000  0.98880600  0.81166300  1
  Mn  Mn5  1  0.77969000  0.51119400  0.18833700  1
  Mn  Mn6  1  0.72031000  0.48880600  0.68833700  1
  Mn  Mn7  1  0.22031000  0.01119400  0.31166300  1
  Mn  Mn8  1  0.84767100  0.27044300  0.06218000  1
  Mn  Mn9  1  0.34767100  0.22955700  0.93782000  1
  Mn  Mn10  1  0.15232900  0.77044300  0.43782000  1
  Mn  Mn11  1  0.65232900  0.72955700  0.56218000  1
  Mn  Mn12  1  0.15232900  0.72955700  0.93782000  1
  Mn  Mn13  1  0.65232900  0.77044300  0.06218000  1
  Mn  Mn14  1  0.84767100  0.22955700  0.56218000  1
  Mn  Mn15  1  0.34767100  0.27044300  0.43782000  1
  N  N0  1  0.59632100  0.46334700  0.28383800  1
  N  N1  1  0.09632100  0.03665300  0.71616200  1
  N  N2  1  0.40367900  0.96334700  0.21616200  1
  N  N3  1  0.90367900  0.53665300  0.78383800  1
  N  N4  1  0.40367900  0.53665300  0.71616200  1
  N  N5  1  0.90367900  0.96334700  0.28383800  1
  N  N6  1  0.59632100  0.03665300  0.78383800  1
  N  N7  1  0.09632100  0.46334700  0.21616200  1
  N  N8  1  0.68568500  0.27595200  0.45716600  1
  N  N9  1  0.18568500  0.22404800  0.54283400  1
  N  N10  1  0.31431500  0.77595200  0.04283400  1
  N  N11  1  0.81431500  0.72404800  0.95716600  1
  N  N12  1  0.31431500  0.72404800  0.54283400  1
  N  N13  1  0.81431500  0.77595200  0.45716600  1
  N  N14  1  0.68568500  0.22404800  0.95716600  1
  N  N15  1  0.18568500  0.27595200  0.04283400  1
  N  N16  1  0.69288800  0.42596900  0.08732200  1
  N  N17  1  0.19288800  0.07403100  0.91267800  1
  N  N18  1  0.30711200  0.92596900  0.41267800  1
  N  N19  1  0.80711200  0.57403100  0.58732200  1
  N  N20  1  0.30711200  0.57403100  0.91267800  1
  N  N21  1  0.80711200  0.92596900  0.08732200  1
  N  N22  1  0.69288800  0.07403100  0.58732200  1
  N  N23  1  0.19288800  0.42596900  0.41267800  1
  N  N24  1  0.78119100  0.17405500  0.16179600  1
  N  N25  1  0.28119100  0.32594500  0.83820400  1
  N  N26  1  0.21880900  0.67405500  0.33820400  1
  N  N27  1  0.71880900  0.82594500  0.66179600  1
  N  N28  1  0.21880900  0.82594500  0.83820400  1
  N  N29  1  0.71880900  0.67405500  0.16179600  1
  N  N30  1  0.78119100  0.32594500  0.66179600  1
  N  N31  1  0.28119100  0.17405500  0.33820400  1
loop_
_geom_bond_atom_site_label_1
_geom_bond_atom_site_label_2
_geom_bond_distance
_geom_bond_site_symmetry_2
Ca0 N22 2.397352 1_555
Ca0 N5 2.453244 1_545
Ca0 N18 2.456846 1_545
Ca0 N13 2.569787 1_545
Ca0 N8 2.770282 1_555
Ca1 N23 2.397352 1_555
Ca1 N4 2.453244 1_555
Ca1 N19 2.456846 1_455
Ca1 N12 2.569787 1_555
Ca1 N9 2.770282 1_555
Ca2 N20 2.397352 1_554
Ca2 N7 2.453244 1_555
Ca2 N16 2.456846 1_555
Ca2 N15 2.569787 1_555
Ca2 N10 2.770282 1_555
Ca3 N21 2.397352 1_556
Ca3 N6 2.453244 1_565
Ca3 N17 2.456846 1_665
Ca3 N14 2.569787 1_565
Ca3 N11 2.770282 1_555
Ca4 N18 2.397352 1_555
Ca4 N1 2.453244 1_565
Ca4 N22 2.456846 1_565
Ca4 N9 2.569787 1_565
Ca4 N12 2.770282 1_555
Ca5 N19 2.397352 1_555
Ca5 N0 2.453244 1_555
Ca5 N23 2.456846 1_655
Ca5 N8 2.569787 1_555
Ca5 N13 2.770282 1_555
Ca6 N16 2.397352 1_556
Ca6 N3 2.453244 1_555
Ca6 N20 2.456846 1_555
Ca6 N11 2.569787 1_555
Ca6 N14 2.770282 1_555
Ca7 N17 2.397352 1_554
Ca7 N2 2.453244 1_545
Ca7 N21 2.456846 1_445
Ca7 N10 2.569787 1_545
Ca7 N15 2.770282 1_555
Ca8 N31 2.374048 1_655
Ca8 N8 2.459269 1_555
Ca8 N24 2.555960 1_555
Ca8 N0 2.557445 1_555
Ca8 N7 2.602369 1_655
Ca8 N23 2.665808 1_655
Ca9 N30 2.374048 1_555
Ca9 N9 2.459269 1_555
Ca9 N25 2.555960 1_555
Ca9 N1 2.557445 1_555
Ca9 N6 2.602369 1_555
Ca9 N22 2.665808 1_555
Ca10 N29 2.374048 1_455
Ca10 N10 2.459269 1_555
Ca10 N26 2.555960 1_555
Ca10 N2 2.557445 1_555
Ca10 N5 2.602369 1_455
Ca10 N21 2.665808 1_455
Ca11 N28 2.374048 1_555
Ca11 N11 2.459269 1_555
Ca11 N27 2.555960 1_555
Ca11 N3 2.557445 1_555
Ca11 N4 2.602369 1_555
Ca11 N20 2.665808 1_555
Ca12 N27 2.374048 1_455
Ca12 N12 2.459269 1_555
Ca12 N28 2.555960 1_555
Ca12 N4 2.557445 1_555
Ca12 N3 2.602369 1_455
Ca12 N19 2.665808 1_455
Ca13 N26 2.374048 1_555
Ca13 N13 2.459269 1_555
Ca13 N29 2.555960 1_555
Ca13 N5 2.557445 1_555
Ca13 N2 2.602369 1_555
Ca13 N18 2.665808 1_555
Ca14 N25 2.374048 1_655
Ca14 N14 2.459269 1_555
Ca14 N30 2.555960 1_555
Ca14 N6 2.557445 1_555
Ca14 N1 2.602369 1_655
Ca14 N17 2.665808 1_655
Ca15 N24 2.374048 1_555
Ca15 N15 2.459269 1_555
Ca15 N31 2.555960 1_555
Ca15 N7 2.557445 1_555
Ca15 N0 2.602369 1_555
Ca15 N16 2.665808 1_555
Mn0 N24 1.779449 1_555
Mn0 N5 1.799408 1_545
Mn0 N21 1.804815 1_545
Mn0 N2 1.831077 1_545
Mn1 N25 1.779449 1_555
Mn1 N4 1.799408 1_555
Mn1 N20 1.804815 1_555
Mn1 N3 1.831077 1_455
Mn2 N26 1.779449 1_555
Mn2 N7 1.799408 1_555
Mn2 N23 1.804815 1_555
Mn2 N0 1.831077 1_555
Mn3 N27 1.779449 1_555
Mn3 N6 1.799408 1_565
Mn3 N22 1.804815 1_565
Mn3 N1 1.831077 1_665
Mn4 N28 1.779449 1_555
Mn4 N1 1.799408 1_565
Mn4 N17 1.804815 1_565
Mn4 N6 1.831077 1_565
Mn5 N29 1.779449 1_555
Mn5 N0 1.799408 1_555
Mn5 N16 1.804815 1_555
Mn5 N7 1.831077 1_655
Mn6 N30 1.779449 1_555
Mn6 N3 1.799408 1_555
Mn6 N19 1.804815 1_555
Mn6 N4 1.831077 1_555
Mn7 N31 1.779449 1_555
Mn7 N2 1.799408 1_545
Mn7 N18 1.804815 1_545
Mn7 N5 1.831077 1_445
Mn8 N24 1.823868 1_555
Mn8 N14 1.850950 1_554
Mn8 N15 1.851244 1_655
Mn8 N16 1.867408 1_555
Mn9 N25 1.823868 1_555
Mn9 N15 1.850950 1_556
Mn9 N14 1.851244 1_555
Mn9 N17 1.867408 1_555
Mn10 N26 1.823868 1_555
Mn10 N12 1.850950 1_555
Mn10 N13 1.851244 1_455
Mn10 N18 1.867408 1_555
Mn11 N27 1.823868 1_555
Mn11 N13 1.850950 1_555
Mn11 N12 1.851244 1_555
Mn11 N19 1.867408 1_555
Mn12 N28 1.823868 1_555
Mn12 N10 1.850950 1_556
Mn12 N11 1.851244 1_455
Mn12 N20 1.867408 1_555
Mn13 N29 1.823868 1_555
Mn13 N11 1.850950 1_554
Mn13 N10 1.851244 1_555
Mn13 N21 1.867408 1_555
Mn14 N30 1.823868 1_555
Mn14 N8 1.850950 1_555
Mn14 N9 1.851244 1_655
Mn14 N22 1.867408 1_555
Mn15 N31 1.823868 1_555
Mn15 N9 1.850950 1_555
Mn15 N8 1.851244 1_555
Mn15 N23 1.867408 1_555
