# generated using pymatgen
data_VCu12Sn(AsS8)2
_symmetry_space_group_name_H-M   'P 1'
_cell_length_a   9.19527395
_cell_length_b   9.19527395
_cell_length_c   9.19527395
_cell_angle_alpha   109.42731731
_cell_angle_beta   109.42731731
_cell_angle_gamma   109.55906302
_symmetry_Int_Tables_number   1
_chemical_formula_structural   VCu12Sn(AsS8)2
_chemical_formula_sum   'V1 Cu12 Sn1 As2 S16'
_cell_volume   598.50993187
_cell_formula_units_Z   1
loop_
 _symmetry_equiv_pos_site_id
 _symmetry_equiv_pos_as_xyz
  1  'x, y, z'
loop_
 _atom_site_type_symbol
 _atom_site_label
 _atom_site_symmetry_multiplicity
 _atom_site_fract_x
 _atom_site_fract_y
 _atom_site_fract_z
 _atom_site_occupancy
  V  V0  1  0.00000000  0.00000000  0.00000000  1
  Cu  Cu0  1  0.24975000  0.24975000  0.49846300  1
  Cu  Cu1  1  0.75197600  0.00165000  0.25223000  1
  Cu  Cu2  1  0.00165000  0.75197600  0.25223000  1
  Cu  Cu3  1  0.24871300  0.75025000  0.00000000  1
  Cu  Cu4  1  0.25058000  0.99835000  0.75032600  1
  Cu  Cu5  1  0.50025400  0.24802400  0.24967400  1
  Cu  Cu6  1  0.75128700  0.75128700  0.50153700  1
  Cu  Cu7  1  0.74942000  0.49974600  0.74777000  1
  Cu  Cu8  1  0.49974600  0.74942000  0.74777000  1
  Cu  Cu9  1  0.75025000  0.24871300  0.00000000  1
  Cu  Cu10  1  0.24802400  0.50025400  0.24967400  1
  Cu  Cu11  1  0.99835000  0.25058000  0.75032600  1
  Sn  Sn0  1  0.50000000  0.50000000  0.00000000  1
  As  As0  1  0.50000000  0.00000000  0.50000000  1
  As  As1  1  0.00000000  0.50000000  0.50000000  1
  S  S0  1  0.23148600  0.23148600  0.73242900  1
  S  S1  1  0.75267700  0.00026900  0.50120300  1
  S  S2  1  0.00026900  0.75267700  0.50120300  1
  S  S3  1  0.50094300  0.76851400  0.00000000  1
  S  S4  1  0.50093300  0.99973100  0.75240800  1
  S  S5  1  0.74852600  0.24732300  0.24759200  1
  S  S6  1  0.49905700  0.49905700  0.26757100  1
  S  S7  1  0.49906700  0.25147400  0.49879700  1
  S  S8  1  0.25147400  0.49906700  0.49879700  1
  S  S9  1  0.76851400  0.50094300  0.00000000  1
  S  S10  1  0.24732300  0.74852600  0.24759200  1
  S  S11  1  0.99973100  0.50093300  0.75240800  1
  S  S12  1  0.99952500  0.99952500  0.23981700  1
  S  S13  1  0.24029200  0.00047500  0.00000000  1
  S  S14  1  0.75970800  0.75970800  0.76018300  1
  S  S15  1  0.00047500  0.24029200  0.00000000  1
loop_
_geom_bond_atom_site_label_1
_geom_bond_atom_site_label_2
_geom_bond_distance
_geom_bond_site_symmetry_2
Cu0 S0 2.268627 1_555
Cu0 S7 2.286251 1_555
Cu0 S8 2.286251 1_555
Cu0 S12 2.327954 1_445
Cu1 S3 2.262973 1_545
Cu1 S5 2.284123 1_555
Cu1 S1 2.291510 1_555
Cu1 S12 2.322929 1_545
Cu2 S9 2.262973 1_455
Cu2 S10 2.284123 1_555
Cu2 S2 2.291510 1_555
Cu2 S12 2.322929 1_455
Cu3 S3 2.268627 1_555
Cu3 S10 2.286241 1_555
Cu3 S11 2.286245 1_454
Cu3 S13 2.327954 1_565
Cu4 S0 2.262973 1_565
Cu4 S2 2.284123 1_555
Cu4 S4 2.291501 1_555
Cu4 S13 2.322929 1_566
Cu5 S6 2.262973 1_555
Cu5 S7 2.284120 1_555
Cu5 S5 2.291510 1_555
Cu5 S13 2.322929 1_555
Cu6 S6 2.268627 1_555
Cu6 S1 2.286241 1_565
Cu6 S2 2.286241 1_655
Cu6 S14 2.327954 1_555
Cu7 S9 2.262973 1_556
Cu7 S11 2.284126 1_555
Cu7 S7 2.291507 1_555
Cu7 S14 2.322929 1_555
Cu8 S3 2.262973 1_556
Cu8 S4 2.284126 1_555
Cu8 S8 2.291507 1_555
Cu8 S14 2.322929 1_555
Cu9 S9 2.268627 1_555
Cu9 S5 2.286241 1_555
Cu9 S4 2.286245 1_544
Cu9 S15 2.327954 1_655
Cu10 S6 2.262973 1_555
Cu10 S8 2.284120 1_555
Cu10 S10 2.291510 1_555
Cu10 S15 2.322929 1_555
Cu11 S0 2.262973 1_655
Cu11 S1 2.284123 1_555
Cu11 S11 2.291501 1_555
Cu11 S15 2.322929 1_656
As0 S7 2.318943 1_555
As0 S10 2.318946 1_545
As0 S1 2.318946 1_555
As0 S4 2.318949 1_545
As1 S8 2.318943 1_555
As1 S5 2.318946 1_455
As1 S2 2.318946 1_555
As1 S11 2.318949 1_455
S0 Sn0 2.466170 1_556
S3 Sn0 2.466170 1_555
S6 Sn0 2.466170 1_555
S9 Sn0 2.466170 1_555
S12 V0 2.208092 1_665
S13 V0 2.208092 1_555
S14 V0 2.208092 1_666
S15 V0 2.208092 1_555
