# generated using pymatgen
data_Nb2Tc
_symmetry_space_group_name_H-M   'P 1'
_cell_length_a   5.66109398
_cell_length_b   5.66109398
_cell_length_c   13.88908363
_cell_angle_alpha   97.58735101
_cell_angle_beta   97.58735101
_cell_angle_gamma   110.61647802
_symmetry_Int_Tables_number   1
_chemical_formula_structural   Nb2Tc
_chemical_formula_sum   'Nb16 Tc8'
_cell_volume   405.24555569
_cell_formula_units_Z   8
loop_
 _symmetry_equiv_pos_site_id
 _symmetry_equiv_pos_as_xyz
  1  'x, y, z'
loop_
 _atom_site_type_symbol
 _atom_site_label
 _atom_site_symmetry_multiplicity
 _atom_site_fract_x
 _atom_site_fract_y
 _atom_site_fract_z
 _atom_site_occupancy
  Nb  Nb0_0  1  0.33023123  0.33023123  0.16046197  1
  Nb  Nb0_1  1  0.33023123  0.33023123  0.66046197  1
  Nb  Nb0_2  1  0.33023123  0.83023123  0.16046197  1
  Nb  Nb0_3  1  0.33023123  0.83023123  0.66046197  1
  Nb  Nb0_4  1  0.83023123  0.33023123  0.16046197  1
  Nb  Nb0_5  1  0.83023123  0.33023123  0.66046197  1
  Nb  Nb0_6  1  0.83023123  0.83023123  0.16046197  1
  Nb  Nb0_7  1  0.83023123  0.83023123  0.66046197  1
  Nb  Nb1_0  1  0.16976877  0.16976877  0.33953804  1
  Nb  Nb1_1  1  0.16976877  0.16976877  0.83953804  1
  Nb  Nb1_2  1  0.16976877  0.66976877  0.33953804  1
  Nb  Nb1_3  1  0.16976877  0.66976877  0.83953804  1
  Nb  Nb1_4  1  0.66976877  0.16976877  0.33953804  1
  Nb  Nb1_5  1  0.66976877  0.16976877  0.83953804  1
  Nb  Nb1_6  1  0.66976877  0.66976877  0.33953804  1
  Nb  Nb1_7  1  0.66976877  0.66976877  0.83953804  1
  Tc  Tc0_0  1  0.00000000  0.00000000  0.00000000  1
  Tc  Tc0_1  1  0.00000000  0.00000000  0.50000000  1
  Tc  Tc0_2  1  0.00000000  0.50000000  0.00000000  1
  Tc  Tc0_3  1  1.00000000  0.50000000  0.50000000  1
  Tc  Tc0_4  1  0.50000000  0.00000000  0.00000000  1
  Tc  Tc0_5  1  0.50000000  0.00000000  0.50000000  1
  Tc  Tc0_6  1  0.50000000  0.50000000  0.00000000  1
  Tc  Tc0_7  1  0.50000000  0.50000000  0.50000000  1
loop_
_geom_bond_atom_site_label_1
_geom_bond_atom_site_label_2
_geom_bond_distance
_geom_bond_site_symmetry_2
Nb0_0 Tc0_6 2.700943 1_555
Nb0_0 Tc0_0 2.700945 1_555
Nb0_0 Nb0_4 2.830547 1_555
Nb0_0 Nb0_2 2.830547 1_555
Nb0_0 Nb0_2 2.830547 1_545
Nb0_0 Nb0_4 2.830547 1_455
Nb0_0 Nb1_6 2.906662 1_555
Nb0_0 Nb1_0 2.906665 1_555
Nb0_1 Tc0_7 2.700943 1_555
Nb0_1 Tc0_1 2.700945 1_555
Nb0_1 Nb0_3 2.830547 1_545
Nb0_1 Nb0_5 2.830547 1_455
Nb0_1 Nb0_5 2.830547 1_555
Nb0_1 Nb0_3 2.830547 1_555
Nb0_1 Nb1_7 2.906662 1_555
Nb0_1 Nb1_1 2.906665 1_555
Nb0_2 Tc0_4 2.700943 1_565
Nb0_2 Tc0_2 2.700945 1_555
Nb0_2 Nb0_6 2.830547 1_455
Nb0_2 Nb0_6 2.830547 1_555
Nb0_2 Nb1_4 2.906662 1_565
Nb0_2 Nb1_2 2.906665 1_555
Nb0_3 Tc0_5 2.700943 1_565
Nb0_3 Tc0_3 2.700945 1_455
Nb0_3 Nb0_7 2.830547 1_455
Nb0_3 Nb0_7 2.830547 1_555
Nb0_3 Nb1_5 2.906662 1_565
Nb0_3 Nb1_3 2.906665 1_555
Nb0_4 Tc0_2 2.700943 1_655
Nb0_4 Tc0_4 2.700945 1_555
Nb0_4 Nb0_6 2.830547 1_545
Nb0_4 Nb0_6 2.830547 1_555
Nb0_4 Nb1_2 2.906662 1_655
Nb0_4 Nb1_4 2.906665 1_555
Nb0_5 Tc0_3 2.700943 1_555
Nb0_5 Tc0_5 2.700945 1_555
Nb0_5 Nb0_7 2.830547 1_545
Nb0_5 Nb0_7 2.830547 1_555
Nb0_5 Nb1_3 2.906662 1_655
Nb0_5 Nb1_5 2.906665 1_555
Nb0_6 Tc0_0 2.700943 1_665
Nb0_6 Tc0_6 2.700945 1_555
Nb0_6 Nb1_0 2.906662 1_665
Nb0_6 Nb1_6 2.906665 1_555
Nb0_7 Tc0_1 2.700943 1_665
Nb0_7 Tc0_7 2.700945 1_555
Nb0_7 Nb1_1 2.906662 1_665
Nb0_7 Nb1_7 2.906665 1_555
Nb1_0 Tc0_1 2.700943 1_555
Nb1_0 Tc0_7 2.700945 1_555
Nb1_0 Nb1_4 2.830547 1_555
Nb1_0 Nb1_2 2.830547 1_545
Nb1_0 Nb1_2 2.830547 1_555
Nb1_0 Nb1_4 2.830547 1_455
Nb1_1 Tc0_0 2.700943 1_556
Nb1_1 Tc0_6 2.700945 1_556
Nb1_1 Nb1_5 2.830547 1_455
Nb1_1 Nb1_3 2.830547 1_545
Nb1_1 Nb1_5 2.830547 1_555
Nb1_1 Nb1_3 2.830547 1_555
Nb1_2 Tc0_3 2.700943 1_455
Nb1_2 Tc0_5 2.700945 1_565
Nb1_2 Nb1_6 2.830547 1_555
Nb1_2 Nb1_6 2.830547 1_455
Nb1_3 Tc0_2 2.700943 1_556
Nb1_3 Tc0_4 2.700945 1_566
Nb1_3 Nb1_7 2.830547 1_455
Nb1_3 Nb1_7 2.830547 1_555
Nb1_4 Tc0_5 2.700943 1_555
Nb1_4 Tc0_3 2.700945 1_555
Nb1_4 Nb1_6 2.830547 1_545
Nb1_4 Nb1_6 2.830547 1_555
Nb1_5 Tc0_4 2.700943 1_556
Nb1_5 Tc0_2 2.700945 1_656
Nb1_5 Nb1_7 2.830547 1_545
Nb1_5 Nb1_7 2.830547 1_555
Nb1_6 Tc0_7 2.700943 1_555
Nb1_6 Tc0_1 2.700945 1_665
Nb1_7 Tc0_6 2.700943 1_556
Nb1_7 Tc0_0 2.700945 1_666
Tc0_0 Tc0_2 2.830547 1_545
Tc0_0 Tc0_4 2.830547 1_455
Tc0_0 Tc0_4 2.830547 1_555
Tc0_0 Tc0_2 2.830547 1_555
Tc0_1 Tc0_3 2.830547 1_445
Tc0_1 Tc0_5 2.830547 1_555
Tc0_1 Tc0_5 2.830547 1_455
Tc0_1 Tc0_3 2.830547 1_455
Tc0_2 Tc0_6 2.830547 1_455
Tc0_2 Tc0_6 2.830547 1_555
Tc0_3 Tc0_7 2.830547 1_555
Tc0_3 Tc0_7 2.830547 1_655
Tc0_4 Tc0_6 2.830547 1_545
Tc0_4 Tc0_6 2.830547 1_555
Tc0_5 Tc0_7 2.830547 1_545
Tc0_5 Tc0_7 2.830547 1_555
