# generated using pymatgen
data_MoW2(SeS2)2
_symmetry_space_group_name_H-M   'P 1'
_cell_length_a   3.23416161
_cell_length_b   3.23416161
_cell_length_c   29.65297000
_cell_angle_alpha   90.00000000
_cell_angle_beta   90.00000000
_cell_angle_gamma   119.99999199
_symmetry_Int_Tables_number   1
_chemical_formula_structural   MoW2(SeS2)2
_chemical_formula_sum   'Mo1 W2 Se2 S4'
_cell_volume   268.61007610
_cell_formula_units_Z   1
loop_
 _symmetry_equiv_pos_site_id
 _symmetry_equiv_pos_as_xyz
  1  'x, y, z'
loop_
 _atom_site_type_symbol
 _atom_site_label
 _atom_site_symmetry_multiplicity
 _atom_site_fract_x
 _atom_site_fract_y
 _atom_site_fract_z
 _atom_site_occupancy
  Mo  Mo0  1  0.66666700  0.33333300  0.34697600  1
  W  W0  1  0.33333300  0.66666700  0.11564100  1
  W  W1  1  0.33333300  0.66666700  0.57834200  1
  Se  Se0  1  0.66666700  0.33333300  0.52046600  1
  Se  Se1  1  0.66666700  0.33333300  0.63618200  1
  S  S0  1  0.33333300  0.66666700  0.39923200  1
  S  S1  1  0.66666700  0.33333300  0.06315600  1
  S  S2  1  0.66666700  0.33333300  0.16813800  1
  S  S3  1  0.33333300  0.66666700  0.29470700  1
loop_
_geom_bond_atom_site_label_1
_geom_bond_atom_site_label_2
_geom_bond_distance
_geom_bond_site_symmetry_2
Mo0 S0 2.426455 1_545
Mo0 S0 2.426455 1_655
Mo0 S0 2.426459 1_555
Mo0 S3 2.426702 1_545
Mo0 S3 2.426702 1_655
Mo0 S3 2.426706 1_555
Se0 W1 2.536123 1_655
Se0 W1 2.536123 1_545
Se0 W1 2.536127 1_555
Se1 W1 2.535401 1_545
Se1 W1 2.535401 1_655
Se1 W1 2.535405 1_555
S1 W0 2.430797 1_545
S1 W0 2.430797 1_655
S1 W0 2.430802 1_555
S2 W0 2.431025 1_545
S2 W0 2.431025 1_655
S2 W0 2.431029 1_555
