# generated using pymatgen
data_TeW2Se2S
_symmetry_space_group_name_H-M   'P 1'
_cell_length_a   3.34200009
_cell_length_b   3.34200009
_cell_length_c   38.12599000
_cell_angle_alpha   90.00000000
_cell_angle_beta   90.00000000
_cell_angle_gamma   120.00000172
_symmetry_Int_Tables_number   1
_chemical_formula_structural   TeW2Se2S
_chemical_formula_sum   'Te2 W4 Se4 S2'
_cell_volume   368.77771371
_cell_formula_units_Z   2
loop_
 _symmetry_equiv_pos_site_id
 _symmetry_equiv_pos_as_xyz
  1  'x, y, z'
loop_
 _atom_site_type_symbol
 _atom_site_label
 _atom_site_symmetry_multiplicity
 _atom_site_fract_x
 _atom_site_fract_y
 _atom_site_fract_z
 _atom_site_occupancy
  Te  Te0  1  0.33333300  0.66666700  0.70756500  1
  Te  Te1  1  0.33333300  0.66666700  0.60756100  1
  W  W0  1  0.33333300  0.66666700  0.09392700  1
  W  W1  1  0.33333300  0.66666700  0.46962600  1
  W  W2  1  0.66666700  0.33333300  0.28179300  1
  W  W3  1  0.66666700  0.33333300  0.65757300  1
  Se  Se0  1  0.33333300  0.66666700  0.32567300  1
  Se  Se1  1  0.66666700  0.33333300  0.42574800  1
  Se  Se2  1  0.66666700  0.33333300  0.51353900  1
  Se  Se3  1  0.33333300  0.66666700  0.23789100  1
  S  S0  1  0.66666700  0.33333300  0.05398400  1
  S  S1  1  0.66666700  0.33333300  0.13386800  1
loop_
_geom_bond_atom_site_label_1
_geom_bond_atom_site_label_2
_geom_bond_distance
_geom_bond_site_symmetry_2
Te0 W3 2.712157 1_455
Te0 W3 2.712157 1_565
Te0 W3 2.712161 1_555
Te1 W3 2.712693 1_455
Te1 W3 2.712693 1_565
Te1 W3 2.712697 1_555
Se0 W2 2.553782 1_455
Se0 W2 2.553782 1_565
Se0 W2 2.553787 1_555
Se1 W1 2.553732 1_655
Se1 W1 2.553732 1_545
Se1 W1 2.553737 1_555
Se2 W1 2.554607 1_545
Se2 W1 2.554607 1_655
Se2 W1 2.554611 1_555
Se3 W2 2.554332 1_455
Se3 W2 2.554332 1_565
Se3 W2 2.554336 1_555
S0 W0 2.458069 1_545
S0 W0 2.458069 1_655
S0 W0 2.458073 1_555
S1 W0 2.458022 1_545
S1 W0 2.458022 1_655
S1 W0 2.458026 1_555
