# generated using pymatgen
data_ScCo3C
_symmetry_space_group_name_H-M   'P 1'
_cell_length_a   3.78085852
_cell_length_b   3.78097813
_cell_length_c   3.78097813
_cell_angle_alpha   90.00000000
_cell_angle_beta   90.00000000
_cell_angle_gamma   90.00000000
_symmetry_Int_Tables_number   1
_chemical_formula_structural   ScCo3C
_chemical_formula_sum   'Sc1 Co3 C1'
_cell_volume   54.05038067
_cell_formula_units_Z   1
loop_
 _symmetry_equiv_pos_site_id
 _symmetry_equiv_pos_as_xyz
  1  'x, y, z'
loop_
 _atom_site_type_symbol
 _atom_site_label
 _atom_site_symmetry_multiplicity
 _atom_site_fract_x
 _atom_site_fract_y
 _atom_site_fract_z
 _atom_site_occupancy
  Sc  Sc0  1  0.00000000  -0.00000000  -0.00000000  1
  Co  Co0  1  -0.00000000  0.50000000  0.50000000  1
  Co  Co1  1  0.50000000  0.00000000  0.50000000  1
  Co  Co2  1  0.50000000  0.50000000  0.00000000  1
  C  C0  1  0.50000000  0.50000000  0.50000000  1
loop_
_geom_bond_atom_site_label_1
_geom_bond_atom_site_label_2
_geom_bond_distance
_geom_bond_site_symmetry_2
Co0 Sc0 2.673555 1_555
Co0 Sc0 2.673555 1_556
Co0 Sc0 2.673555 1_565
Co0 Sc0 2.673555 1_566
Co1 Sc0 2.673513 1_555
Co1 Sc0 2.673513 1_556
Co1 Sc0 2.673513 1_656
Co1 Sc0 2.673513 1_655
Co2 Sc0 2.673513 1_555
Co2 Sc0 2.673513 1_665
Co2 Sc0 2.673513 1_565
Co2 Sc0 2.673513 1_655
C0 Co0 1.890429 1_555
C0 Co0 1.890429 1_655
C0 Co1 1.890489 1_555
C0 Co2 1.890489 1_556
C0 Co1 1.890489 1_565
C0 Co2 1.890489 1_555
