# generated using pymatgen
data_Mn2In2Se5
_symmetry_space_group_name_H-M   'P 1'
_cell_length_a   16.55933752
_cell_length_b   16.55933752
_cell_length_c   16.55933807
_cell_angle_alpha   14.10345650
_cell_angle_beta   14.10345650
_cell_angle_gamma   14.10345952
_symmetry_Int_Tables_number   1
_chemical_formula_structural   Mn2In2Se5
_chemical_formula_sum   'Mn2 In2 Se5'
_cell_volume   234.67317286
_cell_formula_units_Z   1
loop_
 _symmetry_equiv_pos_site_id
 _symmetry_equiv_pos_as_xyz
  1  'x, y, z'
loop_
 _atom_site_type_symbol
 _atom_site_label
 _atom_site_symmetry_multiplicity
 _atom_site_fract_x
 _atom_site_fract_y
 _atom_site_fract_z
 _atom_site_occupancy
  Mn  Mn0  1  0.30110700  0.30110700  0.30110700  1
  Mn  Mn1  1  0.69889300  0.69889300  0.69889300  1
  In  In0  1  0.44403000  0.44403000  0.44403000  1
  In  In1  1  0.55597000  0.55597000  0.55597000  1
  Se  Se0  1  0.86379900  0.86379900  0.86379900  1
  Se  Se1  1  0.13620100  0.13620100  0.13620100  1
  Se  Se2  1  0.60818500  0.60818500  0.60818500  1
  Se  Se3  1  0.39181500  0.39181500  0.39181500  1
  Se  Se4  1  0.00000000  0.00000000  0.00000000  1
loop_
_geom_bond_atom_site_label_1
_geom_bond_atom_site_label_2
_geom_bond_distance
_geom_bond_site_symmetry_2
Mn0 Se2 2.679060 1_554
Mn0 Se2 2.679060 1_455
Mn0 Se2 2.679060 1_545
Mn0 Se4 2.832282 1_556
Mn0 Se4 2.832282 1_565
Mn0 Se4 2.832282 1_655
Mn1 Se3 2.679060 1_556
Mn1 Se3 2.679060 1_565
Mn1 Se3 2.679060 1_655
Mn1 Se4 2.832282 1_665
Mn1 Se4 2.832282 1_656
Mn1 Se4 2.832282 1_566
In0 Se3 2.567742 1_555
In0 Se1 2.661458 1_556
In0 Se1 2.661458 1_565
In0 Se1 2.661458 1_655
In1 Se2 2.567742 1_555
In1 Se0 2.661458 1_554
In1 Se0 2.661458 1_455
In1 Se0 2.661458 1_545
