# generated using pymatgen
data_Na4Ga4Si19
_symmetry_space_group_name_H-M   'P 1'
_cell_length_a   10.37641000
_cell_length_b   10.39429193
_cell_length_c   10.40814840
_cell_angle_alpha   89.96858313
_cell_angle_beta   89.83174260
_cell_angle_gamma   89.85360590
_symmetry_Int_Tables_number   1
_chemical_formula_structural   Na4Ga4Si19
_chemical_formula_sum   'Na8 Ga8 Si38'
_cell_volume   1122.56670148
_cell_formula_units_Z   2
loop_
 _symmetry_equiv_pos_site_id
 _symmetry_equiv_pos_as_xyz
  1  'x, y, z'
loop_
 _atom_site_type_symbol
 _atom_site_label
 _atom_site_symmetry_multiplicity
 _atom_site_fract_x
 _atom_site_fract_y
 _atom_site_fract_z
 _atom_site_occupancy
  Na  Na0  1  0.00092400  0.00145200  0.99884500  1
  Na  Na1  1  0.74998000  0.49873400  0.00028000  1
  Na  Na2  1  0.24960000  0.49916500  0.00044300  1
  Na  Na3  1  0.99968900  0.74956200  0.50101800  1
  Na  Na4  1  0.00013400  0.25014800  0.50009500  1
  Na  Na5  1  0.49927700  0.00107400  0.75127900  1
  Na  Na6  1  0.49909300  0.00028600  0.24915800  1
  Na  Na7  1  0.50049800  0.49948100  0.49923100  1
  Ga  Ga0  1  0.25136900  0.99957900  0.50016700  1
  Ga  Ga1  1  0.99958800  0.49979000  0.24985500  1
  Ga  Ga2  1  0.49944600  0.74957000  0.00080900  1
  Ga  Ga3  1  0.88254400  0.99941100  0.69082300  1
  Ga  Ga4  1  0.99984700  0.30896300  0.88311500  1
  Ga  Ga5  1  0.30925500  0.11698300  0.99998100  1
  Ga  Ga6  1  0.49989900  0.38296400  0.19136000  1
  Ga  Ga7  1  0.80891400  0.50047000  0.61664200  1
  Si  Si0  1  0.74704700  0.99957300  0.49617700  1
  Si  Si1  1  0.00382800  0.50402000  0.75007000  1
  Si  Si2  1  0.50338000  0.25093100  0.99727700  1
  Si  Si3  1  0.81389300  0.81374600  0.81823000  1
  Si  Si4  1  0.18583300  0.18220000  0.81148900  1
  Si  Si5  1  0.81701400  0.18380000  0.18516900  1
  Si  Si6  1  0.18277300  0.81587400  0.18291800  1
  Si  Si7  1  0.31590500  0.31516800  0.68290900  1
  Si  Si8  1  0.68178500  0.68678900  0.68612300  1
  Si  Si9  1  0.68718200  0.31574200  0.31761000  1
  Si  Si10  1  0.31697100  0.68391200  0.31721900  1
  Si  Si11  1  0.18085700  0.18385400  0.18878300  1
  Si  Si12  1  0.81594100  0.81609300  0.18325100  1
  Si  Si13  1  0.18427700  0.81704500  0.81677500  1
  Si  Si14  1  0.81129300  0.18487300  0.81687500  1
  Si  Si15  1  0.68342700  0.68332400  0.31591300  1
  Si  Si16  1  0.31205700  0.31597600  0.31872300  1
  Si  Si17  1  0.31687500  0.68369300  0.68403400  1
  Si  Si18  1  0.68211300  0.31215500  0.68477700  1
  Si  Si19  1  0.11947800  0.99958000  0.69403200  1
  Si  Si20  1  0.88030200  0.99897900  0.30562000  1
  Si  Si21  1  0.11489200  0.99910900  0.30568200  1
  Si  Si22  1  0.00007200  0.69411300  0.88099700  1
  Si  Si23  1  0.00019600  0.69516300  0.11468900  1
  Si  Si24  1  0.00000600  0.30470300  0.11955500  1
  Si  Si25  1  0.69521000  0.88489400  0.00090900  1
  Si  Si26  1  0.69390800  0.11905300  0.00045500  1
  Si  Si27  1  0.30438200  0.88055800  0.00003800  1
  Si  Si28  1  0.49952300  0.38041400  0.80539200  1
  Si  Si29  1  0.49950000  0.61509200  0.80456500  1
  Si  Si30  1  0.50028400  0.61955800  0.19571000  1
  Si  Si31  1  0.19447000  0.50132200  0.61888600  1
  Si  Si32  1  0.19478700  0.50096200  0.38584000  1
  Si  Si33  1  0.80483200  0.50011200  0.38154300  1
  Si  Si34  1  0.38456400  0.19578100  0.49907300  1
  Si  Si35  1  0.61805400  0.19346400  0.49950300  1
  Si  Si36  1  0.38503800  0.80402600  0.49988800  1
  Si  Si37  1  0.61799500  0.80671500  0.50020300  1
loop_
_geom_bond_atom_site_label_1
_geom_bond_atom_site_label_2
_geom_bond_distance
_geom_bond_site_symmetry_2
Na0 Si13 3.293777 1_545
Na0 Si6 3.309153 1_546
Na0 Si5 3.310410 1_456
Na0 Si4 3.317546 1_555
Na0 Si11 3.321523 1_556
Na0 Si12 3.327674 1_446
Na0 Si14 3.330547 1_455
Na0 Si3 3.339422 1_445
Na0 Si27 3.387356 1_546
Na0 Si24 3.393858 1_556
Na0 Si25 3.398593 1_446
Na0 Si19 3.399369 1_545
Na0 Si23 3.403727 1_546
Na0 Si21 3.408834 1_546
Na0 Si26 3.409272 1_456
Na0 Si22 3.422626 1_545
Na0 Si20 3.426196 1_446
Na3 Si32 3.489260 1_655
Na3 Si31 3.497463 1_655
Na3 Si21 3.505185 1_655
Na3 Si19 3.517272 1_655
Na3 Si20 3.519153 1_555
Na3 Si33 3.521714 1_555
Na7 Si15 3.299742 1_555
Na7 Si10 3.299832 1_555
Na7 Si9 3.307083 1_555
Na7 Si17 3.310617 1_555
Na7 Si7 3.314682 1_555
Na7 Si16 3.322022 1_555
Na7 Si18 3.327260 1_555
Na7 Si8 3.340252 1_555
Na7 Si34 3.381070 1_555
Na7 Si36 3.381800 1_555
Na7 Si33 3.383804 1_555
Na7 Si32 3.387853 1_555
Na7 Si30 3.396080 1_555
Na7 Si29 3.398168 1_555
Na7 Si35 3.403793 1_555
Na7 Si31 3.407560 1_555
Na7 Si28 3.417831 1_555
Na7 Si37 3.421237 1_555
Ga0 Si19 2.434778 1_555
Ga0 Si36 2.457839 1_555
Ga0 Si34 2.466506 1_565
Ga0 Si21 2.473836 1_555
Ga1 Si33 2.438492 1_555
Ga1 Si24 2.440107 1_655
Ga1 Si23 2.469835 1_655
Ga1 Si32 2.474441 1_655
Ga2 Si27 2.436526 1_555
Ga2 Si30 2.436883 1_555
Ga2 Si25 2.473747 1_555
Ga2 Si29 2.475668 1_554
Ga3 Si14 2.444150 1_565
Ga3 Si3 2.447228 1_555
Ga3 Si19 2.458854 1_655
Ga3 Si0 2.469365 1_555
Ga3 Na0 3.436669 1_665
Ga3 Na3 3.478511 1_555
Ga3 Na4 3.495472 1_665
Ga4 Si14 2.447185 1_555
Ga4 Si4 2.448649 1_655
Ga4 Si1 2.454981 1_655
Ga4 Si24 2.461282 1_656
Ga4 Na0 3.415174 1_655
Ga4 Na1 3.472484 1_556
Ga4 Na2 3.487597 1_656
Ga5 Si4 2.440776 1_555
Ga5 Si2 2.451677 1_555
Ga5 Si27 2.458119 1_546
Ga5 Si11 2.470042 1_556
Ga5 Na0 3.420240 1_555
Ga5 Na5 3.464258 1_555
Ga5 Na6 3.477359 1_556
Ga6 Si2 2.442887 1_554
Ga6 Si9 2.449174 1_555
Ga6 Si16 2.455995 1_555
Ga6 Si30 2.459682 1_555
Ga6 Na7 3.426253 1_555
Ga6 Na1 3.481390 1_555
Ga6 Na2 3.487765 1_555
Ga7 Si33 2.447441 1_555
Ga7 Si8 2.448799 1_555
Ga7 Si1 2.457118 1_655
Ga7 Si18 2.464073 1_555
Ga7 Na7 3.429026 1_555
Ga7 Na3 3.475530 1_555
Ga7 Na4 3.484444 1_655
Si0 Si37 2.413864 1_555
Si0 Si20 2.414424 1_555
Si0 Si35 2.416699 1_565
Si1 Si31 2.400447 1_555
Si1 Si22 2.401010 1_555
Si2 Si26 2.403150 1_556
Si2 Si28 2.408097 1_555
Si3 Si8 2.352324 1_555
Si4 Si7 2.349414 1_555
Si5 Si9 2.361709 1_555
Si10 Si30 2.375978 1_555
Si10 Si36 2.384813 1_555
Si10 Si32 2.395670 1_555
Si10 Si6 2.402904 1_555
Si11 Si16 2.364497 1_555
Si11 Si24 2.369289 1_555
Si11 Si21 2.373956 1_545
Si12 Si25 2.385481 1_555
Si12 Si20 2.386625 1_555
Si12 Si15 2.387082 1_555
Si12 Si23 2.392761 1_655
Si13 Si27 2.376304 1_556
Si13 Si19 2.383248 1_555
Si13 Si17 2.388373 1_555
Si13 Si22 2.395202 1_555
Si14 Si18 2.331778 1_555
Si14 Si26 2.364680 1_556
Si15 Si30 2.374287 1_555
Si15 Si33 2.381496 1_555
Si15 Si37 2.403271 1_555
Si16 Si32 2.377051 1_555
Si16 Si34 2.377260 1_555
Si17 Si29 2.383129 1_555
Si17 Si31 2.384351 1_555
Si17 Si36 2.394171 1_555
Si18 Si28 2.376789 1_555
Si18 Si35 2.386790 1_555
Si19 Si4 2.363462 1_565
Si20 Si5 2.385217 1_565
Si20 Si21 2.434208 1_655
Si21 Si6 2.397244 1_555
Si22 Si3 2.387351 1_455
Si22 Si23 2.432336 1_556
Si23 Si6 2.385102 1_555
Si24 Si5 2.377973 1_455
Si25 Si3 2.379449 1_554
Si25 Si26 2.433922 1_565
Si26 Si5 2.408534 1_555
Si27 Si6 2.378291 1_555
Si28 Si7 2.395219 1_555
Si28 Si29 2.439322 1_555
Si29 Si8 2.375967 1_555
Si31 Si7 2.401423 1_555
Si31 Si32 2.425575 1_555
Si33 Si9 2.371456 1_555
Si34 Si7 2.387185 1_555
Si34 Si35 2.422863 1_555
Si35 Si9 2.389158 1_555
Si36 Si37 2.417502 1_555
Si37 Si8 2.395247 1_555
