# generated using pymatgen
data_Li9Mn7O16
_symmetry_space_group_name_H-M   'P 1'
_cell_length_a   3.01347700
_cell_length_b   10.19856582
_cell_length_c   10.78974339
_cell_angle_alpha   114.92774330
_cell_angle_beta   93.56030523
_cell_angle_gamma   93.64934492
_symmetry_Int_Tables_number   1
_chemical_formula_structural   Li9Mn7O16
_chemical_formula_sum   'Li9 Mn7 O16'
_cell_volume   298.64860488
_cell_formula_units_Z   1
loop_
 _symmetry_equiv_pos_site_id
 _symmetry_equiv_pos_as_xyz
  1  'x, y, z'
loop_
 _atom_site_type_symbol
 _atom_site_label
 _atom_site_symmetry_multiplicity
 _atom_site_fract_x
 _atom_site_fract_y
 _atom_site_fract_z
 _atom_site_occupancy
  Li  Li0  1  0.13544800  0.68893300  0.25574900  1
  Li  Li1  1  0.86775300  0.82709400  0.75814300  1
  Li  Li2  1  0.60732100  0.94023900  0.24123500  1
  Li  Li3  1  0.61965300  0.43725900  0.24774200  1
  Li  Li4  1  0.38034700  0.56274100  0.75225800  1
  Li  Li5  1  0.13224700  0.17290600  0.24185700  1
  Li  Li6  1  0.86455200  0.31106700  0.74425100  1
  Li  Li7  1  0.39267900  0.05976100  0.75876500  1
  Li  Li8  1  0.50000000  0.00000000  0.00000000  1
  Mn  Mn0  1  0.99643400  0.75923500  0.00143700  1
  Mn  Mn1  1  0.00356600  0.24076500  0.99856300  1
  Mn  Mn2  1  0.75040900  0.87639900  0.50186100  1
  Mn  Mn3  1  0.24959100  0.12360100  0.49813900  1
  Mn  Mn4  1  0.74867200  0.37472400  0.49876100  1
  Mn  Mn5  1  0.50000000  0.50000000  0.00000000  1
  Mn  Mn6  1  0.25132800  0.62527600  0.50123900  1
  O  O0  1  0.52117800  0.71654500  0.10506800  1
  O  O1  1  0.34387400  0.83474500  0.61924300  1
  O  O2  1  0.06535100  0.95129300  0.11774300  1
  O  O3  1  0.08645300  0.46183800  0.11290500  1
  O  O4  1  0.84415700  0.58457900  0.61717800  1
  O  O5  1  0.52776700  0.22402100  0.10691400  1
  O  O6  1  0.34219300  0.33412100  0.61760000  1
  O  O7  1  0.84265900  0.08678000  0.61583000  1
  O  O8  1  0.65780700  0.66587900  0.38240000  1
  O  O9  1  0.47223300  0.77597900  0.89308600  1
  O  O10  1  0.15734100  0.91322000  0.38417000  1
  O  O11  1  0.15584300  0.41542100  0.38282200  1
  O  O12  1  0.91354700  0.53816200  0.88709500  1
  O  O13  1  0.65612600  0.16525500  0.38075700  1
  O  O14  1  0.47882200  0.28345500  0.89493200  1
  O  O15  1  0.93464900  0.04870700  0.88225700  1
loop_
_geom_bond_atom_site_label_1
_geom_bond_atom_site_label_2
_geom_bond_distance
_geom_bond_site_symmetry_2
Li0 O8 2.109816 1_555
Li0 O10 2.110511 1_555
Li0 O8 2.113408 1_455
Li0 O0 2.157006 1_555
Li0 O3 2.163451 1_555
Li0 O0 2.495515 1_455
Li1 O15 2.073481 1_565
Li1 O1 2.136555 1_555
Li1 O9 2.142088 1_555
Li1 O1 2.159203 1_655
Li1 O4 2.286657 1_555
Li1 O9 2.478136 1_655
Li2 O2 2.007107 1_655
Li2 O2 2.082138 1_555
Li2 O0 2.117169 1_555
Li2 O13 2.138129 1_565
Li2 O10 2.205346 1_555
Li2 O10 2.302286 1_655
Li3 O5 2.049520 1_555
Li3 O11 2.148106 1_555
Li3 O8 2.156402 1_555
Li3 O3 2.162158 1_655
Li3 O11 2.193535 1_655
Li3 O3 2.197626 1_555
Li4 O9 2.049520 1_555
Li4 O4 2.148106 1_555
Li4 O6 2.156402 1_555
Li4 O12 2.162158 1_455
Li4 O4 2.193535 1_455
Li4 O12 2.197626 1_555
Li5 O2 2.073481 1_545
Li5 O13 2.136555 1_555
Li5 O5 2.142088 1_555
Li5 O13 2.159203 1_455
Li5 O11 2.286657 1_555
Li5 O5 2.478136 1_455
Li6 O6 2.109816 1_555
Li6 O7 2.110511 1_555
Li6 O6 2.113408 1_655
Li6 O14 2.157006 1_555
Li6 O12 2.163451 1_555
Li6 O14 2.495515 1_655
Li7 O15 2.007107 1_455
Li7 O15 2.082138 1_555
Li7 O14 2.117169 1_555
Li7 O1 2.138129 1_545
Li7 O7 2.205346 1_555
Li7 O7 2.302286 1_455
Li8 O15 2.057206 1_554
Li8 O2 2.057206 1_545
Li8 O5 2.073544 1_555
Li8 O9 2.073544 1_544
Li8 O15 2.265853 1_454
Li8 O2 2.265853 1_645
Mn0 O2 1.816141 1_655
Mn0 O9 1.948594 1_654
Mn0 O9 1.965838 1_554
Mn0 O0 2.005196 1_555
Mn0 O12 2.052585 1_554
Mn0 O0 2.053958 1_655
Mn1 O15 1.816141 1_455
Mn1 O5 1.948594 1_456
Mn1 O5 1.965838 1_556
Mn1 O14 2.005196 1_555
Mn1 O3 2.052585 1_556
Mn1 O14 2.053958 1_455
Mn2 O10 1.947835 1_655
Mn2 O7 1.962276 1_565
Mn2 O1 1.966052 1_555
Mn2 O8 1.973621 1_555
Mn2 O10 2.270057 1_555
Mn2 O1 2.291686 1_655
Mn3 O7 1.947835 1_455
Mn3 O10 1.962276 1_545
Mn3 O13 1.966052 1_555
Mn3 O6 1.973621 1_555
Mn3 O7 2.270057 1_555
Mn3 O13 2.291686 1_455
Mn4 O11 1.950936 1_655
Mn4 O13 1.962103 1_555
Mn4 O4 1.966391 1_555
Mn4 O6 1.973351 1_555
Mn4 O11 2.276653 1_555
Mn4 O6 2.295996 1_655
Mn5 O3 1.927446 1_555
Mn5 O12 1.927446 1_554
Mn5 O14 2.007272 1_554
Mn5 O0 2.007272 1_555
Mn5 O3 2.231273 1_655
Mn5 O12 2.231273 1_454
Mn6 O4 1.950936 1_455
Mn6 O1 1.962103 1_555
Mn6 O11 1.966391 1_555
Mn6 O8 1.973351 1_555
Mn6 O4 2.276653 1_555
Mn6 O8 2.295996 1_455
