# generated using pymatgen
data_LaMg14Cd
_symmetry_space_group_name_H-M   'P 1'
_cell_length_a   6.57497282
_cell_length_b   6.55569669
_cell_length_c   10.36680371
_cell_angle_alpha   90.00000000
_cell_angle_beta   90.00000000
_cell_angle_gamma   119.90307173
_symmetry_Int_Tables_number   1
_chemical_formula_structural   LaMg14Cd
_chemical_formula_sum   'La1 Mg14 Cd1'
_cell_volume   387.35723698
_cell_formula_units_Z   1
loop_
 _symmetry_equiv_pos_site_id
 _symmetry_equiv_pos_as_xyz
  1  'x, y, z'
loop_
 _atom_site_type_symbol
 _atom_site_label
 _atom_site_symmetry_multiplicity
 _atom_site_fract_x
 _atom_site_fract_y
 _atom_site_fract_z
 _atom_site_occupancy
  La  La0  1  0.16397943  0.33198922  0.12500000  1
  Mg  Mg0  1  0.16644067  0.33321984  0.62500000  1
  Mg  Mg1  1  0.16566257  0.83283078  0.62500000  1
  Mg  Mg2  1  0.65954335  0.32093617  0.12500000  1
  Mg  Mg3  1  0.66679681  0.33392986  0.62500000  1
  Mg  Mg4  1  0.65954335  0.83860618  0.12500000  1
  Mg  Mg5  1  0.66679681  0.83286595  0.62500000  1
  Mg  Mg6  1  0.33617283  0.16335276  0.38241261  1
  Mg  Mg7  1  0.33617283  0.16335276  0.86758739  1
  Mg  Mg8  1  0.33617283  0.67282106  0.38241261  1
  Mg  Mg9  1  0.33617283  0.67282106  0.86758739  1
  Mg  Mg10  1  0.82778683  0.16389391  0.38377587  1
  Mg  Mg11  1  0.82778683  0.16389391  0.86622413  1
  Mg  Mg12  1  0.83459147  0.66729623  0.36923644  1
  Mg  Mg13  1  0.83459147  0.66729623  0.88076356  1
  Cd  Cd0  1  0.18178912  0.84089406  0.12500000  1
loop_
_geom_bond_atom_site_label_1
_geom_bond_atom_site_label_2
_geom_bond_distance
_geom_bond_site_symmetry_2
La0 Mg4 3.281131 1_445
La0 Mg2 3.281131 1_455
La0 Mg4 3.295042 1_555
La0 Mg2 3.295042 1_555
La0 Mg10 3.296742 1_455
La0 Mg11 3.296742 1_454
La0 Mg7 3.297440 1_554
La0 Mg6 3.297440 1_555
La0 Mg9 3.297446 1_554
La0 Mg8 3.297446 1_555
Mg0 Mg11 3.159006 1_455
Mg0 Mg10 3.159006 1_455
Mg0 Mg6 3.170037 1_555
Mg0 Mg7 3.170037 1_555
Mg0 Mg8 3.170043 1_555
Mg0 Mg9 3.170043 1_555
Mg0 Mg1 3.277851 1_555
Mg0 Mg1 3.277851 1_545
Mg0 Mg5 3.287468 1_445
Mg0 Mg3 3.287468 1_455
Mg0 Mg5 3.287510 1_555
Mg0 Mg3 3.287510 1_555
Mg1 Mg8 3.139152 1_555
Mg1 Mg9 3.139152 1_555
Mg1 Mg6 3.139158 1_565
Mg1 Mg7 3.139158 1_565
Mg1 Mg12 3.254369 1_455
Mg1 Mg13 3.254369 1_455
Mg1 Mg3 3.280143 1_455
Mg1 Mg5 3.280144 1_455
Mg1 Mg3 3.294829 1_565
Mg1 Mg5 3.294829 1_555
Mg2 Mg4 3.162009 1_545
Mg2 Mg7 3.243281 1_554
Mg2 Mg6 3.243281 1_555
Mg2 Mg4 3.393688 1_555
Mg3 Mg6 3.142738 1_555
Mg3 Mg7 3.142738 1_555
Mg3 Mg5 3.270874 1_555
Mg3 Mg5 3.284823 1_545
Mg4 Mg9 3.243281 1_554
Mg4 Mg8 3.243281 1_555
Mg5 Mg8 3.142739 1_555
Mg5 Mg9 3.142739 1_555
Mg6 Mg8 3.215777 1_545
Mg6 Mg8 3.339920 1_555
Mg7 Mg9 3.215777 1_545
Mg7 Mg9 3.339920 1_555
Mg10 Mg3 3.129389 1_555
Mg10 Mg5 3.129396 1_545
Mg10 Mg8 3.230612 1_545
Mg10 Mg6 3.230612 1_555
Mg10 Mg2 3.258199 1_555
Mg10 Mg4 3.258206 1_545
Mg10 Mg12 3.281541 1_555
Mg10 Mg12 3.281541 1_545
Mg10 Mg8 3.344424 1_655
Mg10 Mg6 3.344424 1_655
Mg11 Mg3 3.129389 1_555
Mg11 Mg5 3.129396 1_545
Mg11 Mg9 3.230612 1_545
Mg11 Mg7 3.230612 1_555
Mg11 Mg2 3.258199 1_556
Mg11 Mg4 3.258206 1_546
Mg11 Mg13 3.281541 1_555
Mg11 Mg13 3.281541 1_545
Mg11 Mg9 3.344424 1_655
Mg11 Mg7 3.344424 1_655
Mg12 Mg4 3.207096 1_555
Mg12 Mg2 3.207103 1_555
Mg12 Mg5 3.258752 1_555
Mg12 Mg3 3.258759 1_555
Mg12 Mg6 3.282820 1_665
Mg12 Mg8 3.282821 1_655
Mg12 Mg6 3.298125 1_555
Mg12 Mg8 3.298125 1_555
Mg13 Mg4 3.207096 1_556
Mg13 Mg2 3.207103 1_556
Mg13 Mg5 3.258752 1_555
Mg13 Mg3 3.258759 1_555
Mg13 Mg7 3.282820 1_665
Mg13 Mg9 3.282821 1_655
Mg13 Mg7 3.298125 1_555
Mg13 Mg9 3.298125 1_555
Cd0 Mg2 3.148725 1_565
Cd0 Mg4 3.148725 1_555
Cd0 Mg13 3.213540 1_454
Cd0 Mg12 3.213540 1_455
Cd0 Mg9 3.237392 1_554
Cd0 Mg8 3.237392 1_555
Cd0 Mg7 3.237398 1_564
Cd0 Mg6 3.237398 1_565
Cd0 La0 3.279420 1_555
Cd0 La0 3.279420 1_565
Cd0 Mg2 3.426299 1_455
Cd0 Mg4 3.426299 1_455
