# generated using pymatgen
data_Rb3Ca2Cl7
_symmetry_space_group_name_H-M   'P 1'
_cell_length_a   14.10631923
_cell_length_b   14.10631923
_cell_length_c   14.10631923
_cell_angle_alpha   158.11053497
_cell_angle_beta   158.11053497
_cell_angle_gamma   31.15070438
_symmetry_Int_Tables_number   1
_chemical_formula_structural   Rb3Ca2Cl7
_chemical_formula_sum   'Rb3 Ca2 Cl7'
_cell_volume   389.87830441
_cell_formula_units_Z   1
loop_
 _symmetry_equiv_pos_site_id
 _symmetry_equiv_pos_as_xyz
  1  'x, y, z'
loop_
 _atom_site_type_symbol
 _atom_site_label
 _atom_site_symmetry_multiplicity
 _atom_site_fract_x
 _atom_site_fract_y
 _atom_site_fract_z
 _atom_site_occupancy
  Rb  Rb0  1  0.31733851  0.31733851  0.00000000  1
  Rb  Rb1  1  0.68266149  0.68266149  0.00000000  1
  Rb  Rb2  1  0.50000000  0.50000000  -0.00000000  1
  Ca  Ca0  1  0.09987386  0.09987386  0.00000000  1
  Ca  Ca1  1  0.90012614  0.90012614  -0.00000000  1
  Cl  Cl0  1  0.59646817  0.09646817  0.50000000  1
  Cl  Cl1  1  0.40353183  0.90353183  0.50000000  1
  Cl  Cl2  1  0.09646817  0.59646817  0.50000000  1
  Cl  Cl3  1  0.90353183  0.40353183  0.50000000  1
  Cl  Cl4  1  0.19864359  0.19864359  -0.00000000  1
  Cl  Cl5  1  0.80135641  0.80135641  0.00000000  1
  Cl  Cl6  1  0.00000000  0.00000000  -0.00000000  1
loop_
_geom_bond_atom_site_label_1
_geom_bond_atom_site_label_2
_geom_bond_distance
_geom_bond_site_symmetry_2
Ca0 Cl2 2.679853 1_544
Ca0 Cl0 2.679853 1_454
Ca0 Cl2 2.679853 1_555
Ca0 Cl0 2.679853 1_555
Ca0 Cl4 2.684227 1_555
Ca0 Cl6 2.714234 1_555
Ca1 Cl1 2.679853 1_655
Ca1 Cl3 2.679853 1_554
Ca1 Cl1 2.679853 1_554
Ca1 Cl3 2.679853 1_565
Ca1 Cl5 2.684227 1_555
Ca1 Cl6 2.714234 1_665
Cl0 Rb1 3.558101 1_556
Cl0 Rb1 3.558101 1_545
Cl0 Rb2 3.747832 1_545
Cl0 Rb2 3.747832 1_556
Cl1 Rb0 3.558101 1_555
Cl1 Rb0 3.558101 1_566
Cl1 Rb2 3.747832 1_555
Cl1 Rb2 3.747832 1_566
Cl2 Rb1 3.558101 1_556
Cl2 Rb1 3.558101 1_455
Cl2 Rb2 3.747832 1_556
Cl2 Rb2 3.747832 1_455
Cl3 Rb0 3.558101 1_555
Cl3 Rb0 3.558101 1_656
Cl3 Rb2 3.747832 1_555
Cl3 Rb2 3.747832 1_656
Cl4 Rb0 3.225727 1_555
Cl4 Rb1 3.812446 1_545
Cl4 Rb1 3.812446 1_444
Cl4 Rb1 3.812446 1_455
Cl4 Rb1 3.812446 1_556
Cl5 Rb1 3.225727 1_555
Cl5 Rb0 3.812446 1_666
Cl5 Rb0 3.812446 1_565
Cl5 Rb0 3.812446 1_554
Cl5 Rb0 3.812446 1_655
Cl6 Rb2 3.787624 1_556
Cl6 Rb2 3.787624 1_444
Cl6 Rb2 3.787624 1_545
Cl6 Rb2 3.787624 1_455
