# generated using pymatgen
data_Er2ZnS4
_symmetry_space_group_name_H-M   'P 1'
_cell_length_a   6.26875028
_cell_length_b   7.78416264
_cell_length_c   13.36269376
_cell_angle_alpha   90.00000000
_cell_angle_beta   90.00000000
_cell_angle_gamma   90.00000000
_symmetry_Int_Tables_number   1
_chemical_formula_structural   Er2ZnS4
_chemical_formula_sum   'Er8 Zn4 S16'
_cell_volume   652.05898963
_cell_formula_units_Z   4
loop_
 _symmetry_equiv_pos_site_id
 _symmetry_equiv_pos_as_xyz
  1  'x, y, z'
loop_
 _atom_site_type_symbol
 _atom_site_label
 _atom_site_symmetry_multiplicity
 _atom_site_fract_x
 _atom_site_fract_y
 _atom_site_fract_z
 _atom_site_occupancy
  Er  Er0  1  0.49554392  0.75000000  0.23431602  1
  Er  Er1  1  0.00445608  0.75000000  0.73431602  1
  Er  Er2  1  0.50445608  0.25000000  0.76568398  1
  Er  Er3  1  0.99554392  0.25000000  0.26568398  1
  Er  Er4  1  0.00000000  0.50000000  -0.00000000  1
  Er  Er5  1  0.50000000  -0.00000000  0.50000000  1
  Er  Er6  1  0.00000000  -0.00000000  -0.00000000  1
  Er  Er7  1  0.50000000  0.50000000  0.50000000  1
  Zn  Zn0  1  0.91131401  0.75000000  0.40833910  1
  Zn  Zn1  1  0.58868599  0.75000000  0.90833910  1
  Zn  Zn2  1  0.08868599  0.25000000  0.59166090  1
  Zn  Zn3  1  0.41131401  0.25000000  0.09166090  1
  S  S0  1  0.27522140  0.75000000  0.40995260  1
  S  S1  1  0.22477860  0.75000000  0.90995260  1
  S  S2  1  0.72477860  0.25000000  0.59004740  1
  S  S3  1  0.77522140  0.25000000  0.09004740  1
  S  S4  1  0.75673419  0.75000000  0.57027722  1
  S  S5  1  0.74326581  0.75000000  0.07027722  1
  S  S6  1  0.24326581  0.25000000  0.42972278  1
  S  S7  1  0.25673419  0.25000000  0.92972278  1
  S  S8  1  0.74406950  0.51293676  0.33188213  1
  S  S9  1  0.75593050  0.98706324  0.83188213  1
  S  S10  1  0.25593050  0.01293676  0.66811787  1
  S  S11  1  0.24406950  0.48706324  0.16811787  1
  S  S12  1  0.25593050  0.48706324  0.66811787  1
  S  S13  1  0.24406950  0.01293676  0.16811787  1
  S  S14  1  0.74406950  0.98706324  0.33188213  1
  S  S15  1  0.75593050  0.51293676  0.83188213  1
loop_
_geom_bond_atom_site_label_1
_geom_bond_atom_site_label_2
_geom_bond_distance
_geom_bond_site_symmetry_2
Er0 S5 2.686333 1_555
Er0 S0 2.723210 1_555
Er0 S13 2.730710 1_565
Er0 S11 2.730710 1_555
Er0 S14 2.744489 1_555
Er0 S8 2.744489 1_555
Er1 S4 2.686333 1_455
Er1 S1 2.723210 1_555
Er1 S12 2.730710 1_555
Er1 S10 2.730710 1_565
Er1 S15 2.744489 1_455
Er1 S9 2.744489 1_455
Er2 S7 2.686333 1_555
Er2 S2 2.723210 1_555
Er2 S9 2.730710 1_545
Er2 S15 2.730710 1_555
Er2 S12 2.744489 1_555
Er2 S10 2.744489 1_555
Er3 S6 2.686333 1_655
Er3 S3 2.723210 1_555
Er3 S14 2.730710 1_545
Er3 S8 2.730710 1_555
Er3 S13 2.744489 1_655
Er3 S11 2.744489 1_655
Er4 S3 2.687091 1_455
Er4 S1 2.687091 1_554
Er4 S7 2.694280 1_554
Er4 S5 2.694280 1_455
Er4 S15 2.719903 1_454
Er4 S11 2.719903 1_555
Er5 S2 2.687091 1_555
Er5 S0 2.687091 1_545
Er5 S6 2.694280 1_555
Er5 S4 2.694280 1_545
Er5 S14 2.719903 1_545
Er5 S10 2.719903 1_555
Er6 S3 2.687091 1_455
Er6 S1 2.687091 1_544
Er6 S5 2.694280 1_445
Er6 S7 2.694280 1_554
Er6 S13 2.719903 1_555
Er6 S9 2.719903 1_444
Er7 S2 2.687091 1_555
Er7 S0 2.687091 1_555
Er7 S6 2.694280 1_555
Er7 S4 2.694280 1_555
Er7 S8 2.719903 1_555
Er7 S12 2.719903 1_555
S0 Zn0 2.281346 1_455
S1 Zn1 2.281346 1_555
S2 Zn2 2.281346 1_655
S3 Zn3 2.281346 1_555
S4 Zn0 2.370990 1_555
S5 Zn1 2.370990 1_554
S6 Zn2 2.370990 1_555
S7 Zn3 2.370990 1_556
S8 Zn0 2.355474 1_555
S9 Zn1 2.355474 1_555
S10 Zn2 2.355474 1_555
S11 Zn3 2.355474 1_555
S12 Zn2 2.355474 1_555
S13 Zn3 2.355474 1_555
S14 Zn0 2.355474 1_555
S15 Zn1 2.355474 1_555
