# generated using pymatgen
data_CuPb2(ClO)2
_symmetry_space_group_name_H-M   'P 1'
_cell_length_a   8.63439356
_cell_length_b   8.63439356
_cell_length_c   8.63439356
_cell_angle_alpha   153.14462837
_cell_angle_beta   153.14462837
_cell_angle_gamma   38.34407863
_symmetry_Int_Tables_number   1
_chemical_formula_structural   CuPb2(ClO)2
_chemical_formula_sum   'Cu1 Pb2 Cl2 O2'
_cell_volume   131.14926750
_cell_formula_units_Z   1
loop_
 _symmetry_equiv_pos_site_id
 _symmetry_equiv_pos_as_xyz
  1  'x, y, z'
loop_
 _atom_site_type_symbol
 _atom_site_label
 _atom_site_symmetry_multiplicity
 _atom_site_fract_x
 _atom_site_fract_y
 _atom_site_fract_z
 _atom_site_occupancy
  Cu  Cu0  1  0.00000000  0.00000000  0.00000000  1
  Pb  Pb0  1  0.60729400  0.60729400  0.00000000  1
  Pb  Pb1  1  0.39270600  0.39270600  0.00000000  1
  Cl  Cl0  1  0.18055200  0.18055200  0.00000000  1
  Cl  Cl1  1  0.81944800  0.81944800  0.00000000  1
  O  O0  1  0.00000000  0.50000000  0.50000000  1
  O  O1  1  0.50000000  0.00000000  0.50000000  1
loop_
_geom_bond_atom_site_label_1
_geom_bond_atom_site_label_2
_geom_bond_distance
_geom_bond_site_symmetry_2
Cu0 O1 2.005061 1_555
Cu0 O0 2.005061 1_555
Cu0 O1 2.005061 1_454
Cu0 O0 2.005061 1_544
Cl0 Cu0 2.944984 1_555
Cl0 Pb0 3.077069 1_444
Cl0 Pb0 3.077069 1_556
Cl0 Pb0 3.077069 1_455
Cl0 Pb0 3.077069 1_545
Cl1 Cu0 2.944984 1_665
Cl1 Pb1 3.077069 1_565
Cl1 Pb1 3.077069 1_655
Cl1 Pb1 3.077069 1_554
Cl1 Pb1 3.077069 1_666
O0 Pb0 2.661395 1_556
O0 Pb1 2.661395 1_455
O0 Pb0 2.661395 1_455
O0 Pb1 2.661395 1_556
O1 Pb0 2.661395 1_545
O1 Pb1 2.661395 1_556
O1 Pb1 2.661395 1_545
O1 Pb0 2.661395 1_556
