# generated using pymatgen
data_DyTlZn
_symmetry_space_group_name_H-M   'P 1'
_cell_length_a   4.71571390
_cell_length_b   4.71571390
_cell_length_c   7.27846900
_cell_angle_alpha   90.00000000
_cell_angle_beta   90.00000000
_cell_angle_gamma   119.99999853
_symmetry_Int_Tables_number   1
_chemical_formula_structural   DyTlZn
_chemical_formula_sum   'Dy2 Tl2 Zn2'
_cell_volume   140.17338834
_cell_formula_units_Z   2
loop_
 _symmetry_equiv_pos_site_id
 _symmetry_equiv_pos_as_xyz
  1  'x, y, z'
loop_
 _atom_site_type_symbol
 _atom_site_label
 _atom_site_symmetry_multiplicity
 _atom_site_fract_x
 _atom_site_fract_y
 _atom_site_fract_z
 _atom_site_occupancy
  Dy  Dy0  1  0.00000000  0.00000000  0.50000000  1
  Dy  Dy1  1  0.00000000  0.00000000  0.00000000  1
  Tl  Tl0  1  0.33333300  0.66666700  0.75000000  1
  Tl  Tl1  1  0.66666700  0.33333300  0.25000000  1
  Zn  Zn0  1  0.33333300  0.66666700  0.25000000  1
  Zn  Zn1  1  0.66666700  0.33333300  0.75000000  1
loop_
_geom_bond_atom_site_label_1
_geom_bond_atom_site_label_2
_geom_bond_distance
_geom_bond_site_symmetry_2
Dy0 Zn0 3.274698 1_545
Dy0 Tl0 3.274698 1_545
Dy0 Zn1 3.274698 1_455
Dy0 Tl1 3.274698 1_455
Dy0 Zn0 3.274701 1_555
Dy0 Zn1 3.274701 1_445
Dy0 Tl0 3.274701 1_555
Dy0 Tl0 3.274701 1_445
Dy0 Zn1 3.274701 1_555
Dy0 Tl1 3.274701 1_555
Dy0 Tl1 3.274701 1_445
Dy0 Zn0 3.274701 1_445
Dy1 Zn1 3.274698 1_454
Dy1 Zn0 3.274698 1_545
Dy1 Tl0 3.274698 1_544
Dy1 Tl1 3.274698 1_455
Dy1 Zn1 3.274701 1_554
Dy1 Zn1 3.274701 1_444
Dy1 Zn0 3.274701 1_555
Dy1 Tl0 3.274701 1_554
Dy1 Tl1 3.274701 1_555
Dy1 Tl0 3.274701 1_444
Dy1 Tl1 3.274701 1_445
Dy1 Zn0 3.274701 1_445
Tl0 Zn1 2.722616 1_455
Tl0 Zn1 2.722616 1_565
Tl0 Zn1 2.722624 1_555
Tl1 Zn0 2.722616 1_545
Tl1 Zn0 2.722616 1_655
Tl1 Zn0 2.722624 1_555
