# generated using pymatgen
data_Te6Mo3WSe2
_symmetry_space_group_name_H-M   'P 1'
_cell_length_a   3.49704988
_cell_length_b   3.49704988
_cell_length_c   39.56878800
_cell_angle_alpha   90.00000000
_cell_angle_beta   90.00000000
_cell_angle_gamma   119.99999773
_symmetry_Int_Tables_number   1
_chemical_formula_structural   Te6Mo3WSe2
_chemical_formula_sum   'Te6 Mo3 W1 Se2'
_cell_volume   419.07045480
_cell_formula_units_Z   1
loop_
 _symmetry_equiv_pos_site_id
 _symmetry_equiv_pos_as_xyz
  1  'x, y, z'
loop_
 _atom_site_type_symbol
 _atom_site_label
 _atom_site_symmetry_multiplicity
 _atom_site_fract_x
 _atom_site_fract_y
 _atom_site_fract_z
 _atom_site_occupancy
  Te  Te0  1  0.33333300  0.66666700  0.32805800  1
  Te  Te1  1  0.33333300  0.66666700  0.70406300  1
  Te  Te2  1  0.66666700  0.33333300  0.42336900  1
  Te  Te3  1  0.66666700  0.33333300  0.51592900  1
  Te  Te4  1  0.33333300  0.66666700  0.23547500  1
  Te  Te5  1  0.33333300  0.66666700  0.61102100  1
  Mo  Mo0  1  0.33333300  0.66666700  0.09393100  1
  Mo  Mo1  1  0.33333300  0.66666700  0.46969000  1
  Mo  Mo2  1  0.66666700  0.33333300  0.28178700  1
  W  W0  1  0.66666700  0.33333300  0.65757100  1
  Se  Se0  1  0.66666700  0.33333300  0.05305400  1
  Se  Se1  1  0.66666700  0.33333300  0.13480000  1
loop_
_geom_bond_atom_site_label_1
_geom_bond_atom_site_label_2
_geom_bond_distance
_geom_bond_site_symmetry_2
Te1 W0 2.731427 1_455
Te1 W0 2.731427 1_565
Te1 W0 2.731431 1_555
Te5 W0 2.732973 1_565
Te5 W0 2.732973 1_455
Te5 W0 2.732977 1_555
Mo0 Se1 2.586808 1_455
Mo0 Se1 2.586808 1_565
Mo0 Se1 2.586813 1_555
Mo0 Se0 2.587006 1_455
Mo0 Se0 2.587006 1_565
Mo0 Se0 2.587011 1_555
Mo1 Te3 2.724694 1_455
Mo1 Te3 2.724694 1_565
Mo1 Te3 2.724699 1_555
Mo1 Te2 2.726874 1_455
Mo1 Te2 2.726874 1_565
Mo1 Te2 2.726878 1_555
Mo2 Te0 2.725545 1_545
Mo2 Te0 2.725545 1_655
Mo2 Te0 2.725549 1_555
Mo2 Te4 2.726635 1_545
Mo2 Te4 2.726635 1_655
Mo2 Te4 2.726639 1_555
