# generated using pymatgen
data_Sr4Li2Si4N8O
_symmetry_space_group_name_H-M   'P 1'
_cell_length_a   9.37407300
_cell_length_b   9.37407300
_cell_length_c   5.60878800
_cell_angle_alpha   90.00000000
_cell_angle_beta   90.00000000
_cell_angle_gamma   90.00000000
_symmetry_Int_Tables_number   1
_chemical_formula_structural   Sr4Li2Si4N8O
_chemical_formula_sum   'Sr8 Li4 Si8 N16 O2'
_cell_volume   492.86239989
_cell_formula_units_Z   2
loop_
 _symmetry_equiv_pos_site_id
 _symmetry_equiv_pos_as_xyz
  1  'x, y, z'
loop_
 _atom_site_type_symbol
 _atom_site_label
 _atom_site_symmetry_multiplicity
 _atom_site_fract_x
 _atom_site_fract_y
 _atom_site_fract_z
 _atom_site_occupancy
  Sr  Sr0  1  0.94494800  0.73466800  0.50000000  1
  Sr  Sr1  1  0.05505200  0.26533200  0.50000000  1
  Sr  Sr2  1  0.44494800  0.76533200  0.00000000  1
  Sr  Sr3  1  0.55505200  0.23466800  0.00000000  1
  Sr  Sr4  1  0.26533200  0.94494800  0.50000000  1
  Sr  Sr5  1  0.73466800  0.05505200  0.50000000  1
  Sr  Sr6  1  0.23466800  0.44494800  0.00000000  1
  Sr  Sr7  1  0.76533200  0.55505200  0.00000000  1
  Li  Li0  1  0.00000000  0.00000000  0.18260200  1
  Li  Li1  1  0.50000000  0.50000000  0.68260200  1
  Li  Li2  1  0.00000000  0.00000000  0.81739800  1
  Li  Li3  1  0.50000000  0.50000000  0.31739800  1
  Si  Si0  1  0.62040500  0.73085300  0.50000000  1
  Si  Si1  1  0.37959500  0.26914700  0.50000000  1
  Si  Si2  1  0.12040500  0.76914700  0.00000000  1
  Si  Si3  1  0.87959500  0.23085300  0.00000000  1
  Si  Si4  1  0.26914700  0.62040500  0.50000000  1
  Si  Si5  1  0.73085300  0.37959500  0.50000000  1
  Si  Si6  1  0.23085300  0.12040500  0.00000000  1
  Si  Si7  1  0.76914700  0.87959500  0.00000000  1
  N  N0  1  0.43705800  0.70454800  0.50000000  1
  N  N1  1  0.56294200  0.29545200  0.50000000  1
  N  N2  1  0.93705800  0.79545200  0.00000000  1
  N  N3  1  0.06294200  0.20454800  0.00000000  1
  N  N4  1  0.29545200  0.43705800  0.50000000  1
  N  N5  1  0.70454800  0.56294200  0.50000000  1
  N  N6  1  0.20454800  0.93705800  0.00000000  1
  N  N7  1  0.79545200  0.06294200  0.00000000  1
  N  N8  1  0.67419200  0.82580800  0.25000000  1
  N  N9  1  0.32580800  0.17419200  0.25000000  1
  N  N10  1  0.17419200  0.67419200  0.75000000  1
  N  N11  1  0.82580800  0.32580800  0.75000000  1
  N  N12  1  0.17419200  0.67419200  0.25000000  1
  N  N13  1  0.82580800  0.32580800  0.25000000  1
  N  N14  1  0.32580800  0.17419200  0.75000000  1
  N  N15  1  0.67419200  0.82580800  0.75000000  1
  O  O0  1  0.00000000  0.00000000  0.50000000  1
  O  O1  1  0.50000000  0.50000000  0.00000000  1
loop_
_geom_bond_atom_site_label_1
_geom_bond_atom_site_label_2
_geom_bond_distance
_geom_bond_site_symmetry_2
Li0 O0 1.780218 1_555
Li0 N2 2.252481 1_445
Li0 N7 2.252481 1_455
Li0 N3 2.252481 1_555
Li0 N6 2.252481 1_545
Li1 O1 1.780218 1_556
Li1 N0 2.252481 1_555
Li1 N5 2.252481 1_555
Li1 N4 2.252481 1_555
Li1 N1 2.252481 1_555
Li2 O0 1.780218 1_555
Li2 N7 2.252481 1_456
Li2 N2 2.252481 1_446
Li2 N3 2.252481 1_556
Li2 N6 2.252481 1_546
Li3 O1 1.780218 1_555
Li3 N0 2.252481 1_555
Li3 N4 2.252481 1_555
Li3 N5 2.252481 1_555
Li3 N1 2.252481 1_555
N0 Si0 1.736307 1_555
N0 Si4 1.760583 1_555
N0 Sr4 2.769431 1_555
N0 Sr2 2.862649 1_556
N0 Sr2 2.862649 1_555
N1 Si1 1.736307 1_555
N1 Si5 1.760583 1_555
N1 Sr5 2.769431 1_555
N1 Sr3 2.862649 1_555
N1 Sr3 2.862649 1_556
N2 Si2 1.736307 1_655
N2 Si7 1.760583 1_555
N2 Sr7 2.769431 1_555
N2 Sr0 2.862649 1_555
N2 Sr0 2.862649 1_554
N3 Si3 1.736307 1_455
N3 Si6 1.760583 1_555
N3 Sr6 2.769431 1_555
N3 Sr1 2.862649 1_554
N3 Sr1 2.862649 1_555
N4 Si4 1.736307 1_555
N4 Si1 1.760583 1_555
N4 Sr1 2.769431 1_555
N4 Sr6 2.862649 1_555
N4 Sr6 2.862649 1_556
N5 Si5 1.736307 1_555
N5 Si0 1.760583 1_555
N5 Sr0 2.769431 1_555
N5 Sr7 2.862649 1_556
N5 Sr7 2.862649 1_555
N6 Si6 1.736307 1_565
N6 Si2 1.760583 1_555
N6 Sr2 2.769431 1_555
N6 Sr4 2.862649 1_554
N6 Sr4 2.862649 1_555
N7 Si7 1.736307 1_545
N7 Si3 1.760583 1_555
N7 Sr3 2.769431 1_555
N7 Sr5 2.862649 1_555
N7 Sr5 2.862649 1_554
N8 Si0 1.735708 1_555
N8 Si7 1.735708 1_555
N8 Sr2 2.627837 1_555
N8 Sr5 2.627837 1_565
N8 Sr7 3.022906 1_555
N8 Sr0 3.022906 1_555
N9 Si6 1.735708 1_555
N9 Si1 1.735708 1_555
N9 Sr4 2.627837 1_545
N9 Sr3 2.627837 1_555
N9 Sr1 3.022906 1_555
N9 Sr6 3.022906 1_555
N10 Si2 1.735708 1_556
N10 Si4 1.735708 1_555
N10 Sr0 2.627837 1_455
N10 Sr6 2.627837 1_556
N10 Sr2 3.022906 1_556
N10 Sr4 3.022906 1_555
N11 Si3 1.735708 1_556
N11 Si5 1.735708 1_555
N11 Sr7 2.627837 1_556
N11 Sr1 2.627837 1_655
N11 Sr5 3.022906 1_555
N11 Sr3 3.022906 1_556
N12 Si2 1.735708 1_555
N12 Si4 1.735708 1_555
N12 Sr0 2.627837 1_455
N12 Sr6 2.627837 1_555
N12 Sr2 3.022906 1_555
N12 Sr4 3.022906 1_555
N13 Si3 1.735708 1_555
N13 Si5 1.735708 1_555
N13 Sr7 2.627837 1_555
N13 Sr1 2.627837 1_655
N13 Sr5 3.022906 1_555
N13 Sr3 3.022906 1_555
N14 Si6 1.735708 1_556
N14 Si1 1.735708 1_555
N14 Sr4 2.627837 1_545
N14 Sr3 2.627837 1_556
N14 Sr1 3.022906 1_555
N14 Sr6 3.022906 1_556
N15 Si7 1.735708 1_556
N15 Si0 1.735708 1_555
N15 Sr2 2.627837 1_556
N15 Sr5 2.627837 1_565
N15 Sr7 3.022906 1_556
N15 Sr0 3.022906 1_555
O0 Sr0 2.540215 1_445
O0 Sr1 2.540215 1_555
O0 Sr5 2.540215 1_455
O0 Sr4 2.540215 1_545
O1 Sr3 2.540215 1_555
O1 Sr6 2.540215 1_555
O1 Sr7 2.540215 1_555
O1 Sr2 2.540215 1_555
