# generated using pymatgen
data_LaMgMnFeO6
_symmetry_space_group_name_H-M   'P 1'
_cell_length_a   5.48309500
_cell_length_b   5.34165397
_cell_length_c   7.65115934
_cell_angle_alpha   90.28286574
_cell_angle_beta   89.99991332
_cell_angle_gamma   89.99995775
_symmetry_Int_Tables_number   1
_chemical_formula_structural   LaMgMnFeO6
_chemical_formula_sum   'La2 Mg2 Mn2 Fe2 O12'
_cell_volume   224.09051531
_cell_formula_units_Z   2
loop_
 _symmetry_equiv_pos_site_id
 _symmetry_equiv_pos_as_xyz
  1  'x, y, z'
loop_
 _atom_site_type_symbol
 _atom_site_label
 _atom_site_symmetry_multiplicity
 _atom_site_fract_x
 _atom_site_fract_y
 _atom_site_fract_z
 _atom_site_occupancy
  La  La0  1  0.03359600  0.99218000  0.25040300  1
  La  La1  1  0.46640400  0.49218200  0.75039900  1
  Mg  Mg0  1  0.55574800  0.52642500  0.25081800  1
  Mg  Mg1  1  0.94425100  0.02642600  0.75081800  1
  Mn  Mn0  1  0.50212500  0.99948000  0.49915300  1
  Mn  Mn1  1  0.99787800  0.49948200  0.99915600  1
  Fe  Fe0  1  0.49970900  0.00131400  0.00262500  1
  Fe  Fe1  1  0.00030200  0.50131000  0.50263400  1
  O  O0  1  0.01921400  0.62745500  0.75556700  1
  O  O1  1  0.19480400  0.19973000  0.94251800  1
  O  O2  1  0.20407000  0.18843700  0.55782200  1
  O  O3  1  0.29592200  0.68844200  0.05782200  1
  O  O4  1  0.30519700  0.69973000  0.44251600  1
  O  O5  1  0.48078400  0.12745800  0.25556800  1
  O  O6  1  0.54435500  0.92380100  0.74448600  1
  O  O7  1  0.72764400  0.26578700  0.55112800  1
  O  O8  1  0.73374300  0.27538500  0.94547200  1
  O  O9  1  0.76625500  0.77538100  0.44547100  1
  O  O10  1  0.77235600  0.76578600  0.05113000  1
  O  O11  1  0.95564200  0.42380300  0.24448800  1
loop_
_geom_bond_atom_site_label_1
_geom_bond_atom_site_label_2
_geom_bond_distance
_geom_bond_site_symmetry_2
La0 O11 2.345522 1_465
La0 O9 2.394673 1_455
La0 O10 2.412603 1_455
La0 O5 2.556487 1_565
La0 O4 2.615601 1_555
La0 O3 2.617013 1_555
La0 O2 2.735107 1_565
La0 O1 2.754167 1_564
La1 O6 2.345499 1_555
La1 O8 2.394686 1_555
La1 O7 2.412592 1_555
La1 O0 2.556489 1_555
La1 O1 2.615629 1_555
La1 O2 2.617046 1_555
La1 O3 2.735152 1_556
La1 O4 2.754150 1_555
Mg0 O5 2.170901 1_555
Mg0 O4 2.209554 1_555
Mg0 O3 2.229733 1_555
Mg0 O11 2.260601 1_555
Mg0 O9 2.302008 1_555
Mg0 O10 2.323566 1_555
Mg1 O0 2.170920 1_645
Mg1 O1 2.209572 1_655
Mg1 O2 2.229694 1_655
Mg1 O6 2.260617 1_545
Mg1 O8 2.302022 1_555
Mg1 O7 2.323575 1_555
Mn0 O9 1.922035 1_555
Mn0 O7 1.924879 1_565
Mn0 O6 1.935966 1_555
Mn0 O2 1.971449 1_565
Mn0 O4 1.977515 1_555
Mn0 O5 1.991735 1_565
Mn1 O8 1.922054 1_555
Mn1 O10 1.924874 1_556
Mn1 O11 1.935962 1_556
Mn1 O3 1.971405 1_656
Mn1 O1 1.977517 1_655
Mn1 O0 1.991752 1_655
Fe0 O10 1.989988 1_545
Fe0 O8 1.996872 1_554
Fe0 O6 2.030802 1_544
Fe0 O1 2.033378 1_554
Fe0 O5 2.048740 1_555
Fe0 O3 2.055957 1_545
Fe1 O7 1.990001 1_455
Fe1 O9 1.996934 1_455
Fe1 O11 2.030858 1_455
Fe1 O4 2.033363 1_555
Fe1 O0 2.048666 1_555
Fe1 O2 2.055890 1_555
