# generated using pymatgen
data_YbB4Rh
_symmetry_space_group_name_H-M   'P 1'
_cell_length_a   3.53267300
_cell_length_b   5.94905100
_cell_length_c   11.51734800
_cell_angle_alpha   90.00000000
_cell_angle_beta   90.00000000
_cell_angle_gamma   90.00000000
_symmetry_Int_Tables_number   1
_chemical_formula_structural   YbB4Rh
_chemical_formula_sum   'Yb4 B16 Rh4'
_cell_volume   242.04918267
_cell_formula_units_Z   4
loop_
 _symmetry_equiv_pos_site_id
 _symmetry_equiv_pos_as_xyz
  1  'x, y, z'
loop_
 _atom_site_type_symbol
 _atom_site_label
 _atom_site_symmetry_multiplicity
 _atom_site_fract_x
 _atom_site_fract_y
 _atom_site_fract_z
 _atom_site_occupancy
  Yb  Yb0  1  0.00000000  0.13027200  0.64994100  1
  Yb  Yb1  1  0.00000000  0.86972800  0.35005900  1
  Yb  Yb2  1  0.00000000  0.63027200  0.85005900  1
  Yb  Yb3  1  0.00000000  0.36972800  0.14994100  1
  B  B0  1  0.50000000  0.78934900  0.68536300  1
  B  B1  1  0.50000000  0.21065100  0.31463700  1
  B  B2  1  0.50000000  0.28934900  0.81463700  1
  B  B3  1  0.50000000  0.71065100  0.18536300  1
  B  B4  1  0.50000000  0.86404600  0.52994300  1
  B  B5  1  0.50000000  0.13595400  0.47005700  1
  B  B6  1  0.50000000  0.36404600  0.97005700  1
  B  B7  1  0.50000000  0.63595400  0.02994300  1
  B  B8  1  0.50000000  0.02521500  0.19170800  1
  B  B9  1  0.50000000  0.97478500  0.80829200  1
  B  B10  1  0.50000000  0.52521500  0.30829200  1
  B  B11  1  0.50000000  0.47478500  0.69170800  1
  B  B12  1  0.50000000  0.11233700  0.04683500  1
  B  B13  1  0.50000000  0.88766300  0.95316500  1
  B  B14  1  0.50000000  0.61233700  0.45316500  1
  B  B15  1  0.50000000  0.38766300  0.54683500  1
  Rh  Rh0  1  0.00000000  0.64193400  0.59328000  1
  Rh  Rh1  1  0.00000000  0.35806600  0.40672000  1
  Rh  Rh2  1  0.00000000  0.14193400  0.90672000  1
  Rh  Rh3  1  0.00000000  0.85806600  0.09328000  1
loop_
_geom_bond_atom_site_label_1
_geom_bond_atom_site_label_2
_geom_bond_distance
_geom_bond_site_symmetry_2
B0 B9 1.794858 1_555
B0 B4 1.844360 1_555
B0 B11 1.872784 1_555
B0 Rh0 2.239153 1_655
B0 Rh0 2.239153 1_555
B0 Yb0 2.720266 1_565
B0 Yb0 2.720266 1_665
B0 Yb2 2.759279 1_655
B0 Yb2 2.759279 1_555
B1 B8 1.794858 1_555
B1 B5 1.844360 1_555
B1 B10 1.872784 1_555
B1 Rh1 2.239153 1_555
B1 Rh1 2.239153 1_655
B1 Yb1 2.720266 1_645
B1 Yb1 2.720266 1_545
B1 Yb3 2.759279 1_555
B1 Yb3 2.759279 1_655
B2 B6 1.844360 1_555
B2 B9 1.872784 1_545
B2 Rh2 2.239153 1_555
B2 Rh2 2.239153 1_655
B2 Yb2 2.720266 1_555
B2 Yb2 2.720266 1_655
B2 Yb0 2.759279 1_655
B2 Yb0 2.759279 1_555
B3 B7 1.844360 1_555
B3 B8 1.872784 1_565
B3 Rh3 2.239153 1_555
B3 Rh3 2.239153 1_655
B3 Yb3 2.720266 1_555
B3 Yb3 2.720266 1_655
B3 Yb1 2.759279 1_555
B3 Yb1 2.759279 1_655
B4 B5 1.758504 1_565
B4 Rh0 2.323372 1_655
B4 Rh0 2.323372 1_555
B4 Yb1 2.722754 1_655
B4 Yb1 2.722754 1_555
B4 Yb0 2.745620 1_665
B4 Yb0 2.745620 1_565
B5 Rh1 2.323372 1_655
B5 Rh1 2.323372 1_555
B5 Yb0 2.722754 1_555
B5 Yb0 2.722754 1_655
B5 Yb1 2.745620 1_645
B5 Yb1 2.745620 1_545
B6 B7 1.758504 1_556
B6 Rh2 2.323372 1_555
B6 Rh2 2.323372 1_655
B6 Yb3 2.722754 1_556
B6 Yb3 2.722754 1_656
B6 Yb2 2.745620 1_555
B6 Yb2 2.745620 1_655
B7 Rh3 2.323372 1_555
B7 Rh3 2.323372 1_655
B7 Yb2 2.722754 1_554
B7 Yb2 2.722754 1_654
B7 Yb3 2.745620 1_555
B7 Yb3 2.745620 1_655
B8 Rh3 2.322466 1_645
B8 Rh3 2.322466 1_545
B8 Yb1 2.702176 1_645
B8 Yb1 2.702176 1_545
B8 Yb3 2.748073 1_555
B8 Yb3 2.748073 1_655
B9 Rh2 2.322466 1_665
B9 Rh2 2.322466 1_565
B9 Yb0 2.702176 1_565
B9 Yb0 2.702176 1_665
B9 Yb2 2.748073 1_555
B9 Yb2 2.748073 1_655
B10 B14 1.747197 1_555
B10 B3 1.794858 1_555
B10 Rh1 2.322466 1_555
B10 Rh1 2.322466 1_655
B10 Yb3 2.702176 1_555
B10 Yb3 2.702176 1_655
B10 Yb1 2.748073 1_655
B10 Yb1 2.748073 1_555
B11 B15 1.747197 1_555
B11 B2 1.794858 1_555
B11 Rh0 2.322466 1_655
B11 Rh0 2.322466 1_555
B11 Yb2 2.702176 1_555
B11 Yb2 2.702176 1_655
B11 Yb0 2.748073 1_655
B11 Yb0 2.748073 1_555
B12 B13 1.717663 1_544
B12 B6 1.739036 1_554
B12 B8 1.747197 1_555
B12 Rh3 2.386265 1_645
B12 Rh3 2.386265 1_545
B12 Rh2 2.398989 1_654
B12 Rh2 2.398989 1_554
B12 Yb3 2.621982 1_655
B12 Yb3 2.621982 1_555
B13 B7 1.739036 1_556
B13 B9 1.747197 1_555
B13 Rh2 2.386265 1_665
B13 Rh2 2.386265 1_565
B13 Rh3 2.398989 1_556
B13 Rh3 2.398989 1_656
B13 Yb2 2.621982 1_555
B13 Yb2 2.621982 1_655
B14 B15 1.717663 1_555
B14 B4 1.739036 1_555
B14 Rh1 2.386265 1_655
B14 Rh1 2.386265 1_555
B14 Rh0 2.398989 1_655
B14 Rh0 2.398989 1_555
B14 Yb1 2.621982 1_655
B14 Yb1 2.621982 1_555
B15 B5 1.739036 1_555
B15 Rh0 2.386265 1_655
B15 Rh0 2.386265 1_555
B15 Rh1 2.398989 1_655
B15 Rh1 2.398989 1_555
B15 Yb0 2.621982 1_555
B15 Yb0 2.621982 1_655
Rh0 Rh1 2.732887 1_555
Rh0 Yb2 2.958227 1_555
Rh0 Yb0 2.977541 1_565
Rh0 Yb1 3.111835 1_555
Rh0 Yb0 3.113071 1_555
Rh1 Yb3 2.958227 1_555
Rh1 Yb1 2.977541 1_545
Rh1 Yb0 3.111835 1_555
Rh1 Yb1 3.113071 1_555
Rh2 Rh3 2.732887 1_546
Rh2 Yb0 2.958227 1_555
Rh2 Yb2 2.977541 1_555
Rh2 Yb3 3.111835 1_556
Rh2 Yb2 3.113071 1_545
Rh3 Yb1 2.958227 1_555
Rh3 Yb3 2.977541 1_555
Rh3 Yb2 3.111835 1_554
Rh3 Yb3 3.113071 1_565
