# generated using pymatgen
data_Ba4Sr(FeO3)5
_symmetry_space_group_name_H-M   'P 1'
_cell_length_a   5.66509584
_cell_length_b   5.66509796
_cell_length_c   20.66368764
_cell_angle_alpha   82.11158862
_cell_angle_beta   82.11189420
_cell_angle_gamma   89.96553657
_symmetry_Int_Tables_number   1
_chemical_formula_structural   Ba4Sr(FeO3)5
_chemical_formula_sum   'Ba8 Sr2 Fe10 O30'
_cell_volume   650.56312996
_cell_formula_units_Z   2
loop_
 _symmetry_equiv_pos_site_id
 _symmetry_equiv_pos_as_xyz
  1  'x, y, z'
loop_
 _atom_site_type_symbol
 _atom_site_label
 _atom_site_symmetry_multiplicity
 _atom_site_fract_x
 _atom_site_fract_y
 _atom_site_fract_z
 _atom_site_occupancy
  Ba  Ba0  1  0.35228500  0.85226800  0.29570100  1
  Ba  Ba1  1  0.85225500  0.35227900  0.29570100  1
  Ba  Ba2  1  0.04814000  0.54814900  0.90343700  1
  Ba  Ba3  1  0.54814800  0.04812600  0.90343700  1
  Ba  Ba4  1  0.25030300  0.75027000  0.49938100  1
  Ba  Ba5  1  0.75026200  0.25030200  0.49938100  1
  Ba  Ba6  1  0.14889700  0.64888500  0.70234400  1
  Ba  Ba7  1  0.64888700  0.14888300  0.70234400  1
  Sr  Sr0  1  0.45018600  0.95023700  0.09945400  1
  Sr  Sr1  1  0.95022900  0.45018600  0.09945400  1
  Fe  Fe0  1  0.20131300  0.20130000  0.59751400  1
  Fe  Fe1  1  0.69985000  0.69984700  0.60052000  1
  Fe  Fe2  1  0.49851000  0.49851200  0.00252600  1
  Fe  Fe3  1  0.40172100  0.40178200  0.19686400  1
  Fe  Fe4  1  0.90219300  0.90218800  0.19586700  1
  Fe  Fe5  1  0.99829600  0.99829600  0.00287600  1
  Fe  Fe6  1  0.30063500  0.30070000  0.39879500  1
  Fe  Fe7  1  0.79922000  0.79924700  0.40184100  1
  Fe  Fe8  1  0.09854300  0.09845300  0.80262900  1
  Fe  Fe9  1  0.59862000  0.59859200  0.80270100  1
  O  O0  1  0.44867800  0.44868100  0.10197100  1
  O  O1  1  0.94934000  0.94934000  0.10212700  1
  O  O2  1  0.35357000  0.35357900  0.29337400  1
  O  O3  1  0.85630800  0.85630700  0.28737800  1
  O  O4  1  0.04940700  0.04940600  0.90124200  1
  O  O5  1  0.54858500  0.54857700  0.90270900  1
  O  O6  1  0.25234800  0.25235500  0.49505800  1
  O  O7  1  0.74857300  0.74857400  0.50252300  1
  O  O8  1  0.14548600  0.14548200  0.70978600  1
  O  O9  1  0.64911800  0.64910900  0.70177800  1
  O  O10  1  0.44279500  0.95613100  0.60117700  1
  O  O11  1  0.95613200  0.44279400  0.60117700  1
  O  O12  1  0.95588300  0.95588300  0.60120600  1
  O  O13  1  0.44296800  0.44296800  0.60121700  1
  O  O14  1  0.74555900  0.24747100  0.00632700  1
  O  O15  1  0.24746900  0.74556200  0.00632700  1
  O  O16  1  0.65244500  0.15542200  0.19234100  1
  O  O17  1  0.15541500  0.65245000  0.19234200  1
  O  O18  1  0.24776000  0.24776300  0.00612200  1
  O  O19  1  0.74567700  0.74568000  0.00608500  1
  O  O20  1  0.15504300  0.15504500  0.19258800  1
  O  O21  1  0.65269100  0.65269400  0.19238300  1
  O  O22  1  0.55815700  0.04552300  0.39634200  1
  O  O23  1  0.04553100  0.55814900  0.39634200  1
  O  O24  1  0.34778400  0.84866400  0.80363800  1
  O  O25  1  0.84867000  0.34777900  0.80363700  1
  O  O26  1  0.04552000  0.04552600  0.39637500  1
  O  O27  1  0.55809300  0.55809900  0.39637600  1
  O  O28  1  0.84900400  0.84899500  0.80362600  1
  O  O29  1  0.34750200  0.34749200  0.80365800  1
loop_
_geom_bond_atom_site_label_1
_geom_bond_atom_site_label_2
_geom_bond_distance
_geom_bond_site_symmetry_2
Ba0 O2 2.832110 1_555
Ba0 O2 2.833774 1_565
Ba0 O3 2.836771 1_555
Ba0 O3 2.838365 1_455
Ba0 O22 2.859341 1_565
Ba0 O27 2.859388 1_555
Ba0 O26 2.859542 1_565
Ba0 O23 2.860313 1_555
Ba0 O20 2.894574 1_565
Ba0 O21 2.897482 1_555
Ba0 O16 2.898691 1_565
Ba0 O17 2.899269 1_555
Ba1 O2 2.832086 1_555
Ba1 O2 2.833796 1_655
Ba1 O3 2.836800 1_555
Ba1 O3 2.838339 1_545
Ba1 O23 2.859393 1_655
Ba1 O27 2.859414 1_555
Ba1 O26 2.859515 1_655
Ba1 O22 2.860261 1_555
Ba1 O20 2.894594 1_655
Ba1 O21 2.897468 1_555
Ba1 O17 2.898726 1_655
Ba1 O16 2.899229 1_555
Ba2 O4 2.831998 1_555
Ba2 O5 2.832128 1_455
Ba2 O5 2.833044 1_555
Ba2 O4 2.833799 1_565
Ba2 O29 2.846154 1_555
Ba2 O25 2.846395 1_455
Ba2 O28 2.846506 1_455
Ba2 O24 2.848080 1_555
Ba2 O19 2.887715 1_456
Ba2 O18 2.888275 1_556
Ba2 O15 2.891240 1_556
Ba2 O14 2.892950 1_456
Ba3 O4 2.831986 1_555
Ba3 O5 2.832096 1_545
Ba3 O5 2.833079 1_555
Ba3 O4 2.833809 1_655
Ba3 O29 2.846124 1_555
Ba3 O24 2.846338 1_545
Ba3 O28 2.846531 1_545
Ba3 O25 2.848136 1_555
Ba3 O19 2.887651 1_546
Ba3 O18 2.888338 1_556
Ba3 O14 2.891279 1_556
Ba3 O15 2.892905 1_546
Ba4 O7 2.832368 1_555
Ba4 O6 2.833463 1_565
Ba4 O7 2.834160 1_455
Ba4 O6 2.834345 1_555
Ba4 O11 2.876042 1_455
Ba4 O13 2.876230 1_555
Ba4 O12 2.876289 1_455
Ba4 O10 2.877213 1_555
Ba4 O27 2.893266 1_555
Ba4 O26 2.893488 1_565
Ba4 O23 2.894685 1_555
Ba4 O22 2.894723 1_565
Ba5 O7 2.832381 1_555
Ba5 O6 2.833468 1_655
Ba5 O7 2.834149 1_545
Ba5 O6 2.834338 1_555
Ba5 O10 2.876017 1_545
Ba5 O13 2.876221 1_555
Ba5 O12 2.876298 1_545
Ba5 O11 2.877238 1_555
Ba5 O27 2.893269 1_555
Ba5 O26 2.893485 1_655
Ba5 O22 2.894662 1_555
Ba5 O23 2.894746 1_655
Ba6 O9 2.832219 1_555
Ba6 O9 2.832924 1_455
Ba6 O8 2.834751 1_555
Ba6 O8 2.838377 1_565
Ba6 O13 2.866023 1_555
Ba6 O12 2.866221 1_455
Ba6 O10 2.867265 1_555
Ba6 O11 2.867725 1_455
Ba6 O28 2.867844 1_455
Ba6 O29 2.868283 1_555
Ba6 O25 2.868772 1_455
Ba6 O24 2.868896 1_555
Ba7 O9 2.832248 1_555
Ba7 O9 2.832896 1_545
Ba7 O8 2.834740 1_555
Ba7 O8 2.838386 1_655
Ba7 O13 2.866056 1_555
Ba7 O12 2.866188 1_545
Ba7 O11 2.867297 1_555
Ba7 O10 2.867692 1_545
Ba7 O28 2.867839 1_545
Ba7 O29 2.868282 1_555
Ba7 O24 2.868753 1_545
Ba7 O25 2.868915 1_555
Fe0 O10 1.950268 1_545
Fe0 O11 1.950364 1_455
Fe0 O13 1.952981 1_555
Fe0 O12 1.953472 1_445
Fe0 O6 2.076885 1_555
Fe0 O8 2.275866 1_555
Fe1 O7 1.986497 1_555
Fe1 O9 2.052599 1_555
Fe1 O12 2.054675 1_555
Fe1 O11 2.055757 1_555
Fe1 O10 2.055773 1_555
Fe1 O13 2.055911 1_555
Fe2 O14 1.996150 1_555
Fe2 O15 1.996155 1_555
Fe2 O19 1.996390 1_555
Fe2 O18 1.996437 1_555
Fe2 O0 2.015848 1_555
Fe2 O5 2.023389 1_554
Fe3 O0 1.923580 1_555
Fe3 O2 1.956353 1_555
Fe3 O17 1.992303 1_555
Fe3 O16 1.992745 1_555
Fe3 O21 1.995160 1_555
Fe3 O20 1.996157 1_555
Fe4 O3 1.855018 1_555
Fe4 O1 1.900203 1_555
Fe4 O20 2.014335 1_665
Fe4 O21 2.014700 1_555
Fe4 O17 2.015433 1_655
Fe4 O16 2.015521 1_565
Fe5 O15 2.011165 1_655
Fe5 O14 2.011186 1_565
Fe5 O1 2.011923 1_555
Fe5 O19 2.012679 1_555
Fe5 O18 2.013323 1_665
Fe5 O4 2.060222 1_664
Fe6 O6 1.951346 1_555
Fe6 O23 2.053184 1_555
Fe6 O22 2.053769 1_555
Fe6 O27 2.053936 1_555
Fe6 O26 2.055033 1_555
Fe6 O2 2.136988 1_555
Fe7 O22 1.954790 1_565
Fe7 O26 1.955007 1_665
Fe7 O23 1.955071 1_655
Fe7 O27 1.957540 1_555
Fe7 O7 2.040925 1_555
Fe7 O3 2.320278 1_555
Fe8 O8 1.882024 1_555
Fe8 O28 1.995602 1_445
Fe8 O24 1.998533 1_545
Fe8 O4 1.998984 1_555
Fe8 O25 1.999209 1_455
Fe8 O29 1.999729 1_555
Fe9 O25 2.005858 1_555
Fe9 O24 2.006038 1_555
Fe9 O29 2.008661 1_555
Fe9 O28 2.010466 1_555
Fe9 O5 2.027261 1_555
Fe9 O9 2.045809 1_555
O0 Sr0 2.831327 1_545
O0 Sr1 2.831354 1_455
O0 Sr1 2.834661 1_555
O0 Sr0 2.834690 1_555
O1 Sr0 2.830283 1_655
O1 Sr1 2.830284 1_565
O1 Sr0 2.835851 1_555
O1 Sr1 2.835853 1_555
O14 Sr0 2.751111 1_545
O14 Sr1 2.754440 1_555
O15 Sr1 2.751137 1_455
O15 Sr0 2.754461 1_555
O16 Sr1 2.748320 1_555
O16 Sr0 2.750593 1_545
O17 Sr0 2.748360 1_555
O17 Sr1 2.750627 1_455
O18 Sr0 2.754615 1_545
O18 Sr1 2.754632 1_455
O19 Sr1 2.755414 1_555
O19 Sr0 2.755430 1_555
O20 Sr0 2.751883 1_545
O20 Sr1 2.751884 1_455
O21 Sr0 2.749295 1_555
O21 Sr1 2.749299 1_555
