# generated using pymatgen
data_SmThUS5
_symmetry_space_group_name_H-M   'P 1'
_cell_length_a   7.45381700
_cell_length_b   8.01012700
_cell_length_c   12.01452100
_cell_angle_alpha   90.00000000
_cell_angle_beta   90.00000000
_cell_angle_gamma   90.00000000
_symmetry_Int_Tables_number   1
_chemical_formula_structural   SmThUS5
_chemical_formula_sum   'Sm4 Th4 U4 S20'
_cell_volume   717.33924079
_cell_formula_units_Z   4
loop_
 _symmetry_equiv_pos_site_id
 _symmetry_equiv_pos_as_xyz
  1  'x, y, z'
loop_
 _atom_site_type_symbol
 _atom_site_label
 _atom_site_symmetry_multiplicity
 _atom_site_fract_x
 _atom_site_fract_y
 _atom_site_fract_z
 _atom_site_occupancy
  Sm  Sm0  1  0.97921500  0.75249500  0.93154900  1
  Sm  Sm1  1  0.52078500  0.24750500  0.43154900  1
  Sm  Sm2  1  0.02078500  0.25249500  0.56845100  1
  Sm  Sm3  1  0.47921500  0.74750500  0.06845100  1
  Th  Th0  1  0.02394500  0.75149000  0.57426700  1
  Th  Th1  1  0.47605500  0.24851000  0.07426700  1
  Th  Th2  1  0.97605500  0.25149000  0.92573300  1
  Th  Th3  1  0.52394500  0.74851000  0.42573300  1
  U  U0  1  0.42942300  0.49834200  0.75554100  1
  U  U1  1  0.07057700  0.50165800  0.25554100  1
  U  U2  1  0.57057700  0.99834200  0.74445900  1
  U  U3  1  0.92942300  0.00165800  0.24445900  1
  S  S0  1  0.66468900  0.28910600  0.65163100  1
  S  S1  1  0.83531100  0.71089400  0.15163100  1
  S  S2  1  0.33531100  0.78910600  0.84836900  1
  S  S3  1  0.16468900  0.21089400  0.34836900  1
  S  S4  1  0.33614200  0.20789900  0.85175100  1
  S  S5  1  0.16385800  0.79210100  0.35175100  1
  S  S6  1  0.66385800  0.70789900  0.64824900  1
  S  S7  1  0.83614200  0.29210100  0.14824900  1
  S  S8  1  0.30166200  0.50298000  0.53450500  1
  S  S9  1  0.19833800  0.49702000  0.03450500  1
  S  S10  1  0.69833800  0.00298000  0.96549500  1
  S  S11  1  0.80166200  0.99702000  0.46549500  1
  S  S12  1  0.67149700  0.49448700  0.93661800  1
  S  S13  1  0.82850300  0.50551300  0.43661800  1
  S  S14  1  0.32850300  0.99448700  0.56338200  1
  S  S15  1  0.17149700  0.00551300  0.06338200  1
  S  S16  1  0.04004000  0.50068000  0.75022600  1
  S  S17  1  0.45996000  0.49932000  0.25022600  1
  S  S18  1  0.95996000  0.00068000  0.74977400  1
  S  S19  1  0.54004000  0.99932000  0.24977400  1
loop_
_geom_bond_atom_site_label_1
_geom_bond_atom_site_label_2
_geom_bond_distance
_geom_bond_site_symmetry_2
S0 U2 2.675903 1_545
S0 U0 2.728148 1_555
S0 Sm2 2.851300 1_655
S0 Sm1 2.872851 1_555
S1 U3 2.675903 1_565
S1 U1 2.728148 1_655
S1 Sm3 2.851300 1_555
S1 Sm0 2.872851 1_554
S2 U0 2.675903 1_555
S2 U2 2.728148 1_555
S2 Sm0 2.851300 1_455
S2 Sm3 2.872851 1_556
S3 U1 2.675903 1_555
S3 U3 2.728148 1_455
S3 Sm1 2.851300 1_555
S3 Sm2 2.872851 1_555
S4 U0 2.689260 1_555
S4 U2 2.744601 1_545
S4 Th2 2.848853 1_455
S4 Th1 2.888013 1_556
S5 U1 2.689260 1_555
S5 U3 2.744601 1_465
S5 Th3 2.848853 1_555
S5 Th0 2.888013 1_555
S6 U2 2.689260 1_555
S6 U0 2.744601 1_555
S6 Th0 2.848853 1_655
S6 Th3 2.888013 1_555
S7 U3 2.689260 1_555
S7 U1 2.744601 1_655
S7 Th1 2.848853 1_555
S7 Th2 2.888013 1_554
S8 U0 2.821472 1_555
S8 Th3 2.884619 1_555
S8 Sm1 2.895767 1_555
S8 Th0 2.911324 1_555
S8 Sm2 2.928349 1_555
S9 U1 2.821472 1_555
S9 Th2 2.884619 1_454
S9 Sm0 2.895767 1_454
S9 Th1 2.911324 1_555
S9 Sm3 2.928349 1_555
S10 U2 2.821472 1_545
S10 Th1 2.884619 1_556
S10 Sm3 2.895767 1_546
S10 Th2 2.911324 1_555
S10 Sm0 2.928349 1_545
S11 U3 2.821472 1_565
S11 Th0 2.884619 1_655
S11 Sm2 2.895767 1_665
S11 Th3 2.911324 1_555
S11 Sm1 2.928349 1_565
S12 U0 2.826616 1_555
S12 Sm3 2.944567 1_556
S12 Th1 2.956240 1_556
S12 Th2 2.993186 1_555
S12 Sm0 3.088009 1_555
S13 U1 2.826616 1_655
S13 Sm2 2.944567 1_655
S13 Th0 2.956240 1_655
S13 Th3 2.993186 1_555
S13 Sm1 3.088009 1_555
S14 U2 2.826616 1_555
S14 Sm1 2.944567 1_565
S14 Th3 2.956240 1_555
S14 Th0 2.993186 1_555
S14 Sm2 3.088009 1_565
S15 U3 2.826616 1_455
S15 Sm0 2.944567 1_444
S15 Th2 2.956240 1_454
S15 Th1 2.993186 1_555
S15 Sm3 3.088009 1_545
S16 U0 2.903152 1_555
S16 Th0 2.918872 1_555
S16 Th2 2.942446 1_455
S16 Sm2 2.956740 1_555
S16 Sm0 3.003336 1_455
S17 U1 2.903152 1_555
S17 Th1 2.918872 1_555
S17 Th3 2.942446 1_555
S17 Sm3 2.956740 1_555
S17 Sm1 3.003336 1_555
S18 U2 2.903152 1_545
S18 Th2 2.918872 1_555
S18 Th0 2.942446 1_645
S18 Sm0 2.956740 1_545
S18 Sm2 3.003336 1_655
S19 U3 2.903152 1_565
S19 Th3 2.918872 1_555
S19 Th1 2.942446 1_565
S19 Sm1 2.956740 1_565
S19 Sm3 3.003336 1_555
