# generated using pymatgen
data_Nd9Ga5S21
_symmetry_space_group_name_H-M   'P 1'
_cell_length_a   11.72159162
_cell_length_b   11.72159231
_cell_length_c   11.72159257
_cell_angle_alpha   94.87433083
_cell_angle_beta   94.87433046
_cell_angle_gamma   94.87433088
_symmetry_Int_Tables_number   1
_chemical_formula_structural   Nd9Ga5S21
_chemical_formula_sum   'Nd18 Ga10 S42'
_cell_volume   1591.96027692
_cell_formula_units_Z   2
loop_
 _symmetry_equiv_pos_site_id
 _symmetry_equiv_pos_as_xyz
  1  'x, y, z'
loop_
 _atom_site_type_symbol
 _atom_site_label
 _atom_site_symmetry_multiplicity
 _atom_site_fract_x
 _atom_site_fract_y
 _atom_site_fract_z
 _atom_site_occupancy
  Nd  Nd0  1  0.11446997  0.88427682  0.25790944  1
  Nd  Nd1  1  0.77141660  0.54403146  0.92128646  1
  Nd  Nd2  1  0.44728223  0.22927644  0.60671353  1
  Nd  Nd3  1  0.22927644  0.60671353  0.44728223  1
  Nd  Nd4  1  0.88427682  0.25790944  0.11446997  1
  Nd  Nd5  1  0.54403146  0.92128646  0.77141660  1
  Nd  Nd6  1  0.92128646  0.77141660  0.54403146  1
  Nd  Nd7  1  0.60671353  0.44728223  0.22927644  1
  Nd  Nd8  1  0.25790944  0.11446997  0.88427682  1
  Nd  Nd9  1  0.56398207  0.78921613  0.41432425  1
  Nd  Nd10  1  0.21913200  0.44428221  0.06761781  1
  Nd  Nd11  1  0.89964517  0.12753321  0.75009696  1
  Nd  Nd12  1  0.44428221  0.06761781  0.21913200  1
  Nd  Nd13  1  0.12753321  0.75009696  0.89964517  1
  Nd  Nd14  1  0.78921613  0.41432425  0.56398207  1
  Nd  Nd15  1  0.75009696  0.89964517  0.12753321  1
  Nd  Nd16  1  0.41432425  0.56398207  0.78921613  1
  Nd  Nd17  1  0.06761781  0.21913200  0.44428221  1
  Ga  Ga0  1  0.60929315  0.27694713  0.95113345  1
  Ga  Ga1  1  0.27694713  0.95113345  0.60929315  1
  Ga  Ga2  1  0.95113345  0.60929315  0.27694713  1
  Ga  Ga3  1  0.77263518  0.11514392  0.44930326  1
  Ga  Ga4  1  0.44930326  0.77263518  0.11514392  1
  Ga  Ga5  1  0.11514392  0.44930326  0.77263518  1
  Ga  Ga6  1  0.14584719  0.14584719  0.14584719  1
  Ga  Ga7  1  0.85045174  0.85045174  0.85045174  1
  Ga  Ga8  1  0.35094295  0.35094295  0.35094295  1
  Ga  Ga9  1  0.64689491  0.64689491  0.64689491  1
  S  S0  1  0.54946713  0.45459034  0.98854365  1
  S  S1  1  0.21397542  0.12734578  0.64214588  1
  S  S2  1  0.88968292  0.78922662  0.30496143  1
  S  S3  1  0.78922662  0.30496143  0.88968292  1
  S  S4  1  0.45459034  0.98854365  0.54946713  1
  S  S5  1  0.12734578  0.64214588  0.21397542  1
  S  S6  1  0.64214588  0.21397542  0.12734578  1
  S  S7  1  0.30496143  0.88968292  0.78922662  1
  S  S8  1  0.98854365  0.54946713  0.45459034  1
  S  S9  1  0.93048041  0.03374946  0.51832685  1
  S  S10  1  0.61220212  0.69981314  0.18388925  1
  S  S11  1  0.27669940  0.36754337  0.83632677  1
  S  S12  1  0.69981314  0.18388925  0.61220212  1
  S  S13  1  0.36754337  0.83632677  0.27669940  1
  S  S14  1  0.03374946  0.51832685  0.93048041  1
  S  S15  1  0.83632677  0.27669940  0.36754337  1
  S  S16  1  0.51832685  0.93048041  0.03374946  1
  S  S17  1  0.18388925  0.61220212  0.69981314  1
  S  S18  1  0.49029187  0.15470364  0.82824891  1
  S  S19  1  0.15470364  0.82824891  0.49029187  1
  S  S20  1  0.82824891  0.49029187  0.15470364  1
  S  S21  1  0.99305661  0.32566427  0.65429242  1
  S  S22  1  0.65429242  0.99305661  0.32566427  1
  S  S23  1  0.32566427  0.65429242  0.99305661  1
  S  S24  1  0.59112212  0.44574815  0.69047365  1
  S  S25  1  0.23794747  0.10324672  0.33344738  1
  S  S26  1  0.90583500  0.76298010  0.00720137  1
  S  S27  1  0.76298010  0.00720137  0.90583500  1
  S  S28  1  0.44574815  0.69047365  0.59112212  1
  S  S29  1  0.10324672  0.33344738  0.23794747  1
  S  S30  1  0.33344738  0.23794747  0.10324672  1
  S  S31  1  0.00720137  0.90583500  0.76298010  1
  S  S32  1  0.69047365  0.59112212  0.44574815  1
  S  S33  1  0.71372655  0.84927221  0.62007091  1
  S  S34  1  0.38073011  0.51836413  0.27362139  1
  S  S35  1  0.05632875  0.20494054  0.95944117  1
  S  S36  1  0.51836413  0.27362139  0.38073011  1
  S  S37  1  0.20494054  0.95944117  0.05632875  1
  S  S38  1  0.84927221  0.62007091  0.71372655  1
  S  S39  1  0.95944117  0.05632875  0.20494054  1
  S  S40  1  0.62007091  0.71372655  0.84927221  1
  S  S41  1  0.27362139  0.38073011  0.51836413  1
loop_
_geom_bond_atom_site_label_1
_geom_bond_atom_site_label_2
_geom_bond_distance
_geom_bond_site_symmetry_2
Nd0 S37 2.846872 1_555
Nd0 S5 2.860201 1_555
Nd0 S19 2.865595 1_555
Nd0 S25 2.869029 1_565
Nd0 S2 2.887990 1_455
Nd0 S39 2.898045 1_465
Nd0 S13 3.058990 1_555
Nd1 S3 2.823072 1_555
Nd1 S38 2.855522 1_555
Nd1 S20 2.894967 1_556
Nd1 S40 2.906319 1_555
Nd1 S0 2.917955 1_555
Nd1 S26 2.947401 1_556
Nd1 S14 3.108764 1_655
Nd1 S24 3.346342 1_555
Nd2 S18 2.828336 1_555
Nd2 S4 2.854657 1_545
Nd2 S36 2.918295 1_555
Nd2 S1 2.966619 1_555
Nd2 S24 2.968721 1_555
Nd2 S41 2.989310 1_555
Nd2 S12 3.047988 1_555
Nd3 S19 2.828336 1_555
Nd3 S8 2.854657 1_455
Nd3 S41 2.918295 1_555
Nd3 S5 2.966619 1_555
Nd3 S28 2.968721 1_555
Nd3 S34 2.989310 1_555
Nd3 S17 3.047988 1_555
Nd4 S39 2.846872 1_555
Nd4 S6 2.860201 1_555
Nd4 S20 2.865595 1_555
Nd4 S29 2.869029 1_655
Nd4 S3 2.887990 1_554
Nd4 S35 2.898045 1_654
Nd4 S15 3.058991 1_555
Nd5 S7 2.823072 1_555
Nd5 S40 2.855522 1_555
Nd5 S18 2.894967 1_565
Nd5 S33 2.906319 1_555
Nd5 S4 2.917955 1_555
Nd5 S27 2.947401 1_565
Nd5 S16 3.108765 1_556
Nd5 S28 3.346342 1_555
Nd6 S2 2.823072 1_555
Nd6 S33 2.855522 1_555
Nd6 S19 2.894967 1_655
Nd6 S38 2.906319 1_555
Nd6 S8 2.917955 1_555
Nd6 S31 2.947401 1_655
Nd6 S9 3.108765 1_565
Nd6 S32 3.346341 1_555
Nd7 S20 2.828335 1_555
Nd7 S0 2.854658 1_554
Nd7 S34 2.918295 1_555
Nd7 S6 2.966619 1_555
Nd7 S32 2.968721 1_555
Nd7 S36 2.989310 1_555
Nd7 S10 3.047988 1_555
Nd8 S35 2.846872 1_555
Nd8 S1 2.860201 1_555
Nd8 S18 2.865594 1_555
Nd8 S30 2.869029 1_556
Nd8 S7 2.887990 1_545
Nd8 S37 2.898045 1_546
Nd8 S11 3.058991 1_555
Nd9 S13 2.818753 1_555
Nd9 S22 2.844051 1_555
Nd9 S33 2.859153 1_555
Nd9 S28 2.859730 1_555
Nd9 S32 2.891920 1_555
Nd9 S10 2.931294 1_555
Nd9 S4 3.136520 1_555
Nd10 S14 2.832503 1_554
Nd10 S29 2.849718 1_555
Nd10 S23 2.900274 1_554
Nd10 S30 2.906318 1_555
Nd10 S11 2.934980 1_554
Nd10 S34 2.959657 1_555
Nd10 S5 3.088884 1_555
Nd10 S35 3.345827 1_554
Nd11 S21 2.841405 1_555
Nd11 S12 2.887308 1_555
Nd11 S27 2.904933 1_555
Nd11 S9 2.906285 1_555
Nd11 S35 2.964832 1_655
Nd11 S3 2.986065 1_555
Nd11 S31 2.992717 1_645
Nd12 S16 2.832503 1_545
Nd12 S30 2.849718 1_555
Nd12 S22 2.900274 1_545
Nd12 S25 2.906318 1_555
Nd12 S13 2.934980 1_545
Nd12 S36 2.959657 1_555
Nd12 S6 3.088884 1_555
Nd12 S37 3.345827 1_545
Nd13 S23 2.841405 1_555
Nd13 S17 2.887308 1_555
Nd13 S31 2.904933 1_555
Nd13 S14 2.906285 1_555
Nd13 S37 2.964832 1_556
Nd13 S7 2.986065 1_555
Nd13 S26 2.992717 1_456
Nd14 S15 2.818753 1_555
Nd14 S21 2.844051 1_555
Nd14 S38 2.859153 1_555
Nd14 S32 2.859730 1_555
Nd14 S24 2.891920 1_555
Nd14 S12 2.931294 1_555
Nd14 S8 3.136520 1_555
Nd15 S22 2.841405 1_555
Nd15 S10 2.887308 1_555
Nd15 S26 2.904933 1_555
Nd15 S16 2.906285 1_555
Nd15 S39 2.964832 1_565
Nd15 S2 2.986065 1_555
Nd15 S27 2.992717 1_564
Nd16 S11 2.818753 1_555
Nd16 S23 2.844051 1_555
Nd16 S40 2.859153 1_555
Nd16 S24 2.859730 1_555
Nd16 S28 2.891920 1_555
Nd16 S17 2.931294 1_555
Nd16 S0 3.136520 1_555
Nd17 S9 2.832503 1_455
Nd17 S25 2.849718 1_555
Nd17 S21 2.900274 1_455
Nd17 S29 2.906318 1_555
Nd17 S15 2.934980 1_455
Nd17 S41 2.959657 1_555
Nd17 S1 3.088884 1_555
Nd17 S39 3.345827 1_455
Ga0 S18 2.245390 1_555
Ga0 S6 2.265303 1_556
Ga0 S0 2.272685 1_555
Ga0 S3 2.292523 1_555
Ga1 S19 2.245390 1_555
Ga1 S1 2.265303 1_565
Ga1 S4 2.272685 1_555
Ga1 S7 2.292523 1_555
Ga2 S20 2.245390 1_555
Ga2 S5 2.265303 1_655
Ga2 S8 2.272685 1_555
Ga2 S2 2.292523 1_555
Ga3 S22 2.245223 1_545
Ga3 S12 2.270743 1_555
Ga3 S9 2.272630 1_555
Ga3 S15 2.291638 1_555
Ga4 S23 2.245223 1_554
Ga4 S10 2.270743 1_555
Ga4 S16 2.272630 1_555
Ga4 S13 2.291638 1_555
Ga5 S21 2.245223 1_455
Ga5 S17 2.270743 1_555
Ga5 S14 2.272630 1_555
Ga5 S11 2.291638 1_555
Ga6 S30 2.474887 1_555
Ga6 S29 2.474887 1_555
Ga6 S25 2.474888 1_555
Ga6 S39 2.519132 1_455
Ga6 S37 2.519132 1_545
Ga6 S35 2.519132 1_554
Ga7 S31 2.253690 1_655
Ga7 S27 2.253690 1_565
Ga7 S26 2.253690 1_556
Ga8 S36 2.243685 1_555
Ga8 S34 2.243685 1_555
Ga8 S41 2.243685 1_555
Ga9 S38 2.488493 1_555
Ga9 S33 2.488493 1_555
Ga9 S40 2.488493 1_555
Ga9 S28 2.499365 1_555
Ga9 S24 2.499365 1_555
Ga9 S32 2.499365 1_555
