# generated using pymatgen
data_PrNb4O12
_symmetry_space_group_name_H-M   'P 1'
_cell_length_a   5.59595334
_cell_length_b   5.59595334
_cell_length_c   7.97690100
_cell_angle_alpha   90.00000000
_cell_angle_beta   90.00000000
_cell_angle_gamma   90.49589238
_symmetry_Int_Tables_number   1
_chemical_formula_structural   PrNb4O12
_chemical_formula_sum   'Pr1 Nb4 O12'
_cell_volume   249.78485600
_cell_formula_units_Z   1
loop_
 _symmetry_equiv_pos_site_id
 _symmetry_equiv_pos_as_xyz
  1  'x, y, z'
loop_
 _atom_site_type_symbol
 _atom_site_label
 _atom_site_symmetry_multiplicity
 _atom_site_fract_x
 _atom_site_fract_y
 _atom_site_fract_z
 _atom_site_occupancy
  Pr  Pr0  1  0.25810900  0.74189100  0.00000000  1
  Nb  Nb0  1  0.24948500  0.24661700  0.74079200  1
  Nb  Nb1  1  0.75338300  0.75051500  0.74079200  1
  Nb  Nb2  1  0.75338300  0.75051500  0.25920800  1
  Nb  Nb3  1  0.24948500  0.24661700  0.25920800  1
  O  O0  1  0.27949100  0.29321000  0.00000000  1
  O  O1  1  0.70679000  0.72050900  0.00000000  1
  O  O2  1  0.21241100  0.21533600  0.50000000  1
  O  O3  1  0.78466400  0.78758900  0.50000000  1
  O  O4  1  0.49316800  0.50683200  0.73121600  1
  O  O5  1  0.49316800  0.50683200  0.26878400  1
  O  O6  1  0.01215500  0.98784500  0.79991200  1
  O  O7  1  0.01215500  0.98784500  0.20008800  1
  O  O8  1  0.48944400  0.99061700  0.77075200  1
  O  O9  1  0.00938300  0.51055600  0.22924800  1
  O  O10  1  0.48944400  0.99061700  0.22924800  1
  O  O11  1  0.00938300  0.51055600  0.77075200  1
loop_
_geom_bond_atom_site_label_1
_geom_bond_atom_site_label_2
_geom_bond_distance
_geom_bond_site_symmetry_2
Nb0 O2 1.939698 1_555
Nb0 O8 1.986394 1_545
Nb0 O4 1.987800 1_555
Nb0 O6 2.012425 1_545
Nb0 O11 2.019462 1_555
Nb0 O0 2.090623 1_556
Nb1 O3 1.939698 1_555
Nb1 O11 1.986394 1_655
Nb1 O4 1.987800 1_555
Nb1 O6 2.012425 1_655
Nb1 O8 2.019462 1_555
Nb1 O1 2.090623 1_556
Nb2 O3 1.939698 1_555
Nb2 O9 1.986394 1_655
Nb2 O5 1.987800 1_555
Nb2 O7 2.012425 1_655
Nb2 O10 2.019462 1_555
Nb2 O1 2.090623 1_555
Nb3 O2 1.939698 1_555
Nb3 O10 1.986394 1_545
Nb3 O5 1.987800 1_555
Nb3 O7 2.012425 1_545
Nb3 O9 2.019462 1_555
Nb3 O0 2.090623 1_555
O0 Pr0 2.514682 1_555
O0 Pr0 3.086440 1_545
O1 Pr0 2.514682 1_555
O1 Pr0 3.086440 1_655
O4 Pr0 2.843836 1_556
O5 Pr0 2.843836 1_555
O6 Pr0 2.523674 1_556
O7 Pr0 2.523674 1_555
O8 Pr0 2.631733 1_556
O9 Pr0 2.631733 1_555
O10 Pr0 2.631733 1_555
O11 Pr0 2.631733 1_556
