# generated using pymatgen
data_Cr7FeO12
_symmetry_space_group_name_H-M   'P 1'
_cell_length_a   9.01814570
_cell_length_b   10.50223660
_cell_length_c   10.30247234
_cell_angle_alpha   85.35470236
_cell_angle_beta   98.78912508
_cell_angle_gamma   88.06582104
_symmetry_Int_Tables_number   1
_chemical_formula_structural   Cr7FeO12
_chemical_formula_sum   'Cr28 Fe4 O48'
_cell_volume   960.07452801
_cell_formula_units_Z   4
loop_
 _symmetry_equiv_pos_site_id
 _symmetry_equiv_pos_as_xyz
  1  'x, y, z'
loop_
 _atom_site_type_symbol
 _atom_site_label
 _atom_site_symmetry_multiplicity
 _atom_site_fract_x
 _atom_site_fract_y
 _atom_site_fract_z
 _atom_site_occupancy
  Cr  Cr0  1  0.18101000  0.22668800  0.10149500  1
  Cr  Cr1  1  0.87308600  0.75496400  0.90982500  1
  Cr  Cr2  1  0.22533300  0.02494700  0.30440900  1
  Cr  Cr3  1  0.63697100  0.04581900  0.12116300  1
  Cr  Cr4  1  0.73750200  0.51857000  0.09096300  1
  Cr  Cr5  1  0.34715200  0.36849300  0.33093600  1
  Cr  Cr6  1  0.11749200  0.54646300  0.26755800  1
  Cr  Cr7  1  0.38920000  0.36380500  0.85423400  1
  Cr  Cr8  1  0.11550100  0.16643000  0.83026800  1
  Cr  Cr9  1  0.78557800  0.12196200  0.59491600  1
  Cr  Cr10  1  0.95304400  0.28431500  0.35457100  1
  Cr  Cr11  1  0.55336900  0.81409400  0.95532000  1
  Cr  Cr12  1  0.11255400  0.44286000  0.56629600  1
  Cr  Cr13  1  0.44921400  0.66221300  0.25952900  1
  Cr  Cr14  1  0.36696200  0.91993700  0.63141500  1
  Cr  Cr15  1  0.89280500  0.95346100  0.41952100  1
  Cr  Cr16  1  0.07200500  0.92944600  0.73164300  1
  Cr  Cr17  1  0.69866000  0.45903400  0.40354500  1
  Cr  Cr18  1  0.62816400  0.79807400  0.47775700  1
  Cr  Cr19  1  0.70128200  0.55242400  0.77898600  1
  Cr  Cr20  1  0.53983200  0.34398200  0.63183600  1
  Cr  Cr21  1  0.23845900  0.74854600  0.41915300  1
  Cr  Cr22  1  0.66253200  0.03818400  0.84467500  1
  Cr  Cr23  1  0.94334600  0.68933500  0.57572900  1
  Cr  Cr24  1  0.95866800  0.02228600  0.11901500  1
  Cr  Cr25  1  0.35335700  0.49589700  0.07466400  1
  Cr  Cr26  1  0.03065900  0.42582600  0.84862500  1
  Cr  Cr27  1  0.20076600  0.82364400  0.07229900  1
  Fe  Fe0  1  0.22326800  0.67180100  0.82113700  1
  Fe  Fe1  1  0.51361500  0.11460300  0.39782200  1
  Fe  Fe2  1  0.71290000  0.30618800  0.97444500  1
  Fe  Fe3  1  0.82439000  0.76615000  0.21502500  1
  O  O0  1  0.91666700  0.06179500  0.75889600  1
  O  O1  1  0.09278900  0.90212700  0.37306700  1
  O  O2  1  0.21528400  0.04219500  0.73174800  1
  O  O3  1  0.52829200  0.30400300  0.45278500  1
  O  O4  1  0.14050200  0.37754200  0.39199800  1
  O  O5  1  0.51564900  0.00711900  0.97060600  1
  O  O6  1  0.06902700  0.81513200  0.88061000  1
  O  O7  1  0.77194000  0.12157500  0.01096600  1
  O  O8  1  0.91632100  0.13242300  0.46337300  1
  O  O9  1  0.66943700  0.46874600  0.60454800  1
  O  O10  1  0.81481600  0.69597700  0.72873900  1
  O  O11  1  0.94649600  0.87271700  0.59823800  1
  O  O12  1  0.06184000  0.56459000  0.70186300  1
  O  O13  1  0.16640100  0.02702100  0.08871500  1
  O  O14  1  0.89942700  0.40555600  0.48707800  1
  O  O15  1  0.23886700  0.48420600  0.89854900  1
  O  O16  1  0.98353400  0.83255500  0.10469700  1
  O  O17  1  0.68820300  0.99299500  0.48559900  1
  O  O18  1  0.51840500  0.39530600  0.02381000  1
  O  O19  1  0.84248700  0.46717300  0.93049900  1
  O  O20  1  0.80663400  0.96396500  0.22579300  1
  O  O21  1  0.53902900  0.90912300  0.75061800  1
  O  O22  1  0.32505100  0.83867500  0.26447600  1
  O  O23  1  0.78759200  0.38816600  0.24222000  1
  O  O24  1  0.29060800  0.22671600  0.93888200  1
  O  O25  1  0.75122400  0.88857000  0.94926800  1
  O  O26  1  0.62611400  0.17942000  0.69664000  1
  O  O27  1  0.61216600  0.74908500  0.14861100  1
  O  O28  1  0.03777300  0.16407300  0.23253600  1
  O  O29  1  0.08244900  0.62584400  0.45638200  1
  O  O30  1  0.58511300  0.39536200  0.80884900  1
  O  O31  1  0.32551600  0.19338800  0.26707000  1
  O  O32  1  0.90728200  0.60340800  0.17714800  1
  O  O33  1  0.22205400  0.81517300  0.67460500  1
  O  O34  1  0.42537400  0.78540900  0.53348600  1
  O  O35  1  0.67524500  0.65375200  0.93139500  1
  O  O36  1  0.07074500  0.31778100  0.71446200  1
  O  O37  1  0.34233300  0.38543400  0.65100100  1
  O  O38  1  0.61674400  0.63238600  0.39842100  1
  O  O39  1  0.58270700  0.14801700  0.22130500  1
  O  O40  1  0.22932300  0.64306200  0.13225900  1
  O  O41  1  0.34434300  0.03686700  0.48565100  1
  O  O42  1  0.49837000  0.48246500  0.23810900  1
  O  O43  1  0.31827200  0.57162700  0.37264800  1
  O  O44  1  0.82848900  0.77615100  0.40646900  1
  O  O45  1  0.20303300  0.40895000  0.15923200  1
  O  O46  1  0.01564800  0.26322100  0.95253300  1
  O  O47  1  0.35554900  0.75689600  0.95999700  1
loop_
_geom_bond_atom_site_label_1
_geom_bond_atom_site_label_2
_geom_bond_distance
_geom_bond_site_symmetry_2
Cr0 O46 1.973046 1_554
Cr0 O31 1.980834 1_555
Cr0 O45 2.057003 1_555
Cr0 O24 2.071115 1_554
Cr0 O28 2.090479 1_555
Cr0 O13 2.118953 1_555
Cr1 O25 1.861844 1_555
Cr1 O6 1.954319 1_655
Cr1 O10 2.012481 1_555
Cr1 O35 2.138550 1_555
Cr1 O16 2.322822 1_556
Cr2 O1 1.951297 1_545
Cr2 O41 2.022037 1_555
Cr2 O31 2.048777 1_555
Cr2 O28 2.195306 1_555
Cr2 O13 2.202608 1_555
Cr2 O22 2.220274 1_545
Cr3 O39 1.659543 1_555
Cr3 O5 1.838939 1_554
Cr3 O20 1.870589 1_545
Cr3 O7 1.935138 1_555
Cr4 O32 1.931658 1_555
Cr4 O23 1.976229 1_555
Cr4 O35 2.078330 1_554
Cr4 O19 2.123460 1_554
Cr4 O18 2.440996 1_555
Cr5 O3 1.965709 1_555
Cr5 O31 2.008453 1_555
Cr5 O45 2.034053 1_555
Cr5 O4 2.057618 1_555
Cr5 O42 2.128458 1_555
Cr5 O43 2.224618 1_555
Cr6 O43 2.000029 1_555
Cr6 O32 2.027952 1_455
Cr6 O40 2.063715 1_555
Cr6 O4 2.087915 1_555
Cr6 O45 2.091711 1_555
Cr6 O29 2.238765 1_555
Cr7 O30 1.927908 1_555
Cr7 O24 1.934918 1_555
Cr7 O15 1.952507 1_555
Cr7 O18 2.004210 1_556
Cr7 O37 2.064046 1_555
Cr8 O36 1.901397 1_555
Cr8 O24 1.946519 1_555
Cr8 O46 1.980685 1_555
Cr8 O2 1.989145 1_555
Cr8 O0 2.196471 1_455
Cr9 O8 1.926604 1_555
Cr9 O0 1.953775 1_555
Cr9 O17 1.974635 1_545
Cr9 O26 2.008713 1_555
Cr10 O8 1.941731 1_555
Cr10 O23 1.978258 1_555
Cr10 O4 1.984653 1_655
Cr10 O14 2.039715 1_555
Cr10 O28 2.060304 1_655
Cr11 O47 1.907783 1_555
Cr11 O25 1.979810 1_555
Cr11 O35 2.032126 1_555
Cr11 O27 2.036057 1_556
Cr11 O5 2.066776 1_565
Cr11 O21 2.242187 1_555
Cr12 O36 2.020491 1_555
Cr12 O4 2.021089 1_555
Cr12 O14 2.033949 1_455
Cr12 O12 2.058937 1_555
Cr12 O29 2.137158 1_555
Cr12 O37 2.167254 1_555
Cr13 O38 1.913904 1_555
Cr13 O42 1.962069 1_555
Cr13 O43 1.993607 1_555
Cr13 O22 2.140923 1_555
Cr13 O27 2.175438 1_555
Cr13 O40 2.228691 1_555
Cr14 O33 1.819820 1_555
Cr14 O21 1.819917 1_555
Cr14 O41 1.842721 1_565
Cr14 O34 1.906456 1_555
Cr14 O2 2.261998 1_565
Cr15 O11 1.946945 1_555
Cr15 O44 1.977810 1_555
Cr15 O8 1.979083 1_565
Cr15 O1 2.003045 1_655
Cr15 O20 2.020929 1_555
Cr15 O17 2.101968 1_555
Cr16 O2 1.781781 1_565
Cr16 O11 1.796606 1_455
Cr16 O6 1.874505 1_555
Cr16 O33 1.965773 1_555
Cr16 O0 2.006292 1_465
Cr17 O14 1.926407 1_555
Cr17 O38 1.935139 1_555
Cr17 O23 2.127667 1_555
Cr17 O9 2.137138 1_555
Cr17 O42 2.278007 1_555
Cr17 O3 2.354164 1_555
Cr18 O38 1.980745 1_555
Cr18 O34 2.004179 1_555
Cr18 O44 2.064185 1_555
Cr18 O17 2.139759 1_555
Cr19 O10 1.931057 1_555
Cr19 O19 1.987207 1_555
Cr19 O35 2.004879 1_555
Cr19 O30 2.011464 1_555
Cr19 O9 2.049298 1_555
Cr20 O9 1.818279 1_555
Cr20 O37 1.862736 1_555
Cr20 O26 1.897808 1_555
Cr20 O3 1.913023 1_555
Cr20 O30 1.931422 1_555
Cr21 O34 1.972268 1_555
Cr21 O29 1.998594 1_555
Cr21 O1 2.023629 1_555
Cr21 O22 2.056952 1_555
Cr21 O43 2.087881 1_555
Cr22 O25 1.909802 1_545
Cr22 O21 2.000374 1_545
Cr22 O5 2.007506 1_555
Cr22 O26 2.020312 1_555
Cr22 O7 2.111961 1_556
Cr22 O0 2.591671 1_555
Cr23 O12 1.937092 1_655
Cr23 O11 1.959024 1_555
Cr23 O44 2.017861 1_555
Cr23 O29 2.019357 1_655
Cr23 O10 2.098594 1_555
Cr24 O13 1.947282 1_655
Cr24 O20 1.968151 1_545
Cr24 O16 2.017438 1_545
Cr24 O28 2.047666 1_655
Cr24 O7 2.069482 1_555
Cr25 O45 1.935543 1_555
Cr25 O18 1.956469 1_555
Cr25 O42 1.960026 1_555
Cr25 O15 1.960962 1_554
Cr25 O40 2.055893 1_555
Cr26 O36 1.925569 1_555
Cr26 O46 1.960712 1_555
Cr26 O15 1.999923 1_555
Cr26 O19 2.055908 1_455
Cr26 O12 2.071171 1_555
Cr27 O40 1.942510 1_555
Cr27 O16 2.037271 1_455
Cr27 O47 2.082617 1_554
Cr27 O22 2.141394 1_555
Cr27 O6 2.153674 1_554
Cr27 O13 2.171778 1_565
Fe0 O47 2.006464 1_555
Fe0 O33 2.042548 1_555
Fe0 O15 2.056674 1_555
Fe0 O12 2.164518 1_555
Fe0 O6 2.201054 1_555
Fe1 O39 2.018963 1_555
Fe1 O17 2.042039 1_545
Fe1 O41 2.049908 1_555
Fe1 O31 2.098353 1_555
Fe1 O3 2.114730 1_555
Fe2 O7 1.983715 1_556
Fe2 O30 2.045298 1_555
Fe2 O18 2.109499 1_556
Fe2 O19 2.144818 1_555
Fe3 O32 1.934741 1_555
Fe3 O27 1.950899 1_555
Fe3 O44 1.978405 1_555
Fe3 O16 2.067797 1_555
Fe3 O20 2.091472 1_555
