# generated using pymatgen
data_Li3Mn(CoO3)2
_symmetry_space_group_name_H-M   'P 1'
_cell_length_a   2.94924200
_cell_length_b   5.20402666
_cell_length_c   7.77030823
_cell_angle_alpha   108.91721065
_cell_angle_beta   97.03065060
_cell_angle_gamma   91.56600001
_symmetry_Int_Tables_number   1
_chemical_formula_structural   Li3Mn(CoO3)2
_chemical_formula_sum   'Li3 Mn1 Co2 O6'
_cell_volume   111.68295872
_cell_formula_units_Z   1
loop_
 _symmetry_equiv_pos_site_id
 _symmetry_equiv_pos_as_xyz
  1  'x, y, z'
loop_
 _atom_site_type_symbol
 _atom_site_label
 _atom_site_symmetry_multiplicity
 _atom_site_fract_x
 _atom_site_fract_y
 _atom_site_fract_z
 _atom_site_occupancy
  Li  Li0  1  0.66452400  0.83316500  0.33143800  1
  Li  Li1  1  0.00000000  0.50000000  0.00000000  1
  Li  Li2  1  0.33547600  0.16683500  0.66856200  1
  Mn  Mn0  1  0.50000000  0.00000000  0.00000000  1
  Co  Co0  1  0.83189300  0.66965800  0.66481300  1
  Co  Co1  1  0.16810700  0.33034200  0.33518700  1
  O  O0  1  0.24448700  0.73406900  0.50768900  1
  O  O1  1  0.57599800  0.39756700  0.17280500  1
  O  O2  1  0.88667900  0.07329100  0.83597900  1
  O  O3  1  0.11332100  0.92670900  0.16402100  1
  O  O4  1  0.42400200  0.60243300  0.82719500  1
  O  O5  1  0.75551300  0.26593100  0.49231100  1
loop_
_geom_bond_atom_site_label_1
_geom_bond_atom_site_label_2
_geom_bond_distance
_geom_bond_site_symmetry_2
Li0 O3 2.116160 1_655
Li0 O3 2.123235 1_555
Li0 O0 2.124732 1_555
Li0 O5 2.183142 1_565
Li0 O1 2.191645 1_555
Li0 O0 2.236044 1_655
Li1 O4 2.118857 1_554
Li1 O1 2.118857 1_455
Li1 O3 2.164995 1_555
Li1 O2 2.164995 1_454
Li1 O4 2.219937 1_454
Li1 O1 2.219937 1_555
Li2 O2 2.116160 1_455
Li2 O2 2.123235 1_555
Li2 O5 2.124732 1_555
Li2 O0 2.183142 1_545
Li2 O4 2.191645 1_555
Li2 O5 2.236044 1_455
Mn0 O3 1.928098 1_545
Mn0 O2 1.928098 1_554
Mn0 O1 2.057529 1_555
Mn0 O4 2.057529 1_544
Mn0 O3 2.197778 1_645
Mn0 O2 2.197778 1_454
Co0 O0 1.921042 1_655
Co0 O4 1.948420 1_555
Co0 O2 2.079568 1_565
Co0 O5 2.082264 1_555
Co0 O0 2.093679 1_555
Co0 O4 2.131692 1_655
Co1 O5 1.921042 1_455
Co1 O1 1.948420 1_555
Co1 O3 2.079568 1_545
Co1 O0 2.082264 1_555
Co1 O5 2.093679 1_555
Co1 O1 2.131692 1_455
