# generated using pymatgen
data_CaMn6(OF2)4
_symmetry_space_group_name_H-M   'P 1'
_cell_length_a   5.51158652
_cell_length_b   7.94865073
_cell_length_c   6.01821661
_cell_angle_alpha   90.03308228
_cell_angle_beta   95.93779606
_cell_angle_gamma   85.99107807
_symmetry_Int_Tables_number   1
_chemical_formula_structural   CaMn6(OF2)4
_chemical_formula_sum   'Ca1 Mn6 O4 F8'
_cell_volume   261.59400770
_cell_formula_units_Z   1
loop_
 _symmetry_equiv_pos_site_id
 _symmetry_equiv_pos_as_xyz
  1  'x, y, z'
loop_
 _atom_site_type_symbol
 _atom_site_label
 _atom_site_symmetry_multiplicity
 _atom_site_fract_x
 _atom_site_fract_y
 _atom_site_fract_z
 _atom_site_occupancy
  Ca  Ca0  1  0.09710700  0.77631400  0.44653800  1
  Mn  Mn0  1  0.55388000  0.03256500  0.49434800  1
  Mn  Mn1  1  0.61313600  0.64549400  0.23706300  1
  Mn  Mn2  1  0.42580400  0.34175300  0.81478900  1
  Mn  Mn3  1  0.81148300  0.62423600  0.79643500  1
  Mn  Mn4  1  0.06036100  0.32915900  0.31951300  1
  Mn  Mn5  1  0.98743900  0.99941500  0.00258100  1
  O  O0  1  0.84324300  0.76838700  0.08960800  1
  O  O1  1  0.68246800  0.77833900  0.51872700  1
  O  O2  1  0.64705300  0.47541100  0.00389800  1
  O  O3  1  0.33181800  0.24005600  0.54041500  1
  F  F0  1  0.79368700  0.45814800  0.48370100  1
  F  F1  1  0.85755300  0.09940400  0.31387200  1
  F  F2  1  0.68345700  0.13516300  0.83026400  1
  F  F3  1  0.18959900  0.55742700  0.74375500  1
  F  F4  1  0.31343000  0.92538600  0.22915200  1
  F  F5  1  0.28755300  0.55759100  0.28601200  1
  F  F6  1  0.17221200  0.24558500  0.01380100  1
  F  F7  1  0.17648900  0.92683200  0.74177900  1
loop_
_geom_bond_atom_site_label_1
_geom_bond_atom_site_label_2
_geom_bond_distance
_geom_bond_site_symmetry_2
Ca0 F7 2.165602 1_555
Ca0 F5 2.238385 1_555
Ca0 F4 2.249270 1_555
Ca0 O1 2.368956 1_455
Ca0 O0 2.442600 1_455
Ca0 F3 2.485437 1_555
Mn0 O3 2.020486 1_555
Mn0 O1 2.094240 1_545
Mn1 O0 1.938366 1_555
Mn1 O2 1.961755 1_555
Mn1 O1 2.013648 1_555
Mn2 O3 1.878406 1_555
Mn2 O2 1.950280 1_556
Mn3 O2 2.040914 1_556
Mn3 O0 2.101988 1_556
Mn3 O1 2.105706 1_555
Mn4 O3 1.987184 1_555
Mn5 O0 2.137628 1_555
F0 Mn4 2.067971 1_655
F0 Mn1 2.213772 1_555
F0 Mn3 2.296047 1_555
F1 Mn0 2.182756 1_555
F1 Mn5 2.202282 1_545
F1 Mn4 2.205285 1_655
F2 Mn2 2.090114 1_555
F2 Mn5 2.106135 1_546
F2 Mn0 2.245631 1_555
F3 Mn2 2.095263 1_555
F3 Mn3 2.169658 1_455
F4 Mn0 2.178995 1_565
F4 Mn5 2.186315 1_455
F4 Mn1 2.674036 1_555
F5 Mn1 2.019914 1_555
F5 Mn4 2.296965 1_555
F6 Mn4 2.093406 1_555
F6 Mn2 2.114034 1_554
F6 Mn5 2.265983 1_445
F7 Mn5 2.033554 1_456
