# generated using pymatgen
data_Ca2Y3Si3O13
_symmetry_space_group_name_H-M   'P 1'
_cell_length_a   6.91222000
_cell_length_b   9.47010208
_cell_length_c   9.44281075
_cell_angle_alpha   120.08705858
_cell_angle_beta   90.00000000
_cell_angle_gamma   90.00000000
_symmetry_Int_Tables_number   1
_chemical_formula_structural   Ca2Y3Si3O13
_chemical_formula_sum   'Ca4 Y6 Si6 O26'
_cell_volume   534.83826605
_cell_formula_units_Z   2
loop_
 _symmetry_equiv_pos_site_id
 _symmetry_equiv_pos_as_xyz
  1  'x, y, z'
loop_
 _atom_site_type_symbol
 _atom_site_label
 _atom_site_symmetry_multiplicity
 _atom_site_fract_x
 _atom_site_fract_y
 _atom_site_fract_z
 _atom_site_occupancy
  Ca  Ca0  1  0.01804500  0.66459700  0.33349700  1
  Ca  Ca1  1  0.51804500  0.33540300  0.66650300  1
  Ca  Ca2  1  0.51299300  0.66592800  0.33459700  1
  Ca  Ca3  1  0.01299300  0.33407200  0.66540300  1
  Y  Y0  1  0.76734100  0.24006600  0.24690400  1
  Y  Y1  1  0.26734100  0.75993400  0.75309600  1
  Y  Y2  1  0.76661300  0.75210500  0.99571100  1
  Y  Y3  1  0.26661300  0.24789500  0.00428900  1
  Y  Y4  1  0.26652600  0.99389800  0.24100400  1
  Y  Y5  1  0.76652600  0.00610200  0.75899600  1
  Si  Si0  1  0.76601800  0.97683300  0.36905500  1
  Si  Si1  1  0.26601800  0.02316700  0.63094500  1
  Si  Si2  1  0.76614800  0.38936400  0.02223500  1
  Si  Si3  1  0.26614800  0.61063600  0.97776500  1
  Si  Si4  1  0.26699000  0.36808100  0.39062600  1
  Si  Si5  1  0.76699000  0.63191900  0.60937400  1
  O  O0  1  0.26715100  0.70033300  0.17635900  1
  O  O1  1  0.76715100  0.29966700  0.82364100  1
  O  O2  1  0.76345500  0.52449400  0.40931100  1
  O  O3  1  0.26345500  0.47550600  0.59068900  1
  O  O4  1  0.76318300  0.88383300  0.47567200  1
  O  O5  1  0.26318300  0.11616700  0.52432800  1
  O  O6  1  0.76683500  0.17491900  0.47575800  1
  O  O7  1  0.26683500  0.82508100  0.52424200  1
  O  O8  1  0.76274900  0.58888700  0.11565200  1
  O  O9  1  0.26274900  0.41111300  0.88434800  1
  O  O10  1  0.26742500  0.47455100  0.29857600  1
  O  O11  1  0.76742500  0.52544900  0.70142400  1
  O  O12  1  0.95215600  0.90970900  0.24266300  1
  O  O13  1  0.45215600  0.09029100  0.75733700  1
  O  O14  1  0.58141900  0.91205800  0.24093400  1
  O  O15  1  0.08141900  0.08794200  0.75906600  1
  O  O16  1  0.95230000  0.33088300  0.08955500  1
  O  O17  1  0.45230000  0.66911700  0.91044500  1
  O  O18  1  0.58229600  0.32466100  0.08582500  1
  O  O19  1  0.08229600  0.67533900  0.91417500  1
  O  O20  1  0.45272700  0.24226700  0.33188900  1
  O  O21  1  0.95272700  0.75773300  0.66811100  1
  O  O22  1  0.08143700  0.24085300  0.32796300  1
  O  O23  1  0.58143700  0.75914700  0.67203700  1
  O  O24  1  0.76689300  0.99832700  0.99935900  1
  O  O25  1  0.26689300  0.00167300  0.00064100  1
loop_
_geom_bond_atom_site_label_1
_geom_bond_atom_site_label_2
_geom_bond_distance
_geom_bond_site_symmetry_2
Ca0 O10 2.392530 1_555
Ca0 O7 2.401400 1_555
Ca0 O0 2.405120 1_555
Ca0 O2 2.514370 1_455
Ca0 O8 2.526038 1_455
Ca0 O4 2.534111 1_455
Ca0 O21 2.858541 1_455
Ca0 O16 2.863782 1_455
Ca0 O12 2.885738 1_455
Ca1 O11 2.392530 1_555
Ca1 O6 2.401400 1_555
Ca1 O1 2.405120 1_555
Ca1 O3 2.514370 1_555
Ca1 O9 2.526038 1_555
Ca1 O5 2.534111 1_555
Ca1 O20 2.858541 1_555
Ca1 O17 2.863782 1_555
Ca1 O13 2.885738 1_555
Ca2 O10 2.379811 1_555
Ca2 O7 2.380646 1_555
Ca2 O0 2.390526 1_555
Ca2 O2 2.497276 1_555
Ca2 O4 2.503493 1_555
Ca2 O8 2.504928 1_555
Ca2 O23 2.887189 1_555
Ca2 O14 2.916483 1_555
Ca2 O18 2.929272 1_555
Ca3 O11 2.379811 1_455
Ca3 O6 2.380646 1_455
Ca3 O1 2.390526 1_455
Ca3 O3 2.497276 1_555
Ca3 O5 2.503493 1_555
Ca3 O9 2.504928 1_555
Ca3 O22 2.887189 1_555
Ca3 O15 2.916483 1_555
Ca3 O19 2.929272 1_555
O0 Si3 1.625164 1_554
O0 Y4 2.529828 1_555
O1 Si2 1.625164 1_556
O1 Y5 2.529828 1_555
O2 Si5 1.636313 1_555
O2 Y0 2.337992 1_555
O3 Si4 1.636313 1_555
O3 Y1 2.337992 1_555
O4 Si0 1.636653 1_555
O4 Y5 2.322269 1_565
O5 Si1 1.636653 1_555
O5 Y4 2.322269 1_545
O6 Si0 1.624544 1_545
O6 Y0 2.527334 1_555
O7 Si1 1.624544 1_565
O7 Y1 2.527334 1_555
O8 Si2 1.636385 1_555
O8 Y2 2.329772 1_554
O9 Si3 1.636385 1_555
O9 Y3 2.329772 1_556
O10 Si4 1.628153 1_555
O10 Y3 2.519742 1_555
O11 Si5 1.628153 1_555
O11 Y2 2.519742 1_555
O12 Si0 1.650228 1_555
O12 Y4 2.317397 1_655
O12 Y2 2.412617 1_554
O13 Si1 1.650228 1_555
O13 Y5 2.317397 1_555
O13 Y3 2.412617 1_556
O14 Si0 1.650461 1_555
O14 Y4 2.310366 1_555
O14 Y2 2.403819 1_554
O15 Si1 1.650461 1_555
O15 Y5 2.310366 1_455
O15 Y3 2.403819 1_556
O16 Si2 1.649079 1_555
O16 Y3 2.313368 1_655
O16 Y0 2.421377 1_555
O17 Si3 1.649079 1_555
O17 Y2 2.313368 1_555
O17 Y1 2.421377 1_555
O18 Si2 1.649217 1_555
O18 Y3 2.306844 1_555
O18 Y0 2.411043 1_555
O19 Si3 1.649217 1_555
O19 Y2 2.306844 1_455
O19 Y1 2.411043 1_555
O20 Si4 1.647100 1_555
O20 Y0 2.314499 1_555
O20 Y4 2.429289 1_545
O21 Si5 1.647100 1_555
O21 Y1 2.314499 1_655
O21 Y5 2.429289 1_565
O22 Si4 1.652885 1_555
O22 Y0 2.300845 1_455
O22 Y4 2.419731 1_545
O23 Si5 1.652885 1_555
O23 Y1 2.300845 1_555
O23 Y5 2.419731 1_565
O24 Y5 2.307495 1_565
O24 Y0 2.310742 1_566
O24 Y2 2.314671 1_555
O25 Y4 2.307495 1_545
O25 Y1 2.310742 1_544
O25 Y3 2.314671 1_555
