# generated using pymatgen
data_MgGeAs2
_symmetry_space_group_name_H-M   'P 1'
_cell_length_a   5.95900319
_cell_length_b   5.95900319
_cell_length_c   6.97088248
_cell_angle_alpha   115.30399706
_cell_angle_beta   115.30399706
_cell_angle_gamma   90.00000000
_symmetry_Int_Tables_number   1
_chemical_formula_structural   MgGeAs2
_chemical_formula_sum   'Mg2 Ge2 As4'
_cell_volume   197.19359078
_cell_formula_units_Z   2
loop_
 _symmetry_equiv_pos_site_id
 _symmetry_equiv_pos_as_xyz
  1  'x, y, z'
loop_
 _atom_site_type_symbol
 _atom_site_label
 _atom_site_symmetry_multiplicity
 _atom_site_fract_x
 _atom_site_fract_y
 _atom_site_fract_z
 _atom_site_occupancy
  Mg  Mg0  1  0.00000000  -0.00000000  -0.00000000  1
  Mg  Mg1  1  0.25000000  0.75000000  0.50000000  1
  Ge  Ge0  1  0.75000000  0.25000000  0.50000000  1
  Ge  Ge1  1  0.50000000  0.50000000  0.00000000  1
  As  As0  1  0.12500000  0.60010317  0.75000000  1
  As  As1  1  0.85010317  0.87500000  0.25000000  1
  As  As2  1  0.62500000  0.14989683  0.75000000  1
  As  As3  1  0.39989683  0.37500000  0.25000000  1
loop_
_geom_bond_atom_site_label_1
_geom_bond_atom_site_label_2
_geom_bond_distance
_geom_bond_site_symmetry_2
As0 Ge1 2.438459 1_556
As0 Ge0 2.438459 1_455
As0 Mg1 2.613458 1_555
As0 Mg0 2.613458 1_566
As1 Ge0 2.438459 1_565
As1 Ge1 2.438459 1_555
As1 Mg0 2.613458 1_665
As1 Mg1 2.613458 1_655
As2 Ge0 2.438459 1_555
As2 Ge1 2.438459 1_556
As2 Mg0 2.613458 1_656
As2 Mg1 2.613458 1_545
As3 Ge1 2.438459 1_555
As3 Ge0 2.438459 1_555
As3 Mg1 2.613458 1_555
As3 Mg0 2.613458 1_555
