# generated using pymatgen
data_LuB2Os
_symmetry_space_group_name_H-M   'P 1'
_cell_length_a   5.26280000
_cell_length_b   5.81916300
_cell_length_c   6.30594700
_cell_angle_alpha   90.00000000
_cell_angle_beta   90.00000000
_cell_angle_gamma   90.00000000
_symmetry_Int_Tables_number   1
_chemical_formula_structural   LuB2Os
_chemical_formula_sum   'Lu4 B8 Os4'
_cell_volume   193.12020095
_cell_formula_units_Z   4
loop_
 _symmetry_equiv_pos_site_id
 _symmetry_equiv_pos_as_xyz
  1  'x, y, z'
loop_
 _atom_site_type_symbol
 _atom_site_label
 _atom_site_symmetry_multiplicity
 _atom_site_fract_x
 _atom_site_fract_y
 _atom_site_fract_z
 _atom_site_occupancy
  Lu  Lu0  1  0.25000000  0.01060500  0.33350700  1
  Lu  Lu1  1  0.25000000  0.51060500  0.16649300  1
  Lu  Lu2  1  0.75000000  0.98939500  0.66649300  1
  Lu  Lu3  1  0.75000000  0.48939500  0.83350700  1
  B  B0  1  0.08189500  0.36043000  0.53643600  1
  B  B1  1  0.41810500  0.86043000  0.96356400  1
  B  B2  1  0.58189500  0.63957000  0.46356400  1
  B  B3  1  0.91810500  0.13957000  0.03643600  1
  B  B4  1  0.91810500  0.63957000  0.46356400  1
  B  B5  1  0.58189500  0.13957000  0.03643600  1
  B  B6  1  0.41810500  0.36043000  0.53643600  1
  B  B7  1  0.08189500  0.86043000  0.96356400  1
  Os  Os0  1  0.25000000  0.17742300  0.81902800  1
  Os  Os1  1  0.25000000  0.67742300  0.68097200  1
  Os  Os2  1  0.75000000  0.82257700  0.18097200  1
  Os  Os3  1  0.75000000  0.32257700  0.31902800  1
loop_
_geom_bond_atom_site_label_1
_geom_bond_atom_site_label_2
_geom_bond_distance
_geom_bond_site_symmetry_2
Lu0 Os1 2.925748 1_545
Lu1 Os0 2.925748 1_554
Lu2 Os3 2.925748 1_565
Lu3 Os2 2.925748 1_556
B0 B6 1.769406 1_555
B0 B4 1.895455 1_455
B0 Os3 2.231370 1_455
B0 Os1 2.239663 1_555
B0 Os0 2.256629 1_555
B0 Lu0 2.562080 1_555
B0 Lu1 2.643584 1_555
B0 Lu3 2.668981 1_455
B0 Lu2 2.895745 1_445
B1 B7 1.769406 1_555
B1 B5 1.895455 1_566
B1 Os2 2.231370 1_556
B1 Os0 2.239663 1_565
B1 Os1 2.256629 1_555
B1 Lu1 2.562080 1_556
B1 Lu0 2.643584 1_566
B1 Lu2 2.668981 1_555
B1 Lu3 2.895745 1_555
B2 B4 1.769406 1_555
B2 B6 1.895455 1_555
B2 Os1 2.231370 1_555
B2 Os3 2.239663 1_555
B2 Os2 2.256629 1_555
B2 Lu2 2.562080 1_555
B2 Lu3 2.643584 1_555
B2 Lu1 2.668981 1_555
B2 Lu0 2.895745 1_565
B3 B5 1.769406 1_555
B3 B7 1.895455 1_644
B3 Os0 2.231370 1_654
B3 Os2 2.239663 1_545
B3 Os3 2.256629 1_555
B3 Lu3 2.562080 1_554
B3 Lu2 2.643584 1_544
B3 Lu0 2.668981 1_655
B3 Lu1 2.895745 1_655
B4 Os1 2.231370 1_655
B4 Os3 2.239663 1_555
B4 Os2 2.256629 1_555
B4 Lu2 2.562080 1_555
B4 Lu3 2.643584 1_555
B4 Lu1 2.668981 1_655
B4 Lu0 2.895745 1_665
B5 Os0 2.231370 1_554
B5 Os2 2.239663 1_545
B5 Os3 2.256629 1_555
B5 Lu3 2.562080 1_554
B5 Lu2 2.643584 1_544
B5 Lu0 2.668981 1_555
B5 Lu1 2.895745 1_555
B6 Os3 2.231370 1_555
B6 Os1 2.239663 1_555
B6 Os0 2.256629 1_555
B6 Lu0 2.562080 1_555
B6 Lu1 2.643584 1_555
B6 Lu3 2.668981 1_555
B6 Lu2 2.895745 1_545
B7 Os2 2.231370 1_456
B7 Os0 2.239663 1_565
B7 Os1 2.256629 1_555
B7 Lu1 2.562080 1_556
B7 Lu0 2.643584 1_566
B7 Lu2 2.668981 1_455
B7 Lu3 2.895745 1_455
