# generated using pymatgen
data_Tb3Co11B4
_symmetry_space_group_name_H-M   'P 1'
_cell_length_a   5.03574603
_cell_length_b   5.03681168
_cell_length_c   9.76403700
_cell_angle_alpha   90.00008808
_cell_angle_beta   89.99981944
_cell_angle_gamma   119.99299678
_symmetry_Int_Tables_number   1
_chemical_formula_structural   Tb3Co11B4
_chemical_formula_sum   'Tb3 Co11 B4'
_cell_volume   214.49156790
_cell_formula_units_Z   1
loop_
 _symmetry_equiv_pos_site_id
 _symmetry_equiv_pos_as_xyz
  1  'x, y, z'
loop_
 _atom_site_type_symbol
 _atom_site_label
 _atom_site_symmetry_multiplicity
 _atom_site_fract_x
 _atom_site_fract_y
 _atom_site_fract_z
 _atom_site_occupancy
  Tb  Tb0  1  0.99997900  0.00000000  0.00004200  1
  Tb  Tb1  1  0.99999500  0.00000000  0.34162600  1
  Tb  Tb2  1  0.00000700  0.00000000  0.65833300  1
  Co  Co0  1  0.33324000  0.66652700  0.00002900  1
  Co  Co1  1  0.66671300  0.33347300  0.00002900  1
  Co  Co2  1  0.50000300  0.00000000  0.49997800  1
  Co  Co3  1  0.50000300  0.50000100  0.50003300  1
  Co  Co4  1  0.00000200  0.49999900  0.50003300  1
  Co  Co5  1  0.50000200  0.00000000  0.20141000  1
  Co  Co6  1  0.49999100  0.50001200  0.20154400  1
  Co  Co7  1  0.99997900  0.49998800  0.20154400  1
  Co  Co8  1  0.50000200  0.00000000  0.79851000  1
  Co  Co9  1  0.50000200  0.49999800  0.79848500  1
  Co  Co10  1  0.00000400  0.50000200  0.79848500  1
  B  B0  1  0.33324800  0.66652400  0.34909500  1
  B  B1  1  0.66672400  0.33347600  0.34909500  1
  B  B2  1  0.66658600  0.33316400  0.65086600  1
  B  B3  1  0.33342100  0.66683600  0.65086600  1
loop_
_geom_bond_atom_site_label_1
_geom_bond_atom_site_label_2
_geom_bond_distance
_geom_bond_site_symmetry_2
Co0 Co5 2.445914 1_565
Co0 Co7 2.446230 1_455
Co0 Co6 2.446250 1_555
Co0 Co10 2.446400 1_554
Co0 Co9 2.446536 1_554
Co0 Co8 2.446997 1_564
Co0 Tb0 2.907601 1_455
Co0 Tb0 2.907888 1_465
Co0 Tb0 2.907910 1_565
Co1 Co5 2.445914 1_555
Co1 Co6 2.446230 1_555
Co1 Co7 2.446250 1_555
Co1 Co9 2.446400 1_554
Co1 Co10 2.446536 1_654
Co1 Co8 2.446997 1_554
Co1 Tb0 2.907601 1_565
Co1 Tb0 2.907888 1_455
Co1 Tb0 2.907910 1_555
Co2 Tb1 2.954666 1_555
Co2 Tb2 2.954699 1_555
Co2 Tb2 2.954741 1_655
Co2 Tb1 2.954743 1_455
Co3 Tb2 2.954885 1_555
Co3 Tb2 2.954902 1_665
Co3 Tb1 2.955418 1_565
Co3 Tb1 2.955461 1_455
Co4 Tb2 2.954885 1_565
Co4 Tb2 2.954901 1_555
Co4 Tb1 2.955418 1_455
Co4 Tb1 2.955461 1_465
Co5 Tb1 2.865989 1_555
Co5 Tb1 2.866043 1_455
Co6 Tb1 2.865844 1_565
Co6 Tb1 2.865876 1_455
Co7 Tb1 2.865844 1_555
Co7 Tb1 2.865875 1_565
Co8 Tb2 2.865816 1_555
Co8 Tb2 2.865853 1_655
Co9 Tb2 2.866172 1_555
Co9 Tb2 2.866200 1_665
Co10 Tb2 2.866172 1_565
Co10 Tb2 2.866200 1_555
B0 Co6 2.046489 1_555
B0 Co7 2.046538 1_455
B0 Co5 2.048316 1_565
B0 Co4 2.069876 1_555
B0 Co3 2.069980 1_555
B0 Co2 2.070418 1_565
B0 Tb1 2.908502 1_455
B0 Tb1 2.908781 1_465
B0 Tb1 2.908859 1_565
B1 Co7 2.046489 1_555
B1 Co6 2.046538 1_555
B1 Co5 2.048317 1_555
B1 Co3 2.069876 1_555
B1 Co4 2.069980 1_655
B1 Co2 2.070418 1_555
B1 Tb1 2.908502 1_565
B1 Tb1 2.908781 1_455
B1 Tb1 2.908859 1_555
B2 Co8 2.047068 1_555
B2 Co9 2.047462 1_555
B2 Co10 2.047468 1_655
B2 Co2 2.069496 1_555
B2 Co4 2.069668 1_655
B2 Co3 2.069685 1_555
B2 Tb2 2.908126 1_555
B2 Tb2 2.908152 1_655
B2 Tb2 2.909862 1_665
B3 Co8 2.047068 1_565
B3 Co10 2.047459 1_555
B3 Co9 2.047471 1_555
B3 Co2 2.069496 1_565
B3 Co3 2.069671 1_555
B3 Co4 2.069683 1_555
B3 Tb2 2.908121 1_565
B3 Tb2 2.908157 1_665
B3 Tb2 2.909862 1_555
