# generated using pymatgen
data_In2Ge5N8
_symmetry_space_group_name_H-M   'P 1'
_cell_length_a   11.40489402
_cell_length_b   10.42538909
_cell_length_c   14.37718798
_cell_angle_alpha   90.00000000
_cell_angle_beta   90.00000000
_cell_angle_gamma   90.00000000
_symmetry_Int_Tables_number   1
_chemical_formula_structural   In2Ge5N8
_chemical_formula_sum   'In16 Ge40 N64'
_cell_volume   1709.45423110
_cell_formula_units_Z   8
loop_
 _symmetry_equiv_pos_site_id
 _symmetry_equiv_pos_as_xyz
  1  'x, y, z'
loop_
 _atom_site_type_symbol
 _atom_site_label
 _atom_site_symmetry_multiplicity
 _atom_site_fract_x
 _atom_site_fract_y
 _atom_site_fract_z
 _atom_site_occupancy
  In  In0  1  0.09129098  0.13015901  0.00891045  1
  In  In1  1  0.59129098  0.36984099  0.99108955  1
  In  In2  1  0.90870902  0.63015901  0.49108955  1
  In  In3  1  0.40870902  0.86984099  0.50891045  1
  In  In4  1  0.90870902  0.86984099  0.99108955  1
  In  In5  1  0.40870902  0.63015901  0.00891045  1
  In  In6  1  0.09129098  0.36984099  0.50891045  1
  In  In7  1  0.59129098  0.13015901  0.49108955  1
  In  In8  1  0.40668666  0.06541715  0.05715324  1
  In  In9  1  0.90668666  0.43458285  0.94284676  1
  In  In10  1  0.59331334  0.56541715  0.44284676  1
  In  In11  1  0.09331334  0.93458285  0.55715324  1
  In  In12  1  0.59331334  0.93458285  0.94284676  1
  In  In13  1  0.09331334  0.56541715  0.05715324  1
  In  In14  1  0.40668666  0.43458285  0.55715324  1
  In  In15  1  0.90668666  0.06541715  0.44284676  1
  Ge  Ge0  1  0.39695042  0.24855079  0.83563709  1
  Ge  Ge1  1  0.89695042  0.25144921  0.16436291  1
  Ge  Ge2  1  0.60304958  0.74855079  0.66436291  1
  Ge  Ge3  1  0.10304958  0.75144921  0.33563709  1
  Ge  Ge4  1  0.60304958  0.75144921  0.16436291  1
  Ge  Ge5  1  0.10304958  0.74855079  0.83563709  1
  Ge  Ge6  1  0.39695042  0.25144921  0.33563709  1
  Ge  Ge7  1  0.89695042  0.24855079  0.66436291  1
  Ge  Ge8  1  0.16268537  0.24488361  0.71745550  1
  Ge  Ge9  1  0.66268537  0.25511639  0.28254450  1
  Ge  Ge10  1  0.83731463  0.74488361  0.78254450  1
  Ge  Ge11  1  0.33731463  0.75511639  0.21745550  1
  Ge  Ge12  1  0.83731463  0.75511639  0.28254450  1
  Ge  Ge13  1  0.33731463  0.74488361  0.71745550  1
  Ge  Ge14  1  0.16268537  0.25511639  0.21745550  1
  Ge  Ge15  1  0.66268537  0.24488361  0.78254450  1
  Ge  Ge16  1  0.24910201  0.99165290  0.83425761  1
  Ge  Ge17  1  0.74910201  0.50834710  0.16574239  1
  Ge  Ge18  1  0.75089799  0.49165290  0.66574239  1
  Ge  Ge19  1  0.25089799  0.00834710  0.33425761  1
  Ge  Ge20  1  0.75089799  0.00834710  0.16574239  1
  Ge  Ge21  1  0.25089799  0.49165290  0.83425761  1
  Ge  Ge22  1  0.24910201  0.50834710  0.33425761  1
  Ge  Ge23  1  0.74910201  0.99165290  0.66574239  1
  Ge  Ge24  1  0.98126286  0.01393016  0.78495287  1
  Ge  Ge25  1  0.48126286  0.48606984  0.21504713  1
  Ge  Ge26  1  0.01873714  0.51393016  0.71504713  1
  Ge  Ge27  1  0.51873714  0.98606984  0.28495287  1
  Ge  Ge28  1  0.01873714  0.98606984  0.21504713  1
  Ge  Ge29  1  0.51873714  0.51393016  0.78495287  1
  Ge  Ge30  1  0.98126286  0.48606984  0.28495287  1
  Ge  Ge31  1  0.48126286  0.01393016  0.71504713  1
  Ge  Ge32  1  0.82151037  0.14354824  0.96604557  1
  Ge  Ge33  1  0.32151037  0.35645176  0.03395443  1
  Ge  Ge34  1  0.17848963  0.64354824  0.53395443  1
  Ge  Ge35  1  0.67848963  0.85645176  0.46604557  1
  Ge  Ge36  1  0.17848963  0.85645176  0.03395443  1
  Ge  Ge37  1  0.67848963  0.64354824  0.96604557  1
  Ge  Ge38  1  0.82151037  0.35645176  0.46604557  1
  Ge  Ge39  1  0.32151037  0.14354824  0.53395443  1
  N  N0  1  0.92417348  0.24427730  0.03794660  1
  N  N1  1  0.42417348  0.25572270  0.96205340  1
  N  N2  1  0.07582652  0.74427730  0.46205340  1
  N  N3  1  0.57582652  0.75572270  0.53794660  1
  N  N4  1  0.07582652  0.75572270  0.96205340  1
  N  N5  1  0.57582652  0.74427730  0.03794660  1
  N  N6  1  0.92417348  0.25572270  0.53794660  1
  N  N7  1  0.42417348  0.24427730  0.46205340  1
  N  N8  1  0.94411185  0.05040392  0.90766906  1
  N  N9  1  0.44411185  0.44959608  0.09233094  1
  N  N10  1  0.05588815  0.55040392  0.59233094  1
  N  N11  1  0.55588815  0.94959608  0.40766906  1
  N  N12  1  0.05588815  0.94959608  0.09233094  1
  N  N13  1  0.55588815  0.55040392  0.90766906  1
  N  N14  1  0.94411185  0.44959608  0.40766906  1
  N  N15  1  0.44411185  0.05040392  0.59233094  1
  N  N16  1  0.72061342  0.25697151  0.90475821  1
  N  N17  1  0.22061342  0.24302849  0.09524179  1
  N  N18  1  0.27938658  0.75697151  0.59524179  1
  N  N19  1  0.77938658  0.74302849  0.40475821  1
  N  N20  1  0.27938658  0.74302849  0.09524179  1
  N  N21  1  0.77938658  0.75697151  0.90475821  1
  N  N22  1  0.72061342  0.24302849  0.40475821  1
  N  N23  1  0.22061342  0.25697151  0.59524179  1
  N  N24  1  0.24194400  0.99468702  0.96386061  1
  N  N25  1  0.74194400  0.50531298  0.03613939  1
  N  N26  1  0.75805600  0.49468702  0.53613939  1
  N  N27  1  0.25805600  0.00531298  0.46386061  1
  N  N28  1  0.75805600  0.00531298  0.03613939  1
  N  N29  1  0.25805600  0.49468702  0.96386061  1
  N  N30  1  0.24194400  0.50531298  0.46386061  1
  N  N31  1  0.74194400  0.99468702  0.53613939  1
  N  N32  1  0.01752596  0.16222335  0.72063176  1
  N  N33  1  0.51752596  0.33777665  0.27936824  1
  N  N34  1  0.98247404  0.66222335  0.77936824  1
  N  N35  1  0.48247404  0.83777665  0.22063176  1
  N  N36  1  0.98247404  0.83777665  0.27936824  1
  N  N37  1  0.48247404  0.66222335  0.72063176  1
  N  N38  1  0.01752596  0.33777665  0.22063176  1
  N  N39  1  0.51752596  0.16222335  0.77936824  1
  N  N40  1  0.36722158  0.90959432  0.76811812  1
  N  N41  1  0.86722158  0.59040568  0.23188188  1
  N  N42  1  0.63277842  0.40959432  0.73188188  1
  N  N43  1  0.13277842  0.09040568  0.26811812  1
  N  N44  1  0.63277842  0.09040568  0.23188188  1
  N  N45  1  0.13277842  0.40959432  0.76811812  1
  N  N46  1  0.36722158  0.59040568  0.26811812  1
  N  N47  1  0.86722158  0.90959432  0.73188188  1
  N  N48  1  0.25754120  0.16610731  0.80472580  1
  N  N49  1  0.75754120  0.33389269  0.19527420  1
  N  N50  1  0.74245880  0.66610731  0.69527420  1
  N  N51  1  0.24245880  0.83389269  0.30472580  1
  N  N52  1  0.74245880  0.83389269  0.19527420  1
  N  N53  1  0.24245880  0.66610731  0.80472580  1
  N  N54  1  0.25754120  0.33389269  0.30472580  1
  N  N55  1  0.75754120  0.16610731  0.69527420  1
  N  N56  1  0.11562490  0.91416308  0.78698627  1
  N  N57  1  0.61562490  0.58583692  0.21301373  1
  N  N58  1  0.88437510  0.41416308  0.71301373  1
  N  N59  1  0.38437510  0.08583692  0.28698627  1
  N  N60  1  0.88437510  0.08583692  0.21301373  1
  N  N61  1  0.38437510  0.41416308  0.78698627  1
  N  N62  1  0.11562490  0.58583692  0.28698627  1
  N  N63  1  0.61562490  0.91416308  0.71301373  1
loop_
_geom_bond_atom_site_label_1
_geom_bond_atom_site_label_2
_geom_bond_distance
_geom_bond_site_symmetry_2
In0 N17 2.258446 1_555
In0 N12 2.268270 1_545
In0 N0 2.285256 1_455
In0 N24 2.316544 1_544
In0 N8 2.372256 1_454
In1 N16 2.258446 1_555
In1 N13 2.268270 1_555
In1 N1 2.285256 1_555
In1 N25 2.316544 1_556
In1 N9 2.372256 1_556
In2 N19 2.258446 1_555
In2 N14 2.268270 1_555
In2 N2 2.285256 1_655
In2 N26 2.316544 1_555
In2 N10 2.372256 1_655
In3 N18 2.258446 1_555
In3 N15 2.268270 1_565
In3 N3 2.285256 1_555
In3 N27 2.316544 1_565
In3 N11 2.372256 1_555
In4 N21 2.258446 1_555
In4 N8 2.268270 1_565
In4 N4 2.285256 1_655
In4 N28 2.316544 1_566
In4 N12 2.372256 1_656
In5 N20 2.258446 1_555
In5 N9 2.268270 1_555
In5 N5 2.285256 1_555
In5 N29 2.316544 1_554
In5 N13 2.372256 1_554
In6 N23 2.258446 1_555
In6 N10 2.268270 1_555
In6 N6 2.285256 1_455
In6 N30 2.316544 1_555
In6 N14 2.372256 1_455
In7 N22 2.258446 1_555
In7 N11 2.268270 1_545
In7 N7 2.285256 1_555
In7 N31 2.316544 1_545
In7 N15 2.372256 1_555
In8 N1 2.417745 1_554
In8 N24 2.423417 1_544
In9 N0 2.417745 1_556
In9 N25 2.423417 1_556
In10 N3 2.417745 1_555
In10 N26 2.423417 1_555
In11 N2 2.417745 1_555
In11 N27 2.423417 1_565
In12 N5 2.417745 1_556
In12 N28 2.423417 1_566
In13 N4 2.417745 1_554
In13 N29 2.423417 1_554
In14 N7 2.417745 1_555
In14 N30 2.423417 1_555
In15 N6 2.417745 1_555
In15 N31 2.423417 1_545
Ge0 N39 1.831802 1_555
Ge0 N1 1.845354 1_555
Ge0 N48 1.861233 1_555
Ge0 N61 1.868387 1_555
Ge1 N38 1.831802 1_655
Ge1 N0 1.845354 1_555
Ge1 N49 1.861233 1_555
Ge1 N60 1.868387 1_555
Ge2 N37 1.831802 1_555
Ge2 N3 1.845354 1_555
Ge2 N50 1.861233 1_555
Ge2 N63 1.868387 1_555
Ge3 N36 1.831802 1_455
Ge3 N2 1.845354 1_555
Ge3 N51 1.861233 1_555
Ge3 N62 1.868387 1_555
Ge4 N35 1.831802 1_555
Ge4 N5 1.845354 1_555
Ge4 N52 1.861233 1_555
Ge4 N57 1.868387 1_555
Ge5 N34 1.831802 1_455
Ge5 N4 1.845354 1_555
Ge5 N53 1.861233 1_555
Ge5 N56 1.868387 1_555
Ge6 N33 1.831802 1_555
Ge6 N7 1.845354 1_555
Ge6 N54 1.861233 1_555
Ge6 N59 1.868387 1_555
Ge7 N32 1.831802 1_655
Ge7 N6 1.845354 1_555
Ge7 N55 1.861233 1_555
Ge7 N58 1.868387 1_555
Ge8 N48 1.849081 1_555
Ge8 N32 1.866949 1_555
Ge8 N23 1.881415 1_555
Ge8 N45 1.896199 1_555
Ge9 N49 1.849081 1_555
Ge9 N33 1.866949 1_555
Ge9 N22 1.881415 1_555
Ge9 N44 1.896199 1_555
Ge10 N50 1.849081 1_555
Ge10 N34 1.866949 1_555
Ge10 N21 1.881415 1_555
Ge10 N47 1.896199 1_555
Ge11 N51 1.849081 1_555
Ge11 N35 1.866949 1_555
Ge11 N20 1.881415 1_555
Ge11 N46 1.896199 1_555
Ge12 N52 1.849081 1_555
Ge12 N36 1.866949 1_555
Ge12 N19 1.881415 1_555
Ge12 N41 1.896199 1_555
Ge13 N53 1.849081 1_555
Ge13 N37 1.866949 1_555
Ge13 N18 1.881415 1_555
Ge13 N40 1.896199 1_555
Ge14 N54 1.849081 1_555
Ge14 N38 1.866949 1_555
Ge14 N17 1.881415 1_555
Ge14 N43 1.896199 1_555
Ge15 N55 1.849081 1_555
Ge15 N39 1.866949 1_555
Ge15 N16 1.881415 1_555
Ge15 N42 1.896199 1_555
Ge16 N56 1.852541 1_555
Ge16 N40 1.857651 1_555
Ge16 N24 1.865382 1_555
Ge16 N48 1.870135 1_565
Ge17 N57 1.852541 1_555
Ge17 N41 1.857651 1_555
Ge17 N25 1.865382 1_555
Ge17 N49 1.870135 1_555
Ge18 N58 1.852541 1_555
Ge18 N42 1.857651 1_555
Ge18 N26 1.865382 1_555
Ge18 N50 1.870135 1_555
Ge19 N59 1.852541 1_555
Ge19 N43 1.857651 1_555
Ge19 N27 1.865382 1_555
Ge19 N51 1.870135 1_545
Ge20 N60 1.852541 1_555
Ge20 N44 1.857651 1_555
Ge20 N28 1.865382 1_555
Ge20 N52 1.870135 1_545
Ge21 N61 1.852541 1_555
Ge21 N45 1.857651 1_555
Ge21 N29 1.865382 1_555
Ge21 N53 1.870135 1_555
Ge22 N62 1.852541 1_555
Ge22 N46 1.857651 1_555
Ge22 N30 1.865382 1_555
Ge22 N54 1.870135 1_555
Ge23 N63 1.852541 1_555
Ge23 N47 1.857651 1_555
Ge23 N31 1.865382 1_555
Ge23 N55 1.870135 1_565
Ge24 N32 1.848345 1_655
Ge24 N56 1.852266 1_645
Ge24 N8 1.853893 1_555
Ge24 N47 1.859302 1_545
Ge25 N33 1.848345 1_555
Ge25 N57 1.852266 1_555
Ge25 N9 1.853893 1_555
Ge25 N46 1.859302 1_555
Ge26 N34 1.848345 1_455
Ge26 N58 1.852266 1_455
Ge26 N10 1.853893 1_555
Ge26 N45 1.859302 1_555
Ge27 N35 1.848345 1_555
Ge27 N59 1.852266 1_565
Ge27 N11 1.853893 1_555
Ge27 N44 1.859302 1_565
Ge28 N36 1.848345 1_455
Ge28 N60 1.852266 1_465
Ge28 N12 1.853893 1_555
Ge28 N43 1.859302 1_565
Ge29 N37 1.848345 1_555
Ge29 N61 1.852266 1_555
Ge29 N13 1.853893 1_555
Ge29 N42 1.859302 1_555
Ge30 N38 1.848345 1_655
Ge30 N62 1.852266 1_655
Ge30 N14 1.853893 1_555
Ge30 N41 1.859302 1_555
Ge31 N39 1.848345 1_555
Ge31 N63 1.852266 1_545
Ge31 N15 1.853893 1_555
Ge31 N40 1.859302 1_545
Ge32 N16 1.870515 1_555
Ge32 N0 1.882105 1_556
Ge32 N8 1.898025 1_555
Ge32 N28 1.901637 1_556
Ge33 N17 1.870515 1_555
Ge33 N1 1.882105 1_554
Ge33 N9 1.898025 1_555
Ge33 N29 1.901637 1_554
Ge34 N18 1.870515 1_555
Ge34 N2 1.882105 1_555
Ge34 N10 1.898025 1_555
Ge34 N30 1.901637 1_555
Ge35 N19 1.870515 1_555
Ge35 N3 1.882105 1_555
Ge35 N11 1.898025 1_555
Ge35 N31 1.901637 1_555
Ge36 N20 1.870515 1_555
Ge36 N4 1.882105 1_554
Ge36 N12 1.898025 1_555
Ge36 N24 1.901637 1_554
Ge37 N21 1.870515 1_555
Ge37 N5 1.882105 1_556
Ge37 N13 1.898025 1_555
Ge37 N25 1.901637 1_556
Ge38 N22 1.870515 1_555
Ge38 N6 1.882105 1_555
Ge38 N14 1.898025 1_555
Ge38 N26 1.901637 1_555
Ge39 N23 1.870515 1_555
Ge39 N7 1.882105 1_555
Ge39 N15 1.898025 1_555
Ge39 N27 1.901637 1_555
