# generated using pymatgen
data_Rb2NbCuS4
_symmetry_space_group_name_H-M   'P 1'
_cell_length_a   13.98986513
_cell_length_b   12.47726316
_cell_length_c   7.46683337
_cell_angle_alpha   85.16063384
_cell_angle_beta   62.71025399
_cell_angle_gamma   32.12911218
_symmetry_Int_Tables_number   1
_chemical_formula_structural   Rb2NbCuS4
_chemical_formula_sum   'Rb4 Nb2 Cu2 S8'
_cell_volume   471.78364544
_cell_formula_units_Z   2
loop_
 _symmetry_equiv_pos_site_id
 _symmetry_equiv_pos_as_xyz
  1  'x, y, z'
loop_
 _atom_site_type_symbol
 _atom_site_label
 _atom_site_symmetry_multiplicity
 _atom_site_fract_x
 _atom_site_fract_y
 _atom_site_fract_z
 _atom_site_occupancy
  Rb  Rb0  1  0.32251100  0.32251100  0.67748900  1
  Rb  Rb1  1  0.67748900  0.67748900  0.32251100  1
  Rb  Rb2  1  0.92748900  0.92748900  0.57251100  1
  Rb  Rb3  1  0.57251100  0.57251100  0.92748900  1
  Nb  Nb0  1  0.75000000  0.75000000  0.75000000  1
  Nb  Nb1  1  0.50000000  0.50000000  0.50000000  1
  Cu  Cu0  1  0.25000000  0.25000000  0.25000000  1
  Cu  Cu1  1  0.00000000  0.00000000  0.00000000  1
  S  S0  1  0.89325100  0.21374300  0.29808900  1
  S  S1  1  0.59491800  0.29808900  0.21374300  1
  S  S2  1  0.29808900  0.59491800  0.89325100  1
  S  S3  1  0.21374300  0.89325100  0.59491800  1
  S  S4  1  0.03625700  0.35674900  0.65508200  1
  S  S5  1  0.65508200  0.95191100  0.03625700  1
  S  S6  1  0.95191100  0.65508200  0.35674900  1
  S  S7  1  0.35674900  0.03625700  0.95191100  1
loop_
_geom_bond_atom_site_label_1
_geom_bond_atom_site_label_2
_geom_bond_distance
_geom_bond_site_symmetry_2
Rb0 S6 3.528667 1_545
Rb0 S5 3.528669 1_456
Rb0 S1 3.566093 1_555
Rb0 S2 3.566097 1_555
Rb0 S6 3.580984 1_456
Rb0 S5 3.580990 1_545
Rb0 S7 3.735306 1_555
Rb0 S4 3.735310 1_555
Rb1 S7 3.528663 1_565
Rb1 S4 3.528670 1_654
Rb1 S3 3.566084 1_555
Rb1 S0 3.566086 1_555
Rb1 S7 3.580984 1_654
Rb1 S4 3.580986 1_565
Rb1 S6 3.735296 1_555
Rb1 S5 3.735300 1_555
Rb2 S2 3.528667 1_565
Rb2 S1 3.528669 1_655
Rb2 S5 3.566093 1_556
Rb2 S6 3.566097 1_555
Rb2 S2 3.580984 1_654
Rb2 S1 3.580990 1_566
Rb2 S0 3.735306 1_565
Rb2 S3 3.735310 1_655
Rb3 S0 3.528663 1_555
Rb3 S3 3.528670 1_556
Rb3 S4 3.566084 1_655
Rb3 S7 3.566086 1_565
Rb3 S0 3.580984 1_466
Rb3 S3 3.580986 1_645
Rb3 S2 3.735296 1_555
Rb3 S1 3.735300 1_556
Nb0 S5 2.306220 1_556
Nb0 S6 2.306225 1_555
Nb0 S4 2.306228 1_655
Nb0 S7 2.306230 1_565
Nb1 S1 2.306220 1_555
Nb1 S2 2.306225 1_555
Nb1 S3 2.306228 1_555
Nb1 S0 2.306230 1_555
Cu0 S5 2.346197 1_545
Cu0 S6 2.346199 1_455
Cu0 S4 2.346202 1_555
Cu0 S7 2.346208 1_554
Cu1 S1 2.346197 1_455
Cu1 S2 2.346199 1_544
Cu1 S3 2.346202 1_544
Cu1 S0 2.346208 1_455
