# generated using pymatgen
data_NaErTi2O6
_symmetry_space_group_name_H-M   'P 1'
_cell_length_a   5.31039500
_cell_length_b   5.52733100
_cell_length_c   7.61137400
_cell_angle_alpha   90.00000000
_cell_angle_beta   90.00000000
_cell_angle_gamma   90.00000000
_symmetry_Int_Tables_number   1
_chemical_formula_structural   NaErTi2O6
_chemical_formula_sum   'Na2 Er2 Ti4 O12'
_cell_volume   223.41141607
_cell_formula_units_Z   2
loop_
 _symmetry_equiv_pos_site_id
 _symmetry_equiv_pos_as_xyz
  1  'x, y, z'
loop_
 _atom_site_type_symbol
 _atom_site_label
 _atom_site_symmetry_multiplicity
 _atom_site_fract_x
 _atom_site_fract_y
 _atom_site_fract_z
 _atom_site_occupancy
  Na  Na0  1  0.49383200  0.71387300  0.50000000  1
  Na  Na1  1  0.99383200  0.28612700  0.00000000  1
  Er  Er0  1  0.01874100  0.17850900  0.50000000  1
  Er  Er1  1  0.51874100  0.82149100  0.00000000  1
  Ti  Ti0  1  0.51215800  0.26388300  0.75281000  1
  Ti  Ti1  1  0.01215800  0.73611700  0.25281000  1
  Ti  Ti2  1  0.51215800  0.26388300  0.24719000  1
  Ti  Ti3  1  0.01215800  0.73611700  0.74719000  1
  O  O0  1  0.18912600  0.44415000  0.69546600  1
  O  O1  1  0.27843600  0.96426700  0.29238800  1
  O  O2  1  0.77843600  0.03573300  0.20761200  1
  O  O3  1  0.68912600  0.55585000  0.80453400  1
  O  O4  1  0.77843600  0.03573300  0.79238800  1
  O  O5  1  0.68912600  0.55585000  0.19546600  1
  O  O6  1  0.18912600  0.44415000  0.30453400  1
  O  O7  1  0.27843600  0.96426700  0.70761200  1
  O  O8  1  0.92113900  0.77758000  0.50000000  1
  O  O9  1  0.60684800  0.27523700  0.50000000  1
  O  O10  1  0.10684800  0.72476300  0.00000000  1
  O  O11  1  0.42113900  0.22242000  0.00000000  1
loop_
_geom_bond_atom_site_label_1
_geom_bond_atom_site_label_2
_geom_bond_distance
_geom_bond_site_symmetry_2
Na0 O8 2.296328 1_555
Na0 O1 2.391845 1_555
Na0 O7 2.391845 1_555
Na0 O9 2.497664 1_555
Na0 O6 2.656003 1_555
Na0 O0 2.656003 1_555
Na0 O5 2.685372 1_555
Na0 O3 2.685372 1_555
Na1 O11 2.296328 1_655
Na1 O4 2.391845 1_554
Na1 O2 2.391845 1_555
Na1 O10 2.497664 1_655
Na1 O3 2.656003 1_554
Na1 O5 2.656003 1_555
Na1 O0 2.685372 1_654
Na1 O6 2.685372 1_655
Er0 O9 2.251709 1_455
Er0 O8 2.275872 1_445
Er0 O6 2.277716 1_555
Er0 O0 2.277716 1_555
Er0 O1 2.408576 1_545
Er0 O7 2.408576 1_545
Er0 O4 2.684026 1_455
Er0 O2 2.684026 1_455
Er1 O10 2.251709 1_555
Er1 O11 2.275872 1_565
Er1 O5 2.277716 1_555
Er1 O3 2.277716 1_554
Er1 O4 2.408576 1_564
Er1 O2 2.408576 1_565
Er1 O1 2.684026 1_555
Er1 O7 2.684026 1_554
O0 Ti3 1.908535 1_555
O0 Ti0 2.031255 1_555
O1 Ti1 1.918472 1_555
O1 Ti2 2.097953 1_565
O2 Ti2 1.918472 1_555
O2 Ti1 2.097953 1_645
O3 Ti0 1.908535 1_555
O3 Ti3 2.031255 1_655
O4 Ti0 1.918472 1_555
O4 Ti3 2.097953 1_645
O5 Ti2 1.908535 1_555
O5 Ti1 2.031255 1_655
O6 Ti1 1.908535 1_555
O6 Ti2 2.031255 1_555
O7 Ti3 1.918472 1_555
O7 Ti0 2.097953 1_565
O8 Ti1 1.956022 1_655
O8 Ti3 1.956022 1_655
O9 Ti2 1.989838 1_555
O9 Ti0 1.989838 1_555
O10 Ti3 1.989838 1_554
O10 Ti1 1.989838 1_555
O11 Ti2 1.956022 1_555
O11 Ti0 1.956022 1_554
