# generated using pymatgen
data_K2NaMnF6
_symmetry_space_group_name_H-M   'P 1'
_cell_length_a   5.87983400
_cell_length_b   6.02799585
_cell_length_c   5.87983400
_cell_angle_alpha   60.80978845
_cell_angle_beta   90.00000000
_cell_angle_gamma   119.19021155
_symmetry_Int_Tables_number   1
_chemical_formula_structural   K2NaMnF6
_chemical_formula_sum   'K2 Na1 Mn1 F6'
_cell_volume   150.89798291
_cell_formula_units_Z   1
loop_
 _symmetry_equiv_pos_site_id
 _symmetry_equiv_pos_as_xyz
  1  'x, y, z'
loop_
 _atom_site_type_symbol
 _atom_site_label
 _atom_site_symmetry_multiplicity
 _atom_site_fract_x
 _atom_site_fract_y
 _atom_site_fract_z
 _atom_site_occupancy
  K  K0  1  0.25000000  0.50000000  0.25000000  1
  K  K1  1  0.75000000  0.50000000  0.75000000  1
  Na  Na0  1  0.50000000  0.00000000  0.50000000  1
  Mn  Mn0  1  0.00000000  0.00000000  0.00000000  1
  F  F0  1  0.77090300  0.00000000  0.22909700  1
  F  F1  1  0.22909700  0.00000000  0.22909700  1
  F  F2  1  0.77090300  0.00000000  0.77090300  1
  F  F3  1  0.22909700  0.00000000  0.77090300  1
  F  F4  1  0.24157300  0.48314600  0.75842700  1
  F  F5  1  0.75842700  0.51685400  0.24157300  1
loop_
_geom_bond_atom_site_label_1
_geom_bond_atom_site_label_2
_geom_bond_distance
_geom_bond_site_symmetry_2
F0 Mn0 1.905020 1_655
F0 Na0 2.252651 1_555
F0 K1 3.019006 1_545
F0 K1 3.019006 1_554
F0 K0 3.019006 1_655
F0 K0 3.019006 1_545
F1 Mn0 1.905020 1_555
F1 Na0 2.252651 1_555
F1 K1 3.019006 1_554
F1 K0 3.019006 1_555
F1 K0 3.019006 1_545
F1 K1 3.019006 1_445
F2 Mn0 1.905020 1_656
F2 Na0 2.252651 1_555
F2 K1 3.019006 1_545
F2 K1 3.019006 1_555
F2 K0 3.019006 1_546
F2 K0 3.019006 1_655
F3 Mn0 1.905020 1_556
F3 Na0 2.252651 1_555
F3 K0 3.019006 1_555
F3 K1 3.019006 1_555
F3 K0 3.019006 1_546
F3 K1 3.019006 1_445
F4 Mn0 2.108782 1_556
F4 Na0 2.255907 1_565
F4 K0 2.940837 1_555
F4 K1 2.940837 1_455
F4 K1 2.940837 1_555
F4 K0 2.940837 1_556
F5 Mn0 2.108782 1_665
F5 Na0 2.255907 1_555
F5 K1 2.940837 1_554
F5 K0 2.940837 1_655
F5 K0 2.940837 1_555
F5 K1 2.940837 1_555
