# generated using pymatgen
data_KLiGd2(MoO4)4
_symmetry_space_group_name_H-M   'P 1'
_cell_length_a   6.96232314
_cell_length_b   6.96232314
_cell_length_c   19.65175994
_cell_angle_alpha   88.83899113
_cell_angle_beta   88.83899113
_cell_angle_gamma   135.14862029
_symmetry_Int_Tables_number   1
_chemical_formula_structural   KLiGd2(MoO4)4
_chemical_formula_sum   'K2 Li2 Gd4 Mo8 O32'
_cell_volume   670.89090531
_cell_formula_units_Z   2
loop_
 _symmetry_equiv_pos_site_id
 _symmetry_equiv_pos_as_xyz
  1  'x, y, z'
loop_
 _atom_site_type_symbol
 _atom_site_label
 _atom_site_symmetry_multiplicity
 _atom_site_fract_x
 _atom_site_fract_y
 _atom_site_fract_z
 _atom_site_occupancy
  K  K0  1  0.53115200  0.46884800  0.75000000  1
  K  K1  1  0.46884800  0.53115200  0.25000000  1
  Li  Li0  1  0.81356700  0.18643300  0.75000000  1
  Li  Li1  1  0.18643300  0.81356700  0.25000000  1
  Gd  Gd0  1  0.64719300  0.35434600  0.53282200  1
  Gd  Gd1  1  0.35280700  0.64565400  0.46717800  1
  Gd  Gd2  1  0.64565400  0.35280700  0.96717800  1
  Gd  Gd3  1  0.35434600  0.64719300  0.03282200  1
  Mo  Mo0  1  0.91859500  0.04343200  0.59197300  1
  Mo  Mo1  1  0.08140500  0.95656800  0.40802700  1
  Mo  Mo2  1  0.95656800  0.08140500  0.90802700  1
  Mo  Mo3  1  0.04343200  0.91859500  0.09197300  1
  Mo  Mo4  1  0.23268300  0.74718700  0.64858900  1
  Mo  Mo5  1  0.76731700  0.25281300  0.35141100  1
  Mo  Mo6  1  0.25281300  0.76731700  0.85141100  1
  Mo  Mo7  1  0.74718700  0.23268300  0.14858900  1
  O  O0  1  0.66954600  0.00842400  0.54287400  1
  O  O1  1  0.33045400  0.99157600  0.45712600  1
  O  O2  1  0.99157600  0.33045400  0.95712600  1
  O  O3  1  0.00842400  0.66954600  0.04287400  1
  O  O4  1  0.48864600  0.76767000  0.67366600  1
  O  O5  1  0.51135400  0.23233000  0.32633400  1
  O  O6  1  0.23233000  0.51135400  0.82633400  1
  O  O7  1  0.76767000  0.48864600  0.17366600  1
  O  O8  1  0.72427700  0.76319100  0.96239900  1
  O  O9  1  0.27572300  0.23680900  0.03760100  1
  O  O10  1  0.23680900  0.27572300  0.53760100  1
  O  O11  1  0.76319100  0.72427700  0.46239900  1
  O  O12  1  0.43366600  0.91416200  0.93283800  1
  O  O13  1  0.56633400  0.08583800  0.06716200  1
  O  O14  1  0.08583800  0.56633400  0.56716200  1
  O  O15  1  0.91416200  0.43366600  0.43283800  1
  O  O16  1  0.80125400  0.98490300  0.82933100  1
  O  O17  1  0.19874600  0.01509700  0.17066900  1
  O  O18  1  0.01509700  0.19874600  0.67066900  1
  O  O19  1  0.98490300  0.80125400  0.32933100  1
  O  O20  1  0.72266200  0.81184200  0.10180300  1
  O  O21  1  0.27733800  0.18815800  0.89819700  1
  O  O22  1  0.18815800  0.27733800  0.39819700  1
  O  O23  1  0.81184200  0.72266200  0.60180300  1
  O  O24  1  0.39760100  0.09543500  0.63314800  1
  O  O25  1  0.60239900  0.90456500  0.36685200  1
  O  O26  1  0.90456500  0.60239900  0.86685200  1
  O  O27  1  0.09543500  0.39760100  0.13314800  1
  O  O28  1  0.43602200  0.02852600  0.78614100  1
  O  O29  1  0.56397800  0.97147400  0.21385900  1
  O  O30  1  0.97147400  0.56397800  0.71385900  1
  O  O31  1  0.02852600  0.43602200  0.28614100  1
loop_
_geom_bond_atom_site_label_1
_geom_bond_atom_site_label_2
_geom_bond_distance
_geom_bond_site_symmetry_2
K0 O28 2.712038 1_555
K0 O30 2.712038 1_555
K0 O4 2.725957 1_555
K0 O6 2.725957 1_555
K0 O16 3.105124 1_555
K0 O18 3.105124 1_555
K0 O26 3.130139 1_555
K0 O24 3.130139 1_555
K0 O21 3.176132 1_555
K0 O23 3.176132 1_555
K1 O31 2.712038 1_555
K1 O29 2.712038 1_555
K1 O5 2.725957 1_555
K1 O7 2.725957 1_555
K1 O19 3.105124 1_555
K1 O17 3.105124 1_555
K1 O27 3.130139 1_555
K1 O25 3.130139 1_555
K1 O20 3.176132 1_555
K1 O22 3.176132 1_555
Li0 O18 2.035175 1_655
Li0 O16 2.035175 1_545
Li0 O28 2.101861 1_555
Li0 O30 2.101861 1_555
Li1 O19 2.035175 1_455
Li1 O17 2.035175 1_565
Li1 O31 2.101861 1_555
Li1 O29 2.101861 1_555
Gd0 O24 2.330660 1_555
Gd0 O14 2.386098 1_655
Gd0 O23 2.400710 1_555
Gd0 O1 2.417241 1_545
Gd0 O15 2.443997 1_555
Gd0 O11 2.462132 1_555
Gd0 O10 2.498325 1_555
Gd0 O0 2.525301 1_555
Gd1 O25 2.330660 1_555
Gd1 O15 2.386098 1_455
Gd1 O22 2.400710 1_555
Gd1 O0 2.417241 1_565
Gd1 O14 2.443997 1_555
Gd1 O10 2.462132 1_555
Gd1 O11 2.498325 1_555
Gd1 O1 2.525301 1_555
Gd2 O26 2.330660 1_555
Gd2 O12 2.386098 1_545
Gd2 O21 2.400710 1_555
Gd2 O3 2.417241 1_656
Gd2 O13 2.443997 1_556
Gd2 O9 2.462132 1_556
Gd2 O8 2.498325 1_555
Gd2 O2 2.525301 1_555
Gd3 O27 2.330660 1_555
Gd3 O13 2.386098 1_565
Gd3 O20 2.400710 1_555
Gd3 O2 2.417241 1_454
Gd3 O12 2.443997 1_554
Gd3 O8 2.462132 1_554
Gd3 O9 2.498325 1_555
Gd3 O3 2.525301 1_555
Mo0 O18 1.758460 1_655
Mo0 O23 1.789007 1_545
Mo0 O10 1.849169 1_655
Mo0 O0 1.864165 1_555
Mo1 O19 1.758460 1_455
Mo1 O22 1.789007 1_565
Mo1 O11 1.849169 1_455
Mo1 O1 1.864165 1_555
Mo2 O16 1.758460 1_545
Mo2 O21 1.789007 1_655
Mo2 O8 1.849169 1_545
Mo2 O2 1.864165 1_555
Mo3 O17 1.758460 1_565
Mo3 O20 1.789007 1_455
Mo3 O9 1.849169 1_565
Mo3 O3 1.864165 1_555
Mo4 O4 1.765548 1_555
Mo4 O30 1.769099 1_455
Mo4 O24 1.816029 1_565
Mo4 O14 1.874564 1_555
Mo5 O5 1.765548 1_555
Mo5 O31 1.769099 1_655
Mo5 O25 1.816029 1_545
Mo5 O15 1.874564 1_555
Mo6 O6 1.765548 1_555
Mo6 O28 1.769099 1_565
Mo6 O26 1.816029 1_455
Mo6 O12 1.874564 1_555
Mo7 O7 1.765548 1_555
Mo7 O29 1.769099 1_545
Mo7 O27 1.816029 1_655
Mo7 O13 1.874564 1_555
