# generated using pymatgen
data_Nb6V3Ni3C2
_symmetry_space_group_name_H-M   'P 1'
_cell_length_a   8.19387796
_cell_length_b   8.19387796
_cell_length_c   8.19387796
_cell_angle_alpha   120.18631461
_cell_angle_beta   119.99486441
_cell_angle_gamma   89.84324603
_symmetry_Int_Tables_number   1
_chemical_formula_structural   Nb6V3Ni3C2
_chemical_formula_sum   'Nb12 V6 Ni6 C4'
_cell_volume   388.46788896
_cell_formula_units_Z   2
loop_
 _symmetry_equiv_pos_site_id
 _symmetry_equiv_pos_as_xyz
  1  'x, y, z'
loop_
 _atom_site_type_symbol
 _atom_site_label
 _atom_site_symmetry_multiplicity
 _atom_site_fract_x
 _atom_site_fract_y
 _atom_site_fract_z
 _atom_site_occupancy
  Nb  Nb0  1  0.06863300  0.06863300  0.00000000  1
  Nb  Nb1  1  0.68889500  0.68889500  0.00000000  1
  Nb  Nb2  1  0.68437800  0.06442100  0.00147400  1
  Nb  Nb3  1  0.06294700  0.68290400  0.99852600  1
  Nb  Nb4  1  0.06294700  0.06442100  0.38004300  1
  Nb  Nb5  1  0.68437800  0.68290400  0.61995700  1
  Nb  Nb6  1  0.43905900  0.93905900  0.50000000  1
  Nb  Nb7  1  0.81688200  0.31688200  0.50000000  1
  Nb  Nb8  1  0.81301700  0.93250100  0.49861400  1
  Nb  Nb9  1  0.43388700  0.31440300  0.50138600  1
  Nb  Nb10  1  0.43388700  0.93250100  0.11948400  1
  Nb  Nb11  1  0.81301700  0.31440300  0.88051600  1
  V  V0  1  0.25753900  0.50532200  0.75221700  1
  V  V1  1  0.75310600  0.50532200  0.24778300  1
  V  V2  1  0.25139000  0.50915600  0.25776600  1
  V  V3  1  0.25139000  0.99362300  0.74223400  1
  V  V4  1  0.45631000  0.29420600  0.16210400  1
  V  V5  1  0.13210200  0.29420600  0.83789600  1
  Ni  Ni0  1  0.45320500  0.29944400  0.84623800  1
  Ni  Ni1  1  0.45320500  0.60696700  0.15376200  1
  Ni  Ni2  1  0.04604500  0.70080700  0.34523900  1
  Ni  Ni3  1  0.35556800  0.70080700  0.65476100  1
  Ni  Ni4  1  0.04606100  0.70363800  0.65757700  1
  Ni  Ni5  1  0.04606100  0.38848400  0.34242300  1
  C  C0  1  0.74909800  0.99970100  0.74939600  1
  C  C1  1  0.25030500  0.99970100  0.25060400  1
  C  C2  1  0.74834400  0.99976400  0.25142000  1
  C  C3  1  0.74834400  0.49692500  0.74858000  1
loop_
_geom_bond_atom_site_label_1
_geom_bond_atom_site_label_2
_geom_bond_distance
_geom_bond_site_symmetry_2
Nb0 Ni4 2.810100 1_544
Nb0 Ni5 2.810100 1_555
Nb0 V5 2.935268 1_554
Nb0 V4 2.935268 1_555
Nb1 Ni2 2.832436 1_655
Nb1 Ni3 2.832441 1_554
Nb1 Ni0 3.009648 1_554
Nb1 Ni1 3.009655 1_555
Nb2 Ni5 2.818408 1_655
Nb2 Ni3 2.843537 1_544
Nb2 V4 2.952551 1_555
Nb2 Ni0 2.991453 1_554
Nb3 Ni4 2.818408 1_555
Nb3 Ni2 2.843542 1_556
Nb3 V5 2.952551 1_555
Nb3 Ni1 2.991446 1_556
Nb4 Ni5 2.818408 1_555
Nb4 Ni2 2.843537 1_545
Nb4 V5 2.952551 1_555
Nb4 Ni0 2.991446 1_555
Nb5 Ni4 2.818408 1_655
Nb5 Ni3 2.843537 1_555
Nb5 V4 2.952551 1_555
Nb5 Ni1 2.991446 1_555
Nb6 Ni1 2.833797 1_555
Nb6 Ni0 2.833801 1_565
Nb6 Ni3 3.041610 1_555
Nb6 Ni2 3.041617 1_555
Nb7 V5 2.781368 1_655
Nb7 V4 2.781368 1_555
Nb7 Ni4 2.954620 1_655
Nb7 Ni5 2.954620 1_655
Nb8 V5 2.799574 1_665
Nb8 Ni1 2.815232 1_555
Nb8 Ni4 2.968073 1_655
Nb8 Ni2 2.968081 1_655
Nb9 V4 2.799574 1_555
Nb9 Ni0 2.815228 1_555
Nb9 Ni5 2.968073 1_555
Nb9 Ni3 2.968088 1_555
Nb10 V4 2.799574 1_565
Nb10 Ni1 2.815232 1_555
Nb10 Ni4 2.968073 1_554
Nb10 Ni3 2.968088 1_554
Nb11 V5 2.799574 1_655
Nb11 Ni0 2.815232 1_555
Nb11 Ni5 2.968073 1_656
Nb11 Ni2 2.968088 1_656
V0 V5 2.548360 1_555
V1 V4 2.548366 1_555
V2 V5 2.539146 1_554
V2 V4 2.539146 1_555
V3 V4 2.539148 1_566
V3 V5 2.539153 1_565
V4 V5 2.656727 1_554
Ni0 V0 2.463107 1_555
Ni0 V1 2.463117 1_556
Ni0 V3 2.491241 1_545
Ni0 Ni1 2.512711 1_556
Ni0 V5 2.597488 1_555
Ni0 V4 2.597492 1_556
Ni1 V0 2.463114 1_554
Ni1 V1 2.463121 1_555
Ni1 V2 2.491227 1_555
Ni1 V5 2.597488 1_554
Ni1 V4 2.597488 1_555
Ni2 V1 2.404816 1_455
Ni2 V3 2.422853 1_555
Ni2 V2 2.422862 1_555
Ni2 Ni3 2.536386 1_555
Ni2 Ni4 2.547609 1_555
Ni2 Ni5 2.547613 1_555
Ni3 V0 2.404830 1_555
Ni3 V3 2.422848 1_555
Ni3 V2 2.422855 1_555
Ni3 Ni5 2.547613 1_555
Ni3 Ni4 2.547613 1_555
Ni4 V1 2.480490 1_455
Ni4 V0 2.480493 1_555
Ni4 V3 2.480955 1_555
Ni4 Ni5 2.575058 1_555
Ni5 V1 2.480486 1_455
Ni5 V0 2.480493 1_555
Ni5 V2 2.480962 1_555
C0 Nb6 2.161436 1_555
C0 Nb8 2.176388 1_555
C0 Nb11 2.176394 1_565
C0 Nb5 2.195639 1_555
C0 Nb2 2.195645 1_566
C0 Nb0 2.203848 1_666
C1 Nb6 2.161430 1_555
C1 Nb9 2.176394 1_565
C1 Nb10 2.176394 1_555
C1 Nb4 2.195639 1_565
C1 Nb3 2.195639 1_554
C1 Nb0 2.203854 1_565
C2 Nb1 2.167029 1_555
C2 Nb8 2.175999 1_555
C2 Nb10 2.175999 1_555
C2 Nb7 2.181249 1_565
C2 Nb2 2.183152 1_565
C2 Nb4 2.183152 1_665
C3 Nb1 2.167027 1_556
C3 Nb9 2.176001 1_555
C3 Nb11 2.176007 1_555
C3 Nb7 2.181250 1_555
C3 Nb5 2.183145 1_555
C3 Nb3 2.183150 1_655
