# generated using pymatgen
data_Zr4Ni3As8
_symmetry_space_group_name_H-M   'P 1'
_cell_length_a   3.80626305
_cell_length_b   3.80626305
_cell_length_c   17.64974711
_cell_angle_alpha   90.00000000
_cell_angle_beta   90.00000000
_cell_angle_gamma   90.00000000
_symmetry_Int_Tables_number   1
_chemical_formula_structural   Zr4Ni3As8
_chemical_formula_sum   'Zr4 Ni3 As8'
_cell_volume   255.70315408
_cell_formula_units_Z   1
loop_
 _symmetry_equiv_pos_site_id
 _symmetry_equiv_pos_as_xyz
  1  'x, y, z'
loop_
 _atom_site_type_symbol
 _atom_site_label
 _atom_site_symmetry_multiplicity
 _atom_site_fract_x
 _atom_site_fract_y
 _atom_site_fract_z
 _atom_site_occupancy
  Zr  Zr0  1  0.50000000  0.00000000  0.12312276  1
  Zr  Zr1  1  0.50000000  -0.00000000  0.63367709  1
  Zr  Zr2  1  0.00000000  0.50000000  0.87687724  1
  Zr  Zr3  1  -0.00000000  0.50000000  0.36632291  1
  Ni  Ni0  1  0.50000000  0.50000000  0.50000000  1
  Ni  Ni1  1  -0.00000000  0.00000000  -0.00000000  1
  Ni  Ni2  1  0.00000000  -0.00000000  0.50000000  1
  As  As0  1  0.50000000  -0.00000000  0.92977993  1
  As  As1  1  0.50000000  0.00000000  0.41973496  1
  As  As2  1  0.00000000  0.50000000  0.07022007  1
  As  As3  1  0.00000000  0.50000000  0.58026504  1
  As  As4  1  0.50000000  0.50000000  0.75540263  1
  As  As5  1  0.50000000  0.50000000  0.24459737  1
  As  As6  1  0.00000000  -0.00000000  0.75544331  1
  As  As7  1  -0.00000000  0.00000000  0.24455669  1
loop_
_geom_bond_atom_site_label_1
_geom_bond_atom_site_label_2
_geom_bond_distance
_geom_bond_site_symmetry_2
Ni0 Zr3 3.031257 1_555
Ni0 Zr3 3.031257 1_655
Ni0 Zr1 3.031257 1_555
Ni0 Zr1 3.031257 1_565
Ni1 Zr0 2.888635 1_455
Ni1 Zr2 2.888635 1_544
Ni1 Zr0 2.888635 1_555
Ni1 Zr2 2.888635 1_554
Ni2 Zr3 3.031257 1_555
Ni2 Zr3 3.031257 1_545
Ni2 Zr1 3.031257 1_555
Ni2 Zr1 3.031257 1_455
As0 Ni1 2.271110 1_656
As0 Ni1 2.271110 1_556
As0 Zr2 2.848798 1_645
As0 Zr2 2.848798 1_555
As0 Zr2 2.848798 1_545
As0 Zr2 2.848798 1_655
As1 Ni0 2.372515 1_555
As1 Ni0 2.372515 1_545
As1 Ni2 2.372515 1_655
As1 Ni2 2.372515 1_555
As1 Zr3 2.851757 1_655
As1 Zr3 2.851757 1_545
As1 Zr3 2.851757 1_645
As1 Zr3 2.851757 1_555
As2 Ni1 2.271110 1_555
As2 Ni1 2.271110 1_565
As2 Zr0 2.848798 1_465
As2 Zr0 2.848798 1_455
As2 Zr0 2.848798 1_555
As2 Zr0 2.848798 1_565
As3 Ni0 2.372515 1_555
As3 Ni0 2.372515 1_455
As3 Ni2 2.372515 1_555
As3 Ni2 2.372515 1_565
As3 Zr1 2.851757 1_565
As3 Zr1 2.851757 1_555
As3 Zr1 2.851757 1_455
As3 Zr1 2.851757 1_465
As4 As6 2.691435 1_565
As4 As6 2.691435 1_555
As4 As6 2.691435 1_655
As4 As6 2.691435 1_665
As4 Zr2 2.866815 1_555
As4 Zr2 2.866815 1_655
As4 Zr1 2.870129 1_565
As4 Zr1 2.870129 1_555
As5 As7 2.691435 1_555
As5 As7 2.691435 1_665
As5 As7 2.691435 1_655
As5 As7 2.691435 1_565
As5 Zr0 2.866815 1_565
As5 Zr0 2.866815 1_555
As5 Zr3 2.870129 1_655
As5 Zr3 2.870129 1_555
As6 Zr2 2.866278 1_545
As6 Zr2 2.866278 1_555
As6 Zr1 2.870666 1_555
As6 Zr1 2.870666 1_455
As7 Zr0 2.866278 1_455
As7 Zr0 2.866278 1_555
As7 Zr3 2.870666 1_545
As7 Zr3 2.870666 1_555
