# generated using pymatgen
data_HoNiB4
_symmetry_space_group_name_H-M   'P 1'
_cell_length_a   6.78148164
_cell_length_b   6.78148117
_cell_length_c   6.78147063
_cell_angle_alpha   113.00791284
_cell_angle_beta   113.00791394
_cell_angle_gamma   102.60758947
_symmetry_Int_Tables_number   1
_chemical_formula_structural   HoNiB4
_chemical_formula_sum   'Ho4 Ni4 B16'
_cell_volume   237.53854129
_cell_formula_units_Z   4
loop_
 _symmetry_equiv_pos_site_id
 _symmetry_equiv_pos_as_xyz
  1  'x, y, z'
loop_
 _atom_site_type_symbol
 _atom_site_label
 _atom_site_symmetry_multiplicity
 _atom_site_fract_x
 _atom_site_fract_y
 _atom_site_fract_z
 _atom_site_occupancy
  Ho  Ho0  1  0.79580668  0.79580676  0.00000112  1
  Ho  Ho1  1  0.20419350  0.20419356  -0.00000036  1
  Ho  Ho2  1  0.75000020  0.24999973  0.49999995  1
  Ho  Ho3  1  0.24999963  0.75000008  0.49999981  1
  Ni  Ni0  1  0.27250785  0.50000006  0.77250799  1
  Ni  Ni1  1  0.72749201  0.49999982  0.22749189  1
  Ni  Ni2  1  0.50000003  0.72749178  0.22749180  1
  Ni  Ni3  1  0.50000031  0.27250815  0.77250818  1
  B  B0  1  0.27614745  0.11168769  0.38783398  1
  B  B1  1  0.72385259  0.88831226  0.61216596  1
  B  B2  1  0.27614624  0.88831192  0.16445920  1
  B  B3  1  0.72385372  0.11168812  0.83554073  1
  B  B4  1  0.11168803  0.72385369  0.83554073  1
  B  B5  1  0.88831196  0.27614638  0.16445927  1
  B  B6  1  0.11168766  0.27614757  0.38783403  1
  B  B7  1  0.88831231  0.72385251  0.61216597  1
  B  B8  1  0.11446989  0.11446996  0.53424271  1
  B  B9  1  0.58022760  0.58022754  0.46575630  1
  B  B10  1  0.11447035  0.58022746  0.00000024  1
  B  B11  1  0.58022747  0.11447041  0.00000029  1
  B  B12  1  0.88552995  0.88552991  0.46575711  1
  B  B13  1  0.41977256  0.41977255  0.53424382  1
  B  B14  1  0.88552947  0.41977260  -0.00000036  1
  B  B15  1  0.41977254  0.88552950  -0.00000034  1
loop_
_geom_bond_atom_site_label_1
_geom_bond_atom_site_label_2
_geom_bond_distance
_geom_bond_site_symmetry_2
Ho0 Ni2 3.031644 1_555
Ho0 Ni1 3.031646 1_555
Ho0 Ni3 3.031674 1_554
Ho0 Ni0 3.031676 1_554
Ho1 Ni0 3.031648 1_554
Ho1 Ni3 3.031649 1_554
Ho1 Ni2 3.031673 1_555
Ho1 Ni1 3.031675 1_555
Ho2 Ni3 2.941824 1_555
Ho2 Ni1 2.941824 1_555
Ho2 Ni0 2.941848 1_655
Ho2 Ni2 2.941849 1_545
Ho3 Ni0 2.941825 1_555
Ho3 Ni2 2.941826 1_555
Ho3 Ni1 2.941848 1_455
Ho3 Ni3 2.941850 1_565
B0 B2 1.671985 1_545
B0 B6 1.740891 1_555
B0 B8 1.741729 1_555
B0 B13 1.741733 1_555
B0 Ni3 2.063153 1_555
B0 Ho1 2.822972 1_555
B0 Ho0 2.823005 1_445
B0 Ho3 2.828457 1_545
B0 Ho2 2.828464 1_555
B1 B3 1.671985 1_565
B1 B7 1.740890 1_555
B1 B12 1.741728 1_555
B1 B9 1.741733 1_555
B1 Ni2 2.063153 1_555
B1 Ho0 2.822976 1_556
B1 Ho1 2.823007 1_666
B1 Ho2 2.828457 1_565
B1 Ho3 2.828465 1_555
B2 B4 1.740898 1_554
B2 Ni2 2.063137 1_555
B2 Ho1 2.822978 1_565
B2 Ho0 2.822984 1_455
B2 Ho3 2.828449 1_555
B2 Ho2 2.828490 1_565
B3 B5 1.740898 1_556
B3 Ni3 2.063135 1_555
B3 Ho0 2.822980 1_546
B3 Ho1 2.822985 1_656
B3 Ho2 2.828449 1_555
B3 Ho3 2.828491 1_545
B4 B7 1.671985 1_455
B4 Ni0 2.063135 1_555
B4 Ho0 2.822980 1_456
B4 Ho1 2.822985 1_566
B4 Ho3 2.828449 1_555
B4 Ho2 2.828490 1_455
B5 B6 1.671985 1_655
B5 Ni1 2.063135 1_555
B5 Ho1 2.822978 1_655
B5 Ho0 2.822984 1_545
B5 Ho2 2.828449 1_555
B5 Ho3 2.828488 1_655
B6 B8 1.741729 1_555
B6 Ni0 2.063152 1_555
B6 Ho1 2.822973 1_555
B6 Ho0 2.823005 1_445
B6 Ho2 2.828457 1_455
B6 Ho3 2.828463 1_555
B7 B9 1.741733 1_555
B7 Ni1 2.063152 1_555
B7 Ho0 2.822976 1_556
B7 Ho1 2.823007 1_666
B7 Ho3 2.828457 1_655
B7 Ho2 2.828464 1_555
B8 Ni0 2.171547 1_555
B8 Ni3 2.171549 1_555
B8 Ho1 2.747800 1_556
B8 Ho2 2.778046 1_455
B8 Ho3 2.778047 1_545
B8 Ho0 2.861213 1_445
B9 Ni2 2.171520 1_555
B9 Ni1 2.171521 1_555
B9 Ho1 2.747829 1_555
B9 Ho2 2.778051 1_555
B9 Ho3 2.778052 1_555
B9 Ho0 2.861220 1_556
B10 B14 1.690252 1_455
B10 B4 1.741725 1_554
B10 B2 1.741734 1_555
B10 Ni0 2.171526 1_554
B10 Ni2 2.171544 1_555
B10 Ho1 2.747799 1_555
B10 Ho3 2.778055 1_555
B10 Ho2 2.778078 1_454
B10 Ho0 2.861195 1_455
B11 B15 1.690252 1_545
B11 B3 1.741726 1_554
B11 B5 1.741734 1_555
B11 Ni3 2.171526 1_554
B11 Ni1 2.171542 1_555
B11 Ho1 2.747799 1_555
B11 Ho2 2.778056 1_555
B11 Ho3 2.778079 1_544
B11 Ho0 2.861194 1_545
B12 B8 1.690253 1_665
B12 B7 1.741729 1_555
B12 Ni2 2.171546 1_555
B12 Ni1 2.171547 1_555
B12 Ho0 2.747795 1_555
B12 Ho3 2.778046 1_655
B12 Ho2 2.778046 1_565
B12 Ho1 2.861218 1_666
B13 B9 1.690259 1_555
B13 B6 1.741734 1_555
B13 Ni3 2.171521 1_555
B13 Ni0 2.171521 1_555
B13 Ho0 2.747832 1_556
B13 Ho3 2.778052 1_555
B13 Ho2 2.778052 1_555
B13 Ho1 2.861217 1_555
B14 B5 1.741726 1_555
B14 B3 1.741734 1_554
B14 Ni1 2.171526 1_555
B14 Ni3 2.171541 1_554
B14 Ho0 2.747798 1_555
B14 Ho2 2.778056 1_554
B14 Ho3 2.778077 1_655
B14 Ho1 2.861195 1_655
B15 B2 1.741726 1_555
B15 B4 1.741734 1_554
B15 Ni2 2.171527 1_555
B15 Ni0 2.171542 1_554
B15 Ho0 2.747798 1_555
B15 Ho3 2.778056 1_554
B15 Ho2 2.778078 1_565
B15 Ho1 2.861195 1_565
