# generated using pymatgen
data_HfMg6Co
_symmetry_space_group_name_H-M   'P 1'
_cell_length_a   4.79637200
_cell_length_b   6.09736300
_cell_length_c   11.13546200
_cell_angle_alpha   90.00000000
_cell_angle_beta   90.00000000
_cell_angle_gamma   90.00000000
_symmetry_Int_Tables_number   1
_chemical_formula_structural   HfMg6Co
_chemical_formula_sum   'Hf2 Mg12 Co2'
_cell_volume   325.65904899
_cell_formula_units_Z   2
loop_
 _symmetry_equiv_pos_site_id
 _symmetry_equiv_pos_as_xyz
  1  'x, y, z'
loop_
 _atom_site_type_symbol
 _atom_site_label
 _atom_site_symmetry_multiplicity
 _atom_site_fract_x
 _atom_site_fract_y
 _atom_site_fract_z
 _atom_site_occupancy
  Hf  Hf0  1  0.50000000  0.50000000  0.19341500  1
  Hf  Hf1  1  0.50000000  0.00000000  0.69341500  1
  Mg  Mg0  1  0.00000000  0.74333200  0.08024700  1
  Mg  Mg1  1  0.00000000  0.25666800  0.08024700  1
  Mg  Mg2  1  0.00000000  0.00000000  0.32715700  1
  Mg  Mg3  1  0.50000000  0.25726400  0.42578800  1
  Mg  Mg4  1  0.50000000  0.74273600  0.42578800  1
  Mg  Mg5  1  0.50000000  0.00000000  0.16660200  1
  Mg  Mg6  1  0.00000000  0.24333200  0.58024700  1
  Mg  Mg7  1  0.00000000  0.75666800  0.58024700  1
  Mg  Mg8  1  0.00000000  0.50000000  0.82715700  1
  Mg  Mg9  1  0.50000000  0.75726400  0.92578800  1
  Mg  Mg10  1  0.50000000  0.24273600  0.92578800  1
  Mg  Mg11  1  0.50000000  0.50000000  0.66660200  1
  Co  Co0  1  0.00000000  0.50000000  0.30075500  1
  Co  Co1  1  0.00000000  0.00000000  0.80075500  1
loop_
_geom_bond_atom_site_label_1
_geom_bond_atom_site_label_2
_geom_bond_distance
_geom_bond_site_symmetry_2
Hf0 Mg4 2.980960 1_555
Hf0 Mg3 2.980960 1_555
Hf0 Mg5 3.063267 1_555
Hf0 Mg5 3.063267 1_565
Hf0 Mg10 3.367774 1_554
Hf0 Mg9 3.367774 1_554
Hf1 Mg10 2.980960 1_555
Hf1 Mg9 2.980960 1_545
Hf1 Mg11 3.063267 1_555
Hf1 Mg11 3.063267 1_545
Hf1 Mg3 3.367774 1_555
Hf1 Mg4 3.367774 1_545
Mg0 Mg9 2.952426 1_454
Mg0 Mg9 2.952426 1_554
Mg0 Mg5 3.020794 1_565
Mg0 Mg5 3.020794 1_465
Mg0 Mg2 3.163658 1_565
Mg0 Mg8 3.184962 1_554
Mg1 Mg10 2.952426 1_554
Mg1 Mg10 2.952426 1_454
Mg1 Mg5 3.020794 1_555
Mg1 Mg5 3.020794 1_455
Mg1 Mg2 3.163658 1_555
Mg1 Mg8 3.184962 1_554
Mg2 Mg5 2.991274 1_455
Mg2 Mg5 2.991274 1_555
Mg2 Mg3 3.068904 1_555
Mg2 Mg3 3.068904 1_455
Mg2 Mg4 3.068904 1_545
Mg2 Mg4 3.068904 1_445
Mg2 Mg7 3.184962 1_545
Mg2 Mg6 3.184962 1_555
Mg3 Mg6 2.952426 1_555
Mg3 Mg6 2.952426 1_655
Mg3 Mg4 2.960099 1_555
Mg3 Mg4 3.137264 1_545
Mg3 Mg5 3.284890 1_555
Mg4 Mg7 2.952426 1_555
Mg4 Mg7 2.952426 1_655
Mg4 Mg5 3.284890 1_565
Mg5 Mg9 3.062906 1_544
Mg6 Mg8 3.163658 1_555
Mg7 Mg8 3.163658 1_555
Mg8 Mg9 3.068904 1_455
Mg8 Mg9 3.068904 1_555
Mg10 Mg9 2.960099 1_545
Mg10 Mg5 3.062906 1_556
Mg10 Mg8 3.068904 1_555
Mg10 Mg8 3.068904 1_655
Mg10 Mg9 3.137264 1_555
Mg10 Mg11 3.284890 1_555
Mg11 Mg8 2.991274 1_555
Mg11 Mg8 2.991274 1_655
Mg11 Mg7 3.020794 1_555
Mg11 Mg6 3.020794 1_655
Mg11 Mg7 3.020794 1_655
Mg11 Mg6 3.020794 1_555
Mg11 Mg4 3.062906 1_555
Mg11 Mg3 3.062906 1_555
Mg11 Mg9 3.284890 1_555
Co0 Hf0 2.679551 1_455
Co0 Hf0 2.679551 1_555
Co0 Mg0 2.868901 1_555
Co0 Mg1 2.868901 1_555
Co0 Mg2 3.062825 1_555
Co0 Mg2 3.062825 1_565
Co0 Mg4 3.143301 1_555
Co0 Mg4 3.143301 1_455
Co0 Mg3 3.143301 1_455
Co0 Mg3 3.143301 1_555
Co1 Hf1 2.679551 1_555
Co1 Hf1 2.679551 1_455
Co1 Mg7 2.868901 1_545
Co1 Mg6 2.868901 1_555
Co1 Mg8 3.062825 1_545
Co1 Mg8 3.062825 1_555
Co1 Mg9 3.143301 1_545
Co1 Mg9 3.143301 1_445
Co1 Mg10 3.143301 1_455
Co1 Mg10 3.143301 1_555
