# generated using pymatgen
data_CsTmMnSe3
_symmetry_space_group_name_H-M   'P 1'
_cell_length_a   8.37756380
_cell_length_b   8.37756380
_cell_length_c   10.95167900
_cell_angle_alpha   90.00000000
_cell_angle_beta   90.00000000
_cell_angle_gamma   150.84739332
_symmetry_Int_Tables_number   1
_chemical_formula_structural   CsTmMnSe3
_chemical_formula_sum   'Cs2 Tm2 Mn2 Se6'
_cell_volume   374.42746818
_cell_formula_units_Z   2
loop_
 _symmetry_equiv_pos_site_id
 _symmetry_equiv_pos_as_xyz
  1  'x, y, z'
loop_
 _atom_site_type_symbol
 _atom_site_label
 _atom_site_symmetry_multiplicity
 _atom_site_fract_x
 _atom_site_fract_y
 _atom_site_fract_z
 _atom_site_occupancy
  Cs  Cs0  1  0.25695800  0.74304200  0.25000000  1
  Cs  Cs1  1  0.74304200  0.25695800  0.75000000  1
  Tm  Tm0  1  0.00000000  0.00000000  0.00000000  1
  Tm  Tm1  1  0.00000000  0.00000000  0.50000000  1
  Mn  Mn0  1  0.53679000  0.46321000  0.25000000  1
  Mn  Mn1  1  0.46321000  0.53679000  0.75000000  1
  Se  Se0  1  0.61442800  0.38557200  0.05476700  1
  Se  Se1  1  0.38557200  0.61442800  0.94523300  1
  Se  Se2  1  0.38557200  0.61442800  0.55476700  1
  Se  Se3  1  0.61442800  0.38557200  0.44523300  1
  Se  Se4  1  0.94562300  0.05437700  0.25000000  1
  Se  Se5  1  0.05437700  0.94562300  0.75000000  1
loop_
_geom_bond_atom_site_label_1
_geom_bond_atom_site_label_2
_geom_bond_distance
_geom_bond_site_symmetry_2
Cs0 Se4 3.715498 1_455
Cs0 Se4 3.715498 1_565
Cs0 Se3 3.789285 1_455
Cs0 Se0 3.789285 1_565
Cs0 Se0 3.789285 1_455
Cs0 Se3 3.789285 1_565
Cs0 Se2 3.935730 1_555
Cs0 Se1 3.935730 1_554
Cs1 Se5 3.715498 1_545
Cs1 Se5 3.715498 1_655
Cs1 Se1 3.789285 1_545
Cs1 Se1 3.789285 1_655
Cs1 Se2 3.789285 1_655
Cs1 Se2 3.789285 1_545
Cs1 Se0 3.935730 1_556
Cs1 Se3 3.935730 1_555
Mn0 Se0 2.481248 1_555
Mn0 Se3 2.481248 1_555
Mn0 Se4 2.575026 1_565
Mn0 Se4 2.575026 1_455
Mn1 Se2 2.481248 1_555
Mn1 Se1 2.481248 1_555
Mn1 Se5 2.575026 1_655
Mn1 Se5 2.575026 1_545
Se0 Tm0 2.871940 1_555
Se0 Tm0 2.871940 1_665
Se1 Tm0 2.871940 1_556
Se1 Tm0 2.871940 1_666
Se2 Tm1 2.871940 1_665
Se2 Tm1 2.871940 1_555
Se3 Tm1 2.871940 1_665
Se3 Tm1 2.871940 1_555
Se4 Tm1 2.876408 1_655
Se4 Tm0 2.876408 1_655
Se5 Tm0 2.876408 1_566
Se5 Tm1 2.876408 1_565
