# generated using pymatgen
data_Sm2(Zn2Ge)3
_symmetry_space_group_name_H-M   'P 1'
_cell_length_a   7.56396628
_cell_length_b   7.56396563
_cell_length_c   4.04226254
_cell_angle_alpha   90.00000000
_cell_angle_beta   90.00000000
_cell_angle_gamma   119.99999837
_symmetry_Int_Tables_number   1
_chemical_formula_structural   Sm2(Zn2Ge)3
_chemical_formula_sum   'Sm2 Zn6 Ge3'
_cell_volume   200.28770349
_cell_formula_units_Z   1
loop_
 _symmetry_equiv_pos_site_id
 _symmetry_equiv_pos_as_xyz
  1  'x, y, z'
loop_
 _atom_site_type_symbol
 _atom_site_label
 _atom_site_symmetry_multiplicity
 _atom_site_fract_x
 _atom_site_fract_y
 _atom_site_fract_z
 _atom_site_occupancy
  Sm  Sm0  1  0.66666700  0.33333300  -0.00000000  1
  Sm  Sm1  1  0.33333300  0.66666700  -0.00000000  1
  Zn  Zn0  1  0.71343820  0.00000000  0.50000000  1
  Zn  Zn1  1  1.00000000  0.71343820  0.50000000  1
  Zn  Zn2  1  0.18978133  1.00000000  -0.00000000  1
  Zn  Zn3  1  0.81021867  0.81021867  -0.00000000  1
  Zn  Zn4  1  0.28656180  0.28656180  0.50000000  1
  Zn  Zn5  1  0.00000000  0.18978133  0.00000000  1
  Ge  Ge0  1  0.38407266  1.00000000  0.50000000  1
  Ge  Ge1  1  0.61592734  0.61592734  0.50000000  1
  Ge  Ge2  1  0.00000000  0.38407266  0.50000000  1
loop_
_geom_bond_atom_site_label_1
_geom_bond_atom_site_label_2
_geom_bond_distance
_geom_bond_site_symmetry_2
Sm0 Zn5 3.205270 1_655
Sm0 Zn2 3.205276 1_545
Sm0 Zn3 3.205277 1_555
Sm0 Zn0 3.385138 1_555
Sm0 Zn0 3.385138 1_554
Sm0 Zn1 3.385142 1_554
Sm0 Zn1 3.385142 1_555
Sm0 Zn4 3.385145 1_555
Sm0 Zn4 3.385145 1_554
Sm1 Zn2 3.205270 1_555
Sm1 Zn5 3.205276 1_555
Sm1 Zn3 3.205277 1_555
Sm1 Zn1 3.385139 1_455
Sm1 Zn1 3.385139 1_454
Sm1 Zn0 3.385142 1_565
Sm1 Zn0 3.385142 1_564
Sm1 Zn4 3.385144 1_555
Sm1 Zn4 3.385144 1_554
Ge0 Zn0 2.491310 1_565
Ge0 Zn2 2.498947 1_556
Ge0 Zn2 2.498947 1_555
Ge0 Zn4 2.615524 1_565
Ge0 Zn1 2.615524 1_455
Ge0 Sm1 3.101879 1_556
Ge0 Sm1 3.101879 1_555
Ge0 Sm0 3.101882 1_566
Ge0 Sm0 3.101882 1_565
Ge1 Zn4 2.491310 1_555
Ge1 Zn3 2.498947 1_555
Ge1 Zn3 2.498947 1_556
Ge1 Zn0 2.615524 1_565
Ge1 Zn1 2.615524 1_555
Ge1 Sm0 3.101885 1_556
Ge1 Sm0 3.101885 1_555
Ge1 Sm1 3.101885 1_555
Ge1 Sm1 3.101885 1_556
Ge2 Zn1 2.491310 1_455
Ge2 Zn5 2.498947 1_555
Ge2 Zn5 2.498947 1_556
Ge2 Zn0 2.615524 1_455
Ge2 Zn4 2.615524 1_555
Ge2 Sm0 3.101879 1_456
Ge2 Sm0 3.101879 1_455
Ge2 Sm1 3.101882 1_556
Ge2 Sm1 3.101882 1_555
