# generated using pymatgen
data_KMg6BO7
_symmetry_space_group_name_H-M   'P 1'
_cell_length_a   7.89650194
_cell_length_b   4.69577232
_cell_length_c   4.69577232
_cell_angle_alpha   90.00000000
_cell_angle_beta   90.00000000
_cell_angle_gamma   90.00000000
_symmetry_Int_Tables_number   1
_chemical_formula_structural   KMg6BO7
_chemical_formula_sum   'K1 Mg6 B1 O7'
_cell_volume   174.12006049
_cell_formula_units_Z   1
loop_
 _symmetry_equiv_pos_site_id
 _symmetry_equiv_pos_as_xyz
  1  'x, y, z'
loop_
 _atom_site_type_symbol
 _atom_site_label
 _atom_site_symmetry_multiplicity
 _atom_site_fract_x
 _atom_site_fract_y
 _atom_site_fract_z
 _atom_site_occupancy
  K  K0  1  0.00642446  0.00000000  -0.00000000  1
  Mg  Mg0  1  0.00521884  0.50000000  0.50000000  1
  Mg  Mg1  1  0.50489233  0.50000000  0.50000000  1
  Mg  Mg2  1  0.26309385  -0.00000000  0.50000000  1
  Mg  Mg3  1  0.74849223  -0.00000000  0.50000000  1
  Mg  Mg4  1  0.26309385  0.50000000  -0.00000000  1
  Mg  Mg5  1  0.74849223  0.50000000  0.00000000  1
  B  B0  1  0.50195061  0.00000000  0.00000000  1
  O  O0  1  0.67637201  0.00000000  -0.00000000  1
  O  O1  1  0.25472001  0.50000000  0.50000000  1
  O  O2  1  0.75554510  0.50000000  0.50000000  1
  O  O3  1  0.00659578  -0.00000000  0.50000000  1
  O  O4  1  0.50425645  -0.00000000  0.50000000  1
  O  O5  1  0.00659578  0.50000000  0.00000000  1
  O  O6  1  0.50425645  0.50000000  -0.00000000  1
loop_
_geom_bond_atom_site_label_1
_geom_bond_atom_site_label_2
_geom_bond_distance
_geom_bond_site_symmetry_2
K0 O5 2.347887 1_555
K0 O3 2.347887 1_555
K0 O3 2.347887 1_554
K0 O5 2.347887 1_545
K0 O0 2.606260 1_455
Mg0 O1 1.970186 1_555
Mg0 O2 1.971549 1_455
Mg0 O5 2.347911 1_556
Mg0 O5 2.347911 1_555
Mg0 O3 2.347911 1_555
Mg0 O3 2.347911 1_565
Mg1 O1 1.975486 1_555
Mg1 O2 1.979280 1_555
Mg1 O6 2.347892 1_556
Mg1 O6 2.347892 1_555
Mg1 O4 2.347892 1_555
Mg1 O4 2.347892 1_565
Mg2 O4 1.904341 1_555
Mg2 O3 2.025438 1_555
Mg2 O1 2.348817 1_545
Mg2 O1 2.348817 1_555
Mg3 O4 1.928608 1_555
Mg3 O3 2.038115 1_655
Mg3 O2 2.348547 1_555
Mg3 O2 2.348547 1_545
Mg3 O0 2.415967 1_555
Mg3 O0 2.415967 1_556
Mg4 O6 1.904341 1_555
Mg4 O5 2.025438 1_555
Mg4 O1 2.348817 1_555
Mg4 O1 2.348817 1_554
Mg5 O6 1.928608 1_555
Mg5 O5 2.038115 1_655
Mg5 O2 2.348547 1_554
Mg5 O2 2.348547 1_555
Mg5 O0 2.415967 1_565
Mg5 O0 2.415967 1_555
B0 O0 1.377319 1_555
