# generated using pymatgen
data_Ba5(IO6)2
_symmetry_space_group_name_H-M   'P 1'
_cell_length_a   5.98143600
_cell_length_b   10.77975500
_cell_length_c   20.11668300
_cell_angle_alpha   90.00000000
_cell_angle_beta   90.00000000
_cell_angle_gamma   90.00000000
_symmetry_Int_Tables_number   1
_chemical_formula_structural   Ba5(IO6)2
_chemical_formula_sum   'Ba20 I8 O48'
_cell_volume   1297.09182742
_cell_formula_units_Z   4
loop_
 _symmetry_equiv_pos_site_id
 _symmetry_equiv_pos_as_xyz
  1  'x, y, z'
loop_
 _atom_site_type_symbol
 _atom_site_label
 _atom_site_symmetry_multiplicity
 _atom_site_fract_x
 _atom_site_fract_y
 _atom_site_fract_z
 _atom_site_occupancy
  Ba  Ba0  1  0.25000000  0.41237300  0.54791700  1
  Ba  Ba1  1  0.25000000  0.08762700  0.04791700  1
  Ba  Ba2  1  0.75000000  0.58762700  0.45208300  1
  Ba  Ba3  1  0.75000000  0.91237300  0.95208300  1
  Ba  Ba4  1  0.25000000  0.11758900  0.64176800  1
  Ba  Ba5  1  0.25000000  0.38241100  0.14176800  1
  Ba  Ba6  1  0.75000000  0.88241100  0.35823200  1
  Ba  Ba7  1  0.75000000  0.61758900  0.85823200  1
  Ba  Ba8  1  0.25000000  0.76193600  0.69793500  1
  Ba  Ba9  1  0.25000000  0.73806400  0.19793500  1
  Ba  Ba10  1  0.75000000  0.23806400  0.30206500  1
  Ba  Ba11  1  0.75000000  0.26193600  0.80206500  1
  Ba  Ba12  1  0.25000000  0.02161600  0.84186400  1
  Ba  Ba13  1  0.25000000  0.47838400  0.34186400  1
  Ba  Ba14  1  0.75000000  0.97838400  0.15813600  1
  Ba  Ba15  1  0.75000000  0.52161600  0.65813600  1
  Ba  Ba16  1  0.25000000  0.40643400  0.92939000  1
  Ba  Ba17  1  0.25000000  0.09356600  0.42939000  1
  Ba  Ba18  1  0.75000000  0.59356600  0.07061000  1
  Ba  Ba19  1  0.75000000  0.90643400  0.57061000  1
  I  I0  1  0.25000000  0.75063900  0.51134200  1
  I  I1  1  0.25000000  0.74936100  0.01134200  1
  I  I2  1  0.75000000  0.24936100  0.48865800  1
  I  I3  1  0.75000000  0.25063900  0.98865800  1
  I  I4  1  0.25000000  0.39696300  0.74018300  1
  I  I5  1  0.25000000  0.10303700  0.24018300  1
  I  I6  1  0.75000000  0.60303700  0.25981700  1
  I  I7  1  0.75000000  0.89696300  0.75981700  1
  O  O0  1  0.52149000  0.16968700  0.53958900  1
  O  O1  1  0.97851000  0.33031300  0.03958900  1
  O  O2  1  0.02149000  0.83031300  0.46041100  1
  O  O3  1  0.47851000  0.66968700  0.96041100  1
  O  O4  1  0.47851000  0.83031300  0.46041100  1
  O  O5  1  0.02149000  0.66968700  0.96041100  1
  O  O6  1  0.97851000  0.16968700  0.53958900  1
  O  O7  1  0.52149000  0.33031300  0.03958900  1
  O  O8  1  0.02277400  0.31596700  0.68968100  1
  O  O9  1  0.47722600  0.18403300  0.18968100  1
  O  O10  1  0.52277400  0.68403300  0.31031900  1
  O  O11  1  0.97722600  0.81596700  0.81031900  1
  O  O12  1  0.97722600  0.68403300  0.31031900  1
  O  O13  1  0.52277400  0.81596700  0.81031900  1
  O  O14  1  0.47722600  0.31596700  0.68968100  1
  O  O15  1  0.02277400  0.18403300  0.18968100  1
  O  O16  1  0.02287500  0.47840200  0.79026100  1
  O  O17  1  0.47712500  0.02159800  0.29026100  1
  O  O18  1  0.52287500  0.52159800  0.20973900  1
  O  O19  1  0.97712500  0.97840200  0.70973900  1
  O  O20  1  0.97712500  0.52159800  0.20973900  1
  O  O21  1  0.52287500  0.97840200  0.70973900  1
  O  O22  1  0.47712500  0.47840200  0.79026100  1
  O  O23  1  0.02287500  0.02159800  0.29026100  1
  O  O24  1  0.51799500  0.17261000  0.93747500  1
  O  O25  1  0.98200500  0.32739000  0.43747500  1
  O  O26  1  0.01799500  0.82739000  0.06252500  1
  O  O27  1  0.48200500  0.67261000  0.56252500  1
  O  O28  1  0.48200500  0.82739000  0.06252500  1
  O  O29  1  0.01799500  0.67261000  0.56252500  1
  O  O30  1  0.98200500  0.17261000  0.93747500  1
  O  O31  1  0.51799500  0.32739000  0.43747500  1
  O  O32  1  0.25000000  0.88888300  0.57231700  1
  O  O33  1  0.25000000  0.61111700  0.07231700  1
  O  O34  1  0.75000000  0.11111700  0.42768300  1
  O  O35  1  0.75000000  0.38888300  0.92768300  1
  O  O36  1  0.25000000  0.26343900  0.80361200  1
  O  O37  1  0.25000000  0.23656100  0.30361200  1
  O  O38  1  0.75000000  0.73656100  0.19638800  1
  O  O39  1  0.75000000  0.76343900  0.69638800  1
  O  O40  1  0.25000000  0.89572900  0.95532100  1
  O  O41  1  0.25000000  0.60427100  0.45532100  1
  O  O42  1  0.75000000  0.10427100  0.04467900  1
  O  O43  1  0.75000000  0.39572900  0.54467900  1
  O  O44  1  0.25000000  0.97541800  0.17479900  1
  O  O45  1  0.25000000  0.52458200  0.67479900  1
  O  O46  1  0.75000000  0.02458200  0.82520100  1
  O  O47  1  0.75000000  0.47541800  0.32520100  1
loop_
_geom_bond_atom_site_label_1
_geom_bond_atom_site_label_2
_geom_bond_distance
_geom_bond_site_symmetry_2
Ba0 O41 2.783685 1_555
Ba0 O45 2.824548 1_555
Ba0 O25 2.888753 1_455
Ba0 O31 2.888753 1_555
Ba0 O43 2.996803 1_555
Ba0 O43 2.996803 1_455
Ba0 O0 3.083679 1_555
Ba0 O6 3.083679 1_455
Ba0 O29 3.143531 1_555
Ba0 O27 3.143531 1_555
Ba0 O14 3.325680 1_555
Ba0 O8 3.325680 1_555
Ba1 O40 2.783685 1_544
Ba1 O44 2.824548 1_545
Ba1 O30 2.888753 1_454
Ba1 O24 2.888753 1_554
Ba1 O42 2.996803 1_455
Ba1 O42 2.996803 1_555
Ba1 O1 3.083679 1_455
Ba1 O7 3.083679 1_555
Ba1 O28 3.143531 1_545
Ba1 O26 3.143531 1_545
Ba1 O9 3.325680 1_555
Ba1 O15 3.325680 1_555
Ba2 O43 2.783685 1_555
Ba2 O47 2.824548 1_555
Ba2 O27 2.888753 1_555
Ba2 O29 2.888753 1_655
Ba2 O41 2.996803 1_555
Ba2 O41 2.996803 1_655
Ba2 O2 3.083679 1_655
Ba2 O4 3.083679 1_555
Ba2 O31 3.143531 1_555
Ba2 O25 3.143531 1_555
Ba2 O12 3.325680 1_555
Ba2 O10 3.325680 1_555
Ba3 O42 2.783685 1_566
Ba3 O46 2.824548 1_565
Ba3 O28 2.888753 1_556
Ba3 O26 2.888753 1_656
Ba3 O40 2.996803 1_555
Ba3 O40 2.996803 1_655
Ba3 O5 3.083679 1_655
Ba3 O3 3.083679 1_555
Ba3 O30 3.143531 1_565
Ba3 O24 3.143531 1_565
Ba3 O13 3.325680 1_555
Ba3 O11 3.325680 1_555
Ba4 O19 2.604780 1_445
Ba4 O21 2.604780 1_545
Ba4 O6 2.679093 1_455
Ba4 O0 2.679093 1_555
Ba4 O14 2.710959 1_555
Ba4 O8 2.710959 1_555
Ba4 O32 2.833748 1_545
Ba5 O20 2.604780 1_455
Ba5 O18 2.604780 1_555
Ba5 O1 2.679093 1_455
Ba5 O7 2.679093 1_555
Ba5 O9 2.710959 1_555
Ba5 O15 2.710959 1_555
Ba5 O33 2.833748 1_555
Ba6 O17 2.604780 1_565
Ba6 O23 2.604780 1_665
Ba6 O2 2.679093 1_655
Ba6 O4 2.679093 1_555
Ba6 O12 2.710959 1_555
Ba6 O10 2.710959 1_555
Ba6 O34 2.833748 1_565
Ba7 O22 2.604780 1_555
Ba7 O16 2.604780 1_655
Ba7 O3 2.679093 1_555
Ba7 O5 2.679093 1_655
Ba7 O13 2.710959 1_555
Ba7 O11 2.710959 1_555
Ba7 O35 2.833748 1_555
Ba8 O45 2.600604 1_555
Ba8 O13 2.848241 1_555
Ba8 O11 2.848241 1_455
Ba8 O19 2.857517 1_455
Ba8 O21 2.857517 1_555
Ba8 O32 2.873759 1_555
Ba8 O39 2.990924 1_455
Ba8 O39 2.990924 1_555
Ba8 O29 3.205176 1_555
Ba8 O27 3.205176 1_555
Ba9 O44 2.600604 1_555
Ba9 O12 2.848241 1_455
Ba9 O10 2.848241 1_555
Ba9 O20 2.857517 1_455
Ba9 O18 2.857517 1_555
Ba9 O33 2.873759 1_555
Ba9 O38 2.990924 1_455
Ba9 O38 2.990924 1_555
Ba9 O26 3.205176 1_555
Ba9 O28 3.205176 1_555
Ba10 O47 2.600604 1_555
Ba10 O9 2.848241 1_555
Ba10 O15 2.848241 1_655
Ba10 O23 2.857517 1_655
Ba10 O17 2.857517 1_555
Ba10 O34 2.873759 1_555
Ba10 O37 2.990924 1_555
Ba10 O37 2.990924 1_655
Ba10 O25 3.205176 1_555
Ba10 O31 3.205176 1_555
Ba11 O46 2.600604 1_555
Ba11 O8 2.848241 1_655
Ba11 O14 2.848241 1_555
Ba11 O22 2.857517 1_555
Ba11 O16 2.857517 1_655
Ba11 O35 2.873759 1_555
Ba11 O36 2.990924 1_655
Ba11 O36 2.990924 1_555
Ba11 O24 3.205176 1_555
Ba11 O30 3.205176 1_555
Ba12 O40 2.655331 1_545
Ba12 O36 2.717996 1_555
Ba12 O13 2.824739 1_545
Ba12 O11 2.824739 1_445
Ba12 O24 2.986353 1_555
Ba12 O30 2.986353 1_455
Ba12 O46 3.009614 1_555
Ba12 O46 3.009614 1_455
Ba12 O21 3.153657 1_545
Ba12 O19 3.153657 1_445
Ba13 O41 2.655331 1_555
Ba13 O37 2.717996 1_555
Ba13 O12 2.824739 1_455
Ba13 O10 2.824739 1_555
Ba13 O25 2.986353 1_455
Ba13 O31 2.986353 1_555
Ba13 O47 3.009614 1_455
Ba13 O47 3.009614 1_555
Ba13 O18 3.153657 1_555
Ba13 O20 3.153657 1_455
Ba14 O42 2.655331 1_565
Ba14 O38 2.717996 1_555
Ba14 O9 2.824739 1_565
Ba14 O15 2.824739 1_665
Ba14 O26 2.986353 1_655
Ba14 O28 2.986353 1_555
Ba14 O44 3.009614 1_655
Ba14 O44 3.009614 1_555
Ba14 O17 3.153657 1_565
Ba14 O23 3.153657 1_665
Ba15 O43 2.655331 1_555
Ba15 O39 2.717996 1_555
Ba15 O8 2.824739 1_655
Ba15 O14 2.824739 1_555
Ba15 O27 2.986353 1_555
Ba15 O29 2.986353 1_655
Ba15 O45 3.009614 1_555
Ba15 O45 3.009614 1_655
Ba15 O16 3.153657 1_655
Ba15 O22 3.153657 1_555
Ba16 O7 2.867883 1_556
Ba16 O1 2.867883 1_456
Ba16 O36 2.962797 1_555
Ba16 O24 2.991537 1_555
Ba16 O30 2.991537 1_455
Ba16 O35 2.996893 1_555
Ba16 O35 2.996893 1_455
Ba16 O22 3.206374 1_555
Ba16 O16 3.206374 1_555
Ba16 O3 3.211034 1_555
Ba16 O5 3.211034 1_555
Ba17 O6 2.867883 1_455
Ba17 O0 2.867883 1_555
Ba17 O37 2.962797 1_555
Ba17 O25 2.991537 1_455
Ba17 O31 2.991537 1_555
Ba17 O34 2.996893 1_455
Ba17 O34 2.996893 1_555
Ba17 O23 3.206374 1_555
Ba17 O17 3.206374 1_555
Ba17 O2 3.211034 1_545
Ba17 O4 3.211034 1_545
Ba18 O3 2.867883 1_554
Ba18 O5 2.867883 1_654
Ba18 O38 2.962797 1_555
Ba18 O28 2.991537 1_555
Ba18 O26 2.991537 1_655
Ba18 O33 2.996893 1_655
Ba18 O33 2.996893 1_555
Ba18 O18 3.206374 1_555
Ba18 O20 3.206374 1_555
Ba18 O7 3.211034 1_555
Ba18 O1 3.211034 1_555
Ba19 O2 2.867883 1_655
Ba19 O4 2.867883 1_555
Ba19 O39 2.962797 1_555
Ba19 O27 2.991537 1_555
Ba19 O29 2.991537 1_655
Ba19 O32 2.996893 1_555
Ba19 O32 2.996893 1_655
Ba19 O19 3.206374 1_555
Ba19 O21 3.206374 1_555
Ba19 O6 3.211034 1_565
Ba19 O0 3.211034 1_565
I0 O4 1.911955 1_555
I0 O2 1.911955 1_555
I0 O29 1.921828 1_555
I0 O27 1.921828 1_555
I0 O32 1.930127 1_555
I0 O41 1.938948 1_555
I1 O3 1.911955 1_554
I1 O5 1.911955 1_554
I1 O26 1.921828 1_555
I1 O28 1.921828 1_555
I1 O33 1.930127 1_555
I1 O40 1.938948 1_554
I2 O6 1.911955 1_555
I2 O0 1.911955 1_555
I2 O31 1.921828 1_555
I2 O25 1.921828 1_555
I2 O34 1.930127 1_555
I2 O43 1.938948 1_555
I3 O7 1.911955 1_556
I3 O1 1.911955 1_556
I3 O30 1.921828 1_555
I3 O24 1.921828 1_555
I3 O35 1.930127 1_555
I3 O42 1.938948 1_556
I4 O45 1.903311 1_555
I4 O22 1.905563 1_555
I4 O16 1.905563 1_555
I4 O14 1.908326 1_555
I4 O8 1.908326 1_555
I4 O36 1.923506 1_555
I5 O44 1.903311 1_545
I5 O17 1.905563 1_555
I5 O23 1.905563 1_555
I5 O9 1.908326 1_555
I5 O15 1.908326 1_555
I5 O37 1.923506 1_555
I6 O47 1.903311 1_555
I6 O18 1.905563 1_555
I6 O20 1.905563 1_555
I6 O12 1.908326 1_555
I6 O10 1.908326 1_555
I6 O38 1.923506 1_555
I7 O46 1.903311 1_565
I7 O19 1.905563 1_555
I7 O21 1.905563 1_555
I7 O11 1.908326 1_555
I7 O13 1.908326 1_555
I7 O39 1.923506 1_555
