# generated using pymatgen
data_Sm2CuAs3O
_symmetry_space_group_name_H-M   'P 1'
_cell_length_a   3.99137600
_cell_length_b   3.99956800
_cell_length_c   34.82254100
_cell_angle_alpha   90.00000000
_cell_angle_beta   90.00000000
_cell_angle_gamma   90.00000000
_symmetry_Int_Tables_number   1
_chemical_formula_structural   Sm2CuAs3O
_chemical_formula_sum   'Sm8 Cu4 As12 O4'
_cell_volume   555.89937401
_cell_formula_units_Z   4
loop_
 _symmetry_equiv_pos_site_id
 _symmetry_equiv_pos_as_xyz
  1  'x, y, z'
loop_
 _atom_site_type_symbol
 _atom_site_label
 _atom_site_symmetry_multiplicity
 _atom_site_fract_x
 _atom_site_fract_y
 _atom_site_fract_z
 _atom_site_occupancy
  Sm  Sm0  1  0.75000000  0.75123200  0.96688300  1
  Sm  Sm1  1  0.25000000  0.25123200  0.53311700  1
  Sm  Sm2  1  0.75000000  0.74876800  0.46688300  1
  Sm  Sm3  1  0.25000000  0.24876800  0.03311700  1
  Sm  Sm4  1  0.25000000  0.30797300  0.82417700  1
  Sm  Sm5  1  0.75000000  0.80797300  0.67582300  1
  Sm  Sm6  1  0.25000000  0.19202700  0.32417700  1
  Sm  Sm7  1  0.75000000  0.69202700  0.17582300  1
  Cu  Cu0  1  0.25000000  0.80838000  0.75003600  1
  Cu  Cu1  1  0.75000000  0.30838000  0.74996400  1
  Cu  Cu2  1  0.25000000  0.69162000  0.25003600  1
  Cu  Cu3  1  0.75000000  0.19162000  0.24996400  1
  As  As0  1  0.25000000  0.83099200  0.89297900  1
  As  As1  1  0.75000000  0.33099200  0.60702100  1
  As  As2  1  0.25000000  0.66900800  0.39297900  1
  As  As3  1  0.75000000  0.16900800  0.10702100  1
  As  As4  1  0.75000000  0.25128800  0.89409500  1
  As  As5  1  0.25000000  0.75128800  0.60590500  1
  As  As6  1  0.75000000  0.24871200  0.39409500  1
  As  As7  1  0.25000000  0.74871200  0.10590500  1
  As  As8  1  0.25000000  0.30905200  0.70547700  1
  As  As9  1  0.75000000  0.80905200  0.79452300  1
  As  As10  1  0.25000000  0.19094800  0.20547700  1
  As  As11  1  0.75000000  0.69094800  0.29452300  1
  O  O0  1  0.75000000  0.25129900  0.00013500  1
  O  O1  1  0.25000000  0.75129900  0.49986500  1
  O  O2  1  0.75000000  0.24870100  0.50013500  1
  O  O3  1  0.25000000  0.74870100  0.99986500  1
loop_
_geom_bond_atom_site_label_1
_geom_bond_atom_site_label_2
_geom_bond_distance
_geom_bond_site_symmetry_2
Cu0 Sm4 3.264691 1_565
Cu0 Sm5 3.265165 1_555
Cu0 Sm5 3.265165 1_455
Cu0 Sm4 3.266684 1_555
Cu1 Sm5 3.264691 1_555
Cu1 Sm4 3.265165 1_655
Cu1 Sm4 3.265165 1_555
Cu1 Sm5 3.266684 1_545
Cu2 Sm6 3.264691 1_555
Cu2 Sm7 3.265165 1_455
Cu2 Sm7 3.265165 1_555
Cu2 Sm6 3.266684 1_565
Cu3 Sm7 3.264691 1_545
Cu3 Sm6 3.265165 1_655
Cu3 Sm6 3.265165 1_555
Cu3 Sm7 3.266684 1_555
As0 As4 2.609607 1_465
As0 As4 2.609607 1_565
As0 As4 3.059416 1_455
As0 As4 3.059416 1_555
As0 Sm4 3.062603 1_565
As0 Sm4 3.180563 1_555
As0 Sm0 3.272242 1_555
As0 Sm0 3.272242 1_455
As1 As5 2.609607 1_555
As1 As5 2.609607 1_655
As1 As5 3.059416 1_545
As1 As5 3.059416 1_645
As1 Sm5 3.062603 1_555
As1 Sm5 3.180563 1_545
As1 Sm1 3.272242 1_655
As1 Sm1 3.272242 1_555
As2 As6 2.609607 1_555
As2 As6 2.609607 1_455
As2 As6 3.059416 1_465
As2 As6 3.059416 1_565
As2 Sm6 3.062603 1_555
As2 Sm6 3.180563 1_565
As2 Sm2 3.272242 1_555
As2 Sm2 3.272242 1_455
As3 As7 2.609607 1_645
As3 As7 2.609607 1_545
As3 As7 3.059416 1_655
As3 As7 3.059416 1_555
As3 Sm7 3.062603 1_545
As3 Sm7 3.180563 1_555
As3 Sm3 3.272242 1_555
As3 Sm3 3.272242 1_655
As4 Sm4 3.156271 1_555
As4 Sm4 3.156271 1_655
As4 Sm0 3.228430 1_555
As4 Sm0 3.228707 1_545
As5 Sm5 3.156271 1_555
As5 Sm5 3.156271 1_455
As5 Sm1 3.228430 1_565
As5 Sm1 3.228707 1_555
As6 Sm6 3.156271 1_555
As6 Sm6 3.156271 1_655
As6 Sm2 3.228430 1_545
As6 Sm2 3.228707 1_555
As7 Sm7 3.156271 1_455
As7 Sm7 3.156271 1_555
As7 Sm3 3.228430 1_555
As7 Sm3 3.228707 1_565
As8 Cu1 2.526390 1_455
As8 Cu1 2.526390 1_555
As8 Cu0 2.529038 1_555
As8 Cu0 2.533285 1_545
As8 Sm5 3.005160 1_555
As8 Sm5 3.005160 1_455
As8 Sm5 3.010898 1_445
As8 Sm5 3.010898 1_545
As9 Cu0 2.526390 1_655
As9 Cu0 2.526390 1_555
As9 Cu1 2.529038 1_565
As9 Cu1 2.533285 1_555
As9 Sm4 3.005160 1_665
As9 Sm4 3.005160 1_565
As9 Sm4 3.010898 1_555
As9 Sm4 3.010898 1_655
As10 Cu3 2.526390 1_455
As10 Cu3 2.526390 1_555
As10 Cu2 2.529038 1_545
As10 Cu2 2.533285 1_555
As10 Sm7 3.005160 1_445
As10 Sm7 3.005160 1_545
As10 Sm7 3.010898 1_455
As10 Sm7 3.010898 1_555
As11 Cu2 2.526390 1_655
As11 Cu2 2.526390 1_555
As11 Cu3 2.529038 1_555
As11 Cu3 2.533285 1_565
As11 Sm6 3.005160 1_555
As11 Sm6 3.005160 1_655
As11 Sm6 3.010898 1_565
As11 Sm6 3.010898 1_665
O0 Sm3 2.302600 1_655
O0 Sm3 2.302600 1_555
O0 Sm0 2.310593 1_554
O0 Sm0 2.311057 1_544
O1 Sm2 2.302600 1_555
O1 Sm2 2.302600 1_455
O1 Sm1 2.310593 1_565
O1 Sm1 2.311057 1_555
O2 Sm1 2.302600 1_555
O2 Sm1 2.302600 1_655
O2 Sm2 2.310593 1_545
O2 Sm2 2.311057 1_555
O3 Sm0 2.302600 1_455
O3 Sm0 2.302600 1_555
O3 Sm3 2.310593 1_556
O3 Sm3 2.311057 1_566
