# generated using pymatgen
data_BaYb2F8
_symmetry_space_group_name_H-M   'P 1'
_cell_length_a   4.19687170
_cell_length_b   6.20013393
_cell_length_c   6.20013393
_cell_angle_alpha   113.04308877
_cell_angle_beta   95.00296043
_cell_angle_gamma   95.00296043
_symmetry_Int_Tables_number   1
_chemical_formula_structural   BaYb2F8
_chemical_formula_sum   'Ba1 Yb2 F8'
_cell_volume   146.59494301
_cell_formula_units_Z   1
loop_
 _symmetry_equiv_pos_site_id
 _symmetry_equiv_pos_as_xyz
  1  'x, y, z'
loop_
 _atom_site_type_symbol
 _atom_site_label
 _atom_site_symmetry_multiplicity
 _atom_site_fract_x
 _atom_site_fract_y
 _atom_site_fract_z
 _atom_site_occupancy
  Ba  Ba0  1  0.00000000  0.00000000  0.00000000  1
  Yb  Yb0  1  0.50000000  0.67537501  0.32462499  1
  Yb  Yb1  1  0.50000000  0.32462499  0.67537501  1
  F  F0  1  0.44036081  0.67070540  0.95395678  1
  F  F1  1  0.55963919  0.32929460  0.04604322  1
  F  F2  1  0.55963919  0.04604322  0.32929460  1
  F  F3  1  0.44036081  0.95395678  0.67070540  1
  F  F4  1  0.77183619  0.60286269  0.60286269  1
  F  F5  1  0.22816381  0.39713731  0.39713731  1
  F  F6  1  0.00000000  0.73591740  0.26408260  1
  F  F7  1  0.00000000  0.26408260  0.73591740  1
loop_
_geom_bond_atom_site_label_1
_geom_bond_atom_site_label_2
_geom_bond_distance
_geom_bond_site_symmetry_2
Ba0 F7 2.731401 1_554
Ba0 F6 2.731401 1_545
Ba0 F5 2.733862 1_555
Ba0 F4 2.733862 1_444
Ba0 F0 2.821238 1_544
Ba0 F3 2.821238 1_544
Ba0 F2 2.821238 1_455
Ba0 F1 2.821238 1_455
Ba0 F2 2.890824 1_555
Ba0 F1 2.890824 1_555
Ba0 F0 2.890824 1_444
Ba0 F3 2.890824 1_444
F0 Yb1 2.217637 1_555
F0 Yb0 2.278485 1_556
F1 Yb0 2.217637 1_555
F1 Yb1 2.278485 1_554
F2 Yb1 2.217637 1_555
F2 Yb0 2.278485 1_545
F3 Yb0 2.217637 1_555
F3 Yb1 2.278485 1_565
F4 Yb0 2.198422 1_555
F4 Yb1 2.198422 1_555
F5 Yb1 2.198422 1_555
F5 Yb0 2.198422 1_555
F6 Yb0 2.189873 1_555
F6 Yb0 2.189873 1_455
F7 Yb1 2.189873 1_555
F7 Yb1 2.189873 1_455
