# generated using pymatgen
data_InCuSnS4
_symmetry_space_group_name_H-M   'P 1'
_cell_length_a   7.48182752
_cell_length_b   7.48182752
_cell_length_c   7.48182752
_cell_angle_alpha   119.88173374
_cell_angle_beta   119.86939929
_cell_angle_gamma   90.21566091
_symmetry_Int_Tables_number   1
_chemical_formula_structural   InCuSnS4
_chemical_formula_sum   'In2 Cu2 Sn2 S8'
_cell_volume   296.70222180
_cell_formula_units_Z   2
loop_
 _symmetry_equiv_pos_site_id
 _symmetry_equiv_pos_as_xyz
  1  'x, y, z'
loop_
 _atom_site_type_symbol
 _atom_site_label
 _atom_site_symmetry_multiplicity
 _atom_site_fract_x
 _atom_site_fract_y
 _atom_site_fract_z
 _atom_site_occupancy
  In  In0  1  0.00000000  0.50000000  0.50000000  1
  In  In1  1  0.50000000  0.50000000  0.00000000  1
  Cu  Cu0  1  0.12839900  0.87839900  0.25000000  1
  Cu  Cu1  1  0.87160100  0.12160100  0.75000000  1
  Sn  Sn0  1  0.50000000  0.00000000  0.00000000  1
  Sn  Sn1  1  0.50000000  0.50000000  0.50000000  1
  S  S0  1  0.25301000  0.24840600  0.00460300  1
  S  S1  1  0.74380300  0.24840600  0.49539700  1
  S  S2  1  0.74397400  0.74003600  0.49606100  1
  S  S3  1  0.74397400  0.24791300  0.00393900  1
  S  S4  1  0.74699000  0.75159400  0.99539700  1
  S  S5  1  0.25619700  0.75159400  0.50460300  1
  S  S6  1  0.25602600  0.25996400  0.50393900  1
  S  S7  1  0.25602600  0.75208700  0.99606100  1
loop_
_geom_bond_atom_site_label_1
_geom_bond_atom_site_label_2
_geom_bond_distance
_geom_bond_site_symmetry_2
In0 S3 2.630178 1_455
In0 S7 2.630178 1_555
In0 S6 2.630183 1_555
In0 S2 2.630183 1_455
In0 S5 2.657301 1_555
In0 S1 2.657301 1_455
In1 S6 2.630177 1_554
In1 S2 2.630177 1_555
In1 S3 2.630178 1_555
In1 S7 2.630178 1_554
In1 S0 2.657296 1_555
In1 S4 2.657296 1_554
Cu0 S5 2.331604 1_555
Cu0 S4 2.331610 1_454
Cu0 S6 2.332241 1_565
Cu0 S7 2.332248 1_554
Cu1 S1 2.331604 1_555
Cu1 S0 2.331610 1_656
Cu1 S2 2.332241 1_545
Cu1 S3 2.332248 1_556
S0 Sn0 2.625959 1_555
S0 Sn1 2.625964 1_555
S1 Sn0 2.625964 1_555
S1 Sn1 2.625964 1_555
S2 Sn1 2.576776 1_555
S3 Sn0 2.576771 1_555
S4 Sn0 2.625959 1_566
S4 Sn1 2.625964 1_555
S5 Sn0 2.625964 1_566
S5 Sn1 2.625964 1_555
S6 Sn1 2.576776 1_555
S7 Sn0 2.576771 1_566
