# generated using pymatgen
data_CoH24C6Br2(N2O3)2
_symmetry_space_group_name_H-M   'P 1'
_cell_length_a   9.07998716
_cell_length_b   9.07998716
_cell_length_c   14.91432600
_cell_angle_alpha   90.00000000
_cell_angle_beta   90.00000000
_cell_angle_gamma   111.14725609
_symmetry_Int_Tables_number   1
_chemical_formula_structural   CoH24C6Br2(N2O3)2
_chemical_formula_sum   'Co2 H48 C12 Br4 N8 O12'
_cell_volume   1146.82124346
_cell_formula_units_Z   2
loop_
 _symmetry_equiv_pos_site_id
 _symmetry_equiv_pos_as_xyz
  1  'x, y, z'
loop_
 _atom_site_type_symbol
 _atom_site_label
 _atom_site_symmetry_multiplicity
 _atom_site_fract_x
 _atom_site_fract_y
 _atom_site_fract_z
 _atom_site_occupancy
  Co  Co0  1  0.00000000  0.00000000  0.50000000  1
  Co  Co1  1  0.00000000  0.00000000  0.00000000  1
  H  H0  1  0.40888900  0.63120800  0.39167800  1
  H  H1  1  0.36879200  0.59111100  0.60832200  1
  H  H2  1  0.40888900  0.63120800  0.10832200  1
  H  H3  1  0.36879200  0.59111100  0.89167800  1
  H  H4  1  0.59111100  0.36879200  0.60832200  1
  H  H5  1  0.63120800  0.40888900  0.39167800  1
  H  H6  1  0.59111100  0.36879200  0.89167800  1
  H  H7  1  0.63120800  0.40888900  0.10832200  1
  H  H8  1  0.44610800  0.83799800  0.39906000  1
  H  H9  1  0.16200200  0.55389200  0.60094000  1
  H  H10  1  0.44610800  0.83799800  0.10094000  1
  H  H11  1  0.16200200  0.55389200  0.89906000  1
  H  H12  1  0.55389200  0.16200200  0.60094000  1
  H  H13  1  0.83799800  0.44610800  0.39906000  1
  H  H14  1  0.55389200  0.16200200  0.89906000  1
  H  H15  1  0.83799800  0.44610800  0.10094000  1
  H  H16  1  0.54083900  0.74851400  0.47604800  1
  H  H17  1  0.25148600  0.45916100  0.52395200  1
  H  H18  1  0.54083900  0.74851400  0.02395200  1
  H  H19  1  0.25148600  0.45916100  0.97604800  1
  H  H20  1  0.45916100  0.25148600  0.52395200  1
  H  H21  1  0.74851400  0.54083900  0.47604800  1
  H  H22  1  0.45916100  0.25148600  0.97604800  1
  H  H23  1  0.74851400  0.54083900  0.02395200  1
  H  H24  1  0.66068700  0.04023100  0.25000000  1
  H  H25  1  0.95976900  0.33931300  0.75000000  1
  H  H26  1  0.33931300  0.95976900  0.75000000  1
  H  H27  1  0.04023100  0.66068700  0.25000000  1
  H  H28  1  0.84354200  0.13658900  0.25000000  1
  H  H29  1  0.86341100  0.15645800  0.75000000  1
  H  H30  1  0.15645800  0.86341100  0.75000000  1
  H  H31  1  0.13658900  0.84354200  0.25000000  1
  H  H32  1  0.82370200  0.92877100  0.34790700  1
  H  H33  1  0.07122900  0.17629800  0.65209300  1
  H  H34  1  0.82370200  0.92877100  0.15209300  1
  H  H35  1  0.07122900  0.17629800  0.84790700  1
  H  H36  1  0.17629800  0.07122900  0.65209300  1
  H  H37  1  0.92877100  0.82370200  0.34790700  1
  H  H38  1  0.17629800  0.07122900  0.84790700  1
  H  H39  1  0.92877100  0.82370200  0.15209300  1
  H  H40  1  0.24011200  0.13575200  0.37288600  1
  H  H41  1  0.86424800  0.75988800  0.62711400  1
  H  H42  1  0.24011200  0.13575200  0.12711400  1
  H  H43  1  0.86424800  0.75988800  0.87288600  1
  H  H44  1  0.75988800  0.86424800  0.62711400  1
  H  H45  1  0.13575200  0.24011200  0.37288600  1
  H  H46  1  0.75988800  0.86424800  0.87288600  1
  H  H47  1  0.13575200  0.24011200  0.12711400  1
  C  C0  1  0.43265900  0.73153000  0.43774300  1
  C  C1  1  0.26847000  0.56734100  0.56225700  1
  C  C2  1  0.43265900  0.73153000  0.06225700  1
  C  C3  1  0.26847000  0.56734100  0.93774300  1
  C  C4  1  0.56734100  0.26847000  0.56225700  1
  C  C5  1  0.73153000  0.43265900  0.43774300  1
  C  C6  1  0.56734100  0.26847000  0.93774300  1
  C  C7  1  0.73153000  0.43265900  0.06225700  1
  C  C8  1  0.21366100  0.78633900  0.50000000  1
  C  C9  1  0.21366100  0.78633900  0.00000000  1
  C  C10  1  0.78633900  0.21366100  0.50000000  1
  C  C11  1  0.78633900  0.21366100  0.00000000  1
  Br  Br0  1  0.39687200  0.07708300  0.25000000  1
  Br  Br1  1  0.92291700  0.60312800  0.75000000  1
  Br  Br2  1  0.60312800  0.92291700  0.75000000  1
  Br  Br3  1  0.07708300  0.39687200  0.25000000  1
  N  N0  1  0.30029600  0.69970400  0.50000000  1
  N  N1  1  0.30029600  0.69970400  0.00000000  1
  N  N2  1  0.69970400  0.30029600  0.50000000  1
  N  N3  1  0.69970400  0.30029600  0.00000000  1
  N  N4  1  0.13528800  0.86471200  0.50000000  1
  N  N5  1  0.13528800  0.86471200  0.00000000  1
  N  N6  1  0.86471200  0.13528800  0.50000000  1
  N  N7  1  0.86471200  0.13528800  0.00000000  1
  O  O0  1  0.86966700  0.86966700  0.38786100  1
  O  O1  1  0.13033300  0.13033300  0.61213900  1
  O  O2  1  0.86966700  0.86966700  0.11213900  1
  O  O3  1  0.13033300  0.13033300  0.88786100  1
  O  O4  1  0.17182800  0.17182800  0.41185500  1
  O  O5  1  0.82817200  0.82817200  0.58814500  1
  O  O6  1  0.17182800  0.17182800  0.08814500  1
  O  O7  1  0.82817200  0.82817200  0.91185500  1
  O  O8  1  0.76458200  0.02796500  0.25000000  1
  O  O9  1  0.97203500  0.23541800  0.75000000  1
  O  O10  1  0.23541800  0.97203500  0.75000000  1
  O  O11  1  0.02796500  0.76458200  0.25000000  1
loop_
_geom_bond_atom_site_label_1
_geom_bond_atom_site_label_2
_geom_bond_distance
_geom_bond_site_symmetry_2
Co0 N6 2.026522 1_455
Co0 N4 2.026522 1_545
Co0 O1 2.141882 1_555
Co0 O0 2.141882 1_445
Co0 O5 2.200067 1_445
Co0 O4 2.200067 1_555
Co1 N7 2.026522 1_455
Co1 N5 2.026522 1_545
Co1 O3 2.141882 1_554
Co1 O2 2.141882 1_445
Co1 O7 2.200067 1_444
Co1 O6 2.200067 1_555
H24 O8 0.989016 1_555
H25 O9 0.989016 1_555
H26 O10 0.989016 1_555
H27 O11 0.989016 1_555
H28 O8 0.988231 1_555
H29 O9 0.988231 1_555
H30 O10 0.988231 1_555
H31 O11 0.988231 1_555
H32 O0 0.989389 1_555
H33 O1 0.989389 1_555
H34 O2 0.989389 1_555
H35 O3 0.989389 1_555
H36 O1 0.989389 1_555
H37 O0 0.989389 1_555
H38 O3 0.989389 1_555
H39 O2 0.989389 1_555
H40 O4 0.987955 1_555
H41 O5 0.987955 1_555
H42 O6 0.987955 1_555
H43 O7 0.987955 1_555
H44 O5 0.987955 1_555
H45 O4 0.987955 1_555
H46 O7 0.987955 1_555
H47 O6 0.987955 1_555
C0 H8 1.094141 1_555
C0 H16 1.098053 1_555
C0 H0 1.098414 1_555
C0 N0 1.462709 1_555
C1 H9 1.094141 1_555
C1 H17 1.098053 1_555
C1 H1 1.098414 1_555
C1 N0 1.462709 1_555
C2 H10 1.094141 1_555
C2 H18 1.098053 1_555
C2 H2 1.098414 1_555
C2 N1 1.462709 1_555
C3 H11 1.094141 1_555
C3 H19 1.098053 1_555
C3 H3 1.098414 1_555
C3 N1 1.462709 1_556
C4 H12 1.094141 1_555
C4 H20 1.098053 1_555
C4 H4 1.098414 1_555
C4 N2 1.462709 1_555
C5 H13 1.094141 1_555
C5 H21 1.098053 1_555
C5 H5 1.098414 1_555
C5 N2 1.462709 1_555
C6 H14 1.094141 1_555
C6 H22 1.098053 1_555
C6 H6 1.098414 1_555
C6 N3 1.462709 1_556
C7 H15 1.094141 1_555
C7 H23 1.098053 1_555
C7 H7 1.098414 1_555
C7 N3 1.462709 1_555
C8 N4 1.173974 1_555
C8 N0 1.297733 1_555
C9 N5 1.173974 1_555
C9 N1 1.297733 1_555
C10 N6 1.173974 1_555
C10 N2 1.297733 1_555
C11 N7 1.173974 1_555
C11 N3 1.297733 1_555
