# generated using pymatgen
data_Sr5Hf2N6
_symmetry_space_group_name_H-M   'P 1'
_cell_length_a   6.61999439
_cell_length_b   7.14436866
_cell_length_c   13.83373852
_cell_angle_alpha   89.99999752
_cell_angle_beta   101.74639451
_cell_angle_gamma   122.65677467
_symmetry_Int_Tables_number   1
_chemical_formula_structural   Sr5Hf2N6
_chemical_formula_sum   'Sr10 Hf4 N12'
_cell_volume   534.50040545
_cell_formula_units_Z   2
loop_
 _symmetry_equiv_pos_site_id
 _symmetry_equiv_pos_as_xyz
  1  'x, y, z'
loop_
 _atom_site_type_symbol
 _atom_site_label
 _atom_site_symmetry_multiplicity
 _atom_site_fract_x
 _atom_site_fract_y
 _atom_site_fract_z
 _atom_site_occupancy
  Sr  Sr0  1  0.05319400  0.77146300  0.00975200  1
  Sr  Sr1  1  0.94680600  0.71827000  0.49024800  1
  Sr  Sr2  1  0.94680600  0.22853700  0.99024800  1
  Sr  Sr3  1  0.05319400  0.28173000  0.50975200  1
  Sr  Sr4  1  0.31083600  0.00854500  0.72276900  1
  Sr  Sr5  1  0.68916400  0.69770900  0.77723100  1
  Sr  Sr6  1  0.68916400  0.99145500  0.27723100  1
  Sr  Sr7  1  0.31083600  0.30229100  0.22276900  1
  Sr  Sr8  1  0.00000000  0.35110300  0.75000000  1
  Sr  Sr9  1  0.00000000  0.64889700  0.25000000  1
  Hf  Hf0  1  0.54798500  0.85860900  0.56625800  1
  Hf  Hf1  1  0.45201500  0.31062400  0.93374200  1
  Hf  Hf2  1  0.45201500  0.14139100  0.43374200  1
  Hf  Hf3  1  0.54798500  0.68937600  0.06625800  1
  N  N0  1  0.89944300  0.93551400  0.62016000  1
  N  N1  1  0.10055700  0.03607200  0.87984000  1
  N  N2  1  0.10055700  0.06448600  0.37984000  1
  N  N3  1  0.89944300  0.96392800  0.12016000  1
  N  N4  1  0.28751000  0.64603800  0.64154900  1
  N  N5  1  0.71249000  0.35852800  0.85845100  1
  N  N6  1  0.71249000  0.35396200  0.35845100  1
  N  N7  1  0.28751000  0.64147200  0.14154900  1
  N  N8  1  0.58428300  0.16195900  0.58718300  1
  N  N9  1  0.41571700  0.57767600  0.91281700  1
  N  N10  1  0.41571700  0.83804100  0.41281700  1
  N  N11  1  0.58428300  0.42232400  0.08718300  1
loop_
_geom_bond_atom_site_label_1
_geom_bond_atom_site_label_2
_geom_bond_distance
_geom_bond_site_symmetry_2
Hf0 N0 2.045778 1_555
Hf0 N8 2.061101 1_565
Hf0 N4 2.066324 1_555
Hf0 N10 2.097229 1_555
Hf1 N1 2.045776 1_555
Hf1 N9 2.061101 1_555
Hf1 N5 2.066324 1_555
Hf1 N11 2.097229 1_556
Hf2 N2 2.045778 1_555
Hf2 N10 2.061101 1_545
Hf2 N6 2.066324 1_555
Hf2 N8 2.097229 1_555
Hf3 N3 2.045776 1_555
Hf3 N11 2.061101 1_555
Hf3 N7 2.066324 1_555
Hf3 N9 2.097229 1_554
N0 Sr1 2.547875 1_555
N0 Sr4 2.568385 1_665
N0 Sr3 2.720830 1_665
N0 Sr5 2.867902 1_555
N0 Sr8 3.140884 1_665
N1 Sr0 2.547885 1_546
N1 Sr5 2.568388 1_445
N1 Sr2 2.720830 1_455
N1 Sr4 2.867905 1_555
N1 Sr8 3.140878 1_555
N2 Sr3 2.547875 1_555
N2 Sr6 2.568385 1_445
N2 Sr1 2.720830 1_445
N2 Sr7 2.867902 1_555
N2 Sr9 3.140884 1_545
N3 Sr2 2.547885 1_564
N3 Sr7 2.568388 1_665
N3 Sr0 2.720830 1_655
N3 Sr6 2.867905 1_555
N3 Sr9 3.140878 1_655
N4 Sr3 2.645003 1_555
N4 Sr8 2.673552 1_555
N4 Sr4 2.737064 1_565
N4 Sr5 2.763691 1_555
N4 Sr1 3.011362 1_455
N5 Sr2 2.644998 1_555
N5 Sr8 2.673552 1_655
N5 Sr5 2.737064 1_555
N5 Sr4 2.763691 1_555
N5 Sr0 3.011358 1_656
N6 Sr1 2.645003 1_555
N6 Sr9 2.673552 1_655
N6 Sr6 2.737064 1_545
N6 Sr7 2.763691 1_555
N6 Sr3 3.011362 1_655
N7 Sr0 2.644998 1_555
N7 Sr9 2.673552 1_555
N7 Sr7 2.737064 1_555
N7 Sr6 2.763691 1_555
N7 Sr2 3.011358 1_454
N8 Sr4 2.690264 1_555
N8 Sr8 2.817033 1_655
N8 Sr3 3.162719 1_655
N9 Sr5 2.690264 1_555
N9 Sr8 2.817033 1_555
N9 Sr2 3.162718 1_455
N10 Sr6 2.690264 1_555
N10 Sr9 2.817033 1_555
N10 Sr1 3.162719 1_455
N11 Sr7 2.690264 1_555
N11 Sr9 2.817033 1_655
N11 Sr0 3.162718 1_655
