# generated using pymatgen
data_LiBi(PO4)2
_symmetry_space_group_name_H-M   'P 1'
_cell_length_a   8.76929837
_cell_length_b   8.77186108
_cell_length_c   7.65581330
_cell_angle_alpha   89.93573416
_cell_angle_beta   89.83111443
_cell_angle_gamma   59.98762356
_symmetry_Int_Tables_number   1
_chemical_formula_structural   LiBi(PO4)2
_chemical_formula_sum   'Li3 Bi3 P6 O24'
_cell_volume   509.94396832
_cell_formula_units_Z   3
loop_
 _symmetry_equiv_pos_site_id
 _symmetry_equiv_pos_as_xyz
  1  'x, y, z'
loop_
 _atom_site_type_symbol
 _atom_site_label
 _atom_site_symmetry_multiplicity
 _atom_site_fract_x
 _atom_site_fract_y
 _atom_site_fract_z
 _atom_site_occupancy
  Li  Li0  1  0.33189300  0.33293800  0.50119600  1
  Li  Li1  1  0.99720700  0.00166700  0.39808600  1
  Li  Li2  1  0.66799800  0.66529300  0.50556300  1
  Bi  Bi0  1  0.33370000  0.33335600  0.93091300  1
  Bi  Bi1  1  0.99983600  0.99989700  0.99079500  1
  Bi  Bi2  1  0.66683700  0.66682000  0.07356600  1
  P  P0  1  0.31915800  0.04043700  0.24273800  1
  P  P1  1  0.04000100  0.63991300  0.24324500  1
  P  P2  1  0.36033700  0.67953900  0.76351400  1
  P  P3  1  0.63906400  0.32035400  0.24268000  1
  P  P4  1  0.96167200  0.35918300  0.76359000  1
  P  P5  1  0.68021500  0.96055800  0.76286100  1
  O  O0  1  0.04363900  0.15544900  0.78770800  1
  O  O1  1  0.11961700  0.39669800  0.74900000  1
  O  O2  1  0.29177200  0.14071900  0.06569600  1
  O  O3  1  0.28332400  0.15126100  0.40326200  1
  O  O4  1  0.15073500  0.56428500  0.40338600  1
  O  O5  1  0.14062500  0.56783800  0.06596900  1
  O  O6  1  0.48468000  0.11835000  0.74926600  1
  O  O7  1  0.15644200  0.80109200  0.78782300  1
  O  O8  1  0.39821100  0.48404700  0.74936600  1
  O  O9  1  0.18913700  0.96749700  0.22204400  1
  O  O10  1  0.56252000  0.28492700  0.40247600  1
  O  O11  1  0.56795700  0.29243100  0.06503500  1
  O  O12  1  0.43066300  0.71113900  0.94044700  1
  O  O13  1  0.43420500  0.71738900  0.60329300  1
  O  O14  1  0.80251300  0.04210700  0.78592800  1
  O  O15  1  0.60645300  0.51385800  0.25594700  1
  O  O16  1  0.84223400  0.19028700  0.22237500  1
  O  O17  1  0.51297600  0.87991900  0.25548800  1
  O  O18  1  0.85981200  0.43011200  0.94102200  1
  O  O19  1  0.85001300  0.43270300  0.60387800  1
  O  O20  1  0.71776700  0.84904600  0.60277300  1
  O  O21  1  0.71163700  0.85880000  0.94023500  1
  O  O22  1  0.87925400  0.60687900  0.25616800  1
  O  O23  1  0.96678700  0.84296000  0.22281800  1
loop_
_geom_bond_atom_site_label_1
_geom_bond_atom_site_label_2
_geom_bond_distance
_geom_bond_site_symmetry_2
Li0 O3 1.991691 1_555
Li0 O10 1.994609 1_555
Li0 O4 1.995301 1_555
Li0 O1 2.513408 1_555
Li0 O6 2.535595 1_555
Li0 O8 2.547211 1_555
Li1 O16 2.037258 1_555
Li1 O23 2.046351 1_545
Li1 O9 2.054731 1_645
Li2 O19 2.005668 1_555
Li2 O13 2.006598 1_555
Li2 O20 2.012653 1_555
Li2 O22 2.524242 1_555
Li2 O15 2.537082 1_555
Li2 O17 2.550462 1_555
Bi0 O2 2.161182 1_556
Bi0 O5 2.162642 1_556
Bi0 O11 2.162664 1_556
Bi0 O8 2.176787 1_555
Bi0 O6 2.177366 1_555
Bi0 O1 2.177834 1_555
Bi1 O7 2.222499 1_655
Bi1 O0 2.223239 1_665
Bi1 O14 2.228237 1_565
Bi1 O9 2.348411 1_656
Bi1 O23 2.350538 1_556
Bi1 O16 2.350685 1_566
Bi2 O18 2.164316 1_554
Bi2 O12 2.164542 1_554
Bi2 O21 2.165141 1_554
Bi2 O17 2.173971 1_555
Bi2 O15 2.175432 1_555
Bi2 O22 2.175894 1_555
O0 P4 1.568300 1_455
O1 P4 1.579287 1_455
O2 P0 1.567321 1_555
O3 P0 1.499631 1_555
O4 P1 1.498969 1_555
O5 P1 1.567512 1_555
O6 P5 1.579027 1_545
O7 P2 1.568382 1_555
O8 P2 1.578964 1_555
O9 P0 1.570220 1_565
O10 P3 1.498913 1_555
O11 P3 1.567483 1_555
O12 P2 1.571239 1_555
O13 P2 1.497997 1_555
O14 P5 1.569058 1_545
O15 P3 1.577293 1_555
O16 P3 1.570175 1_555
O17 P0 1.577185 1_565
O18 P4 1.571298 1_555
O19 P4 1.497771 1_555
O20 P5 1.498477 1_555
O21 P5 1.571661 1_555
O22 P1 1.577521 1_655
O23 P1 1.570030 1_655
