# generated using pymatgen
data_K2CrHgF6
_symmetry_space_group_name_H-M   'P 1'
_cell_length_a   6.30080000
_cell_length_b   6.30080012
_cell_length_c   6.30080020
_cell_angle_alpha   60.00000386
_cell_angle_beta   60.00000103
_cell_angle_gamma   60.00000062
_symmetry_Int_Tables_number   1
_chemical_formula_structural   K2CrHgF6
_chemical_formula_sum   'K2 Cr1 Hg1 F6'
_cell_volume   176.87731022
_cell_formula_units_Z   1
loop_
 _symmetry_equiv_pos_site_id
 _symmetry_equiv_pos_as_xyz
  1  'x, y, z'
loop_
 _atom_site_type_symbol
 _atom_site_label
 _atom_site_symmetry_multiplicity
 _atom_site_fract_x
 _atom_site_fract_y
 _atom_site_fract_z
 _atom_site_occupancy
  K  K0  1  0.25000000  0.25000000  0.25000000  1
  K  K1  1  0.75000000  0.75000000  0.75000000  1
  Cr  Cr0  1  0.00000000  0.00000000  0.00000000  1
  Hg  Hg0  1  0.50000000  0.50000000  0.50000000  1
  F  F0  1  0.21812100  0.78187900  0.21812100  1
  F  F1  1  0.78187900  0.78187900  0.21812100  1
  F  F2  1  0.78187900  0.21812100  0.78187900  1
  F  F3  1  0.78187900  0.21812100  0.21812100  1
  F  F4  1  0.21812100  0.78187900  0.78187900  1
  F  F5  1  0.21812100  0.21812100  0.78187900  1
loop_
_geom_bond_atom_site_label_1
_geom_bond_atom_site_label_2
_geom_bond_distance
_geom_bond_site_symmetry_2
Cr0 F3 1.943606 1_455
Cr0 F4 1.943606 1_544
Cr0 F0 1.943606 1_545
Cr0 F5 1.943606 1_554
Cr0 F2 1.943606 1_454
Cr0 F1 1.943606 1_445
F0 Hg0 2.511733 1_555
F0 K0 3.163181 1_565
F0 K0 3.163181 1_555
F0 K1 3.163181 1_554
F0 K1 3.163181 1_455
F1 Hg0 2.511733 1_555
F1 K0 3.163181 1_565
F1 K0 3.163181 1_655
F1 K1 3.163181 1_554
F1 K1 3.163181 1_555
F2 Hg0 2.511733 1_555
F2 K1 3.163181 1_545
F2 K1 3.163181 1_555
F2 K0 3.163181 1_556
F2 K0 3.163181 1_655
F3 Hg0 2.511733 1_555
F3 K0 3.163181 1_555
F3 K0 3.163181 1_655
F3 K1 3.163181 1_554
F3 K1 3.163181 1_545
F4 Hg0 2.511733 1_555
F4 K1 3.163181 1_455
F4 K1 3.163181 1_555
F4 K0 3.163181 1_556
F4 K0 3.163181 1_565
F5 Hg0 2.511733 1_555
F5 K1 3.163181 1_545
F5 K1 3.163181 1_455
F5 K0 3.163181 1_556
F5 K0 3.163181 1_555
