# generated using pymatgen
data_CaCeHg2
_symmetry_space_group_name_H-M   'P 1'
_cell_length_a   5.92631018
_cell_length_b   5.93776598
_cell_length_c   5.87172803
_cell_angle_alpha   61.82889883
_cell_angle_beta   60.96620140
_cell_angle_gamma   63.34984548
_symmetry_Int_Tables_number   1
_chemical_formula_structural   CaCeHg2
_chemical_formula_sum   'Ca1 Ce1 Hg2'
_cell_volume   152.66579442
_cell_formula_units_Z   1
loop_
 _symmetry_equiv_pos_site_id
 _symmetry_equiv_pos_as_xyz
  1  'x, y, z'
loop_
 _atom_site_type_symbol
 _atom_site_label
 _atom_site_symmetry_multiplicity
 _atom_site_fract_x
 _atom_site_fract_y
 _atom_site_fract_z
 _atom_site_occupancy
  Ca  Ca0  1  0.25000000  0.25000100  0.25000100  1
  Ce  Ce0  1  0.75000200  0.74999900  0.75000000  1
  Hg  Hg0  1  0.00005800  0.99959000  0.00003500  1
  Hg  Hg1  1  0.49994200  0.50041100  0.49996600  1
loop_
_geom_bond_atom_site_label_1
_geom_bond_atom_site_label_2
_geom_bond_distance
_geom_bond_site_symmetry_2
Ca0 Hg1 3.564497 1_555
Ca0 Hg0 3.564507 1_545
Ca0 Hg0 3.641565 1_546
Ca0 Hg1 3.641570 1_554
Ca0 Hg1 3.731294 1_455
Ca0 Hg0 3.731294 1_645
Ca0 Hg0 3.766478 1_555
Ca0 Hg1 3.766483 1_545
Ca0 Ce0 4.175122 1_445
Ca0 Ce0 4.175122 1_554
Ca0 Ce0 4.255319 1_455
Ca0 Ce0 4.255346 1_544
Ca0 Ce0 4.305352 1_454
Ca0 Ce0 4.305362 1_545
Ce0 Hg0 3.561494 1_656
Ce0 Hg1 3.561494 1_555
Ce0 Hg0 3.641142 1_655
Ce0 Hg1 3.641146 1_556
Ce0 Hg1 3.730480 1_655
Ce0 Hg0 3.730500 1_556
Ce0 Hg0 3.770522 1_646
Ce0 Hg1 3.770538 1_565
