# generated using pymatgen
data_NbCo2Sn
_symmetry_space_group_name_H-M   'P 1'
_cell_length_a   4.48346800
_cell_length_b   5.92704000
_cell_length_c   8.83466400
_cell_angle_alpha   90.00000000
_cell_angle_beta   90.00000000
_cell_angle_gamma   90.00000000
_symmetry_Int_Tables_number   1
_chemical_formula_structural   NbCo2Sn
_chemical_formula_sum   'Nb4 Co8 Sn4'
_cell_volume   234.76965927
_cell_formula_units_Z   4
loop_
 _symmetry_equiv_pos_site_id
 _symmetry_equiv_pos_as_xyz
  1  'x, y, z'
loop_
 _atom_site_type_symbol
 _atom_site_label
 _atom_site_symmetry_multiplicity
 _atom_site_fract_x
 _atom_site_fract_y
 _atom_site_fract_z
 _atom_site_occupancy
  Nb  Nb0  1  0.00000000  0.00000000  0.00000000  1
  Nb  Nb1  1  0.00000000  0.00000000  0.50000000  1
  Nb  Nb2  1  0.53609800  0.50000000  0.75000000  1
  Nb  Nb3  1  0.46390200  0.50000000  0.25000000  1
  Co  Co0  1  0.50000000  0.74877400  0.00000000  1
  Co  Co1  1  0.50000000  0.74877400  0.50000000  1
  Co  Co2  1  0.50000000  0.25122600  0.00000000  1
  Co  Co3  1  0.50000000  0.25122600  0.50000000  1
  Co  Co4  1  0.06770700  0.24785400  0.75000000  1
  Co  Co5  1  0.93229300  0.24785400  0.25000000  1
  Co  Co6  1  0.93229300  0.75214600  0.25000000  1
  Co  Co7  1  0.06770700  0.75214600  0.75000000  1
  Sn  Sn0  1  0.55118600  0.00000000  0.75000000  1
  Sn  Sn1  1  0.44881400  0.00000000  0.25000000  1
  Sn  Sn2  1  0.00000000  0.50000000  0.00000000  1
  Sn  Sn3  1  0.00000000  0.50000000  0.50000000  1
loop_
_geom_bond_atom_site_label_1
_geom_bond_atom_site_label_2
_geom_bond_distance
_geom_bond_site_symmetry_2
Nb0 Sn2 2.963520 1_545
Nb0 Sn2 2.963520 1_555
Nb0 Sn0 2.987863 1_454
Nb0 Sn1 2.987863 1_555
Nb1 Sn3 2.963520 1_545
Nb1 Sn3 2.963520 1_555
Nb1 Sn0 2.987863 1_455
Nb1 Sn1 2.987863 1_555
Nb2 Sn0 2.964292 1_555
Nb2 Sn0 2.964292 1_565
Nb2 Sn3 3.033834 1_655
Nb2 Sn2 3.033834 1_656
Nb3 Sn1 2.964292 1_555
Nb3 Sn1 2.964292 1_565
Nb3 Sn2 3.033834 1_555
Nb3 Sn3 3.033834 1_555
Co0 Nb2 2.660551 1_554
Co0 Nb3 2.660551 1_555
Co0 Sn0 2.673588 1_564
Co0 Sn1 2.673588 1_565
Co0 Sn2 2.683189 1_555
Co0 Sn2 2.683189 1_655
Co0 Nb0 2.691203 1_665
Co0 Nb0 2.691203 1_565
Co1 Nb2 2.660551 1_555
Co1 Nb3 2.660551 1_555
Co1 Sn1 2.673588 1_565
Co1 Sn0 2.673588 1_565
Co1 Sn3 2.683189 1_555
Co1 Sn3 2.683189 1_655
Co1 Nb1 2.691203 1_565
Co1 Nb1 2.691203 1_665
Co2 Nb3 2.660551 1_555
Co2 Nb2 2.660551 1_554
Co2 Sn0 2.673588 1_554
Co2 Sn1 2.673588 1_555
Co2 Sn2 2.683189 1_555
Co2 Sn2 2.683189 1_655
Co2 Nb0 2.691203 1_555
Co2 Nb0 2.691203 1_655
Co3 Nb3 2.660551 1_555
Co3 Nb2 2.660551 1_555
Co3 Sn1 2.673588 1_555
Co3 Sn0 2.673588 1_555
Co3 Sn3 2.683189 1_555
Co3 Sn3 2.683189 1_655
Co3 Nb1 2.691203 1_655
Co3 Nb1 2.691203 1_555
Co4 Nb2 2.577506 1_555
Co4 Sn0 2.618557 1_555
Co4 Nb0 2.669913 1_556
Co4 Nb1 2.669913 1_555
Co4 Sn3 2.683994 1_555
Co4 Sn2 2.683994 1_556
Co4 Sn0 2.742450 1_455
Co4 Nb2 2.813239 1_455
Co5 Nb3 2.577506 1_555
Co5 Sn1 2.618557 1_555
Co5 Nb1 2.669913 1_655
Co5 Nb0 2.669913 1_655
Co5 Sn2 2.683994 1_655
Co5 Sn3 2.683994 1_655
Co5 Sn1 2.742450 1_655
Co5 Nb3 2.813239 1_655
Co6 Nb3 2.577506 1_555
Co6 Sn1 2.618557 1_565
Co6 Nb0 2.669913 1_665
Co6 Nb1 2.669913 1_665
Co6 Sn2 2.683994 1_655
Co6 Sn3 2.683994 1_655
Co6 Sn1 2.742450 1_665
Co6 Nb3 2.813239 1_655
Co7 Nb2 2.577506 1_555
Co7 Sn0 2.618557 1_565
Co7 Nb1 2.669913 1_565
Co7 Nb0 2.669913 1_566
Co7 Sn3 2.683994 1_555
Co7 Sn2 2.683994 1_556
Co7 Sn0 2.742450 1_465
Co7 Nb2 2.813239 1_455
