# generated using pymatgen
data_V3BO5
_symmetry_space_group_name_H-M   'P 1'
_cell_length_a   3.11685000
_cell_length_b   9.58604200
_cell_length_c   12.71299200
_cell_angle_alpha   90.00000000
_cell_angle_beta   90.00000000
_cell_angle_gamma   90.00000000
_symmetry_Int_Tables_number   1
_chemical_formula_structural   V3BO5
_chemical_formula_sum   'V12 B4 O20'
_cell_volume   379.84201689
_cell_formula_units_Z   4
loop_
 _symmetry_equiv_pos_site_id
 _symmetry_equiv_pos_as_xyz
  1  'x, y, z'
loop_
 _atom_site_type_symbol
 _atom_site_label
 _atom_site_symmetry_multiplicity
 _atom_site_fract_x
 _atom_site_fract_y
 _atom_site_fract_z
 _atom_site_occupancy
  V  V0  1  0.50000000  0.00409800  0.22083800  1
  V  V1  1  0.50000000  0.99590200  0.77916200  1
  V  V2  1  0.50000000  0.49590200  0.72083800  1
  V  V3  1  0.50000000  0.50409800  0.27916200  1
  V  V4  1  0.50000000  0.00000000  0.50000000  1
  V  V5  1  0.50000000  0.50000000  0.00000000  1
  V  V6  1  0.00000000  0.24370700  0.38763400  1
  V  V7  1  0.00000000  0.75629300  0.61236600  1
  V  V8  1  0.00000000  0.25629300  0.88763400  1
  V  V9  1  0.00000000  0.74370700  0.11236600  1
  V  V10  1  0.00000000  0.00000000  0.00000000  1
  V  V11  1  0.00000000  0.50000000  0.50000000  1
  B  B0  1  0.00000000  0.27497700  0.14027200  1
  B  B1  1  0.00000000  0.72502300  0.85972800  1
  B  B2  1  0.00000000  0.22502300  0.64027200  1
  B  B3  1  0.00000000  0.77497700  0.35972800  1
  O  O0  1  0.00000000  0.34709300  0.04489700  1
  O  O1  1  0.00000000  0.65290700  0.95510300  1
  O  O2  1  0.00000000  0.15290700  0.54489700  1
  O  O3  1  0.00000000  0.84709300  0.45510300  1
  O  O4  1  0.00000000  0.12966800  0.14139900  1
  O  O5  1  0.00000000  0.87033200  0.85860100  1
  O  O6  1  0.00000000  0.37033200  0.64139900  1
  O  O7  1  0.00000000  0.62966800  0.35860100  1
  O  O8  1  0.50000000  0.11556500  0.36070100  1
  O  O9  1  0.50000000  0.88443500  0.63929900  1
  O  O10  1  0.50000000  0.38443500  0.86070100  1
  O  O11  1  0.50000000  0.61556500  0.13929900  1
  O  O12  1  0.00000000  0.34798600  0.23540600  1
  O  O13  1  0.00000000  0.65201400  0.76459400  1
  O  O14  1  0.00000000  0.15201400  0.73540600  1
  O  O15  1  0.00000000  0.84798600  0.26459400  1
  O  O16  1  0.50000000  0.38682700  0.42205300  1
  O  O17  1  0.50000000  0.61317300  0.57794700  1
  O  O18  1  0.50000000  0.11317300  0.92205300  1
  O  O19  1  0.50000000  0.88682700  0.07794700  1
loop_
_geom_bond_atom_site_label_1
_geom_bond_atom_site_label_2
_geom_bond_distance
_geom_bond_site_symmetry_2
B0 O4 1.393012 1_555
B0 O0 1.395731 1_555
B0 O12 1.397338 1_555
B1 O5 1.393012 1_555
B1 O1 1.395731 1_555
B1 O13 1.397338 1_555
B2 O6 1.393012 1_555
B2 O2 1.395731 1_555
B2 O14 1.397338 1_555
B3 O7 1.393012 1_555
B3 O3 1.395731 1_555
B3 O15 1.397338 1_555
O0 V8 2.180539 1_554
O0 V5 2.214264 1_555
O0 V5 2.214264 1_455
O1 V9 2.180539 1_556
O1 V5 2.214264 1_556
O1 V5 2.214264 1_456
O2 V6 2.180539 1_555
O2 V4 2.214264 1_455
O2 V4 2.214264 1_555
O3 V7 2.180539 1_555
O3 V4 2.214264 1_465
O3 V4 2.214264 1_565
O4 V10 2.185506 1_555
O4 V0 2.213039 1_555
O4 V0 2.213039 1_455
O5 V10 2.185506 1_566
O5 V1 2.213039 1_555
O5 V1 2.213039 1_455
O6 V11 2.185506 1_555
O6 V2 2.213039 1_455
O6 V2 2.213039 1_555
O7 V11 2.185506 1_555
O7 V3 2.213039 1_555
O7 V3 2.213039 1_455
O8 V6 2.013661 1_555
O8 V6 2.013661 1_655
O8 V0 2.074442 1_555
O8 V4 2.088865 1_555
O9 V7 2.013661 1_655
O9 V7 2.013661 1_555
O9 V1 2.074442 1_555
O9 V4 2.088865 1_565
O10 V8 2.013661 1_655
O10 V8 2.013661 1_555
O10 V2 2.074442 1_555
O10 V5 2.088865 1_556
O11 V9 2.013661 1_555
O11 V9 2.013661 1_655
O11 V3 2.074442 1_555
O11 V5 2.088865 1_555
O12 V6 2.178194 1_555
O12 V3 2.231059 1_555
O12 V3 2.231059 1_455
O13 V7 2.178194 1_555
O13 V2 2.231059 1_555
O13 V2 2.231059 1_455
O14 V8 2.178194 1_555
O14 V1 2.231059 1_445
O14 V1 2.231059 1_545
O15 V9 2.178194 1_555
O15 V0 2.231059 1_465
O15 V0 2.231059 1_565
O16 V6 2.121889 1_655
O16 V6 2.121889 1_555
O16 V3 2.136277 1_555
O16 V11 2.141872 1_655
O16 V11 2.141872 1_555
O17 V7 2.121889 1_555
O17 V7 2.121889 1_655
O17 V2 2.136277 1_555
O17 V11 2.141872 1_555
O17 V11 2.141872 1_655
O18 V8 2.121889 1_655
O18 V8 2.121889 1_555
O18 V1 2.136277 1_545
O18 V10 2.141872 1_556
O18 V10 2.141872 1_656
O19 V9 2.121889 1_555
O19 V9 2.121889 1_655
O19 V0 2.136277 1_565
O19 V10 2.141872 1_565
O19 V10 2.141872 1_665
