# generated using pymatgen
data_Ta3WS8
_symmetry_space_group_name_H-M   'P 1'
_cell_length_a   13.11589484
_cell_length_b   13.11597460
_cell_length_c   13.11578517
_cell_angle_alpha   165.51692115
_cell_angle_beta   154.75249338
_cell_angle_gamma   29.22627020
_symmetry_Int_Tables_number   1
_chemical_formula_structural   Ta3WS8
_chemical_formula_sum   'Ta3 W1 S8'
_cell_volume   240.58556071
_cell_formula_units_Z   1
loop_
 _symmetry_equiv_pos_site_id
 _symmetry_equiv_pos_as_xyz
  1  'x, y, z'
loop_
 _atom_site_type_symbol
 _atom_site_label
 _atom_site_symmetry_multiplicity
 _atom_site_fract_x
 _atom_site_fract_y
 _atom_site_fract_z
 _atom_site_occupancy
  Ta  Ta0  1  0.00512615  0.99994009  0.00517459  1
  Ta  Ta1  1  0.75010915  0.75015117  -0.00002985  1
  Ta  Ta2  1  0.24992560  0.24997122  -0.00002441  1
  W  W0  1  0.49716707  0.49994623  0.99721273  1
  S  S0  1  0.23182205  0.56078861  0.67094318  1
  S  S1  1  0.72226921  0.05958854  0.66259687  1
  S  S2  1  0.52206333  0.18857394  0.33353182  1
  S  S3  1  0.02136793  0.68849100  0.33295003  1
  S  S4  1  0.64455780  0.31164420  0.33287209  1
  S  S5  1  0.14506949  0.81156597  0.33349804  1
  S  S6  1  0.11004054  0.43906419  0.67101831  1
  S  S7  1  0.60291570  0.94027584  0.66268561  1
loop_
_geom_bond_atom_site_label_1
_geom_bond_atom_site_label_2
_geom_bond_distance
_geom_bond_site_symmetry_2
S0 W0 2.426100 1_555
S0 Ta0 2.454709 1_545
S0 Ta0 2.454739 1_556
S1 W0 2.434662 1_544
S1 W0 2.434688 1_555
S1 Ta0 2.480198 1_646
S2 Ta2 2.466971 1_555
S2 Ta1 2.467411 1_545
S2 Ta1 2.467490 1_556
S3 Ta2 2.467378 1_555
S3 Ta2 2.467409 1_566
S3 Ta1 2.468868 1_455
S4 Ta1 2.467629 1_545
S4 Ta1 2.467634 1_556
S4 Ta2 2.469045 1_555
S5 Ta1 2.467235 1_455
S5 Ta2 2.467674 1_566
S5 Ta2 2.467729 1_555
S6 W0 2.426493 1_555
S6 Ta0 2.454950 1_556
S6 Ta0 2.454956 1_545
S7 W0 2.434970 1_565
S7 W0 2.434979 1_554
S7 Ta0 2.480269 1_656
