# generated using pymatgen
data_LiFePCO7
_symmetry_space_group_name_H-M   'P 1'
_cell_length_a   8.40320675
_cell_length_b   5.17599801
_cell_length_c   19.25164547
_cell_angle_alpha   89.89607346
_cell_angle_beta   90.34292320
_cell_angle_gamma   84.83332721
_symmetry_Int_Tables_number   1
_chemical_formula_structural   LiFePCO7
_chemical_formula_sum   'Li6 Fe6 P6 C6 O42'
_cell_volume   833.93050289
_cell_formula_units_Z   6
loop_
 _symmetry_equiv_pos_site_id
 _symmetry_equiv_pos_as_xyz
  1  'x, y, z'
loop_
 _atom_site_type_symbol
 _atom_site_label
 _atom_site_symmetry_multiplicity
 _atom_site_fract_x
 _atom_site_fract_y
 _atom_site_fract_z
 _atom_site_occupancy
  Li  Li0  1  0.11086000  0.77058600  0.41576500  1
  Li  Li1  1  0.11201900  0.76990600  0.75091200  1
  Li  Li2  1  0.73383500  0.74231400  0.99568900  1
  Li  Li3  1  0.89700300  0.23844200  0.91472700  1
  Li  Li4  1  0.89015700  0.22951700  0.24734200  1
  Li  Li5  1  0.88893200  0.22974400  0.58342100  1
  Fe  Fe0  1  0.33358300  0.80174500  0.91709500  1
  Fe  Fe1  1  0.33342100  0.80671900  0.24910500  1
  Fe  Fe2  1  0.33376400  0.80210400  0.58331000  1
  Fe  Fe3  1  0.66102600  0.20266700  0.08573600  1
  Fe  Fe4  1  0.66709100  0.19764900  0.75013000  1
  Fe  Fe5  1  0.66607700  0.19862800  0.41717700  1
  P  P0  1  0.42482000  0.72739000  0.75028000  1
  P  P1  1  0.41998900  0.72819600  0.08156800  1
  P  P2  1  0.42260200  0.72947600  0.41654800  1
  P  P3  1  0.57562300  0.27637200  0.25163200  1
  P  P4  1  0.57670100  0.27116600  0.58363300  1
  P  P5  1  0.57906600  0.26868900  0.91673500  1
  C  C0  1  0.04292100  0.70706400  0.24793600  1
  C  C1  1  0.04145700  0.70672300  0.58329900  1
  C  C2  1  0.03957000  0.71202200  0.92023200  1
  C  C3  1  0.95434000  0.29106300  0.08001600  1
  C  C4  1  0.95890200  0.29335200  0.41706100  1
  C  C5  1  0.95959000  0.29316700  0.74994600  1
  O  O0  1  0.07040300  0.94856100  0.25018300  1
  O  O1  1  0.06926800  0.94850500  0.58306200  1
  O  O2  1  0.06782500  0.95245800  0.91562900  1
  O  O3  1  0.09810200  0.33993600  0.08336400  1
  O  O4  1  0.09380300  0.38147500  0.41629900  1
  O  O5  1  0.09464900  0.38121900  0.74985400  1
  O  O6  1  0.16858100  0.54139600  0.58320300  1
  O  O7  1  0.17011700  0.54280900  0.24670300  1
  O  O8  1  0.16524700  0.54460200  0.91728700  1
  O  O9  1  0.31041400  0.80504400  0.01892800  1
  O  O10  1  0.32405300  0.81291300  0.14623900  1
  O  O11  1  0.30908100  0.79613500  0.35387100  1
  O  O12  1  0.30998000  0.79666700  0.47894000  1
  O  O13  1  0.31368000  0.78983500  0.81360400  1
  O  O14  1  0.31026000  0.79865900  0.68824400  1
  O  O15  1  0.42621900  0.12788600  0.91319000  1
  O  O16  1  0.42548800  0.12888300  0.25295700  1
  O  O17  1  0.42620900  0.12322600  0.58322900  1
  O  O18  1  0.46968900  0.43171400  0.08131800  1
  O  O19  1  0.47820600  0.43645400  0.41680400  1
  O  O20  1  0.47899500  0.43430500  0.74962900  1
  O  O21  1  0.52204700  0.56970700  0.25262400  1
  O  O22  1  0.52159200  0.56433700  0.58391400  1
  O  O23  1  0.53433900  0.56565500  0.92447300  1
  O  O24  1  0.57923000  0.86221600  0.07603100  1
  O  O25  1  0.57524000  0.87543000  0.75088700  1
  O  O26  1  0.57320500  0.87763000  0.41683500  1
  O  O27  1  0.68414000  0.21217400  0.18764100  1
  O  O28  1  0.69250100  0.20615600  0.31285700  1
  O  O29  1  0.68958400  0.20467400  0.52132400  1
  O  O30  1  0.69020700  0.20254900  0.64621800  1
  O  O31  1  0.69247100  0.21110900  0.85421800  1
  O  O32  1  0.69078600  0.17394200  0.97879400  1
  O  O33  1  0.83820300  0.47475500  0.07376000  1
  O  O34  1  0.83277300  0.45905900  0.75012300  1
  O  O35  1  0.83203800  0.45902900  0.41744900  1
  O  O36  1  0.90220100  0.62905800  0.92649300  1
  O  O37  1  0.90810700  0.61871100  0.24831700  1
  O  O38  1  0.90650200  0.61881800  0.58369100  1
  O  O39  1  0.91015800  0.05848500  0.08421900  1
  O  O40  1  0.93187100  0.05141700  0.75007500  1
  O  O41  1  0.93114900  0.05173200  0.41756100  1
loop_
_geom_bond_atom_site_label_1
_geom_bond_atom_site_label_2
_geom_bond_distance
_geom_bond_site_symmetry_2
Li0 O41 2.001098 1_465
Li0 O4 2.031978 1_555
Li0 O11 2.067534 1_555
Li0 O12 2.077040 1_555
Li1 O40 2.004345 1_465
Li1 O5 2.030329 1_555
Li1 O14 2.078665 1_555
Li1 O13 2.084808 1_555
Li2 O36 1.998987 1_555
Li2 O24 2.085107 1_556
Li2 O33 2.168869 1_556
Li2 O32 2.253504 1_565
Li2 O23 2.404011 1_555
Li3 O2 1.966948 1_645
Li3 O36 2.039228 1_555
Li3 O31 2.086011 1_555
Li3 O32 2.182635 1_555
Li4 O0 2.003479 1_645
Li4 O37 2.033719 1_555
Li4 O27 2.081023 1_555
Li4 O28 2.103535 1_555
Li5 O1 2.004590 1_645
Li5 O38 2.032482 1_555
Li5 O29 2.065889 1_555
Li5 O30 2.082284 1_555
Fe0 O15 1.923079 1_565
Fe0 O9 1.971209 1_556
Fe0 O23 1.996152 1_555
Fe0 O13 1.999908 1_555
Fe0 O8 2.027714 1_555
Fe0 O2 2.298262 1_555
Fe1 O16 1.901785 1_565
Fe1 O21 1.915772 1_555
Fe1 O10 1.981519 1_555
Fe1 O7 2.021959 1_555
Fe1 O11 2.029618 1_555
Fe1 O0 2.265558 1_555
Fe2 O17 1.897023 1_565
Fe2 O22 1.912016 1_555
Fe2 O12 2.018517 1_555
Fe2 O6 2.021141 1_555
Fe2 O14 2.031163 1_555
Fe2 O1 2.282712 1_555
Fe3 O18 1.911178 1_555
Fe3 O24 1.957146 1_545
Fe3 O27 1.971413 1_555
Fe3 O32 2.079403 1_554
Fe3 O33 2.152628 1_555
Fe3 O39 2.158701 1_555
Fe4 O25 1.899848 1_545
Fe4 O20 1.910481 1_555
Fe4 O30 2.011377 1_555
Fe4 O31 2.015907 1_555
Fe4 O34 2.026929 1_555
Fe4 O40 2.284784 1_555
Fe5 O26 1.898197 1_545
Fe5 O19 1.912472 1_555
Fe5 O29 2.014107 1_555
Fe5 O28 2.022580 1_555
Fe5 O35 2.024869 1_555
Fe5 O41 2.287896 1_555
C0 O37 1.259358 1_455
C0 O0 1.292185 1_555
C0 O7 1.304812 1_555
C1 O38 1.259437 1_455
C1 O1 1.293625 1_555
C1 O6 1.307220 1_555
C2 O36 1.273652 1_455
C2 O2 1.290763 1_555
C2 O8 1.305964 1_555
C3 O3 1.257667 1_655
C3 O39 1.293864 1_555
C3 O33 1.304603 1_555
C4 O4 1.259610 1_655
C4 O41 1.292694 1_555
C4 O35 1.306674 1_555
C5 O5 1.260540 1_655
C5 O40 1.293251 1_555
C5 O34 1.306982 1_555
O9 P1 1.542501 1_555
O10 P1 1.530555 1_555
O11 P2 1.552561 1_555
O12 P2 1.554091 1_555
O13 P0 1.556783 1_555
O14 P0 1.552365 1_555
O15 P5 1.534021 1_555
O16 P3 1.532608 1_555
O17 P4 1.536222 1_555
O18 P1 1.553716 1_555
O19 P2 1.546279 1_555
O20 P0 1.544173 1_555
O21 P3 1.544470 1_555
O22 P4 1.546170 1_555
O23 P5 1.556781 1_555
O24 P1 1.565820 1_555
O25 P0 1.536003 1_555
O26 P2 1.537665 1_555
O27 P3 1.555627 1_555
O28 P3 1.551224 1_555
O29 P4 1.553542 1_555
O30 P4 1.552829 1_555
O31 P5 1.552221 1_555
O32 P5 1.565498 1_555
