# generated using pymatgen
data_Zr5(ZnSi)4
_symmetry_space_group_name_H-M   'P 1'
_cell_length_a   7.90413707
_cell_length_b   7.90413707
_cell_length_c   7.90413707
_cell_angle_alpha   93.37751291
_cell_angle_beta   93.37751291
_cell_angle_gamma   151.90534818
_symmetry_Int_Tables_number   1
_chemical_formula_structural   Zr5(ZnSi)4
_chemical_formula_sum   'Zr5 Zn4 Si4'
_cell_volume   225.59727130
_cell_formula_units_Z   1
loop_
 _symmetry_equiv_pos_site_id
 _symmetry_equiv_pos_as_xyz
  1  'x, y, z'
loop_
 _atom_site_type_symbol
 _atom_site_label
 _atom_site_symmetry_multiplicity
 _atom_site_fract_x
 _atom_site_fract_y
 _atom_site_fract_z
 _atom_site_occupancy
  Zr  Zr0  1  0.37059700  0.29881500  0.66941200  1
  Zr  Zr1  1  0.62940300  0.70118500  0.33058800  1
  Zr  Zr2  1  0.70118500  0.37059700  0.07178200  1
  Zr  Zr3  1  0.29881500  0.62940300  0.92821800  1
  Zr  Zr4  1  0.00000000  0.00000000  0.00000000  1
  Zn  Zn0  1  0.10475200  0.41444800  0.51920100  1
  Zn  Zn1  1  0.89524800  0.58555200  0.48079900  1
  Zn  Zn2  1  0.58555200  0.10475200  0.69030400  1
  Zn  Zn3  1  0.41444800  0.89524800  0.30969600  1
  Si  Si0  1  0.24349700  0.05946700  0.30296300  1
  Si  Si1  1  0.75650300  0.94053300  0.69703700  1
  Si  Si2  1  0.94053300  0.24349700  0.18403000  1
  Si  Si3  1  0.05946700  0.75650300  0.81597000  1
loop_
_geom_bond_atom_site_label_1
_geom_bond_atom_site_label_2
_geom_bond_distance
_geom_bond_site_symmetry_2
Zn0 Zn2 2.825350 1_455
Zn0 Zn2 2.825353 1_565
Zn0 Zn3 2.825358 1_445
Zn0 Zn3 2.825360 1_555
Zn0 Zn1 2.933231 1_455
Zn0 Zr1 3.016666 1_445
Zn0 Zr1 3.016669 1_555
Zn0 Zr3 3.140336 1_555
Zn0 Zr0 3.143680 1_555
Zn1 Zn3 2.825350 1_655
Zn1 Zn3 2.825353 1_545
Zn1 Zn2 2.825358 1_665
Zn1 Zn2 2.825360 1_555
Zn1 Zr0 3.016666 1_665
Zn1 Zr0 3.016669 1_555
Zn1 Zr2 3.140336 1_555
Zn1 Zr1 3.143680 1_555
Zn2 Zn3 2.933230 1_545
Zn2 Zr3 3.016664 1_545
Zn2 Zr3 3.016664 1_655
Zn2 Zr0 3.140344 1_555
Zn2 Zr2 3.143683 1_556
Zn3 Zr2 3.016664 1_455
Zn3 Zr2 3.016664 1_565
Zn3 Zr1 3.140344 1_555
Zn3 Zr3 3.143683 1_554
Si0 Zn1 2.543347 1_445
Si0 Zn1 2.543347 1_555
Si0 Zn3 2.570524 1_545
Si0 Zr4 2.718044 1_555
Si0 Zr1 2.751923 1_555
Si0 Zr1 2.751926 1_445
Si0 Zr2 2.843559 1_555
Si0 Zr2 2.843562 1_445
Si0 Zr0 2.938711 1_555
Si1 Zn0 2.543347 1_665
Si1 Zn0 2.543347 1_555
Si1 Zn2 2.570524 1_565
Si1 Zr4 2.718044 1_666
Si1 Zr0 2.751923 1_555
Si1 Zr0 2.751926 1_665
Si1 Zr3 2.843559 1_555
Si1 Zr3 2.843562 1_665
Si1 Zr1 2.938711 1_555
Si2 Zn3 2.543347 1_545
Si2 Zn3 2.543347 1_655
Si2 Zn0 2.570532 1_655
Si2 Zr4 2.718051 1_655
Si2 Zr3 2.751924 1_544
Si2 Zr3 2.751924 1_654
Si2 Zr1 2.843565 1_655
Si2 Zr1 2.843565 1_545
Si2 Zr2 2.938704 1_555
Si3 Zn2 2.543347 1_565
Si3 Zn2 2.543347 1_455
Si3 Zn1 2.570532 1_455
Si3 Zr4 2.718051 1_566
Si3 Zr2 2.751924 1_566
Si3 Zr2 2.751924 1_456
Si3 Zr0 2.843565 1_455
Si3 Zr0 2.843565 1_565
Si3 Zr3 2.938704 1_555
