# generated using pymatgen
data_Er3Ge13Rh4
_symmetry_space_group_name_H-M   'P 1'
_cell_length_a   9.02628300
_cell_length_b   9.02628300
_cell_length_c   9.02628300
_cell_angle_alpha   90.00000000
_cell_angle_beta   90.00000000
_cell_angle_gamma   90.00000000
_symmetry_Int_Tables_number   1
_chemical_formula_structural   Er3Ge13Rh4
_chemical_formula_sum   'Er6 Ge26 Rh8'
_cell_volume   735.40543865
_cell_formula_units_Z   2
loop_
 _symmetry_equiv_pos_site_id
 _symmetry_equiv_pos_as_xyz
  1  'x, y, z'
loop_
 _atom_site_type_symbol
 _atom_site_label
 _atom_site_symmetry_multiplicity
 _atom_site_fract_x
 _atom_site_fract_y
 _atom_site_fract_z
 _atom_site_occupancy
  Er  Er0  1  0.00000000  0.50000000  0.75000000  1
  Er  Er1  1  0.50000000  0.25000000  0.00000000  1
  Er  Er2  1  0.75000000  0.00000000  0.50000000  1
  Er  Er3  1  0.00000000  0.50000000  0.25000000  1
  Er  Er4  1  0.50000000  0.75000000  0.00000000  1
  Er  Er5  1  0.25000000  0.00000000  0.50000000  1
  Ge  Ge0  1  0.50000000  0.50000000  0.50000000  1
  Ge  Ge1  1  0.00000000  0.00000000  0.00000000  1
  Ge  Ge2  1  0.81025200  0.35313700  0.50000000  1
  Ge  Ge3  1  0.64686300  0.50000000  0.81025200  1
  Ge  Ge4  1  0.50000000  0.18974800  0.64686300  1
  Ge  Ge5  1  0.18974800  0.64686300  0.50000000  1
  Ge  Ge6  1  0.35313700  0.50000000  0.18974800  1
  Ge  Ge7  1  0.50000000  0.81025200  0.35313700  1
  Ge  Ge8  1  0.81025200  0.64686300  0.50000000  1
  Ge  Ge9  1  0.64686300  0.50000000  0.18974800  1
  Ge  Ge10  1  0.18974800  0.35313700  0.50000000  1
  Ge  Ge11  1  0.35313700  0.50000000  0.81025200  1
  Ge  Ge12  1  0.50000000  0.81025200  0.64686300  1
  Ge  Ge13  1  0.50000000  0.18974800  0.35313700  1
  Ge  Ge14  1  0.31025200  0.00000000  0.85313700  1
  Ge  Ge15  1  0.14686300  0.31025200  0.00000000  1
  Ge  Ge16  1  0.00000000  0.14686300  0.68974800  1
  Ge  Ge17  1  0.68974800  0.00000000  0.14686300  1
  Ge  Ge18  1  0.85313700  0.68974800  0.00000000  1
  Ge  Ge19  1  0.00000000  0.85313700  0.31025200  1
  Ge  Ge20  1  0.31025200  0.00000000  0.14686300  1
  Ge  Ge21  1  0.14686300  0.68974800  0.00000000  1
  Ge  Ge22  1  0.68974800  0.00000000  0.85313700  1
  Ge  Ge23  1  0.85313700  0.31025200  0.00000000  1
  Ge  Ge24  1  0.00000000  0.14686300  0.31025200  1
  Ge  Ge25  1  0.00000000  0.85313700  0.68974800  1
  Rh  Rh0  1  0.75000000  0.25000000  0.75000000  1
  Rh  Rh1  1  0.25000000  0.75000000  0.25000000  1
  Rh  Rh2  1  0.75000000  0.75000000  0.25000000  1
  Rh  Rh3  1  0.25000000  0.25000000  0.75000000  1
  Rh  Rh4  1  0.25000000  0.75000000  0.75000000  1
  Rh  Rh5  1  0.75000000  0.25000000  0.25000000  1
  Rh  Rh6  1  0.25000000  0.25000000  0.25000000  1
  Rh  Rh7  1  0.75000000  0.75000000  0.75000000  1
loop_
_geom_bond_atom_site_label_1
_geom_bond_atom_site_label_2
_geom_bond_distance
_geom_bond_site_symmetry_2
Er0 Ge23 3.127748 1_456
Er0 Ge10 3.127748 1_555
Er0 Ge18 3.127748 1_456
Er0 Ge8 3.127748 1_455
Er0 Ge5 3.127748 1_555
Er0 Ge15 3.127748 1_556
Er0 Ge2 3.127748 1_455
Er0 Ge21 3.127748 1_556
Er0 Rh0 3.191273 1_455
Er0 Rh4 3.191273 1_555
Er0 Rh3 3.191273 1_555
Er0 Rh7 3.191273 1_455
Er0 Ge11 3.233577 1_555
Er0 Ge25 3.233577 1_555
Er0 Ge3 3.233577 1_455
Er0 Ge16 3.233577 1_555
Er1 Ge3 3.127748 1_554
Er1 Ge9 3.127748 1_555
Er1 Ge6 3.127748 1_555
Er1 Ge11 3.127748 1_554
Er1 Ge22 3.127748 1_554
Er1 Ge14 3.127748 1_554
Er1 Ge20 3.127748 1_555
Er1 Ge17 3.127748 1_555
Er1 Rh0 3.191273 1_554
Er1 Rh6 3.191273 1_555
Er1 Rh3 3.191273 1_554
Er1 Rh5 3.191273 1_555
Er1 Ge15 3.233577 1_555
Er1 Ge4 3.233577 1_554
Er1 Ge13 3.233577 1_555
Er1 Ge23 3.233577 1_555
Er2 Ge13 3.127748 1_555
Er2 Ge25 3.127748 1_645
Er2 Ge4 3.127748 1_555
Er2 Ge19 3.127748 1_645
Er2 Ge7 3.127748 1_545
Er2 Ge16 3.127748 1_655
Er2 Ge24 3.127748 1_655
Er2 Ge12 3.127748 1_545
Er2 Rh0 3.191273 1_555
Er2 Rh2 3.191273 1_545
Er2 Rh5 3.191273 1_555
Er2 Rh7 3.191273 1_545
Er2 Ge2 3.233577 1_555
Er2 Ge17 3.233577 1_555
Er2 Ge22 3.233577 1_555
Er2 Ge8 3.233577 1_545
Er3 Ge23 3.127748 1_455
Er3 Ge10 3.127748 1_555
Er3 Ge18 3.127748 1_455
Er3 Ge8 3.127748 1_455
Er3 Ge5 3.127748 1_555
Er3 Ge15 3.127748 1_555
Er3 Ge21 3.127748 1_555
Er3 Ge2 3.127748 1_455
Er3 Rh6 3.191273 1_555
Er3 Rh1 3.191273 1_555
Er3 Rh5 3.191273 1_455
Er3 Rh2 3.191273 1_455
Er3 Ge6 3.233577 1_555
Er3 Ge9 3.233577 1_455
Er3 Ge24 3.233577 1_555
Er3 Ge19 3.233577 1_555
Er4 Ge3 3.127748 1_554
Er4 Ge9 3.127748 1_555
Er4 Ge6 3.127748 1_555
Er4 Ge11 3.127748 1_554
Er4 Ge17 3.127748 1_565
Er4 Ge20 3.127748 1_565
Er4 Ge22 3.127748 1_564
Er4 Ge14 3.127748 1_564
Er4 Rh4 3.191273 1_554
Er4 Rh7 3.191273 1_554
Er4 Rh1 3.191273 1_555
Er4 Rh2 3.191273 1_555
Er4 Ge7 3.233577 1_555
Er4 Ge12 3.233577 1_554
Er4 Ge18 3.233577 1_555
Er4 Ge21 3.233577 1_555
Er5 Ge25 3.127748 1_545
Er5 Ge13 3.127748 1_555
Er5 Ge19 3.127748 1_545
Er5 Ge4 3.127748 1_555
Er5 Ge7 3.127748 1_545
Er5 Ge16 3.127748 1_555
Er5 Ge24 3.127748 1_555
Er5 Ge12 3.127748 1_545
Er5 Rh1 3.191273 1_545
Er5 Rh6 3.191273 1_555
Er5 Rh3 3.191273 1_555
Er5 Rh4 3.191273 1_545
Er5 Ge14 3.233577 1_555
Er5 Ge20 3.233577 1_555
Er5 Ge5 3.233577 1_545
Er5 Ge10 3.233577 1_555
Ge0 Ge8 3.098331 1_555
Ge0 Ge7 3.098331 1_555
Ge0 Ge13 3.098331 1_555
Ge0 Ge12 3.098331 1_555
Ge0 Ge2 3.098331 1_555
Ge0 Ge6 3.098331 1_555
Ge0 Ge10 3.098331 1_555
Ge0 Ge4 3.098331 1_555
Ge0 Ge11 3.098331 1_555
Ge0 Ge9 3.098331 1_555
Ge0 Ge5 3.098331 1_555
Ge0 Ge3 3.098331 1_555
Ge1 Ge15 3.098331 1_555
Ge1 Ge16 3.098331 1_554
Ge1 Ge23 3.098331 1_455
Ge1 Ge21 3.098331 1_545
Ge1 Ge17 3.098331 1_455
Ge1 Ge14 3.098331 1_554
Ge1 Ge18 3.098331 1_445
Ge1 Ge19 3.098331 1_545
Ge1 Ge22 3.098331 1_454
Ge1 Ge20 3.098331 1_555
Ge1 Ge25 3.098331 1_544
Ge1 Ge24 3.098331 1_555
Ge2 Rh0 2.500908 1_555
Ge2 Rh5 2.500908 1_555
Ge3 Rh7 2.500908 1_555
Ge3 Rh0 2.500908 1_555
Ge4 Rh3 2.500908 1_555
Ge4 Rh0 2.500908 1_555
Ge5 Rh4 2.500908 1_555
Ge5 Rh1 2.500908 1_555
Ge6 Rh6 2.500908 1_555
Ge6 Rh1 2.500908 1_555
Ge7 Rh2 2.500908 1_555
Ge7 Rh1 2.500908 1_555
Ge8 Rh2 2.500908 1_555
Ge8 Rh7 2.500908 1_555
Ge9 Rh5 2.500908 1_555
Ge9 Rh2 2.500908 1_555
Ge10 Rh6 2.500908 1_555
Ge10 Rh3 2.500908 1_555
Ge11 Rh4 2.500908 1_555
Ge11 Rh3 2.500908 1_555
Ge12 Rh7 2.500908 1_555
Ge12 Rh4 2.500908 1_555
Ge13 Rh6 2.500908 1_555
Ge13 Rh5 2.500908 1_555
Ge14 Rh4 2.500908 1_545
Ge14 Rh3 2.500908 1_555
Ge15 Rh6 2.500908 1_555
Ge15 Rh3 2.500908 1_554
Ge16 Rh0 2.500908 1_455
Ge16 Rh3 2.500908 1_555
Ge17 Rh2 2.500908 1_545
Ge17 Rh5 2.500908 1_555
Ge18 Rh7 2.500908 1_554
Ge18 Rh2 2.500908 1_555
Ge19 Rh1 2.500908 1_555
Ge19 Rh2 2.500908 1_455
Ge20 Rh1 2.500908 1_545
Ge20 Rh6 2.500908 1_555
Ge21 Rh4 2.500908 1_554
Ge21 Rh1 2.500908 1_555
Ge22 Rh7 2.500908 1_545
Ge22 Rh0 2.500908 1_555
Ge23 Rh5 2.500908 1_555
Ge23 Rh0 2.500908 1_554
Ge24 Rh6 2.500908 1_555
Ge24 Rh5 2.500908 1_455
Ge25 Rh7 2.500908 1_455
Ge25 Rh4 2.500908 1_555
