# generated using pymatgen
data_Li3Mn2(SiO4)2
_symmetry_space_group_name_H-M   'P 1'
_cell_length_a   5.27679347
_cell_length_b   5.27488447
_cell_length_c   6.57755311
_cell_angle_alpha   89.13992722
_cell_angle_beta   89.10133917
_cell_angle_gamma   86.78230351
_symmetry_Int_Tables_number   1
_chemical_formula_structural   Li3Mn2(SiO4)2
_chemical_formula_sum   'Li3 Mn2 Si2 O8'
_cell_volume   182.75331593
_cell_formula_units_Z   1
loop_
 _symmetry_equiv_pos_site_id
 _symmetry_equiv_pos_as_xyz
  1  'x, y, z'
loop_
 _atom_site_type_symbol
 _atom_site_label
 _atom_site_symmetry_multiplicity
 _atom_site_fract_x
 _atom_site_fract_y
 _atom_site_fract_z
 _atom_site_occupancy
  Li  Li0  1  0.18964300  0.19436600  0.75198200  1
  Li  Li1  1  0.68706300  0.31288300  0.00003800  1
  Li  Li2  1  0.80574500  0.81044000  0.24794400  1
  Mn  Mn0  1  0.19163500  0.17286900  0.26366000  1
  Mn  Mn1  1  0.82706600  0.80837800  0.73638700  1
  Si  Si0  1  0.32290900  0.67717200  0.99993200  1
  Si  Si1  1  0.66930200  0.33072100  0.49997900  1
  O  O0  1  0.18333600  0.80973800  0.19891800  1
  O  O1  1  0.19048000  0.81663900  0.80137300  1
  O  O2  1  0.29182000  0.36545100  0.00517100  1
  O  O3  1  0.36532100  0.27972000  0.50583400  1
  O  O4  1  0.63442800  0.70807500  0.99492800  1
  O  O5  1  0.72015000  0.63459400  0.49403800  1
  O  O6  1  0.79773300  0.19927300  0.29081600  1
  O  O7  1  0.80066900  0.20238300  0.70899900  1
loop_
_geom_bond_atom_site_label_1
_geom_bond_atom_site_label_2
_geom_bond_distance
_geom_bond_site_symmetry_2
Li0 O3 1.913449 1_555
Li0 O2 2.001616 1_556
Li0 O1 2.013730 1_545
Li0 O7 2.074300 1_455
Li1 O6 2.078360 1_555
Li1 O7 2.078948 1_554
Li1 O4 2.087340 1_554
Li1 O2 2.088294 1_555
Li2 O5 1.914049 1_555
Li2 O4 2.001849 1_554
Li2 O0 2.013204 1_655
Li2 O6 2.072526 1_565
Mn0 O3 1.955956 1_555
Mn0 O0 1.971495 1_545
Mn0 O2 2.045099 1_555
Mn0 O6 2.080440 1_455
Mn1 O5 1.956984 1_555
Mn1 O1 1.974256 1_655
Mn1 O4 2.045555 1_555
Mn1 O7 2.080472 1_565
O0 Si0 1.638260 1_554
O1 Si0 1.636254 1_555
O2 Si0 1.661385 1_554
O3 Si1 1.641040 1_555
O4 Si0 1.660731 1_555
O5 Si1 1.639775 1_555
O6 Si1 1.667172 1_555
O7 Si1 1.666813 1_555
