# generated using pymatgen
data_LiTb(SO4)2
_symmetry_space_group_name_H-M   'P 1'
_cell_length_a   7.58928100
_cell_length_b   7.58928100
_cell_length_c   5.95066900
_cell_angle_alpha   90.00000000
_cell_angle_beta   90.00000000
_cell_angle_gamma   90.00000000
_symmetry_Int_Tables_number   1
_chemical_formula_structural   LiTb(SO4)2
_chemical_formula_sum   'Li2 Tb2 S4 O16'
_cell_volume   342.74178979
_cell_formula_units_Z   2
loop_
 _symmetry_equiv_pos_site_id
 _symmetry_equiv_pos_as_xyz
  1  'x, y, z'
loop_
 _atom_site_type_symbol
 _atom_site_label
 _atom_site_symmetry_multiplicity
 _atom_site_fract_x
 _atom_site_fract_y
 _atom_site_fract_z
 _atom_site_occupancy
  Li  Li0  1  0.00000000  0.50000000  0.75000000  1
  Li  Li1  1  0.50000000  0.00000000  0.25000000  1
  Tb  Tb0  1  0.00000000  0.50000000  0.25000000  1
  Tb  Tb1  1  0.50000000  0.00000000  0.75000000  1
  S  S0  1  0.22297600  0.27702400  0.75000000  1
  S  S1  1  0.77702400  0.72297600  0.75000000  1
  S  S2  1  0.72297600  0.22297600  0.25000000  1
  S  S3  1  0.27702400  0.77702400  0.25000000  1
  O  O0  1  0.18446200  0.41165700  0.93139100  1
  O  O1  1  0.81553800  0.58834300  0.93139100  1
  O  O2  1  0.68446200  0.08834300  0.43139100  1
  O  O3  1  0.31553800  0.91165700  0.43139100  1
  O  O4  1  0.58834300  0.18446200  0.06860900  1
  O  O5  1  0.41165700  0.81553800  0.06860900  1
  O  O6  1  0.08834300  0.31553800  0.56860900  1
  O  O7  1  0.91165700  0.68446200  0.56860900  1
  O  O8  1  0.20838000  0.09640500  0.84273500  1
  O  O9  1  0.79162000  0.90359500  0.84273500  1
  O  O10  1  0.70838000  0.40359500  0.34273500  1
  O  O11  1  0.29162000  0.59640500  0.34273500  1
  O  O12  1  0.09640500  0.79162000  0.15726500  1
  O  O13  1  0.90359500  0.20838000  0.15726500  1
  O  O14  1  0.59640500  0.70838000  0.65726500  1
  O  O15  1  0.40359500  0.29162000  0.65726500  1
loop_
_geom_bond_atom_site_label_1
_geom_bond_atom_site_label_2
_geom_bond_distance
_geom_bond_site_symmetry_2
Li0 O0 1.890617 1_555
Li0 O1 1.890617 1_455
Li0 O6 1.890617 1_555
Li0 O7 1.890617 1_455
Li1 O2 1.890617 1_555
Li1 O3 1.890617 1_545
Li1 O4 1.890617 1_555
Li1 O5 1.890617 1_545
O0 S0 1.514775 1_555
O0 Tb0 2.450287 1_556
O1 S1 1.514775 1_555
O1 Tb0 2.450287 1_656
O2 S2 1.514775 1_555
O2 Tb1 2.450287 1_555
O3 S3 1.514775 1_555
O3 Tb1 2.450287 1_565
O4 S2 1.514775 1_555
O4 Tb1 2.450287 1_554
O5 S3 1.514775 1_555
O5 Tb1 2.450287 1_564
O6 S0 1.514775 1_555
O6 Tb0 2.450287 1_555
O7 S1 1.514775 1_555
O7 Tb0 2.450287 1_655
O8 S0 1.481823 1_555
O8 Tb1 2.395416 1_555
O9 S1 1.481823 1_555
O9 Tb1 2.395416 1_565
O10 S2 1.481823 1_555
O10 Tb0 2.395416 1_655
O11 S3 1.481823 1_555
O11 Tb0 2.395416 1_555
O12 S3 1.481823 1_555
O12 Tb0 2.395416 1_555
O13 S2 1.481823 1_555
O13 Tb0 2.395416 1_655
O14 S1 1.481823 1_555
O14 Tb1 2.395416 1_565
O15 S0 1.481823 1_555
O15 Tb1 2.395416 1_555
