# generated using pymatgen
data_Ga3Au
_symmetry_space_group_name_H-M   'P 1'
_cell_length_a   6.29655647
_cell_length_b   6.29655647
_cell_length_c   4.29058700
_cell_angle_alpha   90.00000000
_cell_angle_beta   90.00000000
_cell_angle_gamma   120.00000498
_symmetry_Int_Tables_number   1
_chemical_formula_structural   Ga3Au
_chemical_formula_sum   'Ga6 Au2'
_cell_volume   147.31722460
_cell_formula_units_Z   2
loop_
 _symmetry_equiv_pos_site_id
 _symmetry_equiv_pos_as_xyz
  1  'x, y, z'
loop_
 _atom_site_type_symbol
 _atom_site_label
 _atom_site_symmetry_multiplicity
 _atom_site_fract_x
 _atom_site_fract_y
 _atom_site_fract_z
 _atom_site_occupancy
  Ga  Ga0  1  0.16714000  0.33428000  0.25000000  1
  Ga  Ga1  1  0.66572000  0.83286000  0.25000000  1
  Ga  Ga2  1  0.16714000  0.83286000  0.25000000  1
  Ga  Ga3  1  0.83286000  0.66572000  0.75000000  1
  Ga  Ga4  1  0.33428000  0.16714000  0.75000000  1
  Ga  Ga5  1  0.83286000  0.16714000  0.75000000  1
  Au  Au0  1  0.33333300  0.66666700  0.75000000  1
  Au  Au1  1  0.66666700  0.33333300  0.25000000  1
loop_
_geom_bond_atom_site_label_1
_geom_bond_atom_site_label_2
_geom_bond_distance
_geom_bond_site_symmetry_2
Ga0 Ga5 2.815131 1_455
Ga0 Ga5 2.815131 1_454
Ga0 Ga4 2.815131 1_555
Ga0 Ga4 2.815131 1_554
Ga0 Ga1 3.139337 1_555
Ga0 Ga2 3.139337 1_555
Ga0 Ga1 3.157219 1_445
Ga0 Ga2 3.157219 1_545
Ga1 Ga5 2.815131 1_565
Ga1 Ga5 2.815131 1_564
Ga1 Ga3 2.815131 1_555
Ga1 Ga3 2.815131 1_554
Ga1 Ga2 3.139337 1_555
Ga1 Ga2 3.157219 1_655
Ga2 Ga3 2.815131 1_454
Ga2 Ga3 2.815131 1_455
Ga2 Ga4 2.815131 1_564
Ga2 Ga4 2.815131 1_565
Ga3 Ga4 3.139337 1_555
Ga3 Ga5 3.139337 1_555
Ga3 Ga4 3.157219 1_665
Ga3 Ga5 3.157219 1_565
Ga4 Ga5 3.139337 1_555
Ga4 Ga5 3.157219 1_455
Au0 Ga2 2.808455 1_556
Au0 Ga2 2.808455 1_555
Au0 Ga0 2.808458 1_555
Au0 Ga0 2.808458 1_556
Au0 Ga1 2.808458 1_556
Au0 Ga1 2.808458 1_555
Au0 Ga3 3.148279 1_455
Au0 Ga4 3.148279 1_565
Au0 Ga5 3.148282 1_455
Au0 Ga5 3.148282 1_565
Au0 Ga3 3.148286 1_555
Au0 Ga4 3.148286 1_555
Au1 Ga5 2.808455 1_555
Au1 Ga5 2.808455 1_554
Au1 Ga4 2.808458 1_554
Au1 Ga4 2.808458 1_555
Au1 Ga3 2.808458 1_554
Au1 Ga3 2.808458 1_555
Au1 Ga1 3.148279 1_545
Au1 Ga0 3.148279 1_655
Au1 Ga2 3.148282 1_545
Au1 Ga2 3.148282 1_655
Au1 Ga1 3.148286 1_555
Au1 Ga0 3.148286 1_555
