# generated using pymatgen
data_Mn7Fe3
_symmetry_space_group_name_H-M   'P 1'
_cell_length_a   6.06906800
_cell_length_b   6.04862500
_cell_length_c   6.04993767
_cell_angle_alpha   89.81171716
_cell_angle_beta   90.00000000
_cell_angle_gamma   90.00000000
_symmetry_Int_Tables_number   1
_chemical_formula_structural   Mn7Fe3
_chemical_formula_sum   'Mn14 Fe6'
_cell_volume   222.08908701
_cell_formula_units_Z   2
loop_
 _symmetry_equiv_pos_site_id
 _symmetry_equiv_pos_as_xyz
  1  'x, y, z'
loop_
 _atom_site_type_symbol
 _atom_site_label
 _atom_site_symmetry_multiplicity
 _atom_site_fract_x
 _atom_site_fract_y
 _atom_site_fract_z
 _atom_site_occupancy
  Mn  Mn0  1  0.37457400  0.94964900  0.54946600  1
  Mn  Mn1  1  0.87457400  0.05035100  0.45053400  1
  Mn  Mn2  1  0.12596100  0.44901300  0.94756100  1
  Mn  Mn3  1  0.62596100  0.55098700  0.05243900  1
  Mn  Mn4  1  0.80158900  0.37385100  0.69877300  1
  Mn  Mn5  1  0.69969300  0.87407600  0.79691600  1
  Mn  Mn6  1  0.19969300  0.12592400  0.20308400  1
  Mn  Mn7  1  0.30158900  0.62614900  0.30122700  1
  Mn  Mn8  1  0.94820000  0.79780900  0.12669600  1
  Mn  Mn9  1  0.05111600  0.69908800  0.62201700  1
  Mn  Mn10  1  0.44820000  0.20219100  0.87330400  1
  Mn  Mn11  1  0.55111600  0.30091200  0.37798300  1
  Mn  Mn12  1  0.30939300  0.80646000  0.94234600  1
  Mn  Mn13  1  0.80939300  0.19354000  0.05765400  1
  Fe  Fe0  1  0.19073500  0.30647300  0.55902300  1
  Fe  Fe1  1  0.69073500  0.69352700  0.44097700  1
  Fe  Fe2  1  0.93957900  0.44083000  0.30431300  1
  Fe  Fe3  1  0.55916000  0.94272900  0.19111800  1
  Fe  Fe4  1  0.43957900  0.55917000  0.69568700  1
  Fe  Fe5  1  0.05916000  0.05727100  0.80888200  1
loop_
_geom_bond_atom_site_label_1
_geom_bond_atom_site_label_2
_geom_bond_distance
_geom_bond_site_symmetry_2
Mn0 Mn7 2.509942 1_555
Mn0 Mn9 2.517716 1_555
Mn0 Mn5 2.517743 1_555
Mn0 Mn10 2.528073 1_565
Mn0 Mn12 2.557877 1_555
Mn0 Mn6 2.576846 1_565
Mn0 Mn11 2.593069 1_565
Mn1 Mn4 2.509942 1_555
Mn1 Mn11 2.517716 1_555
Mn1 Mn6 2.517743 1_655
Mn1 Mn8 2.528073 1_545
Mn1 Mn13 2.557877 1_555
Mn1 Mn5 2.576846 1_545
Mn1 Mn9 2.593069 1_645
Mn2 Mn4 2.520355 1_455
Mn2 Mn9 2.520666 1_555
Mn2 Mn6 2.527698 1_556
Mn2 Mn8 2.608533 1_456
Mn2 Mn7 2.622461 1_556
Mn3 Mn8 2.501961 1_555
Mn3 Mn7 2.520355 1_555
Mn3 Mn5 2.527698 1_554
Mn3 Mn4 2.622461 1_554
Mn4 Mn9 2.524490 1_655
Mn5 Mn8 2.542058 1_556
Mn5 Mn9 2.606945 1_655
Mn6 Mn8 2.547174 1_445
Mn7 Mn9 2.505521 1_555
Mn7 Mn8 2.604942 1_455
Mn10 Mn13 2.459997 1_556
Mn10 Mn2 2.501961 1_555
Mn10 Mn6 2.542058 1_556
Mn10 Mn5 2.547174 1_545
Mn10 Mn12 2.570417 1_545
Mn10 Mn4 2.604942 1_555
Mn10 Mn3 2.608533 1_556
Mn11 Mn4 2.505521 1_555
Mn11 Mn3 2.520666 1_555
Mn11 Mn7 2.524490 1_555
Mn11 Mn13 2.577373 1_555
Mn11 Mn6 2.606945 1_555
Mn12 Mn7 2.426995 1_556
Mn12 Mn2 2.431957 1_555
Mn12 Mn8 2.459997 1_456
Mn12 Mn3 2.552643 1_556
Mn12 Mn5 2.559304 1_555
Mn12 Mn9 2.577373 1_555
Mn12 Mn6 2.585631 1_566
Mn13 Mn4 2.426995 1_554
Mn13 Mn3 2.431957 1_555
Mn13 Mn2 2.552643 1_654
Mn13 Mn6 2.559304 1_655
Mn13 Mn8 2.570417 1_545
Mn13 Mn5 2.585631 1_544
Fe0 Fe5 2.275908 1_555
Fe0 Fe4 2.304126 1_555
Fe0 Fe2 2.313064 1_455
Fe0 Mn6 2.418306 1_555
Fe0 Mn0 2.430485 1_545
Fe0 Mn11 2.446376 1_555
Fe0 Mn2 2.537058 1_555
Fe0 Mn10 2.539067 1_555
Fe0 Mn4 2.541864 1_455
Fe0 Mn9 2.551233 1_555
Fe0 Mn1 2.553284 1_455
Fe0 Mn7 2.569850 1_555
Fe1 Fe3 2.275908 1_555
Fe1 Fe2 2.304126 1_555
Fe1 Fe4 2.313064 1_555
Fe1 Mn5 2.418306 1_555
Fe1 Mn1 2.430485 1_565
Fe1 Mn9 2.446376 1_655
Fe1 Mn3 2.537058 1_555
Fe1 Mn8 2.539067 1_555
Fe1 Mn7 2.541864 1_555
Fe1 Mn11 2.551233 1_555
Fe1 Mn0 2.553284 1_555
Fe1 Mn4 2.569850 1_555
Fe2 Mn13 2.259010 1_555
Fe2 Mn8 2.409248 1_555
Fe2 Mn2 2.437142 1_654
Fe2 Mn7 2.466530 1_655
Fe2 Mn3 2.526287 1_555
Fe2 Mn11 2.543763 1_555
Fe2 Mn1 2.550072 1_555
Fe2 Mn6 2.550086 1_655
Fe2 Mn4 2.560140 1_555
Fe2 Mn9 2.571491 1_655
Fe3 Mn12 2.291403 1_554
Fe3 Mn13 2.291679 1_565
Fe3 Mn0 2.440798 1_555
Fe3 Mn11 2.447518 1_565
Fe3 Mn6 2.448083 1_565
Fe3 Mn3 2.548702 1_555
Fe3 Mn8 2.548992 1_555
Fe3 Mn7 2.558468 1_555
Fe3 Mn1 2.560873 1_565
Fe3 Mn10 2.567807 1_564
Fe3 Mn5 2.567904 1_554
Fe4 Mn12 2.259010 1_555
Fe4 Mn10 2.409248 1_555
Fe4 Mn3 2.437142 1_556
Fe4 Mn4 2.466530 1_555
Fe4 Mn2 2.526287 1_555
Fe4 Mn9 2.543763 1_555
Fe4 Mn0 2.550072 1_555
Fe4 Mn5 2.550086 1_555
Fe4 Mn7 2.560140 1_555
Fe4 Mn11 2.571491 1_555
Fe5 Mn13 2.291403 1_456
Fe5 Mn12 2.291679 1_545
Fe5 Mn1 2.440798 1_455
Fe5 Mn9 2.447518 1_545
Fe5 Mn5 2.448083 1_445
Fe5 Mn2 2.548702 1_555
Fe5 Mn10 2.548992 1_555
Fe5 Mn4 2.558468 1_455
Fe5 Mn0 2.560873 1_545
Fe5 Mn8 2.567807 1_446
Fe5 Mn6 2.567904 1_556
