# generated using pymatgen
data_Tm2MgSe4
_symmetry_space_group_name_H-M   'P 1'
_cell_length_a   7.48065881
_cell_length_b   7.48065881
_cell_length_c   7.48065881
_cell_angle_alpha   110.39021483
_cell_angle_beta   110.39021483
_cell_angle_gamma   107.64846491
_symmetry_Int_Tables_number   1
_chemical_formula_structural   Tm2MgSe4
_chemical_formula_sum   'Tm4 Mg2 Se8'
_cell_volume   322.00985836
_cell_formula_units_Z   2
loop_
 _symmetry_equiv_pos_site_id
 _symmetry_equiv_pos_as_xyz
  1  'x, y, z'
loop_
 _atom_site_type_symbol
 _atom_site_label
 _atom_site_symmetry_multiplicity
 _atom_site_fract_x
 _atom_site_fract_y
 _atom_site_fract_z
 _atom_site_occupancy
  Tm  Tm0  1  0.87500000  0.75691600  0.38191600  1
  Tm  Tm1  1  0.50691600  0.12500000  0.88191600  1
  Tm  Tm2  1  0.37500000  0.49308400  0.61808400  1
  Tm  Tm3  1  0.24308400  0.62500000  0.11808400  1
  Mg  Mg0  1  0.00000000  0.00000000  0.00000000  1
  Mg  Mg1  1  0.75000000  0.25000000  0.50000000  1
  Se  Se0  1  0.50937900  0.37936100  0.25987000  1
  Se  Se1  1  0.75049100  0.49062100  0.86998200  1
  Se  Se2  1  0.11949100  0.24950900  0.74013000  1
  Se  Se3  1  0.62063900  0.88050900  0.13001800  1
  Se  Se4  1  0.24062100  0.00049100  0.36998200  1
  Se  Se5  1  0.99950900  0.36949100  0.24013000  1
  Se  Se6  1  0.63050900  0.87063900  0.63001800  1
  Se  Se7  1  0.12936100  0.75937900  0.75987000  1
loop_
_geom_bond_atom_site_label_1
_geom_bond_atom_site_label_2
_geom_bond_distance
_geom_bond_site_symmetry_2
Mg0 Se5 2.723536 1_455
Mg0 Se6 2.723536 1_444
Mg0 Se4 2.723536 1_555
Mg0 Se7 2.723536 1_544
Mg0 Se2 3.284744 1_554
Mg0 Se1 3.284744 1_444
Mg0 Se0 3.284744 1_555
Mg0 Se3 3.284744 1_445
Mg1 Se1 2.723536 1_555
Mg1 Se3 2.723536 1_545
Mg1 Se0 2.723536 1_555
Mg1 Se2 2.723536 1_655
Mg1 Se7 3.284744 1_655
Mg1 Se5 3.284744 1_555
Mg1 Se4 3.284744 1_555
Mg1 Se6 3.284744 1_545
Se0 Tm1 2.794363 1_554
Se0 Tm0 2.840844 1_555
Se0 Tm2 3.118010 1_555
Se0 Tm3 3.251953 1_555
Se1 Tm2 2.794363 1_555
Se1 Tm1 2.840844 1_555
Se1 Tm3 3.118010 1_656
Se1 Tm0 3.251953 1_556
Se2 Tm3 2.794363 1_556
Se2 Tm2 2.840844 1_555
Se2 Tm0 3.118010 1_445
Se2 Tm1 3.251953 1_555
Se3 Tm0 2.794363 1_555
Se3 Tm3 2.840844 1_555
Se3 Tm1 3.118010 1_564
Se3 Tm2 3.251953 1_554
Se4 Tm3 2.794363 1_545
Se4 Tm0 2.840844 1_445
Se4 Tm2 3.118010 1_555
Se4 Tm1 3.251953 1_555
Se5 Tm2 2.794363 1_655
Se5 Tm3 2.840844 1_655
Se5 Tm1 3.118010 1_554
Se5 Tm0 3.251953 1_555
Se6 Tm1 2.794363 1_565
Se6 Tm2 2.840844 1_555
Se6 Tm0 3.118010 1_555
Se6 Tm3 3.251953 1_555
Se7 Tm0 2.794363 1_455
Se7 Tm1 2.840844 1_565
Se7 Tm3 3.118010 1_556
Se7 Tm2 3.251953 1_555
