# generated using pymatgen
data_Li3V5(PO4)6
_symmetry_space_group_name_H-M   'P 1'
_cell_length_a   15.85182623
_cell_length_b   15.85182623
_cell_length_c   10.87414160
_cell_angle_alpha   89.71686065
_cell_angle_beta   89.71686065
_cell_angle_gamma   156.49408311
_symmetry_Int_Tables_number   1
_chemical_formula_structural   Li3V5(PO4)6
_chemical_formula_sum   'Li6 V10 P12 O48'
_cell_volume   1089.50332058
_cell_formula_units_Z   2
loop_
 _symmetry_equiv_pos_site_id
 _symmetry_equiv_pos_as_xyz
  1  'x, y, z'
loop_
 _atom_site_type_symbol
 _atom_site_label
 _atom_site_symmetry_multiplicity
 _atom_site_fract_x
 _atom_site_fract_y
 _atom_site_fract_z
 _atom_site_occupancy
  Li  Li0  1  0.80192400  0.54161200  0.42500300  1
  Li  Li1  1  0.97072400  0.02927600  0.25000000  1
  Li  Li2  1  0.45838800  0.19807600  0.07499700  1
  Li  Li3  1  0.54161200  0.80192400  0.92500300  1
  Li  Li4  1  0.02927600  0.97072400  0.75000000  1
  Li  Li5  1  0.19807600  0.45838800  0.57499700  1
  V  V0  1  0.79446100  0.69362600  0.07630700  1
  V  V1  1  0.00000000  0.50000000  0.00000000  1
  V  V2  1  0.80761200  0.19238800  0.75000000  1
  V  V3  1  0.81204900  0.18795100  0.25000000  1
  V  V4  1  0.69362600  0.79446100  0.57630700  1
  V  V5  1  0.50000000  0.00000000  0.50000000  1
  V  V6  1  0.30637400  0.20553900  0.42369300  1
  V  V7  1  0.18795100  0.81204900  0.75000000  1
  V  V8  1  0.19238800  0.80761200  0.25000000  1
  V  V9  1  0.20553900  0.30637400  0.92369300  1
  P  P0  1  0.79487700  0.73570700  0.37443600  1
  P  P1  1  0.99126000  0.28717100  0.99755400  1
  P  P2  1  0.71877500  0.28122500  0.75000000  1
  P  P3  1  0.71942100  0.28057900  0.25000000  1
  P  P4  1  0.71282900  0.00874000  0.50244600  1
  P  P5  1  0.73570700  0.79487700  0.87443600  1
  P  P6  1  0.26429300  0.20512300  0.12556400  1
  P  P7  1  0.28717100  0.99126000  0.49755400  1
  P  P8  1  0.28057900  0.71942100  0.75000000  1
  P  P9  1  0.28122500  0.71877500  0.25000000  1
  P  P10  1  0.00874000  0.71282900  0.00244600  1
  P  P11  1  0.20512300  0.26429300  0.62556400  1
  O  O0  1  0.99791300  0.88285600  0.42260000  1
  O  O1  1  0.80310200  0.76276800  0.23276000  1
  O  O2  1  0.79479300  0.76016500  0.92513100  1
  O  O3  1  0.81985000  0.59949900  0.03509700  1
  O  O4  1  0.90478500  0.52976200  0.99958700  1
  O  O5  1  0.88375800  0.50051000  0.72258000  1
  O  O6  1  0.87414600  0.49456000  0.27499300  1
  O  O7  1  0.62004700  0.51152800  0.40682500  1
  O  O8  1  0.78875000  0.28333000  0.85725000  1
  O  O9  1  0.78955300  0.28338400  0.14204800  1
  O  O10  1  0.88646200  0.16837700  0.12212600  1
  O  O11  1  0.82226700  0.12646700  0.89539900  1
  O  O12  1  0.87353300  0.17773300  0.60460100  1
  O  O13  1  0.83162300  0.11353800  0.37787400  1
  O  O14  1  0.71667000  0.21125000  0.64275000  1
  O  O15  1  0.71661600  0.21044700  0.35795200  1
  O  O16  1  0.48847200  0.37995300  0.09317500  1
  O  O17  1  0.88285600  0.99791300  0.92260000  1
  O  O18  1  0.49949000  0.11624200  0.77742000  1
  O  O19  1  0.50544000  0.12585400  0.22500700  1
  O  O20  1  0.47023800  0.09521500  0.50041300  1
  O  O21  1  0.76276800  0.80310200  0.73276000  1
  O  O22  1  0.40050100  0.18015000  0.46490300  1
  O  O23  1  0.76016500  0.79479300  0.42513100  1
  O  O24  1  0.23983500  0.20520700  0.57486900  1
  O  O25  1  0.59949900  0.81985000  0.53509700  1
  O  O26  1  0.23723200  0.19689800  0.26724000  1
  O  O27  1  0.52976200  0.90478500  0.49958700  1
  O  O28  1  0.49456000  0.87414600  0.77499300  1
  O  O29  1  0.50051000  0.88375800  0.22258000  1
  O  O30  1  0.11714400  0.00208700  0.07740000  1
  O  O31  1  0.51152800  0.62004700  0.90682500  1
  O  O32  1  0.28338400  0.78955300  0.64204800  1
  O  O33  1  0.28333000  0.78875000  0.35725000  1
  O  O34  1  0.16837700  0.88646200  0.62212600  1
  O  O35  1  0.12646700  0.82226700  0.39539900  1
  O  O36  1  0.17773300  0.87353300  0.10460100  1
  O  O37  1  0.11353800  0.83162300  0.87787400  1
  O  O38  1  0.21044700  0.71661600  0.85795200  1
  O  O39  1  0.21125000  0.71667000  0.14275000  1
  O  O40  1  0.37995300  0.48847200  0.59317500  1
  O  O41  1  0.12585400  0.50544000  0.72500700  1
  O  O42  1  0.11624200  0.49949000  0.27742000  1
  O  O43  1  0.09521500  0.47023800  0.00041300  1
  O  O44  1  0.18015000  0.40050100  0.96490300  1
  O  O45  1  0.20520700  0.23983500  0.07486900  1
  O  O46  1  0.19689800  0.23723200  0.76724000  1
  O  O47  1  0.00208700  0.11714400  0.57740000  1
loop_
_geom_bond_atom_site_label_1
_geom_bond_atom_site_label_2
_geom_bond_distance
_geom_bond_site_symmetry_2
Li0 O35 2.087012 1_655
Li0 O7 2.462438 1_555
Li0 O6 2.467296 1_555
Li0 O22 2.566853 1_555
Li1 O1 2.089979 1_545
Li1 O26 2.089979 1_655
Li1 O23 2.386789 1_545
Li1 O45 2.386789 1_655
Li2 O36 2.087012 1_545
Li2 O16 2.462438 1_555
Li2 O19 2.467296 1_555
Li2 O3 2.566853 1_555
Li3 O11 2.087012 1_565
Li3 O31 2.462438 1_555
Li3 O28 2.467296 1_555
Li3 O44 2.566853 1_555
Li4 O21 2.089979 1_455
Li4 O46 2.089979 1_565
Li4 O2 2.386789 1_455
Li4 O24 2.386789 1_565
Li5 O12 2.087012 1_455
Li5 O40 2.462438 1_555
Li5 O41 2.467296 1_555
Li5 O25 2.566853 1_555
O0 P0 1.527685 1_555
O0 V6 2.050137 1_665
O1 P0 1.569516 1_555
O1 V0 1.964643 1_555
O2 P5 1.559245 1_555
O2 V0 1.946173 1_556
O3 P10 1.560968 1_655
O3 V0 1.922313 1_555
O4 P10 1.539056 1_656
O4 V1 1.951077 1_656
O5 P2 1.523369 1_555
O5 V7 2.020728 1_655
O6 P3 1.533815 1_555
O6 V8 2.051456 1_655
O7 P0 1.532467 1_555
O7 V6 2.008321 1_555
O8 P2 1.592777 1_555
O8 V2 2.081212 1_555
O8 V1 2.104720 1_656
O9 P3 1.584876 1_555
O9 V1 2.047740 1_655
O9 V3 2.183960 1_555
O10 P1 1.534902 1_554
O10 V3 2.020038 1_555
O11 P1 1.562432 1_555
O11 V2 2.019478 1_555
O12 P4 1.562432 1_555
O12 V2 2.019478 1_555
O13 P4 1.534902 1_555
O13 V3 2.020038 1_555
O14 P2 1.592777 1_555
O14 V2 2.081212 1_555
O14 V5 2.104720 1_555
O15 P3 1.584876 1_555
O15 V5 2.047740 1_555
O15 V3 2.183960 1_555
O16 P6 1.532467 1_555
O16 V0 2.008321 1_555
O17 P5 1.527685 1_555
O17 V9 2.050137 1_665
O18 P2 1.523369 1_555
O18 V7 2.020728 1_545
O19 P3 1.533815 1_555
O19 V8 2.051456 1_545
O20 P7 1.539056 1_545
O20 V5 1.951077 1_555
O21 P5 1.569516 1_555
O21 V4 1.964643 1_555
O22 P7 1.560968 1_545
O22 V6 1.922313 1_555
O23 P0 1.559245 1_555
O23 V4 1.946173 1_555
O24 P11 1.559245 1_555
O24 V6 1.946173 1_555
O25 P4 1.560968 1_565
O25 V4 1.922313 1_555
O26 P6 1.569516 1_555
O26 V6 1.964643 1_555
O27 P4 1.539056 1_565
O27 V5 1.951077 1_565
O28 P8 1.533815 1_555
O28 V2 2.051456 1_565
O29 P9 1.523369 1_555
O29 V3 2.020728 1_565
O30 P6 1.527685 1_555
O30 V0 2.050137 1_445
O31 P5 1.532467 1_555
O31 V9 2.008321 1_555
O32 P8 1.584876 1_555
O32 V5 2.047740 1_565
O32 V7 2.183960 1_555
O33 P9 1.592777 1_555
O33 V8 2.081212 1_555
O33 V5 2.104720 1_565
O34 P7 1.534902 1_555
O34 V7 2.020038 1_555
O35 P7 1.562432 1_555
O35 V8 2.019478 1_555
O36 P10 1.562432 1_555
O36 V8 2.019478 1_555
O37 P10 1.534902 1_556
O37 V7 2.020038 1_555
O38 P8 1.584876 1_555
O38 V1 2.047740 1_556
O38 V7 2.183960 1_555
O39 P9 1.592777 1_555
O39 V8 2.081212 1_555
O39 V1 2.104720 1_555
O40 P11 1.532467 1_555
O40 V4 2.008321 1_555
O41 P8 1.533815 1_555
O41 V2 2.051456 1_455
O42 P9 1.523369 1_555
O42 V3 2.020728 1_455
O43 P1 1.539056 1_454
O43 V1 1.951077 1_555
O44 P1 1.560968 1_455
O44 V9 1.922313 1_555
O45 P6 1.559245 1_555
O45 V9 1.946173 1_554
O46 P11 1.569516 1_555
O46 V9 1.964643 1_555
O47 P11 1.527685 1_555
O47 V4 2.050137 1_445
