# generated using pymatgen
data_SmSb2Pd
_symmetry_space_group_name_H-M   'P 1'
_cell_length_a   4.46881823
_cell_length_b   4.46881823
_cell_length_c   9.74715145
_cell_angle_alpha   90.00000000
_cell_angle_beta   90.00000000
_cell_angle_gamma   90.00000000
_symmetry_Int_Tables_number   1
_chemical_formula_structural   SmSb2Pd
_chemical_formula_sum   'Sm2 Sb4 Pd2'
_cell_volume   194.65389313
_cell_formula_units_Z   2
loop_
 _symmetry_equiv_pos_site_id
 _symmetry_equiv_pos_as_xyz
  1  'x, y, z'
loop_
 _atom_site_type_symbol
 _atom_site_label
 _atom_site_symmetry_multiplicity
 _atom_site_fract_x
 _atom_site_fract_y
 _atom_site_fract_z
 _atom_site_occupancy
  Sm  Sm0  1  0.00000000  0.50000000  0.74903460  1
  Sm  Sm1  1  0.50000000  0.00000000  0.25096540  1
  Sb  Sb0  1  0.50000000  0.50000000  0.00000000  1
  Sb  Sb1  1  -0.00000000  -0.00000000  0.00000000  1
  Sb  Sb2  1  0.00000000  0.50000000  0.34676708  1
  Sb  Sb3  1  0.50000000  -0.00000000  0.65323292  1
  Pd  Pd0  1  0.50000000  0.50000000  0.50000000  1
  Pd  Pd1  1  0.00000000  0.00000000  0.50000000  1
loop_
_geom_bond_atom_site_label_1
_geom_bond_atom_site_label_2
_geom_bond_distance
_geom_bond_site_symmetry_2
Sb0 Sb1 3.159932 1_555
Sb0 Sb1 3.159932 1_565
Sb0 Sb1 3.159932 1_655
Sb0 Sb1 3.159932 1_665
Sb0 Sm1 3.313075 1_565
Sb0 Sm0 3.313075 1_554
Sb0 Sm1 3.313075 1_555
Sb0 Sm0 3.313075 1_654
Sb1 Sm0 3.313075 1_544
Sb1 Sm0 3.313075 1_554
Sb1 Sm1 3.313075 1_555
Sb1 Sm1 3.313075 1_455
Sb2 Sm1 3.295017 1_565
Sb2 Sm1 3.295017 1_555
Sb2 Sm1 3.295017 1_455
Sb2 Sm1 3.295017 1_465
Sb3 Sm0 3.295017 1_655
Sb3 Sm0 3.295017 1_545
Sb3 Sm0 3.295017 1_645
Sb3 Sm0 3.295017 1_555
Pd0 Sb2 2.687634 1_655
Pd0 Sb3 2.687634 1_565
Pd0 Sb3 2.687634 1_555
Pd0 Sb2 2.687634 1_555
Pd0 Sm0 3.299204 1_555
Pd0 Sm0 3.299204 1_655
Pd0 Sm1 3.299204 1_565
Pd0 Sm1 3.299204 1_555
Pd1 Sb2 2.687634 1_545
Pd1 Sb3 2.687634 1_555
Pd1 Sb3 2.687634 1_455
Pd1 Sb2 2.687634 1_555
Pd1 Sm0 3.299204 1_555
Pd1 Sm0 3.299204 1_545
Pd1 Sm1 3.299204 1_555
Pd1 Sm1 3.299204 1_455
