# generated using pymatgen
data_PmSm3
_symmetry_space_group_name_H-M   'P 1'
_cell_length_a   7.40892295
_cell_length_b   7.40892295
_cell_length_c   5.80893632
_cell_angle_alpha   90.00000000
_cell_angle_beta   90.00000000
_cell_angle_gamma   120.00001262
_symmetry_Int_Tables_number   1
_chemical_formula_structural   PmSm3
_chemical_formula_sum   'Pm2 Sm6'
_cell_volume   276.14510487
_cell_formula_units_Z   2
loop_
 _symmetry_equiv_pos_site_id
 _symmetry_equiv_pos_as_xyz
  1  'x, y, z'
loop_
 _atom_site_type_symbol
 _atom_site_label
 _atom_site_symmetry_multiplicity
 _atom_site_fract_x
 _atom_site_fract_y
 _atom_site_fract_z
 _atom_site_occupancy
  Pm  Pm0  1  0.66666700  0.33333300  0.25000000  1
  Pm  Pm1  1  0.33333300  0.66666700  0.75000000  1
  Sm  Sm0  1  0.83346675  0.16653325  0.75000000  1
  Sm  Sm1  1  0.33306649  0.16653325  0.75000000  1
  Sm  Sm2  1  0.83346675  0.66693351  0.75000000  1
  Sm  Sm3  1  0.16653325  0.83346675  0.25000000  1
  Sm  Sm4  1  0.66693351  0.83346675  0.25000000  1
  Sm  Sm5  1  0.16653325  0.33306649  0.25000000  1
loop_
_geom_bond_atom_site_label_1
_geom_bond_atom_site_label_2
_geom_bond_distance
_geom_bond_site_symmetry_2
Pm0 Sm0 3.607990 1_555
Pm0 Sm0 3.607990 1_554
Pm0 Sm1 3.607993 1_555
Pm0 Sm2 3.607993 1_555
Pm0 Sm2 3.607993 1_554
Pm0 Sm1 3.607993 1_554
Pm0 Sm4 3.704458 1_545
Pm0 Sm5 3.704458 1_655
Pm0 Sm3 3.704461 1_545
Pm0 Sm3 3.704461 1_655
Pm0 Sm5 3.704466 1_555
Pm0 Sm4 3.704466 1_555
Pm1 Sm3 3.607990 1_556
Pm1 Sm3 3.607990 1_555
Pm1 Sm5 3.607993 1_556
Pm1 Sm4 3.607993 1_555
Pm1 Sm4 3.607993 1_556
Pm1 Sm5 3.607993 1_555
Pm1 Sm2 3.704458 1_455
Pm1 Sm1 3.704458 1_565
Pm1 Sm0 3.704461 1_455
Pm1 Sm0 3.704461 1_565
Pm1 Sm2 3.704466 1_555
Pm1 Sm1 3.704466 1_555
Sm0 Sm4 3.605962 1_546
Sm0 Sm4 3.605962 1_545
Sm0 Sm5 3.605962 1_656
Sm0 Sm5 3.605962 1_655
Sm0 Sm2 3.701496 1_545
Sm0 Sm1 3.701496 1_655
Sm0 Sm1 3.707427 1_555
Sm0 Sm2 3.707427 1_555
Sm1 Sm3 3.605962 1_545
Sm1 Sm3 3.605962 1_546
Sm1 Sm5 3.605962 1_556
Sm1 Sm5 3.605962 1_555
Sm1 Sm2 3.701495 1_445
Sm1 Sm2 3.707426 1_555
Sm2 Sm3 3.605962 1_656
Sm2 Sm3 3.605962 1_655
Sm2 Sm4 3.605962 1_555
Sm2 Sm4 3.605962 1_556
Sm3 Sm4 3.701496 1_455
Sm3 Sm5 3.701496 1_565
Sm3 Sm4 3.707427 1_555
Sm3 Sm5 3.707427 1_555
Sm4 Sm5 3.701495 1_665
Sm4 Sm5 3.707426 1_555
