# generated using pymatgen
data_La2HfSe5
_symmetry_space_group_name_H-M   'P 1'
_cell_length_a   7.75866555
_cell_length_b   8.55404092
_cell_length_c   12.02685201
_cell_angle_alpha   90.00000000
_cell_angle_beta   90.00000000
_cell_angle_gamma   90.00000000
_symmetry_Int_Tables_number   1
_chemical_formula_structural   La2HfSe5
_chemical_formula_sum   'La8 Hf4 Se20'
_cell_volume   798.19742385
_cell_formula_units_Z   4
loop_
 _symmetry_equiv_pos_site_id
 _symmetry_equiv_pos_as_xyz
  1  'x, y, z'
loop_
 _atom_site_type_symbol
 _atom_site_label
 _atom_site_symmetry_multiplicity
 _atom_site_fract_x
 _atom_site_fract_y
 _atom_site_fract_z
 _atom_site_occupancy
  La  La0  1  0.94239830  0.00000706  0.17199515  1
  La  La1  1  0.55760170  0.49999294  0.67199515  1
  La  La2  1  0.05760170  0.50000706  0.82800485  1
  La  La3  1  0.44239830  -0.00000706  0.32800485  1
  La  La4  1  0.05760170  -0.00000706  0.82800485  1
  La  La5  1  0.44239830  0.50000706  0.32800485  1
  La  La6  1  0.94239830  0.49999294  0.17199515  1
  La  La7  1  0.55760170  0.00000706  0.67199515  1
  Hf  Hf0  1  0.42712351  0.75000000  0.00865352  1
  Hf  Hf1  1  0.07287649  0.75000000  0.50865352  1
  Hf  Hf2  1  0.57287649  0.25000000  0.99134648  1
  Hf  Hf3  1  0.92712351  0.25000000  0.49134648  1
  Se  Se0  1  0.82385330  0.96502973  0.42693421  1
  Se  Se1  1  0.67614670  0.53497027  0.92693421  1
  Se  Se2  1  0.17614670  0.46502973  0.57306579  1
  Se  Se3  1  0.32385330  0.03497027  0.07306579  1
  Se  Se4  1  0.17614670  0.03497027  0.57306579  1
  Se  Se5  1  0.32385330  0.46502973  0.07306579  1
  Se  Se6  1  0.82385330  0.53497027  0.42693421  1
  Se  Se7  1  0.67614670  0.96502973  0.92693421  1
  Se  Se8  1  0.63954121  0.75000000  0.19000918  1
  Se  Se9  1  0.86045879  0.75000000  0.69000918  1
  Se  Se10  1  0.36045879  0.25000000  0.80999082  1
  Se  Se11  1  0.13954121  0.25000000  0.30999082  1
  Se  Se12  1  0.44145431  0.75000000  0.50576673  1
  Se  Se13  1  0.05854569  0.75000000  0.00576673  1
  Se  Se14  1  0.55854569  0.25000000  0.49423327  1
  Se  Se15  1  0.94145431  0.25000000  0.99423327  1
  Se  Se16  1  0.15831184  0.75000000  0.29303946  1
  Se  Se17  1  0.34168816  0.75000000  0.79303946  1
  Se  Se18  1  0.84168816  0.25000000  0.70696054  1
  Se  Se19  1  0.65831184  0.25000000  0.20696054  1
loop_
_geom_bond_atom_site_label_1
_geom_bond_atom_site_label_2
_geom_bond_distance
_geom_bond_site_symmetry_2
La0 Se15 3.023856 1_554
La0 Se13 3.063066 1_645
La0 Se16 3.082058 1_645
La0 Se19 3.099678 1_555
La0 Se11 3.109178 1_655
La0 Se8 3.184623 1_545
La0 Se3 3.203782 1_655
La0 Se0 3.215046 1_545
La0 Se7 3.611581 1_544
La1 Se14 3.023856 1_555
La1 Se12 3.063066 1_555
La1 Se17 3.082058 1_555
La1 Se18 3.099678 1_555
La1 Se10 3.109178 1_555
La1 Se9 3.184623 1_555
La1 Se2 3.203782 1_555
La1 Se1 3.215046 1_555
La1 Se6 3.611581 1_555
La2 Se13 3.023856 1_556
La2 Se15 3.063066 1_455
La2 Se18 3.082058 1_455
La2 Se17 3.099678 1_555
La2 Se9 3.109178 1_455
La2 Se10 3.184623 1_555
La2 Se1 3.203782 1_455
La2 Se2 3.215046 1_555
La2 Se5 3.611581 1_556
La3 Se12 3.023856 1_545
La3 Se14 3.063066 1_555
La3 Se19 3.082058 1_555
La3 Se16 3.099678 1_545
La3 Se8 3.109178 1_545
La3 Se11 3.184623 1_555
La3 Se0 3.203782 1_545
La3 Se3 3.215046 1_555
La3 Se4 3.611581 1_555
La4 Se13 3.023856 1_546
La4 Se15 3.063066 1_455
La4 Se18 3.082058 1_455
La4 Se17 3.099678 1_545
La4 Se9 3.109178 1_445
La4 Se10 3.184623 1_555
La4 Se7 3.203782 1_445
La4 Se4 3.215046 1_555
La4 Se3 3.611581 1_556
La5 Se12 3.023856 1_555
La5 Se14 3.063066 1_555
La5 Se19 3.082058 1_555
La5 Se16 3.099678 1_555
La5 Se8 3.109178 1_555
La5 Se11 3.184623 1_555
La5 Se6 3.203782 1_555
La5 Se5 3.215046 1_555
La5 Se2 3.611581 1_555
La6 Se15 3.023856 1_554
La6 Se13 3.063066 1_655
La6 Se16 3.082058 1_655
La6 Se19 3.099678 1_555
La6 Se11 3.109178 1_655
La6 Se8 3.184623 1_555
La6 Se5 3.203782 1_655
La6 Se6 3.215046 1_555
La6 Se1 3.611581 1_554
La7 Se14 3.023856 1_555
La7 Se12 3.063066 1_545
La7 Se17 3.082058 1_545
La7 Se18 3.099678 1_555
La7 Se10 3.109178 1_555
La7 Se9 3.184623 1_545
La7 Se4 3.203782 1_555
La7 Se7 3.215046 1_545
La7 Se0 3.611581 1_545
Hf0 Se17 2.676539 1_554
Hf0 Se5 2.680342 1_555
Hf0 Se3 2.680342 1_565
Hf0 Se8 2.733774 1_555
Hf0 Se1 2.842922 1_554
Hf0 Se7 2.842922 1_554
Hf0 Se13 2.859883 1_555
Hf1 Se16 2.676539 1_555
Hf1 Se2 2.680342 1_555
Hf1 Se4 2.680342 1_565
Hf1 Se9 2.733774 1_455
Hf1 Se0 2.842922 1_455
Hf1 Se6 2.842922 1_455
Hf1 Se12 2.859883 1_555
Hf2 Se19 2.676539 1_556
Hf2 Se1 2.680342 1_555
Hf2 Se7 2.680342 1_545
Hf2 Se10 2.733774 1_555
Hf2 Se5 2.842922 1_556
Hf2 Se3 2.842922 1_556
Hf2 Se15 2.859883 1_555
Hf3 Se18 2.676539 1_555
Hf3 Se6 2.680342 1_555
Hf3 Se0 2.680342 1_545
Hf3 Se11 2.733774 1_655
Hf3 Se2 2.842922 1_655
Hf3 Se4 2.842922 1_655
Hf3 Se14 2.859883 1_555
