# generated using pymatgen
data_CeH8(SO6)2
_symmetry_space_group_name_H-M   'P 1'
_cell_length_a   5.56705588
_cell_length_b   11.15393588
_cell_length_c   14.60935112
_cell_angle_alpha   90.00000000
_cell_angle_beta   90.00000000
_cell_angle_gamma   90.00000000
_symmetry_Int_Tables_number   1
_chemical_formula_structural   CeH8(SO6)2
_chemical_formula_sum   'Ce4 H32 S8 O48'
_cell_volume   907.16158507
_cell_formula_units_Z   4
loop_
 _symmetry_equiv_pos_site_id
 _symmetry_equiv_pos_as_xyz
  1  'x, y, z'
loop_
 _atom_site_type_symbol
 _atom_site_label
 _atom_site_symmetry_multiplicity
 _atom_site_fract_x
 _atom_site_fract_y
 _atom_site_fract_z
 _atom_site_occupancy
  Ce  Ce0  1  0.62536632  0.75000000  0.83089595  1
  Ce  Ce1  1  0.87463368  0.75000000  0.33089595  1
  Ce  Ce2  1  0.37463368  0.25000000  0.16910405  1
  Ce  Ce3  1  0.12536632  0.25000000  0.66910405  1
  H  H0  1  0.95881447  0.68022212  0.67360970  1
  H  H1  1  0.54118553  0.81977788  0.17360970  1
  H  H2  1  0.04118553  0.18022212  0.32639030  1
  H  H3  1  0.45881447  0.31977788  0.82639030  1
  H  H4  1  0.04118553  0.31977788  0.32639030  1
  H  H5  1  0.45881447  0.18022212  0.82639030  1
  H  H6  1  0.95881447  0.81977788  0.67360970  1
  H  H7  1  0.54118553  0.68022212  0.17360970  1
  H  H8  1  0.37210176  0.62398700  0.99296088  1
  H  H9  1  0.12789824  0.87601300  0.49296088  1
  H  H10  1  0.62789824  0.12398700  0.00703912  1
  H  H11  1  0.87210176  0.37601300  0.50703912  1
  H  H12  1  0.62789824  0.37601300  0.00703912  1
  H  H13  1  0.87210176  0.12398700  0.50703912  1
  H  H14  1  0.37210176  0.87601300  0.99296088  1
  H  H15  1  0.12789824  0.62398700  0.49296088  1
  H  H16  1  0.30086260  0.55165798  0.90512800  1
  H  H17  1  0.19913740  0.94834202  0.40512800  1
  H  H18  1  0.69913740  0.05165798  0.09487200  1
  H  H19  1  0.80086260  0.44834202  0.59487200  1
  H  H20  1  0.69913740  0.44834202  0.09487200  1
  H  H21  1  0.80086260  0.05165798  0.59487200  1
  H  H22  1  0.30086260  0.94834202  0.90512800  1
  H  H23  1  0.19913740  0.55165798  0.40512800  1
  H  H24  1  0.85246976  0.67914063  0.01491563  1
  H  H25  1  0.64753024  0.82085937  0.51491563  1
  H  H26  1  0.14753024  0.17914063  0.98508437  1
  H  H27  1  0.35246976  0.32085937  0.48508437  1
  H  H28  1  0.14753024  0.32085937  0.98508437  1
  H  H29  1  0.35246976  0.17914063  0.48508437  1
  H  H30  1  0.85246976  0.82085937  0.01491563  1
  H  H31  1  0.64753024  0.67914063  0.51491563  1
  S  S0  1  0.38323358  0.55469809  0.64928873  1
  S  S1  1  0.11676642  0.94530191  0.14928873  1
  S  S2  1  0.61676642  0.05469809  0.35071127  1
  S  S3  1  0.88323358  0.44530191  0.85071127  1
  S  S4  1  0.61676642  0.44530191  0.35071127  1
  S  S5  1  0.88323358  0.05469809  0.85071127  1
  S  S6  1  0.38323358  0.94530191  0.64928873  1
  S  S7  1  0.11676642  0.55469809  0.14928873  1
  O  O0  1  0.35634584  0.42478379  0.66790819  1
  O  O1  1  0.14365416  0.07521621  0.16790819  1
  O  O2  1  0.64365416  0.92478379  0.33209181  1
  O  O3  1  0.85634584  0.57521621  0.83209181  1
  O  O4  1  0.64365416  0.57521621  0.33209181  1
  O  O5  1  0.85634584  0.92478379  0.83209181  1
  O  O6  1  0.35634584  0.07521621  0.66790819  1
  O  O7  1  0.14365416  0.42478379  0.16790819  1
  O  O8  1  0.41399151  0.61651707  0.73864125  1
  O  O9  1  0.08600849  0.88348293  0.23864125  1
  O  O10  1  0.58600849  0.11651707  0.26135875  1
  O  O11  1  0.91399151  0.38348293  0.76135875  1
  O  O12  1  0.58600849  0.38348293  0.26135875  1
  O  O13  1  0.91399151  0.11651707  0.76135875  1
  O  O14  1  0.41399151  0.88348293  0.73864125  1
  O  O15  1  0.08600849  0.61651707  0.23864125  1
  O  O16  1  0.59723440  0.57053539  0.59231051  1
  O  O17  1  0.90276560  0.92946461  0.09231051  1
  O  O18  1  0.40276560  0.07053539  0.40768949  1
  O  O19  1  0.09723440  0.42946461  0.90768949  1
  O  O20  1  0.40276560  0.42946461  0.40768949  1
  O  O21  1  0.09723440  0.07053539  0.90768949  1
  O  O22  1  0.59723440  0.92946461  0.59231051  1
  O  O23  1  0.90276560  0.57053539  0.09231051  1
  O  O24  1  0.16735816  0.60265305  0.60549833  1
  O  O25  1  0.33264184  0.89734695  0.10549833  1
  O  O26  1  0.83264184  0.10265305  0.39450167  1
  O  O27  1  0.66735816  0.39734695  0.89450167  1
  O  O28  1  0.83264184  0.39734695  0.39450167  1
  O  O29  1  0.66735816  0.10265305  0.89450167  1
  O  O30  1  0.16735816  0.89734695  0.60549833  1
  O  O31  1  0.33264184  0.60265305  0.10549833  1
  O  O32  1  0.87687607  0.75000000  0.70030641  1
  O  O33  1  0.62312393  0.75000000  0.20030641  1
  O  O34  1  0.12312393  0.25000000  0.29969359  1
  O  O35  1  0.37687607  0.25000000  0.79969359  1
  O  O36  1  0.38909685  0.62295752  0.92570944  1
  O  O37  1  0.11090315  0.87704248  0.42570944  1
  O  O38  1  0.61090315  0.12295752  0.07429056  1
  O  O39  1  0.88909685  0.37704248  0.57429056  1
  O  O40  1  0.61090315  0.37704248  0.07429056  1
  O  O41  1  0.88909685  0.12295752  0.57429056  1
  O  O42  1  0.38909685  0.87704248  0.92570944  1
  O  O43  1  0.11090315  0.62295752  0.42570944  1
  O  O44  1  0.81612701  0.75000000  0.97680592  1
  O  O45  1  0.68387299  0.75000000  0.47680592  1
  O  O46  1  0.18387299  0.25000000  0.02319408  1
  O  O47  1  0.31612701  0.25000000  0.52319408  1
loop_
_geom_bond_atom_site_label_1
_geom_bond_atom_site_label_2
_geom_bond_distance
_geom_bond_site_symmetry_2
Ce0 O14 2.327644 1_555
Ce0 O8 2.327644 1_555
Ce0 O5 2.335474 1_555
Ce0 O3 2.335474 1_555
Ce0 O32 2.366492 1_555
Ce0 O36 2.378385 1_555
Ce0 O42 2.378385 1_555
Ce0 O44 2.381538 1_555
Ce1 O9 2.327644 1_655
Ce1 O15 2.327644 1_655
Ce1 O2 2.335474 1_555
Ce1 O4 2.335474 1_555
Ce1 O33 2.366492 1_555
Ce1 O43 2.378385 1_655
Ce1 O37 2.378385 1_655
Ce1 O45 2.381538 1_555
Ce2 O10 2.327644 1_555
Ce2 O12 2.327644 1_555
Ce2 O1 2.335474 1_555
Ce2 O7 2.335474 1_555
Ce2 O34 2.366492 1_555
Ce2 O40 2.378385 1_555
Ce2 O38 2.378385 1_555
Ce2 O46 2.381538 1_555
Ce3 O11 2.327644 1_455
Ce3 O13 2.327644 1_455
Ce3 O0 2.335474 1_555
Ce3 O6 2.335474 1_555
Ce3 O35 2.366492 1_555
Ce3 O41 2.378385 1_455
Ce3 O39 2.378385 1_455
Ce3 O47 2.381538 1_555
H0 O32 0.982824 1_555
H0 O24 1.756868 1_655
H1 O33 0.982824 1_555
H1 O25 1.756868 1_555
H2 O34 0.982824 1_555
H2 O26 1.756868 1_455
H3 O35 0.982824 1_555
H3 O27 1.756868 1_555
H4 O34 0.982824 1_555
H4 O28 1.756868 1_455
H5 O35 0.982824 1_555
H5 O29 1.756868 1_555
H6 O32 0.982824 1_555
H6 O30 1.756868 1_655
H7 O33 0.982824 1_555
H7 O31 1.756868 1_555
H8 O36 0.987112 1_555
H8 O31 1.675692 1_556
H9 O37 0.987112 1_555
H9 O30 1.675692 1_555
H10 O38 0.987112 1_555
H10 O29 1.675692 1_554
H11 O39 0.987112 1_555
H11 O28 1.675692 1_555
H12 O40 0.987112 1_555
H12 O27 1.675692 1_554
H13 O41 0.987112 1_555
H13 O26 1.675692 1_555
H14 O42 0.987112 1_555
H14 O25 1.675692 1_556
H15 O43 0.987112 1_555
H15 O24 1.675692 1_555
H16 O36 0.981910 1_555
H16 O19 1.773152 1_555
H17 O37 0.981910 1_555
H17 O18 1.773152 1_565
H18 O38 0.981910 1_555
H18 O17 1.773152 1_545
H19 O39 0.981910 1_555
H19 O16 1.773152 1_555
H20 O40 0.981910 1_555
H20 O23 1.773152 1_555
H21 O41 0.981910 1_555
H21 O22 1.773152 1_545
H22 O42 0.981910 1_555
H22 O21 1.773152 1_565
H23 O43 0.981910 1_555
H23 O20 1.773152 1_555
H24 O44 0.987717 1_554
H24 O23 1.680562 1_555
H25 O45 0.987717 1_555
H25 O22 1.680562 1_555
H26 O46 0.987717 1_556
H26 O21 1.680562 1_555
H27 O47 0.987717 1_555
H27 O20 1.680562 1_555
H28 O46 0.987717 1_556
H28 O19 1.680562 1_555
H29 O47 0.987717 1_555
H29 O18 1.680562 1_555
H30 O44 0.987717 1_554
H30 O17 1.680562 1_555
H31 O45 0.987717 1_555
H31 O16 1.680562 1_555
O0 S0 1.481945 1_555
O1 S1 1.481945 1_545
O2 S2 1.481945 1_565
O3 S3 1.481945 1_555
O4 S4 1.481945 1_555
O5 S5 1.481945 1_565
O6 S6 1.481945 1_545
O7 S7 1.481945 1_555
O8 S0 1.486199 1_555
O9 S1 1.486199 1_555
O10 S2 1.486199 1_555
O11 S3 1.486199 1_555
O12 S4 1.486199 1_555
O13 S5 1.486199 1_555
O14 S6 1.486199 1_555
O15 S7 1.486199 1_555
O16 S0 1.464051 1_555
O17 S1 1.464051 1_655
O18 S2 1.464051 1_555
O19 S3 1.464051 1_455
O20 S4 1.464051 1_555
O21 S5 1.464051 1_455
O22 S6 1.464051 1_555
O23 S7 1.464051 1_655
O24 S0 1.462766 1_555
O25 S1 1.462766 1_555
O26 S2 1.462766 1_555
O27 S3 1.462766 1_555
O28 S4 1.462766 1_555
O29 S5 1.462766 1_555
O30 S6 1.462766 1_555
O31 S7 1.462766 1_555
