# generated using pymatgen
data_K4Mn2S4O19
_symmetry_space_group_name_H-M   'P 1'
_cell_length_a   9.67793000
_cell_length_b   9.74011100
_cell_length_c   19.70081838
_cell_angle_alpha   71.79110168
_cell_angle_beta   90.00000000
_cell_angle_gamma   90.00000000
_symmetry_Int_Tables_number   1
_chemical_formula_structural   K4Mn2S4O19
_chemical_formula_sum   'K16 Mn8 S16 O76'
_cell_volume   1764.08414597
_cell_formula_units_Z   4
loop_
 _symmetry_equiv_pos_site_id
 _symmetry_equiv_pos_as_xyz
  1  'x, y, z'
loop_
 _atom_site_type_symbol
 _atom_site_label
 _atom_site_symmetry_multiplicity
 _atom_site_fract_x
 _atom_site_fract_y
 _atom_site_fract_z
 _atom_site_occupancy
  K  K0  1  0.79361400  0.60400300  0.55724300  1
  K  K1  1  0.70638600  0.60400300  0.05724300  1
  K  K2  1  0.20638600  0.39599700  0.44275700  1
  K  K3  1  0.29361400  0.39599700  0.94275700  1
  K  K4  1  0.97521400  0.93472400  0.76495400  1
  K  K5  1  0.52478600  0.93472400  0.26495400  1
  K  K6  1  0.02478600  0.06527600  0.23504600  1
  K  K7  1  0.47521400  0.06527600  0.73504600  1
  K  K8  1  0.25585100  0.93994400  0.93135300  1
  K  K9  1  0.24414900  0.93994400  0.43135300  1
  K  K10  1  0.74414900  0.06005600  0.06864700  1
  K  K11  1  0.75585100  0.06005600  0.56864700  1
  K  K12  1  0.08995200  0.25033700  0.62367600  1
  K  K13  1  0.41004800  0.25033700  0.12367600  1
  K  K14  1  0.91004800  0.74966300  0.37632400  1
  K  K15  1  0.58995200  0.74966300  0.87632400  1
  Mn  Mn0  1  0.49162100  0.53920200  0.23620500  1
  Mn  Mn1  1  0.00837900  0.53920200  0.73620500  1
  Mn  Mn2  1  0.50837900  0.46079800  0.76379500  1
  Mn  Mn3  1  0.99162100  0.46079800  0.26379500  1
  Mn  Mn4  1  0.05137800  0.75041900  0.11700900  1
  Mn  Mn5  1  0.44862200  0.75041900  0.61700900  1
  Mn  Mn6  1  0.94862200  0.24958100  0.88299100  1
  Mn  Mn7  1  0.55137800  0.24958100  0.38299100  1
  S  S0  1  0.87853000  0.88319900  0.94648300  1
  S  S1  1  0.62147000  0.88319900  0.44648300  1
  S  S2  1  0.12147000  0.11680100  0.05351700  1
  S  S3  1  0.37853000  0.11680100  0.55351700  1
  S  S4  1  0.21461500  0.25789400  0.78583100  1
  S  S5  1  0.28538500  0.25789400  0.28583100  1
  S  S6  1  0.78538500  0.74210600  0.21416900  1
  S  S7  1  0.71461500  0.74210600  0.71416900  1
  S  S8  1  0.79084600  0.28141700  0.72416600  1
  S  S9  1  0.70915400  0.28141700  0.22416600  1
  S  S10  1  0.20915400  0.71858300  0.27583400  1
  S  S11  1  0.29084600  0.71858300  0.77583400  1
  S  S12  1  0.35054500  0.64252100  0.06696900  1
  S  S13  1  0.14945500  0.64252100  0.56696900  1
  S  S14  1  0.64945500  0.35747900  0.93303100  1
  S  S15  1  0.85054500  0.35747900  0.43303100  1
  O  O0  1  0.15732400  0.23863500  0.85958000  1
  O  O1  1  0.34267600  0.23863500  0.35958000  1
  O  O2  1  0.84267600  0.76136500  0.14042000  1
  O  O3  1  0.65732400  0.76136500  0.64042000  1
  O  O4  1  0.04404600  0.55065900  0.16835000  1
  O  O5  1  0.45595400  0.55065900  0.66835000  1
  O  O6  1  0.95595400  0.44934100  0.83165000  1
  O  O7  1  0.54404600  0.44934100  0.33165000  1
  O  O8  1  0.76612900  0.25437900  0.93215700  1
  O  O9  1  0.73387100  0.25437900  0.43215700  1
  O  O10  1  0.23387100  0.74562100  0.06784300  1
  O  O11  1  0.26612900  0.74562100  0.56784300  1
  O  O12  1  0.18565300  0.12853600  0.76496800  1
  O  O13  1  0.31434700  0.12853600  0.26496800  1
  O  O14  1  0.81434700  0.87146400  0.23503200  1
  O  O15  1  0.68565300  0.87146400  0.73503200  1
  O  O16  1  0.96137000  0.02170200  0.92215000  1
  O  O17  1  0.53863000  0.02170200  0.42215000  1
  O  O18  1  0.03863000  0.97829800  0.07785000  1
  O  O19  1  0.46137000  0.97829800  0.57785000  1
  O  O20  1  0.74120000  0.90751800  0.97667200  1
  O  O21  1  0.75880000  0.90751800  0.47667200  1
  O  O22  1  0.25880000  0.09248200  0.02332800  1
  O  O23  1  0.24120000  0.09248200  0.52332800  1
  O  O24  1  0.63975400  0.30503000  0.73345600  1
  O  O25  1  0.86024600  0.30503000  0.23345600  1
  O  O26  1  0.36024600  0.69497000  0.26654400  1
  O  O27  1  0.13975400  0.69497000  0.76654400  1
  O  O28  1  0.95692000  0.77687300  0.00500400  1
  O  O29  1  0.54308000  0.77687300  0.50500400  1
  O  O30  1  0.04308000  0.22312700  0.99499600  1
  O  O31  1  0.45692000  0.22312700  0.49499600  1
  O  O32  1  0.85656000  0.82681500  0.88662000  1
  O  O33  1  0.64344000  0.82681500  0.38662000  1
  O  O34  1  0.14344000  0.17318500  0.11338000  1
  O  O35  1  0.35656000  0.17318500  0.61338000  1
  O  O36  1  0.85356600  0.20084700  0.79434200  1
  O  O37  1  0.64643400  0.20084700  0.29434200  1
  O  O38  1  0.14643400  0.79915300  0.20565800  1
  O  O39  1  0.35356600  0.79915300  0.70565800  1
  O  O40  1  0.43079700  0.70891400  0.00090500  1
  O  O41  1  0.06920300  0.70891400  0.50090500  1
  O  O42  1  0.56920300  0.29108600  0.99909500  1
  O  O43  1  0.93079700  0.29108600  0.49909500  1
  O  O44  1  0.06030400  0.98594800  0.60076700  1
  O  O45  1  0.43969600  0.98594800  0.10076700  1
  O  O46  1  0.93969600  0.01405200  0.39923300  1
  O  O47  1  0.56030400  0.01405200  0.89923300  1
  O  O48  1  0.35960500  0.57428400  0.80624200  1
  O  O49  1  0.14039500  0.57428400  0.30624200  1
  O  O50  1  0.64039500  0.42571600  0.19375800  1
  O  O51  1  0.85960500  0.42571600  0.69375800  1
  O  O52  1  0.36598900  0.27875200  0.78861100  1
  O  O53  1  0.13401100  0.27875200  0.28861100  1
  O  O54  1  0.63401100  0.72124800  0.21138900  1
  O  O55  1  0.86598900  0.72124800  0.71138900  1
  O  O56  1  0.30914800  0.80426400  0.82513500  1
  O  O57  1  0.19085200  0.80426400  0.32513500  1
  O  O58  1  0.69085200  0.19573600  0.17486500  1
  O  O59  1  0.80914800  0.19573600  0.67486500  1
  O  O60  1  0.20394900  0.50101700  0.56888500  1
  O  O61  1  0.29605100  0.50101700  0.06888500  1
  O  O62  1  0.79605100  0.49898300  0.43111500  1
  O  O63  1  0.70394900  0.49898300  0.93111500  1
  O  O64  1  0.15125400  0.38776900  0.73345900  1
  O  O65  1  0.34874600  0.38776900  0.23345900  1
  O  O66  1  0.84874600  0.61223100  0.26654100  1
  O  O67  1  0.65125400  0.61223100  0.76654100  1
  O  O68  1  0.09056500  0.60829200  0.89943200  1
  O  O69  1  0.40943500  0.60829200  0.39943200  1
  O  O70  1  0.90943500  0.39170800  0.10056800  1
  O  O71  1  0.59056500  0.39170800  0.60056800  1
  O  O72  1  0.05474200  0.63324900  0.62912600  1
  O  O73  1  0.44525800  0.63324900  0.12912600  1
  O  O74  1  0.94525800  0.36675100  0.37087400  1
  O  O75  1  0.55474200  0.36675100  0.87087400  1
loop_
_geom_bond_atom_site_label_1
_geom_bond_atom_site_label_2
_geom_bond_distance
_geom_bond_site_symmetry_2
K0 O51 2.781694 1_555
K0 O71 2.786181 1_555
K0 O3 2.888576 1_555
K0 O21 2.905160 1_555
K0 O41 2.946326 1_655
K0 O29 2.947914 1_555
K0 O72 2.953876 1_655
K0 O62 2.968122 1_555
K1 O50 2.781694 1_555
K1 O70 2.786181 1_555
K1 O2 2.888576 1_555
K1 O20 2.905160 1_554
K1 O40 2.946326 1_555
K1 O28 2.947914 1_555
K1 O73 2.953876 1_555
K1 O63 2.968122 1_554
K2 O49 2.781694 1_555
K2 O69 2.786181 1_555
K2 O1 2.888576 1_555
K2 O23 2.905160 1_555
K2 O43 2.946326 1_455
K2 O31 2.947914 1_555
K2 O74 2.953876 1_455
K2 O60 2.968122 1_555
K3 O48 2.781694 1_555
K3 O68 2.786181 1_555
K3 O0 2.888576 1_555
K3 O22 2.905160 1_556
K3 O42 2.946326 1_555
K3 O30 2.947914 1_555
K3 O75 2.953876 1_555
K3 O61 2.968122 1_556
K4 O32 2.567901 1_555
K4 O12 2.776999 1_665
K4 O55 2.815265 1_555
K4 O27 2.818568 1_655
K4 O15 2.967713 1_555
K4 O59 3.062079 1_565
K4 O36 3.062345 1_565
K4 O44 3.221992 1_655
K5 O33 2.567901 1_555
K5 O13 2.776999 1_565
K5 O54 2.815265 1_555
K5 O26 2.818568 1_555
K5 O14 2.967713 1_555
K5 O58 3.062079 1_565
K5 O37 3.062345 1_565
K5 O45 3.221992 1_555
K6 O34 2.567901 1_555
K6 O14 2.776999 1_445
K6 O53 2.815265 1_555
K6 O25 2.818568 1_455
K6 O13 2.967713 1_555
K6 O57 3.062079 1_545
K6 O38 3.062345 1_545
K6 O46 3.221992 1_455
K7 O35 2.567901 1_555
K7 O15 2.776999 1_545
K7 O52 2.815265 1_555
K7 O24 2.818568 1_555
K7 O12 2.967713 1_555
K7 O56 3.062079 1_545
K7 O39 3.062345 1_545
K7 O47 3.221992 1_555
K8 O22 2.678432 1_566
K8 O10 2.770822 1_556
K8 O40 2.807282 1_556
K8 O56 2.849510 1_555
K8 O16 2.949423 1_465
K8 O0 2.966751 1_565
K8 O47 3.052491 1_565
K9 O23 2.678432 1_565
K9 O11 2.770822 1_555
K9 O41 2.807282 1_555
K9 O57 2.849510 1_555
K9 O17 2.949423 1_565
K9 O1 2.966751 1_565
K9 O46 3.052491 1_465
K10 O20 2.678432 1_544
K10 O8 2.770822 1_554
K10 O42 2.807282 1_554
K10 O58 2.849510 1_555
K10 O18 2.949423 1_645
K10 O2 2.966751 1_545
K10 O45 3.052491 1_545
K11 O21 2.678432 1_545
K11 O9 2.770822 1_555
K11 O43 2.807282 1_555
K11 O59 2.849510 1_555
K11 O19 2.949423 1_545
K11 O3 2.966751 1_545
K11 O44 3.052491 1_645
K12 O60 2.587827 1_555
K12 O35 2.712676 1_555
K12 O44 2.764766 1_545
K12 O43 2.818697 1_455
K12 O12 2.819520 1_555
K12 O59 2.889638 1_455
K12 O64 2.937851 1_555
K13 O61 2.587827 1_555
K13 O34 2.712676 1_555
K13 O45 2.764766 1_545
K13 O42 2.818697 1_554
K13 O13 2.819520 1_555
K13 O58 2.889638 1_555
K13 O65 2.937851 1_555
K14 O62 2.587827 1_555
K14 O33 2.712676 1_555
K14 O46 2.764766 1_565
K14 O41 2.818697 1_655
K14 O14 2.819520 1_555
K14 O57 2.889638 1_655
K14 O66 2.937851 1_555
K15 O63 2.587827 1_555
K15 O32 2.712676 1_555
K15 O47 2.764766 1_565
K15 O40 2.818697 1_556
K15 O15 2.819520 1_555
K15 O56 2.889638 1_555
K15 O67 2.937851 1_555
Mn0 O7 1.878998 1_555
Mn0 O65 2.034772 1_555
Mn0 O73 2.069524 1_555
Mn0 O50 2.138204 1_555
Mn0 O54 2.177222 1_555
Mn0 O26 2.200553 1_555
Mn1 O6 1.878998 1_455
Mn1 O64 2.034772 1_555
Mn1 O72 2.069524 1_555
Mn1 O51 2.138204 1_455
Mn1 O55 2.177222 1_455
Mn1 O27 2.200553 1_555
Mn2 O5 1.878998 1_555
Mn2 O67 2.034772 1_555
Mn2 O75 2.069524 1_555
Mn2 O48 2.138204 1_555
Mn2 O52 2.177222 1_555
Mn2 O24 2.200553 1_555
Mn3 O4 1.878998 1_655
Mn3 O66 2.034772 1_555
Mn3 O74 2.069524 1_555
Mn3 O49 2.138204 1_655
Mn3 O53 2.177222 1_655
Mn3 O25 2.200553 1_555
Mn4 O4 1.893107 1_555
Mn4 O10 2.021876 1_555
Mn4 O2 2.081928 1_455
Mn4 O18 2.113461 1_555
Mn4 O38 2.154025 1_555
Mn4 O28 2.327184 1_455
Mn5 O5 1.893107 1_555
Mn5 O11 2.021876 1_555
Mn5 O3 2.081928 1_555
Mn5 O19 2.113461 1_555
Mn5 O39 2.154025 1_555
Mn5 O29 2.327184 1_555
Mn6 O6 1.893107 1_555
Mn6 O8 2.021876 1_555
Mn6 O0 2.081928 1_655
Mn6 O16 2.113461 1_555
Mn6 O36 2.154025 1_555
Mn6 O30 2.327184 1_655
Mn7 O7 1.893107 1_555
Mn7 O9 2.021876 1_555
Mn7 O1 2.081928 1_555
Mn7 O17 2.113461 1_555
Mn7 O37 2.154025 1_555
Mn7 O31 2.327184 1_555
O0 S4 1.511041 1_555
O1 S5 1.511041 1_555
O2 S6 1.511041 1_555
O3 S7 1.511041 1_555
O8 S14 1.514774 1_555
O9 S15 1.514774 1_555
O10 S12 1.514774 1_555
O11 S13 1.514774 1_555
O12 S4 1.469235 1_555
O13 S5 1.469235 1_555
O14 S6 1.469235 1_555
O15 S7 1.469235 1_555
O16 S0 1.512709 1_545
O17 S1 1.512709 1_545
O18 S2 1.512709 1_565
O19 S3 1.512709 1_565
O20 S0 1.504760 1_555
O21 S1 1.504760 1_555
O22 S2 1.504760 1_555
O23 S3 1.504760 1_555
O24 S8 1.500299 1_555
O25 S9 1.500299 1_555
O26 S10 1.500299 1_555
O27 S11 1.500299 1_555
O28 S0 1.493681 1_554
O29 S1 1.493681 1_555
O30 S2 1.493681 1_556
O31 S3 1.493681 1_555
O32 S0 1.463715 1_555
O33 S1 1.463715 1_555
O34 S2 1.463715 1_555
O35 S3 1.463715 1_555
O36 S8 1.489166 1_555
O37 S9 1.489166 1_555
O38 S10 1.489166 1_555
O39 S11 1.489166 1_555
O40 S12 1.479643 1_555
O41 S13 1.479643 1_555
O42 S14 1.479643 1_555
O43 S15 1.479643 1_555
O48 S11 1.500295 1_555
O49 S10 1.500295 1_555
O50 S9 1.500295 1_555
O51 S8 1.500295 1_555
O52 S4 1.482368 1_555
O53 S5 1.482368 1_555
O54 S6 1.482368 1_555
O55 S7 1.482368 1_555
O56 S11 1.475729 1_555
O57 S10 1.475729 1_555
O58 S9 1.475729 1_555
O59 S8 1.475729 1_555
O60 S13 1.465150 1_555
O61 S12 1.465150 1_555
O62 S15 1.465150 1_555
O63 S14 1.465150 1_555
O64 S4 1.491674 1_555
O65 S5 1.491674 1_555
O66 S6 1.491674 1_555
O67 S7 1.491674 1_555
O72 S13 1.509554 1_555
O73 S12 1.509554 1_555
O74 S15 1.509554 1_555
O75 S14 1.509554 1_555
