# generated using pymatgen
data_AsH6N2F5
_symmetry_space_group_name_H-M   'P 1'
_cell_length_a   7.68532900
_cell_length_b   17.27504300
_cell_length_c   4.48738900
_cell_angle_alpha   90.00000000
_cell_angle_beta   90.00000000
_cell_angle_gamma   90.00000000
_symmetry_Int_Tables_number   1
_chemical_formula_structural   AsH6N2F5
_chemical_formula_sum   'As4 H24 N8 F20'
_cell_volume   595.76545854
_cell_formula_units_Z   4
loop_
 _symmetry_equiv_pos_site_id
 _symmetry_equiv_pos_as_xyz
  1  'x, y, z'
loop_
 _atom_site_type_symbol
 _atom_site_label
 _atom_site_symmetry_multiplicity
 _atom_site_fract_x
 _atom_site_fract_y
 _atom_site_fract_z
 _atom_site_occupancy
  As  As0  1  0.77277000  0.76725900  0.92532200  1
  As  As1  1  0.22723000  0.23274100  0.92532200  1
  As  As2  1  0.72723000  0.26725900  0.42532200  1
  As  As3  1  0.27277000  0.73274100  0.42532200  1
  H  H0  1  0.12111500  0.56452200  0.22576800  1
  H  H1  1  0.87888500  0.43547800  0.22576800  1
  H  H2  1  0.37888500  0.06452200  0.72576800  1
  H  H3  1  0.62111500  0.93547800  0.72576800  1
  H  H4  1  0.91956800  0.55709200  0.41021900  1
  H  H5  1  0.08043200  0.44290800  0.41021900  1
  H  H6  1  0.58043200  0.05709200  0.91021900  1
  H  H7  1  0.41956800  0.94290800  0.91021900  1
  H  H8  1  0.92819300  0.55818400  0.01442700  1
  H  H9  1  0.07180700  0.44181600  0.01442700  1
  H  H10  1  0.57180700  0.05818400  0.51442700  1
  H  H11  1  0.42819300  0.94181600  0.51442700  1
  H  H12  1  0.13600600  0.94047600  0.21082300  1
  H  H13  1  0.86399400  0.05952400  0.21082300  1
  H  H14  1  0.36399400  0.44047600  0.71082300  1
  H  H15  1  0.63600600  0.55952400  0.71082300  1
  H  H16  1  0.92876200  0.93872300  0.02958200  1
  H  H17  1  0.07123800  0.06127700  0.02958200  1
  H  H18  1  0.57123800  0.43872300  0.52958200  1
  H  H19  1  0.42876200  0.56127700  0.52958200  1
  H  H20  1  0.93840000  0.93784300  0.41487800  1
  H  H21  1  0.06160000  0.06215700  0.41487800  1
  H  H22  1  0.56160000  0.43784300  0.91487800  1
  H  H23  1  0.43840000  0.56215700  0.91487800  1
  N  N0  1  0.99250700  0.54182000  0.21314300  1
  N  N1  1  0.00749300  0.45818000  0.21314300  1
  N  N2  1  0.50749300  0.04182000  0.71314300  1
  N  N3  1  0.49250700  0.95818000  0.71314300  1
  N  N4  1  0.99985200  0.95792100  0.22127600  1
  N  N5  1  0.00014800  0.04207900  0.22127600  1
  N  N6  1  0.50014800  0.45792100  0.72127600  1
  N  N7  1  0.49985200  0.54207900  0.72127600  1
  F  F0  1  0.82534600  0.91426900  0.74567900  1
  F  F1  1  0.17465400  0.08573100  0.74567900  1
  F  F2  1  0.67465400  0.41426900  0.24567900  1
  F  F3  1  0.32534600  0.58573100  0.24567900  1
  F  F4  1  0.82639100  0.56124100  0.70079100  1
  F  F5  1  0.17360900  0.43875900  0.70079100  1
  F  F6  1  0.67360900  0.06124100  0.20079100  1
  F  F7  1  0.32639100  0.93875900  0.20079100  1
  F  F8  1  0.72437100  0.68086400  0.12677800  1
  F  F9  1  0.27562900  0.31913600  0.12677800  1
  F  F10  1  0.77562900  0.18086400  0.62677800  1
  F  F11  1  0.22437100  0.81913600  0.62677800  1
  F  F12  1  0.61885500  0.82129900  0.13829700  1
  F  F13  1  0.38114500  0.17870100  0.13829700  1
  F  F14  1  0.88114500  0.32129900  0.63829700  1
  F  F15  1  0.11885500  0.67870100  0.63829700  1
  F  F16  1  0.95157100  0.78909500  0.16761900  1
  F  F17  1  0.04842900  0.21090500  0.16761900  1
  F  F18  1  0.54842900  0.28909500  0.66761900  1
  F  F19  1  0.45157100  0.71090500  0.66761900  1
loop_
_geom_bond_atom_site_label_1
_geom_bond_atom_site_label_2
_geom_bond_distance
_geom_bond_site_symmetry_2
As0 F8 1.784119 1_556
As0 F12 1.784402 1_556
As0 F16 1.792414 1_556
As1 F9 1.784119 1_556
As1 F13 1.784402 1_556
As1 F17 1.792414 1_556
As2 F10 1.784119 1_555
As2 F14 1.784402 1_555
As2 F18 1.792414 1_555
As3 F11 1.784119 1_555
As3 F15 1.784402 1_555
As3 F19 1.792414 1_555
H0 N0 1.064865 1_455
H1 N1 1.064865 1_655
H2 N2 1.064865 1_555
H3 N3 1.064865 1_555
H4 N0 1.079777 1_555
H5 N1 1.079777 1_555
H6 N2 1.079777 1_555
H7 N3 1.079777 1_555
H8 N0 1.058006 1_555
H9 N1 1.058006 1_555
H10 N2 1.058006 1_555
H11 N3 1.058006 1_555
H12 N4 1.089930 1_455
H13 N5 1.089930 1_655
H14 N6 1.089930 1_555
H15 N7 1.089930 1_555
H16 N4 1.071653 1_555
H17 N5 1.071653 1_555
H18 N6 1.071653 1_555
H19 N7 1.071653 1_555
H20 N4 1.047906 1_555
H21 N5 1.047906 1_555
H22 N6 1.047906 1_555
H23 N7 1.047906 1_555
F0 H16 1.559864 1_556
F0 H3 1.614252 1_555
F1 H17 1.559864 1_556
F1 H2 1.614252 1_555
F2 H18 1.559864 1_555
F2 H1 1.614252 1_555
F3 H19 1.559864 1_555
F3 H0 1.614252 1_555
F4 H15 1.464164 1_555
F4 H4 1.489332 1_555
F4 H8 1.611119 1_556
F5 H14 1.464164 1_555
F5 H5 1.489332 1_555
F5 H9 1.611119 1_556
F6 H13 1.464164 1_555
F6 H6 1.489332 1_554
F6 H10 1.611119 1_555
F7 H12 1.464164 1_555
F7 H7 1.489332 1_554
F7 H11 1.611119 1_555
