# generated using pymatgen
data_Yb2Be2Si2NiO10
_symmetry_space_group_name_H-M   'P 1'
_cell_length_a   7.48728100
_cell_length_b   4.65705800
_cell_length_c   10.08681978
_cell_angle_alpha   89.36638226
_cell_angle_beta   90.00000000
_cell_angle_gamma   90.00000000
_symmetry_Int_Tables_number   1
_chemical_formula_structural   Yb2Be2Si2NiO10
_chemical_formula_sum   'Yb4 Be4 Si4 Ni2 O20'
_cell_volume   351.69280550
_cell_formula_units_Z   2
loop_
 _symmetry_equiv_pos_site_id
 _symmetry_equiv_pos_as_xyz
  1  'x, y, z'
loop_
 _atom_site_type_symbol
 _atom_site_label
 _atom_site_symmetry_multiplicity
 _atom_site_fract_x
 _atom_site_fract_y
 _atom_site_fract_z
 _atom_site_occupancy
  Yb  Yb0  1  0.38450900  0.99839800  0.82265200  1
  Yb  Yb1  1  0.88450900  0.00160200  0.67734800  1
  Yb  Yb2  1  0.61549100  0.00160200  0.17734800  1
  Yb  Yb3  1  0.11549100  0.99839800  0.32265200  1
  Be  Be0  1  0.91789200  0.44581400  0.15547800  1
  Be  Be1  1  0.08210800  0.55418600  0.84452200  1
  Be  Be2  1  0.58210800  0.44581400  0.65547800  1
  Be  Be3  1  0.41789200  0.55418600  0.34452200  1
  Si  Si0  1  0.22102600  0.50382600  0.58189200  1
  Si  Si1  1  0.72102600  0.49617400  0.91810800  1
  Si  Si2  1  0.77897400  0.49617400  0.41810800  1
  Si  Si3  1  0.27897400  0.50382600  0.08189200  1
  Ni  Ni0  1  0.50000000  0.00000000  0.50000000  1
  Ni  Ni1  1  0.00000000  0.00000000  0.00000000  1
  O  O0  1  0.38392600  0.28700000  0.63147400  1
  O  O1  1  0.88392600  0.71300000  0.86852600  1
  O  O2  1  0.61607400  0.71300000  0.36852600  1
  O  O3  1  0.11607400  0.28700000  0.13147400  1
  O  O4  1  0.15736900  0.69456800  0.70755000  1
  O  O5  1  0.65736900  0.30543200  0.79245000  1
  O  O6  1  0.41982000  0.21342400  0.34729400  1
  O  O7  1  0.08018000  0.21342400  0.84729400  1
  O  O8  1  0.91982000  0.78657600  0.15270600  1
  O  O9  1  0.58018000  0.78657600  0.65270600  1
  O  O10  1  0.43092300  0.28260100  0.02315700  1
  O  O11  1  0.93092300  0.71739900  0.47684300  1
  O  O12  1  0.56907700  0.71739900  0.97684300  1
  O  O13  1  0.06907700  0.28260100  0.52315700  1
  O  O14  1  0.30057900  0.71516200  0.46352100  1
  O  O15  1  0.80057900  0.28483800  0.03647900  1
  O  O16  1  0.69942100  0.28483800  0.53647900  1
  O  O17  1  0.19942100  0.71516200  0.96352100  1
  O  O18  1  0.34263100  0.69456800  0.20755000  1
  O  O19  1  0.84263100  0.30543200  0.29245000  1
loop_
_geom_bond_atom_site_label_1
_geom_bond_atom_site_label_2
_geom_bond_distance
_geom_bond_site_symmetry_2
Be0 O8 1.586951 1_555
Be0 O19 1.622904 1_555
Be0 O15 1.671584 1_555
Be0 O3 1.676722 1_655
Be1 O7 1.586951 1_555
Be1 O4 1.622904 1_555
Be1 O17 1.671584 1_555
Be1 O1 1.676722 1_455
Be2 O9 1.586951 1_555
Be2 O5 1.622904 1_555
Be2 O16 1.671584 1_555
Be2 O0 1.676722 1_555
Be3 O6 1.586951 1_555
Be3 O18 1.622904 1_555
Be3 O14 1.671584 1_555
Be3 O2 1.676722 1_555
Ni0 O9 1.920158 1_545
Ni0 O6 1.920158 1_555
Ni0 O16 2.033524 1_555
Ni0 O14 2.033524 1_545
Ni0 O2 2.083176 1_545
Ni0 O0 2.083176 1_555
Ni1 O7 1.920158 1_554
Ni1 O8 1.920158 1_445
Ni1 O15 2.033524 1_455
Ni1 O17 2.033524 1_544
Ni1 O1 2.083176 1_444
Ni1 O3 2.083176 1_555
O0 Si0 1.657169 1_555
O0 Yb0 2.338327 1_545
O1 Si1 1.657169 1_555
O1 Yb1 2.338327 1_565
O2 Si2 1.657169 1_555
O2 Yb2 2.338327 1_565
O3 Si3 1.657169 1_555
O3 Yb3 2.338327 1_545
O4 Si0 1.627165 1_555
O4 Yb0 2.505719 1_555
O4 Yb1 2.510275 1_465
O5 Si1 1.627165 1_555
O5 Yb1 2.505719 1_555
O5 Yb0 2.510275 1_545
O6 Yb2 2.468887 1_555
O6 Yb3 2.502413 1_545
O7 Yb1 2.468887 1_455
O7 Yb0 2.502413 1_545
O8 Yb3 2.468887 1_655
O8 Yb2 2.502413 1_565
O9 Yb0 2.468887 1_555
O9 Yb1 2.502413 1_565
O10 Si3 1.649319 1_555
O10 Yb2 2.448699 1_555
O10 Yb0 2.453995 1_544
O11 Si2 1.649319 1_555
O11 Yb3 2.448699 1_655
O11 Yb1 2.453995 1_565
O12 Si1 1.649319 1_555
O12 Yb0 2.448699 1_555
O12 Yb2 2.453995 1_566
O13 Si0 1.649319 1_555
O13 Yb1 2.448699 1_455
O13 Yb3 2.453995 1_545
O14 Si0 1.650168 1_555
O14 Yb3 2.374427 1_555
O15 Si1 1.650168 1_554
O15 Yb2 2.374427 1_555
O16 Si2 1.650168 1_555
O16 Yb1 2.374427 1_555
O17 Si3 1.650168 1_556
O17 Yb0 2.374427 1_555
O18 Si3 1.627165 1_555
O18 Yb3 2.505719 1_555
O18 Yb2 2.510275 1_565
O19 Si2 1.627165 1_555
O19 Yb2 2.505719 1_555
O19 Yb3 2.510275 1_645
