# generated using pymatgen
data_CaNi2(PO4)2
_symmetry_space_group_name_H-M   'P 1'
_cell_length_a   8.98139509
_cell_length_b   8.98139509
_cell_length_c   16.73636973
_cell_angle_alpha   62.73977128
_cell_angle_beta   62.73977128
_cell_angle_gamma   32.02845829
_symmetry_Int_Tables_number   1
_chemical_formula_structural   CaNi2(PO4)2
_chemical_formula_sum   'Ca4 Ni8 P8 O32'
_cell_volume   629.46553735
_cell_formula_units_Z   4
loop_
 _symmetry_equiv_pos_site_id
 _symmetry_equiv_pos_as_xyz
  1  'x, y, z'
loop_
 _atom_site_type_symbol
 _atom_site_label
 _atom_site_symmetry_multiplicity
 _atom_site_fract_x
 _atom_site_fract_y
 _atom_site_fract_z
 _atom_site_occupancy
  Ca  Ca0  1  0.47640100  0.83188900  0.86001700  1
  Ca  Ca1  1  0.16811100  0.52359900  0.63998300  1
  Ca  Ca2  1  0.83188900  0.47640100  0.36001700  1
  Ca  Ca3  1  0.52359900  0.16811100  0.13998300  1
  Ni  Ni0  1  0.19368000  0.61439200  0.96205400  1
  Ni  Ni1  1  0.38560800  0.80632000  0.53794600  1
  Ni  Ni2  1  0.80632000  0.38560800  0.03794600  1
  Ni  Ni3  1  0.50000000  0.00000000  0.00000000  1
  Ni  Ni4  1  0.61439200  0.19368000  0.46205400  1
  Ni  Ni5  1  0.65499700  0.34500300  0.25000000  1
  Ni  Ni6  1  0.34500300  0.65499700  0.75000000  1
  Ni  Ni7  1  0.00000000  0.50000000  0.50000000  1
  P  P0  1  0.05360400  0.51500400  0.86811900  1
  P  P1  1  0.77304000  0.19131000  0.61270100  1
  P  P2  1  0.94639600  0.48499600  0.13188100  1
  P  P3  1  0.19131000  0.77304000  0.11270100  1
  P  P4  1  0.51500400  0.05360400  0.36811900  1
  P  P5  1  0.48499600  0.94639600  0.63188100  1
  P  P6  1  0.22696000  0.80869000  0.38729900  1
  P  P7  1  0.80869000  0.22696000  0.88729900  1
  O  O0  1  0.69056000  0.81207200  0.10476500  1
  O  O1  1  0.82935200  0.33662400  0.92603100  1
  O  O2  1  0.81207200  0.69056000  0.60476500  1
  O  O3  1  0.78416300  0.37164200  0.54067600  1
  O  O4  1  0.19519500  0.35925500  0.04966100  1
  O  O5  1  0.56446200  0.33174100  0.69844600  1
  O  O6  1  0.62835800  0.21583700  0.95932400  1
  O  O7  1  0.87996900  0.08246600  0.13147900  1
  O  O8  1  0.21583700  0.62835800  0.45932400  1
  O  O9  1  0.66337600  0.17064800  0.57396900  1
  O  O10  1  0.86907700  0.37231500  0.14356200  1
  O  O11  1  0.61266400  0.94548700  0.28523900  1
  O  O12  1  0.17064800  0.66337600  0.07396900  1
  O  O13  1  0.08246600  0.87996900  0.63147900  1
  O  O14  1  0.30944000  0.18792800  0.89523500  1
  O  O15  1  0.13092300  0.62768500  0.85643800  1
  O  O16  1  0.94548700  0.61266400  0.78523900  1
  O  O17  1  0.37164200  0.78416300  0.04067600  1
  O  O18  1  0.37231500  0.86907700  0.64356200  1
  O  O19  1  0.38733600  0.05451300  0.71476100  1
  O  O20  1  0.91753400  0.12003100  0.36852100  1
  O  O21  1  0.35925500  0.19519500  0.54966100  1
  O  O22  1  0.12003100  0.91753400  0.86852100  1
  O  O23  1  0.33174100  0.56446200  0.19844600  1
  O  O24  1  0.33662400  0.82935200  0.42603100  1
  O  O25  1  0.18792800  0.30944000  0.39523500  1
  O  O26  1  0.05451300  0.38733600  0.21476100  1
  O  O27  1  0.64074500  0.80480500  0.45033900  1
  O  O28  1  0.80480500  0.64074500  0.95033900  1
  O  O29  1  0.66825900  0.43553800  0.80155400  1
  O  O30  1  0.43553800  0.66825900  0.30155400  1
  O  O31  1  0.62768500  0.13092300  0.35643800  1
loop_
_geom_bond_atom_site_label_1
_geom_bond_atom_site_label_2
_geom_bond_distance
_geom_bond_site_symmetry_2
Ca0 O19 2.272548 1_565
Ca0 O14 2.368114 1_565
Ca0 O1 2.419386 1_555
Ca0 O22 2.522873 1_555
Ca0 O16 2.560237 1_555
Ca0 O28 2.655848 1_555
Ca0 O17 2.664870 1_556
Ca0 O29 2.800754 1_555
Ca1 O16 2.272548 1_455
Ca1 O2 2.368114 1_455
Ca1 O9 2.419386 1_555
Ca1 O13 2.522873 1_555
Ca1 O19 2.560237 1_555
Ca1 O21 2.655848 1_555
Ca1 O8 2.664870 1_555
Ca1 O5 2.800754 1_555
Ca2 O26 2.272548 1_655
Ca2 O25 2.368114 1_655
Ca2 O24 2.419386 1_555
Ca2 O20 2.522873 1_555
Ca2 O11 2.560237 1_555
Ca2 O27 2.655848 1_555
Ca2 O3 2.664870 1_555
Ca2 O30 2.800754 1_555
Ca3 O11 2.272548 1_545
Ca3 O0 2.368114 1_545
Ca3 O12 2.419386 1_555
Ca3 O7 2.522873 1_555
Ca3 O26 2.560237 1_555
Ca3 O4 2.655848 1_555
Ca3 O6 2.664870 1_554
Ca3 O23 2.800754 1_555
Ni0 O12 1.997571 1_556
Ni0 O15 2.015373 1_555
Ni0 O4 2.070867 1_556
Ni0 O22 2.071575 1_555
Ni0 O6 2.085210 1_555
Ni1 O24 1.997571 1_555
Ni1 O18 2.015373 1_555
Ni1 O27 2.070867 1_555
Ni1 O13 2.071575 1_555
Ni1 O3 2.085210 1_555
Ni2 O1 1.997571 1_554
Ni2 O10 2.015373 1_555
Ni2 O28 2.070867 1_554
Ni2 O7 2.071575 1_555
Ni2 O17 2.085210 1_555
Ni3 O4 1.997840 1_555
Ni3 O28 1.997840 1_544
Ni3 O0 1.998078 1_545
Ni3 O14 1.998078 1_554
Ni4 O9 1.997571 1_555
Ni4 O31 2.015373 1_555
Ni4 O21 2.070867 1_555
Ni4 O20 2.071575 1_555
Ni4 O8 2.085210 1_555
Ni5 O30 2.022994 1_555
Ni5 O23 2.022994 1_555
Ni5 O31 2.047484 1_555
Ni5 O10 2.047484 1_555
Ni5 O20 2.472253 1_555
Ni5 O7 2.472253 1_555
Ni6 O5 2.022994 1_555
Ni6 O29 2.022994 1_555
Ni6 O15 2.047484 1_555
Ni6 O18 2.047484 1_555
Ni6 O13 2.472253 1_555
Ni6 O22 2.472253 1_555
Ni7 O21 1.997840 1_555
Ni7 O27 1.997840 1_455
Ni7 O2 1.998078 1_455
Ni7 O25 1.998078 1_555
O0 P2 1.550555 1_555
O1 P7 1.558760 1_555
O2 P5 1.550555 1_555
O3 P1 1.569014 1_555
O4 P2 1.578012 1_455
O5 P1 1.532544 1_555
O6 P7 1.569014 1_555
O7 P3 1.568395 1_645
O8 P6 1.569014 1_555
O9 P1 1.558760 1_555
O10 P2 1.559065 1_555
O11 P4 1.520371 1_565
O12 P3 1.558760 1_555
O13 P1 1.568395 1_465
O14 P0 1.550555 1_555
O15 P0 1.559065 1_555
O16 P0 1.520371 1_655
O17 P3 1.569014 1_555
O18 P5 1.559065 1_555
O19 P5 1.520371 1_545
O20 P6 1.568395 1_645
O21 P5 1.578012 1_545
O22 P7 1.568395 1_465
O23 P3 1.532544 1_555
O24 P6 1.558760 1_555
O25 P4 1.550555 1_555
O26 P2 1.520371 1_455
O27 P4 1.578012 1_565
O28 P0 1.578012 1_655
O29 P7 1.532544 1_555
O30 P6 1.532544 1_555
O31 P4 1.559065 1_555
