# generated using pymatgen
data_CaTi2O4
_symmetry_space_group_name_H-M   'P 1'
_cell_length_a   6.45482462
_cell_length_b   6.45482462
_cell_length_c   6.45482442
_cell_angle_alpha   56.23463296
_cell_angle_beta   56.23463296
_cell_angle_gamma   56.23463624
_symmetry_Int_Tables_number   1
_chemical_formula_structural   CaTi2O4
_chemical_formula_sum   'Ca2 Ti4 O8'
_cell_volume   173.59729625
_cell_formula_units_Z   2
loop_
 _symmetry_equiv_pos_site_id
 _symmetry_equiv_pos_as_xyz
  1  'x, y, z'
loop_
 _atom_site_type_symbol
 _atom_site_label
 _atom_site_symmetry_multiplicity
 _atom_site_fract_x
 _atom_site_fract_y
 _atom_site_fract_z
 _atom_site_occupancy
  Ca  Ca0  1  0.99629600  0.99629600  0.99629600  1
  Ca  Ca1  1  0.62839200  0.62839200  0.62839200  1
  Ti  Ti0  1  0.24459700  0.24459700  0.24459700  1
  Ti  Ti1  1  0.61851200  0.13449900  0.61851200  1
  Ti  Ti2  1  0.61851200  0.61851200  0.13449900  1
  Ti  Ti3  1  0.13449900  0.61851200  0.61851200  1
  O  O0  1  0.86980300  0.36868500  0.36868500  1
  O  O1  1  0.36868500  0.36868500  0.86980300  1
  O  O2  1  0.36868500  0.86980300  0.36868500  1
  O  O3  1  0.36410500  0.36410500  0.36410500  1
  O  O4  1  0.85768200  0.85768200  0.85768200  1
  O  O5  1  0.87848300  0.42327000  0.87848300  1
  O  O6  1  0.87848300  0.87848300  0.42327000  1
  O  O7  1  0.42327000  0.87848300  0.87848300  1
loop_
_geom_bond_atom_site_label_1
_geom_bond_atom_site_label_2
_geom_bond_distance
_geom_bond_site_symmetry_2
Ca0 O6 2.176174 1_556
Ca0 O5 2.176175 1_565
Ca0 O7 2.176175 1_655
Ca0 O4 2.251939 1_555
Ca1 O6 2.260515 1_555
Ca1 O7 2.260515 1_555
Ca1 O5 2.260515 1_555
Ca1 O1 2.316233 1_555
Ca1 O0 2.316233 1_555
Ca1 O2 2.316233 1_555
O0 Ti0 1.881757 1_655
O0 Ti1 2.150535 1_555
O0 Ti2 2.150535 1_555
O1 Ti0 1.881757 1_556
O1 Ti3 2.150535 1_555
O1 Ti1 2.150535 1_555
O2 Ti0 1.881757 1_565
O2 Ti3 2.150535 1_555
O2 Ti2 2.150535 1_555
O3 Ti0 1.941541 1_555
O3 Ti2 2.275240 1_555
O3 Ti1 2.275240 1_555
O3 Ti3 2.275240 1_555
O4 Ti2 2.115661 1_556
O4 Ti3 2.115661 1_655
O4 Ti1 2.115661 1_565
O5 Ti3 2.004185 1_655
O5 Ti2 2.004186 1_556
O6 Ti1 2.004186 1_565
O6 Ti3 2.004186 1_655
O7 Ti1 2.004185 1_565
O7 Ti2 2.004186 1_556
