# generated using pymatgen
data_Mg2Nb2SbO8
_symmetry_space_group_name_H-M   'P 1'
_cell_length_a   10.65407532
_cell_length_b   10.65407532
_cell_length_c   5.37290693
_cell_angle_alpha   85.94835686
_cell_angle_beta   85.94835686
_cell_angle_gamma   32.62684782
_symmetry_Int_Tables_number   1
_chemical_formula_structural   Mg2Nb2SbO8
_chemical_formula_sum   'Mg4 Nb4 Sb2 O16'
_cell_volume   327.93126268
_cell_formula_units_Z   2
loop_
 _symmetry_equiv_pos_site_id
 _symmetry_equiv_pos_as_xyz
  1  'x, y, z'
loop_
 _atom_site_type_symbol
 _atom_site_label
 _atom_site_symmetry_multiplicity
 _atom_site_fract_x
 _atom_site_fract_y
 _atom_site_fract_z
 _atom_site_occupancy
  Mg  Mg0  1  0.42043300  0.12212900  0.98870400  1
  Mg  Mg1  1  0.87787100  0.57956700  0.01129600  1
  Mg  Mg2  1  0.57641900  0.87927500  0.51015600  1
  Mg  Mg3  1  0.12072500  0.42358100  0.48984400  1
  Nb  Nb0  1  0.28787400  0.95925700  0.01751000  1
  Nb  Nb1  1  0.04074300  0.71212600  0.98249000  1
  Nb  Nb2  1  0.71099400  0.03916800  0.48195800  1
  Nb  Nb3  1  0.96083200  0.28900600  0.51804200  1
  Sb  Sb0  1  0.67622600  0.32377400  0.00000000  1
  Sb  Sb1  1  0.33185000  0.66815000  0.50000000  1
  O  O0  1  0.16506000  0.99086900  0.72155500  1
  O  O1  1  0.00913100  0.83494000  0.27844500  1
  O  O2  1  0.83381500  0.00921900  0.77843800  1
  O  O3  1  0.99078100  0.16618500  0.22156200  1
  O  O4  1  0.45636700  0.65918800  0.13856500  1
  O  O5  1  0.34081200  0.54363300  0.86143500  1
  O  O6  1  0.54241500  0.34073600  0.35975900  1
  O  O7  1  0.65926400  0.45758500  0.64024100  1
  O  O8  1  0.29030300  0.08115900  0.31056000  1
  O  O9  1  0.91884100  0.70969700  0.68944000  1
  O  O10  1  0.83518000  0.55737000  0.38194700  1
  O  O11  1  0.44263000  0.16482000  0.61805300  1
  O  O12  1  0.16234000  0.44314900  0.12025900  1
  O  O13  1  0.55685100  0.83766000  0.87974100  1
  O  O14  1  0.08158600  0.29182700  0.81041500  1
  O  O15  1  0.70817300  0.91841400  0.18958500  1
loop_
_geom_bond_atom_site_label_1
_geom_bond_atom_site_label_2
_geom_bond_distance
_geom_bond_site_symmetry_2
Mg0 O12 1.996032 1_556
Mg0 O15 2.050055 1_546
Mg0 O11 2.053143 1_555
Mg0 O13 2.086015 1_545
Mg0 O8 2.382654 1_556
Mg0 O14 2.543453 1_555
Mg1 O13 1.996032 1_554
Mg1 O14 2.050055 1_654
Mg1 O10 2.053143 1_555
Mg1 O12 2.086015 1_655
Mg1 O9 2.382654 1_554
Mg1 O15 2.543453 1_555
Mg2 O10 1.994133 1_555
Mg2 O13 2.038629 1_555
Mg2 O8 2.039771 1_565
Mg2 O11 2.109785 1_565
Mg2 O15 2.377761 1_555
Mg2 O9 2.578729 1_555
Mg3 O11 1.994133 1_555
Mg3 O12 2.038629 1_555
Mg3 O9 2.039771 1_455
Mg3 O10 2.109785 1_455
Mg3 O14 2.377761 1_555
Mg3 O8 2.578729 1_555
Nb0 O0 1.957067 1_554
Nb0 O13 2.005212 1_554
Nb0 O4 2.017554 1_555
Nb0 O3 2.044085 1_465
Nb0 O8 2.125539 1_565
Nb0 O14 2.300954 1_564
Nb1 O1 1.957067 1_556
Nb1 O12 2.005212 1_556
Nb1 O5 2.017554 1_555
Nb1 O2 2.044085 1_465
Nb1 O9 2.125539 1_455
Nb1 O15 2.300954 1_456
Nb2 O2 1.967502 1_555
Nb2 O11 1.974179 1_555
Nb2 O6 2.031835 1_555
Nb2 O1 2.055067 1_645
Nb2 O15 2.116870 1_545
Nb2 O9 2.273954 1_545
Nb3 O3 1.967502 1_555
Nb3 O10 1.974179 1_555
Nb3 O7 2.031835 1_555
Nb3 O0 2.055067 1_645
Nb3 O14 2.116870 1_655
Nb3 O8 2.273954 1_655
O0 Sb1 2.526775 1_555
O1 Sb1 2.526775 1_555
O2 Sb0 2.504180 1_556
O3 Sb0 2.504180 1_555
O4 Sb0 2.200284 1_555
O4 Sb1 2.233609 1_555
O5 Sb0 2.200284 1_556
O5 Sb1 2.233609 1_555
O6 Sb1 2.172531 1_555
O6 Sb0 2.242183 1_555
O7 Sb1 2.172531 1_555
O7 Sb0 2.242183 1_556
