# generated using pymatgen
data_BaTi(SiO3)3
_symmetry_space_group_name_H-M   'P 1'
_cell_length_a   11.63030424
_cell_length_b   11.63030424
_cell_length_c   9.89041800
_cell_angle_alpha   90.00000000
_cell_angle_beta   90.00000000
_cell_angle_gamma   120.00000139
_symmetry_Int_Tables_number   1
_chemical_formula_structural   BaTi(SiO3)3
_chemical_formula_sum   'Ba6 Ti6 Si18 O54'
_cell_volume   1158.58372614
_cell_formula_units_Z   6
loop_
 _symmetry_equiv_pos_site_id
 _symmetry_equiv_pos_as_xyz
  1  'x, y, z'
loop_
 _atom_site_type_symbol
 _atom_site_label
 _atom_site_symmetry_multiplicity
 _atom_site_fract_x
 _atom_site_fract_y
 _atom_site_fract_z
 _atom_site_occupancy
  Ba  Ba0  1  0.00000000  0.00000000  0.49979400  1
  Ba  Ba1  1  0.00000000  0.00000000  0.99979400  1
  Ba  Ba2  1  0.33333300  0.66666700  0.52659800  1
  Ba  Ba3  1  0.66666700  0.33333300  0.02659800  1
  Ba  Ba4  1  0.66666700  0.33333300  0.52576400  1
  Ba  Ba5  1  0.33333300  0.66666700  0.02576400  1
  Ti  Ti0  1  0.66701600  0.66657200  0.51722500  1
  Ti  Ti1  1  0.33342800  0.00044300  0.51722500  1
  Ti  Ti2  1  0.99955700  0.33298400  0.51722500  1
  Ti  Ti3  1  0.66657200  0.66701600  0.01722500  1
  Ti  Ti4  1  0.00044300  0.33342800  0.01722500  1
  Ti  Ti5  1  0.33298400  0.99955700  0.01722500  1
  Si  Si0  1  0.28348100  0.16343000  0.76224300  1
  Si  Si1  1  0.83657000  0.12005100  0.76224300  1
  Si  Si2  1  0.87994900  0.71651900  0.76224300  1
  Si  Si3  1  0.16343000  0.28348100  0.26224300  1
  Si  Si4  1  0.12005100  0.83657000  0.26224300  1
  Si  Si5  1  0.71651900  0.87994900  0.26224300  1
  Si  Si6  1  0.50275000  0.45253300  0.76938900  1
  Si  Si7  1  0.54746700  0.05021700  0.76938900  1
  Si  Si8  1  0.94978300  0.49725000  0.76938900  1
  Si  Si9  1  0.45253300  0.50275000  0.26938900  1
  Si  Si10  1  0.05021700  0.54746700  0.26938900  1
  Si  Si11  1  0.49725000  0.94978300  0.26938900  1
  Si  Si12  1  0.83137700  0.61745100  0.26947400  1
  Si  Si13  1  0.38254900  0.21392600  0.26947400  1
  Si  Si14  1  0.78607400  0.16862300  0.26947400  1
  Si  Si15  1  0.61745100  0.83137700  0.76947400  1
  Si  Si16  1  0.21392600  0.38254900  0.76947400  1
  Si  Si17  1  0.16862300  0.78607400  0.76947400  1
  O  O0  1  0.95645800  0.77216300  0.27443400  1
  O  O1  1  0.22783700  0.18429400  0.27443400  1
  O  O2  1  0.81570600  0.04354200  0.27443400  1
  O  O3  1  0.77216300  0.95645800  0.77443400  1
  O  O4  1  0.18429400  0.22783700  0.77443400  1
  O  O5  1  0.04354200  0.81570600  0.77443400  1
  O  O6  1  0.37791600  0.48232100  0.76614200  1
  O  O7  1  0.51767900  0.89559400  0.76614200  1
  O  O8  1  0.10440600  0.62208400  0.76614200  1
  O  O9  1  0.48232100  0.37791600  0.26614200  1
  O  O10  1  0.89559400  0.51767900  0.26614200  1
  O  O11  1  0.62208400  0.10440600  0.26614200  1
  O  O12  1  0.43822000  0.28889500  0.76037200  1
  O  O13  1  0.71110500  0.14932500  0.76037200  1
  O  O14  1  0.85067500  0.56178000  0.76037200  1
  O  O15  1  0.28889500  0.43822000  0.26037200  1
  O  O16  1  0.14932500  0.71110500  0.26037200  1
  O  O17  1  0.56178000  0.85067500  0.26037200  1
  O  O18  1  0.59728400  0.51130500  0.63696500  1
  O  O19  1  0.48869500  0.08597900  0.63696500  1
  O  O20  1  0.91402100  0.40271600  0.63696500  1
  O  O21  1  0.51130500  0.59728400  0.13696500  1
  O  O22  1  0.08597900  0.48869500  0.13696500  1
  O  O23  1  0.40271600  0.91402100  0.13696500  1
  O  O24  1  0.58630900  0.74595600  0.63069300  1
  O  O25  1  0.25404400  0.84035400  0.63069300  1
  O  O26  1  0.15964600  0.41369100  0.63069300  1
  O  O27  1  0.74595600  0.58630900  0.13069300  1
  O  O28  1  0.84035400  0.25404400  0.13069300  1
  O  O29  1  0.41369100  0.15964600  0.13069300  1
  O  O30  1  0.24334500  0.07688800  0.62374300  1
  O  O31  1  0.92311200  0.16645700  0.62374300  1
  O  O32  1  0.83354300  0.75665500  0.62374300  1
  O  O33  1  0.07688800  0.24334500  0.12374300  1
  O  O34  1  0.16645700  0.92311200  0.12374300  1
  O  O35  1  0.75665500  0.83354300  0.12374300  1
  O  O36  1  0.18034500  0.92776700  0.39630000  1
  O  O37  1  0.07223300  0.25257800  0.39630000  1
  O  O38  1  0.74742200  0.81965500  0.39630000  1
  O  O39  1  0.92776700  0.18034500  0.89630000  1
  O  O40  1  0.25257800  0.07223300  0.89630000  1
  O  O41  1  0.81965500  0.74742200  0.89630000  1
  O  O42  1  0.50021100  0.58550800  0.41020900  1
  O  O43  1  0.41449200  0.91470300  0.41020900  1
  O  O44  1  0.08529700  0.49978900  0.41020900  1
  O  O45  1  0.58550800  0.50021100  0.91020900  1
  O  O46  1  0.91470300  0.41449200  0.91020900  1
  O  O47  1  0.49978900  0.08529700  0.91020900  1
  O  O48  1  0.73983000  0.57732300  0.40466000  1
  O  O49  1  0.42267700  0.16250700  0.40466000  1
  O  O50  1  0.83749300  0.26017000  0.40466000  1
  O  O51  1  0.57732300  0.73983000  0.90466000  1
  O  O52  1  0.16250700  0.42267700  0.90466000  1
  O  O53  1  0.26017000  0.83749300  0.90466000  1
loop_
_geom_bond_atom_site_label_1
_geom_bond_atom_site_label_2
_geom_bond_distance
_geom_bond_site_symmetry_2
Ba0 O32 2.789546 1_445
Ba0 O30 2.789546 1_555
Ba0 O31 2.789546 1_455
Ba0 O38 2.813351 1_445
Ba0 O37 2.813351 1_555
Ba0 O36 2.813351 1_545
Ba1 O35 2.789546 1_446
Ba1 O33 2.789546 1_556
Ba1 O34 2.789546 1_546
Ba1 O41 2.813351 1_445
Ba1 O40 2.813351 1_555
Ba1 O39 2.813351 1_455
Ba2 O43 2.795505 1_555
Ba2 O44 2.795507 1_555
Ba2 O42 2.795515 1_555
Ba2 O26 2.802435 1_555
Ba2 O24 2.802435 1_555
Ba2 O25 2.802435 1_555
Ba3 O46 2.795505 1_554
Ba3 O47 2.795507 1_554
Ba3 O45 2.795515 1_554
Ba3 O29 2.802435 1_555
Ba3 O27 2.802435 1_555
Ba3 O28 2.802435 1_555
Ba4 O50 2.792213 1_555
Ba4 O49 2.792220 1_555
Ba4 O48 2.792223 1_555
Ba4 O20 2.795594 1_555
Ba4 O19 2.795596 1_555
Ba4 O18 2.795604 1_555
Ba5 O53 2.792213 1_554
Ba5 O52 2.792220 1_554
Ba5 O51 2.792223 1_554
Ba5 O23 2.795594 1_555
Ba5 O22 2.795596 1_555
Ba5 O21 2.795604 1_555
O0 Si12 1.654912 1_555
O0 Si4 1.664470 1_655
O1 Si13 1.654908 1_555
O1 Si3 1.664481 1_555
O2 Si14 1.654919 1_555
O2 Si5 1.664471 1_545
O3 Si15 1.654912 1_555
O3 Si1 1.664470 1_565
O4 Si16 1.654908 1_555
O4 Si0 1.664481 1_555
O5 Si17 1.654919 1_555
O5 Si2 1.664471 1_455
O6 Si6 1.652855 1_555
O6 Si16 1.664946 1_555
O7 Si7 1.652867 1_565
O7 Si15 1.664937 1_555
O8 Si8 1.652863 1_455
O8 Si17 1.664947 1_555
O9 Si9 1.652855 1_555
O9 Si13 1.664946 1_555
O10 Si10 1.652867 1_655
O10 Si12 1.664937 1_555
O11 Si11 1.652863 1_545
O11 Si14 1.664947 1_555
O12 Si0 1.655995 1_555
O12 Si6 1.662798 1_555
O13 Si1 1.655995 1_555
O13 Si7 1.662798 1_555
O14 Si2 1.655995 1_555
O14 Si8 1.662798 1_555
O15 Si3 1.655995 1_555
O15 Si9 1.662798 1_555
O16 Si4 1.655995 1_555
O16 Si10 1.662798 1_555
O17 Si5 1.655995 1_555
O17 Si11 1.662798 1_555
O18 Si6 1.624777 1_555
O18 Ti0 1.963836 1_555
O19 Si7 1.624777 1_555
O19 Ti1 1.963837 1_555
O20 Si8 1.624777 1_555
O20 Ti2 1.963845 1_555
O21 Si9 1.624777 1_555
O21 Ti3 1.963836 1_555
O22 Si10 1.624777 1_555
O22 Ti4 1.963837 1_555
O23 Si11 1.624777 1_555
O23 Ti5 1.963845 1_555
O24 Si15 1.625540 1_555
O24 Ti0 1.964566 1_555
O25 Si17 1.625541 1_555
O25 Ti1 1.964549 1_565
O26 Si16 1.625545 1_555
O26 Ti2 1.964549 1_455
O27 Si12 1.625540 1_555
O27 Ti3 1.964566 1_555
O28 Si14 1.625541 1_555
O28 Ti4 1.964549 1_655
O29 Si13 1.625545 1_555
O29 Ti5 1.964549 1_545
O30 Si0 1.624051 1_555
O30 Ti1 1.982292 1_555
O31 Si1 1.624051 1_555
O31 Ti2 1.982283 1_555
O32 Si2 1.624051 1_555
O32 Ti0 1.982283 1_555
O33 Si3 1.624051 1_555
O33 Ti4 1.982292 1_555
O34 Si4 1.624051 1_555
O34 Ti5 1.982283 1_555
O35 Si5 1.624051 1_555
O35 Ti3 1.982283 1_555
O36 Si4 1.622005 1_555
O36 Ti1 1.951873 1_565
O37 Si3 1.622005 1_555
O37 Ti2 1.951865 1_455
O38 Si5 1.622005 1_555
O38 Ti0 1.951872 1_555
O39 Si1 1.622005 1_555
O39 Ti4 1.951873 1_656
O40 Si0 1.622005 1_555
O40 Ti5 1.951865 1_546
O41 Si2 1.622005 1_555
O41 Ti3 1.951872 1_556
O42 Si9 1.624801 1_555
O42 Ti0 1.985875 1_555
O43 Si11 1.624801 1_555
O43 Ti1 1.985866 1_565
O44 Si10 1.624801 1_555
O44 Ti2 1.985875 1_455
O45 Si6 1.624801 1_555
O45 Ti3 1.985875 1_556
O46 Si8 1.624801 1_555
O46 Ti4 1.985866 1_656
O47 Si7 1.624801 1_555
O47 Ti5 1.985875 1_546
O48 Si12 1.625492 1_555
O48 Ti0 1.978150 1_555
O49 Si13 1.625492 1_555
O49 Ti1 1.978158 1_555
O50 Si14 1.625492 1_555
O50 Ti2 1.978158 1_555
O51 Si15 1.625492 1_555
O51 Ti3 1.978150 1_556
O52 Si16 1.625492 1_555
O52 Ti4 1.978158 1_556
O53 Si17 1.625492 1_555
O53 Ti5 1.978158 1_556
