# generated using pymatgen
data_Sr4Ir3O10
_symmetry_space_group_name_H-M   'P 1'
_cell_length_a   14.66336282
_cell_length_b   14.66336282
_cell_length_c   14.66336282
_cell_angle_alpha   164.37206630
_cell_angle_beta   164.37206630
_cell_angle_gamma   22.17085114
_symmetry_Int_Tables_number   1
_chemical_formula_structural   Sr4Ir3O10
_chemical_formula_sum   'Sr4 Ir3 O10'
_cell_volume   228.76237939
_cell_formula_units_Z   1
loop_
 _symmetry_equiv_pos_site_id
 _symmetry_equiv_pos_as_xyz
  1  'x, y, z'
loop_
 _atom_site_type_symbol
 _atom_site_label
 _atom_site_symmetry_multiplicity
 _atom_site_fract_x
 _atom_site_fract_y
 _atom_site_fract_z
 _atom_site_occupancy
  Sr  Sr0  1  0.29831400  0.29831400  0.00000000  1
  Sr  Sr1  1  0.70168600  0.70168600  0.00000000  1
  Sr  Sr2  1  0.43109600  0.43109600  0.00000000  1
  Sr  Sr3  1  0.56890400  0.56890400  0.00000000  1
  Ir  Ir0  1  0.14251000  0.14251000  0.00000000  1
  Ir  Ir1  1  0.85749000  0.85749000  0.00000000  1
  Ir  Ir2  1  0.00000000  0.00000000  0.00000000  1
  O  O0  1  0.21298900  0.21298900  0.00000000  1
  O  O1  1  0.78701100  0.78701100  0.00000000  1
  O  O2  1  0.63712100  0.13712100  0.50000000  1
  O  O3  1  0.36287900  0.86287900  0.50000000  1
  O  O4  1  0.13712100  0.63712100  0.50000000  1
  O  O5  1  0.86287900  0.36287900  0.50000000  1
  O  O6  1  0.06975600  0.06975600  0.00000000  1
  O  O7  1  0.93024400  0.93024400  0.00000000  1
  O  O8  1  0.50000000  0.00000000  0.50000000  1
  O  O9  1  0.00000000  0.50000000  0.50000000  1
loop_
_geom_bond_atom_site_label_1
_geom_bond_atom_site_label_2
_geom_bond_distance
_geom_bond_site_symmetry_2
Ir0 O4 1.999612 1_544
Ir0 O2 1.999612 1_555
Ir0 O2 1.999612 1_454
Ir0 O4 1.999612 1_555
Ir0 O0 2.028353 1_555
Ir0 O6 2.093826 1_555
Ir1 O5 1.999612 1_565
Ir1 O3 1.999612 1_554
Ir1 O5 1.999612 1_554
Ir1 O3 1.999612 1_655
Ir1 O1 2.028353 1_555
Ir1 O7 2.093826 1_555
Ir2 O8 1.993588 1_555
Ir2 O9 1.993588 1_555
Ir2 O8 1.993588 1_454
Ir2 O9 1.993588 1_544
Ir2 O6 2.007545 1_555
Ir2 O7 2.007545 1_445
O0 Sr0 2.455614 1_555
O0 Sr1 2.838063 1_444
O0 Sr1 2.838063 1_545
O0 Sr1 2.838063 1_455
O0 Sr1 2.838063 1_556
O1 Sr1 2.455614 1_555
O1 Sr0 2.838063 1_666
O1 Sr0 2.838063 1_565
O1 Sr0 2.838063 1_655
O1 Sr0 2.838063 1_554
O2 Sr1 2.725274 1_556
O2 Sr1 2.725274 1_545
O2 Sr3 2.797992 1_556
O2 Sr3 2.797992 1_545
O3 Sr0 2.725274 1_566
O3 Sr0 2.725274 1_555
O3 Sr2 2.797992 1_555
O3 Sr2 2.797992 1_566
O4 Sr1 2.725274 1_556
O4 Sr1 2.725274 1_455
O4 Sr3 2.797992 1_455
O4 Sr3 2.797992 1_556
O5 Sr0 2.725274 1_555
O5 Sr0 2.725274 1_656
O5 Sr2 2.797992 1_656
O5 Sr2 2.797992 1_555
O6 Sr3 2.819466 1_444
O6 Sr3 2.819466 1_545
O6 Sr3 2.819466 1_556
O6 Sr3 2.819466 1_455
O7 Sr2 2.819466 1_565
O7 Sr2 2.819466 1_655
O7 Sr2 2.819466 1_554
O7 Sr2 2.819466 1_666
O8 Sr3 2.811900 1_545
O8 Sr3 2.811900 1_556
O8 Sr2 2.811900 1_556
O8 Sr2 2.811900 1_545
O9 Sr3 2.811900 1_556
O9 Sr2 2.811900 1_556
O9 Sr3 2.811900 1_455
O9 Sr2 2.811900 1_455
