# generated using pymatgen
data_Mg2Si3
_symmetry_space_group_name_H-M   'P 1'
_cell_length_a   16.61867011
_cell_length_b   4.17655210
_cell_length_c   5.55028813
_cell_angle_alpha   111.64962414
_cell_angle_beta   88.71387483
_cell_angle_gamma   89.89665976
_symmetry_Int_Tables_number   1
_chemical_formula_structural   Mg2Si3
_chemical_formula_sum   'Mg8 Si12'
_cell_volume   357.95146419
_cell_formula_units_Z   4
loop_
 _symmetry_equiv_pos_site_id
 _symmetry_equiv_pos_as_xyz
  1  'x, y, z'
loop_
 _atom_site_type_symbol
 _atom_site_label
 _atom_site_symmetry_multiplicity
 _atom_site_fract_x
 _atom_site_fract_y
 _atom_site_fract_z
 _atom_site_occupancy
  Mg  Mg0  1  0.73868600  0.90563000  0.71083800  1
  Mg  Mg1  1  0.26168100  0.69416000  0.28951300  1
  Mg  Mg2  1  0.93518600  0.04570000  0.99721700  1
  Mg  Mg3  1  0.06411500  0.55360300  0.00067300  1
  Mg  Mg4  1  0.23857300  0.40451500  0.70828200  1
  Mg  Mg5  1  0.76176000  0.19546200  0.29215200  1
  Mg  Mg6  1  0.43539800  0.54535800  0.99656000  1
  Mg  Mg7  1  0.56419000  0.05543800  0.00475500  1
  Si  Si0  1  0.92970200  0.34792900  0.59081000  1
  Si  Si1  1  0.07039000  0.25146500  0.40807000  1
  Si  Si2  1  0.88090400  0.74983500  0.39061900  1
  Si  Si3  1  0.11969800  0.84908500  0.60746000  1
  Si  Si4  1  0.32535400  0.02398800  0.96060500  1
  Si  Si5  1  0.67426300  0.57676200  0.04092800  1
  Si  Si6  1  0.42950100  0.84752500  0.59000200  1
  Si  Si7  1  0.57056200  0.75325100  0.41187700  1
  Si  Si8  1  0.38088600  0.24911800  0.38916200  1
  Si  Si9  1  0.61971800  0.35085500  0.61116600  1
  Si  Si10  1  0.82533800  0.52466600  0.96198700  1
  Si  Si11  1  0.17419500  0.07522600  0.03748400  1
loop_
_geom_bond_atom_site_label_1
_geom_bond_atom_site_label_2
_geom_bond_distance
_geom_bond_site_symmetry_2
Mg0 Si2 2.849701 1_555
Mg0 Si10 2.854052 1_565
Mg0 Si5 2.857173 1_556
Mg0 Si10 2.875210 1_555
Mg0 Si9 2.909906 1_565
Mg0 Si5 2.910608 1_566
Mg0 Si9 2.950162 1_555
Mg0 Si7 3.224923 1_555
Mg1 Si3 2.839973 1_555
Mg1 Si4 2.850260 1_564
Mg1 Si11 2.861747 1_555
Mg1 Si11 2.886038 1_565
Mg1 Si4 2.901568 1_554
Mg1 Si8 2.911999 1_555
Mg1 Si8 2.953384 1_565
Mg1 Si6 3.224448 1_555
Mg2 Si10 2.768386 1_555
Mg2 Si10 2.796908 1_545
Mg2 Si0 2.957894 1_545
Mg2 Si0 2.966383 1_555
Mg2 Mg3 2.971599 1_646
Mg2 Si2 3.002467 1_546
Mg2 Mg3 3.013185 1_656
Mg2 Si0 3.061646 1_556
Mg2 Si2 3.064966 1_556
Mg2 Si1 3.127003 1_656
Mg3 Si11 2.772192 1_555
Mg3 Si11 2.799526 1_565
Mg3 Si1 2.961045 1_565
Mg3 Si1 2.971807 1_555
Mg3 Si3 3.006699 1_554
Mg3 Si1 3.056661 1_554
Mg3 Si3 3.071761 1_544
Mg3 Si0 3.113799 1_454
Mg4 Si8 2.847822 1_555
Mg4 Si11 2.854175 1_556
Mg4 Si4 2.857571 1_565
Mg4 Si4 2.879537 1_555
Mg4 Si11 2.907753 1_566
Mg4 Si3 2.909736 1_555
Mg4 Si3 2.950530 1_545
Mg4 Si1 3.229016 1_555
Mg5 Si9 2.843842 1_555
Mg5 Si10 2.853479 1_554
Mg5 Si5 2.860392 1_545
Mg5 Si5 2.883722 1_555
Mg5 Si10 2.904780 1_544
Mg5 Si2 2.910149 1_545
Mg5 Si2 2.951525 1_555
Mg5 Si0 3.221494 1_555
Mg6 Si4 2.770906 1_565
Mg6 Si4 2.799290 1_555
Mg6 Si6 2.958760 1_545
Mg6 Si6 2.967300 1_555
Mg6 Mg7 2.971070 1_556
Mg6 Si8 3.000753 1_556
Mg6 Mg7 3.011809 1_566
Mg6 Si6 3.060910 1_556
Mg6 Si8 3.063376 1_566
Mg6 Si7 3.142579 1_556
Mg7 Si5 2.771795 1_545
Mg7 Si5 2.799219 1_555
Mg7 Si7 2.960376 1_555
Mg7 Si7 2.970633 1_545
Mg7 Si9 3.008065 1_554
Mg7 Si7 3.058088 1_544
Mg7 Si9 3.072423 1_544
Mg7 Si6 3.134778 1_544
Si0 Si2 2.474185 1_555
Si0 Si2 2.476266 1_545
Si0 Si1 2.499228 1_655
Si0 Si10 2.551486 1_555
Si1 Si3 2.475583 1_545
Si1 Si3 2.477116 1_555
Si1 Si11 2.543121 1_555
Si4 Si8 2.417648 1_556
Si4 Si6 2.546929 1_545
Si5 Si9 2.416840 1_554
Si5 Si7 2.543355 1_555
Si6 Si8 2.474608 1_565
Si6 Si8 2.476643 1_555
Si6 Si7 2.496667 1_555
Si7 Si9 2.474387 1_555
Si7 Si9 2.476149 1_565
Si10 Si2 2.418234 1_556
Si10 Si5 2.533981 1_556
Si11 Si3 2.417787 1_544
Si11 Si4 2.533947 1_554
