# generated using pymatgen
data_Li6V3P8O29
_symmetry_space_group_name_H-M   'P 1'
_cell_length_a   9.82940140
_cell_length_b   9.87657689
_cell_length_c   13.96112131
_cell_angle_alpha   89.76629645
_cell_angle_beta   90.46394653
_cell_angle_gamma   59.84102882
_symmetry_Int_Tables_number   1
_chemical_formula_structural   Li6V3P8O29
_chemical_formula_sum   'Li12 V6 P16 O58'
_cell_volume   1171.79868441
_cell_formula_units_Z   2
loop_
 _symmetry_equiv_pos_site_id
 _symmetry_equiv_pos_as_xyz
  1  'x, y, z'
loop_
 _atom_site_type_symbol
 _atom_site_label
 _atom_site_symmetry_multiplicity
 _atom_site_fract_x
 _atom_site_fract_y
 _atom_site_fract_z
 _atom_site_occupancy
  Li  Li0  1  0.76710779  0.90680705  0.55929893  1
  Li  Li1  1  0.67816527  0.66021676  0.38482029  1
  Li  Li2  1  0.67363045  0.66647303  0.88778044  1
  Li  Li3  1  0.77374777  0.31344063  0.06167085  1
  Li  Li4  1  0.31485714  0.91014597  0.06269989  1
  Li  Li5  1  0.66361005  0.23543460  0.43882210  1
  Li  Li6  1  0.32403598  0.76496195  0.56098092  1
  Li  Li7  1  0.68704542  0.08768006  0.93980754  1
  Li  Li8  1  0.22122239  0.68588959  0.94542548  1
  Li  Li9  1  0.23326658  0.10576201  0.43927547  1
  Li  Li10  1  0.09253755  0.22629778  0.94049023  1
  Li  Li11  1  0.99847538  0.99771606  0.49423336  1
  V  V0  1  0.56667384  0.43139981  0.24947453  1
  V  V1  1  0.43383893  0.56223299  0.74947787  1
  V  V2  1  0.56853783  0.99827666  0.74870635  1
  V  V3  1  0.43071853  0.00332861  0.24696256  1
  V  V4  1  0.00511540  0.56537565  0.25209169  1
  V  V5  1  0.99956028  0.43861141  0.74447663  1
  P  P0  1  0.91450869  0.76841277  0.84263185  1
  P  P1  1  0.77557650  0.90885323  0.34152859  1
  P  P2  1  0.91395369  0.30974592  0.34156549  1
  P  P3  1  0.66744859  0.66449318  0.12893496  1
  P  P4  1  0.66386014  0.66835243  0.62710133  1
  P  P5  1  0.77286257  0.31824876  0.84027230  1
  P  P6  1  0.68384206  0.22771156  0.65648992  1
  P  P7  1  0.32257421  0.90675803  0.84323123  1
  P  P8  1  0.68025796  0.08813377  0.15760406  1
  P  P9  1  0.31919333  0.77540673  0.34329852  1
  P  P10  1  0.22783971  0.68462934  0.16078198  1
  P  P11  1  0.33460355  0.32832048  0.37317224  1
  P  P12  1  0.33507537  0.33291671  0.87108518  1
  P  P13  1  0.08196897  0.69284732  0.65518607  1
  P  P14  1  0.22684832  0.08759618  0.65939726  1
  P  P15  1  0.08395935  0.23668947  0.15586632  1
  O  O0  1  0.99101344  0.79346280  0.57118897  1
  O  O1  1  0.91755888  0.74460367  0.34047526  1
  O  O2  1  0.74759249  0.00826093  0.06616279  1
  O  O3  1  0.74442472  0.91611011  0.83985324  1
  O  O4  1  0.89120444  0.62535225  0.82700982  1
  O  O5  1  0.81326701  0.66023123  0.17745197  1
  O  O6  1  0.89977955  0.47232995  0.33591912  1
  O  O7  1  0.99684956  0.24452312  0.06472337  1
  O  O8  1  0.92136931  0.33298399  0.84159114  1
  O  O9  1  0.67139928  0.81504014  0.66355512  1
  O  O10  1  0.62448652  0.89753217  0.33064286  1
  O  O11  1  0.81118553  0.52124419  0.67191131  1
  O  O12  1  0.66830091  0.66414236  0.02133090  1
  O  O13  1  0.65964438  0.67041575  0.51980909  1
  O  O14  1  0.66905801  0.51158924  0.16503012  1
  O  O15  1  0.48918217  0.88153925  0.82540619  1
  O  O16  1  0.51368145  0.81384168  0.16477440  1
  O  O17  1  0.74271716  0.33650767  0.34015671  1
  O  O18  1  0.79160269  0.21070207  0.74934702  1
  O  O19  1  0.76578345  0.22137846  0.56550077  1
  O  O20  1  0.75423459  0.24373739  0.92956363  1
  O  O21  1  0.62801443  0.48533391  0.82354265  1
  O  O22  1  0.51246417  0.67106753  0.66657799  1
  O  O23  1  0.66251931  0.25353377  0.16123867  1
  O  O24  1  0.48238884  0.62699051  0.33143980  1
  O  O25  1  0.34236319  0.92052674  0.33672462  1
  O  O26  1  0.79015265  0.99921161  0.24884605  1
  O  O27  1  0.77393488  0.00073946  0.42913658  1
  O  O28  1  0.23094480  0.99980677  0.57007448  1
  O  O29  1  0.66503567  0.08042459  0.66290774  1
  O  O30  1  0.52555164  0.37992562  0.67061658  1
  O  O31  1  0.33417872  0.74527042  0.84467129  1
  O  O32  1  0.48569914  0.32556524  0.33444780  1
  O  O33  1  0.38195023  0.52584412  0.18193593  1
  O  O34  1  0.24745614  0.75700858  0.07085523  1
  O  O35  1  0.23237622  0.78681460  0.43315885  1
  O  O36  1  0.21237145  0.79347216  0.25101979  1
  O  O37  1  0.25001264  0.66831809  0.65897591  1
  O  O38  1  0.48355348  0.18538136  0.83163688  1
  O  O39  1  0.51997839  0.09870920  0.17976407  1
  O  O40  1  0.33690159  0.48299089  0.82768423  1
  O  O41  1  0.33190509  0.34027986  0.97724210  1
  O  O42  1  0.33418343  0.32383382  0.47964687  1
  O  O43  1  0.18666478  0.47699533  0.32676882  1
  O  O44  1  0.38549198  0.08443998  0.67571694  1
  O  O45  1  0.32521680  0.18501533  0.33161356  1
  O  O46  1  0.08697110  0.66226074  0.16235513  1
  O  O47  1  0.99714854  0.79144855  0.75041028  1
  O  O48  1  0.00558276  0.76109951  0.92927028  1
  O  O49  1  0.08686158  0.53485090  0.66612595  1
  O  O50  1  0.18266319  0.33983609  0.82737140  1
  O  O51  1  0.09875033  0.38052539  0.17280597  1
  O  O52  1  0.24779273  0.08404902  0.15816128  1
  O  O53  1  0.24660036  0.00150509  0.93125112  1
  O  O54  1  0.21226924  0.99656607  0.75146220  1
  O  O55  1  0.08970056  0.25350826  0.66206261  1
  O  O56  1  0.00708925  0.20286888  0.42292368  1
  O  O57  1  0.98855654  0.21734109  0.24329141  1
loop_
_geom_bond_atom_site_label_1
_geom_bond_atom_site_label_2
_geom_bond_distance
_geom_bond_site_symmetry_2
Li0 O0 1.908268 1_555
Li0 O27 2.053832 1_565
Li0 O29 2.086717 1_565
Li0 O9 2.166383 1_555
Li1 O13 1.893057 1_555
Li1 O6 2.151164 1_555
Li1 O24 2.231496 1_555
Li1 O10 2.254028 1_555
Li2 O12 1.866047 1_556
Li2 O4 2.148938 1_555
Li2 O15 2.155693 1_555
Li2 O21 2.240220 1_555
Li3 O7 1.942316 1_555
Li3 O20 2.012389 1_554
Li3 O23 2.036078 1_555
Li3 O14 2.234888 1_555
Li4 O34 1.935489 1_555
Li4 O53 1.997606 1_564
Li4 O52 2.013962 1_565
Li4 O16 2.197945 1_555
Li5 O19 1.996221 1_555
Li5 O27 2.011590 1_555
Li5 O17 2.069943 1_555
Li5 O32 2.087563 1_555
Li6 O35 1.954054 1_555
Li6 O37 2.003887 1_555
Li6 O28 2.026085 1_555
Li6 O22 2.163934 1_555
Li7 O2 1.893150 1_556
Li7 O20 1.963367 1_555
Li7 O3 2.051484 1_545
Li7 O38 2.283074 1_555
Li8 O48 1.871961 1_555
Li8 O34 1.952200 1_556
Li8 O31 2.056259 1_555
Li8 O40 2.403824 1_555
Li9 O56 1.939602 1_555
Li9 O45 2.100499 1_555
Li9 O28 2.106978 1_545
Li9 O25 2.149829 1_545
Li10 O7 1.945291 1_456
Li10 O53 1.966296 1_555
Li10 O8 2.004156 1_455
Li10 O50 2.354297 1_555
Li11 O56 2.293714 1_665
Li11 O0 2.315502 1_555
Li11 O35 2.363471 1_655
Li11 O27 2.366265 1_565
Li11 O19 2.465589 1_565
Li11 O28 2.520185 1_655
O0 P13 1.497610 1_655
O1 P1 1.518291 1_555
O1 V4 1.975092 1_655
O2 P8 1.478989 1_555
O3 P0 1.572402 1_555
O3 V2 1.952696 1_555
O4 P0 1.556721 1_555
O4 V5 1.981701 1_555
O5 P3 1.561528 1_555
O5 V4 1.924759 1_655
O6 P2 1.542118 1_555
O6 V4 2.062308 1_655
O7 P15 1.507735 1_655
O8 P5 1.537981 1_555
O8 V5 2.080457 1_555
O9 P4 1.573763 1_555
O9 V2 1.977160 1_555
O10 P1 1.550655 1_555
O10 V3 2.009620 1_565
O11 P4 1.569464 1_555
O11 V5 1.888215 1_555
O12 P3 1.502373 1_555
O13 P4 1.497930 1_555
O14 P3 1.582548 1_555
O14 V0 1.960208 1_555
O15 P7 1.550205 1_555
O15 V2 1.997877 1_555
O16 P3 1.577560 1_555
O16 V3 1.995810 1_565
O17 P2 1.567053 1_555
O17 V0 1.949557 1_555
O18 P5 1.609906 1_555
O18 P6 1.621106 1_555
O19 P6 1.494297 1_555
O20 P5 1.503575 1_555
O21 P5 1.560632 1_555
O21 V1 1.947815 1_555
O22 P4 1.578707 1_555
O22 V1 1.982749 1_555
O23 P8 1.554413 1_555
O23 V0 1.965856 1_555
O24 P9 1.546900 1_555
O24 V0 2.037857 1_555
O25 P9 1.562647 1_555
O25 V3 1.927804 1_565
O26 P8 1.605045 1_565
O26 P1 1.616581 1_555
O27 P1 1.521349 1_545
O28 P14 1.510990 1_565
O29 P6 1.558117 1_555
O29 V2 1.943328 1_545
O30 P6 1.541714 1_555
O30 V1 1.915250 1_555
O31 P7 1.540832 1_555
O31 V1 2.062821 1_555
O32 P11 1.572037 1_555
O32 V0 1.993648 1_555
O33 P10 1.563093 1_555
O33 V0 1.821898 1_555
O34 P10 1.503172 1_555
O35 P9 1.495559 1_555
O36 P9 1.606877 1_555
O36 P10 1.617343 1_555
O37 P13 1.544741 1_555
O37 V1 2.002271 1_555
O38 P12 1.561827 1_555
O38 V2 1.983751 1_545
O39 P8 1.559323 1_555
O39 V3 1.836836 1_555
O40 P12 1.607491 1_555
O40 V1 1.863261 1_555
O41 P12 1.483961 1_555
O42 P11 1.487086 1_555
O43 P11 1.588051 1_555
O43 V4 1.852214 1_555
O44 P14 1.558804 1_555
O44 V2 1.850556 1_545
O45 P11 1.576533 1_555
O45 V3 1.964556 1_555
O46 P10 1.508106 1_555
O46 V4 1.978062 1_555
O47 P0 1.602978 1_555
O47 P13 1.619744 1_655
O48 P0 1.478664 1_455
O49 P13 1.543768 1_555
O49 V5 1.913813 1_455
O50 P12 1.582237 1_555
O50 V5 1.929545 1_455
O51 P15 1.518191 1_555
O51 V4 1.936515 1_555
O52 P15 1.557713 1_555
O52 V3 1.980170 1_555
O53 P7 1.505162 1_545
O54 P14 1.613673 1_565
O54 P7 1.614217 1_555
O55 P14 1.511799 1_555
O55 V5 1.963985 1_455
O56 P2 1.498291 1_455
O57 P15 1.613177 1_655
O57 P2 1.614661 1_555
