# generated using pymatgen
data_Mo2W(Se2S)2
_symmetry_space_group_name_H-M   'P 1'
_cell_length_a   3.27858037
_cell_length_b   3.27858037
_cell_length_c   30.17307500
_cell_angle_alpha   90.00000000
_cell_angle_beta   90.00000000
_cell_angle_gamma   120.00000754
_symmetry_Int_Tables_number   1
_chemical_formula_structural   Mo2W(Se2S)2
_chemical_formula_sum   'Mo2 W1 Se4 S2'
_cell_volume   280.88066232
_cell_formula_units_Z   1
loop_
 _symmetry_equiv_pos_site_id
 _symmetry_equiv_pos_as_xyz
  1  'x, y, z'
loop_
 _atom_site_type_symbol
 _atom_site_label
 _atom_site_symmetry_multiplicity
 _atom_site_fract_x
 _atom_site_fract_y
 _atom_site_fract_z
 _atom_site_occupancy
  Mo  Mo0  1  0.00000000  0.00000000  0.11563600  1
  Mo  Mo1  1  0.33333300  0.66666700  0.34698700  1
  W  W0  1  0.00000000  0.00000000  0.57833400  1
  Se  Se0  1  0.33333300  0.66666700  0.05970000  1
  Se  Se1  1  0.33333300  0.66666700  0.52205500  1
  Se  Se2  1  0.33333300  0.66666700  0.17158700  1
  Se  Se3  1  0.33333300  0.66666700  0.63459000  1
  S  S0  1  0.00000000  0.00000000  0.39786700  1
  S  S1  1  0.00000000  0.00000000  0.29608400  1
loop_
_geom_bond_atom_site_label_1
_geom_bond_atom_site_label_2
_geom_bond_distance
_geom_bond_site_symmetry_2
Mo0 Se0 2.536052 1_545
Mo0 Se0 2.536054 1_445
Mo0 Se0 2.536054 1_555
Mo0 Se2 2.536353 1_545
Mo0 Se2 2.536355 1_445
Mo0 Se2 2.536355 1_555
Mo1 S0 2.437187 1_565
Mo1 S0 2.437189 1_555
Mo1 S0 2.437189 1_665
Mo1 S1 2.437624 1_565
Mo1 S1 2.437626 1_665
Mo1 S1 2.437626 1_555
Se1 W0 2.542951 1_565
Se1 W0 2.542953 1_555
Se1 W0 2.542953 1_665
Se3 W0 2.542488 1_565
Se3 W0 2.542490 1_555
Se3 W0 2.542490 1_665
