# generated using pymatgen
data_TbPaO4
_symmetry_space_group_name_H-M   'P 1'
_cell_length_a   6.57435876
_cell_length_b   6.57435876
_cell_length_c   6.57435876
_cell_angle_alpha   131.71499284
_cell_angle_beta   131.71499284
_cell_angle_gamma   70.67953889
_symmetry_Int_Tables_number   1
_chemical_formula_structural   TbPaO4
_chemical_formula_sum   'Tb2 Pa2 O8'
_cell_volume   155.10741166
_cell_formula_units_Z   2
loop_
 _symmetry_equiv_pos_site_id
 _symmetry_equiv_pos_as_xyz
  1  'x, y, z'
loop_
 _atom_site_type_symbol
 _atom_site_label
 _atom_site_symmetry_multiplicity
 _atom_site_fract_x
 _atom_site_fract_y
 _atom_site_fract_z
 _atom_site_occupancy
  Tb  Tb0  1  0.00000000  -0.00000000  -0.00000000  1
  Tb  Tb1  1  0.75000000  0.25000000  0.50000000  1
  Pa  Pa0  1  0.50000000  0.50000000  -0.00000000  1
  Pa  Pa1  1  0.25000000  0.75000000  0.50000000  1
  O  O0  1  0.37500000  0.38612522  0.51112522  1
  O  O1  1  0.87500000  0.86387478  0.48887478  1
  O  O2  1  0.13612522  0.12500000  0.51112522  1
  O  O3  1  0.61387478  0.12500000  0.98887478  1
  O  O4  1  0.87500000  0.38612522  0.01112522  1
  O  O5  1  0.61387478  0.62500000  0.48887478  1
  O  O6  1  0.37500000  0.86387478  0.98887478  1
  O  O7  1  0.13612522  0.62500000  0.01112522  1
loop_
_geom_bond_atom_site_label_1
_geom_bond_atom_site_label_2
_geom_bond_distance
_geom_bond_site_symmetry_2
O0 Pa0 2.292494 1_556
O0 Pa1 2.292494 1_555
O0 Tb1 2.361629 1_555
O0 Tb0 2.361629 1_555
O1 Pa1 2.292494 1_655
O1 Pa0 2.292494 1_555
O1 Tb1 2.361629 1_565
O1 Tb0 2.361629 1_666
O2 Pa0 2.292494 1_556
O2 Pa1 2.292494 1_545
O2 Tb1 2.361629 1_455
O2 Tb0 2.361629 1_555
O3 Pa1 2.292494 1_545
O3 Pa0 2.292494 1_556
O3 Tb1 2.361629 1_556
O3 Tb0 2.361629 1_656
O4 Pa1 2.292494 1_655
O4 Pa0 2.292494 1_555
O4 Tb0 2.361629 1_655
O4 Tb1 2.361629 1_554
O5 Pa1 2.292494 1_555
O5 Pa0 2.292494 1_555
O5 Tb0 2.361629 1_666
O5 Tb1 2.361629 1_555
O6 Pa0 2.292494 1_556
O6 Pa1 2.292494 1_555
O6 Tb1 2.361629 1_566
O6 Tb0 2.361629 1_566
O7 Pa1 2.292494 1_555
O7 Pa0 2.292494 1_555
O7 Tb1 2.361629 1_454
O7 Tb0 2.361629 1_565
