# generated using pymatgen
data_La(LuS2)3
_symmetry_space_group_name_H-M   'P 1'
_cell_length_a   3.93737766
_cell_length_b   10.94170426
_cell_length_c   11.17570495
_cell_angle_alpha   70.95859804
_cell_angle_beta   90.00000000
_cell_angle_gamma   90.00000000
_symmetry_Int_Tables_number   1
_chemical_formula_structural   La(LuS2)3
_chemical_formula_sum   'La2 Lu6 S12'
_cell_volume   455.12307355
_cell_formula_units_Z   2
loop_
 _symmetry_equiv_pos_site_id
 _symmetry_equiv_pos_as_xyz
  1  'x, y, z'
loop_
 _atom_site_type_symbol
 _atom_site_label
 _atom_site_symmetry_multiplicity
 _atom_site_fract_x
 _atom_site_fract_y
 _atom_site_fract_z
 _atom_site_occupancy
  La  La0  1  0.75000000  0.55217917  0.80274312  1
  La  La1  1  0.25000000  0.44782083  0.19725688  1
  Lu  Lu0  1  0.75000000  0.17768946  0.99955172  1
  Lu  Lu1  1  0.25000000  0.82231054  0.00044828  1
  Lu  Lu2  1  0.75000000  0.94670873  0.66580610  1
  Lu  Lu3  1  0.25000000  0.05329127  0.33419390  1
  Lu  Lu4  1  0.75000000  0.66175369  0.41075796  1
  Lu  Lu5  1  0.25000000  0.33824631  0.58924204  1
  S  S0  1  0.75000000  0.97767534  0.88865396  1
  S  S1  1  0.25000000  0.02232466  0.11134604  1
  S  S2  1  0.75000000  0.29904308  0.74863898  1
  S  S3  1  0.25000000  0.70095692  0.25136102  1
  S  S4  1  0.75000000  0.89163290  0.44437488  1
  S  S5  1  0.25000000  0.10836710  0.55562512  1
  S  S6  1  0.75000000  0.41844956  0.41087382  1
  S  S7  1  0.25000000  0.58155044  0.58912618  1
  S  S8  1  0.75000000  0.22608650  0.23145154  1
  S  S9  1  0.25000000  0.77391350  0.76854846  1
  S  S10  1  0.75000000  0.62396212  0.03626178  1
  S  S11  1  0.25000000  0.37603788  0.96373822  1
loop_
_geom_bond_atom_site_label_1
_geom_bond_atom_site_label_2
_geom_bond_distance
_geom_bond_site_symmetry_2
La0 S11 2.926562 1_555
La0 S11 2.926562 1_655
La0 S10 2.960589 1_556
La0 S2 3.021561 1_555
La0 S7 3.029472 1_555
La0 S7 3.029472 1_655
La0 S9 3.050085 1_555
La0 S9 3.050085 1_655
La1 S10 2.926562 1_455
La1 S10 2.926562 1_555
La1 S11 2.960589 1_554
La1 S3 3.021561 1_555
La1 S6 3.029472 1_455
La1 S6 3.029472 1_555
La1 S8 3.050085 1_455
La1 S8 3.050085 1_555
Lu0 S1 2.634519 1_556
Lu0 S1 2.634519 1_656
Lu0 S2 2.682670 1_555
Lu0 S8 2.809364 1_556
Lu0 S0 2.845230 1_545
Lu0 S11 2.859933 1_555
Lu0 S11 2.859933 1_655
Lu1 S0 2.634519 1_454
Lu1 S0 2.634519 1_554
Lu1 S3 2.682670 1_555
Lu1 S9 2.809364 1_554
Lu1 S1 2.845230 1_565
Lu1 S10 2.859933 1_555
Lu1 S10 2.859933 1_455
Lu2 S0 2.620671 1_555
Lu2 S5 2.664489 1_565
Lu2 S5 2.664489 1_665
Lu2 S9 2.711507 1_655
Lu2 S9 2.711507 1_555
Lu2 S4 2.731321 1_555
Lu3 S1 2.620671 1_555
Lu3 S4 2.664489 1_445
Lu3 S4 2.664489 1_545
Lu3 S8 2.711507 1_455
Lu3 S8 2.711507 1_555
Lu3 S5 2.731321 1_555
Lu4 S3 2.595079 1_555
Lu4 S3 2.595079 1_655
Lu4 S4 2.661639 1_555
Lu4 S6 2.661740 1_555
Lu4 S7 2.734596 1_555
Lu4 S7 2.734596 1_655
Lu5 S2 2.595079 1_555
Lu5 S2 2.595079 1_455
Lu5 S5 2.661639 1_555
Lu5 S7 2.661740 1_555
Lu5 S6 2.734596 1_455
Lu5 S6 2.734596 1_555
