# generated using pymatgen
data_Ta4Cr7Si8
_symmetry_space_group_name_H-M   'P 1'
_cell_length_a   4.83923000
_cell_length_b   13.19110400
_cell_length_c   15.84298400
_cell_angle_alpha   90.00000000
_cell_angle_beta   90.00000000
_cell_angle_gamma   90.00000000
_symmetry_Int_Tables_number   1
_chemical_formula_structural   Ta4Cr7Si8
_chemical_formula_sum   'Ta16 Cr28 Si32'
_cell_volume   1011.33349657
_cell_formula_units_Z   4
loop_
 _symmetry_equiv_pos_site_id
 _symmetry_equiv_pos_as_xyz
  1  'x, y, z'
loop_
 _atom_site_type_symbol
 _atom_site_label
 _atom_site_symmetry_multiplicity
 _atom_site_fract_x
 _atom_site_fract_y
 _atom_site_fract_z
 _atom_site_occupancy
  Ta  Ta0  1  0.75000000  0.43295300  0.69851800  1
  Ta  Ta1  1  0.75000000  0.93295300  0.80148200  1
  Ta  Ta2  1  0.25000000  0.56704700  0.30148200  1
  Ta  Ta3  1  0.25000000  0.06704700  0.19851800  1
  Ta  Ta4  1  0.75000000  0.13331900  0.54205100  1
  Ta  Ta5  1  0.75000000  0.63331900  0.95794900  1
  Ta  Ta6  1  0.25000000  0.86668100  0.45794900  1
  Ta  Ta7  1  0.25000000  0.36668100  0.04205100  1
  Ta  Ta8  1  0.75000000  0.24882000  0.97321200  1
  Ta  Ta9  1  0.75000000  0.74882000  0.52678800  1
  Ta  Ta10  1  0.25000000  0.75118000  0.02678800  1
  Ta  Ta11  1  0.25000000  0.25118000  0.47321200  1
  Ta  Ta12  1  0.75000000  0.04187900  0.09293500  1
  Ta  Ta13  1  0.75000000  0.54187900  0.40706500  1
  Ta  Ta14  1  0.25000000  0.95812100  0.90706500  1
  Ta  Ta15  1  0.25000000  0.45812100  0.59293500  1
  Cr  Cr0  1  0.75000000  0.18756700  0.24958700  1
  Cr  Cr1  1  0.75000000  0.68756700  0.25041300  1
  Cr  Cr2  1  0.25000000  0.81243300  0.75041300  1
  Cr  Cr3  1  0.25000000  0.31243300  0.74958700  1
  Cr  Cr4  1  0.00907300  0.13591900  0.82405100  1
  Cr  Cr5  1  0.49092700  0.63591900  0.67594900  1
  Cr  Cr6  1  0.50907300  0.86408100  0.17594900  1
  Cr  Cr7  1  0.99092700  0.36408100  0.32405100  1
  Cr  Cr8  1  0.99092700  0.86408100  0.17594900  1
  Cr  Cr9  1  0.50907300  0.36408100  0.32405100  1
  Cr  Cr10  1  0.49092700  0.13591900  0.82405100  1
  Cr  Cr11  1  0.00907300  0.63591900  0.67594900  1
  Cr  Cr12  1  0.75000000  0.36415000  0.15449300  1
  Cr  Cr13  1  0.75000000  0.86415000  0.34550700  1
  Cr  Cr14  1  0.25000000  0.63585000  0.84550700  1
  Cr  Cr15  1  0.25000000  0.13585000  0.65449300  1
  Cr  Cr16  1  0.99041900  0.43859000  0.87919800  1
  Cr  Cr17  1  0.50958100  0.93859000  0.62080200  1
  Cr  Cr18  1  0.49041900  0.56141000  0.12080200  1
  Cr  Cr19  1  0.00958100  0.06141000  0.37919800  1
  Cr  Cr20  1  0.00958100  0.56141000  0.12080200  1
  Cr  Cr21  1  0.49041900  0.06141000  0.37919800  1
  Cr  Cr22  1  0.50958100  0.43859000  0.87919800  1
  Cr  Cr23  1  0.99041900  0.93859000  0.62080200  1
  Cr  Cr24  1  0.75000000  0.37360000  0.49724700  1
  Cr  Cr25  1  0.75000000  0.87360000  0.00275300  1
  Cr  Cr26  1  0.25000000  0.62640000  0.50275300  1
  Cr  Cr27  1  0.25000000  0.12640000  0.99724700  1
  Si  Si0  1  0.75000000  0.44974100  0.01838100  1
  Si  Si1  1  0.75000000  0.94974100  0.48161900  1
  Si  Si2  1  0.25000000  0.55025900  0.98161900  1
  Si  Si3  1  0.25000000  0.05025900  0.51838100  1
  Si  Si4  1  0.99748400  0.28409000  0.61980600  1
  Si  Si5  1  0.50251600  0.78409000  0.88019400  1
  Si  Si6  1  0.49748400  0.71591000  0.38019400  1
  Si  Si7  1  0.00251600  0.21591000  0.11980600  1
  Si  Si8  1  0.00251600  0.71591000  0.38019400  1
  Si  Si9  1  0.49748400  0.21591000  0.11980600  1
  Si  Si10  1  0.50251600  0.28409000  0.61980600  1
  Si  Si11  1  0.99748400  0.78409000  0.88019400  1
  Si  Si12  1  0.75000000  0.08809400  0.69812800  1
  Si  Si13  1  0.75000000  0.58809400  0.80187200  1
  Si  Si14  1  0.25000000  0.91190600  0.30187200  1
  Si  Si15  1  0.25000000  0.41190600  0.19812800  1
  Si  Si16  1  0.75000000  0.22656800  0.39684200  1
  Si  Si17  1  0.75000000  0.72656800  0.10315800  1
  Si  Si18  1  0.25000000  0.77343200  0.60315800  1
  Si  Si19  1  0.25000000  0.27343200  0.89684200  1
  Si  Si20  1  0.75000000  0.05032900  0.93411100  1
  Si  Si21  1  0.75000000  0.55032900  0.56588900  1
  Si  Si22  1  0.25000000  0.94967100  0.06588900  1
  Si  Si23  1  0.25000000  0.44967100  0.43411100  1
  Si  Si24  1  0.75000000  0.00265900  0.25311900  1
  Si  Si25  1  0.75000000  0.50265900  0.24688100  1
  Si  Si26  1  0.25000000  0.99734100  0.74688100  1
  Si  Si27  1  0.25000000  0.49734100  0.75311900  1
  Si  Si28  1  0.75000000  0.29037100  0.80674800  1
  Si  Si29  1  0.75000000  0.79037100  0.69325200  1
  Si  Si30  1  0.25000000  0.70962900  0.19325200  1
  Si  Si31  1  0.25000000  0.20962900  0.30674800  1
loop_
_geom_bond_atom_site_label_1
_geom_bond_atom_site_label_2
_geom_bond_distance
_geom_bond_site_symmetry_2
Cr0 Si16 2.389011 1_555
Cr0 Si7 2.420877 1_655
Cr0 Si9 2.420877 1_555
Cr0 Si24 2.439782 1_555
Cr0 Si31 2.599874 1_655
Cr0 Si31 2.599874 1_555
Cr0 Cr7 2.858777 1_555
Cr0 Cr9 2.858777 1_555
Cr1 Si17 2.389011 1_555
Cr1 Si6 2.420877 1_555
Cr1 Si8 2.420877 1_655
Cr1 Si25 2.439782 1_555
Cr1 Si30 2.599874 1_655
Cr1 Si30 2.599874 1_555
Cr1 Cr8 2.858777 1_555
Cr1 Cr6 2.858777 1_555
Cr2 Si18 2.389011 1_555
Cr2 Si11 2.420877 1_455
Cr2 Si5 2.420877 1_555
Cr2 Si26 2.439782 1_555
Cr2 Si29 2.599874 1_555
Cr2 Si29 2.599874 1_455
Cr2 Cr5 2.858777 1_555
Cr3 Si19 2.389011 1_555
Cr3 Si4 2.420877 1_455
Cr3 Si10 2.420877 1_555
Cr3 Si27 2.439782 1_555
Cr3 Si28 2.599874 1_555
Cr3 Si28 2.599874 1_455
Cr3 Cr4 2.858777 1_555
Cr4 Si28 2.407886 1_455
Cr4 Si20 2.426297 1_455
Cr4 Si12 2.439221 1_455
Cr4 Si19 2.445335 1_555
Cr4 Si26 2.489108 1_545
Cr4 Ta14 2.930823 1_545
Cr4 Ta1 2.977890 1_445
Cr4 Ta8 3.061745 1_455
Cr5 Si29 2.407886 1_555
Cr5 Si21 2.426297 1_555
Cr5 Si13 2.439221 1_555
Cr5 Si18 2.445335 1_555
Cr5 Si27 2.489108 1_555
Cr5 Ta15 2.930823 1_555
Cr5 Ta0 2.977890 1_555
Cr5 Ta9 3.061745 1_555
Cr6 Cr8 2.331802 1_555
Cr6 Si30 2.407886 1_555
Cr6 Si22 2.426297 1_555
Cr6 Si14 2.439221 1_555
Cr6 Si17 2.445335 1_555
Cr6 Si24 2.489108 1_565
Cr6 Cr8 2.507428 1_455
Cr6 Ta12 2.930823 1_565
Cr6 Ta3 2.977890 1_565
Cr6 Ta10 3.061745 1_555
Cr7 Cr9 2.331802 1_555
Cr7 Si31 2.407886 1_655
Cr7 Si23 2.426297 1_655
Cr7 Si15 2.439221 1_655
Cr7 Si16 2.445335 1_555
Cr7 Si25 2.489108 1_555
Cr7 Cr9 2.507428 1_655
Cr7 Ta13 2.930823 1_555
Cr7 Ta2 2.977890 1_655
Cr7 Ta11 3.061745 1_655
Cr8 Si30 2.407886 1_655
Cr8 Si22 2.426297 1_655
Cr8 Si14 2.439221 1_655
Cr8 Si17 2.445335 1_555
Cr8 Si24 2.489108 1_565
Cr8 Ta12 2.930823 1_565
Cr8 Ta3 2.977890 1_665
Cr8 Ta10 3.061745 1_655
Cr9 Si31 2.407886 1_555
Cr9 Si23 2.426297 1_555
Cr9 Si15 2.439221 1_555
Cr9 Si16 2.445335 1_555
Cr9 Si25 2.489108 1_555
Cr9 Ta13 2.930823 1_555
Cr9 Ta2 2.977890 1_555
Cr9 Ta11 3.061745 1_555
Cr10 Cr4 2.331802 1_555
Cr10 Si28 2.407886 1_555
Cr10 Si20 2.426297 1_555
Cr10 Si12 2.439221 1_555
Cr10 Si19 2.445335 1_555
Cr10 Si26 2.489108 1_545
Cr10 Cr4 2.507428 1_655
Cr10 Cr3 2.858777 1_555
Cr10 Cr15 2.928406 1_555
Cr10 Ta14 2.930823 1_545
Cr10 Ta1 2.977890 1_545
Cr10 Cr27 2.984009 1_555
Cr10 Ta8 3.061745 1_555
Cr11 Cr5 2.331802 1_555
Cr11 Si29 2.407886 1_455
Cr11 Si21 2.426297 1_455
Cr11 Si13 2.439221 1_455
Cr11 Si18 2.445335 1_555
Cr11 Si27 2.489108 1_555
Cr11 Cr5 2.507428 1_455
Cr11 Cr2 2.858777 1_555
Cr11 Cr14 2.928406 1_555
Cr11 Ta15 2.930823 1_555
Cr11 Ta0 2.977890 1_455
Cr11 Cr26 2.984009 1_555
Cr11 Ta9 3.061745 1_455
Cr12 Si25 2.341083 1_555
Cr12 Si7 2.370448 1_655
Cr12 Si9 2.370448 1_555
Cr12 Si0 2.434107 1_555
Cr12 Si15 2.594087 1_555
Cr12 Si15 2.594087 1_655
Cr12 Cr7 2.928406 1_555
Cr12 Cr9 2.928406 1_555
Cr13 Si24 2.341083 1_565
Cr13 Si6 2.370448 1_555
Cr13 Si8 2.370448 1_655
Cr13 Si1 2.434107 1_555
Cr13 Si14 2.594087 1_555
Cr13 Si14 2.594087 1_655
Cr13 Cr6 2.928406 1_555
Cr13 Cr8 2.928406 1_555
Cr14 Si27 2.341083 1_555
Cr14 Si11 2.370448 1_455
Cr14 Si5 2.370448 1_555
Cr14 Si2 2.434107 1_555
Cr14 Si13 2.594087 1_455
Cr14 Si13 2.594087 1_555
Cr14 Cr5 2.928406 1_555
Cr15 Si26 2.341083 1_545
Cr15 Si4 2.370448 1_455
Cr15 Si10 2.370448 1_555
Cr15 Si3 2.434107 1_555
Cr15 Si12 2.594087 1_455
Cr15 Si12 2.594087 1_555
Cr15 Cr4 2.928406 1_555
Cr16 Cr22 2.326886 1_555
Cr16 Si27 2.483638 1_655
Cr16 Si0 2.497516 1_556
Cr16 Cr22 2.512344 1_655
Cr16 Si2 2.526027 1_655
Cr16 Si19 2.530312 1_655
Cr16 Si28 2.548293 1_555
Cr16 Si13 2.596859 1_555
Cr17 Cr23 2.326886 1_555
Cr17 Si26 2.483638 1_555
Cr17 Si1 2.497516 1_555
Cr17 Cr23 2.512344 1_455
Cr17 Si3 2.526027 1_565
Cr17 Si18 2.530312 1_555
Cr17 Si29 2.548293 1_555
Cr17 Si12 2.596859 1_565
Cr18 Cr20 2.326886 1_555
Cr18 Si25 2.483638 1_555
Cr18 Si2 2.497516 1_554
Cr18 Cr20 2.512344 1_655
Cr18 Si0 2.526027 1_555
Cr18 Si17 2.530312 1_555
Cr18 Si30 2.548293 1_555
Cr18 Si15 2.596859 1_555
Cr19 Cr21 2.326886 1_555
Cr19 Si24 2.483638 1_455
Cr19 Si3 2.497516 1_555
Cr19 Cr21 2.512344 1_455
Cr19 Si1 2.526027 1_445
Cr19 Si16 2.530312 1_455
Cr19 Si31 2.548293 1_555
Cr19 Si14 2.596859 1_545
Cr20 Si25 2.483638 1_455
Cr20 Si2 2.497516 1_554
Cr20 Si0 2.526027 1_455
Cr20 Si17 2.530312 1_455
Cr20 Si30 2.548293 1_555
Cr20 Si15 2.596859 1_555
Cr21 Si24 2.483638 1_555
Cr21 Si3 2.497516 1_555
Cr21 Si1 2.526027 1_545
Cr21 Si16 2.530312 1_555
Cr21 Si31 2.548293 1_555
Cr21 Si14 2.596859 1_545
Cr22 Si27 2.483638 1_555
Cr22 Si0 2.497516 1_556
Cr22 Si2 2.526027 1_555
Cr22 Si19 2.530312 1_555
Cr22 Si28 2.548293 1_555
Cr22 Si13 2.596859 1_555
Cr23 Si26 2.483638 1_655
Cr23 Si1 2.497516 1_555
Cr23 Si3 2.526027 1_665
Cr23 Si18 2.530312 1_655
Cr23 Si29 2.548293 1_555
Cr23 Si12 2.596859 1_565
Cr24 Si16 2.508404 1_555
Cr24 Si10 2.568786 1_555
Cr24 Si4 2.568786 1_555
Cr24 Si21 2.572425 1_555
Cr24 Ta13 2.639845 1_555
Cr24 Si23 2.803925 1_555
Cr24 Si23 2.803925 1_655
Cr24 Cr9 2.984009 1_555
Cr24 Cr7 2.984009 1_555
Cr25 Si17 2.508404 1_555
Cr25 Si11 2.568786 1_554
Cr25 Si5 2.568786 1_554
Cr25 Si20 2.572425 1_564
Cr25 Ta12 2.639845 1_565
Cr25 Si22 2.803925 1_555
Cr25 Si22 2.803925 1_655
Cr25 Cr6 2.984009 1_555
Cr25 Cr8 2.984009 1_555
Cr26 Si18 2.508404 1_555
Cr26 Si6 2.568786 1_555
Cr26 Si8 2.568786 1_555
Cr26 Si23 2.572425 1_555
Cr26 Ta15 2.639845 1_555
Cr26 Si21 2.803925 1_455
Cr26 Si21 2.803925 1_555
Cr26 Cr5 2.984009 1_555
Cr27 Si19 2.508404 1_555
Cr27 Si7 2.568786 1_556
Cr27 Si9 2.568786 1_556
Cr27 Si22 2.572425 1_546
Cr27 Ta14 2.639845 1_545
Cr27 Si20 2.803925 1_455
Cr27 Si20 2.803925 1_555
Cr27 Cr4 2.984009 1_555
Si0 Ta5 2.603995 1_554
Si0 Ta7 2.682465 1_555
Si0 Ta7 2.682465 1_655
Si0 Ta8 2.745280 1_554
Si1 Ta4 2.603995 1_565
Si1 Ta6 2.682465 1_655
Si1 Ta6 2.682465 1_555
Si1 Ta9 2.745280 1_555
Si2 Ta7 2.603995 1_556
Si2 Ta5 2.682465 1_555
Si2 Ta5 2.682465 1_455
Si2 Ta10 2.745280 1_556
Si3 Ta6 2.603995 1_545
Si3 Ta4 2.682465 1_555
Si3 Ta4 2.682465 1_455
Si3 Ta11 2.745280 1_555
Si4 Ta0 2.616372 1_555
Si4 Ta4 2.628174 1_555
Si4 Ta15 2.635249 1_655
Si4 Ta11 2.660008 1_655
Si5 Ta1 2.616372 1_555
Si5 Ta5 2.628174 1_555
Si5 Ta14 2.635249 1_555
Si5 Ta10 2.660008 1_556
Si6 Si8 2.395264 1_555
Si6 Si8 2.443966 1_655
Si6 Ta2 2.616372 1_555
Si6 Ta6 2.628174 1_555
Si6 Ta13 2.635249 1_555
Si6 Ta9 2.660008 1_555
Si7 Si9 2.395264 1_555
Si7 Si9 2.443966 1_455
Si7 Ta3 2.616372 1_555
Si7 Ta7 2.628174 1_555
Si7 Ta12 2.635249 1_455
Si7 Ta8 2.660008 1_454
Si8 Ta2 2.616372 1_555
Si8 Ta6 2.628174 1_555
Si8 Ta13 2.635249 1_455
Si8 Ta9 2.660008 1_455
Si9 Ta3 2.616372 1_555
Si9 Ta7 2.628174 1_555
Si9 Ta12 2.635249 1_555
Si9 Ta8 2.660008 1_554
Si10 Si4 2.395264 1_555
Si10 Si4 2.443966 1_455
Si10 Ta0 2.616372 1_555
Si10 Ta4 2.628174 1_555
Si10 Ta15 2.635249 1_555
Si10 Ta11 2.660008 1_555
Si11 Si5 2.395264 1_555
Si11 Si5 2.443966 1_655
Si11 Ta1 2.616372 1_555
Si11 Ta5 2.628174 1_555
Si11 Ta14 2.635249 1_655
Si11 Ta10 2.660008 1_656
Si12 Ta4 2.543671 1_555
Si12 Ta1 2.620931 1_545
Si13 Ta5 2.543671 1_555
Si13 Ta0 2.620931 1_555
Si14 Ta6 2.543671 1_555
Si14 Ta3 2.620931 1_565
Si15 Ta7 2.543671 1_555
Si15 Ta2 2.620931 1_555
Si16 Ta4 2.608744 1_555
Si16 Ta11 2.724678 1_655
Si16 Ta11 2.724678 1_555
Si17 Ta5 2.608744 1_554
Si17 Ta10 2.724678 1_555
Si17 Ta10 2.724678 1_655
Si18 Ta6 2.608744 1_555
Si18 Ta9 2.724678 1_455
Si18 Ta9 2.724678 1_555
Si19 Ta7 2.608744 1_556
Si19 Ta8 2.724678 1_455
Si19 Ta8 2.724678 1_555
Si20 Ta12 2.518714 1_556
Si20 Ta1 2.610076 1_545
Si20 Ta8 2.690600 1_555
Si20 Ta14 2.741822 1_645
Si20 Ta14 2.741822 1_545
Si21 Ta13 2.518714 1_555
Si21 Ta0 2.610076 1_555
Si21 Ta9 2.690600 1_555
Si21 Ta15 2.741822 1_655
Si21 Ta15 2.741822 1_555
Si22 Ta14 2.518714 1_554
Si22 Ta3 2.610076 1_565
Si22 Ta10 2.690600 1_555
Si22 Ta12 2.741822 1_565
Si22 Ta12 2.741822 1_465
Si23 Ta15 2.518714 1_555
Si23 Ta2 2.610076 1_555
Si23 Ta11 2.690600 1_555
Si23 Ta13 2.741822 1_455
Si23 Ta13 2.741822 1_555
Si24 Ta12 2.589990 1_555
Si24 Ta3 2.706331 1_555
Si24 Ta3 2.706331 1_655
Si25 Ta13 2.589990 1_555
Si25 Ta2 2.706331 1_555
Si25 Ta2 2.706331 1_655
Si26 Ta14 2.589990 1_555
Si26 Ta1 2.706331 1_555
Si26 Ta1 2.706331 1_455
Si27 Ta15 2.589990 1_555
Si27 Ta0 2.706331 1_455
Si27 Ta0 2.706331 1_555
Si28 Ta0 2.545115 1_555
Si28 Ta8 2.693640 1_555
Si29 Ta1 2.545115 1_555
Si29 Ta9 2.693640 1_555
Si30 Ta2 2.545115 1_555
Si30 Ta10 2.693640 1_555
Si31 Ta3 2.545115 1_555
Si31 Ta11 2.693640 1_555
