# generated using pymatgen
data_La(Sb3Ru)4
_symmetry_space_group_name_H-M   'P 1'
_cell_length_a   8.08622176
_cell_length_b   8.08622176
_cell_length_c   8.08622176
_cell_angle_alpha   109.47122063
_cell_angle_beta   109.47122063
_cell_angle_gamma   109.47122063
_symmetry_Int_Tables_number   1
_chemical_formula_structural   La(Sb3Ru)4
_chemical_formula_sum   'La1 Sb12 Ru4'
_cell_volume   407.01934551
_cell_formula_units_Z   1
loop_
 _symmetry_equiv_pos_site_id
 _symmetry_equiv_pos_as_xyz
  1  'x, y, z'
loop_
 _atom_site_type_symbol
 _atom_site_label
 _atom_site_symmetry_multiplicity
 _atom_site_fract_x
 _atom_site_fract_y
 _atom_site_fract_z
 _atom_site_occupancy
  La  La0  1  -0.00000000  -0.00000000  0.00000000  1
  Sb  Sb0  1  0.15856117  0.81732275  0.65876259  1
  Sb  Sb1  1  0.84143883  0.18267725  0.34123741  1
  Sb  Sb2  1  0.84143883  0.50020142  0.65876259  1
  Sb  Sb3  1  0.15856117  0.49979858  0.34123741  1
  Sb  Sb4  1  0.81732275  0.65876259  0.15856117  1
  Sb  Sb5  1  0.18267725  0.34123741  0.84143883  1
  Sb  Sb6  1  0.50020142  0.65876259  0.84143883  1
  Sb  Sb7  1  0.49979858  0.34123741  0.15856117  1
  Sb  Sb8  1  0.65876259  0.15856117  0.81732275  1
  Sb  Sb9  1  0.34123741  0.84143883  0.18267725  1
  Sb  Sb10  1  0.65876259  0.84143883  0.50020142  1
  Sb  Sb11  1  0.34123741  0.15856117  0.49979858  1
  Ru  Ru0  1  -0.00000000  -0.00000000  0.50000000  1
  Ru  Ru1  1  0.50000000  -0.00000000  0.00000000  1
  Ru  Ru2  1  -0.00000000  0.50000000  -0.00000000  1
  Ru  Ru3  1  0.50000000  0.50000000  0.50000000  1
loop_
_geom_bond_atom_site_label_1
_geom_bond_atom_site_label_2
_geom_bond_distance
_geom_bond_site_symmetry_2
La0 Sb3 3.513363 1_555
La0 Sb2 3.513363 1_444
La0 Sb6 3.513363 1_444
La0 Sb11 3.513363 1_555
La0 Sb10 3.513363 1_444
La0 Sb7 3.513363 1_555
La0 Sb4 3.513365 1_445
La0 Sb8 3.513365 1_454
La0 Sb0 3.513365 1_544
La0 Sb9 3.513365 1_545
La0 Sb5 3.513365 1_554
La0 Sb1 3.513365 1_455
Sb0 Sb2 2.961019 1_455
Sb0 Sb3 2.964780 1_555
Sb1 Sb3 2.961019 1_655
Sb1 Sb2 2.964780 1_555
Sb4 Sb6 2.961019 1_554
Sb4 Sb7 2.964780 1_555
Sb5 Sb7 2.961019 1_556
Sb5 Sb6 2.964780 1_555
Sb10 Sb8 2.961019 1_565
Sb10 Sb9 2.964780 1_555
Sb11 Sb9 2.961019 1_545
Sb11 Sb8 2.964780 1_555
Ru0 Sb5 2.627466 1_555
Ru0 Sb4 2.627466 1_445
Ru0 Sb11 2.627468 1_555
Ru0 Sb10 2.627468 1_445
Ru0 Sb0 2.627475 1_545
Ru0 Sb1 2.627475 1_455
Ru1 Sb1 2.627466 1_555
Ru1 Sb0 2.627466 1_544
Ru1 Sb6 2.627468 1_544
Ru1 Sb7 2.627468 1_555
Ru1 Sb8 2.627475 1_554
Ru1 Sb9 2.627475 1_545
Ru2 Sb8 2.627466 1_454
Ru2 Sb9 2.627466 1_555
Ru2 Sb2 2.627468 1_454
Ru2 Sb3 2.627468 1_555
Ru2 Sb5 2.627475 1_554
Ru2 Sb4 2.627475 1_455
Ru3 Sb7 2.627468 1_555
Ru3 Sb3 2.627468 1_555
Ru3 Sb6 2.627468 1_555
Ru3 Sb10 2.627468 1_555
Ru3 Sb11 2.627468 1_555
Ru3 Sb2 2.627468 1_555
