# generated using pymatgen
data_SrLaTiFeO6
_symmetry_space_group_name_H-M   'P 1'
_cell_length_a   5.58476472
_cell_length_b   5.58477956
_cell_length_c   9.67304234
_cell_angle_alpha   73.22031492
_cell_angle_beta   73.22026461
_cell_angle_gamma   60.00305329
_symmetry_Int_Tables_number   1
_chemical_formula_structural   SrLaTiFeO6
_chemical_formula_sum   'Sr2 La2 Ti2 Fe2 O12'
_cell_volume   246.34150236
_cell_formula_units_Z   2
loop_
 _symmetry_equiv_pos_site_id
 _symmetry_equiv_pos_as_xyz
  1  'x, y, z'
loop_
 _atom_site_type_symbol
 _atom_site_label
 _atom_site_symmetry_multiplicity
 _atom_site_fract_x
 _atom_site_fract_y
 _atom_site_fract_z
 _atom_site_occupancy
  Sr  Sr0  1  0.87500500  0.87500300  0.37500400  1
  Sr  Sr1  1  0.37500100  0.37500400  0.87500900  1
  La  La0  1  0.62500500  0.62500100  0.12499400  1
  La  La1  1  0.12500400  0.12500100  0.62499700  1
  Ti  Ti0  1  0.24999600  0.24999700  0.24999900  1
  Ti  Ti1  1  0.74999800  0.74999900  0.74999700  1
  Fe  Fe0  1  0.50000200  0.50000200  0.50000200  1
  Fe  Fe1  1  0.00000100  0.00000000  0.00000100  1
  O  O0  1  0.12642000  0.12642000  0.12641100  1
  O  O1  1  0.62641700  0.62641800  0.62641500  1
  O  O2  1  0.37358100  0.37358200  0.37358600  1
  O  O3  1  0.87357800  0.87357900  0.87358900  1
  O  O4  1  0.37359000  0.87923000  0.37358600  1
  O  O5  1  0.87358800  0.37923400  0.87358900  1
  O  O6  1  0.12641200  0.62076400  0.12641100  1
  O  O7  1  0.62640700  0.12077000  0.62641300  1
  O  O8  1  0.87922900  0.37359100  0.37358500  1
  O  O9  1  0.37923300  0.87358800  0.87358900  1
  O  O10  1  0.62076300  0.12641200  0.12641000  1
  O  O11  1  0.12076900  0.62640800  0.62641300  1
loop_
_geom_bond_atom_site_label_1
_geom_bond_atom_site_label_2
_geom_bond_distance
_geom_bond_site_symmetry_2
La0 O3 2.792282 1_554
La0 O5 2.792441 1_554
La0 O9 2.792455 1_554
La0 O6 2.792456 1_655
La0 O2 2.792466 1_555
La0 O10 2.792469 1_565
La0 O8 2.792485 1_555
La0 O6 2.792487 1_555
La0 O10 2.792489 1_555
La0 O4 2.792508 1_555
La0 O0 2.792593 1_655
La0 O0 2.792616 1_565
La1 O2 2.792336 1_555
La1 O7 2.792448 1_555
La1 O11 2.792466 1_555
La1 O3 2.792480 1_445
La1 O11 2.792492 1_545
La1 O7 2.792495 1_455
La1 O4 2.792503 1_545
La1 O9 2.792508 1_545
La1 O5 2.792519 1_455
La1 O8 2.792522 1_455
La1 O1 2.792593 1_545
La1 O1 2.792616 1_455
Fe0 O11 1.996817 1_555
Fe0 O8 1.996817 1_555
Fe0 O7 1.996818 1_555
Fe0 O4 1.996822 1_555
Fe0 O1 1.996852 1_555
Fe0 O2 1.996915 1_555
Fe1 O9 1.996817 1_544
Fe1 O10 1.996828 1_455
Fe1 O6 1.996830 1_545
Fe1 O5 1.996830 1_454
Fe1 O0 1.996860 1_555
Fe1 O3 1.996895 1_444
O0 Ti0 1.952117 1_555
O0 Sr1 2.792304 1_554
O0 Sr0 2.792441 1_445
O1 Ti1 1.952105 1_555
O1 Sr0 2.792377 1_555
O1 Sr1 2.792441 1_555
O2 Ti0 1.952176 1_555
O2 Sr0 2.792597 1_455
O2 Sr0 2.792613 1_545
O3 Ti1 1.952176 1_555
O3 Sr1 2.792600 1_655
O3 Sr1 2.792611 1_565
O4 Ti0 1.952237 1_565
O4 Sr0 2.792411 1_455
O4 Sr0 2.792531 1_555
O5 Ti1 1.952249 1_555
O5 Sr1 2.792426 1_555
O5 Sr1 2.792517 1_655
O6 Ti0 1.952241 1_555
O6 Sr1 2.792397 1_554
O6 Sr0 2.792544 1_455
O7 Ti1 1.952241 1_545
O7 Sr0 2.792475 1_545
O7 Sr1 2.792555 1_555
O8 Ti0 1.952228 1_655
O8 Sr0 2.792424 1_545
O8 Sr0 2.792533 1_555
O9 Ti1 1.952244 1_555
O9 Sr1 2.792422 1_555
O9 Sr1 2.792536 1_565
O10 Ti0 1.952240 1_555
O10 Sr1 2.792394 1_554
O10 Sr0 2.792561 1_545
O11 Ti1 1.952236 1_455
O11 Sr0 2.792467 1_455
O11 Sr1 2.792550 1_555
