# generated using pymatgen
data_U3P2(PbO8)2
_symmetry_space_group_name_H-M   'P 1'
_cell_length_a   7.03806517
_cell_length_b   6.86425391
_cell_length_c   17.10610400
_cell_angle_alpha   90.00000000
_cell_angle_beta   90.00000000
_cell_angle_gamma   107.66108102
_symmetry_Int_Tables_number   1
_chemical_formula_structural   U3P2(PbO8)2
_chemical_formula_sum   'U6 P4 Pb4 O32'
_cell_volume   787.46339409
_cell_formula_units_Z   2
loop_
 _symmetry_equiv_pos_site_id
 _symmetry_equiv_pos_as_xyz
  1  'x, y, z'
loop_
 _atom_site_type_symbol
 _atom_site_label
 _atom_site_symmetry_multiplicity
 _atom_site_fract_x
 _atom_site_fract_y
 _atom_site_fract_z
 _atom_site_occupancy
  U  U0  1  0.19821300  0.89581200  0.85820800  1
  U  U1  1  0.80178700  0.10418800  0.14179200  1
  U  U2  1  0.80178700  0.10418800  0.35820800  1
  U  U3  1  0.19821300  0.89581200  0.64179200  1
  U  U4  1  0.69977100  0.89576600  0.75000000  1
  U  U5  1  0.30022900  0.10423400  0.25000000  1
  P  P0  1  0.69402300  0.90110200  0.94299300  1
  P  P1  1  0.30597700  0.09889800  0.05700700  1
  P  P2  1  0.30597700  0.09889800  0.44299300  1
  P  P3  1  0.69402300  0.90110200  0.55700700  1
  Pb  Pb0  1  0.60196700  0.38541600  0.89983000  1
  Pb  Pb1  1  0.39803300  0.61458400  0.10017000  1
  Pb  Pb2  1  0.39803300  0.61458400  0.39983000  1
  Pb  Pb3  1  0.60196700  0.38541600  0.60017000  1
  O  O0  1  0.71892400  0.81719200  0.35443300  1
  O  O1  1  0.28107600  0.18280800  0.64556700  1
  O  O2  1  0.28107600  0.18280800  0.85443300  1
  O  O3  1  0.71892400  0.81719200  0.14556700  1
  O  O4  1  0.57307900  0.69265900  0.52156400  1
  O  O5  1  0.42692100  0.30734100  0.47843600  1
  O  O6  1  0.42692100  0.30734100  0.02156400  1
  O  O7  1  0.57307900  0.69265900  0.97843600  1
  O  O8  1  0.01531600  0.88740400  0.75000000  1
  O  O9  1  0.98468400  0.11259600  0.25000000  1
  O  O10  1  0.22188900  0.93355700  0.99557400  1
  O  O11  1  0.77811100  0.06644300  0.00442600  1
  O  O12  1  0.77811100  0.06644300  0.49557400  1
  O  O13  1  0.22188900  0.93355700  0.50442600  1
  O  O14  1  0.61572600  0.61160400  0.75000000  1
  O  O15  1  0.38427400  0.38839600  0.25000000  1
  O  O16  1  0.55852300  0.97720800  0.88500700  1
  O  O17  1  0.44147700  0.02279200  0.11499300  1
  O  O18  1  0.44147700  0.02279200  0.38500700  1
  O  O19  1  0.55852300  0.97720800  0.61499300  1
  O  O20  1  0.13229800  0.62150500  0.87492800  1
  O  O21  1  0.86770200  0.37849500  0.12507200  1
  O  O22  1  0.86770200  0.37849500  0.37492800  1
  O  O23  1  0.13229800  0.62150500  0.62507200  1
  O  O24  1  0.37700200  0.87233500  0.75000000  1
  O  O25  1  0.62299800  0.12766500  0.25000000  1
  O  O26  1  0.85317700  0.86249800  0.88717100  1
  O  O27  1  0.14682300  0.13750200  0.11282900  1
  O  O28  1  0.14682300  0.13750200  0.38717100  1
  O  O29  1  0.85317700  0.86249800  0.61282900  1
  O  O30  1  0.78039400  0.17472900  0.75000000  1
  O  O31  1  0.21960600  0.82527100  0.25000000  1
loop_
_geom_bond_atom_site_label_1
_geom_bond_atom_site_label_2
_geom_bond_distance
_geom_bond_site_symmetry_2
O0 U2 1.878329 1_565
O0 Pb2 2.394162 1_555
O1 U3 1.878329 1_545
O1 Pb3 2.394162 1_555
O2 U0 1.878329 1_545
O2 Pb0 2.394162 1_555
O3 U1 1.878329 1_565
O3 Pb1 2.394162 1_555
O4 P3 1.549309 1_555
O4 Pb2 2.395986 1_555
O4 Pb3 2.560749 1_555
O5 P2 1.549309 1_555
O5 Pb3 2.395986 1_555
O5 Pb2 2.560749 1_555
O6 P1 1.549309 1_555
O6 Pb0 2.395986 1_554
O6 Pb1 2.560749 1_555
O7 P0 1.549309 1_555
O7 Pb1 2.395986 1_556
O7 Pb0 2.560749 1_555
O8 U4 2.238908 1_455
O8 U3 2.245330 1_555
O8 U0 2.245330 1_555
O9 U5 2.238908 1_655
O9 U1 2.245330 1_555
O9 U2 2.245330 1_555
O10 P1 1.528114 1_566
O10 U0 2.364370 1_555
O11 P0 1.528114 1_544
O11 U1 2.364370 1_555
O12 P3 1.528114 1_545
O12 U2 2.364370 1_555
O13 P2 1.528114 1_565
O13 U3 2.364370 1_555
O14 U4 1.858626 1_555
O15 U5 1.858626 1_555
O16 P0 1.571167 1_555
O16 U0 2.468467 1_555
O16 U4 2.640365 1_555
O16 Pb0 2.736672 1_565
O17 P1 1.571167 1_555
O17 U1 2.468467 1_555
O17 U5 2.640365 1_555
O17 Pb1 2.736672 1_545
O18 P2 1.571167 1_555
O18 U2 2.468467 1_555
O18 U5 2.640365 1_555
O18 Pb2 2.736672 1_545
O19 P3 1.571167 1_555
O19 U3 2.468467 1_555
O19 U4 2.640365 1_555
O19 Pb3 2.736672 1_565
O20 U0 1.819989 1_555
O21 U1 1.819989 1_555
O22 U2 1.819989 1_555
O23 U3 1.819989 1_555
O24 U4 2.228151 1_555
O24 U3 2.271270 1_555
O24 U0 2.271270 1_555
O25 U5 2.228151 1_555
O25 U1 2.271270 1_555
O25 U2 2.271270 1_555
O26 P0 1.554624 1_555
O26 U0 2.420303 1_655
O26 U4 2.621706 1_555
O27 P1 1.554624 1_555
O27 U1 2.420303 1_455
O27 U5 2.621706 1_555
O28 P2 1.554624 1_555
O28 U2 2.420303 1_455
O28 U5 2.621706 1_555
O29 P3 1.554624 1_555
O29 U3 2.420303 1_655
O29 U4 2.621706 1_555
O30 U4 1.824671 1_545
O31 U5 1.824671 1_565
