# generated using pymatgen
data_TiAl4Ni15
_symmetry_space_group_name_H-M   'P 1'
_cell_length_a   3.55226500
_cell_length_b   3.55226500
_cell_length_c   17.68818500
_cell_angle_alpha   90.00000000
_cell_angle_beta   90.00000000
_cell_angle_gamma   90.00000000
_symmetry_Int_Tables_number   1
_chemical_formula_structural   TiAl4Ni15
_chemical_formula_sum   'Ti1 Al4 Ni15'
_cell_volume   223.19989475
_cell_formula_units_Z   1
loop_
 _symmetry_equiv_pos_site_id
 _symmetry_equiv_pos_as_xyz
  1  'x, y, z'
loop_
 _atom_site_type_symbol
 _atom_site_label
 _atom_site_symmetry_multiplicity
 _atom_site_fract_x
 _atom_site_fract_y
 _atom_site_fract_z
 _atom_site_occupancy
  Ti  Ti0  1  0.00000000  0.00000000  0.00000000  1
  Al  Al0  1  0.00000000  0.00000000  0.20122900  1
  Al  Al1  1  0.00000000  0.00000000  0.39941600  1
  Al  Al2  1  0.00000000  0.00000000  0.60058400  1
  Al  Al3  1  0.00000000  0.00000000  0.79877100  1
  Ni  Ni0  1  0.50000000  0.50000000  0.00000000  1
  Ni  Ni1  1  0.50000000  0.50000000  0.20052600  1
  Ni  Ni2  1  0.50000000  0.50000000  0.39995000  1
  Ni  Ni3  1  0.50000000  0.50000000  0.60005000  1
  Ni  Ni4  1  0.50000000  0.50000000  0.79947400  1
  Ni  Ni5  1  0.50000000  0.00000000  0.10122500  1
  Ni  Ni6  1  0.50000000  0.00000000  0.29986900  1
  Ni  Ni7  1  0.50000000  0.00000000  0.50000000  1
  Ni  Ni8  1  0.50000000  0.00000000  0.70013100  1
  Ni  Ni9  1  0.50000000  0.00000000  0.89877500  1
  Ni  Ni10  1  0.00000000  0.50000000  0.10122500  1
  Ni  Ni11  1  0.00000000  0.50000000  0.29986900  1
  Ni  Ni12  1  0.00000000  0.50000000  0.50000000  1
  Ni  Ni13  1  0.00000000  0.50000000  0.70013100  1
  Ni  Ni14  1  0.00000000  0.50000000  0.89877500  1
loop_
_geom_bond_atom_site_label_1
_geom_bond_atom_site_label_2
_geom_bond_distance
_geom_bond_site_symmetry_2
Al0 Ni11 2.489748 1_555
Al0 Ni11 2.489748 1_545
Al0 Ni6 2.489748 1_455
Al0 Ni6 2.489748 1_555
Al0 Ni10 2.506714 1_545
Al0 Ni5 2.506714 1_555
Al0 Ni5 2.506714 1_455
Al0 Ni10 2.506714 1_555
Al0 Ni1 2.511861 1_445
Al0 Ni1 2.511861 1_545
Al0 Ni1 2.511861 1_555
Al0 Ni1 2.511861 1_455
Al1 Ni11 2.501017 1_555
Al1 Ni6 2.501017 1_455
Al1 Ni11 2.501017 1_545
Al1 Ni6 2.501017 1_555
Al1 Ni2 2.511848 1_555
Al1 Ni2 2.511848 1_455
Al1 Ni2 2.511848 1_445
Al1 Ni2 2.511848 1_545
Al1 Ni12 2.513964 1_555
Al1 Ni7 2.513964 1_455
Al1 Ni7 2.513964 1_555
Al1 Ni12 2.513964 1_545
Al2 Ni8 2.501017 1_555
Al2 Ni8 2.501017 1_455
Al2 Ni13 2.501017 1_555
Al2 Ni13 2.501017 1_545
Al2 Ni3 2.511848 1_445
Al2 Ni3 2.511848 1_545
Al2 Ni3 2.511848 1_555
Al2 Ni3 2.511848 1_455
Al2 Ni12 2.513964 1_555
Al2 Ni7 2.513964 1_455
Al2 Ni7 2.513964 1_555
Al2 Ni12 2.513964 1_545
Al3 Ni8 2.489748 1_555
Al3 Ni13 2.489748 1_545
Al3 Ni8 2.489748 1_455
Al3 Ni13 2.489748 1_555
Al3 Ni9 2.506714 1_455
Al3 Ni14 2.506714 1_545
Al3 Ni14 2.506714 1_555
Al3 Ni9 2.506714 1_555
Al3 Ni4 2.511861 1_445
Al3 Ni4 2.511861 1_555
Al3 Ni4 2.511861 1_455
Al3 Ni4 2.511861 1_545
Ni0 Ti0 2.511831 1_665
Ni0 Ti0 2.511831 1_555
Ni0 Ti0 2.511831 1_565
Ni0 Ti0 2.511831 1_655
Ni0 Ni5 2.522001 1_565
Ni0 Ni10 2.522001 1_655
Ni0 Ni5 2.522001 1_555
Ni0 Ni9 2.522001 1_554
Ni0 Ni14 2.522001 1_654
Ni0 Ni14 2.522001 1_554
Ni0 Ni9 2.522001 1_564
Ni0 Ni10 2.522001 1_555
Ni1 Ni5 2.497955 1_565
Ni1 Ni10 2.497955 1_655
Ni1 Ni5 2.497955 1_555
Ni1 Ni10 2.497955 1_555
Ni1 Ni11 2.498477 1_555
Ni1 Ni6 2.498477 1_565
Ni1 Ni11 2.498477 1_655
Ni1 Ni6 2.498477 1_555
Ni2 Ni7 2.507288 1_565
Ni2 Ni7 2.507288 1_555
Ni2 Ni6 2.507675 1_565
Ni2 Ni6 2.507675 1_555
Ni3 Ni7 2.507288 1_555
Ni3 Ni7 2.507288 1_565
Ni3 Ni8 2.507675 1_565
Ni3 Ni8 2.507675 1_555
Ni4 Ni9 2.497955 1_555
Ni4 Ni9 2.497955 1_565
Ni4 Ni8 2.498477 1_565
Ni4 Ni8 2.498477 1_555
Ni5 Ti0 2.522001 1_555
Ni5 Ti0 2.522001 1_655
Ni9 Ti0 2.522001 1_656
Ni9 Ti0 2.522001 1_556
Ni10 Ni5 2.511831 1_465
Ni10 Ni5 2.511831 1_565
Ni10 Ni5 2.511831 1_555
Ni10 Ni5 2.511831 1_455
Ni10 Ti0 2.522001 1_555
Ni10 Ti0 2.522001 1_565
Ni11 Ni2 2.507675 1_455
Ni11 Ni2 2.507675 1_555
Ni11 Ni6 2.511831 1_455
Ni11 Ni6 2.511831 1_555
Ni11 Ni6 2.511831 1_465
Ni11 Ni6 2.511831 1_565
Ni12 Ni2 2.507288 1_555
Ni12 Ni2 2.507288 1_455
Ni12 Ni3 2.507288 1_555
Ni12 Ni3 2.507288 1_455
Ni12 Ni7 2.511831 1_555
Ni12 Ni7 2.511831 1_455
Ni12 Ni7 2.511831 1_565
Ni12 Ni7 2.511831 1_465
Ni13 Ni4 2.498477 1_455
Ni13 Ni4 2.498477 1_555
Ni13 Ni3 2.507675 1_555
Ni13 Ni3 2.507675 1_455
Ni13 Ni8 2.511831 1_555
Ni13 Ni8 2.511831 1_465
Ni13 Ni8 2.511831 1_455
Ni13 Ni8 2.511831 1_565
Ni14 Ni4 2.497955 1_555
Ni14 Ni4 2.497955 1_455
Ni14 Ni9 2.511831 1_555
Ni14 Ni9 2.511831 1_465
Ni14 Ni9 2.511831 1_455
Ni14 Ni9 2.511831 1_565
Ni14 Ti0 2.522001 1_566
Ni14 Ti0 2.522001 1_556
