# generated using pymatgen
data_Mg2SiPt
_symmetry_space_group_name_H-M   'P 1'
_cell_length_a   4.26854967
_cell_length_b   4.26854838
_cell_length_c   8.51106774
_cell_angle_alpha   90.00000000
_cell_angle_beta   90.00000000
_cell_angle_gamma   120.00000219
_symmetry_Int_Tables_number   1
_chemical_formula_structural   Mg2SiPt
_chemical_formula_sum   'Mg4 Si2 Pt2'
_cell_volume   134.29975375
_cell_formula_units_Z   2
loop_
 _symmetry_equiv_pos_site_id
 _symmetry_equiv_pos_as_xyz
  1  'x, y, z'
loop_
 _atom_site_type_symbol
 _atom_site_label
 _atom_site_symmetry_multiplicity
 _atom_site_fract_x
 _atom_site_fract_y
 _atom_site_fract_z
 _atom_site_occupancy
  Mg  Mg0  1  0.33333300  0.66666700  0.58602922  1
  Mg  Mg1  1  0.66666700  0.33333300  0.08602922  1
  Mg  Mg2  1  0.66666700  0.33333300  0.41397078  1
  Mg  Mg3  1  0.33333300  0.66666700  0.91397078  1
  Si  Si0  1  -0.00000000  0.00000000  0.75000000  1
  Si  Si1  1  -0.00000000  0.00000000  0.25000000  1
  Pt  Pt0  1  0.66666700  0.33333300  0.75000000  1
  Pt  Pt1  1  0.33333300  0.66666700  0.25000000  1
loop_
_geom_bond_atom_site_label_1
_geom_bond_atom_site_label_2
_geom_bond_distance
_geom_bond_site_symmetry_2
Mg0 Mg3 2.791133 1_555
Mg0 Pt0 2.832154 1_565
Mg0 Si0 2.832154 1_565
Mg0 Pt0 2.832154 1_455
Mg0 Si0 2.832157 1_555
Mg0 Si0 2.832158 1_665
Mg0 Pt0 2.832161 1_555
Mg0 Pt1 2.859967 1_555
Mg0 Mg2 2.866698 1_565
Mg0 Mg2 2.866699 1_455
Mg0 Mg2 2.866705 1_555
Mg1 Mg2 2.791133 1_555
Mg1 Pt1 2.832154 1_545
Mg1 Si1 2.832154 1_655
Mg1 Pt1 2.832154 1_655
Mg1 Si1 2.832157 1_665
Mg1 Si1 2.832158 1_555
Mg1 Pt1 2.832161 1_555
Mg1 Pt0 2.859967 1_554
Mg1 Mg3 2.866698 1_544
Mg1 Mg3 2.866699 1_654
Mg1 Mg3 2.866705 1_554
Mg2 Pt1 2.832154 1_545
Mg2 Si1 2.832154 1_655
Mg2 Pt1 2.832154 1_655
Mg2 Si1 2.832157 1_665
Mg2 Si1 2.832158 1_555
Mg2 Pt1 2.832161 1_555
Mg2 Pt0 2.859967 1_555
Mg3 Pt0 2.832154 1_565
Mg3 Si0 2.832154 1_565
Mg3 Pt0 2.832154 1_455
Mg3 Si0 2.832157 1_555
Mg3 Si0 2.832158 1_665
Mg3 Pt0 2.832161 1_555
Mg3 Pt1 2.859967 1_556
Pt0 Si0 2.464445 1_655
Pt0 Si0 2.464449 1_665
Pt0 Si0 2.464449 1_555
Pt1 Si1 2.464445 1_565
Pt1 Si1 2.464449 1_555
Pt1 Si1 2.464449 1_665
