# generated using pymatgen
data_Ca3SnS5
_symmetry_space_group_name_H-M   'P 1'
_cell_length_a   8.84126604
_cell_length_b   8.84126600
_cell_length_c   12.13109329
_cell_angle_alpha   68.62902013
_cell_angle_beta   68.62901864
_cell_angle_gamma   60.00000014
_symmetry_Int_Tables_number   1
_chemical_formula_structural   Ca3SnS5
_chemical_formula_sum   'Ca9 Sn3 S15'
_cell_volume   744.98055693
_cell_formula_units_Z   3
loop_
 _symmetry_equiv_pos_site_id
 _symmetry_equiv_pos_as_xyz
  1  'x, y, z'
loop_
 _atom_site_type_symbol
 _atom_site_label
 _atom_site_symmetry_multiplicity
 _atom_site_fract_x
 _atom_site_fract_y
 _atom_site_fract_z
 _atom_site_occupancy
  Ca  Ca0  1  0.51403400  0.51403400  0.96643300  1
  Ca  Ca1  1  0.00549800  0.51403400  0.96643300  1
  Ca  Ca2  1  0.51403400  0.00549800  0.96643300  1
  Ca  Ca3  1  0.07009600  0.07009600  0.34635800  1
  Ca  Ca4  1  0.51344900  0.07009600  0.34635800  1
  Ca  Ca5  1  0.07009600  0.51344900  0.34635800  1
  Ca  Ca6  1  0.25919700  0.25919700  0.69311500  1
  Ca  Ca7  1  0.78849000  0.25919700  0.69311500  1
  Ca  Ca8  1  0.25919700  0.78849000  0.69311500  1
  Sn  Sn0  1  0.99158000  0.99158000  0.02525900  1
  Sn  Sn1  1  0.55471000  0.55471000  0.33587000  1
  Sn  Sn2  1  0.76963900  0.76963900  0.69108400  1
  S  S0  1  0.83996700  0.83996700  0.48009800  1
  S  S1  1  0.40904300  0.40904300  0.77287100  1
  S  S2  1  0.14661100  0.14661100  0.56016600  1
  S  S3  1  0.92023600  0.92023600  0.23929200  1
  S  S4  1  0.26860200  0.26860200  0.19419400  1
  S  S5  1  0.63025900  0.63025900  0.10922300  1
  S  S6  1  0.87590900  0.87590900  0.79061400  1
  S  S7  1  0.45756700  0.87590900  0.79061400  1
  S  S8  1  0.87590900  0.45756700  0.79061400  1
  S  S9  1  0.38134600  0.38134600  0.42659400  1
  S  S10  1  0.81071500  0.38134600  0.42659400  1
  S  S11  1  0.38134600  0.81071500  0.42659400  1
  S  S12  1  0.16155800  0.16155800  0.96403300  1
  S  S13  1  0.71285100  0.16155800  0.96403300  1
  S  S14  1  0.16155800  0.71285100  0.96403300  1
loop_
_geom_bond_atom_site_label_1
_geom_bond_atom_site_label_2
_geom_bond_distance
_geom_bond_site_symmetry_2
Ca0 S13 2.711675 1_555
Ca0 S14 2.711675 1_555
Ca0 S5 2.960197 1_556
Ca0 S8 3.039760 1_555
Ca0 S7 3.039760 1_555
Ca0 S1 3.357935 1_555
Ca1 S12 2.711674 1_555
Ca1 S14 2.711682 1_555
Ca1 S5 2.960190 1_456
Ca1 S8 3.039760 1_455
Ca1 S6 3.039760 1_455
Ca1 S1 3.357941 1_555
Ca2 S12 2.711674 1_555
Ca2 S13 2.711682 1_555
Ca2 S5 2.960191 1_546
Ca2 S6 3.039760 1_545
Ca2 S7 3.039760 1_545
Ca2 S1 3.357941 1_555
Ca3 S10 2.791722 1_455
Ca3 S11 2.791722 1_545
Ca3 S4 2.815270 1_555
Ca3 S3 3.076011 1_445
Ca3 S0 3.199965 1_445
Ca3 S2 3.264644 1_555
Ca4 S11 2.791710 1_545
Ca4 S9 2.791726 1_555
Ca4 S4 2.815264 1_555
Ca4 S3 3.076018 1_545
Ca4 S0 3.199965 1_545
Ca4 S2 3.264644 1_555
Ca5 S10 2.791710 1_455
Ca5 S9 2.791726 1_555
Ca5 S4 2.815264 1_555
Ca5 S3 3.076018 1_455
Ca5 S0 3.199965 1_455
Ca5 S2 3.264644 1_555
Ca6 S2 2.813134 1_555
Ca6 S1 2.840776 1_555
Ca6 S8 2.933580 1_455
Ca6 S7 2.933580 1_545
Ca6 S9 2.977054 1_555
Ca6 S12 2.983535 1_555
Ca7 S2 2.813134 1_655
Ca7 S1 2.840769 1_555
Ca7 S6 2.933580 1_545
Ca7 S8 2.933580 1_555
Ca7 S10 2.977052 1_555
Ca7 S13 2.983535 1_555
Ca8 S2 2.813134 1_565
Ca8 S1 2.840769 1_555
Ca8 S6 2.933580 1_455
Ca8 S7 2.933580 1_555
Ca8 S11 2.977052 1_555
Ca8 S14 2.983535 1_555
S0 Sn2 2.321876 1_555
S0 S3 2.650042 1_555
S3 Sn0 2.355408 1_555
S5 Sn1 2.494223 1_555
S6 Sn2 2.399945 1_555
S7 Sn2 2.399958 1_555
S8 Sn2 2.399958 1_555
S9 Sn1 2.408406 1_555
S10 Sn1 2.408413 1_555
S11 Sn1 2.408413 1_555
S12 Sn0 2.387482 1_446
S13 Sn0 2.387475 1_546
S14 Sn0 2.387475 1_456
