# generated using pymatgen
data_Na2Li2Cu(IO)2
_symmetry_space_group_name_H-M   'P 1'
_cell_length_a   11.63704135
_cell_length_b   11.63704135
_cell_length_c   11.63704135
_cell_angle_alpha   159.75042591
_cell_angle_beta   159.75042591
_cell_angle_gamma   28.79034870
_symmetry_Int_Tables_number   1
_chemical_formula_structural   Na2Li2Cu(IO)2
_chemical_formula_sum   'Na2 Li2 Cu1 I2 O2'
_cell_volume   188.68410283
_cell_formula_units_Z   1
loop_
 _symmetry_equiv_pos_site_id
 _symmetry_equiv_pos_as_xyz
  1  'x, y, z'
loop_
 _atom_site_type_symbol
 _atom_site_label
 _atom_site_symmetry_multiplicity
 _atom_site_fract_x
 _atom_site_fract_y
 _atom_site_fract_z
 _atom_site_occupancy
  Na  Na0  1  0.94529600  0.94529600  0.00000000  1
  Na  Na1  1  0.05470400  0.05470400  0.00000000  1
  Li  Li0  1  0.75000000  0.25000000  0.50000000  1
  Li  Li1  1  0.25000000  0.75000000  0.50000000  1
  Cu  Cu0  1  0.50000000  0.50000000  0.00000000  1
  I  I0  1  0.32917000  0.32917000  0.00000000  1
  I  I1  1  0.67083000  0.67083000  0.00000000  1
  O  O0  1  0.50000000  0.00000000  0.50000000  1
  O  O1  1  0.00000000  0.50000000  0.50000000  1
loop_
_geom_bond_atom_site_label_1
_geom_bond_atom_site_label_2
_geom_bond_distance
_geom_bond_site_symmetry_2
Na0 O1 2.388666 1_665
Na0 O0 2.388666 1_665
Na0 O1 2.388666 1_654
Na0 O0 2.388666 1_564
Na1 O0 2.388666 1_454
Na1 O1 2.388666 1_544
Na1 O0 2.388666 1_555
Na1 O1 2.388666 1_555
Cu0 O0 2.045706 1_554
Cu0 O0 2.045706 1_565
Cu0 O1 2.045706 1_554
Cu0 O1 2.045706 1_655
I0 Li1 2.714825 1_544
I0 Li0 2.714825 1_454
I0 Li0 2.714825 1_555
I0 Li1 2.714825 1_555
I1 Li0 2.714825 1_554
I1 Li1 2.714825 1_655
I1 Li1 2.714825 1_554
I1 Li0 2.714825 1_565
