# generated using pymatgen
data_Eu3Mg
_symmetry_space_group_name_H-M   'P 1'
_cell_length_a   7.58227705
_cell_length_b   7.58265664
_cell_length_c   6.03851747
_cell_angle_alpha   90.00000000
_cell_angle_beta   90.00000000
_cell_angle_gamma   120.00369244
_symmetry_Int_Tables_number   1
_chemical_formula_structural   Eu3Mg
_chemical_formula_sum   'Eu6 Mg2'
_cell_volume   300.65320543
_cell_formula_units_Z   2
loop_
 _symmetry_equiv_pos_site_id
 _symmetry_equiv_pos_as_xyz
  1  'x, y, z'
loop_
 _atom_site_type_symbol
 _atom_site_label
 _atom_site_symmetry_multiplicity
 _atom_site_fract_x
 _atom_site_fract_y
 _atom_site_fract_z
 _atom_site_occupancy
  Eu  Eu0  1  0.17116820  0.34221499  0.25000000  1
  Eu  Eu1  1  0.17114969  0.82894382  0.25000000  1
  Eu  Eu2  1  0.65775099  0.82886121  0.25000000  1
  Eu  Eu3  1  0.34224901  0.17113879  0.75000000  1
  Eu  Eu4  1  0.82885031  0.17105618  0.75000000  1
  Eu  Eu5  1  0.82883180  0.65778501  0.75000000  1
  Mg  Mg0  1  0.66670229  0.33334558  0.25000000  1
  Mg  Mg1  1  0.33329771  0.66665442  0.75000000  1
loop_
_geom_bond_atom_site_label_1
_geom_bond_atom_site_label_2
_geom_bond_distance
_geom_bond_site_symmetry_2
Eu0 Eu2 3.689532 1_555
Eu0 Eu1 3.690768 1_555
Eu0 Mg1 3.695227 1_554
Eu0 Mg1 3.695227 1_555
Eu0 Eu3 3.763545 1_555
Eu0 Eu3 3.763545 1_554
Eu0 Eu4 3.764067 1_455
Eu0 Eu4 3.764067 1_454
Eu0 Mg0 3.791355 1_555
Eu0 Mg0 3.791817 1_455
Eu0 Eu1 3.891889 1_545
Eu0 Eu2 3.892511 1_445
Eu1 Eu2 3.689859 1_555
Eu1 Mg1 3.695257 1_554
Eu1 Mg1 3.695257 1_555
Eu1 Eu3 3.763653 1_565
Eu1 Eu3 3.763653 1_564
Eu1 Eu5 3.764067 1_455
Eu1 Eu5 3.764067 1_454
Eu1 Mg0 3.791298 1_565
Eu1 Mg0 3.791637 1_455
Eu1 Eu2 3.892418 1_455
Eu2 Mg1 3.695218 1_555
Eu2 Mg1 3.695218 1_554
Eu2 Eu5 3.763545 1_554
Eu2 Eu5 3.763545 1_555
Eu2 Eu4 3.763653 1_565
Eu2 Eu4 3.763653 1_564
Eu2 Mg0 3.791720 1_555
Eu2 Mg0 3.791848 1_565
Eu3 Eu5 3.689532 1_555
Eu3 Eu4 3.689859 1_555
Eu3 Mg0 3.695218 1_556
Eu3 Mg0 3.695218 1_555
Eu3 Mg1 3.791720 1_555
Eu3 Mg1 3.791848 1_545
Eu3 Eu4 3.892418 1_455
Eu3 Eu5 3.892511 1_445
Eu4 Eu5 3.690768 1_555
Eu4 Mg0 3.695257 1_556
Eu4 Mg0 3.695257 1_555
Eu4 Mg1 3.791298 1_545
Eu4 Mg1 3.791637 1_655
Eu4 Eu5 3.891889 1_545
Eu5 Mg0 3.695227 1_555
Eu5 Mg0 3.695227 1_556
Eu5 Mg1 3.791355 1_555
Eu5 Mg1 3.791817 1_655
