# generated using pymatgen
data_K2LiNd4Nb2O12
_symmetry_space_group_name_H-M   'P 1'
_cell_length_a   5.78919800
_cell_length_b   6.99631857
_cell_length_c   8.86692898
_cell_angle_alpha   102.73350210
_cell_angle_beta   90.00000000
_cell_angle_gamma   114.43947297
_symmetry_Int_Tables_number   1
_chemical_formula_structural   K2LiNd4Nb2O12
_chemical_formula_sum   'K2 Li1 Nd4 Nb2 O12'
_cell_volume   317.23130250
_cell_formula_units_Z   1
loop_
 _symmetry_equiv_pos_site_id
 _symmetry_equiv_pos_as_xyz
  1  'x, y, z'
loop_
 _atom_site_type_symbol
 _atom_site_label
 _atom_site_symmetry_multiplicity
 _atom_site_fract_x
 _atom_site_fract_y
 _atom_site_fract_z
 _atom_site_occupancy
  K  K0  1  0.09899200  0.24276700  0.48226400  1
  K  K1  1  0.85622600  0.75723300  0.51773600  1
  Li  Li0  1  0.43983000  0.00000000  0.50000000  1
  Nd  Nd0  1  0.11831200  0.25402200  0.92107200  1
  Nd  Nd1  1  0.57219600  0.16354800  0.19572200  1
  Nd  Nd2  1  0.40864700  0.83645200  0.80427800  1
  Nd  Nd3  1  0.86429000  0.74597900  0.07892800  1
  Nb  Nb0  1  0.66396500  0.34519900  0.71901100  1
  Nb  Nb1  1  0.31876700  0.65480100  0.28098900  1
  O  O0  1  0.99904900  0.53945800  0.83641100  1
  O  O1  1  0.20632100  0.90182600  0.29993100  1
  O  O2  1  0.23844600  0.00000000  0.00000000  1
  O  O3  1  0.77232400  0.10276800  0.70626500  1
  O  O4  1  0.66955600  0.89723200  0.29373500  1
  O  O5  1  0.74496400  0.00000000  0.00000000  1
  O  O6  1  0.30449500  0.09817400  0.70006900  1
  O  O7  1  0.98240000  0.46107900  0.16477400  1
  O  O8  1  0.64604000  0.32343700  0.49863300  1
  O  O9  1  0.32260200  0.67656300  0.50136700  1
  O  O10  1  0.45959000  0.46054200  0.16358900  1
  O  O11  1  0.52132200  0.53892100  0.83522600  1
loop_
_geom_bond_atom_site_label_1
_geom_bond_atom_site_label_2
_geom_bond_distance
_geom_bond_site_symmetry_2
K0 O9 2.727262 1_555
K0 O3 2.793864 1_455
K0 O6 2.832958 1_555
K0 O4 2.839842 1_445
K0 O1 2.866368 1_545
K0 O8 2.898999 1_455
K0 O8 2.975595 1_555
K1 O8 2.727262 1_555
K1 O4 2.793867 1_555
K1 O1 2.832954 1_655
K1 O3 2.839845 1_565
K1 O6 2.866364 1_665
K1 O9 2.899011 1_555
K1 O9 2.975584 1_655
Li0 O1 2.034902 1_545
Li0 O6 2.034902 1_555
Li0 O9 2.079096 1_545
Li0 O8 2.079097 1_555
Li0 O4 2.417068 1_545
Li0 O3 2.417068 1_555
Nd0 O5 2.385306 1_456
Nd0 O2 2.388106 1_556
Nd0 O3 2.473294 1_455
Nd0 O6 2.494254 1_555
Nd0 O11 2.610859 1_555
Nd0 O0 2.613429 1_455
Nd0 O10 2.623637 1_556
Nd0 O7 2.636337 1_456
Nd1 O2 2.312895 1_555
Nd1 O5 2.322293 1_555
Nd1 O4 2.475365 1_545
Nd1 O10 2.491085 1_555
Nd1 O7 2.491844 1_555
Nd1 O1 2.495939 1_545
Nd1 O8 2.632091 1_555
Nd2 O2 2.312892 1_566
Nd2 O5 2.322297 1_566
Nd2 O3 2.475368 1_565
Nd2 O0 2.491078 1_455
Nd2 O11 2.491851 1_555
Nd2 O6 2.495936 1_565
Nd2 O9 2.632091 1_555
Nd3 O5 2.385300 1_565
Nd3 O2 2.388103 1_665
Nd3 O4 2.473291 1_555
Nd3 O1 2.494254 1_655
Nd3 O7 2.610862 1_555
Nd3 O10 2.613436 1_555
Nd3 O0 2.623644 1_554
Nd3 O11 2.636335 1_554
Nb0 O8 1.925652 1_555
Nb0 O0 1.971953 1_555
Nb0 O11 1.972607 1_555
Nb0 O3 2.019665 1_555
Nb0 O6 2.059572 1_555
Nb1 O9 1.925652 1_555
Nb1 O10 1.971945 1_555
Nb1 O7 1.972615 1_455
Nb1 O4 2.019661 1_555
Nb1 O1 2.059576 1_555
