# generated using pymatgen
data_SmAsO2
_symmetry_space_group_name_H-M   'P 1'
_cell_length_a   6.54941900
_cell_length_b   6.54941900
_cell_length_c   7.48821130
_cell_angle_alpha   115.93271711
_cell_angle_beta   115.93271711
_cell_angle_gamma   90.00000000
_symmetry_Int_Tables_number   1
_chemical_formula_structural   SmAsO2
_chemical_formula_sum   'Sm4 As4 O8'
_cell_volume   252.40957096
_cell_formula_units_Z   4
loop_
 _symmetry_equiv_pos_site_id
 _symmetry_equiv_pos_as_xyz
  1  'x, y, z'
loop_
 _atom_site_type_symbol
 _atom_site_label
 _atom_site_symmetry_multiplicity
 _atom_site_fract_x
 _atom_site_fract_y
 _atom_site_fract_z
 _atom_site_occupancy
  Sm  Sm0  1  0.62500000  0.87500000  0.25000000  1
  Sm  Sm1  1  0.62500000  0.37500000  0.25000000  1
  Sm  Sm2  1  0.62500000  0.37500000  0.75000000  1
  Sm  Sm3  1  0.12500000  0.37500000  0.75000000  1
  As  As0  1  0.12500000  0.37500000  0.25000000  1
  As  As1  1  0.12500000  0.87500000  0.25000000  1
  As  As2  1  0.12500000  0.87500000  0.75000000  1
  As  As3  1  0.62500000  0.87500000  0.75000000  1
  O  O0  1  0.41791800  0.17205600  0.34138800  1
  O  O1  1  0.92347000  0.16933100  0.34138800  1
  O  O2  1  0.41933100  0.16791800  0.84138800  1
  O  O3  1  0.83208200  0.57794400  0.15861200  1
  O  O4  1  0.42205600  0.67347000  0.84138800  1
  O  O5  1  0.32653000  0.58066900  0.15861200  1
  O  O6  1  0.83066900  0.58208200  0.65861200  1
  O  O7  1  0.82794400  0.07653000  0.65861200  1
loop_
_geom_bond_atom_site_label_1
_geom_bond_atom_site_label_2
_geom_bond_distance
_geom_bond_site_symmetry_2
As0 O3 2.358540 1_455
As0 O0 2.358540 1_555
As0 O5 2.370897 1_555
As0 O1 2.370897 1_455
As1 O5 2.358535 1_555
As1 O1 2.358535 1_465
As1 O3 2.370893 1_455
As1 O0 2.370893 1_565
As2 O6 2.358535 1_455
As2 O2 2.358535 1_565
As2 O4 2.370893 1_555
As2 O7 2.370893 1_465
As3 O7 2.358540 1_565
As3 O4 2.358540 1_555
As3 O2 2.370897 1_565
As3 O6 2.370897 1_555
O0 Sm1 2.383650 1_555
O0 Sm0 2.395873 1_545
O0 Sm2 2.404511 1_555
O1 Sm0 2.383645 1_545
O1 Sm1 2.395878 1_555
O1 Sm3 2.404511 1_655
O2 Sm3 2.383645 1_555
O2 Sm2 2.395878 1_555
O2 Sm1 2.404511 1_556
O3 Sm1 2.383650 1_555
O3 Sm0 2.395873 1_555
O3 Sm2 2.404511 1_554
O4 Sm2 2.383650 1_555
O4 Sm3 2.395873 1_555
O4 Sm0 2.404511 1_556
O5 Sm0 2.383645 1_555
O5 Sm1 2.395878 1_555
O5 Sm3 2.404511 1_554
O6 Sm3 2.383645 1_655
O6 Sm2 2.395878 1_555
O6 Sm1 2.404511 1_555
O7 Sm2 2.383650 1_555
O7 Sm3 2.395873 1_655
O7 Sm0 2.404511 1_545
