# generated using pymatgen
data_Sr3TiNb4O15
_symmetry_space_group_name_H-M   'P 1'
_cell_length_a   12.61685500
_cell_length_b   4.00969500
_cell_length_c   12.64955209
_cell_angle_alpha   89.80389617
_cell_angle_beta   90.00000000
_cell_angle_gamma   90.00000000
_symmetry_Int_Tables_number   1
_chemical_formula_structural   Sr3TiNb4O15
_chemical_formula_sum   'Sr6 Ti2 Nb8 O30'
_cell_volume   639.93380833
_cell_formula_units_Z   2
loop_
 _symmetry_equiv_pos_site_id
 _symmetry_equiv_pos_as_xyz
  1  'x, y, z'
loop_
 _atom_site_type_symbol
 _atom_site_label
 _atom_site_symmetry_multiplicity
 _atom_site_fract_x
 _atom_site_fract_y
 _atom_site_fract_z
 _atom_site_occupancy
  Sr  Sr0  1  0.75633400  0.23248800  0.49958700  1
  Sr  Sr1  1  0.24366600  0.23248800  0.99958700  1
  Sr  Sr2  1  0.89655400  0.23947200  0.80079200  1
  Sr  Sr3  1  0.63346200  0.24815500  0.21788000  1
  Sr  Sr4  1  0.10344600  0.23947200  0.30079200  1
  Sr  Sr5  1  0.36653800  0.24815500  0.71788000  1
  Ti  Ti0  1  0.83824800  0.77275900  0.29527400  1
  Ti  Ti1  1  0.16175200  0.77275900  0.79527400  1
  Nb  Nb0  1  0.66749100  0.71900800  0.71442400  1
  Nb  Nb1  1  0.33250900  0.71900800  0.21442400  1
  Nb  Nb2  1  0.54275600  0.75107000  0.42650600  1
  Nb  Nb3  1  0.96513000  0.71904700  0.57708700  1
  Nb  Nb4  1  0.45724400  0.75107000  0.92650600  1
  Nb  Nb5  1  0.03487000  0.71904700  0.07708700  1
  Nb  Nb6  1  0.74972700  0.77059100  0.00610700  1
  Nb  Nb7  1  0.25027300  0.77059100  0.50610700  1
  O  O0  1  0.82428600  0.22029600  0.29777100  1
  O  O1  1  0.67719300  0.23138700  0.69894800  1
  O  O2  1  0.17571400  0.22029600  0.79777100  1
  O  O3  1  0.32280700  0.23138700  0.19894800  1
  O  O4  1  0.88085300  0.72924700  0.43965700  1
  O  O5  1  0.62438000  0.72821400  0.55611900  1
  O  O6  1  0.11914700  0.72924700  0.93965700  1
  O  O7  1  0.37562000  0.72821400  0.05611900  1
  O  O8  1  0.09061300  0.73846400  0.48584400  1
  O  O9  1  0.40767600  0.72247200  0.50144100  1
  O  O10  1  0.90938700  0.73846400  0.98584400  1
  O  O11  1  0.59232400  0.72247200  0.00144100  1
  O  O12  1  0.55063800  0.23023900  0.41065700  1
  O  O13  1  0.95486200  0.23663200  0.58694500  1
  O  O14  1  0.44936200  0.23023900  0.91065700  1
  O  O15  1  0.04513800  0.23663200  0.08694500  1
  O  O16  1  0.68219400  0.72791300  0.34841400  1
  O  O17  1  0.82009900  0.74119400  0.64210400  1
  O  O18  1  0.31780600  0.72791300  0.84841400  1
  O  O19  1  0.17990100  0.74119400  0.14210400  1
  O  O20  1  0.75378000  0.72980800  0.15647200  1
  O  O21  1  0.75602400  0.72078800  0.83947800  1
  O  O22  1  0.24622000  0.72980800  0.65647200  1
  O  O23  1  0.24397600  0.72078800  0.33947800  1
  O  O24  1  0.02345600  0.73628100  0.72819400  1
  O  O25  1  0.47404200  0.73000800  0.27092100  1
  O  O26  1  0.97654400  0.73628100  0.22819400  1
  O  O27  1  0.52595800  0.73000800  0.77092100  1
  O  O28  1  0.74984600  0.23546500  0.99937800  1
  O  O29  1  0.25015400  0.23546500  0.49937800  1
loop_
_geom_bond_atom_site_label_1
_geom_bond_atom_site_label_2
_geom_bond_distance
_geom_bond_site_symmetry_2
Nb0 O27 1.923963 1_555
Nb0 O21 1.936536 1_555
Nb0 O1 1.969462 1_555
Nb0 O1 2.066750 1_565
Nb0 O5 2.075251 1_555
Nb0 O17 2.133433 1_555
Nb1 O25 1.923963 1_555
Nb1 O23 1.936536 1_555
Nb1 O3 1.969462 1_555
Nb1 O3 2.066750 1_565
Nb1 O7 2.075251 1_555
Nb1 O19 2.133433 1_555
Nb2 O12 1.933629 1_565
Nb2 O5 1.938053 1_555
Nb2 O9 1.953329 1_555
Nb2 O16 2.019921 1_555
Nb2 O12 2.101012 1_555
Nb2 O25 2.152492 1_555
Nb3 O13 1.942252 1_555
Nb3 O8 1.960640 1_655
Nb3 O17 2.008254 1_555
Nb3 O4 2.038123 1_555
Nb3 O24 2.049586 1_655
Nb3 O13 2.083558 1_565
Nb4 O14 1.933629 1_565
Nb4 O7 1.938053 1_556
Nb4 O11 1.953329 1_556
Nb4 O18 2.019921 1_555
Nb4 O14 2.101012 1_555
Nb4 O27 2.152492 1_555
Nb5 O15 1.942252 1_555
Nb5 O10 1.960640 1_454
Nb5 O19 2.008254 1_555
Nb5 O6 2.038123 1_554
Nb5 O26 2.049586 1_455
Nb5 O15 2.083558 1_565
Nb6 O28 1.865655 1_564
Nb6 O20 1.909194 1_555
Nb6 O11 1.996174 1_555
Nb6 O10 2.034786 1_554
Nb6 O21 2.119391 1_554
Nb6 O28 2.147671 1_554
Nb7 O29 1.865655 1_565
Nb7 O22 1.909194 1_555
Nb7 O9 1.996174 1_555
Nb7 O8 2.034786 1_555
Nb7 O23 2.119391 1_555
Nb7 O29 2.147671 1_555
O0 Ti0 1.803497 1_545
O0 Ti0 2.222318 1_555
O0 Sr3 2.613335 1_555
O0 Sr0 2.693600 1_555
O1 Sr0 2.712302 1_555
O1 Sr2 3.053010 1_555
O2 Ti1 1.803497 1_545
O2 Ti1 2.222318 1_555
O2 Sr5 2.613335 1_555
O2 Sr1 2.693600 1_555
O3 Sr1 2.712302 1_554
O3 Sr4 3.053010 1_555
O4 Ti0 1.911249 1_555
O4 Sr0 2.645751 1_555
O4 Sr0 2.669273 1_565
O5 Sr0 2.691431 1_555
O5 Sr0 2.713228 1_565
O6 Ti1 1.911249 1_555
O6 Sr1 2.645751 1_555
O6 Sr1 2.669273 1_565
O7 Sr1 2.691431 1_554
O7 Sr1 2.713228 1_564
O8 Sr4 3.083687 1_565
O8 Sr4 3.088845 1_555
O10 Sr2 3.083687 1_565
O10 Sr2 3.088845 1_555
O12 Sr3 2.653758 1_555
O12 Sr0 2.828579 1_555
O13 Sr0 2.737797 1_555
O13 Sr2 2.803380 1_555
O14 Sr5 2.653758 1_555
O14 Sr1 2.828579 1_555
O15 Sr1 2.737797 1_554
O15 Sr4 2.803380 1_555
O16 Ti0 2.088053 1_555
O16 Sr3 2.612812 1_555
O16 Sr3 2.726234 1_565
O16 Sr0 2.907227 1_555
O16 Sr0 2.941355 1_565
O17 Sr0 2.784528 1_565
O17 Sr0 2.843065 1_555
O17 Sr2 2.996516 1_565
O17 Sr2 2.996562 1_555
O18 Ti1 2.088053 1_555
O18 Sr5 2.612812 1_555
O18 Sr5 2.726234 1_565
O18 Sr1 2.907227 1_555
O18 Sr1 2.941355 1_565
O19 Sr1 2.784528 1_564
O19 Sr1 2.843065 1_554
O19 Sr4 2.996516 1_565
O19 Sr4 2.996562 1_555
O20 Ti0 2.061617 1_555
O20 Sr3 2.574374 1_555
O20 Sr3 2.690479 1_565
O21 Sr2 2.667258 1_555
O21 Sr2 2.775180 1_565
O22 Ti1 2.061617 1_555
O22 Sr5 2.574374 1_555
O22 Sr5 2.690479 1_565
O23 Sr4 2.667258 1_555
O23 Sr4 2.775180 1_565
O24 Ti1 1.945967 1_555
O24 Sr2 2.713415 1_455
O24 Sr2 2.736866 1_465
O25 Sr3 2.870128 1_555
O25 Sr3 2.966941 1_565
O26 Ti0 1.945967 1_555
O26 Sr4 2.713415 1_655
O26 Sr4 2.736866 1_665
O27 Sr5 2.870128 1_555
O27 Sr5 2.966941 1_565
O28 Sr2 3.120324 1_555
O28 Sr3 3.130365 1_556
O29 Sr4 3.120324 1_555
O29 Sr5 3.130365 1_555
