# generated using pymatgen
data_TbGePd
_symmetry_space_group_name_H-M   'P 1'
_cell_length_a   5.66295403
_cell_length_b   5.66295403
_cell_length_c   7.06124505
_cell_angle_alpha   51.84841802
_cell_angle_beta   51.84841802
_cell_angle_gamma   45.74243078
_symmetry_Int_Tables_number   1
_chemical_formula_structural   TbGePd
_chemical_formula_sum   'Tb2 Ge2 Pd2'
_cell_volume   120.33237654
_cell_formula_units_Z   2
loop_
 _symmetry_equiv_pos_site_id
 _symmetry_equiv_pos_as_xyz
  1  'x, y, z'
loop_
 _atom_site_type_symbol
 _atom_site_label
 _atom_site_symmetry_multiplicity
 _atom_site_fract_x
 _atom_site_fract_y
 _atom_site_fract_z
 _atom_site_occupancy
  Tb  Tb0  1  0.54209700  0.54209700  0.69809800  1
  Tb  Tb1  1  0.45790300  0.45790300  0.30190200  1
  Ge  Ge0  1  0.83996300  0.83996300  0.10741900  1
  Ge  Ge1  1  0.16003700  0.16003700  0.89258100  1
  Pd  Pd0  1  0.17871500  0.17871500  0.27255900  1
  Pd  Pd1  1  0.82128500  0.82128500  0.72744100  1
loop_
_geom_bond_atom_site_label_1
_geom_bond_atom_site_label_2
_geom_bond_distance
_geom_bond_site_symmetry_2
Ge0 Pd0 2.530693 1_655
Ge0 Pd0 2.530693 1_565
Ge0 Ge1 2.581344 1_664
Ge0 Pd1 2.817512 1_554
Ge0 Tb0 3.077735 1_564
Ge0 Tb0 3.077735 1_654
Ge0 Tb0 3.110306 1_555
Ge0 Tb1 3.231108 1_555
Ge0 Tb1 3.242124 1_565
Ge0 Tb1 3.242124 1_655
Ge1 Pd1 2.530693 1_545
Ge1 Pd1 2.530693 1_455
Ge1 Pd0 2.817512 1_556
Ge1 Tb1 3.077735 1_546
Ge1 Tb1 3.077735 1_456
Ge1 Tb1 3.110306 1_555
Ge1 Tb0 3.231108 1_555
Ge1 Tb0 3.242124 1_545
Ge1 Tb0 3.242124 1_455
Pd0 Pd1 2.857381 1_445
Pd0 Tb1 3.056245 1_555
Pd0 Tb1 3.091390 1_455
Pd0 Tb1 3.091390 1_545
Pd0 Tb0 3.187712 1_455
Pd0 Tb0 3.187712 1_545
Pd0 Tb0 3.195015 1_554
Pd1 Tb0 3.056245 1_555
Pd1 Tb0 3.091390 1_655
Pd1 Tb0 3.091390 1_565
Pd1 Tb1 3.187712 1_565
Pd1 Tb1 3.187712 1_655
Pd1 Tb1 3.195015 1_556
