# generated using pymatgen
data_CsSrBr3
_symmetry_space_group_name_H-M   'P 1'
_cell_length_a   8.21232242
_cell_length_b   8.50669965
_cell_length_c   11.79237493
_cell_angle_alpha   90.00000000
_cell_angle_beta   90.00000000
_cell_angle_gamma   90.00000000
_symmetry_Int_Tables_number   1
_chemical_formula_structural   CsSrBr3
_chemical_formula_sum   'Cs4 Sr4 Br12'
_cell_volume   823.81248546
_cell_formula_units_Z   4
loop_
 _symmetry_equiv_pos_site_id
 _symmetry_equiv_pos_as_xyz
  1  'x, y, z'
loop_
 _atom_site_type_symbol
 _atom_site_label
 _atom_site_symmetry_multiplicity
 _atom_site_fract_x
 _atom_site_fract_y
 _atom_site_fract_z
 _atom_site_occupancy
  Cs  Cs0  1  0.01934604  0.44161822  0.25000000  1
  Cs  Cs1  1  0.98065396  0.55838178  0.75000000  1
  Cs  Cs2  1  0.51934604  0.05838178  0.75000000  1
  Cs  Cs3  1  0.48065396  0.94161822  0.25000000  1
  Sr  Sr0  1  0.00000000  0.00000000  -0.00000000  1
  Sr  Sr1  1  0.50000000  0.50000000  -0.00000000  1
  Sr  Sr2  1  0.00000000  0.00000000  0.50000000  1
  Sr  Sr3  1  0.50000000  0.50000000  0.50000000  1
  Br  Br0  1  0.29647543  0.20607051  0.04124539  1
  Br  Br1  1  0.70352457  0.79392949  0.95875461  1
  Br  Br2  1  0.79647543  0.29392949  0.95875461  1
  Br  Br3  1  0.70352457  0.79392949  0.54124539  1
  Br  Br4  1  0.20352457  0.70607051  0.04124539  1
  Br  Br5  1  0.29647543  0.20607051  0.45875461  1
  Br  Br6  1  0.20352457  0.70607051  0.45875461  1
  Br  Br7  1  0.79647543  0.29392949  0.54124539  1
  Br  Br8  1  0.58015267  0.51591248  0.25000000  1
  Br  Br9  1  0.41984733  0.48408752  0.75000000  1
  Br  Br10  1  0.08015267  0.98408752  0.75000000  1
  Br  Br11  1  0.91984733  0.01591248  0.25000000  1
loop_
_geom_bond_atom_site_label_1
_geom_bond_atom_site_label_2
_geom_bond_distance
_geom_bond_site_symmetry_2
Br0 Sr0 3.039329 1_555
Br0 Sr1 3.046642 1_555
Br0 Cs3 3.661770 1_545
Br0 Cs0 3.905712 1_555
Br0 Cs2 4.089494 1_554
Br1 Sr0 3.039329 1_666
Br1 Sr1 3.046642 1_556
Br1 Cs2 3.661770 1_565
Br1 Cs1 3.905712 1_555
Br1 Cs3 4.089494 1_556
Br2 Sr1 3.039329 1_556
Br2 Sr0 3.046642 1_656
Br2 Cs1 3.661770 1_555
Br2 Cs2 3.905712 1_555
Br2 Cs0 4.089494 1_656
Br3 Sr2 3.039329 1_665
Br3 Sr3 3.046642 1_555
Br3 Cs2 3.661770 1_565
Br3 Cs1 3.905712 1_555
Br3 Cs3 4.089494 1_555
Br4 Sr1 3.039329 1_555
Br4 Sr0 3.046642 1_565
Br4 Cs0 3.661770 1_555
Br4 Cs3 3.905712 1_555
Br4 Cs1 4.089494 1_454
Br5 Sr2 3.039329 1_555
Br5 Sr3 3.046642 1_555
Br5 Cs3 3.661770 1_545
Br5 Cs0 3.905712 1_555
Br5 Cs2 4.089494 1_555
Br6 Sr3 3.039329 1_555
Br6 Sr2 3.046642 1_565
Br6 Cs0 3.661770 1_555
Br6 Cs3 3.905712 1_555
Br6 Cs1 4.089494 1_455
Br7 Sr3 3.039329 1_555
Br7 Sr2 3.046642 1_655
Br7 Cs1 3.661770 1_555
Br7 Cs2 3.905712 1_555
Br7 Cs0 4.089494 1_655
Br8 Sr3 3.023716 1_555
Br8 Sr1 3.023716 1_555
Br8 Cs0 3.661750 1_655
Br8 Cs3 3.712393 1_555
Br9 Sr1 3.023716 1_556
Br9 Sr3 3.023716 1_555
Br9 Cs1 3.661750 1_455
Br9 Cs2 3.712393 1_555
Br10 Sr2 3.023716 1_565
Br10 Sr0 3.023716 1_566
Br10 Cs2 3.661750 1_565
Br10 Cs1 3.712393 1_455
Br11 Sr0 3.023716 1_655
Br11 Sr2 3.023716 1_655
Br11 Cs3 3.661750 1_545
Br11 Cs0 3.712393 1_655
