# generated using pymatgen
data_Mg2Cr2(SiO4)3
_symmetry_space_group_name_H-M   'P 1'
_cell_length_a   10.12495973
_cell_length_b   10.12495973
_cell_length_c   10.12495973
_cell_angle_alpha   109.49628311
_cell_angle_beta   109.49628311
_cell_angle_gamma   109.42110730
_symmetry_Int_Tables_number   1
_chemical_formula_structural   Mg2Cr2(SiO4)3
_chemical_formula_sum   'Mg8 Cr8 Si12 O48'
_cell_volume   799.02022755
_cell_formula_units_Z   4
loop_
 _symmetry_equiv_pos_site_id
 _symmetry_equiv_pos_as_xyz
  1  'x, y, z'
loop_
 _atom_site_type_symbol
 _atom_site_label
 _atom_site_symmetry_multiplicity
 _atom_site_fract_x
 _atom_site_fract_y
 _atom_site_fract_z
 _atom_site_occupancy
  Mg  Mg0  1  0.74681400  0.37500000  0.87181400  1
  Mg  Mg1  1  0.62500000  0.99681400  0.87181400  1
  Mg  Mg2  1  0.12500000  0.75318600  0.12818600  1
  Mg  Mg3  1  0.50318600  0.87500000  0.12818600  1
  Mg  Mg4  1  0.00318600  0.87500000  0.62818600  1
  Mg  Mg5  1  0.12500000  0.25318600  0.62818600  1
  Mg  Mg6  1  0.62500000  0.49681400  0.37181400  1
  Mg  Mg7  1  0.24681400  0.37500000  0.37181400  1
  Cr  Cr0  1  0.87500000  0.62500000  0.25000000  1
  Cr  Cr1  1  0.37500000  0.12500000  0.75000000  1
  Cr  Cr2  1  0.87500000  0.12500000  0.25000000  1
  Cr  Cr3  1  0.37500000  0.62500000  0.75000000  1
  Cr  Cr4  1  0.37500000  0.12500000  0.25000000  1
  Cr  Cr5  1  0.87500000  0.12500000  0.75000000  1
  Cr  Cr6  1  0.87500000  0.62500000  0.75000000  1
  Cr  Cr7  1  0.37500000  0.62500000  0.25000000  1
  Si  Si0  1  0.25008100  0.87500000  0.87508100  1
  Si  Si1  1  0.12500000  0.00008100  0.37508100  1
  Si  Si2  1  0.50000000  0.50000000  0.00000000  1
  Si  Si3  1  0.62500000  0.74991900  0.62491900  1
  Si  Si4  1  0.00000000  0.00000000  0.00000000  1
  Si  Si5  1  0.75000000  0.25000000  0.50000000  1
  Si  Si6  1  0.75008100  0.87500000  0.37508100  1
  Si  Si7  1  0.25000000  0.75000000  0.50000000  1
  Si  Si8  1  0.99991900  0.37500000  0.12491900  1
  Si  Si9  1  0.62500000  0.24991900  0.12491900  1
  Si  Si10  1  0.12500000  0.50008100  0.87508100  1
  Si  Si11  1  0.49991900  0.37500000  0.62491900  1
  O  O0  1  0.25333200  0.01603600  0.82795200  1
  O  O1  1  0.17537900  0.50333200  0.73729600  1
  O  O2  1  0.76603600  0.43808300  0.26270400  1
  O  O3  1  0.06548200  0.72010600  0.45343500  1
  O  O4  1  0.18451800  0.13795300  0.15462400  1
  O  O5  1  0.35555500  0.41684400  0.62574500  1
  O  O6  1  0.45890100  0.33315600  0.43871100  1
  O  O7  1  0.36204700  0.31548200  0.84537600  1
  O  O8  1  0.16684400  0.04109900  0.56128900  1
  O  O9  1  0.77989400  0.43451800  0.54656500  1
  O  O10  1  0.08315600  0.14444500  0.37425500  1
  O  O11  1  0.47010600  0.51667100  0.15462400  1
  O  O12  1  0.77019000  0.70890100  0.62574500  1
  O  O13  1  0.47981000  0.60555500  0.43871100  1
  O  O14  1  0.88795300  0.23332900  0.45343500  1
  O  O15  1  0.18808300  0.42537900  0.17204800  1
  O  O16  1  0.48396400  0.24666800  0.17204800  1
  O  O17  1  0.99666800  0.32462100  0.26270400  1
  O  O18  1  0.26667100  0.61204700  0.54656500  1
  O  O19  1  0.06191700  0.73396400  0.73729600  1
  O  O20  1  0.89444500  0.02019000  0.56128900  1
  O  O21  1  0.07462100  0.31191700  0.82795200  1
  O  O22  1  0.98332900  0.02989400  0.84537600  1
  O  O23  1  0.79109900  0.72981000  0.37425500  1
  O  O24  1  0.49666800  0.23396400  0.67204800  1
  O  O25  1  0.57462100  0.74666800  0.76270400  1
  O  O26  1  0.98396400  0.81191700  0.23729600  1
  O  O27  1  0.68451800  0.52989400  0.04656500  1
  O  O28  1  0.56548200  0.11204700  0.34537600  1
  O  O29  1  0.39444500  0.83315600  0.87425500  1
  O  O30  1  0.29109900  0.91684400  0.06128900  1
  O  O31  1  0.38795300  0.93451800  0.65462400  1
  O  O32  1  0.58315600  0.20890100  0.93871100  1
  O  O33  1  0.97010600  0.81548200  0.95343500  1
  O  O34  1  0.66684400  0.10555500  0.12574500  1
  O  O35  1  0.27989400  0.73332900  0.34537600  1
  O  O36  1  0.97981000  0.54109900  0.87425500  1
  O  O37  1  0.27019000  0.64444500  0.06128900  1
  O  O38  1  0.86204700  0.01667100  0.04656500  1
  O  O39  1  0.56191700  0.82462100  0.32795200  1
  O  O40  1  0.26603600  0.00333200  0.32795200  1
  O  O41  1  0.75333200  0.92537900  0.23729600  1
  O  O42  1  0.48332900  0.63795300  0.95343500  1
  O  O43  1  0.68808300  0.51603600  0.76270400  1
  O  O44  1  0.85555500  0.22981000  0.93871100  1
  O  O45  1  0.67537900  0.93808300  0.67204800  1
  O  O46  1  0.76667100  0.22010600  0.65462400  1
  O  O47  1  0.95890100  0.52019000  0.12574500  1
loop_
_geom_bond_atom_site_label_1
_geom_bond_atom_site_label_2
_geom_bond_distance
_geom_bond_site_symmetry_2
Mg0 O24 2.189148 1_555
Mg0 O43 2.189151 1_555
Mg0 O44 2.252818 1_555
Mg0 O47 2.252818 1_556
Mg0 O27 2.353410 1_556
Mg0 O46 2.353410 1_555
Mg0 O32 2.385181 1_555
Mg0 O36 2.385181 1_555
Mg1 O45 2.189142 1_555
Mg1 O25 2.189151 1_555
Mg1 O32 2.252818 1_565
Mg1 O34 2.252818 1_566
Mg1 O38 2.353410 1_566
Mg1 O31 2.353410 1_555
Mg1 O29 2.385181 1_555
Mg1 O44 2.385181 1_565
Mg2 O40 2.189148 1_565
Mg2 O26 2.189151 1_455
Mg2 O36 2.252818 1_454
Mg2 O37 2.252818 1_555
Mg2 O33 2.353410 1_454
Mg2 O35 2.353410 1_555
Mg2 O30 2.385181 1_555
Mg2 O47 2.385181 1_455
Mg3 O39 2.189142 1_555
Mg3 O41 2.189151 1_555
Mg3 O29 2.252818 1_554
Mg3 O30 2.252818 1_555
Mg3 O42 2.353410 1_554
Mg3 O28 2.353410 1_565
Mg3 O37 2.385181 1_555
Mg3 O34 2.385181 1_565
Mg4 O0 2.189148 1_565
Mg4 O19 2.189151 1_555
Mg4 O20 2.252818 1_465
Mg4 O23 2.252818 1_455
Mg4 O22 2.353410 1_465
Mg4 O3 2.353410 1_555
Mg4 O8 2.385181 1_565
Mg4 O12 2.385181 1_455
Mg5 O21 2.189142 1_555
Mg5 O1 2.189151 1_555
Mg5 O8 2.252818 1_555
Mg5 O10 2.252818 1_555
Mg5 O7 2.353410 1_555
Mg5 O14 2.353410 1_455
Mg5 O5 2.385181 1_555
Mg5 O20 2.385181 1_455
Mg6 O16 2.189148 1_555
Mg6 O2 2.189151 1_555
Mg6 O12 2.252818 1_555
Mg6 O13 2.252818 1_555
Mg6 O9 2.353410 1_555
Mg6 O11 2.353410 1_555
Mg6 O23 2.385181 1_555
Mg6 O6 2.385181 1_555
Mg7 O15 2.189142 1_555
Mg7 O17 2.189151 1_455
Mg7 O6 2.252818 1_555
Mg7 O5 2.252818 1_555
Mg7 O4 2.353410 1_555
Mg7 O18 2.353410 1_555
Mg7 O13 2.385181 1_555
Mg7 O10 2.385181 1_555
Cr0 O3 1.918048 1_655
Cr0 O27 1.918048 1_555
Cr0 O26 1.919394 1_555
Cr0 O2 1.919394 1_555
Cr0 O47 1.962717 1_555
Cr0 O23 1.962717 1_555
Cr1 O7 1.918048 1_555
Cr1 O31 1.918048 1_545
Cr1 O0 1.919385 1_555
Cr1 O24 1.919385 1_555
Cr1 O32 1.962717 1_555
Cr1 O8 1.962717 1_555
Cr2 O14 1.918048 1_555
Cr2 O38 1.918048 1_555
Cr2 O17 1.919394 1_555
Cr2 O41 1.919394 1_545
Cr2 O10 1.962717 1_655
Cr2 O34 1.962717 1_555
Cr3 O18 1.918048 1_555
Cr3 O42 1.918048 1_555
Cr3 O1 1.919394 1_555
Cr3 O25 1.919394 1_555
Cr3 O5 1.962717 1_555
Cr3 O29 1.962717 1_555
Cr4 O4 1.918048 1_555
Cr4 O28 1.918048 1_555
Cr4 O16 1.919385 1_555
Cr4 O40 1.919385 1_555
Cr4 O6 1.962717 1_555
Cr4 O30 1.962717 1_545
Cr5 O46 1.918048 1_555
Cr5 O22 1.918048 1_555
Cr5 O45 1.919396 1_545
Cr5 O21 1.919396 1_655
Cr5 O44 1.962717 1_555
Cr5 O20 1.962717 1_555
Cr6 O9 1.918048 1_555
Cr6 O33 1.918048 1_555
Cr6 O43 1.919394 1_555
Cr6 O19 1.919394 1_655
Cr6 O12 1.962717 1_555
Cr6 O36 1.962717 1_555
Cr7 O11 1.918048 1_555
Cr7 O35 1.918048 1_555
Cr7 O15 1.919396 1_555
Cr7 O39 1.919396 1_555
Cr7 O37 1.962717 1_555
Cr7 O13 1.962717 1_555
O0 Si0 1.643770 1_545
O1 Si10 1.643764 1_555
O2 Si9 1.643764 1_555
O3 Si7 1.656795 1_555
O4 Si4 1.656795 1_555
O5 Si11 1.653388 1_555
O6 Si11 1.653388 1_555
O7 Si2 1.656795 1_556
O8 Si1 1.653388 1_555
O9 Si5 1.656795 1_555
O10 Si1 1.653388 1_555
O11 Si2 1.656795 1_555
O12 Si3 1.653388 1_555
O13 Si3 1.653388 1_555
O14 Si5 1.656795 1_555
O15 Si8 1.643762 1_455
O16 Si9 1.643770 1_555
O17 Si8 1.643764 1_555
O18 Si7 1.656795 1_555
O19 Si0 1.643764 1_555
O20 Si6 1.653388 1_545
O21 Si10 1.643762 1_555
O22 Si4 1.656795 1_656
O23 Si6 1.653388 1_555
O24 Si11 1.643770 1_555
O25 Si3 1.643764 1_555
O26 Si1 1.643764 1_665
O27 Si2 1.656795 1_555
O28 Si5 1.656795 1_555
O29 Si0 1.653388 1_555
O30 Si0 1.653388 1_554
O31 Si7 1.656795 1_555
O32 Si9 1.653388 1_556
O33 Si4 1.656795 1_666
O34 Si9 1.653388 1_555
O35 Si7 1.656795 1_555
O36 Si10 1.653388 1_655
O37 Si10 1.653388 1_554
O38 Si4 1.656795 1_655
O39 Si6 1.643762 1_555
O40 Si1 1.643770 1_555
O41 Si6 1.643764 1_555
O42 Si2 1.656795 1_556
O43 Si11 1.643764 1_555
O44 Si8 1.653388 1_556
O45 Si3 1.643762 1_555
O46 Si5 1.656795 1_555
O47 Si8 1.653388 1_555
