# generated using pymatgen
data_TaReSi
_symmetry_space_group_name_H-M   'P 1'
_cell_length_a   3.25537017
_cell_length_b   6.81158945
_cell_length_c   6.81153715
_cell_angle_alpha   120.00026322
_cell_angle_beta   90.00000000
_cell_angle_gamma   90.00000000
_symmetry_Int_Tables_number   1
_chemical_formula_structural   TaReSi
_chemical_formula_sum   'Ta3 Re3 Si3'
_cell_volume   130.80473133
_cell_formula_units_Z   3
loop_
 _symmetry_equiv_pos_site_id
 _symmetry_equiv_pos_as_xyz
  1  'x, y, z'
loop_
 _atom_site_type_symbol
 _atom_site_label
 _atom_site_symmetry_multiplicity
 _atom_site_fract_x
 _atom_site_fract_y
 _atom_site_fract_z
 _atom_site_occupancy
  Ta  Ta0  1  0.50000000  0.59959101  0.00000000  1
  Ta  Ta1  1  0.50000000  0.40040045  0.40043873  1
  Ta  Ta2  1  0.50000000  0.99996072  0.59956127  1
  Re  Re0  1  -0.00000000  0.26116571  0.00000000  1
  Re  Re1  1  -0.00000000  0.73883666  0.73885339  1
  Re  Re2  1  0.00000000  0.99998327  0.26114661  1
  Si  Si0  1  -0.00000000  0.33331501  0.66667703  1
  Si  Si1  1  -0.00000000  0.66663698  0.33332297  1
  Si  Si2  1  0.50000000  0.00001119  1.00000000  1
loop_
_geom_bond_atom_site_label_1
_geom_bond_atom_site_label_2
_geom_bond_distance
_geom_bond_site_symmetry_2
Re0 Si2 2.411175 1_454
Re0 Si2 2.411175 1_554
Re0 Si1 2.551907 1_555
Re0 Si0 2.551911 1_554
Re0 Ta0 2.821945 1_555
Re0 Ta0 2.821945 1_455
Re0 Ta1 2.898578 1_455
Re0 Ta1 2.898578 1_555
Re0 Ta2 2.898579 1_544
Re0 Ta2 2.898579 1_444
Re1 Si2 2.411195 1_465
Re1 Si2 2.411195 1_565
Re1 Si1 2.552175 1_555
Re1 Si0 2.552193 1_555
Re1 Ta1 2.821931 1_455
Re1 Ta1 2.821931 1_555
Re1 Ta0 2.898333 1_456
Re1 Ta0 2.898333 1_556
Re1 Ta2 2.898420 1_455
Re1 Ta2 2.898420 1_555
Re2 Si2 2.411195 1_464
Re2 Si2 2.411195 1_564
Re2 Si0 2.552177 1_565
Re2 Si1 2.552200 1_555
Re2 Ta2 2.821934 1_455
Re2 Ta2 2.821934 1_555
Re2 Ta0 2.898332 1_455
Re2 Ta0 2.898332 1_555
Re2 Ta1 2.898425 1_465
Re2 Ta1 2.898425 1_565
Si0 Ta1 2.641140 1_555
Si0 Ta1 2.641140 1_455
Si0 Ta0 2.641198 1_556
Si0 Ta0 2.641198 1_456
Si0 Ta2 2.641257 1_545
Si0 Ta2 2.641257 1_445
Si1 Ta2 2.641140 1_455
Si1 Ta2 2.641140 1_555
Si1 Ta0 2.641199 1_555
Si1 Ta0 2.641199 1_455
Si1 Ta1 2.641246 1_455
Si1 Ta1 2.641246 1_555
Si2 Ta2 2.727431 1_545
Si2 Ta1 2.727434 1_556
Si2 Ta0 2.727498 1_546
