# generated using pymatgen
data_Ca3(Fe3O5)5
_symmetry_space_group_name_H-M   'P 1'
_cell_length_a   6.07594828
_cell_length_b   6.07522337
_cell_length_c   32.12581705
_cell_angle_alpha   84.54475002
_cell_angle_beta   84.57372328
_cell_angle_gamma   59.99605277
_symmetry_Int_Tables_number   1
_chemical_formula_structural   Ca3(Fe3O5)5
_chemical_formula_sum   'Ca6 Fe30 O50'
_cell_volume   1020.76378729
_cell_formula_units_Z   2
loop_
 _symmetry_equiv_pos_site_id
 _symmetry_equiv_pos_as_xyz
  1  'x, y, z'
loop_
 _atom_site_type_symbol
 _atom_site_label
 _atom_site_symmetry_multiplicity
 _atom_site_fract_x
 _atom_site_fract_y
 _atom_site_fract_z
 _atom_site_occupancy
  Ca  Ca0  1  0.92508742  0.97089442  0.08674908  1
  Ca  Ca1  1  0.98273093  0.02910558  0.91325092  1
  Ca  Ca2  1  0.81831923  0.86455340  0.40687760  1
  Ca  Ca3  1  0.08975023  0.13544660  0.59312240  1
  Ca  Ca4  1  0.25533006  0.29970315  0.09936619  1
  Ca  Ca5  1  0.65439940  0.70029685  0.90063381  1
  Fe  Fe0  1  0.74221268  0.26946325  0.17223900  1
  Fe  Fe1  1  0.18391493  0.73053675  0.82776100  1
  Fe  Fe2  1  0.21477753  0.25662523  0.22787494  1
  Fe  Fe3  1  0.69927770  0.74337477  0.77212506  1
  Fe  Fe4  1  0.61269622  -0.00000000  0.00000000  1
  Fe  Fe5  1  0.33303771  0.89600486  0.32885856  1
  Fe  Fe6  1  0.55790114  0.10399514  0.67114144  1
  Fe  Fe7  1  0.53824105  0.58292557  0.24982908  1
  Fe  Fe8  1  0.37099571  0.41707443  0.75017092  1
  Fe  Fe9  1  0.34970746  0.37836277  0.32894668  1
  Fe  Fe10  1  0.05701690  0.62163723  0.67105332  1
  Fe  Fe11  1  0.86304923  0.90919418  0.27191903  1
  Fe  Fe12  1  0.04416243  0.09080582  0.72808097  1
  Fe  Fe13  1  0.22717035  0.77173967  0.17214657  1
  Fe  Fe14  1  0.17105659  0.22826033  0.82785343  1
  Fe  Fe15  1  0.45295883  0.15880618  0.50003409  1
  Fe  Fe16  1  0.11179910  0.84119382  0.49996591  1
  Fe  Fe17  1  0.80281409  0.50000000  0.50000000  1
  Fe  Fe18  1  0.95066454  0.33845165  0.99990026  1
  Fe  Fe19  1  0.28901645  0.66154835  0.00009974  1
  Fe  Fe20  1  0.68627902  0.21531539  0.82753728  1
  Fe  Fe21  1  0.72913169  0.78468461  0.17246272  1
  Fe  Fe22  1  0.75547628  0.80212416  0.59328020  1
  Fe  Fe23  1  0.15088064  0.19787584  0.40671980  1
  Fe  Fe24  1  0.59491679  0.64135128  0.07591101  1
  Fe  Fe25  1  0.31217908  0.35864872  0.92408899  1
  Fe  Fe26  1  0.47951196  0.52327141  0.42616434  1
  Fe  Fe27  1  0.42894771  0.47672859  0.57383566  1
  Fe  Fe28  1  0.57463886  0.60514854  0.67118639  1
  Fe  Fe29  1  0.85097379  0.39485146  0.32881361  1
  O  O0  1  0.70525500  0.54757943  0.56287330  1
  O  O1  1  0.81570772  0.45242057  0.43712670  1
  O  O2  1  0.88553047  0.92840543  0.21257293  1
  O  O3  1  0.02650882  0.07159457  0.78742707  1
  O  O4  1  0.19033484  0.23607446  0.29158430  1
  O  O5  1  0.71799360  0.76392554  0.70841570  1
  O  O6  1  0.50191675  0.13835399  0.56275738  1
  O  O7  1  0.20302811  0.86164601  0.43724262  1
  O  O8  1  0.07224985  0.09885480  0.14166126  1
  O  O9  1  0.31276591  0.90114520  0.85833874  1
  O  O10  1  0.79148264  0.85950007  0.48787773  1
  O  O11  1  0.13886044  0.14049993  0.51212227  1
  O  O12  1  0.40628306  0.24613510  0.43712530  1
  O  O13  1  0.08954345  0.75386490  0.56287470  1
  O  O14  1  0.21203156  0.72376818  0.29090996  1
  O  O15  1  0.22670969  0.27623182  0.70909004  1
  O  O16  1  0.30111754  0.63680313  0.06156121  1
  O  O17  1  -0.00051812  0.36319687  0.93843879  1
  O  O18  1  0.46583793  0.04914227  0.36355166  1
  O  O19  1  0.87853186  0.95085773  0.63644834  1
  O  O20  1  0.39932179  0.89911102  0.21213987  1
  O  O21  1  0.51057268  0.10088898  0.78786013  1
  O  O22  1  0.59909320  0.11549386  0.14179700  1
  O  O23  1  0.85638406  0.88450614  0.85820300  1
  O  O24  1  0.57702817  0.61969934  0.13917788  1
  O  O25  1  0.33590540  0.38030066  0.86082212  1
  O  O26  1  0.44161254  0.92607774  0.63646198  1
  O  O27  1  0.00415226  0.07392226  0.36353802  1
  O  O28  1  0.60550493  0.04693933  0.93840257  1
  O  O29  1  0.59084683  0.95306067  0.06159743  1
  O  O30  1  0.90639688  0.34781292  0.06142036  1
  O  O31  1  0.31563016  0.65218708  0.93857964  1
  O  O32  1  0.67805697  0.72651463  0.29097858  1
  O  O33  1  0.69555018  0.27348537  0.70902142  1
  O  O34  1  0.95023887  0.00000000  0.00000000  1
  O  O35  1  0.51126821  0.55621788  0.78764309  1
  O  O36  1  0.85512919  0.44378212  0.21235691  1
  O  O37  1  0.90361666  0.48866161  0.63648226  1
  O  O38  1  0.02876052  0.51133839  0.36351774  1
  O  O39  1  0.40089795  0.44281892  0.21215965  1
  O  O40  1  0.05587652  0.55718108  0.78784035  1
  O  O41  1  0.28417878  0.33203889  0.00223468  1
  O  O42  1  0.61845236  0.66796111  0.99776532  1
  O  O43  1  0.50006987  0.54507816  0.36220171  1
  O  O44  1  0.40734975  0.45492184  0.63779829  1
  O  O45  1  0.68122942  0.25737378  0.29101438  1
  O  O46  1  0.22961759  0.74262622  0.70898562  1
  O  O47  1  0.43451488  0.50000000  0.50000000  1
  O  O48  1  0.05587063  0.64199280  0.14191449  1
  O  O49  1  0.83977791  0.35800720  0.85808551  1
loop_
_geom_bond_atom_site_label_1
_geom_bond_atom_site_label_2
_geom_bond_distance
_geom_bond_site_symmetry_2
Ca0 O16 2.306336 1_655
Ca0 O30 2.306863 1_565
Ca0 O29 2.309967 1_555
Ca0 O22 2.390629 1_565
Ca0 O48 2.402064 1_655
Ca0 O8 2.402113 1_665
Ca0 O34 2.770222 1_565
Ca1 O17 2.306336 1_655
Ca1 O31 2.306863 1_645
Ca1 O28 2.309967 1_555
Ca1 O23 2.390629 1_545
Ca1 O49 2.402064 1_555
Ca1 O9 2.402113 1_645
Ca1 O34 2.770222 1_556
Ca2 O27 2.373529 1_665
Ca2 O18 2.376265 1_565
Ca2 O38 2.380624 1_655
Ca2 O10 2.590081 1_555
Ca2 O12 2.598027 1_565
Ca2 O1 2.605341 1_555
Ca2 O7 2.608136 1_655
Ca3 O26 2.373529 1_545
Ca3 O19 2.376265 1_445
Ca3 O37 2.380624 1_455
Ca3 O11 2.590081 1_555
Ca3 O13 2.598027 1_545
Ca3 O0 2.605341 1_455
Ca3 O6 2.608136 1_555
Ca4 O8 2.308445 1_555
Ca4 O48 2.316916 1_555
Ca4 O22 2.320303 1_555
Ca4 O16 2.404073 1_555
Ca4 O29 2.405699 1_545
Ca4 O30 2.422321 1_455
Ca5 O9 2.308445 1_555
Ca5 O49 2.316916 1_555
Ca5 O23 2.320303 1_555
Ca5 O17 2.404073 1_655
Ca5 O28 2.405699 1_565
Ca5 O31 2.422321 1_555
Fe0 O22 1.932840 1_555
Fe0 O8 1.950077 1_655
Fe0 O24 2.073381 1_555
Fe0 O36 2.099215 1_555
Fe0 O39 2.150368 1_555
Fe0 O2 2.151485 1_545
Fe1 O23 1.932840 1_455
Fe1 O9 1.950077 1_555
Fe1 O25 2.073381 1_555
Fe1 O35 2.099214 1_555
Fe1 O40 2.150368 1_555
Fe1 O3 2.151485 1_565
Fe2 O39 1.968769 1_555
Fe2 O20 1.973870 1_545
Fe2 O36 1.982374 1_455
Fe2 O4 2.034492 1_555
Fe3 O40 1.968769 1_655
Fe3 O21 1.973870 1_565
Fe3 O35 1.982374 1_555
Fe3 O5 2.034492 1_555
Fe4 O28 1.973764 1_554
Fe4 O29 1.973764 1_545
Fe4 O42 2.007988 1_544
Fe4 O41 2.007988 1_555
Fe4 O34 2.050892 1_555
Fe5 O18 1.968966 1_565
Fe5 O27 2.012570 1_565
Fe5 O14 2.074423 1_555
Fe5 O43 2.080888 1_555
Fe5 O4 2.094872 1_565
Fe5 O32 2.129008 1_555
Fe6 O19 1.968966 1_545
Fe6 O26 2.012570 1_545
Fe6 O15 2.074423 1_555
Fe6 O44 2.080888 1_555
Fe6 O5 2.094872 1_545
Fe6 O33 2.129008 1_555
Fe7 O39 1.995646 1_555
Fe7 O20 1.999458 1_555
Fe7 O36 1.999563 1_555
Fe7 O32 2.098342 1_555
Fe7 O45 2.102014 1_555
Fe7 O14 2.103855 1_555
Fe8 O40 1.995646 1_555
Fe8 O21 1.999458 1_555
Fe8 O35 1.999563 1_555
Fe8 O33 2.098342 1_555
Fe8 O46 2.102014 1_555
Fe8 O15 2.103855 1_555
Fe9 O38 1.968316 1_555
Fe9 O18 2.012035 1_555
Fe9 O45 2.075577 1_555
Fe9 O43 2.077886 1_555
Fe9 O4 2.092824 1_555
Fe9 O14 2.132254 1_555
Fe10 O37 1.968316 1_455
Fe10 O19 2.012035 1_455
Fe10 O46 2.075577 1_555
Fe10 O44 2.077886 1_555
Fe10 O5 2.092824 1_455
Fe10 O15 2.132254 1_555
Fe11 O2 1.895142 1_555
Fe11 O45 1.962801 1_565
Fe11 O32 1.964234 1_555
Fe11 O14 1.965297 1_655
Fe12 O3 1.895142 1_555
Fe12 O46 1.962801 1_545
Fe12 O33 1.964234 1_455
Fe12 O15 1.965297 1_555
Fe13 O8 1.930798 1_565
Fe13 O48 1.950678 1_555
Fe13 O24 2.071263 1_555
Fe13 O39 2.101987 1_555
Fe13 O20 2.143901 1_555
Fe13 O2 2.156549 1_455
Fe14 O9 1.930798 1_545
Fe14 O49 1.950678 1_455
Fe14 O25 2.071264 1_555
Fe14 O40 2.101987 1_555
Fe14 O21 2.143901 1_555
Fe14 O3 2.156549 1_555
Fe15 O11 1.967037 1_555
Fe15 O10 1.982961 1_545
Fe15 O47 2.019022 1_555
Fe15 O6 2.047704 1_555
Fe15 O12 2.049483 1_555
Fe16 O10 1.967037 1_455
Fe16 O11 1.982961 1_565
Fe16 O47 2.019022 1_555
Fe16 O7 2.047704 1_555
Fe16 O13 2.049483 1_555
Fe17 O0 2.056197 1_555
Fe17 O1 2.056197 1_555
Fe17 O10 2.149281 1_555
Fe17 O11 2.149281 1_655
Fe17 O47 2.237767 1_555
Fe18 O17 1.971451 1_655
Fe18 O30 1.971599 1_556
Fe18 O42 2.011295 1_555
Fe18 O41 2.015622 1_656
Fe18 O34 2.057162 1_556
Fe19 O16 1.971451 1_555
Fe19 O31 1.971599 1_554
Fe19 O41 2.011295 1_555
Fe19 O42 2.015622 1_554
Fe19 O34 2.057162 1_465
Fe20 O49 1.930780 1_555
Fe20 O23 1.953594 1_545
Fe20 O25 2.078286 1_555
Fe20 O21 2.101388 1_555
Fe20 O3 2.145024 1_655
Fe20 O35 2.147819 1_555
Fe21 O48 1.930780 1_655
Fe21 O22 1.953594 1_565
Fe21 O24 2.078286 1_555
Fe21 O20 2.101388 1_555
Fe21 O2 2.145024 1_555
Fe21 O36 2.147819 1_555
Fe22 O13 2.060189 1_655
Fe22 O0 2.062589 1_555
Fe22 O6 2.065199 1_565
Fe22 O37 2.093426 1_555
Fe22 O26 2.095305 1_555
Fe22 O19 2.099712 1_555
Fe23 O12 2.060189 1_555
Fe23 O1 2.062589 1_455
Fe23 O7 2.065199 1_545
Fe23 O38 2.093426 1_555
Fe23 O27 2.095305 1_555
Fe23 O18 2.099712 1_555
Fe24 O29 1.894181 1_555
Fe24 O30 1.895901 1_555
Fe24 O16 1.899287 1_555
Fe24 O24 2.020360 1_555
Fe24 O42 2.495440 1_554
Fe25 O28 1.894181 1_555
Fe25 O31 1.895901 1_555
Fe25 O17 1.899287 1_555
Fe25 O25 2.020360 1_555
Fe25 O41 2.495440 1_556
Fe26 O1 1.926093 1_555
Fe26 O7 1.935687 1_555
Fe26 O12 1.939985 1_555
Fe26 O43 2.042502 1_555
Fe26 O47 2.360828 1_555
Fe27 O0 1.926093 1_555
Fe27 O6 1.935687 1_555
Fe27 O13 1.939985 1_555
Fe27 O44 2.042502 1_555
Fe27 O47 2.360828 1_555
Fe28 O26 1.969783 1_555
Fe28 O37 2.013216 1_555
Fe28 O33 2.073600 1_555
Fe28 O44 2.082479 1_555
Fe28 O5 2.091955 1_555
Fe28 O46 2.127694 1_555
Fe29 O27 1.969783 1_655
Fe29 O38 2.013216 1_655
Fe29 O32 2.073600 1_555
Fe29 O43 2.082479 1_555
Fe29 O4 2.091955 1_655
Fe29 O45 2.127694 1_555
