# generated using pymatgen
data_Mn3WO6
_symmetry_space_group_name_H-M   'P 1'
_cell_length_a   6.17860276
_cell_length_b   6.17042281
_cell_length_c   6.16485499
_cell_angle_alpha   91.73665678
_cell_angle_beta   91.70090788
_cell_angle_gamma   91.81608911
_symmetry_Int_Tables_number   1
_chemical_formula_structural   Mn3WO6
_chemical_formula_sum   'Mn6 W2 O12'
_cell_volume   234.69614330
_cell_formula_units_Z   2
loop_
 _symmetry_equiv_pos_site_id
 _symmetry_equiv_pos_as_xyz
  1  'x, y, z'
loop_
 _atom_site_type_symbol
 _atom_site_label
 _atom_site_symmetry_multiplicity
 _atom_site_fract_x
 _atom_site_fract_y
 _atom_site_fract_z
 _atom_site_occupancy
  Mn  Mn0  1  0.74900791  0.44031555  0.93920344  1
  Mn  Mn1  1  0.43891581  0.93993329  0.74904682  1
  Mn  Mn2  1  0.25128028  0.56010913  0.06191931  1
  Mn  Mn3  1  0.06074985  0.25261350  0.56041069  1
  Mn  Mn4  1  0.55954464  0.06165034  0.25101280  1
  Mn  Mn5  1  0.93890135  0.74844716  0.43910197  1
  W  W0  1  0.00008066  0.99963693  0.99963900  1
  W  W1  1  0.49955103  0.50049215  0.50062928  1
  O  O0  1  0.92172866  0.70395581  0.06963686  1
  O  O1  1  0.70590617  0.06813098  0.92103722  1
  O  O2  1  0.06899313  0.92054540  0.70417429  1
  O  O3  1  0.07940416  0.29494839  0.93053339  1
  O  O4  1  0.29564673  0.93078241  0.07809625  1
  O  O5  1  0.93160256  0.07821694  0.29495684  1
  O  O6  1  0.44733068  0.59479680  0.79482028  1
  O  O7  1  0.59447227  0.79523517  0.44782399  1
  O  O8  1  0.20468744  0.55073827  0.40505266  1
  O  O9  1  0.40578556  0.20536045  0.55295190  1
  O  O10  1  0.55133451  0.40464328  0.20470698  1
  O  O11  1  0.79507661  0.44945004  0.59524601  1
loop_
_geom_bond_atom_site_label_1
_geom_bond_atom_site_label_2
_geom_bond_distance
_geom_bond_site_symmetry_2
Mn0 O0 2.047331 1_556
Mn0 O10 2.083912 1_556
Mn0 O11 2.150012 1_555
Mn0 O3 2.257059 1_655
Mn0 O6 2.289265 1_555
Mn0 O1 2.302481 1_555
Mn1 O1 2.057633 1_565
Mn1 O9 2.076603 1_565
Mn1 O6 2.158764 1_555
Mn1 O4 2.238778 1_556
Mn1 O7 2.286747 1_555
Mn1 O2 2.293024 1_555
Mn2 O3 2.054091 1_554
Mn2 O6 2.085142 1_554
Mn2 O8 2.145578 1_555
Mn2 O0 2.248069 1_455
Mn2 O10 2.280161 1_555
Mn2 O4 2.293738 1_555
Mn3 O5 2.057696 1_455
Mn3 O11 2.085008 1_455
Mn3 O9 2.162468 1_555
Mn3 O2 2.258428 1_545
Mn3 O8 2.268445 1_555
Mn3 O3 2.287853 1_555
Mn4 O4 2.051396 1_545
Mn4 O7 2.085407 1_545
Mn4 O10 2.146119 1_555
Mn4 O1 2.251533 1_554
Mn4 O9 2.282989 1_555
Mn4 O5 2.305379 1_555
Mn5 O2 2.051067 1_655
Mn5 O8 2.088309 1_655
Mn5 O7 2.158658 1_555
Mn5 O5 2.246158 1_565
Mn5 O11 2.274773 1_555
Mn5 O0 2.284829 1_555
O0 W0 1.937377 1_654
O1 W0 1.930251 1_645
O2 W0 1.934592 1_555
O3 W0 1.935187 1_545
O4 W0 1.938711 1_554
O5 W0 1.932328 1_644
O6 W1 1.927353 1_555
O7 W1 1.933178 1_555
O8 W1 1.935347 1_555
O9 W1 1.932839 1_555
O10 W1 1.939469 1_555
O11 W1 1.938512 1_555
