# generated using pymatgen
data_Ca2Cd(BrO2)6
_symmetry_space_group_name_H-M   'P 1'
_cell_length_a   8.72102266
_cell_length_b   8.72102266
_cell_length_c   16.55481509
_cell_angle_alpha   68.53892939
_cell_angle_beta   68.53892939
_cell_angle_gamma   65.35434811
_symmetry_Int_Tables_number   1
_chemical_formula_structural   Ca2Cd(BrO2)6
_chemical_formula_sum   'Ca4 Cd2 Br12 O24'
_cell_volume   1030.63618667
_cell_formula_units_Z   2
loop_
 _symmetry_equiv_pos_site_id
 _symmetry_equiv_pos_as_xyz
  1  'x, y, z'
loop_
 _atom_site_type_symbol
 _atom_site_label
 _atom_site_symmetry_multiplicity
 _atom_site_fract_x
 _atom_site_fract_y
 _atom_site_fract_z
 _atom_site_occupancy
  Ca  Ca0  1  0.65536400  0.61473500  0.48219000  1
  Ca  Ca1  1  0.38526500  0.34463600  0.01781000  1
  Ca  Ca2  1  0.34463600  0.38526500  0.51781000  1
  Ca  Ca3  1  0.61473500  0.65536400  0.98219000  1
  Cd  Cd0  1  0.00000000  0.00000000  0.50000000  1
  Cd  Cd1  1  0.00000000  0.00000000  0.00000000  1
  Br  Br0  1  0.26709400  0.76108900  0.62709700  1
  Br  Br1  1  0.23891100  0.73290600  0.87290300  1
  Br  Br2  1  0.73290600  0.23891100  0.37290300  1
  Br  Br3  1  0.76108900  0.26709400  0.12709700  1
  Br  Br4  1  0.09148000  0.38116700  0.36468700  1
  Br  Br5  1  0.61883300  0.90852000  0.13531300  1
  Br  Br6  1  0.90852000  0.61883300  0.63531300  1
  Br  Br7  1  0.38116700  0.09148000  0.86468700  1
  Br  Br8  1  0.73457700  0.21039700  0.62021200  1
  Br  Br9  1  0.78960300  0.26542300  0.87978800  1
  Br  Br10  1  0.26542300  0.78960300  0.37978800  1
  Br  Br11  1  0.21039700  0.73457700  0.12021200  1
  O  O0  1  0.89543000  0.55049400  0.36874500  1
  O  O1  1  0.44950600  0.10457000  0.13125500  1
  O  O2  1  0.10457000  0.44950600  0.63125500  1
  O  O3  1  0.55049400  0.89543000  0.86874500  1
  O  O4  1  0.56421300  0.92899700  0.39232600  1
  O  O5  1  0.07100300  0.43578700  0.10767400  1
  O  O6  1  0.43578700  0.07100300  0.60767400  1
  O  O7  1  0.92899700  0.56421300  0.89232600  1
  O  O8  1  0.51651200  0.91419400  0.63354500  1
  O  O9  1  0.08580600  0.48348800  0.86645500  1
  O  O10  1  0.48348800  0.08580600  0.36645500  1
  O  O11  1  0.91419400  0.51651200  0.13354500  1
  O  O12  1  0.56041700  0.38357600  0.57186700  1
  O  O13  1  0.61642400  0.43958300  0.92813300  1
  O  O14  1  0.43958300  0.61642400  0.42813300  1
  O  O15  1  0.38357600  0.56041700  0.07186700  1
  O  O16  1  0.85902800  0.01197400  0.41536900  1
  O  O17  1  0.98802600  0.14097200  0.08463100  1
  O  O18  1  0.14097200  0.98802600  0.58463100  1
  O  O19  1  0.01197400  0.85902800  0.91536900  1
  O  O20  1  0.78975100  0.60526200  0.57662500  1
  O  O21  1  0.39473800  0.21024900  0.92337500  1
  O  O22  1  0.21024900  0.39473800  0.42337500  1
  O  O23  1  0.60526200  0.78975100  0.07662500  1
loop_
_geom_bond_atom_site_label_1
_geom_bond_atom_site_label_2
_geom_bond_distance
_geom_bond_site_symmetry_2
Ca0 O20 2.233814 1_555
Ca0 O0 2.266882 1_555
Ca0 O12 2.292675 1_555
Ca0 O14 2.354120 1_555
Ca0 O4 2.534031 1_555
Ca1 O21 2.233814 1_554
Ca1 O1 2.266882 1_555
Ca1 O13 2.292675 1_554
Ca1 O15 2.354120 1_555
Ca1 O5 2.534031 1_555
Ca2 O22 2.233814 1_555
Ca2 O2 2.266882 1_555
Ca2 O14 2.292675 1_555
Ca2 O12 2.354120 1_555
Ca2 O6 2.534031 1_555
Ca3 O23 2.233814 1_556
Ca3 O3 2.266882 1_555
Ca3 O15 2.292675 1_556
Ca3 O13 2.354120 1_555
Ca3 O7 2.534031 1_555
Cd0 O16 2.128754 1_455
Cd0 O18 2.128754 1_545
Cd1 O17 2.128754 1_455
Cd1 O19 2.128754 1_544
Br0 O18 1.831162 1_555
Br1 O19 1.831162 1_555
Br2 O16 1.831162 1_555
Br3 O17 1.831162 1_555
Br4 O22 1.718594 1_555
Br4 O0 1.729528 1_455
Br5 O23 1.718594 1_555
Br5 O1 1.729528 1_565
Br6 O20 1.718594 1_555
Br6 O2 1.729528 1_655
Br7 O21 1.718594 1_555
Br7 O3 1.729528 1_545
Br8 O12 1.822175 1_555
Br8 Cd0 2.905895 1_655
Br9 O13 1.822175 1_555
Br9 Cd1 2.905895 1_656
Br10 O14 1.822175 1_555
Br10 Cd0 2.905895 1_565
Br11 O15 1.822175 1_555
Br11 Cd1 2.905895 1_565
O6 O8 1.240288 1_545
O7 O9 1.240288 1_655
O10 O4 1.240288 1_545
O11 O5 1.240288 1_655
