# generated using pymatgen
data_Ba2ScCuO4
_symmetry_space_group_name_H-M   'P 1'
_cell_length_a   4.17695600
_cell_length_b   4.17695600
_cell_length_c   8.07885700
_cell_angle_alpha   90.00000000
_cell_angle_beta   90.00000000
_cell_angle_gamma   90.00000000
_symmetry_Int_Tables_number   1
_chemical_formula_structural   Ba2ScCuO4
_chemical_formula_sum   'Ba2 Sc1 Cu1 O4'
_cell_volume   140.95150644
_cell_formula_units_Z   1
loop_
 _symmetry_equiv_pos_site_id
 _symmetry_equiv_pos_as_xyz
  1  'x, y, z'
loop_
 _atom_site_type_symbol
 _atom_site_label
 _atom_site_symmetry_multiplicity
 _atom_site_fract_x
 _atom_site_fract_y
 _atom_site_fract_z
 _atom_site_occupancy
  Ba  Ba0  1  0.50000000  0.50000000  0.76797700  1
  Ba  Ba1  1  0.50000000  0.50000000  0.23202300  1
  Sc  Sc0  1  0.00000000  0.00000000  0.00000000  1
  Cu  Cu0  1  0.00000000  0.00000000  0.50000000  1
  O  O0  1  0.00000000  0.50000000  0.00000000  1
  O  O1  1  0.50000000  0.00000000  0.00000000  1
  O  O2  1  0.00000000  0.00000000  0.72467100  1
  O  O3  1  0.00000000  0.00000000  0.27532900  1
loop_
_geom_bond_atom_site_label_1
_geom_bond_atom_site_label_2
_geom_bond_distance
_geom_bond_site_symmetry_2
Ba0 O0 2.806318 1_556
Ba0 O0 2.806318 1_656
Ba0 O1 2.806318 1_556
Ba0 O1 2.806318 1_566
Ba0 O2 2.974203 1_565
Ba0 O2 2.974203 1_665
Ba0 O2 2.974203 1_655
Ba0 O2 2.974203 1_555
Ba1 O1 2.806318 1_565
Ba1 O0 2.806318 1_555
Ba1 O0 2.806318 1_655
Ba1 O1 2.806318 1_555
Ba1 O3 2.974203 1_665
Ba1 O3 2.974203 1_655
Ba1 O3 2.974203 1_555
Ba1 O3 2.974203 1_565
Cu0 O2 1.815085 1_555
Cu0 O3 1.815085 1_555
O0 Sc0 2.088478 1_565
O0 Sc0 2.088478 1_555
O1 Sc0 2.088478 1_655
O1 Sc0 2.088478 1_555
O2 Sc0 2.224344 1_556
O3 Sc0 2.224344 1_555
