# generated using pymatgen
data_LaHfMg6
_symmetry_space_group_name_H-M   'P 1'
_cell_length_a   5.21248400
_cell_length_b   6.63541700
_cell_length_c   11.46234100
_cell_angle_alpha   90.00000000
_cell_angle_beta   90.00000000
_cell_angle_gamma   90.00000000
_symmetry_Int_Tables_number   1
_chemical_formula_structural   LaHfMg6
_chemical_formula_sum   'La2 Hf2 Mg12'
_cell_volume   396.44804486
_cell_formula_units_Z   2
loop_
 _symmetry_equiv_pos_site_id
 _symmetry_equiv_pos_as_xyz
  1  'x, y, z'
loop_
 _atom_site_type_symbol
 _atom_site_label
 _atom_site_symmetry_multiplicity
 _atom_site_fract_x
 _atom_site_fract_y
 _atom_site_fract_z
 _atom_site_occupancy
  La  La0  1  0.00000000  0.50000000  0.67186300  1
  La  La1  1  0.00000000  0.00000000  0.17186300  1
  Hf  Hf0  1  0.50000000  0.50000000  0.83467200  1
  Hf  Hf1  1  0.50000000  0.00000000  0.33467200  1
  Mg  Mg0  1  0.00000000  0.25801600  0.91600200  1
  Mg  Mg1  1  0.00000000  0.74198400  0.91600200  1
  Mg  Mg2  1  0.00000000  0.50000000  0.16506900  1
  Mg  Mg3  1  0.50000000  0.25654200  0.08096500  1
  Mg  Mg4  1  0.50000000  0.74345800  0.08096500  1
  Mg  Mg5  1  0.50000000  0.50000000  0.33446100  1
  Mg  Mg6  1  0.00000000  0.75801600  0.41600200  1
  Mg  Mg7  1  0.00000000  0.24198400  0.41600200  1
  Mg  Mg8  1  0.00000000  0.00000000  0.66506900  1
  Mg  Mg9  1  0.50000000  0.75654200  0.58096500  1
  Mg  Mg10  1  0.50000000  0.24345800  0.58096500  1
  Mg  Mg11  1  0.50000000  0.00000000  0.83446100  1
loop_
_geom_bond_atom_site_label_1
_geom_bond_atom_site_label_2
_geom_bond_distance
_geom_bond_site_symmetry_2
La0 Mg1 3.226333 1_555
La0 Mg0 3.226333 1_555
La0 Mg9 3.282645 1_555
La0 Mg9 3.282645 1_455
La0 Mg10 3.282645 1_455
La0 Mg10 3.282645 1_555
La0 Mg8 3.318622 1_565
La0 Mg8 3.318622 1_555
La0 Mg6 3.395911 1_555
La0 Mg7 3.395911 1_555
La1 Mg7 3.226333 1_555
La1 Mg6 3.226333 1_545
La1 Mg3 3.282645 1_455
La1 Mg3 3.282645 1_555
La1 Mg4 3.282645 1_545
La1 Mg4 3.282645 1_445
La1 Mg2 3.318622 1_555
La1 Mg2 3.318622 1_545
La1 Mg0 3.395911 1_554
La1 Mg1 3.395911 1_544
Hf0 Mg1 3.199955 1_655
Hf0 Mg1 3.199955 1_555
Hf0 Mg0 3.199955 1_555
Hf0 Mg0 3.199955 1_655
Hf0 La0 3.205479 1_555
Hf0 La0 3.205479 1_655
Hf0 Mg4 3.252618 1_556
Hf0 Mg3 3.252618 1_556
Hf0 Mg11 3.317709 1_555
Hf0 Mg11 3.317709 1_565
Hf0 Mg9 3.369660 1_555
Hf0 Mg10 3.369660 1_555
Hf1 Mg7 3.199955 1_555
Hf1 Mg7 3.199955 1_655
Hf1 Mg6 3.199955 1_645
Hf1 Mg6 3.199955 1_545
Hf1 La1 3.205479 1_555
Hf1 La1 3.205479 1_655
Hf1 Mg10 3.252618 1_555
Hf1 Mg9 3.252618 1_545
Hf1 Mg5 3.317709 1_545
Hf1 Mg5 3.317709 1_555
Hf1 Mg3 3.369660 1_555
Hf1 Mg4 3.369660 1_545
Mg0 Mg1 3.211329 1_555
Mg0 Mg3 3.219931 1_456
Mg0 Mg3 3.219931 1_556
Mg0 Mg11 3.255328 1_455
Mg0 Mg11 3.255328 1_555
Mg0 Mg2 3.275448 1_556
Mg0 Mg8 3.347249 1_555
Mg0 Mg1 3.424088 1_545
Mg1 Mg4 3.219931 1_556
Mg1 Mg4 3.219931 1_456
Mg1 Mg11 3.255328 1_565
Mg1 Mg11 3.255328 1_465
Mg1 Mg2 3.275448 1_556
Mg1 Mg8 3.347249 1_565
Mg2 Mg4 3.214267 1_455
Mg2 Mg4 3.214267 1_555
Mg2 Mg3 3.214267 1_455
Mg2 Mg3 3.214267 1_555
Mg2 Mg5 3.249988 1_455
Mg2 Mg5 3.249988 1_555
Mg2 Mg6 3.347249 1_555
Mg2 Mg7 3.347249 1_555
Mg3 Mg4 3.230891 1_555
Mg3 Mg5 3.324532 1_555
Mg3 Mg4 3.404526 1_545
Mg4 Mg5 3.324532 1_555
Mg5 Mg6 3.255328 1_555
Mg5 Mg6 3.255328 1_655
Mg5 Mg7 3.255328 1_655
Mg5 Mg7 3.255328 1_555
Mg5 Mg9 3.298670 1_555
Mg6 Mg7 3.211329 1_565
Mg6 Mg9 3.219931 1_455
Mg6 Mg9 3.219931 1_555
Mg6 Mg8 3.275448 1_565
Mg6 Mg7 3.424088 1_555
Mg7 Mg8 3.275448 1_555
Mg8 Mg9 3.214267 1_545
Mg8 Mg9 3.214267 1_445
Mg10 Mg8 3.214267 1_655
Mg10 Mg8 3.214267 1_555
Mg10 Mg7 3.219931 1_555
Mg10 Mg7 3.219931 1_655
Mg10 Mg9 3.230891 1_545
Mg10 Mg5 3.298670 1_555
Mg10 Mg11 3.324532 1_555
Mg10 Mg9 3.404526 1_555
Mg11 Mg8 3.249988 1_555
Mg11 Mg8 3.249988 1_655
Mg11 Mg3 3.298670 1_556
Mg11 Mg4 3.298670 1_546
Mg11 Mg9 3.324532 1_545
