# generated using pymatgen
data_NdNiGe3
_symmetry_space_group_name_H-M   'P 1'
_cell_length_a   11.04921130
_cell_length_b   11.04921130
_cell_length_c   4.17058748
_cell_angle_alpha   90.00000000
_cell_angle_beta   90.00000000
_cell_angle_gamma   158.48833570
_symmetry_Int_Tables_number   1
_chemical_formula_structural   NdNiGe3
_chemical_formula_sum   'Nd2 Ni2 Ge6'
_cell_volume   186.70657430
_cell_formula_units_Z   2
loop_
 _symmetry_equiv_pos_site_id
 _symmetry_equiv_pos_as_xyz
  1  'x, y, z'
loop_
 _atom_site_type_symbol
 _atom_site_label
 _atom_site_symmetry_multiplicity
 _atom_site_fract_x
 _atom_site_fract_y
 _atom_site_fract_z
 _atom_site_occupancy
  Nd  Nd0  1  0.66829360  0.33170640  0.50000000  1
  Nd  Nd1  1  0.33170640  0.66829360  0.50000000  1
  Ni  Ni0  1  0.89176352  0.10823648  -0.00000000  1
  Ni  Ni1  1  0.10823648  0.89176352  0.00000000  1
  Ge  Ge0  1  0.94326552  0.05673448  0.50000000  1
  Ge  Ge1  1  0.05673448  0.94326552  0.50000000  1
  Ge  Ge2  1  0.55670261  0.44329739  -0.00000000  1
  Ge  Ge3  1  0.44329739  0.55670261  0.00000000  1
  Ge  Ge4  1  0.78427822  0.21572178  0.00000000  1
  Ge  Ge5  1  0.21572178  0.78427822  -0.00000000  1
loop_
_geom_bond_atom_site_label_1
_geom_bond_atom_site_label_2
_geom_bond_distance
_geom_bond_site_symmetry_2
Nd0 Ni1 3.209443 1_546
Nd0 Ni1 3.209443 1_545
Nd0 Ni1 3.209443 1_655
Nd0 Ni1 3.209443 1_656
Nd1 Ni0 3.209443 1_456
Nd1 Ni0 3.209443 1_455
Nd1 Ni0 3.209443 1_566
Nd1 Ni0 3.209443 1_565
Ge0 Ni0 2.366144 1_555
Ge0 Ni0 2.366144 1_556
Ge0 Ge1 2.463432 1_645
Ge0 Ge3 2.932660 1_656
Ge0 Ge3 2.932660 1_546
Ge0 Ge3 2.932660 1_655
Ge0 Ge3 2.932660 1_545
Ge0 Nd1 3.180877 1_655
Ge0 Nd1 3.180877 1_545
Ge1 Ni1 2.366144 1_556
Ge1 Ni1 2.366144 1_555
Ge1 Ge2 2.932660 1_455
Ge1 Ge2 2.932660 1_456
Ge1 Ge2 2.932660 1_566
Ge1 Ge2 2.932660 1_565
Ge1 Nd0 3.180877 1_565
Ge1 Nd0 3.180877 1_455
Ge2 Ni1 2.346013 1_655
Ge2 Ni1 2.346013 1_545
Ge2 Ge3 2.462048 1_555
Ge2 Nd0 3.196519 1_554
Ge2 Nd0 3.196519 1_555
Ge3 Ni0 2.346013 1_455
Ge3 Ni0 2.346013 1_565
Ge3 Nd1 3.196519 1_555
Ge3 Nd1 3.196519 1_554
Ge4 Ni0 2.333526 1_555
Ge4 Ge5 2.543088 1_545
Ge4 Ge5 2.543088 1_655
Ge4 Nd1 3.108170 1_654
Ge4 Nd1 3.108170 1_655
Ge4 Nd1 3.108170 1_545
Ge4 Nd1 3.108170 1_544
Ge4 Nd0 3.269406 1_554
Ge4 Nd0 3.269406 1_555
Ge5 Ni1 2.333526 1_555
Ge5 Nd0 3.108170 1_564
Ge5 Nd0 3.108170 1_565
Ge5 Nd0 3.108170 1_455
Ge5 Nd0 3.108170 1_454
Ge5 Nd1 3.269406 1_555
Ge5 Nd1 3.269406 1_554
