# generated using pymatgen
data_Zn3(PO6)2
_symmetry_space_group_name_H-M   'P 1'
_cell_length_a   5.41240700
_cell_length_b   11.12301700
_cell_length_c   18.50727100
_cell_angle_alpha   90.00000000
_cell_angle_beta   90.00000000
_cell_angle_gamma   90.00000000
_symmetry_Int_Tables_number   1
_chemical_formula_structural   Zn3(PO6)2
_chemical_formula_sum   'Zn12 P8 O48'
_cell_volume   1114.18018972
_cell_formula_units_Z   4
loop_
 _symmetry_equiv_pos_site_id
 _symmetry_equiv_pos_as_xyz
  1  'x, y, z'
loop_
 _atom_site_type_symbol
 _atom_site_label
 _atom_site_symmetry_multiplicity
 _atom_site_fract_x
 _atom_site_fract_y
 _atom_site_fract_z
 _atom_site_occupancy
  Zn  Zn0  1  0.17359600  0.81415900  0.25000000  1
  Zn  Zn1  1  0.32640400  0.31415900  0.25000000  1
  Zn  Zn2  1  0.82640400  0.18584100  0.75000000  1
  Zn  Zn3  1  0.67359600  0.68584100  0.75000000  1
  Zn  Zn4  1  0.21654400  0.65372300  0.99667600  1
  Zn  Zn5  1  0.28345600  0.15372300  0.50332400  1
  Zn  Zn6  1  0.78345600  0.34627700  0.49667600  1
  Zn  Zn7  1  0.71654400  0.84627700  0.00332400  1
  Zn  Zn8  1  0.78345600  0.34627700  0.00332400  1
  Zn  Zn9  1  0.71654400  0.84627700  0.49667600  1
  Zn  Zn10  1  0.21654400  0.65372300  0.50332400  1
  Zn  Zn11  1  0.28345600  0.15372300  0.99667600  1
  P  P0  1  0.23120700  0.89962500  0.08522400  1
  P  P1  1  0.26879300  0.39962500  0.41477600  1
  P  P2  1  0.76879300  0.10037500  0.58522400  1
  P  P3  1  0.73120700  0.60037500  0.91477600  1
  P  P4  1  0.76879300  0.10037500  0.91477600  1
  P  P5  1  0.73120700  0.60037500  0.58522400  1
  P  P6  1  0.23120700  0.89962500  0.41477600  1
  P  P7  1  0.26879300  0.39962500  0.08522400  1
  O  O0  1  0.36601800  0.80964800  0.03133000  1
  O  O1  1  0.13398200  0.30964800  0.46867000  1
  O  O2  1  0.63398200  0.19035200  0.53133000  1
  O  O3  1  0.86601800  0.69035200  0.96867000  1
  O  O4  1  0.63398200  0.19035200  0.96867000  1
  O  O5  1  0.86601800  0.69035200  0.53133000  1
  O  O6  1  0.36601800  0.80964800  0.46867000  1
  O  O7  1  0.13398200  0.30964800  0.03133000  1
  O  O8  1  0.31606300  0.02760800  0.06742000  1
  O  O9  1  0.18393700  0.52760800  0.43258000  1
  O  O10  1  0.68393700  0.97239200  0.56742000  1
  O  O11  1  0.81606300  0.47239200  0.93258000  1
  O  O12  1  0.68393700  0.97239200  0.93258000  1
  O  O13  1  0.81606300  0.47239200  0.56742000  1
  O  O14  1  0.31606300  0.02760800  0.43258000  1
  O  O15  1  0.18393700  0.52760800  0.06742000  1
  O  O16  1  0.32484300  0.87262800  0.16235800  1
  O  O17  1  0.17515700  0.37262800  0.33764200  1
  O  O18  1  0.67515700  0.12737200  0.66235800  1
  O  O19  1  0.82484300  0.62737200  0.83764200  1
  O  O20  1  0.67515700  0.12737200  0.83764200  1
  O  O21  1  0.82484300  0.62737200  0.66235800  1
  O  O22  1  0.32484300  0.87262800  0.33764200  1
  O  O23  1  0.17515700  0.37262800  0.16235800  1
  O  O24  1  0.95105700  0.88012300  0.07977900  1
  O  O25  1  0.54894300  0.38012300  0.42022100  1
  O  O26  1  0.04894300  0.11987700  0.57977900  1
  O  O27  1  0.45105700  0.61987700  0.92022100  1
  O  O28  1  0.04894300  0.11987700  0.92022100  1
  O  O29  1  0.45105700  0.61987700  0.57977900  1
  O  O30  1  0.95105700  0.88012300  0.42022100  1
  O  O31  1  0.54894300  0.38012300  0.07977900  1
  O  O32  1  0.74560300  0.61889600  0.21674400  1
  O  O33  1  0.75439700  0.11889600  0.28325600  1
  O  O34  1  0.25439700  0.38110400  0.71674400  1
  O  O35  1  0.24560300  0.88110400  0.78325600  1
  O  O36  1  0.25439700  0.38110400  0.78325600  1
  O  O37  1  0.24560300  0.88110400  0.71674400  1
  O  O38  1  0.74560300  0.61889600  0.28325600  1
  O  O39  1  0.75439700  0.11889600  0.21674400  1
  O  O40  1  0.84436200  0.87463200  0.25000000  1
  O  O41  1  0.65563800  0.37463200  0.25000000  1
  O  O42  1  0.15563800  0.12536800  0.75000000  1
  O  O43  1  0.34436200  0.62536800  0.75000000  1
  O  O44  1  0.25018700  0.64778300  0.25000000  1
  O  O45  1  0.24981300  0.14778300  0.25000000  1
  O  O46  1  0.74981300  0.35221700  0.75000000  1
  O  O47  1  0.75018700  0.85221700  0.75000000  1
loop_
_geom_bond_atom_site_label_1
_geom_bond_atom_site_label_2
_geom_bond_distance
_geom_bond_site_symmetry_2
O0 P0 1.590249 1_555
O0 Zn7 2.008475 1_555
O0 Zn4 2.018372 1_554
O1 P1 1.590249 1_555
O1 Zn6 2.008475 1_455
O1 Zn5 2.018372 1_555
O2 P2 1.590249 1_555
O2 Zn5 2.008475 1_555
O2 Zn6 2.018372 1_555
O3 P3 1.590249 1_555
O3 Zn4 2.008475 1_655
O3 Zn7 2.018372 1_556
O4 P4 1.590249 1_555
O4 Zn11 2.008475 1_555
O4 Zn8 2.018372 1_556
O5 P5 1.590249 1_555
O5 Zn10 2.008475 1_655
O5 Zn9 2.018372 1_555
O6 P6 1.590249 1_555
O6 Zn9 2.008475 1_555
O6 Zn10 2.018372 1_555
O7 P7 1.590249 1_555
O7 Zn8 2.008475 1_455
O7 Zn11 2.018372 1_554
O8 P0 1.531673 1_545
O8 Zn11 1.926952 1_554
O9 P1 1.531673 1_555
O9 Zn10 1.926952 1_555
O10 P2 1.531673 1_565
O10 Zn9 1.926952 1_555
O11 P3 1.531673 1_555
O11 Zn8 1.926952 1_556
O12 P4 1.531673 1_565
O12 Zn7 1.926952 1_556
O13 P5 1.531673 1_555
O13 Zn6 1.926952 1_555
O14 P6 1.531673 1_545
O14 Zn5 1.926952 1_555
O15 P7 1.531673 1_555
O15 Zn4 1.926952 1_554
O16 P0 1.544307 1_555
O16 Zn0 1.929770 1_555
O17 P1 1.544307 1_555
O17 Zn1 1.929770 1_555
O18 P2 1.544307 1_555
O18 Zn2 1.929770 1_555
O19 P3 1.544307 1_555
O19 Zn3 1.929770 1_555
O20 P4 1.544307 1_555
O20 Zn2 1.929770 1_555
O21 P5 1.544307 1_555
O21 Zn3 1.929770 1_555
O22 P6 1.544307 1_555
O22 Zn0 1.929770 1_555
O23 P7 1.544307 1_555
O23 Zn1 1.929770 1_555
O24 P0 1.535035 1_655
O24 Zn7 1.937769 1_555
O25 P1 1.535035 1_555
O25 Zn6 1.937769 1_555
O26 P2 1.535035 1_455
O26 Zn5 1.937769 1_555
O27 P3 1.535035 1_555
O27 Zn4 1.937769 1_555
O28 P4 1.535035 1_455
O28 Zn11 1.937769 1_555
O29 P5 1.535035 1_555
O29 Zn10 1.937769 1_555
O30 P6 1.535035 1_655
O30 Zn9 1.937769 1_555
O31 P7 1.535035 1_555
O31 Zn8 1.937769 1_555
O32 O38 1.230956 1_555
O33 O39 1.230956 1_555
O34 O36 1.230956 1_555
O35 O37 1.230956 1_555
O40 Zn0 1.904675 1_655
O41 Zn1 1.904675 1_555
O42 Zn2 1.904675 1_455
O43 Zn3 1.904675 1_555
O44 Zn0 1.896464 1_555
O45 Zn1 1.896464 1_555
O46 Zn2 1.896464 1_555
O47 Zn3 1.896464 1_555
