# generated using pymatgen
data_Ni6Cl7
_symmetry_space_group_name_H-M   'P 1'
_cell_length_a   6.06102900
_cell_length_b   6.99050140
_cell_length_c   10.63313290
_cell_angle_alpha   89.60090544
_cell_angle_beta   95.90488244
_cell_angle_gamma   106.43160328
_symmetry_Int_Tables_number   1
_chemical_formula_structural   Ni6Cl7
_chemical_formula_sum   'Ni12 Cl14'
_cell_volume   429.71323356
_cell_formula_units_Z   2
loop_
 _symmetry_equiv_pos_site_id
 _symmetry_equiv_pos_as_xyz
  1  'x, y, z'
loop_
 _atom_site_type_symbol
 _atom_site_label
 _atom_site_symmetry_multiplicity
 _atom_site_fract_x
 _atom_site_fract_y
 _atom_site_fract_z
 _atom_site_occupancy
  Ni  Ni0  1  0.78744200  0.57276700  0.07274800  1
  Ni  Ni1  1  0.78718400  0.07070000  0.06596500  1
  Ni  Ni2  1  0.64447900  0.78742900  0.78389700  1
  Ni  Ni3  1  0.35552100  0.21257100  0.21610300  1
  Ni  Ni4  1  0.50000000  0.50000000  0.50000000  1
  Ni  Ni5  1  0.50000000  0.00000000  0.50000000  1
  Ni  Ni6  1  0.21255800  0.42723300  0.92725200  1
  Ni  Ni7  1  0.21281600  0.92930000  0.93403500  1
  Ni  Ni8  1  0.07527000  0.63867100  0.64519100  1
  Ni  Ni9  1  0.07623800  0.15165100  0.65087800  1
  Ni  Ni10  1  0.92473000  0.36132900  0.35480900  1
  Ni  Ni11  1  0.92376200  0.84834900  0.34912200  1
  Cl  Cl0  1  0.95046900  0.10628400  0.85504400  1
  Cl  Cl1  1  0.64356000  0.53215400  0.28716800  1
  Cl  Cl2  1  0.64982700  0.03815000  0.30479000  1
  Cl  Cl3  1  0.78456200  0.81132600  0.57908600  1
  Cl  Cl4  1  0.79761200  0.32464100  0.57112100  1
  Cl  Cl5  1  0.50852000  0.76006200  0.98487100  1
  Cl  Cl6  1  0.49148000  0.23993800  0.01512900  1
  Cl  Cl7  1  0.35644000  0.46784600  0.71283200  1
  Cl  Cl8  1  0.35017300  0.96185000  0.69521000  1
  Cl  Cl9  1  0.05266300  0.38094100  0.13607800  1
  Cl  Cl10  1  0.04953100  0.89371600  0.14495600  1
  Cl  Cl11  1  0.20238800  0.67535900  0.42887900  1
  Cl  Cl12  1  0.21543800  0.18867400  0.42091400  1
  Cl  Cl13  1  0.94733700  0.61905900  0.86392200  1
loop_
_geom_bond_atom_site_label_1
_geom_bond_atom_site_label_2
_geom_bond_distance
_geom_bond_site_symmetry_2
Cl0 Ni7 2.363946 1_645
Cl0 Ni9 2.364046 1_655
Cl0 Ni6 2.429689 1_655
Cl0 Ni2 2.525128 1_545
Cl0 Ni1 2.526046 1_556
Cl1 Ni10 2.394719 1_555
Cl1 Ni11 2.422870 1_555
Cl1 Ni3 2.481005 1_555
Cl1 Ni4 2.493301 1_555
Cl1 Ni0 2.509846 1_555
Cl2 Ni5 2.333966 1_555
Cl2 Ni11 2.411606 1_545
Cl2 Ni10 2.422356 1_555
Cl2 Ni3 2.535000 1_555
Cl2 Ni1 2.741076 1_555
Cl3 Ni2 2.405548 1_555
Cl3 Ni8 2.447829 1_655
Cl3 Ni4 2.453934 1_555
Cl3 Ni5 2.528741 1_565
Cl3 Ni9 2.595405 1_665
Cl3 Ni11 2.655206 1_555
Cl4 Ni9 2.424849 1_655
Cl4 Ni8 2.435733 1_655
Cl4 Ni10 2.488845 1_555
Cl4 Ni4 2.507152 1_555
Cl4 Ni5 2.530456 1_555
Cl5 Ni2 2.355802 1_555
Cl5 Ni7 2.428041 1_555
Cl5 Ni1 2.441962 1_566
Cl5 Ni0 2.521007 1_556
Cl5 Ni6 2.537521 1_555
Cl6 Ni3 2.355802 1_555
Cl6 Ni1 2.428041 1_555
Cl6 Ni7 2.441962 1_544
Cl6 Ni6 2.521007 1_554
Cl6 Ni0 2.537521 1_555
Cl7 Ni8 2.394719 1_555
Cl7 Ni9 2.422870 1_555
Cl7 Ni2 2.481005 1_555
Cl7 Ni4 2.493301 1_555
Cl7 Ni6 2.509846 1_555
Cl8 Ni5 2.333966 1_565
Cl8 Ni9 2.411606 1_565
Cl8 Ni8 2.422356 1_555
Cl8 Ni2 2.535000 1_555
Cl8 Ni7 2.741076 1_555
Cl9 Ni1 2.376934 1_455
Cl9 Ni0 2.412455 1_455
Cl9 Ni6 2.495951 1_554
Cl9 Ni10 2.517113 1_455
Cl9 Ni3 2.523067 1_555
Cl10 Ni1 2.363946 1_465
Cl10 Ni11 2.364046 1_455
Cl10 Ni0 2.429689 1_455
Cl10 Ni3 2.525128 1_565
Cl10 Ni7 2.526046 1_554
Cl11 Ni11 2.424849 1_455
Cl11 Ni10 2.435733 1_455
Cl11 Ni8 2.488845 1_555
Cl11 Ni4 2.507152 1_555
Cl11 Ni5 2.530456 1_565
Cl12 Ni3 2.405548 1_555
Cl12 Ni10 2.447829 1_455
Cl12 Ni4 2.453934 1_555
Cl12 Ni5 2.528741 1_555
Cl12 Ni11 2.595405 1_445
Cl12 Ni9 2.655206 1_555
Cl13 Ni7 2.376934 1_655
Cl13 Ni6 2.412455 1_655
Cl13 Ni0 2.495951 1_556
Cl13 Ni8 2.517113 1_655
Cl13 Ni2 2.523067 1_555
