# generated using pymatgen
data_La(P3Ru)4
_symmetry_space_group_name_H-M   'P 1'
_cell_length_a   6.99718441
_cell_length_b   6.99718345
_cell_length_c   6.99718427
_cell_angle_alpha   109.47122894
_cell_angle_beta   109.47122607
_cell_angle_gamma   109.47120962
_symmetry_Int_Tables_number   1
_chemical_formula_structural   La(P3Ru)4
_chemical_formula_sum   'La1 P12 Ru4'
_cell_volume   263.72298696
_cell_formula_units_Z   1
loop_
 _symmetry_equiv_pos_site_id
 _symmetry_equiv_pos_as_xyz
  1  'x, y, z'
loop_
 _atom_site_type_symbol
 _atom_site_label
 _atom_site_symmetry_multiplicity
 _atom_site_fract_x
 _atom_site_fract_y
 _atom_site_fract_z
 _atom_site_occupancy
  La  La0  1  -0.00000000  -0.00000000  0.00000000  1
  P  P0  1  0.49775618  0.85633350  0.64142368  1
  P  P1  1  0.21490982  0.85633350  0.35857632  1
  P  P2  1  0.78509018  0.14366650  0.64142368  1
  P  P3  1  0.14366650  0.35857632  0.50224382  1
  P  P4  1  0.35857632  0.50224382  0.14366650  1
  P  P5  1  0.50224382  0.14366650  0.35857632  1
  P  P6  1  0.14366650  0.64142368  0.78509018  1
  P  P7  1  0.35857632  0.21490982  0.85633350  1
  P  P8  1  0.85633350  0.64142368  0.49775618  1
  P  P9  1  0.64142368  0.78509018  0.14366650  1
  P  P10  1  0.85633350  0.35857632  0.21490982  1
  P  P11  1  0.64142368  0.49775618  0.85633350  1
  Ru  Ru0  1  0.50000000  -0.00000000  0.00000000  1
  Ru  Ru1  1  -0.00000000  -0.00000000  0.50000000  1
  Ru  Ru2  1  -0.00000000  0.50000000  0.00000000  1
  Ru  Ru3  1  0.50000000  0.50000000  0.50000000  1
loop_
_geom_bond_atom_site_label_1
_geom_bond_atom_site_label_2
_geom_bond_distance
_geom_bond_site_symmetry_2
La0 P6 3.121058 1_544
La0 P10 3.121058 1_455
La0 P2 3.121058 1_454
La0 P1 3.121058 1_545
La0 P9 3.121059 1_445
La0 P7 3.121059 1_554
La0 P8 3.121063 1_444
La0 P3 3.121063 1_555
La0 P5 3.121064 1_555
La0 P0 3.121064 1_444
La0 P11 3.121064 1_444
La0 P4 3.121064 1_555
P0 P1 2.285304 1_555
P0 P2 2.321555 1_565
P0 Ru0 2.363839 1_566
P0 Ru3 2.363845 1_555
P1 P5 2.321555 1_565
P1 Ru2 2.363842 1_555
P1 Ru1 2.363842 1_565
P2 P5 2.285304 1_555
P2 Ru2 2.363842 1_656
P2 Ru1 2.363842 1_655
P3 P6 2.285304 1_555
P3 Ru1 2.363839 1_555
P3 Ru3 2.363846 1_555
P4 P9 2.285305 1_555
P4 P7 2.321554 1_554
P4 Ru2 2.363839 1_555
P4 Ru3 2.363846 1_555
P5 Ru0 2.363839 1_555
P5 Ru3 2.363845 1_555
P6 P8 2.321555 1_455
P6 Ru0 2.363842 1_566
P6 Ru2 2.363842 1_556
P7 Ru0 2.363842 1_556
P7 Ru1 2.363842 1_555
P8 Ru1 2.363839 1_665
P8 Ru3 2.363846 1_555
P9 Ru0 2.363842 1_565
P9 Ru1 2.363842 1_665
P10 P8 2.285304 1_555
P10 P3 2.321555 1_655
P10 Ru0 2.363842 1_555
P10 Ru2 2.363842 1_655
P11 P7 2.285305 1_555
P11 P9 2.321554 1_556
P11 Ru2 2.363839 1_656
P11 Ru3 2.363846 1_555
