# generated using pymatgen
data_Mg2CrSbO6
_symmetry_space_group_name_H-M   'P 1'
_cell_length_a   5.17777219
_cell_length_b   5.36812823
_cell_length_c   7.64032200
_cell_angle_alpha   89.99998198
_cell_angle_beta   89.99993683
_cell_angle_gamma   90.48976429
_symmetry_Int_Tables_number   1
_chemical_formula_structural   Mg2CrSbO6
_chemical_formula_sum   'Mg4 Cr2 Sb2 O12'
_cell_volume   212.35457181
_cell_formula_units_Z   2
loop_
 _symmetry_equiv_pos_site_id
 _symmetry_equiv_pos_as_xyz
  1  'x, y, z'
loop_
 _atom_site_type_symbol
 _atom_site_label
 _atom_site_symmetry_multiplicity
 _atom_site_fract_x
 _atom_site_fract_y
 _atom_site_fract_z
 _atom_site_occupancy
  Mg  Mg0  1  0.51880500  0.57139000  0.75000000  1
  Mg  Mg1  1  0.48119400  0.42860700  0.25000200  1
  Mg  Mg2  1  0.00478200  0.03773200  0.75000200  1
  Mg  Mg3  1  0.99521800  0.96226700  0.24999800  1
  Cr  Cr0  1  0.50000400  0.00000200  0.49999700  1
  Cr  Cr1  1  0.50000200  0.00000400  0.99999600  1
  Sb  Sb0  1  0.00000000  0.50000000  0.50000000  1
  Sb  Sb1  1  0.00000000  0.50000000  0.00000000  1
  O  O0  1  0.31796100  0.67972700  0.43000200  1
  O  O1  1  0.17596100  0.18863200  0.06993400  1
  O  O2  1  0.68204000  0.32027200  0.93000300  1
  O  O3  1  0.82403700  0.81137000  0.56993400  1
  O  O4  1  0.17596300  0.18863000  0.43006700  1
  O  O5  1  0.82403600  0.81136900  0.93006500  1
  O  O6  1  0.86219600  0.57190600  0.25000000  1
  O  O7  1  0.31795900  0.67972600  0.06999800  1
  O  O8  1  0.37559100  0.92903300  0.75000100  1
  O  O9  1  0.68203900  0.32027400  0.56999700  1
  O  O10  1  0.13780200  0.42809400  0.75000100  1
  O  O11  1  0.62440900  0.07096700  0.25000100  1
loop_
_geom_bond_atom_site_label_1
_geom_bond_atom_site_label_2
_geom_bond_distance
_geom_bond_site_symmetry_2
Mg0 O8 2.064005 1_555
Mg0 O9 2.107696 1_555
Mg0 O2 2.107706 1_555
Mg0 O10 2.111280 1_555
Mg0 O5 2.452585 1_555
Mg0 O3 2.452593 1_555
Mg1 O11 2.063992 1_555
Mg1 O0 2.107693 1_555
Mg1 O7 2.107714 1_555
Mg1 O6 2.111281 1_555
Mg1 O4 2.452577 1_555
Mg1 O1 2.452594 1_555
Mg2 O8 2.011442 1_545
Mg2 O5 2.055633 1_445
Mg2 O3 2.055655 1_445
Mg2 O10 2.200199 1_555
Mg2 O1 2.721121 1_556
Mg2 O4 2.721139 1_555
Mg3 O11 2.011444 1_565
Mg3 O1 2.055638 1_665
Mg3 O4 2.055664 1_665
Mg3 O6 2.200197 1_555
Mg3 O5 2.721129 1_554
Mg3 O3 2.721145 1_555
Cr0 O9 2.025479 1_555
Cr0 O0 2.025502 1_545
Cr0 O3 2.038341 1_545
Cr0 O4 2.038351 1_555
Cr0 O11 2.050398 1_555
Cr0 O8 2.050472 1_545
Cr1 O2 2.025453 1_555
Cr1 O7 2.025529 1_546
Cr1 O5 2.038341 1_545
Cr1 O1 2.038366 1_556
Cr1 O8 2.050408 1_545
Cr1 O11 2.050465 1_556
O0 Sb0 1.974866 1_555
O1 Sb1 1.983784 1_555
O2 Sb1 1.974864 1_656
O3 Sb0 1.983797 1_655
O4 Sb0 1.983795 1_555
O5 Sb1 1.983798 1_656
O6 Sb1 2.076347 1_655
O6 Sb0 2.076348 1_655
O7 Sb1 1.974856 1_555
O9 Sb0 1.974862 1_655
O10 Sb1 2.076337 1_556
O10 Sb0 2.076352 1_555
