# generated using pymatgen
data_Sr6Y2Co3(Cu2O7)3
_symmetry_space_group_name_H-M   'P 1'
_cell_length_a   16.18830161
_cell_length_b   5.44261802
_cell_length_c   12.24022760
_cell_angle_alpha   102.81140623
_cell_angle_beta   102.66257447
_cell_angle_gamma   90.15329711
_symmetry_Int_Tables_number   1
_chemical_formula_structural   Sr6Y2Co3(Cu2O7)3
_chemical_formula_sum   'Sr12 Y4 Co6 Cu12 O42'
_cell_volume   1024.53014146
_cell_formula_units_Z   2
loop_
 _symmetry_equiv_pos_site_id
 _symmetry_equiv_pos_as_xyz
  1  'x, y, z'
loop_
 _atom_site_type_symbol
 _atom_site_label
 _atom_site_symmetry_multiplicity
 _atom_site_fract_x
 _atom_site_fract_y
 _atom_site_fract_z
 _atom_site_occupancy
  Sr  Sr0  1  0.11184900  0.34093800  0.69636300  1
  Sr  Sr1  1  0.44672300  0.35380600  0.71594100  1
  Sr  Sr2  1  0.77614600  0.33870500  0.69872900  1
  Sr  Sr3  1  0.21350000  0.65763000  0.30208200  1
  Sr  Sr4  1  0.54207600  0.64464400  0.28389400  1
  Sr  Sr5  1  0.87657200  0.66062100  0.30297900  1
  Sr  Sr6  1  0.27637200  0.85859900  0.69851700  1
  Sr  Sr7  1  0.61204100  0.85434300  0.69626400  1
  Sr  Sr8  1  0.94702200  0.86098800  0.71610200  1
  Sr  Sr9  1  0.04151900  0.13840600  0.28405600  1
  Sr  Sr10  1  0.37680100  0.14160100  0.30306400  1
  Sr  Sr11  1  0.71326900  0.14287900  0.30180100  1
  Y  Y0  1  0.33108300  0.00042300  0.00028400  1
  Y  Y1  1  0.65964100  0.99994300  0.99988900  1
  Y  Y2  1  0.15955800  0.49989200  0.99964000  1
  Y  Y3  1  0.83110300  0.50024700  0.00017800  1
  Co  Co0  1  0.08862500  0.68401300  0.49939500  1
  Co  Co1  1  0.42270900  0.68530200  0.49952600  1
  Co  Co2  1  0.75659500  0.68640000  0.50116500  1
  Co  Co3  1  0.25754500  0.31454000  0.50121400  1
  Co  Co4  1  0.58982500  0.31489500  0.49950000  1
  Co  Co5  1  0.92380900  0.31388000  0.49920600  1
  Cu  Cu0  1  0.31024200  0.43495000  0.86771500  1
  Cu  Cu1  1  0.63554000  0.43459500  0.86775500  1
  Cu  Cu2  1  0.97289400  0.43337500  0.86700200  1
  Cu  Cu3  1  0.01755200  0.56699300  0.13368300  1
  Cu  Cu4  1  0.35436200  0.56535800  0.13271400  1
  Cu  Cu5  1  0.67979600  0.56617300  0.13300200  1
  Cu  Cu6  1  0.13539500  0.93291900  0.86701400  1
  Cu  Cu7  1  0.47296200  0.93336700  0.86672500  1
  Cu  Cu8  1  0.81006400  0.93226600  0.86702600  1
  Cu  Cu9  1  0.17989100  0.06698900  0.13240400  1
  Cu  Cu10  1  0.51712900  0.06662000  0.13286300  1
  Cu  Cu11  1  0.85436800  0.06731800  0.13221300  1
  O  O0  1  0.04038100  0.35750800  0.49445300  1
  O  O1  1  0.37606800  0.36424400  0.50623300  1
  O  O2  1  0.70743300  0.35971500  0.49930700  1
  O  O3  1  0.20738800  0.63008700  0.49933400  1
  O  O4  1  0.54053900  0.62754500  0.49452300  1
  O  O5  1  0.87630100  0.63430300  0.50610500  1
  O  O6  1  0.06146400  0.20188100  0.86162400  1
  O  O7  1  0.38436500  0.16619600  0.86321700  1
  O  O8  1  0.72538700  0.19221300  0.87837200  1
  O  O9  1  0.10767900  0.79851200  0.13813700  1
  O  O10  1  0.43021100  0.83530800  0.13789700  1
  O  O11  1  0.76639500  0.80946000  0.12179700  1
  O  O12  1  0.22558200  0.18685500  0.87792700  1
  O  O13  1  0.56172600  0.15987100  0.86146600  1
  O  O14  1  0.88445200  0.19738500  0.86289100  1
  O  O15  1  0.26602400  0.81371600  0.12157100  1
  O  O16  1  0.60717100  0.84025900  0.13778700  1
  O  O17  1  0.92982300  0.80349800  0.13770000  1
  O  O18  1  0.22384300  0.68617700  0.87543000  1
  O  O19  1  0.56017600  0.69775300  0.85743200  1
  O  O20  1  0.88164800  0.65643600  0.85760000  1
  O  O21  1  0.26513600  0.31322000  0.12407200  1
  O  O22  1  0.60718100  0.30169200  0.14205400  1
  O  O23  1  0.92890100  0.34307100  0.14258900  1
  O  O24  1  0.05998400  0.65952500  0.85772000  1
  O  O25  1  0.38164500  0.70096500  0.85794700  1
  O  O26  1  0.72364900  0.68877700  0.87570700  1
  O  O27  1  0.10754900  0.34002300  0.14215900  1
  O  O28  1  0.42916200  0.29917100  0.14283600  1
  O  O29  1  0.76552800  0.31026500  0.12448900  1
  O  O30  1  0.10041300  0.84259100  0.64697000  1
  O  O31  1  0.43185100  0.85497500  0.64503700  1
  O  O32  1  0.76222800  0.85100800  0.64799200  1
  O  O33  1  0.22065200  0.15708700  0.35383200  1
  O  O34  1  0.55041800  0.15303900  0.35513200  1
  O  O35  1  0.88136100  0.15896500  0.35388700  1
  O  O36  1  0.26352800  0.30222200  0.64703100  1
  O  O37  1  0.60118900  0.30784300  0.64560900  1
  O  O38  1  0.93317800  0.29545700  0.64442500  1
  O  O39  1  0.04897700  0.70574300  0.35388000  1
  O  O40  1  0.38011600  0.69975300  0.35303600  1
  O  O41  1  0.71901900  0.70218800  0.35285000  1
loop_
_geom_bond_atom_site_label_1
_geom_bond_atom_site_label_2
_geom_bond_distance
_geom_bond_site_symmetry_2
Co0 O39 1.786342 1_555
Co0 O30 1.789083 1_555
Co0 O0 1.922412 1_555
Co0 O3 1.945758 1_555
Co1 O31 1.789200 1_555
Co1 O40 1.793743 1_555
Co1 O1 1.927161 1_555
Co1 O4 1.945991 1_555
Co2 O32 1.804028 1_555
Co2 O41 1.805112 1_555
Co2 O2 1.939540 1_555
Co2 O5 1.948958 1_555
Co3 O36 1.782363 1_555
Co3 O33 1.784586 1_555
Co3 O3 1.904224 1_555
Co3 O1 1.922625 1_555
Co4 O34 1.765791 1_555
Co4 O37 1.766340 1_555
Co4 O4 1.888855 1_555
Co4 O2 1.919372 1_555
Co5 O35 1.772826 1_555
Co5 O38 1.775821 1_555
Co5 O5 1.900071 1_555
Co5 O0 1.916451 1_655
Cu0 O25 1.890758 1_555
Cu0 O7 1.893425 1_555
Cu0 O18 1.961026 1_555
Cu0 O12 1.963982 1_555
Cu0 O36 2.574188 1_555
Cu1 O13 1.889050 1_555
Cu1 O19 1.891513 1_555
Cu1 O26 1.956170 1_555
Cu1 O8 1.968774 1_555
Cu1 O37 2.584933 1_555
Cu2 O14 1.905774 1_555
Cu2 O24 1.907485 1_655
Cu2 O6 1.913585 1_655
Cu2 O20 1.914689 1_555
Cu2 O38 2.592620 1_555
Cu3 O9 1.908995 1_555
Cu3 O27 1.912985 1_555
Cu3 O23 1.916990 1_455
Cu3 O17 1.920564 1_455
Cu3 O39 2.566644 1_555
Cu4 O10 1.893460 1_555
Cu4 O28 1.898341 1_555
Cu4 O21 1.959271 1_555
Cu4 O15 1.974173 1_555
Cu4 O40 2.571412 1_555
Cu5 O22 1.893399 1_555
Cu5 O16 1.900467 1_555
Cu5 O29 1.971370 1_555
Cu5 O11 1.972891 1_555
Cu5 O41 2.560766 1_555
Cu6 O24 1.889879 1_555
Cu6 O6 1.896626 1_565
Cu6 O18 1.967522 1_555
Cu6 O12 1.970110 1_565
Cu6 O30 2.561114 1_555
Cu7 O13 1.911789 1_565
Cu7 O25 1.912280 1_555
Cu7 O19 1.914705 1_555
Cu7 O7 1.916122 1_565
Cu7 O31 2.584841 1_555
Cu8 O14 1.893301 1_565
Cu8 O20 1.897632 1_555
Cu8 O26 1.960139 1_555
Cu8 O8 1.976526 1_565
Cu8 O32 2.558372 1_555
Cu9 O9 1.891802 1_545
Cu9 O27 1.893647 1_555
Cu9 O21 1.955280 1_555
Cu9 O15 1.967801 1_545
Cu9 O33 2.578086 1_555
Cu10 O22 1.904987 1_555
Cu10 O10 1.905642 1_545
Cu10 O16 1.910536 1_545
Cu10 O28 1.913656 1_555
Cu10 O34 2.588782 1_555
Cu11 O23 1.887584 1_555
Cu11 O17 1.890624 1_545
Cu11 O29 1.957464 1_555
Cu11 O11 1.960703 1_545
Cu11 O35 2.584717 1_555
O0 Sr0 2.510065 1_555
O0 Sr9 2.591050 1_555
O1 Sr10 2.515839 1_555
O1 Sr1 2.584213 1_555
O2 Sr11 2.466076 1_555
O2 Sr2 2.478468 1_555
O3 Sr3 2.475237 1_555
O3 Sr6 2.488399 1_555
O4 Sr7 2.519651 1_555
O4 Sr4 2.605885 1_555
O5 Sr5 2.522892 1_555
O5 Sr8 2.595331 1_555
O6 Y2 2.366694 1_555
O6 Sr0 2.594019 1_555
O6 Sr8 2.667680 1_445
O7 Y0 2.382098 1_556
O7 Sr6 2.620221 1_545
O7 Sr1 2.630586 1_555
O8 Y3 2.391616 1_556
O8 Y1 2.412165 1_545
O8 Sr2 2.777058 1_555
O8 Sr7 2.843928 1_545
O9 Y2 2.372813 1_554
O9 Sr3 2.594561 1_555
O9 Sr9 2.672694 1_565
O10 Y0 2.390382 1_565
O10 Sr10 2.625488 1_565
O10 Sr4 2.638825 1_555
O11 Y3 2.393246 1_555
O11 Y1 2.419308 1_554
O11 Sr5 2.797484 1_555
O11 Sr11 2.820122 1_565
O12 Y0 2.398183 1_556
O12 Y2 2.418009 1_555
O12 Sr6 2.783859 1_545
O12 Sr0 2.841301 1_555
O13 Y1 2.371679 1_545
O13 Sr7 2.599158 1_545
O13 Sr1 2.672713 1_555
O14 Y3 2.387933 1_556
O14 Sr2 2.617499 1_555
O14 Sr8 2.637281 1_545
O15 Y0 2.386338 1_565
O15 Y2 2.416870 1_554
O15 Sr10 2.795316 1_565
O15 Sr3 2.824663 1_555
O16 Y1 2.366646 1_554
O16 Sr11 2.588398 1_565
O16 Sr4 2.665873 1_555
O17 Y3 2.384517 1_555
O17 Sr5 2.626640 1_555
O17 Sr9 2.629696 1_665
O18 Y2 2.407083 1_555
O18 Y0 2.436455 1_566
O18 Sr6 2.827932 1_555
O18 Sr0 2.834575 1_555
O19 Y1 2.412726 1_555
O19 Sr7 2.605938 1_555
O19 Sr1 2.650684 1_555
O20 Y3 2.391251 1_556
O20 Sr2 2.593387 1_555
O20 Sr8 2.647932 1_555
O21 Y2 2.414000 1_554
O21 Y0 2.430786 1_555
O21 Sr3 2.820557 1_555
O21 Sr10 2.849641 1_555
O22 Y1 2.415445 1_544
O22 Sr11 2.608663 1_555
O22 Sr4 2.642844 1_555
O23 Y3 2.394882 1_555
O23 Sr5 2.605961 1_555
O23 Sr9 2.654267 1_655
O24 Y2 2.412469 1_555
O24 Sr0 2.613111 1_555
O24 Sr8 2.648589 1_455
O25 Y0 2.394735 1_566
O25 Sr6 2.596309 1_555
O25 Sr1 2.656720 1_555
O26 Y1 2.410503 1_555
O26 Y3 2.437395 1_556
O26 Sr2 2.833798 1_555
O26 Sr7 2.836770 1_555
O27 Y2 2.412934 1_554
O27 Sr3 2.602541 1_555
O27 Sr9 2.648820 1_555
O28 Y0 2.392202 1_555
O28 Sr10 2.602156 1_555
O28 Sr4 2.648756 1_555
O29 Y1 2.410988 1_544
O29 Y3 2.431320 1_555
O29 Sr11 2.816687 1_555
O29 Sr5 2.837771 1_555
O30 Sr0 2.641484 1_565
O30 Sr6 2.775943 1_555
O30 Sr8 2.788730 1_455
O30 Sr0 2.922337 1_555
O31 Sr1 2.653686 1_565
O31 Sr6 2.735100 1_555
O31 Sr7 2.846230 1_555
O31 Sr1 3.035315 1_555
O32 Sr2 2.585809 1_565
O32 Sr7 2.624084 1_555
O32 Sr8 2.921079 1_555
O32 Sr2 2.986779 1_555
O33 Sr3 2.647001 1_545
O33 Sr10 2.729385 1_555
O33 Sr9 2.832498 1_555
O33 Sr3 2.927642 1_555
O34 Sr4 2.703926 1_545
O34 Sr10 2.739614 1_555
O34 Sr11 2.849283 1_555
O34 Sr4 2.987053 1_555
O35 Sr5 2.641781 1_545
O35 Sr11 2.651798 1_555
O35 Sr9 2.897558 1_655
O35 Sr5 2.929748 1_555
O36 Sr6 2.624900 1_545
O36 Sr0 2.652264 1_555
O36 Sr1 2.894651 1_555
O36 Sr6 2.950072 1_555
O37 Sr7 2.672210 1_545
O37 Sr2 2.759404 1_555
O37 Sr1 2.812119 1_555
O37 Sr7 2.897217 1_555
O38 Sr8 2.692250 1_545
O38 Sr2 2.762972 1_555
O38 Sr0 2.819843 1_655
O38 Sr8 3.001059 1_555
O39 Sr9 2.671896 1_565
O39 Sr5 2.721026 1_455
O39 Sr3 2.869564 1_555
O39 Sr9 3.010303 1_555
O40 Sr10 2.607445 1_565
O40 Sr3 2.629136 1_555
O40 Sr4 2.923147 1_555
O40 Sr10 2.960740 1_555
O41 Sr11 2.606208 1_565
O41 Sr5 2.748338 1_555
O41 Sr4 2.798809 1_555
O41 Sr11 2.965654 1_555
