# generated using pymatgen
data_BaBiNO5
_symmetry_space_group_name_H-M   'P 1'
_cell_length_a   8.41266133
_cell_length_b   8.41266133
_cell_length_c   6.22740512
_cell_angle_alpha   89.88856274
_cell_angle_beta   89.88856274
_cell_angle_gamma   138.79439215
_symmetry_Int_Tables_number   1
_chemical_formula_structural   BaBiNO5
_chemical_formula_sum   'Ba2 Bi2 N2 O10'
_cell_volume   290.33310731
_cell_formula_units_Z   2
loop_
 _symmetry_equiv_pos_site_id
 _symmetry_equiv_pos_as_xyz
  1  'x, y, z'
loop_
 _atom_site_type_symbol
 _atom_site_label
 _atom_site_symmetry_multiplicity
 _atom_site_fract_x
 _atom_site_fract_y
 _atom_site_fract_z
 _atom_site_occupancy
  Ba  Ba0  1  0.85629900  0.16497200  0.99574000  1
  Ba  Ba1  1  0.16497200  0.85629900  0.99574000  1
  Bi  Bi0  1  0.69427600  0.31454700  0.49600400  1
  Bi  Bi1  1  0.31454700  0.69427600  0.49600400  1
  N  N0  1  0.99421700  0.99421700  0.50709700  1
  N  N1  1  0.49279400  0.49279400  0.00692000  1
  O  O0  1  0.50407200  0.00510000  0.27566300  1
  O  O1  1  0.00395700  0.50473400  0.71793700  1
  O  O2  1  0.50473400  0.00395700  0.71793700  1
  O  O3  1  0.00510000  0.50407200  0.27566300  1
  O  O4  1  0.98389800  0.98389800  0.71091000  1
  O  O5  1  0.06944900  0.92905900  0.40813300  1
  O  O6  1  0.92905900  0.06944900  0.40813300  1
  O  O7  1  0.66645600  0.52601900  0.00114100  1
  O  O8  1  0.52601900  0.66645600  0.00114100  1
  O  O9  1  0.27914800  0.27914800  0.01883800  1
loop_
_geom_bond_atom_site_label_1
_geom_bond_atom_site_label_2
_geom_bond_distance
_geom_bond_site_symmetry_2
Ba0 O1 2.708445 1_655
Ba0 O3 2.719975 1_656
Ba0 O2 2.752435 1_555
Ba0 O0 2.757183 1_556
Ba0 O8 2.788355 1_546
Ba0 O6 2.890332 1_556
Ba0 O9 2.908394 1_656
Ba0 O4 3.013728 1_545
Ba1 O2 2.708445 1_565
Ba1 O0 2.719975 1_566
Ba1 O1 2.752435 1_555
Ba1 O3 2.757183 1_556
Ba1 O7 2.788355 1_456
Ba1 O5 2.890332 1_556
Ba1 O9 2.908394 1_566
Ba1 O4 3.013728 1_455
Bi0 O3 2.228593 1_655
Bi0 O0 2.230414 1_555
Bi0 O2 2.233407 1_555
Bi0 O1 2.237820 1_655
Bi1 O0 2.228593 1_565
Bi1 O3 2.230414 1_555
Bi1 O1 2.233407 1_555
Bi1 O2 2.237820 1_565
N0 O6 1.265964 1_565
N0 O5 1.265964 1_655
N0 O4 1.270358 1_555
N1 O8 1.264567 1_555
N1 O7 1.264567 1_555
N1 O9 1.266683 1_555
