# generated using pymatgen
data_Be10Ru3
_symmetry_space_group_name_H-M   'P 1'
_cell_length_a   7.31614902
_cell_length_b   6.89430638
_cell_length_c   6.89430638
_cell_angle_alpha   69.96466859
_cell_angle_beta   69.37158199
_cell_angle_gamma   110.62841801
_symmetry_Int_Tables_number   1
_chemical_formula_structural   Be10Ru3
_chemical_formula_sum   'Be20 Ru6'
_cell_volume   257.74151672
_cell_formula_units_Z   2
loop_
 _symmetry_equiv_pos_site_id
 _symmetry_equiv_pos_as_xyz
  1  'x, y, z'
loop_
 _atom_site_type_symbol
 _atom_site_label
 _atom_site_symmetry_multiplicity
 _atom_site_fract_x
 _atom_site_fract_y
 _atom_site_fract_z
 _atom_site_occupancy
  Be  Be0  1  0.77553600  0.73901800  0.26098200  1
  Be  Be1  1  0.19487100  0.00584200  0.99415800  1
  Be  Be2  1  0.01290800  0.23861200  0.98852900  1
  Be  Be3  1  0.01290800  0.01147100  0.76138800  1
  Be  Be4  1  0.03779100  0.66415600  0.33584400  1
  Be  Be5  1  0.33720100  0.34110400  0.00259800  1
  Be  Be6  1  0.33720100  0.99740200  0.65889600  1
  Be  Be7  1  0.00904000  0.35639600  0.64360400  1
  Be  Be8  1  0.35697700  0.65881300  0.34118700  1
  Be  Be9  1  0.63314700  0.65079300  0.66261300  1
  Be  Be10  1  0.63314700  0.33738700  0.34920700  1
  Be  Be11  1  0.62180400  0.27885900  0.72114100  1
  Be  Be12  1  0.35221000  0.73155500  0.98333200  1
  Be  Be13  1  0.35221000  0.01666800  0.26844500  1
  Be  Be14  1  0.99883200  0.34273000  0.28552100  1
  Be  Be15  1  0.72961200  0.34324600  0.99949000  1
  Be  Be16  1  0.28359300  0.64666800  0.70767100  1
  Be  Be17  1  0.99883200  0.71447900  0.65727000  1
  Be  Be18  1  0.28359300  0.29232900  0.35333200  1
  Be  Be19  1  0.72961200  0.00051000  0.65675400  1
  Ru  Ru0  1  0.37095900  0.37726000  0.62274000  1
  Ru  Ru1  1  0.66346900  0.01334200  0.98665800  1
  Ru  Ru2  1  0.00514900  0.63901400  0.00926600  1
  Ru  Ru3  1  0.00514900  0.99073400  0.36098600  1
  Ru  Ru4  1  0.63212400  0.62541700  0.01380500  1
  Ru  Ru5  1  0.63212400  0.98619500  0.37458300  1
loop_
_geom_bond_atom_site_label_1
_geom_bond_atom_site_label_2
_geom_bond_distance
_geom_bond_site_symmetry_2
Be0 Be4 2.329627 1_655
Be0 Be10 2.342944 1_555
Be0 Be9 2.342944 1_555
Be0 Ru3 2.427093 1_655
Be0 Ru2 2.427093 1_655
Be0 Be1 2.430692 1_664
Be0 Ru4 2.492712 1_555
Be0 Ru5 2.492712 1_555
Be0 Ru0 2.556662 1_555
Be0 Ru1 2.749615 1_564
Be1 Be4 2.191308 1_546
Be1 Be6 2.206628 1_545
Be1 Be5 2.206628 1_556
Be1 Ru3 2.361702 1_546
Be1 Ru2 2.361702 1_546
Be1 Ru0 2.373187 1_555
Be1 Be2 2.418303 1_555
Be1 Be3 2.418303 1_555
Be1 Be11 2.475747 1_555
Be1 Be12 2.544906 1_545
Be1 Be13 2.544906 1_556
Be2 Be7 2.248475 1_555
Be2 Be5 2.272810 1_556
Be2 Ru5 2.461550 1_446
Be2 Ru0 2.462663 1_555
Be2 Ru1 2.487458 1_455
Be2 Ru3 2.517851 1_546
Be2 Be3 2.566105 1_555
Be2 Ru2 2.831803 1_556
Be3 Be7 2.248475 1_555
Be3 Be6 2.272810 1_545
Be3 Ru4 2.461550 1_446
Be3 Ru0 2.462663 1_555
Be3 Ru1 2.487458 1_455
Be3 Ru2 2.517851 1_546
Be3 Ru3 2.831803 1_545
Be4 Be7 2.309659 1_555
Be4 Be8 2.361403 1_555
Be4 Ru2 2.402826 1_555
Be4 Ru3 2.402826 1_555
Be5 Be9 2.116213 1_554
Be5 Ru3 2.321170 1_545
Be5 Ru4 2.396863 1_555
Be5 Ru0 2.456649 1_554
Be6 Ru2 2.321170 1_556
Be6 Ru5 2.396863 1_555
Be6 Ru0 2.456649 1_565
Be7 Be8 2.171654 1_555
Be7 Ru1 2.306546 1_455
Be7 Ru0 2.549822 1_555
Be8 Ru1 2.271430 1_564
Be8 Ru0 2.290054 1_555
Be8 Ru4 2.584735 1_555
Be8 Ru5 2.584735 1_555
Be9 Ru3 2.324358 1_655
Be9 Ru0 2.342926 1_555
Be9 Ru4 2.364119 1_556
Be9 Ru5 2.483287 1_555
Be10 Be6 2.116213 1_545
Be10 Be15 2.242123 1_554
Be10 Ru2 2.324358 1_655
Be10 Ru0 2.342926 1_555
Be10 Ru5 2.364119 1_545
Be10 Be11 2.421252 1_555
Be10 Be18 2.453666 1_555
Be10 Ru4 2.483287 1_555
Be10 Be14 2.538447 1_555
Be11 Ru1 2.298931 1_555
Be11 Ru0 2.393254 1_555
Be11 Be9 2.421252 1_555
Be12 Ru2 2.312312 1_556
Be12 Be8 2.358977 1_556
Be12 Be6 2.424924 1_555
Be12 Ru1 2.431160 1_565
Be12 Be4 2.438815 1_556
Be12 Ru4 2.455028 1_556
Be13 Ru3 2.312312 1_545
Be13 Be8 2.358977 1_545
Be13 Be5 2.424924 1_555
Be13 Ru1 2.431160 1_554
Be13 Be4 2.438815 1_545
Be13 Ru5 2.455028 1_545
Be14 Ru2 2.237817 1_655
Be14 Be4 2.294283 1_655
Be14 Ru3 2.322255 1_645
Be14 Be2 2.372541 1_654
Be14 Ru5 2.602953 1_545
Be15 Ru1 2.192642 1_555
Be15 Ru4 2.315715 1_556
Be15 Ru2 2.349425 1_656
Be15 Be2 2.408820 1_655
Be15 Ru5 2.521345 1_546
Be16 Be6 2.189894 1_555
Be16 Be2 2.285953 1_555
Be16 Ru5 2.289099 1_555
Be16 Ru2 2.310982 1_556
Be16 Ru0 2.349316 1_555
Be16 Be8 2.355159 1_555
Be16 Be9 2.453666 1_555
Be17 Ru3 2.237817 1_655
Be17 Be4 2.294283 1_655
Be17 Ru2 2.322255 1_656
Be17 Be3 2.372541 1_665
Be17 Be9 2.538447 1_555
Be17 Ru4 2.602953 1_556
Be18 Be5 2.189894 1_555
Be18 Be3 2.285953 1_555
Be18 Ru4 2.289099 1_555
Be18 Ru3 2.310982 1_545
Be18 Ru0 2.349316 1_555
Be18 Be8 2.355159 1_555
Be19 Ru1 2.192642 1_555
Be19 Be9 2.242123 1_545
Be19 Ru5 2.315715 1_545
Be19 Ru3 2.349425 1_645
Be19 Be3 2.408820 1_655
Be19 Ru4 2.521345 1_546
Ru1 Ru5 2.536741 1_546
Ru1 Ru4 2.536741 1_546
