# generated using pymatgen
data_Ba3Ir(CN)3
_symmetry_space_group_name_H-M   'P 1'
_cell_length_a   9.32464436
_cell_length_b   9.32464436
_cell_length_c   5.85040900
_cell_angle_alpha   90.00000000
_cell_angle_beta   90.00000000
_cell_angle_gamma   120.00000255
_symmetry_Int_Tables_number   1
_chemical_formula_structural   Ba3Ir(CN)3
_chemical_formula_sum   'Ba6 Ir2 C6 N6'
_cell_volume   440.53599860
_cell_formula_units_Z   2
loop_
 _symmetry_equiv_pos_site_id
 _symmetry_equiv_pos_as_xyz
  1  'x, y, z'
loop_
 _atom_site_type_symbol
 _atom_site_label
 _atom_site_symmetry_multiplicity
 _atom_site_fract_x
 _atom_site_fract_y
 _atom_site_fract_z
 _atom_site_occupancy
  Ba  Ba0  1  0.30639100  0.92846100  0.25000000  1
  Ba  Ba1  1  0.62207000  0.69360900  0.25000000  1
  Ba  Ba2  1  0.07153900  0.37793000  0.25000000  1
  Ba  Ba3  1  0.69360900  0.07153900  0.75000000  1
  Ba  Ba4  1  0.37793000  0.30639100  0.75000000  1
  Ba  Ba5  1  0.92846100  0.62207000  0.75000000  1
  Ir  Ir0  1  0.66666700  0.33333300  0.25000000  1
  Ir  Ir1  1  0.33333300  0.66666700  0.75000000  1
  C  C0  1  0.44638200  0.29859200  0.25000000  1
  C  C1  1  0.85221000  0.55361800  0.25000000  1
  C  C2  1  0.70140800  0.14779000  0.25000000  1
  C  C3  1  0.55361800  0.70140800  0.75000000  1
  C  C4  1  0.14779000  0.44638200  0.75000000  1
  C  C5  1  0.29859200  0.85221000  0.75000000  1
  N  N0  1  0.30238300  0.27273100  0.25000000  1
  N  N1  1  0.97034800  0.69761700  0.25000000  1
  N  N2  1  0.72726900  0.02965200  0.25000000  1
  N  N3  1  0.69761700  0.72726900  0.75000000  1
  N  N4  1  0.02965200  0.30238300  0.75000000  1
  N  N5  1  0.27273100  0.97034800  0.75000000  1
loop_
_geom_bond_atom_site_label_1
_geom_bond_atom_site_label_2
_geom_bond_distance
_geom_bond_site_symmetry_2
Ba0 N1 2.776182 1_455
Ba1 N2 2.776182 1_565
Ba2 N0 2.776182 1_555
Ba3 N4 2.776182 1_655
Ba4 N5 2.776182 1_545
Ba5 N3 2.776182 1_555
C0 N0 1.239881 1_555
C0 Ir0 1.912791 1_555
C1 N1 1.239881 1_555
C1 Ir0 1.912788 1_555
C2 N2 1.239881 1_555
C2 Ir0 1.912782 1_555
C3 N3 1.239881 1_555
C3 Ir1 1.912791 1_555
C4 N4 1.239881 1_555
C4 Ir1 1.912788 1_555
C5 N5 1.239881 1_555
C5 Ir1 1.912782 1_555
