# generated using pymatgen
data_Ge3Au
_symmetry_space_group_name_H-M   'P 1'
_cell_length_a   5.39460513
_cell_length_b   5.39460513
_cell_length_c   5.39460513
_cell_angle_alpha   134.58539488
_cell_angle_beta   134.58539488
_cell_angle_gamma   66.17508928
_symmetry_Int_Tables_number   1
_chemical_formula_structural   Ge3Au
_chemical_formula_sum   'Ge3 Au1'
_cell_volume   78.40188081
_cell_formula_units_Z   1
loop_
 _symmetry_equiv_pos_site_id
 _symmetry_equiv_pos_as_xyz
  1  'x, y, z'
loop_
 _atom_site_type_symbol
 _atom_site_label
 _atom_site_symmetry_multiplicity
 _atom_site_fract_x
 _atom_site_fract_y
 _atom_site_fract_z
 _atom_site_occupancy
  Ge  Ge0  1  0.75000000  0.25000000  0.50000000  1
  Ge  Ge1  1  0.25000000  0.75000000  0.50000000  1
  Ge  Ge2  1  0.50000000  0.50000000  0.00000000  1
  Au  Au0  1  0.00000000  0.00000000  0.00000000  1
loop_
_geom_bond_atom_site_label_1
_geom_bond_atom_site_label_2
_geom_bond_distance
_geom_bond_site_symmetry_2
Ge0 Ge1 2.945022 1_645
Ge0 Ge1 2.945022 1_544
Ge0 Ge1 2.945022 1_555
Ge0 Ge1 2.945022 1_656
Ge0 Ge2 3.073065 1_556
Ge0 Ge2 3.073065 1_545
Ge0 Ge2 3.073065 1_656
Ge0 Ge2 3.073065 1_555
Ge1 Ge2 3.073065 1_555
Ge1 Ge2 3.073065 1_566
Ge1 Ge2 3.073065 1_556
Ge1 Ge2 3.073065 1_455
Au0 Ge2 2.945022 1_556
Au0 Ge2 2.945022 1_444
Au0 Ge2 2.945022 1_545
Au0 Ge2 2.945022 1_455
Au0 Ge1 3.073065 1_545
Au0 Ge0 3.073065 1_455
Au0 Ge0 3.073065 1_454
Au0 Ge1 3.073065 1_555
Au0 Ge0 3.073065 1_444
Au0 Ge0 3.073065 1_555
Au0 Ge1 3.073065 1_544
Au0 Ge1 3.073065 1_444
