# generated using pymatgen
data_Zr4GeSb7
_symmetry_space_group_name_H-M   'P 1'
_cell_length_a   3.98843743
_cell_length_b   7.33006374
_cell_length_c   9.66199861
_cell_angle_alpha   89.57302259
_cell_angle_beta   90.00000000
_cell_angle_gamma   90.00000000
_symmetry_Int_Tables_number   1
_chemical_formula_structural   Zr4GeSb7
_chemical_formula_sum   'Zr4 Ge1 Sb7'
_cell_volume   282.46552252
_cell_formula_units_Z   1
loop_
 _symmetry_equiv_pos_site_id
 _symmetry_equiv_pos_as_xyz
  1  'x, y, z'
loop_
 _atom_site_type_symbol
 _atom_site_label
 _atom_site_symmetry_multiplicity
 _atom_site_fract_x
 _atom_site_fract_y
 _atom_site_fract_z
 _atom_site_occupancy
  Zr  Zr0  1  -0.00000000  0.75796723  0.66001721  1
  Zr  Zr1  1  -0.00000000  0.26449494  0.83128506  1
  Zr  Zr2  1  0.50000000  0.24091439  0.34181931  1
  Zr  Zr3  1  0.50000000  0.74040039  0.16515517  1
  Ge  Ge0  1  -0.00000000  0.36817574  0.54442578  1
  Sb  Sb0  1  -0.00000000  0.43048459  0.15028148  1
  Sb  Sb1  1  -0.00000000  0.92663837  0.35580551  1
  Sb  Sb2  1  0.50000000  0.57170229  0.84992588  1
  Sb  Sb3  1  0.50000000  0.08212680  0.64069776  1
  Sb  Sb4  1  -0.00000000  0.86982090  0.95402128  1
  Sb  Sb5  1  0.50000000  0.61254970  0.46196202  1
  Sb  Sb6  1  0.50000000  0.13472465  0.04460354  1
loop_
_geom_bond_atom_site_label_1
_geom_bond_atom_site_label_2
_geom_bond_distance
_geom_bond_site_symmetry_2
Ge0 Sb5 2.792695 1_555
Ge0 Sb5 2.792695 1_455
Ge0 Zr1 2.868474 1_555
Ge0 Zr2 2.950667 1_555
Ge0 Zr2 2.950667 1_455
Ge0 Sb3 3.034710 1_455
Ge0 Sb3 3.034710 1_555
Ge0 Zr0 3.075463 1_555
Sb0 Zr3 3.027055 1_555
Sb0 Zr3 3.027055 1_455
Sb0 Zr2 3.048659 1_455
Sb0 Zr2 3.048659 1_555
Sb0 Sb6 3.122887 1_455
Sb0 Sb6 3.122887 1_555
Sb0 Zr1 3.322031 1_554
Sb1 Zr3 3.044862 1_455
Sb1 Zr3 3.044862 1_555
Sb1 Zr2 3.049163 1_565
Sb1 Zr2 3.049163 1_465
Sb1 Zr0 3.180235 1_555
Sb2 Zr1 3.014335 1_655
Sb2 Zr1 3.014335 1_555
Sb2 Zr0 3.028292 1_555
Sb2 Zr0 3.028292 1_655
Sb2 Sb4 3.129930 1_555
Sb2 Sb4 3.129930 1_655
Sb2 Zr3 3.295724 1_556
Sb3 Zr1 3.031749 1_555
Sb3 Zr1 3.031749 1_655
Sb3 Zr2 3.105447 1_555
Sb3 Zr0 3.106613 1_545
Sb3 Zr0 3.106613 1_645
Sb4 Sb6 2.922098 1_566
Sb4 Sb6 2.922098 1_466
Sb4 Zr0 2.962487 1_555
Sb4 Zr3 3.001586 1_556
Sb4 Zr3 3.001586 1_456
Sb4 Zr1 3.118419 1_565
Sb5 Zr0 2.967388 1_555
Sb5 Zr0 2.967388 1_655
Sb5 Zr2 2.969075 1_555
Sb5 Zr3 3.010345 1_555
Sb6 Zr2 2.980912 1_555
Sb6 Zr1 3.016716 1_654
Sb6 Zr1 3.016716 1_554
Sb6 Zr3 3.108223 1_545
