# generated using pymatgen
data_KEr2Cu3Se5
_symmetry_space_group_name_H-M   'P 1'
_cell_length_a   7.49408447
_cell_length_b   7.49408447
_cell_length_c   17.02042100
_cell_angle_alpha   90.00000000
_cell_angle_beta   90.00000000
_cell_angle_gamma   148.16041736
_symmetry_Int_Tables_number   1
_chemical_formula_structural   KEr2Cu3Se5
_chemical_formula_sum   'K2 Er4 Cu6 Se10'
_cell_volume   504.27237698
_cell_formula_units_Z   2
loop_
 _symmetry_equiv_pos_site_id
 _symmetry_equiv_pos_as_xyz
  1  'x, y, z'
loop_
 _atom_site_type_symbol
 _atom_site_label
 _atom_site_symmetry_multiplicity
 _atom_site_fract_x
 _atom_site_fract_y
 _atom_site_fract_z
 _atom_site_occupancy
  K  K0  1  0.93777600  0.06222400  0.25000000  1
  K  K1  1  0.06222400  0.93777600  0.75000000  1
  Er  Er0  1  0.80781000  0.19219000  0.90688700  1
  Er  Er1  1  0.19219000  0.80781000  0.09311300  1
  Er  Er2  1  0.80781000  0.19219000  0.59311300  1
  Er  Er3  1  0.19219000  0.80781000  0.40688700  1
  Cu  Cu0  1  0.34039600  0.65960400  0.75000000  1
  Cu  Cu1  1  0.65960400  0.34039600  0.25000000  1
  Cu  Cu2  1  0.58367800  0.41632200  0.97009700  1
  Cu  Cu3  1  0.41632200  0.58367800  0.02990300  1
  Cu  Cu4  1  0.58367800  0.41632200  0.52990300  1
  Cu  Cu5  1  0.41632200  0.58367800  0.47009700  1
  Se  Se0  1  0.44013700  0.55986300  0.88163800  1
  Se  Se1  1  0.55986300  0.44013700  0.11836200  1
  Se  Se2  1  0.44013700  0.55986300  0.61836200  1
  Se  Se3  1  0.55986300  0.44013700  0.38163800  1
  Se  Se4  1  0.75087000  0.24913000  0.75000000  1
  Se  Se5  1  0.24913000  0.75087000  0.25000000  1
  Se  Se6  1  0.83402700  0.16597300  0.07048000  1
  Se  Se7  1  0.16597300  0.83402700  0.92952000  1
  Se  Se8  1  0.83402700  0.16597300  0.42952000  1
  Se  Se9  1  0.16597300  0.83402700  0.57048000  1
loop_
_geom_bond_atom_site_label_1
_geom_bond_atom_site_label_2
_geom_bond_distance
_geom_bond_site_symmetry_2
K0 Se8 3.401800 1_555
K0 Se6 3.401800 1_555
K0 Se5 3.408575 1_655
K0 Se5 3.408575 1_545
K0 Se3 3.513090 1_655
K0 Se1 3.513090 1_655
K0 Se3 3.513090 1_545
K0 Se1 3.513090 1_545
K1 Se9 3.401800 1_555
K1 Se7 3.401800 1_555
K1 Se4 3.408575 1_455
K1 Se4 3.408575 1_565
K1 Se0 3.513090 1_455
K1 Se0 3.513090 1_565
K1 Se2 3.513090 1_455
K1 Se2 3.513090 1_565
Er0 Se4 2.793555 1_555
Er0 Se6 2.809945 1_556
Er0 Se0 2.836848 1_545
Er0 Se0 2.836848 1_655
Er0 Se7 2.924564 1_545
Er0 Se7 2.924564 1_655
Er1 Se5 2.793555 1_555
Er1 Se7 2.809945 1_554
Er1 Se1 2.836848 1_565
Er1 Se1 2.836848 1_455
Er1 Se6 2.924564 1_455
Er1 Se6 2.924564 1_565
Er2 Se4 2.793555 1_555
Er2 Se8 2.809945 1_555
Er2 Se2 2.836848 1_545
Er2 Se2 2.836848 1_655
Er2 Se9 2.924564 1_545
Er2 Se9 2.924564 1_655
Er3 Se5 2.793555 1_555
Er3 Se9 2.809945 1_555
Er3 Se3 2.836848 1_455
Er3 Se3 2.836848 1_565
Er3 Se8 2.924564 1_455
Er3 Se8 2.924564 1_565
Cu0 Se4 2.427012 1_455
Cu0 Se4 2.427012 1_565
Cu0 Se2 2.662083 1_555
Cu0 Se0 2.662083 1_555
Cu1 Se5 2.427012 1_545
Cu1 Se5 2.427012 1_655
Cu1 Se3 2.662083 1_555
Cu1 Se1 2.662083 1_555
Cu2 Se7 2.471691 1_655
Cu2 Se7 2.471691 1_545
Cu2 Se1 2.546771 1_556
Cu2 Se0 2.558753 1_555
Cu3 Se6 2.471691 1_565
Cu3 Se6 2.471691 1_455
Cu3 Se0 2.546771 1_554
Cu3 Se1 2.558753 1_555
Cu4 Se9 2.471691 1_655
Cu4 Se9 2.471691 1_545
Cu4 Se3 2.546771 1_555
Cu4 Se2 2.558753 1_555
Cu5 Se8 2.471691 1_565
Cu5 Se8 2.471691 1_455
Cu5 Se2 2.546771 1_555
Cu5 Se3 2.558753 1_555
