# generated using pymatgen
data_Co3Sn
_symmetry_space_group_name_H-M   'P 1'
_cell_length_a   6.08042881
_cell_length_b   6.08042881
_cell_length_c   11.42868123
_cell_angle_alpha   90.00000000
_cell_angle_beta   90.00000000
_cell_angle_gamma   89.89954214
_symmetry_Int_Tables_number   1
_chemical_formula_structural   Co3Sn
_chemical_formula_sum   'Co24 Sn8'
_cell_volume   422.53614691
_cell_formula_units_Z   8
loop_
 _symmetry_equiv_pos_site_id
 _symmetry_equiv_pos_as_xyz
  1  'x, y, z'
loop_
 _atom_site_type_symbol
 _atom_site_label
 _atom_site_symmetry_multiplicity
 _atom_site_fract_x
 _atom_site_fract_y
 _atom_site_fract_z
 _atom_site_occupancy
  Co  Co0_0  1  0.25000000  0.25000000  0.13905300  1
  Co  Co0_1  1  0.25000000  0.25000000  0.63905300  1
  Co  Co0_2  1  0.25000000  0.75000000  0.13905300  1
  Co  Co0_3  1  0.25000000  0.75000000  0.63905300  1
  Co  Co0_4  1  0.75000000  0.25000000  0.13905300  1
  Co  Co0_5  1  0.75000000  0.25000000  0.63905300  1
  Co  Co0_6  1  0.75000000  0.75000000  0.13905300  1
  Co  Co0_7  1  0.75000000  0.75000000  0.63905300  1
  Co  Co1_0  1  0.00000000  0.00000000  0.25000000  1
  Co  Co1_1  1  0.00000000  0.00000000  0.75000000  1
  Co  Co1_2  1  0.00000000  0.50000000  0.25000000  1
  Co  Co1_3  1  0.00000000  0.50000000  0.75000000  1
  Co  Co1_4  1  0.50000000  0.00000000  0.25000000  1
  Co  Co1_5  1  0.50000000  0.00000000  0.75000000  1
  Co  Co1_6  1  0.50000000  0.50000000  0.25000000  1
  Co  Co1_7  1  0.50000000  0.50000000  0.75000000  1
  Co  Co2_0  1  0.25000000  0.25000000  0.36094700  1
  Co  Co2_1  1  0.25000000  0.25000000  0.86094700  1
  Co  Co2_2  1  0.25000000  0.75000000  0.36094700  1
  Co  Co2_3  1  0.25000000  0.75000000  0.86094700  1
  Co  Co2_4  1  0.75000000  0.25000000  0.36094700  1
  Co  Co2_5  1  0.75000000  0.25000000  0.86094700  1
  Co  Co2_6  1  0.75000000  0.75000000  0.36094700  1
  Co  Co2_7  1  0.75000000  0.75000000  0.86094700  1
  Sn  Sn0_0  1  0.00000000  0.00000000  0.00000000  1
  Sn  Sn0_1  1  0.00000000  0.00000000  0.50000000  1
  Sn  Sn0_2  1  0.00000000  0.50000000  0.00000000  1
  Sn  Sn0_3  1  0.00000000  0.50000000  0.50000000  1
  Sn  Sn0_4  1  0.50000000  0.00000000  0.00000000  1
  Sn  Sn0_5  1  0.50000000  1.00000000  0.50000000  1
  Sn  Sn0_6  1  0.50000000  0.50000000  0.00000000  1
  Sn  Sn0_7  1  0.50000000  0.50000000  0.50000000  1
loop_
_geom_bond_atom_site_label_1
_geom_bond_atom_site_label_2
_geom_bond_distance
_geom_bond_site_symmetry_2
Co0_0 Co1_4 2.494217 1_555
Co0_0 Co1_2 2.494217 1_555
Co0_0 Co1_0 2.497463 1_555
Co0_0 Co1_6 2.497463 1_555
Co0_0 Co2_0 2.535956 1_555
Co0_0 Sn0_4 2.671869 1_555
Co0_0 Sn0_2 2.671869 1_555
Co0_0 Sn0_6 2.674899 1_555
Co0_0 Sn0_0 2.674899 1_555
Co0_1 Co1_3 2.494217 1_555
Co0_1 Co1_5 2.494217 1_555
Co0_1 Co1_1 2.497463 1_555
Co0_1 Co1_7 2.497463 1_555
Co0_1 Co2_1 2.535956 1_555
Co0_1 Sn0_3 2.671869 1_555
Co0_1 Sn0_5 2.671869 1_545
Co0_1 Sn0_1 2.674899 1_555
Co0_1 Sn0_7 2.674899 1_555
Co0_2 Co1_0 2.494217 1_565
Co0_2 Co1_6 2.494217 1_555
Co0_2 Co1_2 2.497463 1_555
Co0_2 Co1_4 2.497463 1_565
Co0_2 Co2_2 2.535956 1_555
Co0_2 Sn0_6 2.671869 1_555
Co0_2 Sn0_0 2.671869 1_565
Co0_2 Sn0_4 2.674899 1_565
Co0_2 Sn0_2 2.674899 1_555
Co0_3 Co1_7 2.494217 1_555
Co0_3 Co1_1 2.494217 1_565
Co0_3 Co1_5 2.497463 1_565
Co0_3 Co1_3 2.497463 1_555
Co0_3 Co2_3 2.535956 1_555
Co0_3 Sn0_7 2.671869 1_555
Co0_3 Sn0_1 2.671869 1_565
Co0_3 Sn0_5 2.674899 1_555
Co0_3 Sn0_3 2.674899 1_555
Co0_4 Co1_6 2.494217 1_555
Co0_4 Co1_0 2.494217 1_655
Co0_4 Co1_4 2.497463 1_555
Co0_4 Co1_2 2.497463 1_655
Co0_4 Co2_4 2.535956 1_555
Co0_4 Sn0_6 2.671869 1_555
Co0_4 Sn0_0 2.671869 1_655
Co0_4 Sn0_4 2.674899 1_555
Co0_4 Sn0_2 2.674899 1_655
Co0_5 Co1_7 2.494217 1_555
Co0_5 Co1_1 2.494217 1_655
Co0_5 Co1_5 2.497463 1_555
Co0_5 Co1_3 2.497463 1_655
Co0_5 Co2_5 2.535956 1_555
Co0_5 Sn0_7 2.671869 1_555
Co0_5 Sn0_1 2.671869 1_655
Co0_5 Sn0_5 2.674899 1_545
Co0_5 Sn0_3 2.674899 1_655
Co0_6 Co1_2 2.494217 1_655
Co0_6 Co1_4 2.494217 1_565
Co0_6 Co1_6 2.497463 1_555
Co0_6 Co1_0 2.497463 1_665
Co0_6 Co2_6 2.535956 1_555
Co0_6 Sn0_2 2.671869 1_655
Co0_6 Sn0_4 2.671869 1_565
Co0_6 Sn0_6 2.674899 1_555
Co0_6 Sn0_0 2.674899 1_665
Co0_7 Co1_3 2.494217 1_655
Co0_7 Co1_5 2.494217 1_565
Co0_7 Co1_7 2.497463 1_555
Co0_7 Co1_1 2.497463 1_665
Co0_7 Co2_7 2.535956 1_555
Co0_7 Sn0_3 2.671869 1_655
Co0_7 Sn0_5 2.671869 1_555
Co0_7 Sn0_7 2.674899 1_555
Co0_7 Sn0_1 2.674899 1_665
Co1_0 Co2_4 2.494217 1_455
Co1_0 Co2_2 2.494217 1_545
Co1_0 Co2_0 2.497463 1_555
Co1_0 Co2_6 2.497463 1_445
Co1_0 Sn0_1 2.857170 1_555
Co1_0 Sn0_0 2.857170 1_555
Co1_1 Co2_5 2.494217 1_455
Co1_1 Co2_3 2.494217 1_545
Co1_1 Co2_1 2.497463 1_555
Co1_1 Co2_7 2.497463 1_445
Co1_1 Sn0_1 2.857170 1_555
Co1_1 Sn0_0 2.857170 1_556
Co1_2 Co2_0 2.494217 1_555
Co1_2 Co2_6 2.494217 1_455
Co1_2 Co2_2 2.497463 1_555
Co1_2 Co2_4 2.497463 1_455
Co1_2 Sn0_2 2.857170 1_555
Co1_2 Sn0_3 2.857170 1_555
Co1_3 Co2_1 2.494217 1_555
Co1_3 Co2_7 2.494217 1_455
Co1_3 Co2_3 2.497463 1_555
Co1_3 Co2_5 2.497463 1_455
Co1_3 Sn0_2 2.857170 1_556
Co1_3 Sn0_3 2.857170 1_555
Co1_4 Co2_0 2.494217 1_555
Co1_4 Co2_6 2.494217 1_545
Co1_4 Co2_4 2.497463 1_555
Co1_4 Co2_2 2.497463 1_545
Co1_4 Sn0_4 2.857170 1_555
Co1_4 Sn0_5 2.857170 1_545
Co1_5 Co2_1 2.494217 1_555
Co1_5 Co2_7 2.494217 1_545
Co1_5 Co2_5 2.497463 1_555
Co1_5 Co2_3 2.497463 1_545
Co1_5 Sn0_5 2.857170 1_545
Co1_5 Sn0_4 2.857170 1_556
Co1_6 Co2_4 2.494217 1_555
Co1_6 Co2_2 2.494217 1_555
Co1_6 Co2_6 2.497463 1_555
Co1_6 Co2_0 2.497463 1_555
Co1_6 Sn0_7 2.857170 1_555
Co1_6 Sn0_6 2.857170 1_555
Co1_7 Co2_5 2.494217 1_555
Co1_7 Co2_3 2.494217 1_555
Co1_7 Co2_7 2.497463 1_555
Co1_7 Co2_1 2.497463 1_555
Co1_7 Sn0_7 2.857170 1_555
Co1_7 Sn0_6 2.857170 1_556
Co2_0 Sn0_3 2.671869 1_555
Co2_0 Sn0_5 2.671869 1_545
Co2_0 Sn0_1 2.674899 1_555
Co2_0 Sn0_7 2.674899 1_555
Co2_1 Sn0_4 2.671869 1_556
Co2_1 Sn0_2 2.671869 1_556
Co2_1 Sn0_6 2.674899 1_556
Co2_1 Sn0_0 2.674899 1_556
Co2_2 Sn0_7 2.671869 1_555
Co2_2 Sn0_1 2.671869 1_565
Co2_2 Sn0_3 2.674899 1_555
Co2_2 Sn0_5 2.674899 1_555
Co2_3 Sn0_0 2.671869 1_566
Co2_3 Sn0_6 2.671869 1_556
Co2_3 Sn0_2 2.674899 1_556
Co2_3 Sn0_4 2.674899 1_566
Co2_4 Sn0_7 2.671869 1_555
Co2_4 Sn0_1 2.671869 1_655
Co2_4 Sn0_3 2.674899 1_655
Co2_4 Sn0_5 2.674899 1_545
Co2_5 Sn0_0 2.671869 1_656
Co2_5 Sn0_6 2.671869 1_556
Co2_5 Sn0_4 2.674899 1_556
Co2_5 Sn0_2 2.674899 1_656
Co2_6 Sn0_3 2.671869 1_655
Co2_6 Sn0_5 2.671869 1_555
Co2_6 Sn0_7 2.674899 1_555
Co2_6 Sn0_1 2.674899 1_665
Co2_7 Sn0_4 2.671869 1_566
Co2_7 Sn0_2 2.671869 1_656
Co2_7 Sn0_6 2.674899 1_556
Co2_7 Sn0_0 2.674899 1_666
Sn0_0 Sn0_4 3.040214 1_555
Sn0_0 Sn0_4 3.040214 1_455
Sn0_0 Sn0_2 3.040214 1_555
Sn0_0 Sn0_2 3.040214 1_545
Sn0_1 Sn0_5 3.040214 1_545
Sn0_1 Sn0_3 3.040214 1_545
Sn0_1 Sn0_5 3.040214 1_445
Sn0_1 Sn0_3 3.040214 1_555
Sn0_2 Sn0_6 3.040214 1_555
Sn0_2 Sn0_6 3.040214 1_455
Sn0_3 Sn0_7 3.040214 1_555
Sn0_3 Sn0_7 3.040214 1_455
Sn0_4 Sn0_6 3.040214 1_555
Sn0_4 Sn0_6 3.040214 1_545
Sn0_5 Sn0_7 3.040214 1_555
Sn0_5 Sn0_7 3.040214 1_565
