# generated using pymatgen
data_Zr6Al7Cu16H3
_symmetry_space_group_name_H-M   'P 1'
_cell_length_a   8.50728816
_cell_length_b   8.50728816
_cell_length_c   8.50728816
_cell_angle_alpha   120.33705754
_cell_angle_beta   120.09317657
_cell_angle_gamma   89.62793902
_symmetry_Int_Tables_number   1
_chemical_formula_structural   Zr6Al7Cu16H3
_chemical_formula_sum   'Zr6 Al7 Cu16 H3'
_cell_volume   433.94193908
_cell_formula_units_Z   1
loop_
 _symmetry_equiv_pos_site_id
 _symmetry_equiv_pos_as_xyz
  1  'x, y, z'
loop_
 _atom_site_type_symbol
 _atom_site_label
 _atom_site_symmetry_multiplicity
 _atom_site_fract_x
 _atom_site_fract_y
 _atom_site_fract_z
 _atom_site_occupancy
  Zr  Zr0  1  0.79725700  0.20357800  0.99936800  1
  Zr  Zr1  1  0.79725700  0.79788900  0.59367900  1
  Zr  Zr2  1  0.78782200  0.78782200  0.00000000  1
  Zr  Zr3  1  0.20421000  0.79788900  0.00063200  1
  Zr  Zr4  1  0.20421000  0.20357800  0.40632100  1
  Zr  Zr5  1  0.20680500  0.20680500  0.00000000  1
  Al  Al0  1  0.49830900  0.49678900  0.49703000  1
  Al  Al1  1  0.49830900  0.00128000  0.00152000  1
  Al  Al2  1  0.50030100  0.00030100  0.50000000  1
  Al  Al3  1  0.99975900  0.00128000  0.50297000  1
  Al  Al4  1  0.99975900  0.49678900  0.99848000  1
  Al  Al5  1  0.99862100  0.49862100  0.50000000  1
  Al  Al6  1  0.50014600  0.50014600  0.00000000  1
  Cu  Cu0  1  0.47028800  0.82240000  0.64788800  1
  Cu  Cu1  1  0.17451300  0.82240000  0.35211200  1
  Cu  Cu2  1  0.16870600  0.82749700  0.65879100  1
  Cu  Cu3  1  0.16870600  0.50991400  0.34120900  1
  Cu  Cu4  1  0.51402000  0.17054700  0.34347300  1
  Cu  Cu5  1  0.82707400  0.17054700  0.65652700  1
  Cu  Cu6  1  0.82927200  0.16902000  0.33974800  1
  Cu  Cu7  1  0.82927200  0.48952500  0.66025200  1
  Cu  Cu8  1  0.85871800  0.61931800  0.23940000  1
  Cu  Cu9  1  0.37991800  0.61931800  0.76060000  1
  Cu  Cu10  1  0.38095600  0.61998500  0.23902900  1
  Cu  Cu11  1  0.38095600  0.14192800  0.76097100  1
  Cu  Cu12  1  0.14205700  0.38072800  0.76132900  1
  Cu  Cu13  1  0.61939900  0.38072800  0.23867100  1
  Cu  Cu14  1  0.61862600  0.37898500  0.76035900  1
  Cu  Cu15  1  0.61862600  0.85826600  0.23964100  1
  H  H0  1  0.03021200  0.03021200  0.00000000  1
  H  H1  1  0.72770400  0.90785800  0.81984700  1
  H  H2  1  0.08801100  0.90785800  0.18015300  1
loop_
_geom_bond_atom_site_label_1
_geom_bond_atom_site_label_2
_geom_bond_distance
_geom_bond_site_symmetry_2
Al0 Cu4 2.436219 1_555
Al0 Cu7 2.454240 1_555
Al0 Cu3 2.459720 1_555
Al0 Cu0 2.466611 1_555
Al0 Cu13 2.632894 1_555
Al0 Cu9 2.649296 1_555
Al0 Cu10 2.650553 1_555
Al0 Cu14 2.650626 1_555
Al1 Cu4 2.436219 1_555
Al1 Cu6 2.454243 1_555
Al1 Cu2 2.459723 1_544
Al1 Cu0 2.466611 1_544
Al1 Cu13 2.632887 1_555
Al1 Cu9 2.649303 1_544
Al1 Cu11 2.650553 1_554
Al1 Cu15 2.650641 1_545
Al2 Cu5 2.447610 1_555
Al2 Cu4 2.447610 1_555
Al2 Cu1 2.487816 1_545
Al2 Cu0 2.487823 1_545
Al2 Cu14 2.625994 1_555
Al2 Cu15 2.625994 1_545
Al2 Cu10 2.637047 1_545
Al2 Cu11 2.637047 1_555
Al3 Cu5 2.436216 1_555
Al3 Cu6 2.454236 1_555
Al3 Cu2 2.459730 1_645
Al3 Cu1 2.466622 1_645
Al3 Cu12 2.632888 1_655
Al3 Cu8 2.649303 1_545
Al3 Cu11 2.650553 1_655
Al3 Cu15 2.650627 1_545
Al4 Cu5 2.436219 1_555
Al4 Cu7 2.454248 1_555
Al4 Cu3 2.459727 1_656
Al4 Cu1 2.466611 1_656
Al4 Cu12 2.632894 1_655
Al4 Cu8 2.649296 1_556
Al4 Cu10 2.650553 1_656
Al4 Cu14 2.650626 1_555
Al5 Cu7 2.453139 1_555
Al5 Cu6 2.453141 1_555
Al5 Cu3 2.453751 1_655
Al5 Cu2 2.453754 1_655
Al5 Cu12 2.636966 1_655
Al5 Cu13 2.636966 1_555
Al5 Cu8 2.650206 1_555
Al5 Cu9 2.650206 1_655
Al5 Zr3 3.051951 1_656
Al5 Zr4 3.051951 1_655
Al5 Zr0 3.051951 1_554
Al5 Zr1 3.051951 1_555
Al6 Cu15 2.481745 1_555
Al6 Cu14 2.481752 1_554
Al6 Cu11 2.482470 1_554
Al6 Cu10 2.482477 1_555
Al6 Cu13 2.487709 1_555
Al6 Cu12 2.487709 1_554
Al6 Cu8 2.491043 1_555
Al6 Cu9 2.491043 1_554
Cu0 H1 1.788298 1_555
Cu0 Cu2 2.612691 1_555
Cu0 Cu3 2.612696 1_555
Cu0 Cu9 2.631606 1_555
Cu0 Cu10 2.637596 1_555
Cu0 Cu11 2.637603 1_565
Cu1 H2 1.788305 1_555
Cu1 Cu2 2.612696 1_555
Cu1 Cu3 2.612700 1_555
Cu1 Cu8 2.631613 1_455
Cu1 Cu10 2.637589 1_555
Cu1 Cu11 2.637599 1_565
Cu2 Cu9 2.657616 1_555
Cu2 Cu8 2.657616 1_455
Cu2 Cu3 2.687990 1_555
Cu2 Zr1 2.910339 1_455
Cu2 Zr3 2.910339 1_556
Cu2 Zr5 2.924346 1_566
Cu3 Cu9 2.657613 1_555
Cu3 Cu8 2.657620 1_455
Cu3 Zr4 2.910331 1_555
Cu3 Zr0 2.910336 1_454
Cu3 Zr5 2.924342 1_555
Cu4 Cu5 2.659489 1_555
Cu4 Cu6 2.697839 1_555
Cu4 Cu7 2.697843 1_555
Cu4 Zr4 2.926296 1_555
Cu4 Zr3 2.926296 1_545
Cu4 Zr5 2.950544 1_555
Cu5 Cu6 2.697839 1_555
Cu5 Cu7 2.697847 1_555
Cu5 Zr0 2.926296 1_555
Cu5 Zr1 2.926296 1_545
Cu5 Zr5 2.950544 1_656
Cu6 Cu7 2.712721 1_555
Cu6 Zr2 2.918795 1_545
Cu6 Zr0 2.934927 1_554
Cu6 Zr4 2.934927 1_655
Cu7 Zr2 2.918791 1_556
Cu7 Zr1 2.934919 1_555
Cu7 Zr3 2.934924 1_656
Cu8 Zr2 2.876256 1_555
Cu8 Zr1 2.934266 1_555
Cu8 Zr0 2.934266 1_554
Cu9 Zr2 2.876256 1_556
Cu9 Zr3 2.934266 1_556
Cu9 Zr4 2.934266 1_555
Cu10 Cu3 2.703927 1_555
Cu10 Cu12 2.864282 1_554
Cu10 Cu13 2.864282 1_555
Cu10 Cu15 2.868705 1_555
Cu10 Zr5 2.917451 1_555
Cu10 Zr1 2.945815 1_555
Cu10 Zr3 2.945815 1_555
Cu11 Cu2 2.703930 1_545
Cu11 Cu12 2.864276 1_555
Cu11 Cu13 2.864282 1_556
Cu11 Cu14 2.868705 1_555
Cu11 Zr5 2.917452 1_556
Cu11 Zr4 2.945809 1_555
Cu11 Zr0 2.945816 1_555
Cu12 Cu6 2.674726 1_455
Cu12 Cu7 2.674730 1_455
Cu12 Cu5 2.688604 1_455
Cu12 Cu9 2.879817 1_555
Cu12 Zr5 2.918567 1_556
Cu12 Zr3 2.943698 1_556
Cu12 Zr4 2.943698 1_555
Cu13 Cu7 2.674723 1_555
Cu13 Cu6 2.674726 1_555
Cu13 Cu4 2.688604 1_555
Cu13 Cu8 2.879817 1_555
Cu13 Zr5 2.918567 1_555
Cu13 Zr1 2.943698 1_555
Cu13 Zr0 2.943698 1_554
Cu14 Cu5 2.648973 1_555
Cu14 Cu4 2.648973 1_555
Cu14 Cu7 2.679992 1_555
Cu14 Cu8 2.872336 1_556
Cu14 Cu9 2.872336 1_555
Cu14 Zr2 2.878306 1_556
Cu14 Zr0 2.933851 1_555
Cu14 Zr4 2.933851 1_555
Cu15 Cu5 2.648976 1_565
Cu15 Cu4 2.648980 1_565
Cu15 Cu6 2.679995 1_565
Cu15 Cu8 2.872330 1_555
Cu15 Cu9 2.872336 1_554
Cu15 Zr2 2.878308 1_555
Cu15 Zr1 2.933846 1_555
Cu15 Zr3 2.933853 1_555
H0 Zr5 2.131499 1_555
H0 Zr4 2.462162 1_555
H0 Zr3 2.462162 1_545
H0 Zr0 2.462162 1_454
H0 Zr1 2.462162 1_444
H1 Zr0 2.059985 1_565
H1 Zr1 2.059992 1_555
H1 Zr2 2.107475 1_556
H2 Zr3 2.059986 1_555
H2 Zr4 2.059986 1_565
H2 Zr2 2.107476 1_455
