# generated using pymatgen
data_La4Fe(NiO5)2
_symmetry_space_group_name_H-M   'P 1'
_cell_length_a   14.43586587
_cell_length_b   14.43586587
_cell_length_c   14.43586587
_cell_angle_alpha   164.45403831
_cell_angle_beta   164.45403831
_cell_angle_gamma   22.05382393
_symmetry_Int_Tables_number   1
_chemical_formula_structural   La4Fe(NiO5)2
_chemical_formula_sum   'La4 Fe1 Ni2 O10'
_cell_volume   216.05250921
_cell_formula_units_Z   1
loop_
 _symmetry_equiv_pos_site_id
 _symmetry_equiv_pos_as_xyz
  1  'x, y, z'
loop_
 _atom_site_type_symbol
 _atom_site_label
 _atom_site_symmetry_multiplicity
 _atom_site_fract_x
 _atom_site_fract_y
 _atom_site_fract_z
 _atom_site_occupancy
  La  La0  1  0.30252700  0.30252700  0.00000000  1
  La  La1  1  0.70096200  0.70096200  0.00000000  1
  La  La2  1  0.43137300  0.43137300  0.00000000  1
  La  La3  1  0.56119500  0.56119500  0.00000000  1
  Fe  Fe0  1  0.13841700  0.13841700  0.00000000  1
  Ni  Ni0  1  0.85968800  0.85968800  0.00000000  1
  Ni  Ni1  1  0.99930400  0.99930400  0.00000000  1
  O  O0  1  0.21711500  0.21711500  0.00000000  1
  O  O1  1  0.78227300  0.78227300  0.00000000  1
  O  O2  1  0.14240400  0.64240400  0.50000000  1
  O  O3  1  0.35964300  0.85964300  0.50000000  1
  O  O4  1  0.85964300  0.35964300  0.50000000  1
  O  O5  1  0.64240400  0.14240400  0.50000000  1
  O  O6  1  0.07021800  0.07021800  0.00000000  1
  O  O7  1  0.93069900  0.93069900  0.00000000  1
  O  O8  1  0.00106700  0.50106700  0.50000000  1
  O  O9  1  0.50106700  0.00106700  0.50000000  1
loop_
_geom_bond_atom_site_label_1
_geom_bond_atom_site_label_2
_geom_bond_distance
_geom_bond_site_symmetry_2
La0 O0 2.420464 1_555
La0 O3 2.536102 1_555
La0 O4 2.536102 1_555
La0 O3 2.536102 1_544
La0 O4 2.536102 1_454
La0 O1 2.820175 1_444
La0 O1 2.820175 1_545
La0 O1 2.820175 1_455
La0 O1 2.820175 1_556
La1 O1 2.304247 1_555
La1 O2 2.562375 1_655
La1 O5 2.562375 1_565
La1 O5 2.562375 1_554
La1 O2 2.562375 1_554
La1 O0 2.798836 1_655
La1 O0 2.798836 1_666
La1 O0 2.798836 1_565
La1 O0 2.798836 1_554
La2 O7 2.761215 1_444
La2 O7 2.761215 1_545
La2 O7 2.761215 1_455
La2 O7 2.761215 1_556
La2 O8 2.777182 1_554
La2 O9 2.777182 1_554
La2 O8 2.777182 1_655
La2 O9 2.777182 1_565
La2 O4 2.818506 1_555
La2 O3 2.818506 1_555
La2 O4 2.818506 1_454
La2 O3 2.818506 1_544
La3 O8 2.591411 1_554
La3 O9 2.591411 1_554
La3 O9 2.591411 1_565
La3 O8 2.591411 1_655
La3 O6 2.772963 1_554
La3 O6 2.772963 1_655
La3 O6 2.772963 1_666
La3 O6 2.772963 1_565
La3 O2 3.017981 1_554
La3 O5 3.017981 1_565
La3 O5 3.017981 1_554
La3 O2 3.017981 1_655
Fe0 O6 1.932670 1_555
Fe0 O5 1.955694 1_555
Fe0 O2 1.955694 1_544
Fe0 O2 1.955694 1_555
Fe0 O5 1.955694 1_454
Fe0 O0 2.230198 1_555
Ni0 O3 1.952427 1_554
Ni0 O4 1.952427 1_554
Ni0 O4 1.952427 1_565
Ni0 O3 1.952427 1_655
Ni0 O7 2.012358 1_555
Ni0 O1 2.193839 1_555
Ni1 O7 1.944176 1_555
Ni1 O8 1.953066 1_665
Ni1 O9 1.953066 1_665
Ni1 O9 1.953066 1_564
Ni1 O8 1.953066 1_654
Ni1 O6 2.009610 1_665
