# generated using pymatgen
data_U2C6NO14
_symmetry_space_group_name_H-M   'P 1'
_cell_length_a   16.22840200
_cell_length_b   9.51644400
_cell_length_c   12.06707261
_cell_angle_alpha   56.38468699
_cell_angle_beta   90.00000000
_cell_angle_gamma   90.00000000
_symmetry_Int_Tables_number   1
_chemical_formula_structural   U2C6NO14
_chemical_formula_sum   'U8 C24 N4 O56'
_cell_volume   1551.95518908
_cell_formula_units_Z   4
loop_
 _symmetry_equiv_pos_site_id
 _symmetry_equiv_pos_as_xyz
  1  'x, y, z'
loop_
 _atom_site_type_symbol
 _atom_site_label
 _atom_site_symmetry_multiplicity
 _atom_site_fract_x
 _atom_site_fract_y
 _atom_site_fract_z
 _atom_site_occupancy
  U  U0  1  0.62767900  0.18134300  0.54722900  1
  U  U1  1  0.87232100  0.18134300  0.04722900  1
  U  U2  1  0.37232100  0.81865700  0.45277100  1
  U  U3  1  0.12767900  0.81865700  0.95277100  1
  U  U4  1  0.62749900  0.77708800  0.94613100  1
  U  U5  1  0.87250100  0.77708800  0.44613100  1
  U  U6  1  0.37250100  0.22291200  0.05386900  1
  U  U7  1  0.12749900  0.22291200  0.55386900  1
  C  C0  1  0.42320200  0.92354000  0.82070800  1
  C  C1  1  0.07679800  0.92354000  0.32070800  1
  C  C2  1  0.57679800  0.07646000  0.17929200  1
  C  C3  1  0.92320200  0.07646000  0.67929200  1
  C  C4  1  0.33131400  0.07545600  0.68040500  1
  C  C5  1  0.16868600  0.07545600  0.18040500  1
  C  C6  1  0.66868600  0.92454400  0.31959500  1
  C  C7  1  0.83131400  0.92454400  0.81959500  1
  C  C8  1  0.42339800  0.07100300  0.67925900  1
  C  C9  1  0.07660200  0.07100300  0.17925900  1
  C  C10  1  0.57660200  0.92899700  0.32074100  1
  C  C11  1  0.92339800  0.92899700  0.82074100  1
  C  C12  1  0.33109700  0.92738900  0.82146200  1
  C  C13  1  0.16890300  0.92738900  0.32146200  1
  C  C14  1  0.66890300  0.07261100  0.17853800  1
  C  C15  1  0.83109700  0.07261100  0.67853800  1
  C  C16  1  0.67693500  0.42829400  0.23111600  1
  C  C17  1  0.82306500  0.42829400  0.73111600  1
  C  C18  1  0.32306500  0.57170600  0.76888400  1
  C  C19  1  0.17693500  0.57170600  0.26888400  1
  C  C20  1  0.58022200  0.42695300  0.23041900  1
  C  C21  1  0.91977800  0.42695300  0.73041900  1
  C  C22  1  0.41977800  0.57304700  0.76958100  1
  C  C23  1  0.08022200  0.57304700  0.26958100  1
  N  N0  1  0.60912000  0.27020000  0.85065900  1
  N  N1  1  0.89088000  0.27020000  0.35065900  1
  N  N2  1  0.39088000  0.72980000  0.14934100  1
  N  N3  1  0.10912000  0.72980000  0.64934100  1
  O  O0  1  0.71032900  0.53913700  0.12268000  1
  O  O1  1  0.78967100  0.53913700  0.62268000  1
  O  O2  1  0.28967100  0.46086300  0.87732000  1
  O  O3  1  0.21032900  0.46086300  0.37732000  1
  O  O4  1  0.54671900  0.53813900  0.12279800  1
  O  O5  1  0.95328100  0.53813900  0.62279800  1
  O  O6  1  0.45328100  0.46186100  0.87720200  1
  O  O7  1  0.04671900  0.46186100  0.37720200  1
  O  O8  1  0.47674200  0.83566600  0.90169000  1
  O  O9  1  0.02325800  0.83566600  0.40169000  1
  O  O10  1  0.52325800  0.16433400  0.09831000  1
  O  O11  1  0.97674200  0.16433400  0.59831000  1
  O  O12  1  0.77789600  0.83566200  0.90004800  1
  O  O13  1  0.72210400  0.83566200  0.40004800  1
  O  O14  1  0.22210400  0.16433800  0.09995200  1
  O  O15  1  0.27789600  0.16433800  0.59995200  1
  O  O16  1  0.62844900  0.68110700  0.85315200  1
  O  O17  1  0.87155100  0.68110700  0.35315200  1
  O  O18  1  0.37155100  0.31889300  0.14684800  1
  O  O19  1  0.12844900  0.31889300  0.64684800  1
  O  O20  1  0.62680600  0.85812000  0.05106100  1
  O  O21  1  0.87319400  0.85812000  0.55106100  1
  O  O22  1  0.37319400  0.14188000  0.94893900  1
  O  O23  1  0.12680600  0.14188000  0.44893900  1
  O  O24  1  0.62635500  0.02484800  0.76186700  1
  O  O25  1  0.87364500  0.02484800  0.26186700  1
  O  O26  1  0.37364500  0.97515200  0.23813300  1
  O  O27  1  0.12635500  0.97515200  0.73813300  1
  O  O28  1  0.71014300  0.31962200  0.34038700  1
  O  O29  1  0.78985700  0.31962200  0.84038700  1
  O  O30  1  0.28985700  0.68037800  0.65961300  1
  O  O31  1  0.21014300  0.68037800  0.15961300  1
  O  O32  1  0.54682900  0.31497200  0.33902700  1
  O  O33  1  0.95317100  0.31497200  0.83902700  1
  O  O34  1  0.45317100  0.68502800  0.66097300  1
  O  O35  1  0.04682900  0.68502800  0.16097300  1
  O  O36  1  0.47706500  0.15389300  0.59703300  1
  O  O37  1  0.02293500  0.15389300  0.09703300  1
  O  O38  1  0.52293500  0.84610700  0.40296700  1
  O  O39  1  0.97706500  0.84610700  0.90296700  1
  O  O40  1  0.77711100  0.15659900  0.59709700  1
  O  O41  1  0.72288900  0.15659900  0.09709700  1
  O  O42  1  0.22288900  0.84340100  0.40290300  1
  O  O43  1  0.27711100  0.84340100  0.90290300  1
  O  O44  1  0.63007900  0.99093700  0.54836100  1
  O  O45  1  0.86992100  0.99093700  0.04836100  1
  O  O46  1  0.36992100  0.00906300  0.45163900  1
  O  O47  1  0.13007900  0.00906300  0.95163900  1
  O  O48  1  0.62509700  0.38260100  0.52939400  1
  O  O49  1  0.87490300  0.38260100  0.02939400  1
  O  O50  1  0.37490300  0.61739900  0.47060600  1
  O  O51  1  0.12509700  0.61739900  0.97060600  1
  O  O52  1  0.38151300  0.38398200  0.36699300  1
  O  O53  1  0.11848700  0.38398200  0.86699300  1
  O  O54  1  0.61848700  0.61601800  0.63300700  1
  O  O55  1  0.88151300  0.61601800  0.13300700  1
loop_
_geom_bond_atom_site_label_1
_geom_bond_atom_site_label_2
_geom_bond_distance
_geom_bond_site_symmetry_2
C0 O8 1.226529 1_555
C1 O9 1.226529 1_555
C2 O10 1.226529 1_555
C3 O11 1.226529 1_555
C4 O15 1.224841 1_555
C5 O14 1.224841 1_555
C6 O13 1.224841 1_555
C7 O12 1.224841 1_555
C8 O36 1.224195 1_555
C9 O37 1.224195 1_555
C10 O38 1.224195 1_555
C11 O39 1.224195 1_555
C12 O43 1.225760 1_555
C13 O42 1.225760 1_555
C14 O41 1.225760 1_555
C15 O40 1.225760 1_555
C16 O28 1.260450 1_555
C16 O0 1.261067 1_555
C17 O29 1.260450 1_555
C17 O1 1.261067 1_555
C18 O30 1.260450 1_555
C18 O2 1.261067 1_555
C19 O31 1.260450 1_555
C19 O3 1.261067 1_555
C20 O4 1.257084 1_555
C20 O32 1.265122 1_555
C21 O5 1.257084 1_555
C21 O33 1.265122 1_555
C22 O6 1.257084 1_555
C22 O34 1.265122 1_555
C23 O7 1.257084 1_555
C23 O35 1.265122 1_555
O0 U4 2.476243 1_554
O1 U5 2.476243 1_555
O2 U6 2.476243 1_556
O3 U7 2.476243 1_555
O4 U4 2.463054 1_554
O5 U5 2.463054 1_555
O6 U6 2.463054 1_556
O7 U7 2.463054 1_555
O8 U4 2.500585 1_555
O9 U5 2.500585 1_455
O10 U6 2.500585 1_555
O11 U7 2.500585 1_655
O12 U4 2.496751 1_555
O13 U5 2.496751 1_555
O14 U6 2.496751 1_555
O15 U7 2.496751 1_555
O16 U4 1.796689 1_555
O17 U5 1.796689 1_555
O18 U6 1.796689 1_555
O19 U7 1.796689 1_555
O20 U4 1.810841 1_554
O21 U5 1.810841 1_555
O22 U6 1.810841 1_556
O23 U7 1.810841 1_555
O24 U0 2.157744 1_555
O24 U4 2.167680 1_545
O25 U1 2.157744 1_555
O25 U5 2.167680 1_545
O26 U2 2.157744 1_555
O26 U6 2.167680 1_565
O27 U3 2.157744 1_555
O27 U7 2.167680 1_565
O28 U0 2.473012 1_555
O29 U1 2.473012 1_556
O30 U2 2.473012 1_555
O31 U3 2.473012 1_554
O32 U0 2.472497 1_555
O33 U1 2.472497 1_556
O34 U2 2.472497 1_555
O35 U3 2.472497 1_554
O36 U0 2.495963 1_555
O37 U1 2.495963 1_455
O38 U2 2.495963 1_555
O39 U3 2.495963 1_655
O40 U0 2.478205 1_555
O41 U1 2.478205 1_555
O42 U2 2.478205 1_555
O43 U3 2.478205 1_555
O44 U0 1.804882 1_565
O45 U1 1.804882 1_565
O46 U2 1.804882 1_545
O47 U3 1.804882 1_545
O48 U0 1.805520 1_555
O49 U1 1.805520 1_555
O50 U2 1.805520 1_555
O51 U3 1.805520 1_555
