# generated using pymatgen
data_Mn4Cr(Co2Si)5
_symmetry_space_group_name_H-M   'P 1'
_cell_length_a   16.45000001
_cell_length_b   16.45000001
_cell_length_c   16.45000057
_cell_angle_alpha   13.92636797
_cell_angle_beta   13.92636797
_cell_angle_gamma   13.92636831
_symmetry_Int_Tables_number   1
_chemical_formula_structural   Mn4Cr(Co2Si)5
_chemical_formula_sum   'Mn4 Cr1 Co10 Si5'
_cell_volume   224.39964154
_cell_formula_units_Z   1
loop_
 _symmetry_equiv_pos_site_id
 _symmetry_equiv_pos_as_xyz
  1  'x, y, z'
loop_
 _atom_site_type_symbol
 _atom_site_label
 _atom_site_symmetry_multiplicity
 _atom_site_fract_x
 _atom_site_fract_y
 _atom_site_fract_z
 _atom_site_occupancy
  Mn  Mn0  1  0.59998900  0.59998900  0.59998900  1
  Mn  Mn1  1  0.19998300  0.19998300  0.19998300  1
  Mn  Mn2  1  0.80001700  0.80001700  0.80001700  1
  Mn  Mn3  1  0.40001100  0.40001100  0.40001100  1
  Cr  Cr0  1  0.00000000  0.00000000  0.00000000  1
  Co  Co0  1  0.05003900  0.05003900  0.05003900  1
  Co  Co1  1  0.85001900  0.85001900  0.85001900  1
  Co  Co2  1  0.44999300  0.44999300  0.44999300  1
  Co  Co3  1  0.64999600  0.64999600  0.64999600  1
  Co  Co4  1  0.25002000  0.25002000  0.25002000  1
  Co  Co5  1  0.35000400  0.35000400  0.35000400  1
  Co  Co6  1  0.14998100  0.14998100  0.14998100  1
  Co  Co7  1  0.74998000  0.74998000  0.74998000  1
  Co  Co8  1  0.94996100  0.94996100  0.94996100  1
  Co  Co9  1  0.55000700  0.55000700  0.55000700  1
  Si  Si0  1  0.69994100  0.69994100  0.69994100  1
  Si  Si1  1  0.50000000  0.50000000  0.50000000  1
  Si  Si2  1  0.10003900  0.10003900  0.10003900  1
  Si  Si3  1  0.30005900  0.30005900  0.30005900  1
  Si  Si4  1  0.89996100  0.89996100  0.89996100  1
loop_
_geom_bond_atom_site_label_1
_geom_bond_atom_site_label_2
_geom_bond_distance
_geom_bond_site_symmetry_2
Mn0 Si4 2.821385 1_545
Mn0 Si4 2.821385 1_455
Mn0 Si4 2.821385 1_554
Mn0 Si3 2.822571 1_565
Mn0 Si3 2.822571 1_655
Mn0 Si3 2.822572 1_556
Mn1 Si4 2.819974 1_454
Mn1 Si4 2.819974 1_544
Mn1 Si4 2.819975 1_445
Mn1 Si1 2.820115 1_455
Mn1 Si1 2.820115 1_545
Mn1 Si1 2.820116 1_554
Mn2 Si2 2.819974 1_656
Mn2 Si2 2.819974 1_566
Mn2 Si2 2.819975 1_665
Mn2 Si1 2.820115 1_655
Mn2 Si1 2.820115 1_565
Mn2 Si1 2.820116 1_556
Mn3 Si2 2.821385 1_565
Mn3 Si2 2.821385 1_655
Mn3 Si2 2.821385 1_556
Mn3 Si0 2.822571 1_455
Mn3 Si0 2.822571 1_545
Mn3 Si0 2.822572 1_554
Cr0 Si0 2.818931 1_454
Cr0 Si0 2.818931 1_544
Cr0 Si3 2.818931 1_455
Cr0 Si3 2.818931 1_545
Cr0 Si0 2.818931 1_445
Cr0 Si3 2.818931 1_554
Co0 Mn3 2.442085 1_554
Co0 Mn3 2.442086 1_545
Co0 Mn3 2.442086 1_455
Co0 Si2 2.443204 1_555
Co0 Si0 2.444142 1_445
Co0 Si0 2.444142 1_544
Co0 Si0 2.444142 1_454
Co0 Cr0 2.445109 1_555
Co1 Si4 2.440370 1_555
Co1 Mn1 2.441955 1_665
Co1 Mn1 2.441955 1_656
Co1 Mn1 2.441955 1_566
Co1 Si1 2.442851 1_556
Co1 Si1 2.442851 1_565
Co1 Si1 2.442851 1_655
Co1 Mn2 2.443301 1_555
Co2 Si2 2.441793 1_556
Co2 Si2 2.441793 1_565
Co2 Si2 2.441793 1_655
Co2 Mn3 2.442324 1_555
Co2 Mn2 2.442932 1_554
Co2 Mn2 2.442933 1_455
Co2 Mn2 2.442933 1_545
Co2 Si1 2.443546 1_555
Co3 Si0 2.440516 1_555
Co3 Si3 2.441516 1_556
Co3 Si3 2.441517 1_565
Co3 Si3 2.441517 1_655
Co3 Cr0 2.442606 1_665
Co3 Cr0 2.442607 1_566
Co3 Cr0 2.442607 1_656
Co3 Mn0 2.443546 1_555
Co4 Mn0 2.442037 1_554
Co4 Mn0 2.442037 1_545
Co4 Mn0 2.442037 1_455
Co4 Si4 2.443504 1_445
Co4 Si4 2.443504 1_454
Co4 Si4 2.443504 1_544
Co4 Mn1 2.445012 1_555
Co4 Si3 2.445109 1_555
Co5 Si3 2.440516 1_555
Co5 Si0 2.441516 1_554
Co5 Si0 2.441517 1_455
Co5 Si0 2.441517 1_545
Co5 Cr0 2.442606 1_556
Co5 Cr0 2.442607 1_655
Co5 Cr0 2.442607 1_565
Co5 Mn3 2.443546 1_555
Co6 Si2 2.440370 1_555
Co6 Mn2 2.441955 1_445
Co6 Mn2 2.441955 1_544
Co6 Mn2 2.441955 1_454
Co6 Si1 2.442851 1_554
Co6 Si1 2.442851 1_455
Co6 Si1 2.442851 1_545
Co6 Mn1 2.443301 1_555
Co7 Mn3 2.442037 1_556
Co7 Mn3 2.442037 1_565
Co7 Mn3 2.442037 1_655
Co7 Si2 2.443504 1_665
Co7 Si2 2.443504 1_656
Co7 Si2 2.443504 1_566
Co7 Mn2 2.445012 1_555
Co7 Si0 2.445109 1_555
Co8 Mn0 2.442085 1_556
Co8 Mn0 2.442086 1_565
Co8 Mn0 2.442086 1_655
Co8 Si4 2.443204 1_555
Co8 Si3 2.444142 1_665
Co8 Si3 2.444142 1_656
Co8 Si3 2.444142 1_566
Co8 Cr0 2.445109 1_666
Co9 Si4 2.441793 1_554
Co9 Si4 2.441793 1_545
Co9 Si4 2.441793 1_455
Co9 Mn0 2.442324 1_555
Co9 Mn1 2.442932 1_556
Co9 Mn1 2.442933 1_655
Co9 Mn1 2.442933 1_565
Co9 Si1 2.443546 1_555
