# generated using pymatgen
data_K2TiGe(PO5)2
_symmetry_space_group_name_H-M   'P 1'
_cell_length_a   6.49447724
_cell_length_b   12.79715842
_cell_length_c   10.44862706
_cell_angle_alpha   90.00000000
_cell_angle_beta   90.00000000
_cell_angle_gamma   90.00000000
_symmetry_Int_Tables_number   1
_chemical_formula_structural   K2TiGe(PO5)2
_chemical_formula_sum   'K8 Ti4 Ge4 P8 O40'
_cell_volume   868.39431908
_cell_formula_units_Z   4
loop_
 _symmetry_equiv_pos_site_id
 _symmetry_equiv_pos_as_xyz
  1  'x, y, z'
loop_
 _atom_site_type_symbol
 _atom_site_label
 _atom_site_symmetry_multiplicity
 _atom_site_fract_x
 _atom_site_fract_y
 _atom_site_fract_z
 _atom_site_occupancy
  K  K0  1  0.80206816  0.89450045  0.41747351  1
  K  K1  1  0.19793184  0.10549955  0.91747351  1
  K  K2  1  0.69793184  0.39450045  0.41747351  1
  K  K3  1  0.30206816  0.60549955  0.91747351  1
  K  K4  1  0.22037104  0.87869450  0.67152255  1
  K  K5  1  0.77962896  0.12130550  0.17152255  1
  K  K6  1  0.27962896  0.37869450  0.67152255  1
  K  K7  1  0.72037104  0.62130550  0.17152255  1
  Ti  Ti0  1  0.50181256  0.86836296  0.97681531  1
  Ti  Ti1  1  0.49818744  0.13163704  0.47681531  1
  Ti  Ti2  1  0.99818744  0.36836296  0.97681531  1
  Ti  Ti3  1  0.00181256  0.63163704  0.47681531  1
  Ge  Ge0  1  0.74377339  0.74572164  0.72768250  1
  Ge  Ge1  1  0.25622661  0.25427836  0.22768250  1
  Ge  Ge2  1  0.75622661  0.24572164  0.72768250  1
  Ge  Ge3  1  0.24377339  0.75427836  0.22768250  1
  P  P0  1  0.99632024  0.81862524  0.97405137  1
  P  P1  1  0.00367976  0.18137476  0.47405137  1
  P  P2  1  0.50367976  0.31862524  0.97405137  1
  P  P3  1  0.49632024  0.68137476  0.47405137  1
  P  P4  1  0.66334292  0.99950466  0.72459355  1
  P  P5  1  0.33665708  0.00049534  0.22459355  1
  P  P6  1  0.83665708  0.49950466  0.72459355  1
  P  P7  1  0.16334292  0.50049534  0.22459355  1
  O  O0  1  0.80625135  0.88720695  0.00221394  1
  O  O1  1  0.19374865  0.11279305  0.50221394  1
  O  O2  1  0.69374865  0.38720695  0.00221394  1
  O  O3  1  0.30625135  0.61279305  0.50221394  1
  O  O4  1  0.80451665  0.90155405  0.70598821  1
  O  O5  1  0.19548335  0.09844595  0.20598821  1
  O  O6  1  0.69548335  0.40155405  0.70598821  1
  O  O7  1  0.30451665  0.59844595  0.20598821  1
  O  O8  1  0.95863623  0.74401579  0.85746276  1
  O  O9  1  0.04136377  0.25598421  0.35746276  1
  O  O10  1  0.54136377  0.24401579  0.85746276  1
  O  O11  1  0.45863623  0.75598421  0.35746276  1
  O  O12  1  0.68628712  0.61302589  0.44359517  1
  O  O13  1  0.31371288  0.38697411  0.94359517  1
  O  O14  1  0.81371288  0.11302589  0.44359517  1
  O  O15  1  0.18628712  0.88697411  0.94359517  1
  O  O16  1  0.69057325  0.59496598  0.74737027  1
  O  O17  1  0.30942675  0.40503402  0.24737027  1
  O  O18  1  0.80942675  0.09496598  0.74737027  1
  O  O19  1  0.19057325  0.90503402  0.24737027  1
  O  O20  1  0.54256727  0.77259625  0.84536515  1
  O  O21  1  0.45743273  0.22740375  0.34536515  1
  O  O22  1  0.95743273  0.27259625  0.84536515  1
  O  O23  1  0.04256727  0.72740375  0.34536515  1
  O  O24  1  0.53885364  0.75526240  0.59020999  1
  O  O25  1  0.46114636  0.24473760  0.09020999  1
  O  O26  1  0.96114636  0.25526240  0.59020999  1
  O  O27  1  0.03885364  0.74473760  0.09020999  1
  O  O28  1  0.51351059  0.98602137  0.83827671  1
  O  O29  1  0.48648941  0.01397863  0.33827671  1
  O  O30  1  0.98648941  0.48602137  0.83827671  1
  O  O31  1  0.01351059  0.51397863  0.33827671  1
  O  O32  1  0.96711769  0.51134883  0.60134053  1
  O  O33  1  0.03288231  0.48865117  0.10134053  1
  O  O34  1  0.53288231  0.01134883  0.60134053  1
  O  O35  1  0.46711769  0.98865117  0.10134053  1
  O  O36  1  0.94332371  0.72588132  0.60393847  1
  O  O37  1  0.05667629  0.27411868  0.10393847  1
  O  O38  1  0.55667629  0.22588132  0.60393847  1
  O  O39  1  0.44332371  0.77411868  0.10393847  1
loop_
_geom_bond_atom_site_label_1
_geom_bond_atom_site_label_2
_geom_bond_distance
_geom_bond_site_symmetry_2
K0 O29 2.687576 1_565
K0 O23 2.753151 1_655
K0 O14 2.810810 1_565
K0 O11 2.917201 1_555
K0 O34 2.997187 1_565
K0 O4 3.015976 1_555
K0 O36 3.048568 1_555
K0 O24 3.058545 1_555
K0 O19 3.089231 1_655
K1 O28 2.687576 1_545
K1 O22 2.753151 1_455
K1 O15 2.810810 1_545
K1 O10 2.917201 1_555
K1 O35 2.997187 1_546
K1 O5 3.015976 1_556
K1 O37 3.048568 1_556
K1 O25 3.058545 1_556
K1 O18 3.089231 1_455
K2 O31 2.687576 1_655
K2 O21 2.753151 1_555
K2 O12 2.810810 1_555
K2 O9 2.917201 1_655
K2 O32 2.997187 1_555
K2 O6 3.015976 1_555
K2 O38 3.048568 1_555
K2 O26 3.058545 1_555
K2 O17 3.089231 1_555
K3 O30 2.687576 1_455
K3 O20 2.753151 1_555
K3 O13 2.810810 1_555
K3 O8 2.917201 1_455
K3 O33 2.997187 1_556
K3 O7 3.015976 1_556
K3 O39 3.048568 1_556
K3 O27 3.058545 1_556
K3 O16 3.089231 1_555
K4 O24 2.737716 1_555
K4 O4 2.740320 1_455
K4 O34 2.745695 1_565
K4 O36 2.749606 1_455
K4 O15 2.853358 1_555
K4 O28 2.923464 1_555
K4 O20 3.085678 1_555
K4 O8 3.103940 1_455
K5 O25 2.737716 1_555
K5 O5 2.740320 1_655
K5 O35 2.745695 1_545
K5 O37 2.749606 1_655
K5 O14 2.853358 1_555
K5 O29 2.923464 1_555
K5 O21 3.085678 1_555
K5 O9 3.103940 1_655
K6 O26 2.737716 1_455
K6 O6 2.740320 1_555
K6 O32 2.745695 1_455
K6 O38 2.749606 1_555
K6 O13 2.853358 1_555
K6 O30 2.923464 1_455
K6 O22 3.085678 1_455
K6 O10 3.103940 1_555
K7 O27 2.737716 1_655
K7 O7 2.740320 1_555
K7 O33 2.745695 1_655
K7 O39 2.749606 1_555
K7 O12 2.853358 1_555
K7 O31 2.923464 1_655
K7 O23 3.085678 1_655
K7 O11 3.103940 1_555
Ge0 O20 1.826962 1_555
Ge0 O36 1.848175 1_555
Ge0 O8 1.945889 1_555
Ge0 O24 1.961964 1_555
Ge0 O16 1.970704 1_555
Ge0 O4 2.045456 1_555
Ge1 O21 1.826962 1_555
Ge1 O37 1.848175 1_555
Ge1 O9 1.945889 1_555
Ge1 O25 1.961964 1_555
Ge1 O17 1.970704 1_555
Ge1 O5 2.045456 1_555
Ge2 O22 1.826962 1_555
Ge2 O38 1.848175 1_555
Ge2 O10 1.945889 1_555
Ge2 O26 1.961964 1_555
Ge2 O18 1.970704 1_555
Ge2 O6 2.045456 1_555
Ge3 O23 1.826962 1_555
Ge3 O39 1.848175 1_555
Ge3 O11 1.945889 1_555
Ge3 O27 1.961964 1_555
Ge3 O19 1.970704 1_555
Ge3 O7 2.045456 1_555
O0 P0 1.542919 1_554
O0 Ti0 2.009424 1_554
O1 P1 1.542919 1_555
O1 Ti1 2.009424 1_555
O2 P2 1.542919 1_554
O2 Ti2 2.009424 1_554
O3 P3 1.542919 1_555
O3 Ti3 2.009424 1_555
O4 P4 1.565133 1_555
O5 P5 1.565133 1_555
O6 P6 1.565133 1_555
O7 P7 1.565133 1_555
O8 P0 1.567006 1_555
O9 P1 1.567006 1_555
O10 P2 1.567006 1_555
O11 P3 1.567006 1_555
O12 P3 1.545452 1_555
O12 Ti3 2.091965 1_655
O13 P2 1.545452 1_555
O13 Ti2 2.091965 1_455
O14 P1 1.545452 1_655
O14 Ti1 2.091965 1_555
O15 P0 1.545452 1_455
O15 Ti0 2.091965 1_555
O16 P6 1.564970 1_555
O17 P7 1.564970 1_555
O18 P4 1.564970 1_545
O19 P5 1.564970 1_565
O20 Ti0 1.859688 1_555
O21 Ti1 1.859688 1_555
O22 Ti2 1.859688 1_555
O23 Ti3 1.859688 1_555
O24 P3 1.563149 1_555
O25 P2 1.563149 1_554
O26 P1 1.563149 1_655
O27 P0 1.563149 1_454
O28 P4 1.545189 1_555
O28 Ti0 2.090036 1_555
O29 P5 1.545189 1_555
O29 Ti1 2.090036 1_555
O30 P6 1.545189 1_555
O30 Ti2 2.090036 1_555
O31 P7 1.545189 1_555
O31 Ti3 2.090036 1_555
O32 P6 1.548980 1_555
O32 Ti3 2.028119 1_655
O33 P7 1.548980 1_555
O33 Ti2 2.028119 1_454
O34 P4 1.548980 1_545
O34 Ti1 2.028119 1_555
O35 P5 1.548980 1_565
O35 Ti0 2.028119 1_554
O36 Ti3 1.833889 1_655
O37 Ti2 1.833889 1_454
O38 Ti1 1.833889 1_555
O39 Ti0 1.833889 1_554
