# generated using pymatgen
data_Nd3GaO6
_symmetry_space_group_name_H-M   'P 1'
_cell_length_a   5.60430283
_cell_length_b   7.38902777
_cell_length_c   7.38902801
_cell_angle_alpha   102.82521732
_cell_angle_beta   90.00000000
_cell_angle_gamma   90.00000000
_symmetry_Int_Tables_number   1
_chemical_formula_structural   Nd3GaO6
_chemical_formula_sum   'Nd6 Ga2 O12'
_cell_volume   298.34850971
_cell_formula_units_Z   2
loop_
 _symmetry_equiv_pos_site_id
 _symmetry_equiv_pos_as_xyz
  1  'x, y, z'
loop_
 _atom_site_type_symbol
 _atom_site_label
 _atom_site_symmetry_multiplicity
 _atom_site_fract_x
 _atom_site_fract_y
 _atom_site_fract_z
 _atom_site_occupancy
  Nd  Nd0  1  0.07507254  0.60410462  0.39589538  1
  Nd  Nd1  1  0.57507254  0.39589538  0.60410462  1
  Nd  Nd2  1  0.03134341  0.08669978  0.29876507  1
  Nd  Nd3  1  0.53134341  0.91330022  0.70123493  1
  Nd  Nd4  1  0.03134341  0.70123493  0.91330022  1
  Nd  Nd5  1  0.53134341  0.29876507  0.08669978  1
  Ga  Ga0  1  0.49730792  0.80801394  0.19198606  1
  Ga  Ga1  1  0.99730792  0.19198606  0.80801394  1
  O  O0  1  0.82349281  0.78473445  0.21526555  1
  O  O1  1  0.32349281  0.21526555  0.78473445  1
  O  O2  1  0.36670715  0.95811730  0.04188270  1
  O  O3  1  0.86670715  0.04188270  0.95811730  1
  O  O4  1  0.30137298  0.32741653  0.35381365  1
  O  O5  1  0.80137298  0.67258347  0.64618635  1
  O  O6  1  0.30137298  0.64618635  0.67258347  1
  O  O7  1  0.80137298  0.35381365  0.32741653  1
  O  O8  1  0.83007339  0.41468059  0.89371806  1
  O  O9  1  0.33007339  0.58531941  0.10628194  1
  O  O10  1  0.83007339  0.10628194  0.58531941  1
  O  O11  1  0.33007339  0.89371806  0.41468059  1
loop_
_geom_bond_atom_site_label_1
_geom_bond_atom_site_label_2
_geom_bond_distance
_geom_bond_site_symmetry_2
Nd0 O4 2.367009 1_555
Nd0 O6 2.367009 1_555
Nd0 O7 2.369329 1_455
Nd0 O5 2.369329 1_455
Nd0 O0 2.518230 1_455
Nd0 O11 2.551306 1_555
Nd0 O9 2.551307 1_555
Nd1 O5 2.367009 1_555
Nd1 O7 2.367009 1_555
Nd1 O6 2.369329 1_555
Nd1 O4 2.369329 1_555
Nd1 O1 2.518230 1_555
Nd1 O10 2.551306 1_555
Nd1 O8 2.551307 1_555
Nd2 O4 2.301751 1_555
Nd2 O7 2.327213 1_455
Nd2 O10 2.374966 1_455
Nd2 O0 2.470787 1_445
Nd2 O11 2.472245 1_545
Nd2 O3 2.631825 1_454
Nd2 O2 2.690229 1_545
Nd3 O5 2.301751 1_555
Nd3 O6 2.327213 1_555
Nd3 O11 2.374966 1_555
Nd3 O1 2.470787 1_565
Nd3 O10 2.472245 1_565
Nd3 O2 2.631825 1_556
Nd3 O3 2.690229 1_565
Nd4 O6 2.301751 1_555
Nd4 O5 2.327213 1_455
Nd4 O8 2.374966 1_455
Nd4 O0 2.470787 1_456
Nd4 O9 2.472245 1_556
Nd4 O3 2.631825 1_465
Nd4 O2 2.690229 1_556
Nd5 O7 2.301751 1_555
Nd5 O4 2.327213 1_555
Nd5 O9 2.374966 1_555
Nd5 O1 2.470787 1_554
Nd5 O8 2.472245 1_554
Nd5 O2 2.631825 1_545
Nd5 O3 2.690229 1_554
Ga0 O0 1.847712 1_555
Ga0 O9 1.877358 1_555
Ga0 O11 1.877358 1_555
Ga0 O2 1.882055 1_555
Ga1 O1 1.847712 1_655
Ga1 O8 1.877358 1_555
Ga1 O10 1.877358 1_555
Ga1 O3 1.882055 1_555
