# generated using pymatgen
data_Li7Mn4CoO12
_symmetry_space_group_name_H-M   'P 1'
_cell_length_a   6.70822177
_cell_length_b   7.75795744
_cell_length_c   8.70525373
_cell_angle_alpha   79.24914633
_cell_angle_beta   102.72062409
_cell_angle_gamma   89.51368818
_symmetry_Int_Tables_number   1
_chemical_formula_structural   Li7Mn4CoO12
_chemical_formula_sum   'Li14 Mn8 Co2 O24'
_cell_volume   433.58220087
_cell_formula_units_Z   2
loop_
 _symmetry_equiv_pos_site_id
 _symmetry_equiv_pos_as_xyz
  1  'x, y, z'
loop_
 _atom_site_type_symbol
 _atom_site_label
 _atom_site_symmetry_multiplicity
 _atom_site_fract_x
 _atom_site_fract_y
 _atom_site_fract_z
 _atom_site_occupancy
  Li  Li0  1  0.25110200  0.25221600  0.83369200  1
  Li  Li1  1  0.74852500  0.74866000  0.82985600  1
  Li  Li2  1  0.37271100  0.88656100  0.91174100  1
  Li  Li3  1  0.87008100  0.37994300  0.90868900  1
  Li  Li4  1  0.62514700  0.11643400  0.74899800  1
  Li  Li5  1  0.13145800  0.61606400  0.75374500  1
  Li  Li6  1  0.62950500  0.13205200  0.07885000  1
  Li  Li7  1  0.11632500  0.62426500  0.07529600  1
  Li  Li8  1  0.37074800  0.86858000  0.58912100  1
  Li  Li9  1  0.86822600  0.36924500  0.59152500  1
  Li  Li10  1  0.63182300  0.13168700  0.42266600  1
  Li  Li11  1  0.13148200  0.62110300  0.42217700  1
  Li  Li12  1  0.37249300  0.87323300  0.25072700  1
  Li  Li13  1  0.86983000  0.37588000  0.24916100  1
  Mn  Mn0  1  0.50450300  0.50143800  0.99832800  1
  Mn  Mn1  1  0.99650200  0.00129900  0.99606800  1
  Mn  Mn2  1  0.00028800  0.99859700  0.66858100  1
  Mn  Mn3  1  0.49997900  0.49896600  0.66697500  1
  Mn  Mn4  1  0.75146600  0.75064800  0.16048900  1
  Mn  Mn5  1  0.24955800  0.25181300  0.16285200  1
  Mn  Mn6  1  0.25012900  0.25043500  0.50513800  1
  Mn  Mn7  1  0.75068800  0.74787400  0.50412000  1
  Co  Co0  1  0.50194900  0.49866400  0.33497400  1
  Co  Co1  1  0.99833500  0.00275200  0.33459400  1
  O  O0  1  0.56101300  0.33658500  0.87320900  1
  O  O1  1  0.06169900  0.83536500  0.87148900  1
  O  O2  1  0.44264100  0.66502800  0.79583100  1
  O  O3  1  0.93741500  0.16415600  0.79697300  1
  O  O4  1  0.28072500  0.06506400  0.04609800  1
  O  O5  1  0.79237100  0.57012900  0.04612400  1
  O  O6  1  0.71394200  0.93133000  0.62163800  1
  O  O7  1  0.21317400  0.43507300  0.62424500  1
  O  O8  1  0.28654400  0.06635600  0.69729000  1
  O  O9  1  0.78895000  0.56128000  0.69774300  1
  O  O10  1  0.70976400  0.93185400  0.97020500  1
  O  O11  1  0.21822200  0.44317300  0.97203000  1
  O  O12  1  0.56322500  0.31980100  0.55442300  1
  O  O13  1  0.06213100  0.83007800  0.54772500  1
  O  O14  1  0.46853600  0.68982800  0.11821700  1
  O  O15  1  0.93569700  0.17024300  0.11800600  1
  O  O16  1  0.28566800  0.06870200  0.36848700  1
  O  O17  1  0.80802900  0.58624000  0.36671800  1
  O  O18  1  0.70823800  0.92464800  0.29178800  1
  O  O19  1  0.19512500  0.41705100  0.29627900  1
  O  O20  1  0.56560500  0.32518100  0.19521300  1
  O  O21  1  0.03918100  0.81718000  0.19331800  1
  O  O22  1  0.43569700  0.67615200  0.46992700  1
  O  O23  1  0.93355500  0.17109700  0.46866300  1
loop_
_geom_bond_atom_site_label_1
_geom_bond_atom_site_label_2
_geom_bond_distance
_geom_bond_site_symmetry_2
Li0 O7 2.055758 1_555
Li0 O8 2.074319 1_555
Li0 O4 2.097195 1_556
Li0 O11 2.114375 1_555
Li0 O0 2.158920 1_555
Li0 O3 2.192383 1_455
Li1 O6 2.049027 1_555
Li1 O9 2.064899 1_555
Li1 O5 2.079824 1_556
Li1 O10 2.088450 1_555
Li1 O2 2.132082 1_555
Li1 O1 2.185628 1_655
Li2 O8 2.074714 1_565
Li2 O1 2.092216 1_555
Li2 O14 2.103430 1_556
Li2 O4 2.138713 1_566
Li2 O2 2.243585 1_555
Li2 O10 2.251257 1_555
Li3 O9 2.056820 1_555
Li3 O0 2.067773 1_555
Li3 O15 2.165482 1_556
Li3 O3 2.177228 1_555
Li3 O5 2.190956 1_556
Li3 O11 2.356276 1_655
Li4 O12 2.052506 1_555
Li4 O3 2.094061 1_555
Li4 O6 2.125208 1_545
Li4 O10 2.134706 1_545
Li4 O8 2.267789 1_555
Li4 O0 2.269946 1_555
Li5 O11 2.073030 1_555
Li5 O2 2.089183 1_555
Li5 O7 2.095841 1_555
Li5 O13 2.167502 1_555
Li5 O1 2.238844 1_555
Li5 O9 2.301726 1_455
Li6 O15 2.040239 1_555
Li6 O20 2.049699 1_555
Li6 O10 2.086781 1_544
Li6 O0 2.121137 1_554
Li6 O18 2.178468 1_545
Li6 O4 2.368053 1_555
Li7 O11 1.993641 1_554
Li7 O21 2.087567 1_555
Li7 O1 2.140933 1_554
Li7 O5 2.185343 1_455
Li7 O19 2.224488 1_555
Li7 O14 2.383953 1_555
Li8 O13 2.056016 1_555
Li8 O22 2.064223 1_555
Li8 O8 2.078098 1_565
Li8 O2 2.123465 1_555
Li8 O16 2.194269 1_565
Li8 O6 2.323956 1_555
Li9 O9 2.018500 1_555
Li9 O12 2.050890 1_555
Li9 O3 2.122698 1_555
Li9 O23 2.123067 1_555
Li9 O17 2.288715 1_555
Li9 O7 2.341055 1_655
Li10 O23 2.012456 1_555
Li10 O6 2.068934 1_545
Li10 O12 2.121941 1_555
Li10 O20 2.205372 1_555
Li10 O18 2.250925 1_545
Li10 O16 2.340130 1_555
Li11 O7 2.022959 1_555
Li11 O22 2.056026 1_555
Li11 O17 2.147460 1_455
Li11 O19 2.175147 1_555
Li11 O13 2.216176 1_555
Li11 O21 2.230825 1_555
Li12 O4 2.068677 1_565
Li12 O16 2.125475 1_565
Li12 O14 2.166633 1_555
Li12 O22 2.168610 1_555
Li12 O21 2.245823 1_555
Li12 O18 2.252422 1_555
Li13 O20 2.049538 1_555
Li13 O5 2.062406 1_555
Li13 O17 2.163535 1_555
Li13 O19 2.167619 1_655
Li13 O23 2.203206 1_555
Li13 O15 2.221169 1_555
Mn0 O0 1.912848 1_555
Mn0 O2 1.929912 1_555
Mn0 O20 1.944760 1_556
Mn0 O11 1.950520 1_555
Mn0 O5 1.983060 1_556
Mn0 O14 1.989340 1_556
Mn1 O3 1.905067 1_555
Mn1 O15 1.926564 1_556
Mn1 O1 1.935132 1_645
Mn1 O4 1.949443 1_656
Mn1 O10 1.978112 1_545
Mn1 O21 1.982987 1_646
Mn2 O13 1.919464 1_555
Mn2 O1 1.931208 1_555
Mn2 O23 1.948822 1_465
Mn2 O3 1.952119 1_465
Mn2 O6 1.969762 1_455
Mn2 O8 1.970030 1_565
Mn3 O12 1.937296 1_555
Mn3 O2 1.945937 1_555
Mn3 O0 1.949749 1_555
Mn3 O22 1.949976 1_555
Mn3 O7 1.963531 1_555
Mn3 O9 1.974516 1_555
Mn4 O5 1.913559 1_555
Mn4 O10 1.928439 1_554
Mn4 O14 1.932016 1_555
Mn4 O17 1.957376 1_555
Mn4 O21 1.975407 1_655
Mn4 O18 1.981831 1_555
Mn5 O4 1.952825 1_555
Mn5 O19 1.964708 1_555
Mn5 O11 1.982026 1_554
Mn5 O16 2.033626 1_555
Mn5 O20 2.171518 1_555
Mn5 O15 2.176828 1_455
Mn6 O8 1.954490 1_555
Mn6 O7 1.962041 1_555
Mn6 O19 1.983020 1_555
Mn6 O16 2.050511 1_555
Mn6 O12 2.143240 1_555
Mn6 O23 2.188078 1_455
Mn7 O6 1.944549 1_555
Mn7 O9 1.973651 1_555
Mn7 O17 1.976121 1_555
Mn7 O18 2.047996 1_555
Mn7 O22 2.160521 1_555
Mn7 O13 2.163180 1_655
Co0 O22 2.072850 1_555
Co0 O20 2.074588 1_555
Co0 O12 2.097482 1_555
Co0 O19 2.132386 1_555
Co0 O14 2.138743 1_555
Co0 O17 2.144215 1_555
Co1 O16 1.971462 1_655
Co1 O23 2.009735 1_555
Co1 O18 2.019394 1_545
Co1 O13 2.033066 1_645
Co1 O15 2.036595 1_555
Co1 O21 2.112457 1_645
