# generated using pymatgen
data_NaTbH2S2O9
_symmetry_space_group_name_H-M   'P 1'
_cell_length_a   6.98052300
_cell_length_b   6.98052253
_cell_length_c   12.79769900
_cell_angle_alpha   90.00000000
_cell_angle_beta   90.00000000
_cell_angle_gamma   119.99999747
_symmetry_Int_Tables_number   1
_chemical_formula_structural   NaTbH2S2O9
_chemical_formula_sum   'Na3 Tb3 H6 S6 O27'
_cell_volume   540.05554549
_cell_formula_units_Z   3
loop_
 _symmetry_equiv_pos_site_id
 _symmetry_equiv_pos_as_xyz
  1  'x, y, z'
loop_
 _atom_site_type_symbol
 _atom_site_label
 _atom_site_symmetry_multiplicity
 _atom_site_fract_x
 _atom_site_fract_y
 _atom_site_fract_z
 _atom_site_occupancy
  Na  Na0  1  0.47229900  0.00000000  0.83333300  1
  Na  Na1  1  0.52770100  0.52770100  0.50000000  1
  Na  Na2  1  0.00000000  0.47229900  0.16666700  1
  Tb  Tb0  1  0.00000000  0.44127700  0.66666700  1
  Tb  Tb1  1  0.44127700  0.00000000  0.33333300  1
  Tb  Tb2  1  0.55872300  0.55872300  0.00000000  1
  H  H0  1  0.89436700  0.96393400  0.70277600  1
  H  H1  1  0.06956800  0.10563300  0.36944300  1
  H  H2  1  0.03606600  0.93043200  0.03611000  1
  H  H3  1  0.10563300  0.06956800  0.63055700  1
  H  H4  1  0.96393400  0.89436700  0.29722400  1
  H  H5  1  0.93043200  0.03606600  0.96389000  1
  S  S0  1  0.98614800  0.44395700  0.42634100  1
  S  S1  1  0.45780900  0.01385200  0.09300800  1
  S  S2  1  0.55604300  0.54219100  0.75967500  1
  S  S3  1  0.01385200  0.45780900  0.90699200  1
  S  S4  1  0.44395700  0.98614800  0.57365900  1
  S  S5  1  0.54219100  0.55604300  0.24032500  1
  O  O0  1  0.12464300  0.38601700  0.49461100  1
  O  O1  1  0.26137300  0.87535700  0.16127800  1
  O  O2  1  0.61398300  0.73862700  0.82794400  1
  O  O3  1  0.87535700  0.26137300  0.83872200  1
  O  O4  1  0.38601700  0.12464300  0.50538900  1
  O  O5  1  0.73862700  0.61398300  0.17205600  1
  O  O6  1  0.86769800  0.51367800  0.50095400  1
  O  O7  1  0.64598100  0.13230200  0.16762000  1
  O  O8  1  0.48632200  0.35401900  0.83428700  1
  O  O9  1  0.13230200  0.64598100  0.83238000  1
  O  O10  1  0.51367800  0.86769800  0.49904600  1
  O  O11  1  0.35401900  0.48632200  0.16571300  1
  O  O12  1  0.00000000  0.09883300  0.66666700  1
  O  O13  1  0.09883300  0.00000000  0.33333300  1
  O  O14  1  0.90116700  0.90116700  0.00000000  1
  O  O15  1  0.12522300  0.62100200  0.35142300  1
  O  O16  1  0.49577800  0.87477700  0.01809000  1
  O  O17  1  0.37899800  0.50422200  0.68475600  1
  O  O18  1  0.87477700  0.49577800  0.98191000  1
  O  O19  1  0.62100200  0.12522300  0.64857700  1
  O  O20  1  0.50422200  0.37899800  0.31524400  1
  O  O21  1  0.82914500  0.24671200  0.36482600  1
  O  O22  1  0.41756600  0.17085500  0.03149200  1
  O  O23  1  0.75328800  0.58243400  0.69815900  1
  O  O24  1  0.17085500  0.41756600  0.96850800  1
  O  O25  1  0.24671200  0.82914500  0.63517400  1
  O  O26  1  0.58243400  0.75328800  0.30184100  1
loop_
_geom_bond_atom_site_label_1
_geom_bond_atom_site_label_2
_geom_bond_distance
_geom_bond_site_symmetry_2
Na0 O8 2.423807 1_555
Na0 O9 2.423811 1_545
Na0 O2 2.473117 1_545
Na0 O3 2.473123 1_555
Na0 O19 2.554380 1_555
Na0 O16 2.554390 1_546
Na0 O25 2.907792 1_545
Na0 O22 2.907794 1_556
Na1 O10 2.423814 1_555
Na1 O6 2.423815 1_555
Na1 O4 2.473124 1_555
Na1 O0 2.473124 1_555
Na1 O20 2.554381 1_555
Na1 O17 2.554381 1_555
Na1 O26 2.907791 1_555
Na1 O23 2.907791 1_555
Na2 O11 2.423808 1_555
Na2 O7 2.423811 1_455
Na2 O5 2.473117 1_455
Na2 O1 2.473123 1_555
Na2 O15 2.554380 1_555
Na2 O18 2.554390 1_454
Na2 O21 2.907792 1_455
Na2 O24 2.907794 1_554
H0 O12 0.974496 1_665
H1 O13 0.974498 1_555
H2 O14 0.974504 1_455
H3 O12 0.974498 1_555
H4 O13 0.974496 1_665
H5 O14 0.974504 1_546
O0 S0 1.500860 1_455
O0 Tb0 2.467774 1_555
O1 S1 1.500864 1_565
O1 Tb1 2.467765 1_565
O2 S2 1.500858 1_555
O2 Tb2 2.467777 1_556
O3 S3 1.500864 1_655
O3 Tb0 2.467765 1_655
O4 S4 1.500860 1_545
O4 Tb1 2.467774 1_555
O5 S5 1.500858 1_555
O5 Tb2 2.467777 1_555
O6 S0 1.494904 1_555
O6 Tb0 2.464277 1_655
O7 S1 1.494900 1_555
O7 Tb1 2.464279 1_555
O8 S2 1.494900 1_555
O8 Tb2 2.464280 1_556
O9 S3 1.494900 1_555
O9 Tb0 2.464279 1_555
O10 S4 1.494903 1_555
O10 Tb1 2.464277 1_565
O11 S5 1.494900 1_555
O11 Tb2 2.464280 1_555
O12 Tb0 2.390438 1_555
O13 Tb1 2.390438 1_555
O14 Tb2 2.390438 1_555
O15 S0 1.479631 1_455
O15 Tb1 2.466464 1_565
O16 S1 1.479627 1_565
O16 Tb2 2.466468 1_555
O17 S2 1.479640 1_555
O17 Tb0 2.466460 1_555
O18 S3 1.479627 1_655
O18 Tb2 2.466468 1_556
O19 S4 1.479631 1_545
O19 Tb0 2.466464 1_655
O20 S5 1.479640 1_555
O20 Tb1 2.466460 1_555
O21 S0 1.485825 1_555
O21 Tb1 2.407525 1_555
O22 S1 1.485836 1_555
O22 Tb2 2.407522 1_555
O23 S2 1.485830 1_555
O23 Tb0 2.407528 1_655
O24 S3 1.485836 1_555
O24 Tb2 2.407522 1_556
O25 S4 1.485825 1_555
O25 Tb0 2.407525 1_555
O26 S5 1.485830 1_555
O26 Tb1 2.407528 1_565
