# generated using pymatgen
data_Li7Mn4CoO12
_symmetry_space_group_name_H-M   'P 1'
_cell_length_a   8.62671700
_cell_length_b   5.21064600
_cell_length_c   5.21497589
_cell_angle_alpha   68.07472008
_cell_angle_beta   90.00000000
_cell_angle_gamma   90.00000000
_symmetry_Int_Tables_number   1
_chemical_formula_structural   Li7Mn4CoO12
_chemical_formula_sum   'Li7 Mn4 Co1 O12'
_cell_volume   217.46215325
_cell_formula_units_Z   1
loop_
 _symmetry_equiv_pos_site_id
 _symmetry_equiv_pos_as_xyz
  1  'x, y, z'
loop_
 _atom_site_type_symbol
 _atom_site_label
 _atom_site_symmetry_multiplicity
 _atom_site_fract_x
 _atom_site_fract_y
 _atom_site_fract_z
 _atom_site_occupancy
  Li  Li0  1  0.17292300  0.50000000  0.00000000  1
  Li  Li1  1  0.33072100  0.50000000  0.50000000  1
  Li  Li2  1  0.49394600  0.50000000  0.00000000  1
  Li  Li3  1  0.66334200  0.50000000  0.50000000  1
  Li  Li4  1  0.83237900  0.50000000  0.00000000  1
  Li  Li5  1  0.00471500  0.50000000  0.50000000  1
  Li  Li6  1  0.33002100  0.00000000  0.00000000  1
  Mn  Mn0  1  0.00762200  0.00000000  0.00000000  1
  Mn  Mn1  1  0.49672100  0.00000000  0.50000000  1
  Mn  Mn2  1  0.66348500  0.00000000  0.00000000  1
  Mn  Mn3  1  0.83317600  0.00000000  0.50000000  1
  Co  Co0  1  0.17265200  0.00000000  0.50000000  1
  O  O0  1  0.15368400  0.23651100  0.76165100  1
  O  O1  1  0.33477800  0.23018300  0.28182600  1
  O  O2  1  0.50670400  0.21508900  0.74101500  1
  O  O3  1  0.66562200  0.23538400  0.27554400  1
  O  O4  1  0.83574400  0.23402100  0.77680900  1
  O  O5  1  0.00261400  0.21021700  0.25060200  1
  O  O6  1  0.15368400  0.76348900  0.23834900  1
  O  O7  1  0.33477800  0.76981700  0.71817400  1
  O  O8  1  0.50670400  0.78491100  0.25898500  1
  O  O9  1  0.66562200  0.76461600  0.72445600  1
  O  O10  1  0.83574400  0.76597900  0.22319100  1
  O  O11  1  0.00261400  0.78978300  0.74939800  1
loop_
_geom_bond_atom_site_label_1
_geom_bond_atom_site_label_2
_geom_bond_distance
_geom_bond_site_symmetry_2
Li0 O1 2.131470 1_555
Li0 O7 2.131470 1_554
Li0 O5 2.161668 1_555
Li0 O11 2.161668 1_554
Li0 O6 2.175313 1_555
Li0 O0 2.175313 1_554
Li1 O7 2.113516 1_555
Li1 O1 2.113516 1_555
Li1 O0 2.163401 1_555
Li1 O6 2.163401 1_555
Li1 O8 2.166804 1_555
Li1 O2 2.166804 1_555
Li2 O1 2.116358 1_555
Li2 O7 2.116358 1_554
Li2 O9 2.163267 1_554
Li2 O3 2.163267 1_555
Li2 O8 2.353200 1_555
Li2 O2 2.353200 1_554
Li3 O8 2.053334 1_555
Li3 O2 2.053334 1_555
Li3 O9 2.115885 1_555
Li3 O3 2.115885 1_555
Li3 O10 2.173132 1_555
Li3 O4 2.173132 1_555
Li4 O10 2.116847 1_555
Li4 O4 2.116847 1_554
Li4 O9 2.134439 1_554
Li4 O3 2.134439 1_555
Li4 O5 2.161234 1_655
Li4 O11 2.161234 1_654
Li5 O0 1.999833 1_555
Li5 O6 1.999833 1_555
Li5 O10 2.152983 1_455
Li5 O4 2.152983 1_455
Li5 O5 2.332052 1_555
Li5 O11 2.332052 1_555
Li6 O6 2.057639 1_545
Li6 O0 2.057639 1_554
Li6 O8 2.067114 1_545
Li6 O2 2.067114 1_554
Li6 O1 2.217374 1_555
Li6 O7 2.217374 1_544
Mn0 O6 1.872830 1_545
Mn0 O0 1.872830 1_554
Mn0 O5 1.994664 1_555
Mn0 O11 1.994664 1_544
Mn0 O4 1.995065 1_454
Mn0 O10 1.995065 1_445
Mn1 O7 1.914600 1_545
Mn1 O1 1.914600 1_555
Mn1 O2 1.973638 1_555
Mn1 O8 1.973638 1_545
Mn1 O3 1.981247 1_555
Mn1 O9 1.981247 1_545
Mn2 O8 1.943982 1_545
Mn2 O2 1.943982 1_554
Mn2 O4 1.997509 1_554
Mn2 O10 1.997509 1_545
Mn2 O3 2.210353 1_555
Mn2 O9 2.210353 1_544
Mn3 O3 1.972717 1_555
Mn3 O9 1.972717 1_545
Mn3 O11 1.990989 1_645
Mn3 O5 1.990989 1_655
Mn3 O4 2.210391 1_555
Mn3 O10 2.210391 1_545
Co0 O7 1.915752 1_545
Co0 O1 1.915752 1_555
Co0 O11 1.994792 1_545
Co0 O5 1.994792 1_555
Co0 O0 2.159442 1_555
Co0 O6 2.159442 1_545
