# generated using pymatgen
data_Mg2Nb3Bi3O14
_symmetry_space_group_name_H-M   'P 1'
_cell_length_a   7.33379116
_cell_length_b   7.33379116
_cell_length_c   7.33379153
_cell_angle_alpha   61.84351957
_cell_angle_beta   61.84351957
_cell_angle_gamma   61.84352084
_symmetry_Int_Tables_number   1
_chemical_formula_structural   Mg2Nb3Bi3O14
_chemical_formula_sum   'Mg2 Nb3 Bi3 O14'
_cell_volume   290.42823987
_cell_formula_units_Z   1
loop_
 _symmetry_equiv_pos_site_id
 _symmetry_equiv_pos_as_xyz
  1  'x, y, z'
loop_
 _atom_site_type_symbol
 _atom_site_label
 _atom_site_symmetry_multiplicity
 _atom_site_fract_x
 _atom_site_fract_y
 _atom_site_fract_z
 _atom_site_occupancy
  Mg  Mg0  1  0.50000000  0.50000000  0.50000000  1
  Mg  Mg1  1  0.00000000  0.00000000  0.00000000  1
  Nb  Nb0  1  0.50000000  0.00000000  0.00000000  1
  Nb  Nb1  1  0.00000000  0.00000000  0.50000000  1
  Nb  Nb2  1  0.00000000  0.50000000  0.00000000  1
  Bi  Bi0  1  0.00000000  0.50000000  0.50000000  1
  Bi  Bi1  1  0.50000000  0.50000000  0.00000000  1
  Bi  Bi2  1  0.50000000  0.00000000  0.50000000  1
  O  O0  1  0.38860600  0.38860600  0.38860600  1
  O  O1  1  0.61139400  0.61139400  0.61139400  1
  O  O2  1  0.92539100  0.31885000  0.31885000  1
  O  O3  1  0.34288900  0.91279200  0.91279200  1
  O  O4  1  0.31885000  0.31885000  0.92539100  1
  O  O5  1  0.91279200  0.91279200  0.34288900  1
  O  O6  1  0.91279200  0.34288900  0.91279200  1
  O  O7  1  0.31885000  0.92539100  0.31885000  1
  O  O8  1  0.07460900  0.68115000  0.68115000  1
  O  O9  1  0.65711100  0.08720800  0.08720800  1
  O  O10  1  0.68115000  0.68115000  0.07460900  1
  O  O11  1  0.08720800  0.08720800  0.65711100  1
  O  O12  1  0.08720800  0.65711100  0.08720800  1
  O  O13  1  0.68115000  0.07460900  0.68115000  1
loop_
_geom_bond_atom_site_label_1
_geom_bond_atom_site_label_2
_geom_bond_distance
_geom_bond_site_symmetry_2
Mg0 O0 1.972752 1_555
Mg0 O1 1.972752 1_555
Mg0 O2 2.665570 1_555
Mg0 O7 2.665570 1_555
Mg0 O13 2.665570 1_555
Mg0 O8 2.665570 1_555
Mg0 O4 2.665570 1_555
Mg0 O10 2.665570 1_555
Mg1 O3 2.119438 1_544
Mg1 O6 2.119438 1_454
Mg1 O9 2.119438 1_455
Mg1 O12 2.119438 1_545
Mg1 O11 2.119438 1_554
Mg1 O5 2.119438 1_445
Nb0 O3 1.980578 1_544
Nb0 O9 1.980578 1_555
Nb0 O10 2.019655 1_545
Nb0 O4 2.019655 1_554
Nb0 O7 2.019655 1_545
Nb0 O13 2.019655 1_554
Nb1 O5 1.980578 1_445
Nb1 O11 1.980578 1_555
Nb1 O8 2.019655 1_545
Nb1 O13 2.019655 1_455
Nb1 O2 2.019655 1_455
Nb1 O7 2.019655 1_545
Nb2 O6 1.980578 1_454
Nb2 O12 1.980578 1_555
Nb2 O10 2.019655 1_455
Nb2 O4 2.019655 1_554
Nb2 O8 2.019655 1_554
Nb2 O2 2.019655 1_455
Bi0 O0 2.385848 1_555
Bi0 O1 2.385848 1_455
Bi0 O11 2.545110 1_555
Bi0 O5 2.545110 1_455
Bi0 O12 2.545110 1_555
Bi0 O6 2.545110 1_455
Bi0 O2 2.620512 1_455
Bi0 O8 2.620512 1_555
Bi1 O0 2.385848 1_555
Bi1 O1 2.385848 1_554
Bi1 O12 2.545110 1_555
Bi1 O3 2.545110 1_554
Bi1 O9 2.545110 1_555
Bi1 O6 2.545110 1_554
Bi1 O4 2.620512 1_554
Bi1 O10 2.620512 1_555
Bi2 O1 2.385848 1_545
Bi2 O0 2.385848 1_555
Bi2 O11 2.545110 1_555
Bi2 O5 2.545110 1_545
Bi2 O9 2.545110 1_555
Bi2 O3 2.545110 1_545
Bi2 O7 2.620512 1_545
Bi2 O13 2.620512 1_555
