# generated using pymatgen
data_Ba7In2(Se3F4)2
_symmetry_space_group_name_H-M   'P 1'
_cell_length_a   12.44535364
_cell_length_b   12.44535364
_cell_length_c   11.15852677
_cell_angle_alpha   73.07244646
_cell_angle_beta   73.07244646
_cell_angle_gamma   20.63942065
_symmetry_Int_Tables_number   1
_chemical_formula_structural   Ba7In2(Se3F4)2
_chemical_formula_sum   'Ba7 In2 Se6 F8'
_cell_volume   581.91375914
_cell_formula_units_Z   1
loop_
 _symmetry_equiv_pos_site_id
 _symmetry_equiv_pos_as_xyz
  1  'x, y, z'
loop_
 _atom_site_type_symbol
 _atom_site_label
 _atom_site_symmetry_multiplicity
 _atom_site_fract_x
 _atom_site_fract_y
 _atom_site_fract_z
 _atom_site_occupancy
  Ba  Ba0  1  0.00000000  0.00000000  0.00000000  1
  Ba  Ba1  1  0.82789700  0.82789700  0.24002900  1
  Ba  Ba2  1  0.17210300  0.17210300  0.75997100  1
  Ba  Ba3  1  0.36502800  0.36502800  0.89857000  1
  Ba  Ba4  1  0.63497200  0.63497200  0.10143000  1
  Ba  Ba5  1  0.54265800  0.54265800  0.64432500  1
  Ba  Ba6  1  0.45734200  0.45734200  0.35567500  1
  In  In0  1  0.82774400  0.82774400  0.62342600  1
  In  In1  1  0.17225600  0.17225600  0.37657400  1
  Se  Se0  1  0.31030300  0.31030300  0.50207900  1
  Se  Se1  1  0.68969700  0.68969700  0.49792100  1
  Se  Se2  1  0.93200100  0.93200100  0.63134900  1
  Se  Se3  1  0.06799900  0.06799900  0.36865100  1
  Se  Se4  1  0.76148900  0.76148900  0.84902200  1
  Se  Se5  1  0.23851100  0.23851100  0.15097800  1
  F  F0  1  0.38381000  0.38381000  0.16646800  1
  F  F1  1  0.61619000  0.61619000  0.83353200  1
  F  F2  1  0.06457800  0.06457800  0.73662000  1
  F  F3  1  0.93542200  0.93542200  0.26338000  1
  F  F4  1  0.88579500  0.88579500  0.99654000  1
  F  F5  1  0.11420500  0.11420500  0.00346000  1
  F  F6  1  0.47636300  0.47636300  0.87818100  1
  F  F7  1  0.52363700  0.52363700  0.12181900  1
loop_
_geom_bond_atom_site_label_1
_geom_bond_atom_site_label_2
_geom_bond_distance
_geom_bond_site_symmetry_2
Ba0 F6 2.760260 1_544
Ba0 F6 2.760260 1_454
Ba0 F7 2.760260 1_545
Ba0 F7 2.760260 1_455
Ba0 F4 2.808327 1_444
Ba0 F5 2.808327 1_555
Ba0 F2 2.896068 1_554
Ba0 F3 2.896068 1_445
Ba1 F0 2.617973 1_565
Ba1 F0 2.617973 1_655
Ba1 F4 2.666846 1_554
Ba1 F3 2.721597 1_555
Ba1 Se5 3.469377 1_655
Ba1 Se5 3.469377 1_565
Ba1 Se0 3.600109 1_565
Ba1 Se0 3.600109 1_655
Ba1 Se1 3.737628 1_555
Ba2 F1 2.617973 1_545
Ba2 F1 2.617973 1_455
Ba2 F5 2.666846 1_556
Ba2 F2 2.721597 1_555
Ba2 Se4 3.469377 1_545
Ba2 Se4 3.469377 1_455
Ba2 Se1 3.600109 1_545
Ba2 Se1 3.600109 1_455
Ba2 Se0 3.737628 1_555
Ba3 F4 2.598711 1_455
Ba3 F4 2.598711 1_545
Ba3 F6 2.667912 1_555
Ba3 F0 3.156191 1_556
Ba3 Se5 3.516584 1_556
Ba3 Se4 3.540417 1_455
Ba3 Se4 3.540417 1_545
Ba3 Se2 3.695512 1_545
Ba3 Se2 3.695512 1_455
Ba4 F5 2.598711 1_565
Ba4 F5 2.598711 1_655
Ba4 F7 2.667912 1_555
Ba4 F1 3.156191 1_554
Ba4 Se4 3.516584 1_554
Ba4 Se5 3.540417 1_565
Ba4 Se5 3.540417 1_655
Ba4 Se3 3.695512 1_655
Ba4 Se3 3.695512 1_565
Ba5 F2 2.578084 1_565
Ba5 F2 2.578084 1_655
Ba5 F6 2.633911 1_555
Ba5 F1 3.154368 1_555
Ba5 Se1 3.485991 1_555
Ba5 Se2 3.544942 1_545
Ba5 Se2 3.544942 1_455
Ba5 Se3 3.699761 1_565
Ba5 Se3 3.699761 1_655
Ba6 F3 2.578084 1_455
Ba6 F3 2.578084 1_545
Ba6 F7 2.633911 1_555
Ba6 F0 3.154368 1_555
Ba6 Se0 3.485991 1_555
Ba6 Se3 3.544942 1_655
Ba6 Se3 3.544942 1_565
Ba6 Se2 3.699761 1_545
Ba6 Se2 3.699761 1_455
In0 Se4 2.559648 1_555
In0 Se2 2.580599 1_555
In0 Se0 2.707158 1_655
In0 Se0 2.707158 1_565
In1 Se5 2.559648 1_555
In1 Se3 2.580599 1_555
In1 Se1 2.707158 1_455
In1 Se1 2.707158 1_545
