# generated using pymatgen
data_K2NaTi2Fe7Si8H4O31
_symmetry_space_group_name_H-M   'P 1'
_cell_length_a   5.45028995
_cell_length_b   11.72230442
_cell_length_c   12.07849702
_cell_angle_alpha   63.93341126
_cell_angle_beta   76.91292089
_cell_angle_gamma   85.69017342
_symmetry_Int_Tables_number   1
_chemical_formula_structural   K2NaTi2Fe7Si8H4O31
_chemical_formula_sum   'K2 Na1 Ti2 Fe7 Si8 H4 O31'
_cell_volume   674.93499866
_cell_formula_units_Z   1
loop_
 _symmetry_equiv_pos_site_id
 _symmetry_equiv_pos_as_xyz
  1  'x, y, z'
loop_
 _atom_site_type_symbol
 _atom_site_label
 _atom_site_symmetry_multiplicity
 _atom_site_fract_x
 _atom_site_fract_y
 _atom_site_fract_z
 _atom_site_occupancy
  K  K0  1  0.37349000  0.00325400  0.25552200  1
  K  K1  1  0.62651000  0.99674600  0.74447800  1
  Na  Na0  1  0.00000000  0.00000000  0.00000000  1
  Ti  Ti0  1  0.49374800  0.82142300  0.07599300  1
  Ti  Ti1  1  0.50625200  0.17857700  0.92400700  1
  Fe  Fe0  1  0.56667200  0.52154900  0.34050300  1
  Fe  Fe1  1  0.43332800  0.47845100  0.65949700  1
  Fe  Fe2  1  0.15407000  0.52398000  0.20146500  1
  Fe  Fe3  1  0.84593000  0.47602000  0.79853500  1
  Fe  Fe4  1  0.70774400  0.51629700  0.06752700  1
  Fe  Fe5  1  0.29225600  0.48370300  0.93247300  1
  Fe  Fe6  1  0.00000000  0.50000000  0.50000000  1
  Si  Si0  1  0.79837400  0.25802600  0.32405500  1
  Si  Si1  1  0.20162600  0.74197400  0.67594500  1
  Si  Si2  1  0.09445200  0.23088200  0.72603000  1
  Si  Si3  1  0.90554800  0.76911800  0.27397000  1
  Si  Si4  1  0.92523100  0.23735100  0.06818800  1
  Si  Si5  1  0.07476900  0.76264900  0.93181200  1
  Si  Si6  1  0.22921500  0.25193500  0.45495000  1
  Si  Si7  1  0.77078500  0.74806500  0.54505000  1
  H  H0  1  0.32770400  0.68831700  0.40494100  1
  H  H1  1  0.67229600  0.31168300  0.59505900  1
  H  H2  1  0.38619600  0.31723600  0.15468200  1
  H  H3  1  0.61380400  0.68276400  0.84531800  1
  O  O0  1  0.85079100  0.19807900  0.22277700  1
  O  O1  1  0.14920900  0.80192100  0.77722300  1
  O  O2  1  0.22219200  0.40652600  0.40031600  1
  O  O3  1  0.77780800  0.59347400  0.59968400  1
  O  O4  1  0.47734900  0.62335900  0.16534300  1
  O  O5  1  0.52265100  0.37664100  0.83465700  1
  O  O6  1  0.09543000  0.38838600  0.66677000  1
  O  O7  1  0.90457000  0.61161400  0.33323000  1
  O  O8  1  0.01355400  0.19871900  0.41110900  1
  O  O9  1  0.98644600  0.80128100  0.58889100  1
  O  O10  1  0.32326900  0.59807400  0.46158100  1
  O  O11  1  0.67673100  0.40192600  0.53841900  1
  O  O12  1  0.70211100  0.17445400  0.04280500  1
  O  O13  1  0.29788900  0.82554600  0.95719500  1
  O  O14  1  0.19246600  0.17227900  0.04473700  1
  O  O15  1  0.80753400  0.82772100  0.95526300  1
  O  O16  1  0.05752800  0.60794600  0.01489700  1
  O  O17  1  0.94247200  0.39205400  0.98510300  1
  O  O18  1  0.18354700  0.82718300  0.19700000  1
  O  O19  1  0.81645300  0.17281700  0.80300000  1
  O  O20  1  0.37387300  0.40872100  0.11693000  1
  O  O21  1  0.62612700  0.59127900  0.88307000  1
  O  O22  1  0.31054900  0.17368400  0.80535400  1
  O  O23  1  0.68945100  0.82631600  0.19464600  1
  O  O24  1  0.81549900  0.41239400  0.25856300  1
  O  O25  1  0.18450100  0.58760600  0.74143700  1
  O  O26  1  0.16161800  0.18739800  0.60822300  1
  O  O27  1  0.83838200  0.81260200  0.39177700  1
  O  O28  1  0.50000000  0.00000000  0.00000000  1
  O  O29  1  0.51170000  0.20451400  0.41079300  1
  O  O30  1  0.48830000  0.79548600  0.58920700  1
loop_
_geom_bond_atom_site_label_1
_geom_bond_atom_site_label_2
_geom_bond_distance
_geom_bond_site_symmetry_2
K0 O12 2.785957 1_555
K0 O18 2.786752 1_545
K0 O14 2.791359 1_555
K0 O23 2.835173 1_545
K1 O13 2.785957 1_555
K1 O19 2.786752 1_565
K1 O15 2.791359 1_555
K1 O22 2.835173 1_565
Na0 O14 2.646679 1_555
Na0 O15 2.646679 1_444
Na0 O22 2.654541 1_554
Na0 O23 2.654541 1_445
Na0 O12 2.671214 1_455
Na0 O13 2.671214 1_544
Na0 O19 2.702528 1_454
Na0 O18 2.702528 1_545
Na0 O28 2.725145 1_455
Na0 O28 2.725145 1_555
Fe0 O4 2.073042 1_555
Fe0 O7 2.156727 1_555
Fe0 O24 2.168011 1_555
Fe0 O2 2.185212 1_555
Fe0 O10 2.190617 1_555
Fe0 O11 2.370186 1_555
Fe1 O5 2.073042 1_555
Fe1 O6 2.156727 1_555
Fe1 O25 2.168011 1_555
Fe1 O3 2.185212 1_555
Fe1 O11 2.190617 1_555
Fe1 O10 2.370186 1_555
Fe2 O4 2.040998 1_555
Fe2 O24 2.141364 1_455
Fe2 O20 2.172182 1_555
Fe2 O16 2.198548 1_555
Fe2 O2 2.285403 1_555
Fe2 O7 2.384153 1_455
Fe3 O5 2.040998 1_555
Fe3 O25 2.141364 1_655
Fe3 O21 2.172182 1_555
Fe3 O17 2.198548 1_555
Fe3 O3 2.285403 1_555
Fe3 O6 2.384153 1_655
Fe4 O16 2.086043 1_655
Fe4 O20 2.109366 1_555
Fe4 O21 2.145535 1_554
Fe4 O4 2.223090 1_555
Fe4 O17 2.272971 1_554
Fe4 O24 2.277923 1_555
Fe5 O17 2.086043 1_455
Fe5 O21 2.109366 1_555
Fe5 O20 2.145535 1_556
Fe5 O5 2.223090 1_555
Fe5 O16 2.272971 1_556
Fe5 O25 2.277923 1_555
Fe6 O7 2.023839 1_455
Fe6 O6 2.023839 1_555
Fe6 O10 2.026500 1_555
Fe6 O11 2.026500 1_455
Fe6 O2 2.101559 1_555
Fe6 O3 2.101559 1_455
H0 O10 0.973658 1_555
H1 O11 0.973658 1_555
H2 O20 0.967367 1_555
H3 O21 0.967367 1_555
O0 Si0 1.624464 1_555
O0 Si4 1.671095 1_555
O1 Si1 1.624464 1_555
O1 Si5 1.671095 1_555
O2 Si6 1.634300 1_555
O3 Si7 1.634300 1_555
O4 Ti0 2.085360 1_555
O5 Ti1 2.085360 1_555
O6 Si2 1.661193 1_555
O7 Si3 1.661193 1_555
O8 Si6 1.653340 1_555
O8 Si0 1.660682 1_455
O9 Si7 1.653340 1_555
O9 Si1 1.660682 1_655
O12 Si4 1.618236 1_555
O12 Ti1 1.955959 1_554
O13 Si5 1.618236 1_555
O13 Ti0 1.955959 1_556
O14 Si4 1.618508 1_455
O14 Ti1 1.962584 1_554
O15 Si5 1.618508 1_655
O15 Ti0 1.962584 1_556
O16 Si5 1.639556 1_554
O17 Si4 1.639556 1_556
O18 Si3 1.607584 1_455
O18 Ti0 1.987388 1_555
O19 Si2 1.607584 1_655
O19 Ti1 1.987388 1_555
O22 Si2 1.607020 1_555
O22 Ti1 1.992143 1_555
O23 Si3 1.607020 1_555
O23 Ti0 1.992143 1_555
O24 Si0 1.625697 1_555
O25 Si1 1.625697 1_555
O26 Si6 1.624056 1_555
O26 Si2 1.670946 1_555
O27 Si7 1.624056 1_555
O27 Si3 1.670946 1_555
O28 Ti1 1.879802 1_554
O28 Ti0 1.879802 1_545
O29 Si6 1.650443 1_555
O29 Si0 1.661568 1_555
O30 Si7 1.650443 1_555
O30 Si1 1.661568 1_555
