# generated using pymatgen
data_Mg6CrCo
_symmetry_space_group_name_H-M   'P 1'
_cell_length_a   4.58944100
_cell_length_b   5.85230300
_cell_length_c   10.83538300
_cell_angle_alpha   90.00000000
_cell_angle_beta   90.00000000
_cell_angle_gamma   90.00000000
_symmetry_Int_Tables_number   1
_chemical_formula_structural   Mg6CrCo
_chemical_formula_sum   'Mg12 Cr2 Co2'
_cell_volume   291.02537769
_cell_formula_units_Z   2
loop_
 _symmetry_equiv_pos_site_id
 _symmetry_equiv_pos_as_xyz
  1  'x, y, z'
loop_
 _atom_site_type_symbol
 _atom_site_label
 _atom_site_symmetry_multiplicity
 _atom_site_fract_x
 _atom_site_fract_y
 _atom_site_fract_z
 _atom_site_occupancy
  Mg  Mg0  1  0.00000000  0.23627000  0.58524600  1
  Mg  Mg1  1  0.00000000  0.76373000  0.58524600  1
  Mg  Mg2  1  0.00000000  0.50000000  0.82843500  1
  Mg  Mg3  1  0.50000000  0.76003400  0.91815900  1
  Mg  Mg4  1  0.50000000  0.23996600  0.91815900  1
  Mg  Mg5  1  0.50000000  0.50000000  0.66986100  1
  Mg  Mg6  1  0.00000000  0.73627000  0.08524600  1
  Mg  Mg7  1  0.00000000  0.26373000  0.08524600  1
  Mg  Mg8  1  0.00000000  0.00000000  0.32843500  1
  Mg  Mg9  1  0.50000000  0.26003400  0.41815900  1
  Mg  Mg10  1  0.50000000  0.73996600  0.41815900  1
  Mg  Mg11  1  0.50000000  0.00000000  0.16986100  1
  Cr  Cr0  1  0.50000000  0.00000000  0.69604600  1
  Cr  Cr1  1  0.50000000  0.50000000  0.19604600  1
  Co  Co0  1  0.00000000  0.00000000  0.79885000  1
  Co  Co1  1  0.00000000  0.50000000  0.29885000  1
loop_
_geom_bond_atom_site_label_1
_geom_bond_atom_site_label_2
_geom_bond_distance
_geom_bond_site_symmetry_2
Mg0 Mg1 2.765447 1_545
Mg0 Mg5 2.913503 1_455
Mg0 Mg5 2.913503 1_555
Mg0 Mg9 2.926229 1_455
Mg0 Mg9 2.926229 1_555
Mg0 Mg2 3.053791 1_555
Mg0 Mg1 3.086856 1_555
Mg0 Mg8 3.107256 1_555
Mg1 Mg5 2.913503 1_455
Mg1 Mg5 2.913503 1_555
Mg1 Mg10 2.926229 1_455
Mg1 Mg10 2.926229 1_555
Mg1 Mg2 3.053791 1_555
Mg1 Mg8 3.107256 1_565
Mg2 Mg5 2.866703 1_455
Mg2 Mg5 2.866703 1_555
Mg2 Mg3 2.920064 1_555
Mg2 Mg3 2.920064 1_455
Mg2 Mg4 2.920064 1_455
Mg2 Mg4 2.920064 1_555
Mg2 Mg7 3.107256 1_556
Mg2 Mg6 3.107256 1_556
Mg3 Mg4 2.808707 1_565
Mg3 Mg6 2.926229 1_656
Mg3 Mg6 2.926229 1_556
Mg3 Mg4 3.043596 1_555
Mg3 Mg5 3.090977 1_555
Mg4 Mg7 2.926229 1_656
Mg4 Mg7 2.926229 1_556
Mg4 Mg5 3.090977 1_555
Mg5 Mg9 3.067622 1_555
Mg6 Mg7 2.765447 1_555
Mg6 Mg8 3.053791 1_565
Mg6 Mg7 3.086856 1_565
Mg7 Mg8 3.053791 1_555
Mg8 Mg9 2.920064 1_455
Mg8 Mg9 2.920064 1_555
Mg10 Mg9 2.808707 1_555
Mg10 Mg8 2.920064 1_665
Mg10 Mg8 2.920064 1_565
Mg10 Mg9 3.043596 1_565
Mg10 Mg5 3.067622 1_555
Mg10 Mg11 3.090977 1_565
Mg11 Mg8 2.866703 1_555
Mg11 Mg8 2.866703 1_655
Mg11 Mg6 2.913503 1_545
Mg11 Mg6 2.913503 1_645
Mg11 Mg7 2.913503 1_655
Mg11 Mg7 2.913503 1_555
Mg11 Mg4 3.067622 1_554
Mg11 Mg3 3.067622 1_544
Mg11 Mg9 3.090977 1_555
Cr0 Mg4 2.786452 1_555
Cr0 Mg3 2.786452 1_545
Cr0 Mg1 2.935815 1_545
Cr0 Mg0 2.935815 1_555
Cr0 Mg1 2.935815 1_645
Cr0 Mg0 2.935815 1_655
Cr0 Mg5 2.939875 1_545
Cr0 Mg5 2.939875 1_555
Cr0 Mg10 3.373731 1_545
Cr0 Mg9 3.373731 1_555
Cr1 Mg9 2.786452 1_555
Cr1 Mg10 2.786452 1_555
Cr1 Mg7 2.935815 1_555
Cr1 Mg7 2.935815 1_655
Cr1 Mg6 2.935815 1_555
Cr1 Mg6 2.935815 1_655
Cr1 Mg11 2.939875 1_555
Cr1 Mg11 2.939875 1_565
Cr1 Mg3 3.373731 1_554
Cr1 Mg4 3.373731 1_554
Co0 Cr0 2.550796 1_555
Co0 Cr0 2.550796 1_455
Co0 Mg1 2.696062 1_545
Co0 Mg0 2.696062 1_555
Co0 Mg2 2.943658 1_555
Co0 Mg2 2.943658 1_545
Co0 Mg4 2.984824 1_455
Co0 Mg4 2.984824 1_555
Co0 Mg3 2.984824 1_545
Co0 Mg3 2.984824 1_445
Co1 Cr1 2.550796 1_455
Co1 Cr1 2.550796 1_555
Co1 Mg6 2.696062 1_555
Co1 Mg7 2.696062 1_555
Co1 Mg8 2.943658 1_565
Co1 Mg8 2.943658 1_555
Co1 Mg9 2.984824 1_455
Co1 Mg10 2.984824 1_455
Co1 Mg10 2.984824 1_555
Co1 Mg9 2.984824 1_555
