# generated using pymatgen
data_Mg4Si7
_symmetry_space_group_name_H-M   'P 1'
_cell_length_a   4.24068800
_cell_length_b   6.75906551
_cell_length_c   14.79324621
_cell_angle_alpha   81.40976297
_cell_angle_beta   81.77950625
_cell_angle_gamma   85.87887986
_symmetry_Int_Tables_number   1
_chemical_formula_structural   Mg4Si7
_chemical_formula_sum   'Mg8 Si14'
_cell_volume   414.40248989
_cell_formula_units_Z   2
loop_
 _symmetry_equiv_pos_site_id
 _symmetry_equiv_pos_as_xyz
  1  'x, y, z'
loop_
 _atom_site_type_symbol
 _atom_site_label
 _atom_site_symmetry_multiplicity
 _atom_site_fract_x
 _atom_site_fract_y
 _atom_site_fract_z
 _atom_site_occupancy
  Mg  Mg0  1  0.00000000  0.00000000  0.00000000  1
  Mg  Mg1  1  0.00000000  0.00000000  0.50000000  1
  Mg  Mg2  1  0.59144700  0.88091000  0.35127200  1
  Mg  Mg3  1  0.40855300  0.11909000  0.64872800  1
  Mg  Mg4  1  0.63531000  0.97830500  0.83793700  1
  Mg  Mg5  1  0.36469000  0.02169500  0.16206300  1
  Mg  Mg6  1  0.51959200  0.32774100  0.42305400  1
  Mg  Mg7  1  0.48040800  0.67225900  0.57694600  1
  Si  Si0  1  0.54295400  0.27988200  0.94022100  1
  Si  Si1  1  0.45704600  0.72011800  0.05977900  1
  Si  Si2  1  0.17690000  0.42866500  0.05395300  1
  Si  Si3  1  0.82310000  0.57133500  0.94604700  1
  Si  Si4  1  0.93240700  0.35589700  0.55545800  1
  Si  Si5  1  0.06759300  0.64410300  0.44454200  1
  Si  Si6  1  0.60340200  0.61857400  0.21439200  1
  Si  Si7  1  0.39659800  0.38142600  0.78560800  1
  Si  Si8  1  0.92927800  0.82739900  0.68221100  1
  Si  Si9  1  0.07072200  0.17260100  0.31778900  1
  Si  Si10  1  0.80706700  0.27531100  0.17883400  1
  Si  Si11  1  0.19293300  0.72468900  0.82116600  1
  Si  Si12  1  0.91057900  0.46666700  0.70290300  1
  Si  Si13  1  0.08942100  0.53333300  0.29709700  1
loop_
_geom_bond_atom_site_label_1
_geom_bond_atom_site_label_2
_geom_bond_distance
_geom_bond_site_symmetry_2
Mg0 Si1 2.753304 1_545
Mg0 Si0 2.753304 1_454
Mg0 Si1 3.034178 1_445
Mg0 Si0 3.034178 1_554
Mg1 Si4 2.639130 1_455
Mg1 Si5 2.639130 1_545
Mg1 Si8 2.756146 1_445
Mg1 Si9 2.756146 1_555
Mg2 Si5 2.866220 1_655
Mg2 Si9 2.873950 1_665
Mg2 Si6 2.877003 1_555
Mg2 Si5 2.894050 1_555
Mg2 Si9 2.898962 1_565
Mg2 Si13 3.160124 1_655
Mg3 Si4 2.866220 1_455
Mg3 Si8 2.873950 1_445
Mg3 Si7 2.877003 1_555
Mg3 Si4 2.894050 1_555
Mg3 Si8 2.898962 1_545
Mg3 Si12 3.160124 1_455
Mg4 Si0 2.689807 1_565
Mg4 Si11 2.691046 1_555
Mg4 Si8 2.756697 1_555
Mg4 Si11 2.822861 1_655
Mg4 Si7 2.871527 1_565
Mg4 Si3 3.081177 1_555
Mg5 Si1 2.689807 1_545
Mg5 Si10 2.691046 1_555
Mg5 Si9 2.756697 1_555
Mg5 Si10 2.822861 1_455
Mg5 Si6 2.871527 1_545
Mg5 Si2 3.081177 1_555
Mg6 Si5 2.790556 1_555
Mg6 Si4 2.842028 1_555
Mg6 Si9 2.842820 1_655
Mg6 Si13 2.926586 1_555
Mg6 Si4 2.953239 1_455
Mg6 Si9 2.961452 1_555
Mg6 Si13 3.108665 1_655
Mg7 Si4 2.790556 1_555
Mg7 Si5 2.842028 1_555
Mg7 Si8 2.842820 1_455
Mg7 Si12 2.926586 1_555
Mg7 Si5 2.953239 1_655
Mg7 Si8 2.961452 1_555
Mg7 Si12 3.108665 1_455
Si0 Si3 2.390790 1_555
Si0 Si2 2.405388 1_556
Si0 Si7 2.442017 1_555
Si1 Si2 2.390790 1_555
Si1 Si3 2.405388 1_554
Si1 Si6 2.442017 1_555
Si2 Si3 2.397117 1_454
Si4 Si5 2.398394 1_655
Si10 Si2 2.404172 1_655
Si10 Si9 2.465135 1_655
Si10 Si6 2.520382 1_555
Si11 Si3 2.404172 1_455
Si11 Si8 2.465135 1_455
Si11 Si7 2.520382 1_555
Si12 Si4 2.397262 1_555
Si12 Si7 2.405611 1_555
Si12 Si8 2.417178 1_555
Si12 Si7 2.533109 1_655
Si13 Si5 2.397262 1_555
Si13 Si6 2.405611 1_555
Si13 Si9 2.417178 1_555
Si13 Si6 2.533109 1_455
