# generated using pymatgen
data_LaGaGe2O7
_symmetry_space_group_name_H-M   'P 1'
_cell_length_a   6.71040000
_cell_length_b   7.43918800
_cell_length_c   13.14344638
_cell_angle_alpha   62.38138280
_cell_angle_beta   90.00000000
_cell_angle_gamma   90.00000000
_symmetry_Int_Tables_number   1
_chemical_formula_structural   LaGaGe2O7
_chemical_formula_sum   'La4 Ga4 Ge8 O28'
_cell_volume   581.35698846
_cell_formula_units_Z   4
loop_
 _symmetry_equiv_pos_site_id
 _symmetry_equiv_pos_as_xyz
  1  'x, y, z'
loop_
 _atom_site_type_symbol
 _atom_site_label
 _atom_site_symmetry_multiplicity
 _atom_site_fract_x
 _atom_site_fract_y
 _atom_site_fract_z
 _atom_site_occupancy
  La  La0  1  0.35317500  0.74097100  0.52504300  1
  La  La1  1  0.64682500  0.25902900  0.47495700  1
  La  La2  1  0.85317500  0.25902900  0.97495700  1
  La  La3  1  0.14682500  0.74097100  0.02504300  1
  Ga  Ga0  1  0.39942900  0.71494000  0.26857800  1
  Ga  Ga1  1  0.60057100  0.28506000  0.73142200  1
  Ga  Ga2  1  0.89942900  0.28506000  0.23142200  1
  Ga  Ga3  1  0.10057100  0.71494000  0.76857800  1
  Ge  Ge0  1  0.65833400  0.71117400  0.04729400  1
  Ge  Ge1  1  0.34166600  0.28882600  0.95270600  1
  Ge  Ge2  1  0.15833400  0.28882600  0.45270600  1
  Ge  Ge3  1  0.84166600  0.71117400  0.54729400  1
  Ge  Ge4  1  0.91070800  0.80074900  0.28249700  1
  Ge  Ge5  1  0.08929200  0.19925100  0.71750300  1
  Ge  Ge6  1  0.41070800  0.19925100  0.21750300  1
  Ge  Ge7  1  0.58929200  0.80074900  0.78249700  1
  O  O0  1  0.37367500  0.93369400  0.30282300  1
  O  O1  1  0.62632500  0.06630600  0.69717700  1
  O  O2  1  0.87367500  0.06630600  0.19717700  1
  O  O3  1  0.12632500  0.93369400  0.80282300  1
  O  O4  1  0.82214300  0.90728600  0.02254200  1
  O  O5  1  0.17785700  0.09271400  0.97745800  1
  O  O6  1  0.32214300  0.09271400  0.47745800  1
  O  O7  1  0.67785700  0.90728600  0.52254200  1
  O  O8  1  0.60880400  0.27521100  0.27801100  1
  O  O9  1  0.39119600  0.72478900  0.72198900  1
  O  O10  1  0.10880400  0.72478900  0.22198900  1
  O  O11  1  0.89119600  0.27521100  0.77801100  1
  O  O12  1  0.99465800  0.74850600  0.42636800  1
  O  O13  1  0.00534200  0.25149400  0.57363200  1
  O  O14  1  0.49465800  0.25149400  0.07363200  1
  O  O15  1  0.50534200  0.74850600  0.92636800  1
  O  O16  1  0.44991600  0.70310100  0.13125600  1
  O  O17  1  0.55008400  0.29689900  0.86874400  1
  O  O18  1  0.94991600  0.29689900  0.36874400  1
  O  O19  1  0.05008400  0.70310100  0.63125600  1
  O  O20  1  0.83657100  0.50942800  0.08250500  1
  O  O21  1  0.16342900  0.49057200  0.91749500  1
  O  O22  1  0.33657100  0.49057200  0.41749500  1
  O  O23  1  0.66342900  0.50942800  0.58250500  1
  O  O24  1  0.68742100  0.65801600  0.31423400  1
  O  O25  1  0.31257900  0.34198400  0.68576600  1
  O  O26  1  0.18742100  0.34198400  0.18576600  1
  O  O27  1  0.81257900  0.65801600  0.81423400  1
loop_
_geom_bond_atom_site_label_1
_geom_bond_atom_site_label_2
_geom_bond_distance
_geom_bond_site_symmetry_2
La0 O6 2.400873 1_565
La0 O19 2.408350 1_555
La0 O7 2.498217 1_555
La0 O9 2.547794 1_555
La0 O23 2.581791 1_555
La0 O0 2.592806 1_555
La0 O12 2.721324 1_455
La0 O25 2.744654 1_555
La0 O22 2.814565 1_555
La1 O7 2.400873 1_545
La1 O18 2.408350 1_555
La1 O6 2.498217 1_555
La1 O8 2.547794 1_555
La1 O22 2.581791 1_555
La1 O1 2.592806 1_555
La1 O13 2.721324 1_655
La1 O24 2.744654 1_555
La1 O23 2.814565 1_555
La2 O4 2.400873 1_546
La2 O17 2.408350 1_555
La2 O5 2.498217 1_655
La2 O11 2.547794 1_555
La2 O21 2.581791 1_655
La2 O2 2.592806 1_556
La2 O14 2.721324 1_556
La2 O27 2.744654 1_555
La2 O20 2.814565 1_556
La3 O5 2.400873 1_564
La3 O16 2.408350 1_555
La3 O4 2.498217 1_455
La3 O10 2.547794 1_555
La3 O20 2.581791 1_455
La3 O3 2.592806 1_554
La3 O15 2.721324 1_554
La3 O26 2.744654 1_555
La3 O21 2.814565 1_554
Ga0 O16 1.878171 1_555
Ga0 O0 1.886756 1_555
Ga0 O22 1.940574 1_555
Ga0 O24 2.009609 1_555
Ga0 O10 2.035203 1_555
Ga1 O17 1.878171 1_555
Ga1 O1 1.886756 1_555
Ga1 O23 1.940574 1_555
Ga1 O25 2.009609 1_555
Ga1 O11 2.035203 1_555
Ga2 O18 1.878171 1_555
Ga2 O2 1.886756 1_555
Ga2 O20 1.940574 1_555
Ga2 O26 2.009609 1_655
Ga2 O8 2.035203 1_555
Ga3 O19 1.878171 1_555
Ga3 O3 1.886756 1_555
Ga3 O21 1.940574 1_555
Ga3 O27 2.009609 1_455
Ga3 O9 2.035203 1_555
Ge0 O4 1.732774 1_555
Ge0 O16 1.765212 1_555
Ge0 O15 1.802221 1_554
Ge0 O20 1.803659 1_555
Ge1 O5 1.732774 1_555
Ge1 O17 1.765212 1_555
Ge1 O14 1.802221 1_556
Ge1 O21 1.803659 1_555
Ge2 O6 1.732774 1_555
Ge2 O18 1.765212 1_455
Ge2 O13 1.802221 1_555
Ge2 O22 1.803659 1_555
Ge3 O7 1.732774 1_555
Ge3 O19 1.765212 1_655
Ge3 O12 1.802221 1_555
Ge3 O23 1.803659 1_555
Ge4 O10 1.770737 1_655
Ge4 O24 1.770829 1_555
Ge4 O2 1.779887 1_565
Ge4 O12 1.833777 1_555
Ge5 O11 1.770737 1_455
Ge5 O25 1.770829 1_555
Ge5 O3 1.779887 1_545
Ge5 O13 1.833777 1_555
Ge6 O8 1.770737 1_555
Ge6 O26 1.770829 1_555
Ge6 O0 1.779887 1_545
Ge6 O14 1.833777 1_555
Ge7 O9 1.770737 1_555
Ge7 O27 1.770829 1_555
Ge7 O1 1.779887 1_565
Ge7 O15 1.833777 1_555
