# generated using pymatgen
data_Ce3Mg
_symmetry_space_group_name_H-M   'P 1'
_cell_length_a   12.98335528
_cell_length_b   12.98335528
_cell_length_c   12.98335528
_cell_angle_alpha   150.95060951
_cell_angle_beta   124.60701202
_cell_angle_gamma   63.75911897
_symmetry_Int_Tables_number   1
_chemical_formula_structural   Ce3Mg
_chemical_formula_sum   'Ce24 Mg8'
_cell_volume   866.53877877
_cell_formula_units_Z   8
loop_
 _symmetry_equiv_pos_site_id
 _symmetry_equiv_pos_as_xyz
  1  'x, y, z'
loop_
 _atom_site_type_symbol
 _atom_site_label
 _atom_site_symmetry_multiplicity
 _atom_site_fract_x
 _atom_site_fract_y
 _atom_site_fract_z
 _atom_site_occupancy
  Ce  Ce0_0  1  0.07637250  0.25000000  0.32637250  1
  Ce  Ce0_1  1  0.07637250  0.25000000  0.82637250  1
  Ce  Ce0_2  1  0.07637250  0.75000000  0.32637250  1
  Ce  Ce0_3  1  0.07637250  0.75000000  0.82637250  1
  Ce  Ce0_4  1  0.57637250  0.25000000  0.32637250  1
  Ce  Ce0_5  1  0.57637250  0.25000000  0.82637250  1
  Ce  Ce0_6  1  0.57637250  0.75000000  0.32637250  1
  Ce  Ce0_7  1  0.57637250  0.75000000  0.82637250  1
  Ce  Ce1_0  1  0.12772250  0.12497150  0.00275100  1
  Ce  Ce1_1  1  0.12772250  0.12497150  0.50275100  1
  Ce  Ce1_2  1  0.12772250  0.62497150  0.00275100  1
  Ce  Ce1_3  1  0.12772250  0.62497150  0.50275100  1
  Ce  Ce1_4  1  0.62772250  0.12497150  0.00275100  1
  Ce  Ce1_5  1  0.62772250  0.12497150  0.50275100  1
  Ce  Ce1_6  1  0.62772250  0.62497150  0.00275100  1
  Ce  Ce1_7  1  0.62772250  0.62497150  0.50275100  1
  Ce  Ce2_0  1  0.37778000  0.37502850  0.00275100  1
  Ce  Ce2_1  1  0.37778000  0.37502850  0.50275100  1
  Ce  Ce2_2  1  0.37778000  0.87502850  0.00275100  1
  Ce  Ce2_3  1  0.37778000  0.87502850  0.50275100  1
  Ce  Ce2_4  1  0.87778000  0.37502850  0.00275100  1
  Ce  Ce2_5  1  0.87778000  0.37502850  0.50275100  1
  Ce  Ce2_6  1  0.87778000  0.87502850  0.00275100  1
  Ce  Ce2_7  1  0.87778000  0.87502850  0.50275100  1
  Mg  Mg0_0  1  0.33479250  0.00000000  0.33479250  1
  Mg  Mg0_1  1  0.33479250  0.00000000  0.83479250  1
  Mg  Mg0_2  1  0.33479250  0.50000000  0.33479250  1
  Mg  Mg0_3  1  0.33479250  0.50000000  0.83479250  1
  Mg  Mg0_4  1  0.83479250  0.00000000  0.33479250  1
  Mg  Mg0_5  1  0.83479250  0.00000000  0.83479250  1
  Mg  Mg0_6  1  0.83479250  0.50000000  0.33479250  1
  Mg  Mg0_7  1  0.83479250  0.50000000  0.83479250  1
loop_
_geom_bond_atom_site_label_1
_geom_bond_atom_site_label_2
_geom_bond_distance
_geom_bond_site_symmetry_2
Ce0_0 Ce0_3 3.256190 1_555
Ce0_0 Ce0_3 3.256190 1_544
Ce0_0 Ce2_5 3.321676 1_455
Ce0_0 Ce2_6 3.321678 1_445
Ce0_0 Ce1_0 3.321682 1_555
Ce0_0 Ce1_3 3.321682 1_555
Ce0_0 Mg0_5 3.339402 1_454
Ce0_0 Mg0_6 3.339402 1_455
Ce0_0 Ce1_1 3.483063 1_555
Ce0_0 Ce2_1 3.483070 1_555
Ce0_0 Mg0_0 3.518248 1_555
Ce0_0 Mg0_3 3.518248 1_555
Ce0_1 Ce0_2 3.256190 1_545
Ce0_1 Ce0_2 3.256190 1_556
Ce0_1 Ce2_4 3.321676 1_456
Ce0_1 Ce2_7 3.321678 1_445
Ce0_1 Ce1_1 3.321682 1_555
Ce0_1 Ce1_2 3.321682 1_556
Ce0_1 Mg0_7 3.339402 1_455
Ce0_1 Mg0_4 3.339402 1_455
Ce0_1 Ce1_0 3.483063 1_556
Ce0_1 Ce2_0 3.483070 1_556
Ce0_1 Mg0_1 3.518248 1_555
Ce0_1 Mg0_2 3.518248 1_556
Ce0_2 Ce2_7 3.321676 1_455
Ce0_2 Ce2_4 3.321678 1_455
Ce0_2 Ce1_1 3.321682 1_565
Ce0_2 Ce1_2 3.321682 1_555
Ce0_2 Mg0_7 3.339402 1_454
Ce0_2 Mg0_4 3.339402 1_465
Ce0_2 Ce1_3 3.483063 1_555
Ce0_2 Ce2_3 3.483070 1_555
Ce0_2 Mg0_2 3.518248 1_555
Ce0_2 Mg0_1 3.518248 1_565
Ce0_3 Ce2_6 3.321676 1_456
Ce0_3 Ce2_5 3.321678 1_455
Ce0_3 Ce1_3 3.321682 1_555
Ce0_3 Ce1_0 3.321682 1_566
Ce0_3 Mg0_5 3.339402 1_465
Ce0_3 Mg0_6 3.339402 1_455
Ce0_3 Ce1_2 3.483063 1_556
Ce0_3 Ce2_2 3.483070 1_556
Ce0_3 Mg0_3 3.518248 1_555
Ce0_3 Mg0_0 3.518248 1_566
Ce0_4 Ce0_7 3.256190 1_555
Ce0_4 Ce0_7 3.256190 1_544
Ce0_4 Ce2_1 3.321676 1_555
Ce0_4 Ce2_2 3.321678 1_545
Ce0_4 Ce1_4 3.321682 1_555
Ce0_4 Ce1_7 3.321682 1_555
Ce0_4 Mg0_2 3.339402 1_555
Ce0_4 Mg0_1 3.339402 1_554
Ce0_4 Ce1_5 3.483063 1_555
Ce0_4 Ce2_5 3.483070 1_555
Ce0_4 Mg0_4 3.518248 1_555
Ce0_4 Mg0_7 3.518248 1_555
Ce0_5 Ce0_6 3.256190 1_556
Ce0_5 Ce0_6 3.256190 1_545
Ce0_5 Ce2_0 3.321676 1_556
Ce0_5 Ce2_3 3.321678 1_545
Ce0_5 Ce1_6 3.321682 1_556
Ce0_5 Ce1_5 3.321682 1_555
Ce0_5 Mg0_3 3.339402 1_555
Ce0_5 Mg0_0 3.339402 1_555
Ce0_5 Ce1_4 3.483063 1_556
Ce0_5 Ce2_4 3.483070 1_556
Ce0_5 Mg0_6 3.518248 1_556
Ce0_5 Mg0_5 3.518248 1_555
Ce0_6 Ce2_3 3.321676 1_555
Ce0_6 Ce2_0 3.321678 1_555
Ce0_6 Ce1_6 3.321682 1_555
Ce0_6 Ce1_5 3.321682 1_565
Ce0_6 Mg0_3 3.339402 1_554
Ce0_6 Mg0_0 3.339402 1_565
Ce0_6 Ce1_7 3.483063 1_555
Ce0_6 Ce2_7 3.483070 1_555
Ce0_6 Mg0_6 3.518248 1_555
Ce0_6 Mg0_5 3.518248 1_565
Ce0_7 Ce2_2 3.321676 1_556
Ce0_7 Ce2_1 3.321678 1_555
Ce0_7 Ce1_4 3.321682 1_566
Ce0_7 Ce1_7 3.321682 1_555
Ce0_7 Mg0_1 3.339402 1_565
Ce0_7 Mg0_2 3.339402 1_555
Ce0_7 Ce1_6 3.483063 1_556
Ce0_7 Ce2_6 3.483070 1_556
Ce0_7 Mg0_4 3.518248 1_566
Ce0_7 Mg0_7 3.518248 1_555
Ce1_0 Ce1_3 3.256190 1_555
Ce1_0 Ce1_3 3.256190 1_544
Ce1_0 Mg0_2 3.351331 1_555
Ce1_0 Mg0_1 3.351331 1_554
Ce1_0 Mg0_5 3.420890 1_454
Ce1_0 Ce2_4 3.428482 1_455
Ce1_0 Ce2_7 3.428483 1_444
Ce1_0 Ce2_1 3.428487 1_555
Ce1_0 Ce2_2 3.428489 1_545
Ce1_1 Ce1_2 3.256190 1_556
Ce1_1 Ce1_2 3.256190 1_545
Ce1_1 Mg0_0 3.351331 1_555
Ce1_1 Mg0_3 3.351331 1_555
Ce1_1 Mg0_4 3.420890 1_455
Ce1_1 Ce2_5 3.428482 1_455
Ce1_1 Ce2_6 3.428483 1_445
Ce1_1 Ce2_0 3.428487 1_556
Ce1_1 Ce2_3 3.428489 1_545
Ce1_2 Mg0_3 3.351331 1_554
Ce1_2 Mg0_0 3.351331 1_565
Ce1_2 Mg0_7 3.420890 1_454
Ce1_2 Ce2_6 3.428482 1_455
Ce1_2 Ce2_5 3.428483 1_454
Ce1_2 Ce2_3 3.428487 1_555
Ce1_2 Ce2_0 3.428489 1_555
Ce1_3 Mg0_2 3.351331 1_555
Ce1_3 Mg0_1 3.351331 1_565
Ce1_3 Mg0_6 3.420890 1_455
Ce1_3 Ce2_7 3.428482 1_455
Ce1_3 Ce2_4 3.428483 1_455
Ce1_3 Ce2_2 3.428487 1_556
Ce1_3 Ce2_1 3.428489 1_555
Ce1_4 Ce1_7 3.256190 1_555
Ce1_4 Ce1_7 3.256190 1_544
Ce1_4 Mg0_6 3.351331 1_555
Ce1_4 Mg0_5 3.351331 1_554
Ce1_4 Mg0_1 3.420890 1_554
Ce1_4 Ce2_0 3.428482 1_555
Ce1_4 Ce2_3 3.428483 1_544
Ce1_4 Ce2_5 3.428487 1_555
Ce1_4 Ce2_6 3.428489 1_545
Ce1_5 Ce1_6 3.256190 1_556
Ce1_5 Ce1_6 3.256190 1_545
Ce1_5 Mg0_7 3.351331 1_555
Ce1_5 Mg0_4 3.351331 1_555
Ce1_5 Mg0_0 3.420890 1_555
Ce1_5 Ce2_1 3.428482 1_555
Ce1_5 Ce2_2 3.428483 1_545
Ce1_5 Ce2_4 3.428487 1_556
Ce1_5 Ce2_7 3.428489 1_545
Ce1_6 Mg0_4 3.351331 1_565
Ce1_6 Mg0_7 3.351331 1_554
Ce1_6 Mg0_3 3.420890 1_554
Ce1_6 Ce2_2 3.428482 1_555
Ce1_6 Ce2_1 3.428483 1_554
Ce1_6 Ce2_7 3.428487 1_555
Ce1_6 Ce2_4 3.428489 1_555
Ce1_7 Mg0_6 3.351331 1_555
Ce1_7 Mg0_5 3.351331 1_565
Ce1_7 Mg0_2 3.420890 1_555
Ce1_7 Ce2_3 3.428482 1_555
Ce1_7 Ce2_0 3.428483 1_555
Ce1_7 Ce2_6 3.428487 1_556
Ce1_7 Ce2_5 3.428489 1_555
Ce2_0 Ce2_3 3.256190 1_544
Ce2_0 Ce2_3 3.256190 1_555
Ce2_0 Mg0_1 3.351333 1_554
Ce2_0 Mg0_2 3.351335 1_555
Ce2_0 Mg0_3 3.420887 1_554
Ce2_1 Ce2_2 3.256190 1_545
Ce2_1 Ce2_2 3.256190 1_556
Ce2_1 Mg0_0 3.351333 1_555
Ce2_1 Mg0_3 3.351335 1_555
Ce2_1 Mg0_2 3.420887 1_555
Ce2_2 Mg0_3 3.351333 1_554
Ce2_2 Mg0_0 3.351335 1_565
Ce2_2 Mg0_1 3.420887 1_564
Ce2_3 Mg0_2 3.351333 1_555
Ce2_3 Mg0_1 3.351335 1_565
Ce2_3 Mg0_0 3.420887 1_565
Ce2_4 Ce2_7 3.256190 1_555
Ce2_4 Ce2_7 3.256190 1_544
Ce2_4 Mg0_5 3.351333 1_554
Ce2_4 Mg0_6 3.351335 1_555
Ce2_4 Mg0_7 3.420887 1_554
Ce2_5 Ce2_6 3.256190 1_556
Ce2_5 Ce2_6 3.256190 1_545
Ce2_5 Mg0_4 3.351333 1_555
Ce2_5 Mg0_7 3.351335 1_555
Ce2_5 Mg0_6 3.420887 1_555
Ce2_6 Mg0_7 3.351333 1_554
Ce2_6 Mg0_4 3.351335 1_565
Ce2_6 Mg0_5 3.420887 1_564
Ce2_7 Mg0_6 3.351333 1_555
Ce2_7 Mg0_5 3.351335 1_565
Ce2_7 Mg0_4 3.420887 1_565
Mg0_0 Mg0_3 3.256190 1_555
Mg0_0 Mg0_3 3.256190 1_544
Mg0_1 Mg0_2 3.256190 1_556
Mg0_1 Mg0_2 3.256190 1_545
Mg0_4 Mg0_7 3.256190 1_544
Mg0_4 Mg0_7 3.256190 1_555
Mg0_5 Mg0_6 3.256190 1_545
Mg0_5 Mg0_6 3.256190 1_556
