# generated using pymatgen
data_Nd(CO3)3
_symmetry_space_group_name_H-M   'P 1'
_cell_length_a   9.22269600
_cell_length_b   11.38956100
_cell_length_c   12.04339987
_cell_angle_alpha   69.27514838
_cell_angle_beta   90.00000000
_cell_angle_gamma   90.00000000
_symmetry_Int_Tables_number   1
_chemical_formula_structural   Nd(CO3)3
_chemical_formula_sum   'Nd4 C12 O36'
_cell_volume   1183.20655289
_cell_formula_units_Z   4
loop_
 _symmetry_equiv_pos_site_id
 _symmetry_equiv_pos_as_xyz
  1  'x, y, z'
loop_
 _atom_site_type_symbol
 _atom_site_label
 _atom_site_symmetry_multiplicity
 _atom_site_fract_x
 _atom_site_fract_y
 _atom_site_fract_z
 _atom_site_occupancy
  Nd  Nd0  1  0.51307200  0.28338700  0.82497800  1
  Nd  Nd1  1  0.01307200  0.21661300  0.17502200  1
  Nd  Nd2  1  0.48692800  0.71661300  0.17502200  1
  Nd  Nd3  1  0.98692800  0.78338700  0.82497800  1
  C  C0  1  0.40038600  0.36309700  0.51245700  1
  C  C1  1  0.90038600  0.13690300  0.48754300  1
  C  C2  1  0.59961400  0.63690300  0.48754300  1
  C  C3  1  0.09961400  0.86309700  0.51245700  1
  C  C4  1  0.42212500  0.99663200  0.97532200  1
  C  C5  1  0.92212500  0.50336800  0.02467800  1
  C  C6  1  0.57787500  0.00336800  0.02467800  1
  C  C7  1  0.07787500  0.49663200  0.97532200  1
  C  C8  1  0.45957200  0.36891900  0.10193300  1
  C  C9  1  0.95957200  0.13108100  0.89806700  1
  C  C10  1  0.54042800  0.63108100  0.89806700  1
  C  C11  1  0.04042800  0.86891900  0.10193300  1
  O  O0  1  0.41682400  0.28715000  0.60805200  1
  O  O1  1  0.91682400  0.21285000  0.39194800  1
  O  O2  1  0.58317600  0.71285000  0.39194800  1
  O  O3  1  0.08317600  0.78715000  0.60805200  1
  O  O4  1  0.38444900  0.43780800  0.41736700  1
  O  O5  1  0.88444900  0.06219200  0.58263300  1
  O  O6  1  0.61555100  0.56219200  0.58263300  1
  O  O7  1  0.11555100  0.93780800  0.41736700  1
  O  O8  1  0.37533000  0.09762200  0.89743000  1
  O  O9  1  0.87533000  0.40237800  0.10257000  1
  O  O10  1  0.62467000  0.90237800  0.10257000  1
  O  O11  1  0.12467000  0.59762200  0.89743000  1
  O  O12  1  0.64326800  0.10657300  0.98295700  1
  O  O13  1  0.14326800  0.39342700  0.01704300  1
  O  O14  1  0.35673200  0.89342700  0.01704300  1
  O  O15  1  0.85673200  0.60657300  0.98295700  1
  O  O16  1  0.49965300  0.31579100  0.03965000  1
  O  O17  1  0.99965300  0.18420900  0.96035000  1
  O  O18  1  0.50034700  0.68420900  0.96035000  1
  O  O19  1  0.00034700  0.81579100  0.03965000  1
  O  O20  1  0.57640100  0.57554400  0.83746900  1
  O  O21  1  0.07640100  0.92445600  0.16253100  1
  O  O22  1  0.42359900  0.42445600  0.16253100  1
  O  O23  1  0.92359900  0.07554400  0.83746900  1
  O  O24  1  0.35575500  0.44083900  0.76904700  1
  O  O25  1  0.85575500  0.05916100  0.23095300  1
  O  O26  1  0.64424500  0.55916100  0.23095300  1
  O  O27  1  0.14424500  0.94083900  0.76904700  1
  O  O28  1  0.71129300  0.29799200  0.69641100  1
  O  O29  1  0.21129300  0.20200800  0.30358900  1
  O  O30  1  0.28870700  0.70200800  0.30358900  1
  O  O31  1  0.78870700  0.79799200  0.69641100  1
  O  O32  1  0.76339900  0.33119500  0.78548100  1
  O  O33  1  0.26339900  0.16880500  0.21451900  1
  O  O34  1  0.23660100  0.66880500  0.21451900  1
  O  O35  1  0.73660100  0.83119500  0.78548100  1
loop_
_geom_bond_atom_site_label_1
_geom_bond_atom_site_label_2
_geom_bond_distance
_geom_bond_site_symmetry_2
Nd0 O24 2.218065 1_555
Nd0 O8 2.354795 1_555
Nd0 O28 2.363247 1_555
Nd0 O32 2.381070 1_555
Nd0 O12 2.530898 1_555
Nd0 O16 2.740630 1_556
Nd0 O0 2.745148 1_555
Nd1 O25 2.218065 1_455
Nd1 O9 2.354795 1_455
Nd1 O29 2.363247 1_555
Nd1 O33 2.381070 1_555
Nd1 O13 2.530898 1_555
Nd1 O17 2.740630 1_454
Nd1 O1 2.745148 1_455
Nd2 O26 2.218065 1_555
Nd2 O10 2.354795 1_555
Nd2 O30 2.363247 1_555
Nd2 O34 2.381070 1_555
Nd2 O14 2.530898 1_555
Nd2 O18 2.740630 1_554
Nd2 O2 2.745148 1_555
Nd3 O27 2.218065 1_655
Nd3 O11 2.354795 1_655
Nd3 O31 2.363247 1_555
Nd3 O35 2.381070 1_555
Nd3 O15 2.530898 1_555
Nd3 O19 2.740630 1_656
Nd3 O3 2.745148 1_655
C0 O4 1.169390 1_555
C0 O0 1.179764 1_555
C1 O5 1.169390 1_555
C1 O1 1.179764 1_555
C2 O6 1.169390 1_555
C2 O2 1.179764 1_555
C3 O7 1.169390 1_555
C3 O3 1.179764 1_555
C4 O14 1.256934 1_556
C4 O8 1.274994 1_565
C5 O15 1.256934 1_554
C5 O9 1.274994 1_555
C6 O12 1.256934 1_554
C6 O10 1.274994 1_545
C7 O13 1.256934 1_556
C7 O11 1.274994 1_555
C8 O22 1.170266 1_555
C8 O16 1.177578 1_555
C9 O23 1.170266 1_555
C9 O17 1.177578 1_555
C10 O20 1.170266 1_555
C10 O18 1.177578 1_555
C11 O21 1.170266 1_555
C11 O19 1.177578 1_555
O28 O32 1.346015 1_555
O29 O33 1.346015 1_555
O30 O34 1.346015 1_555
O31 O35 1.346015 1_555
