# generated using pymatgen
data_BaPrInWO6
_symmetry_space_group_name_H-M   'P 1'
_cell_length_a   8.65119697
_cell_length_b   8.67628111
_cell_length_c   8.64747372
_cell_angle_alpha   90.00000000
_cell_angle_beta   90.00000000
_cell_angle_gamma   90.00000000
_symmetry_Int_Tables_number   1
_chemical_formula_structural   BaPrInWO6
_chemical_formula_sum   'Ba4 Pr4 In4 W4 O24'
_cell_volume   649.08125263
_cell_formula_units_Z   4
loop_
 _symmetry_equiv_pos_site_id
 _symmetry_equiv_pos_as_xyz
  1  'x, y, z'
loop_
 _atom_site_type_symbol
 _atom_site_label
 _atom_site_symmetry_multiplicity
 _atom_site_fract_x
 _atom_site_fract_y
 _atom_site_fract_z
 _atom_site_occupancy
  Ba  Ba0  1  -0.00000000  -0.00000000  0.00000000  1
  Ba  Ba1  1  0.50000000  0.50000000  0.50000000  1
  Ba  Ba2  1  0.50000000  0.00000000  0.50000000  1
  Ba  Ba3  1  -0.00000000  0.50000000  0.00000000  1
  Pr  Pr0  1  0.75000000  0.75000000  0.75000000  1
  Pr  Pr1  1  0.25000000  0.25000000  0.75000000  1
  Pr  Pr2  1  0.25000000  0.75000000  0.25000000  1
  Pr  Pr3  1  0.75000000  0.25000000  0.25000000  1
  In  In0  1  -0.00000000  0.50000000  0.50000000  1
  In  In1  1  0.50000000  0.50000000  0.00000000  1
  In  In2  1  0.50000000  -0.00000000  0.00000000  1
  In  In3  1  -0.00000000  0.00000000  0.50000000  1
  W  W0  1  0.25000000  0.25000000  0.25000000  1
  W  W1  1  0.75000000  0.75000000  0.25000000  1
  W  W2  1  0.75000000  0.25000000  0.75000000  1
  W  W3  1  0.25000000  0.75000000  0.75000000  1
  O  O0  1  0.02487271  0.22459748  0.26165918  1
  O  O1  1  0.97512729  0.77540252  0.26165918  1
  O  O2  1  0.97512729  0.22459748  0.73834082  1
  O  O3  1  0.02487271  0.77540252  0.73834082  1
  O  O4  1  0.27356767  0.02491359  0.23715042  1
  O  O5  1  0.27356767  0.97508641  0.76284958  1
  O  O6  1  0.72643233  0.97508641  0.23715042  1
  O  O7  1  0.72643233  0.02491359  0.76284958  1
  O  O8  1  0.22234014  0.26050762  0.02378080  1
  O  O9  1  0.77765986  0.26050762  0.97621920  1
  O  O10  1  0.22234014  0.73949238  0.97621920  1
  O  O11  1  0.77765986  0.73949238  0.02378080  1
  O  O12  1  0.47512729  0.27540252  0.23834082  1
  O  O13  1  0.52487271  0.72459748  0.23834082  1
  O  O14  1  0.52487271  0.27540252  0.76165918  1
  O  O15  1  0.47512729  0.72459748  0.76165918  1
  O  O16  1  0.22643233  0.47508641  0.26284958  1
  O  O17  1  0.22643233  0.52491359  0.73715042  1
  O  O18  1  0.77356767  0.52491359  0.26284958  1
  O  O19  1  0.77356767  0.47508641  0.73715042  1
  O  O20  1  0.27765986  0.23949238  0.47621920  1
  O  O21  1  0.72234014  0.23949238  0.52378080  1
  O  O22  1  0.27765986  0.76050762  0.52378080  1
  O  O23  1  0.72234014  0.76050762  0.47621920  1
loop_
_geom_bond_atom_site_label_1
_geom_bond_atom_site_label_2
_geom_bond_distance
_geom_bond_site_symmetry_2
Ba0 O8 2.975037 1_555
Ba0 O9 2.975037 1_454
Ba0 O10 2.975037 1_544
Ba0 O11 2.975037 1_445
Ba0 O0 2.993892 1_555
Ba0 O2 2.993892 1_454
Ba0 O3 2.993892 1_544
Ba0 O1 2.993892 1_445
Ba0 O5 3.139032 1_544
Ba0 O4 3.139032 1_555
Ba0 O7 3.139032 1_454
Ba0 O6 3.139032 1_445
Ba1 O20 2.975037 1_555
Ba1 O21 2.975037 1_555
Ba1 O23 2.975037 1_555
Ba1 O22 2.975037 1_555
Ba1 O14 2.993892 1_555
Ba1 O15 2.993892 1_555
Ba1 O13 2.993892 1_555
Ba1 O12 2.993892 1_555
Ba1 O17 3.139032 1_555
Ba1 O18 3.139032 1_555
Ba1 O19 3.139032 1_555
Ba1 O16 3.139032 1_555
Ba2 O23 2.838988 1_545
Ba2 O22 2.838988 1_545
Ba2 O20 2.838988 1_555
Ba2 O21 2.838988 1_555
Ba2 O7 3.008407 1_555
Ba2 O6 3.008407 1_545
Ba2 O4 3.008407 1_555
Ba2 O5 3.008407 1_545
Ba2 O15 3.297823 1_545
Ba2 O13 3.297823 1_545
Ba2 O14 3.297823 1_555
Ba2 O12 3.297823 1_555
Ba3 O10 2.838988 1_554
Ba3 O11 2.838988 1_455
Ba3 O8 2.838988 1_555
Ba3 O9 2.838988 1_454
Ba3 O19 3.008407 1_454
Ba3 O16 3.008407 1_555
Ba3 O17 3.008407 1_554
Ba3 O18 3.008407 1_455
Ba3 O0 3.297823 1_555
Ba3 O1 3.297823 1_455
Ba3 O3 3.297823 1_554
Ba3 O2 3.297823 1_454
In0 O18 2.844229 1_455
In0 O19 2.844229 1_455
In0 O17 2.844229 1_555
In0 O16 2.844229 1_555
In1 O12 2.844562 1_555
In1 O14 2.844562 1_554
In1 O15 2.844562 1_554
In1 O13 2.844562 1_555
In2 O6 2.844229 1_545
In2 O7 2.844229 1_554
In2 O4 2.844229 1_555
In2 O5 2.844229 1_544
In3 O0 2.844562 1_555
In3 O2 2.844562 1_455
In3 O3 2.844562 1_545
In3 O1 2.844562 1_445
O0 W0 1.962643 1_555
O0 Pr3 2.390297 1_455
O1 W1 1.962643 1_555
O1 Pr2 2.390297 1_655
O2 W2 1.962643 1_555
O2 Pr1 2.390297 1_655
O3 W3 1.962643 1_555
O3 Pr0 2.390297 1_455
O4 W0 1.966669 1_555
O4 Pr2 2.396503 1_545
O5 W3 1.966669 1_555
O5 Pr1 2.396503 1_565
O6 W1 1.966669 1_555
O6 Pr3 2.396503 1_565
O7 W2 1.966669 1_555
O7 Pr0 2.396503 1_545
O8 W0 1.972913 1_555
O8 Pr1 2.381320 1_554
O9 W2 1.972913 1_555
O9 Pr3 2.381320 1_556
O10 W3 1.972913 1_555
O10 Pr2 2.381320 1_556
O11 W1 1.972913 1_555
O11 Pr0 2.381320 1_554
O12 W0 1.962643 1_555
O12 Pr3 2.390297 1_555
O13 W1 1.962643 1_555
O13 Pr2 2.390297 1_555
O14 W2 1.962643 1_555
O14 Pr1 2.390297 1_555
O15 W3 1.962643 1_555
O15 Pr0 2.390297 1_555
O16 W0 1.966669 1_555
O16 Pr2 2.396503 1_555
O17 W3 1.966669 1_555
O17 Pr1 2.396503 1_555
O18 W1 1.966669 1_555
O18 Pr3 2.396503 1_555
O19 W2 1.966669 1_555
O19 Pr0 2.396503 1_555
O20 W0 1.972913 1_555
O20 Pr1 2.381320 1_555
O21 W2 1.972913 1_555
O21 Pr3 2.381320 1_555
O22 W3 1.972913 1_555
O22 Pr2 2.381320 1_555
O23 W1 1.972913 1_555
O23 Pr0 2.381320 1_555
