# generated using pymatgen
data_Mg14GaB
_symmetry_space_group_name_H-M   'P 1'
_cell_length_a   6.19785640
_cell_length_b   6.19785593
_cell_length_c   10.11333289
_cell_angle_alpha   90.00000000
_cell_angle_beta   90.00000000
_cell_angle_gamma   120.00000250
_symmetry_Int_Tables_number   1
_chemical_formula_structural   Mg14GaB
_chemical_formula_sum   'Mg14 Ga1 B1'
_cell_volume   336.44022134
_cell_formula_units_Z   1
loop_
 _symmetry_equiv_pos_site_id
 _symmetry_equiv_pos_as_xyz
  1  'x, y, z'
loop_
 _atom_site_type_symbol
 _atom_site_label
 _atom_site_symmetry_multiplicity
 _atom_site_fract_x
 _atom_site_fract_y
 _atom_site_fract_z
 _atom_site_occupancy
  Mg  Mg0  1  0.16486879  0.83243390  0.12500000  1
  Mg  Mg1  1  0.16775607  0.83387753  0.62500000  1
  Mg  Mg2  1  0.66756610  0.33513121  0.12500000  1
  Mg  Mg3  1  0.66612247  0.33224393  0.62500000  1
  Mg  Mg4  1  0.66756610  0.83243390  0.12500000  1
  Mg  Mg5  1  0.66612247  0.83387753  0.62500000  1
  Mg  Mg6  1  0.32857197  0.17142803  0.36858532  1
  Mg  Mg7  1  0.32857197  0.17142803  0.88141468  1
  Mg  Mg8  1  0.32857197  0.65714494  0.36858532  1
  Mg  Mg9  1  0.32857197  0.65714494  0.88141468  1
  Mg  Mg10  1  0.84285506  0.17142803  0.36858532  1
  Mg  Mg11  1  0.84285506  0.17142803  0.88141468  1
  Mg  Mg12  1  0.83333300  0.66666700  0.37583381  1
  Mg  Mg13  1  0.83333300  0.66666700  0.87416619  1
  Ga  Ga0  1  0.16666700  0.33333300  0.62500000  1
  B  B0  1  0.16666700  0.33333300  0.12500000  1
loop_
_geom_bond_atom_site_label_1
_geom_bond_atom_site_label_2
_geom_bond_distance
_geom_bond_site_symmetry_2
Mg0 Mg8 3.062785 1_555
Mg0 Mg9 3.062785 1_554
Mg0 Mg6 3.062791 1_565
Mg0 Mg7 3.062791 1_564
Mg0 Mg12 3.098688 1_455
Mg0 Mg13 3.098688 1_454
Mg1 Mg3 3.088803 1_565
Mg1 Mg5 3.088803 1_555
Mg1 Mg13 3.093862 1_455
Mg1 Mg12 3.093862 1_455
Mg1 Mg3 3.109053 1_455
Mg1 Mg5 3.109053 1_455
Mg1 Mg9 3.163818 1_555
Mg1 Mg8 3.163818 1_555
Mg1 Mg6 3.163824 1_565
Mg1 Mg7 3.163824 1_565
Mg2 Mg7 3.062791 1_554
Mg2 Mg6 3.062791 1_555
Mg3 Mg5 3.088803 1_545
Mg3 Mg5 3.109053 1_555
Mg3 Mg7 3.163824 1_555
Mg3 Mg6 3.163824 1_555
Mg4 Mg8 3.062791 1_555
Mg4 Mg9 3.062791 1_554
Mg5 Mg8 3.163824 1_555
Mg5 Mg9 3.163824 1_555
Mg6 Mg8 3.010403 1_555
Mg6 Mg8 3.187452 1_545
Mg7 Mg9 3.010403 1_555
Mg7 Mg9 3.187452 1_545
Mg10 Mg8 3.010403 1_655
Mg10 Mg6 3.010404 1_655
Mg10 Mg2 3.062785 1_555
Mg10 Mg4 3.062791 1_545
Mg10 Mg12 3.100216 1_545
Mg10 Mg12 3.100216 1_555
Mg10 Mg3 3.163818 1_555
Mg10 Mg5 3.163824 1_545
Mg10 Mg8 3.187452 1_545
Mg10 Mg6 3.187453 1_555
Mg11 Mg9 3.010403 1_655
Mg11 Mg7 3.010404 1_655
Mg11 Mg2 3.062785 1_556
Mg11 Mg4 3.062791 1_546
Mg11 Mg13 3.100216 1_545
Mg11 Mg13 3.100216 1_555
Mg11 Mg3 3.163818 1_555
Mg11 Mg5 3.163824 1_545
Mg11 Mg9 3.187452 1_545
Mg11 Mg7 3.187453 1_555
Mg12 Mg5 3.093856 1_555
Mg12 Mg3 3.093862 1_555
Mg12 Mg4 3.098682 1_555
Mg12 Mg2 3.098688 1_555
Mg12 Mg6 3.100216 1_665
Mg12 Mg6 3.100216 1_555
Mg12 Mg8 3.100216 1_555
Mg12 Mg8 3.100216 1_655
Mg13 Mg5 3.093856 1_555
Mg13 Mg3 3.093862 1_555
Mg13 Mg4 3.098682 1_556
Mg13 Mg2 3.098688 1_556
Mg13 Mg7 3.100216 1_665
Mg13 Mg7 3.100216 1_555
Mg13 Mg9 3.100216 1_555
Mg13 Mg9 3.100216 1_655
Ga0 Mg1 3.098933 1_555
Ga0 Mg5 3.098933 1_555
Ga0 Mg5 3.098933 1_445
Ga0 Mg1 3.098934 1_545
Ga0 Mg3 3.098934 1_455
Ga0 Mg3 3.098934 1_555
Ga0 Mg6 3.121785 1_555
Ga0 Mg7 3.121785 1_555
Ga0 Mg8 3.121791 1_555
Ga0 Mg9 3.121791 1_555
Ga0 Mg11 3.121791 1_455
Ga0 Mg10 3.121791 1_455
B0 Mg7 3.014872 1_554
B0 Mg6 3.014872 1_555
B0 Mg8 3.014878 1_555
B0 Mg9 3.014878 1_554
B0 Mg10 3.014878 1_455
B0 Mg11 3.014878 1_454
