# generated using pymatgen
data_Er3(GaNi3)2
_symmetry_space_group_name_H-M   'P 1'
_cell_length_a   7.63369004
_cell_length_b   7.63369004
_cell_length_c   7.63369004
_cell_angle_alpha   109.47122063
_cell_angle_beta   109.47122063
_cell_angle_gamma   109.47122063
_symmetry_Int_Tables_number   1
_chemical_formula_structural   Er3(GaNi3)2
_chemical_formula_sum   'Er6 Ga4 Ni12'
_cell_volume   342.43778147
_cell_formula_units_Z   2
loop_
 _symmetry_equiv_pos_site_id
 _symmetry_equiv_pos_as_xyz
  1  'x, y, z'
loop_
 _atom_site_type_symbol
 _atom_site_label
 _atom_site_symmetry_multiplicity
 _atom_site_fract_x
 _atom_site_fract_y
 _atom_site_fract_z
 _atom_site_occupancy
  Er  Er0  1  0.70982000  0.70982000  0.00000000  1
  Er  Er1  1  0.29018000  0.00000000  0.29018000  1
  Er  Er2  1  0.00000000  0.29018000  0.29018000  1
  Er  Er3  1  0.29018000  0.29018000  0.00000000  1
  Er  Er4  1  0.70982000  0.00000000  0.70982000  1
  Er  Er5  1  0.00000000  0.70982000  0.70982000  1
  Ga  Ga0  1  0.00000000  0.00000000  0.50000000  1
  Ga  Ga1  1  0.00000000  0.50000000  0.00000000  1
  Ga  Ga2  1  0.50000000  0.00000000  0.00000000  1
  Ga  Ga3  1  0.50000000  0.50000000  0.50000000  1
  Ni  Ni0  1  0.33894500  0.33894500  0.67788900  1
  Ni  Ni1  1  0.66105500  0.00000000  0.33894500  1
  Ni  Ni2  1  0.00000000  0.66105500  0.33894500  1
  Ni  Ni3  1  0.66105500  0.33894500  0.00000000  1
  Ni  Ni4  1  0.33894500  0.67788900  0.33894500  1
  Ni  Ni5  1  0.00000000  0.33894500  0.66105500  1
  Ni  Ni6  1  0.33894500  0.66105500  0.00000000  1
  Ni  Ni7  1  0.33894500  0.00000000  0.66105500  1
  Ni  Ni8  1  0.67788900  0.33894500  0.33894500  1
  Ni  Ni9  1  0.66105500  0.66105500  0.32211100  1
  Ni  Ni10  1  0.66105500  0.32211100  0.66105500  1
  Ni  Ni11  1  0.32211100  0.66105500  0.66105500  1
loop_
_geom_bond_atom_site_label_1
_geom_bond_atom_site_label_2
_geom_bond_distance
_geom_bond_site_symmetry_2
Er0 Ni6 2.729716 1_555
Er0 Ni3 2.729716 1_555
Er0 Ni0 2.729717 1_554
Er0 Ni9 2.729723 1_555
Er0 Ni11 3.018432 1_554
Er0 Ni10 3.018432 1_554
Er0 Ni1 3.018437 1_565
Er0 Ni2 3.018437 1_655
Er0 Ga1 3.136501 1_655
Er0 Ga0 3.136501 1_665
Er0 Ga3 3.136501 1_554
Er0 Ga2 3.136501 1_565
Er1 Ni7 2.729716 1_555
Er1 Ni1 2.729716 1_555
Er1 Ni10 2.729717 1_555
Er1 Ni4 2.729723 1_545
Er1 Ni8 3.018432 1_555
Er1 Ni0 3.018432 1_555
Er1 Ni6 3.018437 1_545
Er1 Ni2 3.018437 1_545
Er1 Ga0 3.136501 1_555
Er1 Ga3 3.136501 1_555
Er1 Ga1 3.136501 1_545
Er1 Ga2 3.136501 1_555
Er2 Ni5 2.729716 1_555
Er2 Ni2 2.729716 1_555
Er2 Ni11 2.729717 1_555
Er2 Ni8 2.729723 1_455
Er2 Ni0 3.018432 1_555
Er2 Ni4 3.018432 1_555
Er2 Ni3 3.018437 1_455
Er2 Ni1 3.018437 1_455
Er2 Ga0 3.136501 1_555
Er2 Ga2 3.136501 1_455
Er2 Ga3 3.136501 1_555
Er2 Ga1 3.136501 1_555
Er3 Ni3 2.729716 1_555
Er3 Ni6 2.729716 1_555
Er3 Ni9 2.729717 1_555
Er3 Ni0 2.729723 1_554
Er3 Ni4 3.018432 1_555
Er3 Ni8 3.018432 1_555
Er3 Ni7 3.018437 1_554
Er3 Ni5 3.018437 1_554
Er3 Ga3 3.136501 1_555
Er3 Ga1 3.136501 1_555
Er3 Ga0 3.136501 1_554
Er3 Ga2 3.136501 1_555
Er4 Ni1 2.729716 1_555
Er4 Ni7 2.729716 1_555
Er4 Ni4 2.729717 1_545
Er4 Ni10 2.729723 1_555
Er4 Ni9 3.018432 1_545
Er4 Ni11 3.018432 1_545
Er4 Ni3 3.018437 1_556
Er4 Ni5 3.018437 1_655
Er4 Ga3 3.136501 1_545
Er4 Ga2 3.136501 1_556
Er4 Ga0 3.136501 1_655
Er4 Ga1 3.136501 1_656
Er5 Ni2 2.729716 1_555
Er5 Ni5 2.729716 1_555
Er5 Ni8 2.729717 1_455
Er5 Ni11 2.729723 1_555
Er5 Ni9 3.018432 1_455
Er5 Ni10 3.018432 1_455
Er5 Ni7 3.018437 1_565
Er5 Ni6 3.018437 1_556
Er5 Ga0 3.136501 1_565
Er5 Ga2 3.136501 1_566
Er5 Ga3 3.136501 1_455
Er5 Ga1 3.136501 1_556
Ga0 Ni7 2.466874 1_555
Ga0 Ni5 2.466874 1_555
Ga0 Ni2 2.466874 1_545
Ga0 Ni1 2.466874 1_455
Ga0 Ni9 2.466875 1_445
Ga0 Ni0 2.466875 1_555
Ga1 Ni2 2.466874 1_555
Ga1 Ni6 2.466874 1_555
Ga1 Ni5 2.466874 1_554
Ga1 Ni3 2.466874 1_455
Ga1 Ni4 2.466875 1_555
Ga1 Ni10 2.466875 1_454
Ga2 Ni3 2.466874 1_555
Ga2 Ni1 2.466874 1_555
Ga2 Ni7 2.466874 1_554
Ga2 Ni6 2.466874 1_545
Ga2 Ni8 2.466875 1_555
Ga2 Ni11 2.466875 1_544
Ga3 Ni10 2.466867 1_555
Ga3 Ni0 2.466867 1_555
Ga3 Ni11 2.466867 1_555
Ga3 Ni9 2.466867 1_555
Ga3 Ni8 2.466867 1_555
Ga3 Ni4 2.466867 1_555
Ni0 Ni11 2.547441 1_555
Ni0 Ni10 2.547441 1_555
Ni0 Ni5 2.547449 1_555
Ni0 Ni7 2.547449 1_555
Ni0 Ni6 2.839284 1_556
Ni0 Ni3 2.839284 1_556
Ni1 Ni5 2.547446 1_655
Ni1 Ni6 2.547446 1_545
Ni1 Ni8 2.547449 1_555
Ni1 Ni9 2.547449 1_545
Ni1 Ni10 2.839284 1_555
Ni1 Ni4 2.839284 1_545
Ni2 Ni3 2.547446 1_455
Ni2 Ni7 2.547446 1_565
Ni2 Ni4 2.547449 1_555
Ni2 Ni9 2.547449 1_455
Ni2 Ni8 2.839284 1_455
Ni3 Ni7 2.547446 1_554
Ni3 Ni8 2.547449 1_555
Ni3 Ni9 2.839284 1_555
Ni4 Ni9 2.547441 1_555
Ni4 Ni6 2.547449 1_555
Ni4 Ni7 2.839284 1_565
Ni5 Ni6 2.547446 1_556
Ni5 Ni8 2.839284 1_455
Ni6 Ni9 2.839284 1_555
Ni8 Ni9 2.547441 1_555
Ni10 Ni8 2.547441 1_555
Ni10 Ni3 2.547449 1_556
Ni10 Ni5 2.547449 1_655
Ni10 Ni7 2.839284 1_555
Ni11 Ni4 2.547441 1_555
Ni11 Ni6 2.547449 1_556
Ni11 Ni7 2.547449 1_565
Ni11 Ni2 2.839284 1_555
Ni11 Ni5 2.839284 1_555
