# generated using pymatgen
data_YbO2
_symmetry_space_group_name_H-M   'P 1'
_cell_length_a   5.09599700
_cell_length_b   5.09599700
_cell_length_c   6.12443400
_cell_angle_alpha   90.00000000
_cell_angle_beta   90.00000000
_cell_angle_gamma   90.00000000
_symmetry_Int_Tables_number   1
_chemical_formula_structural   YbO2
_chemical_formula_sum   'Yb4 O8'
_cell_volume   159.04656216
_cell_formula_units_Z   4
loop_
 _symmetry_equiv_pos_site_id
 _symmetry_equiv_pos_as_xyz
  1  'x, y, z'
loop_
 _atom_site_type_symbol
 _atom_site_label
 _atom_site_symmetry_multiplicity
 _atom_site_fract_x
 _atom_site_fract_y
 _atom_site_fract_z
 _atom_site_occupancy
  Yb  Yb0  1  0.26432900  0.76432900  0.73625800  1
  Yb  Yb1  1  0.23567100  0.26432900  0.26374200  1
  Yb  Yb2  1  0.73567100  0.23567100  0.73625800  1
  Yb  Yb3  1  0.76432900  0.73567100  0.26374200  1
  O  O0  1  0.00000000  0.50000000  0.52387000  1
  O  O1  1  0.50000000  0.00000000  0.47613000  1
  O  O2  1  0.00000000  0.00000000  0.50000000  1
  O  O3  1  0.50000000  0.50000000  0.50000000  1
  O  O4  1  0.17748200  0.67748200  0.09833000  1
  O  O5  1  0.32251800  0.17748200  0.90167000  1
  O  O6  1  0.82251800  0.32251800  0.09833000  1
  O  O7  1  0.67748200  0.82251800  0.90167000  1
loop_
_geom_bond_atom_site_label_1
_geom_bond_atom_site_label_2
_geom_bond_distance
_geom_bond_site_symmetry_2
O0 Yb0 2.306706 1_555
O0 Yb2 2.306706 1_455
O0 Yb3 2.328687 1_455
O0 Yb1 2.328687 1_555
O1 Yb1 2.306706 1_555
O1 Yb3 2.306706 1_545
O1 Yb0 2.328687 1_545
O1 Yb2 2.328687 1_555
O2 Yb0 2.313108 1_545
O2 Yb2 2.313108 1_455
O2 Yb1 2.313108 1_555
O2 Yb3 2.313108 1_445
O3 Yb2 2.313108 1_555
O3 Yb3 2.313108 1_555
O3 Yb0 2.313108 1_555
O3 Yb1 2.313108 1_555
O4 Yb0 2.304123 1_554
O4 Yb3 2.355214 1_455
O4 Yb1 2.355214 1_555
O5 Yb1 2.304123 1_556
O5 Yb2 2.355214 1_555
O5 Yb0 2.355214 1_545
O6 Yb2 2.304123 1_554
O6 Yb3 2.355214 1_555
O6 Yb1 2.355214 1_655
O7 Yb3 2.304123 1_556
O7 Yb0 2.355214 1_555
O7 Yb2 2.355214 1_565
