# generated using pymatgen
data_Na5U5O18
_symmetry_space_group_name_H-M   'P 1'
_cell_length_a   6.87492400
_cell_length_b   19.91074200
_cell_length_c   13.05412411
_cell_angle_alpha   90.00000000
_cell_angle_beta   110.51380688
_cell_angle_gamma   90.00000000
_symmetry_Int_Tables_number   1
_chemical_formula_structural   Na5U5O18
_chemical_formula_sum   'Na20 U20 O72'
_cell_volume   1673.59961245
_cell_formula_units_Z   4
loop_
 _symmetry_equiv_pos_site_id
 _symmetry_equiv_pos_as_xyz
  1  'x, y, z'
loop_
 _atom_site_type_symbol
 _atom_site_label
 _atom_site_symmetry_multiplicity
 _atom_site_fract_x
 _atom_site_fract_y
 _atom_site_fract_z
 _atom_site_occupancy
  Na  Na0  1  0.23561600  0.45013100  0.99981600  1
  Na  Na1  1  0.76438400  0.95013100  0.50018400  1
  Na  Na2  1  0.76438400  0.54986900  0.00018400  1
  Na  Na3  1  0.23561600  0.04986900  0.49981600  1
  Na  Na4  1  0.74195600  0.34891400  0.49875700  1
  Na  Na5  1  0.25804400  0.84891400  0.00124300  1
  Na  Na6  1  0.25804400  0.65108600  0.50124300  1
  Na  Na7  1  0.74195600  0.15108600  0.99875700  1
  Na  Na8  1  0.25832000  0.45244700  0.50633500  1
  Na  Na9  1  0.74168000  0.95244700  0.99366500  1
  Na  Na10  1  0.74168000  0.54755300  0.49366500  1
  Na  Na11  1  0.25832000  0.04755300  0.00633500  1
  Na  Na12  1  0.25521200  0.24829300  0.99610800  1
  Na  Na13  1  0.74478800  0.74829300  0.50389200  1
  Na  Na14  1  0.74478800  0.75170700  0.00389200  1
  Na  Na15  1  0.25521200  0.25170700  0.49610700  1
  Na  Na16  1  0.77182900  0.35546800  0.01233100  1
  Na  Na17  1  0.22817100  0.85546800  0.48766900  1
  Na  Na18  1  0.22817100  0.64453200  0.98766900  1
  Na  Na19  1  0.77182900  0.14453200  0.51233100  1
  U  U0  1  0.77073300  0.24509200  0.74873600  1
  U  U1  1  0.22926700  0.74509200  0.75126400  1
  U  U2  1  0.22926700  0.75490800  0.25126400  1
  U  U3  1  0.77073300  0.25490800  0.24873600  1
  U  U4  1  0.22435400  0.35633400  0.74743900  1
  U  U5  1  0.77564600  0.85633400  0.75256100  1
  U  U6  1  0.77564600  0.64366600  0.25256100  1
  U  U7  1  0.22435400  0.14366600  0.24743900  1
  U  U8  1  0.71476700  0.05051200  0.74769100  1
  U  U9  1  0.28523300  0.55051200  0.75230900  1
  U  U10  1  0.28523300  0.94948800  0.25230900  1
  U  U11  1  0.71476700  0.44948800  0.24769100  1
  U  U12  1  0.74935500  0.44861500  0.75199600  1
  U  U13  1  0.25064500  0.94861500  0.74800400  1
  U  U14  1  0.25064500  0.55138500  0.24800400  1
  U  U15  1  0.74935500  0.05138500  0.25199600  1
  U  U16  1  0.25658700  0.15425300  0.75299500  1
  U  U17  1  0.74341300  0.65425300  0.74700500  1
  U  U18  1  0.74341300  0.84574700  0.24700500  1
  U  U19  1  0.25658700  0.34574700  0.25299500  1
  O  O0  1  0.67845200  0.23962300  0.59418500  1
  O  O1  1  0.32154800  0.73962300  0.90581500  1
  O  O2  1  0.32154800  0.76037700  0.40581500  1
  O  O3  1  0.67845200  0.26037700  0.09418500  1
  O  O4  1  0.87451400  0.24740900  0.90244700  1
  O  O5  1  0.12548600  0.74740900  0.59755300  1
  O  O6  1  0.12548600  0.75259100  0.09755300  1
  O  O7  1  0.87451400  0.25259100  0.40244700  1
  O  O8  1  0.87464100  0.35037400  0.73863600  1
  O  O9  1  0.12535900  0.85037400  0.76136400  1
  O  O10  1  0.12535900  0.64962600  0.26136400  1
  O  O11  1  0.87464100  0.14962600  0.23863600  1
  O  O12  1  0.12091600  0.25124500  0.76392600  1
  O  O13  1  0.87908400  0.75124500  0.73607400  1
  O  O14  1  0.87908400  0.74875500  0.23607400  1
  O  O15  1  0.12091600  0.24875500  0.26392600  1
  O  O16  1  0.48691800  0.29772600  0.73790400  1
  O  O17  1  0.51308200  0.79772600  0.76209600  1
  O  O18  1  0.51308200  0.70227400  0.26209600  1
  O  O19  1  0.48691800  0.20227400  0.23790400  1
  O  O20  1  0.58515800  0.15629200  0.76429800  1
  O  O21  1  0.41484200  0.65629200  0.73570200  1
  O  O22  1  0.41484200  0.84370800  0.23570200  1
  O  O23  1  0.58515800  0.34370800  0.26429800  1
  O  O24  1  0.94084000  0.12867600  0.73913000  1
  O  O25  1  0.05916000  0.62867600  0.76087000  1
  O  O26  1  0.05916000  0.87132400  0.26087000  1
  O  O27  1  0.94084000  0.37132400  0.23913000  1
  O  O28  1  0.32698100  0.35888700  0.90122800  1
  O  O29  1  0.67301900  0.85888700  0.59877200  1
  O  O30  1  0.67301900  0.64111300  0.09877200  1
  O  O31  1  0.32698100  0.14111300  0.40122800  1
  O  O32  1  0.11106300  0.35865900  0.59383500  1
  O  O33  1  0.88893700  0.85865900  0.90616500  1
  O  O34  1  0.88893700  0.64134100  0.40616500  1
  O  O35  1  0.11106300  0.14134100  0.09383500  1
  O  O36  1  0.06344800  0.47102600  0.76176500  1
  O  O37  1  0.93655200  0.97102600  0.73823500  1
  O  O38  1  0.93655200  0.52897400  0.23823500  1
  O  O39  1  0.06344800  0.02897400  0.26176500  1
  O  O40  1  0.42268000  0.44371400  0.74149000  1
  O  O41  1  0.57732000  0.94371400  0.75851000  1
  O  O42  1  0.57732000  0.55628600  0.25851000  1
  O  O43  1  0.42268000  0.05628600  0.24149000  1
  O  O44  1  0.60646800  0.05163300  0.59433300  1
  O  O45  1  0.39353200  0.55163300  0.90566700  1
  O  O46  1  0.39353200  0.94836700  0.40566700  1
  O  O47  1  0.60646800  0.44836700  0.09433300  1
  O  O48  1  0.82579100  0.04898800  0.90106100  1
  O  O49  1  0.17420900  0.54898800  0.59893900  1
  O  O50  1  0.17420900  0.95101200  0.09893900  1
  O  O51  1  0.82579100  0.45101200  0.40106100  1
  O  O52  1  0.34661100  0.05112500  0.73606800  1
  O  O53  1  0.65338900  0.55112500  0.76393200  1
  O  O54  1  0.65338900  0.94887500  0.26393200  1
  O  O55  1  0.34661100  0.44887500  0.23606800  1
  O  O56  1  0.84433400  0.44262800  0.90839900  1
  O  O57  1  0.15566600  0.94262800  0.59160100  1
  O  O58  1  0.15566600  0.55737200  0.09160100  1
  O  O59  1  0.84433400  0.05737200  0.40839900  1
  O  O60  1  0.65098300  0.45545400  0.59695100  1
  O  O61  1  0.34901700  0.95545400  0.90304900  1
  O  O62  1  0.34901700  0.54454600  0.40304900  1
  O  O63  1  0.65098300  0.04454600  0.09695100  1
  O  O64  1  0.16612400  0.16134800  0.59795900  1
  O  O65  1  0.83387600  0.66134800  0.90204100  1
  O  O66  1  0.83387600  0.83865200  0.40204100  1
  O  O67  1  0.16612400  0.33865200  0.09795900  1
  O  O68  1  0.35271400  0.14812300  0.90864800  1
  O  O69  1  0.64728600  0.64812300  0.59135200  1
  O  O70  1  0.64728600  0.85187700  0.09135200  1
  O  O71  1  0.35271400  0.35187700  0.40864800  1
loop_
_geom_bond_atom_site_label_1
_geom_bond_atom_site_label_2
_geom_bond_distance
_geom_bond_site_symmetry_2
Na0 O47 2.412298 1_556
Na0 O28 2.432686 1_555
Na0 O56 2.536298 1_455
Na0 O58 2.599729 1_556
Na0 O67 2.688008 1_556
Na0 O45 2.776457 1_555
Na0 O55 2.906020 1_556
Na0 O36 2.941598 1_555
Na1 O46 2.412298 1_555
Na1 O29 2.432686 1_555
Na1 O57 2.536298 1_655
Na1 O59 2.599729 1_565
Na1 O66 2.688008 1_555
Na1 O44 2.776457 1_565
Na1 O54 2.906020 1_555
Na1 O37 2.941598 1_555
Na2 O45 2.412298 1_554
Na2 O30 2.432686 1_555
Na2 O58 2.536298 1_655
Na2 O56 2.599729 1_554
Na2 O65 2.688008 1_554
Na2 O47 2.776457 1_555
Na2 O53 2.906020 1_554
Na2 O38 2.941598 1_555
Na3 O44 2.412298 1_555
Na3 O31 2.432686 1_555
Na3 O59 2.536298 1_455
Na3 O57 2.599729 1_545
Na3 O64 2.688008 1_555
Na3 O46 2.776457 1_545
Na3 O52 2.906020 1_555
Na3 O39 2.941598 1_555
Na4 O32 2.410403 1_655
Na4 O71 2.518334 1_555
Na4 O51 2.570274 1_555
Na4 O0 2.618947 1_555
Na4 O7 2.625337 1_555
Na4 O60 2.663837 1_555
Na4 O23 2.868452 1_555
Na4 O8 2.938823 1_555
Na5 O33 2.410403 1_454
Na5 O70 2.518334 1_555
Na5 O50 2.570274 1_555
Na5 O1 2.618947 1_554
Na5 O6 2.625337 1_555
Na5 O61 2.663837 1_554
Na5 O22 2.868452 1_555
Na5 O9 2.938823 1_554
Na6 O34 2.410403 1_455
Na6 O69 2.518334 1_555
Na6 O49 2.570274 1_555
Na6 O2 2.618947 1_555
Na6 O5 2.625337 1_555
Na6 O62 2.663837 1_555
Na6 O21 2.868452 1_555
Na6 O10 2.938823 1_555
Na7 O35 2.410403 1_656
Na7 O68 2.518334 1_555
Na7 O48 2.570274 1_555
Na7 O3 2.618947 1_556
Na7 O4 2.625337 1_555
Na7 O63 2.663837 1_556
Na7 O20 2.868452 1_555
Na7 O11 2.938823 1_556
Na8 O49 2.445512 1_555
Na8 O62 2.481660 1_555
Na8 O60 2.540126 1_555
Na8 O32 2.574339 1_555
Na8 O71 2.576242 1_555
Na8 O51 2.804930 1_455
Na8 O40 2.880847 1_555
Na9 O48 2.445512 1_565
Na9 O63 2.481660 1_566
Na9 O61 2.540126 1_555
Na9 O33 2.574339 1_555
Na9 O70 2.576242 1_556
Na9 O50 2.804930 1_656
Na9 O41 2.880847 1_555
Na10 O51 2.445512 1_555
Na10 O60 2.481660 1_555
Na10 O62 2.540126 1_555
Na10 O34 2.574339 1_555
Na10 O69 2.576242 1_555
Na10 O49 2.804930 1_655
Na10 O42 2.880847 1_555
Na11 O50 2.445512 1_545
Na11 O61 2.481660 1_544
Na11 O63 2.540126 1_555
Na11 O35 2.574339 1_555
Na11 O68 2.576242 1_554
Na11 O48 2.804930 1_454
Na11 O43 2.880847 1_555
Na12 O67 2.439353 1_556
Na12 O4 2.470327 1_455
Na12 O68 2.503415 1_555
Na12 O28 2.656064 1_555
Na12 O3 2.748217 1_556
Na12 O35 2.833805 1_556
Na12 O12 2.842737 1_555
Na13 O66 2.439353 1_555
Na13 O5 2.470327 1_655
Na13 O69 2.503415 1_555
Na13 O29 2.656064 1_555
Na13 O2 2.748217 1_555
Na13 O34 2.833805 1_555
Na13 O13 2.842737 1_555
Na14 O65 2.439353 1_554
Na14 O6 2.470327 1_655
Na14 O70 2.503415 1_555
Na14 O30 2.656064 1_555
Na14 O1 2.748217 1_554
Na14 O33 2.833805 1_554
Na14 O14 2.842737 1_555
Na15 O64 2.439362 1_555
Na15 O7 2.470326 1_455
Na15 O71 2.503408 1_555
Na15 O31 2.656057 1_555
Na15 O0 2.748218 1_555
Na15 O32 2.833813 1_555
Na15 O15 2.842724 1_555
Na16 O56 2.361120 1_554
Na16 O3 2.370515 1_555
Na16 O67 2.566332 1_655
Na16 O47 2.590864 1_555
Na16 O27 2.793606 1_555
Na16 O4 2.809771 1_554
Na16 O28 2.890080 1_554
Na17 O57 2.361120 1_555
Na17 O2 2.370515 1_555
Na17 O66 2.566332 1_455
Na17 O46 2.590864 1_555
Na17 O26 2.793606 1_555
Na17 O5 2.809771 1_555
Na17 O29 2.890080 1_555
Na18 O58 2.361120 1_556
Na18 O1 2.370515 1_555
Na18 O65 2.566332 1_455
Na18 O45 2.590864 1_555
Na18 O25 2.793606 1_555
Na18 O6 2.809771 1_556
Na18 O30 2.890080 1_556
Na19 O59 2.361120 1_555
Na19 O0 2.370515 1_555
Na19 O64 2.566332 1_655
Na19 O44 2.590864 1_555
Na19 O24 2.793606 1_555
Na19 O7 2.809771 1_555
Na19 O31 2.890080 1_555
O0 U0 1.894118 1_555
O1 U1 1.894118 1_555
O2 U2 1.894118 1_555
O3 U3 1.894118 1_555
O4 U0 1.879916 1_555
O5 U1 1.879916 1_555
O6 U2 1.879916 1_555
O7 U3 1.879916 1_555
O8 U12 2.168808 1_555
O8 U0 2.233369 1_555
O8 U4 2.369402 1_655
O9 U13 2.168808 1_555
O9 U1 2.233369 1_555
O9 U5 2.369402 1_455
O10 U14 2.168808 1_555
O10 U2 2.233369 1_555
O10 U6 2.369402 1_455
O11 U15 2.168808 1_555
O11 U3 2.233369 1_555
O11 U7 2.369402 1_655
O12 U16 2.170966 1_555
O12 U4 2.244422 1_555
O12 U0 2.348556 1_455
O13 U17 2.170966 1_555
O13 U5 2.244422 1_555
O13 U1 2.348556 1_655
O14 U18 2.170966 1_555
O14 U6 2.244422 1_555
O14 U2 2.348556 1_655
O15 U19 2.170966 1_555
O15 U7 2.244422 1_555
O15 U3 2.348556 1_455
O16 U0 2.175338 1_555
O16 U4 2.189315 1_555
O17 U1 2.175338 1_555
O17 U5 2.189315 1_555
O18 U2 2.175338 1_555
O18 U6 2.189315 1_555
O19 U3 2.175338 1_555
O19 U7 2.189315 1_555
O20 U16 2.211889 1_555
O20 U0 2.230853 1_555
O20 U8 2.326427 1_555
O21 U17 2.211889 1_555
O21 U1 2.230853 1_555
O21 U9 2.326427 1_555
O22 U18 2.211889 1_555
O22 U2 2.230853 1_555
O22 U10 2.326427 1_555
O23 U19 2.211889 1_555
O23 U3 2.230853 1_555
O23 U11 2.326427 1_555
O24 U16 2.174588 1_655
O24 U8 2.229787 1_555
O24 U0 2.618963 1_555
O25 U17 2.174588 1_455
O25 U9 2.229787 1_555
O25 U1 2.618963 1_555
O26 U18 2.174588 1_455
O26 U10 2.229787 1_555
O26 U2 2.618963 1_555
O27 U19 2.174588 1_655
O27 U11 2.229787 1_555
O27 U3 2.618963 1_555
O28 U4 1.880964 1_555
O29 U5 1.880964 1_555
O30 U6 1.880964 1_555
O31 U7 1.880964 1_555
O32 U4 1.880129 1_555
O33 U5 1.880129 1_555
O34 U6 1.880129 1_555
O35 U7 1.880129 1_555
O36 U12 2.164540 1_455
O36 U9 2.230859 1_555
O36 U4 2.572649 1_555
O37 U13 2.164540 1_655
O37 U8 2.230859 1_565
O37 U5 2.572649 1_555
O38 U14 2.164540 1_655
O38 U11 2.230859 1_555
O38 U6 2.572649 1_555
O39 U15 2.164540 1_455
O39 U10 2.230859 1_545
O39 U7 2.572649 1_555
O40 U12 2.203717 1_555
O40 U4 2.228501 1_555
O40 U9 2.351187 1_555
O41 U13 2.203717 1_555
O41 U5 2.228501 1_555
O41 U8 2.351187 1_565
O42 U14 2.203717 1_555
O42 U6 2.228501 1_555
O42 U11 2.351187 1_555
O43 U15 2.203717 1_555
O43 U7 2.228501 1_555
O43 U10 2.351187 1_545
O44 U8 1.875632 1_555
O45 U9 1.875632 1_555
O46 U10 1.875632 1_555
O47 U11 1.875632 1_555
O48 U8 1.876412 1_555
O49 U9 1.876412 1_555
O50 U10 1.876412 1_555
O51 U11 1.876412 1_555
O52 U13 2.167370 1_545
O52 U16 2.178070 1_555
O52 U8 2.481976 1_555
O53 U12 2.167370 1_555
O53 U17 2.178070 1_555
O53 U9 2.481976 1_555
O54 U15 2.167370 1_565
O54 U18 2.178070 1_555
O54 U10 2.481976 1_555
O55 U14 2.167370 1_555
O55 U19 2.178070 1_555
O55 U11 2.481976 1_555
O56 U12 1.916966 1_555
O57 U13 1.916966 1_555
O58 U14 1.916966 1_555
O59 U15 1.916966 1_555
O60 U12 1.900802 1_555
O61 U13 1.900802 1_555
O62 U14 1.900802 1_555
O63 U15 1.900802 1_555
O64 U16 1.902782 1_555
O65 U17 1.902782 1_555
O66 U18 1.902782 1_555
O67 U19 1.902782 1_555
O68 U16 1.907662 1_555
O69 U17 1.907662 1_555
O70 U18 1.907662 1_555
O71 U19 1.907662 1_555
