# generated using pymatgen
data_CaMg14VO16
_symmetry_space_group_name_H-M   'P 1'
_cell_length_a   4.32932600
_cell_length_b   8.59554600
_cell_length_c   8.64099300
_cell_angle_alpha   90.00000000
_cell_angle_beta   90.00000000
_cell_angle_gamma   90.00000000
_symmetry_Int_Tables_number   1
_chemical_formula_structural   CaMg14VO16
_chemical_formula_sum   'Ca1 Mg14 V1 O16'
_cell_volume   321.55658799
_cell_formula_units_Z   1
loop_
 _symmetry_equiv_pos_site_id
 _symmetry_equiv_pos_as_xyz
  1  'x, y, z'
loop_
 _atom_site_type_symbol
 _atom_site_label
 _atom_site_symmetry_multiplicity
 _atom_site_fract_x
 _atom_site_fract_y
 _atom_site_fract_z
 _atom_site_occupancy
  Ca  Ca0  1  0.00000000  0.00000000  0.00000000  1
  Mg  Mg0  1  0.00000000  0.50000000  0.00000000  1
  Mg  Mg1  1  0.00000000  0.50000000  0.50000000  1
  Mg  Mg2  1  0.50000000  0.00000000  0.25435400  1
  Mg  Mg3  1  0.50000000  0.00000000  0.74564600  1
  Mg  Mg4  1  0.50000000  0.50000000  0.25063700  1
  Mg  Mg5  1  0.50000000  0.50000000  0.74936300  1
  Mg  Mg6  1  0.50000000  0.25551500  0.00000000  1
  Mg  Mg7  1  0.50000000  0.25109600  0.50000000  1
  Mg  Mg8  1  0.50000000  0.74448500  0.00000000  1
  Mg  Mg9  1  0.50000000  0.74890400  0.50000000  1
  Mg  Mg10  1  0.00000000  0.25334300  0.25257800  1
  Mg  Mg11  1  0.00000000  0.25334300  0.74742200  1
  Mg  Mg12  1  0.00000000  0.74665700  0.25257800  1
  Mg  Mg13  1  0.00000000  0.74665700  0.74742200  1
  V  V0  1  0.00000000  0.00000000  0.50000000  1
  O  O0  1  0.00000000  0.26408400  0.00000000  1
  O  O1  1  0.00000000  0.25607500  0.50000000  1
  O  O2  1  0.00000000  0.73591600  0.00000000  1
  O  O3  1  0.00000000  0.74392500  0.50000000  1
  O  O4  1  0.50000000  0.24950900  0.25038900  1
  O  O5  1  0.50000000  0.24950900  0.74961100  1
  O  O6  1  0.50000000  0.75049100  0.25038900  1
  O  O7  1  0.50000000  0.75049100  0.74961100  1
  O  O8  1  0.50000000  0.00000000  0.00000000  1
  O  O9  1  0.50000000  0.00000000  0.50000000  1
  O  O10  1  0.50000000  0.50000000  0.00000000  1
  O  O11  1  0.50000000  0.50000000  0.50000000  1
  O  O12  1  0.00000000  0.00000000  0.25730100  1
  O  O13  1  0.00000000  0.00000000  0.74269900  1
  O  O14  1  0.00000000  0.50000000  0.25243700  1
  O  O15  1  0.00000000  0.50000000  0.74756300  1
loop_
_geom_bond_atom_site_label_1
_geom_bond_atom_site_label_2
_geom_bond_distance
_geom_bond_site_symmetry_2
Ca0 O8 2.164663 1_455
Ca0 O8 2.164663 1_555
Ca0 O12 2.223336 1_555
Ca0 O13 2.223336 1_554
Ca0 O2 2.269946 1_545
Ca0 O0 2.269946 1_555
Mg0 O0 2.027827 1_555
Mg0 O2 2.027827 1_555
Mg0 O10 2.164663 1_455
Mg0 O10 2.164663 1_555
Mg0 O14 2.181306 1_555
Mg0 O15 2.181306 1_554
Mg1 O3 2.096669 1_555
Mg1 O1 2.096669 1_555
Mg1 O15 2.139190 1_555
Mg1 O14 2.139190 1_555
Mg1 O11 2.164663 1_455
Mg1 O11 2.164663 1_555
Mg2 O9 2.122625 1_555
Mg2 O4 2.144940 1_555
Mg2 O6 2.144940 1_545
Mg2 O12 2.164813 1_655
Mg2 O12 2.164813 1_555
Mg2 O8 2.197871 1_555
Mg3 O9 2.122625 1_555
Mg3 O5 2.144940 1_555
Mg3 O7 2.144940 1_545
Mg3 O13 2.164813 1_655
Mg3 O13 2.164813 1_555
Mg3 O8 2.197871 1_556
Mg4 O6 2.153108 1_555
Mg4 O4 2.153108 1_555
Mg4 O11 2.154744 1_555
Mg4 O14 2.164719 1_555
Mg4 O14 2.164719 1_655
Mg4 O10 2.165753 1_555
Mg5 O7 2.153108 1_555
Mg5 O5 2.153108 1_555
Mg5 O11 2.154744 1_555
Mg5 O15 2.164719 1_555
Mg5 O15 2.164719 1_655
Mg5 O10 2.165753 1_556
Mg6 O10 2.101482 1_555
Mg6 O4 2.164225 1_555
Mg6 O5 2.164225 1_554
Mg6 O0 2.165916 1_655
Mg6 O0 2.165916 1_555
Mg6 O8 2.196291 1_555
Mg7 O11 2.139466 1_555
Mg7 O5 2.156930 1_555
Mg7 O4 2.156930 1_555
Mg7 O9 2.158307 1_555
Mg7 O1 2.165086 1_555
Mg7 O1 2.165086 1_655
Mg8 O10 2.101482 1_555
Mg8 O6 2.164225 1_555
Mg8 O7 2.164225 1_554
Mg8 O2 2.165916 1_655
Mg8 O2 2.165916 1_555
Mg8 O8 2.196291 1_565
Mg9 O11 2.139466 1_555
Mg9 O7 2.156930 1_555
Mg9 O6 2.156930 1_555
Mg9 O9 2.158307 1_565
Mg9 O3 2.165086 1_555
Mg9 O3 2.165086 1_655
Mg10 O14 2.120152 1_555
Mg10 O1 2.138101 1_555
Mg10 O4 2.164996 1_455
Mg10 O4 2.164996 1_555
Mg10 O12 2.178004 1_555
Mg10 O0 2.184477 1_555
Mg11 O15 2.120152 1_555
Mg11 O1 2.138101 1_555
Mg11 O5 2.164996 1_455
Mg11 O5 2.164996 1_555
Mg11 O13 2.178004 1_555
Mg11 O0 2.184477 1_556
Mg12 O14 2.120152 1_555
Mg12 O3 2.138101 1_555
Mg12 O6 2.164996 1_455
Mg12 O6 2.164996 1_555
Mg12 O12 2.178004 1_565
Mg12 O2 2.184477 1_555
Mg13 O15 2.120152 1_555
Mg13 O3 2.138101 1_555
Mg13 O7 2.164996 1_555
Mg13 O7 2.164996 1_455
Mg13 O13 2.178004 1_565
Mg13 O2 2.184477 1_556
O1 V0 2.201104 1_555
O3 V0 2.201104 1_565
O9 V0 2.164663 1_555
O9 V0 2.164663 1_655
O12 V0 2.097160 1_555
O13 V0 2.097160 1_555
