# generated using pymatgen
data_LaCo5H3
_symmetry_space_group_name_H-M   'P 1'
_cell_length_a   4.04028400
_cell_length_b   5.04457200
_cell_length_c   5.23348761
_cell_angle_alpha   61.54023598
_cell_angle_beta   90.00000000
_cell_angle_gamma   90.00000000
_symmetry_Int_Tables_number   1
_chemical_formula_structural   LaCo5H3
_chemical_formula_sum   'La1 Co5 H3'
_cell_volume   93.77592961
_cell_formula_units_Z   1
loop_
 _symmetry_equiv_pos_site_id
 _symmetry_equiv_pos_as_xyz
  1  'x, y, z'
loop_
 _atom_site_type_symbol
 _atom_site_label
 _atom_site_symmetry_multiplicity
 _atom_site_fract_x
 _atom_site_fract_y
 _atom_site_fract_z
 _atom_site_occupancy
  La  La0  1  0.00000000  0.00000000  0.00000000  1
  Co  Co0  1  0.50000000  0.50000000  0.50000000  1
  Co  Co1  1  0.00000000  0.66117700  0.62177800  1
  Co  Co2  1  0.00000000  0.33882300  0.37822200  1
  Co  Co3  1  0.50000000  0.00000000  0.50000000  1
  Co  Co4  1  0.50000000  0.50000000  0.00000000  1
  H  H0  1  0.00000000  0.50000000  0.00000000  1
  H  H1  1  0.50000000  0.86101600  0.85215700  1
  H  H2  1  0.50000000  0.13898400  0.14784300  1
loop_
_geom_bond_atom_site_label_1
_geom_bond_atom_site_label_2
_geom_bond_distance
_geom_bond_site_symmetry_2
Co0 Co1 2.375313 1_555
Co0 Co1 2.375313 1_655
Co0 Co2 2.375313 1_555
Co0 Co2 2.375313 1_655
Co0 Co3 2.522286 1_555
Co0 Co3 2.522286 1_565
Co0 Co4 2.616744 1_556
Co0 Co4 2.616744 1_555
Co1 H0 1.745076 1_556
Co1 La0 2.865208 1_565
Co2 H0 1.745076 1_555
Co2 La0 2.865208 1_556
Co3 H2 1.629941 1_555
Co3 H1 1.629941 1_545
Co4 H1 1.603851 1_554
Co4 H2 1.603851 1_555
Co4 H0 2.020142 1_555
Co4 H0 2.020142 1_655
H0 La0 2.522286 1_555
H0 La0 2.522286 1_565
H1 La0 2.385000 1_666
H1 La0 2.385000 1_566
H2 La0 2.385000 1_555
H2 La0 2.385000 1_655
