# generated using pymatgen
data_Na3SmMn3(AsO5)3
_symmetry_space_group_name_H-M   'P 1'
_cell_length_a   11.27569894
_cell_length_b   11.27569894
_cell_length_c   6.12645600
_cell_angle_alpha   90.00000000
_cell_angle_beta   90.00000000
_cell_angle_gamma   120.00000552
_symmetry_Int_Tables_number   1
_chemical_formula_structural   Na3SmMn3(AsO5)3
_chemical_formula_sum   'Na6 Sm2 Mn6 As6 O30'
_cell_volume   674.56976212
_cell_formula_units_Z   2
loop_
 _symmetry_equiv_pos_site_id
 _symmetry_equiv_pos_as_xyz
  1  'x, y, z'
loop_
 _atom_site_type_symbol
 _atom_site_label
 _atom_site_symmetry_multiplicity
 _atom_site_fract_x
 _atom_site_fract_y
 _atom_site_fract_z
 _atom_site_occupancy
  Na  Na0  1  0.83993900  0.72992700  0.75000000  1
  Na  Na1  1  0.88998800  0.16006100  0.75000000  1
  Na  Na2  1  0.27007300  0.11001200  0.75000000  1
  Na  Na3  1  0.16006100  0.27007300  0.25000000  1
  Na  Na4  1  0.11001200  0.83993900  0.25000000  1
  Na  Na5  1  0.72992700  0.88998800  0.25000000  1
  Sm  Sm0  1  0.33333300  0.66666700  0.25000000  1
  Sm  Sm1  1  0.66666700  0.33333300  0.75000000  1
  Mn  Mn0  1  0.50000000  0.50000000  0.50000000  1
  Mn  Mn1  1  0.00000000  0.50000000  0.50000000  1
  Mn  Mn2  1  0.50000000  0.00000000  0.50000000  1
  Mn  Mn3  1  0.50000000  0.50000000  0.00000000  1
  Mn  Mn4  1  0.00000000  0.50000000  0.00000000  1
  Mn  Mn5  1  0.50000000  0.00000000  0.00000000  1
  As  As0  1  0.21381300  0.39952600  0.75000000  1
  As  As1  1  0.18571400  0.78618700  0.75000000  1
  As  As2  1  0.60047400  0.81428600  0.75000000  1
  As  As3  1  0.78618700  0.60047400  0.25000000  1
  As  As4  1  0.81428600  0.21381300  0.25000000  1
  As  As5  1  0.39952600  0.18571400  0.25000000  1
  O  O0  1  0.52432600  0.61376900  0.25000000  1
  O  O1  1  0.08944300  0.47567400  0.25000000  1
  O  O2  1  0.38623100  0.91055700  0.25000000  1
  O  O3  1  0.47567400  0.38623100  0.75000000  1
  O  O4  1  0.91055700  0.52432600  0.75000000  1
  O  O5  1  0.61376900  0.08944300  0.75000000  1
  O  O6  1  0.30828200  0.48227200  0.51774500  1
  O  O7  1  0.17399000  0.69171800  0.51774500  1
  O  O8  1  0.51772800  0.82601000  0.51774500  1
  O  O9  1  0.69171800  0.51772800  0.01774500  1
  O  O10  1  0.82601000  0.30828200  0.01774500  1
  O  O11  1  0.48227200  0.17399000  0.01774500  1
  O  O12  1  0.69171800  0.51772800  0.48225500  1
  O  O13  1  0.82601000  0.30828200  0.48225500  1
  O  O14  1  0.48227200  0.17399000  0.48225500  1
  O  O15  1  0.30828200  0.48227200  0.98225500  1
  O  O16  1  0.17399000  0.69171800  0.98225500  1
  O  O17  1  0.51772800  0.82601000  0.98225500  1
  O  O18  1  0.07319500  0.42195800  0.75000000  1
  O  O19  1  0.34876300  0.92680500  0.75000000  1
  O  O20  1  0.57804200  0.65123700  0.75000000  1
  O  O21  1  0.92680500  0.57804200  0.25000000  1
  O  O22  1  0.65123700  0.07319500  0.25000000  1
  O  O23  1  0.42195800  0.34876300  0.25000000  1
  O  O24  1  0.14996000  0.22841700  0.75000000  1
  O  O25  1  0.07845700  0.85004000  0.75000000  1
  O  O26  1  0.77158300  0.92154300  0.75000000  1
  O  O27  1  0.85004000  0.77158300  0.25000000  1
  O  O28  1  0.92154300  0.14996000  0.25000000  1
  O  O29  1  0.22841700  0.07845700  0.25000000  1
loop_
_geom_bond_atom_site_label_1
_geom_bond_atom_site_label_2
_geom_bond_distance
_geom_bond_site_symmetry_2
Na0 O25 2.329158 1_655
Na0 O20 2.624441 1_555
Na0 O26 2.632033 1_555
Na0 O9 2.685141 1_556
Na0 O12 2.685141 1_555
Na0 O4 2.802591 1_555
Na1 O26 2.329158 1_545
Na1 O18 2.624441 1_655
Na1 O24 2.632033 1_655
Na1 O10 2.685141 1_556
Na1 O13 2.685141 1_555
Na1 O5 2.802591 1_555
Na2 O24 2.329158 1_555
Na2 O19 2.624441 1_545
Na2 O25 2.632032 1_545
Na2 O11 2.685141 1_556
Na2 O14 2.685141 1_555
Na2 O3 2.802591 1_555
Na3 O28 2.329158 1_455
Na3 O23 2.624441 1_555
Na3 O29 2.632033 1_555
Na3 O15 2.685141 1_554
Na3 O6 2.685141 1_555
Na3 O1 2.802591 1_555
Na4 O29 2.329158 1_565
Na4 O21 2.624441 1_455
Na4 O27 2.632033 1_455
Na4 O16 2.685141 1_554
Na4 O7 2.685141 1_555
Na4 O2 2.802591 1_555
Na5 O27 2.329158 1_555
Na5 O22 2.624441 1_565
Na5 O28 2.632032 1_565
Na5 O17 2.685141 1_554
Na5 O8 2.685141 1_555
Na5 O0 2.802591 1_555
Mn0 O3 1.927394 1_555
Mn0 O0 1.927394 1_555
Mn0 O12 2.071916 1_555
Mn0 O6 2.071916 1_555
Mn0 O20 2.127823 1_555
Mn0 O23 2.127823 1_555
Mn1 O1 1.927394 1_555
Mn1 O4 1.927394 1_455
Mn1 O7 2.071915 1_555
Mn1 O13 2.071915 1_455
Mn1 O21 2.127823 1_455
Mn1 O18 2.127823 1_555
Mn2 O5 1.927394 1_555
Mn2 O2 1.927394 1_545
Mn2 O8 2.071916 1_545
Mn2 O14 2.071916 1_555
Mn2 O22 2.127823 1_555
Mn2 O19 2.127823 1_545
Mn3 O3 1.927394 1_554
Mn3 O0 1.927394 1_555
Mn3 O9 2.071916 1_555
Mn3 O15 2.071916 1_554
Mn3 O20 2.127823 1_554
Mn3 O23 2.127823 1_555
Mn4 O1 1.927394 1_555
Mn4 O4 1.927394 1_454
Mn4 O16 2.071915 1_554
Mn4 O10 2.071915 1_455
Mn4 O21 2.127823 1_455
Mn4 O18 2.127823 1_554
Mn5 O5 1.927394 1_554
Mn5 O2 1.927394 1_545
Mn5 O17 2.071916 1_544
Mn5 O11 2.071916 1_555
Mn5 O22 2.127823 1_555
Mn5 O19 2.127823 1_544
As0 O24 1.688709 1_555
As0 O18 1.725991 1_555
As0 O6 1.742404 1_555
As0 O15 1.742404 1_555
As1 O25 1.688720 1_555
As1 O19 1.725984 1_555
As1 O16 1.742402 1_555
As1 O7 1.742402 1_555
As2 O26 1.688711 1_555
As2 O20 1.725980 1_555
As2 O8 1.742408 1_555
As2 O17 1.742408 1_555
As3 O27 1.688709 1_555
As3 O21 1.725991 1_555
As3 O12 1.742404 1_555
As3 O9 1.742404 1_555
As4 O28 1.688720 1_555
As4 O22 1.725984 1_555
As4 O13 1.742402 1_555
As4 O10 1.742402 1_555
As5 O29 1.688711 1_555
As5 O23 1.725980 1_555
As5 O14 1.742408 1_555
As5 O11 1.742408 1_555
O0 Sm0 2.505634 1_555
O1 Sm0 2.505626 1_555
O2 Sm0 2.505623 1_555
O3 Sm1 2.505634 1_555
O4 Sm1 2.505626 1_555
O5 Sm1 2.505623 1_555
O6 Sm0 2.550718 1_555
O7 Sm0 2.550709 1_555
O8 Sm0 2.550714 1_555
O9 Sm1 2.550718 1_554
O10 Sm1 2.550709 1_554
O11 Sm1 2.550714 1_554
O12 Sm1 2.550718 1_555
O13 Sm1 2.550709 1_555
O14 Sm1 2.550714 1_555
O15 Sm0 2.550718 1_556
O16 Sm0 2.550709 1_556
O17 Sm0 2.550714 1_556
