# generated using pymatgen
data_CeMg6Zn
_symmetry_space_group_name_H-M   'P 1'
_cell_length_a   6.67544197
_cell_length_b   6.67544197
_cell_length_c   5.11056200
_cell_angle_alpha   90.00000000
_cell_angle_beta   90.00000000
_cell_angle_gamma   122.19646077
_symmetry_Int_Tables_number   1
_chemical_formula_structural   CeMg6Zn
_chemical_formula_sum   'Ce1 Mg6 Zn1'
_cell_volume   192.71482146
_cell_formula_units_Z   1
loop_
 _symmetry_equiv_pos_site_id
 _symmetry_equiv_pos_as_xyz
  1  'x, y, z'
loop_
 _atom_site_type_symbol
 _atom_site_label
 _atom_site_symmetry_multiplicity
 _atom_site_fract_x
 _atom_site_fract_y
 _atom_site_fract_z
 _atom_site_occupancy
  Ce  Ce0  1  0.33069500  0.66930500  0.50000000  1
  Mg  Mg0  1  0.32556000  0.16431700  0.50000000  1
  Mg  Mg1  1  0.83568300  0.67444000  0.50000000  1
  Mg  Mg2  1  0.15712700  0.32040600  0.00000000  1
  Mg  Mg3  1  0.67959400  0.84287300  0.00000000  1
  Mg  Mg4  1  0.67036100  0.32963900  0.00000000  1
  Mg  Mg5  1  0.16225600  0.83774400  0.00000000  1
  Zn  Zn0  1  0.83872600  0.16127400  0.50000000  1
loop_
_geom_bond_atom_site_label_1
_geom_bond_atom_site_label_2
_geom_bond_distance
_geom_bond_site_symmetry_2
Ce0 Mg5 3.225727 1_555
Ce0 Mg5 3.225727 1_556
Ce0 Zn0 3.227669 1_455
Ce0 Zn0 3.227669 1_565
Ce0 Mg2 3.228113 1_555
Ce0 Mg3 3.228113 1_555
Ce0 Mg3 3.228113 1_556
Ce0 Mg2 3.228113 1_556
Ce0 Mg1 3.322815 1_455
Ce0 Mg0 3.322815 1_565
Ce0 Mg0 3.352879 1_555
Ce0 Mg1 3.352879 1_555
Mg0 Mg5 3.152429 1_545
Mg0 Mg5 3.152429 1_546
Mg0 Mg1 3.160984 1_445
Mg0 Mg2 3.182420 1_556
Mg0 Mg2 3.182420 1_555
Mg0 Mg4 3.215323 1_556
Mg0 Mg4 3.215323 1_555
Mg0 Zn0 3.239054 1_455
Mg0 Mg1 3.291624 1_555
Mg1 Mg5 3.152429 1_656
Mg1 Mg5 3.152429 1_655
Mg1 Mg3 3.182420 1_556
Mg1 Mg3 3.182420 1_555
Mg1 Mg4 3.215323 1_555
Mg1 Mg4 3.215323 1_556
Mg1 Zn0 3.239054 1_565
Mg2 Mg3 3.081333 1_445
Mg2 Zn0 3.125612 1_455
Mg2 Zn0 3.125612 1_454
Mg2 Mg5 3.240355 1_545
Mg2 Mg4 3.282633 1_455
Mg2 Mg3 3.371275 1_555
Mg2 Mg4 3.393624 1_555
Mg2 Mg5 3.435339 1_555
Mg3 Zn0 3.125612 1_565
Mg3 Zn0 3.125612 1_564
Mg3 Mg5 3.240355 1_655
Mg3 Mg4 3.282633 1_565
Mg3 Mg4 3.393624 1_555
Mg3 Mg5 3.435339 1_555
Mg4 Zn0 3.225200 1_555
Mg4 Zn0 3.225200 1_554
Mg4 Mg5 3.227694 1_655
Mg4 Mg5 3.227694 1_545
