# generated using pymatgen
data_Na2Mo2Se2O11
_symmetry_space_group_name_H-M   'P 1'
_cell_length_a   9.06402887
_cell_length_b   9.06402887
_cell_length_c   9.57422081
_cell_angle_alpha   67.39592650
_cell_angle_beta   67.39592650
_cell_angle_gamma   42.97683756
_symmetry_Int_Tables_number   1
_chemical_formula_structural   Na2Mo2Se2O11
_chemical_formula_sum   'Na4 Mo4 Se4 O22'
_cell_volume   488.33215924
_cell_formula_units_Z   2
loop_
 _symmetry_equiv_pos_site_id
 _symmetry_equiv_pos_as_xyz
  1  'x, y, z'
loop_
 _atom_site_type_symbol
 _atom_site_label
 _atom_site_symmetry_multiplicity
 _atom_site_fract_x
 _atom_site_fract_y
 _atom_site_fract_z
 _atom_site_occupancy
  Na  Na0  1  0.50000000  0.00000000  0.00000000  1
  Na  Na1  1  0.00000000  0.50000000  0.50000000  1
  Na  Na2  1  0.75367200  0.24632800  0.75000000  1
  Na  Na3  1  0.24632800  0.75367200  0.25000000  1
  Mo  Mo0  1  0.82193100  0.38370900  0.27305300  1
  Mo  Mo1  1  0.61629100  0.17806900  0.22694700  1
  Mo  Mo2  1  0.17806900  0.61629100  0.72694700  1
  Mo  Mo3  1  0.38370900  0.82193100  0.77305300  1
  Se  Se0  1  0.41693800  0.91964400  0.38905700  1
  Se  Se1  1  0.08035600  0.58306200  0.11094300  1
  Se  Se2  1  0.58306200  0.08035600  0.61094300  1
  Se  Se3  1  0.91964400  0.41693800  0.88905700  1
  O  O0  1  0.82382600  0.29223800  0.46891800  1
  O  O1  1  0.70776200  0.17617400  0.03108200  1
  O  O2  1  0.17617400  0.70776200  0.53108200  1
  O  O3  1  0.29223800  0.82382600  0.96891800  1
  O  O4  1  0.06643600  0.14742100  0.19303100  1
  O  O5  1  0.85257900  0.93356400  0.30696900  1
  O  O6  1  0.93356400  0.85257900  0.80696900  1
  O  O7  1  0.14742100  0.06643600  0.69303100  1
  O  O8  1  0.62309400  0.37690600  0.25000000  1
  O  O9  1  0.37690600  0.62309400  0.75000000  1
  O  O10  1  0.51830700  0.02928900  0.23604300  1
  O  O11  1  0.97071100  0.48169300  0.26395700  1
  O  O12  1  0.48169300  0.97071100  0.76395700  1
  O  O13  1  0.02928900  0.51830700  0.73604300  1
  O  O14  1  0.51790700  0.72540900  0.29504800  1
  O  O15  1  0.27459100  0.48209300  0.20495200  1
  O  O16  1  0.48209300  0.27459100  0.70495200  1
  O  O17  1  0.72540900  0.51790700  0.79504800  1
  O  O18  1  0.58074100  0.77474300  0.52549900  1
  O  O19  1  0.22525700  0.41925900  0.97450100  1
  O  O20  1  0.41925900  0.22525700  0.47450100  1
  O  O21  1  0.77474300  0.58074100  0.02549900  1
loop_
_geom_bond_atom_site_label_1
_geom_bond_atom_site_label_2
_geom_bond_distance
_geom_bond_site_symmetry_2
Na0 O10 2.453409 1_555
Na0 O12 2.453409 1_544
Na0 O19 2.570808 1_554
Na0 O21 2.570808 1_545
Na1 O11 2.453409 1_455
Na1 O13 2.453409 1_555
Na1 O20 2.570808 1_555
Na1 O18 2.570808 1_455
Na2 O0 2.455729 1_555
Na2 O1 2.455729 1_556
Na2 O17 2.473780 1_555
Na2 O16 2.473780 1_555
Na2 O9 2.501932 1_555
Na2 O6 2.523024 1_545
Na2 O7 2.523024 1_655
Na3 O3 2.455729 1_554
Na3 O2 2.455729 1_555
Na3 O14 2.473780 1_555
Na3 O15 2.473780 1_555
Na3 O8 2.501932 1_555
Na3 O4 2.523024 1_565
Na3 O5 2.523024 1_455
Mo0 O0 1.735804 1_555
Mo0 O4 1.759630 1_655
Mo0 O8 1.944103 1_555
Mo0 O11 2.053709 1_555
Mo0 O14 2.190262 1_555
Mo0 O21 2.323280 1_555
Mo1 O1 1.735804 1_555
Mo1 O5 1.759630 1_545
Mo1 O8 1.944103 1_555
Mo1 O10 2.053709 1_555
Mo1 O15 2.190262 1_555
Mo1 O20 2.323280 1_555
Mo2 O2 1.735804 1_555
Mo2 O6 1.759630 1_455
Mo2 O9 1.944103 1_555
Mo2 O13 2.053709 1_555
Mo2 O16 2.190262 1_555
Mo2 O19 2.323280 1_555
Mo3 O3 1.735804 1_555
Mo3 O7 1.759630 1_565
Mo3 O9 1.944103 1_555
Mo3 O12 2.053709 1_555
Mo3 O17 2.190262 1_555
Mo3 O18 2.323280 1_555
O10 Se0 1.777724 1_545
O11 Se1 1.777724 1_655
O12 Se2 1.777724 1_565
O13 Se3 1.777724 1_455
O14 Se0 1.724668 1_555
O15 Se1 1.724668 1_555
O16 Se2 1.724668 1_555
O17 Se3 1.724668 1_555
O18 Se0 1.718877 1_555
O19 Se1 1.718877 1_556
O20 Se2 1.718877 1_555
O21 Se3 1.718877 1_554
