# generated using pymatgen
data_MgV5(MoO5)5
_symmetry_space_group_name_H-M   'P 1'
_cell_length_a   19.09739548
_cell_length_b   5.49999225
_cell_length_c   6.63359641
_cell_angle_alpha   103.83411132
_cell_angle_beta   109.46656029
_cell_angle_gamma   45.92421616
_symmetry_Int_Tables_number   1
_chemical_formula_structural   MgV5(MoO5)5
_chemical_formula_sum   'Mg1 V5 Mo5 O25'
_cell_volume   471.92711925
_cell_formula_units_Z   1
loop_
 _symmetry_equiv_pos_site_id
 _symmetry_equiv_pos_as_xyz
  1  'x, y, z'
loop_
 _atom_site_type_symbol
 _atom_site_label
 _atom_site_symmetry_multiplicity
 _atom_site_fract_x
 _atom_site_fract_y
 _atom_site_fract_z
 _atom_site_occupancy
  Mg  Mg0  1  0.64072600  0.57135200  0.24877800  1
  V  V0  1  0.03148700  0.14237400  0.61307700  1
  V  V1  1  0.22228500  0.16759300  0.61463100  1
  V  V2  1  0.40469800  0.99878000  0.99634200  1
  V  V3  1  0.59461900  0.00409000  0.97959400  1
  V  V4  1  0.79790600  0.98328200  0.98301100  1
  Mo  Mo0  1  0.99438400  0.02389000  0.01685100  1
  Mo  Mo1  1  0.20219200  0.00679300  0.01085500  1
  Mo  Mo2  1  0.41410200  0.17405900  0.58813200  1
  Mo  Mo3  1  0.62915900  0.11967600  0.59099200  1
  Mo  Mo4  1  0.83416000  0.09988900  0.58308700  1
  O  O0  1  0.01946700  0.05903900  0.29919300  1
  O  O1  1  0.07468100  0.08761900  0.93303000  1
  O  O2  1  0.14730300  0.08630400  0.68098800  1
  O  O3  1  0.08563700  0.58020200  0.99079700  1
  O  O4  1  0.20968400  0.09693700  0.29307000  1
  O  O5  1  0.13757000  0.59141900  0.60803200  1
  O  O6  1  0.28271400  0.05523300  0.93985200  1
  O  O7  1  0.35398700  0.04829400  0.67174800  1
  O  O8  1  0.28518100  0.56550600  0.00820600  1
  O  O9  1  0.40401400  0.09503100  0.30521300  1
  O  O10  1  0.32098200  0.61407700  0.58531600  1
  O  O11  1  0.46526900  0.12949100  0.91989300  1
  O  O12  1  0.53141000  0.12273400  0.66083700  1
  O  O13  1  0.51782700  0.59562100  0.06149000  1
  O  O14  1  0.59599100  0.04089500  0.27695200  1
  O  O15  1  0.54752000  0.56284900  0.57970600  1
  O  O16  1  0.68066300  0.04215600  0.91588100  1
  O  O17  1  0.75981300  0.01772700  0.66045400  1
  O  O18  1  0.67557300  0.57044300  0.98106100  1
  O  O19  1  0.78733500  0.10606700  0.28029700  1
  O  O20  1  0.71675800  0.57798700  0.56295900  1
  O  O21  1  0.87856200  0.08345000  0.94274700  1
  O  O22  1  0.93842300  0.09704000  0.65367300  1
  O  O23  1  0.89307700  0.56018600  0.00872900  1
  O  O24  1  0.94142300  0.57144200  0.58619700  1
loop_
_geom_bond_atom_site_label_1
_geom_bond_atom_site_label_2
_geom_bond_distance
_geom_bond_site_symmetry_2
Mg0 O14 2.059178 1_565
Mg0 O19 2.080699 1_555
Mg0 O18 2.091808 1_554
Mg0 O20 2.115110 1_555
Mg0 O13 2.184019 1_555
Mo0 O3 1.761958 1_644
Mo0 O0 1.769872 1_655
Mo0 O21 1.893597 1_554
Mo0 O1 2.047638 1_654
Mo0 O23 2.124522 1_555
Mo0 O22 2.292903 1_554
Mo1 O8 1.746288 1_545
Mo1 O4 1.802034 1_555
Mo1 O6 1.941716 1_554
Mo1 O1 2.039561 1_554
Mo1 O2 2.090297 1_554
Mo1 O3 2.270567 1_554
Mo2 O10 1.741185 1_555
Mo2 O9 1.798251 1_555
Mo2 O12 1.948406 1_555
Mo2 O7 1.953664 1_555
Mo2 O11 2.085598 1_555
Mo2 O15 2.425840 1_545
Mo3 O15 1.760704 1_555
Mo3 O14 1.999854 1_555
Mo3 O17 2.040425 1_555
Mo3 O12 2.056400 1_555
Mo3 O16 2.058437 1_555
Mo3 O20 2.172052 1_545
Mo4 O22 1.876930 1_555
Mo4 O19 1.904847 1_555
Mo4 O20 1.930147 1_555
Mo4 O17 1.993173 1_555
Mo4 O24 2.088450 1_545
Mo4 O21 2.251115 1_555
O0 V0 1.992399 1_555
O1 V0 2.017184 1_555
O2 V0 1.908779 1_555
O2 V1 1.961907 1_555
O4 V1 2.037305 1_555
O5 V1 1.675719 1_555
O5 V0 2.178032 1_565
O6 V2 2.032552 1_545
O6 V1 2.086622 1_555
O7 V1 2.021860 1_555
O7 V2 2.042565 1_545
O8 V2 2.244140 1_544
O9 V2 1.991989 1_544
O10 V1 2.199241 1_565
O11 V2 1.958152 1_545
O11 V3 1.960347 1_555
O12 V3 2.053492 1_555
O13 V2 1.715333 1_554
O13 V3 2.465465 1_554
O14 V3 1.927331 1_554
O16 V4 1.926701 1_545
O16 V3 1.976474 1_555
O17 V4 2.026848 1_545
O18 V3 1.717538 1_565
O18 V4 2.321793 1_545
O19 V4 1.955681 1_544
O21 V4 2.067029 1_545
O22 V0 2.064228 1_655
O23 V4 1.687209 1_554
O24 V0 1.705601 1_655
