# generated using pymatgen
data_VZnF5
_symmetry_space_group_name_H-M   'P 1'
_cell_length_a   9.89247700
_cell_length_b   5.21795800
_cell_length_c   7.62637404
_cell_angle_alpha   69.83831007
_cell_angle_beta   90.00000000
_cell_angle_gamma   90.00000000
_symmetry_Int_Tables_number   1
_chemical_formula_structural   VZnF5
_chemical_formula_sum   'V4 Zn4 F20'
_cell_volume   369.54004658
_cell_formula_units_Z   4
loop_
 _symmetry_equiv_pos_site_id
 _symmetry_equiv_pos_as_xyz
  1  'x, y, z'
loop_
 _atom_site_type_symbol
 _atom_site_label
 _atom_site_symmetry_multiplicity
 _atom_site_fract_x
 _atom_site_fract_y
 _atom_site_fract_z
 _atom_site_occupancy
  V  V0  1  0.75347400  0.09908500  0.60445900  1
  V  V1  1  0.25347400  0.90091500  0.89554100  1
  V  V2  1  0.24652600  0.90091500  0.39554100  1
  V  V3  1  0.74652600  0.09908500  0.10445900  1
  Zn  Zn0  1  0.00653200  0.51789900  0.75191900  1
  Zn  Zn1  1  0.50653200  0.48210100  0.74808100  1
  Zn  Zn2  1  0.99346800  0.48210100  0.24808100  1
  Zn  Zn3  1  0.49346800  0.51789900  0.25191900  1
  F  F0  1  0.88572600  0.39249700  0.57725400  1
  F  F1  1  0.38572600  0.60750300  0.92274600  1
  F  F2  1  0.11427400  0.60750300  0.42274600  1
  F  F3  1  0.61427400  0.39249700  0.07725400  1
  F  F4  1  0.60718900  0.34991400  0.49518100  1
  F  F5  1  0.10718900  0.65008600  0.00481900  1
  F  F6  1  0.39281100  0.65008600  0.50481900  1
  F  F7  1  0.89281100  0.34991400  0.99518100  1
  F  F8  1  0.40348400  0.14650600  0.79290700  1
  F  F9  1  0.90348400  0.85349400  0.70709300  1
  F  F10  1  0.59651600  0.85349400  0.20709300  1
  F  F11  1  0.09651600  0.14650600  0.29290700  1
  F  F12  1  0.13716400  0.22103600  0.84660800  1
  F  F13  1  0.63716400  0.77896400  0.65339200  1
  F  F14  1  0.86283600  0.77896400  0.15339200  1
  F  F15  1  0.36283600  0.22103600  0.34660800  1
  F  F16  1  0.68285800  0.14585100  0.84222400  1
  F  F17  1  0.18285800  0.85414900  0.65777600  1
  F  F18  1  0.31714200  0.85414900  0.15777600  1
  F  F19  1  0.81714200  0.14585100  0.34222400  1
loop_
_geom_bond_atom_site_label_1
_geom_bond_atom_site_label_2
_geom_bond_distance
_geom_bond_site_symmetry_2
F0 V0 1.969701 1_555
F0 Zn0 2.057083 1_655
F1 V1 1.969701 1_555
F1 Zn1 2.057083 1_555
F2 V2 1.969701 1_555
F2 Zn2 2.057083 1_455
F3 V3 1.969701 1_555
F3 Zn3 2.057083 1_555
F4 V0 1.936439 1_555
F4 Zn3 2.086796 1_555
F5 V1 1.936439 1_554
F5 Zn2 2.086796 1_455
F6 V2 1.936439 1_555
F6 Zn1 2.086796 1_555
F7 V3 1.936439 1_556
F7 Zn0 2.086796 1_655
F8 V1 1.940511 1_545
F8 Zn1 1.951871 1_555
F9 V0 1.940511 1_565
F9 Zn0 1.951871 1_655
F10 V3 1.940511 1_565
F10 Zn3 1.951871 1_555
F11 V2 1.940511 1_545
F11 Zn2 1.951871 1_455
F12 Zn0 1.954434 1_555
F12 V1 1.955400 1_545
F13 Zn1 1.954434 1_555
F13 V0 1.955400 1_565
F14 Zn2 1.954434 1_555
F14 V3 1.955400 1_565
F15 Zn3 1.954434 1_555
F15 V2 1.955400 1_545
F16 V3 2.029639 1_556
F16 V0 2.034838 1_555
F16 Zn1 2.401688 1_555
F17 V2 2.029639 1_555
F17 V1 2.034838 1_555
F17 Zn0 2.401688 1_555
F18 V1 2.029639 1_554
F18 V2 2.034838 1_555
F18 Zn3 2.401688 1_555
F19 V0 2.029639 1_555
F19 V3 2.034838 1_555
F19 Zn2 2.401688 1_555
