# generated using pymatgen
data_LuTa3
_symmetry_space_group_name_H-M   'P 1'
_cell_length_a   6.23925857
_cell_length_b   6.23925845
_cell_length_c   4.99144959
_cell_angle_alpha   90.00000000
_cell_angle_beta   90.00000000
_cell_angle_gamma   119.99999531
_symmetry_Int_Tables_number   1
_chemical_formula_structural   LuTa3
_chemical_formula_sum   'Lu2 Ta6'
_cell_volume   168.27643448
_cell_formula_units_Z   2
loop_
 _symmetry_equiv_pos_site_id
 _symmetry_equiv_pos_as_xyz
  1  'x, y, z'
loop_
 _atom_site_type_symbol
 _atom_site_label
 _atom_site_symmetry_multiplicity
 _atom_site_fract_x
 _atom_site_fract_y
 _atom_site_fract_z
 _atom_site_occupancy
  Lu  Lu0  1  0.33333200  0.66666500  0.75000100  1
  Lu  Lu1  1  0.66666700  0.33333200  0.25000000  1
  Ta  Ta0  1  0.14948701  0.29897303  0.25000000  1
  Ta  Ta1  1  0.70102697  0.85051299  0.25000000  1
  Ta  Ta2  1  0.14948701  0.85051299  0.25000000  1
  Ta  Ta3  1  0.85051299  0.70102697  0.75000100  1
  Ta  Ta4  1  0.29897203  0.14948601  0.75000100  1
  Ta  Ta5  1  0.85051399  0.14948601  0.75000100  1
loop_
_geom_bond_atom_site_label_1
_geom_bond_atom_site_label_2
_geom_bond_distance
_geom_bond_site_symmetry_2
Lu0 Ta5 3.125140 1_455
Lu0 Ta4 3.125143 1_555
Lu0 Ta3 3.125150 1_455
Lu0 Ta3 3.125150 1_555
Lu0 Ta4 3.125155 1_565
Lu0 Ta5 3.125159 1_565
Lu0 Ta0 3.189965 1_556
Lu0 Ta2 3.189968 1_556
Lu0 Ta0 3.189973 1_555
Lu0 Ta1 3.189975 1_556
Lu0 Ta2 3.189976 1_555
Lu0 Ta1 3.189983 1_555
Lu1 Ta1 3.125143 1_545
Lu1 Ta0 3.125146 1_655
Lu1 Ta2 3.125146 1_545
Lu1 Ta0 3.125152 1_555
Lu1 Ta2 3.125153 1_655
Lu1 Ta1 3.125155 1_555
Lu1 Ta5 3.189968 1_554
Lu1 Ta3 3.189975 1_554
Lu1 Ta4 3.189975 1_554
Lu1 Ta5 3.189976 1_555
Lu1 Ta3 3.189983 1_555
Lu1 Ta4 3.189983 1_555
Ta0 Ta2 2.798058 1_545
Ta0 Ta1 2.798058 1_445
Ta0 Ta4 2.972929 1_554
Ta0 Ta5 2.972931 1_454
Ta0 Ta4 2.972937 1_555
Ta0 Ta5 2.972940 1_455
Ta0 Ta2 3.441200 1_555
Ta0 Ta1 3.441201 1_555
Ta1 Ta2 2.798058 1_655
Ta1 Ta3 2.972929 1_554
Ta1 Ta5 2.972931 1_564
Ta1 Ta3 2.972937 1_555
Ta1 Ta5 2.972940 1_565
Ta1 Ta2 3.441200 1_555
Ta2 Ta4 2.972931 1_564
Ta2 Ta3 2.972934 1_454
Ta2 Ta4 2.972940 1_565
Ta2 Ta3 2.972943 1_455
Ta3 Ta5 2.798049 1_565
Ta3 Ta4 2.798052 1_665
Ta3 Ta4 3.441207 1_555
Ta3 Ta5 3.441210 1_555
Ta4 Ta5 2.798046 1_455
Ta4 Ta5 3.441213 1_555
