# generated using pymatgen
data_LiCr4InS8
_symmetry_space_group_name_H-M   'P 1'
_cell_length_a   7.30975066
_cell_length_b   7.30975066
_cell_length_c   7.30975065
_cell_angle_alpha   58.45928399
_cell_angle_beta   58.45928399
_cell_angle_gamma   58.45928187
_symmetry_Int_Tables_number   1
_chemical_formula_structural   LiCr4InS8
_chemical_formula_sum   'Li1 Cr4 In1 S8'
_cell_volume   266.44404038
_cell_formula_units_Z   1
loop_
 _symmetry_equiv_pos_site_id
 _symmetry_equiv_pos_as_xyz
  1  'x, y, z'
loop_
 _atom_site_type_symbol
 _atom_site_label
 _atom_site_symmetry_multiplicity
 _atom_site_fract_x
 _atom_site_fract_y
 _atom_site_fract_z
 _atom_site_occupancy
  Li  Li0  1  0.37437400  0.37437400  0.37437400  1
  Cr  Cr0  1  0.48813900  0.00388500  0.00388500  1
  Cr  Cr1  1  0.00388500  0.00388500  0.48813900  1
  Cr  Cr2  1  0.00388500  0.48813900  0.00388500  1
  Cr  Cr3  1  0.62727700  0.62727700  0.62727700  1
  In  In0  1  0.00330600  0.00330600  0.00330600  1
  S  S0  1  0.23055000  0.74483300  0.74483300  1
  S  S1  1  0.74483300  0.74483300  0.23055000  1
  S  S2  1  0.74483300  0.23055000  0.74483300  1
  S  S3  1  0.75913200  0.75913200  0.75913200  1
  S  S4  1  0.77470300  0.25411400  0.25411400  1
  S  S5  1  0.25411400  0.25411400  0.77470300  1
  S  S6  1  0.25411400  0.77470300  0.25411400  1
  S  S7  1  0.23685500  0.23685500  0.23685500  1
loop_
_geom_bond_atom_site_label_1
_geom_bond_atom_site_label_2
_geom_bond_distance
_geom_bond_site_symmetry_2
Li0 S4 2.352588 1_555
Li0 S6 2.352588 1_555
Li0 S5 2.352588 1_555
Li0 S7 2.490582 1_555
Cr0 S5 2.365871 1_554
Cr0 S6 2.365871 1_545
Cr0 S7 2.379693 1_555
Cr0 S1 2.470736 1_545
Cr0 S2 2.470736 1_554
Cr0 S3 2.501761 1_544
Cr1 S4 2.365871 1_455
Cr1 S6 2.365871 1_545
Cr1 S7 2.379693 1_555
Cr1 S2 2.470736 1_455
Cr1 S0 2.470736 1_545
Cr1 S3 2.501761 1_445
Cr2 S5 2.365871 1_554
Cr2 S4 2.365871 1_455
Cr2 S7 2.379693 1_555
Cr2 S1 2.470736 1_455
Cr2 S0 2.470736 1_554
Cr2 S3 2.501761 1_454
Cr3 S0 2.333445 1_555
Cr3 S2 2.333445 1_555
Cr3 S1 2.333445 1_555
Cr3 S3 2.388002 1_555
In0 S6 2.573098 1_545
In0 S4 2.573098 1_455
In0 S5 2.573098 1_554
In0 S0 2.658285 1_544
In0 S2 2.658285 1_454
In0 S1 2.658285 1_445
