# generated using pymatgen
data_InGa(CuTe2)2
_symmetry_space_group_name_H-M   'P 1'
_cell_length_a   6.16975600
_cell_length_b   6.16975600
_cell_length_c   7.53564167
_cell_angle_alpha   65.83463993
_cell_angle_beta   65.83463993
_cell_angle_gamma   90.00000000
_symmetry_Int_Tables_number   1
_chemical_formula_structural   InGa(CuTe2)2
_chemical_formula_sum   'In1 Ga1 Cu2 Te4'
_cell_volume   233.88991729
_cell_formula_units_Z   1
loop_
 _symmetry_equiv_pos_site_id
 _symmetry_equiv_pos_as_xyz
  1  'x, y, z'
loop_
 _atom_site_type_symbol
 _atom_site_label
 _atom_site_symmetry_multiplicity
 _atom_site_fract_x
 _atom_site_fract_y
 _atom_site_fract_z
 _atom_site_occupancy
  In  In0  1  0.50000000  0.50000000  0.00000000  1
  Ga  Ga0  1  0.25000000  0.75000000  0.50000000  1
  Cu  Cu0  1  0.75000000  0.25000000  0.50000000  1
  Cu  Cu1  1  0.00000000  0.00000000  0.00000000  1
  Te  Te0  1  0.36755700  0.90252900  0.73996700  1
  Te  Te1  1  0.89247600  0.35750400  0.73996700  1
  Te  Te2  1  0.09747100  0.10752400  0.26003300  1
  Te  Te3  1  0.64249600  0.63244300  0.26003300  1
loop_
_geom_bond_atom_site_label_1
_geom_bond_atom_site_label_2
_geom_bond_distance
_geom_bond_site_symmetry_2
In0 Te3 2.828746 1_555
In0 Te1 2.828746 1_554
In0 Te0 2.828746 1_554
In0 Te2 2.828747 1_555
Ga0 Te0 2.673714 1_555
Ga0 Te2 2.673714 1_565
Ga0 Te3 2.673714 1_555
Ga0 Te1 2.673715 1_455
Cu0 Te1 2.601167 1_555
Cu0 Te2 2.601167 1_655
Cu0 Te3 2.601167 1_555
Cu0 Te0 2.601168 1_545
Cu1 Te2 2.582744 1_555
Cu1 Te1 2.582744 1_454
Cu1 Te0 2.582744 1_544
Cu1 Te3 2.582744 1_445
