# generated using pymatgen
data_La2CoSn4
_symmetry_space_group_name_H-M   'P 1'
_cell_length_a   4.61045487
_cell_length_b   4.65081784
_cell_length_c   8.87446791
_cell_angle_alpha   74.82876948
_cell_angle_beta   90.00799554
_cell_angle_gamma   90.06781375
_symmetry_Int_Tables_number   1
_chemical_formula_structural   La2CoSn4
_chemical_formula_sum   'La2 Co1 Sn4'
_cell_volume   183.65765831
_cell_formula_units_Z   1
loop_
 _symmetry_equiv_pos_site_id
 _symmetry_equiv_pos_as_xyz
  1  'x, y, z'
loop_
 _atom_site_type_symbol
 _atom_site_label
 _atom_site_symmetry_multiplicity
 _atom_site_fract_x
 _atom_site_fract_y
 _atom_site_fract_z
 _atom_site_occupancy
  La  La0  1  0.24992100  0.89818800  0.20366100  1
  La  La1  1  0.74992200  0.10265700  0.79456000  1
  Co  Co0  1  0.25014100  0.69663900  0.60699100  1
  Sn  Sn0  1  0.24998500  0.55121400  0.89770000  1
  Sn  Sn1  1  0.74991500  0.43651300  0.12679900  1
  Sn  Sn2  1  0.24997300  0.25793800  0.48426000  1
  Sn  Sn3  1  0.75014400  0.75685200  0.48602800  1
loop_
_geom_bond_atom_site_label_1
_geom_bond_atom_site_label_2
_geom_bond_distance
_geom_bond_site_symmetry_2
La0 Sn1 3.337725 1_565
La0 Sn1 3.338297 1_455
La0 Sn3 3.340152 1_455
La0 Sn1 3.341722 1_465
La0 Sn1 3.341898 1_555
La0 Sn3 3.342162 1_555
La0 Sn2 3.343803 1_565
La0 Sn2 3.344623 1_555
La0 Sn0 3.502854 1_554
La0 Sn0 3.504320 1_564
La0 La1 4.193973 1_564
La0 La1 4.194648 1_464
La1 Sn0 3.389089 1_545
La1 Sn0 3.390093 1_655
La1 Sn0 3.393228 1_555
La1 Sn0 3.393437 1_645
La1 Sn2 3.518061 1_655
La1 Sn2 3.518369 1_555
La1 Sn3 3.519712 1_545
La1 Sn3 3.520465 1_555
La1 Sn1 3.674290 1_556
La1 Sn1 3.675662 1_546
Co0 Sn0 2.489974 1_555
Co0 Sn3 2.527200 1_555
Co0 Sn3 2.527506 1_455
Co0 Sn2 2.551929 1_555
Co0 Sn2 2.552020 1_565
Co0 La1 3.644146 1_565
Co0 La1 3.646931 1_455
Co0 La1 3.648542 1_465
Co0 La1 3.649494 1_555
Sn0 Sn1 3.027289 1_456
Sn0 Sn1 3.027327 1_556
