# generated using pymatgen
data_Tm2GaNi2
_symmetry_space_group_name_H-M   'P 1'
_cell_length_a   4.14434333
_cell_length_b   5.22014904
_cell_length_c   5.22014904
_cell_angle_alpha   60.50879680
_cell_angle_beta   66.61194711
_cell_angle_gamma   66.61194711
_symmetry_Int_Tables_number   1
_chemical_formula_structural   Tm2GaNi2
_chemical_formula_sum   'Tm2 Ga1 Ni2'
_cell_volume   87.30591342
_cell_formula_units_Z   1
loop_
 _symmetry_equiv_pos_site_id
 _symmetry_equiv_pos_as_xyz
  1  'x, y, z'
loop_
 _atom_site_type_symbol
 _atom_site_label
 _atom_site_symmetry_multiplicity
 _atom_site_fract_x
 _atom_site_fract_y
 _atom_site_fract_z
 _atom_site_occupancy
  Tm  Tm0  1  0.20171653  0.29828347  0.29828347  1
  Tm  Tm1  1  0.79828347  0.70171653  0.70171653  1
  Ga  Ga0  1  0.00000000  -0.00000000  -0.00000000  1
  Ni  Ni0  1  0.50000000  0.26721017  0.73278983  1
  Ni  Ni1  1  0.50000000  0.73278983  0.26721017  1
loop_
_geom_bond_atom_site_label_1
_geom_bond_atom_site_label_2
_geom_bond_distance
_geom_bond_site_symmetry_2
Tm0 Tm1 3.231347 1_455
Tm0 Tm1 3.436522 1_545
Tm0 Tm1 3.436522 1_554
Tm0 Tm1 3.436522 1_445
Tm0 Tm1 3.436522 1_454
Ga0 Ni0 2.503913 1_554
Ga0 Ni1 2.503913 1_545
Ga0 Ni1 2.503913 1_445
Ga0 Ni0 2.503913 1_454
Ga0 Tm0 3.086736 1_545
Ga0 Tm1 3.086736 1_445
Ga0 Tm1 3.086736 1_454
Ga0 Tm0 3.086736 1_554
Ga0 Tm0 3.162574 1_455
Ga0 Tm1 3.162574 1_544
Ga0 Tm0 3.162575 1_555
Ga0 Tm1 3.162575 1_444
Ni0 Ni1 2.449062 1_555
Ni0 Tm0 2.771943 1_556
Ni0 Tm1 2.771943 1_545
Ni0 Ni1 2.811181 1_546
Ni0 Tm1 2.898926 1_455
Ni0 Tm0 2.898926 1_655
Ni0 Tm0 2.898926 1_555
Ni0 Tm1 2.898926 1_555
Ni1 Tm0 2.771943 1_565
Ni1 Tm1 2.771943 1_554
Ni1 Tm1 2.898926 1_455
Ni1 Tm0 2.898926 1_655
Ni1 Tm1 2.898926 1_555
Ni1 Tm0 2.898926 1_555
