# generated using pymatgen
data_Sr10Fe5Mo4WO30
_symmetry_space_group_name_H-M   'P 1'
_cell_length_a   5.66418000
_cell_length_b   8.05299528
_cell_length_c   14.93387084
_cell_angle_alpha   105.63293691
_cell_angle_beta   99.67377628
_cell_angle_gamma   90.03236541
_symmetry_Int_Tables_number   1
_chemical_formula_structural   Sr10Fe5Mo4WO30
_chemical_formula_sum   'Sr10 Fe5 Mo4 W1 O30'
_cell_volume   645.90679158
_cell_formula_units_Z   1
loop_
 _symmetry_equiv_pos_site_id
 _symmetry_equiv_pos_as_xyz
  1  'x, y, z'
loop_
 _atom_site_type_symbol
 _atom_site_label
 _atom_site_symmetry_multiplicity
 _atom_site_fract_x
 _atom_site_fract_y
 _atom_site_fract_z
 _atom_site_occupancy
  Sr  Sr0  1  0.09813400  0.34678000  0.20304400  1
  Sr  Sr1  1  0.69765900  0.95028000  0.39951900  1
  Sr  Sr2  1  0.29818600  0.55031800  0.59934500  1
  Sr  Sr3  1  0.89855200  0.14405500  0.79609600  1
  Sr  Sr4  1  0.49911500  0.75713900  0.99964900  1
  Sr  Sr5  1  0.50088500  0.24286100  0.00035100  1
  Sr  Sr6  1  0.10144800  0.85594500  0.20390400  1
  Sr  Sr7  1  0.70181400  0.44968200  0.40065500  1
  Sr  Sr8  1  0.30234100  0.04972000  0.60048100  1
  Sr  Sr9  1  0.90186600  0.65322000  0.79695600  1
  Fe  Fe0  1  0.00000000  0.00000000  0.00000000  1
  Fe  Fe1  1  0.60369500  0.60045800  0.20099900  1
  Fe  Fe2  1  0.19998900  0.20017600  0.40041600  1
  Fe  Fe3  1  0.80001100  0.79982400  0.59958400  1
  Fe  Fe4  1  0.39630500  0.39954200  0.79900100  1
  Mo  Mo0  1  0.59813600  0.09948400  0.20005700  1
  Mo  Mo1  1  0.20122500  0.69984700  0.39996800  1
  Mo  Mo2  1  0.79877500  0.30015300  0.60003200  1
  Mo  Mo3  1  0.40186400  0.90051600  0.79994300  1
  W  W0  1  0.00000000  0.50000000  0.00000000  1
  O  O0  1  0.30165300  0.05091900  0.10163200  1
  O  O1  1  0.89797100  0.64956200  0.29989000  1
  O  O2  1  0.49817200  0.25047700  0.50098600  1
  O  O3  1  0.09797800  0.84903700  0.69790300  1
  O  O4  1  0.71022000  0.45119000  0.90255100  1
  O  O5  1  0.28978000  0.54881000  0.09744900  1
  O  O6  1  0.90202200  0.15096300  0.30209700  1
  O  O7  1  0.50182800  0.74952300  0.49901400  1
  O  O8  1  0.10202900  0.35043800  0.70011000  1
  O  O9  1  0.69834700  0.94908100  0.89836800  1
  O  O10  1  0.57073600  0.85313400  0.21170100  1
  O  O11  1  0.17862300  0.45486300  0.41088900  1
  O  O12  1  0.77736500  0.05502300  0.61046500  1
  O  O13  1  0.38354500  0.65354600  0.81128100  1
  O  O14  1  0.97666900  0.26859800  0.01200400  1
  O  O15  1  0.61645500  0.34645400  0.18871900  1
  O  O16  1  0.22263500  0.94497700  0.38953500  1
  O  O17  1  0.82137700  0.54513700  0.58911100  1
  O  O18  1  0.42926400  0.14686600  0.78829900  1
  O  O19  1  0.02333100  0.73140200  0.98799600  1
  O  O20  1  0.19957400  0.42142600  0.90270900  1
  O  O21  1  0.79179600  0.02626700  0.10650900  1
  O  O22  1  0.39196000  0.62299000  0.30187500  1
  O  O23  1  0.99630100  0.22517400  0.50399800  1
  O  O24  1  0.59389400  0.82462100  0.70029700  1
  O  O25  1  0.40610600  0.17537900  0.29970300  1
  O  O26  1  0.00369900  0.77482600  0.49600200  1
  O  O27  1  0.60804000  0.37701000  0.69812500  1
  O  O28  1  0.20820400  0.97373300  0.89349100  1
  O  O29  1  0.80042600  0.57857400  0.09729100  1
loop_
_geom_bond_atom_site_label_1
_geom_bond_atom_site_label_2
_geom_bond_distance
_geom_bond_site_symmetry_2
Fe0 O0 2.045326 1_555
Fe0 O9 2.045326 1_444
Fe0 O21 2.101154 1_455
Fe0 O28 2.101154 1_544
Fe0 O19 2.127805 1_544
Fe0 O14 2.127805 1_455
Fe1 O1 1.993222 1_555
Fe1 O15 2.006327 1_555
Fe1 O10 2.008977 1_555
Fe1 O29 2.025971 1_555
Fe1 O22 2.049592 1_555
Fe1 O5 2.110529 1_555
Fe2 O6 2.003544 1_455
Fe2 O11 2.019762 1_555
Fe2 O2 2.022675 1_555
Fe2 O25 2.023250 1_555
Fe2 O16 2.023286 1_545
Fe2 O23 2.048577 1_455
Fe3 O3 2.003544 1_655
Fe3 O17 2.019762 1_555
Fe3 O7 2.022675 1_555
Fe3 O24 2.023250 1_555
Fe3 O12 2.023286 1_565
Fe3 O26 2.048577 1_655
Fe4 O8 1.993222 1_555
Fe4 O13 2.006327 1_555
Fe4 O18 2.008977 1_555
Fe4 O20 2.025971 1_555
Fe4 O27 2.049592 1_555
Fe4 O4 2.110529 1_555
Mo0 O21 1.890610 1_555
Mo0 O25 1.955917 1_555
Mo0 O0 1.998373 1_555
Mo0 O15 2.045022 1_555
Mo0 O10 2.045642 1_545
Mo0 O6 2.057657 1_555
Mo1 O22 1.933957 1_555
Mo1 O26 1.935582 1_555
Mo1 O7 2.020122 1_555
Mo1 O16 2.026726 1_555
Mo1 O11 2.028617 1_555
Mo1 O1 2.039211 1_455
Mo2 O27 1.933957 1_555
Mo2 O23 1.935582 1_555
Mo2 O2 2.020122 1_555
Mo2 O12 2.026726 1_555
Mo2 O17 2.028617 1_555
Mo2 O8 2.039211 1_655
Mo3 O28 1.890610 1_555
Mo3 O24 1.955917 1_555
Mo3 O9 1.998373 1_555
Mo3 O13 2.045022 1_555
Mo3 O18 2.045642 1_565
Mo3 O3 2.057657 1_555
O0 Sr5 2.789637 1_555
O0 Sr4 2.793047 1_544
O0 Sr0 2.818558 1_555
O0 Sr6 2.820716 1_545
O1 Sr7 2.820490 1_555
O1 Sr0 2.824196 1_655
O1 Sr6 2.825309 1_655
O1 Sr1 2.827387 1_555
O2 Sr8 2.810395 1_555
O2 Sr2 2.814584 1_555
O2 Sr1 2.832196 1_545
O2 Sr7 2.832505 1_555
O3 Sr9 2.777795 1_455
O3 Sr3 2.784372 1_465
O3 Sr2 2.809798 1_555
O3 Sr8 2.810598 1_565
O4 W0 1.963329 1_656
O4 Sr3 2.869947 1_555
O4 Sr5 2.872976 1_556
O4 Sr4 2.874604 1_555
O4 Sr9 2.875426 1_555
O5 W0 1.963329 1_555
O5 Sr6 2.869947 1_555
O5 Sr4 2.872976 1_554
O5 Sr5 2.874604 1_555
O5 Sr0 2.875426 1_555
O6 Sr0 2.777795 1_655
O6 Sr6 2.784372 1_645
O6 Sr7 2.809798 1_555
O6 Sr1 2.810598 1_545
O7 Sr1 2.810395 1_555
O7 Sr7 2.814584 1_555
O7 Sr8 2.832196 1_565
O7 Sr2 2.832505 1_555
O8 Sr2 2.820490 1_555
O8 Sr9 2.824196 1_455
O8 Sr3 2.825309 1_455
O8 Sr8 2.827387 1_555
O9 Sr4 2.789637 1_555
O9 Sr5 2.793047 1_566
O9 Sr9 2.818558 1_555
O9 Sr3 2.820716 1_565
O10 Sr6 2.641440 1_555
O10 Sr1 2.671165 1_555
O10 Sr4 3.006502 1_554
O10 Sr6 3.028098 1_655
O11 Sr2 2.676407 1_555
O11 Sr7 2.678949 1_455
O11 Sr0 2.944104 1_555
O11 Sr7 2.992664 1_555
O12 Sr3 2.637989 1_555
O12 Sr8 2.669291 1_555
O12 Sr1 2.988112 1_545
O12 Sr8 3.001969 1_655
O13 Sr4 2.674607 1_555
O13 Sr9 2.700559 1_455
O13 Sr9 2.979236 1_555
O13 Sr2 3.001575 1_555
O14 W0 1.926104 1_655
O14 Sr5 2.675478 1_555
O14 Sr0 2.716787 1_655
O14 Sr5 3.007428 1_655
O14 Sr3 3.061898 1_554
O15 Sr5 2.674607 1_555
O15 Sr0 2.700559 1_655
O15 Sr0 2.979236 1_555
O15 Sr7 3.001575 1_555
O16 Sr6 2.637989 1_555
O16 Sr1 2.669291 1_555
O16 Sr8 2.988112 1_565
O16 Sr1 3.001969 1_455
O17 Sr7 2.676407 1_555
O17 Sr2 2.678949 1_655
O17 Sr9 2.944104 1_555
O17 Sr2 2.992664 1_555
O18 Sr3 2.641440 1_555
O18 Sr8 2.671165 1_555
O18 Sr5 3.006502 1_556
O18 Sr3 3.028098 1_455
O19 W0 1.926104 1_556
O19 Sr4 2.675478 1_555
O19 Sr9 2.716787 1_455
O19 Sr4 3.007428 1_455
O19 Sr6 3.061898 1_556
O20 W0 1.961263 1_556
O20 Sr5 2.720901 1_556
O20 Sr3 2.756457 1_455
O20 Sr4 3.056685 1_555
O20 Sr9 3.085350 1_455
O21 Sr4 2.689781 1_544
O21 Sr6 2.700671 1_645
O21 Sr5 2.981015 1_555
O21 Sr0 2.983277 1_655
O22 Sr0 2.701251 1_555
O22 Sr7 2.728822 1_555
O22 Sr6 3.006874 1_555
O22 Sr1 3.024271 1_555
O23 Sr8 2.708861 1_655
O23 Sr1 2.728302 1_545
O23 Sr2 2.995763 1_655
O23 Sr7 3.012457 1_555
O24 Sr9 2.694833 1_555
O24 Sr2 2.703732 1_555
O24 Sr3 2.970468 1_565
O24 Sr8 2.977833 1_565
O25 Sr0 2.694833 1_555
O25 Sr7 2.703732 1_555
O25 Sr6 2.970468 1_545
O25 Sr1 2.977833 1_545
O26 Sr1 2.708861 1_455
O26 Sr8 2.728302 1_565
O26 Sr7 2.995763 1_455
O26 Sr2 3.012457 1_555
O27 Sr9 2.701251 1_555
O27 Sr2 2.728822 1_555
O27 Sr3 3.006874 1_555
O27 Sr8 3.024271 1_555
O28 Sr5 2.689781 1_566
O28 Sr3 2.700671 1_465
O28 Sr4 2.981015 1_555
O28 Sr9 2.983277 1_455
O29 W0 1.961263 1_655
O29 Sr4 2.720901 1_554
O29 Sr6 2.756457 1_655
O29 Sr5 3.056685 1_555
O29 Sr0 3.085350 1_655
