# generated using pymatgen
data_Ba2Zn
_symmetry_space_group_name_H-M   'P 1'
_cell_length_a   8.30179694
_cell_length_b   8.30179694
_cell_length_c   16.32425104
_cell_angle_alpha   104.73081745
_cell_angle_beta   104.73081745
_cell_angle_gamma   90.00000000
_symmetry_Int_Tables_number   1
_chemical_formula_structural   Ba2Zn
_chemical_formula_sum   'Ba16 Zn8'
_cell_volume   1049.80361860
_cell_formula_units_Z   8
loop_
 _symmetry_equiv_pos_site_id
 _symmetry_equiv_pos_as_xyz
  1  'x, y, z'
loop_
 _atom_site_type_symbol
 _atom_site_label
 _atom_site_symmetry_multiplicity
 _atom_site_fract_x
 _atom_site_fract_y
 _atom_site_fract_z
 _atom_site_occupancy
  Ba  Ba0_0  1  0.31298918  0.31298918  0.12597936  1
  Ba  Ba0_1  1  0.31298918  0.31298918  0.62597936  1
  Ba  Ba0_2  1  0.31298918  0.81298918  0.12597936  1
  Ba  Ba0_3  1  0.31298918  0.81298918  0.62597936  1
  Ba  Ba0_4  1  0.81298918  0.31298918  0.12597936  1
  Ba  Ba0_5  1  0.81298918  0.31298918  0.62597936  1
  Ba  Ba0_6  1  0.81298918  0.81298918  0.12597936  1
  Ba  Ba0_7  1  0.81298918  0.81298918  0.62597936  1
  Ba  Ba1_0  1  0.18701082  0.18701082  0.37402064  1
  Ba  Ba1_1  1  0.18701082  0.18701082  0.87402064  1
  Ba  Ba1_2  1  0.18701082  0.68701082  0.37402064  1
  Ba  Ba1_3  1  0.18701082  0.68701082  0.87402064  1
  Ba  Ba1_4  1  0.68701082  0.18701082  0.37402064  1
  Ba  Ba1_5  1  0.68701082  0.18701082  0.87402064  1
  Ba  Ba1_6  1  0.68701082  0.68701082  0.37402064  1
  Ba  Ba1_7  1  0.68701082  0.68701082  0.87402064  1
  Zn  Zn0_0  1  0.00000000  0.00000000  0.00000000  1
  Zn  Zn0_1  1  0.00000000  0.00000000  0.50000000  1
  Zn  Zn0_2  1  0.00000000  0.50000000  0.00000000  1
  Zn  Zn0_3  1  0.00000000  0.50000000  0.50000000  1
  Zn  Zn0_4  1  0.50000000  0.00000000  0.00000000  1
  Zn  Zn0_5  1  0.50000000  0.00000000  0.50000000  1
  Zn  Zn0_6  1  0.50000000  0.50000000  0.00000000  1
  Zn  Zn0_7  1  0.50000000  0.50000000  0.50000000  1
loop_
_geom_bond_atom_site_label_1
_geom_bond_atom_site_label_2
_geom_bond_distance
_geom_bond_site_symmetry_2
Ba0_0 Zn0_0 3.506751 1_555
Ba0_0 Zn0_2 3.506757 1_555
Ba0_0 Zn0_4 3.506757 1_555
Ba0_0 Zn0_6 3.506762 1_555
Ba0_0 Ba1_1 3.837896 1_554
Ba0_0 Ba0_4 4.150898 1_555
Ba0_0 Ba0_2 4.150898 1_555
Ba0_0 Ba0_4 4.150898 1_455
Ba0_0 Ba0_2 4.150898 1_545
Ba0_0 Ba1_0 4.784339 1_555
Ba0_0 Ba1_2 4.784346 1_555
Ba0_0 Ba1_4 4.784346 1_555
Ba0_0 Ba1_6 4.784352 1_555
Ba0_1 Zn0_1 3.506751 1_555
Ba0_1 Zn0_5 3.506757 1_555
Ba0_1 Zn0_3 3.506757 1_555
Ba0_1 Zn0_7 3.506762 1_555
Ba0_1 Ba1_0 3.837896 1_555
Ba0_1 Ba0_3 4.150898 1_545
Ba0_1 Ba0_5 4.150898 1_455
Ba0_1 Ba0_5 4.150898 1_555
Ba0_1 Ba0_3 4.150898 1_555
Ba0_1 Ba1_1 4.784339 1_555
Ba0_1 Ba1_3 4.784346 1_555
Ba0_1 Ba1_5 4.784346 1_555
Ba0_1 Ba1_7 4.784352 1_555
Ba0_2 Zn0_2 3.506751 1_555
Ba0_2 Zn0_0 3.506757 1_565
Ba0_2 Zn0_6 3.506757 1_555
Ba0_2 Zn0_4 3.506762 1_565
Ba0_2 Ba1_3 3.837896 1_554
Ba0_2 Ba0_6 4.150898 1_455
Ba0_2 Ba0_6 4.150898 1_555
Ba0_2 Ba1_2 4.784339 1_555
Ba0_2 Ba1_6 4.784346 1_555
Ba0_2 Ba1_0 4.784346 1_565
Ba0_2 Ba1_4 4.784352 1_565
Ba0_3 Zn0_3 3.506751 1_555
Ba0_3 Zn0_1 3.506757 1_565
Ba0_3 Zn0_7 3.506757 1_555
Ba0_3 Zn0_5 3.506762 1_565
Ba0_3 Ba1_2 3.837896 1_555
Ba0_3 Ba0_7 4.150898 1_455
Ba0_3 Ba0_7 4.150898 1_555
Ba0_3 Ba1_3 4.784339 1_555
Ba0_3 Ba1_1 4.784346 1_565
Ba0_3 Ba1_7 4.784346 1_555
Ba0_3 Ba1_5 4.784352 1_565
Ba0_4 Zn0_4 3.506751 1_555
Ba0_4 Zn0_0 3.506757 1_655
Ba0_4 Zn0_6 3.506757 1_555
Ba0_4 Zn0_2 3.506762 1_655
Ba0_4 Ba1_5 3.837896 1_554
Ba0_4 Ba0_6 4.150898 1_545
Ba0_4 Ba0_6 4.150898 1_555
Ba0_4 Ba1_4 4.784339 1_555
Ba0_4 Ba1_0 4.784346 1_655
Ba0_4 Ba1_6 4.784346 1_555
Ba0_4 Ba1_2 4.784352 1_655
Ba0_5 Zn0_5 3.506751 1_555
Ba0_5 Zn0_1 3.506757 1_655
Ba0_5 Zn0_7 3.506757 1_555
Ba0_5 Zn0_3 3.506762 1_655
Ba0_5 Ba1_4 3.837896 1_555
Ba0_5 Ba0_7 4.150898 1_545
Ba0_5 Ba0_7 4.150898 1_555
Ba0_5 Ba1_5 4.784339 1_555
Ba0_5 Ba1_1 4.784346 1_655
Ba0_5 Ba1_7 4.784346 1_555
Ba0_5 Ba1_3 4.784352 1_655
Ba0_6 Zn0_6 3.506751 1_555
Ba0_6 Zn0_4 3.506757 1_565
Ba0_6 Zn0_2 3.506757 1_655
Ba0_6 Zn0_0 3.506762 1_665
Ba0_6 Ba1_7 3.837896 1_554
Ba0_6 Ba1_6 4.784339 1_555
Ba0_6 Ba1_4 4.784346 1_565
Ba0_6 Ba1_2 4.784346 1_655
Ba0_6 Ba1_0 4.784352 1_665
Ba0_7 Zn0_7 3.506751 1_555
Ba0_7 Zn0_3 3.506757 1_655
Ba0_7 Zn0_5 3.506757 1_565
Ba0_7 Zn0_1 3.506762 1_665
Ba0_7 Ba1_6 3.837896 1_555
Ba0_7 Ba1_7 4.784339 1_555
Ba0_7 Ba1_5 4.784346 1_565
Ba0_7 Ba1_3 4.784346 1_655
Ba0_7 Ba1_1 4.784352 1_665
Ba1_0 Zn0_7 3.506751 1_555
Ba1_0 Zn0_3 3.506757 1_555
Ba1_0 Zn0_5 3.506757 1_555
Ba1_0 Zn0_1 3.506762 1_555
Ba1_0 Ba1_4 4.150898 1_455
Ba1_0 Ba1_4 4.150898 1_555
Ba1_0 Ba1_2 4.150898 1_555
Ba1_0 Ba1_2 4.150898 1_545
Ba1_1 Zn0_6 3.506751 1_556
Ba1_1 Zn0_4 3.506757 1_556
Ba1_1 Zn0_2 3.506757 1_556
Ba1_1 Zn0_0 3.506762 1_556
Ba1_1 Ba1_3 4.150898 1_555
Ba1_1 Ba1_5 4.150898 1_555
Ba1_1 Ba1_5 4.150898 1_455
Ba1_1 Ba1_3 4.150898 1_545
Ba1_2 Zn0_5 3.506751 1_565
Ba1_2 Zn0_7 3.506757 1_555
Ba1_2 Zn0_1 3.506757 1_565
Ba1_2 Zn0_3 3.506762 1_555
Ba1_2 Ba1_6 4.150898 1_555
Ba1_2 Ba1_6 4.150898 1_455
Ba1_3 Zn0_4 3.506751 1_566
Ba1_3 Zn0_0 3.506757 1_566
Ba1_3 Zn0_6 3.506757 1_556
Ba1_3 Zn0_2 3.506762 1_556
Ba1_3 Ba1_7 4.150898 1_455
Ba1_3 Ba1_7 4.150898 1_555
Ba1_4 Zn0_3 3.506751 1_655
Ba1_4 Zn0_1 3.506757 1_655
Ba1_4 Zn0_7 3.506757 1_555
Ba1_4 Zn0_5 3.506762 1_555
Ba1_4 Ba1_6 4.150898 1_555
Ba1_4 Ba1_6 4.150898 1_545
Ba1_5 Zn0_2 3.506751 1_656
Ba1_5 Zn0_0 3.506757 1_656
Ba1_5 Zn0_6 3.506757 1_556
Ba1_5 Zn0_4 3.506762 1_556
Ba1_5 Ba1_7 4.150898 1_545
Ba1_5 Ba1_7 4.150898 1_555
Ba1_6 Zn0_1 3.506751 1_665
Ba1_6 Zn0_5 3.506757 1_565
Ba1_6 Zn0_3 3.506757 1_655
Ba1_6 Zn0_7 3.506762 1_555
Ba1_7 Zn0_0 3.506751 1_666
Ba1_7 Zn0_4 3.506757 1_566
Ba1_7 Zn0_2 3.506757 1_656
Ba1_7 Zn0_6 3.506762 1_556
