# generated using pymatgen
data_Na5SnP3
_symmetry_space_group_name_H-M   'P 1'
_cell_length_a   7.41632201
_cell_length_b   8.26664041
_cell_length_c   15.58082347
_cell_angle_alpha   58.36015192
_cell_angle_beta   90.00000000
_cell_angle_gamma   90.00000000
_symmetry_Int_Tables_number   1
_chemical_formula_structural   Na5SnP3
_chemical_formula_sum   'Na20 Sn4 P12'
_cell_volume   813.24696286
_cell_formula_units_Z   4
loop_
 _symmetry_equiv_pos_site_id
 _symmetry_equiv_pos_as_xyz
  1  'x, y, z'
loop_
 _atom_site_type_symbol
 _atom_site_label
 _atom_site_symmetry_multiplicity
 _atom_site_fract_x
 _atom_site_fract_y
 _atom_site_fract_z
 _atom_site_occupancy
  Na  Na0  1  0.49674428  0.09165209  0.23994782  1
  Na  Na1  1  0.99674428  0.90834791  0.26005218  1
  Na  Na2  1  0.50325572  0.90834791  0.76005218  1
  Na  Na3  1  0.00325572  0.09165209  0.73994782  1
  Na  Na4  1  0.03958590  0.41138989  0.41128671  1
  Na  Na5  1  0.53958590  0.58861011  0.08871329  1
  Na  Na6  1  0.96041410  0.58861011  0.58871329  1
  Na  Na7  1  0.46041410  0.41138989  0.91128671  1
  Na  Na8  1  0.52175812  0.25325740  0.41188002  1
  Na  Na9  1  0.02175812  0.74674260  0.08811998  1
  Na  Na10  1  0.47824188  0.74674260  0.58811998  1
  Na  Na11  1  0.97824188  0.25325740  0.91188002  1
  Na  Na12  1  0.66059280  0.99525391  0.08200311  1
  Na  Na13  1  0.16059280  0.00474609  0.41799689  1
  Na  Na14  1  0.33940720  0.00474609  0.91799689  1
  Na  Na15  1  0.83940720  0.99525391  0.58200311  1
  Na  Na16  1  0.85718323  0.31439409  0.25751498  1
  Na  Na17  1  0.35718323  0.68560591  0.24248502  1
  Na  Na18  1  0.14281677  0.68560591  0.74248502  1
  Na  Na19  1  0.64281677  0.31439409  0.75751498  1
  Sn  Sn0  1  0.64753254  0.66203565  0.41041702  1
  Sn  Sn1  1  0.14753254  0.33796435  0.08958298  1
  Sn  Sn2  1  0.35246746  0.33796435  0.58958298  1
  Sn  Sn3  1  0.85246746  0.66203565  0.91041702  1
  P  P0  1  0.70221807  0.33542986  0.57090953  1
  P  P1  1  0.20221807  0.66457014  0.92909047  1
  P  P2  1  0.29778193  0.66457014  0.42909047  1
  P  P3  1  0.79778193  0.33542986  0.07090953  1
  P  P4  1  0.76727442  0.93856602  0.41773235  1
  P  P5  1  0.26727442  0.06143398  0.08226765  1
  P  P6  1  0.23272558  0.06143398  0.58226765  1
  P  P7  1  0.73272558  0.93856602  0.91773235  1
  P  P8  1  0.74486713  0.63884769  0.26329810  1
  P  P9  1  0.24486713  0.36115231  0.23670190  1
  P  P10  1  0.25513287  0.36115231  0.73670190  1
  P  P11  1  0.75513287  0.63884769  0.76329810  1
loop_
_geom_bond_atom_site_label_1
_geom_bond_atom_site_label_2
_geom_bond_distance
_geom_bond_site_symmetry_2
Na0 P9 2.887412 1_555
Na0 P4 3.101960 1_545
Na0 P5 3.104558 1_555
Na0 P3 3.227035 1_555
Na1 P8 2.887412 1_555
Na1 P5 3.101960 1_665
Na1 P4 3.104558 1_555
Na1 P2 3.227035 1_655
Na2 P11 2.887412 1_555
Na2 P6 3.101960 1_565
Na2 P7 3.104558 1_555
Na2 P1 3.227035 1_555
Na3 P10 2.887412 1_555
Na3 P7 3.101960 1_445
Na3 P6 3.104558 1_555
Na3 P0 3.227035 1_455
Na4 P2 2.955201 1_555
Na4 P8 3.013455 1_455
Na4 P6 3.071191 1_555
Na4 P9 3.327887 1_555
Na4 P0 3.346852 1_455
Na5 P3 2.955201 1_555
Na5 P9 3.013455 1_555
Na5 P7 3.071191 1_554
Na5 P8 3.327887 1_555
Na5 P1 3.346852 1_554
Na6 P0 2.955201 1_555
Na6 P10 3.013455 1_655
Na6 P4 3.071191 1_555
Na6 P11 3.327887 1_555
Na6 P2 3.346852 1_655
Na7 P1 2.955201 1_555
Na7 P11 3.013455 1_555
Na7 P5 3.071191 1_556
Na7 P10 3.327887 1_555
Na7 P3 3.346852 1_556
Na8 P6 3.120984 1_555
Na8 P4 3.137252 1_545
Na8 P9 3.147708 1_555
Na8 P0 3.187170 1_555
Na8 P8 3.242782 1_555
Na9 P7 3.120984 1_454
Na9 P5 3.137252 1_565
Na9 P8 3.147708 1_455
Na9 P1 3.187170 1_554
Na9 P9 3.242782 1_555
Na10 P4 3.120984 1_555
Na10 P6 3.137252 1_565
Na10 P11 3.147708 1_555
Na10 P2 3.187170 1_555
Na10 P10 3.242782 1_555
Na11 P5 3.120984 1_656
Na11 P7 3.137252 1_545
Na11 P10 3.147708 1_655
Na11 P3 3.187170 1_556
Na11 P11 3.242782 1_555
Na12 P7 2.883586 1_554
Na12 P8 2.884224 1_555
Na12 P3 2.909136 1_565
Na12 P5 2.968238 1_565
Na13 P6 2.883586 1_555
Na13 P9 2.884224 1_555
Na13 P2 2.909136 1_545
Na13 P4 2.968238 1_445
Na14 P5 2.883586 1_556
Na14 P10 2.884224 1_555
Na14 P1 2.909136 1_545
Na14 P7 2.968238 1_545
Na15 P4 2.883586 1_555
Na15 P11 2.884224 1_555
Na15 P0 2.909136 1_565
Na15 P6 2.968238 1_665
Na16 P3 2.854335 1_555
Na16 P8 2.854715 1_555
Na16 P4 2.862124 1_545
Na16 P9 2.896510 1_655
Na17 P2 2.854335 1_555
Na17 P9 2.854715 1_555
Na17 P5 2.862124 1_565
Na17 P8 2.896510 1_555
Na18 P1 2.854335 1_555
Na18 P10 2.854715 1_555
Na18 P6 2.862124 1_565
Na18 P11 2.896510 1_455
Na19 P0 2.854335 1_555
Na19 P11 2.854715 1_555
Na19 P7 2.862124 1_545
Na19 P10 2.896510 1_555
P0 Sn0 2.573675 1_555
P0 Sn2 2.611439 1_555
P1 Sn1 2.573675 1_556
P1 Sn3 2.611439 1_455
P2 Sn2 2.573675 1_555
P2 Sn0 2.611439 1_555
P3 Sn3 2.573675 1_554
P3 Sn1 2.611439 1_655
P4 Sn0 2.510113 1_555
P5 Sn1 2.510113 1_555
P6 Sn2 2.510113 1_555
P7 Sn3 2.510113 1_555
P8 Sn0 2.504627 1_555
P9 Sn1 2.504627 1_555
P10 Sn2 2.504627 1_555
P11 Sn3 2.504627 1_555
