# generated using pymatgen
data_CaCe3V4O16
_symmetry_space_group_name_H-M   'P 1'
_cell_length_a   7.34779800
_cell_length_b   7.34779800
_cell_length_c   6.47997400
_cell_angle_alpha   90.00000000
_cell_angle_beta   90.00000000
_cell_angle_gamma   90.00000000
_symmetry_Int_Tables_number   1
_chemical_formula_structural   CaCe3V4O16
_chemical_formula_sum   'Ca1 Ce3 V4 O16'
_cell_volume   349.85467396
_cell_formula_units_Z   1
loop_
 _symmetry_equiv_pos_site_id
 _symmetry_equiv_pos_as_xyz
  1  'x, y, z'
loop_
 _atom_site_type_symbol
 _atom_site_label
 _atom_site_symmetry_multiplicity
 _atom_site_fract_x
 _atom_site_fract_y
 _atom_site_fract_z
 _atom_site_occupancy
  Ca  Ca0  1  0.50000000  0.50000000  0.50000000  1
  Ce  Ce0  1  0.00000000  0.00000000  0.00000000  1
  Ce  Ce1  1  0.00000000  0.50000000  0.75030500  1
  Ce  Ce2  1  0.50000000  0.00000000  0.24969500  1
  V  V0  1  0.50000000  0.00000000  0.74864400  1
  V  V1  1  0.00000000  0.50000000  0.25135600  1
  V  V2  1  0.00000000  0.00000000  0.50000000  1
  V  V3  1  0.50000000  0.50000000  0.00000000  1
  O  O0  1  0.31597200  0.00000000  0.92427600  1
  O  O1  1  0.82150100  0.50000000  0.42347200  1
  O  O2  1  0.00000000  0.18200300  0.67336600  1
  O  O3  1  0.50000000  0.68585100  0.16807900  1
  O  O4  1  0.00000000  0.81799700  0.67336600  1
  O  O5  1  0.50000000  0.31414900  0.16807900  1
  O  O6  1  0.68402800  0.00000000  0.92427600  1
  O  O7  1  0.17849900  0.50000000  0.42347200  1
  O  O8  1  0.18200300  0.00000000  0.32663400  1
  O  O9  1  0.68585100  0.50000000  0.83192100  1
  O  O10  1  0.50000000  0.82150100  0.57652800  1
  O  O11  1  0.00000000  0.31597200  0.07572400  1
  O  O12  1  0.50000000  0.17849900  0.57652800  1
  O  O13  1  0.00000000  0.68402800  0.07572400  1
  O  O14  1  0.81799700  0.00000000  0.32663400  1
  O  O15  1  0.31414900  0.50000000  0.83192100  1
loop_
_geom_bond_atom_site_label_1
_geom_bond_atom_site_label_2
_geom_bond_distance
_geom_bond_site_symmetry_2
Ca0 O10 2.413813 1_555
Ca0 O1 2.413813 1_555
Ca0 O12 2.413813 1_555
Ca0 O7 2.413813 1_555
Ca0 O9 2.547737 1_555
Ca0 O15 2.547737 1_555
Ca0 O5 2.547737 1_555
Ca0 O3 2.547737 1_555
Ce0 O11 2.372985 1_555
Ce0 O0 2.372985 1_554
Ce0 O6 2.372985 1_454
Ce0 O13 2.372985 1_545
Ce0 O8 2.503665 1_555
Ce0 O2 2.503665 1_554
Ce0 O14 2.503665 1_455
Ce0 O4 2.503665 1_544
Ce1 O15 2.368115 1_555
Ce1 O9 2.368115 1_455
Ce1 O2 2.389176 1_555
Ce1 O4 2.389176 1_555
Ce1 O7 2.491104 1_555
Ce1 O1 2.491104 1_455
Ce1 O13 2.505013 1_556
Ce1 O11 2.505013 1_556
Ce2 O3 2.368115 1_545
Ce2 O5 2.368115 1_555
Ce2 O14 2.389176 1_555
Ce2 O8 2.389176 1_555
Ce2 O12 2.491104 1_555
Ce2 O10 2.491104 1_545
Ce2 O0 2.505013 1_554
Ce2 O6 2.505013 1_554
O0 V0 1.767398 1_555
O1 V1 1.721667 1_655
O2 V2 1.746560 1_555
O3 V3 1.746738 1_555
O4 V2 1.746560 1_565
O5 V3 1.746738 1_555
O6 V0 1.767398 1_555
O7 V1 1.721667 1_555
O8 V2 1.746560 1_555
O9 V3 1.746738 1_556
O10 V0 1.721667 1_565
O11 V1 1.767398 1_555
O12 V0 1.721667 1_555
O13 V1 1.767398 1_555
O14 V2 1.746560 1_655
O15 V3 1.746738 1_556
