# generated using pymatgen
data_ReB2
_symmetry_space_group_name_H-M   'P 1'
_cell_length_a   2.90676192
_cell_length_b   2.90676166
_cell_length_c   7.47291288
_cell_angle_alpha   90.00000000
_cell_angle_beta   90.00000000
_cell_angle_gamma   119.99999135
_symmetry_Int_Tables_number   1
_chemical_formula_structural   ReB2
_chemical_formula_sum   'Re2 B4'
_cell_volume   54.68138098
_cell_formula_units_Z   2
loop_
 _symmetry_equiv_pos_site_id
 _symmetry_equiv_pos_as_xyz
  1  'x, y, z'
loop_
 _atom_site_type_symbol
 _atom_site_label
 _atom_site_symmetry_multiplicity
 _atom_site_fract_x
 _atom_site_fract_y
 _atom_site_fract_z
 _atom_site_occupancy
  Re  Re0  1  0.66666700  0.33333300  0.75000000  1
  Re  Re1  1  0.33333300  0.66666700  0.25000000  1
  B  B0  1  0.66666700  0.33333300  0.45220367  1
  B  B1  1  0.33333300  0.66666700  0.95220367  1
  B  B2  1  0.66666700  0.33333300  0.04779633  1
  B  B3  1  0.33333300  0.66666700  0.54779633  1
loop_
_geom_bond_atom_site_label_1
_geom_bond_atom_site_label_2
_geom_bond_distance
_geom_bond_site_symmetry_2
B0 B3 1.823930 1_545
B0 B3 1.823930 1_655
B0 B3 1.823934 1_555
B0 Re0 2.225406 1_555
B0 Re1 2.258249 1_545
B0 Re1 2.258249 1_655
B0 Re1 2.258253 1_555
B1 B2 1.823930 1_566
B1 B2 1.823930 1_456
B1 B2 1.823934 1_556
B1 Re1 2.225406 1_556
B1 Re0 2.258249 1_565
B1 Re0 2.258249 1_455
B1 Re0 2.258253 1_555
B2 Re0 2.225406 1_554
B2 Re1 2.258249 1_545
B2 Re1 2.258249 1_655
B2 Re1 2.258253 1_555
B3 Re1 2.225406 1_555
B3 Re0 2.258249 1_565
B3 Re0 2.258249 1_455
B3 Re0 2.258253 1_555
