# generated using pymatgen
data_Cs2Tm2Mg(WO4)4
_symmetry_space_group_name_H-M   'P 1'
_cell_length_a   8.05093219
_cell_length_b   7.67647971
_cell_length_c   7.63173477
_cell_angle_alpha   62.95675369
_cell_angle_beta   61.25973707
_cell_angle_gamma   87.63828847
_symmetry_Int_Tables_number   1
_chemical_formula_structural   Cs2Tm2Mg(WO4)4
_chemical_formula_sum   'Cs2 Tm2 Mg1 W4 O16'
_cell_volume   358.71009671
_cell_formula_units_Z   1
loop_
 _symmetry_equiv_pos_site_id
 _symmetry_equiv_pos_as_xyz
  1  'x, y, z'
loop_
 _atom_site_type_symbol
 _atom_site_label
 _atom_site_symmetry_multiplicity
 _atom_site_fract_x
 _atom_site_fract_y
 _atom_site_fract_z
 _atom_site_occupancy
  Cs  Cs0  1  0.89195624  0.12624704  0.75401597  1
  Cs  Cs1  1  0.18941288  0.79371135  0.24990877  1
  Tm  Tm0  1  0.20600592  0.76086334  0.75451538  1
  Tm  Tm1  1  0.79000743  0.23759961  0.23769569  1
  Mg  Mg0  1  0.62669580  0.36196549  0.74318639  1
  W  W0  1  0.29610129  0.31228069  0.69547573  1
  W  W1  1  0.69272441  0.69951181  0.29935417  1
  W  W2  1  0.67933917  0.71257695  0.80510805  1
  W  W3  1  0.30370335  0.30314998  0.20105731  1
  O  O0  1  0.35808069  0.23573664  0.95104213  1
  O  O1  1  0.61185065  0.74055226  0.06615734  1
  O  O2  1  0.75070260  0.63995332  0.55630076  1
  O  O3  1  0.27385100  0.38647343  0.41196892  1
  O  O4  1  0.67800381  0.96612871  0.61447011  1
  O  O5  1  0.30112887  0.04617958  0.39382332  1
  O  O6  1  0.05546923  0.36456472  0.87612088  1
  O  O7  1  0.93438851  0.67255589  0.10476670  1
  O  O8  1  0.40267006  0.62339464  0.54627960  1
  O  O9  1  0.60915245  0.36734491  0.47885692  1
  O  O10  1  0.38363498  0.60656988  0.94064192  1
  O  O11  1  0.61680614  0.38664122  0.01388843  1
  O  O12  1  0.25196749  0.04254719  0.77066717  1
  O  O13  1  0.72660111  0.97591527  0.22409082  1
  O  O14  1  0.93819046  0.74388113  0.72374984  1
  O  O15  1  0.04822248  0.27698794  0.27435767  1
loop_
_geom_bond_atom_site_label_1
_geom_bond_atom_site_label_2
_geom_bond_distance
_geom_bond_site_symmetry_2
Cs0 Mg0 2.749019 1_555
Cs0 O13 2.782659 1_546
Cs0 O15 2.856784 1_655
Cs0 O3 2.881655 1_655
Cs0 O1 2.914962 1_546
Cs0 O4 2.956517 1_545
Cs0 O6 2.979376 1_655
Cs0 O12 2.992714 1_655
Cs0 O14 3.041583 1_545
Cs1 O5 2.966583 1_565
Cs1 O3 2.980305 1_555
Cs1 O0 2.987246 1_564
Cs1 O14 3.014356 1_455
Cs1 O2 3.037674 1_455
Cs1 O12 3.038804 1_564
Cs1 O10 3.070585 1_554
Cs1 O1 3.085348 1_555
Cs1 O7 3.096582 1_455
Cs1 O8 3.260912 1_555
Mg0 O0 1.899483 1_555
Mg0 O2 1.903517 1_555
Mg0 O9 2.070965 1_555
Mg0 O11 2.122897 1_556
O0 W3 2.043529 1_556
O0 W0 2.065921 1_555
O1 W2 1.910200 1_554
O1 W1 2.068365 1_555
O2 W2 2.033103 1_555
O2 W1 2.078375 1_555
O3 W3 1.899810 1_555
O3 W0 2.069207 1_555
O4 W2 1.828539 1_555
O4 Tm1 2.374141 1_565
O5 W3 1.841498 1_555
O5 Tm0 2.364217 1_545
O6 W0 1.919759 1_555
O6 Tm1 2.277429 1_456
O6 Tm0 2.870517 1_555
O7 W1 1.871163 1_555
O7 Tm0 2.289045 1_654
O8 W1 2.055487 1_555
O8 W0 2.119674 1_555
O8 Tm0 2.261320 1_555
O9 W0 2.170091 1_555
O9 W1 2.215816 1_555
O9 Tm1 2.338730 1_555
O10 W2 2.103794 1_555
O10 W3 2.115031 1_556
O10 Tm0 2.397870 1_555
O11 W3 2.154847 1_555
O11 W2 2.181667 1_554
O11 Tm1 2.559848 1_555
O12 W0 1.878041 1_555
O12 Tm0 2.275965 1_545
O13 W1 1.922283 1_555
O13 Tm1 2.152174 1_565
O14 W2 1.856750 1_555
O14 Tm0 2.293256 1_655
O15 W3 1.846427 1_555
O15 Tm1 2.275855 1_455
