# generated using pymatgen
data_HfFeSb
_symmetry_space_group_name_H-M   'P 1'
_cell_length_a   4.24151000
_cell_length_b   6.76670800
_cell_length_c   7.37816900
_cell_angle_alpha   90.00000000
_cell_angle_beta   90.00000000
_cell_angle_gamma   90.00000000
_symmetry_Int_Tables_number   1
_chemical_formula_structural   HfFeSb
_chemical_formula_sum   'Hf4 Fe4 Sb4'
_cell_volume   211.76126857
_cell_formula_units_Z   4
loop_
 _symmetry_equiv_pos_site_id
 _symmetry_equiv_pos_as_xyz
  1  'x, y, z'
loop_
 _atom_site_type_symbol
 _atom_site_label
 _atom_site_symmetry_multiplicity
 _atom_site_fract_x
 _atom_site_fract_y
 _atom_site_fract_z
 _atom_site_occupancy
  Hf  Hf0  1  0.25000000  0.50391400  0.20549100  1
  Hf  Hf1  1  0.75000000  0.49608600  0.79450900  1
  Hf  Hf2  1  0.75000000  0.99608600  0.70549100  1
  Hf  Hf3  1  0.25000000  0.00391400  0.29450900  1
  Fe  Fe0  1  0.25000000  0.64428600  0.56226800  1
  Fe  Fe1  1  0.75000000  0.35571400  0.43773200  1
  Fe  Fe2  1  0.75000000  0.85571400  0.06226800  1
  Fe  Fe3  1  0.25000000  0.14428600  0.93773200  1
  Sb  Sb0  1  0.25000000  0.77043200  0.89114700  1
  Sb  Sb1  1  0.75000000  0.22956800  0.10885300  1
  Sb  Sb2  1  0.75000000  0.72956800  0.39114700  1
  Sb  Sb3  1  0.25000000  0.27043200  0.60885300  1
loop_
_geom_bond_atom_site_label_1
_geom_bond_atom_site_label_2
_geom_bond_distance
_geom_bond_site_symmetry_2
Hf0 Sb1 2.907280 1_455
Hf0 Sb1 2.907280 1_555
Hf0 Sb0 2.937942 1_554
Hf0 Sb2 2.950506 1_455
Hf0 Sb2 2.950506 1_555
Hf1 Sb0 2.907280 1_655
Hf1 Sb0 2.907280 1_555
Hf1 Sb1 2.937942 1_556
Hf1 Sb3 2.950506 1_655
Hf1 Sb3 2.950506 1_555
Hf2 Sb3 2.907280 1_665
Hf2 Sb3 2.907280 1_565
Hf2 Sb2 2.937942 1_555
Hf2 Sb0 2.950506 1_655
Hf2 Sb0 2.950506 1_555
Hf3 Sb2 2.907280 1_445
Hf3 Sb2 2.907280 1_545
Hf3 Sb3 2.937942 1_555
Hf3 Sb1 2.950506 1_555
Hf3 Sb1 2.950506 1_455
Fe0 Sb2 2.534695 1_455
Fe0 Sb2 2.534695 1_555
Fe0 Sb3 2.553004 1_555
Fe0 Sb0 2.572284 1_555
Fe0 Hf0 2.798491 1_555
Fe0 Hf1 2.905063 1_555
Fe0 Hf1 2.905063 1_455
Fe0 Fe1 3.025699 1_455
Fe0 Fe1 3.025699 1_555
Fe0 Hf3 3.134452 1_565
Fe0 Hf2 3.358747 1_555
Fe0 Hf2 3.358747 1_455
Fe1 Sb3 2.534695 1_655
Fe1 Sb3 2.534695 1_555
Fe1 Sb2 2.553004 1_555
Fe1 Sb1 2.572284 1_555
Fe1 Hf1 2.798491 1_555
Fe1 Hf0 2.905063 1_655
Fe1 Hf0 2.905063 1_555
Fe1 Hf2 3.134452 1_545
Fe1 Hf3 3.358747 1_655
Fe1 Hf3 3.358747 1_555
Fe2 Sb0 2.534695 1_554
Fe2 Sb0 2.534695 1_654
Fe2 Sb1 2.553004 1_565
Fe2 Sb2 2.572284 1_555
Fe2 Hf2 2.798491 1_554
Fe2 Hf3 2.905063 1_565
Fe2 Hf3 2.905063 1_665
Fe2 Fe3 3.025699 1_664
Fe2 Fe3 3.025699 1_564
Fe2 Hf1 3.134452 1_554
Fe2 Hf0 3.358747 1_555
Fe2 Hf0 3.358747 1_655
Fe3 Sb1 2.534695 1_556
Fe3 Sb1 2.534695 1_456
Fe3 Sb0 2.553004 1_545
Fe3 Sb3 2.572284 1_555
Fe3 Hf3 2.798491 1_556
Fe3 Hf2 2.905063 1_545
Fe3 Hf2 2.905063 1_445
Fe3 Hf0 3.134452 1_556
Fe3 Hf1 3.358747 1_455
Fe3 Hf1 3.358747 1_555
