# generated using pymatgen
data_Li6MnV3(PO4)6
_symmetry_space_group_name_H-M   'P 1'
_cell_length_a   8.71987100
_cell_length_b   8.73978195
_cell_length_c   12.23566487
_cell_angle_alpha   89.60010901
_cell_angle_beta   88.86563412
_cell_angle_gamma   89.78956668
_symmetry_Int_Tables_number   1
_chemical_formula_structural   Li6MnV3(PO4)6
_chemical_formula_sum   'Li12 Mn2 V6 P12 O48'
_cell_volume   932.26593731
_cell_formula_units_Z   2
loop_
 _symmetry_equiv_pos_site_id
 _symmetry_equiv_pos_as_xyz
  1  'x, y, z'
loop_
 _atom_site_type_symbol
 _atom_site_label
 _atom_site_symmetry_multiplicity
 _atom_site_fract_x
 _atom_site_fract_y
 _atom_site_fract_z
 _atom_site_occupancy
  Li  Li0  1  0.07447600  0.08202000  0.30268300  1
  Li  Li1  1  0.08309100  0.69742800  0.23782200  1
  Li  Li2  1  0.20862800  0.78009900  0.82642400  1
  Li  Li3  1  0.29020800  0.28131800  0.67591400  1
  Li  Li4  1  0.41621000  0.19725500  0.26153700  1
  Li  Li5  1  0.42605000  0.58384200  0.19624100  1
  Li  Li6  1  0.57512300  0.42071400  0.80198300  1
  Li  Li7  1  0.58425400  0.80132400  0.73906000  1
  Li  Li8  1  0.70705600  0.71666100  0.32585100  1
  Li  Li9  1  0.79268200  0.21809400  0.17423900  1
  Li  Li10  1  0.91886000  0.30383200  0.76343200  1
  Li  Li11  1  0.92566400  0.91703100  0.69824800  1
  Mn  Mn0  1  0.24722200  0.46145700  0.89223200  1
  Mn  Mn1  1  0.75446300  0.46630600  0.60588700  1
  V  V0  1  0.24790900  0.53020800  0.39091600  1
  V  V1  1  0.25267000  0.03032400  0.10845900  1
  V  V2  1  0.25205300  0.96003300  0.61062800  1
  V  V3  1  0.74665700  0.03810900  0.38957600  1
  V  V4  1  0.75285500  0.53872600  0.10970300  1
  V  V5  1  0.74699500  0.97039500  0.89077700  1
  P  P0  1  0.03620100  0.24775000  0.50668400  1
  P  P1  1  0.10388300  0.38348000  0.14744000  1
  P  P2  1  0.10478200  0.10194000  0.84933800  1
  P  P3  1  0.39602300  0.60289500  0.64909200  1
  P  P4  1  0.39597400  0.88311600  0.35214700  1
  P  P5  1  0.46415800  0.75202700  0.99335600  1
  P  P6  1  0.53641400  0.25365800  0.00783400  1
  P  P7  1  0.60310300  0.11745500  0.64733800  1
  P  P8  1  0.60410800  0.39577600  0.34835500  1
  P  P9  1  0.89448000  0.89500800  0.14908900  1
  P  P10  1  0.89714600  0.61589400  0.85448500  1
  P  P11  1  0.96251200  0.75050700  0.49328700  1
  O  O0  1  0.04752900  0.86625200  0.56554500  1
  O  O1  1  0.07335900  0.88531300  0.14775300  1
  O  O2  1  0.06879300  0.68119800  0.40335100  1
  O  O3  1  0.07242300  0.59568800  0.83224500  1
  O  O4  1  0.10682400  0.36631500  0.42799300  1
  O  O5  1  0.14337400  0.21534000  0.18189600  1
  O  O6  1  0.13902400  0.40854000  0.02518600  1
  O  O7  1  0.14401200  0.97706400  0.76058300  1
  O  O8  1  0.15655000  0.26091100  0.80780900  1
  O  O9  1  0.16918300  0.16795600  0.56781900  1
  O  O10  1  0.17313600  0.05059100  0.95632700  1
  O  O11  1  0.19508100  0.50116700  0.21684500  1
  O  O12  1  0.30430000  0.00097300  0.28158000  1
  O  O13  1  0.32896400  0.55150100  0.54257100  1
  O  O14  1  0.33140600  0.67862500  0.93265000  1
  O  O15  1  0.34081600  0.76460800  0.68636900  1
  O  O16  1  0.35244300  0.91153600  0.47223600  1
  O  O17  1  0.35753600  0.71513500  0.31881200  1
  O  O18  1  0.35480300  0.48113200  0.74007800  1
  O  O19  1  0.39758600  0.86984000  0.07473100  1
  O  O20  1  0.43030900  0.18385000  0.09754700  1
  O  O21  1  0.42514000  0.38489300  0.35037700  1
  O  O22  1  0.42903900  0.09549600  0.66825800  1
  O  O23  1  0.45109000  0.36976600  0.93378100  1
  O  O24  1  0.54877800  0.63398700  0.06511700  1
  O  O25  1  0.57012300  0.90373200  0.33171400  1
  O  O26  1  0.57546000  0.61404200  0.64800100  1
  O  O27  1  0.57274500  0.82196200  0.90378200  1
  O  O28  1  0.60765500  0.13601300  0.92917000  1
  O  O29  1  0.64173800  0.51746100  0.25670600  1
  O  O30  1  0.64145000  0.28634300  0.68032600  1
  O  O31  1  0.64633600  0.08947200  0.52756400  1
  O  O32  1  0.65905400  0.23394800  0.31113900  1
  O  O33  1  0.66993600  0.33267500  0.06771300  1
  O  O34  1  0.67290400  0.45150600  0.45230100  1
  O  O35  1  0.69439500  0.99984000  0.71844000  1
  O  O36  1  0.80491700  0.49721000  0.78893600  1
  O  O37  1  0.82628900  0.94922700  0.04304500  1
  O  O38  1  0.82933600  0.82991100  0.43269600  1
  O  O39  1  0.84010000  0.73352600  0.18771000  1
  O  O40  1  0.85487300  0.01668900  0.23951700  1
  O  O41  1  0.85827400  0.59253100  0.97602500  1
  O  O42  1  0.85830700  0.78391100  0.81917300  1
  O  O43  1  0.89583900  0.63240200  0.57582400  1
  O  O44  1  0.92953900  0.40424200  0.16915200  1
  O  O45  1  0.93052400  0.31732100  0.59789300  1
  O  O46  1  0.92557300  0.11048900  0.85137300  1
  O  O47  1  0.95123200  0.13318700  0.43428700  1
loop_
_geom_bond_atom_site_label_1
_geom_bond_atom_site_label_2
_geom_bond_distance
_geom_bond_site_symmetry_2
Li0 O5 1.961827 1_555
Li0 O47 1.971255 1_455
Li0 O12 2.134527 1_555
Li0 O40 2.159404 1_455
Li1 O1 1.973715 1_555
Li1 O11 1.986354 1_555
Li1 O2 2.030729 1_555
Li1 O39 2.238045 1_455
Li2 O14 1.911569 1_555
Li2 O7 1.980224 1_555
Li2 O3 2.005593 1_555
Li2 O15 2.051218 1_555
Li3 O8 1.979297 1_555
Li3 O9 1.981377 1_555
Li3 O18 2.006781 1_555
Li3 O22 2.023613 1_555
Li4 O21 1.976401 1_555
Li4 O12 1.988005 1_555
Li4 O20 2.012063 1_555
Li4 O32 2.239168 1_555
Li5 O24 1.958839 1_555
Li5 O17 1.976447 1_555
Li5 O29 2.112420 1_555
Li5 O11 2.151737 1_555
Li6 O23 1.973088 1_555
Li6 O30 1.978579 1_555
Li6 O36 2.117369 1_555
Li6 O18 2.141962 1_555
Li6 O26 2.521907 1_555
Li7 O26 1.989004 1_555
Li7 O35 1.998191 1_555
Li7 O27 2.025268 1_555
Li7 O15 2.255384 1_555
Li8 O38 1.976532 1_555
Li8 O25 2.021849 1_555
Li8 O29 2.029300 1_555
Li8 O39 2.035852 1_555
Li9 O33 1.968876 1_555
Li9 O40 2.005239 1_555
Li9 O44 2.021066 1_555
Li9 O32 2.026707 1_555
Li10 O36 1.980829 1_555
Li10 O46 1.998241 1_555
Li10 O45 2.028647 1_555
Li10 O8 2.183421 1_655
Li11 O42 1.958151 1_555
Li11 O0 1.975066 1_655
Li11 O7 2.133664 1_655
Li11 O35 2.150278 1_555
Li11 O46 2.532433 1_565
Mn0 O6 1.918953 1_556
Mn0 O23 2.020021 1_555
Mn0 O3 2.063349 1_555
Mn0 O18 2.074391 1_555
Mn0 O14 2.103224 1_555
Mn0 O8 2.198181 1_555
Mn1 O43 1.936507 1_555
Mn1 O45 2.010746 1_555
Mn1 O34 2.027558 1_555
Mn1 O30 2.056787 1_555
Mn1 O26 2.081266 1_555
Mn1 O36 2.308942 1_555
O0 P11 1.548712 1_455
O0 V2 2.052479 1_555
O1 P9 1.561559 1_455
O1 V1 2.063590 1_565
O2 P11 1.549692 1_455
O2 V0 2.045051 1_555
O3 P10 1.556741 1_455
O4 P0 1.532108 1_555
O4 V0 1.937220 1_555
O5 P1 1.564978 1_555
O5 V1 2.074954 1_555
O6 P1 1.535328 1_555
O7 P2 1.576891 1_565
O7 V2 2.051961 1_555
O8 P2 1.542075 1_555
O9 P0 1.552948 1_555
O9 V2 2.022576 1_545
O10 P2 1.513634 1_555
O10 V1 2.005719 1_556
O11 P1 1.567303 1_555
O11 V0 2.204595 1_555
O12 P4 1.566650 1_545
O12 V1 2.187419 1_555
O13 P3 1.510859 1_555
O13 V0 2.008768 1_555
O14 P5 1.532777 1_555
O15 P3 1.559681 1_555
O15 V2 2.090859 1_555
O16 P4 1.532039 1_555
O16 V2 1.939558 1_555
O17 P4 1.565714 1_555
O17 V0 2.064554 1_555
O18 P3 1.572095 1_555
O19 P5 1.541294 1_554
O19 V1 1.925825 1_565
O20 P6 1.545248 1_555
O20 V1 2.054788 1_555
O21 P8 1.563519 1_555
O21 V0 2.052163 1_555
O22 P7 1.546670 1_555
O22 V2 2.085379 1_545
O23 P6 1.553254 1_556
O24 P5 1.545033 1_554
O24 V4 2.044186 1_555
O25 P4 1.545100 1_555
O25 V3 2.078018 1_565
O26 P3 1.567842 1_555
O27 P5 1.557292 1_555
O27 V5 2.004732 1_555
O28 P6 1.534584 1_556
O28 V5 1.940644 1_545
O29 P8 1.570846 1_555
O29 V4 2.033779 1_555
O30 P7 1.571852 1_555
O31 P7 1.527126 1_555
O31 V3 1.940770 1_555
O32 P8 1.559695 1_555
O32 V3 2.104908 1_555
O33 P6 1.554359 1_555
O33 V4 2.016674 1_555
O34 P8 1.501901 1_555
O35 P7 1.567206 1_565
O35 V5 2.180112 1_555
O36 P10 1.552177 1_555
O37 P9 1.510485 1_555
O37 V5 2.007163 1_554
O38 P11 1.549446 1_555
O38 V3 2.025122 1_565
O39 P9 1.557790 1_555
O39 V4 2.109326 1_555
O40 P9 1.572596 1_545
O40 V3 2.057071 1_555
O41 P10 1.531153 1_555
O41 V4 1.916861 1_556
O42 P10 1.565553 1_555
O42 V5 2.083433 1_555
O43 P11 1.545950 1_555
O44 P1 1.548334 1_655
O44 V4 2.074453 1_555
O45 P0 1.558509 1_655
O46 P2 1.563904 1_655
O46 V5 2.032837 1_545
O47 P0 1.542717 1_655
O47 V3 2.056171 1_555
