# generated using pymatgen
data_Mg7W
_symmetry_space_group_name_H-M   'P 1'
_cell_length_a   6.20177774
_cell_length_b   6.20177774
_cell_length_c   4.94372600
_cell_angle_alpha   90.00000000
_cell_angle_beta   90.00000000
_cell_angle_gamma   119.99999726
_symmetry_Int_Tables_number   1
_chemical_formula_structural   Mg7W
_chemical_formula_sum   'Mg7 W1'
_cell_volume   164.67111737
_cell_formula_units_Z   1
loop_
 _symmetry_equiv_pos_site_id
 _symmetry_equiv_pos_as_xyz
  1  'x, y, z'
loop_
 _atom_site_type_symbol
 _atom_site_label
 _atom_site_symmetry_multiplicity
 _atom_site_fract_x
 _atom_site_fract_y
 _atom_site_fract_z
 _atom_site_occupancy
  Mg  Mg0  1  0.16550000  0.33099900  0.50000000  1
  Mg  Mg1  1  0.66900100  0.83450000  0.50000000  1
  Mg  Mg2  1  0.16550000  0.83450000  0.50000000  1
  Mg  Mg3  1  0.82291500  0.17708500  0.00000000  1
  Mg  Mg4  1  0.35417000  0.17708500  0.00000000  1
  Mg  Mg5  1  0.82291500  0.64583000  0.00000000  1
  Mg  Mg6  1  0.33333300  0.66666700  0.00000000  1
  W  W0  1  0.66666700  0.33333300  0.50000000  1
loop_
_geom_bond_atom_site_label_1
_geom_bond_atom_site_label_2
_geom_bond_distance
_geom_bond_site_symmetry_2
Mg0 Mg6 3.059466 1_556
Mg0 Mg6 3.059466 1_555
Mg0 W0 3.100914 1_455
Mg0 W0 3.100914 1_555
Mg1 Mg6 3.059466 1_556
Mg1 Mg6 3.059466 1_555
Mg1 W0 3.100914 1_565
Mg1 W0 3.100914 1_555
Mg2 Mg6 3.059460 1_555
Mg2 Mg6 3.059460 1_556
Mg2 W0 3.100914 1_455
Mg2 W0 3.100914 1_565
Mg3 W0 2.987822 1_554
Mg3 W0 2.987822 1_555
Mg3 Mg6 3.102908 1_545
Mg3 Mg6 3.102908 1_655
Mg4 W0 2.987825 1_554
Mg4 W0 2.987825 1_555
Mg4 Mg6 3.102905 1_545
Mg4 Mg6 3.102911 1_555
Mg5 W0 2.987825 1_554
Mg5 W0 2.987825 1_555
Mg5 Mg6 3.102905 1_655
Mg5 Mg6 3.102911 1_555
