# generated using pymatgen
data_PrGaPd2
_symmetry_space_group_name_H-M   'P 1'
_cell_length_a   5.75394087
_cell_length_b   7.09085511
_cell_length_c   7.62084777
_cell_angle_alpha   90.00000000
_cell_angle_beta   90.00000000
_cell_angle_gamma   90.00000000
_symmetry_Int_Tables_number   1
_chemical_formula_structural   PrGaPd2
_chemical_formula_sum   'Pr4 Ga4 Pd8'
_cell_volume   310.93334030
_cell_formula_units_Z   4
loop_
 _symmetry_equiv_pos_site_id
 _symmetry_equiv_pos_as_xyz
  1  'x, y, z'
loop_
 _atom_site_type_symbol
 _atom_site_label
 _atom_site_symmetry_multiplicity
 _atom_site_fract_x
 _atom_site_fract_y
 _atom_site_fract_z
 _atom_site_occupancy
  Pr  Pr0  1  0.35098698  0.75000000  0.03472463  1
  Pr  Pr1  1  0.14901302  0.75000000  0.53472463  1
  Pr  Pr2  1  0.64901302  0.25000000  0.96527537  1
  Pr  Pr3  1  0.85098698  0.25000000  0.46527537  1
  Ga  Ga0  1  0.65116319  0.75000000  0.37950487  1
  Ga  Ga1  1  0.84883681  0.75000000  0.87950487  1
  Ga  Ga2  1  0.34883681  0.25000000  0.62049513  1
  Ga  Ga3  1  0.15116319  0.25000000  0.12049513  1
  Pd  Pd0  1  0.91163117  0.55347633  0.17651646  1
  Pd  Pd1  1  0.58836883  0.94652367  0.67651646  1
  Pd  Pd2  1  0.08836883  0.05347633  0.82348354  1
  Pd  Pd3  1  0.41163117  0.44652367  0.32348354  1
  Pd  Pd4  1  0.08836883  0.44652367  0.82348354  1
  Pd  Pd5  1  0.41163117  0.05347633  0.32348354  1
  Pd  Pd6  1  0.91163117  0.94652367  0.17651646  1
  Pd  Pd7  1  0.58836883  0.55347633  0.67651646  1
loop_
_geom_bond_atom_site_label_1
_geom_bond_atom_site_label_2
_geom_bond_distance
_geom_bond_site_symmetry_2
Ga0 Pd0 2.565363 1_555
Ga0 Pd6 2.565363 1_555
Ga0 Pd3 2.590860 1_555
Ga0 Pd5 2.590860 1_565
Ga0 Pd7 2.682497 1_555
Ga0 Pd1 2.682497 1_555
Ga0 Pr1 3.099224 1_655
Ga0 Pr1 3.122109 1_555
Ga0 Pr0 3.144369 1_555
Ga1 Pd7 2.565363 1_555
Ga1 Pd1 2.565363 1_555
Ga1 Pd4 2.590860 1_655
Ga1 Pd2 2.590860 1_665
Ga1 Pd6 2.682497 1_556
Ga1 Pd0 2.682497 1_556
Ga1 Pr0 3.099224 1_556
Ga1 Pr0 3.122109 1_656
Ga1 Pr1 3.144369 1_655
Ga2 Pd2 2.565363 1_555
Ga2 Pd4 2.565363 1_555
Ga2 Pd7 2.590860 1_555
Ga2 Pd1 2.590860 1_545
Ga2 Pd3 2.682497 1_555
Ga2 Pd5 2.682497 1_555
Ga2 Pr3 3.099224 1_455
Ga2 Pr3 3.122109 1_555
Ga2 Pr2 3.144369 1_555
Ga3 Pd3 2.565363 1_555
Ga3 Pd5 2.565363 1_555
Ga3 Pd6 2.590860 1_445
Ga3 Pd0 2.590860 1_455
Ga3 Pd4 2.682497 1_554
Ga3 Pd2 2.682497 1_554
Ga3 Pr2 3.099224 1_554
Ga3 Pr2 3.122109 1_454
Ga3 Pr3 3.144369 1_455
Pd0 Pd6 2.787042 1_555
Pd0 Pd4 2.974495 1_654
Pd0 Pr0 3.082282 1_655
Pd0 Pr2 3.083126 1_554
Pd0 Pr3 3.097588 1_555
Pd0 Pd3 3.179078 1_655
Pd0 Pd3 3.179078 1_555
Pd0 Pr1 3.355535 1_655
Pd0 Pr0 3.676419 1_555
Pd1 Pd7 2.787042 1_555
Pd1 Pd5 2.974495 1_565
Pd1 Pr1 3.082282 1_555
Pd1 Pr3 3.083126 1_565
Pd1 Pr2 3.097588 1_565
Pd1 Pd2 3.179078 1_665
Pd1 Pd2 3.179078 1_565
Pd1 Pr0 3.355535 1_556
Pd1 Pr1 3.676419 1_655
Pd2 Pd4 2.787042 1_555
Pd2 Pd6 2.974495 1_446
Pd2 Pr2 3.082282 1_455
Pd2 Pr0 3.083126 1_546
Pd2 Pr1 3.097588 1_545
Pd2 Pr3 3.355535 1_455
Pd2 Pr2 3.676419 1_555
Pd3 Pd5 2.787042 1_555
Pd3 Pd7 2.974495 1_555
Pd3 Pr3 3.082282 1_555
Pd3 Pr1 3.083126 1_555
Pd3 Pr0 3.097588 1_555
Pd3 Pr2 3.355535 1_554
Pd3 Pr3 3.676419 1_455
Pd4 Pr2 3.082282 1_455
Pd4 Pr0 3.083126 1_556
Pd4 Pr1 3.097588 1_555
Pd4 Pd7 3.179078 1_455
Pd4 Pd7 3.179078 1_555
Pd4 Pr3 3.355535 1_455
Pd4 Pr2 3.676419 1_555
Pd5 Pr3 3.082282 1_555
Pd5 Pr1 3.083126 1_545
Pd5 Pr0 3.097588 1_545
Pd5 Pd6 3.179078 1_445
Pd5 Pd6 3.179078 1_545
Pd5 Pr2 3.355535 1_554
Pd5 Pr3 3.676419 1_455
Pd6 Pr0 3.082282 1_655
Pd6 Pr2 3.083126 1_564
Pd6 Pr3 3.097588 1_565
Pd6 Pr1 3.355535 1_655
Pd6 Pr0 3.676419 1_555
Pd7 Pr1 3.082282 1_555
Pd7 Pr3 3.083126 1_555
Pd7 Pr2 3.097588 1_555
Pd7 Pr0 3.355535 1_556
Pd7 Pr1 3.676419 1_655
