# generated using pymatgen
data_InTe5Pb4
_symmetry_space_group_name_H-M   'P 1'
_cell_length_a   16.88059915
_cell_length_b   16.88059915
_cell_length_c   16.88059915
_cell_angle_alpha   164.34058756
_cell_angle_beta   164.34058756
_cell_angle_gamma   22.21579490
_symmetry_Int_Tables_number   1
_chemical_formula_structural   InTe5Pb4
_chemical_formula_sum   'In1 Te5 Pb4'
_cell_volume   350.38940124
_cell_formula_units_Z   1
loop_
 _symmetry_equiv_pos_site_id
 _symmetry_equiv_pos_as_xyz
  1  'x, y, z'
loop_
 _atom_site_type_symbol
 _atom_site_label
 _atom_site_symmetry_multiplicity
 _atom_site_fract_x
 _atom_site_fract_y
 _atom_site_fract_z
 _atom_site_occupancy
  In  In0  1  0.00000000  0.00000000  0.00000000  1
  Te  Te0  1  0.50000000  0.50000000  0.00000000  1
  Te  Te1  1  0.69991900  0.69991900  0.00000000  1
  Te  Te2  1  0.09950000  0.09950000  0.00000000  1
  Te  Te3  1  0.90050000  0.90050000  0.00000000  1
  Te  Te4  1  0.30008100  0.30008100  0.00000000  1
  Pb  Pb0  1  0.40012500  0.40012500  0.00000000  1
  Pb  Pb1  1  0.80015800  0.80015800  0.00000000  1
  Pb  Pb2  1  0.19984200  0.19984200  0.00000000  1
  Pb  Pb3  1  0.59987500  0.59987500  0.00000000  1
loop_
_geom_bond_atom_site_label_1
_geom_bond_atom_site_label_2
_geom_bond_distance
_geom_bond_site_symmetry_2
In0 Te0 3.252169 1_455
In0 Te0 3.252169 1_545
In0 Te0 3.252169 1_444
In0 Te0 3.252169 1_556
In0 Te2 3.296308 1_555
In0 Te3 3.296308 1_445
Pb0 Te3 3.252193 1_545
Pb0 Te3 3.252193 1_556
Pb0 Te3 3.252193 1_455
Pb0 Te3 3.252193 1_444
Pb0 Te0 3.308731 1_555
Pb0 Te4 3.314330 1_555
Pb1 Te4 3.252170 1_666
Pb1 Te4 3.252170 1_554
Pb1 Te4 3.252170 1_565
Pb1 Te4 3.252170 1_655
Pb1 Te1 3.320790 1_555
Pb1 Te3 3.324202 1_555
Pb2 Te1 3.252170 1_444
Pb2 Te1 3.252170 1_455
Pb2 Te1 3.252170 1_556
Pb2 Te1 3.252170 1_545
Pb2 Te4 3.320790 1_555
Pb2 Te2 3.324202 1_555
Pb3 Te2 3.252193 1_655
Pb3 Te2 3.252193 1_565
Pb3 Te2 3.252193 1_554
Pb3 Te2 3.252193 1_666
Pb3 Te0 3.308731 1_555
Pb3 Te1 3.314330 1_555
