# generated using pymatgen
data_BaCa(Fe12O19)2
_symmetry_space_group_name_H-M   'P 1'
_cell_length_a   6.00964236
_cell_length_b   6.00952700
_cell_length_c   23.33094900
_cell_angle_alpha   90.00000000
_cell_angle_beta   90.00000000
_cell_angle_gamma   60.00011525
_symmetry_Int_Tables_number   1
_chemical_formula_structural   BaCa(Fe12O19)2
_chemical_formula_sum   'Ba1 Ca1 Fe24 O38'
_cell_volume   729.71363106
_cell_formula_units_Z   1
loop_
 _symmetry_equiv_pos_site_id
 _symmetry_equiv_pos_as_xyz
  1  'x, y, z'
loop_
 _atom_site_type_symbol
 _atom_site_label
 _atom_site_symmetry_multiplicity
 _atom_site_fract_x
 _atom_site_fract_y
 _atom_site_fract_z
 _atom_site_occupancy
  Ba  Ba0  1  0.66662500  0.66663900  0.75000000  1
  Ca  Ca0  1  0.33342500  0.33379300  0.25000000  1
  Fe  Fe0  1  0.16843900  0.66333400  0.38861200  1
  Fe  Fe1  1  0.66346600  0.16824400  0.38861700  1
  Fe  Fe2  1  0.16836400  0.16832900  0.38862100  1
  Fe  Fe3  1  0.83182400  0.33607200  0.60740100  1
  Fe  Fe4  1  0.33591500  0.83201200  0.60740200  1
  Fe  Fe5  1  0.83190600  0.83194000  0.60739700  1
  Fe  Fe6  1  0.83182400  0.33607200  0.89259900  1
  Fe  Fe7  1  0.33591500  0.83201200  0.89259800  1
  Fe  Fe8  1  0.83190600  0.83194000  0.89260300  1
  Fe  Fe9  1  0.16843900  0.66333400  0.11138800  1
  Fe  Fe10  1  0.66346600  0.16824400  0.11138300  1
  Fe  Fe11  1  0.16836400  0.16832900  0.11137900  1
  Fe  Fe12  1  0.33328100  0.33336500  0.52621000  1
  Fe  Fe13  1  0.66674400  0.66666200  0.47030300  1
  Fe  Fe14  1  0.66674400  0.66666200  0.02969700  1
  Fe  Fe15  1  0.33328100  0.33336500  0.97379000  1
  Fe  Fe16  1  0.00004600  0.00002300  0.49770800  1
  Fe  Fe17  1  0.00004600  0.00002300  0.00229200  1
  Fe  Fe18  1  0.33325600  0.33331300  0.68994900  1
  Fe  Fe19  1  0.66675200  0.66667800  0.30824600  1
  Fe  Fe20  1  0.66675200  0.66667800  0.19175400  1
  Fe  Fe21  1  0.33325600  0.33331300  0.81005100  1
  Fe  Fe22  1  0.99994000  0.99996300  0.75000000  1
  Fe  Fe23  1  0.00004700  0.00000400  0.25000000  1
  O  O0  1  0.50374300  0.99233600  0.64863200  1
  O  O1  1  0.99222000  0.50381300  0.64862800  1
  O  O2  1  0.50371000  0.50386600  0.64863400  1
  O  O3  1  0.49198600  0.01611500  0.34606000  1
  O  O4  1  0.01637200  0.49186000  0.34603100  1
  O  O5  1  0.49193500  0.49174100  0.34601100  1
  O  O6  1  0.49198600  0.01611500  0.15394000  1
  O  O7  1  0.01637200  0.49186000  0.15396900  1
  O  O8  1  0.49193500  0.49174100  0.15398900  1
  O  O9  1  0.50374300  0.99233600  0.85136800  1
  O  O10  1  0.99222000  0.50381300  0.85137200  1
  O  O11  1  0.50371000  0.50386600  0.85136600  1
  O  O12  1  0.99989200  0.00000000  0.65082200  1
  O  O13  1  0.00009500  0.99999700  0.34642600  1
  O  O14  1  0.00009500  0.99999700  0.15357400  1
  O  O15  1  0.99989200  0.00000000  0.84917800  1
  O  O16  1  0.18266600  0.63439200  0.75000000  1
  O  O17  1  0.63439000  0.18276300  0.75000000  1
  O  O18  1  0.18276600  0.18271200  0.75000000  1
  O  O19  1  0.81733900  0.36567300  0.25000000  1
  O  O20  1  0.36557700  0.81716100  0.25000000  1
  O  O21  1  0.81727600  0.81749300  0.25000000  1
  O  O22  1  0.33340000  0.33333100  0.44306200  1
  O  O23  1  0.66657800  0.66667200  0.55353000  1
  O  O24  1  0.66657800  0.66667200  0.94647000  1
  O  O25  1  0.33340000  0.33333100  0.05693800  1
  O  O26  1  0.15489600  0.69006900  0.55094600  1
  O  O27  1  0.69000900  0.15495800  0.55093900  1
  O  O28  1  0.15491500  0.15499300  0.55095000  1
  O  O29  1  0.84424500  0.31162500  0.44471400  1
  O  O30  1  0.31168200  0.84416600  0.44472300  1
  O  O31  1  0.84430300  0.84419300  0.44471700  1
  O  O32  1  0.84424500  0.31162500  0.05528600  1
  O  O33  1  0.31168200  0.84416600  0.05527700  1
  O  O34  1  0.84430300  0.84419300  0.05528300  1
  O  O35  1  0.15489600  0.69006900  0.94905400  1
  O  O36  1  0.69000900  0.15495800  0.94906100  1
  O  O37  1  0.15491500  0.15499300  0.94905000  1
loop_
_geom_bond_atom_site_label_1
_geom_bond_atom_site_label_2
_geom_bond_distance
_geom_bond_site_symmetry_2
Ba0 O10 2.909512 1_555
Ba0 O1 2.909512 1_555
Ba0 O11 2.909669 1_555
Ba0 O2 2.909669 1_555
Ba0 O0 2.909727 1_555
Ba0 O9 2.909727 1_555
Ba0 O16 3.009011 1_655
Ba0 O18 3.009264 1_565
Ba0 O17 3.009406 1_555
Ba0 O17 3.009481 1_565
Ba0 O18 3.009679 1_655
Ba0 O16 3.009997 1_555
Ca0 O5 2.780342 1_555
Ca0 O8 2.780342 1_555
Ca0 O4 2.782565 1_555
Ca0 O7 2.782565 1_555
Ca0 O6 2.785020 1_555
Ca0 O3 2.785020 1_555
Ca0 O20 3.006085 1_555
Ca0 O19 3.008520 1_555
Ca0 O21 3.009090 1_455
Ca0 O21 3.009989 1_545
Ca0 O19 3.010277 1_455
Ca0 O20 3.012754 1_545
Fe0 O4 1.955942 1_555
Fe0 O5 1.956020 1_555
Fe0 O13 2.009650 1_555
Fe0 O22 2.136246 1_555
Fe0 O30 2.138055 1_555
Fe0 O31 2.138235 1_455
Fe1 O3 1.955960 1_555
Fe1 O5 1.956046 1_555
Fe1 O13 2.009582 1_645
Fe1 O22 2.136466 1_555
Fe1 O31 2.137797 1_545
Fe1 O29 2.138178 1_555
Fe2 O4 1.956006 1_555
Fe2 O3 1.956067 1_555
Fe2 O13 2.009484 1_545
Fe2 O22 2.136278 1_555
Fe2 O29 2.137987 1_455
Fe2 O30 2.138268 1_545
Fe3 O2 1.960128 1_555
Fe3 O1 1.960142 1_555
Fe3 O12 2.021256 1_555
Fe3 O23 2.130748 1_555
Fe3 O27 2.138666 1_555
Fe3 O28 2.139148 1_655
Fe4 O2 1.960233 1_555
Fe4 O0 1.960251 1_555
Fe4 O12 2.021052 1_465
Fe4 O23 2.131054 1_555
Fe4 O28 2.138681 1_565
Fe4 O26 2.138682 1_555
Fe5 O1 1.960136 1_555
Fe5 O0 1.960370 1_555
Fe5 O12 2.021197 1_565
Fe5 O23 2.130687 1_555
Fe5 O26 2.138766 1_655
Fe5 O27 2.138950 1_565
Fe6 O11 1.960128 1_555
Fe6 O10 1.960142 1_555
Fe6 O15 2.021256 1_555
Fe6 O24 2.130748 1_555
Fe6 O36 2.138666 1_555
Fe6 O37 2.139148 1_655
Fe7 O11 1.960233 1_555
Fe7 O9 1.960251 1_555
Fe7 O15 2.021052 1_465
Fe7 O24 2.131054 1_555
Fe7 O37 2.138681 1_565
Fe7 O35 2.138682 1_555
Fe8 O10 1.960136 1_555
Fe8 O9 1.960370 1_555
Fe8 O15 2.021197 1_565
Fe8 O24 2.130687 1_555
Fe8 O35 2.138766 1_655
Fe8 O36 2.138950 1_565
Fe9 O7 1.955942 1_555
Fe9 O8 1.956020 1_555
Fe9 O14 2.009650 1_555
Fe9 O25 2.136246 1_555
Fe9 O33 2.138055 1_555
Fe9 O34 2.138235 1_455
Fe10 O6 1.955960 1_555
Fe10 O8 1.956046 1_555
Fe10 O14 2.009582 1_645
Fe10 O25 2.136466 1_555
Fe10 O34 2.137797 1_545
Fe10 O32 2.138178 1_555
Fe11 O7 1.956006 1_555
Fe11 O6 1.956067 1_555
Fe11 O14 2.009484 1_545
Fe11 O25 2.136278 1_555
Fe11 O32 2.137987 1_455
Fe11 O33 2.138268 1_545
Fe12 O22 1.939922 1_555
Fe12 O26 1.944070 1_555
Fe12 O27 1.944174 1_555
Fe12 O28 1.944280 1_555
Fe13 O23 1.941765 1_555
Fe13 O29 1.941813 1_555
Fe13 O30 1.941906 1_555
Fe13 O31 1.942067 1_555
Fe14 O24 1.941765 1_554
Fe14 O32 1.941813 1_555
Fe14 O33 1.941906 1_555
Fe14 O34 1.942067 1_555
Fe15 O25 1.939922 1_556
Fe15 O35 1.944070 1_555
Fe15 O36 1.944174 1_555
Fe15 O37 1.944280 1_555
Fe16 O28 2.035514 1_555
Fe16 O26 2.035921 1_545
Fe16 O27 2.036188 1_455
Fe16 O31 2.039115 1_445
Fe16 O29 2.039267 1_455
Fe16 O30 2.039305 1_545
Fe17 O37 2.035514 1_554
Fe17 O35 2.035921 1_544
Fe17 O36 2.036188 1_454
Fe17 O34 2.039115 1_445
Fe17 O32 2.039267 1_455
Fe17 O33 2.039305 1_545
Fe18 O0 2.019499 1_545
Fe18 O2 2.019626 1_555
Fe18 O1 2.019843 1_455
Fe18 O16 2.101958 1_555
Fe18 O18 2.102014 1_555
Fe18 O17 2.102194 1_555
Fe19 O3 2.021310 1_565
Fe19 O4 2.021903 1_655
Fe19 O5 2.022309 1_555
Fe19 O19 2.073835 1_555
Fe19 O20 2.074526 1_555
Fe19 O21 2.075158 1_555
Fe20 O6 2.021310 1_565
Fe20 O7 2.021903 1_655
Fe20 O8 2.022309 1_555
Fe20 O19 2.073835 1_555
Fe20 O20 2.074526 1_555
Fe20 O21 2.075158 1_555
Fe21 O9 2.019499 1_545
Fe21 O11 2.019626 1_555
Fe21 O10 2.019843 1_455
Fe21 O16 2.101958 1_555
Fe21 O18 2.102014 1_555
Fe21 O17 2.102194 1_555
Fe22 O17 1.902508 1_565
Fe22 O16 1.902581 1_655
Fe22 O18 1.902617 1_665
Fe22 O12 2.313917 1_565
Fe22 O15 2.313917 1_565
Fe23 O21 1.901092 1_445
Fe23 O20 1.902404 1_545
Fe23 O19 1.903091 1_455
Fe23 O14 2.249710 1_545
Fe23 O13 2.249710 1_545
