# generated using pymatgen
data_Sc3(Ga2Ni)2
_symmetry_space_group_name_H-M   'P 1'
_cell_length_a   4.21268728
_cell_length_b   4.21268728
_cell_length_c   19.90241300
_cell_angle_alpha   90.00000000
_cell_angle_beta   90.00000000
_cell_angle_gamma   119.99998876
_symmetry_Int_Tables_number   1
_chemical_formula_structural   Sc3(Ga2Ni)2
_chemical_formula_sum   'Sc6 Ga8 Ni4'
_cell_volume   305.88266035
_cell_formula_units_Z   2
loop_
 _symmetry_equiv_pos_site_id
 _symmetry_equiv_pos_as_xyz
  1  'x, y, z'
loop_
 _atom_site_type_symbol
 _atom_site_label
 _atom_site_symmetry_multiplicity
 _atom_site_fract_x
 _atom_site_fract_y
 _atom_site_fract_z
 _atom_site_occupancy
  Sc  Sc0  1  0.00000000  0.00000000  0.24153700  1
  Sc  Sc1  1  0.00000000  0.00000000  0.57462900  1
  Sc  Sc2  1  0.00000000  0.00000000  0.90881900  1
  Sc  Sc3  1  0.00000000  0.00000000  0.09098400  1
  Sc  Sc4  1  0.00000000  0.00000000  0.42120700  1
  Sc  Sc5  1  0.00000000  0.00000000  0.75497100  1
  Ga  Ga0  1  0.66666700  0.33333300  0.49460300  1
  Ga  Ga1  1  0.66666700  0.33333300  0.82859200  1
  Ga  Ga2  1  0.66666700  0.33333300  0.01918100  1
  Ga  Ga3  1  0.66666700  0.33333300  0.34793400  1
  Ga  Ga4  1  0.66666700  0.33333300  0.68297900  1
  Ga  Ga5  1  0.33333300  0.66666700  0.31457800  1
  Ga  Ga6  1  0.33333300  0.66666700  0.64589700  1
  Ga  Ga7  1  0.33333300  0.66666700  0.98004900  1
  Ni  Ni0  1  0.33333300  0.66666700  0.18194900  1
  Ni  Ni1  1  0.33333300  0.66666700  0.51244400  1
  Ni  Ni2  1  0.33333300  0.66666700  0.84790500  1
  Ni  Ni3  1  0.66666700  0.33333300  0.15174300  1
loop_
_geom_bond_atom_site_label_1
_geom_bond_atom_site_label_2
_geom_bond_distance
_geom_bond_site_symmetry_2
Sc0 Sc3 2.996368 1_555
Sc0 Sc4 3.575867 1_555
Sc1 Sc4 3.053468 1_555
Sc1 Sc5 3.589241 1_555
Sc2 Sc5 3.061946 1_555
Sc2 Sc3 3.625523 1_556
Ga0 Ni1 2.457977 1_545
Ga0 Ni1 2.457977 1_655
Ga0 Ni1 2.457983 1_555
Ga0 Sc4 2.837143 1_655
Ga0 Sc4 2.837146 1_555
Ga0 Sc4 2.837146 1_665
Ga0 Sc1 2.907283 1_655
Ga0 Sc1 2.907286 1_665
Ga0 Sc1 2.907286 1_555
Ga0 Ga3 2.919067 1_555
Ga1 Ni2 2.462379 1_545
Ga1 Ni2 2.462379 1_655
Ga1 Ni2 2.462386 1_555
Ga1 Sc5 2.839451 1_655
Ga1 Sc5 2.839454 1_555
Ga1 Sc5 2.839454 1_665
Ga1 Ga4 2.898050 1_555
Ga1 Sc2 2.909476 1_655
Ga1 Sc2 2.909480 1_555
Ga1 Sc2 2.909480 1_665
Ga2 Ga7 2.553846 1_544
Ga2 Ga7 2.553846 1_654
Ga2 Ga7 2.553853 1_554
Ga2 Ni3 2.638304 1_555
Ga2 Sc3 2.820950 1_655
Ga2 Sc3 2.820953 1_555
Ga2 Sc3 2.820953 1_665
Ga2 Sc2 3.277201 1_654
Ga2 Sc2 3.277204 1_664
Ga2 Sc2 3.277204 1_554
Ga3 Ga5 2.521167 1_545
Ga3 Ga5 2.521167 1_655
Ga3 Ga5 2.521174 1_555
Ga3 Sc4 2.835883 1_655
Ga3 Sc4 2.835886 1_665
Ga3 Sc4 2.835886 1_555
Ga3 Sc0 3.224843 1_655
Ga3 Sc0 3.224846 1_555
Ga3 Sc0 3.224846 1_665
Ga4 Ga6 2.541701 1_545
Ga4 Ga6 2.541701 1_655
Ga4 Ga6 2.541707 1_555
Ga4 Sc5 2.822857 1_655
Ga4 Sc5 2.822861 1_665
Ga4 Sc5 2.822861 1_555
Ga4 Sc1 3.250499 1_655
Ga4 Sc1 3.250502 1_555
Ga4 Sc1 3.250502 1_665
Ga5 Ni0 2.639637 1_555
Ga5 Sc0 2.833511 1_565
Ga5 Sc0 2.833515 1_555
Ga5 Sc0 2.833515 1_665
Ga5 Sc4 3.227877 1_565
Ga5 Sc4 3.227880 1_665
Ga5 Sc4 3.227880 1_555
Ga6 Ni1 2.656037 1_555
Ga6 Sc1 2.815571 1_565
Ga6 Sc1 2.815574 1_665
Ga6 Sc1 2.815574 1_555
Ga6 Sc5 3.260076 1_565
Ga6 Sc5 3.260079 1_665
Ga6 Sc5 3.260079 1_555
Ga7 Ni2 2.629984 1_555
Ga7 Sc2 2.815190 1_565
Ga7 Sc2 2.815193 1_665
Ga7 Sc2 2.815193 1_555
Ni0 Ni3 2.505389 1_455
Ni0 Ni3 2.505389 1_565
Ni0 Ni3 2.505396 1_555
Ni0 Sc0 2.705925 1_565
Ni0 Sc0 2.705929 1_665
Ni0 Sc0 2.705929 1_555
Ni0 Sc3 3.032029 1_565
Ni0 Sc3 3.032032 1_555
Ni0 Sc3 3.032032 1_665
Ni1 Sc1 2.728974 1_565
Ni1 Sc1 2.728977 1_555
Ni1 Sc1 2.728977 1_665
Ni1 Sc4 3.035264 1_565
Ni1 Sc4 3.035267 1_555
Ni1 Sc4 3.035267 1_665
Ni2 Sc2 2.717595 1_565
Ni2 Sc2 2.717599 1_665
Ni2 Sc2 2.717599 1_555
Ni2 Sc5 3.055589 1_565
Ni2 Sc5 3.055593 1_665
Ni2 Sc5 3.055593 1_555
Ni3 Sc3 2.716220 1_655
Ni3 Sc3 2.716224 1_665
Ni3 Sc3 2.716224 1_555
Ni3 Sc0 3.018171 1_655
Ni3 Sc0 3.018174 1_665
Ni3 Sc0 3.018174 1_555
