# generated using pymatgen
data_V6CuO15
_symmetry_space_group_name_H-M   'P 1'
_cell_length_a   7.37201700
_cell_length_b   7.96432542
_cell_length_c   10.32272749
_cell_angle_alpha   106.91707466
_cell_angle_beta   89.99879555
_cell_angle_gamma   103.33108694
_symmetry_Int_Tables_number   1
_chemical_formula_structural   V6CuO15
_chemical_formula_sum   'V12 Cu2 O30'
_cell_volume   562.76166619
_cell_formula_units_Z   2
loop_
 _symmetry_equiv_pos_site_id
 _symmetry_equiv_pos_as_xyz
  1  'x, y, z'
loop_
 _atom_site_type_symbol
 _atom_site_label
 _atom_site_symmetry_multiplicity
 _atom_site_fract_x
 _atom_site_fract_y
 _atom_site_fract_z
 _atom_site_occupancy
  V  V0  1  0.35730600  0.42614200  0.59388700  1
  V  V1  1  0.85731700  0.43356000  0.59488400  1
  V  V2  1  0.64269400  0.57385800  0.40611300  1
  V  V3  1  0.14268300  0.56644000  0.40511600  1
  V  V4  1  0.44247000  0.77235300  0.88143100  1
  V  V5  1  0.94359000  0.77232200  0.88408500  1
  V  V6  1  0.55753000  0.22764700  0.11856900  1
  V  V7  1  0.05641000  0.22767800  0.11591500  1
  V  V8  1  0.33415500  0.33695200  0.90872500  1
  V  V9  1  0.83384300  0.33221000  0.90355000  1
  V  V10  1  0.66584500  0.66304800  0.09127500  1
  V  V11  1  0.16615700  0.66779000  0.09645000  1
  Cu  Cu0  1  0.23663400  0.94495500  0.63658000  1
  Cu  Cu1  1  0.76336600  0.05504500  0.36342000  1
  O  O0  1  0.68359900  0.73455000  0.91651000  1
  O  O1  1  0.18467400  0.73629100  0.92114800  1
  O  O2  1  0.31640100  0.26545000  0.08349000  1
  O  O3  1  0.81532600  0.26370900  0.07885200  1
  O  O4  1  0.30228800  0.20721200  0.54192600  1
  O  O5  1  0.80198800  0.20956100  0.53541900  1
  O  O6  1  0.69771200  0.79278800  0.45807400  1
  O  O7  1  0.19801200  0.79043900  0.46458100  1
  O  O8  1  0.37105200  0.48524500  0.77601100  1
  O  O9  1  0.87088500  0.48142400  0.77930900  1
  O  O10  1  0.62894800  0.51475500  0.22398900  1
  O  O11  1  0.12911500  0.51857600  0.22069100  1
  O  O12  1  0.43746900  0.80270700  0.73086200  1
  O  O13  1  0.96218400  0.79654900  0.73084900  1
  O  O14  1  0.56253100  0.19729300  0.26913800  1
  O  O15  1  0.03781600  0.20345100  0.26915100  1
  O  O16  1  0.50000000  0.00000000  0.00000000  1
  O  O17  1  0.00000000  0.00000000  0.00000000  1
  O  O18  1  0.28517900  0.13311400  0.79239000  1
  O  O19  1  0.78117800  0.13603100  0.79214500  1
  O  O20  1  0.71482100  0.86688600  0.20761000  1
  O  O21  1  0.21882200  0.86396900  0.20785500  1
  O  O22  1  0.37645500  0.51099100  0.42657900  1
  O  O23  1  0.87964400  0.51339200  0.42743900  1
  O  O24  1  0.62354500  0.48900900  0.57342100  1
  O  O25  1  0.12035600  0.48660800  0.57256100  1
  O  O26  1  0.60355800  0.38357100  0.95925400  1
  O  O27  1  0.08453400  0.36914900  0.95451700  1
  O  O28  1  0.39644200  0.61642900  0.04074600  1
  O  O29  1  0.91546600  0.63085100  0.04548300  1
loop_
_geom_bond_atom_site_label_1
_geom_bond_atom_site_label_2
_geom_bond_distance
_geom_bond_site_symmetry_2
Cu0 O18 1.819520 1_565
Cu0 O7 1.820640 1_555
Cu0 O12 2.416197 1_555
Cu0 O13 2.450305 1_455
Cu0 O4 2.504621 1_565
Cu1 O20 1.819520 1_545
Cu1 O5 1.820640 1_555
Cu1 O14 2.416197 1_555
Cu1 O15 2.450305 1_655
Cu1 O6 2.504621 1_545
O0 V5 1.915408 1_555
O0 V4 1.921442 1_555
O0 V10 2.039493 1_556
O1 V4 1.918117 1_555
O1 V5 1.920039 1_455
O1 V11 2.032513 1_556
O2 V7 1.915408 1_555
O2 V6 1.921442 1_555
O2 V8 2.039493 1_554
O3 V6 1.918117 1_555
O3 V7 1.920039 1_655
O3 V9 2.032513 1_554
O4 V0 1.619272 1_555
O5 V1 1.659204 1_555
O6 V2 1.619272 1_555
O7 V3 1.659204 1_555
O8 V0 1.797024 1_555
O8 V8 2.034495 1_555
O8 V4 2.164889 1_555
O9 V1 1.827492 1_555
O9 V9 1.966974 1_555
O9 V5 2.189460 1_555
O10 V2 1.797024 1_555
O10 V10 2.034495 1_555
O10 V6 2.164889 1_555
O11 V3 1.827492 1_555
O11 V11 1.966974 1_555
O11 V7 2.189460 1_555
O12 V4 1.642676 1_555
O13 V5 1.650326 1_555
O14 V6 1.642676 1_555
O15 V7 1.650326 1_555
O16 V6 1.821831 1_555
O16 V4 1.821831 1_544
O17 V7 1.811713 1_555
O17 V5 1.811713 1_444
O18 V8 1.674262 1_555
O19 V9 1.609045 1_555
O20 V10 1.674262 1_555
O21 V11 1.609045 1_555
O22 V3 1.903167 1_555
O22 V2 1.938027 1_555
O22 V0 2.023510 1_555
O23 V3 1.915894 1_655
O23 V2 1.944562 1_555
O23 V1 2.002580 1_555
O24 V1 1.903167 1_555
O24 V0 1.938027 1_555
O24 V2 2.023510 1_555
O25 V1 1.915894 1_455
O25 V0 1.944562 1_555
O25 V3 2.002580 1_555
O26 V9 1.887684 1_555
O26 V8 1.975239 1_555
O26 V10 2.187653 1_556
O26 V6 2.314320 1_556
O27 V9 1.854198 1_455
O27 V8 1.955148 1_555
O27 V7 2.252333 1_556
O27 V11 2.340473 1_556
O28 V11 1.887684 1_555
O28 V10 1.975239 1_555
O28 V8 2.187653 1_554
O28 V4 2.314320 1_554
O29 V11 1.854198 1_655
O29 V10 1.955148 1_555
O29 V5 2.252333 1_554
O29 V9 2.340473 1_554
