# generated using pymatgen
data_MgFe8(O7F)2
_symmetry_space_group_name_H-M   'P 1'
_cell_length_a   7.28196126
_cell_length_b   7.77075283
_cell_length_c   5.81790682
_cell_angle_alpha   113.21715348
_cell_angle_beta   110.45790346
_cell_angle_gamma   79.20173399
_symmetry_Int_Tables_number   1
_chemical_formula_structural   MgFe8(O7F)2
_chemical_formula_sum   'Mg1 Fe8 O14 F2'
_cell_volume   283.00102406
_cell_formula_units_Z   1
loop_
 _symmetry_equiv_pos_site_id
 _symmetry_equiv_pos_as_xyz
  1  'x, y, z'
loop_
 _atom_site_type_symbol
 _atom_site_label
 _atom_site_symmetry_multiplicity
 _atom_site_fract_x
 _atom_site_fract_y
 _atom_site_fract_z
 _atom_site_occupancy
  Mg  Mg0  1  0.74258700  0.73554300  0.97256900  1
  Fe  Fe0  1  0.74682000  0.23570200  0.50066500  1
  Fe  Fe1  1  0.47766700  0.02245000  0.97557600  1
  Fe  Fe2  1  0.24144300  0.26360600  0.53000300  1
  Fe  Fe3  1  0.72961500  0.78268800  0.47505900  1
  Fe  Fe4  1  0.50372600  0.46866000  0.03609500  1
  Fe  Fe5  1  0.97616200  0.03323500  0.98250000  1
  Fe  Fe6  1  0.23345200  0.75505500  0.50472500  1
  Fe  Fe7  1  0.03442700  0.46633100  0.05251900  1
  O  O0  1  0.97471700  0.18430900  0.34656800  1
  O  O1  1  0.92294900  0.22867600  0.83969700  1
  O  O2  1  0.56341000  0.26579200  0.17430900  1
  O  O3  1  0.30299600  0.03137900  0.65407700  1
  O  O4  1  0.51948700  0.31919700  0.68515500  1
  O  O5  1  0.75975400  0.56561400  0.16332900  1
  O  O6  1  0.71621700  0.93216200  0.82485500  1
  O  O7  1  0.23455100  0.42701100  0.88166300  1
  O  O8  1  0.47471100  0.67912000  0.34353800  1
  O  O9  1  0.66980600  0.96633300  0.29112900  1
  O  O10  1  0.19268900  0.47610200  0.39342300  1
  O  O11  1  0.43224300  0.76594200  0.83760600  1
  O  O12  1  0.04652200  0.73723100  0.16616600  1
  O  O13  1  0.00486400  0.82946200  0.65603400  1
  F  F0  1  0.80839400  0.52060200  0.68195100  1
  F  F1  1  0.26486300  0.07631600  0.16173900  1
loop_
_geom_bond_atom_site_label_1
_geom_bond_atom_site_label_2
_geom_bond_distance
_geom_bond_site_symmetry_2
Mg0 O6 1.979843 1_555
Mg0 O5 1.996899 1_556
Mg0 O12 2.103300 1_656
Mg0 O11 2.117858 1_555
Mg0 O9 2.154529 1_556
Fe0 O1 1.956726 1_555
Fe0 O2 1.975826 1_555
Fe0 O9 2.032777 1_545
Fe0 O0 2.055898 1_555
Fe0 O4 2.145703 1_555
Fe1 O2 1.875190 1_556
Fe1 O11 1.877974 1_545
Fe1 O3 1.878141 1_555
Fe1 O9 2.031046 1_546
Fe1 O6 2.098045 1_545
Fe2 O0 1.942191 1_455
Fe2 O7 1.949440 1_555
Fe2 O4 1.960498 1_555
Fe2 O10 2.025272 1_555
Fe2 O3 2.115719 1_555
Fe3 O6 1.932057 1_555
Fe3 O13 1.937562 1_655
Fe3 O8 1.939086 1_555
Fe3 O5 1.977438 1_555
Fe3 O9 2.004145 1_555
Fe4 O7 1.879210 1_554
Fe4 O5 1.927015 1_555
Fe4 O8 1.935710 1_555
Fe4 O4 1.942937 1_554
Fe4 O2 1.954244 1_555
Fe5 O1 1.922550 1_555
Fe5 O6 1.953635 1_545
Fe5 O0 1.978672 1_556
Fe5 O13 1.985148 1_645
Fe6 O12 1.932129 1_555
Fe6 O11 1.952003 1_555
Fe6 O13 2.035292 1_555
Fe6 O10 2.050921 1_555
Fe6 O3 2.061782 1_565
Fe6 O8 2.154306 1_555
Fe7 O10 1.893103 1_555
Fe7 O1 1.912814 1_454
Fe7 O12 1.951341 1_555
Fe7 O7 1.952297 1_554
Fe7 O5 2.223171 1_455
F0 Mg0 1.979406 1_555
F0 Fe0 2.101220 1_555
F0 Fe7 2.347604 1_656
F0 Fe3 2.634010 1_555
F1 Fe5 2.018709 1_454
F1 Fe1 2.079034 1_554
F1 Fe2 2.107504 1_555
