# generated using pymatgen
data_Co2CuN2
_symmetry_space_group_name_H-M   'P 1'
_cell_length_a   2.76289300
_cell_length_b   2.81589600
_cell_length_c   11.88860900
_cell_angle_alpha   90.00000000
_cell_angle_beta   90.00000000
_cell_angle_gamma   90.00000000
_symmetry_Int_Tables_number   1
_chemical_formula_structural   Co2CuN2
_chemical_formula_sum   'Co4 Cu2 N4'
_cell_volume   92.49360803
_cell_formula_units_Z   2
loop_
 _symmetry_equiv_pos_site_id
 _symmetry_equiv_pos_as_xyz
  1  'x, y, z'
loop_
 _atom_site_type_symbol
 _atom_site_label
 _atom_site_symmetry_multiplicity
 _atom_site_fract_x
 _atom_site_fract_y
 _atom_site_fract_z
 _atom_site_occupancy
  Co  Co0  1  0.75000000  0.71886000  0.08671800  1
  Co  Co1  1  0.75000000  0.71886000  0.41328200  1
  Co  Co2  1  0.25000000  0.28114000  0.91328200  1
  Co  Co3  1  0.25000000  0.28114000  0.58671800  1
  Cu  Cu0  1  0.75000000  0.75990400  0.75000000  1
  Cu  Cu1  1  0.25000000  0.24009600  0.25000000  1
  N  N0  1  0.75000000  0.73208300  0.58713100  1
  N  N1  1  0.75000000  0.73208300  0.91286900  1
  N  N2  1  0.25000000  0.26791700  0.41286900  1
  N  N3  1  0.25000000  0.26791700  0.08713100  1
loop_
_geom_bond_atom_site_label_1
_geom_bond_atom_site_label_2
_geom_bond_distance
_geom_bond_site_symmetry_2
Co0 N3 1.876388 1_555
Co0 N3 1.876388 1_655
Co0 N1 2.067158 1_554
Co0 N3 2.073356 1_565
Co0 N3 2.073356 1_665
Co1 N2 1.876388 1_555
Co1 N2 1.876388 1_655
Co1 N0 2.067158 1_555
Co1 N2 2.073356 1_665
Co1 N2 2.073356 1_565
Co2 N1 1.876388 1_455
Co2 N1 1.876388 1_555
Co2 N3 2.067158 1_556
Co2 N1 2.073356 1_545
Co2 N1 2.073356 1_445
Co3 N0 1.876388 1_555
Co3 N0 1.876388 1_455
Co3 N2 2.067158 1_555
Co3 N0 2.073356 1_445
Co3 N0 2.073356 1_545
Cu0 N0 1.937870 1_555
Cu0 N1 1.937870 1_555
Cu1 N2 1.937870 1_555
Cu1 N3 1.937870 1_555
