# generated using pymatgen
data_KLiMg14
_symmetry_space_group_name_H-M   'P 1'
_cell_length_a   6.54751467
_cell_length_b   6.40520885
_cell_length_c   10.68909497
_cell_angle_alpha   90.00000000
_cell_angle_beta   90.00000000
_cell_angle_gamma   119.28360697
_symmetry_Int_Tables_number   1
_chemical_formula_structural   KLiMg14
_chemical_formula_sum   'K1 Li1 Mg14'
_cell_volume   390.99517816
_cell_formula_units_Z   1
loop_
 _symmetry_equiv_pos_site_id
 _symmetry_equiv_pos_as_xyz
  1  'x, y, z'
loop_
 _atom_site_type_symbol
 _atom_site_label
 _atom_site_symmetry_multiplicity
 _atom_site_fract_x
 _atom_site_fract_y
 _atom_site_fract_z
 _atom_site_occupancy
  K  K0  1  0.16560258  0.33280079  0.12500000  1
  Li  Li0  1  0.16721035  0.83360467  0.12500000  1
  Mg  Mg0  1  0.16598173  0.33299036  0.62500000  1
  Mg  Mg1  1  0.16447674  0.83223787  0.62500000  1
  Mg  Mg2  1  0.66500150  0.33017955  0.12500000  1
  Mg  Mg3  1  0.66698174  0.33475828  0.62500000  1
  Mg  Mg4  1  0.66500150  0.83482094  0.12500000  1
  Mg  Mg5  1  0.66698174  0.83222246  0.62500000  1
  Mg  Mg6  1  0.33967739  0.16349756  0.38920947  1
  Mg  Mg7  1  0.33967739  0.16349756  0.86079053  1
  Mg  Mg8  1  0.33967739  0.67618083  0.38920947  1
  Mg  Mg9  1  0.33967739  0.67618083  0.86079053  1
  Mg  Mg10  1  0.82395198  0.16197649  0.38821304  1
  Mg  Mg11  1  0.82395198  0.16197649  0.86178696  1
  Mg  Mg12  1  0.83307431  0.66653766  0.37166590  1
  Mg  Mg13  1  0.83307431  0.66653766  0.87833410  1
loop_
_geom_bond_atom_site_label_1
_geom_bond_atom_site_label_2
_geom_bond_distance
_geom_bond_site_symmetry_2
K0 Li0 3.202618 1_555
K0 Li0 3.202618 1_545
K0 Mg4 3.269513 1_445
K0 Mg2 3.269513 1_455
K0 Mg4 3.278067 1_555
K0 Mg2 3.278067 1_555
K0 Mg7 3.414676 1_554
K0 Mg6 3.414676 1_555
K0 Mg9 3.414682 1_554
K0 Mg8 3.414682 1_555
K0 Mg11 3.423832 1_454
K0 Mg10 3.423832 1_455
Li0 Mg12 3.254691 1_455
Li0 Mg13 3.254691 1_454
Li0 Mg2 3.255491 1_565
Li0 Mg4 3.255491 1_555
Li0 Mg2 3.292037 1_455
Li0 Mg4 3.292037 1_455
Li0 Mg9 3.373673 1_554
Li0 Mg8 3.373673 1_555
Li0 Mg6 3.373679 1_565
Li0 Mg7 3.373679 1_564
Mg0 Mg6 3.167363 1_555
Mg0 Mg7 3.167363 1_555
Mg0 Mg9 3.167369 1_555
Mg0 Mg8 3.167369 1_555
Mg0 Mg11 3.197092 1_455
Mg0 Mg10 3.197092 1_455
Mg0 Mg1 3.202616 1_545
Mg0 Mg1 3.202616 1_555
Mg0 Mg5 3.272763 1_445
Mg0 Mg3 3.272764 1_455
Mg0 Mg5 3.274781 1_555
Mg0 Mg3 3.274781 1_555
Mg1 Mg8 3.128760 1_555
Mg1 Mg9 3.128760 1_555
Mg1 Mg6 3.128766 1_565
Mg1 Mg7 3.128766 1_565
Mg1 Mg3 3.257307 1_455
Mg1 Mg5 3.257308 1_455
Mg1 Mg3 3.290207 1_565
Mg1 Mg5 3.290207 1_555
Mg1 Mg13 3.303729 1_455
Mg1 Mg12 3.303729 1_455
Mg2 Mg4 3.172875 1_545
Mg2 Mg4 3.232333 1_555
Mg2 Mg7 3.380561 1_554
Mg2 Mg6 3.380561 1_555
Mg3 Mg6 3.138236 1_555
Mg3 Mg7 3.138236 1_555
Mg3 Mg5 3.186362 1_555
Mg3 Mg5 3.218847 1_545
Mg4 Mg9 3.380561 1_554
Mg4 Mg8 3.380561 1_555
Mg5 Mg8 3.138236 1_555
Mg5 Mg9 3.138236 1_555
Mg6 Mg8 3.121365 1_545
Mg6 Mg8 3.283843 1_555
Mg7 Mg9 3.121365 1_545
Mg7 Mg9 3.283843 1_555
Mg10 Mg3 3.130488 1_555
Mg10 Mg5 3.130495 1_545
Mg10 Mg8 3.175589 1_545
Mg10 Mg6 3.175590 1_555
Mg10 Mg12 3.207908 1_545
Mg10 Mg12 3.207908 1_555
Mg10 Mg2 3.355083 1_555
Mg10 Mg4 3.355089 1_545
Mg10 Mg8 3.371981 1_655
Mg10 Mg6 3.371982 1_655
Mg11 Mg3 3.130488 1_555
Mg11 Mg5 3.130495 1_545
Mg11 Mg9 3.175589 1_545
Mg11 Mg7 3.175590 1_555
Mg11 Mg13 3.207908 1_545
Mg11 Mg13 3.207908 1_555
Mg11 Mg2 3.355083 1_556
Mg11 Mg4 3.355089 1_546
Mg11 Mg9 3.371981 1_655
Mg11 Mg7 3.371982 1_655
Mg12 Mg4 3.238070 1_555
Mg12 Mg2 3.238076 1_555
Mg12 Mg6 3.266567 1_555
Mg12 Mg8 3.266568 1_555
Mg12 Mg5 3.281873 1_555
Mg12 Mg3 3.281879 1_555
Mg12 Mg6 3.292565 1_665
Mg12 Mg8 3.292565 1_655
Mg13 Mg4 3.238070 1_556
Mg13 Mg2 3.238076 1_556
Mg13 Mg7 3.266567 1_555
Mg13 Mg9 3.266568 1_555
Mg13 Mg5 3.281873 1_555
Mg13 Mg3 3.281879 1_555
Mg13 Mg7 3.292565 1_665
Mg13 Mg9 3.292565 1_655
