# generated using pymatgen
data_Mg14FeSi
_symmetry_space_group_name_H-M   'P 1'
_cell_length_a   6.19295888
_cell_length_b   6.19295888
_cell_length_c   10.10648200
_cell_angle_alpha   90.00000000
_cell_angle_beta   90.00000000
_cell_angle_gamma   119.68435275
_symmetry_Int_Tables_number   1
_chemical_formula_structural   Mg14FeSi
_chemical_formula_sum   'Mg14 Fe1 Si1'
_cell_volume   336.74380212
_cell_formula_units_Z   1
loop_
 _symmetry_equiv_pos_site_id
 _symmetry_equiv_pos_as_xyz
  1  'x, y, z'
loop_
 _atom_site_type_symbol
 _atom_site_label
 _atom_site_symmetry_multiplicity
 _atom_site_fract_x
 _atom_site_fract_y
 _atom_site_fract_z
 _atom_site_occupancy
  Mg  Mg0  1  0.83519200  0.16480800  0.00000000  1
  Mg  Mg1  1  0.33488000  0.66512000  0.00000000  1
  Mg  Mg2  1  0.34069000  0.16022300  0.50000000  1
  Mg  Mg3  1  0.33223400  0.16781500  0.00000000  1
  Mg  Mg4  1  0.83977700  0.65931000  0.50000000  1
  Mg  Mg5  1  0.83218500  0.66776600  0.00000000  1
  Mg  Mg6  1  0.16055900  0.33623500  0.27124900  1
  Mg  Mg7  1  0.16055900  0.33623500  0.72875100  1
  Mg  Mg8  1  0.66376500  0.83944100  0.27124900  1
  Mg  Mg9  1  0.66376500  0.83944100  0.72875100  1
  Mg  Mg10  1  0.66979600  0.33020400  0.25663900  1
  Mg  Mg11  1  0.66979600  0.33020400  0.74336100  1
  Mg  Mg12  1  0.16793500  0.83206500  0.25342600  1
  Mg  Mg13  1  0.16793500  0.83206500  0.74657400  1
  Fe  Fe0  1  0.83249100  0.16750900  0.50000000  1
  Si  Si0  1  0.32845000  0.67155000  0.50000000  1
loop_
_geom_bond_atom_site_label_1
_geom_bond_atom_site_label_2
_geom_bond_distance
_geom_bond_site_symmetry_2
Mg0 Mg5 3.068981 1_545
Mg0 Mg3 3.068981 1_655
Mg0 Mg1 3.111243 1_545
Mg0 Mg1 3.111243 1_655
Mg0 Mg3 3.124062 1_555
Mg0 Mg5 3.124062 1_555
Mg0 Mg10 3.140837 1_555
Mg0 Mg11 3.140837 1_554
Mg0 Mg8 3.253248 1_545
Mg0 Mg6 3.253248 1_655
Mg0 Mg9 3.253248 1_544
Mg0 Mg7 3.253248 1_654
Mg1 Mg5 3.071707 1_555
Mg1 Mg3 3.071707 1_555
Mg1 Mg3 3.121317 1_565
Mg1 Mg5 3.121317 1_455
Mg1 Mg12 3.123541 1_555
Mg1 Mg13 3.123541 1_554
Mg1 Mg8 3.263619 1_555
Mg1 Mg6 3.263619 1_555
Mg1 Mg9 3.263619 1_554
Mg1 Mg7 3.263619 1_554
Mg2 Si0 2.989519 1_545
Mg2 Mg7 2.996950 1_555
Mg2 Mg6 2.996950 1_555
Mg2 Mg4 3.105560 1_555
Mg2 Mg4 3.116922 1_445
Mg2 Si0 3.204842 1_555
Mg3 Mg5 3.110936 1_555
Mg3 Mg5 3.111546 1_445
Mg3 Mg6 3.291150 1_555
Mg3 Mg7 3.291150 1_554
Mg4 Si0 2.989519 1_655
Mg4 Mg9 2.996950 1_555
Mg4 Mg8 2.996950 1_555
Mg4 Si0 3.204842 1_555
Mg5 Mg8 3.291150 1_555
Mg5 Mg9 3.291150 1_554
Mg6 Si0 2.932498 1_555
Mg7 Si0 2.932498 1_555
Mg8 Si0 2.932498 1_555
Mg9 Si0 2.932498 1_555
Mg10 Mg6 3.024559 1_655
Mg10 Mg8 3.024559 1_545
Mg10 Mg2 3.030908 1_555
Mg10 Mg4 3.030908 1_555
Mg10 Mg12 3.111474 1_655
Mg10 Mg12 3.111474 1_545
Mg10 Mg3 3.166496 1_555
Mg10 Mg5 3.166496 1_555
Mg10 Mg8 3.175781 1_555
Mg10 Mg6 3.175781 1_555
Mg11 Mg7 3.024559 1_655
Mg11 Mg9 3.024559 1_545
Mg11 Mg2 3.030908 1_555
Mg11 Mg4 3.030908 1_555
Mg11 Mg13 3.111474 1_655
Mg11 Mg13 3.111474 1_545
Mg11 Mg3 3.166496 1_556
Mg11 Mg5 3.166496 1_556
Mg11 Mg9 3.175781 1_555
Mg11 Mg7 3.175781 1_555
Mg12 Si0 3.027388 1_555
Mg12 Mg6 3.053609 1_555
Mg12 Mg8 3.053609 1_555
Mg12 Mg4 3.054717 1_455
Mg12 Mg2 3.054717 1_565
Mg12 Mg5 3.134208 1_455
Mg12 Mg3 3.134208 1_565
Mg12 Mg8 3.150330 1_455
Mg12 Mg6 3.150330 1_565
Mg13 Si0 3.027388 1_555
Mg13 Mg7 3.053609 1_555
Mg13 Mg9 3.053609 1_555
Mg13 Mg4 3.054717 1_455
Mg13 Mg2 3.054717 1_565
Mg13 Mg5 3.134208 1_456
Mg13 Mg3 3.134208 1_566
Mg13 Mg9 3.150330 1_455
Mg13 Mg7 3.150330 1_565
Fe0 Mg7 2.908910 1_655
Fe0 Mg9 2.908910 1_545
Fe0 Mg6 2.908910 1_655
Fe0 Mg8 2.908910 1_545
Fe0 Mg11 3.014151 1_555
Fe0 Mg10 3.014151 1_555
Fe0 Mg2 3.023612 1_555
Fe0 Mg4 3.023612 1_555
Fe0 Si0 3.111542 1_545
Fe0 Si0 3.111542 1_655
Fe0 Mg4 3.169843 1_545
Fe0 Mg2 3.169843 1_655
