# generated using pymatgen
data_AlCrO3
_symmetry_space_group_name_H-M   'P 1'
_cell_length_a   5.51592820
_cell_length_b   5.51592820
_cell_length_c   11.63125600
_cell_angle_alpha   90.00000000
_cell_angle_beta   90.00000000
_cell_angle_gamma   120.00000235
_symmetry_Int_Tables_number   1
_chemical_formula_structural   AlCrO3
_chemical_formula_sum   'Al6 Cr6 O18'
_cell_volume   306.47456980
_cell_formula_units_Z   6
loop_
 _symmetry_equiv_pos_site_id
 _symmetry_equiv_pos_as_xyz
  1  'x, y, z'
loop_
 _atom_site_type_symbol
 _atom_site_label
 _atom_site_symmetry_multiplicity
 _atom_site_fract_x
 _atom_site_fract_y
 _atom_site_fract_z
 _atom_site_occupancy
  Al  Al0  1  0.66666700  0.33333300  0.24924600  1
  Al  Al1  1  0.33333300  0.66666700  0.74924600  1
  Al  Al2  1  0.66666700  0.33333300  0.74924600  1
  Al  Al3  1  0.33333300  0.66666700  0.24924600  1
  Al  Al4  1  0.00000000  0.00000000  0.75361700  1
  Al  Al5  1  0.00000000  0.00000000  0.25361700  1
  Cr  Cr0  1  0.66941100  0.00000000  0.50091900  1
  Cr  Cr1  1  0.66941100  0.66941100  0.00091900  1
  Cr  Cr2  1  0.00000000  0.33058900  0.00091900  1
  Cr  Cr3  1  0.00000000  0.66941100  0.50091900  1
  Cr  Cr4  1  0.33058900  0.33058900  0.50091900  1
  Cr  Cr5  1  0.33058900  0.00000000  0.00091900  1
  O  O0  1  0.66666700  0.33333300  0.01944500  1
  O  O1  1  0.33333300  0.66666700  0.51944500  1
  O  O2  1  0.66666700  0.33333300  0.51944500  1
  O  O3  1  0.33333300  0.66666700  0.01944500  1
  O  O4  1  0.00000000  0.00000000  0.97059600  1
  O  O5  1  0.00000000  0.00000000  0.47059600  1
  O  O6  1  0.35523100  0.00000000  0.82820500  1
  O  O7  1  0.35523100  0.35523100  0.32820500  1
  O  O8  1  0.00000000  0.64476900  0.32820500  1
  O  O9  1  0.00000000  0.35523100  0.82820500  1
  O  O10  1  0.64476900  0.64476900  0.82820500  1
  O  O11  1  0.64476900  0.00000000  0.32820500  1
  O  O12  1  0.31446800  0.00000000  0.17534500  1
  O  O13  1  0.31446800  0.31446800  0.67534500  1
  O  O14  1  0.00000000  0.68553200  0.67534500  1
  O  O15  1  0.00000000  0.31446800  0.17534500  1
  O  O16  1  0.68553200  0.68553200  0.17534500  1
  O  O17  1  0.68553200  0.00000000  0.67534500  1
loop_
_geom_bond_atom_site_label_1
_geom_bond_atom_site_label_2
_geom_bond_distance
_geom_bond_site_symmetry_2
Al0 O11 2.004133 1_555
Al0 O8 2.004135 1_655
Al0 O7 2.004138 1_555
Al0 O15 2.078846 1_655
Al0 O12 2.078848 1_555
Al0 O16 2.078851 1_555
Al1 O6 2.004133 1_565
Al1 O9 2.004135 1_555
Al1 O10 2.004138 1_555
Al1 O14 2.078846 1_555
Al1 O17 2.078848 1_565
Al1 O13 2.078851 1_555
Al2 O9 2.004133 1_655
Al2 O6 2.004135 1_555
Al2 O10 2.004138 1_555
Al2 O17 2.078846 1_555
Al2 O14 2.078848 1_655
Al2 O13 2.078851 1_555
Al3 O8 2.004133 1_555
Al3 O11 2.004135 1_565
Al3 O7 2.004138 1_555
Al3 O12 2.078846 1_565
Al3 O15 2.078848 1_555
Al3 O16 2.078851 1_555
Al4 O13 1.958982 1_555
Al4 O14 1.958982 1_545
Al4 O17 1.958982 1_455
Al4 O10 2.142897 1_445
Al4 O6 2.142897 1_555
Al4 O9 2.142897 1_555
Al5 O16 1.958982 1_445
Al5 O15 1.958982 1_555
Al5 O12 1.958982 1_555
Al5 O7 2.142897 1_555
Al5 O8 2.142897 1_545
Al5 O11 2.142897 1_455
Cr0 O5 1.857300 1_655
Cr0 O2 1.858787 1_555
Cr0 O1 1.858790 1_545
Cr0 O11 2.013474 1_555
Cr0 O17 2.030741 1_555
Cr1 O4 1.857300 1_664
Cr1 O0 1.858793 1_555
Cr1 O3 1.858793 1_555
Cr1 O10 2.013474 1_554
Cr1 O16 2.030741 1_555
Cr2 O4 1.857300 1_554
Cr2 O0 1.858787 1_455
Cr2 O3 1.858790 1_555
Cr2 O9 2.013474 1_554
Cr2 O15 2.030741 1_555
Cr3 O5 1.857300 1_565
Cr3 O1 1.858787 1_555
Cr3 O2 1.858790 1_455
Cr3 O8 2.013474 1_555
Cr3 O14 2.030741 1_555
Cr4 O5 1.857300 1_555
Cr4 O1 1.858793 1_555
Cr4 O2 1.858793 1_555
Cr4 O7 2.013474 1_555
Cr4 O13 2.030741 1_555
Cr5 O4 1.857300 1_554
Cr5 O3 1.858787 1_545
Cr5 O0 1.858790 1_555
Cr5 O6 2.013474 1_554
Cr5 O12 2.030741 1_555
