# generated using pymatgen
data_NaHfMg30O31
_symmetry_space_group_name_H-M   'P 1'
_cell_length_a   8.56201200
_cell_length_b   8.58446400
_cell_length_c   8.59528600
_cell_angle_alpha   90.00000000
_cell_angle_beta   90.00000000
_cell_angle_gamma   90.00000000
_symmetry_Int_Tables_number   1
_chemical_formula_structural   NaHfMg30O31
_chemical_formula_sum   'Na1 Hf1 Mg30 O31'
_cell_volume   631.75596018
_cell_formula_units_Z   1
loop_
 _symmetry_equiv_pos_site_id
 _symmetry_equiv_pos_as_xyz
  1  'x, y, z'
loop_
 _atom_site_type_symbol
 _atom_site_label
 _atom_site_symmetry_multiplicity
 _atom_site_fract_x
 _atom_site_fract_y
 _atom_site_fract_z
 _atom_site_occupancy
  Na  Na0  1  0.00012300  0.00000000  0.00000000  1
  Hf  Hf0  1  0.98668900  0.50000000  0.00000000  1
  Mg  Mg0  1  0.99990000  0.00000000  0.50000000  1
  Mg  Mg1  1  0.00152800  0.50000000  0.50000000  1
  Mg  Mg2  1  0.49970200  0.00000000  0.00000000  1
  Mg  Mg3  1  0.49984900  0.50000000  0.00000000  1
  Mg  Mg4  1  0.50004600  0.00000000  0.50000000  1
  Mg  Mg5  1  0.49972700  0.50000000  0.50000000  1
  Mg  Mg6  1  0.99995900  0.75653600  0.74450500  1
  Mg  Mg7  1  0.99995900  0.24346400  0.74450500  1
  Mg  Mg8  1  0.99995900  0.75653600  0.25549500  1
  Mg  Mg9  1  0.99995900  0.24346400  0.25549500  1
  Mg  Mg10  1  0.50022400  0.75133200  0.74925300  1
  Mg  Mg11  1  0.50022400  0.24866800  0.74925300  1
  Mg  Mg12  1  0.50022400  0.75133200  0.25074700  1
  Mg  Mg13  1  0.50022400  0.24866800  0.25074700  1
  Mg  Mg14  1  0.74429900  0.75793700  0.00000000  1
  Mg  Mg15  1  0.74429900  0.24206300  0.00000000  1
  Mg  Mg16  1  0.74934400  0.75214100  0.50000000  1
  Mg  Mg17  1  0.74934400  0.24785900  0.50000000  1
  Mg  Mg18  1  0.25414700  0.75541900  0.00000000  1
  Mg  Mg19  1  0.25414700  0.24458100  0.00000000  1
  Mg  Mg20  1  0.25065600  0.75123200  0.50000000  1
  Mg  Mg21  1  0.25065600  0.24876800  0.50000000  1
  Mg  Mg22  1  0.75055500  0.00000000  0.74996800  1
  Mg  Mg23  1  0.74778400  0.50000000  0.74515700  1
  Mg  Mg24  1  0.75055500  0.00000000  0.25003200  1
  Mg  Mg25  1  0.74778400  0.50000000  0.25484300  1
  Mg  Mg26  1  0.24944200  0.00000000  0.75074500  1
  Mg  Mg27  1  0.25295800  0.50000000  0.74715500  1
  Mg  Mg28  1  0.24944200  0.00000000  0.24925500  1
  Mg  Mg29  1  0.25295800  0.50000000  0.25284500  1
  O  O0  1  0.73696300  0.00000000  0.00000000  1
  O  O1  1  0.74801400  0.00000000  0.50000000  1
  O  O2  1  0.75017600  0.50000000  0.50000000  1
  O  O3  1  0.26284100  0.00000000  0.00000000  1
  O  O4  1  0.25071000  0.50000000  0.00000000  1
  O  O5  1  0.25198300  0.00000000  0.50000000  1
  O  O6  1  0.25188000  0.50000000  0.50000000  1
  O  O7  1  0.75048400  0.75211000  0.74835300  1
  O  O8  1  0.75048400  0.24789000  0.74835300  1
  O  O9  1  0.75048400  0.75211000  0.25164700  1
  O  O10  1  0.75048400  0.24789000  0.25164700  1
  O  O11  1  0.24938600  0.74993900  0.75108600  1
  O  O12  1  0.24938600  0.25006100  0.75108600  1
  O  O13  1  0.24938600  0.74993900  0.24891400  1
  O  O14  1  0.24938600  0.25006100  0.24891400  1
  O  O15  1  0.99979500  0.73801300  0.00000000  1
  O  O16  1  0.99979500  0.26198700  0.00000000  1
  O  O17  1  0.00022400  0.74740300  0.50000000  1
  O  O18  1  0.00022400  0.25259700  0.50000000  1
  O  O19  1  0.49998200  0.74695800  0.00000000  1
  O  O20  1  0.49998200  0.25304200  0.00000000  1
  O  O21  1  0.49969800  0.74886300  0.50000000  1
  O  O22  1  0.49969800  0.25113700  0.50000000  1
  O  O23  1  0.00035000  0.00000000  0.73708000  1
  O  O24  1  0.00634800  0.50000000  0.74399900  1
  O  O25  1  0.00035000  0.00000000  0.26292000  1
  O  O26  1  0.00634800  0.50000000  0.25600100  1
  O  O27  1  0.49964100  0.00000000  0.74824000  1
  O  O28  1  0.49960400  0.50000000  0.74942900  1
  O  O29  1  0.49964100  0.00000000  0.25176000  1
  O  O30  1  0.49960400  0.50000000  0.25057100  1
loop_
_geom_bond_atom_site_label_1
_geom_bond_atom_site_label_2
_geom_bond_distance
_geom_bond_site_symmetry_2
Na0 O16 2.249020 1_455
Na0 O15 2.249020 1_445
Na0 O3 2.249395 1_555
Na0 O0 2.253179 1_455
Na0 O23 2.259873 1_554
Na0 O25 2.259873 1_555
Hf0 O15 2.046293 1_555
Hf0 O16 2.046293 1_555
Hf0 O26 2.206830 1_655
Hf0 O24 2.206830 1_654
Hf0 O4 2.260551 1_655
Mg0 O25 2.037774 1_655
Mg0 O23 2.037774 1_655
Mg0 O1 2.156651 1_555
Mg0 O5 2.158338 1_655
Mg0 O18 2.168412 1_655
Mg0 O17 2.168412 1_645
Mg1 O24 2.097647 1_555
Mg1 O26 2.097647 1_555
Mg1 O17 2.123851 1_555
Mg1 O18 2.123851 1_555
Mg1 O6 2.143517 1_555
Mg1 O2 2.152079 1_455
Mg2 O3 2.028007 1_555
Mg2 O0 2.031432 1_555
Mg2 O27 2.163949 1_554
Mg2 O29 2.163949 1_555
Mg2 O20 2.172231 1_555
Mg2 O19 2.172231 1_545
Mg3 O19 2.120002 1_555
Mg3 O20 2.120002 1_555
Mg3 O4 2.133131 1_555
Mg3 O30 2.153730 1_555
Mg3 O28 2.153730 1_554
Mg4 O1 2.123105 1_555
Mg4 O5 2.123918 1_555
Mg4 O29 2.133697 1_555
Mg4 O27 2.133697 1_555
Mg4 O22 2.155879 1_555
Mg4 O21 2.155879 1_545
Mg5 O6 2.122069 1_555
Mg5 O21 2.136355 1_555
Mg5 O22 2.136355 1_555
Mg5 O30 2.143914 1_555
Mg5 O28 2.143914 1_555
Mg5 O2 2.144347 1_555
Mg6 O23 2.090985 1_665
Mg6 O17 2.103054 1_655
Mg6 O7 2.136602 1_555
Mg6 O11 2.137096 1_655
Mg6 O15 2.201802 1_556
Mg6 O24 2.202908 1_655
Mg7 O23 2.090985 1_655
Mg7 O18 2.103054 1_655
Mg7 O8 2.136602 1_555
Mg7 O12 2.137096 1_655
Mg7 O16 2.201802 1_556
Mg7 O24 2.202908 1_655
Mg8 O25 2.090985 1_665
Mg8 O17 2.103054 1_655
Mg8 O9 2.136602 1_555
Mg8 O13 2.137096 1_655
Mg8 O15 2.201802 1_555
Mg8 O26 2.202908 1_655
Mg9 O25 2.090985 1_655
Mg9 O18 2.103054 1_655
Mg9 O10 2.136602 1_555
Mg9 O14 2.137096 1_655
Mg9 O16 2.201802 1_555
Mg9 O26 2.202908 1_655
Mg10 O27 2.134705 1_565
Mg10 O21 2.142510 1_555
Mg10 O7 2.142753 1_555
Mg10 O11 2.147769 1_555
Mg10 O19 2.155570 1_556
Mg10 O28 2.157558 1_555
Mg11 O27 2.134705 1_555
Mg11 O22 2.142510 1_555
Mg11 O8 2.142753 1_555
Mg11 O12 2.147769 1_555
Mg11 O20 2.155570 1_556
Mg11 O28 2.157558 1_555
Mg12 O29 2.134705 1_565
Mg12 O21 2.142510 1_555
Mg12 O9 2.142753 1_555
Mg12 O13 2.147769 1_555
Mg12 O19 2.155570 1_555
Mg12 O30 2.157558 1_555
Mg13 O29 2.134705 1_555
Mg13 O22 2.142510 1_555
Mg13 O10 2.142753 1_555
Mg13 O14 2.147769 1_555
Mg13 O20 2.155570 1_555
Mg13 O30 2.157558 1_555
Mg14 O0 2.078930 1_565
Mg14 O19 2.093967 1_555
Mg14 O9 2.164204 1_555
Mg14 O7 2.164204 1_554
Mg14 O15 2.194236 1_555
Mg15 O0 2.078930 1_555
Mg15 O20 2.093967 1_555
Mg15 O10 2.164204 1_555
Mg15 O8 2.164204 1_554
Mg15 O16 2.194236 1_555
Mg16 O1 2.127767 1_565
Mg16 O7 2.134687 1_555
Mg16 O9 2.134687 1_555
Mg16 O21 2.137657 1_555
Mg16 O17 2.148423 1_655
Mg16 O2 2.164507 1_555
Mg17 O1 2.127767 1_555
Mg17 O8 2.134687 1_555
Mg17 O10 2.134687 1_555
Mg17 O22 2.137657 1_555
Mg17 O18 2.148423 1_655
Mg17 O2 2.164507 1_555
Mg18 O3 2.100916 1_565
Mg18 O19 2.106095 1_555
Mg18 O13 2.140392 1_555
Mg18 O11 2.140392 1_554
Mg18 O15 2.182885 1_455
Mg18 O4 2.192833 1_555
Mg19 O3 2.100916 1_555
Mg19 O20 2.106095 1_555
Mg19 O14 2.140392 1_555
Mg19 O12 2.140392 1_554
Mg19 O16 2.182885 1_455
Mg19 O4 2.192833 1_555
Mg20 O21 2.132398 1_555
Mg20 O5 2.135570 1_565
Mg20 O17 2.144454 1_555
Mg20 O6 2.156718 1_555
Mg20 O11 2.158212 1_555
Mg20 O13 2.158212 1_555
Mg21 O22 2.132398 1_555
Mg21 O5 2.135570 1_555
Mg21 O18 2.144454 1_555
Mg21 O6 2.156718 1_555
Mg21 O12 2.158212 1_555
Mg21 O14 2.158212 1_555
Mg22 O7 2.128048 1_545
Mg22 O8 2.128048 1_555
Mg22 O23 2.141615 1_655
Mg22 O27 2.148380 1_555
Mg22 O1 2.148657 1_555
Mg22 O0 2.152245 1_556
Mg23 O2 2.107294 1_555
Mg23 O28 2.125237 1_555
Mg23 O8 2.164527 1_555
Mg23 O7 2.164527 1_555
Mg23 O24 2.213850 1_655
Mg24 O9 2.128048 1_545
Mg24 O10 2.128048 1_555
Mg24 O25 2.141615 1_655
Mg24 O29 2.148380 1_555
Mg24 O1 2.148657 1_555
Mg24 O0 2.152245 1_555
Mg25 O2 2.107294 1_555
Mg25 O30 2.125237 1_555
Mg25 O10 2.164527 1_555
Mg25 O9 2.164527 1_555
Mg25 O26 2.213850 1_655
Mg26 O23 2.135960 1_555
Mg26 O27 2.142315 1_555
Mg26 O3 2.145487 1_556
Mg26 O12 2.146642 1_555
Mg26 O11 2.146642 1_545
Mg26 O5 2.155335 1_555
Mg27 O24 2.111652 1_555
Mg27 O28 2.111876 1_555
Mg27 O6 2.124388 1_555
Mg27 O11 2.146076 1_555
Mg27 O12 2.146076 1_555
Mg27 O4 2.173360 1_556
Mg28 O25 2.135960 1_555
Mg28 O29 2.142315 1_555
Mg28 O3 2.145487 1_555
Mg28 O14 2.146642 1_555
Mg28 O13 2.146642 1_545
Mg28 O5 2.155335 1_555
Mg29 O26 2.111652 1_555
Mg29 O30 2.111876 1_555
Mg29 O6 2.124388 1_555
Mg29 O13 2.146076 1_555
Mg29 O14 2.146076 1_555
Mg29 O4 2.173360 1_555
