# generated using pymatgen
data_Na4RhW5O26
_symmetry_space_group_name_H-M   'P 1'
_cell_length_a   10.05641174
_cell_length_b   11.99083705
_cell_length_c   12.41317380
_cell_angle_alpha   88.55833439
_cell_angle_beta   114.22791739
_cell_angle_gamma   113.63969206
_symmetry_Int_Tables_number   1
_chemical_formula_structural   Na4RhW5O26
_chemical_formula_sum   'Na8 Rh2 W10 O52'
_cell_volume   1232.92517606
_cell_formula_units_Z   2
loop_
 _symmetry_equiv_pos_site_id
 _symmetry_equiv_pos_as_xyz
  1  'x, y, z'
loop_
 _atom_site_type_symbol
 _atom_site_label
 _atom_site_symmetry_multiplicity
 _atom_site_fract_x
 _atom_site_fract_y
 _atom_site_fract_z
 _atom_site_occupancy
  Na  Na0  1  0.99795244  0.59863834  0.38758256  1
  Na  Na1  1  0.00204756  0.40136166  0.61241744  1
  Na  Na2  1  0.00000000  0.50000000  -0.00000000  1
  Na  Na3  1  0.00000000  -0.00000000  0.50000000  1
  Na  Na4  1  0.00116171  0.83560147  0.16446877  1
  Na  Na5  1  0.99883829  0.16439853  0.83553123  1
  Na  Na6  1  0.41421697  0.70160677  0.22377466  1
  Na  Na7  1  0.58578303  0.29839323  0.77622534  1
  Rh  Rh0  1  0.09576311  0.92760581  0.93081521  1
  Rh  Rh1  1  0.90423689  0.07239419  0.06918479  1
  W  W0  1  0.43339212  0.02823232  0.22587290  1
  W  W1  1  0.43791004  0.22679686  0.03610598  1
  W  W2  1  0.56660788  0.97176768  0.77412710  1
  W  W3  1  0.56208996  0.77320314  0.96389402  1
  W  W4  1  0.26874566  0.15552825  0.34605044  1
  W  W5  1  0.27402305  0.35266346  0.15535261  1
  W  W6  1  0.73125434  0.84447175  0.65394956  1
  W  W7  1  0.72597695  0.64733654  0.84464739  1
  W  W8  1  0.61139148  0.32961346  0.33016211  1
  W  W9  1  0.38860852  0.67038654  0.66983789  1
  O  O0  1  0.02942162  0.60788597  0.18017229  1
  O  O1  1  0.05031658  0.20449501  0.60174304  1
  O  O2  1  0.97057838  0.39211403  0.81982771  1
  O  O3  1  0.94968342  0.79550499  0.39825696  1
  O  O4  1  0.16995438  0.69703890  0.24223415  1
  O  O5  1  0.16956495  0.23495930  0.70291227  1
  O  O6  1  0.83004562  0.30296110  0.75776585  1
  O  O7  1  0.83043505  0.76504070  0.29708773  1
  O  O8  1  0.21623656  0.93414432  0.10457540  1
  O  O9  1  0.21991240  0.10612527  0.93938060  1
  O  O10  1  0.78376344  0.06585568  0.89542460  1
  O  O11  1  0.78008760  0.89387473  0.06061940  1
  O  O12  1  0.81317862  0.43342535  0.43471947  1
  O  O13  1  0.18682138  0.56657465  0.56528053  1
  O  O14  1  0.49846298  0.27436813  0.43011336  1
  O  O15  1  0.50233262  0.43691623  0.27498925  1
  O  O16  1  0.50153702  0.72563187  0.56988664  1
  O  O17  1  0.49766738  0.56308377  0.72501075  1
  O  O18  1  0.17630134  0.85976510  0.86570537  1
  O  O19  1  0.82369866  0.14023490  0.13429463  1
  O  O20  1  0.50202827  0.91262819  0.26122387  1
  O  O21  1  0.51499782  0.26551079  0.92976466  1
  O  O22  1  0.49797173  0.08737181  0.73877613  1
  O  O23  1  0.48500218  0.73448921  0.07023534  1
  O  O24  1  0.62778260  0.17323240  0.33339099  1
  O  O25  1  0.63188568  0.33480568  0.18061840  1
  O  O26  1  0.37221740  0.82676760  0.66660901  1
  O  O27  1  0.36811432  0.66519432  0.81938160  1
  O  O28  1  0.23962967  0.83548861  0.40705439  1
  O  O29  1  0.22368027  0.42993392  0.83153824  1
  O  O30  1  0.76037033  0.16451139  0.59294561  1
  O  O31  1  0.77631973  0.57006608  0.16846176  1
  O  O32  1  0.06555985  0.05023116  0.21758270  1
  O  O33  1  0.06753207  0.22668238  0.05138378  1
  O  O34  1  0.93444015  0.94976884  0.78241730  1
  O  O35  1  0.93246793  0.77331762  0.94861622  1
  O  O36  1  0.21675864  0.13004137  0.46723139  1
  O  O37  1  0.23356765  0.48587727  0.13573063  1
  O  O38  1  0.78324136  0.86995863  0.53276861  1
  O  O39  1  0.76643235  0.51412273  0.86426937  1
  O  O40  1  0.48897316  0.09142722  0.09704990  1
  O  O41  1  0.51102684  0.90857278  0.90295010  1
  O  O42  1  0.22646262  0.29624330  0.28986429  1
  O  O43  1  0.77353738  0.70375670  0.71013571  1
  O  O44  1  0.33975242  0.02712862  0.33726458  1
  O  O45  1  0.34638611  0.34392210  0.03377306  1
  O  O46  1  0.66024758  0.97287138  0.66273542  1
  O  O47  1  0.65361389  0.65607790  0.96622694  1
  O  O48  1  0.36439775  0.19937654  0.19799903  1
  O  O49  1  0.63560225  0.80062346  0.80200097  1
  O  O50  1  0.07429036  0.42564456  0.38159501  1
  O  O51  1  0.92570964  0.57435544  0.61840499  1
loop_
_geom_bond_atom_site_label_1
_geom_bond_atom_site_label_2
_geom_bond_distance
_geom_bond_site_symmetry_2
Na0 O12 2.366759 1_555
Na0 O13 2.392759 1_655
Na0 O50 2.495882 1_655
Na0 O3 2.610186 1_555
Na0 O31 2.634819 1_555
Na0 O0 2.714282 1_655
Na0 O28 2.836892 1_655
Na0 O4 2.908073 1_655
Na1 O13 2.366759 1_555
Na1 O12 2.392759 1_455
Na1 O51 2.495882 1_455
Na1 O1 2.610186 1_555
Na1 O29 2.634819 1_555
Na1 O2 2.714282 1_455
Na1 O30 2.836892 1_455
Na1 O6 2.908073 1_455
Na2 O39 2.332618 1_454
Na2 O37 2.332618 1_555
Na2 O2 2.461412 1_454
Na2 O0 2.461412 1_555
Na3 O38 2.306165 1_445
Na3 O36 2.306165 1_555
Na3 O1 2.549511 1_555
Na3 O3 2.549511 1_445
Na4 O8 2.419295 1_555
Na4 O32 2.423999 1_565
Na4 O11 2.437420 1_455
Na4 O35 2.526268 1_454
Na4 O4 2.722117 1_555
Na4 O7 2.730990 1_455
Na4 O0 2.850344 1_555
Na4 O28 2.982324 1_555
Na5 O10 2.419295 1_555
Na5 O34 2.423999 1_545
Na5 O9 2.437420 1_655
Na5 O33 2.526268 1_656
Na5 O6 2.722117 1_555
Na5 O5 2.730990 1_655
Na5 O2 2.850344 1_555
Na5 O30 2.982324 1_555
Na6 O23 2.268321 1_555
Na6 O20 2.308411 1_555
Na6 O37 2.435197 1_555
Na6 O4 2.538279 1_555
Na7 O21 2.268321 1_555
Na7 O22 2.308411 1_555
Na7 O39 2.435197 1_555
Na7 O6 2.538279 1_555
O0 O4 1.292222 1_555
O1 O5 1.258728 1_555
O2 O6 1.292222 1_555
O3 O7 1.258728 1_555
O8 W0 1.928695 1_565
O8 Rh0 1.978346 1_554
O9 W1 1.929895 1_556
O9 Rh0 1.977733 1_545
O10 W2 1.928695 1_545
O10 Rh1 1.978346 1_556
O11 W3 1.929895 1_554
O11 Rh1 1.977733 1_565
O12 W8 1.801614 1_555
O13 W9 1.801614 1_555
O14 W8 1.944135 1_555
O14 W4 1.978011 1_555
O15 W8 1.948901 1_555
O15 W5 1.978489 1_555
O16 W9 1.944135 1_555
O16 W6 1.978011 1_555
O17 W9 1.948901 1_555
O17 W7 1.978489 1_555
O18 Rh0 1.752037 1_555
O19 Rh1 1.752037 1_555
O20 W0 1.754602 1_565
O21 W1 1.754821 1_556
O22 W2 1.754602 1_545
O23 W3 1.754821 1_554
O24 W8 1.945149 1_555
O24 W0 1.968604 1_555
O25 W8 1.946828 1_555
O25 W1 1.979729 1_555
O26 W9 1.945149 1_555
O26 W2 1.968604 1_555
O27 W9 1.946828 1_555
O27 W3 1.979729 1_555
O32 W4 1.915814 1_555
O32 Rh1 1.991043 1_455
O33 W5 1.908544 1_555
O33 Rh1 2.002249 1_455
O34 W6 1.915814 1_555
O34 Rh0 1.991043 1_655
O35 W7 1.908544 1_555
O35 Rh0 2.002249 1_655
O36 W4 1.767381 1_555
O37 W5 1.787907 1_555
O38 W6 1.767381 1_555
O39 W7 1.787907 1_555
O40 W1 1.938711 1_555
O40 W0 1.943370 1_555
O41 W3 1.938711 1_555
O41 W2 1.943370 1_555
O42 W4 1.946011 1_555
O42 W5 1.952820 1_555
O43 W6 1.946011 1_555
O43 W7 1.952820 1_555
O44 W4 1.961191 1_555
O44 W0 1.963826 1_555
O45 W5 1.946460 1_555
O45 W1 1.957839 1_555
O46 W6 1.961191 1_555
O46 W2 1.963826 1_555
O47 W7 1.946460 1_555
O47 W3 1.957839 1_555
O48 W8 2.230133 1_555
O48 W5 2.319584 1_555
O48 W4 2.361327 1_555
O48 W1 2.384173 1_555
O48 W0 2.391992 1_555
O49 W9 2.230133 1_555
O49 W7 2.319584 1_555
O49 W6 2.361327 1_555
O49 W3 2.384173 1_555
O49 W2 2.391992 1_555
