# generated using pymatgen
data_Tb3Ge4
_symmetry_space_group_name_H-M   'P 1'
_cell_length_a   4.08257942
_cell_length_b   5.72093213
_cell_length_c   14.25365640
_cell_angle_alpha   89.99930372
_cell_angle_beta   90.00003322
_cell_angle_gamma   110.90864775
_symmetry_Int_Tables_number   1
_chemical_formula_structural   Tb3Ge4
_chemical_formula_sum   'Tb6 Ge8'
_cell_volume   310.98871503
_cell_formula_units_Z   2
loop_
 _symmetry_equiv_pos_site_id
 _symmetry_equiv_pos_as_xyz
  1  'x, y, z'
loop_
 _atom_site_type_symbol
 _atom_site_label
 _atom_site_symmetry_multiplicity
 _atom_site_fract_x
 _atom_site_fract_y
 _atom_site_fract_z
 _atom_site_occupancy
  Tb  Tb0  1  0.33010766  0.66004982  0.09659220  1
  Tb  Tb1  1  0.66990337  0.33997614  0.90332435  1
  Tb  Tb2  1  0.66990601  0.33997867  0.59667151  1
  Tb  Tb3  1  0.33010565  0.66004606  0.40341110  1
  Tb  Tb4  1  0.04388189  0.08834949  0.25000915  1
  Tb  Tb5  1  0.95617635  0.91176431  0.74999068  1
  Ge  Ge0  1  0.61938211  0.23884912  0.10906333  1
  Ge  Ge1  1  0.38063927  0.76119716  0.89099975  1
  Ge  Ge2  1  0.38063910  0.76119504  0.60898772  1
  Ge  Ge3  1  0.61938245  0.23884959  0.39094858  1
  Ge  Ge4  1  0.77143906  0.54249912  0.25000725  1
  Ge  Ge5  1  0.22859227  0.45755590  0.74999228  1
  Ge  Ge6  1  0.99992287  0.99984646  0.99995929  1
  Ge  Ge7  1  0.99992294  0.99984412  0.50004082  1
loop_
_geom_bond_atom_site_label_1
_geom_bond_atom_site_label_2
_geom_bond_distance
_geom_bond_site_symmetry_2
Ge0 Ge4 2.582520 1_555
Ge0 Ge6 2.866306 1_444
Ge0 Ge6 2.866685 1_544
Ge0 Tb4 2.974196 1_655
Ge0 Tb4 2.975520 1_555
Ge0 Tb1 2.981910 1_554
Ge0 Tb0 3.043678 1_555
Ge0 Tb0 3.044143 1_655
Ge0 Tb0 3.098332 1_545
Ge1 Ge5 2.583196 1_555
Ge1 Ge6 2.864351 1_555
Ge1 Ge6 2.864724 1_455
Ge1 Tb5 2.974894 1_455
Ge1 Tb5 2.976235 1_555
Ge1 Tb0 2.979876 1_556
Ge1 Tb1 3.043636 1_555
Ge1 Tb1 3.044102 1_455
Ge1 Tb1 3.098105 1_565
Ge2 Ge5 2.583124 1_555
Ge2 Ge7 2.864237 1_555
Ge2 Ge7 2.864605 1_455
Ge2 Tb5 2.974856 1_455
Ge2 Tb5 2.976189 1_555
Ge2 Tb3 2.979669 1_555
Ge2 Tb2 3.043616 1_555
Ge2 Tb2 3.044079 1_455
Ge2 Tb2 3.098118 1_565
Ge3 Ge4 2.582458 1_555
Ge3 Ge7 2.866201 1_445
Ge3 Ge7 2.866585 1_545
Ge3 Tb4 2.974150 1_655
Ge3 Tb4 2.975471 1_555
Ge3 Tb2 2.981701 1_555
Ge3 Tb3 3.043658 1_555
Ge3 Tb3 3.044121 1_655
Ge3 Tb3 3.098343 1_545
Ge4 Tb4 2.917141 1_665
Ge4 Tb3 3.056244 1_655
Ge4 Tb0 3.056352 1_655
Ge4 Tb3 3.056889 1_555
Ge4 Tb0 3.056994 1_555
Ge4 Tb4 3.170210 1_655
Ge4 Tb4 3.172516 1_555
Ge5 Tb5 2.916827 1_445
Ge5 Tb2 3.055442 1_455
Ge5 Tb1 3.055554 1_455
Ge5 Tb2 3.056063 1_555
Ge5 Tb1 3.056164 1_555
Ge5 Tb5 3.170457 1_455
Ge5 Tb5 3.172750 1_555
Ge6 Tb0 3.059361 1_556
Ge6 Tb0 3.059990 1_656
Ge6 Tb1 3.060427 1_665
Ge6 Tb1 3.061063 1_565
Ge7 Tb3 3.059368 1_555
Ge7 Tb3 3.059992 1_655
Ge7 Tb2 3.060435 1_665
Ge7 Tb2 3.061072 1_565
