# generated using pymatgen
data_Li9Mn2Co5O16
_symmetry_space_group_name_H-M   'P 1'
_cell_length_a   4.99331900
_cell_length_b   5.11529533
_cell_length_c   11.49783540
_cell_angle_alpha   80.40578345
_cell_angle_beta   84.63168280
_cell_angle_gamma   79.76576199
_symmetry_Int_Tables_number   1
_chemical_formula_structural   Li9Mn2Co5O16
_chemical_formula_sum   'Li9 Mn2 Co5 O16'
_cell_volume   284.34672814
_cell_formula_units_Z   1
loop_
 _symmetry_equiv_pos_site_id
 _symmetry_equiv_pos_as_xyz
  1  'x, y, z'
loop_
 _atom_site_type_symbol
 _atom_site_label
 _atom_site_symmetry_multiplicity
 _atom_site_fract_x
 _atom_site_fract_y
 _atom_site_fract_z
 _atom_site_occupancy
  Li  Li0  1  0.74027600  0.56399400  0.93144500  1
  Li  Li1  1  0.74268900  0.81982900  0.68071600  1
  Li  Li2  1  0.26764900  0.68092700  0.80252300  1
  Li  Li3  1  0.26514500  0.93104300  0.56447200  1
  Li  Li4  1  0.74771200  0.07432100  0.44449300  1
  Li  Li5  1  0.74893300  0.31178100  0.19526400  1
  Li  Li6  1  0.24583300  0.43452500  0.06062700  1
  Li  Li7  1  0.25255900  0.19017100  0.32288200  1
  Li  Li8  1  0.50434400  0.37522000  0.62762100  1
  Mn  Mn0  1  0.99575700  0.99771500  0.99659500  1
  Mn  Mn1  1  0.00264800  0.25103100  0.74753100  1
  Co  Co0  1  0.99478900  0.50526300  0.50800700  1
  Co  Co1  1  0.99887400  0.74698000  0.25404500  1
  Co  Co2  1  0.50357900  0.62810300  0.38125700  1
  Co  Co3  1  0.49323600  0.86582100  0.12393100  1
  Co  Co4  1  0.49773200  0.12275000  0.87322400  1
  O  O0  1  0.87417600  0.68043800  0.08585400  1
  O  O1  1  0.86719300  0.93223300  0.85064500  1
  O  O2  1  0.35763700  0.80631900  0.96613700  1
  O  O3  1  0.36609600  0.04507700  0.73321900  1
  O  O4  1  0.90359800  0.16306900  0.60688500  1
  O  O5  1  0.86405900  0.42360100  0.34830200  1
  O  O6  1  0.36188200  0.55303900  0.20905600  1
  O  O7  1  0.36882000  0.32333300  0.46216400  1
  O  O8  1  0.63882700  0.43134200  0.78840300  1
  O  O9  1  0.64777800  0.72086500  0.52738800  1
  O  O10  1  0.11073900  0.56894300  0.66502600  1
  O  O11  1  0.14200200  0.82994600  0.40004400  1
  O  O12  1  0.62910700  0.94203700  0.27620900  1
  O  O13  1  0.62721100  0.18836800  0.02318800  1
  O  O14  1  0.12699200  0.31051100  0.90205500  1
  O  O15  1  0.11212800  0.08140700  0.14079100  1
loop_
_geom_bond_atom_site_label_1
_geom_bond_atom_site_label_2
_geom_bond_distance
_geom_bond_site_symmetry_2
Li0 O8 2.017929 1_555
Li0 O2 2.127626 1_555
Li0 O1 2.131560 1_555
Li0 O14 2.158346 1_655
Li0 O0 2.160993 1_556
Li0 O13 2.172967 1_556
Li1 O9 2.031724 1_555
Li1 O10 2.057684 1_655
Li1 O4 2.079848 1_565
Li1 O3 2.116040 1_565
Li1 O8 2.275296 1_555
Li1 O1 2.294182 1_555
Li2 O3 2.025759 1_565
Li2 O10 2.033332 1_555
Li2 O8 2.064801 1_555
Li2 O2 2.194325 1_555
Li2 O14 2.234468 1_555
Li2 O1 2.252495 1_455
Li3 O4 2.042664 1_465
Li3 O9 2.063628 1_555
Li3 O11 2.208208 1_555
Li3 O10 2.233558 1_555
Li3 O3 2.241335 1_565
Li3 O7 2.268664 1_565
Li4 O9 2.020788 1_545
Li4 O5 2.083948 1_555
Li4 O7 2.097896 1_555
Li4 O11 2.202313 1_645
Li4 O4 2.231215 1_555
Li4 O12 2.312083 1_545
Li5 O15 2.084227 1_655
Li5 O5 2.096537 1_555
Li5 O6 2.108014 1_555
Li5 O12 2.124278 1_545
Li5 O0 2.238504 1_555
Li5 O13 2.336690 1_555
Li6 O6 2.066538 1_555
Li6 O0 2.074092 1_455
Li6 O15 2.077601 1_555
Li6 O13 2.138348 1_555
Li6 O2 2.164262 1_554
Li6 O14 2.191004 1_554
Li7 O7 2.010896 1_555
Li7 O11 2.052350 1_545
Li7 O5 2.112243 1_455
Li7 O12 2.150465 1_545
Li7 O6 2.207447 1_555
Li7 O15 2.446679 1_555
Li8 O10 2.078835 1_555
Li8 O3 2.092035 1_555
Li8 O8 2.104408 1_555
Li8 O4 2.106540 1_555
Li8 O9 2.140919 1_555
Li8 O7 2.149542 1_555
Mn0 O2 1.927068 1_655
Mn0 O0 1.932397 1_556
Mn0 O15 1.942926 1_666
Mn0 O13 1.946163 1_566
Mn0 O1 1.950825 1_555
Mn0 O14 1.957211 1_665
Mn1 O4 1.879747 1_455
Mn1 O10 1.880861 1_555
Mn1 O3 1.937273 1_555
Mn1 O8 1.939379 1_455
Mn1 O14 2.021990 1_555
Mn1 O1 2.029741 1_445
Co0 O9 1.897094 1_555
Co0 O7 1.998429 1_655
Co0 O4 2.021592 1_555
Co0 O10 2.039448 1_655
Co0 O11 2.101319 1_655
Co0 O5 2.132919 1_555
Co1 O12 1.952341 1_555
Co1 O6 1.973313 1_655
Co1 O5 2.006388 1_555
Co1 O11 2.019547 1_655
Co1 O15 2.098895 1_665
Co1 O0 2.182500 1_555
Co2 O7 1.876386 1_555
Co2 O11 1.926491 1_555
Co2 O5 1.952755 1_555
Co2 O12 1.999999 1_555
Co2 O9 2.044547 1_555
Co2 O6 2.276025 1_555
Co3 O6 1.918032 1_555
Co3 O0 2.012638 1_555
Co3 O13 2.030188 1_565
Co3 O15 2.032636 1_565
Co3 O12 2.054659 1_555
Co3 O2 2.080842 1_554
Co4 O3 1.919688 1_555
Co4 O8 1.921649 1_555
Co4 O1 1.943300 1_545
Co4 O14 1.954195 1_555
Co4 O2 1.984118 1_545
Co4 O13 1.995588 1_556
