# generated using pymatgen
data_SnH4S6(NCl)6
_symmetry_space_group_name_H-M   'P 1'
_cell_length_a   13.29017400
_cell_length_b   7.36416000
_cell_length_c   11.93042056
_cell_angle_alpha   57.87495881
_cell_angle_beta   90.00000000
_cell_angle_gamma   90.00000000
_symmetry_Int_Tables_number   1
_chemical_formula_structural   SnH4S6(NCl)6
_chemical_formula_sum   'Sn2 H8 S12 N12 Cl12'
_cell_volume   988.86369267
_cell_formula_units_Z   2
loop_
 _symmetry_equiv_pos_site_id
 _symmetry_equiv_pos_as_xyz
  1  'x, y, z'
loop_
 _atom_site_type_symbol
 _atom_site_label
 _atom_site_symmetry_multiplicity
 _atom_site_fract_x
 _atom_site_fract_y
 _atom_site_fract_z
 _atom_site_occupancy
  Sn  Sn0  1  0.50000000  0.50000000  0.50000000  1
  Sn  Sn1  1  0.00000000  0.50000000  0.00000000  1
  H  H0  1  0.27269700  0.55540800  0.83787700  1
  H  H1  1  0.22730300  0.55540800  0.33787700  1
  H  H2  1  0.72730300  0.44459200  0.16212300  1
  H  H3  1  0.77269700  0.44459200  0.66212300  1
  H  H4  1  0.37268800  0.64258500  0.72285300  1
  H  H5  1  0.12731200  0.64258500  0.22285300  1
  H  H6  1  0.62731200  0.35741500  0.27714700  1
  H  H7  1  0.87268800  0.35741500  0.77714700  1
  S  S0  1  0.34303300  0.04511500  0.98304900  1
  S  S1  1  0.15696700  0.04511500  0.48304900  1
  S  S2  1  0.65696700  0.95488500  0.01695100  1
  S  S3  1  0.84303300  0.95488500  0.51695100  1
  S  S4  1  0.42020800  0.35760700  0.92005900  1
  S  S5  1  0.07979200  0.35760700  0.42005900  1
  S  S6  1  0.57979200  0.64239300  0.07994100  1
  S  S7  1  0.92020800  0.64239300  0.57994100  1
  S  S8  1  0.32399800  0.16097800  0.16599400  1
  S  S9  1  0.17600200  0.16097800  0.66599400  1
  S  S10  1  0.67600200  0.83902200  0.83400600  1
  S  S11  1  0.82399800  0.83902200  0.33400600  1
  N  N0  1  0.40305900  0.33160900  0.06283500  1
  N  N1  1  0.09694100  0.33160900  0.56283500  1
  N  N2  1  0.59694100  0.66839100  0.93716500  1
  N  N3  1  0.90305900  0.66839100  0.43716500  1
  N  N4  1  0.29218000  0.01121000  0.11575800  1
  N  N5  1  0.20782000  0.01121000  0.61575800  1
  N  N6  1  0.70782000  0.98879000  0.88424200  1
  N  N7  1  0.79218000  0.98879000  0.38424200  1
  N  N8  1  0.34687100  0.54784600  0.81811700  1
  N  N9  1  0.15312900  0.54784600  0.31811700  1
  N  N10  1  0.65312900  0.45215400  0.18188300  1
  N  N11  1  0.84687100  0.45215400  0.68188300  1
  Cl  Cl0  1  0.45419800  0.16713200  0.71429800  1
  Cl  Cl1  1  0.04580200  0.16713200  0.21429800  1
  Cl  Cl2  1  0.54580200  0.83286800  0.28570200  1
  Cl  Cl3  1  0.95419800  0.83286800  0.78570200  1
  Cl  Cl4  1  0.33457000  0.65893100  0.49682100  1
  Cl  Cl5  1  0.16543000  0.65893100  0.99682100  1
  Cl  Cl6  1  0.66543000  0.34106900  0.50317900  1
  Cl  Cl7  1  0.83457000  0.34106900  0.00317900  1
  Cl  Cl8  1  0.42718400  0.35095600  0.37553900  1
  Cl  Cl9  1  0.07281600  0.35095600  0.87553900  1
  Cl  Cl10  1  0.57281600  0.64904400  0.62446100  1
  Cl  Cl11  1  0.92718400  0.64904400  0.12446100  1
loop_
_geom_bond_atom_site_label_1
_geom_bond_atom_site_label_2
_geom_bond_distance
_geom_bond_site_symmetry_2
H0 N8 1.021965 1_555
H1 N9 1.021965 1_555
H2 N10 1.021965 1_555
H3 N11 1.021965 1_555
H4 N8 1.026100 1_555
H5 N9 1.026100 1_555
H6 N10 1.026100 1_555
H7 N11 1.026100 1_555
N0 S8 1.597789 1_555
N0 S4 1.625809 1_554
N1 S9 1.597789 1_555
N1 S5 1.625809 1_555
N2 S10 1.597789 1_555
N2 S6 1.625809 1_556
N3 S11 1.597789 1_555
N3 S7 1.625809 1_555
N4 S8 1.567629 1_555
N4 S0 1.614135 1_554
N5 S9 1.567629 1_555
N5 S1 1.614135 1_555
N6 S10 1.567629 1_555
N6 S2 1.614135 1_556
N7 S11 1.567629 1_555
N7 S3 1.614135 1_555
N8 S4 1.606140 1_555
N9 S5 1.606140 1_555
N10 S6 1.606140 1_555
N11 S7 1.606140 1_555
Cl0 Sn0 2.500115 1_555
Cl1 Sn1 2.500115 1_555
Cl2 Sn0 2.500115 1_555
Cl3 Sn1 2.500115 1_656
Cl4 Sn0 2.481504 1_555
Cl5 Sn1 2.481504 1_556
Cl6 Sn0 2.481504 1_555
Cl7 Sn1 2.481504 1_655
Cl8 Sn0 2.465639 1_555
Cl9 Sn1 2.465639 1_556
Cl10 Sn0 2.465639 1_555
Cl11 Sn1 2.465639 1_655
