# generated using pymatgen
data_Sr3CdIrO6
_symmetry_space_group_name_H-M   'P 1'
_cell_length_a   6.86368458
_cell_length_b   6.86368458
_cell_length_c   6.86368468
_cell_angle_alpha   90.04731417
_cell_angle_beta   90.04731417
_cell_angle_gamma   90.04730420
_symmetry_Int_Tables_number   1
_chemical_formula_structural   Sr3CdIrO6
_chemical_formula_sum   'Sr6 Cd2 Ir2 O12'
_cell_volume   323.34899447
_cell_formula_units_Z   2
loop_
 _symmetry_equiv_pos_site_id
 _symmetry_equiv_pos_as_xyz
  1  'x, y, z'
loop_
 _atom_site_type_symbol
 _atom_site_label
 _atom_site_symmetry_multiplicity
 _atom_site_fract_x
 _atom_site_fract_y
 _atom_site_fract_z
 _atom_site_occupancy
  Sr  Sr0  1  0.75000000  0.38818900  0.11181100  1
  Sr  Sr1  1  0.11181100  0.75000000  0.38818900  1
  Sr  Sr2  1  0.25000000  0.61181100  0.88818900  1
  Sr  Sr3  1  0.38818900  0.11181100  0.75000000  1
  Sr  Sr4  1  0.61181100  0.88818900  0.25000000  1
  Sr  Sr5  1  0.88818900  0.25000000  0.61181100  1
  Cd  Cd0  1  0.25000000  0.25000000  0.25000000  1
  Cd  Cd1  1  0.75000000  0.75000000  0.75000000  1
  Ir  Ir0  1  0.50000000  0.50000000  0.50000000  1
  Ir  Ir1  1  0.00000000  0.00000000  0.00000000  1
  O  O0  1  0.08360800  0.28251700  0.94824200  1
  O  O1  1  0.94824200  0.08360800  0.28251700  1
  O  O2  1  0.28251700  0.94824200  0.08360800  1
  O  O3  1  0.41639200  0.55175800  0.21748300  1
  O  O4  1  0.21748300  0.41639200  0.55175800  1
  O  O5  1  0.55175800  0.21748300  0.41639200  1
  O  O6  1  0.91639200  0.71748300  0.05175800  1
  O  O7  1  0.05175800  0.91639200  0.71748300  1
  O  O8  1  0.71748300  0.05175800  0.91639200  1
  O  O9  1  0.58360800  0.44824200  0.78251700  1
  O  O10  1  0.44824200  0.78251700  0.58360800  1
  O  O11  1  0.78251700  0.58360800  0.44824200  1
loop_
_geom_bond_atom_site_label_1
_geom_bond_atom_site_label_2
_geom_bond_distance
_geom_bond_site_symmetry_2
Cd0 O5 2.375110 1_555
Cd0 O2 2.375110 1_545
Cd0 O4 2.375110 1_555
Cd0 O0 2.375110 1_554
Cd0 O3 2.375110 1_555
Cd0 O1 2.375110 1_455
Cd1 O8 2.375110 1_565
Cd1 O10 2.375110 1_555
Cd1 O6 2.375110 1_556
Cd1 O11 2.375110 1_555
Cd1 O7 2.375110 1_655
Cd1 O9 2.375110 1_555
Ir0 O10 2.053118 1_555
Ir0 O5 2.053118 1_555
Ir0 O9 2.053118 1_555
Ir0 O3 2.053118 1_555
Ir0 O11 2.053118 1_555
Ir0 O4 2.053118 1_555
Ir1 O8 2.053118 1_454
Ir1 O2 2.053118 1_545
Ir1 O1 2.053118 1_455
Ir1 O7 2.053118 1_544
Ir1 O0 2.053118 1_554
Ir1 O6 2.053118 1_445
O0 Sr2 2.565273 1_555
O0 Sr0 2.652399 1_456
O0 Sr5 2.678549 1_455
O0 Sr3 2.756944 1_555
O1 Sr5 2.565273 1_555
O1 Sr1 2.652399 1_645
O1 Sr4 2.678549 1_545
O1 Sr0 2.756944 1_555
O2 Sr4 2.565273 1_555
O2 Sr3 2.652399 1_564
O2 Sr2 2.678549 1_554
O2 Sr1 2.756944 1_555
O3 Sr2 2.565273 1_554
O3 Sr0 2.652399 1_555
O3 Sr4 2.678549 1_555
O3 Sr1 2.756944 1_555
O4 Sr5 2.565273 1_455
O4 Sr1 2.652399 1_555
O4 Sr2 2.678549 1_555
O4 Sr3 2.756944 1_555
O5 Sr4 2.565273 1_545
O5 Sr3 2.652399 1_555
O5 Sr5 2.678549 1_555
O5 Sr0 2.756944 1_555
O6 Sr0 2.565273 1_555
O6 Sr2 2.652399 1_654
O6 Sr1 2.678549 1_655
O6 Sr4 2.756944 1_555
O7 Sr1 2.565273 1_555
O7 Sr5 2.652399 1_465
O7 Sr3 2.678549 1_565
O7 Sr2 2.756944 1_555
O8 Sr3 2.565273 1_555
O8 Sr4 2.652399 1_546
O8 Sr0 2.678549 1_556
O8 Sr5 2.756944 1_555
O9 Sr0 2.565273 1_556
O9 Sr2 2.652399 1_555
O9 Sr3 2.678549 1_555
O9 Sr5 2.756944 1_555
O10 Sr3 2.565273 1_565
O10 Sr4 2.652399 1_555
O10 Sr1 2.678549 1_555
O10 Sr2 2.756944 1_555
O11 Sr1 2.565273 1_655
O11 Sr5 2.652399 1_555
O11 Sr0 2.678549 1_555
O11 Sr4 2.756944 1_555
