# generated using pymatgen
data_Nd3Re2O9
_symmetry_space_group_name_H-M   'P 1'
_cell_length_a   5.60216909
_cell_length_b   6.81037034
_cell_length_c   11.02256004
_cell_angle_alpha   76.98733862
_cell_angle_beta   75.43775778
_cell_angle_gamma   68.91946431
_symmetry_Int_Tables_number   1
_chemical_formula_structural   Nd3Re2O9
_chemical_formula_sum   'Nd6 Re4 O18'
_cell_volume   375.54155711
_cell_formula_units_Z   2
loop_
 _symmetry_equiv_pos_site_id
 _symmetry_equiv_pos_as_xyz
  1  'x, y, z'
loop_
 _atom_site_type_symbol
 _atom_site_label
 _atom_site_symmetry_multiplicity
 _atom_site_fract_x
 _atom_site_fract_y
 _atom_site_fract_z
 _atom_site_occupancy
  Nd  Nd0  1  0.00447074  0.22216513  0.27061003  1
  Nd  Nd1  1  0.99552926  0.77783487  0.72938997  1
  Nd  Nd2  1  0.22524997  0.16030351  0.88346101  1
  Nd  Nd3  1  0.77475003  0.83969649  0.11653899  1
  Nd  Nd4  1  0.28614026  0.59508198  0.37749106  1
  Nd  Nd5  1  0.71385974  0.40491802  0.62250894  1
  Re  Re0  1  0.51321064  0.38772310  0.09194034  1
  Re  Re1  1  0.48678936  0.61227690  0.90805966  1
  Re  Re2  1  0.35557466  0.12330199  0.57083298  1
  Re  Re3  1  0.64442534  0.87669801  0.42916702  1
  O  O0  1  0.30168505  0.41970213  0.58813488  1
  O  O1  1  0.69831495  0.58029787  0.41186512  1
  O  O2  1  0.59260289  0.06511673  0.68585742  1
  O  O3  1  0.40739711  0.93488327  0.31414258  1
  O  O4  1  0.86255156  0.18829677  0.06245594  1
  O  O5  1  0.13744844  0.81170323  0.93754406  1
  O  O6  1  0.38958165  0.16796472  0.07326432  1
  O  O7  1  0.61041835  0.83203528  0.92673568  1
  O  O8  1  0.06451188  0.11363554  0.71467096  1
  O  O9  1  0.93548812  0.88636446  0.28532904  1
  O  O10  1  0.17843990  0.50814404  0.19268927  1
  O  O11  1  0.82156010  0.49185596  0.80731073  1
  O  O12  1  0.10068674  0.24578921  0.46467896  1
  O  O13  1  0.89931326  0.75421079  0.53532104  1
  O  O14  1  0.64584081  0.52507341  0.18289092  1
  O  O15  1  0.35415919  0.47492659  0.81710908  1
  O  O16  1  0.61551986  0.18661428  0.41377637  1
  O  O17  1  0.38448014  0.81338572  0.58622363  1
loop_
_geom_bond_atom_site_label_1
_geom_bond_atom_site_label_2
_geom_bond_distance
_geom_bond_site_symmetry_2
Nd0 O10 2.381594 1_555
Nd0 O12 2.385272 1_555
Nd0 O16 2.403149 1_455
Nd0 O9 2.417198 1_445
Nd0 O3 2.469477 1_545
Nd0 O14 2.514786 1_455
Nd0 O6 2.636546 1_555
Nd0 O4 2.690185 1_455
Nd0 O1 2.944952 1_455
Nd1 O11 2.381594 1_555
Nd1 O13 2.385272 1_555
Nd1 O17 2.403149 1_655
Nd1 O8 2.417198 1_665
Nd1 O2 2.469477 1_565
Nd1 O15 2.514786 1_655
Nd1 O7 2.636546 1_555
Nd1 O5 2.690185 1_655
Nd1 O0 2.944952 1_655
Nd2 O8 2.384947 1_555
Nd2 O15 2.406119 1_555
Nd2 O4 2.435655 1_456
Nd2 O6 2.505884 1_556
Nd2 O5 2.507769 1_545
Nd2 O7 2.539435 1_545
Nd2 O2 2.611837 1_555
Nd2 O11 2.710214 1_455
Nd3 O9 2.384947 1_555
Nd3 O14 2.406119 1_555
Nd3 O5 2.435655 1_654
Nd3 O7 2.505884 1_554
Nd3 O4 2.507769 1_565
Nd3 O6 2.539435 1_565
Nd3 O3 2.611837 1_555
Nd3 O10 2.710214 1_655
Nd4 O0 2.367083 1_555
Nd4 O1 2.396046 1_555
Nd4 O9 2.473630 1_455
Nd4 O13 2.482132 1_455
Nd4 O10 2.506404 1_555
Nd4 O3 2.543432 1_555
Nd4 O14 2.546528 1_555
Nd4 O16 2.735123 1_555
Nd4 O12 2.812116 1_555
Nd5 O1 2.367083 1_555
Nd5 O0 2.396046 1_555
Nd5 O8 2.473630 1_655
Nd5 O12 2.482132 1_655
Nd5 O11 2.506404 1_555
Nd5 O2 2.543432 1_555
Nd5 O15 2.546528 1_555
Nd5 O17 2.735123 1_555
Nd5 O13 2.812116 1_555
O0 Re2 1.976933 1_555
O1 Re3 1.976933 1_555
O2 Re2 1.941541 1_555
O3 Re3 1.941541 1_555
O4 Re0 1.935771 1_555
O5 Re1 1.935771 1_555
O6 Re0 1.928231 1_555
O7 Re1 1.928231 1_555
O8 Re2 1.976620 1_555
O9 Re3 1.976620 1_555
O10 Re0 1.918202 1_555
O11 Re1 1.918202 1_555
O12 Re2 1.909896 1_555
O13 Re3 1.909896 1_555
O14 Re0 1.931043 1_555
O15 Re1 1.931043 1_555
O16 Re3 2.028922 1_545
O16 Re2 2.037486 1_555
O17 Re2 2.028922 1_565
O17 Re3 2.037486 1_555
