# generated using pymatgen
data_Nd2AlNi2
_symmetry_space_group_name_H-M   'P 1'
_cell_length_a   5.51759905
_cell_length_b   5.51759905
_cell_length_c   5.51759905
_cell_angle_alpha   134.67715857
_cell_angle_beta   120.70141794
_cell_angle_gamma   77.66216789
_symmetry_Int_Tables_number   1
_chemical_formula_structural   Nd2AlNi2
_chemical_formula_sum   'Nd2 Al1 Ni2'
_cell_volume   99.76114300
_cell_formula_units_Z   1
loop_
 _symmetry_equiv_pos_site_id
 _symmetry_equiv_pos_as_xyz
  1  'x, y, z'
loop_
 _atom_site_type_symbol
 _atom_site_label
 _atom_site_symmetry_multiplicity
 _atom_site_fract_x
 _atom_site_fract_y
 _atom_site_fract_z
 _atom_site_occupancy
  Nd  Nd0  1  0.70113852  0.20113852  0.50000000  1
  Nd  Nd1  1  0.29886148  0.79886148  0.50000000  1
  Al  Al0  1  -0.00000000  -0.00000000  -0.00000000  1
  Ni  Ni0  1  0.74119068  0.50000000  0.24119068  1
  Ni  Ni1  1  0.25880932  0.50000000  0.75880932  1
loop_
_geom_bond_atom_site_label_1
_geom_bond_atom_site_label_2
_geom_bond_distance
_geom_bond_site_symmetry_2
Nd0 Ni0 2.931988 1_555
Nd0 Ni1 2.931988 1_655
Nd0 Ni0 3.040146 1_556
Nd0 Ni1 3.040146 1_555
Nd0 Ni1 3.040146 1_544
Nd0 Ni0 3.040146 1_545
Nd1 Ni0 2.931988 1_455
Nd1 Ni1 2.931988 1_555
Nd1 Ni0 3.040146 1_555
Nd1 Ni0 3.040146 1_566
Nd1 Ni1 3.040146 1_565
Nd1 Ni1 3.040146 1_554
Al0 Ni1 2.552517 1_544
Al0 Ni1 2.552517 1_555
Al0 Ni0 2.552517 1_455
Al0 Ni0 2.552517 1_444
Al0 Nd1 3.231074 1_444
Al0 Nd1 3.231074 1_545
Al0 Nd0 3.231074 1_454
Al0 Nd0 3.231074 1_555
Al0 Nd0 3.334616 1_444
Al0 Nd1 3.334616 1_544
Al0 Nd1 3.334616 1_555
Al0 Nd0 3.334616 1_455
Ni0 Ni1 2.633319 1_554
Ni0 Ni1 2.825680 1_655
