# generated using pymatgen
data_BaMg6Cd
_symmetry_space_group_name_H-M   'P 1'
_cell_length_a   5.17015300
_cell_length_b   7.06271700
_cell_length_c   12.11681400
_cell_angle_alpha   90.00000000
_cell_angle_beta   90.00000000
_cell_angle_gamma   90.00000000
_symmetry_Int_Tables_number   1
_chemical_formula_structural   BaMg6Cd
_chemical_formula_sum   'Ba2 Mg12 Cd2'
_cell_volume   442.44943129
_cell_formula_units_Z   2
loop_
 _symmetry_equiv_pos_site_id
 _symmetry_equiv_pos_as_xyz
  1  'x, y, z'
loop_
 _atom_site_type_symbol
 _atom_site_label
 _atom_site_symmetry_multiplicity
 _atom_site_fract_x
 _atom_site_fract_y
 _atom_site_fract_z
 _atom_site_occupancy
  Ba  Ba0  1  0.00000000  0.50000000  0.33085200  1
  Ba  Ba1  1  0.00000000  0.00000000  0.83085200  1
  Mg  Mg0  1  0.00000000  0.25741900  0.07967500  1
  Mg  Mg1  1  0.00000000  0.74258100  0.07967500  1
  Mg  Mg2  1  0.00000000  0.50000000  0.84033500  1
  Mg  Mg3  1  0.50000000  0.27757200  0.92782700  1
  Mg  Mg4  1  0.50000000  0.72242800  0.92782700  1
  Mg  Mg5  1  0.50000000  0.50000000  0.66689400  1
  Mg  Mg6  1  0.00000000  0.75741900  0.57967500  1
  Mg  Mg7  1  0.00000000  0.24258100  0.57967500  1
  Mg  Mg8  1  0.00000000  0.00000000  0.34033500  1
  Mg  Mg9  1  0.50000000  0.77757200  0.42782700  1
  Mg  Mg10  1  0.50000000  0.22242800  0.42782700  1
  Mg  Mg11  1  0.50000000  0.00000000  0.16689400  1
  Cd  Cd0  1  0.50000000  0.50000000  0.14691500  1
  Cd  Cd1  1  0.50000000  0.00000000  0.64691500  1
loop_
_geom_bond_atom_site_label_1
_geom_bond_atom_site_label_2
_geom_bond_distance
_geom_bond_site_symmetry_2
Ba0 Cd0 3.413189 1_455
Ba0 Cd0 3.413189 1_555
Ba0 Mg10 3.450584 1_455
Ba0 Mg9 3.450584 1_555
Ba0 Mg10 3.450584 1_555
Ba0 Mg9 3.450584 1_455
Ba0 Mg0 3.492565 1_555
Ba0 Mg1 3.492565 1_555
Ba0 Mg7 3.520693 1_555
Ba0 Mg6 3.520693 1_555
Ba0 Mg8 3.533227 1_565
Ba0 Mg8 3.533227 1_555
Ba1 Cd1 3.413189 1_455
Ba1 Cd1 3.413189 1_555
Ba1 Mg3 3.450584 1_455
Ba1 Mg3 3.450584 1_555
Ba1 Mg4 3.450584 1_545
Ba1 Mg4 3.450584 1_445
Ba1 Mg7 3.492565 1_555
Ba1 Mg6 3.492565 1_545
Ba1 Mg1 3.520693 1_546
Ba1 Mg0 3.520693 1_556
Ba1 Mg2 3.533227 1_545
Ba1 Mg2 3.533227 1_555
Mg0 Mg3 3.176187 1_554
Mg0 Mg3 3.176187 1_454
Mg0 Mg11 3.332400 1_555
Mg0 Mg11 3.332400 1_455
Mg0 Mg2 3.368316 1_554
Mg0 Mg1 3.426562 1_555
Mg1 Mg4 3.176187 1_554
Mg1 Mg4 3.176187 1_454
Mg1 Mg11 3.332400 1_565
Mg1 Mg11 3.332400 1_465
Mg1 Mg2 3.368316 1_554
Mg2 Mg3 3.205364 1_455
Mg2 Mg4 3.205364 1_455
Mg2 Mg3 3.205364 1_555
Mg2 Mg4 3.205364 1_555
Mg2 Mg5 3.331538 1_555
Mg2 Mg5 3.331538 1_455
Mg3 Mg5 3.530449 1_555
Mg4 Mg5 3.530449 1_555
Mg5 Mg6 3.332400 1_655
Mg5 Mg6 3.332400 1_555
Mg5 Mg7 3.332400 1_555
Mg5 Mg7 3.332400 1_655
Mg5 Mg9 3.497751 1_555
Mg6 Mg9 3.176187 1_455
Mg6 Mg9 3.176187 1_555
Mg6 Mg8 3.368316 1_565
Mg6 Mg7 3.426562 1_565
Mg7 Mg8 3.368316 1_555
Mg8 Mg9 3.205364 1_545
Mg8 Mg9 3.205364 1_445
Mg10 Mg7 3.176187 1_655
Mg10 Mg7 3.176187 1_555
Mg10 Mg8 3.205364 1_555
Mg10 Mg8 3.205364 1_655
Mg10 Mg5 3.497751 1_555
Mg10 Mg11 3.530449 1_555
Mg11 Mg8 3.331538 1_555
Mg11 Mg8 3.331538 1_655
Mg11 Mg4 3.497751 1_544
Mg11 Mg3 3.497751 1_554
Mg11 Mg9 3.530449 1_545
Cd0 Mg4 3.084644 1_554
Cd0 Mg3 3.084644 1_554
Cd0 Mg0 3.206516 1_555
Cd0 Mg0 3.206516 1_655
Cd0 Mg1 3.206516 1_555
Cd0 Mg1 3.206516 1_655
Cd0 Mg11 3.539646 1_565
Cd0 Mg11 3.539646 1_555
Cd1 Mg10 3.084644 1_555
Cd1 Mg9 3.084644 1_545
Cd1 Mg7 3.206516 1_655
Cd1 Mg7 3.206516 1_555
Cd1 Mg6 3.206516 1_645
Cd1 Mg6 3.206516 1_545
Cd1 Mg5 3.539646 1_555
Cd1 Mg5 3.539646 1_545
