# generated using pymatgen
data_Ba3W3N5
_symmetry_space_group_name_H-M   'P 1'
_cell_length_a   6.23154270
_cell_length_b   7.57942537
_cell_length_c   9.28282206
_cell_angle_alpha   106.60998330
_cell_angle_beta   101.39272177
_cell_angle_gamma   95.03063781
_symmetry_Int_Tables_number   1
_chemical_formula_structural   Ba3W3N5
_chemical_formula_sum   'Ba6 W6 N10'
_cell_volume   406.99000441
_cell_formula_units_Z   2
loop_
 _symmetry_equiv_pos_site_id
 _symmetry_equiv_pos_as_xyz
  1  'x, y, z'
loop_
 _atom_site_type_symbol
 _atom_site_label
 _atom_site_symmetry_multiplicity
 _atom_site_fract_x
 _atom_site_fract_y
 _atom_site_fract_z
 _atom_site_occupancy
  Ba  Ba0  1  0.81916500  0.42706000  0.61198600  1
  Ba  Ba1  1  0.18083500  0.57294000  0.38801400  1
  Ba  Ba2  1  0.64398500  0.86040700  0.88139900  1
  Ba  Ba3  1  0.35601500  0.13959300  0.11860100  1
  Ba  Ba4  1  0.64243200  0.65057700  0.21353900  1
  Ba  Ba5  1  0.35756800  0.34942300  0.78646100  1
  W  W0  1  0.91518800  0.31228300  0.97088800  1
  W  W1  1  0.08481200  0.68771700  0.02911200  1
  W  W2  1  0.69510500  0.95547100  0.56862900  1
  W  W3  1  0.30489500  0.04452900  0.43137100  1
  W  W4  1  0.11262100  0.90643300  0.70159800  1
  W  W5  1  0.88737900  0.09356700  0.29840200  1
  N  N0  1  0.90658700  0.11400800  0.77561000  1
  N  N1  1  0.09341300  0.88599200  0.22439000  1
  N  N2  1  0.86647000  0.74545300  0.52634300  1
  N  N3  1  0.13353000  0.25454700  0.47365700  1
  N  N4  1  0.78202800  0.53528200  0.93726300  1
  N  N5  1  0.21797200  0.46471800  0.06273700  1
  N  N6  1  0.38449900  0.94661800  0.62176300  1
  N  N7  1  0.61550100  0.05338200  0.37823700  1
  N  N8  1  0.14477400  0.79756700  0.87055300  1
  N  N9  1  0.85522600  0.20243300  0.12944700  1
loop_
_geom_bond_atom_site_label_1
_geom_bond_atom_site_label_2
_geom_bond_distance
_geom_bond_site_symmetry_2
Ba0 N2 2.758137 1_555
Ba0 N3 2.771147 1_655
Ba0 N4 2.955850 1_555
Ba0 N7 3.018086 1_555
Ba0 N0 3.192803 1_555
Ba0 N8 3.314724 1_655
Ba1 N3 2.758137 1_555
Ba1 N2 2.771147 1_455
Ba1 N5 2.955850 1_555
Ba1 N6 3.018086 1_555
Ba1 N1 3.192803 1_555
Ba1 N9 3.314724 1_455
Ba2 N4 2.829771 1_555
Ba2 N6 2.897674 1_555
Ba2 N0 2.915350 1_565
Ba2 N9 2.923438 1_566
Ba2 N8 3.082759 1_555
Ba2 N8 3.214509 1_655
Ba3 N5 2.829771 1_555
Ba3 N7 2.897674 1_555
Ba3 N1 2.915350 1_545
Ba3 N8 2.923438 1_544
Ba3 N9 3.082759 1_555
Ba3 N9 3.214509 1_455
Ba4 N5 2.774279 1_555
Ba4 N4 2.798403 1_554
Ba4 N2 2.815373 1_555
Ba4 N7 3.034674 1_565
Ba4 N1 3.161919 1_655
Ba5 N4 2.774279 1_555
Ba5 N5 2.798403 1_556
Ba5 N3 2.815373 1_555
Ba5 N6 3.034674 1_545
Ba5 N0 3.161919 1_455
N0 W0 1.984275 1_555
N0 W2 2.067437 1_545
N0 W4 2.163444 1_645
N1 W1 1.984275 1_555
N1 W3 2.067437 1_565
N1 W5 2.163444 1_465
N2 W2 1.983630 1_555
N2 W4 2.009807 1_655
N3 W3 1.983630 1_555
N3 W5 2.009807 1_455
N4 W1 2.010184 1_656
N4 W0 2.021889 1_555
N5 W0 2.010184 1_454
N5 W1 2.021889 1_555
N6 W4 2.011704 1_555
N6 W2 2.089847 1_555
N6 W3 2.094865 1_565
N7 W5 2.011704 1_555
N7 W3 2.089847 1_555
N7 W2 2.094865 1_545
N8 W4 1.955898 1_555
N8 W1 1.965348 1_556
N9 W5 1.955898 1_555
N9 W0 1.965348 1_554
