# generated using pymatgen
data_NbNi
_symmetry_space_group_name_H-M   'P 1'
_cell_length_a   5.59698157
_cell_length_b   5.59698157
_cell_length_c   8.60791584
_cell_angle_alpha   90.00000000
_cell_angle_beta   90.00000000
_cell_angle_gamma   119.99349591
_symmetry_Int_Tables_number   1
_chemical_formula_structural   NbNi
_chemical_formula_sum   'Nb8 Ni8'
_cell_volume   233.54192622
_cell_formula_units_Z   8
loop_
 _symmetry_equiv_pos_site_id
 _symmetry_equiv_pos_as_xyz
  1  'x, y, z'
loop_
 _atom_site_type_symbol
 _atom_site_label
 _atom_site_symmetry_multiplicity
 _atom_site_fract_x
 _atom_site_fract_y
 _atom_site_fract_z
 _atom_site_occupancy
  Nb  Nb0_0  1  0.33334015  0.16665985  0.37500000  1
  Nb  Nb0_1  1  0.33334015  0.16665985  0.87500000  1
  Nb  Nb0_2  1  0.33334015  0.66665985  0.37500000  1
  Nb  Nb0_3  1  0.33334015  0.66665985  0.87500000  1
  Nb  Nb0_4  1  0.83334015  0.16665985  0.37500000  1
  Nb  Nb0_5  1  0.83334015  0.16665985  0.87500000  1
  Nb  Nb0_6  1  0.83334015  0.66665985  0.37500000  1
  Nb  Nb0_7  1  0.83334015  0.66665985  0.87500000  1
  Ni  Ni0_0  1  0.16665985  0.33334015  0.12500000  1
  Ni  Ni0_1  1  0.16665985  0.33334015  0.62500000  1
  Ni  Ni0_2  1  0.16665985  0.83334015  0.12500000  1
  Ni  Ni0_3  1  0.16665985  0.83334015  0.62500000  1
  Ni  Ni0_4  1  0.66665985  0.33334015  0.12500000  1
  Ni  Ni0_5  1  0.66665985  0.33334015  0.62500000  1
  Ni  Ni0_6  1  0.66665985  0.83334015  0.12500000  1
  Ni  Ni0_7  1  0.66665985  0.83334015  0.62500000  1
loop_
_geom_bond_atom_site_label_1
_geom_bond_atom_site_label_2
_geom_bond_distance
_geom_bond_site_symmetry_2
Nb0_0 Ni0_2 2.691033 1_545
Nb0_0 Ni0_4 2.691033 1_555
Nb0_0 Ni0_3 2.691033 1_545
Nb0_0 Ni0_5 2.691033 1_555
Nb0_0 Ni0_0 2.691057 1_555
Nb0_0 Ni0_1 2.691057 1_555
Nb0_0 Nb0_2 2.798491 1_545
Nb0_0 Nb0_4 2.798491 1_455
Nb0_0 Nb0_4 2.798491 1_555
Nb0_0 Nb0_2 2.798491 1_555
Nb0_0 Nb0_6 2.798766 1_445
Nb0_0 Nb0_6 2.798766 1_555
Nb0_1 Ni0_3 2.691033 1_545
Nb0_1 Ni0_5 2.691033 1_555
Nb0_1 Ni0_2 2.691033 1_546
Nb0_1 Ni0_4 2.691033 1_556
Nb0_1 Ni0_1 2.691057 1_555
Nb0_1 Ni0_0 2.691057 1_556
Nb0_1 Nb0_3 2.798491 1_545
Nb0_1 Nb0_5 2.798491 1_455
Nb0_1 Nb0_5 2.798491 1_555
Nb0_1 Nb0_3 2.798491 1_555
Nb0_1 Nb0_7 2.798766 1_445
Nb0_1 Nb0_7 2.798766 1_555
Nb0_2 Ni0_0 2.691033 1_555
Nb0_2 Ni0_6 2.691033 1_555
Nb0_2 Ni0_7 2.691033 1_555
Nb0_2 Ni0_1 2.691033 1_555
Nb0_2 Ni0_2 2.691057 1_555
Nb0_2 Ni0_3 2.691057 1_555
Nb0_2 Nb0_6 2.798491 1_555
Nb0_2 Nb0_6 2.798491 1_455
Nb0_2 Nb0_4 2.798766 1_455
Nb0_2 Nb0_4 2.798766 1_565
Nb0_3 Ni0_1 2.691033 1_555
Nb0_3 Ni0_7 2.691033 1_555
Nb0_3 Ni0_0 2.691033 1_556
Nb0_3 Ni0_6 2.691033 1_556
Nb0_3 Ni0_3 2.691057 1_555
Nb0_3 Ni0_2 2.691057 1_556
Nb0_3 Nb0_7 2.798491 1_555
Nb0_3 Nb0_7 2.798491 1_455
Nb0_3 Nb0_5 2.798766 1_455
Nb0_3 Nb0_5 2.798766 1_565
Nb0_4 Ni0_6 2.691033 1_545
Nb0_4 Ni0_0 2.691033 1_655
Nb0_4 Ni0_7 2.691033 1_545
Nb0_4 Ni0_1 2.691033 1_655
Nb0_4 Ni0_4 2.691057 1_555
Nb0_4 Ni0_5 2.691057 1_555
Nb0_4 Nb0_6 2.798491 1_545
Nb0_4 Nb0_6 2.798491 1_555
Nb0_5 Ni0_7 2.691033 1_545
Nb0_5 Ni0_1 2.691033 1_655
Nb0_5 Ni0_6 2.691033 1_546
Nb0_5 Ni0_0 2.691033 1_656
Nb0_5 Ni0_5 2.691057 1_555
Nb0_5 Ni0_4 2.691057 1_556
Nb0_5 Nb0_7 2.798491 1_545
Nb0_5 Nb0_7 2.798491 1_555
Nb0_6 Ni0_4 2.691033 1_555
Nb0_6 Ni0_2 2.691033 1_655
Nb0_6 Ni0_3 2.691033 1_655
Nb0_6 Ni0_5 2.691033 1_555
Nb0_6 Ni0_6 2.691057 1_555
Nb0_6 Ni0_7 2.691057 1_555
Nb0_7 Ni0_3 2.691033 1_655
Nb0_7 Ni0_5 2.691033 1_555
Nb0_7 Ni0_2 2.691033 1_656
Nb0_7 Ni0_4 2.691033 1_556
Nb0_7 Ni0_7 2.691057 1_555
Nb0_7 Ni0_6 2.691057 1_556
Ni0_0 Ni0_4 2.798491 1_455
Ni0_0 Ni0_2 2.798491 1_545
Ni0_0 Ni0_2 2.798491 1_555
Ni0_0 Ni0_4 2.798491 1_555
Ni0_0 Ni0_6 2.798766 1_445
Ni0_0 Ni0_6 2.798766 1_555
Ni0_1 Ni0_3 2.798491 1_545
Ni0_1 Ni0_5 2.798491 1_455
Ni0_1 Ni0_5 2.798491 1_555
Ni0_1 Ni0_3 2.798491 1_555
Ni0_1 Ni0_7 2.798766 1_445
Ni0_1 Ni0_7 2.798766 1_555
Ni0_2 Ni0_6 2.798491 1_455
Ni0_2 Ni0_6 2.798491 1_555
Ni0_2 Ni0_4 2.798766 1_565
Ni0_2 Ni0_4 2.798766 1_455
Ni0_3 Ni0_7 2.798491 1_455
Ni0_3 Ni0_7 2.798491 1_555
Ni0_3 Ni0_5 2.798766 1_565
Ni0_3 Ni0_5 2.798766 1_455
Ni0_4 Ni0_6 2.798491 1_555
Ni0_4 Ni0_6 2.798491 1_545
Ni0_5 Ni0_7 2.798491 1_555
Ni0_5 Ni0_7 2.798491 1_545
