# generated using pymatgen
data_Dy2Cu(SO6)2
_symmetry_space_group_name_H-M   'P 1'
_cell_length_a   6.84328400
_cell_length_b   6.37218000
_cell_length_c   10.43700485
_cell_angle_alpha   82.13618612
_cell_angle_beta   90.00000000
_cell_angle_gamma   90.00000000
_symmetry_Int_Tables_number   1
_chemical_formula_structural   Dy2Cu(SO6)2
_chemical_formula_sum   'Dy4 Cu2 S4 O24'
_cell_volume   450.84274513
_cell_formula_units_Z   2
loop_
 _symmetry_equiv_pos_site_id
 _symmetry_equiv_pos_as_xyz
  1  'x, y, z'
loop_
 _atom_site_type_symbol
 _atom_site_label
 _atom_site_symmetry_multiplicity
 _atom_site_fract_x
 _atom_site_fract_y
 _atom_site_fract_z
 _atom_site_occupancy
  Dy  Dy0  1  0.50530200  0.92219200  0.32218400  1
  Dy  Dy1  1  0.00530200  0.07780800  0.17781600  1
  Dy  Dy2  1  0.49469800  0.07780800  0.67781600  1
  Dy  Dy3  1  0.99469800  0.92219200  0.82218400  1
  Cu  Cu0  1  0.50000000  0.00000000  0.00000000  1
  Cu  Cu1  1  0.00000000  0.00000000  0.50000000  1
  S  S0  1  0.32896400  0.36769500  0.37326500  1
  S  S1  1  0.82896400  0.63230500  0.12673500  1
  S  S2  1  0.67103600  0.63230500  0.62673500  1
  S  S3  1  0.17103600  0.36769500  0.87326500  1
  O  O0  1  0.66483300  0.06099900  0.13011300  1
  O  O1  1  0.16483300  0.93900100  0.36988700  1
  O  O2  1  0.33516700  0.93900100  0.86988700  1
  O  O3  1  0.83516700  0.06099900  0.63011300  1
  O  O4  1  0.67870800  0.05864400  0.87261400  1
  O  O5  1  0.17870800  0.94135600  0.62738600  1
  O  O6  1  0.32129200  0.94135600  0.12738600  1
  O  O7  1  0.82129200  0.05864400  0.37261400  1
  O  O8  1  0.30559700  0.25238400  0.25351900  1
  O  O9  1  0.80559700  0.74761600  0.24648100  1
  O  O10  1  0.69440300  0.74761600  0.74648100  1
  O  O11  1  0.19440300  0.25238400  0.75351900  1
  O  O12  1  0.43948000  0.56291400  0.33123800  1
  O  O13  1  0.93948000  0.43708600  0.16876200  1
  O  O14  1  0.56052000  0.43708600  0.66876200  1
  O  O15  1  0.06052000  0.56291400  0.83123800  1
  O  O16  1  0.45972000  0.21168200  0.45698100  1
  O  O17  1  0.95972000  0.78831800  0.04301900  1
  O  O18  1  0.54028000  0.78831800  0.54301900  1
  O  O19  1  0.04028000  0.21168200  0.95698100  1
  O  O20  1  0.14436200  0.40006900  0.43353800  1
  O  O21  1  0.64436200  0.59993100  0.06646200  1
  O  O22  1  0.85563800  0.59993100  0.56646200  1
  O  O23  1  0.35563800  0.40006900  0.93353800  1
loop_
_geom_bond_atom_site_label_1
_geom_bond_atom_site_label_2
_geom_bond_distance
_geom_bond_site_symmetry_2
Dy0 O12 2.322478 1_555
Dy0 O0 2.346828 1_565
Dy0 O18 2.357829 1_555
Dy0 O6 2.380372 1_555
Dy0 O1 2.387991 1_555
Dy0 O7 2.415430 1_565
Dy0 O16 2.487893 1_565
Dy0 O9 2.515021 1_555
Dy0 O8 2.528968 1_565
Dy1 O13 2.322478 1_455
Dy1 O1 2.346828 1_545
Dy1 O19 2.357829 1_554
Dy1 O7 2.380372 1_455
Dy1 O0 2.387991 1_455
Dy1 O6 2.415430 1_545
Dy1 O17 2.487893 1_445
Dy1 O8 2.515021 1_555
Dy1 O9 2.528968 1_445
Dy2 O14 2.322478 1_555
Dy2 O2 2.346828 1_545
Dy2 O16 2.357829 1_555
Dy2 O4 2.380372 1_555
Dy2 O3 2.387991 1_555
Dy2 O5 2.415430 1_545
Dy2 O18 2.487893 1_545
Dy2 O11 2.515021 1_555
Dy2 O10 2.528968 1_545
Dy3 O15 2.322478 1_655
Dy3 O3 2.346828 1_565
Dy3 O17 2.357829 1_556
Dy3 O5 2.380372 1_655
Dy3 O2 2.387991 1_655
Dy3 O4 2.415430 1_565
Dy3 O19 2.487893 1_665
Dy3 O10 2.515021 1_555
Dy3 O11 2.528968 1_665
Cu0 O4 1.807469 1_554
Cu0 O6 1.807469 1_545
Cu0 O0 1.847171 1_555
Cu0 O2 1.847171 1_544
Cu1 O5 1.807469 1_545
Cu1 O7 1.807469 1_455
Cu1 O3 1.847171 1_455
Cu1 O1 1.847171 1_545
O8 S0 1.542316 1_555
O9 S1 1.542316 1_555
O10 S2 1.542316 1_555
O11 S3 1.542316 1_555
O12 S0 1.470555 1_555
O13 S1 1.470555 1_555
O14 S2 1.470555 1_555
O15 S3 1.470555 1_555
O16 S0 1.521423 1_555
O17 S1 1.521423 1_555
O18 S2 1.521423 1_555
O19 S3 1.521423 1_555
O20 S0 1.438639 1_555
O21 S1 1.438639 1_555
O22 S2 1.438639 1_555
O23 S3 1.438639 1_555
