# generated using pymatgen
data_Er2FeSbO7
_symmetry_space_group_name_H-M   'P 1'
_cell_length_a   7.19727844
_cell_length_b   7.19727844
_cell_length_c   7.19727844
_cell_angle_alpha   120.38974293
_cell_angle_beta   119.21114737
_cell_angle_gamma   90.34900030
_symmetry_Int_Tables_number   1
_chemical_formula_structural   Er2FeSbO7
_chemical_formula_sum   'Er4 Fe2 Sb2 O14'
_cell_volume   264.38217122
_cell_formula_units_Z   2
loop_
 _symmetry_equiv_pos_site_id
 _symmetry_equiv_pos_as_xyz
  1  'x, y, z'
loop_
 _atom_site_type_symbol
 _atom_site_label
 _atom_site_symmetry_multiplicity
 _atom_site_fract_x
 _atom_site_fract_y
 _atom_site_fract_z
 _atom_site_occupancy
  Er  Er0  1  0.00000000  0.00000000  0.50000000  1
  Er  Er1  1  0.00000000  0.50000000  0.00000000  1
  Er  Er2  1  0.00000000  0.00000000  0.00000000  1
  Er  Er3  1  0.50000000  0.00000000  0.50000000  1
  Fe  Fe0  1  0.50000000  0.50000000  0.50000000  1
  Fe  Fe1  1  0.50000000  0.00000000  0.00000000  1
  Sb  Sb0  1  0.50000000  0.50000000  0.00000000  1
  Sb  Sb1  1  0.00000000  0.50000000  0.50000000  1
  O  O0  1  0.12396900  0.87396900  0.25000000  1
  O  O1  1  0.87603100  0.12603100  0.75000000  1
  O  O2  1  0.41610000  0.16610000  0.25000000  1
  O  O3  1  0.83602200  0.58602200  0.25000000  1
  O  O4  1  0.41306000  0.58267800  0.24837800  1
  O  O5  1  0.83430000  0.16468200  0.25162200  1
  O  O6  1  0.41306000  0.16468200  0.83038100  1
  O  O7  1  0.83430000  0.58267800  0.66961900  1
  O  O8  1  0.58390000  0.83390000  0.75000000  1
  O  O9  1  0.16397800  0.41397800  0.75000000  1
  O  O10  1  0.58694000  0.41732200  0.75162200  1
  O  O11  1  0.16570000  0.83531800  0.74837800  1
  O  O12  1  0.58694000  0.83531800  0.16961900  1
  O  O13  1  0.16570000  0.41732200  0.33038100  1
loop_
_geom_bond_atom_site_label_1
_geom_bond_atom_site_label_2
_geom_bond_distance
_geom_bond_site_symmetry_2
Er0 O1 2.186771 1_455
Er0 O0 2.186771 1_545
Er0 O9 2.442997 1_555
Er0 O3 2.442997 1_445
Er0 O6 2.470398 1_555
Er0 O12 2.470398 1_445
Er0 O5 2.470399 1_455
Er0 O11 2.470399 1_545
Er1 O1 2.186771 1_454
Er1 O0 2.186771 1_555
Er1 O9 2.442997 1_554
Er1 O3 2.442997 1_455
Er1 O7 2.470393 1_454
Er1 O13 2.470393 1_555
Er1 O10 2.470399 1_454
Er1 O4 2.470399 1_555
Er2 O0 2.225000 1_545
Er2 O1 2.225000 1_454
Er2 O13 2.461778 1_555
Er2 O7 2.461778 1_444
Er2 O5 2.461779 1_455
Er2 O11 2.461779 1_544
Er2 O8 2.481116 1_444
Er2 O2 2.481116 1_555
Er3 O1 2.225000 1_555
Er3 O0 2.225000 1_545
Er3 O6 2.461773 1_555
Er3 O12 2.461773 1_545
Er3 O10 2.461779 1_555
Er3 O4 2.461779 1_545
Er3 O8 2.481116 1_545
Er3 O2 2.481116 1_555
Fe0 O2 1.980988 1_555
Fe0 O8 1.980988 1_555
Fe0 O13 2.003525 1_555
Fe0 O7 2.003525 1_555
Fe0 O4 2.003526 1_555
Fe0 O10 2.003526 1_555
Fe1 O8 1.980988 1_544
Fe1 O2 1.980988 1_555
Fe1 O11 2.003526 1_544
Fe1 O5 2.003526 1_555
Fe1 O12 2.003531 1_545
Fe1 O6 2.003531 1_554
O3 Sb1 2.019164 1_655
O3 Sb0 2.019164 1_555
O4 Sb0 1.990325 1_555
O5 Sb1 1.990325 1_655
O6 Sb0 1.990324 1_556
O7 Sb1 1.990330 1_655
O9 Sb0 2.019164 1_556
O9 Sb1 2.019164 1_555
O10 Sb0 1.990325 1_556
O11 Sb1 1.990325 1_555
O12 Sb0 1.990324 1_555
O13 Sb1 1.990330 1_555
