# generated using pymatgen
data_Ba2YFe2F11
_symmetry_space_group_name_H-M   'P 1'
_cell_length_a   7.92317763
_cell_length_b   7.92317763
_cell_length_c   13.71772600
_cell_angle_alpha   90.00000000
_cell_angle_beta   90.00000000
_cell_angle_gamma   119.99999691
_symmetry_Int_Tables_number   1
_chemical_formula_structural   Ba2YFe2F11
_chemical_formula_sum   'Ba6 Y3 Fe6 F33'
_cell_volume   745.78141109
_cell_formula_units_Z   3
loop_
 _symmetry_equiv_pos_site_id
 _symmetry_equiv_pos_as_xyz
  1  'x, y, z'
loop_
 _atom_site_type_symbol
 _atom_site_label
 _atom_site_symmetry_multiplicity
 _atom_site_fract_x
 _atom_site_fract_y
 _atom_site_fract_z
 _atom_site_occupancy
  Ba  Ba0  1  0.88701300  0.85756200  0.66503900  1
  Ba  Ba1  1  0.51315500  0.18741500  0.81560600  1
  Ba  Ba2  1  0.97054800  0.11298700  0.99837300  1
  Ba  Ba3  1  0.81258500  0.32574100  0.48227300  1
  Ba  Ba4  1  0.67425900  0.48684500  0.14893900  1
  Ba  Ba5  1  0.14243800  0.02945200  0.33170600  1
  Y  Y0  1  0.46766400  0.67274700  0.89300400  1
  Y  Y1  1  0.20508300  0.53233600  0.22633700  1
  Y  Y2  1  0.32725300  0.79491700  0.55967000  1
  Fe  Fe0  1  0.96684300  0.66095900  0.88610900  1
  Fe  Fe1  1  0.10567400  0.40490000  0.72311600  1
  Fe  Fe2  1  0.59510000  0.70077400  0.38978300  1
  Fe  Fe3  1  0.69411600  0.03315700  0.21944200  1
  Fe  Fe4  1  0.29922600  0.89432600  0.05644900  1
  Fe  Fe5  1  0.33904100  0.30588400  0.55277600  1
  F  F0  1  0.00713800  0.76257100  0.03097400  1
  F  F1  1  0.84093200  0.38328200  0.92754600  1
  F  F2  1  0.75543300  0.99286200  0.36430700  1
  F  F3  1  0.42399600  0.08686900  0.49100900  1
  F  F4  1  0.89855200  0.96565200  0.17875400  1
  F  F5  1  0.28528900  0.31325600  0.19105600  1
  F  F6  1  0.91313100  0.33712700  0.15767600  1
  F  F7  1  0.68674400  0.97203300  0.85772300  1
  F  F8  1  0.06710000  0.10144800  0.51208800  1
  F  F9  1  0.59088100  0.00628300  0.07480700  1
  F  F10  1  0.66287300  0.57600400  0.82434300  1
  F  F11  1  0.23742900  0.24456700  0.69764100  1
  F  F12  1  0.65136600  0.69105700  0.00953400  1
  F  F13  1  0.36440500  0.16791800  0.00724000  1
  F  F14  1  0.03969000  0.34863400  0.34286700  1
  F  F15  1  0.61671800  0.45765000  0.59421300  1
  F  F16  1  0.29154100  0.82020700  0.90240500  1
  F  F17  1  0.41540200  0.40911900  0.40814000  1
  F  F18  1  0.32710300  0.72591400  0.39306000  1
  F  F19  1  0.30894300  0.96031000  0.67620100  1
  F  F20  1  0.39881100  0.67289700  0.72639300  1
  F  F21  1  0.83208200  0.19648600  0.67390700  1
  F  F22  1  0.80351400  0.63559500  0.34057400  1
  F  F23  1  0.52866600  0.70845900  0.23573800  1
  F  F24  1  0.99371700  0.58459800  0.74147300  1
  F  F25  1  0.03434800  0.93290000  0.84542100  1
  F  F26  1  0.54235000  0.15906800  0.26088000  1
  F  F27  1  0.20149400  0.38850500  0.86871200  1
  F  F28  1  0.18701100  0.79850600  0.20204500  1
  F  F29  1  0.27408600  0.60118900  0.05972700  1
  F  F30  1  0.02796700  0.71471100  0.52438900  1
  F  F31  1  0.17979300  0.47133400  0.56907100  1
  F  F32  1  0.61149500  0.81298900  0.53537900  1
loop_
_geom_bond_atom_site_label_1
_geom_bond_atom_site_label_2
_geom_bond_distance
_geom_bond_site_symmetry_2
Ba0 F25 2.673019 1_655
Ba0 F32 2.698655 1_555
Ba0 F8 2.723033 1_665
Ba0 F30 2.741334 1_655
Ba0 F24 2.884445 1_555
Ba0 F21 2.929863 1_565
Ba0 F15 2.963856 1_555
Ba0 F11 2.966038 1_665
Ba0 F10 2.990684 1_555
Ba0 F19 3.023324 1_655
Ba1 F19 2.569299 1_545
Ba1 F10 2.692330 1_555
Ba1 F1 2.735067 1_555
Ba1 F7 2.735822 1_545
Ba1 F16 2.803056 1_545
Ba1 F13 2.853302 1_556
Ba1 F11 2.930103 1_555
Ba1 F21 3.160248 1_555
Ba2 F4 2.673007 1_546
Ba2 F27 2.698666 1_655
Ba2 F25 2.723047 1_645
Ba2 F7 2.741329 1_545
Ba2 F9 2.884438 1_556
Ba2 F13 2.929878 1_656
Ba2 F1 2.963854 1_555
Ba2 F0 2.966040 1_646
Ba2 F6 2.990670 1_556
Ba2 F12 3.023323 1_546
Ba3 F14 2.569310 1_655
Ba3 F3 2.692330 1_555
Ba3 F15 2.735062 1_555
Ba3 F30 2.735813 1_655
Ba3 F31 2.803051 1_655
Ba3 F21 2.853308 1_555
Ba3 F2 2.930117 1_545
Ba3 F22 3.160235 1_555
Ba4 F12 2.569299 1_555
Ba4 F6 2.692337 1_555
Ba4 F26 2.735076 1_555
Ba4 F5 2.735816 1_555
Ba4 F23 2.803050 1_555
Ba4 F22 2.853317 1_555
Ba4 F0 2.930107 1_655
Ba4 F13 3.160242 1_555
Ba5 F8 2.673017 1_555
Ba5 F28 2.698669 1_545
Ba5 F4 2.723043 1_445
Ba5 F5 2.741329 1_555
Ba5 F17 2.884440 1_555
Ba5 F22 2.929872 1_445
Ba5 F26 2.963857 1_555
Ba5 F2 2.966032 1_445
Ba5 F3 2.990676 1_555
Ba5 F14 3.023323 1_555
F0 Fe4 2.037598 1_555
F0 Fe0 2.107629 1_454
F1 Fe0 1.990948 1_555
F2 Fe2 2.037601 1_555
F2 Fe3 2.107629 1_565
F3 Y2 2.247758 1_545
F3 Fe5 2.313072 1_555
F4 Fe3 2.021791 1_565
F5 Y1 2.180411 1_555
F6 Y1 2.247758 1_655
F6 Fe3 2.313067 1_555
F7 Y0 2.180411 1_555
F8 Fe5 2.021791 1_555
F9 Fe4 2.034798 1_545
F9 Fe3 2.115827 1_555
F10 Y0 2.247758 1_555
F10 Fe0 2.313067 1_555
F11 Fe1 2.037598 1_555
F11 Fe5 2.107629 1_555
F12 Y0 2.117468 1_554
F13 Fe4 2.074104 1_545
F14 Y1 2.117470 1_555
F15 Fe5 1.990948 1_555
F16 Fe4 2.185899 1_556
F16 Y0 2.226960 1_555
F16 Fe0 2.239293 1_455
F17 Fe2 2.034796 1_555
F17 Fe5 2.115840 1_555
F18 Fe2 2.230118 1_555
F18 Y2 2.349854 1_555
F18 Y1 2.652340 1_555
F19 Y2 2.117483 1_555
F20 Fe1 2.230118 1_555
F20 Y0 2.349868 1_555
F20 Y2 2.652340 1_555
F21 Fe1 2.074106 1_655
F22 Fe2 2.074111 1_555
F23 Fe2 2.185912 1_555
F23 Y1 2.226960 1_555
F23 Fe3 2.239293 1_565
F24 Fe1 2.034796 1_655
F24 Fe0 2.115840 1_555
F25 Fe0 2.021791 1_455
F26 Fe3 1.990951 1_555
F27 Fe1 2.163532 1_555
F27 Y0 2.209305 1_555
F28 Fe4 2.163532 1_555
F28 Y1 2.209305 1_555
F29 Fe4 2.230119 1_555
F29 Y1 2.349854 1_555
F29 Y0 2.652340 1_554
F30 Y2 2.180411 1_555
F31 Fe1 2.185912 1_555
F31 Y2 2.226960 1_555
F31 Fe5 2.239292 1_555
F32 Fe2 2.163532 1_555
F32 Y2 2.209302 1_555
