# generated using pymatgen
data_Gd2FeSbO7
_symmetry_space_group_name_H-M   'P 1'
_cell_length_a   7.32300163
_cell_length_b   7.32300163
_cell_length_c   7.32300163
_cell_angle_alpha   120.32832739
_cell_angle_beta   119.60575543
_cell_angle_gamma   90.05823337
_symmetry_Int_Tables_number   1
_chemical_formula_structural   Gd2FeSbO7
_chemical_formula_sum   'Gd4 Fe2 Sb2 O14'
_cell_volume   277.80937042
_cell_formula_units_Z   2
loop_
 _symmetry_equiv_pos_site_id
 _symmetry_equiv_pos_as_xyz
  1  'x, y, z'
loop_
 _atom_site_type_symbol
 _atom_site_label
 _atom_site_symmetry_multiplicity
 _atom_site_fract_x
 _atom_site_fract_y
 _atom_site_fract_z
 _atom_site_occupancy
  Gd  Gd0  1  0.00000000  0.00000000  0.50000000  1
  Gd  Gd1  1  0.00000000  0.50000000  0.00000000  1
  Gd  Gd2  1  0.00000000  0.00000000  0.00000000  1
  Gd  Gd3  1  0.50000000  0.00000000  0.50000000  1
  Fe  Fe0  1  0.50000000  0.50000000  0.50000000  1
  Fe  Fe1  1  0.50000000  0.00000000  0.00000000  1
  Sb  Sb0  1  0.50000000  0.50000000  0.00000000  1
  Sb  Sb1  1  0.00000000  0.50000000  0.50000000  1
  O  O0  1  0.41419800  0.16419800  0.25000000  1
  O  O1  1  0.82930700  0.57930700  0.25000000  1
  O  O2  1  0.41374900  0.57790100  0.24163500  1
  O  O3  1  0.83626500  0.17211400  0.25836500  1
  O  O4  1  0.41374900  0.17211400  0.83584900  1
  O  O5  1  0.83626500  0.57790100  0.66415100  1
  O  O6  1  0.58580200  0.83580200  0.75000000  1
  O  O7  1  0.17069300  0.42069300  0.75000000  1
  O  O8  1  0.58625100  0.42209900  0.75836500  1
  O  O9  1  0.16373500  0.82788600  0.74163500  1
  O  O10  1  0.58625100  0.82788600  0.16415100  1
  O  O11  1  0.16373500  0.42209900  0.33584900  1
  O  O12  1  0.12336200  0.87336200  0.25000000  1
  O  O13  1  0.87663800  0.12663800  0.75000000  1
loop_
_geom_bond_atom_site_label_1
_geom_bond_atom_site_label_2
_geom_bond_distance
_geom_bond_site_symmetry_2
Gd0 O12 2.224628 1_545
Gd0 O13 2.224628 1_455
Gd0 O9 2.513255 1_545
Gd0 O4 2.513255 1_555
Gd0 O10 2.513255 1_445
Gd0 O3 2.513255 1_455
Gd0 O7 2.537752 1_555
Gd0 O1 2.537752 1_445
Gd1 O13 2.224628 1_454
Gd1 O12 2.224628 1_555
Gd1 O2 2.513254 1_555
Gd1 O8 2.513254 1_454
Gd1 O11 2.513261 1_555
Gd1 O5 2.513261 1_454
Gd1 O7 2.537752 1_554
Gd1 O1 2.537752 1_455
Gd2 O13 2.260521 1_454
Gd2 O12 2.260521 1_545
Gd2 O0 2.506067 1_555
Gd2 O6 2.506067 1_444
Gd2 O11 2.538146 1_555
Gd2 O5 2.538146 1_444
Gd2 O9 2.538152 1_544
Gd2 O3 2.538152 1_455
Gd3 O13 2.260521 1_555
Gd3 O12 2.260521 1_545
Gd3 O0 2.506067 1_555
Gd3 O6 2.506067 1_545
Gd3 O2 2.538146 1_545
Gd3 O8 2.538146 1_555
Gd3 O4 2.538152 1_555
Gd3 O10 2.538152 1_545
Fe0 O6 2.026629 1_555
Fe0 O0 2.026629 1_555
Fe0 O5 2.052815 1_555
Fe0 O11 2.052815 1_555
Fe0 O8 2.052821 1_555
Fe0 O2 2.052821 1_555
Fe1 O6 2.026629 1_544
Fe1 O0 2.026629 1_555
Fe1 O3 2.052815 1_555
Fe1 O10 2.052815 1_545
Fe1 O4 2.052815 1_554
Fe1 O9 2.052815 1_544
O1 Sb1 2.016324 1_655
O1 Sb0 2.016324 1_555
O2 Sb0 1.985211 1_555
O3 Sb1 1.985213 1_655
O4 Sb0 1.985213 1_556
O5 Sb1 1.985212 1_655
O7 Sb1 2.016324 1_555
O7 Sb0 2.016324 1_556
O8 Sb0 1.985211 1_556
O9 Sb1 1.985213 1_555
O10 Sb0 1.985213 1_555
O11 Sb1 1.985212 1_555
