# generated using pymatgen
data_NaV2O5
_symmetry_space_group_name_H-M   'P 1'
_cell_length_a   10.63918125
_cell_length_b   10.63918125
_cell_length_c   12.07563295
_cell_angle_alpha   84.07790200
_cell_angle_beta   84.07790200
_cell_angle_gamma   139.92523967
_symmetry_Int_Tables_number   1
_chemical_formula_structural   NaV2O5
_chemical_formula_sum   'Na8 V16 O40'
_cell_volume   839.12604085
_cell_formula_units_Z   8
loop_
 _symmetry_equiv_pos_site_id
 _symmetry_equiv_pos_as_xyz
  1  'x, y, z'
loop_
 _atom_site_type_symbol
 _atom_site_label
 _atom_site_symmetry_multiplicity
 _atom_site_fract_x
 _atom_site_fract_y
 _atom_site_fract_z
 _atom_site_occupancy
  Na  Na0  1  0.09020700  0.90979300  0.75000000  1
  Na  Na1  1  0.41059200  0.58940800  0.25000000  1
  Na  Na2  1  0.58940800  0.41059200  0.75000000  1
  Na  Na3  1  0.90979300  0.09020700  0.25000000  1
  Na  Na4  1  0.34016500  0.65983500  0.75000000  1
  Na  Na5  1  0.65983500  0.34016500  0.25000000  1
  Na  Na6  1  0.83947000  0.16053000  0.75000000  1
  Na  Na7  1  0.16053000  0.83947000  0.25000000  1
  V  V0  1  0.29591900  0.35844200  0.59517500  1
  V  V1  1  0.64155800  0.70408100  0.90482500  1
  V  V2  1  0.70408100  0.64155800  0.40482500  1
  V  V3  1  0.35844200  0.29591900  0.09517500  1
  V  V4  1  0.04725300  0.60765200  0.59564100  1
  V  V5  1  0.39234800  0.95274700  0.90435900  1
  V  V6  1  0.95274700  0.39234800  0.40435900  1
  V  V7  1  0.60765200  0.04725300  0.09564100  1
  V  V8  1  0.80020000  0.84819500  0.60216500  1
  V  V9  1  0.15180500  0.19980000  0.89783500  1
  V  V10  1  0.19980000  0.15180500  0.39783500  1
  V  V11  1  0.84819500  0.80020000  0.10216500  1
  V  V12  1  0.45003200  0.90099200  0.39865700  1
  V  V13  1  0.09900800  0.54996800  0.10134300  1
  V  V14  1  0.54996800  0.09900800  0.60134300  1
  V  V15  1  0.90099200  0.45003200  0.89865700  1
  O  O0  1  0.75910300  0.74779600  0.74762100  1
  O  O1  1  0.25220400  0.24089700  0.75237900  1
  O  O2  1  0.24089700  0.25220400  0.25237900  1
  O  O3  1  0.74779600  0.75910300  0.24762100  1
  O  O4  1  0.00596500  0.49444800  0.75374000  1
  O  O5  1  0.50555200  0.99403500  0.74626000  1
  O  O6  1  0.49444800  0.00596500  0.25374000  1
  O  O7  1  0.99403500  0.50555200  0.24626000  1
  O  O8  1  0.08792200  0.08513900  0.57067900  1
  O  O9  1  0.91486100  0.91207800  0.92932100  1
  O  O10  1  0.91207800  0.91486100  0.42932100  1
  O  O11  1  0.08513900  0.08792200  0.07067900  1
  O  O12  1  0.59526300  0.58869300  0.57254100  1
  O  O13  1  0.41130700  0.40473700  0.92745900  1
  O  O14  1  0.40473700  0.41130700  0.42745900  1
  O  O15  1  0.58869300  0.59526300  0.07254100  1
  O  O16  1  0.34490700  0.84180500  0.57064700  1
  O  O17  1  0.15819500  0.65509300  0.92935300  1
  O  O18  1  0.16145500  0.66876400  0.42772800  1
  O  O19  1  0.33123600  0.83854500  0.07227200  1
  O  O20  1  0.83854500  0.33123600  0.57227200  1
  O  O21  1  0.66876400  0.16145500  0.92772800  1
  O  O22  1  0.65509300  0.15819500  0.42935300  1
  O  O23  1  0.84180500  0.34490700  0.07064700  1
  O  O24  1  0.70972400  0.92137700  0.61628400  1
  O  O25  1  0.07862300  0.29027600  0.88371600  1
  O  O26  1  0.29027600  0.07862300  0.38371600  1
  O  O27  1  0.92137700  0.70972400  0.11628400  1
  O  O28  1  0.20423800  0.43038700  0.61880700  1
  O  O29  1  0.56961300  0.79576200  0.88119300  1
  O  O30  1  0.79576200  0.56961300  0.38119300  1
  O  O31  1  0.43038700  0.20423800  0.11880700  1
  O  O32  1  0.95336000  0.67760200  0.61843000  1
  O  O33  1  0.32239800  0.04664000  0.88157000  1
  O  O34  1  0.53712400  0.82432100  0.38421200  1
  O  O35  1  0.17567900  0.46287600  0.11578800  1
  O  O36  1  0.46287600  0.17567900  0.61578800  1
  O  O37  1  0.82432100  0.53712400  0.88421200  1
  O  O38  1  0.04664000  0.32239800  0.38157000  1
  O  O39  1  0.67760200  0.95336000  0.11843000  1
loop_
_geom_bond_atom_site_label_1
_geom_bond_atom_site_label_2
_geom_bond_distance
_geom_bond_site_symmetry_2
Na0 O1 2.473856 1_565
Na0 O0 2.473856 1_455
Na0 O32 2.555269 1_455
Na0 O33 2.555269 1_565
Na0 O37 2.629102 1_455
Na0 O36 2.629102 1_565
Na0 O9 2.723329 1_455
Na0 O8 2.723329 1_565
Na1 O2 2.487269 1_555
Na1 O3 2.487269 1_555
Na1 O39 2.559806 1_555
Na1 O38 2.559806 1_555
Na1 O34 2.611946 1_555
Na1 O35 2.611946 1_555
Na1 O14 2.672152 1_555
Na1 O15 2.672152 1_555
Na2 O0 2.487269 1_555
Na2 O1 2.487269 1_555
Na2 O32 2.559806 1_555
Na2 O33 2.559806 1_555
Na2 O37 2.611946 1_555
Na2 O36 2.611946 1_555
Na2 O13 2.672152 1_555
Na2 O12 2.672152 1_555
Na3 O2 2.473856 1_655
Na3 O3 2.473856 1_545
Na3 O39 2.555269 1_545
Na3 O38 2.555269 1_655
Na3 O34 2.629102 1_545
Na3 O35 2.629102 1_655
Na3 O10 2.723329 1_545
Na3 O11 2.723329 1_655
Na4 O4 2.473090 1_555
Na4 O5 2.473090 1_555
Na4 O28 2.535426 1_555
Na4 O29 2.535426 1_555
Na4 O25 2.613109 1_555
Na4 O24 2.613109 1_555
Na4 O16 2.721050 1_555
Na4 O17 2.721050 1_555
Na5 O6 2.473090 1_555
Na5 O7 2.473090 1_555
Na5 O31 2.535426 1_555
Na5 O30 2.535426 1_555
Na5 O26 2.613109 1_555
Na5 O27 2.613109 1_555
Na5 O22 2.721050 1_555
Na5 O23 2.721050 1_555
Na6 O4 2.485883 1_655
Na6 O5 2.485883 1_545
Na6 O28 2.560157 1_655
Na6 O29 2.560157 1_545
Na6 O25 2.630441 1_655
Na6 O24 2.630441 1_545
Na6 O21 2.670589 1_555
Na6 O20 2.670589 1_555
Na7 O6 2.485883 1_565
Na7 O7 2.485883 1_455
Na7 O31 2.560157 1_565
Na7 O30 2.560157 1_455
Na7 O26 2.630441 1_565
Na7 O27 2.630441 1_455
Na7 O18 2.670589 1_555
Na7 O19 2.670589 1_555
O0 V8 1.776780 1_555
O0 V1 1.954926 1_555
O1 V9 1.776780 1_555
O1 V0 1.954926 1_555
O2 V10 1.776780 1_555
O2 V3 1.954926 1_555
O3 V11 1.776780 1_555
O3 V2 1.954926 1_555
O4 V15 1.775207 1_455
O4 V4 1.957335 1_555
O5 V14 1.775207 1_565
O5 V5 1.957335 1_555
O6 V12 1.775207 1_545
O6 V7 1.957335 1_555
O7 V13 1.775207 1_655
O7 V6 1.957335 1_555
O8 V8 1.903202 1_445
O8 V0 1.975958 1_555
O8 V10 2.041101 1_555
O9 V9 1.903202 1_665
O9 V1 1.975958 1_555
O9 V11 2.041101 1_556
O10 V10 1.903202 1_665
O10 V2 1.975958 1_555
O10 V8 2.041101 1_555
O11 V11 1.903202 1_445
O11 V3 1.975958 1_555
O11 V9 2.041101 1_554
O12 V8 1.912209 1_555
O12 V0 1.990194 1_555
O12 V2 2.010722 1_555
O13 V9 1.912209 1_555
O13 V1 1.990194 1_555
O13 V3 2.010722 1_556
O14 V10 1.912209 1_555
O14 V2 1.990194 1_555
O14 V0 2.010722 1_555
O15 V11 1.912209 1_555
O15 V3 1.990194 1_555
O15 V1 2.010722 1_554
O16 V14 1.903887 1_565
O16 V4 1.974788 1_555
O16 V12 2.033188 1_555
O17 V15 1.903887 1_455
O17 V5 1.974788 1_555
O17 V13 2.033188 1_556
O18 V12 1.908770 1_555
O18 V6 1.991372 1_455
O18 V4 2.005236 1_555
O19 V13 1.908770 1_555
O19 V7 1.991372 1_565
O19 V5 2.005236 1_554
O20 V14 1.908770 1_555
O20 V4 1.991372 1_655
O20 V6 2.005236 1_555
O21 V15 1.908770 1_555
O21 V5 1.991372 1_545
O21 V7 2.005236 1_556
O22 V12 1.903887 1_545
O22 V6 1.974788 1_555
O22 V14 2.033188 1_555
O23 V13 1.903887 1_655
O23 V7 1.974788 1_555
O23 V15 2.033188 1_554
O24 V8 1.643893 1_555
O25 V9 1.643893 1_555
O26 V10 1.643893 1_555
O27 V11 1.643893 1_555
O28 V0 1.658016 1_555
O29 V1 1.658016 1_555
O30 V2 1.658016 1_555
O31 V3 1.658016 1_555
O32 V4 1.658539 1_655
O33 V5 1.658539 1_545
O34 V12 1.645335 1_555
O35 V13 1.645335 1_555
O36 V14 1.645335 1_555
O37 V15 1.645335 1_555
O38 V6 1.658539 1_455
O39 V7 1.658539 1_565
