# generated using pymatgen
data_CaU2V2O17
_symmetry_space_group_name_H-M   'P 1'
_cell_length_a   8.50470300
_cell_length_b   10.44965700
_cell_length_c   15.26145300
_cell_angle_alpha   90.00000000
_cell_angle_beta   90.00000000
_cell_angle_gamma   90.00000000
_symmetry_Int_Tables_number   1
_chemical_formula_structural   CaU2V2O17
_chemical_formula_sum   'Ca4 U8 V8 O68'
_cell_volume   1356.30408805
_cell_formula_units_Z   4
loop_
 _symmetry_equiv_pos_site_id
 _symmetry_equiv_pos_as_xyz
  1  'x, y, z'
loop_
 _atom_site_type_symbol
 _atom_site_label
 _atom_site_symmetry_multiplicity
 _atom_site_fract_x
 _atom_site_fract_y
 _atom_site_fract_z
 _atom_site_occupancy
  Ca  Ca0  1  0.00000000  0.33002300  0.75000000  1
  Ca  Ca1  1  0.50000000  0.16997700  0.25000000  1
  Ca  Ca2  1  0.00000000  0.66997700  0.25000000  1
  Ca  Ca3  1  0.50000000  0.83002300  0.75000000  1
  U  U0  1  0.47395400  0.68418100  0.00321700  1
  U  U1  1  0.02604600  0.81581900  0.50321700  1
  U  U2  1  0.97395400  0.81581900  0.99678300  1
  U  U3  1  0.52604600  0.68418100  0.49678300  1
  U  U4  1  0.52604600  0.31581900  0.99678300  1
  U  U5  1  0.97395400  0.18418100  0.49678300  1
  U  U6  1  0.02604600  0.18418100  0.00321700  1
  U  U7  1  0.47395400  0.31581900  0.50321700  1
  V  V0  1  0.35333000  0.97282100  0.44836400  1
  V  V1  1  0.14667000  0.52717900  0.94836400  1
  V  V2  1  0.85333000  0.52717900  0.55163600  1
  V  V3  1  0.64667000  0.97282100  0.05163600  1
  V  V4  1  0.64667000  0.02717900  0.55163600  1
  V  V5  1  0.85333000  0.47282100  0.05163600  1
  V  V6  1  0.14667000  0.47282100  0.44836400  1
  V  V7  1  0.35333000  0.02717900  0.94836400  1
  O  O0  1  0.38481500  0.02330500  0.34593800  1
  O  O1  1  0.11518500  0.47669500  0.84593800  1
  O  O2  1  0.88481500  0.47669500  0.65406200  1
  O  O3  1  0.61518500  0.02330500  0.15406200  1
  O  O4  1  0.61518500  0.97669500  0.65406200  1
  O  O5  1  0.88481500  0.52330500  0.15406200  1
  O  O6  1  0.11518500  0.52330500  0.34593800  1
  O  O7  1  0.38481500  0.97669500  0.84593800  1
  O  O8  1  0.25985500  0.79916600  0.25035900  1
  O  O9  1  0.24014500  0.70083400  0.75035900  1
  O  O10  1  0.75985500  0.70083400  0.74964100  1
  O  O11  1  0.74014500  0.79916600  0.24964100  1
  O  O12  1  0.74014500  0.20083400  0.74964100  1
  O  O13  1  0.75985500  0.29916600  0.24964100  1
  O  O14  1  0.24014500  0.29916600  0.25035900  1
  O  O15  1  0.25985500  0.20083400  0.75035900  1
  O  O16  1  0.22295500  0.39675400  0.20591600  1
  O  O17  1  0.27704500  0.10324600  0.70591600  1
  O  O18  1  0.72295500  0.10324600  0.79408400  1
  O  O19  1  0.77704500  0.39675400  0.29408400  1
  O  O20  1  0.77704500  0.60324600  0.79408400  1
  O  O21  1  0.72295500  0.89675400  0.29408400  1
  O  O22  1  0.27704500  0.89675400  0.20591600  1
  O  O23  1  0.22295500  0.60324600  0.70591600  1
  O  O24  1  0.00000000  0.96590000  0.75000000  1
  O  O25  1  0.50000000  0.53410000  0.25000000  1
  O  O26  1  0.00000000  0.03410000  0.25000000  1
  O  O27  1  0.50000000  0.46590000  0.75000000  1
  O  O28  1  0.42547700  0.66141000  0.11811800  1
  O  O29  1  0.07452300  0.83859000  0.61811800  1
  O  O30  1  0.92547700  0.83859000  0.88188200  1
  O  O31  1  0.57452300  0.66141000  0.38188200  1
  O  O32  1  0.57452300  0.33859000  0.88188200  1
  O  O33  1  0.92547700  0.16141000  0.38188200  1
  O  O34  1  0.07452300  0.16141000  0.11811800  1
  O  O35  1  0.42547700  0.33859000  0.61811800  1
  O  O36  1  0.51755200  0.71132100  0.88510100  1
  O  O37  1  0.98244800  0.78867900  0.38510100  1
  O  O38  1  0.01755200  0.78867900  0.11489900  1
  O  O39  1  0.48244800  0.71132100  0.61489900  1
  O  O40  1  0.48244800  0.28867900  0.11489900  1
  O  O41  1  0.01755200  0.21132100  0.61489900  1
  O  O42  1  0.98244800  0.21132100  0.88510100  1
  O  O43  1  0.51755200  0.28867900  0.38510100  1
  O  O44  1  0.43509200  0.90209300  0.02297500  1
  O  O45  1  0.06490800  0.59790700  0.52297500  1
  O  O46  1  0.93509200  0.59790700  0.97702500  1
  O  O47  1  0.56490800  0.90209300  0.47702500  1
  O  O48  1  0.56490800  0.09790700  0.97702500  1
  O  O49  1  0.93509200  0.40209300  0.47702500  1
  O  O50  1  0.06490800  0.40209300  0.02297500  1
  O  O51  1  0.43509200  0.09790700  0.52297500  1
  O  O52  1  0.34766700  0.48436800  0.97636000  1
  O  O53  1  0.15233300  0.01563200  0.47636000  1
  O  O54  1  0.84766700  0.01563200  0.02364000  1
  O  O55  1  0.65233300  0.48436800  0.52364000  1
  O  O56  1  0.65233300  0.51563200  0.02364000  1
  O  O57  1  0.84766700  0.98436800  0.52364000  1
  O  O58  1  0.15233300  0.98436800  0.97636000  1
  O  O59  1  0.34766700  0.51563200  0.47636000  1
  O  O60  1  0.20373500  0.69687000  0.96231200  1
  O  O61  1  0.29626500  0.80313000  0.46231200  1
  O  O62  1  0.70373500  0.80313000  0.03768800  1
  O  O63  1  0.79626500  0.69687000  0.53768800  1
  O  O64  1  0.79626500  0.30313000  0.03768800  1
  O  O65  1  0.70373500  0.19687000  0.53768800  1
  O  O66  1  0.29626500  0.19687000  0.96231200  1
  O  O67  1  0.20373500  0.30313000  0.46231200  1
loop_
_geom_bond_atom_site_label_1
_geom_bond_atom_site_label_2
_geom_bond_distance
_geom_bond_site_symmetry_2
Ca0 O1 2.335053 1_555
Ca0 O2 2.335053 1_455
Ca0 O42 2.410817 1_455
Ca0 O41 2.410817 1_555
Ca0 O15 2.589697 1_555
Ca0 O12 2.589697 1_455
Ca1 O0 2.335053 1_555
Ca1 O3 2.335053 1_555
Ca1 O43 2.410817 1_555
Ca1 O40 2.410817 1_555
Ca1 O13 2.589697 1_555
Ca1 O14 2.589697 1_555
Ca2 O6 2.335053 1_555
Ca2 O5 2.335053 1_455
Ca2 O37 2.410817 1_455
Ca2 O38 2.410817 1_555
Ca2 O8 2.589697 1_555
Ca2 O11 2.589697 1_455
Ca3 O7 2.335053 1_555
Ca3 O4 2.335053 1_555
Ca3 O36 2.410817 1_555
Ca3 O39 2.410817 1_555
Ca3 O10 2.589697 1_555
Ca3 O9 2.589697 1_555
O0 V0 1.671376 1_545
O1 V1 1.671376 1_555
O2 V2 1.671376 1_555
O3 V3 1.671376 1_545
O4 V4 1.671376 1_565
O5 V5 1.671376 1_555
O6 V6 1.671376 1_555
O7 V7 1.671376 1_565
O10 O20 1.233422 1_555
O11 O21 1.233422 1_555
O12 O18 1.233422 1_555
O13 O19 1.233422 1_555
O14 O16 1.233422 1_555
O15 O17 1.233422 1_555
O22 O8 1.233422 1_555
O23 O9 1.233422 1_555
O28 U0 1.817018 1_555
O29 U1 1.817018 1_555
O30 U2 1.817018 1_555
O31 U3 1.817018 1_555
O32 U4 1.817018 1_555
O33 U5 1.817018 1_555
O34 U6 1.817018 1_555
O35 U7 1.817018 1_555
O36 U0 1.862085 1_556
O37 U1 1.862085 1_655
O38 U2 1.862085 1_454
O39 U3 1.862085 1_555
O40 U4 1.862085 1_554
O41 U5 1.862085 1_455
O42 U6 1.862085 1_656
O43 U7 1.862085 1_555
O44 V7 1.867787 1_564
O44 V3 1.993850 1_555
O44 U0 2.320640 1_555
O45 V6 1.867787 1_555
O45 V2 1.993850 1_455
O45 U1 2.320640 1_555
O46 V5 1.867787 1_556
O46 V1 1.993850 1_655
O46 U2 2.320640 1_555
O47 V4 1.867787 1_565
O47 V0 1.993850 1_555
O47 U3 2.320640 1_555
O48 V3 1.867787 1_546
O48 V7 1.993850 1_555
O48 U4 2.320640 1_555
O49 V2 1.867787 1_555
O49 V6 1.993850 1_655
O49 U5 2.320640 1_555
O50 V1 1.867787 1_554
O50 V5 1.993850 1_455
O50 U6 2.320640 1_555
O51 V0 1.867787 1_545
O51 V4 1.993850 1_555
O51 U7 2.320640 1_555
O52 V1 1.817910 1_555
O52 U4 2.345362 1_555
O52 U0 2.383526 1_556
O53 V0 1.817910 1_545
O53 U5 2.345362 1_455
O53 U1 2.383526 1_545
O54 V3 1.817910 1_545
O54 U6 2.345362 1_655
O54 U2 2.383526 1_544
O55 V2 1.817910 1_555
O55 U7 2.345362 1_555
O55 U3 2.383526 1_555
O56 V5 1.817910 1_555
O56 U0 2.345362 1_555
O56 U4 2.383526 1_554
O57 V4 1.817910 1_565
O57 U1 2.345362 1_655
O57 U5 2.383526 1_565
O58 V7 1.817910 1_565
O58 U2 2.345362 1_455
O58 U6 2.383526 1_566
O59 V6 1.817910 1_555
O59 U3 2.345362 1_555
O59 U7 2.383526 1_555
O60 V1 1.850711 1_555
O60 U2 2.375020 1_455
O60 U0 2.385101 1_556
O61 V0 1.850711 1_555
O61 U3 2.375020 1_555
O61 U1 2.385101 1_555
O62 V3 1.850711 1_555
O62 U0 2.375020 1_555
O62 U2 2.385101 1_554
O63 V2 1.850711 1_555
O63 U1 2.375020 1_655
O63 U3 2.385101 1_555
O64 V5 1.850711 1_555
O64 U6 2.375020 1_655
O64 U4 2.385101 1_554
O65 V4 1.850711 1_555
O65 U7 2.375020 1_555
O65 U5 2.385101 1_555
O66 V7 1.850711 1_555
O66 U4 2.375020 1_555
O66 U6 2.385101 1_556
O67 V6 1.850711 1_555
O67 U5 2.375020 1_455
O67 U7 2.385101 1_555
