# generated using pymatgen
data_Mg3Si4
_symmetry_space_group_name_H-M   'P 1'
_cell_length_a   5.35297100
_cell_length_b   6.97150184
_cell_length_c   7.78060517
_cell_angle_alpha   67.92700589
_cell_angle_beta   72.68827982
_cell_angle_gamma   79.17628078
_symmetry_Int_Tables_number   1
_chemical_formula_structural   Mg3Si4
_chemical_formula_sum   'Mg6 Si8'
_cell_volume   255.93907882
_cell_formula_units_Z   2
loop_
 _symmetry_equiv_pos_site_id
 _symmetry_equiv_pos_as_xyz
  1  'x, y, z'
loop_
 _atom_site_type_symbol
 _atom_site_label
 _atom_site_symmetry_multiplicity
 _atom_site_fract_x
 _atom_site_fract_y
 _atom_site_fract_z
 _atom_site_occupancy
  Mg  Mg0  1  0.05549700  0.47998000  0.22110200  1
  Mg  Mg1  1  0.54150100  0.74441600  0.11674400  1
  Mg  Mg2  1  0.32306900  0.73455800  0.52380700  1
  Mg  Mg3  1  0.05655400  0.96203000  0.88717600  1
  Mg  Mg4  1  0.91160500  0.41741200  0.63421900  1
  Mg  Mg5  1  0.69726500  0.24405800  0.12954800  1
  Si  Si0  1  0.89162800  0.82921100  0.32885900  1
  Si  Si1  1  0.95335700  0.59705400  0.86898900  1
  Si  Si2  1  0.54049200  0.38561100  0.44774900  1
  Si  Si3  1  0.26595000  0.13689100  0.49054800  1
  Si  Si4  1  0.21144200  0.07730100  0.20471400  1
  Si  Si5  1  0.47748000  0.19333400  0.84166600  1
  Si  Si6  1  0.42288700  0.56488600  0.88054500  1
  Si  Si7  1  0.65783200  0.87998900  0.67772300  1
loop_
_geom_bond_atom_site_label_1
_geom_bond_atom_site_label_2
_geom_bond_distance
_geom_bond_site_symmetry_2
Mg0 Si6 2.719598 1_554
Mg0 Si1 2.741184 1_454
Mg0 Si0 2.773869 1_455
Mg0 Si4 2.814152 1_555
Mg0 Si3 2.830201 1_555
Mg0 Si2 2.838754 1_455
Mg1 Si1 2.782150 1_554
Mg1 Si4 2.812458 1_565
Mg1 Si2 2.836350 1_555
Mg1 Si6 2.840542 1_554
Mg1 Si7 3.078600 1_554
Mg1 Si5 3.080952 1_564
Mg1 Si0 3.094538 1_555
Mg2 Si3 2.684623 1_565
Mg2 Si2 2.689131 1_555
Mg2 Si6 2.750732 1_555
Mg2 Si1 2.768207 1_455
Mg2 Si4 2.849298 1_565
Mg2 Si7 2.923241 1_555
Mg2 Si0 2.971548 1_455
Mg2 Si0 3.041964 1_555
Mg3 Si1 2.764839 1_455
Mg3 Si3 2.809456 1_565
Mg3 Si5 2.874582 1_565
Mg3 Si6 3.085731 1_555
Mg3 Si0 3.091371 1_456
Mg3 Si7 3.198428 1_555
Mg3 Si4 3.224720 1_566
Mg3 Si5 3.268178 1_465
Mg3 Si7 3.281383 1_455
Mg4 Si1 2.649998 1_555
Mg4 Si3 2.767662 1_655
Mg4 Si5 2.771636 1_555
Mg4 Si2 2.867576 1_555
Mg4 Si0 2.967765 1_555
Mg4 Si6 3.010146 1_555
Mg5 Si1 2.812245 1_554
Mg5 Si2 2.845413 1_555
Mg5 Si6 2.848897 1_554
Mg5 Si4 2.859366 1_555
Mg5 Si0 2.882870 1_545
Mg5 Si4 2.917937 1_655
Mg5 Si5 2.974263 1_554
Mg5 Si3 2.998225 1_555
Si0 Si4 2.393219 1_665
Si0 Si7 2.755624 1_555
Si1 Si6 2.506612 1_655
Si1 Si7 2.575040 1_555
Si2 Si3 2.347145 1_555
Si2 Si5 2.787667 1_555
Si3 Si4 2.515914 1_555
Si3 Si7 2.859342 1_545
Si4 Si5 2.642493 1_554
Si5 Si6 2.671784 1_555
Si5 Si7 2.810763 1_545
Si6 Si7 2.479661 1_555
