# generated using pymatgen
data_U(RhO3)2
_symmetry_space_group_name_H-M   'P 1'
_cell_length_a   4.76503589
_cell_length_b   4.76503589
_cell_length_c   9.36690338
_cell_angle_alpha   90.00000000
_cell_angle_beta   90.00000000
_cell_angle_gamma   90.00000000
_symmetry_Int_Tables_number   1
_chemical_formula_structural   U(RhO3)2
_chemical_formula_sum   'U2 Rh4 O12'
_cell_volume   212.68085259
_cell_formula_units_Z   2
loop_
 _symmetry_equiv_pos_site_id
 _symmetry_equiv_pos_as_xyz
  1  'x, y, z'
loop_
 _atom_site_type_symbol
 _atom_site_label
 _atom_site_symmetry_multiplicity
 _atom_site_fract_x
 _atom_site_fract_y
 _atom_site_fract_z
 _atom_site_occupancy
  U  U0  1  -0.00000000  -0.00000000  0.00000000  1
  U  U1  1  0.50000000  0.50000000  0.50000000  1
  Rh  Rh0  1  -0.00000000  -0.00000000  0.33037436  1
  Rh  Rh1  1  0.50000000  0.50000000  0.83037436  1
  Rh  Rh2  1  -0.00000000  -0.00000000  0.66962564  1
  Rh  Rh3  1  0.50000000  0.50000000  0.16962564  1
  O  O0  1  0.70152335  0.70152335  0.66759574  1
  O  O1  1  0.29847665  0.29847665  0.66759574  1
  O  O2  1  0.70152335  0.70152335  0.33240426  1
  O  O3  1  0.20152335  0.79847665  0.16759574  1
  O  O4  1  0.79847665  0.20152335  0.16759574  1
  O  O5  1  0.79847665  0.20152335  0.83240426  1
  O  O6  1  0.31258944  0.31258944  0.00000000  1
  O  O7  1  0.18741056  0.81258944  0.50000000  1
  O  O8  1  0.81258944  0.18741056  0.50000000  1
  O  O9  1  0.68741056  0.68741056  0.00000000  1
  O  O10  1  0.29847665  0.29847665  0.33240426  1
  O  O11  1  0.20152335  0.79847665  0.83240426  1
loop_
_geom_bond_atom_site_label_1
_geom_bond_atom_site_label_2
_geom_bond_distance
_geom_bond_site_symmetry_2
O0 Rh2 2.011458 1_665
O0 Rh1 2.041820 1_555
O0 U1 2.075731 1_555
O1 Rh2 2.011458 1_555
O1 Rh1 2.041820 1_555
O1 U1 2.075731 1_555
O2 Rh0 2.011458 1_665
O2 Rh3 2.041820 1_555
O2 U1 2.075731 1_555
O3 Rh3 2.011458 1_555
O3 Rh0 2.041820 1_565
O3 U0 2.075731 1_565
O4 Rh3 2.011458 1_555
O4 Rh0 2.041820 1_655
O4 U0 2.075731 1_655
O5 Rh1 2.011458 1_555
O5 Rh2 2.041820 1_655
O5 U0 2.075731 1_656
O6 Rh3 2.029645 1_555
O6 Rh1 2.029645 1_554
O6 U0 2.106471 1_555
O7 Rh2 2.029645 1_565
O7 Rh0 2.029645 1_565
O7 U1 2.106471 1_555
O8 Rh2 2.029645 1_655
O8 Rh0 2.029645 1_655
O8 U1 2.106471 1_555
O9 Rh3 2.029645 1_555
O9 Rh1 2.029645 1_554
O9 U0 2.106471 1_665
O10 Rh0 2.011458 1_555
O10 Rh3 2.041820 1_555
O10 U1 2.075731 1_555
O11 Rh1 2.011458 1_555
O11 Rh2 2.041820 1_565
O11 U0 2.075731 1_566
