# generated using pymatgen
data_In2(CN2)3
_symmetry_space_group_name_H-M   'P 1'
_cell_length_a   10.27328682
_cell_length_b   10.27328682
_cell_length_c   10.27328684
_cell_angle_alpha   34.56566812
_cell_angle_beta   34.56566812
_cell_angle_gamma   34.56567035
_symmetry_Int_Tables_number   1
_chemical_formula_structural   In2(CN2)3
_chemical_formula_sum   'In4 C6 N12'
_cell_volume   311.38949647
_cell_formula_units_Z   2
loop_
 _symmetry_equiv_pos_site_id
 _symmetry_equiv_pos_as_xyz
  1  'x, y, z'
loop_
 _atom_site_type_symbol
 _atom_site_label
 _atom_site_symmetry_multiplicity
 _atom_site_fract_x
 _atom_site_fract_y
 _atom_site_fract_z
 _atom_site_occupancy
  In  In0  1  0.16367720  0.16367720  0.16367720  1
  In  In1  1  0.66367720  0.66367720  0.66367720  1
  In  In2  1  0.83632280  0.83632280  0.83632280  1
  In  In3  1  0.33632280  0.33632280  0.33632280  1
  C  C0  1  0.44735088  0.75000000  0.05264912  1
  C  C1  1  0.05264912  0.44735088  0.75000000  1
  C  C2  1  0.75000000  0.05264912  0.44735088  1
  C  C3  1  0.25000000  0.94735088  0.55264912  1
  C  C4  1  0.55264912  0.25000000  0.94735088  1
  C  C5  1  0.94735088  0.55264912  0.25000000  1
  N  N0  1  0.46230731  0.85205208  0.05784393  1
  N  N1  1  0.05784393  0.46230731  0.85205208  1
  N  N2  1  0.85205208  0.05784393  0.46230731  1
  N  N3  1  0.35205208  0.96230731  0.55784393  1
  N  N4  1  0.55784393  0.35205208  0.96230731  1
  N  N5  1  0.96230731  0.55784393  0.35205208  1
  N  N6  1  0.53769269  0.14794792  0.94215607  1
  N  N7  1  0.94215607  0.53769269  0.14794792  1
  N  N8  1  0.14794792  0.94215607  0.53769269  1
  N  N9  1  0.64794792  0.03769269  0.44215607  1
  N  N10  1  0.44215607  0.64794792  0.03769269  1
  N  N11  1  0.03769269  0.44215607  0.64794792  1
loop_
_geom_bond_atom_site_label_1
_geom_bond_atom_site_label_2
_geom_bond_distance
_geom_bond_site_symmetry_2
In0 N2 2.215064 1_455
In0 N1 2.215065 1_554
In0 N0 2.215065 1_545
In0 N8 2.269496 1_545
In0 N6 2.269496 1_554
In0 N7 2.269497 1_455
In1 N4 2.215064 1_555
In1 N5 2.215065 1_555
In1 N3 2.215065 1_555
In1 N10 2.269496 1_556
In1 N9 2.269496 1_565
In1 N11 2.269497 1_655
In2 N8 2.215064 1_655
In2 N7 2.215065 1_556
In2 N6 2.215065 1_565
In2 N2 2.269496 1_565
In2 N0 2.269496 1_556
In2 N1 2.269497 1_655
In3 N10 2.215064 1_555
In3 N11 2.215065 1_555
In3 N9 2.215065 1_555
In3 N4 2.269496 1_554
In3 N3 2.269496 1_545
In3 N5 2.269497 1_455
C0 N0 1.223349 1_555
C0 N10 1.223349 1_555
C1 N11 1.223349 1_555
C1 N1 1.223349 1_555
C2 N9 1.223349 1_555
C2 N2 1.223349 1_555
C3 N3 1.223349 1_555
C3 N8 1.223349 1_555
C4 N6 1.223349 1_555
C4 N4 1.223349 1_555
C5 N7 1.223349 1_555
C5 N5 1.223349 1_555
