# generated using pymatgen
data_Er3Tl2Cu5S8
_symmetry_space_group_name_H-M   'P 1'
_cell_length_a   7.18413174
_cell_length_b   7.18413174
_cell_length_c   14.42163744
_cell_angle_alpha   69.58197486
_cell_angle_beta   69.58197486
_cell_angle_gamma   31.56722596
_symmetry_Int_Tables_number   1
_chemical_formula_structural   Er3Tl2Cu5S8
_chemical_formula_sum   'Er3 Tl2 Cu5 S8'
_cell_volume   363.14536919
_cell_formula_units_Z   1
loop_
 _symmetry_equiv_pos_site_id
 _symmetry_equiv_pos_as_xyz
  1  'x, y, z'
loop_
 _atom_site_type_symbol
 _atom_site_label
 _atom_site_symmetry_multiplicity
 _atom_site_fract_x
 _atom_site_fract_y
 _atom_site_fract_z
 _atom_site_occupancy
  Er  Er0  1  0.03709300  0.03709300  0.59227000  1
  Er  Er1  1  0.33380200  0.33380200  0.82725800  1
  Er  Er2  1  0.19708300  0.19708300  0.21280200  1
  Tl  Tl0  1  0.99988400  0.99988400  0.99963800  1
  Tl  Tl1  1  0.37152700  0.37152700  0.41375500  1
  Cu  Cu0  1  0.71753900  0.71753900  0.01820000  1
  Cu  Cu1  1  0.65675300  0.65675300  0.40702200  1
  Cu  Cu2  1  0.97914900  0.97914900  0.20898300  1
  Cu  Cu3  1  0.78715200  0.78715200  0.66249700  1
  Cu  Cu4  1  0.58561700  0.58561700  0.75734200  1
  S  S0  1  0.57514400  0.57514400  0.16918700  1
  S  S1  1  0.31248700  0.31248700  0.01669600  1
  S  S2  1  0.69539300  0.69539300  0.84960500  1
  S  S3  1  0.80449000  0.80449000  0.25833200  1
  S  S4  1  0.06233800  0.06233800  0.40168300  1
  S  S5  1  0.67524300  0.67524300  0.57137800  1
  S  S6  1  0.38629100  0.38629100  0.62741200  1
  S  S7  1  0.98512600  0.98512600  0.79246000  1
loop_
_geom_bond_atom_site_label_1
_geom_bond_atom_site_label_2
_geom_bond_distance
_geom_bond_site_symmetry_2
Er0 S4 2.642136 1_555
Er0 S5 2.672206 1_455
Er0 S5 2.672206 1_545
Er0 S7 2.710595 1_445
Er0 S6 2.767082 1_455
Er0 S6 2.767082 1_545
Er1 S1 2.639492 1_556
Er1 S2 2.671622 1_545
Er1 S2 2.671622 1_455
Er1 S6 2.704927 1_555
Er1 S7 2.772501 1_455
Er1 S7 2.772501 1_545
Er2 S3 2.676225 1_455
Er2 S3 2.676225 1_545
Er2 S4 2.685391 1_555
Er2 S1 2.696765 1_555
Er2 S0 2.797450 1_545
Er2 S0 2.797450 1_455
Cu0 S0 2.347180 1_555
Cu0 S1 2.349863 1_565
Cu0 S1 2.349863 1_655
Cu0 S2 2.558391 1_554
Cu1 S3 2.365340 1_555
Cu1 S4 2.366758 1_655
Cu1 S4 2.366758 1_565
Cu1 S5 2.474463 1_555
Cu2 S3 2.256591 1_555
Cu2 S0 2.314586 1_655
Cu2 S0 2.314586 1_565
Cu2 Tl0 2.927380 1_554
Cu3 S6 2.334665 1_655
Cu3 S6 2.334665 1_565
Cu3 S5 2.365435 1_555
Cu3 S2 2.531547 1_555
Cu4 S7 2.344227 1_545
Cu4 S7 2.344227 1_455
Cu4 S2 2.353418 1_555
Cu4 S5 2.513668 1_555
S1 Tl0 3.182839 1_544
S1 Tl0 3.182839 1_454
S6 Tl1 3.161020 1_555
S7 Tl0 3.067722 1_555
