# generated using pymatgen
data_Ca2Fe2O5
_symmetry_space_group_name_H-M   'P 1'
_cell_length_a   5.56487078
_cell_length_b   5.65768150
_cell_length_c   8.39739575
_cell_angle_alpha   109.36716340
_cell_angle_beta   109.02658150
_cell_angle_gamma   90.90798028
_symmetry_Int_Tables_number   1
_chemical_formula_structural   Ca2Fe2O5
_chemical_formula_sum   'Ca4 Fe4 O10'
_cell_volume   233.50972477
_cell_formula_units_Z   2
loop_
 _symmetry_equiv_pos_site_id
 _symmetry_equiv_pos_as_xyz
  1  'x, y, z'
loop_
 _atom_site_type_symbol
 _atom_site_label
 _atom_site_symmetry_multiplicity
 _atom_site_fract_x
 _atom_site_fract_y
 _atom_site_fract_z
 _atom_site_occupancy
  Ca  Ca0  1  0.41908100  0.36546000  0.28707000  1
  Ca  Ca1  1  0.58091900  0.63454000  0.71293000  1
  Ca  Ca2  1  0.86798900  0.92161000  0.28707000  1
  Ca  Ca3  1  0.13201100  0.07839000  0.71293000  1
  Fe  Fe0  1  0.50000000  0.00000000  0.50000000  1
  Fe  Fe1  1  0.00000000  0.50000000  0.50000000  1
  Fe  Fe2  1  0.17503300  0.69085100  0.00000000  1
  Fe  Fe3  1  0.82496700  0.30914900  0.00000000  1
  O  O0  1  0.23174900  0.73174900  0.46349800  1
  O  O1  1  0.25989500  0.25989500  0.51979000  1
  O  O2  1  0.74010500  0.74010500  0.48021000  1
  O  O3  1  0.76825100  0.26825100  0.53650200  1
  O  O4  1  0.38906600  0.92649700  0.21925300  1
  O  O5  1  0.61093400  0.07350300  0.78074700  1
  O  O6  1  0.83018700  0.29275600  0.21925300  1
  O  O7  1  0.16981300  0.70724400  0.78074700  1
  O  O8  1  0.18147200  0.34259400  0.00000000  1
  O  O9  1  0.81852800  0.65740600  0.00000000  1
loop_
_geom_bond_atom_site_label_1
_geom_bond_atom_site_label_2
_geom_bond_distance
_geom_bond_site_symmetry_2
Ca0 O8 2.299076 1_555
Ca0 O4 2.346666 1_545
Ca0 O2 2.454685 1_555
Ca0 O6 2.539931 1_555
Ca0 O3 2.570907 1_555
Ca0 O0 2.572060 1_555
Ca0 O1 2.616600 1_555
Ca1 O9 2.299076 1_556
Ca1 O5 2.346666 1_565
Ca1 O1 2.454685 1_555
Ca1 O7 2.539931 1_555
Ca1 O0 2.570907 1_555
Ca1 O3 2.572060 1_555
Ca1 O2 2.616600 1_555
Ca2 O9 2.299076 1_555
Ca2 O6 2.346666 1_565
Ca2 O2 2.454685 1_555
Ca2 O4 2.539931 1_555
Ca2 O3 2.570907 1_565
Ca2 O0 2.572060 1_655
Ca2 O1 2.616600 1_665
Ca3 O8 2.299076 1_556
Ca3 O7 2.346666 1_545
Ca3 O1 2.454685 1_555
Ca3 O5 2.539931 1_555
Ca3 O0 2.570907 1_545
Ca3 O3 2.572060 1_455
Ca3 O2 2.616600 1_445
Fe0 O3 1.986710 1_555
Fe0 O0 1.986710 1_545
Fe0 O2 2.004990 1_545
Fe0 O1 2.004990 1_555
Fe0 O4 2.122437 1_545
Fe0 O5 2.122437 1_555
Fe1 O3 1.986710 1_455
Fe1 O0 1.986710 1_555
Fe1 O1 2.004990 1_555
Fe1 O2 2.004990 1_455
Fe1 O7 2.122437 1_555
Fe1 O6 2.122437 1_455
Fe2 O4 1.864876 1_555
Fe2 O7 1.864876 1_554
Fe2 O8 1.971221 1_555
Fe2 O9 1.989920 1_455
Fe3 O6 1.864876 1_555
Fe3 O5 1.864876 1_554
Fe3 O9 1.971221 1_555
Fe3 O8 1.989920 1_655
