# generated using pymatgen
data_Er5Si3B
_symmetry_space_group_name_H-M   'P 1'
_cell_length_a   8.45570892
_cell_length_b   8.45570892
_cell_length_c   6.26280900
_cell_angle_alpha   90.00000000
_cell_angle_beta   90.00000000
_cell_angle_gamma   120.00000722
_symmetry_Int_Tables_number   1
_chemical_formula_structural   Er5Si3B
_chemical_formula_sum   'Er10 Si6 B2'
_cell_volume   387.79286667
_cell_formula_units_Z   2
loop_
 _symmetry_equiv_pos_site_id
 _symmetry_equiv_pos_as_xyz
  1  'x, y, z'
loop_
 _atom_site_type_symbol
 _atom_site_label
 _atom_site_symmetry_multiplicity
 _atom_site_fract_x
 _atom_site_fract_y
 _atom_site_fract_z
 _atom_site_occupancy
  Er  Er0  1  0.24040300  0.00000000  0.25000000  1
  Er  Er1  1  0.75959700  0.00000000  0.75000000  1
  Er  Er2  1  0.00000000  0.24040300  0.25000000  1
  Er  Er3  1  0.00000000  0.75959700  0.75000000  1
  Er  Er4  1  0.75959700  0.75959700  0.25000000  1
  Er  Er5  1  0.24040300  0.24040300  0.75000000  1
  Er  Er6  1  0.33333300  0.66666700  0.00000000  1
  Er  Er7  1  0.66666700  0.33333300  0.00000000  1
  Er  Er8  1  0.66666700  0.33333300  0.50000000  1
  Er  Er9  1  0.33333300  0.66666700  0.50000000  1
  Si  Si0  1  0.60142000  0.00000000  0.25000000  1
  Si  Si1  1  0.39858000  0.00000000  0.75000000  1
  Si  Si2  1  0.00000000  0.60142000  0.25000000  1
  Si  Si3  1  0.00000000  0.39858000  0.75000000  1
  Si  Si4  1  0.39858000  0.39858000  0.25000000  1
  Si  Si5  1  0.60142000  0.60142000  0.75000000  1
  B  B0  1  0.00000000  0.00000000  0.00000000  1
  B  B1  1  0.00000000  0.00000000  0.50000000  1
loop_
_geom_bond_atom_site_label_1
_geom_bond_atom_site_label_2
_geom_bond_distance
_geom_bond_site_symmetry_2
Er0 Si2 2.939375 1_545
Er0 Si4 2.939375 1_555
Er0 Si0 3.052655 1_555
Er0 Si1 3.405084 1_554
Er0 Si1 3.405084 1_555
Er1 Si3 2.939375 1_655
Er1 Si5 2.939375 1_545
Er1 Si1 3.052655 1_555
Er1 Si0 3.405084 1_555
Er1 Si0 3.405084 1_556
Er2 Si0 2.939375 1_455
Er2 Si4 2.939375 1_555
Er2 Si2 3.052655 1_555
Er2 Si3 3.405084 1_555
Er2 Si3 3.405084 1_554
Er3 Si1 2.939375 1_565
Er3 Si5 2.939375 1_455
Er3 Si3 3.052655 1_555
Er3 Si2 3.405084 1_555
Er3 Si2 3.405084 1_556
Er4 Si0 2.939375 1_565
Er4 Si2 2.939375 1_655
Er4 Si4 3.052654 1_555
Er4 Si5 3.405084 1_554
Er4 Si5 3.405084 1_555
Er5 Si1 2.939375 1_555
Er5 Si3 2.939375 1_555
Er5 Si5 3.052654 1_555
Er5 Si4 3.405084 1_556
Er5 Si4 3.405084 1_555
Er6 Si1 3.024086 1_564
Er6 Si2 3.024086 1_555
Er6 Si0 3.024088 1_565
Er6 Si3 3.024088 1_554
Er6 Si5 3.024093 1_554
Er6 Si4 3.024093 1_555
Er7 Si0 3.024086 1_555
Er7 Si3 3.024086 1_654
Er7 Si2 3.024088 1_655
Er7 Si1 3.024088 1_554
Er7 Si5 3.024093 1_554
Er7 Si4 3.024093 1_555
Er8 Si0 3.024086 1_555
Er8 Si3 3.024086 1_655
Er8 Si2 3.024088 1_655
Er8 Si1 3.024088 1_555
Er8 Si5 3.024093 1_555
Er8 Si4 3.024093 1_555
Er9 Si2 3.024086 1_555
Er9 Si1 3.024086 1_565
Er9 Si3 3.024088 1_555
Er9 Si0 3.024088 1_565
Er9 Si5 3.024093 1_555
Er9 Si4 3.024093 1_555
B0 Er5 2.565854 1_554
B0 Er4 2.565854 1_445
B0 Er3 2.565854 1_544
B0 Er2 2.565854 1_555
B0 Er1 2.565854 1_454
B0 Er0 2.565854 1_555
B1 Er5 2.565854 1_555
B1 Er4 2.565854 1_445
B1 Er1 2.565854 1_455
B1 Er2 2.565854 1_555
B1 Er3 2.565854 1_545
B1 Er0 2.565854 1_555
