# generated using pymatgen
data_BeH8SO8
_symmetry_space_group_name_H-M   'P 1'
_cell_length_a   7.73388731
_cell_length_b   7.73388731
_cell_length_c   7.73388731
_cell_angle_alpha   115.97785983
_cell_angle_beta   115.97785983
_cell_angle_gamma   97.12026187
_symmetry_Int_Tables_number   1
_chemical_formula_structural   BeH8SO8
_chemical_formula_sum   'Be2 H16 S2 O16'
_cell_volume   344.10445184
_cell_formula_units_Z   2
loop_
 _symmetry_equiv_pos_site_id
 _symmetry_equiv_pos_as_xyz
  1  'x, y, z'
loop_
 _atom_site_type_symbol
 _atom_site_label
 _atom_site_symmetry_multiplicity
 _atom_site_fract_x
 _atom_site_fract_y
 _atom_site_fract_z
 _atom_site_occupancy
  Be  Be0  1  0.00000000  0.00000000  0.00000000  1
  Be  Be1  1  0.50000000  0.50000000  0.00000000  1
  H  H0  1  0.66847300  0.01452100  0.91035700  1
  H  H1  1  0.10416400  0.75811600  0.08964300  1
  H  H2  1  0.48547900  0.83152700  0.08964300  1
  H  H3  1  0.74188400  0.39583600  0.91035700  1
  H  H4  1  0.16847300  0.25811600  0.65395200  1
  H  H5  1  0.60416400  0.51452100  0.34604800  1
  H  H6  1  0.24188400  0.33152700  0.34604800  1
  H  H7  1  0.98547900  0.89583600  0.65395200  1
  H  H8  1  0.83781900  0.11391100  0.18760400  1
  H  H9  1  0.92630700  0.65021400  0.81239600  1
  H  H10  1  0.38608900  0.66218100  0.81239600  1
  H  H11  1  0.84978600  0.57369300  0.18760400  1
  H  H12  1  0.33781900  0.15021400  0.72390700  1
  H  H13  1  0.42630700  0.61391100  0.27609300  1
  H  H14  1  0.34978600  0.16218100  0.27609300  1
  H  H15  1  0.88608900  0.07369300  0.72390700  1
  S  S0  1  0.25000000  0.75000000  0.50000000  1
  S  S1  1  0.75000000  0.25000000  0.50000000  1
  O  O0  1  0.81503900  0.05408200  0.03116300  1
  O  O1  1  0.02291900  0.78387600  0.96883700  1
  O  O2  1  0.44591800  0.68496100  0.96883700  1
  O  O3  1  0.71612400  0.47708100  0.03116300  1
  O  O4  1  0.31503900  0.28387600  0.76095700  1
  O  O5  1  0.52291900  0.55408200  0.23904300  1
  O  O6  1  0.21612400  0.18496100  0.23904300  1
  O  O7  1  0.94591800  0.97708100  0.76095700  1
  O  O8  1  0.41360200  0.95899100  0.70748800  1
  O  O9  1  0.25150400  0.70611400  0.29251200  1
  O  O10  1  0.54100900  0.08639800  0.29251200  1
  O  O11  1  0.79388600  0.24849600  0.70748800  1
  O  O12  1  0.91360200  0.20611400  0.45461100  1
  O  O13  1  0.75150400  0.45899100  0.54538900  1
  O  O14  1  0.29388600  0.58639800  0.54538900  1
  O  O15  1  0.04100900  0.74849600  0.45461100  1
loop_
_geom_bond_atom_site_label_1
_geom_bond_atom_site_label_2
_geom_bond_distance
_geom_bond_site_symmetry_2
Be0 O6 1.625210 1_555
Be0 O7 1.625210 1_444
Be0 O1 1.625210 1_544
Be0 O0 1.625210 1_455
Be1 O5 1.625210 1_555
Be1 O2 1.625210 1_554
Be1 O3 1.625210 1_555
Be1 O4 1.625210 1_554
H0 O0 0.993592 1_556
H0 O8 1.738400 1_545
H1 O1 0.993592 1_554
H1 O9 1.738402 1_555
H2 O2 0.993592 1_554
H2 O10 1.738400 1_565
H3 O3 0.993592 1_556
H3 O11 1.738402 1_555
H4 O4 0.993592 1_555
H4 O12 1.738400 1_455
H5 O5 0.993592 1_555
H5 O13 1.738402 1_555
H6 O6 0.993592 1_555
H6 O14 1.738400 1_555
H7 O7 0.993592 1_555
H7 O15 1.738402 1_655
H8 O0 1.005786 1_555
H8 O12 1.631671 1_555
H9 O1 1.005789 1_655
H9 O13 1.631668 1_555
H10 O2 1.005786 1_555
H10 O14 1.631671 1_555
H11 O3 1.005789 1_555
H11 O15 1.631668 1_655
H12 O4 1.005793 1_555
H12 O8 1.631665 1_545
H13 O5 1.005789 1_555
H13 O9 1.631662 1_555
H14 O6 1.005793 1_555
H14 O10 1.631665 1_555
H15 O7 1.005789 1_545
H15 O11 1.631662 1_555
O8 S0 1.493500 1_555
O9 S0 1.493504 1_555
O10 S1 1.493500 1_555
O11 S1 1.493504 1_555
O12 S1 1.493500 1_555
O13 S1 1.493498 1_555
O14 S0 1.493500 1_555
O15 S0 1.493498 1_555
