# generated using pymatgen
data_MgAl(Bi3O5)4
_symmetry_space_group_name_H-M   'P 1'
_cell_length_a   9.01323492
_cell_length_b   9.05480106
_cell_length_c   9.05480106
_cell_angle_alpha   110.38018902
_cell_angle_beta   109.76509235
_cell_angle_gamma   108.45701480
_symmetry_Int_Tables_number   1
_chemical_formula_structural   MgAl(Bi3O5)4
_chemical_formula_sum   'Mg1 Al1 Bi12 O20'
_cell_volume   567.42185521
_cell_formula_units_Z   1
loop_
 _symmetry_equiv_pos_site_id
 _symmetry_equiv_pos_as_xyz
  1  'x, y, z'
loop_
 _atom_site_type_symbol
 _atom_site_label
 _atom_site_symmetry_multiplicity
 _atom_site_fract_x
 _atom_site_fract_y
 _atom_site_fract_z
 _atom_site_occupancy
  Mg  Mg0  1  0.50000000  0.14002726  0.64002726  1
  Al  Al0  1  -0.00000000  0.99680812  0.99680812  1
  Bi  Bi0  1  0.81141766  0.65851302  0.48308171  1
  Bi  Bi1  1  0.18858234  0.67166405  0.84709536  1
  Bi  Bi2  1  0.84126364  0.31251578  0.13154799  1
  Bi  Bi3  1  0.68610240  0.54904775  0.82006611  1
  Bi  Bi4  1  0.15873636  0.29028435  0.47125214  1
  Bi  Bi5  1  0.69463036  0.86237496  0.19097349  1
  Bi  Bi6  1  0.31389760  0.13396371  0.86294536  1
  Bi  Bi7  1  0.30536964  0.49634313  0.16774460  1
  Bi  Bi8  1  0.51382996  0.81091066  0.66906940  1
  Bi  Bi9  1  0.12174621  0.81571664  0.29679101  1
  Bi  Bi10  1  0.48617004  0.15523943  0.29708069  1
  Bi  Bi11  1  0.87825379  0.17504480  0.69397043  1
  O  O0  1  0.20007786  0.18790114  0.20511145  1
  O  O1  1  0.79992214  0.00503359  0.98782329  1
  O  O2  1  0.98421300  0.78714101  0.98640879  1
  O  O3  1  0.01578700  0.00219579  0.80292801  1
  O  O4  1  0.65251290  0.76598459  0.37826489  1
  O  O5  1  0.34748710  0.72575099  0.11347169  1
  O  O6  1  0.60806304  0.22767455  0.89903440  1
  O  O7  1  0.72032386  0.33523402  0.65855711  1
  O  O8  1  0.39193696  0.29097236  0.61961151  1
  O  O9  1  0.73662556  0.11948661  0.35341934  1
  O  O10  1  0.27967614  0.93823325  0.61491016  1
  O  O11  1  0.26337444  0.61679279  0.38286005  1
  O  O12  1  0.38694214  0.65202811  0.76377818  1
  O  O13  1  0.87752167  0.60919993  0.23827549  1
  O  O14  1  0.61305786  0.37683604  0.26508697  1
  O  O15  1  0.12247833  0.36075382  0.73167726  1
  O  O16  1  0.63054774  0.62441235  0.61329734  1
  O  O17  1  0.36945226  0.98274960  0.99386460  1
  O  O18  1  0.00196630  0.37176031  0.99622878  1
  O  O19  1  0.99803370  0.99426248  0.36979401  1
loop_
_geom_bond_atom_site_label_1
_geom_bond_atom_site_label_2
_geom_bond_distance
_geom_bond_site_symmetry_2
Mg0 O6 1.935980 1_555
Mg0 O8 1.935988 1_555
Mg0 O10 2.107487 1_545
Mg0 O7 2.107487 1_555
Al0 O0 1.803960 1_566
Al0 O1 1.803960 1_465
Al0 O3 1.824492 1_565
Al0 O2 1.824492 1_455
Bi0 O4 2.122625 1_555
Bi0 O14 2.194834 1_555
Bi0 O16 2.319062 1_555
Bi0 O13 2.416674 1_555
Bi0 O3 2.819589 1_665
Bi1 O5 2.122628 1_556
Bi1 O12 2.194836 1_555
Bi1 O17 2.319062 1_555
Bi1 O15 2.416674 1_555
Bi1 O2 2.819589 1_455
Bi2 O6 2.073362 1_554
Bi2 O18 2.247945 1_654
Bi2 O13 2.383246 1_555
Bi2 O1 2.464891 1_554
Bi3 O7 2.166400 1_555
Bi3 O16 2.166545 1_555
Bi3 O2 2.338684 1_555
Bi3 O8 2.377596 1_555
Bi4 O8 2.073357 1_555
Bi4 O19 2.247945 1_445
Bi4 O15 2.383237 1_555
Bi4 O0 2.464891 1_555
Bi5 O9 2.099348 1_565
Bi5 O4 2.244650 1_555
Bi5 O19 2.262049 1_555
Bi5 O5 2.696701 1_555
Bi6 O10 2.166400 1_545
Bi6 O17 2.166545 1_545
Bi6 O3 2.338684 1_555
Bi6 O6 2.377599 1_555
Bi7 O11 2.099338 1_555
Bi7 O5 2.244642 1_555
Bi7 O18 2.262049 1_554
Bi7 O4 2.696701 1_555
Bi8 O12 2.143347 1_555
Bi8 O16 2.259132 1_555
Bi8 O11 2.293446 1_555
Bi8 O1 2.575325 1_565
Bi8 O10 2.694102 1_555
Bi9 O13 2.130202 1_455
Bi9 O19 2.278074 1_455
Bi9 O10 2.357019 1_555
Bi9 O2 2.537005 1_454
Bi9 O11 2.691101 1_555
Bi10 O14 2.143341 1_555
Bi10 O17 2.259132 1_544
Bi10 O9 2.293441 1_555
Bi10 O0 2.575325 1_555
Bi10 O7 2.694102 1_555
Bi11 O15 2.130206 1_655
Bi11 O18 2.278074 1_655
Bi11 O7 2.357019 1_555
Bi11 O3 2.537005 1_655
Bi11 O9 2.691096 1_555
