# generated using pymatgen
data_LiFeSnO4
_symmetry_space_group_name_H-M   'P 1'
_cell_length_a   6.12521400
_cell_length_b   6.12521400
_cell_length_c   8.62583000
_cell_angle_alpha   90.00000000
_cell_angle_beta   90.00000000
_cell_angle_gamma   90.00000000
_symmetry_Int_Tables_number   1
_chemical_formula_structural   LiFeSnO4
_chemical_formula_sum   'Li4 Fe4 Sn4 O16'
_cell_volume   323.62601660
_cell_formula_units_Z   4
loop_
 _symmetry_equiv_pos_site_id
 _symmetry_equiv_pos_as_xyz
  1  'x, y, z'
loop_
 _atom_site_type_symbol
 _atom_site_label
 _atom_site_symmetry_multiplicity
 _atom_site_fract_x
 _atom_site_fract_y
 _atom_site_fract_z
 _atom_site_occupancy
  Li  Li0  1  0.00000000  0.21099400  0.00000000  1
  Li  Li1  1  0.00000000  0.78900600  0.50000000  1
  Li  Li2  1  0.21099400  0.00000000  0.25000000  1
  Li  Li3  1  0.78900600  0.00000000  0.75000000  1
  Fe  Fe0  1  0.25392300  0.25392300  0.62500000  1
  Fe  Fe1  1  0.25392300  0.74607700  0.87500000  1
  Fe  Fe2  1  0.74607700  0.25392300  0.37500000  1
  Fe  Fe3  1  0.74607700  0.74607700  0.12500000  1
  Sn  Sn0  1  0.22623100  0.50000000  0.25000000  1
  Sn  Sn1  1  0.50000000  0.22623100  0.00000000  1
  Sn  Sn2  1  0.50000000  0.77376900  0.50000000  1
  Sn  Sn3  1  0.77376900  0.50000000  0.75000000  1
  O  O0  1  0.00126000  0.25501700  0.25286900  1
  O  O1  1  0.00126000  0.74498300  0.24713100  1
  O  O2  1  0.25501700  0.00126000  0.99713100  1
  O  O3  1  0.25501700  0.99874000  0.50286900  1
  O  O4  1  0.26046700  0.48308200  0.00788800  1
  O  O5  1  0.26046700  0.51691800  0.49211200  1
  O  O6  1  0.48308200  0.26046700  0.24211200  1
  O  O7  1  0.48308200  0.73953300  0.25788800  1
  O  O8  1  0.51691800  0.26046700  0.75788800  1
  O  O9  1  0.51691800  0.73953300  0.74211200  1
  O  O10  1  0.73953300  0.51691800  0.50788800  1
  O  O11  1  0.73953300  0.48308200  0.99211200  1
  O  O12  1  0.74498300  0.00126000  0.00286900  1
  O  O13  1  0.74498300  0.99874000  0.49713100  1
  O  O14  1  0.99874000  0.25501700  0.74713100  1
  O  O15  1  0.99874000  0.74498300  0.75286900  1
loop_
_geom_bond_atom_site_label_1
_geom_bond_atom_site_label_2
_geom_bond_distance
_geom_bond_site_symmetry_2
Li0 O12 2.022604 1_455
Li0 O2 2.022604 1_554
Li0 O14 2.197823 1_454
Li0 O0 2.197823 1_555
Li0 O4 2.308144 1_555
Li0 O11 2.308144 1_454
Li1 O3 2.022604 1_555
Li1 O13 2.022604 1_455
Li1 O15 2.197823 1_455
Li1 O1 2.197823 1_555
Li1 O5 2.308144 1_555
Li1 O10 2.308144 1_455
Li2 O1 2.022604 1_545
Li2 O0 2.022604 1_555
Li2 O3 2.197823 1_545
Li2 O2 2.197823 1_554
Li2 O6 2.308144 1_555
Li2 O7 2.308144 1_545
Li3 O14 2.022604 1_555
Li3 O15 2.022604 1_545
Li3 O13 2.197823 1_545
Li3 O12 2.197823 1_556
Li3 O9 2.308144 1_545
Li3 O8 2.308144 1_555
Fe0 O14 1.884939 1_455
Fe0 O3 1.884939 1_545
Fe0 O8 1.977509 1_555
Fe0 O5 1.977509 1_555
Fe1 O2 1.884939 1_565
Fe1 O15 1.884939 1_455
Fe1 O4 1.977509 1_556
Fe1 O9 1.977509 1_555
Fe2 O13 1.884939 1_545
Fe2 O0 1.884939 1_655
Fe2 O10 1.977509 1_555
Fe2 O6 1.977509 1_555
Fe3 O1 1.884939 1_655
Fe3 O12 1.884939 1_565
Fe3 O11 1.977509 1_554
Fe3 O7 1.977509 1_555
O0 Sn0 2.037450 1_555
O1 Sn0 2.037450 1_555
O2 Sn1 2.037450 1_556
O3 Sn2 2.037450 1_555
O4 Sn0 2.101475 1_555
O4 Sn1 2.152312 1_555
O5 Sn0 2.101475 1_555
O5 Sn2 2.152312 1_555
O6 Sn1 2.101475 1_555
O6 Sn0 2.152312 1_555
O7 Sn2 2.101475 1_555
O7 Sn0 2.152312 1_555
O8 Sn1 2.101475 1_556
O8 Sn3 2.152312 1_555
O9 Sn2 2.101475 1_555
O9 Sn3 2.152312 1_555
O10 Sn3 2.101475 1_555
O10 Sn2 2.152312 1_555
O11 Sn3 2.101475 1_555
O11 Sn1 2.152312 1_556
O12 Sn1 2.037450 1_555
O13 Sn2 2.037450 1_555
O14 Sn3 2.037450 1_555
O15 Sn3 2.037450 1_555
