# generated using pymatgen
data_VN(OF)2
_symmetry_space_group_name_H-M   'P 1'
_cell_length_a   11.62361000
_cell_length_b   6.00765500
_cell_length_c   6.98843162
_cell_angle_alpha   79.71526604
_cell_angle_beta   90.00000000
_cell_angle_gamma   90.00000000
_symmetry_Int_Tables_number   1
_chemical_formula_structural   VN(OF)2
_chemical_formula_sum   'V4 N4 O8 F8'
_cell_volume   480.16566721
_cell_formula_units_Z   4
loop_
 _symmetry_equiv_pos_site_id
 _symmetry_equiv_pos_as_xyz
  1  'x, y, z'
loop_
 _atom_site_type_symbol
 _atom_site_label
 _atom_site_symmetry_multiplicity
 _atom_site_fract_x
 _atom_site_fract_y
 _atom_site_fract_z
 _atom_site_occupancy
  V  V0  1  0.14923100  0.06301100  0.47655200  1
  V  V1  1  0.85076900  0.06301100  0.97655200  1
  V  V2  1  0.30793000  0.28949000  0.69399000  1
  V  V3  1  0.69207000  0.28949000  0.19399000  1
  N  N0  1  0.99771600  0.59287500  0.09774900  1
  N  N1  1  0.00228400  0.59287500  0.59774900  1
  N  N2  1  0.44433300  0.83654400  0.07457200  1
  N  N3  1  0.55566700  0.83654400  0.57457200  1
  O  O0  1  0.01805300  0.15731300  0.45702900  1
  O  O1  1  0.98194700  0.15731300  0.95702900  1
  O  O2  1  0.26391300  0.43990700  0.84803500  1
  O  O3  1  0.73608700  0.43990700  0.34803500  1
  O  O4  1  0.23360100  0.03663400  0.72448300  1
  O  O5  1  0.76639900  0.03663400  0.22448300  1
  O  O6  1  0.08922200  0.69207300  0.58648700  1
  O  O7  1  0.91077800  0.69207300  0.08648700  1
  F  F0  1  0.21868000  0.95008800  0.28209300  1
  F  F1  1  0.78132000  0.95008800  0.78209300  1
  F  F2  1  0.46037800  0.27447800  0.69226000  1
  F  F3  1  0.53962200  0.27447800  0.19226000  1
  F  F4  1  0.24206200  0.37555700  0.44580800  1
  F  F5  1  0.75793800  0.37555700  0.94580800  1
  F  F6  1  0.44226200  0.82242800  0.53764300  1
  F  F7  1  0.55773800  0.82242800  0.03764300  1
loop_
_geom_bond_atom_site_label_1
_geom_bond_atom_site_label_2
_geom_bond_distance
_geom_bond_site_symmetry_2
N0 O7 1.168665 1_555
N1 O6 1.168665 1_555
O0 V0 1.623845 1_555
O1 V1 1.623845 1_555
O2 V2 1.607687 1_555
O3 V3 1.607687 1_555
O4 V2 1.727381 1_555
O4 V0 1.972532 1_555
O5 V3 1.727381 1_555
O5 V1 1.972532 1_554
O6 V0 2.330558 1_565
O7 V1 2.330558 1_564
F0 V0 1.813246 1_565
F1 V1 1.813246 1_565
F2 V2 1.774441 1_555
F3 V3 1.774441 1_555
F4 V2 1.881876 1_555
F4 V0 2.142908 1_555
F5 V3 1.881876 1_556
F5 V1 2.142908 1_555
F6 N3 1.348776 1_555
F7 N2 1.348776 1_555
