# generated using pymatgen
data_K6In3H12(N8O27)2
_symmetry_space_group_name_H-M   'P 1'
_cell_length_a   14.70317511
_cell_length_b   14.70317511
_cell_length_c   14.70317511
_cell_angle_alpha   109.47122063
_cell_angle_beta   109.47122063
_cell_angle_gamma   109.47122063
_symmetry_Int_Tables_number   1
_chemical_formula_structural   K6In3H12(N8O27)2
_chemical_formula_sum   'K12 In6 H24 N32 O108'
_cell_volume   2446.87339184
_cell_formula_units_Z   2
loop_
 _symmetry_equiv_pos_site_id
 _symmetry_equiv_pos_as_xyz
  1  'x, y, z'
loop_
 _atom_site_type_symbol
 _atom_site_label
 _atom_site_symmetry_multiplicity
 _atom_site_fract_x
 _atom_site_fract_y
 _atom_site_fract_z
 _atom_site_occupancy
  K  K0  1  0.00322889  0.75000000  0.25322889  1
  K  K1  1  0.49677111  0.25000000  0.24677111  1
  K  K2  1  0.75322889  0.25000000  0.50322889  1
  K  K3  1  0.74677111  0.75000000  0.99677111  1
  K  K4  1  0.75000000  0.25322889  0.00322889  1
  K  K5  1  0.25000000  0.24677111  0.49677111  1
  K  K6  1  0.25000000  0.50322889  0.75322889  1
  K  K7  1  0.75000000  0.99677111  0.74677111  1
  K  K8  1  0.25322889  0.00322889  0.75000000  1
  K  K9  1  0.24677111  0.49677111  0.25000000  1
  K  K10  1  0.50322889  0.75322889  0.25000000  1
  K  K11  1  0.99677111  0.74677111  0.75000000  1
  In  In0  1  0.37500000  0.75000000  0.62500000  1
  In  In1  1  0.12500000  0.25000000  0.87500000  1
  In  In2  1  0.75000000  0.62500000  0.37500000  1
  In  In3  1  0.25000000  0.87500000  0.12500000  1
  In  In4  1  0.62500000  0.37500000  0.75000000  1
  In  In5  1  0.87500000  0.12500000  0.25000000  1
  H  H0  1  0.29376408  0.02981335  0.33276959  1
  H  H1  1  0.80295624  0.47018665  0.26395073  1
  H  H2  1  0.69704376  0.46099449  0.16723041  1
  H  H3  1  0.20623592  0.03900551  0.23604927  1
  H  H4  1  0.83276959  0.52981335  0.79376408  1
  H  H5  1  0.76395073  0.97018665  0.30295624  1
  H  H6  1  0.66723041  0.96099449  0.19704376  1
  H  H7  1  0.73604927  0.53900551  0.70623592  1
  H  H8  1  0.02981335  0.33276959  0.29376408  1
  H  H9  1  0.47018665  0.26395073  0.80295624  1
  H  H10  1  0.46099449  0.16723041  0.69704376  1
  H  H11  1  0.03900551  0.23604927  0.20623592  1
  H  H12  1  0.52981335  0.79376408  0.83276959  1
  H  H13  1  0.97018665  0.30295624  0.76395073  1
  H  H14  1  0.96099449  0.19704376  0.66723041  1
  H  H15  1  0.53900551  0.70623592  0.73604927  1
  H  H16  1  0.33276959  0.29376408  0.02981335  1
  H  H17  1  0.26395073  0.80295624  0.47018665  1
  H  H18  1  0.16723041  0.69704376  0.46099449  1
  H  H19  1  0.23604927  0.20623592  0.03900551  1
  H  H20  1  0.79376408  0.83276959  0.52981335  1
  H  H21  1  0.30295624  0.76395073  0.97018665  1
  H  H22  1  0.19704376  0.66723041  0.96099449  1
  H  H23  1  0.70623592  0.73604927  0.53900551  1
  N  N0  1  0.50072825  0.31636873  0.49976778  1
  N  N1  1  0.68339904  0.18363127  0.18435952  1
  N  N2  1  0.81660096  0.50096048  0.00023222  1
  N  N3  1  0.99927175  0.99903952  0.31564048  1
  N  N4  1  0.99976778  0.81636873  0.00072825  1
  N  N5  1  0.68435952  0.68363127  0.18339904  1
  N  N6  1  0.50023222  0.00096048  0.31660096  1
  N  N7  1  0.81564048  0.49903952  0.49927175  1
  N  N8  1  0.31636873  0.49976778  0.50072825  1
  N  N9  1  0.18363127  0.18435952  0.68339904  1
  N  N10  1  0.50096048  0.00023222  0.81660096  1
  N  N11  1  0.99903952  0.31564048  0.99927175  1
  N  N12  1  0.81636873  0.00072825  0.99976778  1
  N  N13  1  0.68363127  0.18339904  0.68435952  1
  N  N14  1  0.00096048  0.31660096  0.50023222  1
  N  N15  1  0.49903952  0.49927175  0.81564048  1
  N  N16  1  0.49976778  0.50072825  0.31636873  1
  N  N17  1  0.18435952  0.68339904  0.18363127  1
  N  N18  1  0.00023222  0.81660096  0.50096048  1
  N  N19  1  0.31564048  0.99927175  0.99903952  1
  N  N20  1  0.00072825  0.99976778  0.81636873  1
  N  N21  1  0.18339904  0.68435952  0.68363127  1
  N  N22  1  0.31660096  0.50023222  0.00096048  1
  N  N23  1  0.49927175  0.81564048  0.49903952  1
  N  N24  1  0.33506363  -0.00000000  0.50000000  1
  N  N25  1  -0.00000000  0.50000000  0.33506363  1
  N  N26  1  0.50000000  0.33506363  -0.00000000  1
  N  N27  1  0.16493637  0.16493637  0.16493637  1
  N  N28  1  0.00000000  0.50000000  0.83506363  1
  N  N29  1  0.83506363  0.00000000  0.50000000  1
  N  N30  1  0.50000000  0.83506363  0.00000000  1
  N  N31  1  0.66493637  0.66493637  0.66493637  1
  O  O0  1  0.41138998  0.27137368  0.41170845  1
  O  O1  1  0.64033477  0.22862632  0.14001630  1
  O  O2  1  0.85966523  0.49968152  0.08829155  1
  O  O3  1  0.08861002  0.00031848  0.35998370  1
  O  O4  1  0.91170845  0.77137368  0.91138998  1
  O  O5  1  0.64001630  0.72862632  0.14033477  1
  O  O6  1  0.58829155  0.99968152  0.35966523  1
  O  O7  1  0.85998370  0.50031848  0.58861002  1
  O  O8  1  0.27137368  0.41170845  0.41138998  1
  O  O9  1  0.22862632  0.14001630  0.64033477  1
  O  O10  1  0.49968152  0.08829155  0.85966523  1
  O  O11  1  0.00031848  0.35998370  0.08861002  1
  O  O12  1  0.77137368  0.91138998  0.91170845  1
  O  O13  1  0.72862632  0.14033477  0.64001630  1
  O  O14  1  0.99968152  0.35966523  0.58829155  1
  O  O15  1  0.50031848  0.58861002  0.85998370  1
  O  O16  1  0.41170845  0.41138998  0.27137368  1
  O  O17  1  0.14001630  0.64033477  0.22862632  1
  O  O18  1  0.08829155  0.85966523  0.49968152  1
  O  O19  1  0.35998370  0.08861002  0.00031848  1
  O  O20  1  0.91138998  0.91170845  0.77137368  1
  O  O21  1  0.14033477  0.64001630  0.72862632  1
  O  O22  1  0.35966523  0.58829155  0.99968152  1
  O  O23  1  0.58861002  0.85998370  0.50031848  1
  O  O24  1  0.15617739  0.75313047  0.16190978  1
  O  O25  1  0.90877931  0.74686953  0.40304692  1
  O  O26  1  0.59122069  0.49426761  0.33809022  1
  O  O27  1  0.34382261  0.00573239  0.09695308  1
  O  O28  1  0.66190978  0.25313047  0.65617739  1
  O  O29  1  0.90304692  0.24686953  0.40877931  1
  O  O30  1  0.83809022  0.99426761  0.09122069  1
  O  O31  1  0.59695308  0.50573239  0.84382261  1
  O  O32  1  0.75313047  0.16190978  0.15617739  1
  O  O33  1  0.74686953  0.40304692  0.90877931  1
  O  O34  1  0.49426761  0.33809022  0.59122069  1
  O  O35  1  0.00573239  0.09695308  0.34382261  1
  O  O36  1  0.25313047  0.65617739  0.66190978  1
  O  O37  1  0.24686953  0.40877931  0.90304692  1
  O  O38  1  0.99426761  0.09122069  0.83809022  1
  O  O39  1  0.50573239  0.84382261  0.59695308  1
  O  O40  1  0.16190978  0.15617739  0.75313047  1
  O  O41  1  0.40304692  0.90877931  0.74686953  1
  O  O42  1  0.33809022  0.59122069  0.49426761  1
  O  O43  1  0.09695308  0.34382261  0.00573239  1
  O  O44  1  0.65617739  0.66190978  0.25313047  1
  O  O45  1  0.40877931  0.90304692  0.24686953  1
  O  O46  1  0.09122069  0.83809022  0.99426761  1
  O  O47  1  0.84382261  0.59695308  0.50573239  1
  O  O48  1  0.49572712  0.08816899  0.33778524  1
  O  O49  1  0.74961625  0.41183101  0.40755813  1
  O  O50  1  0.75038375  0.65794188  0.16221476  1
  O  O51  1  0.00427288  0.84205812  0.09244187  1
  O  O52  1  0.83778524  0.58816899  0.99572712  1
  O  O53  1  0.90755813  0.91183101  0.24961625  1
  O  O54  1  0.66221476  0.15794188  0.25038375  1
  O  O55  1  0.59244187  0.34205812  0.50427288  1
  O  O56  1  0.08816899  0.33778524  0.49572712  1
  O  O57  1  0.41183101  0.40755813  0.74961625  1
  O  O58  1  0.65794188  0.16221476  0.75038375  1
  O  O59  1  0.84205812  0.09244187  0.00427288  1
  O  O60  1  0.58816899  0.99572712  0.83778524  1
  O  O61  1  0.91183101  0.24961625  0.90755813  1
  O  O62  1  0.15794188  0.25038375  0.66221476  1
  O  O63  1  0.34205812  0.50427288  0.59244187  1
  O  O64  1  0.33778524  0.49572712  0.08816899  1
  O  O65  1  0.40755813  0.74961625  0.41183101  1
  O  O66  1  0.16221476  0.75038375  0.65794188  1
  O  O67  1  0.09244187  0.00427288  0.84205812  1
  O  O68  1  0.99572712  0.83778524  0.58816899  1
  O  O69  1  0.24961625  0.90755813  0.91183101  1
  O  O70  1  0.25038375  0.66221476  0.15794188  1
  O  O71  1  0.50427288  0.59244187  0.34205812  1
  O  O72  1  0.35215350  0.07558222  0.47378487  1
  O  O73  1  0.89820264  0.42441778  0.27657128  1
  O  O74  1  0.60179736  0.37836864  0.02621513  1
  O  O75  1  0.14784650  0.12163136  0.22342872  1
  O  O76  1  0.97378487  0.57558222  0.85215350  1
  O  O77  1  0.77657128  0.92441778  0.39820264  1
  O  O78  1  0.52621513  0.87836864  0.10179736  1
  O  O79  1  0.72342872  0.62163136  0.64784650  1
  O  O80  1  0.07558222  0.47378487  0.35215350  1
  O  O81  1  0.42441778  0.27657128  0.89820264  1
  O  O82  1  0.37836864  0.02621513  0.60179736  1
  O  O83  1  0.12163136  0.22342872  0.14784650  1
  O  O84  1  0.57558222  0.85215350  0.97378487  1
  O  O85  1  0.92441778  0.39820264  0.77657128  1
  O  O86  1  0.87836864  0.10179736  0.52621513  1
  O  O87  1  0.62163136  0.64784650  0.72342872  1
  O  O88  1  0.47378487  0.35215350  0.07558222  1
  O  O89  1  0.27657128  0.89820264  0.42441778  1
  O  O90  1  0.02621513  0.60179736  0.37836864  1
  O  O91  1  0.22342872  0.14784650  0.12163136  1
  O  O92  1  0.85215350  0.97378487  0.57558222  1
  O  O93  1  0.39820264  0.77657128  0.92441778  1
  O  O94  1  0.10179736  0.52621513  0.87836864  1
  O  O95  1  0.64784650  0.72342872  0.62163136  1
  O  O96  1  0.24894352  0.75000000  0.49894352  1
  O  O97  1  0.25105648  0.25000000  0.00105648  1
  O  O98  1  0.99894352  0.25000000  0.74894352  1
  O  O99  1  0.50105648  0.75000000  0.75105648  1
  O  O100  1  0.75000000  0.49894352  0.24894352  1
  O  O101  1  0.25000000  0.00105648  0.25105648  1
  O  O102  1  0.25000000  0.74894352  0.99894352  1
  O  O103  1  0.75000000  0.75105648  0.50105648  1
  O  O104  1  0.49894352  0.24894352  0.75000000  1
  O  O105  1  0.00105648  0.25105648  0.25000000  1
  O  O106  1  0.74894352  0.99894352  0.25000000  1
  O  O107  1  0.75105648  0.50105648  0.75000000  1
loop_
_geom_bond_atom_site_label_1
_geom_bond_atom_site_label_2
_geom_bond_distance
_geom_bond_site_symmetry_2
K0 O24 2.974442 1_555
K0 O25 2.974442 1_455
K0 O18 3.005638 1_555
K0 O17 3.005638 1_555
K0 O2 3.056205 1_455
K0 O3 3.056205 1_565
K0 O50 3.092701 1_455
K0 O51 3.092701 1_555
K0 O53 3.147861 1_455
K0 O52 3.147861 1_454
K0 O90 3.316203 1_555
K0 O89 3.316203 1_555
K1 O26 2.974442 1_555
K1 O27 2.974442 1_555
K1 O19 3.005638 1_555
K1 O16 3.005638 1_555
K1 O0 3.056204 1_555
K1 O1 3.056204 1_555
K1 O48 3.092701 1_555
K1 O49 3.092701 1_555
K1 O54 3.147861 1_555
K1 O55 3.147861 1_555
K1 O91 3.316203 1_555
K1 O88 3.316203 1_555
K2 O29 2.974442 1_555
K2 O28 2.974442 1_555
K2 O14 3.005638 1_555
K2 O13 3.005638 1_555
K2 O6 3.056205 1_545
K2 O7 3.056205 1_555
K2 O55 3.092701 1_555
K2 O54 3.092701 1_555
K2 O49 3.147861 1_555
K2 O48 3.147861 1_555
K2 O86 3.316203 1_555
K2 O85 3.316203 1_555
K3 O30 2.974442 1_556
K3 O31 2.974442 1_555
K3 O15 3.005638 1_555
K3 O12 3.005638 1_555
K3 O5 3.056204 1_556
K3 O4 3.056204 1_555
K3 O52 3.092701 1_555
K3 O53 3.092701 1_556
K3 O50 3.147861 1_556
K3 O51 3.147861 1_656
K3 O87 3.316203 1_555
K3 O84 3.316203 1_555
K4 O32 2.974442 1_555
K4 O33 2.974442 1_554
K4 O2 3.005638 1_555
K4 O1 3.005638 1_555
K4 O10 3.056205 1_554
K4 O11 3.056205 1_655
K4 O58 3.092701 1_554
K4 O59 3.092701 1_555
K4 O61 3.147861 1_554
K4 O60 3.147861 1_544
K4 O74 3.316203 1_555
K4 O73 3.316203 1_555
K5 O34 2.974442 1_555
K5 O35 2.974442 1_555
K5 O3 3.005638 1_555
K5 O0 3.005638 1_555
K5 O8 3.056204 1_555
K5 O9 3.056204 1_555
K5 O56 3.092701 1_555
K5 O57 3.092701 1_555
K5 O62 3.147861 1_555
K5 O63 3.147861 1_555
K5 O75 3.316203 1_555
K5 O72 3.316203 1_555
K6 O37 2.974442 1_555
K6 O36 2.974442 1_555
K6 O22 3.005638 1_555
K6 O21 3.005638 1_555
K6 O14 3.056205 1_455
K6 O15 3.056205 1_555
K6 O62 3.092701 1_555
K6 O63 3.092701 1_555
K6 O56 3.147861 1_555
K6 O57 3.147861 1_555
K6 O94 3.316203 1_555
K6 O93 3.316203 1_555
K7 O38 2.974442 1_565
K7 O39 2.974442 1_555
K7 O23 3.005638 1_555
K7 O20 3.005638 1_555
K7 O13 3.056204 1_565
K7 O12 3.056204 1_555
K7 O60 3.092701 1_555
K7 O61 3.092701 1_565
K7 O58 3.147861 1_565
K7 O59 3.147861 1_566
K7 O95 3.316203 1_555
K7 O92 3.316203 1_555
K8 O40 2.974442 1_555
K8 O41 2.974442 1_545
K8 O10 3.005638 1_555
K8 O9 3.005638 1_555
K8 O18 3.056205 1_545
K8 O19 3.056205 1_556
K8 O66 3.092701 1_545
K8 O67 3.092701 1_555
K8 O69 3.147861 1_545
K8 O68 3.147861 1_445
K8 O82 3.316203 1_555
K8 O81 3.316203 1_555
K9 O43 2.974442 1_555
K9 O42 2.974442 1_555
K9 O11 3.005638 1_555
K9 O8 3.005638 1_555
K9 O16 3.056204 1_555
K9 O17 3.056204 1_555
K9 O65 3.092701 1_555
K9 O64 3.092701 1_555
K9 O70 3.147861 1_555
K9 O71 3.147861 1_555
K9 O83 3.316203 1_555
K9 O80 3.316203 1_555
K10 O45 2.974442 1_555
K10 O44 2.974442 1_555
K10 O6 3.005638 1_555
K10 O5 3.005638 1_555
K10 O22 3.056205 1_554
K10 O23 3.056205 1_555
K10 O71 3.092701 1_555
K10 O70 3.092701 1_555
K10 O64 3.147861 1_555
K10 O65 3.147861 1_555
K10 O78 3.316203 1_555
K10 O77 3.316203 1_555
K11 O46 2.974442 1_655
K11 O47 2.974442 1_555
K11 O7 3.005638 1_555
K11 O4 3.005638 1_555
K11 O21 3.056204 1_655
K11 O20 3.056204 1_555
K11 O68 3.092701 1_555
K11 O69 3.092701 1_655
K11 O66 3.147861 1_655
K11 O67 3.147861 1_665
K11 O79 3.316203 1_555
K11 O76 3.316203 1_555
In0 O96 2.140157 1_555
In0 O99 2.140157 1_555
In0 O42 2.215349 1_555
In0 O41 2.215349 1_555
In0 O36 2.215349 1_555
In0 O39 2.215349 1_555
In1 O97 2.140157 1_556
In1 O98 2.140157 1_455
In1 O43 2.215349 1_556
In1 O40 2.215349 1_555
In1 O37 2.215349 1_555
In1 O38 2.215349 1_455
In2 O100 2.140157 1_555
In2 O103 2.140157 1_555
In2 O26 2.215349 1_555
In2 O25 2.215349 1_555
In2 O47 2.215349 1_555
In2 O44 2.215349 1_555
In3 O101 2.140157 1_565
In3 O102 2.140157 1_554
In3 O27 2.215349 1_565
In3 O24 2.215349 1_555
In3 O45 2.215349 1_555
In3 O46 2.215349 1_554
In4 O104 2.140157 1_555
In4 O107 2.140157 1_555
In4 O33 2.215349 1_555
In4 O34 2.215349 1_555
In4 O28 2.215349 1_555
In4 O31 2.215349 1_555
In5 O105 2.140157 1_655
In5 O106 2.140157 1_545
In5 O35 2.215349 1_655
In5 O30 2.215349 1_545
In5 O32 2.215349 1_555
In5 O29 2.215349 1_555
H0 O101 1.000428 1_555
H1 O100 1.000428 1_555
H2 O100 1.000428 1_555
H3 O101 1.000428 1_555
H4 O107 1.000428 1_555
H5 O106 1.000428 1_555
H6 O106 1.000428 1_555
H7 O107 1.000428 1_555
H8 O105 1.000428 1_555
H9 O104 1.000428 1_555
H10 O104 1.000428 1_555
H11 O105 1.000428 1_555
H12 O99 1.000428 1_555
H13 O98 1.000428 1_555
H14 O98 1.000428 1_555
H15 O99 1.000428 1_555
H16 O97 1.000428 1_555
H17 O96 1.000428 1_555
H18 O96 1.000428 1_555
H19 O97 1.000428 1_555
H20 O103 1.000428 1_555
H21 O102 1.000428 1_555
H22 O102 1.000428 1_555
H23 O103 1.000428 1_555
N0 O55 1.244857 1_555
N0 O0 1.247109 1_555
N0 O34 1.318402 1_555
N1 O54 1.244857 1_555
N1 O1 1.247109 1_555
N1 O32 1.318402 1_555
N2 O52 1.244857 1_554
N2 O2 1.247110 1_555
N2 O33 1.318402 1_554
N3 O53 1.244857 1_555
N3 O3 1.247109 1_665
N3 O35 1.318402 1_665
N4 O51 1.244857 1_655
N4 O4 1.247109 1_554
N4 O46 1.318402 1_654
N5 O50 1.244857 1_555
N5 O5 1.247109 1_555
N5 O44 1.318402 1_555
N6 O48 1.244857 1_555
N6 O6 1.247110 1_545
N6 O45 1.318402 1_545
N7 O49 1.244857 1_555
N7 O7 1.247109 1_555
N7 O47 1.318402 1_555
N8 O63 1.244857 1_555
N8 O8 1.247109 1_555
N8 O42 1.318402 1_555
N9 O62 1.244857 1_555
N9 O9 1.247109 1_555
N9 O40 1.318402 1_555
N10 O60 1.244857 1_545
N10 O10 1.247110 1_555
N10 O41 1.318402 1_545
N11 O61 1.244857 1_555
N11 O11 1.247109 1_656
N11 O43 1.318402 1_656
N12 O59 1.244857 1_556
N12 O12 1.247109 1_545
N12 O30 1.318402 1_546
N13 O58 1.244857 1_555
N13 O13 1.247109 1_555
N13 O28 1.318402 1_555
N14 O56 1.244857 1_555
N14 O14 1.247110 1_455
N14 O29 1.318402 1_455
N15 O57 1.244857 1_555
N15 O15 1.247109 1_555
N15 O31 1.318402 1_555
N16 O71 1.244857 1_555
N16 O16 1.247109 1_555
N16 O26 1.318402 1_555
N17 O70 1.244857 1_555
N17 O17 1.247109 1_555
N17 O24 1.318402 1_555
N18 O68 1.244857 1_455
N18 O18 1.247110 1_555
N18 O25 1.318402 1_455
N19 O69 1.244857 1_555
N19 O19 1.247109 1_566
N19 O27 1.318402 1_566
N20 O67 1.244857 1_565
N20 O20 1.247109 1_455
N20 O38 1.318402 1_465
N21 O66 1.244857 1_555
N21 O21 1.247109 1_555
N21 O36 1.318402 1_555
N22 O64 1.244857 1_555
N22 O22 1.247110 1_554
N22 O37 1.318402 1_554
N23 O65 1.244857 1_555
N23 O23 1.247109 1_555
N23 O39 1.318402 1_555
N24 O72 1.269119 1_555
N24 O89 1.269119 1_545
N24 O82 1.269119 1_555
N25 O80 1.269119 1_555
N25 O73 1.269119 1_455
N25 O90 1.269119 1_555
N26 O88 1.269119 1_555
N26 O81 1.269119 1_554
N26 O74 1.269119 1_555
N27 O83 1.269119 1_555
N27 O75 1.269119 1_555
N27 O91 1.269119 1_555
N28 O76 1.269119 1_455
N28 O85 1.269119 1_455
N28 O94 1.269119 1_555
N29 O92 1.269119 1_545
N29 O77 1.269119 1_545
N29 O86 1.269119 1_555
N30 O84 1.269119 1_554
N30 O93 1.269119 1_554
N30 O78 1.269119 1_555
N31 O87 1.269119 1_555
N31 O79 1.269119 1_555
N31 O95 1.269119 1_555
