# generated using pymatgen
data_AlNi
_symmetry_space_group_name_H-M   'P 1'
_cell_length_a   5.50399353
_cell_length_b   5.50399353
_cell_length_c   6.19886008
_cell_angle_alpha   90.00000000
_cell_angle_beta   90.00000000
_cell_angle_gamma   90.42681865
_symmetry_Int_Tables_number   1
_chemical_formula_structural   AlNi
_chemical_formula_sum   'Al8 Ni8'
_cell_volume   187.78271438
_cell_formula_units_Z   8
loop_
 _symmetry_equiv_pos_site_id
 _symmetry_equiv_pos_as_xyz
  1  'x, y, z'
loop_
 _atom_site_type_symbol
 _atom_site_label
 _atom_site_symmetry_multiplicity
 _atom_site_fract_x
 _atom_site_fract_y
 _atom_site_fract_z
 _atom_site_occupancy
  Al  Al0_0  1  0.00000000  0.00000000  0.00000000  1
  Al  Al0_1  1  1.00000000  0.00000000  0.50000000  1
  Al  Al0_2  1  0.00000000  0.50000000  0.00000000  1
  Al  Al0_3  1  1.00000000  0.50000000  0.50000000  1
  Al  Al0_4  1  0.50000000  0.00000000  0.00000000  1
  Al  Al0_5  1  0.50000000  0.00000000  0.50000000  1
  Al  Al0_6  1  0.50000000  0.50000000  0.00000000  1
  Al  Al0_7  1  0.50000000  0.50000000  0.50000000  1
  Ni  Ni0_0  1  0.25000000  0.25000000  0.25000000  1
  Ni  Ni0_1  1  0.25000000  0.25000000  0.75000000  1
  Ni  Ni0_2  1  0.25000000  0.75000000  0.25000000  1
  Ni  Ni0_3  1  0.25000000  0.75000000  0.75000000  1
  Ni  Ni0_4  1  0.75000000  0.25000000  0.25000000  1
  Ni  Ni0_5  1  0.75000000  0.25000000  0.75000000  1
  Ni  Ni0_6  1  0.75000000  0.75000000  0.25000000  1
  Ni  Ni0_7  1  0.75000000  0.75000000  0.75000000  1
loop_
_geom_bond_atom_site_label_1
_geom_bond_atom_site_label_2
_geom_bond_distance
_geom_bond_site_symmetry_2
Al0_0 Ni0_7 2.481965 1_444
Al0_0 Ni0_1 2.481965 1_554
Al0_0 Ni0_6 2.481965 1_445
Al0_0 Ni0_0 2.481965 1_555
Al0_0 Ni0_2 2.493305 1_545
Al0_0 Ni0_3 2.493305 1_544
Al0_0 Ni0_4 2.493305 1_455
Al0_0 Ni0_5 2.493305 1_454
Al0_0 Al0_4 2.751997 1_455
Al0_0 Al0_4 2.751997 1_555
Al0_0 Al0_2 2.751997 1_555
Al0_0 Al0_2 2.751997 1_545
Al0_1 Ni0_7 2.481965 1_545
Al0_1 Ni0_6 2.481965 1_545
Al0_1 Ni0_1 2.481965 1_655
Al0_1 Ni0_0 2.481965 1_655
Al0_1 Ni0_3 2.493305 1_645
Al0_1 Ni0_4 2.493305 1_555
Al0_1 Ni0_5 2.493305 1_555
Al0_1 Ni0_2 2.493305 1_645
Al0_1 Al0_3 2.751997 1_555
Al0_1 Al0_5 2.751997 1_555
Al0_1 Al0_3 2.751997 1_545
Al0_1 Al0_5 2.751997 1_655
Al0_2 Ni0_4 2.481965 1_455
Al0_2 Ni0_5 2.481965 1_454
Al0_2 Ni0_2 2.481965 1_555
Al0_2 Ni0_3 2.481965 1_554
Al0_2 Ni0_1 2.493305 1_554
Al0_2 Ni0_7 2.493305 1_454
Al0_2 Ni0_6 2.493305 1_455
Al0_2 Ni0_0 2.493305 1_555
Al0_2 Al0_6 2.751997 1_555
Al0_2 Al0_6 2.751997 1_455
Al0_3 Ni0_4 2.481965 1_555
Al0_3 Ni0_5 2.481965 1_555
Al0_3 Ni0_2 2.481965 1_655
Al0_3 Ni0_3 2.481965 1_655
Al0_3 Ni0_0 2.493305 1_655
Al0_3 Ni0_6 2.493305 1_555
Al0_3 Ni0_7 2.493305 1_555
Al0_3 Ni0_1 2.493305 1_655
Al0_3 Al0_7 2.751997 1_555
Al0_3 Al0_7 2.751997 1_655
Al0_4 Ni0_3 2.481965 1_544
Al0_4 Ni0_5 2.481965 1_554
Al0_4 Ni0_4 2.481965 1_555
Al0_4 Ni0_2 2.481965 1_545
Al0_4 Ni0_7 2.493305 1_544
Al0_4 Ni0_6 2.493305 1_545
Al0_4 Ni0_1 2.493305 1_554
Al0_4 Ni0_0 2.493305 1_555
Al0_4 Al0_6 2.751997 1_545
Al0_4 Al0_6 2.751997 1_555
Al0_5 Ni0_3 2.481965 1_545
Al0_5 Ni0_5 2.481965 1_555
Al0_5 Ni0_2 2.481965 1_545
Al0_5 Ni0_4 2.481965 1_555
Al0_5 Ni0_0 2.493305 1_555
Al0_5 Ni0_1 2.493305 1_555
Al0_5 Ni0_6 2.493305 1_545
Al0_5 Ni0_7 2.493305 1_545
Al0_5 Al0_7 2.751997 1_555
Al0_5 Al0_7 2.751997 1_545
Al0_6 Ni0_1 2.481965 1_554
Al0_6 Ni0_7 2.481965 1_554
Al0_6 Ni0_6 2.481965 1_555
Al0_6 Ni0_0 2.481965 1_555
Al0_6 Ni0_5 2.493305 1_554
Al0_6 Ni0_4 2.493305 1_555
Al0_6 Ni0_2 2.493305 1_555
Al0_6 Ni0_3 2.493305 1_554
Al0_7 Ni0_6 2.481965 1_555
Al0_7 Ni0_0 2.481965 1_555
Al0_7 Ni0_7 2.481965 1_555
Al0_7 Ni0_1 2.481965 1_555
Al0_7 Ni0_2 2.493305 1_555
Al0_7 Ni0_3 2.493305 1_555
Al0_7 Ni0_5 2.493305 1_555
Al0_7 Ni0_4 2.493305 1_555
Ni0_0 Ni0_4 2.751997 1_455
Ni0_0 Ni0_4 2.751997 1_555
Ni0_0 Ni0_2 2.751997 1_545
Ni0_0 Ni0_2 2.751997 1_555
Ni0_1 Ni0_5 2.751997 1_555
Ni0_1 Ni0_3 2.751997 1_555
Ni0_1 Ni0_3 2.751997 1_545
Ni0_1 Ni0_5 2.751997 1_455
Ni0_2 Ni0_6 2.751997 1_555
Ni0_2 Ni0_6 2.751997 1_455
Ni0_3 Ni0_7 2.751997 1_555
Ni0_3 Ni0_7 2.751997 1_455
Ni0_4 Ni0_6 2.751997 1_555
Ni0_4 Ni0_6 2.751997 1_545
Ni0_5 Ni0_7 2.751997 1_545
Ni0_5 Ni0_7 2.751997 1_555
