# generated using pymatgen
data_ReN
_symmetry_space_group_name_H-M   'P 1'
_cell_length_a   4.05462137
_cell_length_b   4.05462137
_cell_length_c   4.05462137
_cell_angle_alpha   90.00000000
_cell_angle_beta   90.00000000
_cell_angle_gamma   90.00000000
_symmetry_Int_Tables_number   1
_chemical_formula_structural   ReN
_chemical_formula_sum   'Re3 N3'
_cell_volume   66.65779065
_cell_formula_units_Z   3
loop_
 _symmetry_equiv_pos_site_id
 _symmetry_equiv_pos_as_xyz
  1  'x, y, z'
loop_
 _atom_site_type_symbol
 _atom_site_label
 _atom_site_symmetry_multiplicity
 _atom_site_fract_x
 _atom_site_fract_y
 _atom_site_fract_z
 _atom_site_occupancy
  Re  Re0  1  0.50000000  0.50000000  0.00000000  1
  Re  Re1  1  0.50000000  0.00000000  0.50000000  1
  Re  Re2  1  -0.00000000  0.50000000  0.50000000  1
  N  N0  1  -0.00000000  0.00000000  0.50000000  1
  N  N1  1  -0.00000000  0.50000000  0.00000000  1
  N  N2  1  0.50000000  0.00000000  0.00000000  1
loop_
_geom_bond_atom_site_label_1
_geom_bond_atom_site_label_2
_geom_bond_distance
_geom_bond_site_symmetry_2
N0 Re2 2.027311 1_555
N0 Re1 2.027311 1_555
N0 Re2 2.027311 1_545
N0 Re1 2.027311 1_455
N1 Re2 2.027311 1_555
N1 Re0 2.027311 1_555
N1 Re0 2.027311 1_455
N1 Re2 2.027311 1_554
N2 Re0 2.027311 1_555
N2 Re1 2.027311 1_555
N2 Re1 2.027311 1_554
N2 Re0 2.027311 1_545
