# generated using pymatgen
data_Ca2SnWO6
_symmetry_space_group_name_H-M   'P 1'
_cell_length_a   5.64834900
_cell_length_b   5.66667521
_cell_length_c   5.70524789
_cell_angle_alpha   119.47627359
_cell_angle_beta   90.15427530
_cell_angle_gamma   119.50718680
_symmetry_Int_Tables_number   1
_chemical_formula_structural   Ca2SnWO6
_chemical_formula_sum   'Ca2 Sn1 W1 O6'
_cell_volume   130.91654206
_cell_formula_units_Z   1
loop_
 _symmetry_equiv_pos_site_id
 _symmetry_equiv_pos_as_xyz
  1  'x, y, z'
loop_
 _atom_site_type_symbol
 _atom_site_label
 _atom_site_symmetry_multiplicity
 _atom_site_fract_x
 _atom_site_fract_y
 _atom_site_fract_z
 _atom_site_occupancy
  Ca  Ca0  1  0.77607500  0.24497100  0.29754200  1
  Ca  Ca1  1  0.27756100  0.74099000  0.80358100  1
  Sn  Sn0  1  0.50621900  0.51581400  0.48899700  1
  W  W0  1  0.00514400  0.01674100  0.98593600  1
  O  O0  1  0.65123300  0.78469000  0.70762600  1
  O  O1  1  0.35787200  0.29783600  0.21154400  1
  O  O2  1  0.15649200  0.67613600  0.20854400  1
  O  O3  1  0.74636800  0.86586500  0.21800200  1
  O  O4  1  0.22894700  0.17230200  0.71048100  1
  O  O5  1  0.85234900  0.36290300  0.72207400  1
loop_
_geom_bond_atom_site_label_1
_geom_bond_atom_site_label_2
_geom_bond_distance
_geom_bond_site_symmetry_2
Ca0 O3 1.879961 1_545
Ca0 O5 2.148588 1_555
Ca0 O2 2.626723 1_655
Ca1 O0 2.107263 1_555
Ca1 O5 2.125920 1_455
Ca1 O2 2.556809 1_556
Ca1 O4 2.861033 1_555
Ca1 O4 2.875603 1_565
O0 Sn0 1.201266 1_555
O0 W0 1.893443 1_665
O1 Sn0 1.335151 1_555
O1 W0 1.733700 1_554
O3 W0 2.124567 1_664
O4 W0 2.262994 1_555
O4 Sn0 2.695723 1_555
