# generated using pymatgen
data_EuSi2Ni9
_symmetry_space_group_name_H-M   'P 1'
_cell_length_a   7.59302240
_cell_length_b   7.59302240
_cell_length_c   7.59302240
_cell_angle_alpha   99.60459747
_cell_angle_beta   99.60459747
_cell_angle_gamma   131.78246363
_symmetry_Int_Tables_number   1
_chemical_formula_structural   EuSi2Ni9
_chemical_formula_sum   'Eu2 Si4 Ni18'
_cell_volume   297.96048789
_cell_formula_units_Z   2
loop_
 _symmetry_equiv_pos_site_id
 _symmetry_equiv_pos_as_xyz
  1  'x, y, z'
loop_
 _atom_site_type_symbol
 _atom_site_label
 _atom_site_symmetry_multiplicity
 _atom_site_fract_x
 _atom_site_fract_y
 _atom_site_fract_z
 _atom_site_occupancy
  Eu  Eu0  1  0.50000000  0.50000000  0.00000000  1
  Eu  Eu1  1  0.75000000  0.25000000  0.50000000  1
  Si  Si0  1  0.62500000  0.87500000  0.75000000  1
  Si  Si1  1  0.12500000  0.37500000  0.25000000  1
  Si  Si2  1  0.12500000  0.87500000  0.75000000  1
  Si  Si3  1  0.12500000  0.87500000  0.25000000  1
  Ni  Ni0  1  0.25000000  0.75000000  0.50000000  1
  Ni  Ni1  1  0.00000000  0.00000000  0.00000000  1
  Ni  Ni2  1  0.68817500  0.01627000  0.07968800  1
  Ni  Ni3  1  0.68817500  0.60848800  0.67190600  1
  Ni  Ni4  1  0.26627000  0.43817500  0.57968800  1
  Ni  Ni5  1  0.26627000  0.68658200  0.82809400  1
  Ni  Ni6  1  0.93658200  0.01627000  0.32809400  1
  Ni  Ni7  1  0.93658200  0.60848800  0.92031200  1
  Ni  Ni8  1  0.85848800  0.43817500  0.17190600  1
  Ni  Ni9  1  0.85848800  0.68658200  0.42031200  1
  Ni  Ni10  1  0.56182500  0.73373000  0.42031200  1
  Ni  Ni11  1  0.56182500  0.14151200  0.82809400  1
  Ni  Ni12  1  0.98373000  0.31182500  0.92031200  1
  Ni  Ni13  1  0.98373000  0.06341800  0.67190600  1
  Ni  Ni14  1  0.31341800  0.73373000  0.17190600  1
  Ni  Ni15  1  0.31341800  0.14151200  0.57968800  1
  Ni  Ni16  1  0.39151200  0.31182500  0.32809400  1
  Ni  Ni17  1  0.39151200  0.06341800  0.07968800  1
loop_
_geom_bond_atom_site_label_1
_geom_bond_atom_site_label_2
_geom_bond_distance
_geom_bond_site_symmetry_2
Eu0 Ni16 3.038158 1_555
Eu0 Ni3 3.038158 1_554
Eu0 Ni7 3.038161 1_554
Eu0 Ni6 3.038161 1_565
Eu0 Ni13 3.038161 1_454
Eu0 Ni17 3.038161 1_555
Eu0 Ni12 3.038165 1_454
Eu0 Ni2 3.038165 1_565
Eu0 Ni1 3.101523 1_555
Eu0 Ni1 3.101523 1_665
Eu0 Ni4 3.170976 1_554
Eu0 Ni10 3.170976 1_555
Eu0 Ni15 3.170979 1_554
Eu0 Ni5 3.170979 1_554
Eu0 Ni14 3.170979 1_555
Eu0 Ni9 3.170979 1_555
Eu0 Ni8 3.170985 1_555
Eu0 Ni11 3.170985 1_554
Eu1 Ni11 3.038158 1_555
Eu1 Ni8 3.038158 1_555
Eu1 Ni5 3.038161 1_655
Eu1 Ni15 3.038161 1_555
Eu1 Ni9 3.038161 1_555
Eu1 Ni14 3.038161 1_545
Eu1 Ni4 3.038165 1_655
Eu1 Ni10 3.038165 1_545
Eu1 Ni0 3.101523 1_545
Eu1 Ni0 3.101523 1_655
Eu1 Ni2 3.170976 1_555
Eu1 Ni12 3.170976 1_555
Eu1 Ni17 3.170979 1_555
Eu1 Ni13 3.170979 1_555
Eu1 Ni7 3.170979 1_555
Eu1 Ni6 3.170979 1_555
Eu1 Ni16 3.170985 1_555
Eu1 Ni3 3.170985 1_555
Ni0 Si2 2.570123 1_555
Ni0 Si0 2.570123 1_555
Ni0 Si3 2.570123 1_555
Ni0 Si1 2.570123 1_555
Ni0 Ni8 2.613469 1_455
Ni0 Ni11 2.613469 1_565
Ni0 Ni9 2.613469 1_455
Ni0 Ni14 2.613469 1_555
Ni0 Ni5 2.613469 1_555
Ni0 Ni15 2.613469 1_565
Ni0 Ni10 2.613476 1_555
Ni0 Ni4 2.613476 1_555
Ni1 Si0 2.570123 1_444
Ni1 Si3 2.570123 1_545
Ni1 Si2 2.570123 1_544
Ni1 Si1 2.570123 1_555
Ni1 Ni3 2.613469 1_444
Ni1 Ni16 2.613469 1_555
Ni1 Ni13 2.613469 1_454
Ni1 Ni7 2.613469 1_444
Ni1 Ni17 2.613469 1_555
Ni1 Ni6 2.613469 1_455
Ni1 Ni12 2.613476 1_454
Ni1 Ni2 2.613476 1_455
Ni2 Si1 2.333832 1_655
Ni2 Si0 2.380109 1_544
Ni2 Ni8 2.419477 1_555
Ni2 Ni5 2.419484 1_544
Ni2 Ni6 2.434752 1_555
Ni3 Si2 2.333834 1_655
Ni3 Si0 2.380101 1_555
Ni3 Ni4 2.419477 1_555
Ni3 Ni9 2.419491 1_555
Ni3 Ni7 2.434752 1_555
Ni4 Si0 2.333832 1_555
Ni4 Si1 2.380109 1_555
Ni4 Ni6 2.419484 1_455
Ni4 Ni5 2.434752 1_555
Ni5 Si0 2.333828 1_555
Ni5 Si2 2.380107 1_555
Ni5 Ni7 2.419487 1_455
Ni6 Si1 2.333828 1_655
Ni6 Si3 2.380107 1_645
Ni6 Ni9 2.419487 1_545
Ni7 Si2 2.333828 1_655
Ni7 Si3 2.380107 1_656
Ni7 Ni8 2.419491 1_556
Ni8 Si3 2.333834 1_655
Ni8 Si1 2.380101 1_655
Ni8 Ni9 2.434752 1_555
Ni9 Si3 2.333828 1_655
Ni9 Si2 2.380107 1_655
Ni10 Si1 2.333832 1_555
Ni10 Si0 2.380109 1_555
Ni10 Ni16 2.419477 1_555
Ni10 Ni13 2.419484 1_565
Ni10 Ni14 2.434752 1_555
Ni10 Ni6 2.494177 1_565
Ni10 Ni9 2.505366 1_555
Ni10 Ni4 2.576444 1_555
Ni10 Ni3 2.585466 1_555
Ni11 Si2 2.333834 1_545
Ni11 Si0 2.380101 1_545
Ni11 Ni12 2.419477 1_555
Ni11 Ni17 2.419491 1_556
Ni11 Ni15 2.434752 1_555
Ni11 Ni7 2.494181 1_555
Ni11 Ni8 2.505371 1_556
Ni11 Ni5 2.576438 1_545
Ni11 Ni2 2.585466 1_556
Ni12 Si0 2.333832 1_545
Ni12 Si1 2.380109 1_656
Ni12 Ni14 2.419484 1_656
Ni12 Ni13 2.434752 1_555
Ni12 Ni5 2.494177 1_655
Ni12 Ni7 2.505366 1_555
Ni12 Ni2 2.576444 1_556
Ni12 Ni8 2.585466 1_556
Ni13 Si0 2.333828 1_545
Ni13 Si2 2.380107 1_645
Ni13 Ni15 2.419487 1_655
Ni13 Ni4 2.494177 1_655
Ni13 Ni6 2.505373 1_555
Ni13 Ni3 2.576438 1_545
Ni13 Ni9 2.585474 1_545
Ni14 Si1 2.333828 1_555
Ni14 Si3 2.380107 1_555
Ni14 Ni17 2.419487 1_565
Ni14 Ni2 2.494177 1_565
Ni14 Ni5 2.505373 1_554
Ni14 Ni8 2.576438 1_455
Ni14 Ni7 2.585474 1_454
Ni15 Si2 2.333828 1_545
Ni15 Si3 2.380107 1_545
Ni15 Ni16 2.419491 1_555
Ni15 Ni3 2.494181 1_555
Ni15 Ni4 2.505366 1_555
Ni15 Ni9 2.576438 1_445
Ni15 Ni6 2.585474 1_455
Ni16 Si3 2.333834 1_545
Ni16 Si1 2.380101 1_555
Ni16 Ni17 2.434752 1_555
Ni16 Ni9 2.494181 1_555
Ni16 Ni3 2.505371 1_555
Ni16 Ni6 2.576438 1_455
Ni16 Ni4 2.585466 1_555
Ni17 Si3 2.333828 1_545
Ni17 Si2 2.380107 1_544
Ni17 Ni8 2.494181 1_555
Ni17 Ni2 2.505366 1_555
Ni17 Ni7 2.576438 1_444
Ni17 Ni5 2.585474 1_544
