# generated using pymatgen
data_YbZnAu
_symmetry_space_group_name_H-M   'P 1'
_cell_length_a   4.35574200
_cell_length_b   7.14007500
_cell_length_c   8.16301100
_cell_angle_alpha   90.00000000
_cell_angle_beta   90.00000000
_cell_angle_gamma   90.00000000
_symmetry_Int_Tables_number   1
_chemical_formula_structural   YbZnAu
_chemical_formula_sum   'Yb4 Zn4 Au4'
_cell_volume   253.87229149
_cell_formula_units_Z   4
loop_
 _symmetry_equiv_pos_site_id
 _symmetry_equiv_pos_as_xyz
  1  'x, y, z'
loop_
 _atom_site_type_symbol
 _atom_site_label
 _atom_site_symmetry_multiplicity
 _atom_site_fract_x
 _atom_site_fract_y
 _atom_site_fract_z
 _atom_site_occupancy
  Yb  Yb0  1  0.75000000  0.47248600  0.80890500  1
  Yb  Yb1  1  0.25000000  0.02751400  0.30890500  1
  Yb  Yb2  1  0.75000000  0.97248600  0.69109500  1
  Yb  Yb3  1  0.25000000  0.52751400  0.19109500  1
  Zn  Zn0  1  0.25000000  0.65560200  0.56748400  1
  Zn  Zn1  1  0.25000000  0.15560200  0.93251600  1
  Zn  Zn2  1  0.75000000  0.34439800  0.43251600  1
  Zn  Zn3  1  0.75000000  0.84439800  0.06748400  1
  Au  Au0  1  0.25000000  0.76762200  0.88532100  1
  Au  Au1  1  0.25000000  0.26762200  0.61467900  1
  Au  Au2  1  0.75000000  0.73237800  0.38532100  1
  Au  Au3  1  0.75000000  0.23237800  0.11467900  1
loop_
_geom_bond_atom_site_label_1
_geom_bond_atom_site_label_2
_geom_bond_distance
_geom_bond_site_symmetry_2
Yb0 Zn2 3.205694 1_555
Yb0 Zn0 3.215016 1_655
Yb0 Zn0 3.215016 1_555
Yb0 Zn1 3.298564 1_555
Yb0 Zn1 3.298564 1_655
Yb0 Zn3 3.392194 1_556
Yb1 Zn1 3.205694 1_554
Yb1 Zn3 3.215016 1_445
Yb1 Zn3 3.215016 1_545
Yb1 Zn2 3.298564 1_555
Yb1 Zn2 3.298564 1_455
Yb1 Zn0 3.392194 1_545
Yb2 Zn3 3.205694 1_556
Yb2 Zn1 3.215016 1_665
Yb2 Zn1 3.215016 1_565
Yb2 Zn0 3.298564 1_555
Yb2 Zn0 3.298564 1_655
Yb2 Zn2 3.392194 1_565
Yb3 Zn0 3.205694 1_555
Yb3 Zn2 3.215016 1_555
Yb3 Zn2 3.215016 1_455
Yb3 Zn3 3.298564 1_455
Yb3 Zn3 3.298564 1_555
Yb3 Zn1 3.392194 1_554
Au0 Zn3 2.693473 1_556
Au0 Zn3 2.693473 1_456
Au0 Zn0 2.714995 1_555
Au0 Zn1 2.796867 1_565
Au0 Yb3 3.028090 1_556
Au0 Yb2 3.065364 1_455
Au0 Yb2 3.065364 1_555
Au0 Yb0 3.094013 1_455
Au0 Yb0 3.094013 1_555
Au1 Zn2 2.693473 1_455
Au1 Zn2 2.693473 1_555
Au1 Zn1 2.714995 1_555
Au1 Zn0 2.796867 1_555
Au1 Yb1 3.028090 1_555
Au1 Yb0 3.065364 1_455
Au1 Yb0 3.065364 1_555
Au1 Yb2 3.094013 1_445
Au1 Yb2 3.094013 1_545
Au2 Zn0 2.693473 1_555
Au2 Zn0 2.693473 1_655
Au2 Zn3 2.714995 1_555
Au2 Zn2 2.796867 1_555
Au2 Yb2 3.028090 1_555
Au2 Yb3 3.065364 1_555
Au2 Yb3 3.065364 1_655
Au2 Yb1 3.094013 1_565
Au2 Yb1 3.094013 1_665
Au3 Zn1 2.693473 1_554
Au3 Zn1 2.693473 1_654
Au3 Zn2 2.714995 1_555
Au3 Zn3 2.796867 1_545
Au3 Yb0 3.028090 1_554
Au3 Yb1 3.065364 1_655
Au3 Yb1 3.065364 1_555
Au3 Yb3 3.094013 1_555
Au3 Yb3 3.094013 1_655
