# generated using pymatgen
data_Ba8Sr2Yb5(Cu3O7)5
_symmetry_space_group_name_H-M   'P 1'
_cell_length_a   3.80625100
_cell_length_b   14.14122000
_cell_length_c   16.57154775
_cell_angle_alpha   77.44174901
_cell_angle_beta   90.00000000
_cell_angle_gamma   90.00000000
_symmetry_Int_Tables_number   1
_chemical_formula_structural   Ba8Sr2Yb5(Cu3O7)5
_chemical_formula_sum   'Ba8 Sr2 Yb5 Cu15 O35'
_cell_volume   870.62426482
_cell_formula_units_Z   1
loop_
 _symmetry_equiv_pos_site_id
 _symmetry_equiv_pos_as_xyz
  1  'x, y, z'
loop_
 _atom_site_type_symbol
 _atom_site_label
 _atom_site_symmetry_multiplicity
 _atom_site_fract_x
 _atom_site_fract_y
 _atom_site_fract_z
 _atom_site_occupancy
  Ba  Ba0  1  0.50000000  0.98599500  0.82427100  1
  Ba  Ba1  1  0.50000000  0.38745600  0.42435600  1
  Ba  Ba2  1  0.50000000  0.78713700  0.02509700  1
  Ba  Ba3  1  0.50000000  0.18709000  0.62442200  1
  Ba  Ba4  1  0.50000000  0.58655400  0.22420100  1
  Ba  Ba5  1  0.50000000  0.61386000  0.57401100  1
  Ba  Ba6  1  0.50000000  0.01237300  0.17533000  1
  Ba  Ba7  1  0.50000000  0.41190900  0.77636600  1
  Sr  Sr0  1  0.50000000  0.81536500  0.37656900  1
  Sr  Sr1  1  0.50000000  0.21542400  0.97754000  1
  Yb  Yb0  1  0.50000000  0.99909100  0.49931700  1
  Yb  Yb1  1  0.50000000  0.79983300  0.69959300  1
  Yb  Yb2  1  0.50000000  0.19967200  0.29976900  1
  Yb  Yb3  1  0.50000000  0.39912900  0.09946700  1
  Yb  Yb4  1  0.50000000  0.59963200  0.90008100  1
  Cu  Cu0  1  0.00000000  0.98561600  0.65694900  1
  Cu  Cu1  1  0.00000000  0.78562200  0.85712100  1
  Cu  Cu2  1  0.00000000  0.18550900  0.45701300  1
  Cu  Cu3  1  0.00000000  0.38541100  0.25676900  1
  Cu  Cu4  1  0.00000000  0.58544200  0.05693500  1
  Cu  Cu5  1  0.00000000  0.81311100  0.54134000  1
  Cu  Cu6  1  0.00000000  0.61397200  0.74271400  1
  Cu  Cu7  1  0.00000000  0.01220700  0.34213600  1
  Cu  Cu8  1  0.00000000  0.21278900  0.14145300  1
  Cu  Cu9  1  0.00000000  0.41232400  0.94234700  1
  Cu  Cu10  1  0.00000000  0.20061900  0.80114000  1
  Cu  Cu11  1  0.00000000  0.00129700  0.00061300  1
  Cu  Cu12  1  0.00000000  0.40046200  0.60020100  1
  Cu  Cu13  1  0.00000000  0.60161100  0.40012400  1
  Cu  Cu14  1  0.00000000  0.80100300  0.20102500  1
  O  O0  1  0.50000000  0.97420400  0.64940000  1
  O  O1  1  0.50000000  0.77434300  0.84962700  1
  O  O2  1  0.50000000  0.17399200  0.44934100  1
  O  O3  1  0.50000000  0.37411600  0.24945800  1
  O  O4  1  0.50000000  0.57411900  0.04953300  1
  O  O5  1  0.50000000  0.82506600  0.54856200  1
  O  O6  1  0.50000000  0.62534000  0.75022400  1
  O  O7  1  0.50000000  0.02338900  0.35003700  1
  O  O8  1  0.50000000  0.22483800  0.14856600  1
  O  O9  1  0.50000000  0.42315300  0.95029300  1
  O  O10  1  0.00000000  0.10557400  0.73891000  1
  O  O11  1  0.00000000  0.90774800  0.93685200  1
  O  O12  1  0.00000000  0.30600800  0.53759800  1
  O  O13  1  0.00000000  0.50766000  0.33673900  1
  O  O14  1  0.00000000  0.70575100  0.13863700  1
  O  O15  1  0.00000000  0.70161200  0.45772900  1
  O  O16  1  0.00000000  0.49443900  0.66310200  1
  O  O17  1  0.00000000  0.89062400  0.26928100  1
  O  O18  1  0.00000000  0.10150100  0.05823500  1
  O  O19  1  0.00000000  0.28921400  0.86984100  1
  O  O20  1  0.00000000  0.30026600  0.70133500  1
  O  O21  1  0.00000000  0.10256700  0.90177800  1
  O  O22  1  0.00000000  0.50168700  0.49991700  1
  O  O23  1  0.00000000  0.70246800  0.30148200  1
  O  O24  1  0.00000000  0.90189400  0.10125400  1
  O  O25  1  0.00000000  0.87552800  0.75033300  1
  O  O26  1  0.00000000  0.27533100  0.35026400  1
  O  O27  1  0.00000000  0.67556500  0.95030000  1
  O  O28  1  0.00000000  0.07473900  0.54994500  1
  O  O29  1  0.00000000  0.47480000  0.14983000  1
  O  O30  1  0.00000000  0.72445500  0.64903200  1
  O  O31  1  0.00000000  0.12372100  0.24911200  1
  O  O32  1  0.00000000  0.52372300  0.84979600  1
  O  O33  1  0.00000000  0.92157500  0.44764200  1
  O  O34  1  0.00000000  0.32147500  0.04774400  1
loop_
_geom_bond_atom_site_label_1
_geom_bond_atom_site_label_2
_geom_bond_distance
_geom_bond_site_symmetry_2
Ba0 O11 2.725647 1_555
Ba0 O11 2.725647 1_655
Ba0 O10 2.728027 1_565
Ba0 O10 2.728027 1_665
Ba0 O25 2.897549 1_555
Ba0 O25 2.897549 1_655
Ba0 O1 2.930497 1_555
Ba0 O0 2.938648 1_555
Ba0 O21 2.984928 1_665
Ba0 O21 2.984928 1_565
Ba1 O12 2.744113 1_655
Ba1 O12 2.744113 1_555
Ba1 O13 2.747034 1_555
Ba1 O13 2.747034 1_655
Ba1 O26 2.913778 1_555
Ba1 O26 2.913778 1_655
Ba1 O3 2.945109 1_555
Ba1 O22 2.945981 1_555
Ba1 O22 2.945981 1_655
Ba1 O2 2.956369 1_555
Ba2 O14 2.746806 1_655
Ba2 O14 2.746806 1_555
Ba2 O11 2.754046 1_654
Ba2 O11 2.754046 1_554
Ba2 O27 2.915138 1_654
Ba2 O27 2.915138 1_554
Ba2 O4 2.950878 1_555
Ba2 O1 2.952434 1_554
Ba2 O24 2.956137 1_555
Ba2 O24 2.956137 1_655
Ba3 O12 2.732728 1_555
Ba3 O12 2.732728 1_655
Ba3 O10 2.756658 1_655
Ba3 O10 2.756658 1_555
Ba3 O28 2.919258 1_655
Ba3 O28 2.919258 1_555
Ba3 O2 2.947187 1_555
Ba3 O0 2.948281 1_545
Ba3 O20 2.948713 1_555
Ba3 O20 2.948713 1_655
Ba4 O14 2.726587 1_655
Ba4 O14 2.726587 1_555
Ba4 O13 2.727590 1_655
Ba4 O13 2.727590 1_555
Ba4 O29 2.912944 1_655
Ba4 O29 2.912944 1_555
Ba4 O4 2.937772 1_555
Ba4 O3 2.941634 1_555
Ba4 O23 2.976866 1_655
Ba4 O23 2.976866 1_555
Ba5 O16 2.751228 1_555
Ba5 O16 2.751228 1_655
Ba5 O15 2.799132 1_555
Ba5 O15 2.799132 1_655
Ba5 O30 2.908422 1_655
Ba5 O30 2.908422 1_555
Ba5 O22 2.914227 1_555
Ba5 O22 2.914227 1_655
Ba5 O5 2.924132 1_555
Ba5 O6 2.959665 1_555
Ba6 O17 2.800784 1_645
Ba6 O17 2.800784 1_545
Ba6 O18 2.812868 1_655
Ba6 O18 2.812868 1_555
Ba6 O24 2.898891 1_545
Ba6 O24 2.898891 1_645
Ba6 O31 2.904033 1_655
Ba6 O31 2.904033 1_555
Ba6 O7 2.932981 1_555
Ba6 O8 2.940125 1_555
Ba7 O16 2.748515 1_655
Ba7 O16 2.748515 1_555
Ba7 O19 2.804109 1_655
Ba7 O19 2.804109 1_555
Ba7 O32 2.905076 1_555
Ba7 O32 2.905076 1_655
Ba7 O20 2.917881 1_655
Ba7 O20 2.917881 1_555
Ba7 O9 2.920938 1_555
Ba7 O6 2.954397 1_555
Cu0 O0 1.916340 1_555
Cu0 O0 1.916340 1_455
Cu0 O28 1.939292 1_565
Cu0 O25 1.941834 1_555
Cu0 O10 2.392553 1_565
Cu1 O1 1.916080 1_455
Cu1 O1 1.916080 1_555
Cu1 O27 1.939445 1_555
Cu1 O25 1.941558 1_555
Cu1 O11 2.391778 1_555
Cu2 O2 1.916658 1_455
Cu2 O2 1.916658 1_555
Cu2 O26 1.940518 1_555
Cu2 O28 1.943277 1_555
Cu2 O12 2.382546 1_555
Cu3 O3 1.915853 1_455
Cu3 O3 1.915853 1_555
Cu3 O29 1.940161 1_555
Cu3 O26 1.942909 1_555
Cu3 O13 2.396053 1_555
Cu4 O4 1.916015 1_455
Cu4 O4 1.916015 1_555
Cu4 O27 1.941014 1_554
Cu4 O29 1.941752 1_555
Cu4 O14 2.393594 1_555
Cu5 O5 1.916661 1_455
Cu5 O5 1.916661 1_555
Cu5 O33 1.930767 1_555
Cu5 O30 1.945172 1_555
Cu5 O15 2.314282 1_555
Cu6 O6 1.916225 1_455
Cu6 O6 1.916225 1_555
Cu6 O32 1.947520 1_555
Cu6 O30 1.948419 1_555
Cu6 O16 2.359569 1_555
Cu7 O7 1.916517 1_455
Cu7 O7 1.916517 1_555
Cu7 O33 1.930041 1_545
Cu7 O31 1.950899 1_555
Cu7 O17 2.305734 1_545
Cu8 O8 1.916650 1_455
Cu8 O8 1.916650 1_555
Cu8 O34 1.932828 1_555
Cu8 O31 1.947347 1_555
Cu8 O18 2.306998 1_555
Cu9 O9 1.916101 1_555
Cu9 O9 1.916101 1_455
Cu9 O34 1.930103 1_556
Cu9 O32 1.945054 1_555
Cu9 O19 2.320378 1_555
Cu10 O10 1.863516 1_555
Cu10 O19 1.867087 1_555
Cu10 O21 1.923100 1_555
Cu10 O20 1.925518 1_555
Cu11 O11 1.863961 1_544
Cu11 O18 1.872998 1_555
Cu11 O21 1.927023 1_554
Cu11 O24 1.933375 1_545
Cu12 O16 1.858772 1_555
Cu12 O12 1.860894 1_555
Cu12 O22 1.943279 1_555
Cu12 O20 1.945184 1_555
Cu13 O13 1.864218 1_555
Cu13 O15 1.870318 1_555
Cu13 O23 1.921562 1_555
Cu13 O22 1.927517 1_555
Cu14 O14 1.867839 1_555
Cu14 O17 1.873223 1_555
Cu14 O23 1.924622 1_555
Cu14 O24 1.934771 1_555
O0 Yb1 2.424913 1_555
O0 Yb0 2.434939 1_555
O1 Yb4 2.429972 1_555
O1 Yb1 2.433489 1_555
O2 Yb2 2.425717 1_555
O2 Yb0 2.431544 1_545
O3 Yb2 2.426125 1_555
O3 Yb3 2.433292 1_555
O4 Yb4 2.423922 1_554
O4 Yb3 2.432649 1_555
O5 Yb0 2.418427 1_555
O5 Yb1 2.450113 1_555
O5 Sr0 2.883130 1_555
O6 Yb1 2.427433 1_555
O6 Yb4 2.430361 1_555
O7 Yb0 2.422419 1_545
O7 Yb2 2.450554 1_555
O7 Sr0 2.878287 1_545
O8 Yb3 2.421701 1_555
O8 Yb2 2.453008 1_555
O8 Sr1 2.866058 1_554
O9 Yb3 2.420993 1_556
O9 Yb4 2.453060 1_555
O9 Sr1 2.873366 1_555
O15 Sr0 2.660368 1_555
O15 Sr0 2.660368 1_455
O17 Sr0 2.663215 1_455
O17 Sr0 2.663215 1_555
O18 Sr1 2.658688 1_554
O18 Sr1 2.658688 1_454
O19 Sr1 2.661986 1_555
O19 Sr1 2.661986 1_455
O21 Sr1 2.935386 1_455
O21 Sr1 2.935386 1_555
O23 Sr0 2.929655 1_555
O23 Sr0 2.929655 1_455
O25 Yb1 2.422003 1_455
O25 Yb1 2.422003 1_555
O26 Yb2 2.419943 1_555
O26 Yb2 2.419943 1_455
O27 Yb4 2.419932 1_555
O27 Yb4 2.419932 1_455
O28 Yb0 2.420837 1_545
O28 Yb0 2.420837 1_445
O29 Yb3 2.419064 1_455
O29 Yb3 2.419064 1_555
O30 Yb1 2.418373 1_455
O30 Yb1 2.418373 1_555
O31 Yb2 2.423269 1_455
O31 Yb2 2.423269 1_555
O32 Yb4 2.420237 1_455
O32 Yb4 2.420237 1_555
O33 Yb0 2.442333 1_455
O33 Yb0 2.442333 1_555
O33 Sr0 2.834459 1_455
O33 Sr0 2.834459 1_555
O34 Yb3 2.443714 1_455
O34 Yb3 2.443714 1_555
O34 Sr1 2.825447 1_454
O34 Sr1 2.825447 1_554
