# generated using pymatgen
data_Sc
_symmetry_space_group_name_H-M   'P 1'
_cell_length_a   10.84535200
_cell_length_b   10.84535200
_cell_length_c   6.87041200
_cell_angle_alpha   90.00000000
_cell_angle_beta   90.00000000
_cell_angle_gamma   90.00000000
_symmetry_Int_Tables_number   1
_chemical_formula_structural   Sc
_chemical_formula_sum   Sc32
_cell_volume   808.10926435
_cell_formula_units_Z   32
loop_
 _symmetry_equiv_pos_site_id
 _symmetry_equiv_pos_as_xyz
  1  'x, y, z'
loop_
 _atom_site_type_symbol
 _atom_site_label
 _atom_site_symmetry_multiplicity
 _atom_site_fract_x
 _atom_site_fract_y
 _atom_site_fract_z
 _atom_site_occupancy
  Sc  Sc0_0  1  0.25000000  0.25000000  0.00000000  1
  Sc  Sc0_1  1  0.25000000  0.25000000  0.50000000  1
  Sc  Sc0_2  1  0.25000000  0.75000000  0.00000000  1
  Sc  Sc0_3  1  0.25000000  0.75000000  0.50000000  1
  Sc  Sc0_4  1  0.75000000  0.25000000  0.00000000  1
  Sc  Sc0_5  1  0.75000000  0.25000000  0.50000000  1
  Sc  Sc0_6  1  0.75000000  0.75000000  0.00000000  1
  Sc  Sc0_7  1  0.75000000  0.75000000  0.50000000  1
  Sc  Sc1_0  1  0.00000000  0.00000000  0.00000000  1
  Sc  Sc1_1  1  0.00000000  0.00000000  0.50000000  1
  Sc  Sc1_2  1  0.00000000  0.50000000  0.00000000  1
  Sc  Sc1_3  1  0.00000000  0.50000000  0.50000000  1
  Sc  Sc1_4  1  0.50000000  0.00000000  0.00000000  1
  Sc  Sc1_5  1  0.50000000  0.00000000  0.50000000  1
  Sc  Sc1_6  1  0.50000000  0.50000000  0.00000000  1
  Sc  Sc1_7  1  0.50000000  0.50000000  0.50000000  1
  Sc  Sc2_0  1  0.25000000  0.00000000  0.26633200  1
  Sc  Sc2_1  1  0.25000000  0.00000000  0.76633200  1
  Sc  Sc2_2  1  0.25000000  0.50000000  0.26633200  1
  Sc  Sc2_3  1  0.25000000  0.50000000  0.76633200  1
  Sc  Sc2_4  1  0.75000000  0.00000000  0.26633200  1
  Sc  Sc2_5  1  0.75000000  0.00000000  0.76633200  1
  Sc  Sc2_6  1  0.75000000  0.50000000  0.26633200  1
  Sc  Sc2_7  1  0.75000000  0.50000000  0.76633200  1
  Sc  Sc3_0  1  0.00000000  0.25000000  0.23366800  1
  Sc  Sc3_1  1  0.00000000  0.25000000  0.73366800  1
  Sc  Sc3_2  1  0.00000000  0.75000000  0.23366800  1
  Sc  Sc3_3  1  0.00000000  0.75000000  0.73366800  1
  Sc  Sc3_4  1  0.50000000  0.25000000  0.23366800  1
  Sc  Sc3_5  1  0.50000000  0.25000000  0.73366800  1
  Sc  Sc3_6  1  0.50000000  0.75000000  0.23366800  1
  Sc  Sc3_7  1  0.50000000  0.75000000  0.73366800  1
loop_
_geom_bond_atom_site_label_1
_geom_bond_atom_site_label_2
_geom_bond_distance
_geom_bond_site_symmetry_2
Sc0_0 Sc2_3 3.150976 1_554
Sc0_0 Sc2_1 3.150976 1_554
Sc0_0 Sc3_0 3.150976 1_555
Sc0_0 Sc3_4 3.150976 1_555
Sc0_0 Sc3_1 3.271018 1_554
Sc0_0 Sc3_5 3.271018 1_554
Sc0_0 Sc2_2 3.271018 1_555
Sc0_0 Sc2_0 3.271018 1_555
Sc0_0 Sc0_1 3.435206 1_554
Sc0_0 Sc0_1 3.435206 1_555
Sc0_1 Sc2_2 3.150976 1_555
Sc0_1 Sc3_1 3.150976 1_555
Sc0_1 Sc2_0 3.150976 1_555
Sc0_1 Sc3_5 3.150976 1_555
Sc0_1 Sc3_0 3.271018 1_555
Sc0_1 Sc3_4 3.271018 1_555
Sc0_1 Sc2_1 3.271018 1_555
Sc0_1 Sc2_3 3.271018 1_555
Sc0_2 Sc2_1 3.150976 1_564
Sc0_2 Sc3_2 3.150976 1_555
Sc0_2 Sc3_6 3.150976 1_555
Sc0_2 Sc2_3 3.150976 1_554
Sc0_2 Sc2_0 3.271018 1_565
Sc0_2 Sc3_3 3.271018 1_554
Sc0_2 Sc3_7 3.271018 1_554
Sc0_2 Sc2_2 3.271018 1_555
Sc0_2 Sc0_3 3.435206 1_554
Sc0_2 Sc0_3 3.435206 1_555
Sc0_3 Sc2_0 3.150976 1_565
Sc0_3 Sc3_3 3.150976 1_555
Sc0_3 Sc3_7 3.150976 1_555
Sc0_3 Sc2_2 3.150976 1_555
Sc0_3 Sc2_1 3.271018 1_565
Sc0_3 Sc3_6 3.271018 1_555
Sc0_3 Sc3_2 3.271018 1_555
Sc0_3 Sc2_3 3.271018 1_555
Sc0_4 Sc3_0 3.150976 1_655
Sc0_4 Sc2_5 3.150976 1_554
Sc0_4 Sc2_7 3.150976 1_554
Sc0_4 Sc3_4 3.150976 1_555
Sc0_4 Sc3_1 3.271018 1_654
Sc0_4 Sc2_4 3.271018 1_555
Sc0_4 Sc2_6 3.271018 1_555
Sc0_4 Sc3_5 3.271018 1_554
Sc0_4 Sc0_5 3.435206 1_555
Sc0_4 Sc0_5 3.435206 1_554
Sc0_5 Sc3_1 3.150976 1_655
Sc0_5 Sc2_4 3.150976 1_555
Sc0_5 Sc2_6 3.150976 1_555
Sc0_5 Sc3_5 3.150976 1_555
Sc0_5 Sc3_0 3.271018 1_655
Sc0_5 Sc2_5 3.271018 1_555
Sc0_5 Sc2_7 3.271018 1_555
Sc0_5 Sc3_4 3.271018 1_555
Sc0_6 Sc2_5 3.150976 1_564
Sc0_6 Sc3_2 3.150976 1_655
Sc0_6 Sc2_7 3.150976 1_554
Sc0_6 Sc3_6 3.150976 1_555
Sc0_6 Sc3_3 3.271018 1_654
Sc0_6 Sc2_4 3.271018 1_565
Sc0_6 Sc3_7 3.271018 1_554
Sc0_6 Sc2_6 3.271018 1_555
Sc0_6 Sc0_7 3.435206 1_554
Sc0_6 Sc0_7 3.435206 1_555
Sc0_7 Sc2_4 3.150976 1_565
Sc0_7 Sc3_3 3.150976 1_655
Sc0_7 Sc2_6 3.150976 1_555
Sc0_7 Sc3_7 3.150976 1_555
Sc0_7 Sc3_2 3.271018 1_655
Sc0_7 Sc2_5 3.271018 1_565
Sc0_7 Sc2_7 3.271018 1_555
Sc0_7 Sc3_6 3.271018 1_555
Sc1_0 Sc2_5 3.150976 1_454
Sc1_0 Sc3_2 3.150976 1_545
Sc1_0 Sc2_1 3.150976 1_554
Sc1_0 Sc3_0 3.150976 1_555
Sc1_0 Sc3_3 3.271018 1_544
Sc1_0 Sc2_4 3.271018 1_455
Sc1_0 Sc3_1 3.271018 1_554
Sc1_0 Sc2_0 3.271018 1_555
Sc1_0 Sc1_1 3.435206 1_555
Sc1_0 Sc1_1 3.435206 1_554
Sc1_1 Sc2_4 3.150976 1_455
Sc1_1 Sc3_3 3.150976 1_545
Sc1_1 Sc3_1 3.150976 1_555
Sc1_1 Sc2_0 3.150976 1_555
Sc1_1 Sc3_2 3.271018 1_545
Sc1_1 Sc2_5 3.271018 1_455
Sc1_1 Sc3_0 3.271018 1_555
Sc1_1 Sc2_1 3.271018 1_555
Sc1_2 Sc2_7 3.150976 1_454
Sc1_2 Sc2_3 3.150976 1_554
Sc1_2 Sc3_0 3.150976 1_555
Sc1_2 Sc3_2 3.150976 1_555
Sc1_2 Sc2_6 3.271018 1_455
Sc1_2 Sc3_1 3.271018 1_554
Sc1_2 Sc2_2 3.271018 1_555
Sc1_2 Sc3_3 3.271018 1_554
Sc1_2 Sc1_3 3.435206 1_555
Sc1_2 Sc1_3 3.435206 1_554
Sc1_3 Sc2_6 3.150976 1_455
Sc1_3 Sc2_2 3.150976 1_555
Sc1_3 Sc3_1 3.150976 1_555
Sc1_3 Sc3_3 3.150976 1_555
Sc1_3 Sc2_7 3.271018 1_455
Sc1_3 Sc3_0 3.271018 1_555
Sc1_3 Sc2_3 3.271018 1_555
Sc1_3 Sc3_2 3.271018 1_555
Sc1_4 Sc3_6 3.150976 1_545
Sc1_4 Sc2_1 3.150976 1_554
Sc1_4 Sc3_4 3.150976 1_555
Sc1_4 Sc2_5 3.150976 1_554
Sc1_4 Sc3_7 3.271018 1_544
Sc1_4 Sc3_5 3.271018 1_554
Sc1_4 Sc2_0 3.271018 1_555
Sc1_4 Sc2_4 3.271018 1_555
Sc1_4 Sc1_5 3.435206 1_554
Sc1_4 Sc1_5 3.435206 1_555
Sc1_5 Sc3_7 3.150976 1_545
Sc1_5 Sc2_0 3.150976 1_555
Sc1_5 Sc3_5 3.150976 1_555
Sc1_5 Sc2_4 3.150976 1_555
Sc1_5 Sc3_6 3.271018 1_545
Sc1_5 Sc3_4 3.271018 1_555
Sc1_5 Sc2_1 3.271018 1_555
Sc1_5 Sc2_5 3.271018 1_555
Sc1_6 Sc2_3 3.150976 1_554
Sc1_6 Sc3_4 3.150976 1_555
Sc1_6 Sc2_7 3.150976 1_554
Sc1_6 Sc3_6 3.150976 1_555
Sc1_6 Sc3_5 3.271018 1_554
Sc1_6 Sc2_2 3.271018 1_555
Sc1_6 Sc3_7 3.271018 1_554
Sc1_6 Sc2_6 3.271018 1_555
Sc1_6 Sc1_7 3.435206 1_555
Sc1_6 Sc1_7 3.435206 1_554
Sc1_7 Sc2_2 3.150976 1_555
Sc1_7 Sc3_5 3.150976 1_555
Sc1_7 Sc2_6 3.150976 1_555
Sc1_7 Sc3_7 3.150976 1_555
Sc1_7 Sc3_4 3.271018 1_555
Sc1_7 Sc2_3 3.271018 1_555
Sc1_7 Sc2_7 3.271018 1_555
Sc1_7 Sc3_6 3.271018 1_555
Sc2_0 Sc2_1 3.435206 1_554
Sc2_0 Sc2_1 3.435206 1_555
Sc2_2 Sc2_3 3.435206 1_554
Sc2_2 Sc2_3 3.435206 1_555
Sc2_4 Sc2_5 3.435206 1_554
Sc2_4 Sc2_5 3.435206 1_555
Sc2_6 Sc2_7 3.435206 1_554
Sc2_6 Sc2_7 3.435206 1_555
Sc3_0 Sc3_1 3.435206 1_554
Sc3_0 Sc3_1 3.435206 1_555
Sc3_2 Sc3_3 3.435206 1_554
Sc3_2 Sc3_3 3.435206 1_555
Sc3_4 Sc3_5 3.435206 1_554
Sc3_4 Sc3_5 3.435206 1_555
Sc3_6 Sc3_7 3.435206 1_554
Sc3_6 Sc3_7 3.435206 1_555
