# generated using pymatgen
data_NbCr3(CuS4)2
_symmetry_space_group_name_H-M   'P 1'
_cell_length_a   6.96079091
_cell_length_b   5.92622804
_cell_length_c   5.85035735
_cell_angle_alpha   92.80409790
_cell_angle_beta   89.99623805
_cell_angle_gamma   90.00270695
_symmetry_Int_Tables_number   1
_chemical_formula_structural   NbCr3(CuS4)2
_chemical_formula_sum   'Nb1 Cr3 Cu2 S8'
_cell_volume   241.04549686
_cell_formula_units_Z   1
loop_
 _symmetry_equiv_pos_site_id
 _symmetry_equiv_pos_as_xyz
  1  'x, y, z'
loop_
 _atom_site_type_symbol
 _atom_site_label
 _atom_site_symmetry_multiplicity
 _atom_site_fract_x
 _atom_site_fract_y
 _atom_site_fract_z
 _atom_site_occupancy
  Nb  Nb0  1  0.50000000  0.00000000  0.50000000  1
  Cr  Cr0  1  0.25008000  0.50002500  0.50000200  1
  Cr  Cr1  1  0.74992000  0.49997500  0.49999800  1
  Cr  Cr2  1  0.00000000  0.00000000  0.50000000  1
  Cu  Cu0  1  0.00000000  0.00000000  0.00000000  1
  Cu  Cu1  1  0.50000000  0.00000000  0.00000000  1
  S  S0  1  0.00001200  0.32333500  0.28027300  1
  S  S1  1  0.50000600  0.33192200  0.26014800  1
  S  S2  1  0.24339000  0.82022300  0.25406700  1
  S  S3  1  0.75661700  0.82024300  0.25407400  1
  S  S4  1  0.24338300  0.17975700  0.74592600  1
  S  S5  1  0.75661000  0.17977700  0.74593300  1
  S  S6  1  0.49999400  0.66807800  0.73985200  1
  S  S7  1  0.99998800  0.67666500  0.71972700  1
loop_
_geom_bond_atom_site_label_1
_geom_bond_atom_site_label_2
_geom_bond_distance
_geom_bond_site_symmetry_2
Nb0 S1 2.471509 1_555
Nb0 S6 2.471509 1_545
Nb0 S4 2.499087 1_555
Nb0 S3 2.499087 1_545
Nb0 S5 2.499185 1_555
Nb0 S2 2.499185 1_545
Cr0 S7 2.376337 1_455
Cr0 S0 2.376400 1_555
Cr0 S6 2.418776 1_555
Cr0 S1 2.418898 1_555
Cr0 S2 2.437262 1_555
Cr0 S4 2.437550 1_555
Cr1 S0 2.376337 1_655
Cr1 S7 2.376400 1_555
Cr1 S1 2.418776 1_555
Cr1 S6 2.418898 1_555
Cr1 S5 2.437262 1_555
Cr1 S3 2.437550 1_555
Cr2 S7 2.359051 1_445
Cr2 S0 2.359051 1_555
Cr2 S4 2.434159 1_555
Cr2 S3 2.434159 1_445
Cr2 S5 2.434204 1_455
Cr2 S2 2.434204 1_545
Cu0 S7 2.460254 1_444
Cu0 S0 2.460254 1_555
Cu0 S3 2.523650 1_445
Cu0 S4 2.523650 1_554
Cu0 S2 2.523910 1_545
Cu0 S5 2.523910 1_454
Cu1 S1 2.427490 1_555
Cu1 S6 2.427490 1_544
Cu1 S5 2.586381 1_554
Cu1 S2 2.586381 1_545
Cu1 S4 2.586591 1_554
Cu1 S3 2.586591 1_545
