# generated using pymatgen
data_Si2H5CNCl4
_symmetry_space_group_name_H-M   'P 1'
_cell_length_a   12.31337400
_cell_length_b   7.83958700
_cell_length_c   10.64201942
_cell_angle_alpha   87.88445720
_cell_angle_beta   90.00000000
_cell_angle_gamma   90.00000000
_symmetry_Int_Tables_number   1
_chemical_formula_structural   Si2H5CNCl4
_chemical_formula_sum   'Si8 H20 C4 N4 Cl16'
_cell_volume   1026.59275081
_cell_formula_units_Z   4
loop_
 _symmetry_equiv_pos_site_id
 _symmetry_equiv_pos_as_xyz
  1  'x, y, z'
loop_
 _atom_site_type_symbol
 _atom_site_label
 _atom_site_symmetry_multiplicity
 _atom_site_fract_x
 _atom_site_fract_y
 _atom_site_fract_z
 _atom_site_occupancy
  Si  Si0  1  0.69512100  0.44000500  0.20295600  1
  Si  Si1  1  0.19512100  0.55999500  0.29704400  1
  Si  Si2  1  0.30487900  0.55999500  0.79704400  1
  Si  Si3  1  0.80487900  0.44000500  0.70295600  1
  Si  Si4  1  0.54676500  0.16212700  0.30567200  1
  Si  Si5  1  0.04676500  0.83787300  0.19432800  1
  Si  Si6  1  0.45323500  0.83787300  0.69432800  1
  Si  Si7  1  0.95323500  0.16212700  0.80567200  1
  H  H0  1  0.72622800  0.15310200  0.04142400  1
  H  H1  1  0.22622800  0.84689800  0.45857600  1
  H  H2  1  0.27377200  0.84689800  0.95857600  1
  H  H3  1  0.77377200  0.15310200  0.54142400  1
  H  H4  1  0.59191800  0.21854200  0.99235100  1
  H  H5  1  0.09191800  0.78145800  0.50764900  1
  H  H6  1  0.40808200  0.78145800  0.00764900  1
  H  H7  1  0.90808200  0.21854200  0.49235100  1
  H  H8  1  0.61268400  0.02439000  0.08257100  1
  H  H9  1  0.11268400  0.97561000  0.41742900  1
  H  H10  1  0.38731600  0.97561000  0.91742900  1
  H  H11  1  0.88731600  0.02439000  0.58257100  1
  H  H12  1  0.67196000  0.51327000  0.32615500  1
  H  H13  1  0.17196000  0.48673000  0.17384500  1
  H  H14  1  0.32804000  0.48673000  0.67384500  1
  H  H15  1  0.82804000  0.51327000  0.82615500  1
  H  H16  1  0.53880000  0.27907400  0.41091500  1
  H  H17  1  0.03880000  0.72092600  0.08908500  1
  H  H18  1  0.46120000  0.72092600  0.58908500  1
  H  H19  1  0.96120000  0.27907400  0.91091500  1
  C  C0  1  0.64001800  0.15724700  0.06897700  1
  C  C1  1  0.14001800  0.84275300  0.43102300  1
  C  C2  1  0.35998200  0.84275300  0.93102300  1
  C  C3  1  0.85998200  0.15724700  0.56897700  1
  N  N0  1  0.62696500  0.24977200  0.18748600  1
  N  N1  1  0.12696500  0.75022800  0.31251400  1
  N  N2  1  0.37303500  0.75022800  0.81251400  1
  N  N3  1  0.87303500  0.24977200  0.68748600  1
  Cl  Cl0  1  0.86042200  0.40175800  0.18535600  1
  Cl  Cl1  1  0.36042200  0.59824200  0.31464400  1
  Cl  Cl2  1  0.13957800  0.59824200  0.81464400  1
  Cl  Cl3  1  0.63957800  0.40175800  0.68535600  1
  Cl  Cl4  1  0.65305000  0.61240600  0.06017800  1
  Cl  Cl5  1  0.15305000  0.38759400  0.43982200  1
  Cl  Cl6  1  0.34695000  0.38759400  0.93982200  1
  Cl  Cl7  1  0.84695000  0.61240600  0.56017800  1
  Cl  Cl8  1  0.61098000  0.93251200  0.37202700  1
  Cl  Cl9  1  0.11098000  0.06748800  0.12797300  1
  Cl  Cl10  1  0.38902000  0.06748800  0.62797300  1
  Cl  Cl11  1  0.88902000  0.93251200  0.87202700  1
  Cl  Cl12  1  0.39483900  0.10510900  0.23874800  1
  Cl  Cl13  1  0.89483900  0.89489100  0.26125200  1
  Cl  Cl14  1  0.60516100  0.89489100  0.76125200  1
  Cl  Cl15  1  0.10516100  0.10510900  0.73874800  1
loop_
_geom_bond_atom_site_label_1
_geom_bond_atom_site_label_2
_geom_bond_distance
_geom_bond_site_symmetry_2
H12 Si0 1.478437 1_555
H13 Si1 1.478437 1_555
H14 Si2 1.478437 1_555
H15 Si3 1.478437 1_555
H16 Si4 1.476610 1_555
H17 Si5 1.476610 1_555
H18 Si6 1.476610 1_555
H19 Si7 1.476610 1_555
C0 H8 1.099045 1_555
C0 H0 1.102087 1_555
C0 H4 1.103509 1_554
C0 N0 1.486633 1_555
C1 H9 1.099045 1_555
C1 H1 1.102087 1_555
C1 H5 1.103509 1_555
C1 N1 1.486633 1_555
C2 H10 1.099045 1_555
C2 H2 1.102087 1_555
C2 H6 1.103509 1_556
C2 N2 1.486633 1_555
C3 H11 1.099045 1_555
C3 H3 1.102087 1_555
C3 H7 1.103509 1_555
C3 N3 1.486633 1_555
N0 Si4 1.722042 1_555
N0 Si0 1.724430 1_555
N1 Si5 1.722042 1_555
N1 Si1 1.724430 1_555
N2 Si6 1.722042 1_555
N2 Si2 1.724430 1_555
N3 Si7 1.722042 1_555
N3 Si3 1.724430 1_555
Cl0 Si0 2.066891 1_555
Cl1 Si1 2.066891 1_555
Cl2 Si2 2.066891 1_555
Cl3 Si3 2.066891 1_555
Cl4 Si0 2.062076 1_555
Cl5 Si1 2.062076 1_555
Cl6 Si2 2.062076 1_555
Cl7 Si3 2.062076 1_555
Cl8 Si4 2.066477 1_565
Cl9 Si5 2.066477 1_545
Cl10 Si6 2.066477 1_545
Cl11 Si7 2.066477 1_565
Cl12 Si4 2.056732 1_555
Cl13 Si5 2.056732 1_655
Cl14 Si6 2.056732 1_555
Cl15 Si7 2.056732 1_455
