# generated using pymatgen
data_Pd(PbO3)2
_symmetry_space_group_name_H-M   'P 1'
_cell_length_a   8.93878100
_cell_length_b   8.93878100
_cell_length_c   5.94287600
_cell_angle_alpha   90.00000000
_cell_angle_beta   90.00000000
_cell_angle_gamma   90.00000000
_symmetry_Int_Tables_number   1
_chemical_formula_structural   Pd(PbO3)2
_chemical_formula_sum   'Pd4 Pb8 O24'
_cell_volume   474.84652384
_cell_formula_units_Z   4
loop_
 _symmetry_equiv_pos_site_id
 _symmetry_equiv_pos_as_xyz
  1  'x, y, z'
loop_
 _atom_site_type_symbol
 _atom_site_label
 _atom_site_symmetry_multiplicity
 _atom_site_fract_x
 _atom_site_fract_y
 _atom_site_fract_z
 _atom_site_occupancy
  Pd  Pd0  1  0.25000000  0.75000000  0.75000000  1
  Pd  Pd1  1  0.75000000  0.75000000  0.25000000  1
  Pd  Pd2  1  0.25000000  0.25000000  0.25000000  1
  Pd  Pd3  1  0.75000000  0.25000000  0.75000000  1
  Pb  Pb0  1  0.13613000  0.36387000  0.72086700  1
  Pb  Pb1  1  0.86387000  0.36387000  0.22086700  1
  Pb  Pb2  1  0.36387000  0.86387000  0.27913300  1
  Pb  Pb3  1  0.63613000  0.86387000  0.77913300  1
  Pb  Pb4  1  0.86387000  0.63613000  0.72086700  1
  Pb  Pb5  1  0.13613000  0.63613000  0.22086700  1
  Pb  Pb6  1  0.63613000  0.13613000  0.27913300  1
  Pb  Pb7  1  0.36387000  0.13613000  0.77913300  1
  O  O0  1  0.00000000  0.50000000  0.45137100  1
  O  O1  1  0.00000000  0.50000000  0.95137100  1
  O  O2  1  0.50000000  0.00000000  0.54862900  1
  O  O3  1  0.50000000  0.00000000  0.04862900  1
  O  O4  1  0.50000000  0.50000000  0.50000000  1
  O  O5  1  0.50000000  0.50000000  0.00000000  1
  O  O6  1  0.00000000  0.00000000  0.50000000  1
  O  O7  1  0.00000000  0.00000000  0.00000000  1
  O  O8  1  0.06761900  0.79076700  0.56023900  1
  O  O9  1  0.93238100  0.79076700  0.06023900  1
  O  O10  1  0.43238100  0.29076700  0.43976100  1
  O  O11  1  0.56761900  0.29076700  0.93976100  1
  O  O12  1  0.93238100  0.20923300  0.56023900  1
  O  O13  1  0.06761900  0.20923300  0.06023900  1
  O  O14  1  0.56761900  0.70923300  0.43976100  1
  O  O15  1  0.43238100  0.70923300  0.93976100  1
  O  O16  1  0.20923300  0.06761900  0.43976100  1
  O  O17  1  0.20923300  0.93238100  0.93976100  1
  O  O18  1  0.70923300  0.43238100  0.56023900  1
  O  O19  1  0.70923300  0.56761900  0.06023900  1
  O  O20  1  0.79076700  0.93238100  0.43976100  1
  O  O21  1  0.79076700  0.06761900  0.93976100  1
  O  O22  1  0.29076700  0.56761900  0.56023900  1
  O  O23  1  0.29076700  0.43238100  0.06023900  1
loop_
_geom_bond_atom_site_label_1
_geom_bond_atom_site_label_2
_geom_bond_distance
_geom_bond_site_symmetry_2
O0 Pb1 2.199520 1_455
O0 Pb5 2.199520 1_555
O0 Pb0 2.350839 1_555
O0 Pb4 2.350839 1_455
O1 Pb0 2.199520 1_555
O1 Pb4 2.199520 1_455
O1 Pb1 2.350839 1_456
O1 Pb5 2.350839 1_556
O2 Pb7 2.199520 1_555
O2 Pb3 2.199520 1_545
O2 Pb2 2.350839 1_545
O2 Pb6 2.350839 1_555
O3 Pb2 2.199520 1_545
O3 Pb6 2.199520 1_555
O3 Pb7 2.350839 1_554
O3 Pb3 2.350839 1_544
O6 O8 1.997867 1_545
O7 O9 1.997867 1_445
O8 Pd0 2.015520 1_555
O8 Pb4 2.477685 1_455
O8 Pb5 2.520588 1_555
O9 Pd1 2.015520 1_555
O9 Pb5 2.477685 1_655
O9 Pb4 2.520588 1_554
O10 O4 1.997867 1_555
O10 Pd2 2.015520 1_555
O10 Pb6 2.477685 1_555
O10 Pb7 2.520588 1_555
O11 O5 1.997867 1_556
O11 Pd3 2.015520 1_555
O11 Pb7 2.477685 1_555
O11 Pb6 2.520588 1_556
O12 O6 1.997867 1_655
O12 Pd3 2.015520 1_555
O12 Pb0 2.477685 1_655
O12 Pb1 2.520588 1_555
O13 O7 1.997867 1_555
O13 Pd2 2.015520 1_555
O13 Pb1 2.477685 1_455
O13 Pb0 2.520588 1_554
O14 O4 1.997867 1_555
O14 Pd1 2.015520 1_555
O14 Pb2 2.477685 1_555
O14 Pb3 2.520588 1_555
O15 O5 1.997867 1_556
O15 Pd0 2.015520 1_555
O15 Pb3 2.477685 1_555
O15 Pb2 2.520588 1_556
O16 O6 1.997867 1_555
O16 Pd2 2.015520 1_555
O16 Pb2 2.477685 1_545
O16 Pb7 2.520588 1_555
O17 O7 1.997867 1_566
O17 Pd0 2.015520 1_555
O17 Pb7 2.477685 1_565
O17 Pb2 2.520588 1_556
O18 O4 1.997867 1_555
O18 Pd3 2.015520 1_555
O18 Pb4 2.477685 1_555
O18 Pb1 2.520588 1_555
O19 O5 1.997867 1_555
O19 Pd1 2.015520 1_555
O19 Pb1 2.477685 1_555
O19 Pb4 2.520588 1_554
O20 O6 1.997867 1_665
O20 Pd1 2.015520 1_555
O20 Pb6 2.477685 1_565
O20 Pb3 2.520588 1_555
O21 O7 1.997867 1_656
O21 Pd3 2.015520 1_555
O21 Pb3 2.477685 1_545
O21 Pb6 2.520588 1_556
O22 O4 1.997867 1_555
O22 Pd0 2.015520 1_555
O22 Pb0 2.477685 1_555
O22 Pb5 2.520588 1_555
O23 O5 1.997867 1_555
O23 Pd2 2.015520 1_555
O23 Pb5 2.477685 1_555
O23 Pb0 2.520588 1_554
