# generated using pymatgen
data_CaMn6O5F7
_symmetry_space_group_name_H-M   'P 1'
_cell_length_a   6.58599487
_cell_length_b   6.44206916
_cell_length_c   6.44156314
_cell_angle_alpha   63.51801096
_cell_angle_beta   79.36108952
_cell_angle_gamma   79.36309510
_symmetry_Int_Tables_number   1
_chemical_formula_structural   CaMn6O5F7
_chemical_formula_sum   'Ca1 Mn6 O5 F7'
_cell_volume   238.78805274
_cell_formula_units_Z   1
loop_
 _symmetry_equiv_pos_site_id
 _symmetry_equiv_pos_as_xyz
  1  'x, y, z'
loop_
 _atom_site_type_symbol
 _atom_site_label
 _atom_site_symmetry_multiplicity
 _atom_site_fract_x
 _atom_site_fract_y
 _atom_site_fract_z
 _atom_site_occupancy
  Ca  Ca0  1  0.83323400  0.40756400  0.92577100  1
  Mn  Mn0  1  0.83333500  0.89446500  0.43887800  1
  Mn  Mn1  1  0.71582600  0.40767800  0.44730100  1
  Mn  Mn2  1  0.33334500  0.69073300  0.64247600  1
  Mn  Mn3  1  0.19158900  0.28042400  0.35301900  1
  Mn  Mn4  1  0.47514900  0.98023600  0.05285900  1
  Mn  Mn5  1  0.95090300  0.88599400  0.92575400  1
  O  O0  1  0.64538800  0.64105600  0.59962500  1
  O  O1  1  0.92831700  0.20168300  0.31045600  1
  O  O2  1  0.73827400  0.02290600  0.13166400  1
  O  O3  1  0.02128100  0.73365200  0.69234400  1
  O  O4  1  0.33323500  0.97459500  0.35856400  1
  F  F0  1  0.65333700  0.06480000  0.72014900  1
  F  F1  1  0.33342500  0.38823300  0.94515900  1
  F  F2  1  0.28184800  0.87886800  0.90862600  1
  F  F3  1  0.38477300  0.42491000  0.45422500  1
  F  F4  1  0.66266600  0.64042200  0.08967700  1
  F  F5  1  0.00417100  0.24361500  0.69308200  1
  F  F6  1  0.01323700  0.61316800  0.26870200  1
loop_
_geom_bond_atom_site_label_1
_geom_bond_atom_site_label_2
_geom_bond_distance
_geom_bond_site_symmetry_2
Ca0 F5 2.231450 1_655
Ca0 F4 2.231455 1_556
Ca0 O2 2.371799 1_556
Ca0 O1 2.372104 1_556
Ca0 O0 2.379338 1_555
Ca0 O3 2.379801 1_655
Mn0 O1 1.948952 1_565
Mn0 O2 1.949030 1_565
Mn0 O0 2.008621 1_555
Mn0 O3 2.008860 1_655
Mn1 O0 2.080471 1_555
Mn1 O1 2.097308 1_555
Mn2 O4 1.925114 1_555
Mn2 O0 2.007143 1_555
Mn2 O3 2.007324 1_555
Mn3 O1 1.990772 1_455
Mn3 O4 2.006029 1_545
Mn4 O2 1.990337 1_565
Mn4 O4 2.005450 1_555
Mn5 O3 2.080690 1_655
Mn5 O2 2.097564 1_566
F0 Mn4 2.129147 1_546
F0 Mn1 2.177994 1_555
F0 Mn5 2.384545 1_545
F0 Mn0 2.528224 1_545
F1 Mn2 2.051955 1_555
F1 Mn3 2.442017 1_556
F1 Mn4 2.442938 1_546
F2 Mn4 2.048193 1_556
F2 Mn5 2.154932 1_455
F2 Mn2 2.451491 1_555
F3 Mn3 2.048112 1_555
F3 Mn1 2.155745 1_555
F3 Mn2 2.450276 1_555
F4 Mn1 2.168202 1_555
F4 Mn4 2.240690 1_555
F4 Mn5 2.469834 1_554
F5 Mn5 2.168362 1_445
F5 Mn3 2.241585 1_555
F5 Mn1 2.471201 1_455
F6 Mn3 2.130099 1_555
F6 Mn5 2.177978 1_454
F6 Mn1 2.383190 1_455
F6 Mn0 2.527588 1_455
