# generated using pymatgen
data_CaNdAl3O7
_symmetry_space_group_name_H-M   'P 1'
_cell_length_a   7.82002781
_cell_length_b   7.82002781
_cell_length_c   5.16375900
_cell_angle_alpha   90.00000000
_cell_angle_beta   90.00000000
_cell_angle_gamma   90.82324096
_symmetry_Int_Tables_number   1
_chemical_formula_structural   CaNdAl3O7
_chemical_formula_sum   'Ca2 Nd2 Al6 O14'
_cell_volume   315.74590686
_cell_formula_units_Z   2
loop_
 _symmetry_equiv_pos_site_id
 _symmetry_equiv_pos_as_xyz
  1  'x, y, z'
loop_
 _atom_site_type_symbol
 _atom_site_label
 _atom_site_symmetry_multiplicity
 _atom_site_fract_x
 _atom_site_fract_y
 _atom_site_fract_z
 _atom_site_occupancy
  Ca  Ca0  1  0.65972500  0.65972500  0.48390800  1
  Ca  Ca1  1  0.34027500  0.34027500  0.48390800  1
  Nd  Nd0  1  0.83658600  0.16341400  0.50947900  1
  Nd  Nd1  1  0.16341400  0.83658600  0.50947900  1
  Al  Al0  1  0.85463900  0.85463900  0.04083400  1
  Al  Al1  1  0.64165800  0.35834200  0.95758400  1
  Al  Al2  1  0.14536100  0.14536100  0.04083400  1
  Al  Al3  1  0.35834200  0.64165800  0.95758400  1
  Al  Al4  1  0.50000000  0.00000000  0.00417900  1
  Al  Al5  1  0.00000000  0.50000000  0.00417900  1
  O  O0  1  0.66333300  0.91389200  0.19950500  1
  O  O1  1  0.84036800  0.40712200  0.80382100  1
  O  O2  1  0.33666700  0.08610800  0.19950500  1
  O  O3  1  0.15963200  0.59287800  0.80382100  1
  O  O4  1  0.40712200  0.84036800  0.80382100  1
  O  O5  1  0.08610800  0.33666700  0.19950500  1
  O  O6  1  0.59287800  0.15963200  0.80382100  1
  O  O7  1  0.91389200  0.66333300  0.19950500  1
  O  O8  1  0.86305400  0.86305400  0.70241900  1
  O  O9  1  0.64504300  0.35495700  0.29486700  1
  O  O10  1  0.13694600  0.13694600  0.70241900  1
  O  O11  1  0.35495700  0.64504300  0.29486700  1
  O  O12  1  0.50000000  0.50000000  0.81116400  1
  O  O13  1  0.00000000  0.00000000  0.18899600  1
loop_
_geom_bond_atom_site_label_1
_geom_bond_atom_site_label_2
_geom_bond_distance
_geom_bond_site_symmetry_2
Ca0 O12 2.435386 1_555
Ca0 O7 2.471126 1_555
Ca0 O0 2.471126 1_555
Ca0 O8 2.501388 1_555
Ca0 O11 2.576490 1_555
Ca0 O9 2.576490 1_555
Ca0 O1 2.950716 1_555
Ca0 O4 2.950716 1_555
Ca1 O12 2.435386 1_555
Ca1 O2 2.471126 1_555
Ca1 O5 2.471126 1_555
Ca1 O10 2.501388 1_555
Ca1 O11 2.576490 1_555
Ca1 O9 2.576490 1_555
Ca1 O6 2.950716 1_555
Ca1 O3 2.950716 1_555
Nd0 O9 2.404127 1_555
Nd0 O1 2.437513 1_555
Nd0 O6 2.437513 1_555
Nd0 O13 2.460016 1_655
Nd0 O10 2.562496 1_655
Nd0 O8 2.562496 1_545
Nd0 O5 2.851158 1_655
Nd0 O0 2.851158 1_545
Nd1 O11 2.404127 1_555
Nd1 O4 2.437513 1_555
Nd1 O3 2.437513 1_555
Nd1 O13 2.460016 1_565
Nd1 O10 2.562496 1_565
Nd1 O8 2.562496 1_455
Nd1 O2 2.851158 1_565
Nd1 O7 2.851158 1_455
Al0 O8 1.749934 1_554
Al0 O13 1.769888 1_665
Al0 O0 1.773135 1_555
Al0 O7 1.773135 1_555
Al1 O9 1.742056 1_556
Al1 O12 1.749635 1_555
Al1 O6 1.781451 1_555
Al1 O1 1.781451 1_555
Al2 O10 1.749934 1_554
Al2 O13 1.769888 1_555
Al2 O2 1.773135 1_555
Al2 O5 1.773135 1_555
Al3 O11 1.742056 1_556
Al3 O12 1.749635 1_555
Al3 O3 1.781451 1_555
Al3 O4 1.781451 1_555
Al4 O0 1.768293 1_545
Al4 O2 1.768293 1_555
Al4 O4 1.769234 1_544
Al4 O6 1.769234 1_554
Al5 O7 1.768293 1_455
Al5 O5 1.768293 1_555
Al5 O1 1.769234 1_454
Al5 O3 1.769234 1_554
