# generated using pymatgen
data_CaY4(AgO3)4
_symmetry_space_group_name_H-M   'P 1'
_cell_length_a   6.27562943
_cell_length_b   7.28473288
_cell_length_c   7.01841200
_cell_angle_alpha   90.00000000
_cell_angle_beta   90.00000000
_cell_angle_gamma   87.21734303
_symmetry_Int_Tables_number   1
_chemical_formula_structural   CaY4(AgO3)4
_chemical_formula_sum   'Ca1 Y4 Ag4 O12'
_cell_volume   320.47738841
_cell_formula_units_Z   1
loop_
 _symmetry_equiv_pos_site_id
 _symmetry_equiv_pos_as_xyz
  1  'x, y, z'
loop_
 _atom_site_type_symbol
 _atom_site_label
 _atom_site_symmetry_multiplicity
 _atom_site_fract_x
 _atom_site_fract_y
 _atom_site_fract_z
 _atom_site_occupancy
  Ca  Ca0  1  0.05785600  0.79568400  0.25000000  1
  Y  Y0  1  0.92293300  0.94523200  0.75000000  1
  Y  Y1  1  0.49535100  0.52668100  0.25000000  1
  Y  Y2  1  0.57914300  0.44467100  0.75000000  1
  Y  Y3  1  0.91739600  0.18562300  0.25000000  1
  Ag  Ag0  1  0.04345100  0.48740300  0.53566200  1
  Ag  Ag1  1  0.47137600  0.98620200  0.49281500  1
  Ag  Ag2  1  0.47137600  0.98620200  0.00718500  1
  Ag  Ag3  1  0.04345100  0.48740300  0.96433800  1
  O  O0  1  0.74031800  0.37534700  0.45487200  1
  O  O1  1  0.14659700  0.03210300  0.49899200  1
  O  O2  1  0.79114600  0.94661600  0.05130400  1
  O  O3  1  0.35464600  0.57689800  0.95977500  1
  O  O4  1  0.35464600  0.57689800  0.54022500  1
  O  O5  1  0.79114600  0.94661600  0.44869600  1
  O  O6  1  0.14659700  0.03210300  0.00100800  1
  O  O7  1  0.74031800  0.37534700  0.04512800  1
  O  O8  1  0.14933000  0.42732200  0.25000000  1
  O  O9  1  0.56502600  0.11193600  0.75000000  1
  O  O10  1  0.42138600  0.83779200  0.25000000  1
  O  O11  1  0.85603500  0.64592200  0.75000000  1
loop_
_geom_bond_atom_site_label_1
_geom_bond_atom_site_label_2
_geom_bond_distance
_geom_bond_site_symmetry_2
Ca0 O10 2.316621 1_555
Ca0 O5 2.403424 1_455
Ca0 O2 2.403424 1_455
Ca0 O1 2.534417 1_565
Ca0 O6 2.534417 1_565
Ca0 O8 2.716746 1_555
Ag0 O4 2.088941 1_555
Ag0 O8 2.150447 1_555
Ag0 O0 2.181184 1_455
Ag0 O11 2.201797 1_455
Ag1 O5 2.037137 1_555
Ag1 O1 2.049816 1_565
Ag1 O10 2.050464 1_555
Ag1 O9 2.120083 1_565
Ag2 O2 2.037137 1_555
Ag2 O6 2.049816 1_565
Ag2 O10 2.050464 1_555
Ag2 O9 2.120083 1_564
Ag3 O3 2.088941 1_555
Ag3 O8 2.150447 1_556
Ag3 O7 2.181184 1_456
Ag3 O11 2.201797 1_455
O0 Y3 2.250214 1_555
O0 Y1 2.341290 1_555
O0 Y2 2.349239 1_555
O1 Y0 2.358053 1_445
O1 Y3 2.493455 1_455
O2 Y0 2.270496 1_554
O2 Y3 2.395376 1_565
O3 Y2 2.224540 1_555
O3 Y1 2.243035 1_556
O4 Y2 2.224540 1_555
O4 Y1 2.243035 1_555
O5 Y0 2.270496 1_555
O5 Y3 2.395376 1_565
O6 Y0 2.358053 1_444
O6 Y3 2.493455 1_455
O7 Y3 2.250214 1_555
O7 Y1 2.341290 1_555
O7 Y2 2.349239 1_554
O8 Y1 2.322049 1_555
O8 Y3 2.338272 1_455
O9 Y2 2.429798 1_555
O9 Y0 2.500968 1_545
O10 Y1 2.291224 1_555
O11 Y0 2.240368 1_555
O11 Y2 2.327270 1_555
