# generated using pymatgen
data_BaGd2NiO5
_symmetry_space_group_name_H-M   'P 1'
_cell_length_a   6.76244565
_cell_length_b   6.76244565
_cell_length_c   6.76244565
_cell_angle_alpha   147.05987757
_cell_angle_beta   128.52152994
_cell_angle_gamma   62.48066205
_symmetry_Int_Tables_number   1
_chemical_formula_structural   BaGd2NiO5
_chemical_formula_sum   'Ba1 Gd2 Ni1 O5'
_cell_volume   130.22008567
_cell_formula_units_Z   1
loop_
 _symmetry_equiv_pos_site_id
 _symmetry_equiv_pos_as_xyz
  1  'x, y, z'
loop_
 _atom_site_type_symbol
 _atom_site_label
 _atom_site_symmetry_multiplicity
 _atom_site_fract_x
 _atom_site_fract_y
 _atom_site_fract_z
 _atom_site_occupancy
  Ba  Ba0  1  0.50000000  0.00000000  0.50000000  1
  Gd  Gd0  1  0.79657000  0.79657000  0.00000000  1
  Gd  Gd1  1  0.20343000  0.20343000  0.00000000  1
  Ni  Ni0  1  0.00000000  0.50000000  0.50000000  1
  O  O0  1  0.09367200  0.35228800  0.74138500  1
  O  O1  1  0.90632800  0.64771200  0.25861500  1
  O  O2  1  0.38909700  0.64771200  0.74138500  1
  O  O3  1  0.61090300  0.35228800  0.25861500  1
  O  O4  1  0.00000000  0.00000000  0.00000000  1
loop_
_geom_bond_atom_site_label_1
_geom_bond_atom_site_label_2
_geom_bond_distance
_geom_bond_site_symmetry_2
Ba0 O4 2.936768 1_555
Ba0 O4 2.936768 1_656
Ba0 O2 2.983420 1_544
Ba0 O2 2.983420 1_555
Ba0 O3 2.983420 1_556
Ba0 O3 2.983420 1_545
Ba0 O1 2.983424 1_556
Ba0 O0 2.983424 1_544
Ba0 O1 2.983426 1_545
Ba0 O0 2.983426 1_555
Gd0 O1 2.295732 1_555
Gd0 O2 2.295734 1_554
Gd0 O4 2.352419 1_665
Gd0 O0 2.470034 1_654
Gd0 O0 2.470037 1_665
Gd0 O3 2.470039 1_554
Gd0 O3 2.470039 1_565
Gd1 O0 2.295732 1_554
Gd1 O3 2.295734 1_555
Gd1 O4 2.352419 1_555
Gd1 O1 2.470034 1_455
Gd1 O1 2.470037 1_444
Gd1 O2 2.470039 1_544
Gd1 O2 2.470039 1_555
Ni0 O4 1.917250 1_566
Ni0 O4 1.917250 1_555
Ni0 O2 2.219852 1_555
Ni0 O3 2.219852 1_455
Ni0 O1 2.219855 1_455
Ni0 O0 2.219855 1_555
