# generated using pymatgen
data_EuNb2O6
_symmetry_space_group_name_H-M   'P 1'
_cell_length_a   5.57931600
_cell_length_b   7.81055300
_cell_length_c   11.30373377
_cell_angle_alpha   89.74980580
_cell_angle_beta   90.00000000
_cell_angle_gamma   90.00000000
_symmetry_Int_Tables_number   1
_chemical_formula_structural   EuNb2O6
_chemical_formula_sum   'Eu4 Nb8 O24'
_cell_volume   492.58425171
_cell_formula_units_Z   4
loop_
 _symmetry_equiv_pos_site_id
 _symmetry_equiv_pos_as_xyz
  1  'x, y, z'
loop_
 _atom_site_type_symbol
 _atom_site_label
 _atom_site_symmetry_multiplicity
 _atom_site_fract_x
 _atom_site_fract_y
 _atom_site_fract_z
 _atom_site_occupancy
  Eu  Eu0  1  0.54097000  0.74959700  0.04114600  1
  Eu  Eu1  1  0.04097000  0.25040300  0.45885400  1
  Eu  Eu2  1  0.45903000  0.25040300  0.95885400  1
  Eu  Eu3  1  0.95903000  0.74959700  0.54114600  1
  Nb  Nb0  1  0.02844500  0.99047600  0.14364000  1
  Nb  Nb1  1  0.52844500  0.00952400  0.35636000  1
  Nb  Nb2  1  0.97155500  0.00952400  0.85636000  1
  Nb  Nb3  1  0.47155500  0.99047600  0.64364000  1
  Nb  Nb4  1  0.46254900  0.47956500  0.64256200  1
  Nb  Nb5  1  0.96254900  0.52043500  0.85743800  1
  Nb  Nb6  1  0.53745100  0.52043500  0.35743800  1
  Nb  Nb7  1  0.03745100  0.47956500  0.14256200  1
  O  O0  1  0.22637600  0.96314600  0.97424500  1
  O  O1  1  0.72637600  0.03685400  0.52575500  1
  O  O2  1  0.77362400  0.03685400  0.02575500  1
  O  O3  1  0.27362400  0.96314600  0.47424500  1
  O  O4  1  0.27398100  0.53769000  0.47393600  1
  O  O5  1  0.77398100  0.46231000  0.02606400  1
  O  O6  1  0.72601900  0.46231000  0.52606400  1
  O  O7  1  0.22601900  0.53769000  0.97393600  1
  O  O8  1  0.37118700  0.94580300  0.21015800  1
  O  O9  1  0.87118700  0.05419700  0.28984200  1
  O  O10  1  0.62881300  0.05419700  0.78984200  1
  O  O11  1  0.12881300  0.94580300  0.71015800  1
  O  O12  1  0.12904900  0.55250400  0.70910300  1
  O  O13  1  0.62904900  0.44749600  0.79089700  1
  O  O14  1  0.87095100  0.44749600  0.29089700  1
  O  O15  1  0.37095100  0.55250400  0.20910300  1
  O  O16  1  0.95837000  0.74760500  0.14627500  1
  O  O17  1  0.45837000  0.25239500  0.35372500  1
  O  O18  1  0.04163000  0.25239500  0.85372500  1
  O  O19  1  0.54163000  0.74760500  0.64627500  1
  O  O20  1  0.14835400  0.24699400  0.12626500  1
  O  O21  1  0.64835400  0.75300600  0.37373500  1
  O  O22  1  0.85164600  0.75300600  0.87373500  1
  O  O23  1  0.35164600  0.24699400  0.62626500  1
loop_
_geom_bond_atom_site_label_1
_geom_bond_atom_site_label_2
_geom_bond_distance
_geom_bond_site_symmetry_2
Eu0 O7 2.532853 1_554
Eu0 O0 2.534497 1_554
Eu0 O22 2.566294 1_554
Eu0 O2 2.597248 1_565
Eu0 O5 2.599513 1_555
Eu0 O16 2.614497 1_555
Eu0 O15 2.616969 1_555
Eu0 O8 2.630830 1_555
Eu1 O6 2.532853 1_455
Eu1 O1 2.534497 1_455
Eu1 O23 2.566294 1_555
Eu1 O3 2.597248 1_545
Eu1 O4 2.599513 1_555
Eu1 O17 2.614497 1_555
Eu1 O14 2.616969 1_455
Eu1 O9 2.630830 1_455
Eu2 O5 2.532853 1_556
Eu2 O2 2.534497 1_556
Eu2 O20 2.566294 1_556
Eu2 O0 2.597248 1_545
Eu2 O7 2.599513 1_555
Eu2 O18 2.614497 1_555
Eu2 O13 2.616969 1_555
Eu2 O10 2.630830 1_555
Eu3 O4 2.532853 1_655
Eu3 O3 2.534497 1_655
Eu3 O21 2.566294 1_555
Eu3 O1 2.597248 1_565
Eu3 O6 2.599513 1_555
Eu3 O19 2.614497 1_555
Eu3 O12 2.616969 1_655
Eu3 O11 2.630830 1_655
Nb0 O16 1.936930 1_455
Nb0 O9 1.938010 1_465
Nb0 O2 1.980902 1_465
Nb0 O8 2.083644 1_555
Nb0 O20 2.120593 1_565
Nb0 O0 2.221509 1_554
Nb1 O17 1.936930 1_555
Nb1 O8 1.938010 1_545
Nb1 O3 1.980902 1_545
Nb1 O9 2.083644 1_555
Nb1 O21 2.120593 1_545
Nb1 O1 2.221509 1_555
Nb2 O18 1.936930 1_655
Nb2 O11 1.938010 1_645
Nb2 O0 1.980902 1_645
Nb2 O10 2.083644 1_555
Nb2 O22 2.120593 1_545
Nb2 O2 2.221509 1_556
Nb3 O19 1.936930 1_555
Nb3 O10 1.938010 1_565
Nb3 O1 1.980902 1_565
Nb3 O11 2.083644 1_555
Nb3 O23 2.120593 1_565
Nb3 O3 2.221509 1_555
Nb4 O23 1.928582 1_555
Nb4 O13 1.932223 1_555
Nb4 O6 1.978557 1_555
Nb4 O12 2.087164 1_555
Nb4 O19 2.140120 1_555
Nb4 O4 2.222308 1_555
Nb5 O22 1.928582 1_555
Nb5 O12 1.932223 1_655
Nb5 O7 1.978557 1_655
Nb5 O13 2.087164 1_555
Nb5 O18 2.140120 1_655
Nb5 O5 2.222308 1_556
Nb6 O21 1.928582 1_555
Nb6 O15 1.932223 1_555
Nb6 O4 1.978557 1_555
Nb6 O14 2.087164 1_555
Nb6 O17 2.140120 1_555
Nb6 O6 2.222308 1_555
Nb7 O20 1.928582 1_555
Nb7 O14 1.932223 1_455
Nb7 O5 1.978557 1_455
Nb7 O15 2.087164 1_555
Nb7 O16 2.140120 1_455
Nb7 O7 2.222308 1_554
