# generated using pymatgen
data_Na2LiFePCO7
_symmetry_space_group_name_H-M   'P 1'
_cell_length_a   5.16067700
_cell_length_b   6.65493372
_cell_length_c   8.86076631
_cell_angle_alpha   89.02148639
_cell_angle_beta   87.95226420
_cell_angle_gamma   89.86051704
_symmetry_Int_Tables_number   1
_chemical_formula_structural   Na2LiFePCO7
_chemical_formula_sum   'Na4 Li2 Fe2 P2 C2 O14'
_cell_volume   304.07464361
_cell_formula_units_Z   2
loop_
 _symmetry_equiv_pos_site_id
 _symmetry_equiv_pos_as_xyz
  1  'x, y, z'
loop_
 _atom_site_type_symbol
 _atom_site_label
 _atom_site_symmetry_multiplicity
 _atom_site_fract_x
 _atom_site_fract_y
 _atom_site_fract_z
 _atom_site_occupancy
  Na  Na0  1  0.75954000  0.73871800  0.08282100  1
  Na  Na1  1  0.25249000  0.00025200  0.26045100  1
  Na  Na2  1  0.75018000  0.49515500  0.73973700  1
  Na  Na3  1  0.74955000  0.00324100  0.73970700  1
  Li  Li0  1  0.23539600  0.52250900  0.28064600  1
  Li  Li1  1  0.24928400  0.26366000  0.91152000  1
  Fe  Fe0  1  0.78648900  0.25521600  0.34855700  1
  Fe  Fe1  1  0.22135400  0.74766900  0.64914200  1
  P  P0  1  0.71324600  0.74654800  0.41059800  1
  P  P1  1  0.29905000  0.25361300  0.58707700  1
  C  C0  1  0.71333200  0.25292300  0.05150700  1
  C  C1  1  0.27098800  0.73991300  0.94802100  1
  O  O0  1  0.28219900  0.72738300  0.09384000  1
  O  O1  1  0.95743000  0.24864600  0.08494800  1
  O  O2  1  0.53434200  0.26557800  0.15920800  1
  O  O3  1  0.77786900  0.94071100  0.31536900  1
  O  O4  1  0.82552600  0.56841400  0.31610800  1
  O  O5  1  0.41124200  0.72500800  0.42945800  1
  O  O6  1  0.17245600  0.26915000  0.43120300  1
  O  O7  1  0.83339200  0.75210400  0.56742000  1
  O  O8  1  0.59935300  0.25198400  0.56298600  1
  O  O9  1  0.21934800  0.43184600  0.69272100  1
  O  O10  1  0.21317700  0.06121000  0.67855600  1
  O  O11  1  0.48199000  0.74726300  0.86283400  1
  O  O12  1  0.04849200  0.74561200  0.88262900  1
  O  O13  1  0.64228300  0.24567700  0.91293500  1
loop_
_geom_bond_atom_site_label_1
_geom_bond_atom_site_label_2
_geom_bond_distance
_geom_bond_site_symmetry_2
Na0 O12 2.276143 1_654
Na0 O4 2.375245 1_555
Na0 O11 2.459631 1_554
Na0 O0 2.463136 1_555
Na0 O3 2.484148 1_555
Na0 O0 2.703348 1_655
Na1 O0 2.361057 1_545
Na1 O6 2.388779 1_555
Na1 O2 2.429696 1_555
Na1 O5 2.501144 1_545
Na1 O3 2.511206 1_445
Na1 O1 2.745666 1_455
Na1 O3 2.797764 1_545
Na2 O13 2.297416 1_555
Na2 O7 2.303754 1_555
Na2 O8 2.420196 1_555
Na2 O11 2.421461 1_555
Na2 O9 2.478373 1_655
Na2 O12 2.641048 1_655
Na2 O9 2.819368 1_555
Na3 O13 2.298916 1_555
Na3 O7 2.312437 1_545
Na3 O8 2.405203 1_555
Na3 O11 2.416433 1_545
Na3 O10 2.464103 1_655
Na3 O12 2.641199 1_645
Na3 O10 2.863452 1_555
Li0 O5 2.128482 1_555
Li0 O0 2.133787 1_555
Li0 O4 2.149138 1_455
Li0 O6 2.150107 1_555
Li0 O2 2.528428 1_555
Li1 O13 2.031851 1_555
Li1 O1 2.114251 1_456
Li1 O9 2.231980 1_555
Li1 O10 2.496938 1_555
Fe0 O8 2.100173 1_555
Fe0 O4 2.108328 1_555
Fe0 O3 2.119330 1_545
Fe0 O6 2.149373 1_655
Fe0 O2 2.159762 1_555
Fe0 O1 2.468206 1_555
Fe1 O10 2.107355 1_565
Fe1 O9 2.130446 1_555
Fe1 O7 2.153231 1_455
Fe1 O5 2.155264 1_555
Fe1 O12 2.223384 1_555
Fe1 O11 2.361409 1_555
C0 O13 1.295636 1_554
C0 O1 1.304491 1_555
C0 O2 1.307829 1_555
C1 O0 1.296680 1_556
C1 O11 1.303127 1_555
C1 O12 1.304678 1_555
O3 P0 1.561282 1_555
O4 P0 1.561400 1_555
O5 P0 1.568182 1_555
O6 P1 1.550611 1_555
O7 P0 1.542768 1_555
O8 P1 1.556861 1_555
O9 P1 1.568558 1_555
O10 P1 1.560309 1_555
