# generated using pymatgen
data_BaMg6Fe
_symmetry_space_group_name_H-M   'P 1'
_cell_length_a   7.75167201
_cell_length_b   7.75167201
_cell_length_c   4.94101300
_cell_angle_alpha   90.00000000
_cell_angle_beta   90.00000000
_cell_angle_gamma   133.69526870
_symmetry_Int_Tables_number   1
_chemical_formula_structural   BaMg6Fe
_chemical_formula_sum   'Ba1 Mg6 Fe1'
_cell_volume   214.66419077
_cell_formula_units_Z   1
loop_
 _symmetry_equiv_pos_site_id
 _symmetry_equiv_pos_as_xyz
  1  'x, y, z'
loop_
 _atom_site_type_symbol
 _atom_site_label
 _atom_site_symmetry_multiplicity
 _atom_site_fract_x
 _atom_site_fract_y
 _atom_site_fract_z
 _atom_site_occupancy
  Ba  Ba0  1  0.29357800  0.70642200  0.50000000  1
  Mg  Mg0  1  0.32016100  0.20424900  0.50000000  1
  Mg  Mg1  1  0.79575100  0.67983900  0.50000000  1
  Mg  Mg2  1  0.16379900  0.31272000  0.00000000  1
  Mg  Mg3  1  0.68728000  0.83620100  0.00000000  1
  Mg  Mg4  1  0.71701900  0.28298100  0.00000000  1
  Mg  Mg5  1  0.11876900  0.88123100  0.00000000  1
  Fe  Fe0  1  0.90364100  0.09635900  0.50000000  1
loop_
_geom_bond_atom_site_label_1
_geom_bond_atom_site_label_2
_geom_bond_distance
_geom_bond_site_symmetry_2
Ba0 Fe0 3.427900 1_565
Ba0 Fe0 3.427900 1_455
Ba0 Mg2 3.491037 1_556
Ba0 Mg2 3.491037 1_555
Ba0 Mg3 3.491037 1_555
Ba0 Mg3 3.491037 1_556
Ba0 Mg5 3.508954 1_556
Ba0 Mg5 3.508954 1_555
Ba0 Mg0 3.719624 1_565
Ba0 Mg1 3.719624 1_455
Ba0 Mg4 4.072271 1_566
Ba0 Mg4 4.072271 1_565
Ba0 Mg4 4.072271 1_456
Ba0 Mg4 4.072271 1_455
Mg0 Mg5 3.067474 1_545
Mg0 Mg5 3.067474 1_546
Mg0 Mg2 3.112491 1_556
Mg0 Mg2 3.112491 1_555
Mg1 Mg5 3.067474 1_656
Mg1 Mg5 3.067474 1_655
Mg1 Mg3 3.112491 1_555
Mg1 Mg3 3.112491 1_556
Mg2 Mg3 2.904654 1_445
Mg2 Mg5 3.113869 1_545
Mg2 Mg3 3.190914 1_555
Mg2 Mg4 3.308240 1_455
Mg3 Mg5 3.113869 1_655
Mg3 Mg4 3.308240 1_565
Mg4 Mg5 3.354172 1_655
Mg4 Mg5 3.354172 1_545
Fe0 Mg1 2.719062 1_545
Fe0 Mg0 2.719062 1_655
Fe0 Mg3 2.882724 1_545
Fe0 Mg3 2.882724 1_546
Fe0 Mg2 2.882724 1_655
Fe0 Mg2 2.882724 1_656
Fe0 Mg4 3.630472 1_556
Fe0 Mg4 3.630472 1_555
