# generated using pymatgen
data_Na2PdO6
_symmetry_space_group_name_H-M   'P 1'
_cell_length_a   5.99849160
_cell_length_b   5.99849160
_cell_length_c   3.69538100
_cell_angle_alpha   90.00000000
_cell_angle_beta   90.00000000
_cell_angle_gamma   119.99999564
_symmetry_Int_Tables_number   1
_chemical_formula_structural   Na2PdO6
_chemical_formula_sum   'Na2 Pd1 O6'
_cell_volume   115.15266226
_cell_formula_units_Z   1
loop_
 _symmetry_equiv_pos_site_id
 _symmetry_equiv_pos_as_xyz
  1  'x, y, z'
loop_
 _atom_site_type_symbol
 _atom_site_label
 _atom_site_symmetry_multiplicity
 _atom_site_fract_x
 _atom_site_fract_y
 _atom_site_fract_z
 _atom_site_occupancy
  Na  Na0  1  0.33333300  0.66666700  0.00000000  1
  Na  Na1  1  0.66666700  0.33333300  0.00000000  1
  Pd  Pd0  1  0.00000000  0.00000000  0.00000000  1
  O  O0  1  0.72657400  0.00000000  0.69638700  1
  O  O1  1  0.27342600  0.27342600  0.69638700  1
  O  O2  1  0.00000000  0.72657400  0.69638700  1
  O  O3  1  0.27342600  0.00000000  0.30361300  1
  O  O4  1  0.72657400  0.72657400  0.30361300  1
  O  O5  1  0.00000000  0.27342600  0.30361300  1
loop_
_geom_bond_atom_site_label_1
_geom_bond_atom_site_label_2
_geom_bond_distance
_geom_bond_site_symmetry_2
Na0 O3 2.470717 1_565
Na0 O2 2.470717 1_554
Na0 O5 2.470721 1_555
Na0 O0 2.470721 1_564
Na0 O4 2.470723 1_555
Na0 O1 2.470723 1_554
Na1 O5 2.470717 1_655
Na1 O0 2.470717 1_554
Na1 O2 2.470721 1_654
Na1 O3 2.470721 1_555
Na1 O4 2.470723 1_555
Na1 O1 2.470723 1_554
O0 Pd0 1.987178 1_656
O1 Pd0 1.987178 1_556
O2 Pd0 1.987178 1_566
O3 Pd0 1.987178 1_555
O4 Pd0 1.987178 1_665
O5 Pd0 1.987178 1_555
