# generated using pymatgen
data_TiZn2SbO6
_symmetry_space_group_name_H-M   'P 1'
_cell_length_a   7.86177000
_cell_length_b   5.29643900
_cell_length_c   5.34563952
_cell_angle_alpha   88.86624839
_cell_angle_beta   90.00000000
_cell_angle_gamma   90.00000000
_symmetry_Int_Tables_number   1
_chemical_formula_structural   TiZn2SbO6
_chemical_formula_sum   'Ti2 Zn4 Sb2 O12'
_cell_volume   222.54556686
_cell_formula_units_Z   2
loop_
 _symmetry_equiv_pos_site_id
 _symmetry_equiv_pos_as_xyz
  1  'x, y, z'
loop_
 _atom_site_type_symbol
 _atom_site_label
 _atom_site_symmetry_multiplicity
 _atom_site_fract_x
 _atom_site_fract_y
 _atom_site_fract_z
 _atom_site_occupancy
  Ti  Ti0  1  0.50000000  0.50000000  0.00000000  1
  Ti  Ti1  1  0.00000000  0.50000000  0.00000000  1
  Zn  Zn0  1  0.75000000  0.49761400  0.54574300  1
  Zn  Zn1  1  0.25000000  0.50238600  0.45425700  1
  Zn  Zn2  1  0.75000000  0.98505500  0.02111300  1
  Zn  Zn3  1  0.25000000  0.01494500  0.97888700  1
  Sb  Sb0  1  0.50000000  0.00000000  0.50000000  1
  Sb  Sb1  1  0.00000000  0.00000000  0.50000000  1
  O  O0  1  0.43188600  0.65792700  0.68120600  1
  O  O1  1  0.06916100  0.81677000  0.16809400  1
  O  O2  1  0.93188600  0.34207300  0.31879400  1
  O  O3  1  0.56916100  0.18323000  0.83190600  1
  O  O4  1  0.43083900  0.81677000  0.16809400  1
  O  O5  1  0.93083900  0.18323000  0.83190600  1
  O  O6  1  0.25000000  0.12152100  0.58388700  1
  O  O7  1  0.06811400  0.65792700  0.68120600  1
  O  O8  1  0.75000000  0.61895100  0.92145000  1
  O  O9  1  0.56811400  0.34207300  0.31879400  1
  O  O10  1  0.75000000  0.87847900  0.41611300  1
  O  O11  1  0.25000000  0.38104900  0.07855000  1
loop_
_geom_bond_atom_site_label_1
_geom_bond_atom_site_label_2
_geom_bond_distance
_geom_bond_site_symmetry_2
O0 Ti0 1.958099 1_556
O0 Zn1 2.057860 1_555
O0 Sb0 2.106684 1_565
O1 Ti1 1.994388 1_555
O1 Zn3 2.025824 1_564
O1 Sb1 2.110343 1_565
O2 Ti1 1.958099 1_655
O2 Zn0 2.057860 1_555
O2 Sb1 2.106684 1_655
O3 Ti0 1.994388 1_556
O3 Zn2 2.025824 1_546
O3 Sb0 2.110343 1_555
O4 Ti0 1.994388 1_555
O4 Zn3 2.025824 1_564
O4 Sb0 2.110343 1_565
O5 Ti1 1.994388 1_656
O5 Zn2 2.025824 1_546
O5 Sb1 2.110343 1_655
O6 Sb0 2.118899 1_555
O6 Sb1 2.118899 1_555
O6 Zn1 2.119925 1_555
O6 Zn3 2.174859 1_555
O7 Ti1 1.958099 1_556
O7 Zn1 2.057860 1_555
O7 Sb1 2.106684 1_565
O8 Zn2 2.021045 1_556
O8 Ti1 2.103743 1_656
O8 Ti0 2.103743 1_556
O8 Zn0 2.120785 1_555
O9 Ti0 1.958099 1_555
O9 Zn0 2.057860 1_555
O9 Sb0 2.106684 1_555
O10 Sb0 2.118899 1_565
O10 Sb1 2.118899 1_665
O10 Zn0 2.119925 1_555
O10 Zn2 2.174859 1_555
O11 Zn3 2.021045 1_554
O11 Ti1 2.103743 1_555
O11 Ti0 2.103743 1_555
O11 Zn1 2.120785 1_555
