# generated using pymatgen
data_U2Ta6O19
_symmetry_space_group_name_H-M   'P 1'
_cell_length_a   6.37232137
_cell_length_b   6.37232137
_cell_length_c   20.09228600
_cell_angle_alpha   90.00000000
_cell_angle_beta   90.00000000
_cell_angle_gamma   119.99999341
_symmetry_Int_Tables_number   1
_chemical_formula_structural   U2Ta6O19
_chemical_formula_sum   'U4 Ta12 O38'
_cell_volume   706.57025632
_cell_formula_units_Z   2
loop_
 _symmetry_equiv_pos_site_id
 _symmetry_equiv_pos_as_xyz
  1  'x, y, z'
loop_
 _atom_site_type_symbol
 _atom_site_label
 _atom_site_symmetry_multiplicity
 _atom_site_fract_x
 _atom_site_fract_y
 _atom_site_fract_z
 _atom_site_occupancy
  U  U0  1  0.33333300  0.66666700  0.50000000  1
  U  U1  1  0.66666700  0.33333300  0.00000000  1
  U  U2  1  0.66666700  0.33333300  0.50000000  1
  U  U3  1  0.33333300  0.66666700  0.00000000  1
  Ta  Ta0  1  0.64860300  0.64860300  0.84450000  1
  Ta  Ta1  1  0.35139700  0.00000000  0.84450000  1
  Ta  Ta2  1  0.00000000  0.35139700  0.84450000  1
  Ta  Ta3  1  0.00000000  0.64860300  0.34450000  1
  Ta  Ta4  1  0.35139700  0.00000000  0.65550000  1
  Ta  Ta5  1  0.35139700  0.35139700  0.34450000  1
  Ta  Ta6  1  0.64860300  0.00000000  0.34450000  1
  Ta  Ta7  1  0.35139700  0.35139700  0.15550000  1
  Ta  Ta8  1  0.00000000  0.64860300  0.15550000  1
  Ta  Ta9  1  0.00000000  0.35139700  0.65550000  1
  Ta  Ta10  1  0.64860300  0.64860300  0.65550000  1
  Ta  Ta11  1  0.64860300  0.00000000  0.15550000  1
  O  O0  1  0.66666700  0.33333300  0.14477100  1
  O  O1  1  0.33333300  0.66666700  0.64477100  1
  O  O2  1  0.33333300  0.66666700  0.35522900  1
  O  O3  1  0.66666700  0.33333300  0.85522900  1
  O  O4  1  0.33333300  0.66666700  0.85522900  1
  O  O5  1  0.66666700  0.33333300  0.35522900  1
  O  O6  1  0.66666700  0.33333300  0.64477100  1
  O  O7  1  0.33333300  0.66666700  0.14477100  1
  O  O8  1  0.40070400  0.00000000  0.75000000  1
  O  O9  1  0.40070400  0.40070400  0.25000000  1
  O  O10  1  0.00000000  0.59929600  0.25000000  1
  O  O11  1  0.00000000  0.40070400  0.75000000  1
  O  O12  1  0.59929600  0.59929600  0.75000000  1
  O  O13  1  0.59929600  0.00000000  0.25000000  1
  O  O14  1  0.61543600  0.61543600  0.94563600  1
  O  O15  1  0.38456400  0.00000000  0.94563600  1
  O  O16  1  0.00000000  0.24000800  0.15510100  1
  O  O17  1  0.75999200  0.00000000  0.65510100  1
  O  O18  1  0.24000800  0.24000800  0.65510100  1
  O  O19  1  0.75999200  0.75999200  0.15510100  1
  O  O20  1  0.24000800  0.00000000  0.15510100  1
  O  O21  1  0.75999200  0.75999200  0.34489900  1
  O  O22  1  0.00000000  0.24000800  0.34489900  1
  O  O23  1  0.00000000  0.75999200  0.65510100  1
  O  O24  1  0.24000800  0.00000000  0.34489900  1
  O  O25  1  0.75999200  0.00000000  0.84489900  1
  O  O26  1  0.24000800  0.24000800  0.84489900  1
  O  O27  1  0.00000000  0.75999200  0.84489900  1
  O  O28  1  0.61543600  0.00000000  0.05436400  1
  O  O29  1  0.61543600  0.61543600  0.55436400  1
  O  O30  1  0.00000000  0.38456400  0.55436400  1
  O  O31  1  0.00000000  0.61543600  0.05436400  1
  O  O32  1  0.38456400  0.38456400  0.05436400  1
  O  O33  1  0.61543600  0.00000000  0.44563600  1
  O  O34  1  0.38456400  0.38456400  0.44563600  1
  O  O35  1  0.38456400  0.00000000  0.55436400  1
  O  O36  1  0.00000000  0.61543600  0.44563600  1
  O  O37  1  0.00000000  0.38456400  0.94563600  1
loop_
_geom_bond_atom_site_label_1
_geom_bond_atom_site_label_2
_geom_bond_distance
_geom_bond_site_symmetry_2
O0 Ta11 2.080153 1_555
O0 Ta8 2.080156 1_655
O0 Ta7 2.080160 1_555
O1 Ta4 2.080153 1_565
O1 Ta9 2.080156 1_555
O1 Ta10 2.080160 1_555
O2 Ta3 2.080153 1_555
O2 Ta6 2.080156 1_565
O2 Ta5 2.080160 1_555
O3 Ta2 2.080153 1_655
O3 Ta1 2.080156 1_555
O3 Ta0 2.080160 1_555
O4 Ta1 2.080153 1_565
O4 Ta2 2.080156 1_555
O4 Ta0 2.080160 1_555
O5 Ta6 2.080153 1_555
O5 Ta3 2.080156 1_655
O5 Ta5 2.080160 1_555
O6 Ta9 2.080153 1_655
O6 Ta4 2.080156 1_555
O6 Ta10 2.080160 1_555
O7 Ta8 2.080153 1_555
O7 Ta11 2.080156 1_565
O7 Ta7 2.080160 1_555
O8 Ta1 1.924542 1_555
O8 Ta4 1.924542 1_555
O9 Ta5 1.924542 1_555
O9 Ta7 1.924542 1_555
O10 Ta3 1.924542 1_555
O10 Ta8 1.924542 1_555
O11 Ta2 1.924542 1_555
O11 Ta9 1.924542 1_555
O12 Ta0 1.924542 1_555
O12 Ta10 1.924542 1_555
O13 Ta6 1.924542 1_555
O13 Ta11 1.924542 1_555
O14 Ta0 2.043015 1_555
O14 U3 2.262322 1_556
O14 U1 2.262322 1_556
O15 Ta1 2.043015 1_555
O15 U3 2.262316 1_546
O15 U1 2.262319 1_556
O16 Ta7 1.982060 1_555
O16 Ta11 1.982060 1_455
O17 Ta10 1.982060 1_545
O17 Ta9 1.982060 1_655
O18 Ta4 1.982060 1_555
O18 Ta9 1.982060 1_555
O19 Ta11 1.982060 1_565
O19 Ta8 1.982060 1_655
O20 Ta7 1.982060 1_555
O20 Ta8 1.982060 1_545
O21 Ta3 1.982060 1_655
O21 Ta6 1.982060 1_565
O22 Ta5 1.982060 1_555
O22 Ta6 1.982060 1_455
O23 Ta10 1.982060 1_455
O23 Ta4 1.982060 1_565
O24 Ta5 1.982060 1_555
O24 Ta3 1.982060 1_545
O25 Ta0 1.982060 1_545
O25 Ta2 1.982060 1_655
O26 Ta1 1.982060 1_555
O26 Ta2 1.982060 1_555
O27 Ta0 1.982060 1_455
O27 Ta1 1.982060 1_565
O28 Ta11 2.043015 1_555
O28 U1 2.262316 1_555
O28 U3 2.262319 1_545
O29 Ta10 2.043015 1_555
O29 U0 2.262322 1_555
O29 U2 2.262322 1_555
O30 Ta9 2.043015 1_555
O30 U2 2.262316 1_455
O30 U0 2.262319 1_555
O31 Ta8 2.043015 1_555
O31 U3 2.262316 1_555
O31 U1 2.262319 1_455
O32 Ta7 2.043015 1_555
O32 U3 2.262322 1_555
O32 U1 2.262322 1_555
O33 Ta6 2.043015 1_555
O33 U2 2.262316 1_555
O33 U0 2.262319 1_545
O34 Ta5 2.043015 1_555
O34 U0 2.262322 1_555
O34 U2 2.262322 1_555
O35 Ta4 2.043015 1_555
O35 U0 2.262316 1_545
O35 U2 2.262319 1_555
O36 Ta3 2.043015 1_555
O36 U0 2.262316 1_555
O36 U2 2.262319 1_455
O37 Ta2 2.043015 1_555
O37 U1 2.262316 1_456
O37 U3 2.262319 1_556
