# generated using pymatgen
data_PrCo(CN)6
_symmetry_space_group_name_H-M   'P 1'
_cell_length_a   7.66842264
_cell_length_b   7.66842264
_cell_length_c   13.23042100
_cell_angle_alpha   90.00000000
_cell_angle_beta   90.00000000
_cell_angle_gamma   120.00000554
_symmetry_Int_Tables_number   1
_chemical_formula_structural   PrCo(CN)6
_chemical_formula_sum   'Pr2 Co2 C12 N12'
_cell_volume   673.77726555
_cell_formula_units_Z   2
loop_
 _symmetry_equiv_pos_site_id
 _symmetry_equiv_pos_as_xyz
  1  'x, y, z'
loop_
 _atom_site_type_symbol
 _atom_site_label
 _atom_site_symmetry_multiplicity
 _atom_site_fract_x
 _atom_site_fract_y
 _atom_site_fract_z
 _atom_site_occupancy
  Pr  Pr0  1  0.33333300  0.66666700  0.25000000  1
  Pr  Pr1  1  0.66666700  0.33333300  0.75000000  1
  Co  Co0  1  0.00000000  0.00000000  0.50000000  1
  Co  Co1  1  0.00000000  0.00000000  0.00000000  1
  C  C0  1  0.77081300  0.88540700  0.41862700  1
  C  C1  1  0.11459300  0.88540700  0.41862700  1
  C  C2  1  0.11459300  0.22918700  0.41862700  1
  C  C3  1  0.22918700  0.11459300  0.58137300  1
  C  C4  1  0.88540700  0.11459300  0.58137300  1
  C  C5  1  0.88540700  0.77081300  0.58137300  1
  C  C6  1  0.22918700  0.11459300  0.91862700  1
  C  C7  1  0.88540700  0.11459300  0.91862700  1
  C  C8  1  0.88540700  0.77081300  0.91862700  1
  C  C9  1  0.77081300  0.88540700  0.08137300  1
  C  C10  1  0.11459300  0.88540700  0.08137300  1
  C  C11  1  0.11459300  0.22918700  0.08137300  1
  N  N0  1  0.62770500  0.81385200  0.36700400  1
  N  N1  1  0.18614800  0.81385200  0.36700400  1
  N  N2  1  0.18614800  0.37229500  0.36700400  1
  N  N3  1  0.37229500  0.18614800  0.63299600  1
  N  N4  1  0.81385200  0.18614800  0.63299600  1
  N  N5  1  0.81385200  0.62770500  0.63299600  1
  N  N6  1  0.37229500  0.18614800  0.86700400  1
  N  N7  1  0.81385200  0.18614800  0.86700400  1
  N  N8  1  0.81385200  0.62770500  0.86700400  1
  N  N9  1  0.62770500  0.81385200  0.13299600  1
  N  N10  1  0.18614800  0.81385200  0.13299600  1
  N  N11  1  0.18614800  0.37229500  0.13299600  1
loop_
_geom_bond_atom_site_label_1
_geom_bond_atom_site_label_2
_geom_bond_distance
_geom_bond_site_symmetry_2
C0 N0 1.170349 1_555
C0 Co0 1.864317 1_665
C1 N1 1.170360 1_555
C1 Co0 1.864312 1_565
C2 N2 1.170349 1_555
C2 Co0 1.864317 1_555
C3 N3 1.170349 1_555
C3 Co0 1.864317 1_555
C4 N4 1.170360 1_555
C4 Co0 1.864312 1_655
C5 N5 1.170349 1_555
C5 Co0 1.864317 1_665
C6 N6 1.170349 1_555
C6 Co1 1.864317 1_556
C7 N7 1.170360 1_555
C7 Co1 1.864312 1_656
C8 N8 1.170349 1_555
C8 Co1 1.864317 1_666
C9 N9 1.170349 1_555
C9 Co1 1.864317 1_665
C10 N10 1.170360 1_555
C10 Co1 1.864312 1_565
C11 N11 1.170349 1_555
C11 Co1 1.864317 1_555
N0 Pr0 2.493617 1_555
N1 Pr0 2.493607 1_555
N2 Pr0 2.493617 1_555
N3 Pr1 2.493617 1_555
N4 Pr1 2.493607 1_555
N5 Pr1 2.493617 1_555
N6 Pr1 2.493617 1_555
N7 Pr1 2.493607 1_555
N8 Pr1 2.493617 1_555
N9 Pr0 2.493617 1_555
N10 Pr0 2.493607 1_555
N11 Pr0 2.493617 1_555
