# generated using pymatgen
data_Mg3Si4
_symmetry_space_group_name_H-M   'P 1'
_cell_length_a   5.87218300
_cell_length_b   7.10191953
_cell_length_c   7.61252784
_cell_angle_alpha   111.87919266
_cell_angle_beta   111.13972337
_cell_angle_gamma   93.81697222
_symmetry_Int_Tables_number   1
_chemical_formula_structural   Mg3Si4
_chemical_formula_sum   'Mg6 Si8'
_cell_volume   267.26902076
_cell_formula_units_Z   2
loop_
 _symmetry_equiv_pos_site_id
 _symmetry_equiv_pos_as_xyz
  1  'x, y, z'
loop_
 _atom_site_type_symbol
 _atom_site_label
 _atom_site_symmetry_multiplicity
 _atom_site_fract_x
 _atom_site_fract_y
 _atom_site_fract_z
 _atom_site_occupancy
  Mg  Mg0  1  0.73126100  0.49300500  0.05726100  1
  Mg  Mg1  1  0.32789600  0.78540300  0.06607500  1
  Mg  Mg2  1  0.74389600  0.29331600  0.37959100  1
  Mg  Mg3  1  0.73492400  0.66973300  0.75631600  1
  Mg  Mg4  1  0.93445700  0.94958700  0.53350100  1
  Mg  Mg5  1  0.16629300  0.21034600  0.06550900  1
  Si  Si0  1  0.28434500  0.45085800  0.68951300  1
  Si  Si1  1  0.89828200  0.93682600  0.15652400  1
  Si  Si2  1  0.50957100  0.62255500  0.35567800  1
  Si  Si3  1  0.14623800  0.59483800  0.43501100  1
  Si  Si4  1  0.32270800  0.15578200  0.42866400  1
  Si  Si5  1  0.43972200  0.92908200  0.59137500  1
  Si  Si6  1  0.95657700  0.34853400  0.77757700  1
  Si  Si7  1  0.55751900  0.06038500  0.96101500  1
loop_
_geom_bond_atom_site_label_1
_geom_bond_atom_site_label_2
_geom_bond_distance
_geom_bond_site_symmetry_2
Mg0 Si3 2.809166 1_655
Mg0 Si6 2.814405 1_554
Mg0 Si7 2.895393 1_554
Mg0 Si2 2.904589 1_555
Mg0 Si1 2.957469 1_555
Mg0 Si0 2.964074 1_554
Mg0 Mg1 3.254657 1_555
Mg1 Si2 2.775634 1_555
Mg1 Si7 2.804090 1_564
Mg1 Si0 2.870879 1_554
Mg1 Si1 3.009517 1_455
Mg1 Si4 3.032956 1_565
Mg1 Si6 3.125807 1_454
Mg1 Si1 3.186573 1_555
Mg1 Mg5 3.224340 1_565
Mg1 Mg3 3.257747 1_454
Mg2 Si6 2.685631 1_555
Mg2 Si7 2.720775 1_554
Mg2 Si4 2.797772 1_555
Mg2 Si2 2.821126 1_555
Mg2 Si3 2.877440 1_655
Mg2 Si1 2.885665 1_545
Mg2 Si0 3.008184 1_655
Mg3 Si1 2.672590 1_556
Mg3 Si2 2.726429 1_555
Mg3 Si6 2.728075 1_555
Mg3 Si0 2.751057 1_555
Mg3 Si5 2.924523 1_555
Mg3 Si7 3.089374 1_565
Mg4 Si6 2.711105 1_565
Mg4 Si1 2.766349 1_555
Mg4 Si2 2.810860 1_555
Mg4 Si3 2.852708 1_655
Mg4 Si5 2.860235 1_655
Mg4 Si5 3.093546 1_555
Mg4 Si4 3.117388 1_665
Mg5 Si6 2.664822 1_454
Mg5 Si4 2.765995 1_555
Mg5 Si7 2.838539 1_554
Mg5 Si1 2.848309 1_445
Mg5 Si2 2.948889 1_555
Mg5 Si3 3.152699 1_555
Si0 Si4 2.381070 1_555
Si0 Si6 2.406156 1_455
Si0 Si3 2.431134 1_555
Si1 Si7 2.459317 1_564
Si1 Si4 2.506060 1_665
Si2 Si5 2.421814 1_555
Si2 Si3 2.432614 1_555
Si3 Si5 2.427251 1_555
Si4 Si5 2.370272 1_545
Si5 Si7 2.412588 1_565
