# generated using pymatgen
data_Sb10Pb10(S8Cl)3
_symmetry_space_group_name_H-M   'P 1'
_cell_length_a   3.96070900
_cell_length_b   15.44575800
_cell_length_c   19.71948206
_cell_angle_alpha   84.79546477
_cell_angle_beta   90.00000000
_cell_angle_gamma   90.00000000
_symmetry_Int_Tables_number   1
_chemical_formula_structural   Sb10Pb10(S8Cl)3
_chemical_formula_sum   'Sb10 Pb10 S24 Cl3'
_cell_volume   1201.38848240
_cell_formula_units_Z   1
loop_
 _symmetry_equiv_pos_site_id
 _symmetry_equiv_pos_as_xyz
  1  'x, y, z'
loop_
 _atom_site_type_symbol
 _atom_site_label
 _atom_site_symmetry_multiplicity
 _atom_site_fract_x
 _atom_site_fract_y
 _atom_site_fract_z
 _atom_site_occupancy
  Sb  Sb0  1  0.00000000  0.47027100  0.18662300  1
  Sb  Sb1  1  0.00000000  0.52972900  0.81337700  1
  Sb  Sb2  1  0.00000000  0.92726200  0.58512700  1
  Sb  Sb3  1  0.00000000  0.07273800  0.41487300  1
  Sb  Sb4  1  0.00000000  0.37285700  0.01446900  1
  Sb  Sb5  1  0.00000000  0.62714300  0.98553100  1
  Sb  Sb6  1  0.00000000  0.96748800  0.21536300  1
  Sb  Sb7  1  0.00000000  0.03251200  0.78463700  1
  Sb  Sb8  1  0.00000000  0.82746400  0.38306500  1
  Sb  Sb9  1  0.00000000  0.17253600  0.61693500  1
  Pb  Pb0  1  0.50000000  0.71683300  0.14542300  1
  Pb  Pb1  1  0.50000000  0.28316700  0.85457700  1
  Pb  Pb2  1  0.50000000  0.79395900  0.74787700  1
  Pb  Pb3  1  0.50000000  0.20604100  0.25212300  1
  Pb  Pb4  1  0.50000000  0.69327600  0.55057500  1
  Pb  Pb5  1  0.50000000  0.30672400  0.44942500  1
  Pb  Pb6  1  0.50000000  0.12676000  0.05306000  1
  Pb  Pb7  1  0.50000000  0.87324000  0.94694000  1
  Pb  Pb8  1  0.50000000  0.58671900  0.34740000  1
  Pb  Pb9  1  0.50000000  0.41328100  0.65260000  1
  S  S0  1  0.00000000  0.76502600  0.04043500  1
  S  S1  1  0.00000000  0.23497400  0.95956500  1
  S  S2  1  0.00000000  0.87903000  0.83354900  1
  S  S3  1  0.00000000  0.12097000  0.16645100  1
  S  S4  1  0.00000000  0.77730000  0.64054400  1
  S  S5  1  0.00000000  0.22270000  0.35945600  1
  S  S6  1  0.50000000  0.56170400  0.08175000  1
  S  S7  1  0.50000000  0.43829600  0.91825000  1
  S  S8  1  0.00000000  0.68128900  0.44115300  1
  S  S9  1  0.00000000  0.31871100  0.55884700  1
  S  S10  1  0.50000000  0.41674100  0.26535900  1
  S  S11  1  0.50000000  0.58325900  0.73464100  1
  S  S12  1  0.00000000  0.61267900  0.23558900  1
  S  S13  1  0.00000000  0.38732100  0.76441100  1
  S  S14  1  0.50000000  0.30864000  0.09486500  1
  S  S15  1  0.50000000  0.69136000  0.90513500  1
  S  S16  1  0.50000000  0.93328400  0.13824200  1
  S  S17  1  0.50000000  0.06671600  0.86175800  1
  S  S18  1  0.50000000  0.87560900  0.49711500  1
  S  S19  1  0.50000000  0.12439100  0.50288500  1
  S  S20  1  0.50000000  0.78675800  0.30584900  1
  S  S21  1  0.50000000  0.21324200  0.69415100  1
  S  S22  1  0.50000000  0.96596000  0.67642700  1
  S  S23  1  0.50000000  0.03404000  0.32357300  1
  Cl  Cl0  1  0.00000000  0.45991200  0.41256000  1
  Cl  Cl1  1  0.00000000  0.54008800  0.58744000  1
  Cl  Cl2  1  0.00000000  0.00000000  0.00000000  1
loop_
_geom_bond_atom_site_label_1
_geom_bond_atom_site_label_2
_geom_bond_distance
_geom_bond_site_symmetry_2
Pb0 S6 2.804205 1_555
Pb0 S0 2.912472 1_555
Pb0 S0 2.912472 1_655
Pb0 S12 3.025274 1_555
Pb0 S12 3.025274 1_655
Pb1 S7 2.804205 1_555
Pb1 S1 2.912472 1_555
Pb1 S1 2.912472 1_655
Pb1 S13 3.025274 1_555
Pb1 S13 3.025274 1_655
Pb2 S22 2.892066 1_555
Pb2 S4 2.926877 1_555
Pb2 S4 2.926877 1_655
Pb2 S2 2.984157 1_555
Pb2 S2 2.984157 1_655
Pb3 S23 2.892066 1_555
Pb3 S5 2.926877 1_555
Pb3 S5 2.926877 1_655
Pb3 S3 2.984157 1_555
Pb3 S3 2.984157 1_655
Pb4 S18 2.916179 1_555
Pb4 S8 2.946935 1_655
Pb4 S8 2.946935 1_555
Pb4 S4 3.028437 1_655
Pb4 S4 3.028437 1_555
Pb5 S19 2.916179 1_555
Pb5 S9 2.946935 1_555
Pb5 S9 2.946935 1_655
Pb5 S5 3.028437 1_655
Pb5 S5 3.028437 1_555
Pb6 S3 2.982159 1_555
Pb6 S3 2.982159 1_655
Pb6 S14 2.998628 1_555
Pb6 S1 3.091213 1_654
Pb6 S1 3.091213 1_554
Pb7 S2 2.982159 1_555
Pb7 S2 2.982159 1_655
Pb7 S15 2.998628 1_555
Pb7 S0 3.091213 1_556
Pb7 S0 3.091213 1_656
Pb8 S12 2.963710 1_655
Pb8 S12 2.963710 1_555
Pb8 S20 3.123882 1_555
Pb8 S8 3.156471 1_555
Pb8 S8 3.156471 1_655
Pb8 S10 3.206370 1_555
Pb9 S13 2.963710 1_555
Pb9 S13 2.963710 1_655
Pb9 S21 3.123882 1_555
Pb9 S9 3.156471 1_555
Pb9 S9 3.156471 1_655
Pb9 S11 3.206370 1_555
S0 Sb5 2.475110 1_554
S1 Sb4 2.475110 1_556
S2 Sb7 2.476980 1_565
S3 Sb6 2.476980 1_545
S4 Sb2 2.469842 1_555
S5 Sb3 2.469842 1_555
S6 Sb5 2.862793 1_554
S6 Sb5 2.862793 1_654
S6 Sb0 3.108567 1_655
S6 Sb0 3.108567 1_555
S7 Sb4 2.862793 1_656
S7 Sb4 2.862793 1_556
S7 Sb1 3.108567 1_655
S7 Sb1 3.108567 1_555
S8 Sb8 2.437310 1_555
S9 Sb9 2.437310 1_555
S10 Sb0 2.604456 1_555
S10 Sb0 2.604456 1_655
S11 Sb1 2.604456 1_655
S11 Sb1 2.604456 1_555
S12 Sb0 2.481112 1_555
S13 Sb1 2.481112 1_555
S14 Sb4 2.670905 1_555
S14 Sb4 2.670905 1_655
S15 Sb5 2.670905 1_655
S15 Sb5 2.670905 1_555
S16 Sb6 2.580594 1_555
S16 Sb6 2.580594 1_655
S17 Sb7 2.580594 1_655
S17 Sb7 2.580594 1_555
S18 Sb2 2.796724 1_655
S18 Sb2 2.796724 1_555
S18 Sb8 3.136280 1_655
S18 Sb8 3.136280 1_555
S19 Sb3 2.796724 1_555
S19 Sb3 2.796724 1_655
S19 Sb9 3.136280 1_655
S19 Sb9 3.136280 1_555
S20 Sb8 2.609461 1_555
S20 Sb8 2.609461 1_655
S21 Sb9 2.609461 1_555
S21 Sb9 2.609461 1_655
S22 Sb2 2.777716 1_555
S22 Sb2 2.777716 1_655
S22 Sb7 3.151146 1_665
S22 Sb7 3.151146 1_565
S23 Sb3 2.777716 1_655
S23 Sb3 2.777716 1_555
S23 Sb6 3.151146 1_545
S23 Sb6 3.151146 1_645
Cl0 Pb8 2.992069 1_455
Cl0 Pb8 2.992069 1_555
Cl0 Pb5 3.120363 1_555
Cl0 Pb5 3.120363 1_455
Cl1 Pb9 2.992069 1_555
Cl1 Pb9 2.992069 1_455
Cl1 Pb4 3.120363 1_555
Cl1 Pb4 3.120363 1_455
Cl2 Pb7 3.036714 1_544
Cl2 Pb7 3.036714 1_444
Cl2 Pb6 3.036714 1_455
Cl2 Pb6 3.036714 1_555
