# generated using pymatgen
data_LuCd2
_symmetry_space_group_name_H-M   'P 1'
_cell_length_a   9.83955920
_cell_length_b   9.83955920
_cell_length_c   6.86136200
_cell_angle_alpha   90.00000000
_cell_angle_beta   90.00000000
_cell_angle_gamma   119.99999463
_symmetry_Int_Tables_number   1
_chemical_formula_structural   LuCd2
_chemical_formula_sum   'Lu8 Cd16'
_cell_volume   575.29721857
_cell_formula_units_Z   8
loop_
 _symmetry_equiv_pos_site_id
 _symmetry_equiv_pos_as_xyz
  1  'x, y, z'
loop_
 _atom_site_type_symbol
 _atom_site_label
 _atom_site_symmetry_multiplicity
 _atom_site_fract_x
 _atom_site_fract_y
 _atom_site_fract_z
 _atom_site_occupancy
  Lu  Lu0_0  1  0.00000000  0.00000000  0.00000000  1
  Lu  Lu0_1  1  0.00000000  0.00000000  0.50000000  1
  Lu  Lu0_2  1  0.00000000  0.50000000  0.00000000  1
  Lu  Lu0_3  1  0.00000000  0.50000000  0.50000000  1
  Lu  Lu0_4  1  0.50000000  0.00000000  0.00000000  1
  Lu  Lu0_5  1  0.50000000  0.00000000  0.50000000  1
  Lu  Lu0_6  1  0.50000000  0.50000000  0.00000000  1
  Lu  Lu0_7  1  0.50000000  0.50000000  0.50000000  1
  Cd  Cd0_0  1  0.33333350  0.16666650  0.25912300  1
  Cd  Cd0_1  1  0.33333350  0.16666650  0.75912300  1
  Cd  Cd0_2  1  0.33333350  0.66666650  0.25912300  1
  Cd  Cd0_3  1  0.33333350  0.66666650  0.75912300  1
  Cd  Cd0_4  1  0.83333350  0.16666650  0.25912300  1
  Cd  Cd0_5  1  0.83333350  0.16666650  0.75912300  1
  Cd  Cd0_6  1  0.83333350  0.66666650  0.25912300  1
  Cd  Cd0_7  1  0.83333350  0.66666650  0.75912300  1
  Cd  Cd1_0  1  0.16666650  0.33333350  0.24087700  1
  Cd  Cd1_1  1  0.16666650  0.33333350  0.74087700  1
  Cd  Cd1_2  1  0.16666650  0.83333350  0.24087700  1
  Cd  Cd1_3  1  0.16666650  0.83333350  0.74087700  1
  Cd  Cd1_4  1  0.66666650  0.33333350  0.24087700  1
  Cd  Cd1_5  1  0.66666650  0.33333350  0.74087700  1
  Cd  Cd1_6  1  0.66666650  0.83333350  0.24087700  1
  Cd  Cd1_7  1  0.66666650  0.83333350  0.74087700  1
loop_
_geom_bond_atom_site_label_1
_geom_bond_atom_site_label_2
_geom_bond_distance
_geom_bond_site_symmetry_2
Lu0_0 Lu0_1 3.430681 1_555
Lu0_0 Lu0_1 3.430681 1_554
Lu0_2 Lu0_3 3.430681 1_555
Lu0_2 Lu0_3 3.430681 1_554
Lu0_4 Lu0_5 3.430681 1_555
Lu0_4 Lu0_5 3.430681 1_554
Lu0_6 Lu0_7 3.430681 1_554
Lu0_6 Lu0_7 3.430681 1_555
Cd0_0 Cd1_4 2.843191 1_555
Cd0_0 Cd1_2 2.843191 1_545
Cd0_0 Cd1_0 2.843199 1_555
Cd0_0 Lu0_5 3.286278 1_555
Cd0_0 Lu0_1 3.286282 1_555
Cd0_0 Lu0_7 3.286282 1_555
Cd0_0 Lu0_4 3.350988 1_555
Cd0_0 Lu0_0 3.350992 1_555
Cd0_0 Lu0_6 3.350992 1_555
Cd0_0 Cd0_1 3.430681 1_555
Cd0_0 Cd0_1 3.430681 1_554
Cd0_1 Cd1_5 2.843191 1_555
Cd0_1 Cd1_3 2.843191 1_545
Cd0_1 Cd1_1 2.843199 1_555
Cd0_1 Lu0_4 3.286278 1_556
Cd0_1 Lu0_6 3.286282 1_556
Cd0_1 Lu0_0 3.286282 1_556
Cd0_1 Lu0_5 3.350988 1_555
Cd0_1 Lu0_1 3.350992 1_555
Cd0_1 Lu0_7 3.350992 1_555
Cd0_2 Cd1_0 2.843191 1_555
Cd0_2 Cd1_6 2.843191 1_555
Cd0_2 Cd1_2 2.843199 1_555
Cd0_2 Lu0_7 3.286278 1_555
Cd0_2 Lu0_5 3.286282 1_565
Cd0_2 Lu0_3 3.286282 1_555
Cd0_2 Lu0_6 3.350988 1_555
Cd0_2 Lu0_4 3.350992 1_565
Cd0_2 Lu0_2 3.350992 1_555
Cd0_2 Cd0_3 3.430681 1_555
Cd0_2 Cd0_3 3.430681 1_554
Cd0_3 Cd1_1 2.843191 1_555
Cd0_3 Cd1_7 2.843191 1_555
Cd0_3 Cd1_3 2.843199 1_555
Cd0_3 Lu0_6 3.286278 1_556
Cd0_3 Lu0_4 3.286282 1_566
Cd0_3 Lu0_2 3.286282 1_556
Cd0_3 Lu0_7 3.350988 1_555
Cd0_3 Lu0_5 3.350992 1_565
Cd0_3 Lu0_3 3.350992 1_555
Cd0_4 Cd1_6 2.843191 1_545
Cd0_4 Cd1_0 2.843191 1_655
Cd0_4 Cd1_4 2.843199 1_555
Cd0_4 Lu0_1 3.286278 1_655
Cd0_4 Lu0_3 3.286282 1_655
Cd0_4 Lu0_5 3.286282 1_555
Cd0_4 Lu0_0 3.350988 1_655
Cd0_4 Lu0_2 3.350992 1_655
Cd0_4 Lu0_4 3.350992 1_555
Cd0_4 Cd0_5 3.430681 1_555
Cd0_4 Cd0_5 3.430681 1_554
Cd0_5 Cd1_7 2.843191 1_545
Cd0_5 Cd1_1 2.843191 1_655
Cd0_5 Cd1_5 2.843199 1_555
Cd0_5 Lu0_0 3.286278 1_656
Cd0_5 Lu0_4 3.286282 1_556
Cd0_5 Lu0_2 3.286282 1_656
Cd0_5 Lu0_1 3.350988 1_655
Cd0_5 Lu0_5 3.350992 1_555
Cd0_5 Lu0_3 3.350992 1_655
Cd0_6 Cd1_2 2.843191 1_655
Cd0_6 Cd1_4 2.843191 1_555
Cd0_6 Cd1_6 2.843199 1_555
Cd0_6 Lu0_3 3.286278 1_655
Cd0_6 Lu0_1 3.286282 1_665
Cd0_6 Lu0_7 3.286282 1_555
Cd0_6 Lu0_2 3.350988 1_655
Cd0_6 Lu0_0 3.350992 1_665
Cd0_6 Lu0_6 3.350992 1_555
Cd0_6 Cd0_7 3.430681 1_555
Cd0_6 Cd0_7 3.430681 1_554
Cd0_7 Cd1_3 2.843191 1_655
Cd0_7 Cd1_5 2.843191 1_555
Cd0_7 Cd1_7 2.843199 1_555
Cd0_7 Lu0_2 3.286278 1_656
Cd0_7 Lu0_0 3.286282 1_666
Cd0_7 Lu0_6 3.286282 1_556
Cd0_7 Lu0_3 3.350988 1_655
Cd0_7 Lu0_1 3.350992 1_665
Cd0_7 Lu0_7 3.350992 1_555
Cd1_0 Lu0_2 3.286278 1_555
Cd1_0 Lu0_0 3.286282 1_555
Cd1_0 Lu0_6 3.286282 1_555
Cd1_0 Lu0_3 3.350988 1_555
Cd1_0 Lu0_1 3.350992 1_555
Cd1_0 Lu0_7 3.350992 1_555
Cd1_0 Cd1_1 3.430681 1_554
Cd1_0 Cd1_1 3.430681 1_555
Cd1_1 Lu0_3 3.286278 1_555
Cd1_1 Lu0_1 3.286282 1_555
Cd1_1 Lu0_7 3.286282 1_555
Cd1_1 Lu0_2 3.350988 1_556
Cd1_1 Lu0_0 3.350992 1_556
Cd1_1 Lu0_6 3.350992 1_556
Cd1_2 Lu0_0 3.286278 1_565
Cd1_2 Lu0_4 3.286282 1_565
Cd1_2 Lu0_2 3.286282 1_555
Cd1_2 Lu0_1 3.350988 1_565
Cd1_2 Lu0_5 3.350992 1_565
Cd1_2 Lu0_3 3.350992 1_555
Cd1_2 Cd1_3 3.430681 1_554
Cd1_2 Cd1_3 3.430681 1_555
Cd1_3 Lu0_1 3.286278 1_565
Cd1_3 Lu0_5 3.286282 1_565
Cd1_3 Lu0_3 3.286282 1_555
Cd1_3 Lu0_0 3.350988 1_566
Cd1_3 Lu0_4 3.350992 1_566
Cd1_3 Lu0_2 3.350992 1_556
Cd1_4 Lu0_6 3.286278 1_555
Cd1_4 Lu0_2 3.286282 1_655
Cd1_4 Lu0_4 3.286282 1_555
Cd1_4 Lu0_7 3.350988 1_555
Cd1_4 Lu0_3 3.350992 1_655
Cd1_4 Lu0_5 3.350992 1_555
Cd1_4 Cd1_5 3.430681 1_554
Cd1_4 Cd1_5 3.430681 1_555
Cd1_5 Lu0_7 3.286278 1_555
Cd1_5 Lu0_3 3.286282 1_655
Cd1_5 Lu0_5 3.286282 1_555
Cd1_5 Lu0_6 3.350988 1_556
Cd1_5 Lu0_2 3.350992 1_656
Cd1_5 Lu0_4 3.350992 1_556
Cd1_6 Lu0_4 3.286278 1_565
Cd1_6 Lu0_0 3.286282 1_665
Cd1_6 Lu0_6 3.286282 1_555
Cd1_6 Lu0_5 3.350988 1_565
Cd1_6 Lu0_1 3.350992 1_665
Cd1_6 Lu0_7 3.350992 1_555
Cd1_6 Cd1_7 3.430681 1_554
Cd1_6 Cd1_7 3.430681 1_555
Cd1_7 Lu0_5 3.286278 1_565
Cd1_7 Lu0_1 3.286282 1_665
Cd1_7 Lu0_7 3.286282 1_555
Cd1_7 Lu0_4 3.350988 1_566
Cd1_7 Lu0_0 3.350992 1_666
Cd1_7 Lu0_6 3.350992 1_556
