# generated using pymatgen
data_Sr3LaCuRuO8
_symmetry_space_group_name_H-M   'P 1'
_cell_length_a   6.86768822
_cell_length_b   6.86768822
_cell_length_c   5.60575900
_cell_angle_alpha   90.00000000
_cell_angle_beta   90.00000000
_cell_angle_gamma   131.93897872
_symmetry_Int_Tables_number   1
_chemical_formula_structural   Sr3LaCuRuO8
_chemical_formula_sum   'Sr3 La1 Cu1 Ru1 O8'
_cell_volume   196.67313619
_cell_formula_units_Z   1
loop_
 _symmetry_equiv_pos_site_id
 _symmetry_equiv_pos_as_xyz
  1  'x, y, z'
loop_
 _atom_site_type_symbol
 _atom_site_label
 _atom_site_symmetry_multiplicity
 _atom_site_fract_x
 _atom_site_fract_y
 _atom_site_fract_z
 _atom_site_occupancy
  Sr  Sr0  1  0.14122500  0.85877500  0.50000000  1
  Sr  Sr1  1  0.64294000  0.35706000  0.00000000  1
  Sr  Sr2  1  0.85842100  0.14157900  0.50000000  1
  La  La0  1  0.35748700  0.64251300  0.00000000  1
  Cu  Cu0  1  0.00206900  0.99793100  0.00000000  1
  Ru  Ru0  1  0.50415500  0.49584500  0.50000000  1
  O  O0  1  0.25377700  0.26070500  0.74902500  1
  O  O1  1  0.73929500  0.74622300  0.25097500  1
  O  O2  1  0.25377700  0.26070500  0.25097500  1
  O  O3  1  0.73929500  0.74622300  0.74902500  1
  O  O4  1  0.83373600  0.16626400  0.00000000  1
  O  O5  1  0.33715900  0.66284100  0.50000000  1
  O  O6  1  0.66187700  0.33812300  0.50000000  1
  O  O7  1  0.17478900  0.82521100  0.00000000  1
loop_
_geom_bond_atom_site_label_1
_geom_bond_atom_site_label_2
_geom_bond_distance
_geom_bond_site_symmetry_2
La0 O7 2.291931 1_555
La0 O2 2.620285 1_555
La0 O0 2.620285 1_554
La0 O1 2.620285 1_555
La0 O3 2.620285 1_554
La0 O4 2.812508 1_565
La0 O4 2.812508 1_455
La0 O5 2.814456 1_555
La0 O5 2.814456 1_554
Cu0 O3 2.013571 1_454
Cu0 O0 2.013571 1_564
Cu0 O1 2.013571 1_455
Cu0 O2 2.013571 1_565
Cu0 O4 2.111723 1_465
Cu0 O7 2.166758 1_555
O0 Ru0 1.949771 1_555
O0 Sr2 2.649727 1_455
O0 Sr1 2.682593 1_556
O0 Sr0 2.704374 1_545
O1 Ru0 1.949771 1_555
O1 Sr2 2.649727 1_565
O1 Sr1 2.682593 1_555
O1 Sr0 2.704374 1_655
O2 Ru0 1.949771 1_555
O2 Sr2 2.649727 1_455
O2 Sr1 2.682593 1_555
O2 Sr0 2.704374 1_545
O3 Ru0 1.949771 1_555
O3 Sr2 2.649727 1_565
O3 Sr1 2.682593 1_556
O3 Sr0 2.704374 1_655
O4 Sr1 2.393519 1_555
O4 Sr2 2.819934 1_555
O4 Sr2 2.819934 1_554
O5 Ru0 2.094950 1_555
O5 Sr0 2.457975 1_555
O5 Sr2 2.809372 1_455
O5 Sr2 2.809372 1_565
O6 Ru0 1.978609 1_555
O6 Sr2 2.465628 1_555
O6 Sr0 2.808656 1_655
O6 Sr0 2.808656 1_545
O6 Sr1 2.812929 1_556
O6 Sr1 2.812929 1_555
O7 Sr1 2.825077 1_565
O7 Sr1 2.825077 1_455
O7 Sr0 2.834329 1_554
O7 Sr0 2.834329 1_555
