# generated using pymatgen
data_MgFe8(O7F)2
_symmetry_space_group_name_H-M   'P 1'
_cell_length_a   7.93968809
_cell_length_b   7.17511269
_cell_length_c   5.80631368
_cell_angle_alpha   109.87278919
_cell_angle_beta   115.43663507
_cell_angle_gamma   78.95583701
_symmetry_Int_Tables_number   1
_chemical_formula_structural   MgFe8(O7F)2
_chemical_formula_sum   'Mg1 Fe8 O14 F2'
_cell_volume   280.51715386
_cell_formula_units_Z   1
loop_
 _symmetry_equiv_pos_site_id
 _symmetry_equiv_pos_as_xyz
  1  'x, y, z'
loop_
 _atom_site_type_symbol
 _atom_site_label
 _atom_site_symmetry_multiplicity
 _atom_site_fract_x
 _atom_site_fract_y
 _atom_site_fract_z
 _atom_site_occupancy
  Mg  Mg0  1  0.98939800  0.99331200  0.48118700  1
  Fe  Fe0  1  0.68365800  0.26983400  0.53086700  1
  Fe  Fe1  1  0.52537400  0.99986000  0.97468900  1
  Fe  Fe2  1  0.25290700  0.25143800  0.49728800  1
  Fe  Fe3  1  0.72305700  0.76152600  0.48812200  1
  Fe  Fe4  1  0.49312400  0.49879500  0.00863500  1
  Fe  Fe5  1  0.98856800  0.99614900  0.98440200  1
  Fe  Fe6  1  0.29408700  0.72298500  0.48538700  1
  Fe  Fe7  1  0.05159700  0.47805100  0.97328100  1
  O  O0  1  0.99094500  0.17834400  0.29789500  1
  O  O1  1  0.94384500  0.21183000  0.79931800  1
  O  O2  1  0.54804600  0.28859800  0.16358900  1
  O  O3  1  0.29605700  0.00521700  0.64123500  1
  O  O4  1  0.51648500  0.31329400  0.69667400  1
  O  O5  1  0.73625700  0.57343600  0.18673800  1
  O  O6  1  0.71834300  0.93597700  0.82089200  1
  O  O7  1  0.23636700  0.43776900  0.83106400  1
  O  O8  1  0.47510400  0.68575400  0.32732000  1
  O  O9  1  0.69597800  0.98705800  0.33397900  1
  O  O10  1  0.20335300  0.46924900  0.33367500  1
  O  O11  1  0.44225100  0.71441700  0.83806000  1
  O  O12  1  0.06709200  0.77609200  0.18123900  1
  O  O13  1  0.98839900  0.80624000  0.66781100  1
  F  F0  1  0.80306600  0.53162100  0.68668800  1
  F  F1  1  0.27182600  0.05759600  0.15091300  1
loop_
_geom_bond_atom_site_label_1
_geom_bond_atom_site_label_2
_geom_bond_distance
_geom_bond_site_symmetry_2
Mg0 O0 1.968108 1_565
Mg0 O13 1.994047 1_555
Mg0 O1 2.094936 1_565
Mg0 O9 2.112667 1_555
Mg0 O12 2.133523 1_655
Mg0 O3 2.209318 1_665
Fe0 O4 1.876386 1_555
Fe0 O9 1.968802 1_545
Fe0 O2 1.972906 1_555
Fe0 O1 2.053270 1_555
Fe1 O9 1.962254 1_556
Fe1 O2 1.988939 1_566
Fe1 O6 1.995710 1_555
Fe1 O3 2.015112 1_565
Fe1 O11 2.055006 1_555
Fe2 O4 1.960122 1_555
Fe2 O0 1.969262 1_455
Fe2 O7 1.987552 1_555
Fe2 O10 1.988062 1_555
Fe2 O3 2.112592 1_555
Fe3 O5 1.841825 1_555
Fe3 O8 1.878558 1_555
Fe3 O6 1.923890 1_555
Fe3 O13 1.942428 1_555
Fe3 O9 2.037632 1_555
Fe4 O5 1.840488 1_555
Fe4 O2 1.899421 1_555
Fe4 O7 1.907895 1_554
Fe4 O4 1.908362 1_554
Fe4 O8 1.926190 1_555
Fe4 O11 1.999074 1_554
Fe5 O0 1.839769 1_566
Fe5 O13 1.879218 1_555
Fe5 O6 2.004341 1_555
Fe5 O1 2.065954 1_565
Fe5 O12 2.103700 1_656
Fe6 O10 1.864540 1_555
Fe6 O11 1.889288 1_555
Fe6 O3 1.916781 1_565
Fe6 O8 1.949003 1_555
Fe6 O12 1.993077 1_555
Fe7 O7 1.906163 1_555
Fe7 O10 1.931163 1_556
Fe7 O1 1.993224 1_455
Fe7 O12 2.064917 1_556
F0 Fe0 2.008893 1_555
F0 Fe7 2.033252 1_655
F0 Fe3 2.171716 1_555
F1 Fe2 2.068698 1_555
F1 Fe5 2.099834 1_444
F1 Fe1 2.536308 1_544
