# generated using pymatgen
data_Ca3(CrN2)2
_symmetry_space_group_name_H-M   'P 1'
_cell_length_a   6.79220659
_cell_length_b   8.28451684
_cell_length_c   5.40157864
_cell_angle_alpha   90.00000163
_cell_angle_beta   92.17687209
_cell_angle_gamma   127.57899077
_symmetry_Int_Tables_number   1
_chemical_formula_structural   Ca3(CrN2)2
_chemical_formula_sum   'Ca6 Cr4 N8'
_cell_volume   240.60571536
_cell_formula_units_Z   2
loop_
 _symmetry_equiv_pos_site_id
 _symmetry_equiv_pos_as_xyz
  1  'x, y, z'
loop_
 _atom_site_type_symbol
 _atom_site_label
 _atom_site_symmetry_multiplicity
 _atom_site_fract_x
 _atom_site_fract_y
 _atom_site_fract_z
 _atom_site_occupancy
  Ca  Ca0  1  0.23555400  0.98484600  0.04111500  1
  Ca  Ca1  1  0.76444600  0.74929200  0.45888500  1
  Ca  Ca2  1  0.76444600  0.01515400  0.95888500  1
  Ca  Ca3  1  0.23555400  0.25070800  0.54111500  1
  Ca  Ca4  1  0.00000000  0.60004200  0.75000000  1
  Ca  Ca5  1  0.00000000  0.39995800  0.25000000  1
  Cr  Cr0  1  0.59012400  0.17037200  0.58371300  1
  Cr  Cr1  1  0.40987600  0.58024900  0.91628700  1
  Cr  Cr2  1  0.40987600  0.82962800  0.41628700  1
  Cr  Cr3  1  0.59012400  0.41975100  0.08371300  1
  N  N0  1  0.24372500  0.94534400  0.52544600  1
  N  N1  1  0.75627500  0.70161800  0.97455400  1
  N  N2  1  0.75627500  0.05465600  0.47455400  1
  N  N3  1  0.24372500  0.29838200  0.02544600  1
  N  N4  1  0.66990800  0.26686800  0.91183300  1
  N  N5  1  0.33009200  0.59696100  0.58816700  1
  N  N6  1  0.33009200  0.73313200  0.08816700  1
  N  N7  1  0.66990800  0.40303900  0.41183300  1
loop_
_geom_bond_atom_site_label_1
_geom_bond_atom_site_label_2
_geom_bond_distance
_geom_bond_site_symmetry_2
Ca0 N4 2.529710 1_564
Ca0 N6 2.538966 1_555
Ca0 N3 2.565491 1_565
Ca0 N1 2.612800 1_454
Ca0 N0 2.639233 1_555
Ca0 N0 2.811170 1_554
Ca1 N5 2.529712 1_555
Ca1 N7 2.538974 1_555
Ca1 N2 2.565483 1_565
Ca1 N0 2.612799 1_655
Ca1 N1 2.639234 1_554
Ca1 N1 2.811171 1_555
Ca2 N6 2.529710 1_546
Ca2 N4 2.538966 1_555
Ca2 N1 2.565491 1_545
Ca2 N3 2.612800 1_656
Ca2 N2 2.639233 1_555
Ca2 N2 2.811170 1_556
Ca3 N7 2.529712 1_555
Ca3 N5 2.538974 1_555
Ca3 N0 2.565483 1_545
Ca3 N2 2.612799 1_455
Ca3 N3 2.639234 1_556
Ca3 N3 2.811171 1_555
Ca4 N5 2.451589 1_555
Ca4 N4 2.451594 1_455
Ca4 N6 2.500556 1_556
Ca4 N7 2.500557 1_455
Ca4 N1 2.602209 1_455
Ca4 N0 2.602215 1_555
Ca5 N7 2.451589 1_455
Ca5 N6 2.451594 1_555
Ca5 N4 2.500556 1_454
Ca5 N5 2.500557 1_555
Ca5 N3 2.602209 1_555
Ca5 N2 2.602215 1_455
Cr0 N4 1.863508 1_555
Cr0 N7 1.906619 1_555
Cr0 N0 1.924586 1_545
Cr0 N2 1.977467 1_555
Cr1 N5 1.863508 1_555
Cr1 N6 1.906619 1_556
Cr1 N1 1.924590 1_555
Cr1 N3 1.977467 1_556
Cr2 N6 1.863508 1_555
Cr2 N5 1.906619 1_555
Cr2 N2 1.924586 1_565
Cr2 N0 1.977467 1_555
Cr3 N7 1.863508 1_555
Cr3 N4 1.906619 1_554
Cr3 N3 1.924590 1_555
Cr3 N1 1.977467 1_554
