# generated using pymatgen
data_TbSnGe
_symmetry_space_group_name_H-M   'P 1'
_cell_length_a   8.67429364
_cell_length_b   8.67429364
_cell_length_c   4.03472752
_cell_angle_alpha   90.00000000
_cell_angle_beta   90.00000000
_cell_angle_gamma   151.75336675
_symmetry_Int_Tables_number   1
_chemical_formula_structural   TbSnGe
_chemical_formula_sum   'Tb2 Sn2 Ge2'
_cell_volume   143.67774489
_cell_formula_units_Z   2
loop_
 _symmetry_equiv_pos_site_id
 _symmetry_equiv_pos_as_xyz
  1  'x, y, z'
loop_
 _atom_site_type_symbol
 _atom_site_label
 _atom_site_symmetry_multiplicity
 _atom_site_fract_x
 _atom_site_fract_y
 _atom_site_fract_z
 _atom_site_occupancy
  Tb  Tb0  1  0.90417690  0.09582310  0.75000000  1
  Tb  Tb1  1  0.09582310  0.90417690  0.25000000  1
  Sn  Sn0  1  0.25851661  0.74148339  0.75000000  1
  Sn  Sn1  1  0.74148339  0.25851661  0.25000000  1
  Ge  Ge0  1  0.54938212  0.45061788  0.75000000  1
  Ge  Ge1  1  0.45061788  0.54938212  0.25000000  1
loop_
_geom_bond_atom_site_label_1
_geom_bond_atom_site_label_2
_geom_bond_distance
_geom_bond_site_symmetry_2
Sn0 Sn1 2.938014 1_565
Sn0 Sn1 2.938014 1_566
Sn0 Sn1 2.938014 1_456
Sn0 Sn1 2.938014 1_455
Sn0 Tb0 3.238142 1_565
Sn0 Tb0 3.238142 1_455
Sn0 Tb1 3.400286 1_555
Sn0 Tb1 3.400286 1_556
Sn1 Tb1 3.238142 1_655
Sn1 Tb1 3.238142 1_545
Sn1 Tb0 3.400286 1_555
Sn1 Tb0 3.400286 1_554
Ge0 Ge1 2.613573 1_556
Ge0 Ge1 2.613573 1_555
Ge0 Tb1 3.026596 1_546
Ge0 Tb1 3.026596 1_545
Ge0 Tb1 3.026596 1_656
Ge0 Tb1 3.026596 1_655
Ge0 Tb0 3.232352 1_455
Ge0 Tb0 3.232352 1_565
Ge1 Tb0 3.026596 1_454
Ge1 Tb0 3.026596 1_564
Ge1 Tb0 3.026596 1_455
Ge1 Tb0 3.026596 1_565
Ge1 Tb1 3.232352 1_545
Ge1 Tb1 3.232352 1_655
