# generated using pymatgen
data_CeZrO4
_symmetry_space_group_name_H-M   'P 1'
_cell_length_a   7.51545331
_cell_length_b   7.51545331
_cell_length_c   7.51545331
_cell_angle_alpha   60.00000000
_cell_angle_beta   60.00000000
_cell_angle_gamma   60.00000000
_symmetry_Int_Tables_number   1
_chemical_formula_structural   CeZrO4
_chemical_formula_sum   'Ce4 Zr4 O16'
_cell_volume   300.15843034
_cell_formula_units_Z   4
loop_
 _symmetry_equiv_pos_site_id
 _symmetry_equiv_pos_as_xyz
  1  'x, y, z'
loop_
 _atom_site_type_symbol
 _atom_site_label
 _atom_site_symmetry_multiplicity
 _atom_site_fract_x
 _atom_site_fract_y
 _atom_site_fract_z
 _atom_site_occupancy
  Ce  Ce0  1  0.62500000  0.62500000  0.62500000  1
  Ce  Ce1  1  0.62500000  0.62500000  0.12500000  1
  Ce  Ce2  1  0.62500000  0.12500000  0.62500000  1
  Ce  Ce3  1  0.12500000  0.62500000  0.62500000  1
  Zr  Zr0  1  0.12500000  0.12500000  0.12500000  1
  Zr  Zr1  1  0.12500000  0.12500000  0.62500000  1
  Zr  Zr2  1  0.12500000  0.62500000  0.12500000  1
  Zr  Zr3  1  0.62500000  0.12500000  0.12500000  1
  O  O0  1  0.75000000  0.75000000  0.75000000  1
  O  O1  1  0.75908800  0.75908800  0.24091200  1
  O  O2  1  0.75908800  0.24091200  0.75908800  1
  O  O3  1  0.24091200  0.75908800  0.75908800  1
  O  O4  1  0.00908800  0.00908800  0.49091200  1
  O  O5  1  0.00000000  0.00000000  0.00000000  1
  O  O6  1  0.00908800  0.49091200  0.00908800  1
  O  O7  1  0.49091200  0.00908800  0.00908800  1
  O  O8  1  0.25000000  0.25000000  0.25000000  1
  O  O9  1  0.24091200  0.24091200  0.75908800  1
  O  O10  1  0.24091200  0.75908800  0.24091200  1
  O  O11  1  0.75908800  0.24091200  0.24091200  1
  O  O12  1  0.49091200  0.49091200  0.00908800  1
  O  O13  1  0.50000000  0.50000000  0.50000000  1
  O  O14  1  0.49091200  0.00908800  0.49091200  1
  O  O15  1  0.00908800  0.49091200  0.49091200  1
loop_
_geom_bond_atom_site_label_1
_geom_bond_atom_site_label_2
_geom_bond_distance
_geom_bond_site_symmetry_2
Ce0 O13 2.301128 1_555
Ce0 O0 2.301128 1_555
Ce0 O15 2.358214 1_655
Ce0 O12 2.358214 1_556
Ce0 O14 2.358214 1_565
Ce0 O3 2.358214 1_555
Ce0 O1 2.358214 1_555
Ce0 O2 2.358214 1_555
Ce1 O13 2.301128 1_555
Ce1 O0 2.301128 1_554
Ce1 O6 2.358214 1_655
Ce1 O7 2.358214 1_565
Ce1 O1 2.358214 1_555
Ce1 O10 2.358214 1_555
Ce1 O11 2.358214 1_555
Ce1 O12 2.358214 1_555
Ce2 O13 2.301128 1_555
Ce2 O0 2.301128 1_545
Ce2 O4 2.358214 1_655
Ce2 O7 2.358214 1_556
Ce2 O9 2.358214 1_555
Ce2 O2 2.358214 1_555
Ce2 O11 2.358214 1_555
Ce2 O14 2.358214 1_555
Ce3 O13 2.301128 1_555
Ce3 O0 2.301128 1_455
Ce3 O4 2.358214 1_565
Ce3 O6 2.358214 1_556
Ce3 O3 2.358214 1_555
Ce3 O9 2.358214 1_555
Ce3 O10 2.358214 1_555
Ce3 O15 2.358214 1_555
O1 Zr3 2.246746 1_565
O1 Zr2 2.246746 1_655
O2 Zr1 2.246746 1_655
O2 Zr3 2.246746 1_556
O3 Zr1 2.246746 1_565
O3 Zr2 2.246746 1_556
O4 Zr0 2.246746 1_555
O4 Zr1 2.246746 1_555
O5 Zr3 2.301128 1_455
O5 Zr0 2.301128 1_555
O5 Zr2 2.301128 1_545
O5 Zr1 2.301128 1_554
O6 Zr0 2.246746 1_555
O6 Zr2 2.246746 1_555
O7 Zr0 2.246746 1_555
O7 Zr3 2.246746 1_555
O8 Zr3 2.301128 1_555
O8 Zr0 2.301128 1_555
O8 Zr1 2.301128 1_555
O8 Zr2 2.301128 1_555
O9 Zr1 2.246746 1_555
O9 Zr0 2.246746 1_556
O10 Zr2 2.246746 1_555
O10 Zr0 2.246746 1_565
O11 Zr0 2.246746 1_655
O11 Zr3 2.246746 1_555
O12 Zr2 2.246746 1_555
O12 Zr3 2.246746 1_555
O14 Zr3 2.246746 1_555
O14 Zr1 2.246746 1_555
O15 Zr1 2.246746 1_555
O15 Zr2 2.246746 1_555
