# generated using pymatgen
data_Sm3Zn11
_symmetry_space_group_name_H-M   'P 1'
_cell_length_a   4.44241700
_cell_length_b   8.23485569
_cell_length_c   8.23485569
_cell_angle_alpha   66.09485262
_cell_angle_beta   74.35164463
_cell_angle_gamma   74.35164463
_symmetry_Int_Tables_number   1
_chemical_formula_structural   Sm3Zn11
_chemical_formula_sum   'Sm3 Zn11'
_cell_volume   260.76171301
_cell_formula_units_Z   1
loop_
 _symmetry_equiv_pos_site_id
 _symmetry_equiv_pos_as_xyz
  1  'x, y, z'
loop_
 _atom_site_type_symbol
 _atom_site_label
 _atom_site_symmetry_multiplicity
 _atom_site_fract_x
 _atom_site_fract_y
 _atom_site_fract_z
 _atom_site_occupancy
  Sm  Sm0  1  0.00000000  0.00000000  0.00000000  1
  Sm  Sm1  1  0.69998700  0.30001300  0.30001300  1
  Sm  Sm2  1  0.30001300  0.69998700  0.69998700  1
  Zn  Zn0  1  0.00000000  0.50000000  0.50000000  1
  Zn  Zn1  1  0.50000000  0.30767500  0.69232500  1
  Zn  Zn2  1  0.50000000  0.69232500  0.30767500  1
  Zn  Zn3  1  0.66063500  0.97813600  0.70059400  1
  Zn  Zn4  1  0.33936500  0.02186400  0.29940600  1
  Zn  Zn5  1  0.66063500  0.70059400  0.97813600  1
  Zn  Zn6  1  0.33936500  0.29940600  0.02186400  1
  Zn  Zn7  1  0.86160700  0.85990400  0.41688300  1
  Zn  Zn8  1  0.13839300  0.14009600  0.58311700  1
  Zn  Zn9  1  0.86160700  0.41688300  0.85990400  1
  Zn  Zn10  1  0.13839300  0.58311700  0.14009600  1
loop_
_geom_bond_atom_site_label_1
_geom_bond_atom_site_label_2
_geom_bond_distance
_geom_bond_site_symmetry_2
Sm0 Zn9 3.086823 1_454
Sm0 Zn10 3.086823 1_545
Sm0 Zn7 3.086823 1_445
Sm0 Zn8 3.086823 1_554
Sm0 Zn6 3.300868 1_455
Sm0 Zn4 3.300868 1_455
Sm0 Zn5 3.300868 1_544
Sm0 Zn3 3.300868 1_544
Sm0 Zn4 3.300868 1_555
Sm0 Zn6 3.300868 1_555
Sm0 Zn3 3.300868 1_444
Sm0 Zn5 3.300868 1_444
Sm0 Zn1 3.545422 1_554
Sm0 Zn2 3.545422 1_545
Sm0 Zn1 3.545422 1_454
Sm0 Zn2 3.545422 1_445
Sm1 Zn10 3.088688 1_655
Sm1 Zn8 3.088688 1_655
Sm1 Zn8 3.088692 1_555
Sm1 Zn10 3.088692 1_555
Sm1 Zn4 3.131479 1_655
Sm1 Zn6 3.131479 1_655
Sm1 Zn4 3.131479 1_555
Sm1 Zn6 3.131479 1_555
Sm1 Zn2 3.133188 1_555
Sm1 Zn1 3.133188 1_555
Sm1 Zn9 3.273984 1_554
Sm1 Zn7 3.273984 1_545
Sm1 Zn3 3.284892 1_545
Sm1 Zn5 3.284892 1_554
Sm1 Zn0 3.430285 1_555
Sm1 Zn0 3.430285 1_655
Sm2 Zn9 3.088688 1_455
Sm2 Zn7 3.088688 1_455
Sm2 Zn9 3.088692 1_555
Sm2 Zn7 3.088692 1_555
Sm2 Zn3 3.131479 1_455
Sm2 Zn5 3.131479 1_455
Sm2 Zn3 3.131479 1_555
Sm2 Zn5 3.131479 1_555
Sm2 Zn1 3.133188 1_555
Sm2 Zn2 3.133188 1_555
Sm2 Zn10 3.273984 1_556
Sm2 Zn8 3.273984 1_565
Sm2 Zn6 3.284892 1_556
Sm2 Zn4 3.284892 1_565
Sm2 Zn0 3.430285 1_655
Sm2 Zn0 3.430285 1_555
Zn0 Zn8 2.688924 1_555
Zn0 Zn7 2.688924 1_455
Zn0 Zn9 2.688924 1_455
Zn0 Zn10 2.688924 1_555
Zn0 Zn1 2.813814 1_455
Zn0 Zn1 2.813814 1_555
Zn0 Zn2 2.813814 1_555
Zn0 Zn2 2.813814 1_455
Zn1 Zn6 2.590336 1_556
Zn1 Zn3 2.590336 1_545
Zn1 Zn9 2.876579 1_455
Zn1 Zn8 2.876579 1_655
Zn1 Zn8 2.876582 1_555
Zn1 Zn9 2.876582 1_555
Zn2 Zn4 2.590336 1_565
Zn2 Zn5 2.590336 1_554
Zn2 Zn7 2.876579 1_455
Zn2 Zn7 2.876582 1_555
Zn3 Zn5 2.492737 1_555
Zn3 Zn8 2.567683 1_665
Zn3 Zn8 2.567686 1_565
Zn3 Zn7 2.729974 1_555
Zn4 Zn6 2.492737 1_555
Zn4 Zn7 2.567683 1_445
Zn4 Zn7 2.567686 1_545
Zn4 Zn8 2.729974 1_555
Zn5 Zn9 2.729974 1_555
Zn6 Zn9 2.567683 1_454
Zn6 Zn9 2.567686 1_554
Zn10 Zn5 2.567683 1_454
Zn10 Zn5 2.567686 1_554
Zn10 Zn6 2.729974 1_555
Zn10 Zn2 2.876579 1_455
Zn10 Zn2 2.876582 1_555
