# generated using pymatgen
data_MnPPd
_symmetry_space_group_name_H-M   'P 1'
_cell_length_a   6.40482511
_cell_length_b   6.40482511
_cell_length_c   3.63622600
_cell_angle_alpha   90.00000000
_cell_angle_beta   90.00000000
_cell_angle_gamma   119.99999085
_symmetry_Int_Tables_number   1
_chemical_formula_structural   MnPPd
_chemical_formula_sum   'Mn3 P3 Pd3'
_cell_volume   129.18024115
_cell_formula_units_Z   3
loop_
 _symmetry_equiv_pos_site_id
 _symmetry_equiv_pos_as_xyz
  1  'x, y, z'
loop_
 _atom_site_type_symbol
 _atom_site_label
 _atom_site_symmetry_multiplicity
 _atom_site_fract_x
 _atom_site_fract_y
 _atom_site_fract_z
 _atom_site_occupancy
  Mn  Mn0  1  0.59523700  0.00000000  0.00000000  1
  Mn  Mn1  1  0.00000000  0.59523700  0.00000000  1
  Mn  Mn2  1  0.40476300  0.40476300  0.00000000  1
  P  P0  1  0.33333300  0.66666700  0.50000000  1
  P  P1  1  0.66666700  0.33333300  0.50000000  1
  P  P2  1  0.00000000  0.00000000  0.00000000  1
  Pd  Pd0  1  0.26432800  0.00000000  0.50000000  1
  Pd  Pd1  1  0.00000000  0.26432800  0.50000000  1
  Pd  Pd2  1  0.73567200  0.73567200  0.50000000  1
loop_
_geom_bond_atom_site_label_1
_geom_bond_atom_site_label_2
_geom_bond_distance
_geom_bond_site_symmetry_2
Mn0 P2 2.592436 1_655
Mn0 P1 2.663846 1_554
Mn0 P1 2.663846 1_555
Mn0 P0 2.663848 1_544
Mn0 P0 2.663848 1_545
Mn0 Pd0 2.792392 1_555
Mn0 Pd0 2.792392 1_554
Mn0 Pd2 2.916075 1_544
Mn0 Pd2 2.916075 1_545
Mn0 Pd1 2.916075 1_655
Mn0 Pd1 2.916075 1_654
Mn1 P2 2.592436 1_565
Mn1 P0 2.663846 1_555
Mn1 P0 2.663846 1_554
Mn1 P1 2.663848 1_455
Mn1 P1 2.663848 1_454
Mn1 Pd1 2.792392 1_554
Mn1 Pd1 2.792392 1_555
Mn1 Pd2 2.916075 1_455
Mn1 Pd2 2.916075 1_454
Mn1 Pd0 2.916075 1_565
Mn1 Pd0 2.916075 1_564
Mn2 P2 2.592437 1_555
Mn2 P1 2.663851 1_554
Mn2 P1 2.663851 1_555
Mn2 P0 2.663851 1_555
Mn2 P0 2.663851 1_554
Mn2 Pd2 2.792392 1_554
Mn2 Pd2 2.792392 1_555
Mn2 Pd0 2.916075 1_555
Mn2 Pd1 2.916075 1_555
Mn2 Pd1 2.916075 1_554
Mn2 Pd0 2.916075 1_554
P0 Pd0 2.386811 1_565
P0 Pd1 2.386816 1_555
P0 Pd2 2.386818 1_555
P1 Pd1 2.386811 1_655
P1 Pd0 2.386816 1_555
P1 Pd2 2.386818 1_555
P2 Pd1 2.484290 1_554
P2 Pd1 2.484290 1_555
P2 Pd0 2.484290 1_555
P2 Pd0 2.484290 1_554
P2 Pd2 2.484290 1_444
P2 Pd2 2.484290 1_445
