# generated using pymatgen
data_Ba2In2O5
_symmetry_space_group_name_H-M   'P 1'
_cell_length_a   4.17601600
_cell_length_b   4.31761000
_cell_length_c   8.72762600
_cell_angle_alpha   90.00000000
_cell_angle_beta   90.00000000
_cell_angle_gamma   90.00000000
_symmetry_Int_Tables_number   1
_chemical_formula_structural   Ba2In2O5
_chemical_formula_sum   'Ba2 In2 O5'
_cell_volume   157.36266151
_cell_formula_units_Z   1
loop_
 _symmetry_equiv_pos_site_id
 _symmetry_equiv_pos_as_xyz
  1  'x, y, z'
loop_
 _atom_site_type_symbol
 _atom_site_label
 _atom_site_symmetry_multiplicity
 _atom_site_fract_x
 _atom_site_fract_y
 _atom_site_fract_z
 _atom_site_occupancy
  Ba  Ba0  1  0.00000000  0.99403500  0.71862400  1
  Ba  Ba1  1  0.00000000  0.99403500  0.28137600  1
  In  In0  1  0.50000000  0.48410300  0.50000000  1
  In  In1  1  0.50000000  0.56073300  0.00000000  1
  O  O0  1  0.50000000  0.43478500  0.77258300  1
  O  O1  1  0.50000000  0.43478500  0.22741700  1
  O  O2  1  0.50000000  0.98569000  0.50000000  1
  O  O3  1  0.00000000  0.50376700  0.50000000  1
  O  O4  1  0.00000000  0.75226600  0.00000000  1
loop_
_geom_bond_atom_site_label_1
_geom_bond_atom_site_label_2
_geom_bond_distance
_geom_bond_site_symmetry_2
Ba0 O4 2.668395 1_556
Ba0 O2 2.828745 1_455
Ba0 O2 2.828745 1_555
Ba0 O3 2.849826 1_555
Ba0 O0 2.864073 1_465
Ba0 O0 2.864073 1_565
Ba0 O3 2.912791 1_565
Ba0 O0 3.226757 1_555
Ba0 O0 3.226757 1_455
Ba1 O4 2.668395 1_555
Ba1 O2 2.828745 1_555
Ba1 O2 2.828745 1_455
Ba1 O3 2.849826 1_555
Ba1 O1 2.864073 1_465
Ba1 O1 2.864073 1_565
Ba1 O3 2.912791 1_565
Ba1 O1 3.226757 1_455
Ba1 O1 3.226757 1_555
In0 O3 2.089733 1_555
In0 O3 2.089733 1_655
In0 O2 2.151953 1_545
In0 O2 2.165657 1_555
In0 O0 2.388513 1_555
In0 O1 2.388513 1_555
In1 O0 2.057957 1_554
In1 O1 2.057957 1_555
In1 O4 2.245807 1_555
In1 O4 2.245807 1_655
