# generated using pymatgen
data_PrSe2NO13
_symmetry_space_group_name_H-M   'P 1'
_cell_length_a   5.96948300
_cell_length_b   9.53058900
_cell_length_c   18.93234000
_cell_angle_alpha   90.00000000
_cell_angle_beta   90.00000000
_cell_angle_gamma   90.00000000
_symmetry_Int_Tables_number   1
_chemical_formula_structural   PrSe2NO13
_chemical_formula_sum   'Pr4 Se8 N4 O52'
_cell_volume   1077.11173196
_cell_formula_units_Z   4
loop_
 _symmetry_equiv_pos_site_id
 _symmetry_equiv_pos_as_xyz
  1  'x, y, z'
loop_
 _atom_site_type_symbol
 _atom_site_label
 _atom_site_symmetry_multiplicity
 _atom_site_fract_x
 _atom_site_fract_y
 _atom_site_fract_z
 _atom_site_occupancy
  Pr  Pr0  1  0.25000000  0.25000000  0.94312200  1
  Pr  Pr1  1  0.75000000  0.75000000  0.55687800  1
  Pr  Pr2  1  0.75000000  0.75000000  0.05687800  1
  Pr  Pr3  1  0.25000000  0.25000000  0.44312200  1
  Se  Se0  1  0.12868500  0.03156300  0.11858700  1
  Se  Se1  1  0.37131500  0.46843700  0.11858700  1
  Se  Se2  1  0.62868500  0.96843700  0.38141300  1
  Se  Se3  1  0.87131500  0.53156300  0.38141300  1
  Se  Se4  1  0.87131500  0.96843700  0.88141300  1
  Se  Se5  1  0.62868500  0.53156300  0.88141300  1
  Se  Se6  1  0.37131500  0.03156300  0.61858700  1
  Se  Se7  1  0.12868500  0.46843700  0.61858700  1
  N  N0  1  0.75000000  0.25000000  0.75426400  1
  N  N1  1  0.25000000  0.75000000  0.74573600  1
  N  N2  1  0.25000000  0.75000000  0.24573600  1
  N  N3  1  0.75000000  0.25000000  0.25426400  1
  O  O0  1  0.33113400  0.44334200  0.67970200  1
  O  O1  1  0.16886600  0.05665800  0.67970200  1
  O  O2  1  0.83113400  0.55665800  0.82029800  1
  O  O3  1  0.66886600  0.94334200  0.82029800  1
  O  O4  1  0.66886600  0.55665800  0.32029800  1
  O  O5  1  0.83113400  0.94334200  0.32029800  1
  O  O6  1  0.16886600  0.44334200  0.17970200  1
  O  O7  1  0.33113400  0.05665800  0.17970200  1
  O  O8  1  0.56815800  0.36008000  0.88814900  1
  O  O9  1  0.93184200  0.13992000  0.88814900  1
  O  O10  1  0.06815800  0.63992000  0.61185100  1
  O  O11  1  0.43184200  0.86008000  0.61185100  1
  O  O12  1  0.43184200  0.63992000  0.11185100  1
  O  O13  1  0.06815800  0.86008000  0.11185100  1
  O  O14  1  0.93184200  0.36008000  0.38814900  1
  O  O15  1  0.56815800  0.13992000  0.38814900  1
  O  O16  1  0.89204400  0.38278100  0.64089200  1
  O  O17  1  0.60795600  0.11721900  0.64089200  1
  O  O18  1  0.39204400  0.61721900  0.85910800  1
  O  O19  1  0.10795600  0.88278100  0.85910800  1
  O  O20  1  0.10795600  0.61721900  0.35910800  1
  O  O21  1  0.39204400  0.88278100  0.35910800  1
  O  O22  1  0.60795600  0.38278100  0.14089200  1
  O  O23  1  0.89204400  0.11721900  0.14089200  1
  O  O24  1  0.21999700  0.41558000  0.53877500  1
  O  O25  1  0.28000300  0.08442000  0.53877500  1
  O  O26  1  0.71999700  0.58442000  0.96122500  1
  O  O27  1  0.78000300  0.91558000  0.96122500  1
  O  O28  1  0.78000300  0.58442000  0.46122500  1
  O  O29  1  0.71999700  0.91558000  0.46122500  1
  O  O30  1  0.28000300  0.41558000  0.03877500  1
  O  O31  1  0.21999700  0.08442000  0.03877500  1
  O  O32  1  0.25000000  0.25000000  0.80788800  1
  O  O33  1  0.75000000  0.75000000  0.69211200  1
  O  O34  1  0.75000000  0.75000000  0.19211200  1
  O  O35  1  0.25000000  0.25000000  0.30788800  1
  O  O36  1  0.11682900  0.45292300  0.87149100  1
  O  O37  1  0.38317100  0.04707700  0.87149100  1
  O  O38  1  0.61682900  0.54707700  0.62850900  1
  O  O39  1  0.88317100  0.95292300  0.62850900  1
  O  O40  1  0.88317100  0.54707700  0.12850900  1
  O  O41  1  0.61682900  0.95292300  0.12850900  1
  O  O42  1  0.38317100  0.45292300  0.37149100  1
  O  O43  1  0.11682900  0.04707700  0.37149100  1
  O  O44  1  0.82622600  0.29307300  0.01127100  1
  O  O45  1  0.67377400  0.20692700  0.01127100  1
  O  O46  1  0.32622600  0.70692700  0.48872900  1
  O  O47  1  0.17377400  0.79307300  0.48872900  1
  O  O48  1  0.17377400  0.70692700  0.98872900  1
  O  O49  1  0.32622600  0.79307300  0.98872900  1
  O  O50  1  0.67377400  0.29307300  0.51127100  1
  O  O51  1  0.82622600  0.20692700  0.51127100  1
loop_
_geom_bond_atom_site_label_1
_geom_bond_atom_site_label_2
_geom_bond_distance
_geom_bond_site_symmetry_2
O0 Se7 1.690112 1_555
O1 Se6 1.690112 1_555
O2 Se5 1.690112 1_555
O3 Se4 1.690112 1_555
O4 Se3 1.690112 1_555
O5 Se2 1.690112 1_555
O6 Se1 1.690112 1_555
O7 Se0 1.690112 1_555
O8 Se5 1.678648 1_555
O8 Pr0 2.406444 1_555
O9 Se4 1.678648 1_545
O9 Pr0 2.406444 1_655
O10 Se7 1.678648 1_555
O10 Pr1 2.406444 1_455
O11 Se6 1.678648 1_565
O11 Pr1 2.406444 1_555
O12 Se1 1.678648 1_555
O12 Pr2 2.406444 1_555
O13 Se0 1.678648 1_565
O13 Pr2 2.406444 1_455
O14 Se3 1.678648 1_555
O14 Pr3 2.406444 1_655
O15 Se2 1.678648 1_545
O15 Pr3 2.406444 1_555
O16 Se7 1.685308 1_655
O17 Se6 1.685308 1_555
O18 Se5 1.685308 1_555
O19 Se4 1.685308 1_455
O20 Se3 1.685308 1_455
O21 Se2 1.685308 1_555
O22 Se1 1.685308 1_555
O23 Se0 1.685308 1_655
O24 Se7 1.683477 1_555
O24 Pr3 2.408710 1_555
O25 Se6 1.683477 1_555
O25 Pr3 2.408710 1_555
O26 Se5 1.683477 1_555
O26 Pr2 2.408710 1_556
O27 Se4 1.683477 1_555
O27 Pr2 2.408710 1_556
O28 Se3 1.683477 1_555
O28 Pr1 2.408710 1_555
O29 Se2 1.683477 1_555
O29 Pr1 2.408710 1_555
O30 Se1 1.683477 1_555
O30 Pr0 2.408710 1_554
O31 Se0 1.683477 1_555
O31 Pr0 2.408710 1_554
O32 Pr0 2.560296 1_555
O33 Pr1 2.560296 1_555
O34 Pr2 2.560296 1_555
O35 Pr3 2.560296 1_555
O36 Pr0 2.492258 1_555
O37 Pr0 2.492258 1_555
O38 Pr1 2.492258 1_555
O39 Pr1 2.492258 1_555
O40 Pr2 2.492258 1_555
O41 Pr2 2.492258 1_555
O42 Pr3 2.492258 1_555
O43 Pr3 2.492258 1_555
O44 O45 1.225678 1_555
O44 Pr0 2.869256 1_654
O45 Pr0 2.869256 1_554
O46 O47 1.225678 1_555
O46 Pr1 2.869256 1_555
O47 Pr1 2.869256 1_455
O48 O49 1.225678 1_555
O48 Pr2 2.869256 1_456
O49 Pr2 2.869256 1_556
O50 O51 1.225678 1_555
O50 Pr3 2.869256 1_555
O51 Pr3 2.869256 1_655
