# generated using pymatgen
data_Li9Mn2Co5O16
_symmetry_space_group_name_H-M   'P 1'
_cell_length_a   5.93617700
_cell_length_b   6.54331592
_cell_length_c   7.71113270
_cell_angle_alpha   89.76635899
_cell_angle_beta   98.99471206
_cell_angle_gamma   103.34441580
_symmetry_Int_Tables_number   1
_chemical_formula_structural   Li9Mn2Co5O16
_chemical_formula_sum   'Li9 Mn2 Co5 O16'
_cell_volume   287.68759729
_cell_formula_units_Z   1
loop_
 _symmetry_equiv_pos_site_id
 _symmetry_equiv_pos_as_xyz
  1  'x, y, z'
loop_
 _atom_site_type_symbol
 _atom_site_label
 _atom_site_symmetry_multiplicity
 _atom_site_fract_x
 _atom_site_fract_y
 _atom_site_fract_z
 _atom_site_occupancy
  Li  Li0  1  0.50078100  0.00063400  0.00027000  1
  Li  Li1  1  0.25000500  0.75644500  0.25531700  1
  Li  Li2  1  0.88103400  0.37237400  0.13109900  1
  Li  Li3  1  0.63134700  0.12863300  0.38308900  1
  Li  Li4  1  0.00136900  0.49220100  0.49520600  1
  Li  Li5  1  0.36748700  0.87486100  0.61897200  1
  Li  Li6  1  0.12187700  0.62212200  0.86697300  1
  Li  Li7  1  0.74697600  0.25497000  0.74973500  1
  Li  Li8  1  0.12382900  0.12325100  0.37307400  1
  Mn  Mn0  1  0.00621000  0.99864400  0.00439900  1
  Mn  Mn1  1  0.75844300  0.75292500  0.25218200  1
  Co  Co0  1  0.49206000  0.49941000  0.50271600  1
  Co  Co1  1  0.24958800  0.24638400  0.74070800  1
  Co  Co2  1  0.88033800  0.88456300  0.61933500  1
  Co  Co3  1  0.62482500  0.62726600  0.87567200  1
  Co  Co4  1  0.36732100  0.37061500  0.13198300  1
  O  O0  1  0.17071900  0.93953400  0.81707900  1
  O  O1  1  0.94217500  0.70813000  0.07363800  1
  O  O2  1  0.55065800  0.33703100  0.93661800  1
  O  O3  1  0.29323000  0.06322500  0.16715500  1
  O  O4  1  0.68004500  0.45452500  0.31276100  1
  O  O5  1  0.03218100  0.80316100  0.42867600  1
  O  O6  1  0.79222100  0.57929700  0.69127800  1
  O  O7  1  0.43057900  0.19637100  0.57351300  1
  O  O8  1  0.82017900  0.04161200  0.18078300  1
  O  O9  1  0.57727300  0.80683500  0.42773800  1
  O  O10  1  0.20639400  0.43786000  0.30396300  1
  O  O11  1  0.93600800  0.17224400  0.57363000  1
  O  O12  1  0.31266200  0.55685800  0.67915000  1
  O  O13  1  0.71071700  0.92291000  0.82874700  1
  O  O14  1  0.47427300  0.68375500  0.06670900  1
  O  O15  1  0.06719800  0.29135200  0.93783400  1
loop_
_geom_bond_atom_site_label_1
_geom_bond_atom_site_label_2
_geom_bond_distance
_geom_bond_site_symmetry_2
Li0 O3 2.018597 1_555
Li0 O13 2.091535 1_544
Li0 O14 2.110052 1_545
Li0 O8 2.132467 1_555
Li0 O0 2.184438 1_544
Li0 O2 2.215725 1_554
Li1 O5 2.068499 1_555
Li1 O10 2.080426 1_555
Li1 O1 2.082839 1_455
Li1 O3 2.088815 1_565
Li1 O9 2.133271 1_555
Li1 O14 2.239902 1_555
Li2 O4 2.121212 1_555
Li2 O10 2.123286 1_655
Li2 O15 2.124886 1_654
Li2 O8 2.153369 1_555
Li2 O1 2.197488 1_555
Li2 O2 2.241094 1_554
Li3 O9 2.090905 1_545
Li3 O11 2.108387 1_555
Li3 O7 2.137600 1_555
Li3 O4 2.163306 1_555
Li3 O8 2.205225 1_555
Li3 O3 2.355530 1_555
Li4 O5 2.070199 1_555
Li4 O12 2.104764 1_555
Li4 O10 2.132526 1_555
Li4 O11 2.141822 1_455
Li4 O4 2.150584 1_455
Li4 O6 2.252276 1_455
Li5 O7 2.088112 1_565
Li5 O12 2.092296 1_555
Li5 O0 2.160660 1_555
Li5 O9 2.181501 1_555
Li5 O5 2.235278 1_555
Li5 O13 2.354714 1_555
Li6 O0 2.072705 1_555
Li6 O12 2.074570 1_555
Li6 O6 2.159731 1_455
Li6 O15 2.193124 1_555
Li6 O1 2.193236 1_456
Li6 O14 2.349256 1_556
Li7 O11 2.039391 1_555
Li7 O7 2.096406 1_555
Li7 O2 2.131531 1_555
Li7 O6 2.132112 1_555
Li7 O15 2.169261 1_655
Li7 O13 2.225492 1_545
Li8 O10 2.090212 1_555
Li8 O3 2.091292 1_555
Li8 O5 2.099085 1_545
Li8 O11 2.108495 1_455
Li8 O8 2.111713 1_455
Li8 O7 2.158105 1_555
Mn0 O3 1.913104 1_565
Mn0 O8 1.940252 1_465
Mn0 O1 1.940284 1_455
Mn0 O15 1.947524 1_564
Mn0 O0 1.951837 1_554
Mn0 O13 2.004583 1_454
Mn1 O5 1.914770 1_655
Mn1 O8 1.934087 1_565
Mn1 O9 1.935947 1_555
Mn1 O1 1.947143 1_555
Mn1 O4 1.971862 1_555
Mn1 O14 1.998594 1_555
Co0 O12 1.941228 1_555
Co0 O7 2.020510 1_555
Co0 O4 2.035427 1_555
Co0 O9 2.061276 1_555
Co0 O10 2.064905 1_555
Co0 O6 2.080488 1_555
Co1 O7 1.876828 1_555
Co1 O12 2.046757 1_555
Co1 O11 2.049054 1_455
Co1 O15 2.057845 1_555
Co1 O0 2.059121 1_545
Co1 O2 2.121754 1_555
Co2 O11 1.876342 1_565
Co2 O5 1.974847 1_655
Co2 O6 2.042201 1_555
Co2 O13 2.076713 1_555
Co2 O0 2.078991 1_655
Co2 O9 2.104921 1_555
Co3 O14 1.916761 1_556
Co3 O2 1.921651 1_555
Co3 O6 1.922789 1_555
Co3 O13 1.931278 1_555
Co3 O12 2.162422 1_555
Co3 O1 2.192356 1_556
Co4 O10 1.860056 1_555
Co4 O3 1.984194 1_555
Co4 O2 2.031746 1_554
Co4 O14 2.084645 1_555
Co4 O4 2.101771 1_555
Co4 O15 2.104795 1_554
