# generated using pymatgen
data_Mg5Si9
_symmetry_space_group_name_H-M   'P 1'
_cell_length_a   5.73038000
_cell_length_b   6.91854866
_cell_length_c   13.60080741
_cell_angle_alpha   104.12149985
_cell_angle_beta   92.06112498
_cell_angle_gamma   108.05271437
_symmetry_Int_Tables_number   1
_chemical_formula_structural   Mg5Si9
_chemical_formula_sum   'Mg10 Si18'
_cell_volume   493.52569804
_cell_formula_units_Z   2
loop_
 _symmetry_equiv_pos_site_id
 _symmetry_equiv_pos_as_xyz
  1  'x, y, z'
loop_
 _atom_site_type_symbol
 _atom_site_label
 _atom_site_symmetry_multiplicity
 _atom_site_fract_x
 _atom_site_fract_y
 _atom_site_fract_z
 _atom_site_occupancy
  Mg  Mg0  1  0.42650800  0.76094900  0.67433700  1
  Mg  Mg1  1  0.75915600  0.44440600  0.38310000  1
  Mg  Mg2  1  0.64878500  0.58436800  0.54635300  1
  Mg  Mg3  1  0.22377600  0.32137200  0.40744800  1
  Mg  Mg4  1  0.04167000  0.00673400  0.61949300  1
  Mg  Mg5  1  0.16515200  0.84620600  0.44485100  1
  Mg  Mg6  1  0.49655900  0.52684500  0.14201900  1
  Mg  Mg7  1  0.18893400  0.38698100  0.92183800  1
  Mg  Mg8  1  0.44405200  0.99958800  0.11211800  1
  Mg  Mg9  1  0.41031300  0.29866400  0.75617800  1
  Si  Si0  1  0.07219900  0.18376100  0.12151200  1
  Si  Si1  1  0.65736300  0.65449500  0.86232000  1
  Si  Si2  1  0.47733000  0.74356800  0.33008000  1
  Si  Si3  1  0.84471100  0.27431400  0.69037400  1
  Si  Si4  1  0.86624300  0.84958300  0.24983000  1
  Si  Si5  1  0.94997600  0.01444900  0.83959300  1
  Si  Si6  1  0.80367800  0.23215400  0.24498700  1
  Si  Si7  1  0.30187400  0.85514700  0.83847200  1
  Si  Si8  1  0.07368200  0.59984300  0.22388700  1
  Si  Si9  1  0.14074200  0.46290100  0.56877700  1
  Si  Si10  1  0.65911300  0.09893200  0.93068600  1
  Si  Si11  1  0.87221500  0.86513700  0.06083900  1
  Si  Si12  1  0.35936500  0.12392900  0.27696100  1
  Si  Si13  1  0.89405400  0.60837600  0.74205800  1
  Si  Si14  1  0.77555800  0.40108300  0.02114000  1
  Si  Si15  1  0.15063300  0.70480500  0.00999400  1
  Si  Si16  1  0.55105700  0.13619500  0.54755700  1
  Si  Si17  1  0.74518100  0.01516800  0.43300400  1
loop_
_geom_bond_atom_site_label_1
_geom_bond_atom_site_label_2
_geom_bond_distance
_geom_bond_site_symmetry_2
Mg0 Si9 2.299639 1_555
Mg0 Si7 2.368868 1_555
Mg0 Mg2 2.496226 1_555
Mg1 Si6 2.161190 1_555
Mg1 Mg2 2.387299 1_555
Mg1 Si8 3.051192 1_655
Mg1 Si17 3.182184 1_555
Mg1 Si2 3.182498 1_555
Mg2 Si9 2.819110 1_555
Mg2 Mg3 2.838401 1_555
Mg2 Si13 2.908324 1_555
Mg2 Si16 2.979510 1_555
Mg2 Mg4 2.990029 1_665
Mg2 Si9 3.205951 1_655
Mg3 Si12 2.278904 1_555
Mg3 Si9 2.305471 1_555
Mg3 Si17 2.992858 1_455
Mg3 Si2 3.275651 1_555
Mg4 Si3 2.476451 1_455
Mg4 Si17 3.024401 1_455
Mg4 Si16 3.048371 1_555
Mg5 Si16 2.554842 1_565
Mg5 Si2 2.566780 1_555
Mg5 Si17 2.998627 1_465
Mg5 Si8 3.007519 1_555
Mg5 Si4 3.114183 1_455
Mg6 Si14 2.523738 1_555
Mg6 Si4 2.621223 1_555
Mg6 Si2 2.655916 1_555
Mg6 Si0 2.770572 1_555
Mg6 Si8 2.836407 1_555
Mg6 Si11 3.104862 1_555
Mg7 Si15 2.313526 1_556
Mg7 Si5 2.462687 1_455
Mg7 Si14 2.784582 1_456
Mg8 Si15 2.289145 1_555
Mg8 Si12 2.323357 1_565
Mg8 Si6 2.521842 1_565
Mg8 Si0 2.793466 1_565
Mg8 Si11 2.931312 1_555
Mg8 Si10 2.932863 1_564
Mg9 Si1 2.471353 1_555
Mg9 Si3 2.715220 1_555
Mg9 Si16 3.022428 1_555
Si0 Si11 2.081421 1_445
Si0 Si6 2.351774 1_455
Si1 Si13 2.188598 1_555
Si1 Si11 2.767408 1_556
Si2 Si8 2.461384 1_555
Si2 Si4 2.499702 1_555
Si3 Si9 2.682925 1_655
Si4 Si8 2.351296 1_655
Si4 Si6 2.794662 1_565
Si6 Si8 2.626078 1_655
Si10 Si14 2.037211 1_556
Si10 Si5 2.248036 1_555
Si10 Si7 2.291630 1_545
Si11 Si15 2.248565 1_655
Si11 Si4 2.599785 1_555
Si12 Si4 2.825397 1_445
Si13 Si3 2.168811 1_555
Si14 Si15 2.537277 1_655
Si16 Si17 2.105080 1_555
Si16 Si3 2.319558 1_555
Si17 Si2 2.149591 1_545
Si17 Si4 2.687852 1_545
