# generated using pymatgen
data_La2MnGaO6
_symmetry_space_group_name_H-M   'P 1'
_cell_length_a   5.54992400
_cell_length_b   5.52137623
_cell_length_c   8.15041850
_cell_angle_alpha   88.77956154
_cell_angle_beta   90.00053296
_cell_angle_gamma   89.99951650
_symmetry_Int_Tables_number   1
_chemical_formula_structural   La2MnGaO6
_chemical_formula_sum   'La4 Mn2 Ga2 O12'
_cell_volume   249.69839730
_cell_formula_units_Z   2
loop_
 _symmetry_equiv_pos_site_id
 _symmetry_equiv_pos_as_xyz
  1  'x, y, z'
loop_
 _atom_site_type_symbol
 _atom_site_label
 _atom_site_symmetry_multiplicity
 _atom_site_fract_x
 _atom_site_fract_y
 _atom_site_fract_z
 _atom_site_occupancy
  La  La0  1  0.96553500  0.49047200  0.74804400  1
  La  La1  1  0.46554800  0.00955300  0.75195000  1
  La  La2  1  0.03446300  0.50950800  0.25197700  1
  La  La3  1  0.53445000  0.99049600  0.24804600  1
  Mn  Mn0  1  0.49999700  0.50000000  0.50000200  1
  Mn  Mn1  1  0.99999900  0.00000200  0.99999500  1
  Ga  Ga0  1  0.49999800  0.49999500  0.99999900  1
  Ga  Ga1  1  0.00000300  0.00000100  0.49999900  1
  O  O0  1  0.51547700  0.58255400  0.76585200  1
  O  O1  1  0.01547400  0.91745200  0.73412300  1
  O  O2  1  0.48453100  0.41744000  0.23414700  1
  O  O3  1  0.98452800  0.08254600  0.26587100  1
  O  O4  1  0.28019800  0.78858600  0.04432000  1
  O  O5  1  0.78020600  0.71141500  0.45568600  1
  O  O6  1  0.71175200  0.22199800  0.54678400  1
  O  O7  1  0.21175300  0.27800300  0.95320800  1
  O  O8  1  0.71979600  0.21140600  0.95568000  1
  O  O9  1  0.21979300  0.28858600  0.54430800  1
  O  O10  1  0.28824900  0.77799900  0.45321500  1
  O  O11  1  0.78824800  0.72198900  0.04679400  1
loop_
_geom_bond_atom_site_label_1
_geom_bond_atom_site_label_2
_geom_bond_distance
_geom_bond_site_symmetry_2
La0 O1 2.374067 1_655
La0 O7 2.440500 1_655
La0 O9 2.463738 1_655
La0 O0 2.553748 1_555
La0 O6 2.641115 1_555
La0 O8 2.643320 1_555
La0 O5 2.846077 1_555
La0 O11 2.943413 1_556
La1 O0 2.374156 1_545
La1 O6 2.440434 1_555
La1 O8 2.463581 1_555
La1 O1 2.553871 1_545
La1 O7 2.641067 1_555
La1 O9 2.643263 1_555
La1 O4 2.846278 1_546
La1 O10 2.943418 1_545
La2 O3 2.373960 1_455
La2 O11 2.440626 1_455
La2 O5 2.463639 1_455
La2 O2 2.553798 1_555
La2 O10 2.641064 1_555
La2 O4 2.643454 1_555
La2 O9 2.845849 1_555
La2 O7 2.943518 1_554
La3 O2 2.373847 1_565
La3 O10 2.440575 1_555
La3 O4 2.463718 1_555
La3 O3 2.553835 1_565
La3 O11 2.641225 1_555
La3 O5 2.643407 1_555
La3 O8 2.846113 1_564
La3 O6 2.943314 1_565
Mn0 O10 1.964061 1_555
Mn0 O6 1.964090 1_555
Mn0 O9 1.973180 1_555
Mn0 O5 1.973219 1_555
Mn0 O0 2.225351 1_555
Mn0 O2 2.225396 1_555
Mn1 O7 1.964109 1_655
Mn1 O11 1.964168 1_546
Mn1 O8 1.973134 1_555
Mn1 O4 1.973170 1_646
Mn1 O1 2.225522 1_645
Mn1 O3 2.225545 1_556
Ga0 O0 1.954505 1_555
Ga0 O2 1.954506 1_556
Ga0 O8 2.044991 1_555
Ga0 O4 2.045009 1_556
Ga0 O7 2.055938 1_555
Ga0 O11 2.055972 1_556
Ga1 O1 1.954308 1_545
Ga1 O3 1.954336 1_455
Ga1 O9 2.044943 1_555
Ga1 O5 2.044977 1_445
Ga1 O10 2.055953 1_545
Ga1 O6 2.055960 1_455
