# generated using pymatgen
data_Sr2ZnNi2(PO4)4
_symmetry_space_group_name_H-M   'P 1'
_cell_length_a   5.55054252
_cell_length_b   6.88480774
_cell_length_c   9.23982246
_cell_angle_alpha   110.26612088
_cell_angle_beta   101.49657368
_cell_angle_gamma   98.40806674
_symmetry_Int_Tables_number   1
_chemical_formula_structural   Sr2ZnNi2(PO4)4
_chemical_formula_sum   'Sr2 Zn1 Ni2 P4 O16'
_cell_volume   315.56560397
_cell_formula_units_Z   1
loop_
 _symmetry_equiv_pos_site_id
 _symmetry_equiv_pos_as_xyz
  1  'x, y, z'
loop_
 _atom_site_type_symbol
 _atom_site_label
 _atom_site_symmetry_multiplicity
 _atom_site_fract_x
 _atom_site_fract_y
 _atom_site_fract_z
 _atom_site_occupancy
  Sr  Sr0  1  0.25421400  0.79487800  0.05936600  1
  Sr  Sr1  1  0.74247200  0.20531600  0.94600300  1
  Zn  Zn0  1  0.99432600  0.44845900  0.63360200  1
  Ni  Ni0  1  0.65764300  0.84532300  0.55411500  1
  Ni  Ni1  1  0.35220100  0.13834800  0.44418300  1
  P  P0  1  0.39607600  0.42393400  0.23794900  1
  P  P1  1  0.59446400  0.57314600  0.76196900  1
  P  P2  1  0.84901300  0.02548600  0.30340600  1
  P  P3  1  0.15729900  0.97042900  0.70161200  1
  O  O0  1  0.81307300  0.56003600  0.88813300  1
  O  O1  1  0.63473400  0.46292700  0.18325100  1
  O  O2  1  0.63882300  0.79515000  0.75506400  1
  O  O3  1  0.95206700  0.10514900  0.69162300  1
  O  O4  1  0.33331400  0.51770600  0.79403000  1
  O  O5  1  0.00483100  0.73655300  0.59737900  1
  O  O6  1  0.00831000  0.25244300  0.42381300  1
  O  O7  1  0.27197200  0.00963000  0.87719100  1
  O  O8  1  0.35772700  0.20063800  0.24768900  1
  O  O9  1  0.73851300  0.00175000  0.13173500  1
  O  O10  1  0.17315200  0.43730600  0.11386300  1
  O  O11  1  0.39913000  0.59500000  0.39997400  1
  O  O12  1  0.60826300  0.40124900  0.59849200  1
  O  O13  1  0.62611500  0.95122800  0.36752200  1
  O  O14  1  0.05723700  0.89364100  0.30510600  1
  O  O15  1  0.37485100  0.03841700  0.63016100  1
loop_
_geom_bond_atom_site_label_1
_geom_bond_atom_site_label_2
_geom_bond_distance
_geom_bond_site_symmetry_2
Ni0 O11 1.954303 1_555
Ni0 O2 2.022072 1_555
Ni0 O3 2.056166 1_565
Ni0 O13 2.079098 1_555
Ni0 O5 2.180957 1_655
Ni0 O15 2.264428 1_565
Ni1 O12 1.995288 1_555
Ni1 O14 2.006263 1_545
Ni1 O8 2.009701 1_555
Ni1 O15 2.049459 1_555
Ni1 O6 2.166476 1_555
Ni1 O13 2.200650 1_545
O0 P1 1.542884 1_555
O0 Sr0 2.576572 1_656
O0 Sr1 2.666835 1_555
O1 P0 1.529427 1_555
O1 Sr1 2.539290 1_554
O2 P1 1.537735 1_555
O2 Sr1 2.662129 1_565
O3 P3 1.578880 1_645
O3 Sr1 2.748674 1_555
O4 P1 1.556363 1_555
O4 Zn0 2.025137 1_455
O4 Sr0 2.697767 1_556
O5 P3 1.561648 1_555
O5 Zn0 2.117412 1_455
O6 P2 1.568646 1_455
O6 Zn0 1.965473 1_455
O7 P3 1.531245 1_545
O7 Sr1 2.599079 1_555
O7 Sr0 2.603222 1_546
O8 P0 1.557125 1_555
O8 Sr0 2.631843 1_545
O9 P2 1.523894 1_555
O9 Sr1 2.565554 1_554
O9 Sr0 2.684351 1_545
O10 P0 1.547572 1_555
O10 Sr1 2.522002 1_454
O10 Sr0 2.672392 1_555
O11 P0 1.546358 1_555
O12 P1 1.588177 1_555
O12 Zn0 2.061284 1_555
O13 P2 1.568447 1_565
O13 Sr0 2.900173 1_555
O14 P2 1.571444 1_465
O14 Sr0 2.636424 1_555
O15 P3 1.574693 1_545
O15 Sr1 2.935665 1_555
