# generated using pymatgen
data_Ba2NaIn
_symmetry_space_group_name_H-M   'P 1'
_cell_length_a   14.39066530
_cell_length_b   14.47211405
_cell_length_c   14.47211439
_cell_angle_alpha   60.17627950
_cell_angle_beta   60.18600000
_cell_angle_gamma   60.18600153
_symmetry_Int_Tables_number   1
_chemical_formula_structural   Ba2NaIn
_chemical_formula_sum   'Ba2 Na1 In1'
_cell_volume   2140.04838483
_cell_formula_units_Z   1
loop_
 _symmetry_equiv_pos_site_id
 _symmetry_equiv_pos_as_xyz
  1  'x, y, z'
loop_
 _atom_site_type_symbol
 _atom_site_label
 _atom_site_symmetry_multiplicity
 _atom_site_fract_x
 _atom_site_fract_y
 _atom_site_fract_z
 _atom_site_occupancy
  Ba  Ba0  1  0.73176879  0.00000000  0.00000000  1
  Ba  Ba1  1  0.26823121  1.00000000  1.00000000  1
  Na  Na0  1  0.00000000  0.00000000  0.00000000  1
  In  In0  1  0.50000000  0.00000000  0.00000000  1
loop_
_geom_bond_atom_site_label_1
_geom_bond_atom_site_label_2
_geom_bond_distance
_geom_bond_site_symmetry_2
Ba0 In0 3.335307 1_555
Ba0 Na0 3.860026 1_655
Ba1 In0 3.335307 1_566
Ba1 Na0 3.860026 1_566
