# generated using pymatgen
data_Ca2Mg
_symmetry_space_group_name_H-M   'P 1'
_cell_length_a   14.96925319
_cell_length_b   14.96925319
_cell_length_c   15.60816046
_cell_angle_alpha   74.87505007
_cell_angle_beta   74.87505007
_cell_angle_gamma   30.23052727
_symmetry_Int_Tables_number   1
_chemical_formula_structural   Ca2Mg
_chemical_formula_sum   'Ca32 Mg16'
_cell_volume   1695.36393509
_cell_formula_units_Z   16
loop_
 _symmetry_equiv_pos_site_id
 _symmetry_equiv_pos_as_xyz
  1  'x, y, z'
loop_
 _atom_site_type_symbol
 _atom_site_label
 _atom_site_symmetry_multiplicity
 _atom_site_fract_x
 _atom_site_fract_y
 _atom_site_fract_z
 _atom_site_occupancy
  Ca  Ca0_0  1  0.42548405  0.42548405  0.03761103  1
  Ca  Ca0_1  1  0.42548405  0.42548405  0.53761103  1
  Ca  Ca0_2  1  0.42548405  0.92548405  0.03761103  1
  Ca  Ca0_3  1  0.42548405  0.92548405  0.53761103  1
  Ca  Ca0_4  1  0.92548405  0.42548405  0.03761103  1
  Ca  Ca0_5  1  0.92548405  0.42548405  0.53761103  1
  Ca  Ca0_6  1  0.92548405  0.92548405  0.03761103  1
  Ca  Ca0_7  1  0.92548405  0.92548405  0.53761103  1
  Ca  Ca1_0  1  0.07301491  0.07301491  0.21379508  1
  Ca  Ca1_1  1  0.07301490  0.07301490  0.71379508  1
  Ca  Ca1_2  1  0.07301490  0.57301490  0.21379508  1
  Ca  Ca1_3  1  0.07301490  0.57301490  0.71379508  1
  Ca  Ca1_4  1  0.57301490  0.07301490  0.21379508  1
  Ca  Ca1_5  1  0.57301490  0.07301490  0.71379508  1
  Ca  Ca1_6  1  0.57301491  0.57301491  0.21379508  1
  Ca  Ca1_7  1  0.57301490  0.57301490  0.71379508  1
  Ca  Ca2_0  1  0.42698509  0.42698509  0.28620492  1
  Ca  Ca2_1  1  0.42698509  0.42698509  0.78620492  1
  Ca  Ca2_2  1  0.42698509  0.92698509  0.28620492  1
  Ca  Ca2_3  1  0.42698509  0.92698510  0.78620492  1
  Ca  Ca2_4  1  0.92698509  0.42698509  0.28620492  1
  Ca  Ca2_5  1  0.92698510  0.42698509  0.78620492  1
  Ca  Ca2_6  1  0.92698509  0.92698509  0.28620492  1
  Ca  Ca2_7  1  0.92698509  0.92698509  0.78620492  1
  Ca  Ca3_0  1  0.07451595  0.07451595  0.46238897  1
  Ca  Ca3_1  1  0.07451595  0.07451595  0.96238897  1
  Ca  Ca3_2  1  0.07451595  0.57451595  0.46238897  1
  Ca  Ca3_3  1  0.07451595  0.57451595  0.96238897  1
  Ca  Ca3_4  1  0.57451595  0.07451595  0.46238897  1
  Ca  Ca3_5  1  0.57451595  0.07451595  0.96238897  1
  Ca  Ca3_6  1  0.57451595  0.57451595  0.46238897  1
  Ca  Ca3_7  1  0.57451595  0.57451595  0.96238897  1
  Mg  Mg0_0  1  0.24993075  0.24993076  0.12208043  1
  Mg  Mg0_1  1  0.24993075  0.24993076  0.62208043  1
  Mg  Mg0_2  1  0.24993075  0.74993075  0.12208043  1
  Mg  Mg0_3  1  0.24993075  0.74993075  0.62208043  1
  Mg  Mg0_4  1  0.74993076  0.24993075  0.12208043  1
  Mg  Mg0_5  1  0.74993076  0.24993075  0.62208043  1
  Mg  Mg0_6  1  0.74993075  0.74993075  0.12208044  1
  Mg  Mg0_7  1  0.74993076  0.74993076  0.62208043  1
  Mg  Mg1_0  1  0.25006924  0.25006924  0.37791956  1
  Mg  Mg1_1  1  0.25006924  0.25006924  0.87791956  1
  Mg  Mg1_2  1  0.25006924  0.75006924  0.37791957  1
  Mg  Mg1_3  1  0.25006924  0.75006924  0.87791956  1
  Mg  Mg1_4  1  0.75006925  0.25006924  0.37791957  1
  Mg  Mg1_5  1  0.75006924  0.25006924  0.87791956  1
  Mg  Mg1_6  1  0.75006925  0.75006925  0.37791956  1
  Mg  Mg1_7  1  0.75006925  0.75006925  0.87791956  1
loop_
_geom_bond_atom_site_label_1
_geom_bond_atom_site_label_2
_geom_bond_distance
_geom_bond_site_symmetry_2
Ca0_0 Mg0_2 3.422088 1_555
Ca0_0 Mg0_4 3.422088 1_555
Ca0_0 Mg1_5 3.429917 1_554
Ca0_0 Mg1_3 3.429917 1_554
Ca0_0 Ca2_0 3.892043 1_555
Ca0_0 Ca0_6 3.903408 1_545
Ca0_0 Ca0_6 3.903408 1_455
Ca0_0 Ca2_1 3.912484 1_554
Ca0_0 Ca3_5 3.944094 1_554
Ca0_0 Ca3_3 3.944094 1_554
Ca0_0 Ca1_4 3.967376 1_555
Ca0_0 Ca1_2 3.967376 1_555
Ca0_1 Mg0_3 3.422088 1_555
Ca0_1 Mg0_5 3.422088 1_555
Ca0_1 Mg1_2 3.429917 1_555
Ca0_1 Mg1_4 3.429917 1_555
Ca0_1 Ca2_1 3.892043 1_555
Ca0_1 Ca0_7 3.903408 1_455
Ca0_1 Ca0_7 3.903408 1_545
Ca0_1 Ca2_0 3.912484 1_555
Ca0_1 Ca3_4 3.944094 1_555
Ca0_1 Ca3_2 3.944094 1_555
Ca0_1 Ca1_5 3.967376 1_555
Ca0_1 Ca1_3 3.967376 1_555
Ca0_2 Mg0_6 3.422088 1_555
Ca0_2 Mg0_0 3.422088 1_565
Ca0_2 Mg1_1 3.429917 1_564
Ca0_2 Mg1_7 3.429917 1_554
Ca0_2 Ca2_2 3.892043 1_555
Ca0_2 Ca0_4 3.903408 1_465
Ca0_2 Ca0_4 3.903408 1_555
Ca0_2 Ca2_3 3.912484 1_554
Ca0_2 Ca3_7 3.944094 1_554
Ca0_2 Ca3_1 3.944094 1_564
Ca0_2 Ca1_6 3.967376 1_555
Ca0_2 Ca1_0 3.967376 1_565
Ca0_3 Mg0_1 3.422088 1_565
Ca0_3 Mg0_7 3.422088 1_555
Ca0_3 Mg1_0 3.429917 1_565
Ca0_3 Mg1_6 3.429917 1_555
Ca0_3 Ca2_3 3.892043 1_555
Ca0_3 Ca0_5 3.903408 1_465
Ca0_3 Ca0_5 3.903408 1_555
Ca0_3 Ca2_2 3.912484 1_555
Ca0_3 Ca3_0 3.944094 1_565
Ca0_3 Ca3_6 3.944094 1_555
Ca0_3 Ca1_7 3.967376 1_555
Ca0_3 Ca1_1 3.967376 1_565
Ca0_4 Mg0_6 3.422088 1_555
Ca0_4 Mg0_0 3.422088 1_655
Ca0_4 Mg1_1 3.429917 1_654
Ca0_4 Mg1_7 3.429917 1_554
Ca0_4 Ca2_4 3.892043 1_555
Ca0_4 Ca2_5 3.912484 1_554
Ca0_4 Ca3_1 3.944094 1_654
Ca0_4 Ca3_7 3.944094 1_554
Ca0_4 Ca1_6 3.967376 1_555
Ca0_4 Ca1_0 3.967376 1_655
Ca0_5 Mg0_1 3.422088 1_655
Ca0_5 Mg0_7 3.422088 1_555
Ca0_5 Mg1_0 3.429917 1_655
Ca0_5 Mg1_6 3.429917 1_555
Ca0_5 Ca2_5 3.892043 1_555
Ca0_5 Ca2_4 3.912484 1_555
Ca0_5 Ca3_0 3.944094 1_655
Ca0_5 Ca3_6 3.944094 1_555
Ca0_5 Ca1_7 3.967376 1_555
Ca0_5 Ca1_1 3.967376 1_655
Ca0_6 Mg0_2 3.422088 1_655
Ca0_6 Mg0_4 3.422088 1_565
Ca0_6 Mg1_3 3.429917 1_654
Ca0_6 Mg1_5 3.429917 1_564
Ca0_6 Ca2_6 3.892043 1_555
Ca0_6 Ca2_7 3.912484 1_554
Ca0_6 Ca3_5 3.944094 1_564
Ca0_6 Ca3_3 3.944094 1_654
Ca0_6 Ca1_4 3.967376 1_565
Ca0_6 Ca1_2 3.967376 1_655
Ca0_7 Mg0_3 3.422088 1_655
Ca0_7 Mg0_5 3.422088 1_565
Ca0_7 Mg1_2 3.429917 1_655
Ca0_7 Mg1_4 3.429917 1_565
Ca0_7 Ca2_7 3.892043 1_555
Ca0_7 Ca2_6 3.912484 1_555
Ca0_7 Ca3_4 3.944094 1_565
Ca0_7 Ca3_2 3.944094 1_655
Ca0_7 Ca1_3 3.967376 1_655
Ca0_7 Ca1_5 3.967376 1_565
Ca1_0 Mg1_4 3.449198 1_455
Ca1_0 Mg1_2 3.449198 1_545
Ca1_0 Mg0_4 3.457570 1_455
Ca1_0 Mg0_2 3.457570 1_545
Ca1_0 Ca3_0 3.892043 1_555
Ca1_0 Ca1_6 3.903408 1_455
Ca1_0 Ca1_6 3.903408 1_545
Ca1_0 Ca3_1 3.912484 1_554
Ca1_0 Ca2_2 3.994053 1_545
Ca1_0 Ca2_4 3.994053 1_455
Ca1_0 Ca2_6 4.063594 1_445
Ca1_1 Mg1_5 3.449198 1_455
Ca1_1 Mg1_3 3.449198 1_545
Ca1_1 Mg0_5 3.457570 1_455
Ca1_1 Mg0_3 3.457570 1_545
Ca1_1 Ca3_1 3.892043 1_555
Ca1_1 Ca1_7 3.903408 1_545
Ca1_1 Ca1_7 3.903408 1_455
Ca1_1 Ca3_0 3.912484 1_555
Ca1_1 Ca2_5 3.994053 1_455
Ca1_1 Ca2_3 3.994053 1_545
Ca1_1 Ca2_7 4.063594 1_445
Ca1_2 Mg1_6 3.449198 1_455
Ca1_2 Mg1_0 3.449198 1_555
Ca1_2 Mg0_0 3.457570 1_555
Ca1_2 Mg0_6 3.457570 1_455
Ca1_2 Ca3_2 3.892043 1_555
Ca1_2 Ca1_4 3.903408 1_555
Ca1_2 Ca1_4 3.903408 1_465
Ca1_2 Ca3_3 3.912484 1_554
Ca1_2 Ca2_6 3.994053 1_455
Ca1_2 Ca2_0 3.994053 1_555
Ca1_2 Ca2_4 4.063594 1_455
Ca1_3 Mg1_7 3.449198 1_455
Ca1_3 Mg1_1 3.449198 1_555
Ca1_3 Mg0_7 3.457570 1_455
Ca1_3 Mg0_1 3.457570 1_555
Ca1_3 Ca3_3 3.892043 1_555
Ca1_3 Ca1_5 3.903408 1_555
Ca1_3 Ca1_5 3.903408 1_465
Ca1_3 Ca3_2 3.912484 1_555
Ca1_3 Ca2_7 3.994053 1_455
Ca1_3 Ca2_1 3.994053 1_555
Ca1_3 Ca2_5 4.063594 1_455
Ca1_4 Mg1_6 3.449198 1_545
Ca1_4 Mg1_0 3.449198 1_555
Ca1_4 Mg0_0 3.457570 1_555
Ca1_4 Mg0_6 3.457570 1_545
Ca1_4 Ca3_4 3.892043 1_555
Ca1_4 Ca3_5 3.912484 1_554
Ca1_4 Ca2_6 3.994053 1_545
Ca1_4 Ca2_0 3.994053 1_555
Ca1_4 Ca2_2 4.063594 1_545
Ca1_5 Mg1_7 3.449198 1_545
Ca1_5 Mg1_1 3.449198 1_555
Ca1_5 Mg0_7 3.457570 1_545
Ca1_5 Mg0_1 3.457570 1_555
Ca1_5 Ca3_5 3.892043 1_555
Ca1_5 Ca3_4 3.912484 1_555
Ca1_5 Ca2_7 3.994053 1_545
Ca1_5 Ca2_1 3.994053 1_555
Ca1_5 Ca2_3 4.063594 1_545
Ca1_6 Mg1_4 3.449198 1_555
Ca1_6 Mg1_2 3.449198 1_555
Ca1_6 Mg0_4 3.457570 1_555
Ca1_6 Mg0_2 3.457570 1_555
Ca1_6 Ca3_6 3.892043 1_555
Ca1_6 Ca3_7 3.912484 1_554
Ca1_6 Ca2_2 3.994053 1_555
Ca1_6 Ca2_4 3.994053 1_555
Ca1_6 Ca2_0 4.063594 1_555
Ca1_7 Mg1_5 3.449198 1_555
Ca1_7 Mg1_3 3.449198 1_555
Ca1_7 Mg0_5 3.457570 1_555
Ca1_7 Mg0_3 3.457570 1_555
Ca1_7 Ca3_7 3.892043 1_555
Ca1_7 Ca3_6 3.912484 1_555
Ca1_7 Ca2_5 3.994053 1_555
Ca1_7 Ca2_3 3.994053 1_555
Ca1_7 Ca2_1 4.063594 1_555
Ca2_0 Mg0_2 3.449198 1_555
Ca2_0 Mg0_4 3.449198 1_555
Ca2_0 Mg1_2 3.457570 1_555
Ca2_0 Mg1_4 3.457570 1_555
Ca2_0 Ca2_6 3.903408 1_455
Ca2_0 Ca2_6 3.903408 1_545
Ca2_0 Ca3_4 3.967376 1_555
Ca2_0 Ca3_2 3.967376 1_555
Ca2_1 Mg0_3 3.449198 1_555
Ca2_1 Mg0_5 3.449198 1_555
Ca2_1 Mg1_3 3.457570 1_555
Ca2_1 Mg1_5 3.457570 1_555
Ca2_1 Ca2_7 3.903408 1_455
Ca2_1 Ca2_7 3.903408 1_545
Ca2_1 Ca3_5 3.967376 1_555
Ca2_1 Ca3_3 3.967376 1_555
Ca2_2 Mg0_6 3.449198 1_555
Ca2_2 Mg0_0 3.449198 1_565
Ca2_2 Mg1_0 3.457570 1_565
Ca2_2 Mg1_6 3.457570 1_555
Ca2_2 Ca2_4 3.903408 1_555
Ca2_2 Ca2_4 3.903408 1_465
Ca2_2 Ca3_0 3.967376 1_565
Ca2_2 Ca3_6 3.967376 1_555
Ca2_3 Mg0_7 3.449198 1_555
Ca2_3 Mg0_1 3.449198 1_565
Ca2_3 Mg1_1 3.457570 1_565
Ca2_3 Mg1_7 3.457570 1_555
Ca2_3 Ca2_5 3.903408 1_465
Ca2_3 Ca2_5 3.903408 1_555
Ca2_3 Ca3_7 3.967376 1_555
Ca2_3 Ca3_1 3.967376 1_565
Ca2_4 Mg0_6 3.449198 1_555
Ca2_4 Mg0_0 3.449198 1_655
Ca2_4 Mg1_0 3.457570 1_655
Ca2_4 Mg1_6 3.457570 1_555
Ca2_4 Ca3_0 3.967376 1_655
Ca2_4 Ca3_6 3.967376 1_555
Ca2_5 Mg0_1 3.449198 1_655
Ca2_5 Mg0_7 3.449198 1_555
Ca2_5 Mg1_1 3.457570 1_655
Ca2_5 Mg1_7 3.457570 1_555
Ca2_5 Ca3_1 3.967376 1_655
Ca2_5 Ca3_7 3.967376 1_555
Ca2_6 Mg0_2 3.449198 1_655
Ca2_6 Mg0_4 3.449198 1_565
Ca2_6 Mg1_2 3.457570 1_655
Ca2_6 Mg1_4 3.457570 1_565
Ca2_6 Ca3_4 3.967376 1_565
Ca2_6 Ca3_2 3.967376 1_655
Ca2_7 Mg0_3 3.449198 1_655
Ca2_7 Mg0_5 3.449198 1_565
Ca2_7 Mg1_3 3.457570 1_655
Ca2_7 Mg1_5 3.457570 1_565
Ca2_7 Ca3_5 3.967376 1_565
Ca2_7 Ca3_3 3.967376 1_655
Ca3_0 Mg1_4 3.422088 1_455
Ca3_0 Mg1_2 3.422088 1_545
Ca3_0 Mg0_5 3.429917 1_455
Ca3_0 Mg0_3 3.429917 1_545
Ca3_0 Ca3_6 3.903408 1_455
Ca3_0 Ca3_6 3.903408 1_545
Ca3_1 Mg1_5 3.422088 1_455
Ca3_1 Mg1_3 3.422088 1_545
Ca3_1 Mg0_4 3.429917 1_456
Ca3_1 Mg0_2 3.429917 1_546
Ca3_1 Ca3_7 3.903408 1_455
Ca3_1 Ca3_7 3.903408 1_545
Ca3_2 Mg1_6 3.422088 1_455
Ca3_2 Mg1_0 3.422088 1_555
Ca3_2 Mg0_7 3.429917 1_455
Ca3_2 Mg0_1 3.429917 1_555
Ca3_2 Ca3_4 3.903408 1_465
Ca3_2 Ca3_4 3.903408 1_555
Ca3_3 Mg1_7 3.422088 1_455
Ca3_3 Mg1_1 3.422088 1_555
Ca3_3 Mg0_0 3.429917 1_556
Ca3_3 Mg0_6 3.429917 1_456
Ca3_3 Ca3_5 3.903408 1_465
Ca3_3 Ca3_5 3.903408 1_555
Ca3_4 Mg1_6 3.422088 1_545
Ca3_4 Mg1_0 3.422088 1_555
Ca3_4 Mg0_7 3.429917 1_545
Ca3_4 Mg0_1 3.429917 1_555
Ca3_5 Mg1_7 3.422088 1_545
Ca3_5 Mg1_1 3.422088 1_555
Ca3_5 Mg0_6 3.429917 1_546
Ca3_5 Mg0_0 3.429917 1_556
Ca3_6 Mg1_4 3.422088 1_555
Ca3_6 Mg1_2 3.422088 1_555
Ca3_6 Mg0_5 3.429917 1_555
Ca3_6 Mg0_3 3.429917 1_555
Ca3_7 Mg1_5 3.422088 1_555
Ca3_7 Mg1_3 3.422088 1_555
Ca3_7 Mg0_2 3.429917 1_556
Ca3_7 Mg0_4 3.429917 1_556
