# generated using pymatgen
data_Ba(CoGe)2
_symmetry_space_group_name_H-M   'P 1'
_cell_length_a   6.81070982
_cell_length_b   6.81070982
_cell_length_c   6.81070982
_cell_angle_alpha   145.94592246
_cell_angle_beta   145.94592246
_cell_angle_gamma   48.92709311
_symmetry_Int_Tables_number   1
_chemical_formula_structural   Ba(CoGe)2
_chemical_formula_sum   'Ba1 Co2 Ge2'
_cell_volume   98.62706800
_cell_formula_units_Z   1
loop_
 _symmetry_equiv_pos_site_id
 _symmetry_equiv_pos_as_xyz
  1  'x, y, z'
loop_
 _atom_site_type_symbol
 _atom_site_label
 _atom_site_symmetry_multiplicity
 _atom_site_fract_x
 _atom_site_fract_y
 _atom_site_fract_z
 _atom_site_occupancy
  Ba  Ba0  1  0.00000000  0.00000000  0.00000000  1
  Co  Co0  1  0.75000000  0.25000000  0.50000000  1
  Co  Co1  1  0.25000000  0.75000000  0.50000000  1
  Ge  Ge0  1  0.65727588  0.65727588  0.00000000  1
  Ge  Ge1  1  0.34272412  0.34272412  -0.00000000  1
loop_
_geom_bond_atom_site_label_1
_geom_bond_atom_site_label_2
_geom_bond_distance
_geom_bond_site_symmetry_2
Ba0 Ge1 3.428877 1_556
Ba0 Ge0 3.428877 1_556
Ba0 Ge0 3.428877 1_444
Ba0 Ge1 3.428877 1_444
Ba0 Ge0 3.428877 1_545
Ba0 Ge1 3.428877 1_545
Ba0 Ge0 3.428877 1_455
Ba0 Ge1 3.428877 1_455
Co0 Ge0 2.301966 1_556
Co0 Ge1 2.301966 1_656
Co0 Ge0 2.301966 1_545
Co0 Ge1 2.301966 1_555
Co1 Ge1 2.301966 1_566
Co1 Ge0 2.301966 1_455
Co1 Ge0 2.301966 1_556
Co1 Ge1 2.301966 1_555
