# generated using pymatgen
data_PrSiIr
_symmetry_space_group_name_H-M   'P 1'
_cell_length_a   6.36483556
_cell_length_b   6.36483556
_cell_length_c   6.36483556
_cell_angle_alpha   90.00000000
_cell_angle_beta   90.00000000
_cell_angle_gamma   90.00000000
_symmetry_Int_Tables_number   1
_chemical_formula_structural   PrSiIr
_chemical_formula_sum   'Pr4 Si4 Ir4'
_cell_volume   257.84669166
_cell_formula_units_Z   4
loop_
 _symmetry_equiv_pos_site_id
 _symmetry_equiv_pos_as_xyz
  1  'x, y, z'
loop_
 _atom_site_type_symbol
 _atom_site_label
 _atom_site_symmetry_multiplicity
 _atom_site_fract_x
 _atom_site_fract_y
 _atom_site_fract_z
 _atom_site_occupancy
  Pr  Pr0  1  0.37425971  0.37425971  0.37425971  1
  Pr  Pr1  1  0.12574029  0.62574029  0.87425971  1
  Pr  Pr2  1  0.62574029  0.87425971  0.12574029  1
  Pr  Pr3  1  0.87425971  0.12574029  0.62574029  1
  Si  Si0  1  0.66079615  0.66079615  0.66079615  1
  Si  Si1  1  0.83920385  0.33920385  0.16079615  1
  Si  Si2  1  0.33920385  0.16079615  0.83920385  1
  Si  Si3  1  0.16079615  0.83920385  0.33920385  1
  Ir  Ir0  1  0.07037419  0.07037419  0.07037419  1
  Ir  Ir1  1  0.42962581  0.92962581  0.57037419  1
  Ir  Ir2  1  0.92962581  0.57037419  0.42962581  1
  Ir  Ir3  1  0.57037419  0.42962581  0.92962581  1
loop_
_geom_bond_atom_site_label_1
_geom_bond_atom_site_label_2
_geom_bond_distance
_geom_bond_site_symmetry_2
Pr0 Si0 3.158840 1_555
Pr0 Si3 3.263918 1_555
Pr0 Si1 3.263918 1_555
Pr0 Si2 3.263918 1_555
Pr1 Si1 3.158840 1_456
Pr1 Si0 3.263918 1_455
Pr1 Si2 3.263918 1_555
Pr1 Si3 3.263918 1_556
Pr2 Si2 3.158840 1_564
Pr2 Si3 3.263918 1_555
Pr2 Si0 3.263918 1_554
Pr2 Si1 3.263918 1_565
Pr3 Si3 3.158840 1_645
Pr3 Si0 3.263918 1_545
Pr3 Si1 3.263918 1_555
Pr3 Si2 3.263918 1_655
Ir0 Si3 2.328914 1_545
Ir0 Si1 2.328914 1_455
Ir0 Si2 2.328914 1_554
Ir0 Pr3 3.113085 1_454
Ir0 Pr2 3.113085 1_445
Ir0 Pr1 3.113085 1_544
Ir0 Pr0 3.350100 1_555
Ir1 Si2 2.328914 1_565
Ir1 Si0 2.328914 1_555
Ir1 Si3 2.328914 1_555
Ir1 Pr0 3.113085 1_565
Ir1 Pr2 3.113085 1_555
Ir1 Pr3 3.113085 1_565
Ir1 Pr1 3.350100 1_555
Ir2 Si3 2.328914 1_655
Ir2 Si0 2.328914 1_555
Ir2 Si1 2.328914 1_555
Ir2 Pr0 3.113085 1_655
Ir2 Pr1 3.113085 1_655
Ir2 Pr3 3.113085 1_555
Ir2 Pr2 3.350100 1_555
Ir3 Si1 2.328914 1_556
Ir3 Si2 2.328914 1_555
Ir3 Si0 2.328914 1_555
Ir3 Pr2 3.113085 1_556
Ir3 Pr1 3.113085 1_555
Ir3 Pr0 3.113085 1_556
Ir3 Pr3 3.350100 1_555
