# generated using pymatgen
data_Rb6Nb6H14O27
_symmetry_space_group_name_H-M   'P 1'
_cell_length_a   9.78291100
_cell_length_b   10.61741663
_cell_length_c   17.22372677
_cell_angle_alpha   106.86362249
_cell_angle_beta   88.28082143
_cell_angle_gamma   114.90232239
_symmetry_Int_Tables_number   1
_chemical_formula_structural   Rb6Nb6H14O27
_chemical_formula_sum   'Rb12 Nb12 H28 O54'
_cell_volume   1544.13091657
_cell_formula_units_Z   2
loop_
 _symmetry_equiv_pos_site_id
 _symmetry_equiv_pos_as_xyz
  1  'x, y, z'
loop_
 _atom_site_type_symbol
 _atom_site_label
 _atom_site_symmetry_multiplicity
 _atom_site_fract_x
 _atom_site_fract_y
 _atom_site_fract_z
 _atom_site_occupancy
  Rb  Rb0  1  0.43090700  0.41956100  0.36163600  1
  Rb  Rb1  1  0.56859200  0.58276500  0.63495200  1
  Rb  Rb2  1  0.71657100  0.75347500  0.96469200  1
  Rb  Rb3  1  0.28045800  0.24712600  0.03356300  1
  Rb  Rb4  1  0.89024400  0.21409000  0.14781700  1
  Rb  Rb5  1  0.10769600  0.78615900  0.85098600  1
  Rb  Rb6  1  0.12733700  0.96503900  0.43845300  1
  Rb  Rb7  1  0.87226900  0.03202000  0.56441600  1
  Rb  Rb8  1  0.53875300  0.08410500  0.29304300  1
  Rb  Rb9  1  0.46503400  0.91295000  0.70715100  1
  Rb  Rb10  1  0.59785400  0.78057000  0.17552100  1
  Rb  Rb11  1  0.40144900  0.21760100  0.82449600  1
  Nb  Nb0  1  0.78746400  0.51249700  0.18534000  1
  Nb  Nb1  1  0.21170400  0.48782400  0.81522200  1
  Nb  Nb2  1  0.25465200  0.71364900  0.35199800  1
  Nb  Nb3  1  0.74517300  0.28765700  0.64744300  1
  Nb  Nb4  1  0.98778500  0.35780700  0.34564200  1
  Nb  Nb5  1  0.01232800  0.64228700  0.65440800  1
  Nb  Nb6  1  0.03987600  0.84901600  0.19619900  1
  Nb  Nb7  1  0.96029500  0.14985700  0.80390100  1
  Nb  Nb8  1  0.16757300  0.60364700  0.18214600  1
  Nb  Nb9  1  0.83175300  0.39400200  0.81858200  1
  Nb  Nb10  1  0.86279300  0.60468200  0.36118000  1
  Nb  Nb11  1  0.13838500  0.39618200  0.63926400  1
  H  H0  1  0.35949900  0.69337100  0.02327100  1
  H  H1  1  0.64148700  0.30608100  0.97706500  1
  H  H2  1  0.48951800  0.91512100  0.90789600  1
  H  H3  1  0.51012600  0.08496300  0.09216400  1
  H  H4  1  0.10082700  0.64306400  0.48461700  1
  H  H5  1  0.89950400  0.35614400  0.51569000  1
  H  H6  1  0.27153700  0.25869300  0.53441900  1
  H  H7  1  0.72778100  0.74066000  0.46463100  1
  H  H8  1  0.84379300  0.52669300  0.94523900  1
  H  H9  1  0.15699500  0.47032100  0.05472900  1
  H  H10  1  0.40071400  0.20094200  0.54194900  1
  H  H11  1  0.59959500  0.79942700  0.45759300  1
  H  H12  1  0.88621000  0.01953600  0.05391800  1
  H  H13  1  0.11417600  0.98028300  0.94656400  1
  H  H14  1  0.38688000  0.66392500  0.94364400  1
  H  H15  1  0.61129000  0.33572200  0.05605000  1
  H  H16  1  0.92971200  0.57740300  0.02638400  1
  H  H17  1  0.06857200  0.42401000  0.97255600  1
  H  H18  1  0.62777500  0.05351700  0.86483600  1
  H  H19  1  0.37234800  0.94628600  0.13534600  1
  H  H20  1  0.20819400  0.45415800  0.46796600  1
  H  H21  1  0.79154100  0.54608600  0.53171500  1
  H  H22  1  0.81054900  0.00099100  0.34340500  1
  H  H23  1  0.19002600  0.99792500  0.65717500  1
  H  H24  1  0.80793600  0.08923200  0.97075700  1
  H  H25  1  0.19246800  0.91024500  0.02941300  1
  H  H26  1  0.83817200  0.91322400  0.29421000  1
  H  H27  1  0.16138300  0.08586000  0.70566200  1
  O  O0  1  0.42271400  0.78584400  0.41960300  1
  O  O1  1  0.57722700  0.21455700  0.58066000  1
  O  O2  1  0.08776300  0.68605300  0.42405700  1
  O  O3  1  0.91255400  0.31427100  0.57643400  1
  O  O4  1  0.75607800  0.60782300  0.43371000  1
  O  O5  1  0.24369400  0.39198200  0.56672100  1
  O  O6  1  0.81063400  0.33184600  0.26324900  1
  O  O7  1  0.18888400  0.66832300  0.73686600  1
  O  O8  1  0.28216800  0.60417400  0.11191000  1
  O  O9  1  0.71898900  0.39131100  0.88944800  1
  O  O10  1  0.78295700  0.97662000  0.29075800  1
  O  O11  1  0.21889000  0.02470400  0.70919400  1
  O  O12  1  0.29741000  0.19472400  0.51439600  1
  O  O13  1  0.70335600  0.80596700  0.48430700  1
  O  O14  1  0.88399900  0.41133800  0.41337100  1
  O  O15  1  0.11619200  0.58852400  0.58710500  1
  O  O16  1  0.91844200  0.80577200  0.28992900  1
  O  O17  1  0.08163300  0.19512700  0.71042500  1
  O  O18  1  0.95491700  0.52801300  0.12993700  1
  O  O19  1  0.04299100  0.47189200  0.87013900  1
  O  O20  1  0.70659000  0.52999600  0.27761000  1
  O  O21  1  0.29533100  0.47063400  0.72297000  1
  O  O22  1  0.90383800  0.61205000  0.96667900  1
  O  O23  1  0.09080000  0.38727400  0.03248300  1
  O  O24  1  0.97017800  0.17666100  0.40168400  1
  O  O25  1  0.03215700  0.82312900  0.59772400  1
  O  O26  1  0.12322000  0.40947800  0.26133300  1
  O  O27  1  0.87573700  0.59087100  0.73847300  1
  O  O28  1  0.02392100  0.60885500  0.27763100  1
  O  O29  1  0.97525300  0.39145400  0.72220300  1
  O  O30  1  0.84952300  0.72507400  0.14276500  1
  O  O31  1  0.14866500  0.27383400  0.85711700  1
  O  O32  1  0.78644600  0.01513900  0.02322900  1
  O  O33  1  0.21392200  0.98374200  0.97668200  1
  O  O34  1  0.04491600  0.02530200  0.13655500  1
  O  O35  1  0.95345300  0.97233000  0.86331100  1
  O  O36  1  0.61694500  0.20194300  0.43981500  1
  O  O37  1  0.38183100  0.79774400  0.55767000  1
  O  O38  1  0.40748600  0.74055700  0.97091000  1
  O  O39  1  0.59318600  0.25915300  0.02934000  1
  O  O40  1  0.51893600  0.99313700  0.85746600  1
  O  O41  1  0.48127800  0.00660200  0.14251400  1
  O  O42  1  0.19401600  0.48601700  0.40674400  1
  O  O43  1  0.80576300  0.51428600  0.59297100  1
  O  O44  1  0.33317300  0.68160200  0.26966800  1
  O  O45  1  0.66651300  0.31845300  0.73018400  1
  O  O46  1  0.16522700  0.80502000  0.13841100  1
  O  O47  1  0.83447100  0.19312100  0.86161000  1
  O  O48  1  0.61913800  0.44270200  0.11633400  1
  O  O49  1  0.37484500  0.55601100  0.88500300  1
  O  O50  1  0.22420900  0.88657000  0.28365200  1
  O  O51  1  0.77567800  0.11421600  0.71687400  1
  O  O52  1  0.38151300  0.38205600  0.17417600  1
  O  O53  1  0.75769800  0.82327100  0.72247700  1
loop_
_geom_bond_atom_site_label_1
_geom_bond_atom_site_label_2
_geom_bond_distance
_geom_bond_site_symmetry_2
Nb0 O20 1.750197 1_555
Nb0 O48 1.803392 1_555
Nb0 O18 1.841600 1_555
Nb0 O28 2.491710 1_655
Nb0 O6 2.721876 1_555
Nb1 O21 1.762610 1_555
Nb1 O49 1.775687 1_555
Nb1 O19 1.847023 1_555
Nb1 O29 2.498520 1_455
Nb1 O7 2.724499 1_555
Nb2 O44 1.609806 1_555
Nb2 O0 1.783896 1_555
Nb2 O2 1.994584 1_555
Nb2 O28 2.281502 1_555
Nb2 O50 2.565285 1_555
Nb3 O45 1.614235 1_555
Nb3 O1 1.773824 1_555
Nb3 O3 1.986876 1_555
Nb3 O29 2.280456 1_555
Nb3 O51 2.583049 1_555
Nb4 O14 1.656802 1_555
Nb4 O26 1.974773 1_655
Nb4 O42 2.003599 1_655
Nb4 O6 2.147478 1_555
Nb4 O24 2.334226 1_555
Nb5 O15 1.654060 1_555
Nb5 O27 1.976925 1_455
Nb5 O43 2.007856 1_455
Nb5 O7 2.143389 1_555
Nb5 O25 2.332398 1_555
Nb6 O46 1.688817 1_555
Nb6 O30 1.839285 1_455
Nb6 O16 2.020880 1_455
Nb6 O50 2.211054 1_555
Nb6 O34 2.365555 1_565
Nb7 O47 1.688787 1_555
Nb7 O31 1.824083 1_655
Nb7 O17 2.021392 1_655
Nb7 O51 2.215791 1_555
Nb7 O35 2.369172 1_545
Nb8 O8 1.624051 1_555
Nb8 O44 1.968618 1_555
Nb8 O18 2.016903 1_455
Nb8 O28 2.134657 1_555
Nb8 O26 2.672284 1_555
Nb8 O50 2.827814 1_555
Nb9 O9 1.618791 1_555
Nb9 O45 1.980362 1_555
Nb9 O19 1.996946 1_655
Nb9 O29 2.143184 1_555
Nb9 O51 2.803616 1_555
Nb10 O4 1.605771 1_555
Nb10 O20 1.866834 1_555
Nb10 O28 2.097511 1_655
Nb10 O2 2.182183 1_655
Nb10 O6 2.732931 1_555
Nb11 O5 1.598011 1_555
Nb11 O21 1.873594 1_555
Nb11 O29 2.104150 1_455
Nb11 O3 2.188083 1_455
Nb11 O7 2.729179 1_555
H0 O38 1.150386 1_554
H1 O39 1.148340 1_556
H2 O40 1.313425 1_555
H3 O41 1.315337 1_555
H4 O2 1.282967 1_555
H5 O3 1.278378 1_555
H6 O12 0.804943 1_555
H6 O5 1.498399 1_555
H7 O13 0.806890 1_555
H7 O4 1.494527 1_555
H8 O22 0.820532 1_555
H8 O9 1.507078 1_555
H9 O23 0.825622 1_555
H9 O8 1.511271 1_555
H10 O12 1.097872 1_555
H11 O13 1.094099 1_555
H12 O32 1.101082 1_555
H12 Rb4 2.209307 1_555
H13 O33 1.100809 1_555
H13 Rb5 2.211286 1_555
H14 O38 0.754351 1_555
H14 O49 1.252553 1_555
H15 O39 0.755357 1_555
H15 O48 1.273277 1_555
H16 O22 1.253154 1_554
H17 O23 1.258276 1_556
H18 O40 0.973070 1_545
H19 O41 0.973794 1_565
H20 O42 1.225071 1_555
H20 Rb0 2.877553 1_555
H21 O43 1.225375 1_555
H21 Rb1 2.855065 1_555
H22 O10 0.884192 1_545
H23 O11 0.873550 1_565
H24 O32 1.319721 1_556
H25 O33 1.318976 1_554
H26 O10 1.039093 1_555
H26 O16 1.620447 1_555
H27 O11 1.036544 1_555
H27 O17 1.632334 1_555
O2 Rb6 2.756691 1_555
O3 Rb7 2.798074 1_555
O4 Rb0 3.016357 1_555
O5 Rb1 3.001288 1_555
O6 Rb4 2.325392 1_555
O6 Rb8 3.010990 1_555
O7 Rb5 2.318619 1_555
O7 Rb9 3.014214 1_555
O8 Rb10 2.896083 1_555
O9 Rb11 2.913709 1_555
O10 Rb10 2.489124 1_555
O10 Rb8 3.045599 1_565
O11 Rb11 2.469975 1_555
O11 Rb9 3.095878 1_545
O12 Rb6 2.299816 1_545
O13 Rb7 2.295719 1_565
O16 Rb6 2.910930 1_655
O18 Rb4 3.226810 1_555
O19 Rb5 3.238901 1_555
O20 Rb0 2.971580 1_555
O21 Rb1 2.997639 1_555
O22 Rb2 2.821772 1_555
O22 Rb5 3.187372 1_655
O23 Rb3 2.828468 1_555
O23 Rb4 3.166051 1_455
O26 Rb4 2.693188 1_455
O27 Rb5 2.678475 1_655
O30 Rb10 2.769962 1_555
O31 Rb11 2.784441 1_555
O32 Rb4 2.406733 1_555
O32 Rb2 2.453376 1_544
O33 Rb5 2.414922 1_555
O33 Rb3 2.473759 1_566
O34 Rb4 2.942116 1_455
O35 Rb5 2.911754 1_655
O36 Rb8 2.452771 1_555
O37 Rb9 2.499503 1_555
O40 Rb9 2.476031 1_555
O40 Rb11 3.233335 1_565
O41 Rb8 2.485002 1_555
O41 Rb10 3.243241 1_545
O42 Rb0 2.724553 1_555
O43 Rb1 2.729447 1_555
O44 Rb10 2.980546 1_555
O45 Rb11 2.987895 1_555
O50 Rb6 2.815250 1_555
O50 Rb8 2.879551 1_565
O51 Rb7 2.786731 1_555
O51 Rb9 2.860760 1_545
O52 Rb3 2.415188 1_555
O52 Rb0 3.162684 1_555
O53 Rb1 2.484203 1_555
O53 Rb9 3.414767 1_555
