# generated using pymatgen
data_CeMg6Bi
_symmetry_space_group_name_H-M   'P 1'
_cell_length_a   6.80347881
_cell_length_b   6.80347881
_cell_length_c   5.14987900
_cell_angle_alpha   90.00000000
_cell_angle_beta   90.00000000
_cell_angle_gamma   119.04568793
_symmetry_Int_Tables_number   1
_chemical_formula_structural   CeMg6Bi
_chemical_formula_sum   'Ce1 Mg6 Bi1'
_cell_volume   208.39448161
_cell_formula_units_Z   1
loop_
 _symmetry_equiv_pos_site_id
 _symmetry_equiv_pos_as_xyz
  1  'x, y, z'
loop_
 _atom_site_type_symbol
 _atom_site_label
 _atom_site_symmetry_multiplicity
 _atom_site_fract_x
 _atom_site_fract_y
 _atom_site_fract_z
 _atom_site_occupancy
  Ce  Ce0  1  0.82971200  0.17028800  0.00000000  1
  Mg  Mg0  1  0.83926500  0.68370200  0.00000000  1
  Mg  Mg1  1  0.31629800  0.16073500  0.00000000  1
  Mg  Mg2  1  0.33901000  0.66099000  0.00000000  1
  Mg  Mg3  1  0.65578600  0.81031400  0.50000000  1
  Mg  Mg4  1  0.18968600  0.34421400  0.50000000  1
  Mg  Mg5  1  0.16793200  0.83206800  0.50000000  1
  Bi  Bi0  1  0.66231000  0.33769000  0.50000000  1
loop_
_geom_bond_atom_site_label_1
_geom_bond_atom_site_label_2
_geom_bond_distance
_geom_bond_site_symmetry_2
Ce0 Mg1 3.342515 1_655
Ce0 Mg0 3.342515 1_545
Ce0 Mg3 3.348805 1_545
Ce0 Mg4 3.348805 1_655
Ce0 Mg4 3.348805 1_654
Ce0 Mg3 3.348805 1_544
Ce0 Mg2 3.452411 1_545
Ce0 Mg2 3.452411 1_655
Ce0 Mg0 3.461913 1_555
Ce0 Mg1 3.461913 1_555
Mg0 Mg3 3.158272 1_555
Mg0 Mg3 3.158272 1_554
Mg0 Mg5 3.233818 1_655
Mg0 Mg5 3.233818 1_654
Mg0 Mg1 3.292185 1_665
Mg0 Mg2 3.331194 1_555
Mg0 Mg2 3.477650 1_655
Mg1 Mg4 3.158272 1_554
Mg1 Mg4 3.158272 1_555
Mg1 Mg5 3.233818 1_545
Mg1 Mg5 3.233818 1_544
Mg1 Mg2 3.331194 1_555
Mg1 Mg2 3.477650 1_545
Mg2 Mg3 3.190796 1_554
Mg2 Mg3 3.190796 1_555
Mg2 Mg4 3.190796 1_555
Mg2 Mg4 3.190796 1_554
Mg2 Mg5 3.264232 1_555
Mg2 Mg5 3.264232 1_554
Mg3 Mg4 3.216732 1_555
Mg3 Mg5 3.393428 1_555
Mg3 Mg5 3.414970 1_655
Mg4 Mg5 3.393428 1_555
Mg4 Mg5 3.414970 1_545
Bi0 Mg4 3.237270 1_555
Bi0 Mg3 3.237270 1_555
Bi0 Ce0 3.237916 1_556
Bi0 Ce0 3.237916 1_555
Bi0 Mg0 3.296888 1_555
Bi0 Mg0 3.296888 1_556
Bi0 Mg1 3.296888 1_555
Bi0 Mg1 3.296888 1_556
Bi0 Mg5 3.451319 1_655
Bi0 Mg5 3.451319 1_545
Bi0 Mg3 3.566653 1_545
Bi0 Mg4 3.566653 1_655
