# generated using pymatgen
data_LiPr2RuO6
_symmetry_space_group_name_H-M   'P 1'
_cell_length_a   5.80231200
_cell_length_b   5.51149700
_cell_length_c   9.53885012
_cell_angle_alpha   55.18207806
_cell_angle_beta   90.00000000
_cell_angle_gamma   90.00000000
_symmetry_Int_Tables_number   1
_chemical_formula_structural   LiPr2RuO6
_chemical_formula_sum   'Li2 Pr4 Ru2 O12'
_cell_volume   250.43458821
_cell_formula_units_Z   2
loop_
 _symmetry_equiv_pos_site_id
 _symmetry_equiv_pos_as_xyz
  1  'x, y, z'
loop_
 _atom_site_type_symbol
 _atom_site_label
 _atom_site_symmetry_multiplicity
 _atom_site_fract_x
 _atom_site_fract_y
 _atom_site_fract_z
 _atom_site_occupancy
  Li  Li0  1  0.50000000  0.50000000  0.00000000  1
  Li  Li1  1  0.00000000  0.50000000  0.50000000  1
  Pr  Pr0  1  0.06671500  0.73364000  0.75126000  1
  Pr  Pr1  1  0.93328500  0.26636000  0.24874000  1
  Pr  Pr2  1  0.56671500  0.26636000  0.74874000  1
  Pr  Pr3  1  0.43328500  0.73364000  0.25126000  1
  Ru  Ru0  1  0.50000000  0.00000000  0.50000000  1
  Ru  Ru1  1  0.00000000  0.00000000  0.00000000  1
  O  O0  1  0.47369500  0.84959500  0.74377800  1
  O  O1  1  0.52630500  0.15040500  0.25622200  1
  O  O2  1  0.97369500  0.15040500  0.75622200  1
  O  O3  1  0.02630500  0.84959500  0.24377800  1
  O  O4  1  0.31116200  0.66144300  0.54677700  1
  O  O5  1  0.68883800  0.33855700  0.45322300  1
  O  O6  1  0.81116200  0.33855700  0.95322300  1
  O  O7  1  0.18883800  0.66144300  0.04677700  1
  O  O8  1  0.78707800  0.76425300  0.55045700  1
  O  O9  1  0.21292200  0.23574700  0.44954300  1
  O  O10  1  0.28707800  0.23574700  0.94954300  1
  O  O11  1  0.71292200  0.76425300  0.05045700  1
loop_
_geom_bond_atom_site_label_1
_geom_bond_atom_site_label_2
_geom_bond_distance
_geom_bond_site_symmetry_2
Li0 O1 2.081259 1_555
Li0 O0 2.081259 1_554
Li0 O11 2.163245 1_555
Li0 O10 2.163245 1_554
Li0 O6 2.168844 1_554
Li0 O7 2.168844 1_555
Li1 O3 2.081259 1_555
Li1 O2 2.081259 1_455
Li1 O8 2.163245 1_455
Li1 O9 2.163245 1_555
Li1 O4 2.168844 1_555
Li1 O5 2.168844 1_455
O0 Ru0 1.979025 1_565
O0 Pr2 2.386191 1_565
O0 Pr0 2.436753 1_555
O1 Ru0 1.979025 1_555
O1 Pr3 2.386191 1_545
O1 Pr1 2.436753 1_555
O2 Ru1 1.979025 1_656
O2 Pr0 2.386191 1_645
O2 Pr2 2.436753 1_555
O3 Ru1 1.979025 1_565
O3 Pr1 2.386191 1_465
O3 Pr3 2.436753 1_555
O4 Ru0 1.982592 1_565
O4 Pr2 2.420992 1_555
O4 Pr0 2.619344 1_555
O4 Pr3 2.706605 1_555
O5 Ru0 1.982592 1_555
O5 Pr3 2.420992 1_555
O5 Pr1 2.619344 1_555
O5 Pr2 2.706605 1_555
O6 Ru1 1.982592 1_656
O6 Pr0 2.420992 1_655
O6 Pr2 2.619344 1_555
O6 Pr1 2.706605 1_556
O7 Ru1 1.982592 1_565
O7 Pr1 2.420992 1_455
O7 Pr3 2.619344 1_555
O7 Pr0 2.706605 1_554
O8 Ru0 1.995084 1_565
O8 Pr0 2.441501 1_655
O8 Pr2 2.610662 1_555
O8 Pr1 2.750634 1_565
O9 Ru0 1.995084 1_555
O9 Pr1 2.441501 1_455
O9 Pr3 2.610662 1_555
O9 Pr0 2.750634 1_545
O10 Ru1 1.995084 1_556
O10 Pr2 2.441501 1_555
O10 Pr0 2.610662 1_555
O10 Pr3 2.750634 1_546
O11 Ru1 1.995084 1_665
O11 Pr3 2.441501 1_555
O11 Pr1 2.610662 1_555
O11 Pr2 2.750634 1_564
