# generated using pymatgen
data_V2(B24C)3
_symmetry_space_group_name_H-M   'P 1'
_cell_length_a   5.02664800
_cell_length_b   8.75108900
_cell_length_c   26.24232200
_cell_angle_alpha   90.00000000
_cell_angle_beta   90.00000000
_cell_angle_gamma   90.00000000
_symmetry_Int_Tables_number   1
_chemical_formula_structural   V2(B24C)3
_chemical_formula_sum   'V4 B144 C6'
_cell_volume   1154.36416071
_cell_formula_units_Z   2
loop_
 _symmetry_equiv_pos_site_id
 _symmetry_equiv_pos_as_xyz
  1  'x, y, z'
loop_
 _atom_site_type_symbol
 _atom_site_label
 _atom_site_symmetry_multiplicity
 _atom_site_fract_x
 _atom_site_fract_y
 _atom_site_fract_z
 _atom_site_occupancy
  V  V0  1  0.50000000  0.50000000  0.16784700  1
  V  V1  1  0.50000000  0.50000000  0.50000000  1
  V  V2  1  0.50000000  0.50000000  0.83215300  1
  V  V3  1  0.00000000  0.00000000  0.00000000  1
  B  B0  1  0.41061500  0.41548500  0.08828900  1
  B  B1  1  0.41237500  0.41541400  0.42187700  1
  B  B2  1  0.41191900  0.41526300  0.75520600  1
  B  B3  1  0.41191900  0.58473700  0.24479400  1
  B  B4  1  0.41237500  0.58458600  0.57812300  1
  B  B5  1  0.41061500  0.58451500  0.91171100  1
  B  B6  1  0.08977500  0.91962200  0.25640900  1
  B  B7  1  0.08816300  0.91999100  0.58984800  1
  B  B8  1  0.08939900  0.91535800  0.92166200  1
  B  B9  1  0.08939900  0.08464200  0.07833800  1
  B  B10  1  0.08816300  0.08000900  0.41015200  1
  B  B11  1  0.08977500  0.08037800  0.74359100  1
  B  B12  1  0.58938500  0.58451500  0.08828900  1
  B  B13  1  0.58762500  0.58458600  0.42187700  1
  B  B14  1  0.58808100  0.58473700  0.75520600  1
  B  B15  1  0.58808100  0.41526300  0.24479400  1
  B  B16  1  0.58762500  0.41541400  0.57812300  1
  B  B17  1  0.58938500  0.41548500  0.91171100  1
  B  B18  1  0.91022500  0.08037800  0.25640900  1
  B  B19  1  0.91183700  0.08000900  0.58984800  1
  B  B20  1  0.91060100  0.08464200  0.92166200  1
  B  B21  1  0.91060100  0.91535800  0.07833800  1
  B  B22  1  0.91183700  0.91999100  0.41015200  1
  B  B23  1  0.91022500  0.91962200  0.74359100  1
  B  B24  1  0.59021500  0.73455300  0.13835000  1
  B  B25  1  0.58759900  0.73438700  0.47180400  1
  B  B26  1  0.58717200  0.73470400  0.80526000  1
  B  B27  1  0.58717200  0.26529600  0.19474000  1
  B  B28  1  0.58759900  0.26561300  0.52819600  1
  B  B29  1  0.59021500  0.26544700  0.86165000  1
  B  B30  1  0.91052400  0.23032500  0.30642800  1
  B  B31  1  0.91163000  0.23090000  0.64001300  1
  B  B32  1  0.91054300  0.23482500  0.97186000  1
  B  B33  1  0.91054300  0.76517500  0.02814000  1
  B  B34  1  0.91163000  0.76910000  0.35998700  1
  B  B35  1  0.91052400  0.76967500  0.69357200  1
  B  B36  1  0.40978500  0.26544700  0.13835000  1
  B  B37  1  0.41240100  0.26561300  0.47180400  1
  B  B38  1  0.41282800  0.26529600  0.80526000  1
  B  B39  1  0.41282800  0.73470400  0.19474000  1
  B  B40  1  0.41240100  0.73438700  0.52819600  1
  B  B41  1  0.40978500  0.73455300  0.86165000  1
  B  B42  1  0.08947600  0.76967500  0.30642800  1
  B  B43  1  0.08837000  0.76910000  0.64001300  1
  B  B44  1  0.08945700  0.76517500  0.97186000  1
  B  B45  1  0.08945700  0.23482500  0.02814000  1
  B  B46  1  0.08837000  0.23090000  0.35998700  1
  B  B47  1  0.08947600  0.23032500  0.69357200  1
  B  B48  1  0.12279800  0.37740100  0.12568100  1
  B  B49  1  0.12531900  0.37771000  0.45921100  1
  B  B50  1  0.12569500  0.37760300  0.79265200  1
  B  B51  1  0.12569500  0.62239700  0.20734800  1
  B  B52  1  0.12531900  0.62229000  0.54078900  1
  B  B53  1  0.12279800  0.62259900  0.87431900  1
  B  B54  1  0.38485700  0.87665300  0.29210200  1
  B  B55  1  0.38529200  0.87641400  0.62563300  1
  B  B56  1  0.37715300  0.87733500  0.95912100  1
  B  B57  1  0.37715300  0.12266500  0.04087900  1
  B  B58  1  0.38529200  0.12358600  0.37436700  1
  B  B59  1  0.38485700  0.12334700  0.70789800  1
  B  B60  1  0.87720200  0.62259900  0.12568100  1
  B  B61  1  0.87468100  0.62229000  0.45921100  1
  B  B62  1  0.87430500  0.62239700  0.79265200  1
  B  B63  1  0.87430500  0.37760300  0.20734800  1
  B  B64  1  0.87468100  0.37771000  0.54078900  1
  B  B65  1  0.87720200  0.37740100  0.87431900  1
  B  B66  1  0.61514300  0.12334700  0.29210200  1
  B  B67  1  0.61470800  0.12358600  0.62563300  1
  B  B68  1  0.62284700  0.12266500  0.95912100  1
  B  B69  1  0.62284700  0.87733500  0.04087900  1
  B  B70  1  0.61470800  0.87641400  0.37436700  1
  B  B71  1  0.61514300  0.87665300  0.70789800  1
  B  B72  1  0.91711700  0.25670600  0.08551400  1
  B  B73  1  0.92221900  0.25376300  0.41794400  1
  B  B74  1  0.92102500  0.25316000  0.75114300  1
  B  B75  1  0.92102500  0.74684000  0.24885700  1
  B  B76  1  0.92221900  0.74623700  0.58205600  1
  B  B77  1  0.91711700  0.74329400  0.91448600  1
  B  B78  1  0.58327300  0.75790700  0.25248400  1
  B  B79  1  0.58202400  0.75793900  0.58604000  1
  B  B80  1  0.58288600  0.75626600  0.91891400  1
  B  B81  1  0.58288600  0.24373400  0.08108600  1
  B  B82  1  0.58202400  0.24206100  0.41396000  1
  B  B83  1  0.58327300  0.24209300  0.74751600  1
  B  B84  1  0.08288300  0.74329400  0.08551400  1
  B  B85  1  0.07778100  0.74623700  0.41794400  1
  B  B86  1  0.07897500  0.74684000  0.75114300  1
  B  B87  1  0.07897500  0.25316000  0.24885700  1
  B  B88  1  0.07778100  0.25376300  0.58205600  1
  B  B89  1  0.08288300  0.25670600  0.91448600  1
  B  B90  1  0.41672700  0.24209300  0.25248400  1
  B  B91  1  0.41797600  0.24206100  0.58604000  1
  B  B92  1  0.41711400  0.24373400  0.91891400  1
  B  B93  1  0.41711400  0.75626600  0.08108600  1
  B  B94  1  0.41797600  0.75793900  0.41396000  1
  B  B95  1  0.41672700  0.75790700  0.74751600  1
  B  B96  1  0.09531300  0.41677600  0.05771300  1
  B  B97  1  0.09714100  0.41531000  0.39108900  1
  B  B98  1  0.09643700  0.41517700  0.72447600  1
  B  B99  1  0.09643700  0.58482300  0.27552400  1
  B  B100  1  0.09714100  0.58469000  0.60891100  1
  B  B101  1  0.09531300  0.58322400  0.94228700  1
  B  B102  1  0.40311700  0.91657900  0.22424200  1
  B  B103  1  0.40325700  0.91605200  0.55771000  1
  B  B104  1  0.40457400  0.91653300  0.89110600  1
  B  B105  1  0.40457400  0.08346700  0.10889400  1
  B  B106  1  0.40325700  0.08394800  0.44229000  1
  B  B107  1  0.40311700  0.08342100  0.77575800  1
  B  B108  1  0.90468700  0.58322400  0.05771300  1
  B  B109  1  0.90285900  0.58469000  0.39108900  1
  B  B110  1  0.90356300  0.58482300  0.72447600  1
  B  B111  1  0.90356300  0.41517700  0.27552400  1
  B  B112  1  0.90285900  0.41531000  0.60891100  1
  B  B113  1  0.90468700  0.41677600  0.94228700  1
  B  B114  1  0.59688300  0.08342100  0.22424200  1
  B  B115  1  0.59674300  0.08394800  0.55771000  1
  B  B116  1  0.59542600  0.08346700  0.89110600  1
  B  B117  1  0.59542600  0.91653300  0.10889400  1
  B  B118  1  0.59674300  0.91605200  0.44229000  1
  B  B119  1  0.59688300  0.91657900  0.77575800  1
  B  B120  1  0.90685700  0.82561900  0.13915000  1
  B  B121  1  0.90297100  0.82659500  0.47173400  1
  B  B122  1  0.90146500  0.82762400  0.80497200  1
  B  B123  1  0.90146500  0.17237600  0.19502800  1
  B  B124  1  0.90297100  0.17340500  0.52826600  1
  B  B125  1  0.90685700  0.17438100  0.86085000  1
  B  B126  1  0.59645600  0.32676100  0.30552400  1
  B  B127  1  0.59732500  0.32726900  0.63876900  1
  B  B128  1  0.59516700  0.32623900  0.97219700  1
  B  B129  1  0.59516700  0.67376100  0.02780300  1
  B  B130  1  0.59732500  0.67273100  0.36123100  1
  B  B131  1  0.59645600  0.67323900  0.69447600  1
  B  B132  1  0.09314300  0.17438100  0.13915000  1
  B  B133  1  0.09702900  0.17340500  0.47173400  1
  B  B134  1  0.09853500  0.17237600  0.80497200  1
  B  B135  1  0.09853500  0.82762400  0.19502800  1
  B  B136  1  0.09702900  0.82659500  0.52826600  1
  B  B137  1  0.09314300  0.82561900  0.86085000  1
  B  B138  1  0.40354400  0.67323900  0.30552400  1
  B  B139  1  0.40267500  0.67273100  0.63876900  1
  B  B140  1  0.40483300  0.67376100  0.97219700  1
  B  B141  1  0.40483300  0.32623900  0.02780300  1
  B  B142  1  0.40267500  0.32726900  0.36123100  1
  B  B143  1  0.40354400  0.32676100  0.69447600  1
  C  C0  1  0.00000000  0.50000000  0.16654100  1
  C  C1  1  0.00000000  0.50000000  0.50000000  1
  C  C2  1  0.00000000  0.50000000  0.83345900  1
  C  C3  1  0.50000000  0.00000000  0.00000000  1
  C  C4  1  0.50000000  0.00000000  0.33331100  1
  C  C5  1  0.50000000  0.00000000  0.66668900  1
loop_
_geom_bond_atom_site_label_1
_geom_bond_atom_site_label_2
_geom_bond_distance
_geom_bond_site_symmetry_2
B0 B12 1.730760 1_555
B0 B81 1.744886 1_555
B0 B141 1.769267 1_555
B0 B96 1.776484 1_555
B0 B48 1.779615 1_555
B0 B36 1.857371 1_555
B0 V0 2.260030 1_555
B1 B13 1.722707 1_555
B1 B82 1.752640 1_555
B1 B142 1.769245 1_555
B1 B49 1.775045 1_555
B1 B97 1.778664 1_555
B1 B37 1.853413 1_555
B1 V1 2.223726 1_555
B2 B83 1.754748 1_555
B2 B50 1.773203 1_555
B2 B98 1.779084 1_555
B2 B38 1.856803 1_555
B2 V2 2.196214 1_555
B3 B78 1.754748 1_555
B3 B51 1.773203 1_555
B3 B99 1.779084 1_555
B3 B39 1.856803 1_555
B3 V0 2.196214 1_555
B4 B79 1.752640 1_555
B4 B52 1.775045 1_555
B4 B40 1.853413 1_555
B4 V1 2.223726 1_555
B5 B80 1.744886 1_555
B5 B53 1.779615 1_555
B5 V2 2.260030 1_555
B6 B75 1.745003 1_455
B7 B76 1.746321 1_455
B8 V3 2.230871 1_566
B9 V3 2.230871 1_555
B10 B22 1.657259 1_445
B10 B73 1.746321 1_455
B10 B106 1.794744 1_555
B10 B58 1.805001 1_555
B10 B133 1.811526 1_555
B10 B46 1.864577 1_555
B11 B23 1.671415 1_445
B11 B74 1.745003 1_455
B11 B59 1.794113 1_555
B11 B134 1.801308 1_555
B11 B47 1.856025 1_555
B12 B93 1.744886 1_555
B12 B129 1.769267 1_555
B12 B60 1.779615 1_555
B12 B24 1.857371 1_555
B12 V0 2.260030 1_555
B13 B94 1.752640 1_555
B13 B130 1.769245 1_555
B13 B61 1.775045 1_555
B13 B25 1.853413 1_555
B13 V1 2.223726 1_555
B14 B2 1.727325 1_555
B14 B95 1.754748 1_555
B14 B62 1.773203 1_555
B14 B26 1.856803 1_555
B14 V2 2.196214 1_555
B15 B3 1.727325 1_555
B15 B90 1.754748 1_555
B15 B63 1.773203 1_555
B15 B27 1.856803 1_555
B15 V0 2.196214 1_555
B16 B4 1.722707 1_555
B16 B91 1.752640 1_555
B16 B64 1.775045 1_555
B16 B28 1.853413 1_555
B16 V1 2.223726 1_555
B17 B5 1.730760 1_555
B17 B92 1.744886 1_555
B17 B65 1.779615 1_555
B17 B29 1.857371 1_555
B17 V2 2.260030 1_555
B18 B6 1.671415 1_645
B18 B87 1.745003 1_655
B18 B66 1.794113 1_555
B18 B30 1.856025 1_555
B19 B7 1.657259 1_645
B19 B88 1.746321 1_655
B19 B67 1.805001 1_555
B19 B31 1.864577 1_555
B20 B8 1.732733 1_645
B20 B89 1.747196 1_655
B20 B68 1.780228 1_555
B20 B32 1.860807 1_555
B20 V3 2.230871 1_656
B21 B9 1.732733 1_665
B21 B84 1.747196 1_655
B21 B69 1.780228 1_555
B21 B33 1.860807 1_555
B21 V3 2.230871 1_665
B22 B85 1.746321 1_655
B22 B70 1.805001 1_555
B22 B34 1.864577 1_555
B23 B86 1.745003 1_655
B23 B71 1.794113 1_555
B23 B35 1.856025 1_555
B24 B39 1.727682 1_555
B24 B93 1.746837 1_555
B24 B60 1.775226 1_555
B24 V0 2.240083 1_555
B25 B40 1.722073 1_555
B25 B94 1.753189 1_555
B25 B61 1.775933 1_555
B25 V1 2.224537 1_555
B26 B41 1.727682 1_555
B26 B95 1.752577 1_555
B26 B62 1.777230 1_555
B26 V2 2.215544 1_555
B27 B36 1.727682 1_555
B27 B90 1.752577 1_555
B27 B63 1.777230 1_555
B27 V0 2.215544 1_555
B28 B37 1.722073 1_555
B28 B91 1.753189 1_555
B28 B64 1.775933 1_555
B28 V1 2.224537 1_555
B29 B38 1.727682 1_555
B29 B92 1.746837 1_555
B29 B65 1.775226 1_555
B29 V2 2.240083 1_555
B30 B46 1.665735 1_655
B30 B87 1.743392 1_655
B30 B66 1.795082 1_555
B31 B47 1.665735 1_655
B31 B88 1.746647 1_655
B31 B67 1.803320 1_555
B32 B45 1.729189 1_656
B32 B89 1.747581 1_655
B32 B68 1.779461 1_555
B32 V3 2.229449 1_656
B33 B44 1.729189 1_654
B33 B84 1.747581 1_655
B33 B69 1.779461 1_555
B33 V3 2.229449 1_665
B34 B42 1.665735 1_655
B34 B85 1.746647 1_655
B34 B70 1.803320 1_555
B35 B43 1.665735 1_655
B35 B86 1.743392 1_655
B35 B71 1.795082 1_555
B36 B81 1.746837 1_555
B36 B48 1.775226 1_555
B36 V0 2.240083 1_555
B37 B82 1.753189 1_555
B37 B49 1.775933 1_555
B37 V1 2.224537 1_555
B38 B83 1.752577 1_555
B38 B50 1.777230 1_555
B38 V2 2.215544 1_555
B39 B78 1.752577 1_555
B39 B51 1.777230 1_555
B39 V0 2.215544 1_555
B40 B79 1.753189 1_555
B40 B52 1.775933 1_555
B40 V1 2.224537 1_555
B41 B80 1.746837 1_555
B41 B53 1.775226 1_555
B41 B5 1.857371 1_555
B41 V2 2.240083 1_555
B42 B75 1.743392 1_455
B42 B54 1.795082 1_555
B42 B99 1.809902 1_555
B42 B6 1.856025 1_555
B43 B76 1.746647 1_455
B43 B55 1.803320 1_555
B43 B7 1.864577 1_555
B44 B77 1.747581 1_455
B44 B56 1.779461 1_555
B44 B8 1.860807 1_555
B44 V3 2.229449 1_566
B45 B72 1.747581 1_455
B45 B96 1.771571 1_555
B45 B57 1.779461 1_555
B45 B9 1.860807 1_555
B45 V3 2.229449 1_555
B46 B73 1.746647 1_455
B46 B58 1.803320 1_555
B46 B97 1.808983 1_555
B47 B74 1.743392 1_455
B47 B59 1.795082 1_555
B47 B98 1.809902 1_555
B48 C0 1.637625 1_555
B48 B72 1.815373 1_455
B48 B96 1.821863 1_555
B48 V0 2.443466 1_555
B49 C1 1.639462 1_555
B49 B97 1.823219 1_555
B49 B73 1.841612 1_455
B49 V1 2.416231 1_555
B50 C2 1.641108 1_555
B50 B98 1.824997 1_555
B50 B74 1.852280 1_455
B50 V2 2.400385 1_555
B51 C0 1.641108 1_555
B51 B99 1.824997 1_555
B51 B75 1.852280 1_455
B51 V0 2.400385 1_555
B52 C1 1.639462 1_555
B52 B76 1.841612 1_455
B52 V1 2.416231 1_555
B53 C2 1.637625 1_555
B53 B77 1.815373 1_455
B53 V2 2.443466 1_555
B54 C4 1.633893 1_565
B54 B78 1.776372 1_555
B54 B6 1.794113 1_555
B55 C5 1.631850 1_565
B55 B79 1.769858 1_555
B55 B7 1.805001 1_555
B56 C3 1.638423 1_566
B56 B8 1.780228 1_555
B56 B80 1.818037 1_555
B56 V3 2.428421 1_566
B57 C3 1.638423 1_555
B57 B9 1.780228 1_555
B57 B81 1.818037 1_555
B57 V3 2.428421 1_555
B58 C4 1.631850 1_555
B58 B82 1.769858 1_555
B59 C5 1.633893 1_555
B59 B83 1.776372 1_555
B60 C0 1.637625 1_655
B60 B84 1.815373 1_655
B60 V0 2.443466 1_555
B61 C1 1.639462 1_655
B61 B85 1.841612 1_655
B61 V1 2.416231 1_555
B62 C2 1.641108 1_655
B62 B86 1.852280 1_655
B62 V2 2.400385 1_555
B63 C0 1.641108 1_655
B63 B87 1.852280 1_655
B63 V0 2.400385 1_555
B64 C1 1.639462 1_655
B64 B88 1.841612 1_655
B64 V1 2.416231 1_555
B65 C2 1.637625 1_655
B65 B89 1.815373 1_655
B65 V2 2.443466 1_555
B66 C4 1.633893 1_555
B66 B90 1.776372 1_555
B67 C5 1.631850 1_555
B67 B91 1.769858 1_555
B68 C3 1.638423 1_556
B68 B92 1.818037 1_555
B68 V3 2.428421 1_656
B69 C3 1.638423 1_565
B69 B93 1.818037 1_555
B69 V3 2.428421 1_665
B70 C4 1.631850 1_565
B70 B94 1.769858 1_555
B71 C5 1.633893 1_565
B71 B95 1.776372 1_555
B72 B81 1.687897 1_555
B72 B9 1.747196 1_655
B72 B96 1.815708 1_655
B73 B82 1.716291 1_555
B73 B97 1.807859 1_655
B74 B83 1.703182 1_555
B74 B98 1.810362 1_655
B75 B78 1.703182 1_555
B75 B99 1.810362 1_655
B76 B79 1.716291 1_555
B77 B80 1.687897 1_555
B77 B8 1.747196 1_655
B84 B93 1.687897 1_555
B85 B94 1.716291 1_555
B86 B95 1.703182 1_555
B87 B90 1.703182 1_555
B88 B91 1.716291 1_555
B89 B92 1.687897 1_555
B100 B112 1.775054 1_455
B100 B4 1.778664 1_555
B100 B76 1.807859 1_455
B100 B43 1.808983 1_555
B100 B52 1.823219 1_555
B100 B139 1.888454 1_555
B101 B113 1.743517 1_455
B101 B44 1.771571 1_555
B101 B5 1.776484 1_555
B101 B77 1.815708 1_455
B101 B53 1.821863 1_555
B101 B140 1.914283 1_555
B102 B114 1.755109 1_565
B102 B39 1.770586 1_555
B102 B6 1.787202 1_555
B102 B78 1.815885 1_555
B102 B54 1.817076 1_555
B102 B135 1.880897 1_555
B103 B115 1.762012 1_565
B103 B40 1.768996 1_555
B103 B7 1.794744 1_555
B103 B79 1.809615 1_555
B103 B55 1.818140 1_555
B103 B136 1.891911 1_555
B104 B116 1.747696 1_565
B104 B41 1.770406 1_555
B104 B8 1.775671 1_555
B104 B80 1.817400 1_555
B104 B56 1.822754 1_555
B104 B137 1.927184 1_555
B105 B117 1.747696 1_545
B105 B36 1.770406 1_555
B105 B9 1.775671 1_555
B105 B81 1.817400 1_555
B105 B57 1.822754 1_555
B105 B132 1.927184 1_555
B106 B118 1.762012 1_545
B106 B37 1.768996 1_555
B106 B82 1.809615 1_555
B106 B58 1.818140 1_555
B106 B133 1.891911 1_555
B107 B119 1.755109 1_545
B107 B38 1.770586 1_555
B107 B11 1.787202 1_555
B107 B83 1.815885 1_555
B107 B59 1.817076 1_555
B107 B134 1.880897 1_555
B108 B96 1.743517 1_655
B108 B33 1.771571 1_555
B108 B12 1.776484 1_555
B108 B84 1.815708 1_655
B108 B60 1.821863 1_555
B108 B129 1.914283 1_555
B109 B97 1.775054 1_655
B109 B13 1.778664 1_555
B109 B85 1.807859 1_655
B109 B34 1.808983 1_555
B109 B61 1.823219 1_555
B109 B130 1.888454 1_555
B110 B98 1.773118 1_655
B110 B14 1.779084 1_555
B110 B35 1.809902 1_555
B110 B86 1.810362 1_655
B110 B62 1.824997 1_555
B110 B131 1.897769 1_555
B111 B99 1.773118 1_655
B111 B15 1.779084 1_555
B111 B30 1.809902 1_555
B111 B87 1.810362 1_655
B111 B63 1.824997 1_555
B111 B126 1.897769 1_555
B112 B16 1.778664 1_555
B112 B88 1.807859 1_655
B112 B31 1.808983 1_555
B112 B64 1.823219 1_555
B112 B127 1.888454 1_555
B113 B32 1.771571 1_555
B113 B17 1.776484 1_555
B113 B89 1.815708 1_655
B113 B65 1.821863 1_555
B113 B128 1.914283 1_555
B114 B27 1.770586 1_555
B114 B18 1.787202 1_555
B114 B90 1.815885 1_555
B114 B66 1.817076 1_555
B114 B123 1.880897 1_555
B115 B28 1.768996 1_555
B115 B19 1.794744 1_555
B115 B91 1.809615 1_555
B115 B67 1.818140 1_555
B115 B124 1.891911 1_555
B116 B29 1.770406 1_555
B116 B20 1.775671 1_555
B116 B92 1.817400 1_555
B116 B68 1.822754 1_555
B116 B125 1.927184 1_555
B117 B24 1.770406 1_555
B117 B21 1.775671 1_555
B117 B93 1.817400 1_555
B117 B69 1.822754 1_555
B117 B120 1.927184 1_555
B118 B25 1.768996 1_555
B118 B22 1.794744 1_555
B118 B94 1.809615 1_555
B118 B70 1.818140 1_555
B118 B121 1.891911 1_555
B119 B26 1.770586 1_555
B119 B23 1.787202 1_555
B119 B95 1.815885 1_555
B119 B71 1.817076 1_555
B119 B122 1.880897 1_555
B120 B135 1.754672 1_655
B120 B21 1.778708 1_555
B120 B24 1.780134 1_555
B120 B84 1.811928 1_655
B120 B60 1.817587 1_555
B121 B136 1.775497 1_655
B121 B25 1.778816 1_555
B121 B85 1.805322 1_655
B121 B22 1.811526 1_555
B121 B61 1.823397 1_555
B122 B137 1.754672 1_655
B122 B26 1.776842 1_555
B122 B23 1.801308 1_555
B122 B86 1.814214 1_655
B122 B62 1.829928 1_555
B123 B132 1.754672 1_655
B123 B27 1.776842 1_555
B123 B18 1.801308 1_555
B123 B87 1.814214 1_655
B123 B63 1.829928 1_555
B124 B133 1.775497 1_655
B124 B28 1.778816 1_555
B124 B88 1.805322 1_655
B124 B19 1.811526 1_555
B124 B64 1.823397 1_555
B125 B134 1.754672 1_655
B125 B20 1.778708 1_555
B125 B29 1.780134 1_555
B125 B89 1.811928 1_655
B125 B65 1.817587 1_555
B126 B142 1.756680 1_555
B126 B15 1.772420 1_555
B126 B30 1.790276 1_555
B126 B66 1.817036 1_555
B126 B90 1.817291 1_555
B127 B143 1.756680 1_555
B127 B16 1.769245 1_555
B127 B31 1.791190 1_555
B127 B91 1.812035 1_555
B127 B67 1.817577 1_555
B128 B141 1.744909 1_556
B128 B17 1.769267 1_555
B128 B32 1.775714 1_555
B128 B92 1.810386 1_555
B128 B68 1.819568 1_555
B129 B140 1.744909 1_554
B129 B33 1.775714 1_555
B129 B93 1.810386 1_555
B129 B69 1.819568 1_555
B130 B138 1.756680 1_555
B130 B34 1.791190 1_555
B130 B94 1.812035 1_555
B130 B70 1.817577 1_555
B131 B139 1.756680 1_555
B131 B14 1.772420 1_555
B131 B35 1.790276 1_555
B131 B71 1.817036 1_555
B131 B95 1.817291 1_555
B132 B9 1.778708 1_555
B132 B36 1.780134 1_555
B132 B72 1.811928 1_455
B132 B48 1.817587 1_555
B133 B37 1.778816 1_555
B133 B73 1.805322 1_455
B133 B49 1.823397 1_555
B134 B38 1.776842 1_555
B134 B74 1.814214 1_455
B134 B50 1.829928 1_555
B135 B39 1.776842 1_555
B135 B6 1.801308 1_555
B135 B75 1.814214 1_455
B135 B51 1.829928 1_555
B136 B40 1.778816 1_555
B136 B76 1.805322 1_455
B136 B7 1.811526 1_555
B136 B52 1.823397 1_555
B137 B8 1.778708 1_555
B137 B41 1.780134 1_555
B137 B77 1.811928 1_455
B137 B53 1.817587 1_555
B138 B3 1.772420 1_555
B138 B42 1.790276 1_555
B138 B54 1.817036 1_555
B138 B78 1.817291 1_555
B138 B99 1.897769 1_555
B139 B4 1.769245 1_555
B139 B43 1.791190 1_555
B139 B79 1.812035 1_555
B139 B55 1.817577 1_555
B140 B5 1.769267 1_555
B140 B44 1.775714 1_555
B140 B80 1.810386 1_555
B140 B56 1.819568 1_555
B141 B45 1.775714 1_555
B141 B81 1.810386 1_555
B141 B57 1.819568 1_555
B141 B96 1.914283 1_555
B142 B46 1.791190 1_555
B142 B82 1.812035 1_555
B142 B58 1.817577 1_555
B142 B97 1.888454 1_555
B143 B2 1.772420 1_555
B143 B47 1.790276 1_555
B143 B59 1.817036 1_555
B143 B83 1.817291 1_555
B143 B98 1.897769 1_555
C0 V0 2.513558 1_555
C0 V0 2.513558 1_455
C1 V1 2.513324 1_555
C1 V1 2.513324 1_455
C2 V2 2.513558 1_555
C2 V2 2.513558 1_455
C3 V3 2.513324 1_655
C3 V3 2.513324 1_555
