# generated using pymatgen
data_HfCrAgS4
_symmetry_space_group_name_H-M   'P 1'
_cell_length_a   14.12012619
_cell_length_b   3.51344083
_cell_length_c   6.00966331
_cell_angle_alpha   90.00000000
_cell_angle_beta   113.78012176
_cell_angle_gamma   90.00000000
_symmetry_Int_Tables_number   1
_chemical_formula_structural   HfCrAgS4
_chemical_formula_sum   'Hf2 Cr2 Ag2 S8'
_cell_volume   272.82850150
_cell_formula_units_Z   2
loop_
 _symmetry_equiv_pos_site_id
 _symmetry_equiv_pos_as_xyz
  1  'x, y, z'
loop_
 _atom_site_type_symbol
 _atom_site_label
 _atom_site_symmetry_multiplicity
 _atom_site_fract_x
 _atom_site_fract_y
 _atom_site_fract_z
 _atom_site_occupancy
  Hf  Hf0  1  0.75276856  0.00000000  0.75607136  1
  Hf  Hf1  1  0.74723144  0.50000000  0.24392864  1
  Cr  Cr0  1  0.24772652  0.00000000  0.19407346  1
  Cr  Cr1  1  0.25227348  0.50000000  0.80592654  1
  Ag  Ag0  1  0.01918401  0.50000000  0.50725594  1
  Ag  Ag1  1  0.48081599  -0.00000000  0.49274406  1
  S  S0  1  0.13897139  0.50000000  0.99085039  1
  S  S1  1  0.87108954  0.50000000  0.03082621  1
  S  S2  1  0.62891046  -0.00000000  0.96917379  1
  S  S3  1  0.36102861  -0.00000000  0.00914961  1
  S  S4  1  0.16323748  -0.00000000  0.50443932  1
  S  S5  1  0.86822736  -0.00000000  0.52721987  1
  S  S6  1  0.63177264  0.50000000  0.47278013  1
  S  S7  1  0.33676252  0.50000000  0.49556068  1
loop_
_geom_bond_atom_site_label_1
_geom_bond_atom_site_label_2
_geom_bond_distance
_geom_bond_site_symmetry_2
Hf0 S5 2.521423 1_555
Hf0 S1 2.525671 1_546
Hf0 S1 2.525671 1_556
Hf0 S2 2.550493 1_555
Hf0 S6 2.560803 1_545
Hf0 S6 2.560803 1_555
Hf1 S6 2.521423 1_555
Hf1 S2 2.525671 1_554
Hf1 S2 2.525671 1_564
Hf1 S1 2.550493 1_555
Hf1 S5 2.560803 1_565
Hf1 S5 2.560803 1_555
Cr0 S3 2.286565 1_555
Cr0 S0 2.328806 1_544
Cr0 S0 2.328806 1_554
Cr0 S7 2.472325 1_545
Cr0 S7 2.472325 1_555
Cr0 S4 2.587796 1_555
Cr1 S0 2.286565 1_555
Cr1 S3 2.328806 1_556
Cr1 S3 2.328806 1_566
Cr1 S4 2.472325 1_565
Cr1 S4 2.472325 1_555
Cr1 S7 2.587796 1_555
Ag0 S4 2.692859 1_565
Ag0 S4 2.692859 1_555
Ag0 S0 2.709770 1_555
Ag0 S1 2.782467 1_455
Ag0 S5 2.801804 1_455
Ag0 S5 2.801804 1_465
Ag1 S7 2.692859 1_555
Ag1 S7 2.692859 1_545
Ag1 S3 2.709770 1_555
Ag1 S2 2.782467 1_555
Ag1 S6 2.801804 1_555
Ag1 S6 2.801804 1_545
