# generated using pymatgen
data_Tb2MgSe4
_symmetry_space_group_name_H-M   'P 1'
_cell_length_a   7.50422300
_cell_length_b   8.69980378
_cell_length_c   13.86057046
_cell_angle_alpha   99.20854041
_cell_angle_beta   95.45777204
_cell_angle_gamma   89.97574424
_symmetry_Int_Tables_number   1
_chemical_formula_structural   Tb2MgSe4
_chemical_formula_sum   'Tb8 Mg4 Se16'
_cell_volume   889.07898087
_cell_formula_units_Z   4
loop_
 _symmetry_equiv_pos_site_id
 _symmetry_equiv_pos_as_xyz
  1  'x, y, z'
loop_
 _atom_site_type_symbol
 _atom_site_label
 _atom_site_symmetry_multiplicity
 _atom_site_fract_x
 _atom_site_fract_y
 _atom_site_fract_z
 _atom_site_occupancy
  Tb  Tb0  1  0.86427400  0.30033900  0.69884000  1
  Tb  Tb1  1  0.13572600  0.69966100  0.30116000  1
  Tb  Tb2  1  0.75877500  0.12660500  0.00066000  1
  Tb  Tb3  1  0.24122500  0.87339500  0.99934000  1
  Tb  Tb4  1  0.63154700  0.44417200  0.29971000  1
  Tb  Tb5  1  0.36845300  0.55582800  0.70029000  1
  Tb  Tb6  1  0.63247500  0.95598400  0.30306800  1
  Tb  Tb7  1  0.36752500  0.04401600  0.69693200  1
  Mg  Mg0  1  0.86714800  0.80052800  0.70263000  1
  Mg  Mg1  1  0.13285200  0.19947200  0.29737000  1
  Mg  Mg2  1  0.75105200  0.62302200  0.99665600  1
  Mg  Mg3  1  0.24894800  0.37697800  0.00334400  1
  Se  Se0  1  0.90634500  0.35567100  0.89772200  1
  Se  Se1  1  0.09365500  0.64432900  0.10227800  1
  Se  Se2  1  0.89201900  0.84336400  0.89116700  1
  Se  Se3  1  0.10798100  0.15663600  0.10883300  1
  Se  Se4  1  0.82976400  0.21937000  0.37455100  1
  Se  Se5  1  0.17023600  0.78063000  0.62544900  1
  Se  Se6  1  0.81018100  0.71888400  0.37773000  1
  Se  Se7  1  0.18981900  0.28111600  0.62227000  1
  Se  Se8  1  0.69581700  0.02013700  0.62626700  1
  Se  Se9  1  0.30418300  0.97986300  0.37373300  1
  Se  Se10  1  0.69438000  0.54291100  0.62682600  1
  Se  Se11  1  0.30562000  0.45708900  0.37317400  1
  Se  Se12  1  0.60574200  0.89537000  0.10364400  1
  Se  Se13  1  0.39425800  0.10463000  0.89635600  1
  Se  Se14  1  0.59538500  0.40734500  0.10109200  1
  Se  Se15  1  0.40461500  0.59265500  0.89890800  1
loop_
_geom_bond_atom_site_label_1
_geom_bond_atom_site_label_2
_geom_bond_distance
_geom_bond_site_symmetry_2
Mg0 Se2 2.568711 1_555
Mg0 Se5 2.598210 1_655
Mg0 Se10 2.607210 1_555
Mg0 Se8 2.609563 1_565
Mg1 Se3 2.568711 1_555
Mg1 Se4 2.598210 1_455
Mg1 Se11 2.607210 1_555
Mg1 Se9 2.609563 1_545
Mg2 Se15 2.807143 1_555
Mg2 Se0 2.815876 1_555
Mg2 Se1 2.825785 1_656
Mg2 Se2 2.850354 1_555
Mg2 Se14 2.858930 1_556
Mg2 Se12 2.860575 1_556
Mg3 Se14 2.807143 1_555
Mg3 Se1 2.815876 1_555
Mg3 Se0 2.825785 1_454
Mg3 Se3 2.850354 1_555
Mg3 Se15 2.858930 1_554
Mg3 Se13 2.860575 1_554
Se0 Tb0 2.709282 1_555
Se0 Tb2 2.906174 1_556
Se1 Tb1 2.709282 1_555
Se1 Tb3 2.906174 1_554
Se2 Tb3 2.882916 1_655
Se2 Tb2 2.909409 1_566
Se3 Tb2 2.882916 1_455
Se3 Tb3 2.909409 1_544
Se4 Tb6 2.724208 1_545
Se4 Tb4 2.732554 1_555
Se5 Tb7 2.724208 1_565
Se5 Tb5 2.732554 1_555
Se6 Tb6 2.742710 1_555
Se6 Tb1 2.749263 1_655
Se6 Tb4 2.752814 1_555
Se7 Tb7 2.742710 1_555
Se7 Tb0 2.749263 1_455
Se7 Tb5 2.752814 1_555
Se8 Tb7 2.732243 1_555
Se8 Tb0 2.743755 1_555
Se9 Tb6 2.732243 1_555
Se9 Tb1 2.743755 1_555
Se10 Tb5 2.732844 1_555
Se10 Tb0 2.739536 1_555
Se11 Tb4 2.732844 1_555
Se11 Tb1 2.739536 1_555
Se12 Tb6 2.717872 1_555
Se12 Tb2 2.938723 1_565
Se12 Tb3 2.961226 1_554
Se13 Tb7 2.717872 1_555
Se13 Tb3 2.938723 1_545
Se13 Tb2 2.961226 1_556
Se14 Tb4 2.707534 1_555
Se14 Tb2 2.939449 1_555
Se15 Tb5 2.707534 1_555
Se15 Tb3 2.939449 1_555
