# generated using pymatgen
data_InGa2Sn
_symmetry_space_group_name_H-M   'P 1'
_cell_length_a   11.08420722
_cell_length_b   11.08420722
_cell_length_c   11.08420722
_cell_angle_alpha   122.79395636
_cell_angle_beta   118.38784610
_cell_angle_gamma   89.02265015
_symmetry_Int_Tables_number   1
_chemical_formula_structural   InGa2Sn
_chemical_formula_sum   'In1 Ga2 Sn1'
_cell_volume   952.38645253
_cell_formula_units_Z   1
loop_
 _symmetry_equiv_pos_site_id
 _symmetry_equiv_pos_as_xyz
  1  'x, y, z'
loop_
 _atom_site_type_symbol
 _atom_site_label
 _atom_site_symmetry_multiplicity
 _atom_site_fract_x
 _atom_site_fract_y
 _atom_site_fract_z
 _atom_site_occupancy
  In  In0  1  0.00000000  0.00000000  0.00000000  1
  Ga  Ga0  1  0.00000000  0.26186300  0.26186300  1
  Ga  Ga1  1  0.00000000  0.73813700  0.73813700  1
  Sn  Sn0  1  0.00000000  0.50000000  0.50000000  1
loop_
_geom_bond_atom_site_label_1
_geom_bond_atom_site_label_2
_geom_bond_distance
_geom_bond_site_symmetry_2
Ga0 Sn0 2.527316 1_555
Ga0 In0 2.779117 1_555
Ga1 Sn0 2.527316 1_555
Ga1 In0 2.779117 1_566
