# generated using pymatgen
data_KHoF4
_symmetry_space_group_name_H-M   'P 1'
_cell_length_a   14.17212365
_cell_length_b   14.17212365
_cell_length_c   10.23603000
_cell_angle_alpha   90.00000000
_cell_angle_beta   90.00000000
_cell_angle_gamma   119.99999834
_symmetry_Int_Tables_number   1
_chemical_formula_structural   KHoF4
_chemical_formula_sum   'K18 Ho18 F72'
_cell_volume   1780.45931610
_cell_formula_units_Z   18
loop_
 _symmetry_equiv_pos_site_id
 _symmetry_equiv_pos_as_xyz
  1  'x, y, z'
loop_
 _atom_site_type_symbol
 _atom_site_label
 _atom_site_symmetry_multiplicity
 _atom_site_fract_x
 _atom_site_fract_y
 _atom_site_fract_z
 _atom_site_occupancy
  K  K0  1  0.78146300  0.06273400  0.01233500  1
  K  K1  1  0.93726600  0.71872900  0.34566800  1
  K  K2  1  0.28127100  0.21853700  0.67900200  1
  K  K3  1  0.26721100  0.04731500  0.98523000  1
  K  K4  1  0.95268500  0.21989600  0.31856300  1
  K  K5  1  0.78010400  0.73278900  0.65189600  1
  K  K6  1  0.10374600  0.70836000  0.01839600  1
  K  K7  1  0.29164000  0.39538600  0.35172900  1
  K  K8  1  0.60461400  0.89625400  0.68506200  1
  K  K9  1  0.61107000  0.73385300  0.98753600  1
  K  K10  1  0.26614700  0.87721800  0.32086900  1
  K  K11  1  0.12278200  0.38893000  0.65420300  1
  K  K12  1  0.94886600  0.38601800  0.98854800  1
  K  K13  1  0.61398200  0.56284800  0.32188100  1
  K  K14  1  0.43715200  0.05113400  0.65521500  1
  K  K15  1  0.45592300  0.39093900  0.01853900  1
  K  K16  1  0.60906100  0.06498400  0.35187300  1
  K  K17  1  0.93501600  0.54407700  0.68520600  1
  Ho  Ho0  1  0.13104500  0.24046400  0.00365500  1
  Ho  Ho1  1  0.75953600  0.89058100  0.33698800  1
  Ho  Ho2  1  0.10941900  0.86895500  0.67032100  1
  Ho  Ho3  1  0.28315900  0.55112400  0.01383500  1
  Ho  Ho4  1  0.44887600  0.73203500  0.34716900  1
  Ho  Ho5  1  0.26796500  0.71684100  0.68050200  1
  Ho  Ho6  1  0.77967400  0.57311800  0.99348700  1
  Ho  Ho7  1  0.42688200  0.20655600  0.32682000  1
  Ho  Ho8  1  0.79344400  0.22032600  0.66015300  1
  Ho  Ho9  1  0.94284300  0.88385700  0.00815500  1
  Ho  Ho10  1  0.11614300  0.05898600  0.34148800  1
  Ho  Ho11  1  0.94101400  0.05715700  0.67482200  1
  Ho  Ho12  1  0.45301100  0.90775500  0.01003700  1
  Ho  Ho13  1  0.09224500  0.54525600  0.34337000  1
  Ho  Ho14  1  0.45474400  0.54698900  0.67670400  1
  Ho  Ho15  1  0.60450500  0.21812200  0.98815500  1
  Ho  Ho16  1  0.78187800  0.38638400  0.32148900  1
  Ho  Ho17  1  0.61361600  0.39549500  0.65482200  1
  F  F0  1  0.13147100  0.19557800  0.21970900  1
  F  F1  1  0.80442200  0.93589300  0.55304200  1
  F  F2  1  0.06410700  0.86852900  0.88637600  1
  F  F3  1  0.06801700  0.18966500  0.79511800  1
  F  F4  1  0.81033500  0.87835200  0.12845100  1
  F  F5  1  0.12164800  0.93198300  0.46178400  1
  F  F6  1  0.21217900  0.61677600  0.86668300  1
  F  F7  1  0.38322400  0.59540200  0.20001700  1
  F  F8  1  0.40459800  0.78782100  0.53335000  1
  F  F9  1  0.33562300  0.60617600  0.68075700  1
  F  F10  1  0.39382400  0.72944700  0.01409100  1
  F  F11  1  0.27055300  0.66437700  0.34742400  1
  F  F12  1  0.73630300  0.53242200  0.77731700  1
  F  F13  1  0.46757800  0.20388100  0.11065000  1
  F  F14  1  0.79611900  0.26369700  0.44398400  1
  F  F15  1  0.78864600  0.51897900  0.20158700  1
  F  F16  1  0.48102100  0.26966700  0.53492000  1
  F  F17  1  0.73033300  0.21135400  0.86825400  1
  F  F18  1  0.99828500  0.93788700  0.67248400  1
  F  F19  1  0.06211300  0.06039800  0.00581700  1
  F  F20  1  0.93960200  0.00171500  0.33915100  1
  F  F21  1  0.87958700  0.95583200  0.85934000  1
  F  F22  1  0.04416800  0.92375500  0.19267400  1
  F  F23  1  0.07624500  0.12041300  0.52600700  1
  F  F24  1  0.38984100  0.85162900  0.80184600  1
  F  F25  1  0.14837100  0.53821200  0.13518000  1
  F  F26  1  0.46178800  0.61015900  0.46851300  1
  F  F27  1  0.45698700  0.86661100  0.22593400  1
  F  F28  1  0.13338900  0.59037600  0.55926700  1
  F  F29  1  0.40962400  0.54301300  0.89260000  1
  F  F30  1  0.54823200  0.25714400  0.79945900  1
  F  F31  1  0.74285600  0.29108800  0.13279200  1
  F  F32  1  0.70891200  0.45176800  0.46612500  1
  F  F33  1  0.73467300  0.34013600  0.65661500  1
  F  F34  1  0.65986400  0.39453700  0.98994900  1
  F  F35  1  0.60546300  0.26532700  0.32328200  1
  F  F36  1  0.76715700  0.03804300  0.26806400  1
  F  F37  1  0.96195700  0.72911500  0.60139700  1
  F  F38  1  0.27088500  0.23284300  0.93473100  1
  F  F39  1  0.80810500  0.08476300  0.75773200  1
  F  F40  1  0.91523700  0.72334200  0.09106600  1
  F  F41  1  0.27665800  0.19189500  0.42439900  1
  F  F42  1  0.24702500  0.02378500  0.72617800  1
  F  F43  1  0.97621500  0.22323900  0.05951200  1
  F  F44  1  0.77676100  0.75297500  0.39284500  1
  F  F45  1  0.80934500  0.73408500  0.90375100  1
  F  F46  1  0.26591500  0.07525900  0.23708500  1
  F  F47  1  0.92474100  0.19065500  0.57041800  1
  F  F48  1  0.13063900  0.73695500  0.76551500  1
  F  F49  1  0.26304500  0.39368400  0.09884800  1
  F  F50  1  0.60631600  0.86936100  0.43218100  1
  F  F51  1  0.09208100  0.68838900  0.27199200  1
  F  F52  1  0.31161100  0.40369200  0.60532500  1
  F  F53  1  0.59630800  0.90791900  0.93865800  1
  F  F54  1  0.15447800  0.39816300  0.91022700  1
  F  F55  1  0.60183700  0.75631500  0.24356100  1
  F  F56  1  0.24368500  0.84552200  0.57689400  1
  F  F57  1  0.58834800  0.70505500  0.73029600  1
  F  F58  1  0.29494500  0.88329400  0.06362900  1
  F  F59  1  0.11670600  0.41165200  0.39696300  1
  F  F60  1  0.93749000  0.36188900  0.73344300  1
  F  F61  1  0.63811100  0.57560100  0.06677700  1
  F  F62  1  0.42439900  0.06251000  0.40011000  1
  F  F63  1  0.46828700  0.05708000  0.90842400  1
  F  F64  1  0.94292000  0.41120700  0.24175800  1
  F  F65  1  0.58879300  0.53171300  0.57509100  1
  F  F66  1  0.48457100  0.41542600  0.76377900  1
  F  F67  1  0.58457400  0.06914500  0.09711200  1
  F  F68  1  0.93085500  0.51542900  0.43044600  1
  F  F69  1  0.45310400  0.36569200  0.27533900  1
  F  F70  1  0.63430800  0.08741300  0.60867200  1
  F  F71  1  0.91258700  0.54689600  0.94200500  1
loop_
_geom_bond_atom_site_label_1
_geom_bond_atom_site_label_2
_geom_bond_distance
_geom_bond_site_symmetry_2
F0 Ho10 2.219873 1_555
F0 Ho0 2.302048 1_555
F0 K4 2.904466 1_455
F0 K7 2.927378 1_555
F1 Ho11 2.219879 1_565
F1 Ho1 2.302048 1_555
F1 K5 2.904466 1_555
F1 K8 2.927378 1_555
F2 Ho9 2.219873 1_456
F2 Ho2 2.302058 1_555
F2 K3 2.904466 1_565
F2 K6 2.927378 1_556
F3 Ho11 2.214134 1_455
F3 Ho0 2.286829 1_556
F3 K11 2.909664 1_555
F3 K2 3.078562 1_555
F4 Ho9 2.214134 1_555
F4 Ho1 2.286829 1_555
F4 K9 2.909660 1_554
F4 K0 3.078562 1_565
F5 Ho10 2.214134 1_565
F5 Ho2 2.286829 1_555
F5 K10 2.909652 1_555
F5 K1 3.078562 1_455
F6 Ho3 2.254408 1_556
F6 Ho5 2.268673 1_555
F6 K6 2.907296 1_556
F7 Ho4 2.254417 1_555
F7 Ho3 2.268682 1_555
F7 K7 2.907280 1_555
F8 Ho5 2.254417 1_555
F8 Ho4 2.268666 1_555
F8 K8 2.907281 1_555
F9 Ho5 2.209750 1_555
F9 Ho14 2.229663 1_555
F9 K11 3.060198 1_555
F10 Ho3 2.209750 1_555
F10 Ho12 2.229663 1_555
F10 K9 3.060192 1_554
F11 Ho4 2.209750 1_555
F11 Ho13 2.229663 1_555
F11 K10 3.060206 1_555
F12 Ho17 2.233158 1_555
F12 Ho6 2.291742 1_555
F12 K5 2.886915 1_555
F12 K17 2.895166 1_555
F13 Ho15 2.233153 1_554
F13 Ho7 2.291742 1_555
F13 K3 2.886911 1_554
F13 K15 2.895166 1_555
F14 Ho16 2.233165 1_555
F14 Ho8 2.291732 1_555
F14 K4 2.886915 1_555
F14 K16 2.895166 1_555
F15 Ho16 2.206012 1_555
F15 Ho6 2.289066 1_554
F15 K1 2.943253 1_555
F15 K13 3.093395 1_555
F16 Ho17 2.206017 1_555
F16 Ho7 2.289066 1_555
F16 K2 2.943258 1_555
F16 K14 3.093399 1_555
F17 Ho15 2.206018 1_555
F17 Ho8 2.289076 1_555
F17 K0 2.943253 1_556
F17 K12 3.093395 1_555
F18 Ho11 2.210981 1_565
F18 Ho2 2.230276 1_655
F18 K5 3.011060 1_555
F19 Ho9 2.210981 1_445
F19 Ho0 2.230276 1_555
F19 K3 3.011059 1_554
F20 Ho10 2.210981 1_655
F20 Ho1 2.230276 1_545
F20 K4 3.011060 1_555
F21 Ho9 2.253651 1_556
F21 Ho11 2.266524 1_565
F21 K0 2.964546 1_566
F22 Ho10 2.253644 1_565
F22 Ho9 2.266533 1_455
F22 K1 2.964541 1_455
F23 Ho11 2.253651 1_455
F23 Ho10 2.266533 1_555
F23 K2 2.964546 1_555
F24 Ho5 2.208095 1_555
F24 Ho12 2.294220 1_556
F24 K14 2.966614 1_565
F24 K8 3.027974 1_555
F25 Ho3 2.208101 1_555
F25 Ho13 2.294210 1_555
F25 K12 2.966619 1_454
F25 K6 3.027974 1_555
F26 Ho4 2.208095 1_555
F26 Ho14 2.294220 1_555
F26 K13 2.966619 1_555
F26 K7 3.027974 1_555
F27 Ho4 2.229684 1_555
F27 Ho12 2.293429 1_555
F27 K16 2.855074 1_565
F27 K10 2.947606 1_555
F28 Ho5 2.229684 1_555
F28 Ho13 2.293429 1_555
F28 K17 2.855074 1_455
F28 K11 2.947596 1_555
F29 Ho3 2.229684 1_556
F29 Ho14 2.293419 1_555
F29 K15 2.855074 1_556
F29 K9 2.947602 1_555
F30 Ho17 2.253471 1_555
F30 Ho15 2.261323 1_555
F30 K14 2.930214 1_555
F31 Ho15 2.253471 1_554
F31 Ho16 2.261338 1_555
F31 K12 2.930214 1_554
F32 Ho16 2.253455 1_555
F32 Ho17 2.261338 1_555
F32 K13 2.930214 1_555
F33 Ho17 2.214785 1_555
F33 Ho8 2.234362 1_555
F33 K17 2.880030 1_555
F34 Ho15 2.214772 1_555
F34 Ho6 2.234362 1_555
F34 K15 2.880029 1_556
F35 Ho16 2.214775 1_555
F35 Ho7 2.234362 1_555
F35 K16 2.880030 1_555
F36 Ho1 2.156655 1_545
F36 K16 2.599478 1_555
F36 K0 2.635279 1_555
F36 K4 2.654491 1_555
F37 Ho2 2.156649 1_655
F37 K17 2.599491 1_555
F37 K1 2.635279 1_555
F37 K5 2.654483 1_555
F38 Ho0 2.156642 1_556
F38 K15 2.599483 1_556
F38 K2 2.635281 1_555
F38 K3 2.654497 1_555
F39 Ho8 2.265187 1_555
F39 Ho11 2.271166 1_555
F39 K0 2.629455 1_556
F39 K8 2.881484 1_545
F40 Ho6 2.265187 1_554
F40 Ho9 2.271170 1_555
F40 K1 2.629445 1_555
F40 K6 2.881483 1_655
F41 Ho7 2.265187 1_555
F41 Ho10 2.271170 1_555
F41 K2 2.629455 1_555
F41 K7 2.881483 1_555
F42 Ho2 2.160020 1_545
F42 K2 2.597509 1_555
F42 K14 2.625611 1_555
F42 K3 2.670013 1_555
F43 Ho0 2.160014 1_655
F43 K0 2.597507 1_555
F43 K12 2.625627 1_554
F43 K4 2.670003 1_555
F44 Ho1 2.160028 1_555
F44 K1 2.597498 1_555
F44 K13 2.625619 1_555
F44 K5 2.670001 1_555
F45 Ho9 2.282785 1_556
F45 Ho6 2.294634 1_555
F45 K5 2.609697 1_555
F45 K9 2.936370 1_555
F46 Ho10 2.282785 1_555
F46 Ho7 2.294635 1_555
F46 K3 2.609695 1_554
F46 K10 2.936340 1_545
F47 Ho11 2.282777 1_555
F47 Ho8 2.294643 1_555
F47 K4 2.609696 1_555
F47 K11 2.936357 1_655
F48 Ho2 2.258781 1_555
F48 Ho5 2.276176 1_555
F48 K6 2.618273 1_556
F48 K17 2.873253 1_455
F49 Ho0 2.258777 1_555
F49 Ho3 2.276176 1_555
F49 K7 2.618273 1_555
F49 K15 2.873253 1_555
F50 Ho1 2.258777 1_555
F50 Ho4 2.276172 1_555
F50 K8 2.618273 1_555
F50 K16 2.873250 1_565
F51 Ho13 2.157161 1_555
F51 K1 2.551650 1_455
F51 K6 2.607472 1_555
F51 K10 2.625972 1_555
F52 Ho14 2.157164 1_555
F52 K2 2.551653 1_555
F52 K7 2.607472 1_555
F52 K11 2.625980 1_555
F53 Ho12 2.157164 1_556
F53 K0 2.551653 1_566
F53 K8 2.607472 1_555
F53 K9 2.625967 1_555
F54 Ho3 2.279580 1_556
F54 Ho0 2.297294 1_556
F54 K11 2.651044 1_555
F54 K12 2.943118 1_455
F55 Ho4 2.279580 1_555
F55 Ho1 2.297290 1_555
F55 K9 2.651052 1_554
F55 K13 2.943116 1_555
F56 Ho5 2.279580 1_555
F56 Ho2 2.297290 1_555
F56 K10 2.651053 1_555
F56 K14 2.943118 1_565
F57 Ho14 2.159328 1_555
F57 K8 2.642977 1_555
F57 K9 2.659350 1_555
F57 K5 2.667517 1_555
F58 Ho12 2.159333 1_555
F58 K6 2.642981 1_555
F58 K10 2.659350 1_555
F58 K3 2.667501 1_564
F59 Ho13 2.159322 1_555
F59 K7 2.642991 1_555
F59 K11 2.659350 1_555
F59 K4 2.667512 1_455
F60 Ho8 2.158626 1_555
F60 K11 2.587311 1_655
F60 K12 2.628020 1_555
F60 K17 2.646173 1_555
F61 Ho6 2.158626 1_554
F61 K9 2.587328 1_554
F61 K13 2.628010 1_555
F61 K15 2.646175 1_555
F62 Ho7 2.158626 1_555
F62 K10 2.587319 1_545
F62 K14 2.628020 1_555
F62 K16 2.646173 1_555
F63 Ho12 2.269157 1_546
F63 Ho15 2.279435 1_555
F63 K14 2.623420 1_555
F63 K3 2.891975 1_555
F64 Ho13 2.269153 1_655
F64 Ho16 2.279440 1_555
F64 K12 2.623430 1_554
F64 K4 2.891972 1_555
F65 Ho14 2.269157 1_555
F65 Ho17 2.279427 1_555
F65 K13 2.623430 1_555
F65 K5 2.891972 1_555
F66 Ho17 2.277037 1_555
F66 Ho14 2.288608 1_555
F66 K15 2.635268 1_556
F66 K2 2.966613 1_555
F67 Ho15 2.277049 1_554
F67 Ho12 2.288608 1_545
F67 K16 2.635278 1_555
F67 K0 2.966613 1_555
F68 Ho16 2.277044 1_555
F68 Ho13 2.288612 1_655
F68 K17 2.635268 1_555
F68 K1 2.966616 1_555
F69 Ho7 2.159637 1_555
F69 K13 2.619512 1_555
F69 K7 2.643434 1_555
F69 K15 2.650458 1_555
F70 Ho8 2.159632 1_555
F70 K14 2.619509 1_555
F70 K8 2.643448 1_545
F70 K16 2.650449 1_555
F71 Ho6 2.159626 1_555
F71 K12 2.619523 1_555
F71 K6 2.643446 1_656
F71 K17 2.650450 1_555
