# generated using pymatgen
data_Na3Te(PO7)2
_symmetry_space_group_name_H-M   'P 1'
_cell_length_a   8.16636118
_cell_length_b   8.16636118
_cell_length_c   10.85902500
_cell_angle_alpha   90.00000000
_cell_angle_beta   90.00000000
_cell_angle_gamma   119.99999335
_symmetry_Int_Tables_number   1
_chemical_formula_structural   Na3Te(PO7)2
_chemical_formula_sum   'Na6 Te2 P4 O28'
_cell_volume   627.16044765
_cell_formula_units_Z   2
loop_
 _symmetry_equiv_pos_site_id
 _symmetry_equiv_pos_as_xyz
  1  'x, y, z'
loop_
 _atom_site_type_symbol
 _atom_site_label
 _atom_site_symmetry_multiplicity
 _atom_site_fract_x
 _atom_site_fract_y
 _atom_site_fract_z
 _atom_site_occupancy
  Na  Na0  1  0.52569200  0.47430800  0.25000000  1
  Na  Na1  1  0.52569200  0.05138400  0.25000000  1
  Na  Na2  1  0.94861600  0.47430800  0.25000000  1
  Na  Na3  1  0.47430800  0.52569200  0.75000000  1
  Na  Na4  1  0.05138400  0.52569200  0.75000000  1
  Na  Na5  1  0.47430800  0.94861600  0.75000000  1
  Te  Te0  1  0.00000000  0.00000000  0.25000000  1
  Te  Te1  1  0.00000000  0.00000000  0.75000000  1
  P  P0  1  0.66666700  0.33333300  0.97910700  1
  P  P1  1  0.33333300  0.66666700  0.02089300  1
  P  P2  1  0.33333300  0.66666700  0.47910700  1
  P  P3  1  0.66666700  0.33333300  0.52089300  1
  O  O0  1  0.22225900  0.20408600  0.16909900  1
  O  O1  1  0.79591400  0.01817300  0.16909900  1
  O  O2  1  0.98182700  0.77774100  0.16909900  1
  O  O3  1  0.20408600  0.22225900  0.83090100  1
  O  O4  1  0.01817300  0.79591400  0.83090100  1
  O  O5  1  0.77774100  0.98182700  0.83090100  1
  O  O6  1  0.77774100  0.79591400  0.66909900  1
  O  O7  1  0.20408600  0.98182700  0.66909900  1
  O  O8  1  0.01817300  0.22225900  0.66909900  1
  O  O9  1  0.79591400  0.77774100  0.33090100  1
  O  O10  1  0.98182700  0.20408600  0.33090100  1
  O  O11  1  0.22225900  0.01817300  0.33090100  1
  O  O12  1  0.66666700  0.33333300  0.11859400  1
  O  O13  1  0.33333300  0.66666700  0.88140600  1
  O  O14  1  0.33333300  0.66666700  0.61859400  1
  O  O15  1  0.66666700  0.33333300  0.38140600  1
  O  O16  1  0.64282100  0.49524300  0.92148100  1
  O  O17  1  0.50475700  0.14757800  0.92148100  1
  O  O18  1  0.85242200  0.35717900  0.92148100  1
  O  O19  1  0.49524300  0.64282100  0.07851900  1
  O  O20  1  0.14757800  0.50475700  0.07851900  1
  O  O21  1  0.35717900  0.85242200  0.07851900  1
  O  O22  1  0.35717900  0.50475700  0.42148100  1
  O  O23  1  0.49524300  0.85242200  0.42148100  1
  O  O24  1  0.14757800  0.64282100  0.42148100  1
  O  O25  1  0.50475700  0.35717900  0.57851900  1
  O  O26  1  0.85242200  0.49524300  0.57851900  1
  O  O27  1  0.64282100  0.14757800  0.57851900  1
loop_
_geom_bond_atom_site_label_1
_geom_bond_atom_site_label_2
_geom_bond_distance
_geom_bond_site_symmetry_2
Na0 O22 2.401094 1_555
Na0 O19 2.401094 1_555
Na0 O15 2.452001 1_555
Na0 O12 2.452001 1_555
Na0 O0 2.512665 1_555
Na0 O9 2.512665 1_555
Na1 O23 2.401094 1_545
Na1 O21 2.401094 1_545
Na1 O15 2.451995 1_555
Na1 O12 2.451995 1_555
Na1 O1 2.512664 1_555
Na1 O11 2.512664 1_555
Na2 O20 2.401094 1_655
Na2 O24 2.401094 1_655
Na2 O15 2.451995 1_555
Na2 O12 2.451995 1_555
Na2 O10 2.512664 1_555
Na2 O2 2.512664 1_555
Na3 O16 2.401094 1_555
Na3 O25 2.401094 1_555
Na3 O13 2.452001 1_555
Na3 O14 2.452001 1_555
Na3 O3 2.512665 1_555
Na3 O6 2.512665 1_555
Na4 O26 2.401094 1_455
Na4 O18 2.401094 1_455
Na4 O13 2.451995 1_555
Na4 O14 2.451995 1_555
Na4 O4 2.512664 1_555
Na4 O8 2.512664 1_555
Na5 O17 2.401094 1_565
Na5 O27 2.401094 1_565
Na5 O13 2.451995 1_555
Na5 O14 2.451995 1_555
Na5 O7 2.512664 1_555
Na5 O5 2.512664 1_555
O0 Te0 1.954182 1_555
O1 Te0 1.954182 1_655
O2 Te0 1.954182 1_665
O3 Te1 1.954182 1_555
O4 Te1 1.954182 1_565
O5 Te1 1.954182 1_665
O6 Te1 1.954182 1_665
O7 Te1 1.954182 1_565
O8 Te1 1.954182 1_555
O9 Te0 1.954182 1_665
O10 Te0 1.954182 1_655
O11 Te0 1.954182 1_555
O12 P0 1.514693 1_554
O13 P1 1.514693 1_556
O14 P2 1.514693 1_555
O15 P3 1.514693 1_555
O16 P0 1.560524 1_555
O17 P0 1.560520 1_555
O18 P0 1.560517 1_555
O19 P1 1.560524 1_555
O20 P1 1.560520 1_555
O21 P1 1.560517 1_555
O22 P2 1.560524 1_555
O23 P2 1.560520 1_555
O24 P2 1.560517 1_555
O25 P3 1.560524 1_555
O26 P3 1.560520 1_555
O27 P3 1.560517 1_555
