# generated using pymatgen
data_Mg2Al16Fe6Si20O73
_symmetry_space_group_name_H-M   'P 1'
_cell_length_a   10.02469166
_cell_length_b   13.66761103
_cell_length_c   13.67282828
_cell_angle_alpha   87.21379107
_cell_angle_beta   110.93454343
_cell_angle_gamma   110.92174359
_symmetry_Int_Tables_number   1
_chemical_formula_structural   Mg2Al16Fe6Si20O73
_chemical_formula_sum   'Mg2 Al16 Fe6 Si20 O73'
_cell_volume   1627.63038715
_cell_formula_units_Z   1
loop_
 _symmetry_equiv_pos_site_id
 _symmetry_equiv_pos_as_xyz
  1  'x, y, z'
loop_
 _atom_site_type_symbol
 _atom_site_label
 _atom_site_symmetry_multiplicity
 _atom_site_fract_x
 _atom_site_fract_y
 _atom_site_fract_z
 _atom_site_occupancy
  Mg  Mg0  1  0.32528800  0.20632700  0.45647000  1
  Mg  Mg1  1  0.67481300  0.29377200  0.04369900  1
  Al  Al0  1  0.50028700  0.62463300  0.87521000  1
  Al  Al1  1  0.49990800  0.12486400  0.37509200  1
  Al  Al2  1  0.49969700  0.37480200  0.62457200  1
  Al  Al3  1  0.49976200  0.87499900  0.12454000  1
  Al  Al4  1  0.50047800  0.37531600  0.12485300  1
  Al  Al5  1  0.50016700  0.87507200  0.62504900  1
  Al  Al6  1  0.50012300  0.12554500  0.87533000  1
  Al  Al7  1  0.50041100  0.62470900  0.37504300  1
  Al  Al8  1  0.09872700  0.92836800  0.42783300  1
  Al  Al9  1  0.09865300  0.42772800  0.92794100  1
  Al  Al10  1  0.90127100  0.57177700  0.07213000  1
  Al  Al11  1  0.90142000  0.07223300  0.57219900  1
  Al  Al12  1  0.90122900  0.62857800  0.62853300  1
  Al  Al13  1  0.90106000  0.12905500  0.12852600  1
  Al  Al14  1  0.09873700  0.37100300  0.37146800  1
  Al  Al15  1  0.09887600  0.87143000  0.87147400  1
  Fe  Fe0  1  0.67627500  0.04367700  0.29406500  1
  Fe  Fe1  1  0.67542600  0.54331800  0.79372400  1
  Fe  Fe2  1  0.32414900  0.70582900  0.95560100  1
  Fe  Fe3  1  0.32330600  0.45591900  0.20577900  1
  Fe  Fe4  1  0.32591000  0.95640500  0.70623700  1
  Fe  Fe5  1  0.67372000  0.79350300  0.54344700  1
  Si  Si0  1  0.38105100  0.38458600  0.88530700  1
  Si  Si1  1  0.38046600  0.88482400  0.38487300  1
  Si  Si2  1  0.61872000  0.11531000  0.61471000  1
  Si  Si3  1  0.61978300  0.61519000  0.11508300  1
  Si  Si4  1  0.61893600  0.44421500  0.44476800  1
  Si  Si5  1  0.61925800  0.94460800  0.94444400  1
  Si  Si6  1  0.38130400  0.05589000  0.05535300  1
  Si  Si7  1  0.38044600  0.55533400  0.55540800  1
  Si  Si8  1  0.00105600  0.12521600  0.37532800  1
  Si  Si9  1  0.99988200  0.62495000  0.87506600  1
  Si  Si10  1  0.00004500  0.87502500  0.62510700  1
  Si  Si11  1  0.99891500  0.37479300  0.12473300  1
  Si  Si12  1  0.72972500  0.29948100  0.80020500  1
  Si  Si13  1  0.72983600  0.79959700  0.29972000  1
  Si  Si14  1  0.27044200  0.20046400  0.69997000  1
  Si  Si15  1  0.26992000  0.70022600  0.20024800  1
  Si  Si16  1  0.27089300  0.18480900  0.18551100  1
  Si  Si17  1  0.27015300  0.68489800  0.68474500  1
  Si  Si18  1  0.72934800  0.81517800  0.81510800  1
  Si  Si19  1  0.72975500  0.31544600  0.31469000  1
  O  O0  1  0.12398700  0.24756100  0.39889100  1
  O  O1  1  0.12090800  0.74757900  0.89851900  1
  O  O2  1  0.87823000  0.60182300  0.75244700  1
  O  O3  1  0.87917100  0.10197200  0.25270600  1
  O  O4  1  0.87910200  0.58823000  0.93723300  1
  O  O5  1  0.87936900  0.08815600  0.43711700  1
  O  O6  1  0.12402900  0.06432900  0.41308800  1
  O  O7  1  0.12152200  0.56316200  0.91246100  1
  O  O8  1  0.87601300  0.25239000  0.10109800  1
  O  O9  1  0.87844300  0.75258000  0.60118500  1
  O  O10  1  0.12125300  0.89867100  0.74749800  1
  O  O11  1  0.12060900  0.39814500  0.24732600  1
  O  O12  1  0.12196600  0.91216800  0.56353200  1
  O  O13  1  0.12067800  0.41197600  0.06299600  1
  O  O14  1  0.87595700  0.43565000  0.08689200  1
  O  O15  1  0.87811900  0.93653900  0.58776000  1
  O  O16  1  0.32645200  0.29301300  0.79275800  1
  O  O17  1  0.32652500  0.79271400  0.29310100  1
  O  O18  1  0.67344100  0.20705800  0.70711200  1
  O  O19  1  0.67365800  0.70729600  0.20696700  1
  O  O20  1  0.67353500  0.37961200  0.37967100  1
  O  O21  1  0.67325600  0.87976000  0.87961300  1
  O  O22  1  0.32691000  0.12063300  0.12049600  1
  O  O23  1  0.32631000  0.62020300  0.62029700  1
  O  O24  1  0.24103300  0.90274300  0.40311000  1
  O  O25  1  0.24147200  0.40280100  0.90308400  1
  O  O26  1  0.75922300  0.59708200  0.09721600  1
  O  O27  1  0.75838300  0.09717100  0.59684800  1
  O  O28  1  0.75872100  0.53199000  0.53252800  1
  O  O29  1  0.75844100  0.03256300  0.03228600  1
  O  O30  1  0.24181500  0.96805500  0.96744300  1
  O  O31  1  0.24097400  0.46774800  0.46750500  1
  O  O32  1  0.65339200  0.68936300  0.83129200  1
  O  O33  1  0.65318400  0.18911200  0.33087000  1
  O  O34  1  0.34685600  0.16964400  0.31186800  1
  O  O35  1  0.34740500  0.66936200  0.81104800  1
  O  O36  1  0.34665700  0.25371300  0.61149100  1
  O  O37  1  0.34682000  0.75432700  0.11263700  1
  O  O38  1  0.65238700  0.38711000  0.74555900  1
  O  O39  1  0.65263300  0.88759400  0.24570200  1
  O  O40  1  0.34701900  0.81051400  0.66842500  1
  O  O41  1  0.34703700  0.31120800  0.16930900  1
  O  O42  1  0.65316700  0.33030300  0.18818800  1
  O  O43  1  0.65291600  0.83153100  0.68962200  1
  O  O44  1  0.65346500  0.24636700  0.88857700  1
  O  O45  1  0.65271200  0.74487300  0.38670100  1
  O  O46  1  0.34725800  0.11319800  0.75520600  1
  O  O47  1  0.34693600  0.61214400  0.25418500  1
  O  O48  1  0.48845600  0.49886000  0.64029700  1
  O  O49  1  0.48815900  0.99882300  0.14031500  1
  O  O50  1  0.50879800  0.35782600  0.49972800  1
  O  O51  1  0.51149400  0.85935500  0.00072100  1
  O  O52  1  0.50871100  0.14639400  0.50451900  1
  O  O53  1  0.51179300  0.64634200  0.00472500  1
  O  O54  1  0.48883900  0.49490100  0.85362500  1
  O  O55  1  0.48826000  0.99510100  0.35364200  1
  O  O56  1  0.51067100  0.00104400  0.85893200  1
  O  O57  1  0.51189000  0.50103200  0.35970200  1
  O  O58  1  0.49144300  0.14207700  0.00036900  1
  O  O59  1  0.48910600  0.64109700  0.49916500  1
  O  O60  1  0.49123000  0.35344100  0.99542900  1
  O  O61  1  0.48906300  0.85353200  0.49538700  1
  O  O62  1  0.51100300  0.00463800  0.64622200  1
  O  O63  1  0.51201900  0.50483400  0.14639800  1
  O  O64  1  0.08815300  0.14759400  0.64759100  1
  O  O65  1  0.08804000  0.64732600  0.14772600  1
  O  O66  1  0.91182300  0.35245000  0.85225200  1
  O  O67  1  0.91201800  0.85258100  0.35256100  1
  O  O68  1  0.91195700  0.35350400  0.35359800  1
  O  O69  1  0.91157700  0.85306800  0.85290900  1
  O  O70  1  0.08850900  0.14715600  0.14708000  1
  O  O71  1  0.08802200  0.64640400  0.64647400  1
  O  O72  1  0.99999500  0.99998000  0.99997400  1
loop_
_geom_bond_atom_site_label_1
_geom_bond_atom_site_label_2
_geom_bond_distance
_geom_bond_site_symmetry_2
Mg0 O50 2.154677 1_555
Mg0 O0 2.154868 1_555
Mg0 O52 2.154943 1_555
Mg0 O6 2.156208 1_555
Mg0 O36 2.160521 1_555
Mg0 O34 2.164805 1_555
Mg1 O60 2.153885 1_554
Mg1 O14 2.154704 1_555
Mg1 O8 2.155084 1_555
Mg1 O58 2.155910 1_555
Mg1 O44 2.162003 1_554
Mg1 O42 2.163073 1_555
Al0 O53 1.765752 1_556
Al0 O54 1.767934 1_555
Al0 O32 1.770925 1_555
Al0 O35 1.774376 1_555
Al1 O55 1.767293 1_545
Al1 O33 1.773784 1_555
Al1 O52 1.773827 1_555
Al1 O34 1.774079 1_555
Al2 O48 1.767235 1_555
Al2 O50 1.772235 1_555
Al2 O38 1.772417 1_555
Al2 O36 1.773145 1_555
Al3 O49 1.765842 1_555
Al3 O51 1.766659 1_555
Al3 O37 1.771776 1_555
Al3 O39 1.774168 1_555
Al4 O63 1.764611 1_555
Al4 O60 1.773089 1_554
Al4 O42 1.773375 1_555
Al4 O41 1.776810 1_555
Al5 O43 1.764096 1_555
Al5 O40 1.766248 1_555
Al5 O62 1.766785 1_565
Al5 O61 1.768717 1_555
Al6 O46 1.765804 1_555
Al6 O58 1.771832 1_556
Al6 O56 1.771873 1_555
Al6 O44 1.771988 1_555
Al7 O57 1.762165 1_555
Al7 O45 1.764792 1_555
Al7 O59 1.770785 1_555
Al7 O47 1.774639 1_555
Al8 O67 1.725651 1_455
Al8 O24 1.727711 1_555
Al8 O6 1.794886 1_565
Al8 O12 1.798273 1_555
Al9 O66 1.726145 1_455
Al9 O25 1.728794 1_555
Al9 O13 1.791345 1_556
Al9 O7 1.793680 1_555
Al10 O26 1.725486 1_555
Al10 O65 1.726322 1_655
Al10 O4 1.790058 1_554
Al10 O14 1.797112 1_555
Al11 O64 1.724801 1_655
Al11 O27 1.729561 1_555
Al11 O5 1.791923 1_555
Al11 O15 1.796435 1_545
Al12 O71 1.725596 1_655
Al12 O28 1.728642 1_555
Al12 O2 1.793341 1_555
Al12 O9 1.793940 1_555
Al13 O70 1.729184 1_655
Al13 O29 1.729906 1_555
Al13 O3 1.793079 1_555
Al13 O8 1.794098 1_555
Al14 O68 1.726776 1_455
Al14 O31 1.729183 1_555
Al14 O11 1.792598 1_555
Al14 O0 1.796339 1_555
Al15 O69 1.726826 1_455
Al15 O30 1.729876 1_555
Al15 O1 1.788493 1_555
Al15 O10 1.792495 1_555
Fe0 O39 2.169881 1_545
Fe0 O3 2.170801 1_555
Fe0 O5 2.174006 1_555
Fe0 O33 2.183362 1_555
Fe0 O55 2.192637 1_545
Fe0 O49 2.195001 1_545
Fe1 O2 2.169384 1_555
Fe1 O38 2.172799 1_555
Fe1 O4 2.180567 1_555
Fe1 O54 2.182984 1_555
Fe1 O48 2.187180 1_555
Fe1 O32 2.189210 1_555
Fe2 O7 2.168648 1_555
Fe2 O35 2.171900 1_555
Fe2 O1 2.176361 1_555
Fe2 O37 2.187062 1_556
Fe2 O53 2.187905 1_556
Fe2 O51 2.189561 1_556
Fe3 O13 2.169560 1_555
Fe3 O11 2.170362 1_555
Fe3 O47 2.171969 1_555
Fe3 O41 2.175740 1_555
Fe3 O63 2.196947 1_555
Fe3 O57 2.198599 1_555
Fe4 O62 2.170867 1_565
Fe4 O56 2.171416 1_565
Fe4 O12 2.175723 1_555
Fe4 O40 2.183524 1_555
Fe4 O10 2.185798 1_555
Fe4 O46 2.189986 1_565
Fe5 O61 2.166713 1_555
Fe5 O59 2.167793 1_555
Fe5 O15 2.180513 1_555
Fe5 O9 2.183354 1_555
Fe5 O43 2.187329 1_555
Fe5 O45 2.189804 1_555
O0 Si8 1.647893 1_555
O1 Si9 1.644961 1_455
O2 Si9 1.647153 1_555
O3 Si8 1.647869 1_655
O4 Si9 1.643276 1_555
O5 Si8 1.646804 1_655
O6 Si8 1.647687 1_555
O7 Si9 1.646049 1_455
O8 Si11 1.648380 1_555
O9 Si10 1.644690 1_655
O10 Si10 1.643264 1_555
O11 Si11 1.646944 1_455
O12 Si10 1.646506 1_555
O13 Si11 1.646914 1_455
O14 Si11 1.647278 1_555
O15 Si10 1.645515 1_655
O16 Si0 1.623910 1_555
O16 Si14 1.632350 1_555
O17 Si1 1.623051 1_555
O17 Si15 1.631146 1_555
O18 Si2 1.623895 1_555
O18 Si12 1.633476 1_555
O19 Si3 1.624218 1_555
O19 Si13 1.629329 1_555
O20 Si4 1.625148 1_555
O20 Si19 1.631782 1_555
O21 Si5 1.620568 1_555
O21 Si18 1.630256 1_555
O22 Si6 1.625414 1_555
O22 Si16 1.630710 1_555
O23 Si7 1.622320 1_555
O23 Si17 1.631262 1_555
O24 Si1 1.604810 1_555
O25 Si0 1.605187 1_555
O26 Si3 1.603707 1_555
O27 Si2 1.606069 1_555
O28 Si4 1.606376 1_555
O29 Si5 1.606039 1_544
O30 Si6 1.606731 1_566
O31 Si7 1.605022 1_555
O32 Si18 1.653490 1_555
O33 Si19 1.660487 1_555
O34 Si16 1.656930 1_555
O35 Si17 1.659270 1_555
O36 Si14 1.659734 1_555
O37 Si15 1.656100 1_555
O38 Si12 1.660113 1_555
O39 Si13 1.661604 1_555
O40 Si17 1.652874 1_555
O41 Si16 1.660747 1_555
O42 Si19 1.658490 1_555
O43 Si18 1.651186 1_555
O44 Si12 1.658273 1_555
O45 Si13 1.652013 1_555
O46 Si14 1.654909 1_555
O47 Si15 1.661285 1_555
O48 Si7 1.651374 1_555
O49 Si6 1.650654 1_565
O50 Si4 1.659351 1_555
O51 Si5 1.650662 1_554
O52 Si2 1.658809 1_555
O53 Si3 1.652109 1_555
O54 Si0 1.654073 1_555
O55 Si1 1.650981 1_555
O56 Si5 1.658138 1_545
O57 Si4 1.650090 1_555
O58 Si6 1.658326 1_555
O59 Si7 1.658602 1_555
O60 Si0 1.659300 1_555
O61 Si1 1.656954 1_555
O62 Si2 1.655982 1_555
O63 Si3 1.652089 1_555
O64 Si14 1.595758 1_555
O65 Si15 1.592536 1_555
O66 Si12 1.593996 1_555
O67 Si13 1.595382 1_555
O68 Si19 1.594913 1_555
O69 Si18 1.596292 1_555
O70 Si16 1.597359 1_555
O71 Si17 1.594423 1_555
