# generated using pymatgen
data_CuPbSO6
_symmetry_space_group_name_H-M   'P 1'
_cell_length_a   6.12902900
_cell_length_b   4.49819100
_cell_length_c   9.94661337
_cell_angle_alpha   81.60448006
_cell_angle_beta   90.00000000
_cell_angle_gamma   90.00000000
_symmetry_Int_Tables_number   1
_chemical_formula_structural   CuPbSO6
_chemical_formula_sum   'Cu2 Pb2 S2 O12'
_cell_volume   271.28493807
_cell_formula_units_Z   2
loop_
 _symmetry_equiv_pos_site_id
 _symmetry_equiv_pos_as_xyz
  1  'x, y, z'
loop_
 _atom_site_type_symbol
 _atom_site_label
 _atom_site_symmetry_multiplicity
 _atom_site_fract_x
 _atom_site_fract_y
 _atom_site_fract_z
 _atom_site_occupancy
  Cu  Cu0  1  0.50000000  0.50000000  0.50000000  1
  Cu  Cu1  1  0.00000000  0.50000000  0.50000000  1
  Pb  Pb0  1  0.25000000  0.14833300  0.85133800  1
  Pb  Pb1  1  0.75000000  0.85166700  0.14866200  1
  S  S0  1  0.25000000  0.01743900  0.18793400  1
  S  S1  1  0.75000000  0.98256100  0.81206600  1
  O  O0  1  0.25000000  0.83441300  0.07107600  1
  O  O1  1  0.75000000  0.16558700  0.92892400  1
  O  O2  1  0.25000000  0.81429100  0.31745200  1
  O  O3  1  0.75000000  0.18570900  0.68254800  1
  O  O4  1  0.45111200  0.20999100  0.17252900  1
  O  O5  1  0.95111200  0.79000900  0.82747100  1
  O  O6  1  0.54888800  0.79000900  0.82747100  1
  O  O7  1  0.04888800  0.20999100  0.17252900  1
  O  O8  1  0.25000000  0.57973200  0.60720100  1
  O  O9  1  0.75000000  0.42026800  0.39279900  1
  O  O10  1  0.25000000  0.26406300  0.56985300  1
  O  O11  1  0.75000000  0.73593700  0.43014700  1
loop_
_geom_bond_atom_site_label_1
_geom_bond_atom_site_label_2
_geom_bond_distance
_geom_bond_site_symmetry_2
Cu0 O8 1.930047 1_555
Cu0 O9 1.930047 1_555
Cu0 O10 1.934314 1_555
Cu0 O11 1.934314 1_555
Cu0 O3 2.625601 1_555
Cu0 O2 2.625601 1_555
Cu1 O9 1.930047 1_455
Cu1 O8 1.930047 1_555
Cu1 O10 1.934314 1_555
Cu1 O11 1.934314 1_455
Cu1 O3 2.625601 1_455
Cu1 O2 2.625601 1_555
O0 S0 1.519301 1_565
O0 Pb0 2.422762 1_564
O1 S1 1.519301 1_545
O1 Pb1 2.422762 1_546
O2 S0 1.466593 1_565
O3 S1 1.466593 1_545
O4 S0 1.501423 1_555
O4 Pb1 2.474238 1_545
O5 S1 1.501423 1_555
O5 Pb0 2.474238 1_665
O6 S1 1.501423 1_555
O6 Pb0 2.474238 1_565
O7 S0 1.501423 1_555
O7 Pb1 2.474238 1_445
O10 O8 1.519297 1_555
O10 Pb0 2.772074 1_555
O11 O9 1.519297 1_555
O11 Pb1 2.772074 1_555
