# generated using pymatgen
data_Ba2NdPaO6
_symmetry_space_group_name_H-M   'P 1'
_cell_length_a   6.39030217
_cell_length_b   6.39030217
_cell_length_c   6.39030217
_cell_angle_alpha   60.00000000
_cell_angle_beta   60.00000000
_cell_angle_gamma   60.00000000
_symmetry_Int_Tables_number   1
_chemical_formula_structural   Ba2NdPaO6
_chemical_formula_sum   'Ba2 Nd1 Pa1 O6'
_cell_volume   184.52243898
_cell_formula_units_Z   1
loop_
 _symmetry_equiv_pos_site_id
 _symmetry_equiv_pos_as_xyz
  1  'x, y, z'
loop_
 _atom_site_type_symbol
 _atom_site_label
 _atom_site_symmetry_multiplicity
 _atom_site_fract_x
 _atom_site_fract_y
 _atom_site_fract_z
 _atom_site_occupancy
  Ba  Ba0  1  0.75000000  0.75000000  0.75000000  1
  Ba  Ba1  1  0.25000000  0.25000000  0.25000000  1
  Nd  Nd0  1  0.50000000  0.50000000  0.50000000  1
  Pa  Pa0  1  0.00000000  0.00000000  0.00000000  1
  O  O0  1  0.75871000  0.75871000  0.24129000  1
  O  O1  1  0.24129000  0.24129000  0.75871000  1
  O  O2  1  0.75871000  0.24129000  0.75871000  1
  O  O3  1  0.24129000  0.75871000  0.24129000  1
  O  O4  1  0.24129000  0.75871000  0.75871000  1
  O  O5  1  0.75871000  0.24129000  0.24129000  1
loop_
_geom_bond_atom_site_label_1
_geom_bond_atom_site_label_2
_geom_bond_distance
_geom_bond_site_symmetry_2
Ba0 O4 3.196121 1_655
Ba0 O3 3.196121 1_655
Ba0 O5 3.196121 1_556
Ba0 O1 3.196121 1_565
Ba0 O5 3.196121 1_565
Ba0 O1 3.196121 1_655
Ba0 O0 3.196121 1_555
Ba0 O3 3.196121 1_556
Ba0 O0 3.196121 1_556
Ba0 O2 3.196121 1_555
Ba0 O2 3.196121 1_565
Ba0 O4 3.196121 1_555
Ba1 O2 3.196121 1_455
Ba1 O0 3.196121 1_545
Ba1 O1 3.196121 1_555
Ba1 O1 3.196121 1_554
Ba1 O5 3.196121 1_555
Ba1 O5 3.196121 1_455
Ba1 O3 3.196121 1_545
Ba1 O2 3.196121 1_554
Ba1 O4 3.196121 1_545
Ba1 O3 3.196121 1_555
Ba1 O0 3.196121 1_455
Ba1 O4 3.196121 1_554
Nd0 O4 2.338027 1_555
Nd0 O1 2.338027 1_555
Nd0 O2 2.338027 1_555
Nd0 O5 2.338027 1_555
Nd0 O3 2.338027 1_555
Nd0 O0 2.338027 1_555
O0 Pa0 2.180599 1_665
O1 Pa0 2.180599 1_556
O2 Pa0 2.180599 1_656
O3 Pa0 2.180599 1_565
O4 Pa0 2.180599 1_566
O5 Pa0 2.180599 1_655
