# generated using pymatgen
data_Al4(NiO4)3
_symmetry_space_group_name_H-M   'P 1'
_cell_length_a   5.67475929
_cell_length_b   5.67475929
_cell_length_c   13.97325752
_cell_angle_alpha   88.72512613
_cell_angle_beta   88.72512613
_cell_angle_gamma   60.88001988
_symmetry_Int_Tables_number   1
_chemical_formula_structural   Al4(NiO4)3
_chemical_formula_sum   'Al8 Ni6 O24'
_cell_volume   392.97217526
_cell_formula_units_Z   2
loop_
 _symmetry_equiv_pos_site_id
 _symmetry_equiv_pos_as_xyz
  1  'x, y, z'
loop_
 _atom_site_type_symbol
 _atom_site_label
 _atom_site_symmetry_multiplicity
 _atom_site_fract_x
 _atom_site_fract_y
 _atom_site_fract_z
 _atom_site_occupancy
  Al  Al0  1  0.16560700  0.16560700  0.05474600  1
  Al  Al1  1  0.49473700  0.49473700  0.37019400  1
  Al  Al2  1  0.83957800  0.83957800  0.33506700  1
  Al  Al3  1  0.16042200  0.16042200  0.66493300  1
  Al  Al4  1  0.65880600  0.65880600  0.15353700  1
  Al  Al5  1  0.34119400  0.34119400  0.84646300  1
  Al  Al6  1  0.50526300  0.50526300  0.62980600  1
  Al  Al7  1  0.83439300  0.83439300  0.94525400  1
  Ni  Ni0  1  0.15912300  0.67274400  0.16186300  1
  Ni  Ni1  1  0.50000000  0.00000000  0.50000000  1
  Ni  Ni2  1  0.84087700  0.32725600  0.83813700  1
  Ni  Ni3  1  0.67274400  0.15912300  0.16186300  1
  Ni  Ni4  1  0.00000000  0.50000000  0.50000000  1
  Ni  Ni5  1  0.32725600  0.84087700  0.83813700  1
  O  O0  1  0.33767700  0.33767700  0.09495900  1
  O  O1  1  0.66937100  0.66937100  0.40913100  1
  O  O2  1  0.01539400  0.01539400  0.76228600  1
  O  O3  1  0.82421400  0.33863600  0.09096200  1
  O  O4  1  0.14876900  0.65326800  0.40706900  1
  O  O5  1  0.43467100  0.04528000  0.76216100  1
  O  O6  1  0.50218500  0.50218500  0.23975800  1
  O  O7  1  0.81520000  0.81520000  0.56421000  1
  O  O8  1  0.17383000  0.17383000  0.92373400  1
  O  O9  1  0.33863600  0.82421400  0.09096200  1
  O  O10  1  0.65326800  0.14876900  0.40706900  1
  O  O11  1  0.04528000  0.43467100  0.76216100  1
  O  O12  1  0.95472000  0.56532900  0.23783900  1
  O  O13  1  0.34673200  0.85123100  0.59293100  1
  O  O14  1  0.66136400  0.17578600  0.90903800  1
  O  O15  1  0.56532900  0.95472000  0.23783900  1
  O  O16  1  0.85123100  0.34673200  0.59293100  1
  O  O17  1  0.17578600  0.66136400  0.90903800  1
  O  O18  1  0.82617000  0.82617000  0.07626600  1
  O  O19  1  0.18480000  0.18480000  0.43579000  1
  O  O20  1  0.49781500  0.49781500  0.76024200  1
  O  O21  1  0.98460600  0.98460600  0.23771400  1
  O  O22  1  0.33062900  0.33062900  0.59086900  1
  O  O23  1  0.66232300  0.66232300  0.90504100  1
loop_
_geom_bond_atom_site_label_1
_geom_bond_atom_site_label_2
_geom_bond_distance
_geom_bond_site_symmetry_2
Al0 O9 1.760823 1_545
Al0 O3 1.760823 1_455
Al0 O0 1.788712 1_555
Al0 O8 1.830356 1_554
Al1 O10 1.784908 1_555
Al1 O4 1.784908 1_555
Al1 O1 1.806666 1_555
Al1 O6 1.822192 1_555
Al2 O4 1.853198 1_655
Al2 O10 1.853198 1_565
Al2 O1 1.938029 1_555
Al2 O15 1.938978 1_555
Al2 O12 1.938978 1_555
Al2 O21 1.940301 1_555
Al3 O13 1.853198 1_545
Al3 O16 1.853198 1_455
Al3 O22 1.938029 1_555
Al3 O11 1.938978 1_555
Al3 O5 1.938978 1_555
Al3 O2 1.940301 1_555
Al4 O9 1.822360 1_555
Al4 O3 1.822360 1_555
Al4 O15 1.918882 1_555
Al4 O12 1.918882 1_555
Al4 O6 1.924821 1_555
Al4 O18 1.938176 1_555
Al5 O17 1.822360 1_555
Al5 O14 1.822360 1_555
Al5 O11 1.918882 1_555
Al5 O5 1.918882 1_555
Al5 O20 1.924821 1_555
Al5 O8 1.938176 1_555
Al6 O13 1.784908 1_555
Al6 O16 1.784908 1_555
Al6 O22 1.806666 1_555
Al6 O20 1.822192 1_555
Al7 O14 1.760823 1_565
Al7 O17 1.760823 1_655
Al7 O23 1.788712 1_555
Al7 O18 1.830356 1_556
Ni0 O12 1.857051 1_455
Ni0 O9 1.878169 1_555
Ni0 O21 1.888666 1_455
Ni0 O0 1.917779 1_555
Ni0 O6 2.031013 1_555
Ni0 O18 2.052242 1_455
Ni1 O19 1.818802 1_555
Ni1 O7 1.818802 1_545
Ni1 O10 1.941919 1_555
Ni1 O13 1.941919 1_545
Ni1 O22 2.086350 1_555
Ni1 O1 2.086350 1_545
Ni2 O11 1.857051 1_655
Ni2 O14 1.878169 1_555
Ni2 O2 1.888666 1_655
Ni2 O23 1.917779 1_555
Ni2 O20 2.031013 1_555
Ni2 O8 2.052242 1_655
Ni3 O15 1.857051 1_545
Ni3 O3 1.878169 1_555
Ni3 O21 1.888666 1_545
Ni3 O0 1.917779 1_555
Ni3 O6 2.031013 1_555
Ni3 O18 2.052242 1_545
Ni4 O19 1.818802 1_555
Ni4 O7 1.818802 1_455
Ni4 O4 1.941919 1_555
Ni4 O16 1.941919 1_455
Ni4 O1 2.086350 1_455
Ni4 O22 2.086350 1_555
Ni5 O5 1.857051 1_565
Ni5 O17 1.878169 1_555
Ni5 O2 1.888666 1_565
Ni5 O23 1.917779 1_555
Ni5 O20 2.031013 1_555
Ni5 O8 2.052242 1_565
