# generated using pymatgen
data_K2Pd3Se2
_symmetry_space_group_name_H-M   'P 1'
_cell_length_a   10.32789032
_cell_length_b   6.87641833
_cell_length_c   19.79310352
_cell_angle_alpha   78.70131020
_cell_angle_beta   74.87675598
_cell_angle_gamma   41.32601772
_symmetry_Int_Tables_number   1
_chemical_formula_structural   K2Pd3Se2
_chemical_formula_sum   'K8 Pd12 Se8'
_cell_volume   896.08581691
_cell_formula_units_Z   4
loop_
 _symmetry_equiv_pos_site_id
 _symmetry_equiv_pos_as_xyz
  1  'x, y, z'
loop_
 _atom_site_type_symbol
 _atom_site_label
 _atom_site_symmetry_multiplicity
 _atom_site_fract_x
 _atom_site_fract_y
 _atom_site_fract_z
 _atom_site_occupancy
  K  K0  1  0.68583173  0.02918466  0.11153904  1
  K  K1  1  0.20262923  0.97081534  0.11153904  1
  K  K2  1  0.28498360  0.02918467  0.88846096  1
  K  K3  1  0.06416827  0.47081534  0.38846096  1
  K  K4  1  0.82655543  0.97081533  0.88846096  1
  K  K5  1  0.54737077  0.52918466  0.38846096  1
  K  K6  1  0.46501640  0.47081533  0.61153904  1
  K  K7  1  0.92344457  0.52918467  0.61153904  1
  Pd  Pd0  1  0.66651681  0.14209602  0.74887165  1
  Pd  Pd1  1  0.58461154  0.85790398  0.74887165  1
  Pd  Pd2  1  0.19138717  0.14209602  0.25112835  1
  Pd  Pd3  1  0.08348319  0.35790398  0.75112835  1
  Pd  Pd4  1  0.55748448  0.85790398  0.25112835  1
  Pd  Pd5  1  0.16538846  0.64209602  0.75112835  1
  Pd  Pd6  1  0.55861283  0.35790398  0.24887165  1
  Pd  Pd7  1  0.19251552  0.64209602  0.24887165  1
  Pd  Pd8  1  0.87500000  0.25000000  0.25000000  1
  Pd  Pd9  1  0.87500000  0.75000000  0.25000000  1
  Pd  Pd10  1  0.87500000  0.25000000  0.75000000  1
  Pd  Pd11  1  0.37500000  0.75000000  0.75000000  1
  Se  Se0  1  0.66189109  0.54251255  0.15789363  1
  Se  Se1  1  0.18021528  0.45748745  0.15789363  1
  Se  Se2  1  0.79559636  0.54251254  0.84210637  1
  Se  Se3  1  0.08810891  0.95748745  0.34210637  1
  Se  Se4  1  0.36229726  0.45748746  0.84210637  1
  Se  Se5  1  0.56978472  0.04251255  0.34210637  1
  Se  Se6  1  0.95440364  0.95748746  0.65789363  1
  Se  Se7  1  0.38770274  0.04251254  0.65789363  1
loop_
_geom_bond_atom_site_label_1
_geom_bond_atom_site_label_2
_geom_bond_distance
_geom_bond_site_symmetry_2
K0 Pd4 3.152251 1_545
K0 Pd9 3.179968 1_545
K0 Pd6 3.210609 1_555
K0 Se0 3.467516 1_545
K0 Se1 3.499211 1_555
K0 Se0 3.633548 1_555
K0 Se1 3.640114 1_645
K1 Pd2 3.152251 1_565
K1 Pd8 3.179968 1_465
K1 Pd7 3.210609 1_555
K1 Se1 3.467516 1_565
K1 Se0 3.499211 1_555
K1 Se1 3.633548 1_555
K1 Se0 3.640114 1_465
K2 Pd1 3.152251 1_545
K2 Pd11 3.179968 1_545
K2 Pd3 3.210609 1_555
K2 Se2 3.467516 1_545
K2 Se4 3.499211 1_555
K2 Se2 3.633548 1_455
K2 Se4 3.640114 1_545
K3 Pd7 3.152251 1_555
K3 Pd9 3.179968 1_455
K3 Pd2 3.210609 1_555
K3 Se3 3.467516 1_555
K3 Se5 3.499211 1_555
K3 Se3 3.633548 1_545
K3 Se5 3.640114 1_465
K4 Pd0 3.152251 1_565
K4 Pd10 3.179968 1_565
K4 Pd5 3.210610 1_655
K4 Se4 3.467516 1_565
K4 Se2 3.499211 1_555
K4 Se4 3.633548 1_655
K4 Se2 3.640114 1_565
K5 Pd6 3.152251 1_555
K5 Pd8 3.179968 1_555
K5 Pd4 3.210609 1_555
K5 Se5 3.467516 1_555
K5 Se3 3.499211 1_555
K5 Se5 3.633548 1_565
K5 Se3 3.640114 1_645
K6 Pd5 3.152251 1_555
K6 Pd11 3.179968 1_555
K6 Pd0 3.210609 1_555
K6 Se6 3.467516 1_455
K6 Se7 3.499211 1_555
K6 Se6 3.633548 1_545
K6 Se7 3.640114 1_565
K7 Pd3 3.152251 1_655
K7 Pd10 3.179968 1_555
K7 Pd1 3.210610 1_555
K7 Se7 3.467516 1_655
K7 Se6 3.499211 1_555
K7 Se7 3.633548 1_565
K7 Se6 3.640114 1_545
Pd0 Se6 2.475398 1_545
Pd0 Se4 2.507860 1_555
Pd0 Pd1 2.649034 1_545
Pd0 Pd10 2.760151 1_555
Pd0 Pd11 2.763713 1_555
Pd1 Se7 2.475398 1_565
Pd1 Se2 2.507860 1_555
Pd1 Pd11 2.760151 1_555
Pd1 Pd10 2.763713 1_555
Pd2 Se3 2.475398 1_545
Pd2 Se1 2.507860 1_555
Pd2 Pd4 2.649034 1_545
Pd2 Pd8 2.760151 1_455
Pd2 Pd9 2.763713 1_455
Pd3 Se2 2.475398 1_455
Pd3 Se7 2.507860 1_555
Pd3 Pd5 2.649034 1_555
Pd4 Se5 2.475398 1_565
Pd4 Se0 2.507860 1_555
Pd4 Pd9 2.760151 1_555
Pd4 Pd8 2.763713 1_555
Pd5 Se4 2.475398 1_555
Pd5 Se6 2.507860 1_455
Pd6 Se0 2.475398 1_555
Pd6 Se5 2.507860 1_555
Pd6 Pd7 2.649034 1_555
Pd6 Pd8 2.760151 1_555
Pd6 Pd9 2.763713 1_545
Pd7 Se1 2.475398 1_555
Pd7 Se3 2.507860 1_555
Pd7 Pd9 2.760151 1_455
Pd7 Pd8 2.763713 1_465
Pd8 Se0 2.494257 1_555
Pd8 Se3 2.494257 1_645
Pd9 Se1 2.494257 1_655
Pd9 Se5 2.494257 1_565
Pd10 Se6 2.494257 1_545
Pd10 Se2 2.494257 1_555
Pd10 Pd3 2.760151 1_655
Pd10 Pd5 2.763713 1_645
Pd11 Se7 2.494257 1_565
Pd11 Se4 2.494257 1_555
Pd11 Pd5 2.760151 1_555
Pd11 Pd3 2.763713 1_565
