# generated using pymatgen
data_Sm3(Si3Pd10)2
_symmetry_space_group_name_H-M   'P 1'
_cell_length_a   8.68296041
_cell_length_b   8.68296500
_cell_length_c   8.68296877
_cell_angle_alpha   59.99989911
_cell_angle_beta   59.99990555
_cell_angle_gamma   59.99993144
_symmetry_Int_Tables_number   1
_chemical_formula_structural   Sm3(Si3Pd10)2
_chemical_formula_sum   'Sm3 Si6 Pd20'
_cell_volume   462.90113632
_cell_formula_units_Z   1
loop_
 _symmetry_equiv_pos_site_id
 _symmetry_equiv_pos_as_xyz
  1  'x, y, z'
loop_
 _atom_site_type_symbol
 _atom_site_label
 _atom_site_symmetry_multiplicity
 _atom_site_fract_x
 _atom_site_fract_y
 _atom_site_fract_z
 _atom_site_occupancy
  Sm  Sm0  1  0.25000011  0.25000309  0.24999641  1
  Sm  Sm1  1  0.74999986  0.74999686  0.75000362  1
  Sm  Sm2  1  -0.00000002  -0.00000005  -0.00000006  1
  Si  Si0  1  0.73305436  0.26694739  0.26694237  1
  Si  Si1  1  0.26694540  0.73305287  0.73305800  1
  Si  Si2  1  0.26694630  0.73305369  0.26694311  1
  Si  Si3  1  0.73305409  0.26694633  0.73305662  1
  Si  Si4  1  0.26694376  0.26694584  0.73305645  1
  Si  Si5  1  0.73305619  0.73305439  0.26694316  1
  Pd  Pd0  1  0.38489992  0.38490326  0.38489740  1
  Pd  Pd1  1  0.61510032  0.61509663  0.61510277  1
  Pd  Pd2  1  0.38489809  0.38490107  0.84530200  1
  Pd  Pd3  1  0.38490099  0.84529881  0.38489789  1
  Pd  Pd4  1  0.61510154  0.61509910  0.15469846  1
  Pd  Pd5  1  0.61509897  0.15470147  0.61510246  1
  Pd  Pd6  1  0.84530047  0.38490252  0.38489599  1
  Pd  Pd7  1  0.15469941  0.61509757  0.61510392  1
  Pd  Pd8  1  0.34679089  0.00000116  0.00000080  1
  Pd  Pd9  1  0.65320910  0.99999849  0.99999876  1
  Pd  Pd10  1  -0.00000129  0.34679328  0.65320989  1
  Pd  Pd11  1  0.00000113  0.65320691  0.34679012  1
  Pd  Pd12  1  0.00000069  0.34679329  0.00000036  1
  Pd  Pd13  1  0.65320975  0.99999970  0.34679041  1
  Pd  Pd14  1  0.99999927  0.65320670  0.99999962  1
  Pd  Pd15  1  0.34679045  -0.00000005  0.65321049  1
  Pd  Pd16  1  0.00000175  0.00000090  0.34678932  1
  Pd  Pd17  1  -0.00000150  -0.00000109  0.65321066  1
  Pd  Pd18  1  0.65320776  0.34679415  -0.00000118  1
  Pd  Pd19  1  0.34679223  0.65320569  0.00000116  1
loop_
_geom_bond_atom_site_label_1
_geom_bond_atom_site_label_2
_geom_bond_distance
_geom_bond_site_symmetry_2
Pd0 Si2 2.468415 1_555
Pd0 Si0 2.468442 1_555
Pd0 Si4 2.468476 1_555
Pd0 Sm0 2.869174 1_555
Pd1 Si3 2.468414 1_555
Pd1 Si1 2.468445 1_555
Pd1 Si5 2.468480 1_555
Pd1 Sm1 2.869172 1_555
Pd2 Si1 2.468424 1_555
Pd2 Si4 2.468452 1_555
Pd2 Si3 2.468453 1_555
Pd2 Sm0 2.869124 1_556
Pd3 Si5 2.468447 1_555
Pd3 Si2 2.468448 1_555
Pd3 Si1 2.468484 1_555
Pd3 Sm0 2.869193 1_565
Pd4 Si0 2.468424 1_555
Pd4 Si2 2.468448 1_555
Pd4 Si5 2.468449 1_555
Pd4 Sm1 2.869127 1_554
Pd5 Si3 2.468445 1_555
Pd5 Si4 2.468447 1_555
Pd5 Si0 2.468484 1_555
Pd5 Sm1 2.869195 1_545
Pd6 Si5 2.468425 1_555
Pd6 Si0 2.468450 1_555
Pd6 Si3 2.468487 1_555
Pd6 Sm0 2.869159 1_655
Pd7 Si4 2.468424 1_555
Pd7 Si1 2.468454 1_555
Pd7 Si2 2.468489 1_555
Pd7 Sm1 2.869158 1_455
Pd8 Si4 2.419336 1_554
Pd8 Si2 2.419338 1_545
Pd8 Sm2 3.011181 1_555
Pd8 Sm0 3.345721 1_555
Pd8 Sm1 3.345739 1_544
Pd9 Si5 2.419334 1_556
Pd9 Si3 2.419341 1_565
Pd9 Sm2 3.011183 1_666
Pd9 Sm1 3.345716 1_555
Pd9 Sm0 3.345742 1_566
Pd10 Si3 2.419338 1_455
Pd10 Si4 2.419338 1_555
Pd10 Sm2 3.011176 1_556
Pd10 Sm1 3.345706 1_455
Pd10 Sm0 3.345766 1_555
Pd11 Si5 2.419339 1_455
Pd11 Si2 2.419341 1_555
Pd11 Sm2 3.011175 1_565
Pd11 Sm0 3.345708 1_555
Pd11 Sm1 3.345765 1_455
Pd12 Si4 2.419329 1_554
Pd12 Si0 2.419334 1_455
Pd12 Sm2 3.011199 1_555
Pd12 Sm1 3.345705 1_454
Pd12 Sm0 3.345707 1_555
Pd13 Si0 2.419348 1_565
Pd13 Si5 2.419348 1_555
Pd13 Sm2 3.011164 1_665
Pd13 Sm0 3.345750 1_565
Pd13 Sm1 3.345763 1_555
Pd14 Si5 2.419328 1_556
Pd14 Si1 2.419333 1_655
Pd14 Sm2 3.011198 1_666
Pd14 Sm0 3.345705 1_656
Pd14 Sm1 3.345706 1_555
Pd15 Si4 2.419345 1_555
Pd15 Si1 2.419347 1_545
Pd15 Sm2 3.011161 1_556
Pd15 Sm1 3.345745 1_545
Pd15 Sm0 3.345770 1_555
Pd16 Si2 2.419348 1_545
Pd16 Si0 2.419356 1_455
Pd16 Sm2 3.011173 1_555
Pd16 Sm0 3.345733 1_555
Pd16 Sm1 3.345773 1_445
Pd17 Si3 2.419349 1_455
Pd17 Si1 2.419353 1_545
Pd17 Sm2 3.011171 1_556
Pd17 Sm1 3.345734 1_445
Pd17 Sm0 3.345773 1_555
Pd18 Si3 2.419326 1_554
Pd18 Si0 2.419329 1_555
Pd18 Sm2 3.011189 1_655
Pd18 Sm1 3.345691 1_554
Pd18 Sm0 3.345722 1_555
Pd19 Si1 2.419326 1_554
Pd19 Si2 2.419326 1_555
Pd19 Sm2 3.011190 1_565
Pd19 Sm0 3.345691 1_555
Pd19 Sm1 3.345723 1_554
