# generated using pymatgen
data_ErB4(IrRh)2
_symmetry_space_group_name_H-M   'P 1'
_cell_length_a   5.37367400
_cell_length_b   5.37367400
_cell_length_c   7.45069300
_cell_angle_alpha   90.00000000
_cell_angle_beta   90.00000000
_cell_angle_gamma   90.00000000
_symmetry_Int_Tables_number   1
_chemical_formula_structural   ErB4(IrRh)2
_chemical_formula_sum   'Er2 B8 Ir4 Rh4'
_cell_volume   215.14898465
_cell_formula_units_Z   2
loop_
 _symmetry_equiv_pos_site_id
 _symmetry_equiv_pos_as_xyz
  1  'x, y, z'
loop_
 _atom_site_type_symbol
 _atom_site_label
 _atom_site_symmetry_multiplicity
 _atom_site_fract_x
 _atom_site_fract_y
 _atom_site_fract_z
 _atom_site_occupancy
  Er  Er0  1  0.50000000  0.00000000  0.24804900  1
  Er  Er1  1  0.00000000  0.50000000  0.74804900  1
  B  B0  1  0.32857800  0.50000000  0.40358700  1
  B  B1  1  0.67142200  0.50000000  0.40358700  1
  B  B2  1  0.50000000  0.32857800  0.90358700  1
  B  B3  1  0.50000000  0.67142200  0.90358700  1
  B  B4  1  0.17008500  0.00000000  0.59836100  1
  B  B5  1  0.82991500  0.00000000  0.59836100  1
  B  B6  1  0.00000000  0.17008500  0.09836100  1
  B  B7  1  0.00000000  0.82991500  0.09836100  1
  Ir  Ir0  1  0.75161700  0.50000000  0.10512200  1
  Ir  Ir1  1  0.24838300  0.50000000  0.10512200  1
  Ir  Ir2  1  0.50000000  0.75161700  0.60512200  1
  Ir  Ir3  1  0.50000000  0.24838300  0.60512200  1
  Rh  Rh0  1  0.74940800  0.00000000  0.89390600  1
  Rh  Rh1  1  0.25059200  0.00000000  0.89390600  1
  Rh  Rh2  1  0.00000000  0.74940800  0.39390600  1
  Rh  Rh3  1  0.00000000  0.25059200  0.39390600  1
loop_
_geom_bond_atom_site_label_1
_geom_bond_atom_site_label_2
_geom_bond_distance
_geom_bond_site_symmetry_2
Er0 Rh0 2.959477 1_554
Er0 Rh1 2.959477 1_554
Er0 Ir2 2.976483 1_545
Er0 Ir3 2.976483 1_555
Er0 Ir1 3.190817 1_555
Er0 Ir0 3.190817 1_545
Er0 Ir0 3.190817 1_555
Er0 Ir1 3.190817 1_545
Er0 Rh3 3.195844 1_555
Er0 Rh3 3.195844 1_655
Er0 Rh2 3.195844 1_545
Er0 Rh2 3.195844 1_645
Er1 Rh2 2.959477 1_555
Er1 Rh3 2.959477 1_555
Er1 Ir1 2.976483 1_556
Er1 Ir0 2.976483 1_456
Er1 Ir2 3.190817 1_555
Er1 Ir3 3.190817 1_455
Er1 Ir2 3.190817 1_455
Er1 Ir3 3.190817 1_555
Er1 Rh1 3.195844 1_565
Er1 Rh1 3.195844 1_555
Er1 Rh0 3.195844 1_455
Er1 Rh0 3.195844 1_465
B0 B1 1.842332 1_555
B0 Rh2 2.217889 1_555
B0 Rh3 2.217889 1_555
B0 Ir2 2.220691 1_555
B0 Ir3 2.220691 1_555
B0 Ir1 2.265142 1_555
B0 Er0 3.067672 1_565
B0 Er0 3.067672 1_555
B0 Er1 3.115191 1_555
B1 Rh3 2.217889 1_655
B1 Rh2 2.217889 1_655
B1 Ir2 2.220691 1_555
B1 Ir3 2.220691 1_555
B1 Ir0 2.265142 1_555
B1 Er0 3.067672 1_555
B1 Er0 3.067672 1_565
B1 Er1 3.115191 1_655
B2 B3 1.842332 1_555
B2 Rh1 2.217889 1_555
B2 Rh0 2.217889 1_555
B2 Ir1 2.220691 1_556
B2 Ir0 2.220691 1_556
B2 Ir3 2.265142 1_555
B2 Er1 3.067672 1_555
B2 Er1 3.067672 1_655
B2 Er0 3.115191 1_556
B3 Rh0 2.217889 1_565
B3 Rh1 2.217889 1_565
B3 Ir1 2.220691 1_556
B3 Ir0 2.220691 1_556
B3 Ir2 2.265142 1_555
B3 Er1 3.067672 1_555
B3 Er1 3.067672 1_655
B3 Er0 3.115191 1_566
B4 B5 1.827963 1_455
B4 Ir3 2.219697 1_555
B4 Ir2 2.219697 1_545
B4 Rh3 2.229177 1_555
B4 Rh2 2.229177 1_545
B4 Rh1 2.244110 1_555
B4 Er1 3.049312 1_555
B4 Er1 3.049312 1_545
B4 Er0 3.155229 1_555
B5 Ir2 2.219697 1_545
B5 Ir3 2.219697 1_555
B5 Rh2 2.229177 1_645
B5 Rh3 2.229177 1_655
B5 Rh0 2.244110 1_555
B5 Er1 3.049312 1_655
B5 Er1 3.049312 1_645
B5 Er0 3.155229 1_555
B6 B7 1.827963 1_545
B6 Ir0 2.219697 1_455
B6 Ir1 2.219697 1_555
B6 Rh1 2.229177 1_554
B6 Rh0 2.229177 1_454
B6 Rh3 2.244110 1_555
B6 Er0 3.049312 1_455
B6 Er0 3.049312 1_555
B6 Er1 3.155229 1_554
B7 Ir0 2.219697 1_455
B7 Ir1 2.219697 1_555
B7 Rh0 2.229177 1_464
B7 Rh1 2.229177 1_564
B7 Rh2 2.244110 1_555
B7 Er0 3.049312 1_465
B7 Er0 3.049312 1_565
B7 Er1 3.155229 1_554
