# generated using pymatgen
data_SrLiAl2B2O7
_symmetry_space_group_name_H-M   'P 1'
_cell_length_a   8.63408943
_cell_length_b   8.63893441
_cell_length_c   8.63577761
_cell_angle_alpha   33.64535436
_cell_angle_beta   33.66487015
_cell_angle_gamma   33.65326926
_symmetry_Int_Tables_number   1
_chemical_formula_structural   SrLiAl2B2O7
_chemical_formula_sum   'Sr1 Li1 Al2 B2 O7'
_cell_volume   176.23728056
_cell_formula_units_Z   1
loop_
 _symmetry_equiv_pos_site_id
 _symmetry_equiv_pos_as_xyz
  1  'x, y, z'
loop_
 _atom_site_type_symbol
 _atom_site_label
 _atom_site_symmetry_multiplicity
 _atom_site_fract_x
 _atom_site_fract_y
 _atom_site_fract_z
 _atom_site_occupancy
  Sr  Sr0  1  0.00610200  0.00760300  0.00602600  1
  Li  Li0  1  0.66366700  0.66577400  0.66412000  1
  Al  Al0  1  0.42589900  0.42628700  0.42569300  1
  Al  Al1  1  0.56341500  0.56386900  0.56357600  1
  B  B0  1  0.26590800  0.26632300  0.26596200  1
  B  B1  1  0.75044900  0.75053200  0.74996900  1
  O  O0  1  0.03193800  0.65047500  0.49839400  1
  O  O1  1  0.49862300  0.03253000  0.64986800  1
  O  O2  1  0.65005600  0.49910700  0.03184100  1
  O  O3  1  0.49511600  0.49581700  0.49580400  1
  O  O4  1  0.35849900  0.95628700  0.49052200  1
  O  O5  1  0.49048900  0.35869900  0.95613400  1
  O  O6  1  0.95608900  0.49075800  0.35834000  1
loop_
_geom_bond_atom_site_label_1
_geom_bond_atom_site_label_2
_geom_bond_distance
_geom_bond_site_symmetry_2
Li0 O1 2.051962 1_565
Li0 O0 2.053390 1_655
Li0 O2 2.054003 1_556
Li0 O4 2.188709 1_555
Li0 O5 2.195726 1_555
Li0 O6 2.197240 1_555
Al0 O3 1.699998 1_555
Al0 O1 1.793445 1_555
Al0 O2 1.793545 1_555
Al0 O0 1.793739 1_555
Al1 O3 1.661456 1_555
Al1 O5 1.825108 1_555
Al1 O6 1.825160 1_555
Al1 O4 1.825530 1_555
B0 O6 1.392769 1_455
B0 O5 1.393067 1_554
B0 O4 1.393389 1_545
B1 O2 1.487827 1_556
B1 O1 1.487848 1_565
B1 O0 1.487919 1_655
O0 Sr0 2.497854 1_565
O1 Sr0 2.497978 1_556
O2 Sr0 2.496715 1_655
O4 Sr0 2.786705 1_566
O5 Sr0 2.782360 1_656
O6 Sr0 2.790017 1_665
