# generated using pymatgen
data_Rb3Ge7HO20
_symmetry_space_group_name_H-M   'P 1'
_cell_length_a   7.86425379
_cell_length_b   7.86425379
_cell_length_c   7.86425342
_cell_angle_alpha   89.52796486
_cell_angle_beta   89.52796486
_cell_angle_gamma   89.52795919
_symmetry_Int_Tables_number   1
_chemical_formula_structural   Rb3Ge7HO20
_chemical_formula_sum   'Rb3 Ge7 H1 O20'
_cell_volume   486.32720356
_cell_formula_units_Z   1
loop_
 _symmetry_equiv_pos_site_id
 _symmetry_equiv_pos_as_xyz
  1  'x, y, z'
loop_
 _atom_site_type_symbol
 _atom_site_label
 _atom_site_symmetry_multiplicity
 _atom_site_fract_x
 _atom_site_fract_y
 _atom_site_fract_z
 _atom_site_occupancy
  Rb  Rb0  1  0.98609900  0.47687400  0.98609900  1
  Rb  Rb1  1  0.98609900  0.98609900  0.47687400  1
  Rb  Rb2  1  0.47687400  0.98609900  0.98609900  1
  Ge  Ge0  1  0.98280400  0.48771100  0.48771100  1
  Ge  Ge1  1  0.48771100  0.98280400  0.48771100  1
  Ge  Ge2  1  0.48771100  0.48771100  0.98280400  1
  Ge  Ge3  1  0.35237200  0.35237200  0.35237200  1
  Ge  Ge4  1  0.32585300  0.63736400  0.63736400  1
  Ge  Ge5  1  0.63736400  0.63736400  0.32585300  1
  Ge  Ge6  1  0.63736400  0.32585300  0.63736400  1
  H  H0  1  0.54883700  0.54883700  0.54883700  1
  O  O0  1  0.82033200  0.82033200  0.82033200  1
  O  O1  1  0.79565400  0.22981900  0.22981900  1
  O  O2  1  0.22981900  0.22981900  0.79565400  1
  O  O3  1  0.22981900  0.79565400  0.22981900  1
  O  O4  1  0.11818800  0.36082000  0.36082000  1
  O  O5  1  0.36082000  0.11818800  0.36082000  1
  O  O6  1  0.36082000  0.36082000  0.11818800  1
  O  O7  1  0.09767300  0.62389300  0.62389300  1
  O  O8  1  0.34603600  0.86769200  0.62161800  1
  O  O9  1  0.34603600  0.62161800  0.86769200  1
  O  O10  1  0.86769200  0.62161800  0.34603600  1
  O  O11  1  0.62161800  0.86769200  0.34603600  1
  O  O12  1  0.62389300  0.62389300  0.09767300  1
  O  O13  1  0.86769200  0.34603600  0.62161800  1
  O  O14  1  0.62389300  0.09767300  0.62389300  1
  O  O15  1  0.62161800  0.34603600  0.86769200  1
  O  O16  1  0.61992900  0.61992900  0.61992900  1
  O  O17  1  0.60870500  0.38198800  0.38198800  1
  O  O18  1  0.38198800  0.38198800  0.60870500  1
  O  O19  1  0.38198800  0.60870500  0.38198800  1
loop_
_geom_bond_atom_site_label_1
_geom_bond_atom_site_label_2
_geom_bond_distance
_geom_bond_site_symmetry_2
Ge0 O4 1.762552 1_655
Ge0 O10 1.775229 1_555
Ge0 O13 1.775229 1_555
Ge0 O7 1.777861 1_655
Ge1 O5 1.762552 1_565
Ge1 O11 1.775229 1_555
Ge1 O8 1.775229 1_555
Ge1 O14 1.777861 1_565
Ge2 O6 1.762552 1_556
Ge2 O9 1.775229 1_555
Ge2 O15 1.775229 1_555
Ge2 O12 1.777861 1_556
Ge3 O6 1.843004 1_555
Ge3 O4 1.843004 1_555
Ge3 O5 1.843004 1_555
Ge3 O18 2.046602 1_555
Ge3 O19 2.046602 1_555
Ge3 O17 2.046602 1_555
Ge4 O7 1.802499 1_555
Ge4 O9 1.822707 1_555
Ge4 O8 1.822707 1_555
Ge4 O19 2.066478 1_555
Ge4 O18 2.066478 1_555
Ge5 O12 1.802499 1_555
Ge5 O11 1.822707 1_555
Ge5 O10 1.822707 1_555
Ge5 O17 2.066478 1_555
Ge5 O19 2.066478 1_555
Ge6 O14 1.802499 1_555
Ge6 O15 1.822707 1_555
Ge6 O13 1.822707 1_555
Ge6 O17 2.066478 1_555
Ge6 O18 2.066478 1_555
H0 O16 0.976310 1_555
O0 Rb0 3.256764 1_555
O0 Rb2 3.256764 1_555
O0 Rb1 3.256764 1_555
O1 Rb1 3.103375 1_545
O1 Rb0 3.103375 1_554
O2 Rb2 3.103375 1_545
O2 Rb0 3.103375 1_455
O3 Rb1 3.103375 1_455
O3 Rb2 3.103375 1_554
O4 Rb0 3.253732 1_454
O4 Rb1 3.253733 1_445
O5 Rb2 3.253732 1_544
O5 Rb1 3.253733 1_445
O6 Rb2 3.253732 1_544
O6 Rb0 3.253732 1_454
O7 Rb1 3.184620 1_455
O7 Rb0 3.184620 1_455
O8 Rb1 3.188657 1_455
O8 Rb2 3.201604 1_555
O9 Rb0 3.188657 1_455
O9 Rb2 3.201604 1_555
O10 Rb0 3.188656 1_554
O10 Rb1 3.201604 1_555
O11 Rb2 3.188656 1_554
O11 Rb1 3.201604 1_555
O12 Rb0 3.184620 1_554
O12 Rb2 3.184620 1_554
O13 Rb1 3.188657 1_545
O13 Rb0 3.201604 1_555
O14 Rb1 3.184620 1_545
O14 Rb2 3.184620 1_545
O15 Rb2 3.188657 1_545
O15 Rb0 3.201604 1_555
