# generated using pymatgen
data_CsLu7Se11
_symmetry_space_group_name_H-M   'P 1'
_cell_length_a   10.62198788
_cell_length_b   10.62198788
_cell_length_c   19.65316400
_cell_angle_alpha   90.00000000
_cell_angle_beta   90.00000000
_cell_angle_gamma   97.75569672
_symmetry_Int_Tables_number   1
_chemical_formula_structural   CsLu7Se11
_chemical_formula_sum   'Cs4 Lu28 Se44'
_cell_volume   2197.11649089
_cell_formula_units_Z   4
loop_
 _symmetry_equiv_pos_site_id
 _symmetry_equiv_pos_as_xyz
  1  'x, y, z'
loop_
 _atom_site_type_symbol
 _atom_site_label
 _atom_site_symmetry_multiplicity
 _atom_site_fract_x
 _atom_site_fract_y
 _atom_site_fract_z
 _atom_site_occupancy
  Cs  Cs0  1  0.08698400  0.08698400  0.59325700  1
  Cs  Cs1  1  0.91301600  0.91301600  0.40674300  1
  Cs  Cs2  1  0.41301600  0.41301600  0.09325700  1
  Cs  Cs3  1  0.58698400  0.58698400  0.90674300  1
  Lu  Lu0  1  0.40493500  0.40493500  0.67537100  1
  Lu  Lu1  1  0.59506500  0.59506500  0.32462900  1
  Lu  Lu2  1  0.09506500  0.09506500  0.17537100  1
  Lu  Lu3  1  0.90493500  0.90493500  0.82462900  1
  Lu  Lu4  1  0.30104300  0.04762900  0.82807900  1
  Lu  Lu5  1  0.95237100  0.69895700  0.17192100  1
  Lu  Lu6  1  0.45237100  0.19895700  0.32807900  1
  Lu  Lu7  1  0.80104300  0.54762900  0.67192100  1
  Lu  Lu8  1  0.69895700  0.95237100  0.17192100  1
  Lu  Lu9  1  0.04762900  0.30104300  0.82807900  1
  Lu  Lu10  1  0.54762900  0.80104300  0.67192100  1
  Lu  Lu11  1  0.19895700  0.45237100  0.32807900  1
  Lu  Lu12  1  0.62496800  0.37503200  0.50000000  1
  Lu  Lu13  1  0.12496800  0.87503200  0.00000000  1
  Lu  Lu14  1  0.37503200  0.62496800  0.50000000  1
  Lu  Lu15  1  0.87503200  0.12496800  0.00000000  1
  Lu  Lu16  1  0.67250200  0.16418200  0.65947400  1
  Lu  Lu17  1  0.83581800  0.32749800  0.34052600  1
  Lu  Lu18  1  0.33581800  0.82749800  0.15947400  1
  Lu  Lu19  1  0.17250200  0.66418200  0.84052600  1
  Lu  Lu20  1  0.32749800  0.83581800  0.34052600  1
  Lu  Lu21  1  0.16418200  0.67250200  0.65947400  1
  Lu  Lu22  1  0.66418200  0.17250200  0.84052600  1
  Lu  Lu23  1  0.82749800  0.33581800  0.15947400  1
  Lu  Lu24  1  0.50000000  0.00000000  0.50000000  1
  Lu  Lu25  1  0.00000000  0.50000000  0.50000000  1
  Lu  Lu26  1  0.50000000  0.00000000  0.00000000  1
  Lu  Lu27  1  0.00000000  0.50000000  0.00000000  1
  Se  Se0  1  0.46219900  0.21250900  0.58186200  1
  Se  Se1  1  0.78749100  0.53780100  0.41813800  1
  Se  Se2  1  0.28749100  0.03780100  0.08186200  1
  Se  Se3  1  0.96219900  0.71250900  0.91813800  1
  Se  Se4  1  0.53780100  0.78749100  0.41813800  1
  Se  Se5  1  0.21250900  0.46219900  0.58186200  1
  Se  Se6  1  0.71250900  0.96219900  0.91813800  1
  Se  Se7  1  0.03780100  0.28749100  0.08186200  1
  Se  Se8  1  0.62727300  0.36921400  0.74621600  1
  Se  Se9  1  0.63078600  0.37272700  0.25378400  1
  Se  Se10  1  0.13078600  0.87272700  0.24621600  1
  Se  Se11  1  0.12727300  0.86921400  0.75378400  1
  Se  Se12  1  0.37272700  0.63078600  0.25378400  1
  Se  Se13  1  0.36921400  0.62727300  0.74621600  1
  Se  Se14  1  0.86921400  0.12727300  0.75378400  1
  Se  Se15  1  0.87272700  0.13078600  0.24621600  1
  Se  Se16  1  0.34003700  0.83188500  0.58292400  1
  Se  Se17  1  0.16811500  0.65996300  0.41707600  1
  Se  Se18  1  0.66811500  0.15996300  0.08292400  1
  Se  Se19  1  0.84003700  0.33188500  0.91707600  1
  Se  Se20  1  0.65996300  0.16811500  0.41707600  1
  Se  Se21  1  0.83188500  0.34003700  0.58292400  1
  Se  Se22  1  0.33188500  0.84003700  0.91707600  1
  Se  Se23  1  0.15996300  0.66811500  0.08292400  1
  Se  Se24  1  0.70160000  0.95644100  0.58292900  1
  Se  Se25  1  0.04355900  0.29840000  0.41707100  1
  Se  Se26  1  0.54355900  0.79840000  0.08292900  1
  Se  Se27  1  0.20160000  0.45644100  0.91707100  1
  Se  Se28  1  0.29840000  0.04355900  0.41707100  1
  Se  Se29  1  0.95644100  0.70160000  0.58292900  1
  Se  Se30  1  0.45644100  0.20160000  0.91707100  1
  Se  Se31  1  0.79840000  0.54355900  0.08292900  1
  Se  Se32  1  0.23717900  0.23717900  0.74618300  1
  Se  Se33  1  0.76282100  0.76282100  0.25381700  1
  Se  Se34  1  0.26282100  0.26282100  0.24618300  1
  Se  Se35  1  0.73717900  0.73717900  0.75381700  1
  Se  Se36  1  0.07508100  0.07508100  0.91030200  1
  Se  Se37  1  0.92491900  0.92491900  0.08969800  1
  Se  Se38  1  0.42491900  0.42491900  0.41030200  1
  Se  Se39  1  0.57508100  0.57508100  0.58969800  1
  Se  Se40  1  0.51081700  0.01081700  0.75000000  1
  Se  Se41  1  0.98918300  0.48918300  0.25000000  1
  Se  Se42  1  0.48918300  0.98918300  0.25000000  1
  Se  Se43  1  0.01081700  0.51081700  0.75000000  1
loop_
_geom_bond_atom_site_label_1
_geom_bond_atom_site_label_2
_geom_bond_distance
_geom_bond_site_symmetry_2
Cs0 Se32 3.665565 1_555
Cs0 Se11 3.969149 1_545
Cs0 Se14 3.969149 1_455
Cs0 Se0 4.034614 1_555
Cs0 Se5 4.034614 1_555
Cs0 Se16 4.071143 1_545
Cs0 Se21 4.071143 1_455
Cs0 Se24 4.145966 1_445
Cs0 Se29 4.145966 1_445
Cs0 Se25 4.186287 1_555
Cs0 Se28 4.186287 1_555
Cs1 Se33 3.665565 1_555
Cs1 Se15 3.969149 1_565
Cs1 Se10 3.969149 1_655
Cs1 Se4 4.034614 1_555
Cs1 Se1 4.034614 1_555
Cs1 Se17 4.071143 1_655
Cs1 Se20 4.071143 1_565
Cs1 Se28 4.145966 1_665
Cs1 Se25 4.145966 1_665
Cs1 Se24 4.186287 1_555
Cs1 Se29 4.186287 1_555
Cs2 Se34 3.665565 1_555
Cs2 Se12 3.969149 1_555
Cs2 Se9 3.969149 1_555
Cs2 Se7 4.034614 1_555
Cs2 Se2 4.034614 1_555
Cs2 Se18 4.071143 1_555
Cs2 Se23 4.071143 1_555
Cs2 Se31 4.145966 1_555
Cs2 Se26 4.145966 1_555
Cs2 Se27 4.186287 1_554
Cs2 Se30 4.186287 1_554
Cs3 Se35 3.665565 1_555
Cs3 Se8 3.969149 1_555
Cs3 Se13 3.969149 1_555
Cs3 Se6 4.034614 1_555
Cs3 Se3 4.034614 1_555
Cs3 Se22 4.071143 1_555
Cs3 Se19 4.071143 1_555
Cs3 Se30 4.145966 1_555
Cs3 Se27 4.145966 1_555
Cs3 Se26 4.186287 1_556
Cs3 Se31 4.186287 1_556
Lu0 Se32 2.725830 1_555
Lu0 Se8 2.811030 1_555
Lu0 Se13 2.811030 1_555
Lu0 Se5 2.874119 1_555
Lu0 Se0 2.874119 1_555
Lu0 Se39 2.913077 1_555
Lu1 Se33 2.725830 1_555
Lu1 Se12 2.811030 1_555
Lu1 Se9 2.811030 1_555
Lu1 Se4 2.874119 1_555
Lu1 Se1 2.874119 1_555
Lu1 Se38 2.913077 1_555
Lu2 Se34 2.725830 1_555
Lu2 Se10 2.811030 1_545
Lu2 Se15 2.811030 1_455
Lu2 Se2 2.874119 1_555
Lu2 Se7 2.874119 1_555
Lu2 Se37 2.913077 1_445
Lu3 Se35 2.725830 1_555
Lu3 Se14 2.811030 1_565
Lu3 Se11 2.811030 1_655
Lu3 Se6 2.874119 1_555
Lu3 Se3 2.874119 1_555
Lu3 Se36 2.913077 1_665
Lu4 Se32 2.733700 1_555
Lu4 Se40 2.776272 1_555
Lu4 Se30 2.780231 1_555
Lu4 Se11 2.861168 1_545
Lu4 Se22 2.867708 1_545
Lu4 Se36 2.940406 1_555
Lu5 Se33 2.733700 1_555
Lu5 Se41 2.776272 1_555
Lu5 Se31 2.780231 1_555
Lu5 Se10 2.861168 1_655
Lu5 Se23 2.867708 1_655
Lu5 Se37 2.940406 1_555
Lu6 Se34 2.733700 1_555
Lu6 Se42 2.776272 1_545
Lu6 Se28 2.780231 1_555
Lu6 Se9 2.861168 1_555
Lu6 Se20 2.867708 1_555
Lu6 Se38 2.940406 1_555
Lu7 Se35 2.733700 1_555
Lu7 Se43 2.776272 1_655
Lu7 Se29 2.780231 1_555
Lu7 Se8 2.861168 1_555
Lu7 Se21 2.867708 1_555
Lu7 Se39 2.940406 1_555
Lu8 Se33 2.733700 1_555
Lu8 Se42 2.776272 1_555
Lu8 Se26 2.780231 1_555
Lu8 Se15 2.861168 1_565
Lu8 Se18 2.867708 1_565
Lu8 Se37 2.940406 1_555
Lu9 Se32 2.733700 1_555
Lu9 Se43 2.776272 1_555
Lu9 Se27 2.780231 1_555
Lu9 Se14 2.861168 1_455
Lu9 Se19 2.867708 1_455
Lu9 Se36 2.940406 1_555
Lu10 Se35 2.733700 1_555
Lu10 Se40 2.776272 1_565
Lu10 Se24 2.780231 1_555
Lu10 Se13 2.861168 1_555
Lu10 Se16 2.867708 1_555
Lu10 Se39 2.940406 1_555
Lu11 Se34 2.733700 1_555
Lu11 Se41 2.776272 1_455
Lu11 Se25 2.780231 1_555
Lu11 Se12 2.861168 1_555
Lu11 Se17 2.867708 1_555
Lu11 Se38 2.940406 1_555
Lu12 Se0 2.784277 1_555
Lu12 Se1 2.784277 1_555
Lu12 Se20 2.800945 1_555
Lu12 Se21 2.800945 1_555
Lu12 Se38 2.864893 1_555
Lu12 Se39 2.864893 1_555
Lu13 Se2 2.784277 1_565
Lu13 Se3 2.784277 1_454
Lu13 Se22 2.800945 1_554
Lu13 Se23 2.800945 1_555
Lu13 Se37 2.864893 1_455
Lu13 Se36 2.864893 1_564
Lu14 Se5 2.784277 1_555
Lu14 Se4 2.784277 1_555
Lu14 Se17 2.800945 1_555
Lu14 Se16 2.800945 1_555
Lu14 Se38 2.864893 1_555
Lu14 Se39 2.864893 1_555
Lu15 Se7 2.784277 1_655
Lu15 Se6 2.784277 1_544
Lu15 Se19 2.800945 1_554
Lu15 Se18 2.800945 1_555
Lu15 Se36 2.864893 1_654
Lu15 Se37 2.864893 1_545
Lu16 Se24 2.722473 1_545
Lu16 Se21 2.786601 1_555
Lu16 Se0 2.808848 1_555
Lu16 Se40 2.830806 1_555
Lu16 Se8 2.856992 1_555
Lu16 Se14 2.859391 1_555
Lu17 Se25 2.722473 1_655
Lu17 Se20 2.786601 1_555
Lu17 Se1 2.808848 1_555
Lu17 Se41 2.830806 1_555
Lu17 Se9 2.856992 1_555
Lu17 Se15 2.859391 1_555
Lu18 Se26 2.722473 1_555
Lu18 Se23 2.786601 1_555
Lu18 Se2 2.808848 1_565
Lu18 Se42 2.830806 1_555
Lu18 Se10 2.856992 1_555
Lu18 Se12 2.859391 1_555
Lu19 Se27 2.722473 1_555
Lu19 Se22 2.786601 1_555
Lu19 Se3 2.808848 1_455
Lu19 Se43 2.830806 1_555
Lu19 Se11 2.856992 1_555
Lu19 Se13 2.859391 1_555
Lu20 Se28 2.722473 1_565
Lu20 Se17 2.786601 1_555
Lu20 Se4 2.808848 1_555
Lu20 Se42 2.830806 1_555
Lu20 Se12 2.856992 1_555
Lu20 Se10 2.859391 1_555
Lu21 Se29 2.722473 1_455
Lu21 Se16 2.786601 1_555
Lu21 Se5 2.808848 1_555
Lu21 Se43 2.830806 1_555
Lu21 Se13 2.856992 1_555
Lu21 Se11 2.859391 1_555
Lu22 Se30 2.722473 1_555
Lu22 Se19 2.786601 1_555
Lu22 Se6 2.808848 1_545
Lu22 Se40 2.830806 1_555
Lu22 Se14 2.856992 1_555
Lu22 Se8 2.859391 1_555
Lu23 Se31 2.722473 1_555
Lu23 Se18 2.786601 1_555
Lu23 Se7 2.808848 1_655
Lu23 Se41 2.830806 1_555
Lu23 Se15 2.856992 1_555
Lu23 Se9 2.859391 1_555
Lu24 Se28 2.779092 1_555
Lu24 Se24 2.779092 1_545
Lu24 Se16 2.812983 1_545
Lu24 Se20 2.812983 1_555
Lu24 Se4 2.844203 1_545
Lu24 Se0 2.844203 1_555
Lu25 Se25 2.779092 1_555
Lu25 Se29 2.779092 1_455
Lu25 Se17 2.812983 1_555
Lu25 Se21 2.812983 1_455
Lu25 Se1 2.844203 1_455
Lu25 Se5 2.844203 1_555
Lu26 Se26 2.779092 1_545
Lu26 Se30 2.779092 1_554
Lu26 Se22 2.812983 1_544
Lu26 Se18 2.812983 1_555
Lu26 Se6 2.844203 1_544
Lu26 Se2 2.844203 1_555
Lu27 Se31 2.779092 1_455
Lu27 Se27 2.779092 1_554
Lu27 Se23 2.812983 1_555
Lu27 Se19 2.812983 1_454
Lu27 Se3 2.844203 1_454
Lu27 Se7 2.844203 1_555
