# generated using pymatgen
data_Y2Co17C
_symmetry_space_group_name_H-M   'P 1'
_cell_length_a   6.33219161
_cell_length_b   6.27876128
_cell_length_c   6.33219161
_cell_angle_alpha   83.43587556
_cell_angle_beta   83.44971913
_cell_angle_gamma   83.43587556
_symmetry_Int_Tables_number   1
_chemical_formula_structural   Y2Co17C
_chemical_formula_sum   'Y2 Co17 C1'
_cell_volume   247.16264503
_cell_formula_units_Z   1
loop_
 _symmetry_equiv_pos_site_id
 _symmetry_equiv_pos_as_xyz
  1  'x, y, z'
loop_
 _atom_site_type_symbol
 _atom_site_label
 _atom_site_symmetry_multiplicity
 _atom_site_fract_x
 _atom_site_fract_y
 _atom_site_fract_z
 _atom_site_occupancy
  Y  Y0  1  0.66005400  0.64569300  0.66005400  1
  Y  Y1  1  0.33994600  0.35430700  0.33994600  1
  Co  Co0  1  0.90434600  0.90211500  0.90434600  1
  Co  Co1  1  0.09565400  0.09788500  0.09565400  1
  Co  Co2  1  0.34581200  0.85326900  0.34581200  1
  Co  Co3  1  0.85765700  0.34955200  0.34494000  1
  Co  Co4  1  0.34494000  0.34955200  0.85765700  1
  Co  Co5  1  0.65418800  0.14673100  0.65418800  1
  Co  Co6  1  0.14234300  0.65044800  0.65506000  1
  Co  Co7  1  0.65506000  0.65044800  0.14234300  1
  Co  Co8  1  0.71824800  0.00000000  0.28175200  1
  Co  Co9  1  0.99887800  0.28708600  0.71450200  1
  Co  Co10  1  0.28549800  0.71291400  0.00112200  1
  Co  Co11  1  0.00112200  0.71291400  0.28549800  1
  Co  Co12  1  0.71450200  0.28708600  0.99887800  1
  Co  Co13  1  0.28175200  0.00000000  0.71824800  1
  Co  Co14  1  0.00000000  0.50000000  0.00000000  1
  Co  Co15  1  0.50000000  0.00000000  0.00000000  1
  Co  Co16  1  0.00000000  0.00000000  0.50000000  1
  C  C0  1  0.50000000  0.00000000  0.50000000  1
loop_
_geom_bond_atom_site_label_1
_geom_bond_atom_site_label_2
_geom_bond_distance
_geom_bond_site_symmetry_2
Co0 Co1 2.337002 1_666
Co0 Co14 2.548080 1_656
Co0 Co16 2.582972 1_665
Co0 Co15 2.582972 1_566
Co0 Co7 2.596709 1_556
Co0 Co6 2.596709 1_655
Co0 Co5 2.614835 1_565
Co0 Co8 2.646746 1_566
Co0 Co13 2.646746 1_665
Co0 Co10 2.669709 1_656
Co0 Co11 2.669709 1_656
Co0 Co12 2.673629 1_565
Co0 Co9 2.673629 1_565
Co0 Y0 3.010437 1_555
Co1 Co14 2.548080 1_555
Co1 Co15 2.582972 1_555
Co1 Co16 2.582972 1_555
Co1 Co3 2.596709 1_455
Co1 Co4 2.596709 1_554
Co1 Co2 2.614835 1_545
Co1 Co13 2.646746 1_554
Co1 Co8 2.646746 1_455
Co1 Co9 2.669709 1_454
Co1 Co12 2.669709 1_454
Co1 Co11 2.673629 1_545
Co1 Co10 2.673629 1_545
Co1 Y1 3.010437 1_555
Co2 Co7 2.519063 1_555
Co2 Co6 2.519063 1_555
Co3 Co7 2.475497 1_555
Co3 Co5 2.519063 1_555
Co3 Co8 2.545708 1_555
Co3 Co9 2.572380 1_555
Co3 Y0 2.958241 1_555
Co3 Y1 3.054026 1_655
Co3 Y1 3.278695 1_555
Co4 Co6 2.475497 1_555
Co4 Co5 2.519063 1_555
Co4 Co9 2.551168 1_455
Co4 Y0 2.958241 1_555
Co4 Y1 3.054026 1_556
Co4 Y1 3.278695 1_555
Co5 Co9 2.528498 1_555
Co6 Co9 2.524191 1_455
Co6 Y1 2.958241 1_555
Co6 Y0 3.054026 1_455
Co6 Y0 3.278695 1_555
Co7 Co8 2.545708 1_565
Co7 Y1 2.958241 1_555
Co7 Y0 3.054026 1_554
Co7 Y0 3.278695 1_555
Co9 Y0 2.945943 1_555
Co9 Y1 3.046080 1_655
Co10 Co14 2.369192 1_555
Co10 Co15 2.376708 1_565
Co10 Co13 2.391632 1_564
Co10 Co11 2.396958 1_555
Co10 Co4 2.524191 1_554
Co10 Co2 2.528498 1_555
Co10 Co6 2.551168 1_554
Co10 Co7 2.572380 1_555
Co10 Y1 2.945943 1_555
Co10 Y0 3.046080 1_554
Co11 Co14 2.369192 1_555
Co11 Co16 2.376708 1_565
Co11 Co8 2.391632 1_465
Co11 Co3 2.524191 1_455
Co11 Co2 2.528498 1_555
Co11 Co7 2.551168 1_455
Co11 Co6 2.572380 1_555
Co11 Y1 2.945943 1_555
Co11 Y0 3.046080 1_455
Co12 Co14 2.369192 1_656
Co12 Co15 2.376708 1_556
Co12 Co8 2.391632 1_556
Co12 Co9 2.396958 1_555
Co12 Co7 2.524191 1_556
Co12 Co5 2.528498 1_555
Co12 Co3 2.551168 1_556
Co12 Co4 2.572380 1_555
Co12 Y0 2.945943 1_555
Co12 Y1 3.046080 1_556
Co13 Co16 2.378122 1_555
Co13 Co15 2.378122 1_556
Co13 Co9 2.391632 1_455
Co13 Co4 2.545708 1_555
Co13 Co6 2.545708 1_545
Co14 Co9 2.369192 1_454
Co14 Co6 2.397780 1_554
Co14 Co7 2.397780 1_455
Co14 Co3 2.397780 1_455
Co14 Co4 2.397780 1_554
Co14 Y1 3.203276 1_555
Co14 Y0 3.203276 1_454
Co15 Co8 2.378122 1_555
Co15 Co4 2.418754 1_554
Co15 Co7 2.418754 1_545
Co15 Co5 2.419435 1_554
Co15 Co2 2.419435 1_545
Co15 Y1 3.269767 1_555
Co15 Y0 3.269767 1_544
Co16 Co9 2.376708 1_455
Co16 Co8 2.378122 1_455
Co16 Co3 2.418754 1_455
Co16 Co6 2.418754 1_545
Co16 Co5 2.419435 1_455
Co16 Co2 2.419435 1_545
Co16 Y1 3.269767 1_555
Co16 Y0 3.269767 1_445
C0 Co8 1.839576 1_555
C0 Co13 1.839576 1_555
C0 Co5 1.839585 1_555
C0 Co2 1.839585 1_545
C0 Y0 2.491308 1_545
C0 Y1 2.491308 1_555
