# generated using pymatgen
data_Cs5Tc6S8Br7
_symmetry_space_group_name_H-M   'P 1'
_cell_length_a   19.81968474
_cell_length_b   19.81968474
_cell_length_c   19.81968483
_cell_angle_alpha   30.12189223
_cell_angle_beta   30.12189223
_cell_angle_gamma   30.12189217
_symmetry_Int_Tables_number   1
_chemical_formula_structural   Cs5Tc6S8Br7
_chemical_formula_sum   'Cs10 Tc12 S16 Br14'
_cell_volume   1737.11443441
_cell_formula_units_Z   2
loop_
 _symmetry_equiv_pos_site_id
 _symmetry_equiv_pos_as_xyz
  1  'x, y, z'
loop_
 _atom_site_type_symbol
 _atom_site_label
 _atom_site_symmetry_multiplicity
 _atom_site_fract_x
 _atom_site_fract_y
 _atom_site_fract_z
 _atom_site_occupancy
  Cs  Cs0  1  0.25000000  0.91834900  0.58165100  1
  Cs  Cs1  1  0.58165100  0.25000000  0.91834900  1
  Cs  Cs2  1  0.91834900  0.58165100  0.25000000  1
  Cs  Cs3  1  0.08165100  0.41834900  0.75000000  1
  Cs  Cs4  1  0.75000000  0.08165100  0.41834900  1
  Cs  Cs5  1  0.41834900  0.75000000  0.08165100  1
  Cs  Cs6  1  0.67034800  0.67034800  0.67034800  1
  Cs  Cs7  1  0.17034800  0.17034800  0.17034800  1
  Cs  Cs8  1  0.32965200  0.32965200  0.32965200  1
  Cs  Cs9  1  0.82965200  0.82965200  0.82965200  1
  Tc  Tc0  1  0.13533100  0.84434900  0.96408700  1
  Tc  Tc1  1  0.96408700  0.13533100  0.84434900  1
  Tc  Tc2  1  0.84434900  0.96408700  0.13533100  1
  Tc  Tc3  1  0.46408700  0.34434900  0.63533100  1
  Tc  Tc4  1  0.63533100  0.46408700  0.34434900  1
  Tc  Tc5  1  0.34434900  0.63533100  0.46408700  1
  Tc  Tc6  1  0.86466900  0.15565100  0.03591300  1
  Tc  Tc7  1  0.03591300  0.86466900  0.15565100  1
  Tc  Tc8  1  0.15565100  0.03591300  0.86466900  1
  Tc  Tc9  1  0.53591300  0.65565100  0.36466900  1
  Tc  Tc10  1  0.36466900  0.53591300  0.65565100  1
  Tc  Tc11  1  0.65565100  0.36466900  0.53591300  1
  S  S0  1  0.29942800  0.76561600  0.98684100  1
  S  S1  1  0.98684100  0.29942800  0.76561600  1
  S  S2  1  0.76561600  0.98684100  0.29942800  1
  S  S3  1  0.48684100  0.26561600  0.79942800  1
  S  S4  1  0.79942800  0.48684100  0.26561600  1
  S  S5  1  0.26561600  0.79942800  0.48684100  1
  S  S6  1  0.70057200  0.23438400  0.01315900  1
  S  S7  1  0.01315900  0.70057200  0.23438400  1
  S  S8  1  0.23438400  0.01315900  0.70057200  1
  S  S9  1  0.51315900  0.73438400  0.20057200  1
  S  S10  1  0.20057200  0.51315900  0.73438400  1
  S  S11  1  0.73438400  0.20057200  0.51315900  1
  S  S12  1  0.94813300  0.94813300  0.94813300  1
  S  S13  1  0.44813300  0.44813300  0.44813300  1
  S  S14  1  0.05186700  0.05186700  0.05186700  1
  S  S15  1  0.55186700  0.55186700  0.55186700  1
  Br  Br0  1  0.33250100  0.62559300  0.90912400  1
  Br  Br1  1  0.90912400  0.33250100  0.62559300  1
  Br  Br2  1  0.62559300  0.90912400  0.33250100  1
  Br  Br3  1  0.40912400  0.12559300  0.83250100  1
  Br  Br4  1  0.83250100  0.40912400  0.12559300  1
  Br  Br5  1  0.12559300  0.83250100  0.40912400  1
  Br  Br6  1  0.66749900  0.37440700  0.09087600  1
  Br  Br7  1  0.09087600  0.66749900  0.37440700  1
  Br  Br8  1  0.37440700  0.09087600  0.66749900  1
  Br  Br9  1  0.59087600  0.87440700  0.16749900  1
  Br  Br10  1  0.16749900  0.59087600  0.87440700  1
  Br  Br11  1  0.87440700  0.16749900  0.59087600  1
  Br  Br12  1  0.25000000  0.25000000  0.25000000  1
  Br  Br13  1  0.75000000  0.75000000  0.75000000  1
loop_
_geom_bond_atom_site_label_1
_geom_bond_atom_site_label_2
_geom_bond_distance
_geom_bond_site_symmetry_2
Cs0 S5 3.817842 1_555
Cs0 S8 3.817842 1_565
Cs0 S15 3.877274 1_555
Cs0 S12 3.877274 1_455
Cs1 S6 3.817842 1_556
Cs1 S3 3.817842 1_555
Cs1 S12 3.877274 1_545
Cs1 S15 3.877274 1_555
Cs2 S7 3.817842 1_655
Cs2 S4 3.817842 1_555
Cs2 S12 3.877274 1_554
Cs2 S15 3.877274 1_555
Cs3 S1 3.817842 1_455
Cs3 S10 3.817842 1_555
Cs3 S14 3.877274 1_556
Cs3 S13 3.877274 1_555
Cs4 S11 3.817842 1_555
Cs4 S2 3.817842 1_545
Cs4 S13 3.877274 1_555
Cs4 S14 3.877274 1_655
Cs5 S0 3.817842 1_554
Cs5 S9 3.817842 1_555
Cs5 S14 3.877274 1_565
Cs5 S13 3.877274 1_555
Cs6 S1 3.695939 1_555
Cs6 S2 3.695939 1_555
Cs6 S0 3.695939 1_555
Cs7 S4 3.695939 1_455
Cs7 S3 3.695939 1_554
Cs7 S5 3.695939 1_545
Cs8 S7 3.695939 1_555
Cs8 S8 3.695939 1_555
Cs8 S6 3.695939 1_555
Cs9 S10 3.695939 1_655
Cs9 S9 3.695939 1_556
Cs9 S11 3.695939 1_565
S0 Tc7 2.392092 1_556
S0 Tc0 2.399271 1_555
S0 Tc8 2.402159 1_565
S1 Tc8 2.392092 1_655
S1 Tc1 2.399271 1_555
S1 Tc6 2.402159 1_556
S2 Tc6 2.392092 1_565
S2 Tc2 2.399271 1_555
S2 Tc7 2.402159 1_655
S3 Tc11 2.392092 1_555
S3 Tc3 2.399271 1_555
S3 Tc10 2.402159 1_555
S4 Tc9 2.392092 1_555
S4 Tc4 2.399271 1_555
S4 Tc11 2.402159 1_555
S5 Tc10 2.392092 1_555
S5 Tc5 2.399271 1_555
S5 Tc9 2.402159 1_555
S6 Tc1 2.392092 1_554
S6 Tc6 2.399271 1_555
S6 Tc2 2.402159 1_545
S7 Tc2 2.392092 1_455
S7 Tc7 2.399271 1_555
S7 Tc0 2.402159 1_554
S8 Tc0 2.392092 1_545
S8 Tc8 2.399271 1_555
S8 Tc1 2.402159 1_455
S9 Tc5 2.392092 1_555
S9 Tc9 2.399271 1_555
S9 Tc4 2.402159 1_555
S10 Tc3 2.392092 1_555
S10 Tc10 2.399271 1_555
S10 Tc5 2.402159 1_555
S11 Tc4 2.392092 1_555
S11 Tc11 2.399271 1_555
S11 Tc3 2.402159 1_555
S12 Tc1 2.408051 1_565
S12 Tc0 2.408051 1_655
S12 Tc2 2.408051 1_556
S13 Tc4 2.408051 1_555
S13 Tc5 2.408051 1_555
S13 Tc3 2.408051 1_555
S14 Tc7 2.408051 1_545
S14 Tc6 2.408051 1_455
S14 Tc8 2.408051 1_554
S15 Tc10 2.408051 1_555
S15 Tc11 2.408051 1_555
S15 Tc9 2.408051 1_555
Br0 Tc0 2.598455 1_555
Br0 Cs0 3.906994 1_555
Br0 Cs1 3.930547 1_555
Br0 Cs6 4.026652 1_555
Br1 Tc1 2.598455 1_555
Br1 Cs1 3.906994 1_555
Br1 Cs2 3.930547 1_555
Br1 Cs6 4.026652 1_555
Br2 Tc2 2.598455 1_555
Br2 Cs2 3.906994 1_555
Br2 Cs0 3.930547 1_555
Br2 Cs6 4.026652 1_555
Br3 Tc3 2.598455 1_555
Br3 Cs3 3.906994 1_555
Br3 Cs5 3.930547 1_546
Br3 Cs7 4.026652 1_556
Br4 Tc4 2.598455 1_555
Br4 Cs4 3.906994 1_555
Br4 Cs3 3.930547 1_654
Br4 Cs7 4.026652 1_655
Br5 Tc5 2.598455 1_555
Br5 Cs5 3.906994 1_555
Br5 Cs4 3.930547 1_465
Br5 Cs7 4.026652 1_565
Br6 Tc6 2.598455 1_555
Br6 Cs4 3.906994 1_555
Br6 Cs5 3.930547 1_555
Br6 Cs8 4.026652 1_555
Br7 Tc7 2.598455 1_555
Br7 Cs5 3.906994 1_555
Br7 Cs3 3.930547 1_555
Br7 Cs8 4.026652 1_555
Br8 Tc8 2.598455 1_555
Br8 Cs3 3.906994 1_555
Br8 Cs4 3.930547 1_555
Br8 Cs8 4.026652 1_555
Br9 Tc9 2.598455 1_555
Br9 Cs2 3.906994 1_555
Br9 Cs1 3.930547 1_564
Br9 Cs9 4.026652 1_554
Br10 Tc10 2.598455 1_555
Br10 Cs0 3.906994 1_555
Br10 Cs2 3.930547 1_456
Br10 Cs9 4.026652 1_455
Br11 Tc11 2.598455 1_555
Br11 Cs1 3.906994 1_555
Br11 Cs0 3.930547 1_645
Br11 Cs9 4.026652 1_545
Br12 Cs2 3.416054 1_455
Br12 Cs0 3.416054 1_545
Br12 Cs1 3.416054 1_554
Br13 Cs3 3.416054 1_655
Br13 Cs4 3.416054 1_565
Br13 Cs5 3.416054 1_556
