# generated using pymatgen
data_Na3TiN2
_symmetry_space_group_name_H-M   'P 1'
_cell_length_a   9.73595600
_cell_length_b   11.24211316
_cell_length_c   11.24211332
_cell_angle_alpha   90.00000156
_cell_angle_beta   125.26438874
_cell_angle_gamma   54.73561069
_symmetry_Int_Tables_number   1
_chemical_formula_structural   Na3TiN2
_chemical_formula_sum   'Na24 Ti8 N16'
_cell_volume   710.41792705
_cell_formula_units_Z   8
loop_
 _symmetry_equiv_pos_site_id
 _symmetry_equiv_pos_as_xyz
  1  'x, y, z'
loop_
 _atom_site_type_symbol
 _atom_site_label
 _atom_site_symmetry_multiplicity
 _atom_site_fract_x
 _atom_site_fract_y
 _atom_site_fract_z
 _atom_site_occupancy
  Na  Na0  1  0.17673600  0.07628100  0.94370100  1
  Na  Na1  1  0.82326400  0.75301600  0.55629900  1
  Na  Na2  1  0.82326400  0.42371900  0.76696600  1
  Na  Na3  1  0.17673600  0.74698400  0.73303400  1
  Na  Na4  1  0.28933400  0.76696600  0.30931500  1
  Na  Na5  1  0.71066600  0.73303400  0.01998200  1
  Na  Na6  1  0.28933400  0.94370100  0.48001800  1
  Na  Na7  1  0.71066600  0.55629900  0.19068500  1
  Na  Na8  1  0.67070300  0.01998200  0.74698400  1
  Na  Na9  1  0.67070300  0.30931500  0.42371900  1
  Na  Na10  1  0.32929700  0.19068500  0.75301600  1
  Na  Na11  1  0.32929700  0.48001800  0.07628100  1
  Na  Na12  1  0.82326400  0.92371900  0.05629900  1
  Na  Na13  1  0.17673600  0.24698400  0.44370100  1
  Na  Na14  1  0.17673600  0.57628100  0.23303400  1
  Na  Na15  1  0.82326400  0.25301600  0.26696600  1
  Na  Na16  1  0.71066600  0.23303400  0.69068500  1
  Na  Na17  1  0.28933400  0.26696600  0.98001800  1
  Na  Na18  1  0.71066600  0.05629900  0.51998200  1
  Na  Na19  1  0.28933400  0.44370100  0.80931500  1
  Na  Na20  1  0.32929700  0.98001800  0.25301600  1
  Na  Na21  1  0.32929700  0.69068500  0.57628100  1
  Na  Na22  1  0.67070300  0.80931500  0.24698400  1
  Na  Na23  1  0.67070300  0.51998200  0.92371900  1
  Ti  Ti0  1  0.20341100  0.00000000  0.70341100  1
  Ti  Ti1  1  0.79658900  0.70341100  0.79658900  1
  Ti  Ti2  1  0.79658900  0.50000000  0.50000000  1
  Ti  Ti3  1  0.20341100  0.79658900  0.00000000  1
  Ti  Ti4  1  0.79658900  0.00000000  0.29658900  1
  Ti  Ti5  1  0.20341100  0.29658900  0.20341100  1
  Ti  Ti6  1  0.20341100  0.50000000  0.50000000  1
  Ti  Ti7  1  0.79658900  0.20341100  0.00000000  1
  N  N0  1  0.00000000  0.00000000  0.50000000  1
  N  N1  1  0.00000000  0.50000000  0.00000000  1
  N  N2  1  0.00000000  0.50000000  0.50000000  1
  N  N3  1  0.00000000  0.00000000  0.00000000  1
  N  N4  1  0.50000000  0.89846600  0.75000000  1
  N  N5  1  0.50000000  0.60153400  0.25000000  1
  N  N6  1  0.00000000  0.25000000  0.64846600  1
  N  N7  1  0.00000000  0.75000000  0.85153400  1
  N  N8  1  0.70306800  0.64846600  0.60153400  1
  N  N9  1  0.29693200  0.85153400  0.89846600  1
  N  N10  1  0.50000000  0.10153400  0.25000000  1
  N  N11  1  0.50000000  0.39846600  0.75000000  1
  N  N12  1  0.00000000  0.75000000  0.35153400  1
  N  N13  1  0.00000000  0.25000000  0.14846600  1
  N  N14  1  0.29693200  0.35153400  0.39846600  1
  N  N15  1  0.70306800  0.14846600  0.10153400  1
loop_
_geom_bond_atom_site_label_1
_geom_bond_atom_site_label_2
_geom_bond_distance
_geom_bond_site_symmetry_2
N0 Ti0 1.980401 1_555
N0 Ti4 1.980401 1_455
N0 Na15 2.656712 1_455
N0 Na3 2.656712 1_545
N0 Na9 2.656717 1_455
N0 Na21 2.656717 1_545
N0 Na18 2.656727 1_455
N0 Na6 2.656727 1_545
N1 Ti5 1.980401 1_555
N1 Ti1 1.980401 1_454
N1 Na11 2.656717 1_555
N1 Na23 2.656717 1_454
N1 Na14 2.656720 1_555
N1 Na2 2.656720 1_454
N1 Na5 2.656722 1_455
N1 Na17 2.656722 1_554
N2 Ti6 1.980401 1_555
N2 Ti2 1.980401 1_455
N2 Na10 2.656717 1_555
N2 Na22 2.656717 1_455
N2 Na1 2.656719 1_455
N2 Na13 2.656719 1_555
N2 Na19 2.656719 1_555
N2 Na7 2.656719 1_455
N3 Ti7 1.980401 1_455
N3 Ti3 1.980401 1_545
N3 Na16 2.656715 1_454
N3 Na4 2.656715 1_545
N3 Na20 2.656717 1_545
N3 Na8 2.656717 1_454
N3 Na12 2.656727 1_445
N3 Na0 2.656727 1_554
N4 Ti1 2.088790 1_555
N4 Ti0 2.088790 1_565
N4 Na6 2.298898 1_555
N4 Na5 2.298902 1_556
N4 Na10 2.704841 1_565
N4 Na8 2.704841 1_565
N5 Ti2 2.088790 1_555
N5 Ti3 2.088790 1_555
N5 Na7 2.298889 1_555
N5 Na4 2.298892 1_555
N5 Na11 2.704841 1_555
N5 Na9 2.704841 1_555
N6 Ti0 2.088790 1_555
N6 Ti2 2.088790 1_455
N6 Na10 2.298898 1_555
N6 Na9 2.298898 1_455
N6 Na0 2.704836 1_555
N6 Na2 2.704846 1_455
N7 Ti3 2.088790 1_556
N7 Ti1 2.088790 1_455
N7 Na8 2.298898 1_465
N7 Na11 2.298898 1_556
N7 Na1 2.704840 1_455
N7 Na3 2.704850 1_555
N8 Ti2 2.088790 1_555
N8 Ti1 2.088790 1_555
N8 Na1 2.298889 1_555
N8 Na2 2.298904 1_555
N8 Na4 2.704836 1_555
N8 Na6 2.704836 1_555
N9 Ti3 2.088790 1_556
N9 Ti0 2.088790 1_565
N9 Na3 2.298895 1_555
N9 Na0 2.298898 1_565
N9 Na5 2.704832 1_556
N9 Na7 2.704840 1_556
N10 Ti5 2.088790 1_555
N10 Ti4 2.088790 1_555
N10 Na18 2.298898 1_555
N10 Na17 2.298902 1_554
N10 Na22 2.704841 1_545
N10 Na20 2.704841 1_545
N11 Ti6 2.088790 1_555
N11 Ti7 2.088790 1_556
N11 Na19 2.298889 1_555
N11 Na16 2.298892 1_555
N11 Na23 2.704841 1_555
N11 Na21 2.704841 1_555
N12 Ti4 2.088790 1_465
N12 Ti6 2.088790 1_555
N12 Na22 2.298898 1_455
N12 Na21 2.298898 1_555
N12 Na12 2.704836 1_455
N12 Na14 2.704846 1_555
N13 Ti7 2.088790 1_455
N13 Ti5 2.088790 1_555
N13 Na20 2.298898 1_545
N13 Na23 2.298898 1_454
N13 Na13 2.704840 1_555
N13 Na15 2.704850 1_455
N14 Ti6 2.088790 1_555
N14 Ti5 2.088790 1_555
N14 Na13 2.298889 1_555
N14 Na14 2.298904 1_555
N14 Na16 2.704836 1_555
N14 Na18 2.704836 1_555
N15 Ti7 2.088790 1_555
N15 Ti4 2.088790 1_555
N15 Na15 2.298895 1_555
N15 Na12 2.298898 1_545
N15 Na17 2.704832 1_554
N15 Na19 2.704840 1_554
