# generated using pymatgen
data_LaS2
_symmetry_space_group_name_H-M   'P 1'
_cell_length_a   4.15927327
_cell_length_b   8.17723374
_cell_length_c   16.40527612
_cell_angle_alpha   90.00000000
_cell_angle_beta   90.00000000
_cell_angle_gamma   90.00000000
_symmetry_Int_Tables_number   1
_chemical_formula_structural   LaS2
_chemical_formula_sum   'La8 S16'
_cell_volume   557.96558333
_cell_formula_units_Z   8
loop_
 _symmetry_equiv_pos_site_id
 _symmetry_equiv_pos_as_xyz
  1  'x, y, z'
loop_
 _atom_site_type_symbol
 _atom_site_label
 _atom_site_symmetry_multiplicity
 _atom_site_fract_x
 _atom_site_fract_y
 _atom_site_fract_z
 _atom_site_occupancy
  La  La0  1  0.21779018  0.12981560  0.38830911  1
  La  La1  1  0.71779018  0.37018440  0.61169089  1
  La  La2  1  0.28220982  0.62981560  0.11169089  1
  La  La3  1  0.78220982  0.87018440  0.88830911  1
  La  La4  1  0.78220982  0.87018440  0.61169089  1
  La  La5  1  0.28220982  0.62981560  0.38830911  1
  La  La6  1  0.71779018  0.37018440  0.88830911  1
  La  La7  1  0.21779018  0.12981560  0.11169089  1
  S  S0  1  0.73852187  0.37463530  0.43275082  1
  S  S1  1  0.23852187  0.12536470  0.56724918  1
  S  S2  1  0.76147813  0.87463530  0.06724918  1
  S  S3  1  0.26147813  0.62536470  0.93275082  1
  S  S4  1  0.26147813  0.62536470  0.56724918  1
  S  S5  1  0.76147813  0.87463530  0.43275082  1
  S  S6  1  0.23852187  0.12536470  0.93275082  1
  S  S7  1  0.73852187  0.37463530  0.06724918  1
  S  S8  1  0.14076341  0.39371267  0.25000000  1
  S  S9  1  0.64076341  0.10628733  0.75000000  1
  S  S10  1  0.35923659  0.89371267  0.25000000  1
  S  S11  1  0.85923659  0.60628733  0.75000000  1
  S  S12  1  0.66093483  0.09859125  0.25000000  1
  S  S13  1  0.16093483  0.40140875  0.75000000  1
  S  S14  1  0.83906517  0.59859125  0.25000000  1
  S  S15  1  0.33906517  0.90140875  0.75000000  1
loop_
_geom_bond_atom_site_label_1
_geom_bond_atom_site_label_2
_geom_bond_distance
_geom_bond_site_symmetry_2
La0 S5 2.913395 1_445
La0 S0 2.917709 1_455
La0 S12 2.934414 1_555
La0 S1 2.937053 1_555
La0 S10 3.036767 1_545
La0 S0 3.038145 1_555
La0 S8 3.147656 1_555
La0 S5 3.162188 1_545
La0 S12 3.252373 1_455
La1 S4 2.913395 1_555
La1 S1 2.917709 1_555
La1 S13 2.934414 1_655
La1 S0 2.937053 1_555
La1 S11 3.036767 1_555
La1 S1 3.038145 1_655
La1 S9 3.147656 1_555
La1 S4 3.162188 1_655
La1 S13 3.252373 1_555
La2 S7 2.913395 1_555
La2 S2 2.917709 1_555
La2 S14 2.934414 1_455
La2 S3 2.937053 1_554
La2 S8 3.036767 1_555
La2 S2 3.038145 1_455
La2 S10 3.147656 1_555
La2 S7 3.162188 1_455
La2 S14 3.252373 1_555
La3 S6 2.913395 1_665
La3 S3 2.917709 1_655
La3 S15 2.934414 1_555
La3 S2 2.937053 1_556
La3 S9 3.036767 1_565
La3 S3 3.038145 1_555
La3 S11 3.147656 1_555
La3 S6 3.162188 1_565
La3 S15 3.252373 1_655
La4 S1 2.913395 1_665
La4 S4 2.917709 1_655
La4 S15 2.934414 1_555
La4 S5 2.937053 1_555
La4 S9 3.036767 1_565
La4 S4 3.038145 1_555
La4 S11 3.147656 1_555
La4 S1 3.162188 1_565
La4 S15 3.252373 1_655
La5 S0 2.913395 1_555
La5 S5 2.917709 1_555
La5 S14 2.934414 1_455
La5 S4 2.937053 1_555
La5 S8 3.036767 1_555
La5 S5 3.038145 1_455
La5 S10 3.147656 1_555
La5 S0 3.162188 1_455
La5 S14 3.252373 1_555
La6 S3 2.913395 1_555
La6 S6 2.917709 1_555
La6 S13 2.934414 1_655
La6 S7 2.937053 1_556
La6 S11 3.036767 1_555
La6 S6 3.038145 1_655
La6 S9 3.147656 1_555
La6 S3 3.162188 1_655
La6 S13 3.252373 1_555
La7 S2 2.913395 1_445
La7 S7 2.917709 1_455
La7 S12 2.934414 1_555
La7 S6 2.937053 1_554
La7 S10 3.036767 1_545
La7 S7 3.038145 1_555
La7 S8 3.147656 1_555
La7 S2 3.162188 1_545
La7 S12 3.252373 1_455
S10 S12 2.093180 1_565
S11 S13 2.093180 1_655
S14 S8 2.093180 1_655
S15 S9 2.093180 1_565
