# generated using pymatgen
data_Sb3RhPb4O13
_symmetry_space_group_name_H-M   'P 1'
_cell_length_a   7.48363729
_cell_length_b   7.48363729
_cell_length_c   7.48363715
_cell_angle_alpha   60.83228823
_cell_angle_beta   60.83228823
_cell_angle_gamma   60.83229292
_symmetry_Int_Tables_number   1
_chemical_formula_structural   Sb3RhPb4O13
_chemical_formula_sum   'Sb3 Rh1 Pb4 O13'
_cell_volume   301.92470193
_cell_formula_units_Z   1
loop_
 _symmetry_equiv_pos_site_id
 _symmetry_equiv_pos_as_xyz
  1  'x, y, z'
loop_
 _atom_site_type_symbol
 _atom_site_label
 _atom_site_symmetry_multiplicity
 _atom_site_fract_x
 _atom_site_fract_y
 _atom_site_fract_z
 _atom_site_occupancy
  Sb  Sb0  1  0.00059600  0.49964700  0.49964700  1
  Sb  Sb1  1  0.49964700  0.49964700  0.00059600  1
  Sb  Sb2  1  0.49964700  0.00059600  0.49964700  1
  Rh  Rh0  1  0.49950000  0.49950000  0.49950000  1
  Pb  Pb0  1  0.99860300  0.99860300  0.99860300  1
  Pb  Pb1  1  0.50502200  0.99868900  0.99868900  1
  Pb  Pb2  1  0.99868900  0.99868900  0.50502200  1
  Pb  Pb3  1  0.99868900  0.50502200  0.99868900  1
  O  O0  1  0.83185400  0.42260000  0.42260000  1
  O  O1  1  0.42661100  0.82216900  0.82216900  1
  O  O2  1  0.42260000  0.42260000  0.83185400  1
  O  O3  1  0.82216900  0.82216900  0.42661100  1
  O  O4  1  0.82216900  0.42661100  0.82216900  1
  O  O5  1  0.42260000  0.83185400  0.42260000  1
  O  O6  1  0.17162600  0.57460800  0.57460800  1
  O  O7  1  0.57167900  0.17986100  0.17986100  1
  O  O8  1  0.57460800  0.57460800  0.17162600  1
  O  O9  1  0.17986100  0.17986100  0.57167900  1
  O  O10  1  0.17986100  0.57167900  0.17986100  1
  O  O11  1  0.57460800  0.17162600  0.57460800  1
  O  O12  1  0.12436100  0.12436100  0.12436100  1
loop_
_geom_bond_atom_site_label_1
_geom_bond_atom_site_label_2
_geom_bond_distance
_geom_bond_site_symmetry_2
O0 Sb0 2.000775 1_655
O0 Rh0 2.093092 1_555
O0 Pb3 2.643092 1_554
O0 Pb2 2.643092 1_545
O1 Sb2 2.047290 1_565
O1 Sb1 2.047290 1_556
O1 Pb1 2.654549 1_555
O1 Pb0 2.683452 1_455
O2 Sb1 2.000775 1_556
O2 Rh0 2.093092 1_555
O2 Pb3 2.643092 1_455
O2 Pb1 2.643092 1_545
O3 Sb0 2.047290 1_655
O3 Sb2 2.047290 1_565
O3 Pb2 2.654549 1_555
O3 Pb0 2.683452 1_554
O4 Sb0 2.047290 1_655
O4 Sb1 2.047290 1_556
O4 Pb3 2.654549 1_555
O4 Pb0 2.683452 1_545
O5 Sb2 2.000775 1_565
O5 Rh0 2.093092 1_555
O5 Pb1 2.643092 1_554
O5 Pb2 2.643092 1_455
O6 Sb0 1.993516 1_555
O6 Rh0 2.066824 1_555
O6 Pb3 2.657198 1_455
O6 Pb2 2.657199 1_455
O7 Sb2 2.033612 1_555
O7 Sb1 2.033612 1_555
O7 Pb1 2.652486 1_544
O7 Pb0 2.689332 1_544
O8 Sb1 1.993516 1_555
O8 Rh0 2.066824 1_555
O8 Pb3 2.657199 1_554
O8 Pb1 2.657199 1_554
O9 Sb2 2.033612 1_555
O9 Sb0 2.033612 1_555
O9 Pb2 2.652486 1_445
O9 Pb0 2.689332 1_445
O10 Sb0 2.033612 1_555
O10 Sb1 2.033612 1_555
O10 Pb3 2.652486 1_454
O10 Pb0 2.689332 1_454
O11 Sb2 1.993516 1_555
O11 Rh0 2.066824 1_555
O11 Pb1 2.657198 1_545
O11 Pb2 2.657199 1_545
O12 Pb0 2.290675 1_444
O12 Pb2 2.350202 1_445
O12 Pb3 2.350202 1_454
O12 Pb1 2.350202 1_544
