# generated using pymatgen
data_TaO3
_symmetry_space_group_name_H-M   'P 1'
_cell_length_a   6.85004790
_cell_length_b   6.85004790
_cell_length_c   6.85004790
_cell_angle_alpha   109.47122063
_cell_angle_beta   109.47122063
_cell_angle_gamma   109.47122063
_symmetry_Int_Tables_number   1
_chemical_formula_structural   TaO3
_chemical_formula_sum   'Ta4 O12'
_cell_volume   247.43374859
_cell_formula_units_Z   4
loop_
 _symmetry_equiv_pos_site_id
 _symmetry_equiv_pos_as_xyz
  1  'x, y, z'
loop_
 _atom_site_type_symbol
 _atom_site_label
 _atom_site_symmetry_multiplicity
 _atom_site_fract_x
 _atom_site_fract_y
 _atom_site_fract_z
 _atom_site_occupancy
  Ta  Ta0  1  0.50000000  0.00000000  0.00000000  1
  Ta  Ta1  1  0.00000000  0.50000000  0.00000000  1
  Ta  Ta2  1  0.50000000  0.50000000  0.50000000  1
  Ta  Ta3  1  0.00000000  0.00000000  0.50000000  1
  O  O0  1  0.98838500  0.74430300  0.24408200  1
  O  O1  1  0.25569700  0.75591800  0.01161500  1
  O  O2  1  0.49977900  0.25569700  0.24408200  1
  O  O3  1  0.75591800  0.01161500  0.25569700  1
  O  O4  1  0.74430300  0.75591800  0.50022100  1
  O  O5  1  0.24408200  0.49977900  0.25569700  1
  O  O6  1  0.75591800  0.50022100  0.74430300  1
  O  O7  1  0.25569700  0.24408200  0.49977900  1
  O  O8  1  0.24408200  0.98838500  0.74430300  1
  O  O9  1  0.50022100  0.74430300  0.75591800  1
  O  O10  1  0.74430300  0.24408200  0.98838500  1
  O  O11  1  0.01161500  0.25569700  0.75591800  1
loop_
_geom_bond_atom_site_label_1
_geom_bond_atom_site_label_2
_geom_bond_distance
_geom_bond_site_symmetry_2
O0 Ta3 1.978506 1_665
O0 Ta1 1.978506 1_655
O1 Ta1 1.978506 1_555
O1 Ta0 1.978506 1_565
O2 Ta2 1.978506 1_555
O2 Ta0 1.978506 1_555
O3 Ta0 1.978506 1_555
O3 Ta3 1.978506 1_655
O4 Ta3 1.978506 1_665
O4 Ta2 1.978506 1_555
O5 Ta2 1.978506 1_555
O5 Ta1 1.978506 1_555
O6 Ta1 1.978506 1_656
O6 Ta2 1.978506 1_555
O7 Ta2 1.978506 1_555
O7 Ta3 1.978506 1_555
O8 Ta0 1.978506 1_566
O8 Ta3 1.978506 1_565
O9 Ta0 1.978506 1_566
O9 Ta2 1.978506 1_555
O10 Ta1 1.978506 1_656
O10 Ta0 1.978506 1_556
O11 Ta3 1.978506 1_555
O11 Ta1 1.978506 1_556
