# generated using pymatgen
data_Fe10O11F9
_symmetry_space_group_name_H-M   'P 1'
_cell_length_a   4.76108800
_cell_length_b   4.76626838
_cell_length_c   15.33557181
_cell_angle_alpha   89.88565699
_cell_angle_beta   89.92607680
_cell_angle_gamma   86.11043593
_symmetry_Int_Tables_number   1
_chemical_formula_structural   Fe10O11F9
_chemical_formula_sum   'Fe10 O11 F9'
_cell_volume   347.20185300
_cell_formula_units_Z   1
loop_
 _symmetry_equiv_pos_site_id
 _symmetry_equiv_pos_as_xyz
  1  'x, y, z'
loop_
 _atom_site_type_symbol
 _atom_site_label
 _atom_site_symmetry_multiplicity
 _atom_site_fract_x
 _atom_site_fract_y
 _atom_site_fract_z
 _atom_site_occupancy
  Fe  Fe0  1  0.00420400  0.01494800  0.00220400  1
  Fe  Fe1  1  0.00478200  0.01563500  0.79503800  1
  Fe  Fe2  1  0.04354300  0.99559700  0.60104400  1
  Fe  Fe3  1  0.00271100  0.02277400  0.40802200  1
  Fe  Fe4  1  0.03798500  0.98422900  0.19590900  1
  Fe  Fe5  1  0.50593700  0.50919300  0.89905300  1
  Fe  Fe6  1  0.46335200  0.48707200  0.49667000  1
  Fe  Fe7  1  0.46441000  0.48564700  0.70439400  1
  Fe  Fe8  1  0.49966000  0.52028200  0.30534600  1
  Fe  Fe9  1  0.46125000  0.48152000  0.09351700  1
  O  O0  1  0.19154900  0.18881100  0.70233700  1
  O  O1  1  0.19200600  0.19232900  0.50217300  1
  O  O2  1  0.18809100  0.18577200  0.09871900  1
  O  O3  1  0.30136800  0.69869900  0.99341800  1
  O  O4  1  0.30317200  0.70153000  0.80600900  1
  O  O5  1  0.31765800  0.68160100  0.60218200  1
  O  O6  1  0.28972500  0.70535900  0.39831200  1
  O  O7  1  0.31804100  0.67952000  0.19922600  1
  O  O8  1  0.69138900  0.31021500  0.99482600  1
  O  O9  1  0.69294500  0.31221000  0.80429600  1
  O  O10  1  0.69160200  0.30843200  0.39860400  1
  F  F0  1  0.19100900  0.19853200  0.89920500  1
  F  F1  1  0.19418300  0.19486100  0.29774300  1
  F  F2  1  0.70071300  0.29285000  0.60245700  1
  F  F3  1  0.70428200  0.28832900  0.19963200  1
  F  F4  1  0.81123700  0.81981700  0.89930700  1
  F  F5  1  0.80605900  0.80540200  0.50373200  1
  F  F6  1  0.80942700  0.80320000  0.70045600  1
  F  F7  1  0.80722000  0.80218500  0.10002100  1
  F  F8  1  0.81049200  0.81345000  0.29614600  1
loop_
_geom_bond_atom_site_label_1
_geom_bond_atom_site_label_2
_geom_bond_distance
_geom_bond_site_symmetry_2
Fe0 O2 1.930028 1_555
Fe0 O8 1.981649 1_454
Fe0 O3 2.000728 1_544
Fe1 O0 1.893313 1_555
Fe1 O9 1.984469 1_455
Fe1 O4 1.999746 1_545
Fe2 O5 1.917891 1_555
Fe2 O1 1.938902 1_565
Fe2 O0 1.963216 1_565
Fe3 O1 1.912304 1_555
Fe3 O10 1.948018 1_455
Fe3 O6 1.974390 1_545
Fe4 O7 1.904436 1_555
Fe4 O2 1.933824 1_565
Fe5 O9 1.916919 1_555
Fe5 O4 1.920057 1_555
Fe5 O8 1.928833 1_555
Fe5 O3 1.934142 1_555
Fe6 O5 1.968468 1_555
Fe6 O1 1.973609 1_555
Fe6 O6 1.980224 1_555
Fe6 O10 2.010719 1_555
Fe7 O5 1.930265 1_555
Fe7 O0 1.984942 1_555
Fe7 O4 1.993136 1_555
Fe7 O9 2.022786 1_555
Fe8 O6 1.921326 1_555
Fe8 O10 1.942288 1_555
Fe8 O7 1.970249 1_555
Fe9 O3 1.974126 1_554
Fe9 O7 1.974703 1_555
Fe9 O2 1.983119 1_555
Fe9 O8 2.009265 1_554
F0 Fe0 2.036683 1_556
F0 Fe1 2.052319 1_555
F0 Fe5 2.177576 1_555
F1 Fe4 2.027392 1_545
F1 Fe3 2.110887 1_555
F1 Fe8 2.200414 1_555
F2 Fe2 2.087647 1_645
F2 Fe7 2.101167 1_555
F2 Fe6 2.150057 1_555
F3 Fe4 2.077502 1_645
F3 Fe8 2.157904 1_555
F3 Fe9 2.165478 1_555
F4 Fe0 2.079570 1_666
F4 Fe1 2.093806 1_665
F4 Fe5 2.144010 1_555
F5 Fe3 2.055809 1_665
F5 Fe2 2.115679 1_655
F5 Fe6 2.305005 1_555
F6 Fe1 2.032550 1_665
F6 Fe2 2.129855 1_655
F6 Fe7 2.308562 1_555
F7 Fe4 2.064203 1_655
F7 Fe0 2.068215 1_665
F7 Fe9 2.324157 1_555
F8 Fe4 2.075807 1_655
F8 Fe8 2.107539 1_555
F8 Fe3 2.216135 1_665
