# generated using pymatgen
data_Na2CoPO4F
_symmetry_space_group_name_H-M   'P 1'
_cell_length_a   5.29693200
_cell_length_b   11.79895100
_cell_length_c   13.93876000
_cell_angle_alpha   90.00000000
_cell_angle_beta   90.00000000
_cell_angle_gamma   90.00000000
_symmetry_Int_Tables_number   1
_chemical_formula_structural   Na2CoPO4F
_chemical_formula_sum   'Na16 Co8 P8 O32 F8'
_cell_volume   871.14798337
_cell_formula_units_Z   8
loop_
 _symmetry_equiv_pos_site_id
 _symmetry_equiv_pos_as_xyz
  1  'x, y, z'
loop_
 _atom_site_type_symbol
 _atom_site_label
 _atom_site_symmetry_multiplicity
 _atom_site_fract_x
 _atom_site_fract_y
 _atom_site_fract_z
 _atom_site_occupancy
  Na  Na0  1  0.73646800  0.82870500  0.74572400  1
  Na  Na1  1  0.23646800  0.17129500  0.75427600  1
  Na  Na2  1  0.76353200  0.32870500  0.75427600  1
  Na  Na3  1  0.26353200  0.67129500  0.74572400  1
  Na  Na4  1  0.26353200  0.17129500  0.25427600  1
  Na  Na5  1  0.76353200  0.82870500  0.24572400  1
  Na  Na6  1  0.23646800  0.67129500  0.24572400  1
  Na  Na7  1  0.73646800  0.32870500  0.25427600  1
  Na  Na8  1  0.75745600  0.08352800  0.37600300  1
  Na  Na9  1  0.25745600  0.91647200  0.12399700  1
  Na  Na10  1  0.74254400  0.58352800  0.12399700  1
  Na  Na11  1  0.24254400  0.41647200  0.37600300  1
  Na  Na12  1  0.24254400  0.91647200  0.62399700  1
  Na  Na13  1  0.74254400  0.08352800  0.87600300  1
  Na  Na14  1  0.25745600  0.41647200  0.87600300  1
  Na  Na15  1  0.75745600  0.58352800  0.62399700  1
  Co  Co0  1  0.78004300  0.82657900  0.51119300  1
  Co  Co1  1  0.28004300  0.17342100  0.98880700  1
  Co  Co2  1  0.71995700  0.32657900  0.98880700  1
  Co  Co3  1  0.21995700  0.67342100  0.51119300  1
  Co  Co4  1  0.21995700  0.17342100  0.48880700  1
  Co  Co5  1  0.71995700  0.82657900  0.01119300  1
  Co  Co6  1  0.28004300  0.67342100  0.01119300  1
  Co  Co7  1  0.78004300  0.32657900  0.48880700  1
  P  P0  1  0.29335900  0.91194700  0.38229700  1
  P  P1  1  0.79335900  0.08805300  0.11770300  1
  P  P2  1  0.20664100  0.41194700  0.11770300  1
  P  P3  1  0.70664100  0.58805300  0.38229700  1
  P  P4  1  0.70664100  0.08805300  0.61770300  1
  P  P5  1  0.20664100  0.91194700  0.88229700  1
  P  P6  1  0.79335900  0.58805300  0.88229700  1
  P  P7  1  0.29335900  0.41194700  0.61770300  1
  O  O0  1  0.76948000  0.95940900  0.60968000  1
  O  O1  1  0.26948000  0.04059100  0.89032000  1
  O  O2  1  0.73052000  0.45940900  0.89032000  1
  O  O3  1  0.23052000  0.54059100  0.60968000  1
  O  O4  1  0.23052000  0.04059100  0.39032000  1
  O  O5  1  0.73052000  0.95940900  0.10968000  1
  O  O6  1  0.26948000  0.54059100  0.10968000  1
  O  O7  1  0.76948000  0.45940900  0.39032000  1
  O  O8  1  0.58563200  0.89438800  0.39611200  1
  O  O9  1  0.08563200  0.10561200  0.10388800  1
  O  O10  1  0.91436800  0.39438800  0.10388800  1
  O  O11  1  0.41436800  0.60561200  0.39611200  1
  O  O12  1  0.41436800  0.10561200  0.60388800  1
  O  O13  1  0.91436800  0.89438800  0.89611200  1
  O  O14  1  0.08563200  0.60561200  0.89611200  1
  O  O15  1  0.58563200  0.39438800  0.60388800  1
  O  O16  1  0.20923500  0.86766900  0.28376900  1
  O  O17  1  0.70923500  0.13233100  0.21623100  1
  O  O18  1  0.29076500  0.36766900  0.21623100  1
  O  O19  1  0.79076500  0.63233100  0.28376900  1
  O  O20  1  0.79076500  0.13233100  0.71623100  1
  O  O21  1  0.29076500  0.86766900  0.78376900  1
  O  O22  1  0.70923500  0.63233100  0.78376900  1
  O  O23  1  0.20923500  0.36766900  0.71623100  1
  O  O24  1  0.15474600  0.84646500  0.46487800  1
  O  O25  1  0.65474600  0.15353500  0.03512200  1
  O  O26  1  0.34525400  0.34646500  0.03512200  1
  O  O27  1  0.84525400  0.65353500  0.46487800  1
  O  O28  1  0.84525400  0.15353500  0.53512200  1
  O  O29  1  0.34525400  0.84646500  0.96487800  1
  O  O30  1  0.65474600  0.65353500  0.96487800  1
  O  O31  1  0.15474600  0.34646500  0.53512200  1
  F  F0  1  0.50000000  0.25000000  0.87331400  1
  F  F1  1  0.00000000  0.75000000  0.62668600  1
  F  F2  1  0.50000000  0.75000000  0.12668600  1
  F  F3  1  0.00000000  0.25000000  0.37331400  1
  F  F4  1  0.00000000  0.25000000  0.90527600  1
  F  F5  1  0.50000000  0.75000000  0.59472400  1
  F  F6  1  0.00000000  0.75000000  0.09472400  1
  F  F7  1  0.50000000  0.25000000  0.40527600  1
loop_
_geom_bond_atom_site_label_1
_geom_bond_atom_site_label_2
_geom_bond_distance
_geom_bond_site_symmetry_2
Na0 O22 2.381291 1_555
Na0 O13 2.425435 1_555
Na0 O0 2.450461 1_555
Na0 O21 2.462971 1_555
Na1 O23 2.381291 1_555
Na1 O12 2.425435 1_555
Na1 O1 2.450461 1_555
Na1 O20 2.462971 1_455
Na2 O20 2.381291 1_555
Na2 O15 2.425435 1_555
Na2 O2 2.450461 1_555
Na2 O23 2.462971 1_655
Na3 O21 2.381291 1_555
Na3 O14 2.425435 1_555
Na3 O3 2.450461 1_555
Na3 O22 2.462971 1_555
Na4 O18 2.381291 1_555
Na4 O9 2.425435 1_555
Na4 O4 2.450461 1_555
Na4 O17 2.462971 1_555
Na5 O19 2.381291 1_555
Na5 O8 2.425435 1_555
Na5 O5 2.450461 1_555
Na5 O16 2.462971 1_655
Na6 O16 2.381291 1_555
Na6 O11 2.425435 1_555
Na6 O6 2.450461 1_555
Na6 O19 2.462971 1_455
Na7 O17 2.381291 1_555
Na7 O10 2.425435 1_555
Na7 O7 2.450461 1_555
Na7 O18 2.462971 1_555
Na8 O17 2.314400 1_555
Na8 O28 2.412001 1_555
Na8 O8 2.426355 1_545
Na8 O4 2.564265 1_655
Na8 O4 2.843759 1_555
Na9 O16 2.314400 1_555
Na9 O29 2.412001 1_554
Na9 O9 2.426355 1_565
Na9 O5 2.564265 1_555
Na9 O5 2.843759 1_455
Na10 O19 2.314400 1_555
Na10 O30 2.412001 1_554
Na10 O10 2.426355 1_555
Na10 O6 2.564265 1_555
Na10 O6 2.843759 1_655
Na11 O18 2.314400 1_555
Na11 O31 2.412001 1_555
Na11 O11 2.426355 1_555
Na11 O7 2.564265 1_455
Na11 O7 2.843759 1_555
Na12 O21 2.314400 1_555
Na12 O24 2.412001 1_555
Na12 O12 2.426355 1_565
Na12 O0 2.564265 1_455
Na12 O0 2.843759 1_555
Na13 O20 2.314400 1_555
Na13 O25 2.412001 1_556
Na13 O13 2.426355 1_545
Na13 O1 2.564265 1_555
Na13 O1 2.843759 1_655
Na14 O23 2.314400 1_555
Na14 O26 2.412001 1_556
Na14 O14 2.426355 1_555
Na14 O2 2.564265 1_555
Na14 O2 2.843759 1_455
Na15 O22 2.314400 1_555
Na15 O27 2.412001 1_555
Na15 O15 2.426355 1_555
Na15 O3 2.564265 1_655
Na15 O3 2.843759 1_555
Co0 O8 2.067284 1_555
Co0 O0 2.084217 1_555
Co0 F5 2.091035 1_555
Co0 O24 2.100275 1_655
Co0 O27 2.169049 1_555
Co0 F1 2.182981 1_655
Co1 O9 2.067284 1_556
Co1 O1 2.084217 1_555
Co1 F4 2.091035 1_555
Co1 O25 2.100275 1_556
Co1 O26 2.169049 1_556
Co1 F0 2.182981 1_555
Co2 O10 2.067284 1_556
Co2 O2 2.084217 1_555
Co2 F4 2.091035 1_655
Co2 O26 2.100275 1_556
Co2 O25 2.169049 1_556
Co2 F0 2.182981 1_555
Co3 O11 2.067284 1_555
Co3 O3 2.084217 1_555
Co3 F5 2.091035 1_555
Co3 O27 2.100275 1_455
Co3 O24 2.169049 1_555
Co3 F1 2.182981 1_555
Co4 O12 2.067284 1_555
Co4 O4 2.084217 1_555
Co4 F7 2.091035 1_555
Co4 O28 2.100275 1_455
Co4 O31 2.169049 1_555
Co4 F3 2.182981 1_555
Co5 O13 2.067284 1_554
Co5 O5 2.084217 1_555
Co5 F6 2.091035 1_655
Co5 O29 2.100275 1_554
Co5 O30 2.169049 1_554
Co5 F2 2.182981 1_555
Co6 O14 2.067284 1_554
Co6 O6 2.084217 1_555
Co6 F6 2.091035 1_555
Co6 O30 2.100275 1_554
Co6 O29 2.169049 1_554
Co6 F2 2.182981 1_555
Co7 O15 2.067284 1_555
Co7 O7 2.084217 1_555
Co7 F7 2.091035 1_555
Co7 O31 2.100275 1_655
Co7 O28 2.169049 1_555
Co7 F3 2.182981 1_655
O0 P4 1.557950 1_565
O1 P5 1.557950 1_545
O2 P6 1.557950 1_555
O3 P7 1.557950 1_555
O4 P0 1.557950 1_545
O5 P1 1.557950 1_565
O6 P2 1.557950 1_555
O7 P3 1.557950 1_555
O8 P0 1.573777 1_555
O9 P1 1.573777 1_455
O10 P2 1.573777 1_655
O11 P3 1.573777 1_555
O12 P4 1.573777 1_555
O13 P5 1.573777 1_655
O14 P6 1.573777 1_455
O15 P7 1.573777 1_555
O16 P0 1.535451 1_555
O17 P1 1.535451 1_555
O18 P2 1.535451 1_555
O19 P3 1.535451 1_555
O20 P4 1.535451 1_555
O21 P5 1.535451 1_555
O22 P6 1.535451 1_555
O23 P7 1.535451 1_555
O24 P0 1.568758 1_555
O25 P1 1.568758 1_555
O26 P2 1.568758 1_555
O27 P3 1.568758 1_555
O28 P4 1.568758 1_555
O29 P5 1.568758 1_555
O30 P6 1.568758 1_555
O31 P7 1.568758 1_555
F0 Na14 2.347343 1_555
F0 Na13 2.347343 1_555
F0 Na2 2.358817 1_555
F0 Na1 2.358817 1_555
F1 Na12 2.347343 1_555
F1 Na15 2.347343 1_455
F1 Na0 2.358817 1_455
F1 Na3 2.358817 1_555
F2 Na9 2.347343 1_555
F2 Na10 2.347343 1_555
F2 Na5 2.358817 1_555
F2 Na6 2.358817 1_555
F3 Na11 2.347343 1_555
F3 Na8 2.347343 1_455
F3 Na7 2.358817 1_455
F3 Na4 2.358817 1_555
F4 Na14 2.425758 1_555
F4 Na13 2.425758 1_455
F4 Na2 2.619398 1_455
F4 Na1 2.619398 1_555
F5 Na12 2.425758 1_555
F5 Na15 2.425758 1_555
F5 Na0 2.619398 1_555
F5 Na3 2.619398 1_555
F6 Na9 2.425758 1_555
F6 Na10 2.425758 1_455
F6 Na5 2.619398 1_455
F6 Na6 2.619398 1_555
F7 Na11 2.425758 1_555
F7 Na8 2.425758 1_555
F7 Na7 2.619398 1_555
F7 Na4 2.619398 1_555
