# generated using pymatgen
data_Sr2FeSnO6
_symmetry_space_group_name_H-M   'P 1'
_cell_length_a   5.69043500
_cell_length_b   5.69043500
_cell_length_c   4.03629100
_cell_angle_alpha   90.00000000
_cell_angle_beta   90.00000000
_cell_angle_gamma   90.00000000
_symmetry_Int_Tables_number   1
_chemical_formula_structural   Sr2FeSnO6
_chemical_formula_sum   'Sr2 Fe1 Sn1 O6'
_cell_volume   130.69934266
_cell_formula_units_Z   1
loop_
 _symmetry_equiv_pos_site_id
 _symmetry_equiv_pos_as_xyz
  1  'x, y, z'
loop_
 _atom_site_type_symbol
 _atom_site_label
 _atom_site_symmetry_multiplicity
 _atom_site_fract_x
 _atom_site_fract_y
 _atom_site_fract_z
 _atom_site_occupancy
  Sr  Sr0  1  0.50000000  0.00000000  0.00000000  1
  Sr  Sr1  1  0.00000000  0.50000000  0.00000000  1
  Fe  Fe0  1  0.00000000  0.00000000  0.50000000  1
  Sn  Sn0  1  0.50000000  0.50000000  0.50000000  1
  O  O0  1  0.24479300  0.24479300  0.50000000  1
  O  O1  1  0.75520700  0.75520700  0.50000000  1
  O  O2  1  0.75520700  0.24479300  0.50000000  1
  O  O3  1  0.24479300  0.75520700  0.50000000  1
  O  O4  1  0.50000000  0.50000000  0.00000000  1
  O  O5  1  0.00000000  0.00000000  0.00000000  1
loop_
_geom_bond_atom_site_label_1
_geom_bond_atom_site_label_2
_geom_bond_distance
_geom_bond_site_symmetry_2
Fe0 O0 1.969969 1_555
Fe0 O3 1.969969 1_545
Fe0 O2 1.969969 1_455
Fe0 O1 1.969969 1_445
Fe0 O5 2.018146 1_555
Fe0 O5 2.018146 1_556
O0 Sn0 2.053776 1_555
O0 Sr0 2.849965 1_555
O0 Sr0 2.849965 1_556
O0 Sr1 2.849965 1_555
O0 Sr1 2.849965 1_556
O1 Sn0 2.053776 1_555
O1 Sr0 2.849965 1_566
O1 Sr1 2.849965 1_655
O1 Sr1 2.849965 1_656
O1 Sr0 2.849965 1_565
O2 Sn0 2.053776 1_555
O2 Sr0 2.849965 1_555
O2 Sr0 2.849965 1_556
O2 Sr1 2.849965 1_655
O2 Sr1 2.849965 1_656
O3 Sn0 2.053776 1_555
O3 Sr0 2.849965 1_566
O3 Sr1 2.849965 1_556
O3 Sr1 2.849965 1_555
O3 Sr0 2.849965 1_565
O4 Sn0 2.018146 1_555
O4 Sn0 2.018146 1_554
O4 Sr0 2.845217 1_555
O4 Sr0 2.845217 1_565
O4 Sr1 2.845217 1_655
O4 Sr1 2.845217 1_555
O5 Sr0 2.845217 1_455
O5 Sr1 2.845217 1_545
O5 Sr0 2.845217 1_555
O5 Sr1 2.845217 1_555
