# generated using pymatgen
data_Er5Ni2Sb
_symmetry_space_group_name_H-M   'P 1'
_cell_length_a   8.46921542
_cell_length_b   8.46914504
_cell_length_c   8.46872844
_cell_angle_alpha   127.28239996
_cell_angle_beta   127.28224932
_cell_angle_gamma   77.79430967
_symmetry_Int_Tables_number   1
_chemical_formula_structural   Er5Ni2Sb
_chemical_formula_sum   'Er10 Ni4 Sb2'
_cell_volume   372.77184164
_cell_formula_units_Z   2
loop_
 _symmetry_equiv_pos_site_id
 _symmetry_equiv_pos_as_xyz
  1  'x, y, z'
loop_
 _atom_site_type_symbol
 _atom_site_label
 _atom_site_symmetry_multiplicity
 _atom_site_fract_x
 _atom_site_fract_y
 _atom_site_fract_z
 _atom_site_occupancy
  Er  Er0  1  0.00000197  -0.00000462  -0.00000566  1
  Er  Er1  1  0.49999605  0.50000404  -0.00000015  1
  Er  Er2  1  0.79239111  0.29238786  0.81304833  1
  Er  Er3  1  0.20760681  0.70761002  0.18694535  1
  Er  Er4  1  0.47937394  0.97937299  0.18703257  1
  Er  Er5  1  0.29232875  0.47938891  0.50000690  1
  Er  Er6  1  0.02061401  0.20766295  0.49998831  1
  Er  Er7  1  0.52062497  0.02062620  0.81296158  1
  Er  Er8  1  0.70766857  0.52060891  0.49998989  1
  Er  Er9  1  0.97938645  0.79233464  0.50000800  1
  Ni  Ni0  1  0.13086028  0.63086360  0.76172166  1
  Ni  Ni1  1  0.86913523  0.36913334  0.23827470  1
  Ni  Ni2  1  0.63084969  0.86914103  0.49999392  1
  Ni  Ni3  1  0.36914927  0.13084900  0.49999329  1
  Sb  Sb0  1  0.24996747  0.24999394  -0.00001346  1
  Sb  Sb1  1  0.75004643  0.75002618  0.00005578  1
loop_
_geom_bond_atom_site_label_1
_geom_bond_atom_site_label_2
_geom_bond_distance
_geom_bond_site_symmetry_2
Er0 Ni3 2.945220 1_555
Er0 Ni2 2.945237 1_444
Er0 Ni0 2.945364 1_544
Er0 Ni1 2.945451 1_455
Er0 Sb0 3.295487 1_555
Er0 Sb1 3.295582 1_445
Er1 Ni2 2.945158 1_555
Er1 Ni3 2.945275 1_554
Er1 Ni0 2.945417 1_554
Er1 Ni1 2.945479 1_555
Er1 Sb1 3.295782 1_555
Er1 Sb0 3.295840 1_555
Er2 Ni3 2.813492 1_555
Er2 Ni2 2.813504 1_545
Er2 Ni1 2.884515 1_556
Er2 Sb0 3.212621 1_656
Er2 Sb1 3.212888 1_556
Er3 Ni3 2.813459 1_565
Er3 Ni2 2.813493 1_555
Er3 Ni0 2.884479 1_554
Er3 Sb1 3.212601 1_455
Er3 Sb0 3.212813 1_555
Er4 Ni3 2.813108 1_565
Er4 Ni2 2.813159 1_555
Er4 Ni0 2.884768 1_554
Er4 Sb1 3.213068 1_555
Er4 Sb0 3.213079 1_565
Er5 Ni0 2.813128 1_555
Er5 Ni1 2.813204 1_455
Er5 Ni3 2.885175 1_555
Er5 Sb0 3.212786 1_555
Er5 Sb1 3.213131 1_556
Er6 Ni1 2.813123 1_455
Er6 Ni0 2.813216 1_555
Er6 Ni3 2.885195 1_555
Er6 Sb1 3.212476 1_445
Er6 Sb0 3.212827 1_556
Er7 Ni2 2.813145 1_545
Er7 Ni3 2.813147 1_555
Er7 Ni1 2.884745 1_556
Er7 Sb1 3.213169 1_546
Er7 Sb0 3.213212 1_556
Er8 Ni1 2.813116 1_555
Er8 Ni0 2.813191 1_655
Er8 Ni2 2.885150 1_555
Er8 Sb0 3.212961 1_555
Er8 Sb1 3.213017 1_556
Er9 Ni0 2.813133 1_655
Er9 Ni1 2.813226 1_555
Er9 Ni2 2.885170 1_555
Er9 Sb1 3.212609 1_555
Er9 Sb0 3.212662 1_666
