# generated using pymatgen
data_Ag3S(NO)3
_symmetry_space_group_name_H-M   'P 1'
_cell_length_a   6.73820500
_cell_length_b   9.36569000
_cell_length_c   12.16857300
_cell_angle_alpha   90.00000000
_cell_angle_beta   90.00000000
_cell_angle_gamma   90.00000000
_symmetry_Int_Tables_number   1
_chemical_formula_structural   Ag3S(NO)3
_chemical_formula_sum   'Ag12 S4 N12 O12'
_cell_volume   767.93356487
_cell_formula_units_Z   4
loop_
 _symmetry_equiv_pos_site_id
 _symmetry_equiv_pos_as_xyz
  1  'x, y, z'
loop_
 _atom_site_type_symbol
 _atom_site_label
 _atom_site_symmetry_multiplicity
 _atom_site_fract_x
 _atom_site_fract_y
 _atom_site_fract_z
 _atom_site_occupancy
  Ag  Ag0  1  0.25000000  0.75368700  0.74069700  1
  Ag  Ag1  1  0.75000000  0.24631300  0.25930300  1
  Ag  Ag2  1  0.75000000  0.75368700  0.75930300  1
  Ag  Ag3  1  0.25000000  0.24631300  0.24069700  1
  Ag  Ag4  1  0.02654200  0.45766700  0.38588000  1
  Ag  Ag5  1  0.52654200  0.54233300  0.61412000  1
  Ag  Ag6  1  0.97345800  0.45766700  0.11412000  1
  Ag  Ag7  1  0.47345800  0.54233300  0.88588000  1
  Ag  Ag8  1  0.97345800  0.54233300  0.61412000  1
  Ag  Ag9  1  0.47345800  0.45766700  0.38588000  1
  Ag  Ag10  1  0.02654200  0.54233300  0.88588000  1
  Ag  Ag11  1  0.52654200  0.45766700  0.11412000  1
  S  S0  1  0.25000000  0.75761700  0.47892000  1
  S  S1  1  0.75000000  0.24238300  0.52108000  1
  S  S2  1  0.75000000  0.75761700  0.02108000  1
  S  S3  1  0.25000000  0.24238300  0.97892000  1
  N  N0  1  0.25000000  0.64958400  0.58098700  1
  N  N1  1  0.75000000  0.35041600  0.41901300  1
  N  N2  1  0.75000000  0.64958400  0.91901300  1
  N  N3  1  0.25000000  0.35041600  0.08098700  1
  N  N4  1  0.25000000  0.62437800  0.35887800  1
  N  N5  1  0.75000000  0.37562200  0.64112200  1
  N  N6  1  0.75000000  0.62437800  0.14112200  1
  N  N7  1  0.25000000  0.37562200  0.85887800  1
  N  N8  1  0.25000000  0.13534400  0.38162400  1
  N  N9  1  0.75000000  0.86465600  0.61837600  1
  N  N10  1  0.75000000  0.13534400  0.11837600  1
  N  N11  1  0.25000000  0.86465600  0.88162400  1
  O  O0  1  0.06331900  0.83168400  0.46491600  1
  O  O1  1  0.56331900  0.16831600  0.53508400  1
  O  O2  1  0.93668100  0.83168400  0.03508400  1
  O  O3  1  0.43668100  0.16831600  0.96491600  1
  O  O4  1  0.93668100  0.16831600  0.53508400  1
  O  O5  1  0.43668100  0.83168400  0.46491600  1
  O  O6  1  0.06331900  0.16831600  0.96491600  1
  O  O7  1  0.56331900  0.83168400  0.03508400  1
  O  O8  1  0.25000000  0.68022800  0.26612600  1
  O  O9  1  0.75000000  0.31977200  0.73387400  1
  O  O10  1  0.75000000  0.68022800  0.23387400  1
  O  O11  1  0.25000000  0.31977200  0.76612600  1
loop_
_geom_bond_atom_site_label_1
_geom_bond_atom_site_label_2
_geom_bond_distance
_geom_bond_site_symmetry_2
Ag0 N11 2.005234 1_555
Ag0 N0 2.174302 1_555
Ag1 N10 2.005234 1_555
Ag1 N1 2.174302 1_555
Ag2 N9 2.005234 1_555
Ag2 N2 2.174302 1_555
Ag3 N8 2.005234 1_555
Ag3 N3 2.174302 1_555
Ag4 N1 2.154944 1_455
Ag4 N4 2.193848 1_555
Ag5 N0 2.154944 1_555
Ag5 N5 2.193848 1_555
Ag6 N3 2.154944 1_655
Ag6 N6 2.193848 1_555
Ag7 N2 2.154944 1_555
Ag7 N7 2.193848 1_555
Ag8 N0 2.154944 1_655
Ag8 N5 2.193848 1_555
Ag9 N1 2.154944 1_555
Ag9 N4 2.193848 1_555
Ag10 N2 2.154944 1_455
Ag10 N7 2.193848 1_555
Ag11 N3 2.154944 1_555
Ag11 N6 2.193848 1_555
N0 S0 1.601978 1_555
N1 S1 1.601978 1_555
N2 S2 1.601978 1_556
N3 S3 1.601978 1_554
N4 O8 1.243977 1_555
N4 S0 1.921185 1_555
N5 O9 1.243977 1_555
N5 S1 1.921185 1_555
N6 O10 1.243977 1_555
N6 S2 1.921185 1_555
N7 O11 1.243977 1_555
N7 S3 1.921185 1_555
O0 S0 1.446562 1_555
O1 S1 1.446562 1_555
O2 S2 1.446562 1_555
O3 S3 1.446562 1_555
O4 S1 1.446562 1_555
O5 S0 1.446562 1_555
O6 S3 1.446562 1_555
O7 S2 1.446562 1_555
