# generated using pymatgen
data_AlV2W
_symmetry_space_group_name_H-M   'P 1'
_cell_length_a   9.85307640
_cell_length_b   10.97251990
_cell_length_c   10.97251939
_cell_angle_alpha   63.47745190
_cell_angle_beta   63.32117088
_cell_angle_gamma   63.32117759
_symmetry_Int_Tables_number   1
_chemical_formula_structural   AlV2W
_chemical_formula_sum   'Al1 V2 W1'
_cell_volume   901.45190593
_cell_formula_units_Z   1
loop_
 _symmetry_equiv_pos_site_id
 _symmetry_equiv_pos_as_xyz
  1  'x, y, z'
loop_
 _atom_site_type_symbol
 _atom_site_label
 _atom_site_symmetry_multiplicity
 _atom_site_fract_x
 _atom_site_fract_y
 _atom_site_fract_z
 _atom_site_occupancy
  Al  Al0  1  0.00000000  -0.00000000  -0.00000000  1
  V  V0  1  0.72466471  1.00000000  0.00000000  1
  V  V1  1  0.27533529  0.00000000  1.00000000  1
  W  W0  1  0.50000000  -0.00000000  -0.00000000  1
loop_
_geom_bond_atom_site_label_1
_geom_bond_atom_site_label_2
_geom_bond_distance
_geom_bond_site_symmetry_2
Al0 V1 2.712900 1_554
Al0 V0 2.712900 1_445
V0 W0 2.213639 1_565
V1 W0 2.213639 1_556
