# generated using pymatgen
data_Dy5Mg5Al12(Fe2Si3)2
_symmetry_space_group_name_H-M   'P 1'
_cell_length_a   11.88342600
_cell_length_b   11.88342600
_cell_length_c   3.99307500
_cell_angle_alpha   90.00000000
_cell_angle_beta   90.00000000
_cell_angle_gamma   90.00000000
_symmetry_Int_Tables_number   1
_chemical_formula_structural   Dy5Mg5Al12(Fe2Si3)2
_chemical_formula_sum   'Dy5 Mg5 Al12 Fe4 Si6'
_cell_volume   563.88533448
_cell_formula_units_Z   1
loop_
 _symmetry_equiv_pos_site_id
 _symmetry_equiv_pos_as_xyz
  1  'x, y, z'
loop_
 _atom_site_type_symbol
 _atom_site_label
 _atom_site_symmetry_multiplicity
 _atom_site_fract_x
 _atom_site_fract_y
 _atom_site_fract_z
 _atom_site_occupancy
  Dy  Dy0  1  0.25164800  0.50000000  0.00000000  1
  Dy  Dy1  1  0.74835200  0.50000000  0.00000000  1
  Dy  Dy2  1  0.50000000  0.74835200  0.00000000  1
  Dy  Dy3  1  0.50000000  0.25164800  0.00000000  1
  Dy  Dy4  1  0.00000000  0.00000000  0.00000000  1
  Mg  Mg0  1  0.20218800  0.20218800  0.00000000  1
  Mg  Mg1  1  0.79781200  0.79781200  0.00000000  1
  Mg  Mg2  1  0.20218800  0.79781200  0.00000000  1
  Mg  Mg3  1  0.79781200  0.20218800  0.00000000  1
  Mg  Mg4  1  0.50000000  0.50000000  0.50000000  1
  Al  Al0  1  0.11229800  0.37289800  0.50000000  1
  Al  Al1  1  0.88770200  0.62710200  0.50000000  1
  Al  Al2  1  0.11229800  0.62710200  0.50000000  1
  Al  Al3  1  0.88770200  0.37289800  0.50000000  1
  Al  Al4  1  0.37289800  0.88770200  0.50000000  1
  Al  Al5  1  0.62710200  0.11229800  0.50000000  1
  Al  Al6  1  0.37289800  0.11229800  0.50000000  1
  Al  Al7  1  0.62710200  0.88770200  0.50000000  1
  Al  Al8  1  0.33178500  0.33178500  0.50000000  1
  Al  Al9  1  0.66821500  0.66821500  0.50000000  1
  Al  Al10  1  0.33178500  0.66821500  0.50000000  1
  Al  Al11  1  0.66821500  0.33178500  0.50000000  1
  Fe  Fe0  1  0.30514700  0.00000000  0.00000000  1
  Fe  Fe1  1  0.69485300  0.00000000  0.00000000  1
  Fe  Fe2  1  0.00000000  0.69485300  0.00000000  1
  Fe  Fe3  1  0.00000000  0.30514700  0.00000000  1
  Si  Si0  1  0.18779300  0.00000000  0.50000000  1
  Si  Si1  1  0.81220700  0.00000000  0.50000000  1
  Si  Si2  1  0.00000000  0.81220700  0.50000000  1
  Si  Si3  1  0.00000000  0.18779300  0.50000000  1
  Si  Si4  1  0.00000000  0.50000000  0.00000000  1
  Si  Si5  1  0.50000000  0.00000000  0.00000000  1
loop_
_geom_bond_atom_site_label_1
_geom_bond_atom_site_label_2
_geom_bond_distance
_geom_bond_site_symmetry_2
Dy0 Si4 2.990440 1_555
Dy1 Si4 2.990440 1_655
Dy2 Si5 2.990440 1_565
Dy3 Si5 2.990440 1_555
Dy4 Si1 2.994380 1_455
Dy4 Si1 2.994380 1_454
Dy4 Si3 2.994380 1_554
Dy4 Si0 2.994380 1_554
Dy4 Si2 2.994380 1_544
Dy4 Si2 2.994380 1_545
Dy4 Si3 2.994380 1_555
Dy4 Si0 2.994380 1_555
Mg0 Si3 3.128630 1_554
Mg0 Si0 3.128630 1_554
Mg0 Si3 3.128630 1_555
Mg0 Si0 3.128630 1_555
Mg1 Si2 3.128630 1_655
Mg1 Si1 3.128630 1_565
Mg1 Si1 3.128630 1_564
Mg1 Si2 3.128630 1_654
Mg2 Si2 3.128630 1_555
Mg2 Si2 3.128630 1_554
Mg2 Si0 3.128630 1_565
Mg2 Si0 3.128630 1_564
Mg3 Si1 3.128630 1_554
Mg3 Si1 3.128630 1_555
Mg3 Si3 3.128630 1_654
Mg3 Si3 3.128630 1_655
Al0 Fe3 2.532829 1_556
Al0 Fe3 2.532829 1_555
Al0 Si3 2.572829 1_555
Al0 Al8 2.653620 1_555
Al0 Al3 2.668970 1_455
Al0 Si4 2.836960 1_556
Al0 Si4 2.836960 1_555
Al0 Dy0 3.001613 1_555
Al0 Dy0 3.001613 1_556
Al0 Al2 3.020814 1_555
Al0 Mg0 3.040150 1_555
Al0 Mg0 3.040150 1_556
Al1 Fe2 2.532829 1_655
Al1 Fe2 2.532829 1_656
Al1 Si2 2.572829 1_655
Al1 Al9 2.653620 1_555
Al1 Al2 2.668970 1_655
Al1 Si4 2.836960 1_656
Al1 Si4 2.836960 1_655
Al1 Dy1 3.001613 1_556
Al1 Dy1 3.001613 1_555
Al1 Al3 3.020814 1_555
Al1 Mg1 3.040150 1_556
Al1 Mg1 3.040150 1_555
Al2 Fe2 2.532829 1_556
Al2 Fe2 2.532829 1_555
Al2 Si2 2.572829 1_555
Al2 Si4 2.836960 1_556
Al2 Si4 2.836960 1_555
Al2 Dy0 3.001613 1_555
Al2 Dy0 3.001613 1_556
Al2 Mg2 3.040150 1_555
Al2 Mg2 3.040150 1_556
Al3 Fe3 2.532829 1_656
Al3 Fe3 2.532829 1_655
Al3 Si3 2.572829 1_655
Al3 Si4 2.836960 1_656
Al3 Si4 2.836960 1_655
Al3 Dy1 3.001613 1_555
Al3 Dy1 3.001613 1_556
Al3 Mg3 3.040150 1_555
Al3 Mg3 3.040150 1_556
Al4 Fe0 2.532829 1_566
Al4 Fe0 2.532829 1_565
Al4 Si0 2.572829 1_565
Al4 Al6 2.668970 1_565
Al4 Si5 2.836960 1_566
Al4 Si5 2.836960 1_565
Al4 Dy2 3.001613 1_556
Al4 Dy2 3.001613 1_555
Al4 Al7 3.020814 1_555
Al4 Mg2 3.040150 1_556
Al4 Mg2 3.040150 1_555
Al5 Fe1 2.532829 1_555
Al5 Fe1 2.532829 1_556
Al5 Si1 2.572829 1_555
Al5 Al7 2.668970 1_545
Al5 Si5 2.836960 1_556
Al5 Si5 2.836960 1_555
Al5 Dy3 3.001613 1_555
Al5 Dy3 3.001613 1_556
Al5 Al6 3.020814 1_555
Al5 Mg3 3.040150 1_555
Al5 Mg3 3.040150 1_556
Al6 Fe0 2.532829 1_555
Al6 Fe0 2.532829 1_556
Al6 Si0 2.572829 1_555
Al6 Al8 2.653620 1_555
Al6 Si5 2.836960 1_555
Al6 Si5 2.836960 1_556
Al6 Dy3 3.001613 1_556
Al6 Dy3 3.001613 1_555
Al6 Mg0 3.040150 1_555
Al6 Mg0 3.040150 1_556
Al7 Fe1 2.532829 1_565
Al7 Fe1 2.532829 1_566
Al7 Si1 2.572829 1_565
Al7 Al9 2.653620 1_555
Al7 Si5 2.836960 1_566
Al7 Si5 2.836960 1_565
Al7 Dy2 3.001613 1_555
Al7 Dy2 3.001613 1_556
Al7 Mg1 3.040150 1_556
Al7 Mg1 3.040150 1_555
Al8 Mg4 2.826971 1_555
Al8 Mg0 2.954608 1_556
Al8 Mg0 2.954608 1_555
Al8 Dy0 2.981430 1_556
Al8 Dy3 2.981430 1_555
Al8 Dy0 2.981430 1_555
Al8 Dy3 2.981430 1_556
Al9 Mg4 2.826971 1_555
Al9 Mg1 2.954608 1_555
Al9 Mg1 2.954608 1_556
Al9 Dy1 2.981430 1_555
Al9 Dy2 2.981430 1_556
Al9 Dy2 2.981430 1_555
Al9 Dy1 2.981430 1_556
Al10 Al4 2.653620 1_555
Al10 Al2 2.653620 1_555
Al10 Mg4 2.826971 1_555
Al10 Mg2 2.954608 1_555
Al10 Mg2 2.954608 1_556
Al10 Dy2 2.981430 1_556
Al10 Dy0 2.981430 1_556
Al10 Dy2 2.981430 1_555
Al10 Dy0 2.981430 1_555
Al11 Al3 2.653620 1_555
Al11 Al5 2.653620 1_555
Al11 Mg4 2.826971 1_555
Al11 Mg3 2.954608 1_555
Al11 Mg3 2.954608 1_556
Al11 Dy1 2.981430 1_555
Al11 Dy1 2.981430 1_556
Al11 Dy3 2.981430 1_555
Al11 Dy3 2.981430 1_556
Fe0 Si5 2.315521 1_555
Fe0 Si0 2.435360 1_554
Fe0 Si0 2.435360 1_555
Fe0 Mg0 2.696269 1_555
Fe0 Mg2 2.696269 1_545
Fe1 Si5 2.315521 1_555
Fe1 Si1 2.435360 1_555
Fe1 Si1 2.435360 1_554
Fe1 Mg3 2.696269 1_555
Fe1 Mg1 2.696269 1_545
Fe2 Si4 2.315521 1_555
Fe2 Si2 2.435360 1_554
Fe2 Si2 2.435360 1_555
Fe2 Mg2 2.696269 1_555
Fe2 Mg1 2.696269 1_455
Fe3 Si4 2.315521 1_555
Fe3 Si3 2.435360 1_554
Fe3 Si3 2.435360 1_555
Fe3 Mg0 2.696269 1_555
Fe3 Mg3 2.696269 1_455
