# generated using pymatgen
data_Na3FeH10C6O17
_symmetry_space_group_name_H-M   'P 1'
_cell_length_a   10.90535112
_cell_length_b   10.90535112
_cell_length_c   15.12353209
_cell_angle_alpha   81.36839987
_cell_angle_beta   81.36839987
_cell_angle_gamma   73.03717268
_symmetry_Int_Tables_number   1
_chemical_formula_structural   Na3FeH10C6O17
_chemical_formula_sum   'Na12 Fe4 H40 C24 O68'
_cell_volume   1690.07870068
_cell_formula_units_Z   4
loop_
 _symmetry_equiv_pos_site_id
 _symmetry_equiv_pos_as_xyz
  1  'x, y, z'
loop_
 _atom_site_type_symbol
 _atom_site_label
 _atom_site_symmetry_multiplicity
 _atom_site_fract_x
 _atom_site_fract_y
 _atom_site_fract_z
 _atom_site_occupancy
  Na  Na0  1  0.49879351  0.50120649  0.75000000  1
  Na  Na1  1  0.50120649  0.49879351  0.25000000  1
  Na  Na2  1  0.22717095  0.77282905  0.75000000  1
  Na  Na3  1  0.77282905  0.22717095  0.25000000  1
  Na  Na4  1  0.92814297  0.15429646  0.00140535  1
  Na  Na5  1  0.84570354  0.07185703  0.49859465  1
  Na  Na6  1  0.07185703  0.84570354  0.99859465  1
  Na  Na7  1  0.15429646  0.92814297  0.50140535  1
  Na  Na8  1  0.74843287  0.48596447  0.98335055  1
  Na  Na9  1  0.51403553  0.25156713  0.51664945  1
  Na  Na10  1  0.25156713  0.51403553  0.01664945  1
  Na  Na11  1  0.48596447  0.74843287  0.48335055  1
  Fe  Fe0  1  0.05562009  0.32642559  0.76848945  1
  Fe  Fe1  1  0.67357441  0.94437991  0.73151055  1
  Fe  Fe2  1  0.94437991  0.67357441  0.23151055  1
  Fe  Fe3  1  0.32642559  0.05562009  0.26848945  1
  H  H0  1  0.64680818  0.27130981  0.05413668  1
  H  H1  1  0.72869019  0.35319182  0.44586332  1
  H  H2  1  0.35319182  0.72869019  0.94586332  1
  H  H3  1  0.27130981  0.64680818  0.55413668  1
  H  H4  1  0.65379774  0.27779872  0.94759658  1
  H  H5  1  0.72220128  0.34620226  0.55240342  1
  H  H6  1  0.34620226  0.72220128  0.05240342  1
  H  H7  1  0.27779872  0.65379774  0.44759658  1
  H  H8  1  0.77859204  0.96424644  0.00648027  1
  H  H9  1  0.03575356  0.22140796  0.49351973  1
  H  H10  1  0.22140796  0.03575356  0.99351973  1
  H  H11  1  0.96424644  0.77859204  0.50648027  1
  H  H12  1  0.81106177  0.01187226  0.90664375  1
  H  H13  1  0.98812774  0.18893823  0.59335625  1
  H  H14  1  0.18893823  0.98812774  0.09335625  1
  H  H15  1  0.01187226  0.81106177  0.40664375  1
  H  H16  1  0.03719210  0.38166021  0.97755813  1
  H  H17  1  0.61833979  0.96280790  0.52244187  1
  H  H18  1  0.96280790  0.61833979  0.02244187  1
  H  H19  1  0.38166021  0.03719210  0.47755813  1
  H  H20  1  0.98896457  0.34169419  0.08002363  1
  H  H21  1  0.65830581  0.01103543  0.41997637  1
  H  H22  1  0.01103543  0.65830581  0.91997637  1
  H  H23  1  0.34169419  0.98896457  0.58002363  1
  H  H24  1  0.72776881  0.74971408  0.91639085  1
  H  H25  1  0.25028592  0.27223119  0.58360915  1
  H  H26  1  0.27223119  0.25028592  0.08360915  1
  H  H27  1  0.74971408  0.72776881  0.41639085  1
  H  H28  1  0.75308360  0.72804538  0.01761713  1
  H  H29  1  0.27195462  0.24691640  0.48238287  1
  H  H30  1  0.24691640  0.27195462  0.98238287  1
  H  H31  1  0.72804538  0.75308360  0.51761713  1
  H  H32  1  0.60046835  0.87552264  0.06392981  1
  H  H33  1  0.12447736  0.39953165  0.43607019  1
  H  H34  1  0.39953165  0.12447736  0.93607019  1
  H  H35  1  0.87552264  0.60046835  0.56392981  1
  H  H36  1  0.59074059  0.99101769  0.11700540  1
  H  H37  1  0.00898231  0.40925941  0.38299460  1
  H  H38  1  0.40925941  0.00898231  0.88299460  1
  H  H39  1  0.99101769  0.59074059  0.61700540  1
  C  C0  1  0.22282292  0.45745815  0.81481779  1
  C  C1  1  0.54254185  0.77717708  0.68518221  1
  C  C2  1  0.77717708  0.54254185  0.18518221  1
  C  C3  1  0.45745815  0.22282292  0.31481779  1
  C  C4  1  0.20025452  0.50877392  0.71502680  1
  C  C5  1  0.49122608  0.79974548  0.78497320  1
  C  C6  1  0.79974548  0.49122608  0.28497320  1
  C  C7  1  0.50877392  0.20025452  0.21502680  1
  C  C8  1  0.20544266  0.07707811  0.72712702  1
  C  C9  1  0.92292189  0.79455734  0.77287298  1
  C  C10  1  0.79455734  0.92292189  0.27287298  1
  C  C11  1  0.07707811  0.20544266  0.22712702  1
  C  C12  1  0.11850364  0.05451776  0.81592205  1
  C  C13  1  0.94548224  0.88149636  0.68407795  1
  C  C14  1  0.88149636  0.94548224  0.18407795  1
  C  C15  1  0.05451776  0.11850364  0.31592205  1
  C  C16  1  0.81172506  0.39461784  0.70063348  1
  C  C17  1  0.60538216  0.18827494  0.79936652  1
  C  C18  1  0.18827494  0.60538216  0.29936652  1
  C  C19  1  0.39461784  0.81172506  0.20063348  1
  C  C20  1  0.78929186  0.45842971  0.78937162  1
  C  C21  1  0.54157029  0.21070814  0.71062838  1
  C  C22  1  0.21070814  0.54157029  0.21062838  1
  C  C23  1  0.45842971  0.78929186  0.28937162  1
  O  O0  1  0.16255228  0.37268578  0.85132986  1
  O  O1  1  0.62731422  0.83744772  0.64867014  1
  O  O2  1  0.83744772  0.62731422  0.14867014  1
  O  O3  1  0.37268578  0.16255228  0.35132986  1
  O  O4  1  0.11429262  0.47032373  0.68512907  1
  O  O5  1  0.52967627  0.88570738  0.81487093  1
  O  O6  1  0.88570738  0.52967627  0.31487093  1
  O  O7  1  0.47032373  0.11429262  0.18512907  1
  O  O8  1  0.29139972  0.50167259  0.85294048  1
  O  O9  1  0.49832741  0.70860028  0.64705952  1
  O  O10  1  0.70860028  0.49832741  0.14705952  1
  O  O11  1  0.50167259  0.29139972  0.35294048  1
  O  O12  1  0.26107635  0.58389980  0.67280124  1
  O  O13  1  0.41610020  0.73892365  0.82719876  1
  O  O14  1  0.73892365  0.41610020  0.32719876  1
  O  O15  1  0.58389980  0.26107635  0.17280124  1
  O  O16  1  0.04459382  0.15934959  0.84680917  1
  O  O17  1  0.84065041  0.95540618  0.65319083  1
  O  O18  1  0.95540618  0.84065041  0.15319083  1
  O  O19  1  0.15934959  0.04459382  0.34680917  1
  O  O20  1  0.19371180  0.19662478  0.69725351  1
  O  O21  1  0.80337522  0.80628820  0.80274649  1
  O  O22  1  0.80628820  0.80337522  0.30274649  1
  O  O23  1  0.19662478  0.19371180  0.19725351  1
  O  O24  1  0.12400628  0.94245022  0.85007995  1
  O  O25  1  0.05754978  0.87599372  0.64992005  1
  O  O26  1  0.87599372  0.05754978  0.14992005  1
  O  O27  1  0.94245022  0.12400628  0.35007995  1
  O  O28  1  0.27786787  0.98203811  0.69124437  1
  O  O29  1  0.01796189  0.72213213  0.80875563  1
  O  O30  1  0.72213213  0.01796189  0.30875563  1
  O  O31  1  0.98203811  0.27786787  0.19124437  1
  O  O32  1  0.92851585  0.32321659  0.68253083  1
  O  O33  1  0.67678341  0.07148415  0.81746917  1
  O  O34  1  0.07148415  0.67678341  0.31746917  1
  O  O35  1  0.32321659  0.92851585  0.18253083  1
  O  O36  1  0.89202932  0.43543022  0.82978899  1
  O  O37  1  0.56456978  0.10797068  0.67021101  1
  O  O38  1  0.10797068  0.56456978  0.17021101  1
  O  O39  1  0.43543022  0.89202932  0.32978899  1
  O  O40  1  0.72068841  0.41354268  0.65514272  1
  O  O41  1  0.58645732  0.27931159  0.84485728  1
  O  O42  1  0.27931159  0.58645732  0.34485728  1
  O  O43  1  0.41354268  0.72068841  0.15514272  1
  O  O44  1  0.68041016  0.52240582  0.81820776  1
  O  O45  1  0.47759418  0.31958984  0.68179224  1
  O  O46  1  0.31958984  0.47759418  0.18179224  1
  O  O47  1  0.52240582  0.68041016  0.31820776  1
  O  O48  1  0.69899704  0.28870313  0.99678090  1
  O  O49  1  0.71129687  0.30100296  0.50321910  1
  O  O50  1  0.30100296  0.71129687  0.00321910  1
  O  O51  1  0.28870313  0.69899704  0.49678090  1
  O  O52  1  0.85083399  0.98121237  0.96282749  1
  O  O53  1  0.01878763  0.14916601  0.53717251  1
  O  O54  1  0.14916601  0.01878763  0.03717251  1
  O  O55  1  0.98121237  0.85083399  0.46282749  1
  O  O56  1  0.96467005  0.36183395  0.01750140  1
  O  O57  1  0.63816605  0.03532995  0.48249860  1
  O  O58  1  0.03532995  0.63816605  0.98249860  1
  O  O59  1  0.36183395  0.96467005  0.51750140  1
  O  O60  1  0.70272469  0.70846891  0.97614323  1
  O  O61  1  0.29153109  0.29727531  0.52385677  1
  O  O62  1  0.29727531  0.29153109  0.02385677  1
  O  O63  1  0.70846891  0.70272469  0.47614323  1
  O  O64  1  0.65265429  0.91854309  0.08850123  1
  O  O65  1  0.08145691  0.34734571  0.41149877  1
  O  O66  1  0.34734571  0.08145691  0.91149877  1
  O  O67  1  0.91854309  0.65265429  0.58850123  1
loop_
_geom_bond_atom_site_label_1
_geom_bond_atom_site_label_2
_geom_bond_distance
_geom_bond_site_symmetry_2
Na0 O45 2.447914 1_555
Na0 O44 2.447914 1_555
Na0 O9 2.545152 1_555
Na0 O8 2.545152 1_555
Na0 O40 2.616752 1_555
Na0 O41 2.616752 1_555
Na0 O12 2.850466 1_555
Na0 O13 2.850466 1_555
Na1 O47 2.447914 1_555
Na1 O46 2.447914 1_555
Na1 O10 2.545152 1_555
Na1 O11 2.545152 1_555
Na1 O42 2.616752 1_555
Na1 O43 2.616752 1_555
Na1 O15 2.850466 1_555
Na1 O14 2.850466 1_555
Na2 O13 2.427499 1_555
Na2 O12 2.427499 1_555
Na2 O24 2.468444 1_555
Na2 O25 2.468444 1_555
Na2 O29 2.506096 1_555
Na2 O28 2.506096 1_555
Na3 O14 2.427499 1_555
Na3 O15 2.427499 1_555
Na3 O27 2.468444 1_555
Na3 O26 2.468444 1_555
Na3 O30 2.506096 1_555
Na3 O31 2.506096 1_555
Na4 O26 2.395159 1_555
Na4 O52 2.453723 1_544
Na4 O56 2.461881 1_555
Na4 O16 2.488603 1_654
Na4 O48 2.506461 1_554
Na4 O54 2.521734 1_655
Na5 O27 2.395159 1_555
Na5 O53 2.453723 1_655
Na5 O57 2.461881 1_555
Na5 O17 2.488603 1_545
Na5 O49 2.506461 1_555
Na5 O55 2.521734 1_545
Na6 O24 2.395159 1_555
Na6 O54 2.453723 1_566
Na6 O58 2.461881 1_555
Na6 O18 2.488603 1_456
Na6 O50 2.506461 1_556
Na6 O52 2.521734 1_455
Na7 O25 2.395159 1_555
Na7 O55 2.453723 1_455
Na7 O59 2.461881 1_555
Na7 O19 2.488603 1_565
Na7 O51 2.506461 1_555
Na7 O53 2.521734 1_565
Na8 O60 2.319345 1_555
Na8 O48 2.339289 1_555
Na8 O56 2.439903 1_556
Na8 O10 2.465754 1_556
Na8 O36 2.634094 1_555
Na8 O44 2.651812 1_555
Na9 O61 2.319345 1_555
Na9 O49 2.339289 1_555
Na9 O57 2.439903 1_555
Na9 O11 2.465754 1_555
Na9 O37 2.634094 1_555
Na9 O45 2.651812 1_555
Na10 O62 2.319345 1_555
Na10 O50 2.339289 1_555
Na10 O58 2.439903 1_554
Na10 O8 2.465754 1_554
Na10 O38 2.634094 1_555
Na10 O46 2.651812 1_555
Na11 O63 2.319345 1_555
Na11 O51 2.339289 1_555
Na11 O59 2.439903 1_555
Na11 O9 2.465754 1_555
Na11 O39 2.634094 1_555
Na11 O47 2.651812 1_555
Fe0 O36 2.012996 1_455
Fe0 O0 2.038502 1_555
Fe0 O20 2.039395 1_555
Fe0 O16 2.043158 1_555
Fe0 O32 2.048261 1_455
Fe0 O4 2.052140 1_555
Fe1 O37 2.012996 1_565
Fe1 O1 2.038502 1_555
Fe1 O21 2.039395 1_555
Fe1 O17 2.043158 1_555
Fe1 O33 2.048261 1_565
Fe1 O5 2.052140 1_555
Fe2 O38 2.012996 1_655
Fe2 O2 2.038502 1_555
Fe2 O22 2.039395 1_555
Fe2 O18 2.043158 1_555
Fe2 O34 2.048261 1_655
Fe2 O6 2.052140 1_555
Fe3 O39 2.012996 1_545
Fe3 O3 2.038502 1_555
Fe3 O23 2.039395 1_555
Fe3 O19 2.043158 1_555
Fe3 O35 2.048261 1_545
Fe3 O7 2.052140 1_555
H0 O48 0.988806 1_554
H1 O49 0.988806 1_555
H2 O50 0.988806 1_556
H3 O51 0.988806 1_555
H4 O48 0.990561 1_555
H5 O49 0.990561 1_555
H6 O50 0.990561 1_555
H7 O51 0.990561 1_555
H8 O52 0.991471 1_554
H9 O53 0.991471 1_555
H10 O54 0.991471 1_556
H11 O55 0.991471 1_555
H12 O52 0.981135 1_545
H13 O53 0.981135 1_655
H14 O54 0.981135 1_565
H15 O55 0.981135 1_455
H16 O56 0.976894 1_456
H17 O57 0.976894 1_565
H18 O58 0.976894 1_654
H19 O59 0.976894 1_545
H20 O56 0.995698 1_555
H20 O31 1.720639 1_555
H21 O57 0.995698 1_555
H21 O30 1.720639 1_555
H22 O58 0.995698 1_555
H22 O29 1.720639 1_555
H23 O59 0.995698 1_555
H23 O28 1.720639 1_555
H24 O60 0.984436 1_555
H25 O61 0.984436 1_555
H26 O62 0.984436 1_555
H27 O63 0.984436 1_555
H28 O60 0.976011 1_554
H29 O61 0.976011 1_555
H30 O62 0.976011 1_556
H31 O63 0.976011 1_555
H32 O64 0.976566 1_555
H33 O65 0.976566 1_555
H34 O66 0.976566 1_555
H35 O67 0.976566 1_555
H36 O64 0.984838 1_555
H37 O65 0.984838 1_555
H38 O66 0.984838 1_555
H39 O67 0.984838 1_555
C0 O8 1.243970 1_555
C0 O0 1.297674 1_555
C1 O9 1.243970 1_555
C1 O1 1.297674 1_555
C2 O10 1.243970 1_555
C2 O2 1.297674 1_555
C3 O11 1.243970 1_555
C3 O3 1.297674 1_555
C4 O12 1.245739 1_555
C4 O4 1.293282 1_555
C5 O13 1.245739 1_555
C5 O5 1.293282 1_555
C6 O14 1.245739 1_555
C6 O6 1.293282 1_555
C7 O15 1.245739 1_555
C7 O7 1.293282 1_555
C8 O28 1.247014 1_545
C8 O20 1.289709 1_555
C9 O29 1.247014 1_655
C9 O21 1.289709 1_555
C10 O30 1.247014 1_565
C10 O22 1.289709 1_555
C11 O31 1.247014 1_455
C11 O23 1.289709 1_555
C12 O24 1.241406 1_545
C12 O16 1.297860 1_555
C13 O25 1.241406 1_655
C13 O17 1.297860 1_555
C14 O26 1.241406 1_565
C14 O18 1.297860 1_555
C15 O27 1.241406 1_455
C15 O19 1.297860 1_555
C16 O40 1.242730 1_555
C16 O32 1.297719 1_555
C17 O41 1.242730 1_555
C17 O33 1.297719 1_555
C18 O42 1.242730 1_555
C18 O34 1.297719 1_555
C19 O43 1.242730 1_555
C19 O35 1.297719 1_555
C20 O44 1.240709 1_555
C20 O36 1.298993 1_555
C21 O45 1.240709 1_555
C21 O37 1.298993 1_555
C22 O46 1.240709 1_555
C22 O38 1.298993 1_555
C23 O47 1.240709 1_555
C23 O39 1.298993 1_555
