# generated using pymatgen
data_TbCrO5
_symmetry_space_group_name_H-M   'P 1'
_cell_length_a   8.26378872
_cell_length_b   8.35388021
_cell_length_c   11.55779100
_cell_angle_alpha   90.00000000
_cell_angle_beta   90.00000000
_cell_angle_gamma   90.77077671
_symmetry_Int_Tables_number   1
_chemical_formula_structural   TbCrO5
_chemical_formula_sum   'Tb8 Cr8 O40'
_cell_volume   797.81645034
_cell_formula_units_Z   8
loop_
 _symmetry_equiv_pos_site_id
 _symmetry_equiv_pos_as_xyz
  1  'x, y, z'
loop_
 _atom_site_type_symbol
 _atom_site_label
 _atom_site_symmetry_multiplicity
 _atom_site_fract_x
 _atom_site_fract_y
 _atom_site_fract_z
 _atom_site_occupancy
  Tb  Tb0  1  0.13286700  0.33344200  0.94016300  1
  Tb  Tb1  1  0.36713300  0.16655800  0.44016300  1
  Tb  Tb2  1  0.86713300  0.66655800  0.05983700  1
  Tb  Tb3  1  0.63286700  0.83344200  0.55983700  1
  Tb  Tb4  1  0.56972100  0.32122500  0.92241700  1
  Tb  Tb5  1  0.93027900  0.17877500  0.42241700  1
  Tb  Tb6  1  0.43027900  0.67877500  0.07758300  1
  Tb  Tb7  1  0.06972100  0.82122500  0.57758300  1
  Cr  Cr0  1  0.36300900  0.50042800  0.67331100  1
  Cr  Cr1  1  0.13699100  0.99957200  0.17331100  1
  Cr  Cr2  1  0.63699100  0.49957200  0.32668900  1
  Cr  Cr3  1  0.86300900  0.00042800  0.82668900  1
  Cr  Cr4  1  0.86125300  0.45655500  0.68973700  1
  Cr  Cr5  1  0.63874700  0.04344500  0.18973700  1
  Cr  Cr6  1  0.13874700  0.54344500  0.31026300  1
  Cr  Cr7  1  0.36125300  0.95655500  0.81026300  1
  O  O0  1  0.34349500  0.43446400  0.81175100  1
  O  O1  1  0.15650500  0.06553600  0.31175100  1
  O  O2  1  0.65650500  0.56553600  0.18824900  1
  O  O3  1  0.84349500  0.93446400  0.68824900  1
  O  O4  1  0.19335200  0.58392600  0.63161900  1
  O  O5  1  0.30664800  0.91607400  0.13161900  1
  O  O6  1  0.80664800  0.41607400  0.36838100  1
  O  O7  1  0.69335200  0.08392600  0.86838100  1
  O  O8  1  0.50478400  0.63985100  0.66757700  1
  O  O9  1  0.99521600  0.86014900  0.16757700  1
  O  O10  1  0.49521600  0.36014900  0.33242300  1
  O  O11  1  0.00478400  0.13985100  0.83242300  1
  O  O12  1  0.40365700  0.34872800  0.58608600  1
  O  O13  1  0.09634300  0.15127200  0.08608600  1
  O  O14  1  0.59634300  0.65127200  0.41391400  1
  O  O15  1  0.90365700  0.84872800  0.91391400  1
  O  O16  1  0.68617700  0.39330200  0.74075800  1
  O  O17  1  0.81382300  0.10669800  0.24075800  1
  O  O18  1  0.31382300  0.60669800  0.25924200  1
  O  O19  1  0.18617700  0.89330200  0.75924200  1
  O  O20  1  0.84224000  0.63432700  0.62003500  1
  O  O21  1  0.65776000  0.86567300  0.12003500  1
  O  O22  1  0.15776000  0.36567300  0.37996500  1
  O  O23  1  0.34224000  0.13432700  0.87996500  1
  O  O24  1  0.98175100  0.48002200  0.80621400  1
  O  O25  1  0.51824900  0.01997800  0.30621400  1
  O  O26  1  0.01824900  0.51997800  0.19378600  1
  O  O27  1  0.48175100  0.98002200  0.69378600  1
  O  O28  1  0.92759800  0.32053200  0.59826600  1
  O  O29  1  0.57240200  0.17946800  0.09826600  1
  O  O30  1  0.07240200  0.67946800  0.40173400  1
  O  O31  1  0.42759800  0.82053200  0.90173400  1
  O  O32  1  0.35634500  0.41974800  0.04122500  1
  O  O33  1  0.14365500  0.08025200  0.54122500  1
  O  O34  1  0.64365500  0.58025200  0.95877500  1
  O  O35  1  0.85634500  0.91974800  0.45877500  1
  O  O36  1  0.16016200  0.59872600  0.01428400  1
  O  O37  1  0.33983800  0.90127400  0.51428400  1
  O  O38  1  0.83983800  0.40127400  0.98571600  1
  O  O39  1  0.66016200  0.09872600  0.48571600  1
loop_
_geom_bond_atom_site_label_1
_geom_bond_atom_site_label_2
_geom_bond_distance
_geom_bond_site_symmetry_2
Cr0 O8 1.642225 1_555
Cr0 O4 1.646417 1_555
Cr0 O12 1.657292 1_555
Cr0 O0 1.699256 1_555
Cr1 O9 1.642225 1_455
Cr1 O5 1.646417 1_555
Cr1 O13 1.657292 1_565
Cr1 O1 1.699256 1_565
Cr2 O10 1.642225 1_555
Cr2 O6 1.646417 1_555
Cr2 O14 1.657292 1_555
Cr2 O2 1.699256 1_555
Cr3 O11 1.642225 1_655
Cr3 O7 1.646417 1_555
Cr3 O15 1.657292 1_545
Cr3 O3 1.699256 1_545
Cr4 O16 1.643042 1_555
Cr4 O28 1.651137 1_555
Cr4 O24 1.684351 1_555
Cr4 O20 1.698658 1_555
Cr5 O17 1.643042 1_555
Cr5 O29 1.651137 1_555
Cr5 O25 1.684351 1_555
Cr5 O21 1.698658 1_545
Cr6 O18 1.643042 1_555
Cr6 O30 1.651137 1_555
Cr6 O26 1.684351 1_555
Cr6 O22 1.698658 1_555
Cr7 O19 1.643042 1_555
Cr7 O31 1.651137 1_555
Cr7 O27 1.684351 1_555
Cr7 O23 1.698658 1_565
O0 Tb0 2.430032 1_555
O0 Tb4 2.464431 1_555
O1 Tb1 2.430032 1_555
O1 Tb5 2.464431 1_455
O2 Tb2 2.430032 1_555
O2 Tb6 2.464431 1_555
O3 Tb3 2.430032 1_555
O3 Tb7 2.464431 1_655
O4 Tb7 2.327683 1_555
O5 Tb6 2.327683 1_555
O6 Tb5 2.327683 1_555
O7 Tb4 2.327683 1_555
O8 Tb3 2.289177 1_555
O9 Tb2 2.289177 1_555
O10 Tb1 2.289177 1_555
O11 Tb0 2.289177 1_555
O12 Tb1 2.288917 1_555
O13 Tb0 2.288917 1_554
O14 Tb3 2.288917 1_555
O15 Tb2 2.288917 1_556
O16 Tb4 2.383555 1_555
O17 Tb5 2.383555 1_555
O18 Tb6 2.383555 1_555
O19 Tb7 2.383555 1_555
O20 Tb7 2.476562 1_655
O20 Tb3 2.514357 1_555
O21 Tb6 2.476562 1_555
O21 Tb2 2.514357 1_555
O22 Tb5 2.476562 1_455
O22 Tb1 2.514357 1_555
O23 Tb4 2.476562 1_555
O23 Tb0 2.514357 1_555
O24 Tb0 2.344532 1_655
O25 Tb1 2.344532 1_555
O26 Tb2 2.344532 1_455
O27 Tb3 2.344532 1_555
O28 Tb5 2.352516 1_555
O29 Tb4 2.352516 1_554
O30 Tb7 2.352516 1_555
O31 Tb6 2.352516 1_556
O32 Tb6 2.279623 1_555
O32 Tb0 2.293236 1_554
O32 Tb4 2.389817 1_554
O33 Tb7 2.279623 1_545
O33 Tb1 2.293236 1_555
O33 Tb5 2.389817 1_455
O34 Tb4 2.279623 1_555
O34 Tb2 2.293236 1_556
O34 Tb6 2.389817 1_556
O35 Tb5 2.279623 1_565
O35 Tb3 2.293236 1_555
O35 Tb7 2.389817 1_655
O36 Tb0 2.383830 1_554
O36 Tb6 2.434118 1_555
O36 Tb2 2.549318 1_455
O37 Tb1 2.383830 1_565
O37 Tb7 2.434118 1_555
O37 Tb3 2.549318 1_555
O38 Tb2 2.383830 1_556
O38 Tb4 2.434118 1_555
O38 Tb0 2.549318 1_655
O39 Tb3 2.383830 1_545
O39 Tb5 2.434118 1_555
O39 Tb1 2.549318 1_555
