# generated using pymatgen
data_Al
_symmetry_space_group_name_H-M   'P 1'
_cell_length_a   12.12531129
_cell_length_b   12.27628938
_cell_length_c   12.13442360
_cell_angle_alpha   99.88685195
_cell_angle_beta   94.49274887
_cell_angle_gamma   84.94340365
_symmetry_Int_Tables_number   1
_chemical_formula_structural   Al
_chemical_formula_sum   Al100
_cell_volume   1768.82525054
_cell_formula_units_Z   100
loop_
 _symmetry_equiv_pos_site_id
 _symmetry_equiv_pos_as_xyz
  1  'x, y, z'
loop_
 _atom_site_type_symbol
 _atom_site_label
 _atom_site_symmetry_multiplicity
 _atom_site_fract_x
 _atom_site_fract_y
 _atom_site_fract_z
 _atom_site_occupancy
  Al  Al0  1  0.98655635  0.86143319  0.44309900  1
  Al  Al1  1  0.41582200  0.06027310  0.38174811  1
  Al  Al2  1  0.52175723  0.56726801  0.58961929  1
  Al  Al3  1  0.48230284  0.85046373  0.86355175  1
  Al  Al4  1  0.85273918  0.26235767  0.89303162  1
  Al  Al5  1  0.64768281  0.88831870  0.03483785  1
  Al  Al6  1  0.04358234  0.40645438  0.41651947  1
  Al  Al7  1  0.41026373  0.01092100  0.59031489  1
  Al  Al8  1  0.82734650  0.47905096  0.35050435  1
  Al  Al9  1  0.09658304  0.05498201  0.05905828  1
  Al  Al10  1  0.27291348  0.15688245  0.91570684  1
  Al  Al11  1  0.62922644  0.76120982  0.21037488  1
  Al  Al12  1  0.63555869  0.66546699  0.93990208  1
  Al  Al13  1  0.26756457  0.41079272  0.46919891  1
  Al  Al14  1  0.01932935  0.81047693  0.84410934  1
  Al  Al15  1  0.51063901  0.55840096  0.11896804  1
  Al  Al16  1  0.16779540  0.53349539  0.30520150  1
  Al  Al17  1  0.33319425  0.43059700  0.70540102  1
  Al  Al18  1  0.89009558  0.16308452  0.09840544  1
  Al  Al19  1  0.97158266  0.36151886  0.17846940  1
  Al  Al20  1  0.42212189  0.79076563  0.62448114  1
  Al  Al21  1  0.55663414  0.35829311  0.66651831  1
  Al  Al22  1  0.29893261  0.93753296  0.99657616  1
  Al  Al23  1  0.37178729  0.41543895  0.21693333  1
  Al  Al24  1  0.22571136  0.14516344  0.67395193  1
  Al  Al25  1  0.81650984  0.49002862  0.96185771  1
  Al  Al26  1  0.88575302  0.93097656  0.05296206  1
  Al  Al27  1  0.20450460  0.19423311  0.44327850  1
  Al  Al28  1  0.92366590  0.27698513  0.51657312  1
  Al  Al29  1  0.43542851  0.62284050  0.80948171  1
  Al  Al30  1  0.28863897  0.61256786  0.60811744  1
  Al  Al31  1  0.45213325  0.76524967  0.05986434  1
  Al  Al32  1  0.83430661  0.07694470  0.41339955  1
  Al  Al33  1  0.08800396  0.72871588  0.63208051  1
  Al  Al34  1  0.25129742  0.69556235  0.96288401  1
  Al  Al35  1  0.84095921  0.85702844  0.25611504  1
  Al  Al36  1  0.36000564  0.18905391  0.12378285  1
  Al  Al37  1  0.62558727  0.22955488  0.83441065  1
  Al  Al38  1  0.73074302  0.55117994  0.16467970  1
  Al  Al39  1  0.79309178  0.25787673  0.29245368  1
  Al  Al40  1  0.22657053  0.95252441  0.40639562  1
  Al  Al41  1  0.47780836  0.32314017  0.01828078  1
  Al  Al42  1  0.61131096  0.12573611  0.58231828  1
  Al  Al43  1  0.15255314  0.44752636  0.07647719  1
  Al  Al44  1  0.59470547  0.95763210  0.71946065  1
  Al  Al45  1  0.09161378  0.83124348  0.06183335  1
  Al  Al46  1  0.29542877  0.62084169  0.16671007  1
  Al  Al47  1  0.37950765  0.59392501  0.39771935  1
  Al  Al48  1  0.79135192  0.71435221  0.38478715  1
  Al  Al49  1  0.12122380  0.35483152  0.62768116  1
  Al  Al50  1  0.97597707  0.95053583  0.66584678  1
  Al  Al51  1  0.59914206  0.18413545  0.36762148  1
  Al  Al52  1  0.95764232  0.53140689  0.62041830  1
  Al  Al53  1  0.71424064  0.32844668  0.05658580  1
  Al  Al54  1  0.86212988  0.75505063  0.63013901  1
  Al  Al55  1  0.64181841  0.72629650  0.72926998  1
  Al  Al56  1  0.06592928  0.25026374  0.97763706  1
  Al  Al57  1  0.48392129  0.38552833  0.42686056  1
  Al  Al58  1  0.28135721  0.84396897  0.19848835  1
  Al  Al59  1  0.20918123  0.91625819  0.61588247  1
  Al  Al60  1  0.03184290  0.96871015  0.25959464  1
  Al  Al61  1  0.58274611  0.17844811  0.13740351  1
  Al  Al62  1  0.03616422  0.61285735  0.97870866  1
  Al  Al63  1  0.94150248  0.04563678  0.88664562  1
  Al  Al64  1  0.34139015  0.48631950  0.94741817  1
  Al  Al65  1  0.78177194  0.07632482  0.73302420  1
  Al  Al66  1  0.43647042  0.80999084  0.37006439  1
  Al  Al67  1  0.47186107  0.98651702  0.16624601  1
  Al  Al68  1  0.20847242  0.74147605  0.44534125  1
  Al  Al69  1  0.26601331  0.79417116  0.78606776  1
  Al  Al70  1  0.78162587  0.28260299  0.67765291  1
  Al  Al71  1  0.96629002  0.42183517  0.80529805  1
  Al  Al72  1  0.71449982  0.50293575  0.74120855  1
  Al  Al73  1  0.78653922  0.87750978  0.83815020  1
  Al  Al74  1  0.95325016  0.57867193  0.18479507  1
  Al  Al75  1  0.49021829  0.07596177  0.92375460  1
  Al  Al76  1  0.62400603  0.95397714  0.36388872  1
  Al  Al77  1  0.82819077  0.71687085  0.05685694  1
  Al  Al78  1  0.99741741  0.63007737  0.43204756  1
  Al  Al79  1  0.18910699  0.34787539  0.84543867  1
  Al  Al80  1  0.23967462  0.06998887  0.23197801  1
  Al  Al81  1  0.08772699  0.74246476  0.24949985  1
  Al  Al82  1  0.40819794  0.24026638  0.78591162  1
  Al  Al83  1  0.14491835  0.57096095  0.77588567  1
  Al  Al84  1  0.73955964  0.58718295  0.54594166  1
  Al  Al85  1  0.77418547  0.93350515  0.53871692  1
  Al  Al86  1  0.86277058  0.65171602  0.82579337  1
  Al  Al87  1  0.14965941  0.99732411  0.82457885  1
  Al  Al88  1  0.61432602  0.79239470  0.52193406  1
  Al  Al89  1  0.60525115  0.39407993  0.24723073  1
  Al  Al90  1  0.04898117  0.07561880  0.51179971  1
  Al  Al91  1  0.00540626  0.19046319  0.72560322  1
  Al  Al92  1  0.70579231  0.36846461  0.49126694  1
  Al  Al93  1  0.73940706  0.04362262  0.20293428  1
  Al  Al94  1  0.71693158  0.08150263  0.96272705  1
  Al  Al95  1  0.59481428  0.60613931  0.35772948  1
  Al  Al96  1  0.57473375  0.45516666  0.89808271  1
  Al  Al97  1  0.01583024  0.18759483  0.30571523  1
  Al  Al98  1  0.40082491  0.23691461  0.54955443  1
  Al  Al99  1  0.19055216  0.29900201  0.24657350  1
loop_
_geom_bond_atom_site_label_1
_geom_bond_atom_site_label_2
_geom_bond_distance
_geom_bond_site_symmetry_2
Al0 Al50 2.744630 1_555
Al0 Al35 2.759502 1_555
Al0 Al90 2.771444 1_665
Al0 Al78 2.812125 1_555
Al0 Al81 2.848531 1_655
Al0 Al60 2.884489 1_655
Al0 Al85 2.911000 1_555
Al0 Al68 2.951874 1_655
Al0 Al48 3.068456 1_555
Al1 Al80 2.701908 1_555
Al1 Al7 2.708731 1_555
Al1 Al98 2.711803 1_555
Al1 Al67 2.734330 1_545
Al1 Al76 2.744044 1_545
Al1 Al40 2.807736 1_545
Al1 Al51 2.833273 1_555
Al1 Al27 2.993749 1_555
Al1 Al66 3.040335 1_545
Al2 Al57 2.759366 1_555
Al2 Al84 2.773579 1_555
Al2 Al55 2.789394 1_555
Al2 Al47 2.835032 1_555
Al2 Al30 2.851128 1_555
Al2 Al21 2.863569 1_555
Al2 Al20 2.874658 1_555
Al2 Al29 2.892308 1_555
Al2 Al72 2.994859 1_555
Al2 Al95 3.139476 1_555
Al3 Al75 2.747295 1_565
Al3 Al5 2.781497 1_556
Al3 Al55 2.800125 1_555
Al3 Al69 2.819495 1_555
Al3 Al31 2.821792 1_556
Al3 Al44 2.850424 1_555
Al4 Al53 2.673243 1_556
Al4 Al56 2.706872 1_655
Al4 Al70 2.732741 1_555
Al4 Al63 2.771335 1_555
Al4 Al91 2.831730 1_655
Al4 Al71 2.877943 1_555
Al4 Al65 2.878874 1_555
Al4 Al94 3.140665 1_555
Al5 Al93 2.777663 1_565
Al5 Al67 2.821395 1_555
Al5 Al94 2.876433 1_564
Al5 Al77 2.929376 1_555
Al5 Al73 3.005009 1_554
Al6 Al78 2.730072 1_455
Al6 Al8 2.795471 1_455
Al6 Al97 2.826266 1_555
Al6 Al99 2.897522 1_555
Al7 Al98 2.891575 1_555
Al8 Al84 2.754017 1_555
Al8 Al92 2.911414 1_555
Al8 Al89 3.070543 1_555
Al8 Al95 3.099655 1_555
Al10 Al87 2.608913 1_545
Al10 Al36 2.638096 1_556
Al10 Al79 2.718087 1_555
Al10 Al75 2.733243 1_555
Al10 Al82 2.733798 1_555
Al10 Al56 2.769514 1_555
Al10 Al24 2.925845 1_555
Al10 Al22 3.003801 1_545
Al11 Al31 2.710519 1_555
Al11 Al38 2.743573 1_555
Al11 Al76 2.748172 1_555
Al11 Al48 2.870784 1_555
Al11 Al5 2.880924 1_555
Al11 Al35 2.892716 1_555
Al11 Al95 2.901921 1_555
Al11 Al15 2.988233 1_555
Al11 Al66 3.104898 1_555
Al11 Al77 3.116258 1_555
Al12 Al96 2.700700 1_555
Al12 Al77 2.702011 1_556
Al12 Al55 2.791390 1_555
Al12 Al5 2.792013 1_556
Al12 Al31 2.825014 1_556
Al12 Al29 2.829271 1_555
Al12 Al25 2.965810 1_555
Al12 Al72 3.013850 1_555
Al12 Al3 3.029552 1_555
Al13 Al57 2.693571 1_555
Al13 Al6 2.743929 1_555
Al13 Al30 2.766375 1_555
Al13 Al27 2.790155 1_555
Al13 Al98 2.824531 1_555
Al13 Al16 2.832608 1_555
Al13 Al17 2.888740 1_555
Al13 Al49 2.919250 1_555
Al13 Al99 2.934398 1_555
Al13 Al47 3.006834 1_555
Al14 Al45 2.694150 1_556
Al14 Al33 2.760776 1_555
Al14 Al86 2.808730 1_455
Al14 Al73 2.868585 1_455
Al14 Al63 2.928386 1_465
Al14 Al87 2.949458 1_555
Al14 Al50 2.975144 1_455
Al14 Al54 3.111929 1_455
Al15 Al38 2.679822 1_555
Al15 Al46 2.732101 1_555
Al15 Al31 2.773802 1_555
Al15 Al89 2.863257 1_555
Al15 Al64 2.888965 1_554
Al15 Al96 2.894899 1_554
Al15 Al95 2.972917 1_555
Al15 Al23 2.979726 1_555
Al15 Al41 2.984497 1_555
Al16 Al78 2.735418 1_455
Al16 Al46 2.772683 1_555
Al16 Al43 2.792701 1_555
Al16 Al6 2.825168 1_555
Al16 Al47 2.828211 1_555
Al16 Al81 2.834454 1_555
Al16 Al99 2.838426 1_555
Al16 Al68 2.872907 1_555
Al16 Al23 2.935262 1_555
Al16 Al74 2.939079 1_455
Al17 Al30 2.696065 1_555
Al17 Al82 2.740641 1_555
Al17 Al29 2.819287 1_555
Al17 Al21 2.825456 1_555
Al17 Al83 2.831741 1_555
Al17 Al49 2.846214 1_555
Al17 Al98 2.873560 1_555
Al17 Al79 2.888190 1_555
Al17 Al64 2.894588 1_555
Al18 Al19 2.704732 1_555
Al18 Al94 2.717554 1_554
Al18 Al39 2.744763 1_555
Al18 Al9 2.764373 1_655
Al18 Al63 2.808980 1_554
Al18 Al26 2.812185 1_545
Al18 Al97 2.821899 1_655
Al18 Al53 2.889019 1_555
Al18 Al93 2.927847 1_555
Al18 Al4 2.944445 1_554
Al18 Al56 3.044481 1_654
Al19 Al74 2.643845 1_555
Al19 Al99 2.799326 1_655
Al19 Al97 2.833937 1_655
Al19 Al56 2.851549 1_654
Al19 Al6 2.924566 1_655
Al19 Al8 2.931068 1_555
Al19 Al43 2.957059 1_655
Al20 Al88 2.729706 1_555
Al20 Al7 2.793571 1_565
Al20 Al30 2.805227 1_555
Al20 Al69 2.822875 1_555
Al20 Al59 2.891827 1_555
Al20 Al3 2.918530 1_555
Al20 Al55 2.963578 1_555
Al20 Al44 3.077470 1_555
Al20 Al66 3.155690 1_555
Al21 Al98 2.674666 1_555
Al21 Al72 2.722721 1_555
Al21 Al70 2.804045 1_555
Al21 Al37 2.820139 1_555
Al21 Al96 2.856547 1_555
Al21 Al42 2.899117 1_555
Al21 Al92 2.922748 1_555
Al21 Al82 3.004467 1_555
Al21 Al57 3.037510 1_555
Al22 Al87 2.805498 1_555
Al22 Al9 2.822424 1_566
Al22 Al67 2.849186 1_556
Al22 Al31 2.855766 1_556
Al22 Al69 2.863910 1_555
Al22 Al3 2.870977 1_555
Al22 Al58 2.908443 1_556
Al22 Al34 3.028703 1_555
Al22 Al80 3.136925 1_566
Al23 Al46 2.759492 1_555
Al23 Al99 2.802826 1_555
Al23 Al89 2.820758 1_555
Al23 Al47 2.824121 1_555
Al23 Al36 2.826260 1_555
Al23 Al41 2.835122 1_555
Al23 Al57 2.857107 1_555
Al23 Al43 3.076137 1_555
Al24 Al82 2.746744 1_555
Al24 Al91 2.778218 1_555
Al24 Al59 2.798316 1_545
Al24 Al7 2.807988 1_555
Al24 Al90 2.877073 1_555
Al24 Al49 2.890602 1_555
Al24 Al27 2.950062 1_555
Al24 Al79 2.981893 1_555
Al24 Al87 3.030395 1_545
Al24 Al98 3.092457 1_555
Al25 Al38 2.707599 1_556
Al25 Al71 2.708252 1_555
Al25 Al4 2.782390 1_555
Al25 Al77 2.836455 1_556
Al25 Al53 2.869442 1_556
Al25 Al72 2.883761 1_555
Al25 Al86 2.906430 1_555
Al25 Al96 3.021322 1_555
Al25 Al74 3.139403 1_556
Al25 Al62 3.150531 1_655
Al26 Al45 2.684344 1_655
Al26 Al93 2.753554 1_565
Al26 Al73 2.780805 1_554
Al26 Al77 2.787331 1_555
Al26 Al63 2.805037 1_564
Al26 Al35 2.874236 1_555
Al26 Al94 2.912180 1_564
Al26 Al60 2.947750 1_655
Al26 Al5 2.963608 1_555
Al26 Al9 3.078270 1_665
Al27 Al98 2.666649 1_555
Al27 Al97 2.722985 1_555
Al27 Al90 2.741038 1_555
Al27 Al80 2.792145 1_555
Al27 Al99 2.886657 1_555
Al27 Al49 2.898577 1_555
Al27 Al40 2.915379 1_545
Al28 Al70 2.692893 1_555
Al28 Al6 2.731488 1_655
Al28 Al90 2.779498 1_655
Al28 Al92 2.793361 1_555
Al28 Al49 2.815017 1_655
Al28 Al32 2.823622 1_555
Al28 Al97 2.875291 1_655
Al28 Al91 2.981597 1_655
Al28 Al39 3.021515 1_555
Al29 Al69 2.841925 1_555
Al29 Al96 2.847566 1_555
Al29 Al3 2.855514 1_555
Al29 Al30 2.899421 1_555
Al29 Al64 2.917151 1_555
Al29 Al34 2.995959 1_555
Al30 Al33 2.718997 1_555
Al30 Al68 2.802154 1_555
Al30 Al47 2.824902 1_555
Al30 Al69 2.835500 1_555
Al30 Al83 2.917516 1_555
Al31 Al34 2.760341 1_554
Al31 Al58 2.772362 1_555
Al31 Al67 2.822078 1_555
Al31 Al5 2.983086 1_555
Al32 Al85 2.695200 1_545
Al32 Al93 2.697687 1_555
Al32 Al90 2.777380 1_655
Al32 Al39 2.854136 1_555
Al32 Al35 3.025568 1_545
Al32 Al76 3.044536 1_545
Al32 Al51 3.084207 1_555
Al33 Al78 2.715126 1_455
Al33 Al54 2.728092 1_455
Al33 Al69 2.820320 1_555
Al33 Al68 2.823766 1_555
Al33 Al83 2.829859 1_555
Al33 Al59 2.880135 1_555
Al33 Al50 2.912117 1_455
Al33 Al52 2.984610 1_455
Al34 Al45 2.659685 1_556
Al34 Al69 2.662837 1_555
Al34 Al64 2.683064 1_555
Al34 Al46 2.780336 1_556
Al34 Al83 2.801752 1_555
Al34 Al62 2.912834 1_555
Al35 Al93 2.658160 1_565
Al35 Al48 2.671989 1_555
Al35 Al77 2.718511 1_555
Al35 Al60 2.786170 1_655
Al35 Al76 3.082128 1_555
Al35 Al81 3.192863 1_655
Al36 Al61 2.685898 1_555
Al36 Al80 2.706298 1_555
Al36 Al99 2.750223 1_555
Al36 Al41 2.795256 1_555
Al36 Al67 2.832526 1_545
Al36 Al75 3.060806 1_554
Al37 Al82 2.652191 1_555
Al37 Al94 2.702099 1_555
Al37 Al65 2.753328 1_555
Al37 Al96 2.772541 1_555
Al37 Al4 2.836277 1_555
Al37 Al53 2.923983 1_556
Al37 Al70 2.971278 1_555
Al37 Al41 2.981938 1_556
Al37 Al75 2.991852 1_555
Al37 Al42 3.103044 1_555
Al38 Al8 2.707326 1_555
Al38 Al74 2.735246 1_555
Al38 Al53 2.839152 1_555
Al38 Al89 2.908234 1_555
Al38 Al95 2.919817 1_555
Al38 Al77 2.970721 1_555
Al38 Al48 3.130653 1_555
Al39 Al8 2.745391 1_555
Al39 Al97 2.762846 1_655
Al39 Al93 2.780606 1_555
Al39 Al89 2.780734 1_555
Al39 Al92 2.793868 1_555
Al39 Al51 2.859521 1_555
Al40 Al59 2.682091 1_555
Al40 Al68 2.742471 1_555
Al40 Al58 2.744799 1_555
Al40 Al80 2.779429 1_565
Al40 Al90 2.783953 1_565
Al40 Al60 2.857890 1_555
Al40 Al66 2.976488 1_555
Al40 Al7 3.067406 1_565
Al41 Al61 2.656836 1_555
Al41 Al64 2.696853 1_554
Al41 Al96 2.748027 1_554
Al41 Al53 2.872748 1_555
Al41 Al82 2.914000 1_554
Al41 Al75 3.049162 1_554
Al41 Al89 3.098126 1_555
Al42 Al65 2.748091 1_555
Al42 Al51 2.808107 1_555
Al42 Al98 2.819219 1_555
Al42 Al44 2.893759 1_545
Al42 Al7 2.937434 1_555
Al42 Al85 2.943228 1_545
Al42 Al70 2.978794 1_555
Al42 Al76 3.095554 1_545
Al43 Al62 2.752861 1_554
Al43 Al56 2.767619 1_554
Al43 Al46 2.877441 1_555
Al43 Al79 2.911024 1_554
Al43 Al99 2.965179 1_555
Al43 Al64 2.988680 1_554
Al43 Al74 3.040512 1_455
Al44 Al7 2.725881 1_565
Al44 Al65 2.781534 1_565
Al44 Al73 2.830291 1_555
Al44 Al55 2.867966 1_555
Al44 Al88 2.872458 1_555
Al44 Al75 2.965079 1_565
Al45 Al81 2.693318 1_555
Al45 Al58 2.728378 1_555
Al45 Al9 2.758671 1_565
Al45 Al60 2.792490 1_555
Al45 Al62 2.817788 1_554
Al46 Al58 2.691855 1_555
Al46 Al64 2.946124 1_554
Al46 Al81 2.966400 1_555
Al46 Al47 2.969386 1_555
Al47 Al68 2.661201 1_555
Al47 Al95 2.714031 1_555
Al47 Al57 2.818257 1_555
Al47 Al66 2.879286 1_555
Al48 Al78 2.676912 1_555
Al48 Al95 2.799529 1_555
Al48 Al88 2.818596 1_555
Al48 Al84 2.840646 1_555
Al48 Al8 2.846269 1_555
Al48 Al85 3.001142 1_555
Al48 Al54 3.002393 1_555
Al49 Al79 2.718681 1_555
Al49 Al52 2.814449 1_455
Al49 Al6 2.815665 1_555
Al49 Al71 2.933286 1_455
Al49 Al83 2.961650 1_555
Al49 Al91 3.006654 1_555
Al50 Al87 2.769968 1_655
Al50 Al63 2.780555 1_565
Al50 Al85 2.792546 1_555
Al50 Al65 2.796716 1_565
Al50 Al54 2.825902 1_555
Al50 Al90 2.849601 1_665
Al50 Al59 2.917467 1_655
Al50 Al91 2.956334 1_665
Al51 Al57 2.742128 1_555
Al51 Al61 2.774319 1_555
Al51 Al76 2.807911 1_545
Al51 Al92 2.844286 1_555
Al51 Al93 2.948421 1_555
Al52 Al84 2.792300 1_555
Al52 Al71 2.797828 1_555
Al52 Al78 2.855015 1_555
Al52 Al83 2.856537 1_655
Al52 Al54 2.871009 1_555
Al52 Al6 2.894708 1_655
Al52 Al86 2.932735 1_555
Al53 Al89 2.720014 1_555
Al53 Al61 2.877044 1_555
Al53 Al96 3.005761 1_554
Al53 Al94 3.048155 1_554
Al54 Al84 2.660542 1_555
Al54 Al85 2.721149 1_555
Al54 Al86 2.876726 1_555
Al54 Al73 2.878828 1_555
Al54 Al55 3.085955 1_555
Al54 Al78 3.119342 1_555
Al55 Al88 2.760672 1_555
Al55 Al73 2.763983 1_555
Al55 Al72 2.829641 1_555
Al55 Al84 2.832228 1_555
Al55 Al86 2.971871 1_555
Al56 Al9 2.731352 1_556
Al56 Al79 2.755170 1_555
Al56 Al63 3.043090 1_455
Al56 Al91 3.066424 1_555
Al57 Al92 2.742195 1_555
Al57 Al89 2.744930 1_555
Al57 Al98 2.837628 1_555
Al58 Al80 2.741755 1_565
Al58 Al66 2.755445 1_555
Al58 Al81 2.908003 1_555
Al58 Al67 3.104904 1_555
Al59 Al87 2.686754 1_555
Al59 Al68 2.713325 1_555
Al59 Al69 2.764726 1_555
Al59 Al7 2.851895 1_565
Al59 Al90 2.998322 1_565
Al60 Al97 2.641968 1_565
Al60 Al81 2.784388 1_555
Al60 Al80 2.972607 1_565
Al60 Al9 2.998359 1_565
Al60 Al90 3.114586 1_565
Al61 Al93 2.577069 1_555
Al61 Al89 2.777923 1_555
Al61 Al94 2.808743 1_554
Al61 Al75 2.869808 1_554
Al61 Al67 2.897801 1_545
Al62 Al86 2.758058 1_455
Al62 Al83 2.831051 1_555
Al62 Al74 2.875626 1_456
Al62 Al77 2.877517 1_456
Al62 Al71 3.003541 1_455
Al63 Al65 2.629615 1_555
Al63 Al87 2.677673 1_645
Al63 Al9 2.695430 1_656
Al63 Al73 2.868826 1_545
Al63 Al94 2.916120 1_555
Al63 Al91 3.041932 1_655
Al64 Al79 2.702290 1_555
Al64 Al96 2.916495 1_555
Al65 Al85 2.686372 1_545
Al65 Al70 2.729005 1_555
Al65 Al73 2.936059 1_545
Al65 Al94 2.943627 1_555
Al66 Al88 2.743256 1_555
Al66 Al95 3.006791 1_555
Al66 Al76 3.013563 1_555
Al66 Al68 3.202173 1_555
Al67 Al76 2.969945 1_555
Al67 Al80 3.029014 1_565
Al68 Al81 2.693091 1_555
Al68 Al78 2.986935 1_455
Al69 Al87 2.740709 1_555
Al70 Al92 2.719148 1_555
Al70 Al72 2.750900 1_555
Al70 Al91 2.901417 1_655
Al70 Al71 3.091346 1_555
Al71 Al79 2.806106 1_655
Al71 Al91 2.849397 1_655
Al71 Al86 2.963950 1_555
Al71 Al83 3.035551 1_655
Al72 Al86 2.695855 1_555
Al72 Al84 2.790345 1_555
Al72 Al96 2.811313 1_555
Al73 Al94 2.792164 1_565
Al73 Al86 2.826248 1_555
Al74 Al81 2.674634 1_655
Al74 Al77 2.769486 1_555
Al74 Al78 2.973938 1_555
Al74 Al8 3.086102 1_555
Al75 Al94 2.757417 1_555
Al75 Al82 2.898218 1_555
Al76 Al85 2.716029 1_555
Al76 Al93 2.901962 1_565
Al76 Al88 3.001530 1_555
Al77 Al86 2.834064 1_554
Al78 Al8 2.897133 1_555
Al78 Al81 3.115323 1_655
Al79 Al82 2.945919 1_555
Al79 Al83 2.993977 1_555
Al80 Al9 2.607738 1_555
Al80 Al99 2.800112 1_555
Al80 Al97 3.081868 1_555
Al82 Al98 2.855765 1_555
Al84 Al92 2.712341 1_555
Al84 Al95 2.798744 1_555
Al84 Al88 2.871521 1_555
Al85 Al88 2.684863 1_555
Al87 Al9 2.919887 1_566
Al88 Al95 2.776922 1_555
Al89 Al95 2.713090 1_555
Al90 Al91 2.797329 1_555
Al90 Al97 3.038163 1_555
Al93 Al94 3.017469 1_554
Al97 Al99 2.821318 1_555
