# generated using pymatgen
data_HoCu4Au
_symmetry_space_group_name_H-M   'P 1'
_cell_length_a   4.97268859
_cell_length_b   4.97268859
_cell_length_c   4.97268859
_cell_angle_alpha   60.00000000
_cell_angle_beta   60.00000000
_cell_angle_gamma   60.00000000
_symmetry_Int_Tables_number   1
_chemical_formula_structural   HoCu4Au
_chemical_formula_sum   'Ho1 Cu4 Au1'
_cell_volume   86.94783840
_cell_formula_units_Z   1
loop_
 _symmetry_equiv_pos_site_id
 _symmetry_equiv_pos_as_xyz
  1  'x, y, z'
loop_
 _atom_site_type_symbol
 _atom_site_label
 _atom_site_symmetry_multiplicity
 _atom_site_fract_x
 _atom_site_fract_y
 _atom_site_fract_z
 _atom_site_occupancy
  Ho  Ho0  1  0.75000000  0.75000000  0.75000000  1
  Cu  Cu0  1  0.37421529  0.37421529  0.37421529  1
  Cu  Cu1  1  0.87735713  0.37421529  0.37421529  1
  Cu  Cu2  1  0.37421529  0.87735713  0.37421529  1
  Cu  Cu3  1  0.37421529  0.37421529  0.87735713  1
  Au  Au0  1  -0.00000000  0.00000000  0.00000000  1
loop_
_geom_bond_atom_site_label_1
_geom_bond_atom_site_label_2
_geom_bond_distance
_geom_bond_site_symmetry_2
Cu0 Cu1 2.470721 1_455
Cu0 Cu2 2.470721 1_545
Cu0 Cu3 2.470721 1_554
Cu0 Cu3 2.501968 1_555
Cu0 Cu1 2.501968 1_555
Cu0 Cu2 2.501968 1_555
Cu0 Ho0 2.917176 1_545
Cu0 Ho0 2.917176 1_554
Cu0 Ho0 2.917176 1_455
Cu1 Cu2 2.470721 1_645
Cu1 Cu3 2.470721 1_654
Cu1 Cu3 2.501968 1_555
Cu1 Cu2 2.501968 1_555
Cu1 Ho0 2.917170 1_555
Cu1 Ho0 2.917183 1_545
Cu1 Ho0 2.917183 1_554
Cu2 Cu3 2.470721 1_564
Cu2 Cu3 2.501968 1_555
Cu2 Ho0 2.917170 1_555
Cu2 Ho0 2.917183 1_554
Cu2 Ho0 2.917183 1_455
Cu3 Ho0 2.917170 1_555
Cu3 Ho0 2.917183 1_545
Cu3 Ho0 2.917183 1_455
Au0 Cu1 2.913842 1_445
Au0 Cu2 2.913842 1_544
Au0 Cu2 2.913842 1_445
Au0 Cu3 2.913842 1_454
Au0 Cu3 2.913842 1_544
Au0 Cu1 2.913842 1_454
Au0 Cu0 2.913848 1_554
Au0 Cu0 2.913848 1_545
Au0 Cu0 2.913848 1_455
Au0 Cu1 2.913855 1_455
Au0 Cu2 2.913855 1_545
Au0 Cu3 2.913855 1_554
Au0 Ho0 3.045137 1_444
Au0 Ho0 3.045137 1_454
Au0 Ho0 3.045137 1_544
Au0 Ho0 3.045137 1_445
