# generated using pymatgen
data_KLaTi4O12
_symmetry_space_group_name_H-M   'P 1'
_cell_length_a   5.50150492
_cell_length_b   5.50150492
_cell_length_c   7.87581330
_cell_angle_alpha   90.00000000
_cell_angle_beta   90.00000000
_cell_angle_gamma   90.07048197
_symmetry_Int_Tables_number   1
_chemical_formula_structural   KLaTi4O12
_chemical_formula_sum   'K1 La1 Ti4 O12'
_cell_volume   238.37356698
_cell_formula_units_Z   1
loop_
 _symmetry_equiv_pos_site_id
 _symmetry_equiv_pos_as_xyz
  1  'x, y, z'
loop_
 _atom_site_type_symbol
 _atom_site_label
 _atom_site_symmetry_multiplicity
 _atom_site_fract_x
 _atom_site_fract_y
 _atom_site_fract_z
 _atom_site_occupancy
  K  K0  1  0.00108709  0.99891291  0.50000000  1
  La  La0  1  0.49930846  0.50069154  -0.00000000  1
  Ti  Ti0  1  0.49966657  0.00132907  0.26026588  1
  Ti  Ti1  1  0.49966657  0.00132907  0.73973412  1
  Ti  Ti2  1  0.99867093  0.50033343  0.73973412  1
  Ti  Ti3  1  0.99867093  0.50033343  0.26026588  1
  O  O0  1  0.26052822  0.26033316  0.23455333  1
  O  O1  1  0.73966684  0.73947178  0.23455333  1
  O  O2  1  0.73966684  0.73947178  0.76544667  1
  O  O3  1  0.26052822  0.26033316  0.76544667  1
  O  O4  1  0.25570113  0.74429887  0.22803848  1
  O  O5  1  0.74681198  0.25318802  0.24078354  1
  O  O6  1  0.74681198  0.25318802  0.75921646  1
  O  O7  1  0.25570113  0.74429887  0.77196152  1
  O  O8  1  0.50594140  0.01156078  -0.00000000  1
  O  O9  1  0.49524420  0.99501172  0.50000000  1
  O  O10  1  0.98843922  0.49405860  -0.00000000  1
  O  O11  1  0.00498828  0.50475580  0.50000000  1
loop_
_geom_bond_atom_site_label_1
_geom_bond_atom_site_label_2
_geom_bond_distance
_geom_bond_site_symmetry_2
K0 O9 2.718719 1_555
K0 O11 2.718719 1_555
K0 O11 2.782954 1_565
K0 O9 2.782954 1_455
K0 O6 2.843681 1_465
K0 O5 2.843681 1_465
K0 O3 2.910543 1_565
K0 O0 2.910543 1_565
K0 O1 2.910543 1_455
K0 O2 2.910543 1_455
K0 O7 2.918373 1_555
K0 O4 2.918373 1_555
La0 O4 2.611954 1_555
La0 O7 2.611954 1_554
La0 O3 2.623448 1_554
La0 O1 2.623448 1_555
La0 O0 2.623448 1_555
La0 O2 2.623448 1_554
La0 O10 2.691248 1_555
La0 O8 2.691248 1_555
La0 O5 2.703498 1_555
La0 O6 2.703498 1_554
La0 O8 2.810742 1_565
La0 O10 2.810742 1_455
O0 Ti0 1.951116 1_555
O0 Ti3 1.965808 1_455
O1 Ti3 1.951116 1_555
O1 Ti0 1.965808 1_565
O2 Ti2 1.951116 1_555
O2 Ti1 1.965808 1_565
O3 Ti1 1.951116 1_555
O3 Ti2 1.965808 1_455
O4 Ti0 1.964876 1_565
O4 Ti3 1.964876 1_455
O5 Ti3 1.946153 1_555
O5 Ti0 1.946153 1_555
O6 Ti2 1.946153 1_555
O6 Ti1 1.946153 1_555
O7 Ti1 1.964876 1_565
O7 Ti2 1.964876 1_455
O8 Ti1 2.050868 1_554
O8 Ti0 2.050868 1_555
O9 Ti0 1.888577 1_565
O9 Ti1 1.888577 1_565
O10 Ti2 2.050868 1_554
O10 Ti3 2.050868 1_555
O11 Ti3 1.888577 1_455
O11 Ti2 1.888577 1_455
