# generated using pymatgen
data_NaFe12O19
_symmetry_space_group_name_H-M   'P 1'
_cell_length_a   5.98736235
_cell_length_b   5.98736235
_cell_length_c   23.23867900
_cell_angle_alpha   90.00000000
_cell_angle_beta   90.00000000
_cell_angle_gamma   120.00000389
_symmetry_Int_Tables_number   1
_chemical_formula_structural   NaFe12O19
_chemical_formula_sum   'Na2 Fe24 O38'
_cell_volume   721.46145962
_cell_formula_units_Z   2
loop_
 _symmetry_equiv_pos_site_id
 _symmetry_equiv_pos_as_xyz
  1  'x, y, z'
loop_
 _atom_site_type_symbol
 _atom_site_label
 _atom_site_symmetry_multiplicity
 _atom_site_fract_x
 _atom_site_fract_y
 _atom_site_fract_z
 _atom_site_occupancy
  Na  Na0  1  0.33333300  0.66666700  0.75000000  1
  Na  Na1  1  0.66666700  0.33333300  0.25000000  1
  Fe  Fe0  1  0.16847700  0.83152300  0.89008400  1
  Fe  Fe1  1  0.16847700  0.83152300  0.60991600  1
  Fe  Fe2  1  0.33333300  0.66666700  0.19113100  1
  Fe  Fe3  1  0.33333300  0.66666700  0.02837300  1
  Fe  Fe4  1  0.33333300  0.66666700  0.30886900  1
  Fe  Fe5  1  0.00000000  0.00000000  0.00000000  1
  Fe  Fe6  1  0.00000000  0.00000000  0.25000000  1
  Fe  Fe7  1  0.00000000  0.00000000  0.50000000  1
  Fe  Fe8  1  0.16847700  0.33695300  0.60991600  1
  Fe  Fe9  1  0.33333300  0.66666700  0.47162700  1
  Fe  Fe10  1  0.00000000  0.00000000  0.75000000  1
  Fe  Fe11  1  0.16847700  0.33695300  0.89008400  1
  Fe  Fe12  1  0.66304700  0.83152300  0.89008400  1
  Fe  Fe13  1  0.66304700  0.83152300  0.60991600  1
  Fe  Fe14  1  0.33695300  0.16847700  0.10991600  1
  Fe  Fe15  1  0.33695300  0.16847700  0.39008400  1
  Fe  Fe16  1  0.83152300  0.66304700  0.10991600  1
  Fe  Fe17  1  0.66666700  0.33333300  0.69113100  1
  Fe  Fe18  1  0.66666700  0.33333300  0.80886900  1
  Fe  Fe19  1  0.83152300  0.66304700  0.39008400  1
  Fe  Fe20  1  0.66666700  0.33333300  0.97162700  1
  Fe  Fe21  1  0.66666700  0.33333300  0.52837300  1
  Fe  Fe22  1  0.83152300  0.16847700  0.10991600  1
  Fe  Fe23  1  0.83152300  0.16847700  0.39008400  1
  O  O0  1  0.15480800  0.84519200  0.05306300  1
  O  O1  1  0.15480800  0.84519200  0.44693700  1
  O  O2  1  0.99475400  0.49737700  0.35019500  1
  O  O3  1  0.00524600  0.50262300  0.85019500  1
  O  O4  1  0.99475400  0.49737700  0.14980500  1
  O  O5  1  0.00524600  0.50262300  0.64980500  1
  O  O6  1  0.18262700  0.81737300  0.25000000  1
  O  O7  1  0.33333300  0.66666700  0.94457700  1
  O  O8  1  0.33333300  0.66666700  0.55542300  1
  O  O9  1  0.00000000  0.00000000  0.15311000  1
  O  O10  1  0.15480800  0.30961500  0.05306300  1
  O  O11  1  0.00000000  0.00000000  0.34689000  1
  O  O12  1  0.00000000  0.00000000  0.65311000  1
  O  O13  1  0.18262700  0.36525500  0.25000000  1
  O  O14  1  0.00000000  0.00000000  0.84689000  1
  O  O15  1  0.15480800  0.30961500  0.44693700  1
  O  O16  1  0.63474500  0.81737300  0.25000000  1
  O  O17  1  0.30961500  0.15480800  0.55306300  1
  O  O18  1  0.30961500  0.15480800  0.94693700  1
  O  O19  1  0.50262300  0.49737700  0.35019500  1
  O  O20  1  0.50262300  0.49737700  0.14980500  1
  O  O21  1  0.49737700  0.50262300  0.85019500  1
  O  O22  1  0.49737700  0.50262300  0.64980500  1
  O  O23  1  0.69038500  0.84519200  0.44693700  1
  O  O24  1  0.69038500  0.84519200  0.05306300  1
  O  O25  1  0.36525500  0.18262700  0.75000000  1
  O  O26  1  0.50262300  0.00524600  0.14980500  1
  O  O27  1  0.50262300  0.00524600  0.35019500  1
  O  O28  1  0.49737700  0.99475400  0.64980500  1
  O  O29  1  0.84519200  0.69038500  0.94693700  1
  O  O30  1  0.49737700  0.99475400  0.85019500  1
  O  O31  1  0.66666700  0.33333300  0.44457700  1
  O  O32  1  0.66666700  0.33333300  0.05542300  1
  O  O33  1  0.84519200  0.69038500  0.55306300  1
  O  O34  1  0.81737300  0.63474500  0.75000000  1
  O  O35  1  0.81737300  0.18262700  0.75000000  1
  O  O36  1  0.84519200  0.15480800  0.55306300  1
  O  O37  1  0.84519200  0.15480800  0.94693700  1
loop_
_geom_bond_atom_site_label_1
_geom_bond_atom_site_label_2
_geom_bond_distance
_geom_bond_site_symmetry_2
Na0 O30 2.883665 1_555
Na0 O3 2.883665 1_555
Na0 O28 2.883665 1_555
Na0 O5 2.883665 1_555
Na0 O21 2.883668 1_555
Na0 O22 2.883668 1_555
Na0 O25 2.998248 1_565
Na0 O34 2.998248 1_455
Na0 O35 2.998253 1_565
Na0 O35 2.998253 1_455
Na0 O34 2.998260 1_555
Na0 O25 2.998260 1_555
Na1 O2 2.883665 1_555
Na1 O4 2.883665 1_555
Na1 O27 2.883665 1_555
Na1 O26 2.883665 1_555
Na1 O19 2.883668 1_555
Na1 O20 2.883668 1_555
Na1 O13 2.998248 1_655
Na1 O16 2.998248 1_545
Na1 O6 2.998253 1_655
Na1 O6 2.998253 1_545
Na1 O16 2.998260 1_555
Na1 O13 2.998260 1_555
Fe0 O30 1.941072 1_555
Fe0 O3 1.941072 1_555
Fe0 O14 2.014990 1_565
Fe0 O7 2.127545 1_555
Fe0 O18 2.137894 1_565
Fe0 O29 2.137894 1_455
Fe1 O28 1.941072 1_555
Fe1 O5 1.941072 1_555
Fe1 O12 2.014990 1_565
Fe1 O8 2.127545 1_555
Fe1 O17 2.137894 1_565
Fe1 O33 2.137894 1_455
Fe2 O26 2.001108 1_565
Fe2 O4 2.001108 1_455
Fe2 O20 2.001113 1_555
Fe2 O13 2.077049 1_555
Fe2 O16 2.077049 1_555
Fe2 O6 2.077049 1_555
Fe3 O0 1.938248 1_555
Fe3 O24 1.938258 1_555
Fe3 O10 1.938258 1_555
Fe3 O7 1.947308 1_554
Fe4 O27 2.001108 1_565
Fe4 O2 2.001108 1_455
Fe4 O19 2.001113 1_555
Fe4 O13 2.077049 1_555
Fe4 O16 2.077049 1_555
Fe4 O6 2.077049 1_555
Fe5 O10 2.024336 1_555
Fe5 O24 2.024336 1_445
Fe5 O18 2.024336 1_554
Fe5 O29 2.024336 1_444
Fe5 O0 2.024340 1_545
Fe5 O37 2.024340 1_454
Fe6 O6 1.893918 1_545
Fe6 O13 1.893923 1_555
Fe6 O16 1.893923 1_445
Fe6 O9 2.251596 1_555
Fe6 O11 2.251596 1_555
Fe7 O17 2.024336 1_555
Fe7 O15 2.024336 1_555
Fe7 O33 2.024336 1_445
Fe7 O23 2.024336 1_445
Fe7 O36 2.024340 1_455
Fe7 O1 2.024340 1_545
Fe8 O22 1.941072 1_555
Fe8 O5 1.941077 1_555
Fe8 O12 2.014985 1_555
Fe8 O8 2.127554 1_555
Fe8 O17 2.137886 1_555
Fe8 O36 2.137894 1_455
Fe9 O1 1.938248 1_555
Fe9 O23 1.938258 1_555
Fe9 O15 1.938258 1_555
Fe9 O8 1.947308 1_555
Fe10 O35 1.893918 1_455
Fe10 O34 1.893923 1_445
Fe10 O25 1.893923 1_555
Fe10 O12 2.251596 1_555
Fe10 O14 2.251596 1_555
Fe11 O21 1.941072 1_555
Fe11 O3 1.941077 1_555
Fe11 O14 2.014985 1_555
Fe11 O7 2.127554 1_555
Fe11 O18 2.137886 1_555
Fe11 O37 2.137894 1_455
Fe12 O21 1.941072 1_555
Fe12 O30 1.941077 1_555
Fe12 O14 2.014985 1_665
Fe12 O7 2.127554 1_555
Fe12 O29 2.137886 1_555
Fe12 O37 2.137894 1_565
Fe13 O22 1.941072 1_555
Fe13 O28 1.941077 1_555
Fe13 O12 2.014985 1_665
Fe13 O8 2.127554 1_555
Fe13 O33 2.137886 1_555
Fe13 O36 2.137894 1_565
Fe14 O20 1.941072 1_555
Fe14 O26 1.941077 1_555
Fe14 O9 2.014985 1_555
Fe14 O32 2.127554 1_555
Fe14 O10 2.137886 1_555
Fe14 O0 2.137894 1_545
Fe15 O19 1.941072 1_555
Fe15 O27 1.941077 1_555
Fe15 O11 2.014985 1_555
Fe15 O31 2.127554 1_555
Fe15 O15 2.137886 1_555
Fe15 O1 2.137894 1_545
Fe16 O20 1.941072 1_555
Fe16 O4 1.941077 1_555
Fe16 O9 2.014985 1_665
Fe16 O32 2.127554 1_555
Fe16 O24 2.137886 1_555
Fe16 O0 2.137894 1_655
Fe17 O5 2.001108 1_655
Fe17 O28 2.001108 1_545
Fe17 O22 2.001113 1_555
Fe17 O25 2.077049 1_555
Fe17 O34 2.077049 1_555
Fe17 O35 2.077049 1_555
Fe18 O3 2.001108 1_655
Fe18 O30 2.001108 1_545
Fe18 O21 2.001113 1_555
Fe18 O25 2.077049 1_555
Fe18 O34 2.077049 1_555
Fe18 O35 2.077049 1_555
Fe19 O19 1.941072 1_555
Fe19 O2 1.941077 1_555
Fe19 O11 2.014985 1_665
Fe19 O31 2.127554 1_555
Fe19 O23 2.137886 1_555
Fe19 O1 2.137894 1_655
Fe20 O37 1.938248 1_555
Fe20 O29 1.938258 1_555
Fe20 O18 1.938258 1_555
Fe20 O32 1.947308 1_556
Fe21 O36 1.938248 1_555
Fe21 O33 1.938258 1_555
Fe21 O17 1.938258 1_555
Fe21 O31 1.947308 1_555
Fe22 O4 1.941072 1_555
Fe22 O26 1.941072 1_555
Fe22 O9 2.014990 1_655
Fe22 O32 2.127545 1_555
Fe22 O10 2.137894 1_655
Fe22 O24 2.137894 1_545
Fe23 O2 1.941072 1_555
Fe23 O27 1.941072 1_555
Fe23 O11 2.014990 1_655
Fe23 O31 2.127545 1_555
Fe23 O15 2.137894 1_655
Fe23 O23 2.137894 1_545
