# generated using pymatgen
data_Lu5Ge4
_symmetry_space_group_name_H-M   'P 1'
_cell_length_a   7.36423847
_cell_length_b   7.46203221
_cell_length_c   14.16995855
_cell_angle_alpha   90.00000000
_cell_angle_beta   90.00000000
_cell_angle_gamma   90.00000000
_symmetry_Int_Tables_number   1
_chemical_formula_structural   Lu5Ge4
_chemical_formula_sum   'Lu20 Ge16'
_cell_volume   778.67017894
_cell_formula_units_Z   4
loop_
 _symmetry_equiv_pos_site_id
 _symmetry_equiv_pos_as_xyz
  1  'x, y, z'
loop_
 _atom_site_type_symbol
 _atom_site_label
 _atom_site_symmetry_multiplicity
 _atom_site_fract_x
 _atom_site_fract_y
 _atom_site_fract_z
 _atom_site_occupancy
  Lu  Lu0  1  0.37391294  0.83900417  0.88116121  1
  Lu  Lu1  1  0.87391294  0.66099583  0.61883879  1
  Lu  Lu2  1  0.62608706  0.16099583  0.38116121  1
  Lu  Lu3  1  0.12608706  0.33900417  0.11883879  1
  Lu  Lu4  1  0.62608706  0.16099583  0.11883879  1
  Lu  Lu5  1  0.12608706  0.33900417  0.38116121  1
  Lu  Lu6  1  0.37391294  0.83900417  0.61883879  1
  Lu  Lu7  1  0.87391294  0.66099583  0.88116121  1
  Lu  Lu8  1  0.52581669  0.32338754  0.89996189  1
  Lu  Lu9  1  0.02581669  0.17661246  0.60003811  1
  Lu  Lu10  1  0.47418331  0.67661246  0.39996189  1
  Lu  Lu11  1  0.97418331  0.82338754  0.10003811  1
  Lu  Lu12  1  0.47418331  0.67661246  0.10003811  1
  Lu  Lu13  1  0.97418331  0.82338754  0.39996189  1
  Lu  Lu14  1  0.52581669  0.32338754  0.60003811  1
  Lu  Lu15  1  0.02581669  0.17661246  0.89996189  1
  Lu  Lu16  1  0.20922735  0.50149712  0.75000000  1
  Lu  Lu17  1  0.70922735  0.99850288  0.75000000  1
  Lu  Lu18  1  0.79077265  0.49850288  0.25000000  1
  Lu  Lu19  1  0.29077265  0.00149712  0.25000000  1
  Ge  Ge0  1  0.28474311  0.03455259  0.04321312  1
  Ge  Ge1  1  0.78474311  0.46544741  0.45678688  1
  Ge  Ge2  1  0.71525689  0.96544741  0.54321312  1
  Ge  Ge3  1  0.21525689  0.53455259  0.95678688  1
  Ge  Ge4  1  0.71525689  0.96544741  0.95678688  1
  Ge  Ge5  1  0.21525689  0.53455259  0.54321312  1
  Ge  Ge6  1  0.28474311  0.03455259  0.45678688  1
  Ge  Ge7  1  0.78474311  0.46544741  0.04321312  1
  Ge  Ge8  1  0.57470621  0.61956238  0.75000000  1
  Ge  Ge9  1  0.07470621  0.88043762  0.75000000  1
  Ge  Ge10  1  0.42529379  0.38043762  0.25000000  1
  Ge  Ge11  1  0.92529379  0.11956238  0.25000000  1
  Ge  Ge12  1  0.33349769  0.14185983  0.75000000  1
  Ge  Ge13  1  0.83349769  0.35814017  0.75000000  1
  Ge  Ge14  1  0.66650231  0.85814017  0.25000000  1
  Ge  Ge15  1  0.16650231  0.64185983  0.25000000  1
loop_
_geom_bond_atom_site_label_1
_geom_bond_atom_site_label_2
_geom_bond_distance
_geom_bond_site_symmetry_2
Ge0 Lu3 2.770319 1_555
Ge0 Lu0 2.798802 1_544
Ge0 Lu4 2.890929 1_555
Ge0 Lu11 2.891676 1_445
Ge0 Lu19 2.940860 1_555
Ge0 Lu15 2.979922 1_554
Ge0 Lu12 3.119078 1_545
Ge0 Lu8 3.452162 1_554
Ge1 Lu2 2.770319 1_555
Ge1 Lu1 2.798802 1_555
Ge1 Lu5 2.890929 1_655
Ge1 Lu10 2.891676 1_555
Ge1 Lu18 2.940860 1_555
Ge1 Lu14 2.979922 1_555
Ge1 Lu13 3.119078 1_555
Ge1 Lu9 3.452162 1_655
Ge2 Lu1 2.770319 1_555
Ge2 Lu2 2.798802 1_565
Ge2 Lu6 2.890929 1_555
Ge2 Lu9 2.891676 1_665
Ge2 Lu17 2.940860 1_555
Ge2 Lu13 2.979922 1_555
Ge2 Lu14 3.119078 1_565
Ge2 Lu10 3.452162 1_555
Ge3 Lu0 2.770319 1_555
Ge3 Lu3 2.798802 1_556
Ge3 Lu7 2.890929 1_455
Ge3 Lu8 2.891676 1_555
Ge3 Lu16 2.940860 1_555
Ge3 Lu12 2.979922 1_556
Ge3 Lu15 3.119078 1_555
Ge3 Lu11 3.452162 1_456
Ge4 Lu7 2.770319 1_555
Ge4 Lu4 2.798802 1_566
Ge4 Lu0 2.890929 1_555
Ge4 Lu15 2.891676 1_665
Ge4 Lu17 2.940860 1_555
Ge4 Lu11 2.979922 1_556
Ge4 Lu8 3.119078 1_565
Ge4 Lu12 3.452162 1_556
Ge5 Lu6 2.770319 1_555
Ge5 Lu5 2.798802 1_555
Ge5 Lu1 2.890929 1_455
Ge5 Lu14 2.891676 1_555
Ge5 Lu16 2.940860 1_555
Ge5 Lu10 2.979922 1_555
Ge5 Lu9 3.119078 1_555
Ge5 Lu13 3.452162 1_455
Ge6 Lu5 2.770319 1_555
Ge6 Lu6 2.798802 1_545
Ge6 Lu2 2.890929 1_555
Ge6 Lu13 2.891676 1_445
Ge6 Lu19 2.940860 1_555
Ge6 Lu9 2.979922 1_555
Ge6 Lu10 3.119078 1_545
Ge6 Lu14 3.452162 1_555
Ge7 Lu4 2.770319 1_555
Ge7 Lu7 2.798802 1_554
Ge7 Lu3 2.890929 1_655
Ge7 Lu12 2.891676 1_555
Ge7 Lu18 2.940860 1_555
Ge7 Lu8 2.979922 1_554
Ge7 Lu11 3.119078 1_555
Ge7 Lu15 3.452162 1_654
Ge8 Lu16 2.831996 1_555
Ge8 Lu0 2.884800 1_555
Ge8 Lu6 2.884800 1_555
Ge8 Lu7 2.899120 1_555
Ge8 Lu1 2.899120 1_555
Ge8 Lu17 2.996177 1_555
Ge8 Lu14 3.086980 1_555
Ge8 Lu8 3.086980 1_555
Ge9 Lu17 2.831996 1_455
Ge9 Lu7 2.884800 1_455
Ge9 Lu1 2.884800 1_455
Ge9 Lu0 2.899120 1_555
Ge9 Lu6 2.899120 1_555
Ge9 Lu16 2.996177 1_555
Ge9 Lu15 3.086980 1_565
Ge9 Lu9 3.086980 1_565
Ge10 Ge15 2.727173 1_555
Ge10 Lu18 2.831996 1_555
Ge10 Lu2 2.884800 1_555
Ge10 Lu4 2.884800 1_555
Ge10 Lu5 2.899120 1_555
Ge10 Lu3 2.899120 1_555
Ge10 Lu19 2.996177 1_555
Ge10 Lu12 3.086980 1_555
Ge10 Lu10 3.086980 1_555
Ge11 Ge14 2.727173 1_545
Ge11 Lu19 2.831996 1_655
Ge11 Lu3 2.884800 1_655
Ge11 Lu5 2.884800 1_655
Ge11 Lu2 2.899120 1_555
Ge11 Lu4 2.899120 1_555
Ge11 Lu18 2.996177 1_555
Ge11 Lu13 3.086980 1_545
Ge11 Lu11 3.086980 1_545
Ge12 Ge9 2.727173 1_545
Ge12 Lu16 2.835376 1_555
Ge12 Lu14 2.890698 1_555
Ge12 Lu8 2.890698 1_555
Ge12 Lu0 2.941091 1_545
Ge12 Lu6 2.941091 1_545
Ge12 Lu17 2.966549 1_545
Ge12 Lu15 3.117161 1_555
Ge12 Lu9 3.117161 1_555
Ge13 Ge8 2.727173 1_555
Ge13 Lu17 2.835376 1_545
Ge13 Lu15 2.890698 1_655
Ge13 Lu9 2.890698 1_655
Ge13 Lu7 2.941091 1_555
Ge13 Lu1 2.941091 1_555
Ge13 Lu16 2.966549 1_655
Ge13 Lu14 3.117161 1_555
Ge13 Lu8 3.117161 1_555
Ge14 Lu18 2.835376 1_555
Ge14 Lu12 2.890698 1_555
Ge14 Lu10 2.890698 1_555
Ge14 Lu2 2.941091 1_565
Ge14 Lu4 2.941091 1_565
Ge14 Lu19 2.966549 1_565
Ge14 Lu11 3.117161 1_555
Ge14 Lu13 3.117161 1_555
Ge15 Lu19 2.835376 1_565
Ge15 Lu11 2.890698 1_455
Ge15 Lu13 2.890698 1_455
Ge15 Lu5 2.941091 1_555
Ge15 Lu3 2.941091 1_555
Ge15 Lu18 2.966549 1_455
Ge15 Lu12 3.117161 1_555
Ge15 Lu10 3.117161 1_555
