# generated using pymatgen
data_LiLa2(AsO4)2
_symmetry_space_group_name_H-M   'P 1'
_cell_length_a   6.30947886
_cell_length_b   6.30947886
_cell_length_c   6.25295466
_cell_angle_alpha   105.49310608
_cell_angle_beta   105.49310608
_cell_angle_gamma   115.95488365
_symmetry_Int_Tables_number   1
_chemical_formula_structural   LiLa2(AsO4)2
_chemical_formula_sum   'Li1 La2 As2 O8'
_cell_volume   193.34504537
_cell_formula_units_Z   1
loop_
 _symmetry_equiv_pos_site_id
 _symmetry_equiv_pos_as_xyz
  1  'x, y, z'
loop_
 _atom_site_type_symbol
 _atom_site_label
 _atom_site_symmetry_multiplicity
 _atom_site_fract_x
 _atom_site_fract_y
 _atom_site_fract_z
 _atom_site_occupancy
  Li  Li0  1  0.02274300  0.97725700  0.50000000  1
  La  La0  1  0.99870900  0.00129100  0.00000000  1
  La  La1  1  0.73502900  0.26497100  0.50000000  1
  As  As0  1  0.48304500  0.51695500  0.00000000  1
  As  As1  1  0.26254200  0.73745800  0.50000000  1
  O  O0  1  0.49391600  0.32946200  0.16785300  1
  O  O1  1  0.72647300  0.88979000  0.22594400  1
  O  O2  1  0.09213800  0.40596400  0.32358700  1
  O  O3  1  0.67053800  0.50608400  0.83214700  1
  O  O4  1  0.59403600  0.90786200  0.67641300  1
  O  O5  1  0.24158200  0.92054400  0.33837600  1
  O  O6  1  0.11021000  0.27352700  0.77405600  1
  O  O7  1  0.07945600  0.75841800  0.66162400  1
loop_
_geom_bond_atom_site_label_1
_geom_bond_atom_site_label_2
_geom_bond_distance
_geom_bond_site_symmetry_2
Li0 O1 1.901547 1_455
Li0 O6 1.901547 1_565
Li0 O7 2.010147 1_555
Li0 O5 2.010147 1_555
La0 O1 2.492209 1_545
La0 O6 2.492209 1_654
La0 O4 2.499205 1_544
La0 O2 2.499205 1_655
La0 O3 2.564258 1_544
La0 O0 2.564258 1_655
La0 O7 2.571326 1_644
La0 O5 2.571326 1_645
La1 O0 2.469570 1_555
La1 O3 2.469570 1_555
La1 O6 2.492926 1_655
La1 O1 2.492926 1_545
La1 O5 2.580795 1_545
La1 O7 2.580795 1_655
La1 O2 2.680037 1_655
La1 O4 2.680037 1_545
As0 O3 1.789320 1_554
As0 O0 1.789320 1_555
As0 O1 1.947142 1_555
As0 O6 1.947142 1_554
As1 O2 1.706686 1_555
As1 O4 1.706686 1_555
As1 O7 1.749090 1_555
As1 O5 1.749090 1_555
