# generated using pymatgen
data_Bi3(PO5)2
_symmetry_space_group_name_H-M   'P 1'
_cell_length_a   6.94047700
_cell_length_b   7.77299531
_cell_length_c   9.32508654
_cell_angle_alpha   106.73222777
_cell_angle_beta   92.46844683
_cell_angle_gamma   112.68582753
_symmetry_Int_Tables_number   1
_chemical_formula_structural   Bi3(PO5)2
_chemical_formula_sum   'Bi6 P4 O20'
_cell_volume   437.68673676
_cell_formula_units_Z   2
loop_
 _symmetry_equiv_pos_site_id
 _symmetry_equiv_pos_as_xyz
  1  'x, y, z'
loop_
 _atom_site_type_symbol
 _atom_site_label
 _atom_site_symmetry_multiplicity
 _atom_site_fract_x
 _atom_site_fract_y
 _atom_site_fract_z
 _atom_site_occupancy
  Bi  Bi0  1  0.81652500  0.80202100  0.32130100  1
  Bi  Bi1  1  0.33744700  0.63280400  0.50977900  1
  Bi  Bi2  1  0.43991700  0.29704600  0.08253100  1
  Bi  Bi3  1  0.56008300  0.70295400  0.91746900  1
  Bi  Bi4  1  0.66255300  0.36719600  0.49022100  1
  Bi  Bi5  1  0.18347500  0.19797900  0.67869900  1
  P  P0  1  0.34627400  0.89121200  0.25251500  1
  P  P1  1  0.65372600  0.10878800  0.74748500  1
  P  P2  1  0.95536300  0.23418800  0.23950700  1
  P  P3  1  0.04463700  0.76581200  0.76049300  1
  O  O0  1  0.43771500  0.46771300  0.63208200  1
  O  O1  1  0.13920100  0.99595000  0.82904200  1
  O  O2  1  0.36399300  0.83036500  0.08337400  1
  O  O3  1  0.22260700  0.69026500  0.76224600  1
  O  O4  1  0.51929400  0.87470300  0.35437600  1
  O  O5  1  0.87323900  0.67139100  0.84821500  1
  O  O6  1  0.48070600  0.12529700  0.64562400  1
  O  O7  1  0.04859000  0.29942200  0.41291400  1
  O  O8  1  0.62838000  0.88895000  0.69340400  1
  O  O9  1  0.86079900  0.00405000  0.17095800  1
  O  O10  1  0.77739300  0.30973500  0.23775400  1
  O  O11  1  0.95141000  0.70057800  0.58708600  1
  O  O12  1  0.56228500  0.53228700  0.36791800  1
  O  O13  1  0.87057400  0.24094200  0.71757400  1
  O  O14  1  0.34059600  0.39799800  0.89677100  1
  O  O15  1  0.63600700  0.16963500  0.91662600  1
  O  O16  1  0.65940400  0.60200200  0.10322900  1
  O  O17  1  0.12676100  0.32860900  0.15178500  1
  O  O18  1  0.37162000  0.11105000  0.30659600  1
  O  O19  1  0.12942600  0.75905800  0.28242600  1
loop_
_geom_bond_atom_site_label_1
_geom_bond_atom_site_label_2
_geom_bond_distance
_geom_bond_site_symmetry_2
Bi0 O16 2.102957 1_555
Bi0 O12 2.331447 1_555
Bi0 O9 2.336354 1_565
Bi0 O19 2.348758 1_655
Bi0 O4 2.350197 1_555
Bi1 O0 2.212443 1_555
Bi1 O12 2.306228 1_555
Bi1 O8 2.368855 1_555
Bi1 O7 2.457490 1_555
Bi1 O3 2.491617 1_555
Bi1 O4 2.669149 1_555
Bi2 O16 2.214187 1_555
Bi2 O14 2.277851 1_554
Bi2 O15 2.359087 1_554
Bi2 O17 2.375317 1_555
Bi2 O12 2.636778 1_555
Bi2 O10 2.653029 1_555
Bi2 O18 2.824293 1_555
Bi2 O1 2.835995 1_544
Bi3 O14 2.214187 1_555
Bi3 O16 2.277851 1_556
Bi3 O2 2.359087 1_556
Bi3 O5 2.375317 1_555
Bi3 O0 2.636778 1_555
Bi3 O3 2.653029 1_555
Bi3 O8 2.824293 1_555
Bi3 O9 2.835995 1_566
Bi4 O12 2.212443 1_555
Bi4 O0 2.306228 1_555
Bi4 O18 2.368855 1_555
Bi4 O11 2.457490 1_555
Bi4 O10 2.491617 1_555
Bi4 O6 2.669149 1_555
Bi5 O14 2.102957 1_555
Bi5 O0 2.331447 1_555
Bi5 O1 2.336354 1_545
Bi5 O13 2.348758 1_455
Bi5 O6 2.350197 1_555
O1 P3 1.561798 1_555
O2 P0 1.535769 1_555
O3 P3 1.560159 1_555
O4 P0 1.565734 1_555
O5 P3 1.542394 1_655
O6 P1 1.565734 1_555
O7 P2 1.573295 1_455
O8 P1 1.571482 1_565
O9 P2 1.561798 1_555
O10 P2 1.560159 1_555
O11 P3 1.573295 1_655
O13 P1 1.551362 1_555
O15 P1 1.535769 1_555
O17 P2 1.542394 1_455
O18 P0 1.571482 1_545
O19 P0 1.551362 1_555
