# generated using pymatgen
data_TmWClO4
_symmetry_space_group_name_H-M   'P 1'
_cell_length_a   6.05134112
_cell_length_b   6.56623310
_cell_length_c   6.97525252
_cell_angle_alpha   73.79802365
_cell_angle_beta   77.25119635
_cell_angle_gamma   70.73340289
_symmetry_Int_Tables_number   1
_chemical_formula_structural   TmWClO4
_chemical_formula_sum   'Tm2 W2 Cl2 O8'
_cell_volume   248.70310056
_cell_formula_units_Z   2
loop_
 _symmetry_equiv_pos_site_id
 _symmetry_equiv_pos_as_xyz
  1  'x, y, z'
loop_
 _atom_site_type_symbol
 _atom_site_label
 _atom_site_symmetry_multiplicity
 _atom_site_fract_x
 _atom_site_fract_y
 _atom_site_fract_z
 _atom_site_occupancy
  Tm  Tm0  1  0.23908600  0.20485400  0.86793600  1
  Tm  Tm1  1  0.76091400  0.79514600  0.13206400  1
  W  W0  1  0.37689100  0.35524800  0.26499200  1
  W  W1  1  0.62310900  0.64475200  0.73500800  1
  Cl  Cl0  1  0.00615200  0.02362700  0.22430800  1
  Cl  Cl1  1  0.99384800  0.97637300  0.77569200  1
  O  O0  1  0.34438700  0.25833400  0.53487500  1
  O  O1  1  0.65561300  0.74166600  0.46512500  1
  O  O2  1  0.42695800  0.47133300  0.80687000  1
  O  O3  1  0.57304200  0.52866700  0.19313000  1
  O  O4  1  0.90967800  0.48285500  0.81047000  1
  O  O5  1  0.09032200  0.51714500  0.18953000  1
  O  O6  1  0.47989000  0.12476200  0.13233300  1
  O  O7  1  0.52011000  0.87523800  0.86766700  1
loop_
_geom_bond_atom_site_label_1
_geom_bond_atom_site_label_2
_geom_bond_distance
_geom_bond_site_symmetry_2
Cl0 Tm1 2.701199 1_445
Cl0 Tm0 2.737116 1_554
Cl1 Tm0 2.701199 1_665
Cl1 Tm1 2.737116 1_556
O0 W0 1.799478 1_555
O0 Tm0 2.228359 1_555
O1 W1 1.799478 1_555
O1 Tm1 2.228359 1_555
O2 W1 1.807673 1_555
O2 Tm0 2.284452 1_555
O3 W0 1.807673 1_555
O3 Tm1 2.284452 1_555
O4 W1 1.813391 1_555
O4 Tm0 2.238157 1_655
O5 W0 1.813391 1_555
O5 Tm1 2.238157 1_455
O6 W0 1.854621 1_555
O6 Tm1 2.268968 1_545
O6 Tm0 2.437272 1_554
O7 W1 1.854621 1_555
O7 Tm0 2.268968 1_565
O7 Tm1 2.437272 1_556
