# generated using pymatgen
data_Bi6Mo2O15
_symmetry_space_group_name_H-M   'P 1'
_cell_length_a   5.74567800
_cell_length_b   8.78274100
_cell_length_c   29.43620678
_cell_angle_alpha   81.99488788
_cell_angle_beta   90.00000000
_cell_angle_gamma   90.00000000
_symmetry_Int_Tables_number   1
_chemical_formula_structural   Bi6Mo2O15
_chemical_formula_sum   'Bi24 Mo8 O60'
_cell_volume   1470.95887925
_cell_formula_units_Z   4
loop_
 _symmetry_equiv_pos_site_id
 _symmetry_equiv_pos_as_xyz
  1  'x, y, z'
loop_
 _atom_site_type_symbol
 _atom_site_label
 _atom_site_symmetry_multiplicity
 _atom_site_fract_x
 _atom_site_fract_y
 _atom_site_fract_z
 _atom_site_occupancy
  Bi  Bi0  1  0.27233000  0.42756600  0.60876800  1
  Bi  Bi1  1  0.77233000  0.57243400  0.89123200  1
  Bi  Bi2  1  0.72767000  0.57243400  0.39123200  1
  Bi  Bi3  1  0.22767000  0.42756600  0.10876800  1
  Bi  Bi4  1  0.24546700  0.76504200  0.66706600  1
  Bi  Bi5  1  0.74546700  0.23495800  0.83293400  1
  Bi  Bi6  1  0.75453300  0.23495800  0.33293400  1
  Bi  Bi7  1  0.25453300  0.76504200  0.16706600  1
  Bi  Bi8  1  0.24198200  0.18733200  0.74071800  1
  Bi  Bi9  1  0.74198200  0.81266800  0.75928200  1
  Bi  Bi10  1  0.75801800  0.81266800  0.25928200  1
  Bi  Bi11  1  0.25801800  0.18733200  0.24071800  1
  Bi  Bi12  1  0.18346400  0.53898300  0.79650100  1
  Bi  Bi13  1  0.68346400  0.46101700  0.70349900  1
  Bi  Bi14  1  0.81653600  0.46101700  0.20349900  1
  Bi  Bi15  1  0.31653600  0.53898300  0.29650100  1
  Bi  Bi16  1  0.27151200  0.29095200  0.92259900  1
  Bi  Bi17  1  0.77151200  0.70904800  0.57740100  1
  Bi  Bi18  1  0.72848800  0.70904800  0.07740100  1
  Bi  Bi19  1  0.22848800  0.29095200  0.42259900  1
  Bi  Bi20  1  0.24812200  0.63459100  0.98565800  1
  Bi  Bi21  1  0.74812200  0.36540900  0.51434200  1
  Bi  Bi22  1  0.75187800  0.36540900  0.01434200  1
  Bi  Bi23  1  0.25187800  0.63459100  0.48565800  1
  Mo  Mo0  1  0.26059700  0.03645900  0.54918800  1
  Mo  Mo1  1  0.76059700  0.96354100  0.95081200  1
  Mo  Mo2  1  0.73940300  0.96354100  0.45081200  1
  Mo  Mo3  1  0.23940300  0.03645900  0.04918800  1
  Mo  Mo4  1  0.22266900  0.91304400  0.85347300  1
  Mo  Mo5  1  0.72266900  0.08695600  0.64652700  1
  Mo  Mo6  1  0.77733100  0.08695600  0.14652700  1
  Mo  Mo7  1  0.27733100  0.91304400  0.35347300  1
  O  O0  1  0.51150000  0.65657200  0.72741000  1
  O  O1  1  0.01150000  0.34342800  0.77259000  1
  O  O2  1  0.48850000  0.34342800  0.27259000  1
  O  O3  1  0.98850000  0.65657200  0.22741000  1
  O  O4  1  0.03116000  0.69408200  0.72905300  1
  O  O5  1  0.53116000  0.30591800  0.77094700  1
  O  O6  1  0.96884000  0.30591800  0.27094700  1
  O  O7  1  0.46884000  0.69408200  0.22905300  1
  O  O8  1  0.52204600  0.59414200  0.63469000  1
  O  O9  1  0.02204600  0.40585800  0.86531000  1
  O  O10  1  0.47795400  0.40585800  0.36531000  1
  O  O11  1  0.97795400  0.59414200  0.13469000  1
  O  O12  1  0.03476200  0.60894900  0.63107100  1
  O  O13  1  0.53476200  0.39105100  0.86892900  1
  O  O14  1  0.96523800  0.39105100  0.36892900  1
  O  O15  1  0.46523800  0.60894900  0.13107100  1
  O  O16  1  0.48411300  0.52960100  0.54463300  1
  O  O17  1  0.98411300  0.47039900  0.95536700  1
  O  O18  1  0.51588700  0.47039900  0.45536700  1
  O  O19  1  0.01588700  0.52960100  0.04463300  1
  O  O20  1  0.97646700  0.54145900  0.54197300  1
  O  O21  1  0.47646700  0.45854100  0.95802700  1
  O  O22  1  0.02353300  0.45854100  0.45802700  1
  O  O23  1  0.52353300  0.54145900  0.04197300  1
  O  O24  1  0.06558900  0.16785500  0.57050900  1
  O  O25  1  0.56558900  0.83214500  0.92949100  1
  O  O26  1  0.93441100  0.83214500  0.42949100  1
  O  O27  1  0.43441100  0.16785500  0.07050900  1
  O  O28  1  0.40543900  0.15021300  0.50168800  1
  O  O29  1  0.90543900  0.84978700  0.99831200  1
  O  O30  1  0.59456100  0.84978700  0.49831200  1
  O  O31  1  0.09456100  0.15021300  0.00168800  1
  O  O32  1  0.10233700  0.87018500  0.53538000  1
  O  O33  1  0.60233700  0.12981500  0.96462000  1
  O  O34  1  0.89766300  0.12981500  0.46462000  1
  O  O35  1  0.39766300  0.87018500  0.03538000  1
  O  O36  1  0.46459200  0.96757600  0.59473400  1
  O  O37  1  0.96459200  0.03242400  0.90526600  1
  O  O38  1  0.53540800  0.03242400  0.40526600  1
  O  O39  1  0.03540800  0.96757600  0.09473400  1
  O  O40  1  0.38686300  0.08430000  0.86392700  1
  O  O41  1  0.88686300  0.91570000  0.63607300  1
  O  O42  1  0.61313700  0.91570000  0.13607300  1
  O  O43  1  0.11313700  0.08430000  0.36392700  1
  O  O44  1  0.99242600  0.97452200  0.81290000  1
  O  O45  1  0.49242600  0.02547800  0.68710000  1
  O  O46  1  0.00757400  0.02547800  0.18710000  1
  O  O47  1  0.50757400  0.97452200  0.31290000  1
  O  O48  1  0.41967600  0.82755800  0.81620400  1
  O  O49  1  0.91967600  0.17244200  0.68379600  1
  O  O50  1  0.58032400  0.17244200  0.18379600  1
  O  O51  1  0.08032400  0.82755800  0.31620400  1
  O  O52  1  0.13467100  0.74423400  0.89301500  1
  O  O53  1  0.63467100  0.25576600  0.60698500  1
  O  O54  1  0.86532900  0.25576600  0.10698500  1
  O  O55  1  0.36532900  0.74423400  0.39301500  1
  O  O56  1  0.33677600  0.36747700  0.68863800  1
  O  O57  1  0.83677600  0.63252300  0.81136200  1
  O  O58  1  0.66322400  0.63252300  0.31136200  1
  O  O59  1  0.16322400  0.36747700  0.18863800  1
loop_
_geom_bond_atom_site_label_1
_geom_bond_atom_site_label_2
_geom_bond_distance
_geom_bond_site_symmetry_2
Bi0 O8 2.256575 1_555
Bi0 O12 2.263466 1_555
Bi0 O16 2.318769 1_555
Bi0 O56 2.365919 1_555
Bi0 O53 2.576005 1_555
Bi0 O20 2.684861 1_455
Bi1 O9 2.256575 1_655
Bi1 O13 2.263466 1_555
Bi1 O17 2.318769 1_555
Bi1 O57 2.365919 1_555
Bi1 O52 2.576005 1_655
Bi1 O21 2.684861 1_555
Bi2 O10 2.256575 1_555
Bi2 O14 2.263466 1_555
Bi2 O18 2.318769 1_555
Bi2 O58 2.365919 1_555
Bi2 O55 2.576005 1_555
Bi2 O22 2.684861 1_655
Bi3 O11 2.256575 1_455
Bi3 O15 2.263466 1_555
Bi3 O19 2.318769 1_555
Bi3 O59 2.365919 1_555
Bi3 O54 2.576005 1_455
Bi3 O23 2.684861 1_555
Bi4 O12 2.207334 1_555
Bi4 O4 2.217491 1_555
Bi4 O0 2.434732 1_555
Bi4 O8 2.466766 1_555
Bi4 O41 2.547994 1_455
Bi4 O45 2.822910 1_565
Bi4 O36 2.868416 1_555
Bi5 O13 2.207334 1_555
Bi5 O5 2.217491 1_555
Bi5 O1 2.434732 1_655
Bi5 O9 2.466766 1_655
Bi5 O40 2.547994 1_555
Bi5 O44 2.822910 1_545
Bi5 O37 2.868416 1_555
Bi6 O14 2.207334 1_555
Bi6 O6 2.217491 1_555
Bi6 O2 2.434732 1_555
Bi6 O10 2.466766 1_555
Bi6 O43 2.547994 1_655
Bi6 O47 2.822910 1_545
Bi6 O38 2.868416 1_555
Bi7 O15 2.207334 1_555
Bi7 O7 2.217491 1_555
Bi7 O3 2.434732 1_455
Bi7 O11 2.466766 1_455
Bi7 O42 2.547994 1_555
Bi7 O46 2.822910 1_565
Bi7 O39 2.868416 1_555
Bi8 O56 2.115312 1_555
Bi8 O1 2.207182 1_555
Bi8 O5 2.212537 1_555
Bi8 O49 2.512980 1_455
Bi8 O45 2.684645 1_555
Bi9 O57 2.115312 1_555
Bi9 O0 2.207182 1_555
Bi9 O4 2.212537 1_655
Bi9 O48 2.512980 1_555
Bi9 O44 2.684645 1_555
Bi10 O58 2.115312 1_555
Bi10 O3 2.207182 1_555
Bi10 O7 2.212537 1_555
Bi10 O51 2.512980 1_655
Bi10 O47 2.684645 1_555
Bi11 O59 2.115312 1_555
Bi11 O2 2.207182 1_555
Bi11 O6 2.212537 1_455
Bi11 O50 2.512980 1_555
Bi11 O46 2.684645 1_555
Bi12 O1 2.181325 1_555
Bi12 O57 2.221324 1_455
Bi12 O9 2.381211 1_555
Bi12 O4 2.410384 1_555
Bi13 O0 2.181325 1_555
Bi13 O56 2.221324 1_555
Bi13 O8 2.381211 1_555
Bi13 O5 2.410384 1_555
Bi14 O3 2.181325 1_555
Bi14 O59 2.221324 1_655
Bi14 O11 2.381211 1_555
Bi14 O6 2.410384 1_555
Bi15 O2 2.181325 1_555
Bi15 O58 2.221324 1_555
Bi15 O10 2.381211 1_555
Bi15 O7 2.410384 1_555
Bi16 O21 2.251292 1_555
Bi16 O13 2.273710 1_555
Bi16 O9 2.332980 1_555
Bi16 O17 2.562125 1_455
Bi16 O33 2.580388 1_555
Bi16 O31 2.679556 1_556
Bi16 O40 2.754860 1_555
Bi17 O20 2.251292 1_555
Bi17 O12 2.273710 1_655
Bi17 O8 2.332980 1_555
Bi17 O16 2.562125 1_555
Bi17 O32 2.580388 1_655
Bi17 O30 2.679556 1_555
Bi17 O41 2.754860 1_555
Bi18 O23 2.251292 1_555
Bi18 O15 2.273710 1_555
Bi18 O11 2.332980 1_555
Bi18 O19 2.562125 1_655
Bi18 O35 2.580388 1_555
Bi18 O29 2.679556 1_554
Bi18 O42 2.754860 1_555
Bi19 O22 2.251292 1_555
Bi19 O14 2.273710 1_455
Bi19 O10 2.332980 1_555
Bi19 O18 2.562125 1_555
Bi19 O34 2.580388 1_455
Bi19 O28 2.679556 1_555
Bi19 O43 2.754860 1_555
Bi20 O21 2.263601 1_555
Bi20 O19 2.280044 1_556
Bi20 O17 2.352385 1_455
Bi20 O23 2.354448 1_556
Bi21 O20 2.263601 1_555
Bi21 O18 2.280044 1_555
Bi21 O16 2.352385 1_555
Bi21 O22 2.354448 1_655
Bi22 O23 2.263601 1_555
Bi22 O17 2.280044 1_554
Bi22 O19 2.352385 1_655
Bi22 O21 2.354448 1_554
Bi23 O22 2.263601 1_555
Bi23 O16 2.280044 1_555
Bi23 O18 2.352385 1_555
Bi23 O20 2.354448 1_455
Mo0 O24 1.784038 1_555
Mo0 O28 1.804625 1_555
Mo0 O32 1.813828 1_545
Mo0 O36 1.819716 1_545
Mo1 O25 1.784038 1_555
Mo1 O29 1.804625 1_555
Mo1 O33 1.813828 1_565
Mo1 O37 1.819716 1_565
Mo2 O26 1.784038 1_555
Mo2 O30 1.804625 1_555
Mo2 O34 1.813828 1_565
Mo2 O38 1.819716 1_565
Mo3 O27 1.784038 1_555
Mo3 O31 1.804625 1_555
Mo3 O35 1.813828 1_545
Mo3 O39 1.819716 1_545
Mo4 O48 1.810507 1_555
Mo4 O44 1.813392 1_455
Mo4 O52 1.824268 1_555
Mo4 O40 1.837371 1_565
Mo5 O49 1.810507 1_555
Mo5 O45 1.813392 1_555
Mo5 O53 1.824268 1_555
Mo5 O41 1.837371 1_545
Mo6 O50 1.810507 1_555
Mo6 O46 1.813392 1_655
Mo6 O54 1.824268 1_555
Mo6 O42 1.837371 1_545
Mo7 O51 1.810507 1_555
Mo7 O47 1.813392 1_555
Mo7 O55 1.824268 1_555
Mo7 O43 1.837371 1_565
