# generated using pymatgen
data_Li6MnV3(PO4)6
_symmetry_space_group_name_H-M   'P 1'
_cell_length_a   8.57650300
_cell_length_b   8.77145911
_cell_length_c   12.05987664
_cell_angle_alpha   90.24406618
_cell_angle_beta   91.11118206
_cell_angle_gamma   90.52348732
_symmetry_Int_Tables_number   1
_chemical_formula_structural   Li6MnV3(PO4)6
_chemical_formula_sum   'Li12 Mn2 V6 P12 O48'
_cell_volume   907.02836794
_cell_formula_units_Z   2
loop_
 _symmetry_equiv_pos_site_id
 _symmetry_equiv_pos_as_xyz
  1  'x, y, z'
loop_
 _atom_site_type_symbol
 _atom_site_label
 _atom_site_symmetry_multiplicity
 _atom_site_fract_x
 _atom_site_fract_y
 _atom_site_fract_z
 _atom_site_occupancy
  Li  Li0  1  0.06534200  0.48662700  0.34748600  1
  Li  Li1  1  0.07922900  0.91350000  0.68999200  1
  Li  Li2  1  0.18058600  0.22015700  0.17807700  1
  Li  Li3  1  0.32006000  0.72081600  0.32221100  1
  Li  Li4  1  0.41953300  0.41302400  0.80927300  1
  Li  Li5  1  0.43454700  0.98854900  0.15419000  1
  Li  Li6  1  0.56483200  0.01437200  0.84655500  1
  Li  Li7  1  0.58055300  0.58599100  0.19132000  1
  Li  Li8  1  0.68026300  0.27806200  0.67760000  1
  Li  Li9  1  0.82024100  0.78024700  0.82165000  1
  Li  Li10  1  0.92087300  0.08575000  0.30964100  1
  Li  Li11  1  0.93473300  0.51299700  0.65257400  1
  Mn  Mn0  1  0.74701800  0.96454600  0.60869600  1
  Mn  Mn1  1  0.75239500  0.02856400  0.10660400  1
  V  V0  1  0.24409900  0.97223500  0.89490500  1
  V  V1  1  0.24503300  0.53520900  0.10871300  1
  V  V2  1  0.25501600  0.47170800  0.60492300  1
  V  V3  1  0.25547200  0.03411000  0.39183700  1
  V  V4  1  0.74535800  0.52780000  0.39513400  1
  V  V5  1  0.75550900  0.46468300  0.89012300  1
  P  P0  1  0.04210200  0.74998300  0.49036600  1
  P  P1  1  0.11360600  0.61711800  0.84753500  1
  P  P2  1  0.11436500  0.88830300  0.14629700  1
  P  P3  1  0.38582100  0.11813700  0.65367600  1
  P  P4  1  0.38519200  0.38980000  0.35267900  1
  P  P5  1  0.45902100  0.25249400  0.00955300  1
  P  P6  1  0.54242400  0.75051800  0.98964900  1
  P  P7  1  0.61431200  0.61094200  0.64694600  1
  P  P8  1  0.61478600  0.88277500  0.35087200  1
  P  P9  1  0.88310100  0.11028800  0.85108100  1
  P  P10  1  0.88518400  0.38092400  0.15162600  1
  P  P11  1  0.95949200  0.24873700  0.50913100  1
  O  O0  1  0.05074200  0.10858200  0.89507000  1
  O  O1  1  0.05032400  0.12843300  0.44495900  1
  O  O2  1  0.05531600  0.33470200  0.60028500  1
  O  O3  1  0.05752700  0.41937000  0.18954000  1
  O  O4  1  0.09973300  0.63811700  0.58181300  1
  O  O5  1  0.12223600  0.79375800  0.83011900  1
  O  O6  1  0.13882500  0.57946600  0.97004900  1
  O  O7  1  0.12873300  0.00615400  0.24517300  1
  O  O8  1  0.17428600  0.73090300  0.18704800  1
  O  O9  1  0.18676000  0.82115300  0.43281200  1
  O  O10  1  0.22966000  0.52872900  0.77603500  1
  O  O11  1  0.23626300  0.94941800  0.06098300  1
  O  O12  1  0.26478800  0.45032900  0.43756700  1
  O  O13  1  0.26855800  0.02843800  0.72527600  1
  O  O14  1  0.31357700  0.32440200  0.06490900  1
  O  O15  1  0.32758500  0.23061400  0.31237900  1
  O  O16  1  0.36127300  0.07866500  0.53116200  1
  O  O17  1  0.37254000  0.50667200  0.25376300  1
  O  O18  1  0.37396700  0.29496000  0.66985200  1
  O  O19  1  0.40137400  0.14028600  0.91739800  1
  O  O20  1  0.44614200  0.83507100  0.90030900  1
  O  O21  1  0.44311500  0.92136100  0.31307300  1
  O  O22  1  0.44713400  0.60953700  0.60255800  1
  O  O23  1  0.45077200  0.63178500  0.05611100  1
  O  O24  1  0.55067700  0.37403400  0.94559200  1
  O  O25  1  0.55266100  0.39046900  0.39715000  1
  O  O26  1  0.55632200  0.08230000  0.69251200  1
  O  O27  1  0.55199500  0.16954800  0.10180700  1
  O  O28  1  0.60197200  0.86316300  0.08373100  1
  O  O29  1  0.62450200  0.70622100  0.33137600  1
  O  O30  1  0.62770600  0.49351000  0.74564600  1
  O  O31  1  0.63615600  0.91857900  0.47477400  1
  O  O32  1  0.67228500  0.76967000  0.68857100  1
  O  O33  1  0.68574500  0.67794700  0.93402400  1
  O  O34  1  0.73119600  0.97256200  0.28019400  1
  O  O35  1  0.73499700  0.55074200  0.56187100  1
  O  O36  1  0.76176700  0.04846700  0.93408400  1
  O  O37  1  0.76996900  0.46914100  0.22411000  1
  O  O38  1  0.81305500  0.17849400  0.56494300  1
  O  O39  1  0.82906200  0.26988300  0.81141900  1
  O  O40  1  0.87154600  0.99339300  0.74976000  1
  O  O41  1  0.86064400  0.42043600  0.02961200  1
  O  O42  1  0.87690200  0.20234500  0.16703400  1
  O  O43  1  0.90178500  0.36077500  0.41760400  1
  O  O44  1  0.94099700  0.57748900  0.81048600  1
  O  O45  1  0.94534800  0.66447600  0.39940500  1
  O  O46  1  0.95348900  0.87098900  0.55443200  1
  O  O47  1  0.94789400  0.88549200  0.10070500  1
loop_
_geom_bond_atom_site_label_1
_geom_bond_atom_site_label_2
_geom_bond_distance
_geom_bond_site_symmetry_2
Li0 O43 1.981675 1_455
Li0 O45 1.982611 1_455
Li0 O3 1.991375 1_555
Li0 O12 2.036753 1_555
Li1 O13 1.942622 1_565
Li1 O46 1.973266 1_455
Li1 O5 2.023127 1_555
Li1 O40 2.061938 1_455
Li2 O14 2.012874 1_555
Li2 O15 2.034358 1_555
Li2 O3 2.055160 1_555
Li2 O7 2.094695 1_555
Li3 O9 1.981978 1_555
Li3 O8 2.037689 1_555
Li3 O21 2.047572 1_555
Li3 O17 2.104486 1_555
Li4 O10 1.962368 1_555
Li4 O18 2.001142 1_555
Li4 O24 2.006202 1_555
Li4 O30 2.075950 1_555
Li5 O27 1.984511 1_565
Li5 O21 2.007273 1_555
Li5 O28 2.015372 1_555
Li5 O11 2.045782 1_555
Li6 O26 1.953586 1_555
Li6 O20 1.983676 1_545
Li6 O36 1.993841 1_555
Li6 O19 1.995435 1_555
Li7 O37 1.963400 1_555
Li7 O23 2.000622 1_555
Li7 O29 2.014951 1_555
Li7 O17 2.065861 1_555
Li8 O38 1.993434 1_555
Li8 O26 2.021746 1_555
Li8 O39 2.039861 1_555
Li8 O30 2.112966 1_555
Li9 O33 2.006103 1_555
Li9 O32 2.027851 1_555
Li9 O44 2.071414 1_555
Li9 O40 2.110512 1_555
Li10 O34 1.924385 1_545
Li10 O1 1.988185 1_655
Li10 O42 2.035391 1_555
Li10 O7 2.083711 1_655
Li11 O44 1.983917 1_555
Li11 O2 1.989833 1_655
Li11 O4 1.990408 1_655
Li11 O35 2.044853 1_555
Mn0 O31 1.898153 1_555
Mn0 O40 2.004928 1_555
Mn0 O38 2.030163 1_565
Mn0 O32 2.068465 1_555
Mn0 O46 2.074693 1_555
Mn0 O26 2.202166 1_565
Mn1 O28 1.947791 1_545
Mn1 O42 1.981295 1_555
Mn1 O36 2.091658 1_554
Mn1 O47 2.105610 1_545
Mn1 O27 2.126556 1_555
Mn1 O34 2.163071 1_545
O0 P9 1.523065 1_455
O0 V0 2.053467 1_545
O1 P11 1.533227 1_455
O1 V3 2.063107 1_555
O2 P11 1.548882 1_455
O2 V2 2.082991 1_555
O3 P10 1.571921 1_455
O3 V1 2.146646 1_555
O4 P0 1.555734 1_555
O4 V2 2.001623 1_555
O5 P1 1.565721 1_555
O5 V0 2.020301 1_555
O6 P1 1.527069 1_555
O6 V1 1.931276 1_556
O7 P2 1.577067 1_545
O7 V3 2.070505 1_555
O8 P2 1.555864 1_555
O8 V1 2.057798 1_555
O9 P0 1.560015 1_555
O9 V3 2.019834 1_565
O10 P1 1.541755 1_555
O10 V2 2.136925 1_555
O11 P2 1.573250 1_555
O11 V0 2.016058 1_554
O12 P4 1.562905 1_555
O12 V2 2.029610 1_555
O13 P3 1.549550 1_555
O13 V0 2.120210 1_545
O14 P5 1.562882 1_555
O14 V1 2.016770 1_555
O15 P4 1.549918 1_555
O15 V3 2.071046 1_555
O16 P3 1.526257 1_555
O16 V3 1.930834 1_555
O17 P4 1.578974 1_555
O17 V1 2.062298 1_555
O18 P3 1.566861 1_555
O18 V2 2.016365 1_555
O19 P5 1.552026 1_556
O19 V0 2.002981 1_545
O20 P6 1.541518 1_555
O20 V0 2.118684 1_555
O21 P8 1.573060 1_555
O21 V3 2.133221 1_565
O22 P7 1.520643 1_555
O22 V2 2.035445 1_555
O23 P6 1.536734 1_554
O23 V1 2.062582 1_555
O24 P5 1.537751 1_556
O24 V5 2.047058 1_555
O25 P4 1.523340 1_555
O25 V4 2.036755 1_555
O26 P3 1.561918 1_555
O27 P5 1.544694 1_555
O28 P6 1.575818 1_554
O29 P8 1.568603 1_555
O29 V4 2.030727 1_555
O30 P7 1.580614 1_555
O30 V5 2.058153 1_555
O31 P8 1.532746 1_555
O32 P7 1.552211 1_555
O33 P6 1.552021 1_555
O33 V5 2.040071 1_555
O34 P8 1.538807 1_555
O35 P7 1.565053 1_555
O35 V4 2.023766 1_555
O36 P9 1.553598 1_555
O37 P10 1.543057 1_555
O37 V4 2.138490 1_555
O38 P11 1.559543 1_555
O39 P9 1.553132 1_555
O39 V5 2.060956 1_555
O40 P9 1.592797 1_565
O41 P10 1.524242 1_555
O41 V5 1.935631 1_554
O42 P10 1.579284 1_555
O43 P11 1.557577 1_555
O43 V4 2.011192 1_555
O44 P1 1.573408 1_655
O44 V5 2.114428 1_555
O45 P0 1.549449 1_655
O45 V4 2.083345 1_555
O46 P0 1.526969 1_655
O47 P2 1.519920 1_655
