# generated using pymatgen
data_BaSrSm(CuO2)3
_symmetry_space_group_name_H-M   'P 1'
_cell_length_a   3.87938700
_cell_length_b   3.87938700
_cell_length_c   11.93821500
_cell_angle_alpha   90.00000000
_cell_angle_beta   90.00000000
_cell_angle_gamma   90.00000000
_symmetry_Int_Tables_number   1
_chemical_formula_structural   BaSrSm(CuO2)3
_chemical_formula_sum   'Ba1 Sr1 Sm1 Cu3 O6'
_cell_volume   179.66587973
_cell_formula_units_Z   1
loop_
 _symmetry_equiv_pos_site_id
 _symmetry_equiv_pos_as_xyz
  1  'x, y, z'
loop_
 _atom_site_type_symbol
 _atom_site_label
 _atom_site_symmetry_multiplicity
 _atom_site_fract_x
 _atom_site_fract_y
 _atom_site_fract_z
 _atom_site_occupancy
  Ba  Ba0  1  0.50000000  0.50000000  0.80973000  1
  Sr  Sr0  1  0.50000000  0.50000000  0.20037400  1
  Sm  Sm0  1  0.50000000  0.50000000  0.49852300  1
  Cu  Cu0  1  0.00000000  0.00000000  0.64092200  1
  Cu  Cu1  1  0.00000000  0.00000000  0.35330300  1
  Cu  Cu2  1  0.00000000  0.00000000  0.00464200  1
  O  O0  1  0.00000000  0.00000000  0.85129900  1
  O  O1  1  0.00000000  0.00000000  0.15583300  1
  O  O2  1  0.50000000  0.00000000  0.62307300  1
  O  O3  1  0.00000000  0.50000000  0.62307300  1
  O  O4  1  0.50000000  0.00000000  0.36961400  1
  O  O5  1  0.00000000  0.50000000  0.36961400  1
loop_
_geom_bond_atom_site_label_1
_geom_bond_atom_site_label_2
_geom_bond_distance
_geom_bond_site_symmetry_2
Ba0 O0 2.787668 1_655
Ba0 O0 2.787668 1_555
Ba0 O0 2.787668 1_565
Ba0 O0 2.787668 1_665
Ba0 O3 2.954312 1_655
Ba0 O2 2.954312 1_565
Ba0 O2 2.954312 1_555
Ba0 O3 2.954312 1_555
Cu0 O3 1.951363 1_555
Cu0 O3 1.951363 1_545
Cu0 O2 1.951363 1_555
Cu0 O2 1.951363 1_455
Cu0 O0 2.511526 1_555
Cu1 O4 1.949443 1_455
Cu1 O5 1.949443 1_545
Cu1 O4 1.949443 1_555
Cu1 O5 1.949443 1_555
Cu1 O1 2.357439 1_555
Cu2 O1 1.804951 1_555
Cu2 O0 1.830642 1_554
O1 Sr0 2.794203 1_545
O1 Sr0 2.794203 1_555
O1 Sr0 2.794203 1_455
O1 Sr0 2.794203 1_445
O2 Sm0 2.444033 1_555
O2 Sm0 2.444033 1_545
O3 Sm0 2.444033 1_555
O3 Sm0 2.444033 1_455
O4 Sm0 2.476037 1_555
O4 Sm0 2.476037 1_545
O4 Sr0 2.800807 1_555
O4 Sr0 2.800807 1_545
O5 Sm0 2.476037 1_455
O5 Sm0 2.476037 1_555
O5 Sr0 2.800807 1_455
O5 Sr0 2.800807 1_555
