# generated using pymatgen
data_MoW3Se8
_symmetry_space_group_name_H-M   'P 1'
_cell_length_a   3.32132763
_cell_length_b   3.32132763
_cell_length_c   37.87051200
_cell_angle_alpha   90.00000000
_cell_angle_beta   90.00000000
_cell_angle_gamma   119.99999271
_symmetry_Int_Tables_number   1
_chemical_formula_structural   MoW3Se8
_chemical_formula_sum   'Mo1 W3 Se8'
_cell_volume   361.78893331
_cell_formula_units_Z   1
loop_
 _symmetry_equiv_pos_site_id
 _symmetry_equiv_pos_as_xyz
  1  'x, y, z'
loop_
 _atom_site_type_symbol
 _atom_site_label
 _atom_site_symmetry_multiplicity
 _atom_site_fract_x
 _atom_site_fract_y
 _atom_site_fract_z
 _atom_site_occupancy
  Mo  Mo0  1  0.00000000  0.00000000  0.09392000  1
  W  W0  1  0.00000000  0.00000000  0.46965600  1
  W  W1  1  0.33333300  0.66666700  0.28179900  1
  W  W2  1  0.33333300  0.66666700  0.65754100  1
  Se  Se0  1  0.00000000  0.00000000  0.32625700  1
  Se  Se1  1  0.00000000  0.00000000  0.70200000  1
  Se  Se2  1  0.33333300  0.66666700  0.04968100  1
  Se  Se3  1  0.33333300  0.66666700  0.42521500  1
  Se  Se4  1  0.33333300  0.66666700  0.13816800  1
  Se  Se5  1  0.33333300  0.66666700  0.51409800  1
  Se  Se6  1  0.00000000  0.00000000  0.23733700  1
  Se  Se7  1  0.00000000  0.00000000  0.61307600  1
loop_
_geom_bond_atom_site_label_1
_geom_bond_atom_site_label_2
_geom_bond_distance
_geom_bond_site_symmetry_2
Mo0 Se2 2.546345 1_545
Mo0 Se2 2.546348 1_445
Mo0 Se2 2.546348 1_555
Mo0 Se4 2.546570 1_545
Mo0 Se4 2.546572 1_555
Mo0 Se4 2.546572 1_445
Se0 W1 2.551810 1_545
Se0 W1 2.551812 1_445
Se0 W1 2.551812 1_555
Se1 W2 2.551835 1_545
Se1 W2 2.551837 1_555
Se1 W2 2.551837 1_445
Se3 W0 2.551385 1_565
Se3 W0 2.551387 1_665
Se3 W0 2.551387 1_555
Se5 W0 2.551410 1_565
Se5 W0 2.551412 1_665
Se5 W0 2.551412 1_555
Se6 W1 2.551910 1_545
Se6 W1 2.551912 1_555
Se6 W1 2.551912 1_445
Se7 W2 2.551985 1_545
Se7 W2 2.551987 1_555
Se7 W2 2.551987 1_445
