# generated using pymatgen
data_CdAu
_symmetry_space_group_name_H-M   'P 1'
_cell_length_a   8.21757912
_cell_length_b   8.21757594
_cell_length_c   5.83040313
_cell_angle_alpha   90.00000000
_cell_angle_beta   90.00000000
_cell_angle_gamma   119.99999553
_symmetry_Int_Tables_number   1
_chemical_formula_structural   CdAu
_chemical_formula_sum   'Cd9 Au9'
_cell_volume   340.97053862
_cell_formula_units_Z   9
loop_
 _symmetry_equiv_pos_site_id
 _symmetry_equiv_pos_as_xyz
  1  'x, y, z'
loop_
 _atom_site_type_symbol
 _atom_site_label
 _atom_site_symmetry_multiplicity
 _atom_site_fract_x
 _atom_site_fract_y
 _atom_site_fract_z
 _atom_site_occupancy
  Cd  Cd0  1  0.33332837  0.31419837  0.20878251  1
  Cd  Cd1  1  0.98086900  0.66667163  0.20878251  1
  Cd  Cd2  1  0.68580163  0.01913000  0.20878251  1
  Cd  Cd3  1  0.64639521  0.66659550  0.92202258  1
  Cd  Cd4  1  0.02019928  0.35360479  0.92202258  1
  Cd  Cd5  1  0.33340450  0.97980072  0.92202258  1
  Cd  Cd6  1  0.66666700  0.33333300  0.49047559  1
  Cd  Cd7  1  0.33333300  0.66666700  0.65703242  1
  Cd  Cd8  1  -0.00000000  0.00000000  0.48976741  1
  Au  Au0  1  0.33328991  0.30653264  0.70834514  1
  Au  Au1  1  0.97324273  0.66671009  0.70834514  1
  Au  Au2  1  0.69346736  0.02675727  0.70834514  1
  Au  Au3  1  0.64296720  0.66663512  0.42398837  1
  Au  Au4  1  0.02366692  0.35703280  0.42398837  1
  Au  Au5  1  0.33336488  0.97633308  0.42398837  1
  Au  Au6  1  0.66666700  0.33333300  0.98464740  1
  Au  Au7  1  0.33333300  0.66666700  0.16314954  1
  Au  Au8  1  -0.00000000  0.00000000  0.98351185  1
loop_
_geom_bond_atom_site_label_1
_geom_bond_atom_site_label_2
_geom_bond_distance
_geom_bond_site_symmetry_2
Au0 Cd0 2.913329 1_555
Au0 Cd0 2.918428 1_556
Au0 Cd6 2.926412 1_555
Au0 Cd8 2.927702 1_555
Au0 Cd5 2.960327 1_545
Au0 Cd7 2.974339 1_555
Au0 Cd3 3.051883 1_555
Au0 Cd4 3.052291 1_555
Au1 Cd1 2.913329 1_555
Au1 Cd1 2.918428 1_556
Au1 Cd6 2.926408 1_555
Au1 Cd8 2.927702 1_665
Au1 Cd3 2.960336 1_555
Au1 Cd7 2.974332 1_655
Au1 Cd4 3.051878 1_655
Au1 Cd5 3.052286 1_655
Au2 Cd2 2.913329 1_555
Au2 Cd2 2.918428 1_556
Au2 Cd6 2.926404 1_555
Au2 Cd8 2.927702 1_655
Au2 Cd4 2.960332 1_655
Au2 Cd7 2.974336 1_545
Au2 Cd5 3.051887 1_545
Au2 Cd3 3.052282 1_545
Au3 Cd8 2.867458 1_665
Au3 Cd6 2.867645 1_555
Au3 Cd7 2.884621 1_555
Au3 Cd3 2.903878 1_555
Au3 Cd3 2.926800 1_554
Au3 Cd0 3.011199 1_555
Au3 Cd2 3.011521 1_565
Au3 Cd1 3.046931 1_555
Au4 Cd8 2.867461 1_555
Au4 Cd6 2.867630 1_455
Au4 Cd7 2.884620 1_555
Au4 Cd4 2.903878 1_555
Au4 Cd4 2.926800 1_554
Au4 Cd1 3.011199 1_455
Au4 Cd0 3.011529 1_555
Au4 Cd2 3.046934 1_455
Au5 Cd8 2.867454 1_565
Au5 Cd6 2.867637 1_565
Au5 Cd7 2.884620 1_555
Au5 Cd5 2.903878 1_555
Au5 Cd5 2.926800 1_554
Au5 Cd2 3.011203 1_565
Au5 Cd1 3.011529 1_455
Au5 Cd0 3.046930 1_565
Au6 Cd4 2.849066 1_655
Au6 Cd5 2.849073 1_545
Au6 Cd3 2.849081 1_555
Au6 Cd6 2.881221 1_555
Au6 Cd6 2.949182 1_556
Au6 Cd2 2.967338 1_556
Au6 Cd1 2.967339 1_556
Au6 Cd0 2.967346 1_556
Au7 Cd7 2.879536 1_555
Au7 Cd2 2.908609 1_565
Au7 Cd0 2.908613 1_555
Au7 Cd1 2.908614 1_455
Au7 Cd5 2.931947 1_554
Au7 Cd4 2.931947 1_554
Au7 Cd3 2.931947 1_554
Au7 Cd7 2.950867 1_554
Au8 Cd5 2.849076 1_545
Au8 Cd3 2.849081 1_445
Au8 Cd4 2.849083 1_555
Au8 Cd8 2.878729 1_555
Au8 Cd8 2.951674 1_556
Au8 Cd1 2.970204 1_446
Au8 Cd0 2.970208 1_556
Au8 Cd2 2.970208 1_456
