# generated using pymatgen
data_Yb2Mn3Si5
_symmetry_space_group_name_H-M   'P 1'
_cell_length_a   10.55931900
_cell_length_b   10.55931900
_cell_length_c   5.45659500
_cell_angle_alpha   90.00000000
_cell_angle_beta   90.00000000
_cell_angle_gamma   90.00000000
_symmetry_Int_Tables_number   1
_chemical_formula_structural   Yb2Mn3Si5
_chemical_formula_sum   'Yb8 Mn12 Si20'
_cell_volume   608.40607404
_cell_formula_units_Z   4
loop_
 _symmetry_equiv_pos_site_id
 _symmetry_equiv_pos_as_xyz
  1  'x, y, z'
loop_
 _atom_site_type_symbol
 _atom_site_label
 _atom_site_symmetry_multiplicity
 _atom_site_fract_x
 _atom_site_fract_y
 _atom_site_fract_z
 _atom_site_occupancy
  Yb  Yb0  1  0.57493500  0.73525100  0.50000000  1
  Yb  Yb1  1  0.42506500  0.26474900  0.50000000  1
  Yb  Yb2  1  0.07493500  0.76474900  0.00000000  1
  Yb  Yb3  1  0.92506500  0.23525100  0.00000000  1
  Yb  Yb4  1  0.26474900  0.57493500  0.50000000  1
  Yb  Yb5  1  0.73525100  0.42506500  0.50000000  1
  Yb  Yb6  1  0.23525100  0.07493500  0.00000000  1
  Yb  Yb7  1  0.76474900  0.92506500  0.00000000  1
  Mn  Mn0  1  0.88283700  0.85832000  0.50000000  1
  Mn  Mn1  1  0.11716300  0.14168000  0.50000000  1
  Mn  Mn2  1  0.38283700  0.64168000  0.00000000  1
  Mn  Mn3  1  0.61716300  0.35832000  0.00000000  1
  Mn  Mn4  1  0.14168000  0.88283700  0.50000000  1
  Mn  Mn5  1  0.85832000  0.11716300  0.50000000  1
  Mn  Mn6  1  0.35832000  0.38283700  0.00000000  1
  Mn  Mn7  1  0.64168000  0.61716300  0.00000000  1
  Mn  Mn8  1  0.50000000  0.00000000  0.25000000  1
  Mn  Mn9  1  0.00000000  0.50000000  0.75000000  1
  Mn  Mn10  1  0.00000000  0.50000000  0.25000000  1
  Mn  Mn11  1  0.50000000  0.00000000  0.75000000  1
  Si  Si0  1  0.67320800  0.17320800  0.25000000  1
  Si  Si1  1  0.32679200  0.82679200  0.25000000  1
  Si  Si2  1  0.17320800  0.32679200  0.75000000  1
  Si  Si3  1  0.82679200  0.67320800  0.75000000  1
  Si  Si4  1  0.82679200  0.67320800  0.25000000  1
  Si  Si5  1  0.17320800  0.32679200  0.25000000  1
  Si  Si6  1  0.67320800  0.17320800  0.75000000  1
  Si  Si7  1  0.32679200  0.82679200  0.75000000  1
  Si  Si8  1  0.50000000  0.50000000  0.25156800  1
  Si  Si9  1  0.00000000  0.00000000  0.75156800  1
  Si  Si10  1  0.50000000  0.50000000  0.74843200  1
  Si  Si11  1  0.00000000  0.00000000  0.24843200  1
  Si  Si12  1  0.68161000  0.97526900  0.50000000  1
  Si  Si13  1  0.31839000  0.02473100  0.50000000  1
  Si  Si14  1  0.18161000  0.52473100  0.00000000  1
  Si  Si15  1  0.81839000  0.47526900  0.00000000  1
  Si  Si16  1  0.02473100  0.68161000  0.50000000  1
  Si  Si17  1  0.97526900  0.31839000  0.50000000  1
  Si  Si18  1  0.47526900  0.18161000  0.00000000  1
  Si  Si19  1  0.52473100  0.81839000  0.00000000  1
loop_
_geom_bond_atom_site_label_1
_geom_bond_atom_site_label_2
_geom_bond_distance
_geom_bond_site_symmetry_2
Mn0 Si9 2.377611 1_665
Mn0 Si11 2.377611 1_665
Mn0 Si16 2.393039 1_655
Mn0 Si3 2.455974 1_555
Mn0 Si4 2.455974 1_555
Mn0 Si12 2.457609 1_555
Mn0 Yb7 3.081421 1_555
Mn0 Yb7 3.081421 1_556
Mn1 Si9 2.377611 1_555
Mn1 Si11 2.377611 1_555
Mn1 Si17 2.393039 1_455
Mn1 Si5 2.455974 1_555
Mn1 Si2 2.455974 1_555
Mn1 Si13 2.457609 1_555
Mn1 Yb6 3.081421 1_555
Mn1 Yb6 3.081421 1_556
Mn2 Si10 2.377611 1_554
Mn2 Si8 2.377611 1_555
Mn2 Si19 2.393039 1_555
Mn2 Si1 2.455974 1_555
Mn2 Si7 2.455974 1_554
Mn2 Si14 2.457609 1_555
Mn2 Yb4 3.081421 1_555
Mn2 Yb4 3.081421 1_554
Mn3 Si10 2.377611 1_554
Mn3 Si8 2.377611 1_555
Mn3 Si18 2.393039 1_555
Mn3 Si0 2.455974 1_555
Mn3 Si6 2.455974 1_554
Mn3 Si15 2.457609 1_555
Mn3 Yb5 3.081421 1_554
Mn3 Yb5 3.081421 1_555
Mn4 Si9 2.377611 1_565
Mn4 Si11 2.377611 1_565
Mn4 Si13 2.393039 1_565
Mn4 Si7 2.455974 1_555
Mn4 Si1 2.455974 1_555
Mn4 Si16 2.457609 1_555
Mn4 Yb2 3.081421 1_556
Mn4 Yb2 3.081421 1_555
Mn5 Si9 2.377611 1_655
Mn5 Si11 2.377611 1_655
Mn5 Si12 2.393039 1_545
Mn5 Si6 2.455974 1_555
Mn5 Si0 2.455974 1_555
Mn5 Si17 2.457609 1_555
Mn5 Yb3 3.081421 1_555
Mn5 Yb3 3.081421 1_556
Mn6 Si10 2.377611 1_554
Mn6 Si8 2.377611 1_555
Mn6 Si14 2.393039 1_555
Mn6 Si2 2.455974 1_554
Mn6 Si5 2.455974 1_555
Mn6 Si18 2.457609 1_555
Mn6 Yb1 3.081421 1_555
Mn6 Yb1 3.081421 1_554
Mn7 Si10 2.377611 1_554
Mn7 Si8 2.377611 1_555
Mn7 Si15 2.393039 1_555
Mn7 Si4 2.455974 1_555
Mn7 Si3 2.455974 1_554
Mn7 Si19 2.457609 1_555
Mn7 Yb0 3.081421 1_555
Mn7 Yb0 3.081421 1_554
Mn8 Si18 2.367823 1_555
Mn8 Si13 2.367823 1_555
Mn8 Si12 2.367823 1_545
Mn8 Si19 2.367823 1_545
Mn8 Si1 2.586538 1_545
Mn8 Si0 2.586538 1_555
Mn8 Yb1 3.209705 1_555
Mn8 Yb7 3.209705 1_545
Mn8 Yb6 3.209705 1_555
Mn8 Yb0 3.209705 1_545
Mn9 Si14 2.367823 1_556
Mn9 Si17 2.367823 1_455
Mn9 Si15 2.367823 1_456
Mn9 Si16 2.367823 1_555
Mn9 Si2 2.586538 1_555
Mn9 Si3 2.586538 1_455
Mn9 Yb4 3.209705 1_555
Mn9 Yb5 3.209705 1_455
Mn9 Yb2 3.209705 1_556
Mn9 Yb3 3.209705 1_456
Mn10 Si14 2.367823 1_555
Mn10 Si17 2.367823 1_455
Mn10 Si15 2.367823 1_455
Mn10 Si16 2.367823 1_555
Mn10 Si5 2.586538 1_555
Mn10 Si4 2.586538 1_455
Mn10 Yb3 3.209705 1_455
Mn10 Yb4 3.209705 1_555
Mn10 Yb5 3.209705 1_455
Mn10 Yb2 3.209705 1_555
Mn11 Si18 2.367823 1_556
Mn11 Si13 2.367823 1_555
Mn11 Si12 2.367823 1_545
Mn11 Si19 2.367823 1_546
Mn11 Si7 2.586538 1_545
Mn11 Si6 2.586538 1_555
Mn11 Yb1 3.209705 1_555
Mn11 Yb7 3.209705 1_546
Mn11 Yb0 3.209705 1_545
Mn11 Yb6 3.209705 1_556
Si0 Si12 2.497458 1_545
Si0 Si18 2.497458 1_555
Si0 Si6 2.728298 1_554
Si0 Si6 2.728298 1_555
Si0 Yb3 3.059855 1_555
Si0 Yb5 3.059855 1_555
Si0 Yb7 3.108182 1_545
Si0 Yb1 3.108182 1_555
Si1 Si19 2.497458 1_555
Si1 Si13 2.497458 1_565
Si1 Si7 2.728298 1_554
Si1 Si7 2.728298 1_555
Si1 Yb4 3.059855 1_555
Si1 Yb2 3.059855 1_555
Si1 Yb0 3.108182 1_555
Si1 Yb6 3.108182 1_565
Si2 Si5 2.728298 1_555
Si2 Si5 2.728298 1_556
Si2 Yb6 3.059855 1_556
Si2 Yb1 3.059855 1_555
Si2 Yb4 3.108182 1_555
Si2 Yb3 3.108182 1_456
Si3 Si4 2.728298 1_556
Si3 Si4 2.728298 1_555
Si3 Yb0 3.059855 1_555
Si3 Yb7 3.059855 1_556
Si3 Yb5 3.108182 1_555
Si3 Yb2 3.108182 1_656
Si4 Yb0 3.059855 1_555
Si4 Yb7 3.059855 1_555
Si4 Yb2 3.108182 1_655
Si4 Yb5 3.108182 1_555
Si5 Yb6 3.059855 1_555
Si5 Yb1 3.059855 1_555
Si5 Yb4 3.108182 1_555
Si5 Yb3 3.108182 1_455
Si6 Yb3 3.059855 1_556
Si6 Yb5 3.059855 1_555
Si6 Yb7 3.108182 1_546
Si6 Yb1 3.108182 1_555
Si7 Yb4 3.059855 1_555
Si7 Yb2 3.059855 1_556
Si7 Yb0 3.108182 1_555
Si7 Yb6 3.108182 1_566
Si8 Yb4 2.938441 1_555
Si8 Yb1 2.938441 1_555
Si8 Yb5 2.938441 1_555
Si8 Yb0 2.938441 1_555
Si9 Yb7 2.938441 1_446
Si9 Yb3 2.938441 1_456
Si9 Yb6 2.938441 1_556
Si9 Yb2 2.938441 1_546
Si10 Yb4 2.938441 1_555
Si10 Yb1 2.938441 1_555
Si10 Yb5 2.938441 1_555
Si10 Yb0 2.938441 1_555
Si11 Yb3 2.938441 1_455
Si11 Yb7 2.938441 1_445
Si11 Yb6 2.938441 1_555
Si11 Yb2 2.938441 1_545
Si12 Si6 2.497458 1_565
Si12 Yb0 2.773469 1_555
Si12 Yb7 2.914675 1_555
Si12 Yb7 2.914675 1_556
Si13 Si7 2.497458 1_545
Si13 Yb1 2.773469 1_555
Si13 Yb6 2.914675 1_555
Si13 Yb6 2.914675 1_556
Si14 Si2 2.497458 1_554
Si14 Si5 2.497458 1_555
Si14 Yb2 2.773469 1_555
Si14 Yb4 2.914675 1_554
Si14 Yb4 2.914675 1_555
Si15 Si3 2.497458 1_554
Si15 Si4 2.497458 1_555
Si15 Yb3 2.773469 1_555
Si15 Yb5 2.914675 1_554
Si15 Yb5 2.914675 1_555
Si16 Si3 2.497458 1_455
Si16 Si4 2.497458 1_455
Si16 Yb4 2.773469 1_555
Si16 Yb2 2.914675 1_556
Si16 Yb2 2.914675 1_555
Si17 Si5 2.497458 1_655
Si17 Si2 2.497458 1_655
Si17 Yb5 2.773469 1_555
Si17 Yb3 2.914675 1_555
Si17 Yb3 2.914675 1_556
Si18 Si6 2.497458 1_554
Si18 Yb6 2.773469 1_555
Si18 Yb1 2.914675 1_555
Si18 Yb1 2.914675 1_554
Si19 Si7 2.497458 1_554
Si19 Yb7 2.773469 1_555
Si19 Yb0 2.914675 1_555
Si19 Yb0 2.914675 1_554
