# generated using pymatgen
data_UC2Se2(NO6)2
_symmetry_space_group_name_H-M   'P 1'
_cell_length_a   7.88300500
_cell_length_b   12.17179800
_cell_length_c   17.01182500
_cell_angle_alpha   90.00000000
_cell_angle_beta   90.00000000
_cell_angle_gamma   90.00000000
_symmetry_Int_Tables_number   1
_chemical_formula_structural   UC2Se2(NO6)2
_chemical_formula_sum   'U4 C8 Se8 N8 O48'
_cell_volume   1632.29046920
_cell_formula_units_Z   4
loop_
 _symmetry_equiv_pos_site_id
 _symmetry_equiv_pos_as_xyz
  1  'x, y, z'
loop_
 _atom_site_type_symbol
 _atom_site_label
 _atom_site_symmetry_multiplicity
 _atom_site_fract_x
 _atom_site_fract_y
 _atom_site_fract_z
 _atom_site_occupancy
  U  U0  1  0.11849100  0.25000000  0.48677400  1
  U  U1  1  0.61849100  0.25000000  0.01322600  1
  U  U2  1  0.88150900  0.75000000  0.51322600  1
  U  U3  1  0.38150900  0.75000000  0.98677400  1
  C  C0  1  0.31134700  0.58485600  0.68633500  1
  C  C1  1  0.81134700  0.91514400  0.81366500  1
  C  C2  1  0.68865300  0.08485600  0.31366500  1
  C  C3  1  0.18865300  0.41514400  0.18633500  1
  C  C4  1  0.68865300  0.41514400  0.31366500  1
  C  C5  1  0.18865300  0.08485600  0.18633500  1
  C  C6  1  0.31134700  0.91514400  0.68633500  1
  C  C7  1  0.81134700  0.58485600  0.81366500  1
  Se  Se0  1  0.21281000  0.54894900  0.43498500  1
  Se  Se1  1  0.71281000  0.95105100  0.06501500  1
  Se  Se2  1  0.78719000  0.04894900  0.56501500  1
  Se  Se3  1  0.28719000  0.45105100  0.93498500  1
  Se  Se4  1  0.78719000  0.45105100  0.56501500  1
  Se  Se5  1  0.28719000  0.04894900  0.93498500  1
  Se  Se6  1  0.21281000  0.95105100  0.43498500  1
  Se  Se7  1  0.71281000  0.54894900  0.06501500  1
  N  N0  1  0.28529300  0.49029100  0.67906600  1
  N  N1  1  0.78529300  0.00970900  0.82093400  1
  N  N2  1  0.71470700  0.99029100  0.32093400  1
  N  N3  1  0.21470700  0.50970900  0.17906600  1
  N  N4  1  0.71470700  0.50970900  0.32093400  1
  N  N5  1  0.21470700  0.99029100  0.17906600  1
  N  N6  1  0.28529300  0.00970900  0.67906600  1
  N  N7  1  0.78529300  0.49029100  0.82093400  1
  O  O0  1  0.14368500  0.25000000  0.59189400  1
  O  O1  1  0.64368500  0.25000000  0.90810600  1
  O  O2  1  0.85631500  0.75000000  0.40810600  1
  O  O3  1  0.35631500  0.75000000  0.09189400  1
  O  O4  1  0.09445000  0.25000000  0.38146800  1
  O  O5  1  0.59445000  0.25000000  0.11853200  1
  O  O6  1  0.90555000  0.75000000  0.61853200  1
  O  O7  1  0.40555000  0.75000000  0.88146800  1
  O  O8  1  0.12126500  0.63163600  0.50183900  1
  O  O9  1  0.62126500  0.86836400  0.99816100  1
  O  O10  1  0.87873500  0.13163600  0.49816100  1
  O  O11  1  0.37873500  0.36836400  0.00183900  1
  O  O12  1  0.87873500  0.36836400  0.49816100  1
  O  O13  1  0.37873500  0.13163600  0.00183900  1
  O  O14  1  0.12126500  0.86836400  0.50183900  1
  O  O15  1  0.62126500  0.63163600  0.99816100  1
  O  O16  1  0.23280200  0.42742300  0.48266700  1
  O  O17  1  0.73280200  0.07257700  0.01733300  1
  O  O18  1  0.76719800  0.92742300  0.51733300  1
  O  O19  1  0.26719800  0.57257700  0.98266700  1
  O  O20  1  0.76719800  0.57257700  0.51733300  1
  O  O21  1  0.26719800  0.92742300  0.98266700  1
  O  O22  1  0.23280200  0.07257700  0.48266700  1
  O  O23  1  0.73280200  0.42742300  0.01733300  1
  O  O24  1  0.40400900  0.59523800  0.40958600  1
  O  O25  1  0.90400900  0.90476200  0.09041400  1
  O  O26  1  0.59599100  0.09523800  0.59041400  1
  O  O27  1  0.09599100  0.40476200  0.90958600  1
  O  O28  1  0.59599100  0.40476200  0.59041400  1
  O  O29  1  0.09599100  0.09523800  0.90958600  1
  O  O30  1  0.40400900  0.90476200  0.40958600  1
  O  O31  1  0.90400900  0.59523800  0.09041400  1
  O  O32  1  0.10025600  0.53810300  0.35228400  1
  O  O33  1  0.60025600  0.96189700  0.14771600  1
  O  O34  1  0.89974400  0.03810300  0.64771600  1
  O  O35  1  0.39974400  0.46189700  0.85228400  1
  O  O36  1  0.89974400  0.46189700  0.64771600  1
  O  O37  1  0.39974400  0.03810300  0.85228400  1
  O  O38  1  0.10025600  0.96189700  0.35228400  1
  O  O39  1  0.60025600  0.53810300  0.14771600  1
  O  O40  1  0.42256000  0.25000000  0.48022900  1
  O  O41  1  0.92256000  0.25000000  0.01977100  1
  O  O42  1  0.57744000  0.75000000  0.51977100  1
  O  O43  1  0.07744000  0.75000000  0.98022900  1
  O  O44  1  0.53597600  0.75000000  0.26884800  1
  O  O45  1  0.03597600  0.75000000  0.23115200  1
  O  O46  1  0.46402400  0.25000000  0.73115200  1
  O  O47  1  0.96402400  0.25000000  0.76884800  1
loop_
_geom_bond_atom_site_label_1
_geom_bond_atom_site_label_2
_geom_bond_distance
_geom_bond_site_symmetry_2
C0 N0 1.175727 1_555
C1 N1 1.175727 1_565
C2 N2 1.175727 1_545
C3 N3 1.175727 1_555
C4 N4 1.175727 1_555
C5 N5 1.175727 1_545
C6 N6 1.175727 1_565
C7 N7 1.175727 1_555
O0 U0 1.799278 1_555
O1 U1 1.799278 1_556
O2 U2 1.799278 1_555
O3 U3 1.799278 1_554
O4 U0 1.801444 1_555
O5 U1 1.801444 1_555
O6 U2 1.801444 1_555
O7 U3 1.801444 1_555
O8 Se0 1.681425 1_555
O8 U2 2.384374 1_455
O9 Se1 1.681425 1_556
O9 U3 2.384374 1_555
O10 Se2 1.681425 1_555
O10 U0 2.384374 1_655
O11 Se3 1.681425 1_554
O11 U1 2.384374 1_555
O12 Se4 1.681425 1_555
O12 U0 2.384374 1_655
O13 Se5 1.681425 1_554
O13 U1 2.384374 1_555
O14 Se6 1.681425 1_555
O14 U2 2.384374 1_455
O15 Se7 1.681425 1_556
O15 U3 2.384374 1_555
O16 Se0 1.694348 1_555
O16 U0 2.341063 1_555
O17 Se1 1.694348 1_545
O17 U1 2.341063 1_555
O18 Se2 1.694348 1_565
O18 U2 2.341063 1_555
O19 Se3 1.694348 1_555
O19 U3 2.341063 1_555
O20 Se4 1.694348 1_555
O20 U2 2.341063 1_555
O21 Se5 1.694348 1_565
O21 U3 2.341063 1_555
O22 Se6 1.694348 1_545
O22 U0 2.341063 1_555
O23 Se7 1.694348 1_555
O23 U1 2.341063 1_555
O24 Se0 1.666091 1_555
O25 Se1 1.666091 1_555
O26 Se2 1.666091 1_555
O27 Se3 1.666091 1_555
O28 Se4 1.666091 1_555
O29 Se5 1.666091 1_555
O30 Se6 1.666091 1_555
O31 Se7 1.666091 1_555
O32 Se0 1.668538 1_555
O33 Se1 1.668538 1_555
O34 Se2 1.668538 1_555
O35 Se3 1.668538 1_555
O36 Se4 1.668538 1_555
O37 Se5 1.668538 1_555
O38 Se6 1.668538 1_555
O39 Se7 1.668538 1_555
O40 U0 2.399562 1_555
O41 U1 2.399562 1_555
O42 U2 2.399562 1_555
O43 U3 2.399562 1_555
