# generated using pymatgen
data_UReC2
_symmetry_space_group_name_H-M   'P 1'
_cell_length_a   3.19034276
_cell_length_b   5.63034107
_cell_length_c   10.99909544
_cell_angle_alpha   90.00000000
_cell_angle_beta   90.00000000
_cell_angle_gamma   90.00000000
_symmetry_Int_Tables_number   1
_chemical_formula_structural   UReC2
_chemical_formula_sum   'U4 Re4 C8'
_cell_volume   197.57364820
_cell_formula_units_Z   4
loop_
 _symmetry_equiv_pos_site_id
 _symmetry_equiv_pos_as_xyz
  1  'x, y, z'
loop_
 _atom_site_type_symbol
 _atom_site_label
 _atom_site_symmetry_multiplicity
 _atom_site_fract_x
 _atom_site_fract_y
 _atom_site_fract_z
 _atom_site_occupancy
  U  U0  1  0.25000000  0.08187711  0.85865571  1
  U  U1  1  0.25000000  0.58187711  0.64134429  1
  U  U2  1  0.75000000  0.91810498  0.14130303  1
  U  U3  1  0.75000000  0.41810498  0.35869697  1
  Re  Re0  1  0.25000000  0.42369855  0.10410852  1
  Re  Re1  1  0.25000000  0.92369855  0.39589148  1
  Re  Re2  1  0.75000000  0.57630941  0.89584598  1
  Re  Re3  1  0.75000000  0.07630941  0.60415402  1
  C  C0  1  0.25000000  0.16267675  0.24254044  1
  C  C1  1  0.25000000  0.66267675  0.25745956  1
  C  C2  1  0.75000000  0.83732400  0.75745482  1
  C  C3  1  0.75000000  0.33732400  0.74254518  1
  C  C4  1  0.25000000  0.74286282  0.99273142  1
  C  C5  1  0.25000000  0.24286282  0.50726858  1
  C  C6  1  0.75000000  0.25714538  0.00727428  1
  C  C7  1  0.75000000  0.75714538  0.49272572  1
loop_
_geom_bond_atom_site_label_1
_geom_bond_atom_site_label_2
_geom_bond_distance
_geom_bond_site_symmetry_2
C0 Re0 2.116184 1_555
C0 Re1 2.157656 1_545
C0 U2 2.383420 1_445
C0 U2 2.383420 1_545
C0 U3 2.499029 1_455
C0 U3 2.499029 1_555
C1 Re1 2.116184 1_555
C1 Re0 2.157656 1_555
C1 U3 2.383420 1_455
C1 U3 2.383420 1_555
C1 U2 2.499029 1_455
C1 U2 2.499029 1_555
C2 Re2 2.115834 1_555
C2 Re3 2.157250 1_565
C2 U0 2.383171 1_565
C2 U0 2.383171 1_665
C2 U1 2.498831 1_655
C2 U1 2.498831 1_555
C3 Re3 2.115834 1_555
C3 Re2 2.157250 1_555
C3 U1 2.383171 1_555
C3 U1 2.383171 1_655
C3 U0 2.498831 1_555
C3 U0 2.498831 1_655
C4 Re2 2.135314 1_555
C4 Re2 2.135314 1_455
C4 Re0 2.174848 1_556
C4 U0 2.412087 1_565
C4 U2 2.487680 1_456
C4 U2 2.487680 1_556
C5 Re3 2.135314 1_555
C5 Re3 2.135314 1_455
C5 Re1 2.174848 1_545
C5 U1 2.412087 1_555
C5 U3 2.487680 1_455
C5 U3 2.487680 1_555
C6 Re0 2.135032 1_555
C6 Re0 2.135032 1_655
C6 Re2 2.175164 1_554
C6 U2 2.411887 1_545
C6 U0 2.488078 1_654
C6 U0 2.488078 1_554
C7 Re1 2.135032 1_555
C7 Re1 2.135032 1_655
C7 Re3 2.175164 1_565
C7 U3 2.411887 1_555
C7 U1 2.488078 1_555
C7 U1 2.488078 1_655
