# generated using pymatgen
data_Te2Mo3W(SeS2)2
_symmetry_space_group_name_H-M   'P 1'
_cell_length_a   3.30849413
_cell_length_b   3.30849413
_cell_length_c   37.57493700
_cell_angle_alpha   90.00000000
_cell_angle_beta   90.00000000
_cell_angle_gamma   120.00000256
_symmetry_Int_Tables_number   1
_chemical_formula_structural   Te2Mo3W(SeS2)2
_chemical_formula_sum   'Te2 Mo3 W1 Se2 S4'
_cell_volume   356.19647556
_cell_formula_units_Z   1
loop_
 _symmetry_equiv_pos_site_id
 _symmetry_equiv_pos_as_xyz
  1  'x, y, z'
loop_
 _atom_site_type_symbol
 _atom_site_label
 _atom_site_symmetry_multiplicity
 _atom_site_fract_x
 _atom_site_fract_y
 _atom_site_fract_z
 _atom_site_occupancy
  Te  Te0  1  0.66666700  0.33333300  0.04301800  1
  Te  Te1  1  0.66666700  0.33333300  0.14477600  1
  Mo  Mo0  1  0.33333300  0.66666700  0.09388400  1
  Mo  Mo1  1  0.33333300  0.66666700  0.46964900  1
  Mo  Mo2  1  0.66666700  0.33333300  0.28183300  1
  W  W0  1  0.66666700  0.33333300  0.65755000  1
  Se  Se0  1  0.33333300  0.66666700  0.70245300  1
  Se  Se1  1  0.33333300  0.66666700  0.61263600  1
  S  S0  1  0.33333300  0.66666700  0.32245500  1
  S  S1  1  0.66666700  0.33333300  0.42898500  1
  S  S2  1  0.66666700  0.33333300  0.51032800  1
  S  S3  1  0.33333300  0.66666700  0.24117900  1
loop_
_geom_bond_atom_site_label_1
_geom_bond_atom_site_label_2
_geom_bond_distance
_geom_bond_site_symmetry_2
Mo0 Te0 2.702170 1_565
Mo0 Te0 2.702170 1_455
Mo0 Te0 2.702174 1_555
Mo0 Te1 2.702861 1_455
Mo0 Te1 2.702861 1_565
Mo0 Te1 2.702865 1_555
Mo1 S1 2.446084 1_455
Mo1 S1 2.446084 1_565
Mo1 S1 2.446088 1_555
Mo1 S2 2.446436 1_455
Mo1 S2 2.446436 1_565
Mo1 S2 2.446441 1_555
Mo2 S0 2.445098 1_545
Mo2 S0 2.445098 1_655
Mo2 S0 2.445103 1_555
Mo2 S3 2.445849 1_545
Mo2 S3 2.445849 1_655
Mo2 S3 2.445854 1_555
Se0 W0 2.548615 1_565
Se0 W0 2.548615 1_455
Se0 W0 2.548620 1_555
Se1 W0 2.548889 1_455
Se1 W0 2.548889 1_565
Se1 W0 2.548893 1_555
