# generated using pymatgen
data_RbBa2I5
_symmetry_space_group_name_H-M   'P 1'
_cell_length_a   9.36097071
_cell_length_b   10.51322500
_cell_length_c   14.98083859
_cell_angle_alpha   90.05000317
_cell_angle_beta   90.00000000
_cell_angle_gamma   90.00000000
_symmetry_Int_Tables_number   1
_chemical_formula_structural   RbBa2I5
_chemical_formula_sum   'Rb4 Ba8 I20'
_cell_volume   1474.32355792
_cell_formula_units_Z   4
loop_
 _symmetry_equiv_pos_site_id
 _symmetry_equiv_pos_as_xyz
  1  'x, y, z'
loop_
 _atom_site_type_symbol
 _atom_site_label
 _atom_site_symmetry_multiplicity
 _atom_site_fract_x
 _atom_site_fract_y
 _atom_site_fract_z
 _atom_site_occupancy
  Rb  Rb0  1  0.46090042  0.49364636  0.82829430  1
  Rb  Rb1  1  0.53909958  0.50635364  0.17170570  1
  Rb  Rb2  1  0.96090042  0.50635364  0.67170570  1
  Rb  Rb3  1  0.03909958  0.49364636  0.32829430  1
  Ba  Ba0  1  0.47377429  0.99909164  0.82197320  1
  Ba  Ba1  1  0.52622571  0.00090836  0.17802680  1
  Ba  Ba2  1  0.97377429  0.00090836  0.67802680  1
  Ba  Ba3  1  0.02622571  0.99909164  0.32197320  1
  Ba  Ba4  1  0.42433222  0.74832553  0.50763439  1
  Ba  Ba5  1  0.57566778  0.25167447  0.49236561  1
  Ba  Ba6  1  0.92433222  0.25167447  0.99236561  1
  Ba  Ba7  1  0.07566778  0.74832553  0.00763439  1
  I  I0  1  0.33030203  0.45900800  0.59335757  1
  I  I1  1  0.66969797  0.54099200  0.40664243  1
  I  I2  1  0.83030203  0.54099200  0.90664243  1
  I  I3  1  0.16969797  0.45900800  0.09335757  1
  I  I4  1  0.66922379  0.77909198  0.68430715  1
  I  I5  1  0.33077621  0.22090802  0.31569285  1
  I  I6  1  0.16922379  0.22090802  0.81569285  1
  I  I7  1  0.83077621  0.77909198  0.18430715  1
  I  I8  1  0.19515493  0.76584480  0.78116011  1
  I  I9  1  0.80484507  0.23415520  0.21883989  1
  I  I10  1  0.69515493  0.23415520  0.71883989  1
  I  I11  1  0.30484507  0.76584480  0.28116011  1
  I  I12  1  0.04040627  0.77425657  0.50213387  1
  I  I13  1  0.95959373  0.22574343  0.49786613  1
  I  I14  1  0.54040627  0.22574343  0.99786613  1
  I  I15  1  0.45959373  0.77425657  0.00213387  1
  I  I16  1  0.83590523  0.95766789  0.90160833  1
  I  I17  1  0.16409477  0.04233211  0.09839167  1
  I  I18  1  0.33590523  0.04233211  0.59839167  1
  I  I19  1  0.66409477  0.95766789  0.40160833  1
loop_
_geom_bond_atom_site_label_1
_geom_bond_atom_site_label_2
_geom_bond_distance
_geom_bond_site_symmetry_2
Ba0 I10 3.577087 1_565
Ba0 I15 3.591713 1_556
Ba0 I4 3.597490 1_555
Ba0 I14 3.605464 1_565
Ba0 I18 3.618518 1_565
Ba0 I16 3.620113 1_555
Ba0 I8 3.631365 1_555
Ba0 I6 3.684433 1_565
Ba1 I11 3.577087 1_545
Ba1 I14 3.591713 1_554
Ba1 I5 3.597490 1_555
Ba1 I15 3.605464 1_545
Ba1 I19 3.618518 1_545
Ba1 I17 3.620113 1_555
Ba1 I9 3.631365 1_555
Ba1 I7 3.684433 1_545
Ba2 I8 3.577087 1_645
Ba2 I13 3.591713 1_555
Ba2 I6 3.597490 1_655
Ba2 I12 3.605464 1_645
Ba2 I16 3.618518 1_545
Ba2 I18 3.620113 1_655
Ba2 I10 3.631365 1_555
Ba2 I4 3.684433 1_545
Ba3 I9 3.577087 1_465
Ba3 I12 3.591713 1_555
Ba3 I7 3.597490 1_455
Ba3 I13 3.605464 1_465
Ba3 I17 3.618518 1_565
Ba3 I19 3.620113 1_455
Ba3 I11 3.631365 1_555
Ba3 I5 3.684433 1_565
Ba4 I0 3.417963 1_555
Ba4 I18 3.475693 1_565
Ba4 I1 3.508575 1_555
Ba4 I4 3.516160 1_555
Ba4 I19 3.522806 1_555
Ba4 I11 3.577291 1_555
Ba4 I12 3.605192 1_555
Ba5 I1 3.417963 1_555
Ba5 I19 3.475693 1_545
Ba5 I0 3.508575 1_555
Ba5 I5 3.516160 1_555
Ba5 I18 3.522806 1_555
Ba5 I10 3.577291 1_555
Ba5 I13 3.605192 1_555
Ba6 I2 3.417963 1_555
Ba6 I16 3.475693 1_545
Ba6 I3 3.508575 1_656
Ba6 I6 3.516160 1_655
Ba6 I17 3.522806 1_656
Ba6 I9 3.577291 1_556
Ba6 I14 3.605192 1_555
Ba7 I3 3.417963 1_555
Ba7 I17 3.475693 1_565
Ba7 I2 3.508575 1_454
Ba7 I7 3.516160 1_455
Ba7 I16 3.522806 1_454
Ba7 I8 3.577291 1_554
Ba7 I15 3.605192 1_555
I0 Rb2 3.685354 1_455
I0 Rb0 3.743284 1_555
I1 Rb3 3.685354 1_655
I1 Rb1 3.743284 1_555
I2 Rb0 3.685354 1_555
I2 Rb2 3.743284 1_555
I3 Rb1 3.685354 1_555
I3 Rb3 3.743284 1_555
I4 Rb2 3.963761 1_555
I4 Rb0 4.180049 1_555
I5 Rb3 3.963761 1_555
I5 Rb1 4.180049 1_555
I6 Rb0 3.963761 1_555
I6 Rb2 4.180049 1_455
I7 Rb1 3.963761 1_555
I7 Rb3 4.180049 1_655
I8 Rb0 3.857419 1_555
I8 Rb2 3.864185 1_455
I9 Rb1 3.857419 1_555
I9 Rb3 3.864185 1_655
I10 Rb2 3.857419 1_555
I10 Rb0 3.864185 1_555
I11 Rb3 3.857419 1_555
I11 Rb1 3.864185 1_555
I12 Rb2 3.866843 1_455
I12 Rb3 3.933462 1_555
I13 Rb3 3.866843 1_655
I13 Rb2 3.933462 1_555
I14 Rb0 3.866843 1_555
I14 Rb1 3.933462 1_556
I15 Rb1 3.866843 1_555
I15 Rb0 3.933462 1_554
