# generated using pymatgen
data_Li7Mn2(CoO4)3
_symmetry_space_group_name_H-M   'P 1'
_cell_length_a   3.02600200
_cell_length_b   6.00682693
_cell_length_c   12.38487535
_cell_angle_alpha   76.54145110
_cell_angle_beta   88.33953337
_cell_angle_gamma   86.07653876
_symmetry_Int_Tables_number   1
_chemical_formula_structural   Li7Mn2(CoO4)3
_chemical_formula_sum   'Li7 Mn2 Co3 O12'
_cell_volume   218.40092358
_cell_formula_units_Z   1
loop_
 _symmetry_equiv_pos_site_id
 _symmetry_equiv_pos_as_xyz
  1  'x, y, z'
loop_
 _atom_site_type_symbol
 _atom_site_label
 _atom_site_symmetry_multiplicity
 _atom_site_fract_x
 _atom_site_fract_y
 _atom_site_fract_z
 _atom_site_occupancy
  Li  Li0  1  0.00201900  0.16564700  0.66779800  1
  Li  Li1  1  0.50000000  0.00000000  0.50000000  1
  Li  Li2  1  0.50278800  0.32299500  0.83815500  1
  Li  Li3  1  0.00000000  0.50000000  0.00000000  1
  Li  Li4  1  0.49721200  0.67700500  0.16184500  1
  Li  Li5  1  0.99798100  0.83435300  0.33220200  1
  Li  Li6  1  0.00000000  0.00000000  0.00000000  1
  Mn  Mn0  1  0.99868400  0.66719300  0.66937100  1
  Mn  Mn1  1  0.00131600  0.33280700  0.33062900  1
  Co  Co0  1  0.50000000  0.50000000  0.50000000  1
  Co  Co1  1  0.49284900  0.15781800  0.15908500  1
  Co  Co2  1  0.50715100  0.84218200  0.84091500  1
  O  O0  1  0.52496900  0.90205900  0.68047500  1
  O  O1  1  0.99645400  0.74001400  0.50684600  1
  O  O2  1  0.02581800  0.06307600  0.83403800  1
  O  O3  1  0.50281100  0.24461500  0.01575200  1
  O  O4  1  0.02403100  0.40311500  0.17090900  1
  O  O5  1  0.52822900  0.57314100  0.34024000  1
  O  O6  1  0.47177100  0.42685900  0.65976000  1
  O  O7  1  0.00354600  0.25998600  0.49315400  1
  O  O8  1  0.97596900  0.59688500  0.82909100  1
  O  O9  1  0.49718900  0.75538500  0.98424800  1
  O  O10  1  0.97418200  0.93692400  0.16596200  1
  O  O11  1  0.47503100  0.09794100  0.31952500  1
loop_
_geom_bond_atom_site_label_1
_geom_bond_atom_site_label_2
_geom_bond_distance
_geom_bond_site_symmetry_2
Li0 O2 2.008919 1_555
Li0 O7 2.104451 1_555
Li0 O0 2.142785 1_545
Li0 O6 2.153692 1_455
Li0 O6 2.171804 1_555
Li0 O0 2.190744 1_445
Li1 O7 2.080283 1_555
Li1 O1 2.080283 1_545
Li1 O11 2.177009 1_555
Li1 O0 2.177009 1_545
Li1 O7 2.241505 1_655
Li1 O1 2.241505 1_445
Li2 O3 2.139511 1_556
Li2 O2 2.153916 1_655
Li2 O6 2.154499 1_555
Li2 O8 2.196847 1_455
Li2 O2 2.207503 1_555
Li2 O8 2.235305 1_555
Li3 O8 2.062538 1_454
Li3 O4 2.062538 1_555
Li3 O9 2.065150 1_454
Li3 O3 2.065150 1_555
Li3 O9 2.194176 1_554
Li3 O3 2.194176 1_455
Li4 O9 2.139511 1_554
Li4 O10 2.153916 1_455
Li4 O5 2.154499 1_555
Li4 O4 2.196847 1_655
Li4 O10 2.207503 1_555
Li4 O4 2.235305 1_555
Li5 O10 2.008919 1_555
Li5 O1 2.104451 1_555
Li5 O11 2.142785 1_565
Li5 O5 2.153692 1_655
Li5 O5 2.171804 1_555
Li5 O11 2.190744 1_665
Li6 O10 2.001660 1_445
Li6 O2 2.001660 1_554
Li6 O3 2.067482 1_455
Li6 O9 2.067482 1_544
Li6 O9 2.229044 1_444
Li6 O3 2.229044 1_555
Mn0 O8 1.924379 1_555
Mn0 O1 1.957932 1_555
Mn0 O0 1.966270 1_555
Mn0 O6 1.983669 1_655
Mn0 O0 2.226189 1_655
Mn0 O6 2.246442 1_555
Mn1 O4 1.924379 1_555
Mn1 O7 1.957932 1_555
Mn1 O11 1.966270 1_555
Mn1 O5 1.983669 1_455
Mn1 O11 2.226189 1_455
Mn1 O5 2.246442 1_555
Co0 O5 1.925074 1_555
Co0 O6 1.925074 1_555
Co0 O1 2.038700 1_455
Co0 O7 2.038700 1_655
Co0 O1 2.168697 1_555
Co0 O7 2.168697 1_555
Co1 O3 1.729789 1_555
Co1 O10 1.891928 1_545
Co1 O11 1.935027 1_555
Co1 O4 2.001853 1_555
Co1 O10 2.110869 1_445
Co1 O4 2.283485 1_655
Co2 O9 1.729789 1_555
Co2 O2 1.891928 1_565
Co2 O0 1.935027 1_555
Co2 O8 2.001853 1_555
Co2 O2 2.110869 1_665
Co2 O8 2.283485 1_455
