# generated using pymatgen
data_Y11Ta5O28
_symmetry_space_group_name_H-M   'P 1'
_cell_length_a   13.00181819
_cell_length_b   13.00181819
_cell_length_c   6.44460575
_cell_angle_alpha   80.55985292
_cell_angle_beta   80.55985292
_cell_angle_gamma   32.95033978
_symmetry_Int_Tables_number   1
_chemical_formula_structural   Y11Ta5O28
_chemical_formula_sum   'Y11 Ta5 O28'
_cell_volume   583.82917511
_cell_formula_units_Z   1
loop_
 _symmetry_equiv_pos_site_id
 _symmetry_equiv_pos_as_xyz
  1  'x, y, z'
loop_
 _atom_site_type_symbol
 _atom_site_label
 _atom_site_symmetry_multiplicity
 _atom_site_fract_x
 _atom_site_fract_y
 _atom_site_fract_z
 _atom_site_occupancy
  Y  Y0  1  0.12268400  0.12268400  0.71994100  1
  Y  Y1  1  0.00000000  0.00000000  0.50000000  1
  Y  Y2  1  0.62602700  0.62602700  0.77796400  1
  Y  Y3  1  0.50000000  0.00000000  0.50000000  1
  Y  Y4  1  0.24606300  0.75393700  0.00000000  1
  Y  Y5  1  0.75393700  0.24606300  0.00000000  1
  Y  Y6  1  0.00000000  0.50000000  0.50000000  1
  Y  Y7  1  0.37397300  0.37397300  0.22203600  1
  Y  Y8  1  0.25900500  0.25900500  0.98045700  1
  Y  Y9  1  0.87731600  0.87731600  0.28005900  1
  Y  Y10  1  0.74099500  0.74099500  0.01954300  1
  Ta  Ta0  1  0.50000000  0.50000000  0.50000000  1
  Ta  Ta1  1  0.10815000  0.63667600  0.75841000  1
  Ta  Ta2  1  0.36332400  0.89185000  0.24159000  1
  Ta  Ta3  1  0.89185000  0.36332400  0.24159000  1
  Ta  Ta4  1  0.63667600  0.10815000  0.75841000  1
  O  O0  1  0.90389500  0.90389500  0.62198900  1
  O  O1  1  0.35689200  0.35689200  0.85895700  1
  O  O2  1  0.25562100  0.65290900  0.64337300  1
  O  O3  1  0.65290900  0.25562100  0.64337300  1
  O  O4  1  0.71565900  0.71565900  0.70454900  1
  O  O5  1  0.21525400  0.21525400  0.69715500  1
  O  O6  1  0.46547300  0.46547300  0.23140700  1
  O  O7  1  0.97333200  0.97333200  0.19993600  1
  O  O8  1  0.87180600  0.41733900  0.53313700  1
  O  O9  1  0.12516100  0.67824900  0.03064500  1
  O  O10  1  0.74437900  0.34709100  0.35662700  1
  O  O11  1  0.34709100  0.74437900  0.35662700  1
  O  O12  1  0.67824900  0.12516100  0.03064500  1
  O  O13  1  0.41733900  0.87180600  0.53313700  1
  O  O14  1  0.64310800  0.64310800  0.14104300  1
  O  O15  1  0.09610500  0.09610500  0.37801100  1
  O  O16  1  0.87483900  0.32175100  0.96935500  1
  O  O17  1  0.12819400  0.58266100  0.46686300  1
  O  O18  1  0.58266100  0.12819400  0.46686300  1
  O  O19  1  0.98605200  0.42790600  0.16245500  1
  O  O20  1  0.32175100  0.87483900  0.96935500  1
  O  O21  1  0.42790600  0.98605200  0.16245500  1
  O  O22  1  0.02666800  0.02666800  0.80006400  1
  O  O23  1  0.28434100  0.28434100  0.29545100  1
  O  O24  1  0.78474600  0.78474600  0.30284500  1
  O  O25  1  0.53452700  0.53452700  0.76859300  1
  O  O26  1  0.57209400  0.01394800  0.83754500  1
  O  O27  1  0.01394800  0.57209400  0.83754500  1
loop_
_geom_bond_atom_site_label_1
_geom_bond_atom_site_label_2
_geom_bond_distance
_geom_bond_site_symmetry_2
O0 Ta4 2.043385 1_565
O0 Ta1 2.043385 1_655
O0 Y1 2.390954 1_665
O0 Y9 2.407227 1_555
O1 Ta4 2.069268 1_555
O1 Ta1 2.069268 1_555
O1 Y8 2.432561 1_555
O1 Y7 2.448976 1_556
O2 Ta0 1.984919 1_555
O2 Ta1 2.105257 1_555
O2 Y1 2.594784 1_565
O2 Y4 2.765104 1_556
O3 Ta0 1.984919 1_555
O3 Ta4 2.105257 1_555
O3 Y1 2.594784 1_655
O3 Y5 2.765104 1_556
O4 Y2 2.204001 1_555
O4 Y10 2.226840 1_556
O4 Y3 2.341786 1_565
O4 Y6 2.341786 1_655
O5 Y8 2.281455 1_555
O5 Y0 2.287788 1_555
O5 Y6 2.321114 1_555
O5 Y3 2.321114 1_555
O6 Ta0 2.060908 1_555
O6 Y7 2.292746 1_555
O6 Y4 2.456229 1_555
O6 Y5 2.456229 1_555
O7 Y1 2.149808 1_665
O7 Y4 2.258808 1_655
O7 Y5 2.258808 1_565
O7 Y9 2.361392 1_555
O8 Ta3 2.014071 1_555
O8 Y2 2.293890 1_555
O8 Y0 2.359829 1_655
O8 Y6 2.606352 1_655
O9 Ta1 2.014493 1_554
O9 Y9 2.309699 1_455
O9 Y7 2.422187 1_555
O9 Y4 2.430847 1_555
O10 Ta0 1.984919 1_555
O10 Ta3 2.105257 1_555
O10 Y1 2.594784 1_655
O10 Y5 2.765104 1_555
O11 Ta0 1.984919 1_555
O11 Ta2 2.105257 1_555
O11 Y1 2.594784 1_565
O11 Y4 2.765104 1_555
O12 Ta4 2.014493 1_554
O12 Y9 2.309699 1_545
O12 Y7 2.422187 1_555
O12 Y5 2.430847 1_555
O13 Ta2 2.014071 1_555
O13 Y2 2.293890 1_555
O13 Y0 2.359829 1_565
O13 Y3 2.606352 1_565
O14 Ta2 2.069268 1_555
O14 Ta3 2.069268 1_555
O14 Y10 2.432561 1_555
O14 Y2 2.448976 1_554
O15 Ta3 2.043385 1_455
O15 Ta2 2.043385 1_545
O15 Y1 2.390954 1_555
O15 Y0 2.407227 1_555
O16 Ta3 2.014493 1_556
O16 Y0 2.309699 1_655
O16 Y2 2.422187 1_555
O16 Y5 2.430847 1_556
O17 Ta1 2.014071 1_555
O17 Y7 2.293890 1_555
O17 Y9 2.359829 1_455
O17 Y6 2.606352 1_555
O18 Ta4 2.014071 1_555
O18 Y7 2.293890 1_555
O18 Y9 2.359829 1_545
O18 Y3 2.606352 1_555
O19 Ta3 1.961104 1_555
O19 Y8 2.278749 1_654
O19 Y10 2.352894 1_555
O19 Y6 2.593689 1_655
O20 Ta2 2.014493 1_556
O20 Y0 2.309699 1_565
O20 Y2 2.422187 1_555
O20 Y4 2.430847 1_556
O21 Ta2 1.961104 1_555
O21 Y8 2.278749 1_564
O21 Y10 2.352894 1_555
O21 Y3 2.593689 1_565
O22 Y1 2.149808 1_555
O22 Y5 2.258808 1_456
O22 Y4 2.258808 1_546
O22 Y0 2.361392 1_555
O23 Y7 2.204001 1_555
O23 Y8 2.226840 1_554
O23 Y6 2.341786 1_555
O23 Y3 2.341786 1_555
O24 Y10 2.281455 1_555
O24 Y9 2.287788 1_555
O24 Y6 2.321114 1_655
O24 Y3 2.321114 1_565
O25 Ta0 2.060908 1_555
O25 Y2 2.292746 1_555
O25 Y5 2.456229 1_556
O25 Y4 2.456229 1_556
O26 Ta4 1.961104 1_555
O26 Y10 2.278749 1_546
O26 Y8 2.352894 1_555
O26 Y3 2.593689 1_555
O27 Ta1 1.961104 1_555
O27 Y10 2.278749 1_456
O27 Y8 2.352894 1_555
O27 Y6 2.593689 1_555
