# generated using pymatgen
data_Li9Mn2Co5O16
_symmetry_space_group_name_H-M   'P 1'
_cell_length_a   2.91023700
_cell_length_b   8.35269251
_cell_length_c   11.88019699
_cell_angle_alpha   89.27144567
_cell_angle_beta   90.00000000
_cell_angle_gamma   90.00000000
_symmetry_Int_Tables_number   1
_chemical_formula_structural   Li9Mn2Co5O16
_chemical_formula_sum   'Li9 Mn2 Co5 O16'
_cell_volume   288.76422175
_cell_formula_units_Z   1
loop_
 _symmetry_equiv_pos_site_id
 _symmetry_equiv_pos_as_xyz
  1  'x, y, z'
loop_
 _atom_site_type_symbol
 _atom_site_label
 _atom_site_symmetry_multiplicity
 _atom_site_fract_x
 _atom_site_fract_y
 _atom_site_fract_z
 _atom_site_occupancy
  Li  Li0  1  0.50000000  0.25469600  0.12341900  1
  Li  Li1  1  0.50000000  0.74530400  0.37658100  1
  Li  Li2  1  0.50000000  0.26413500  0.63085700  1
  Li  Li3  1  0.00000000  0.49933500  0.99599700  1
  Li  Li4  1  0.00000000  0.00000000  0.25000000  1
  Li  Li5  1  0.00000000  0.50066500  0.50400300  1
  Li  Li6  1  0.50000000  0.73586500  0.86914300  1
  Li  Li7  1  0.00000000  0.00000000  0.75000000  1
  Li  Li8  1  0.00000000  0.50000000  0.75000000  1
  Mn  Mn0  1  0.00000000  0.00110500  0.99790100  1
  Mn  Mn1  1  0.00000000  0.99889500  0.50209900  1
  Co  Co0  1  0.00000000  0.50000000  0.25000000  1
  Co  Co1  1  0.50000000  0.27492500  0.86817100  1
  Co  Co2  1  0.50000000  0.74396400  0.12667300  1
  Co  Co3  1  0.50000000  0.25603600  0.37332700  1
  Co  Co4  1  0.50000000  0.72507500  0.63182900  1
  O  O0  1  0.50000000  0.99907100  0.11031200  1
  O  O1  1  0.50000000  0.49601500  0.36884900  1
  O  O2  1  0.50000000  0.00268300  0.60920700  1
  O  O3  1  0.00000000  0.22939200  0.99214800  1
  O  O4  1  0.00000000  0.75190300  0.24181800  1
  O  O5  1  0.00000000  0.23514000  0.49082600  1
  O  O6  1  0.50000000  0.48841700  0.87908800  1
  O  O7  1  0.00000000  0.75657400  0.74045000  1
  O  O8  1  0.50000000  0.50398500  0.13115100  1
  O  O9  1  0.50000000  0.00092900  0.38968800  1
  O  O10  1  0.50000000  0.51158300  0.62091200  1
  O  O11  1  0.00000000  0.76486000  0.00917400  1
  O  O12  1  0.00000000  0.24809700  0.25818200  1
  O  O13  1  0.00000000  0.77060800  0.50785200  1
  O  O14  1  0.50000000  0.99731700  0.89079300  1
  O  O15  1  0.00000000  0.24342600  0.75955000  1
loop_
_geom_bond_atom_site_label_1
_geom_bond_atom_site_label_2
_geom_bond_distance
_geom_bond_site_symmetry_2
Li0 O8 2.085426 1_555
Li0 O0 2.142801 1_545
Li0 O3 2.145354 1_654
Li0 O3 2.145354 1_554
Li0 O12 2.163654 1_655
Li0 O12 2.163654 1_555
Li1 O1 2.085426 1_555
Li1 O9 2.142801 1_565
Li1 O13 2.145354 1_655
Li1 O13 2.145354 1_555
Li1 O4 2.163654 1_555
Li1 O4 2.163654 1_655
Li2 O10 2.068731 1_555
Li2 O15 2.116151 1_655
Li2 O15 2.116151 1_555
Li2 O2 2.202168 1_555
Li2 O5 2.225718 1_655
Li2 O5 2.225718 1_555
Li3 O6 2.014437 1_455
Li3 O6 2.014437 1_555
Li3 O8 2.167625 1_556
Li3 O8 2.167625 1_456
Li3 O11 2.225351 1_556
Li3 O3 2.255796 1_555
Li4 O12 2.075791 1_555
Li4 O4 2.075791 1_545
Li4 O0 2.207208 1_445
Li4 O9 2.207208 1_455
Li4 O0 2.207208 1_545
Li4 O9 2.207208 1_555
Li5 O10 2.014437 1_455
Li5 O10 2.014437 1_555
Li5 O1 2.167625 1_455
Li5 O1 2.167625 1_555
Li5 O5 2.225351 1_555
Li5 O13 2.255796 1_555
Li6 O6 2.068731 1_555
Li6 O7 2.116151 1_655
Li6 O7 2.116151 1_555
Li6 O14 2.202168 1_555
Li6 O11 2.225718 1_656
Li6 O11 2.225718 1_556
Li7 O15 2.037865 1_555
Li7 O7 2.037865 1_545
Li7 O14 2.216906 1_545
Li7 O14 2.216906 1_445
Li7 O2 2.216906 1_455
Li7 O2 2.216906 1_555
Li8 O10 2.115386 1_455
Li8 O10 2.115386 1_555
Li8 O6 2.115386 1_455
Li8 O6 2.115386 1_555
Li8 O7 2.144644 1_555
Li8 O15 2.144644 1_555
Mn0 O3 1.907167 1_555
Mn0 O14 1.933536 1_445
Mn0 O14 1.933536 1_545
Mn0 O0 1.974980 1_546
Mn0 O0 1.974980 1_446
Mn0 O11 1.976122 1_546
Mn1 O13 1.907167 1_555
Mn1 O2 1.933536 1_565
Mn1 O2 1.933536 1_465
Mn1 O9 1.974980 1_565
Mn1 O9 1.974980 1_465
Mn1 O5 1.976122 1_565
Co0 O8 2.027532 1_555
Co0 O1 2.027532 1_455
Co0 O8 2.027532 1_455
Co0 O1 2.027532 1_555
Co0 O4 2.105077 1_555
Co0 O12 2.105077 1_555
Co1 O6 1.789587 1_555
Co1 O15 1.964805 1_655
Co1 O15 1.964805 1_555
Co1 O3 2.101694 1_555
Co1 O3 2.101694 1_655
Co1 O14 2.330900 1_545
Co2 O4 1.998837 1_555
Co2 O4 1.998837 1_655
Co2 O8 2.004500 1_555
Co2 O11 2.022426 1_655
Co2 O11 2.022426 1_555
Co2 O0 2.137214 1_555
Co3 O12 1.998837 1_655
Co3 O12 1.998837 1_555
Co3 O1 2.004500 1_555
Co3 O5 2.022426 1_555
Co3 O5 2.022426 1_655
Co3 O9 2.137214 1_555
Co4 O10 1.789587 1_555
Co4 O7 1.964805 1_655
Co4 O7 1.964805 1_555
Co4 O13 2.101694 1_555
Co4 O13 2.101694 1_655
Co4 O2 2.330900 1_565
