# generated using pymatgen
data_Na2Cd2Fe(PO4)3
_symmetry_space_group_name_H-M   'P 1'
_cell_length_a   8.97639775
_cell_length_b   8.97639775
_cell_length_c   6.70029315
_cell_angle_alpha   72.96610006
_cell_angle_beta   72.96610006
_cell_angle_gamma   92.15005666
_symmetry_Int_Tables_number   1
_chemical_formula_structural   Na2Cd2Fe(PO4)3
_chemical_formula_sum   'Na4 Cd4 Fe2 P6 O24'
_cell_volume   489.04062784
_cell_formula_units_Z   2
loop_
 _symmetry_equiv_pos_site_id
 _symmetry_equiv_pos_as_xyz
  1  'x, y, z'
loop_
 _atom_site_type_symbol
 _atom_site_label
 _atom_site_symmetry_multiplicity
 _atom_site_fract_x
 _atom_site_fract_y
 _atom_site_fract_z
 _atom_site_occupancy
  Na  Na0  1  0.02802400  0.97197600  0.00000000  1
  Na  Na1  1  0.98014700  0.01985300  0.50000000  1
  Na  Na2  1  0.50155900  0.50060000  0.24649100  1
  Na  Na3  1  0.49940000  0.49844100  0.75350900  1
  Cd  Cd0  1  0.92299100  0.62514200  0.39860000  1
  Cd  Cd1  1  0.37485800  0.07700900  0.60140000  1
  Cd  Cd2  1  0.27392400  0.72607600  0.50000000  1
  Cd  Cd3  1  0.72844100  0.27155900  0.00000000  1
  Fe  Fe0  1  0.06787300  0.38486600  0.11172300  1
  Fe  Fe1  1  0.61513400  0.93212700  0.88827700  1
  P  P0  1  0.28743500  0.71256500  0.00000000  1
  P  P1  1  0.72307100  0.27692900  0.50000000  1
  P  P2  1  0.65826600  0.87514100  0.37472600  1
  P  P3  1  0.12485900  0.34173400  0.62527400  1
  P  P4  1  0.34196900  0.13313800  0.11716700  1
  P  P5  1  0.86686200  0.65803100  0.88283300  1
  O  O0  1  0.26166300  0.53777300  0.00466700  1
  O  O1  1  0.46222700  0.73833700  0.99533300  1
  O  O2  1  0.73269000  0.42961200  0.55761500  1
  O  O3  1  0.57038800  0.26731000  0.44238500  1
  O  O4  1  0.18116200  0.74544500  0.20605500  1
  O  O5  1  0.25455500  0.81883800  0.79394500  1
  O  O6  1  0.85438600  0.26221000  0.29223400  1
  O  O7  1  0.73779000  0.14561400  0.70776600  1
  O  O8  1  0.83491300  0.85846200  0.33511800  1
  O  O9  1  0.14153800  0.16508700  0.66488200  1
  O  O10  1  0.17891700  0.19013100  0.10961000  1
  O  O11  1  0.80986900  0.82108300  0.89039000  1
  O  O12  1  0.55057000  0.71967300  0.42888100  1
  O  O13  1  0.28032700  0.44943000  0.57111900  1
  O  O14  1  0.45990500  0.27570700  0.08105900  1
  O  O15  1  0.72429300  0.54009500  0.91894100  1
  O  O16  1  0.60470000  0.94479600  0.56758900  1
  O  O17  1  0.05520400  0.39530000  0.43241100  1
  O  O18  1  0.40947900  0.05421000  0.93568300  1
  O  O19  1  0.94579000  0.59052100  0.06431700  1
  O  O20  1  0.64713300  0.99405100  0.15327000  1
  O  O21  1  0.00594900  0.35286700  0.84673000  1
  O  O22  1  0.30570700  0.00396300  0.34430400  1
  O  O23  1  0.99603700  0.69429300  0.65569600  1
loop_
_geom_bond_atom_site_label_1
_geom_bond_atom_site_label_2
_geom_bond_distance
_geom_bond_site_symmetry_2
Na0 O8 2.309004 1_455
Na0 O9 2.309004 1_564
Na0 O11 2.726733 1_454
Na0 O10 2.726733 1_565
Na0 O5 2.758157 1_554
Na0 O4 2.758157 1_555
Na1 O9 2.580426 1_655
Na1 O8 2.580426 1_545
Na1 O10 2.660913 1_655
Na1 O11 2.660913 1_545
Na1 O6 2.697356 1_555
Na1 O7 2.697356 1_555
Na1 O22 2.825090 1_655
Na1 O23 2.825090 1_545
Na2 O3 2.334870 1_555
Na2 O13 2.387734 1_555
Na2 O1 2.410655 1_554
Na2 O15 2.420722 1_554
Na2 O14 2.634554 1_555
Na2 O12 2.685535 1_555
Na3 O2 2.334870 1_555
Na3 O12 2.387734 1_555
Na3 O0 2.410655 1_556
Na3 O14 2.420722 1_556
Na3 O15 2.634554 1_555
Na3 O13 2.685535 1_555
Cd0 O2 2.178735 1_555
Cd0 O8 2.234223 1_555
Cd0 O23 2.245065 1_555
Cd0 O19 2.301992 1_555
Cd0 O4 2.333552 1_655
Cd0 O17 2.404957 1_655
Cd1 O3 2.178735 1_555
Cd1 O9 2.234223 1_555
Cd1 O22 2.245065 1_555
Cd1 O18 2.301992 1_555
Cd1 O5 2.333552 1_545
Cd1 O16 2.404957 1_545
Cd2 O5 2.318106 1_555
Cd2 O4 2.318106 1_555
Cd2 O22 2.374762 1_565
Cd2 O23 2.374762 1_455
Cd2 O12 2.393856 1_555
Cd2 O13 2.393856 1_555
Cd3 O15 2.314816 1_554
Cd3 O14 2.314816 1_555
Cd3 O20 2.391276 1_545
Cd3 O21 2.391276 1_654
Cd3 O7 2.515330 1_554
Cd3 O6 2.515330 1_555
Fe0 O0 1.984290 1_555
Fe0 O6 2.012713 1_455
Fe0 O10 2.046045 1_555
Fe0 O21 2.099767 1_554
Fe0 O17 2.148063 1_555
Fe0 O19 2.172987 1_455
Fe1 O1 1.984290 1_555
Fe1 O7 2.012713 1_565
Fe1 O11 2.046045 1_555
Fe1 O20 2.099767 1_556
Fe1 O16 2.148063 1_555
Fe1 O18 2.172987 1_565
O0 P0 1.567178 1_555
O1 P0 1.567178 1_556
O2 P1 1.534762 1_555
O3 P1 1.534762 1_555
O4 P0 1.546447 1_555
O5 P0 1.546447 1_556
O6 P1 1.582048 1_555
O7 P1 1.582048 1_555
O8 P2 1.549739 1_555
O9 P3 1.549739 1_555
O10 P4 1.578258 1_555
O11 P5 1.578258 1_555
O12 P2 1.552527 1_555
O13 P3 1.552527 1_555
O14 P4 1.543995 1_555
O15 P5 1.543995 1_555
O16 P2 1.556893 1_555
O17 P3 1.556893 1_555
O18 P4 1.566227 1_556
O19 P5 1.566227 1_554
O20 P2 1.586816 1_555
O21 P3 1.586816 1_555
O22 P4 1.553758 1_555
O23 P5 1.553758 1_555
