# generated using pymatgen
data_Sm2Ga5Fe12
_symmetry_space_group_name_H-M   'P 1'
_cell_length_a   6.55999657
_cell_length_b   6.55999657
_cell_length_c   6.55999637
_cell_angle_alpha   82.53201378
_cell_angle_beta   82.53201378
_cell_angle_gamma   82.53201366
_symmetry_Int_Tables_number   1
_chemical_formula_structural   Sm2Ga5Fe12
_chemical_formula_sum   'Sm2 Ga5 Fe12'
_cell_volume   275.68913044
_cell_formula_units_Z   1
loop_
 _symmetry_equiv_pos_site_id
 _symmetry_equiv_pos_as_xyz
  1  'x, y, z'
loop_
 _atom_site_type_symbol
 _atom_site_label
 _atom_site_symmetry_multiplicity
 _atom_site_fract_x
 _atom_site_fract_y
 _atom_site_fract_z
 _atom_site_occupancy
  Sm  Sm0  1  0.65142300  0.65142300  0.65142300  1
  Sm  Sm1  1  0.34857700  0.34857700  0.34857700  1
  Ga  Ga0  1  0.00000000  0.00000000  0.50000000  1
  Ga  Ga1  1  0.50000000  0.00000000  0.00000000  1
  Ga  Ga2  1  0.00000000  0.50000000  0.00000000  1
  Ga  Ga3  1  0.90385300  0.90385300  0.90385300  1
  Ga  Ga4  1  0.09614700  0.09614700  0.09614700  1
  Fe  Fe0  1  0.69562200  0.30437800  0.00000000  1
  Fe  Fe1  1  0.00000000  0.69562200  0.30437800  1
  Fe  Fe2  1  0.30437800  0.00000000  0.69562200  1
  Fe  Fe3  1  0.00000000  0.30437800  0.69562200  1
  Fe  Fe4  1  0.69562200  0.00000000  0.30437800  1
  Fe  Fe5  1  0.30437800  0.69562200  0.00000000  1
  Fe  Fe6  1  0.34253900  0.34253900  0.83596300  1
  Fe  Fe7  1  0.83596300  0.34253900  0.34253900  1
  Fe  Fe8  1  0.34253900  0.83596300  0.34253900  1
  Fe  Fe9  1  0.65746100  0.65746100  0.16403700  1
  Fe  Fe10  1  0.16403700  0.65746100  0.65746100  1
  Fe  Fe11  1  0.65746100  0.16403700  0.65746100  1
loop_
_geom_bond_atom_site_label_1
_geom_bond_atom_site_label_2
_geom_bond_distance
_geom_bond_site_symmetry_2
Ga0 Ga3 2.654991 1_445
Ga0 Ga4 2.654991 1_555
Ga0 Sm1 3.409207 1_555
Ga0 Sm0 3.409207 1_445
Ga1 Ga3 2.654991 1_544
Ga1 Ga4 2.654991 1_555
Ga1 Sm1 3.409207 1_555
Ga1 Sm0 3.409207 1_544
Ga2 Ga3 2.654991 1_454
Ga2 Ga4 2.654991 1_555
Ga2 Sm1 3.409207 1_555
Ga2 Sm0 3.409207 1_454
Ga3 Ga4 2.452481 1_666
Ga3 Sm0 3.219444 1_555
Ga4 Sm1 3.219444 1_555
Fe0 Ga1 2.509932 1_555
Fe0 Ga2 2.509932 1_655
Fe0 Fe11 2.589088 1_554
Fe0 Fe7 2.589088 1_555
Fe0 Fe4 2.633895 1_555
Fe0 Fe3 2.633895 1_654
Fe0 Fe9 2.648143 1_555
Fe0 Fe6 2.648143 1_554
Fe0 Ga4 2.905352 1_655
Fe0 Ga3 2.905352 1_544
Fe0 Sm1 3.023805 1_555
Fe0 Sm0 3.023805 1_554
Fe1 Ga2 2.509932 1_555
Fe1 Ga0 2.509932 1_565
Fe1 Fe9 2.589088 1_455
Fe1 Fe8 2.589088 1_555
Fe1 Fe5 2.633895 1_555
Fe1 Fe4 2.633895 1_465
Fe1 Fe10 2.648143 1_555
Fe1 Fe7 2.648143 1_455
Fe1 Ga3 2.905352 1_454
Fe1 Ga4 2.905352 1_565
Fe1 Sm0 3.023805 1_455
Fe1 Sm1 3.023805 1_555
Fe2 Ga1 2.509932 1_556
Fe2 Ga0 2.509932 1_555
Fe2 Fe6 2.589088 1_555
Fe2 Fe5 2.633895 1_546
Fe2 Fe3 2.633895 1_555
Fe2 Fe8 2.648143 1_545
Fe2 Ga4 2.905352 1_556
Fe2 Ga3 2.905352 1_445
Fe2 Sm1 3.023805 1_555
Fe2 Sm0 3.023805 1_545
Fe3 Ga2 2.509932 1_556
Fe3 Ga0 2.509932 1_555
Fe3 Fe6 2.589088 1_555
Fe3 Fe7 2.648143 1_455
Fe3 Ga4 2.905352 1_556
Fe3 Ga3 2.905352 1_445
Fe3 Sm1 3.023805 1_555
Fe3 Sm0 3.023805 1_455
Fe4 Ga1 2.509932 1_555
Fe4 Ga0 2.509932 1_655
Fe4 Fe9 2.589088 1_545
Fe4 Fe7 2.589088 1_555
Fe4 Fe8 2.648143 1_545
Fe4 Ga3 2.905352 1_544
Fe4 Ga4 2.905352 1_655
Fe4 Sm0 3.023805 1_545
Fe4 Sm1 3.023805 1_555
Fe5 Ga2 2.509932 1_555
Fe5 Ga1 2.509932 1_565
Fe5 Fe8 2.589088 1_555
Fe5 Fe9 2.648143 1_555
Fe5 Fe6 2.648143 1_554
Fe5 Ga4 2.905352 1_565
Fe5 Ga3 2.905352 1_454
Fe5 Sm1 3.023805 1_555
Fe5 Sm0 3.023805 1_554
Fe6 Ga1 2.516191 1_556
Fe6 Ga2 2.516191 1_556
Fe6 Ga4 2.717186 1_556
Fe6 Sm0 3.077193 1_555
Fe6 Sm1 3.187494 1_555
Fe6 Sm1 3.373552 1_556
Fe7 Fe9 2.471641 1_555
Fe7 Ga2 2.516191 1_655
Fe7 Ga0 2.516191 1_655
Fe7 Ga4 2.717186 1_655
Fe7 Sm0 3.077193 1_555
Fe7 Sm1 3.187494 1_555
Fe7 Sm1 3.373552 1_655
Fe8 Fe9 2.471641 1_555
Fe8 Ga1 2.516191 1_565
Fe8 Ga0 2.516191 1_565
Fe8 Ga4 2.717186 1_565
Fe8 Sm0 3.077193 1_555
Fe8 Sm1 3.187494 1_555
Fe8 Sm1 3.373552 1_565
Fe9 Ga2 2.516191 1_655
Fe9 Ga1 2.516191 1_565
Fe9 Ga3 2.717186 1_554
Fe9 Sm1 3.077193 1_555
Fe9 Sm0 3.187494 1_555
Fe9 Sm0 3.373552 1_554
Fe10 Fe8 2.471641 1_555
Fe10 Fe6 2.471641 1_555
Fe10 Ga2 2.516191 1_556
Fe10 Ga0 2.516191 1_565
Fe10 Fe5 2.589088 1_556
Fe10 Fe2 2.589088 1_565
Fe10 Fe3 2.648143 1_555
Fe10 Ga3 2.717186 1_455
Fe10 Sm1 3.077193 1_555
Fe10 Sm0 3.187494 1_555
Fe10 Sm0 3.373552 1_455
Fe11 Fe7 2.471641 1_555
Fe11 Fe6 2.471641 1_555
Fe11 Ga1 2.516191 1_556
Fe11 Ga0 2.516191 1_655
Fe11 Fe3 2.589088 1_655
Fe11 Fe4 2.648143 1_555
Fe11 Fe2 2.648143 1_555
Fe11 Ga3 2.717186 1_545
Fe11 Sm1 3.077193 1_555
Fe11 Sm0 3.187494 1_555
Fe11 Sm0 3.373552 1_545
