# generated using pymatgen
data_Cs3H(SF6)2
_symmetry_space_group_name_H-M   'P 1'
_cell_length_a   6.65168800
_cell_length_b   10.20959100
_cell_length_c   10.80207600
_cell_angle_alpha   90.00000000
_cell_angle_beta   90.00000000
_cell_angle_gamma   90.00000000
_symmetry_Int_Tables_number   1
_chemical_formula_structural   Cs3H(SF6)2
_chemical_formula_sum   'Cs6 H2 S4 F24'
_cell_volume   733.57993381
_cell_formula_units_Z   2
loop_
 _symmetry_equiv_pos_site_id
 _symmetry_equiv_pos_as_xyz
  1  'x, y, z'
loop_
 _atom_site_type_symbol
 _atom_site_label
 _atom_site_symmetry_multiplicity
 _atom_site_fract_x
 _atom_site_fract_y
 _atom_site_fract_z
 _atom_site_occupancy
  Cs  Cs0  1  0.99565900  0.50000000  0.50000000  1
  Cs  Cs1  1  0.99565900  0.00000000  0.00000000  1
  Cs  Cs2  1  0.50028100  0.30275600  0.19941600  1
  Cs  Cs3  1  0.50028100  0.19724400  0.69941600  1
  Cs  Cs4  1  0.50028100  0.69724400  0.80058400  1
  Cs  Cs5  1  0.50028100  0.80275600  0.30058400  1
  H  H0  1  0.50928600  0.50000000  0.50000000  1
  H  H1  1  0.50928600  0.00000000  0.00000000  1
  S  S0  1  0.00081300  0.11529800  0.38424600  1
  S  S1  1  0.00081300  0.38470200  0.88424600  1
  S  S2  1  0.00081300  0.88470200  0.61575400  1
  S  S3  1  0.00081300  0.61529800  0.11575400  1
  F  F0  1  0.81180200  0.04052900  0.29766500  1
  F  F1  1  0.81180200  0.45947100  0.79766500  1
  F  F2  1  0.81180200  0.95947100  0.70233500  1
  F  F3  1  0.81180200  0.54052900  0.20233500  1
  F  F4  1  0.19588100  0.70963300  0.04326000  1
  F  F5  1  0.19588100  0.79036700  0.54326000  1
  F  F6  1  0.19588100  0.29036700  0.95674000  1
  F  F7  1  0.19588100  0.20963300  0.45674000  1
  F  F8  1  0.81405700  0.21425900  0.45910200  1
  F  F9  1  0.81405700  0.28574100  0.95910200  1
  F  F10  1  0.81405700  0.78574100  0.54089800  1
  F  F11  1  0.81405700  0.71425900  0.04089800  1
  F  F12  1  0.18095900  0.53856000  0.20896100  1
  F  F13  1  0.18095900  0.96144000  0.70896100  1
  F  F14  1  0.18095900  0.46144000  0.79103900  1
  F  F15  1  0.18095900  0.03856000  0.29103900  1
  F  F16  1  0.00012300  0.22919600  0.27912200  1
  F  F17  1  0.00012300  0.27080400  0.77912200  1
  F  F18  1  0.00012300  0.77080400  0.72087800  1
  F  F19  1  0.00012300  0.72919600  0.22087800  1
  F  F20  1  0.51051100  0.02118600  0.10400000  1
  F  F21  1  0.51051100  0.47881400  0.60400000  1
  F  F22  1  0.51051100  0.97881400  0.89600000  1
  F  F23  1  0.51051100  0.52118600  0.39600000  1
loop_
_geom_bond_atom_site_label_1
_geom_bond_atom_site_label_2
_geom_bond_distance
_geom_bond_site_symmetry_2
Cs0 F10 3.188255 1_555
Cs0 F8 3.188255 1_555
Cs0 H0 3.235201 1_555
Cs0 F5 3.283371 1_655
Cs0 F7 3.283371 1_655
Cs0 F14 3.399680 1_655
Cs0 F12 3.399680 1_655
Cs0 H0 3.416487 1_655
Cs0 F23 3.423846 1_555
Cs0 F21 3.423846 1_555
Cs0 F3 3.464916 1_555
Cs0 F1 3.464916 1_555
Cs0 F23 3.610675 1_655
Cs0 F21 3.610675 1_655
Cs0 F18 3.652082 1_655
Cs0 F16 3.652082 1_655
Cs1 F9 3.188255 1_554
Cs1 F11 3.188255 1_545
Cs1 H1 3.235201 1_555
Cs1 F6 3.283371 1_654
Cs1 F4 3.283371 1_645
Cs1 F15 3.399680 1_655
Cs1 F13 3.399680 1_644
Cs1 H1 3.416487 1_655
Cs1 F22 3.423846 1_544
Cs1 F20 3.423846 1_555
Cs1 F0 3.464916 1_555
Cs1 F2 3.464916 1_544
Cs1 F22 3.610675 1_644
Cs1 F20 3.610675 1_655
Cs1 F17 3.652082 1_654
Cs1 F19 3.652082 1_645
Cs2 F20 3.054658 1_555
Cs2 F23 3.080131 1_555
Cs2 F3 3.191838 1_555
Cs2 F12 3.212166 1_555
Cs2 F6 3.314735 1_554
Cs2 F9 3.335412 1_554
Cs2 F16 3.515619 1_655
Cs2 F16 3.517607 1_555
Cs2 F0 3.547911 1_555
Cs2 F7 3.567911 1_555
Cs2 F15 3.573045 1_555
Cs2 F8 3.611281 1_555
Cs3 F21 3.054658 1_555
Cs3 F22 3.080131 1_545
Cs3 F2 3.191838 1_545
Cs3 F13 3.212166 1_545
Cs3 F7 3.314735 1_555
Cs3 F8 3.335412 1_555
Cs3 F17 3.515619 1_655
Cs3 F17 3.517607 1_555
Cs3 F1 3.547911 1_555
Cs3 F6 3.567911 1_555
Cs3 F14 3.573045 1_555
Cs3 F9 3.611281 1_555
Cs4 F22 3.054658 1_555
Cs4 F21 3.080131 1_555
Cs4 F1 3.191838 1_555
Cs4 F14 3.212166 1_555
Cs4 F4 3.314735 1_556
Cs4 F11 3.335412 1_556
Cs4 F18 3.515619 1_655
Cs4 F18 3.517607 1_555
Cs4 F2 3.547911 1_555
Cs4 F5 3.567911 1_555
Cs4 F13 3.573045 1_555
Cs4 F10 3.611281 1_555
Cs5 F23 3.054658 1_555
Cs5 F20 3.080131 1_565
Cs5 F0 3.191838 1_565
Cs5 F15 3.212166 1_565
Cs5 F5 3.314735 1_555
Cs5 F10 3.335412 1_555
Cs5 F19 3.515619 1_655
Cs5 F19 3.517607 1_555
Cs5 F3 3.547911 1_555
Cs5 F4 3.567911 1_555
Cs5 F12 3.573045 1_555
Cs5 F11 3.611281 1_555
F0 S0 1.743009 1_655
F1 S1 1.743009 1_655
F2 S2 1.743009 1_655
F3 S3 1.743009 1_655
F4 S3 1.795666 1_555
F5 S2 1.795666 1_555
F6 S1 1.795666 1_555
F7 S0 1.795666 1_555
F8 S0 1.793826 1_655
F9 S1 1.793826 1_655
F10 S2 1.793826 1_655
F11 S3 1.793826 1_655
F12 S3 1.750252 1_555
F13 S2 1.750252 1_555
F14 S1 1.750252 1_555
F15 S0 1.750252 1_555
F16 S0 1.625342 1_555
F17 S1 1.625342 1_555
F18 S2 1.625342 1_555
F19 S3 1.625342 1_555
F20 H1 1.144078 1_555
F21 H0 1.144078 1_555
F22 H1 1.144078 1_566
F23 H0 1.144078 1_555
