# generated using pymatgen
data_Mg6FeSn
_symmetry_space_group_name_H-M   'P 1'
_cell_length_a   4.92438000
_cell_length_b   6.34351200
_cell_length_c   10.72710500
_cell_angle_alpha   90.00000000
_cell_angle_beta   90.00000000
_cell_angle_gamma   90.00000000
_symmetry_Int_Tables_number   1
_chemical_formula_structural   Mg6FeSn
_chemical_formula_sum   'Mg12 Fe2 Sn2'
_cell_volume   335.09184305
_cell_formula_units_Z   2
loop_
 _symmetry_equiv_pos_site_id
 _symmetry_equiv_pos_as_xyz
  1  'x, y, z'
loop_
 _atom_site_type_symbol
 _atom_site_label
 _atom_site_symmetry_multiplicity
 _atom_site_fract_x
 _atom_site_fract_y
 _atom_site_fract_z
 _atom_site_occupancy
  Mg  Mg0  1  0.00000000  0.24420200  0.08423800  1
  Mg  Mg1  1  0.00000000  0.75579800  0.08423800  1
  Mg  Mg2  1  0.00000000  0.50000000  0.83689600  1
  Mg  Mg3  1  0.50000000  0.23844800  0.91016100  1
  Mg  Mg4  1  0.50000000  0.76155200  0.91016100  1
  Mg  Mg5  1  0.50000000  0.50000000  0.66641200  1
  Mg  Mg6  1  0.00000000  0.74420200  0.58423800  1
  Mg  Mg7  1  0.00000000  0.25579800  0.58423800  1
  Mg  Mg8  1  0.00000000  0.00000000  0.33689600  1
  Mg  Mg9  1  0.50000000  0.73844800  0.41016100  1
  Mg  Mg10  1  0.50000000  0.26155200  0.41016100  1
  Mg  Mg11  1  0.50000000  0.00000000  0.16641200  1
  Fe  Fe0  1  0.00000000  0.50000000  0.33921600  1
  Fe  Fe1  1  0.00000000  0.00000000  0.83921600  1
  Sn  Sn0  1  0.50000000  0.50000000  0.16867700  1
  Sn  Sn1  1  0.50000000  0.00000000  0.66867700  1
loop_
_geom_bond_atom_site_label_1
_geom_bond_atom_site_label_2
_geom_bond_distance
_geom_bond_site_symmetry_2
Mg0 Mg11 3.039590 1_555
Mg0 Mg11 3.039590 1_455
Mg0 Sn0 3.084776 1_555
Mg0 Sn0 3.084776 1_455
Mg0 Mg3 3.090417 1_554
Mg0 Mg3 3.090417 1_454
Mg0 Mg1 3.098197 1_545
Mg0 Mg2 3.110117 1_554
Mg0 Mg8 3.121758 1_555
Mg0 Mg1 3.245315 1_555
Mg1 Mg11 3.039590 1_565
Mg1 Mg11 3.039590 1_465
Mg1 Sn0 3.084776 1_555
Mg1 Sn0 3.084776 1_455
Mg1 Mg4 3.090417 1_454
Mg1 Mg4 3.090417 1_554
Mg1 Mg2 3.110117 1_554
Mg1 Mg8 3.121758 1_565
Mg2 Mg5 3.067065 1_555
Mg2 Mg5 3.067065 1_455
Mg2 Mg3 3.071296 1_455
Mg2 Mg4 3.071296 1_455
Mg2 Mg3 3.071296 1_555
Mg2 Mg4 3.071296 1_555
Mg2 Mg6 3.121758 1_555
Mg2 Mg7 3.121758 1_555
Mg3 Sn1 2.999708 1_555
Mg3 Mg4 3.025195 1_545
Mg3 Mg5 3.096704 1_555
Mg3 Sn0 3.231570 1_556
Mg3 Mg4 3.318317 1_555
Mg4 Sn1 2.999708 1_565
Mg4 Mg5 3.096704 1_555
Mg4 Sn0 3.231570 1_556
Mg5 Mg6 3.039590 1_555
Mg5 Mg6 3.039590 1_655
Mg5 Mg7 3.039590 1_555
Mg5 Mg7 3.039590 1_655
Mg5 Mg9 3.137519 1_555
Mg5 Sn1 3.171849 1_555
Mg5 Sn1 3.171849 1_565
Mg6 Sn1 3.084776 1_565
Mg6 Sn1 3.084776 1_465
Mg6 Mg9 3.090417 1_455
Mg6 Mg9 3.090417 1_555
Mg6 Mg7 3.098197 1_555
Mg6 Mg8 3.110117 1_565
Mg6 Mg7 3.245315 1_565
Mg7 Sn1 3.084776 1_555
Mg7 Sn1 3.084776 1_455
Mg7 Mg8 3.110117 1_555
Mg8 Mg9 3.071296 1_545
Mg8 Mg9 3.071296 1_445
Mg9 Sn0 2.999708 1_555
Mg9 Sn1 3.231570 1_565
Mg10 Sn0 2.999708 1_555
Mg10 Mg9 3.025195 1_555
Mg10 Mg8 3.071296 1_655
Mg10 Mg8 3.071296 1_555
Mg10 Mg7 3.090417 1_655
Mg10 Mg7 3.090417 1_555
Mg10 Mg11 3.096704 1_555
Mg10 Mg5 3.137519 1_555
Mg10 Sn1 3.231570 1_555
Mg10 Mg9 3.318317 1_545
Mg11 Mg8 3.067065 1_655
Mg11 Mg8 3.067065 1_555
Mg11 Mg9 3.096704 1_545
Mg11 Mg4 3.137519 1_544
Mg11 Mg3 3.137519 1_554
Mg11 Sn0 3.171849 1_555
Mg11 Sn0 3.171849 1_545
Fe0 Mg9 2.988228 1_555
Fe0 Mg9 2.988228 1_455
Fe0 Mg10 2.988228 1_455
Fe0 Mg10 2.988228 1_555
Fe0 Mg6 3.050913 1_555
Fe0 Mg7 3.050913 1_555
Fe0 Sn0 3.067417 1_455
Fe0 Sn0 3.067417 1_555
Fe0 Mg8 3.171854 1_565
Fe0 Mg8 3.171854 1_555
Fe0 Mg1 3.180284 1_555
Fe0 Mg0 3.180284 1_555
Fe1 Mg4 2.988228 1_545
Fe1 Mg3 2.988228 1_455
Fe1 Mg3 2.988228 1_555
Fe1 Mg4 2.988228 1_445
Fe1 Mg1 3.050913 1_546
Fe1 Mg0 3.050913 1_556
Fe1 Sn1 3.067417 1_555
Fe1 Sn1 3.067417 1_455
Fe1 Mg2 3.171854 1_555
Fe1 Mg2 3.171854 1_545
Fe1 Mg7 3.180284 1_555
Fe1 Mg6 3.180284 1_545
