# generated using pymatgen
data_Y2Co3Si
_symmetry_space_group_name_H-M   'P 1'
_cell_length_a   4.90668776
_cell_length_b   4.90668776
_cell_length_c   4.90668802
_cell_angle_alpha   64.77364573
_cell_angle_beta   64.77364573
_cell_angle_gamma   64.77364800
_symmetry_Int_Tables_number   1
_chemical_formula_structural   Y2Co3Si
_chemical_formula_sum   'Y2 Co3 Si1'
_cell_volume   92.25621015
_cell_formula_units_Z   1
loop_
 _symmetry_equiv_pos_site_id
 _symmetry_equiv_pos_as_xyz
  1  'x, y, z'
loop_
 _atom_site_type_symbol
 _atom_site_label
 _atom_site_symmetry_multiplicity
 _atom_site_fract_x
 _atom_site_fract_y
 _atom_site_fract_z
 _atom_site_occupancy
  Y  Y0  1  0.62677700  0.62677700  0.62677700  1
  Y  Y1  1  0.37322300  0.37322300  0.37322300  1
  Co  Co0  1  0.00000000  0.50000000  0.00000000  1
  Co  Co1  1  0.50000000  0.00000000  0.00000000  1
  Co  Co2  1  0.00000000  0.00000000  0.50000000  1
  Si  Si0  1  0.00000000  0.00000000  0.00000000  1
loop_
_geom_bond_atom_site_label_1
_geom_bond_atom_site_label_2
_geom_bond_distance
_geom_bond_site_symmetry_2
Y0 Y1 2.932823 1_555
Y0 Y1 3.171962 1_565
Y0 Y1 3.171962 1_655
Y0 Y1 3.171962 1_556
Co0 Si0 2.453344 1_565
Co0 Si0 2.453344 1_555
Co0 Co2 2.628182 1_555
Co0 Co2 2.628182 1_564
Co0 Co1 2.628182 1_555
Co0 Co1 2.628182 1_465
Co0 Y0 2.830329 1_454
Co0 Y1 2.830329 1_555
Co0 Y1 3.009602 1_455
Co0 Y0 3.009602 1_554
Co0 Y1 3.009602 1_554
Co0 Y0 3.009602 1_455
Co1 Si0 2.453344 1_555
Co1 Si0 2.453344 1_655
Co1 Co2 2.628182 1_555
Co1 Co2 2.628182 1_654
Co1 Y0 2.830329 1_544
Co1 Y1 2.830329 1_555
Co1 Y1 3.009602 1_545
Co1 Y0 3.009602 1_554
Co1 Y1 3.009602 1_554
Co1 Y0 3.009602 1_545
Co2 Si0 2.453344 1_556
Co2 Si0 2.453344 1_555
Co2 Y0 2.830328 1_445
Co2 Y1 2.830328 1_555
Co2 Y1 3.009602 1_455
Co2 Y1 3.009602 1_545
Co2 Y0 3.009602 1_545
Co2 Y0 3.009602 1_455
Si0 Y0 3.069638 1_445
Si0 Y1 3.069638 1_554
Si0 Y0 3.069638 1_544
Si0 Y0 3.069638 1_454
Si0 Y1 3.069638 1_455
Si0 Y1 3.069638 1_545
