# generated using pymatgen
data_V2(Ni7B2)3
_symmetry_space_group_name_H-M   'P 1'
_cell_length_a   7.31493606
_cell_length_b   7.31493606
_cell_length_c   7.31493606
_cell_angle_alpha   60.00000000
_cell_angle_beta   60.00000000
_cell_angle_gamma   60.00000000
_symmetry_Int_Tables_number   1
_chemical_formula_structural   V2(Ni7B2)3
_chemical_formula_sum   'V2 Ni21 B6'
_cell_volume   276.76846467
_cell_formula_units_Z   1
loop_
 _symmetry_equiv_pos_site_id
 _symmetry_equiv_pos_as_xyz
  1  'x, y, z'
loop_
 _atom_site_type_symbol
 _atom_site_label
 _atom_site_symmetry_multiplicity
 _atom_site_fract_x
 _atom_site_fract_y
 _atom_site_fract_z
 _atom_site_occupancy
  V  V0  1  0.25000000  0.25000000  0.25000000  1
  V  V1  1  0.75000000  0.75000000  0.75000000  1
  Ni  Ni0  1  0.34042407  0.00000000  -0.00000000  1
  Ni  Ni1  1  0.65957593  -0.00000000  0.00000000  1
  Ni  Ni2  1  0.00000000  0.34042407  0.65957593  1
  Ni  Ni3  1  -0.00000000  0.65957593  0.34042407  1
  Ni  Ni4  1  -0.00000000  0.34042407  0.00000000  1
  Ni  Ni5  1  0.65957593  -0.00000000  0.34042407  1
  Ni  Ni6  1  0.00000000  0.65957593  -0.00000000  1
  Ni  Ni7  1  0.34042407  0.00000000  0.65957593  1
  Ni  Ni8  1  -0.00000000  0.00000000  0.34042407  1
  Ni  Ni9  1  0.00000000  -0.00000000  0.65957593  1
  Ni  Ni10  1  0.65957593  0.34042407  -0.00000000  1
  Ni  Ni11  1  0.34042407  0.65957593  0.00000000  1
  Ni  Ni12  1  0.38140668  0.38140668  0.38140668  1
  Ni  Ni13  1  0.61859332  0.61859332  0.61859332  1
  Ni  Ni14  1  0.38140668  0.38140668  0.85578096  1
  Ni  Ni15  1  0.38140668  0.85578096  0.38140668  1
  Ni  Ni16  1  0.61859332  0.61859332  0.14421904  1
  Ni  Ni17  1  0.61859332  0.14421904  0.61859332  1
  Ni  Ni18  1  0.85578096  0.38140668  0.38140668  1
  Ni  Ni19  1  0.14421904  0.61859332  0.61859332  1
  Ni  Ni20  1  -0.00000000  0.00000000  -0.00000000  1
  B  B0  1  0.73091392  0.26908608  0.26908608  1
  B  B1  1  0.26908608  0.73091392  0.73091392  1
  B  B2  1  0.26908608  0.73091392  0.26908608  1
  B  B3  1  0.73091392  0.26908608  0.73091392  1
  B  B4  1  0.26908608  0.26908608  0.73091392  1
  B  B5  1  0.73091392  0.73091392  0.26908608  1
loop_
_geom_bond_atom_site_label_1
_geom_bond_atom_site_label_2
_geom_bond_distance
_geom_bond_site_symmetry_2
Ni0 Ni20 2.490180 1_555
Ni1 Ni20 2.490180 1_655
Ni2 Ni20 2.490180 1_556
Ni10 Ni20 2.490180 1_655
Ni11 Ni20 2.490180 1_565
Ni12 V0 2.354527 1_555
Ni13 V1 2.354527 1_555
Ni14 V0 2.354521 1_556
Ni15 V0 2.354521 1_565
Ni16 V1 2.354521 1_554
Ni17 V1 2.354521 1_545
Ni18 V0 2.354521 1_655
Ni19 V1 2.354521 1_455
Ni20 Ni9 2.490180 1_554
Ni20 Ni6 2.490180 1_545
Ni20 Ni3 2.490180 1_545
Ni20 Ni5 2.490180 1_455
Ni20 Ni4 2.490180 1_555
Ni20 Ni8 2.490180 1_555
Ni20 Ni7 2.490180 1_554
B0 Ni5 2.036345 1_555
B0 Ni4 2.036345 1_655
B0 Ni8 2.036345 1_655
B0 Ni10 2.036345 1_555
B0 Ni12 2.088146 1_555
B0 Ni16 2.088146 1_555
B0 Ni17 2.088146 1_555
B0 Ni18 2.088152 1_555
B1 Ni9 2.036345 1_565
B1 Ni6 2.036345 1_556
B1 Ni7 2.036345 1_565
B1 Ni11 2.036345 1_556
B1 Ni13 2.088146 1_555
B1 Ni15 2.088146 1_555
B1 Ni14 2.088146 1_555
B1 Ni19 2.088152 1_555
B2 Ni11 2.036345 1_555
B2 Ni8 2.036345 1_565
B2 Ni3 2.036345 1_555
B2 Ni0 2.036345 1_565
B2 Ni12 2.088146 1_555
B2 Ni19 2.088146 1_555
B2 Ni16 2.088146 1_555
B2 Ni15 2.088152 1_555
B3 Ni1 2.036345 1_556
B3 Ni9 2.036345 1_655
B3 Ni10 2.036345 1_556
B3 Ni2 2.036345 1_655
B3 Ni13 2.088146 1_555
B3 Ni18 2.088146 1_555
B3 Ni14 2.088146 1_555
B3 Ni17 2.088152 1_555
B4 Ni4 2.036345 1_556
B4 Ni0 2.036345 1_556
B4 Ni2 2.036345 1_555
B4 Ni7 2.036345 1_555
B4 Ni12 2.088146 1_555
B4 Ni19 2.088146 1_555
B4 Ni17 2.088146 1_555
B4 Ni14 2.088152 1_555
B5 Ni1 2.036345 1_565
B5 Ni6 2.036345 1_655
B5 Ni3 2.036345 1_655
B5 Ni5 2.036345 1_565
B5 Ni13 2.088146 1_555
B5 Ni18 2.088146 1_555
B5 Ni15 2.088146 1_555
B5 Ni16 2.088152 1_555
