# generated using pymatgen
data_Y5Ir2
_symmetry_space_group_name_H-M   'P 1'
_cell_length_a   6.54930400
_cell_length_b   7.23126974
_cell_length_c   8.54227768
_cell_angle_alpha   96.23142699
_cell_angle_beta   112.54112543
_cell_angle_gamma   90.00000000
_symmetry_Int_Tables_number   1
_chemical_formula_structural   Y5Ir2
_chemical_formula_sum   'Y10 Ir4'
_cell_volume   371.06452090
_cell_formula_units_Z   2
loop_
 _symmetry_equiv_pos_site_id
 _symmetry_equiv_pos_as_xyz
  1  'x, y, z'
loop_
 _atom_site_type_symbol
 _atom_site_label
 _atom_site_symmetry_multiplicity
 _atom_site_fract_x
 _atom_site_fract_y
 _atom_site_fract_z
 _atom_site_occupancy
  Y  Y0  1  0.97009700  0.91845800  0.18174700  1
  Y  Y1  1  0.78834900  0.58154200  0.81825300  1
  Y  Y2  1  0.02990300  0.08154200  0.81825300  1
  Y  Y3  1  0.21165100  0.41845800  0.18174700  1
  Y  Y4  1  0.65386500  0.81894600  0.44256800  1
  Y  Y5  1  0.21129600  0.68105400  0.55743200  1
  Y  Y6  1  0.34613500  0.18105400  0.55743200  1
  Y  Y7  1  0.78870400  0.31894600  0.44256800  1
  Y  Y8  1  0.42724100  0.75000000  0.00000000  1
  Y  Y9  1  0.57275900  0.25000000  0.00000000  1
  Ir  Ir0  1  0.82780000  0.57323900  0.21867400  1
  Ir  Ir1  1  0.60912500  0.92676100  0.78132600  1
  Ir  Ir2  1  0.17220000  0.42676100  0.78132600  1
  Ir  Ir3  1  0.39087500  0.07323900  0.21867400  1
loop_
_geom_bond_atom_site_label_1
_geom_bond_atom_site_label_2
_geom_bond_distance
_geom_bond_site_symmetry_2
Ir0 Y0 2.756127 1_555
Ir0 Y3 2.864189 1_655
Ir0 Y7 2.871207 1_555
Ir0 Y9 2.898771 1_555
Ir0 Y8 2.960828 1_555
Ir0 Y4 3.007521 1_555
Ir0 Y5 3.037738 1_655
Ir0 Y1 3.337249 1_554
Ir1 Y1 2.756127 1_555
Ir1 Y2 2.864189 1_665
Ir1 Y6 2.871207 1_565
Ir1 Y9 2.898768 1_566
Ir1 Y8 2.960823 1_556
Ir1 Y5 3.007521 1_555
Ir1 Y4 3.037744 1_555
Ir1 Y0 3.337253 1_556
Ir2 Y2 2.756127 1_555
Ir2 Y1 2.864189 1_455
Ir2 Y5 2.871207 1_555
Ir2 Y8 2.898771 1_556
Ir2 Y9 2.960828 1_556
Ir2 Y6 3.007521 1_555
Ir2 Y7 3.037738 1_455
Ir2 Y3 3.337249 1_556
Ir3 Y3 2.756127 1_555
Ir3 Y0 2.864189 1_445
Ir3 Y4 2.871207 1_545
Ir3 Y8 2.898768 1_545
Ir3 Y9 2.960823 1_555
Ir3 Y7 3.007521 1_555
Ir3 Y6 3.037744 1_555
Ir3 Y2 3.337253 1_554
