# generated using pymatgen
data_Li3Mn2O5
_symmetry_space_group_name_H-M   'P 1'
_cell_length_a   2.97407234
_cell_length_b   12.67650206
_cell_length_c   5.08307076
_cell_angle_alpha   100.89896041
_cell_angle_beta   77.32183590
_cell_angle_gamma   91.58638912
_symmetry_Int_Tables_number   1
_chemical_formula_structural   Li3Mn2O5
_chemical_formula_sum   'Li6 Mn4 O10'
_cell_volume   183.57207992
_cell_formula_units_Z   2
loop_
 _symmetry_equiv_pos_site_id
 _symmetry_equiv_pos_as_xyz
  1  'x, y, z'
loop_
 _atom_site_type_symbol
 _atom_site_label
 _atom_site_symmetry_multiplicity
 _atom_site_fract_x
 _atom_site_fract_y
 _atom_site_fract_z
 _atom_site_occupancy
  Li  Li0  1  0.09987700  0.30006800  0.80004100  1
  Li  Li1  1  0.59992000  0.79997500  0.79997600  1
  Li  Li2  1  0.67313300  0.09996200  0.61941200  1
  Li  Li3  1  0.52668600  0.50006900  0.98056600  1
  Li  Li4  1  0.84954100  0.71385000  0.21518000  1
  Li  Li5  1  0.35032400  0.88625200  0.38489700  1
  Mn  Mn0  1  0.18759700  0.60777700  0.60007700  1
  Mn  Mn1  1  0.78526100  0.40048900  0.40513600  1
  Mn  Mn2  1  0.01256700  0.99215700  0.99982100  1
  Mn  Mn3  1  0.41472500  0.19952800  0.19496000  1
  O  O0  1  0.41091000  0.04985800  0.26265100  1
  O  O1  1  0.78923000  0.55009000  0.33732100  1
  O  O2  1  0.73333200  0.25356100  0.48783100  1
  O  O3  1  0.46669100  0.34645000  0.11223100  1
  O  O4  1  0.12003200  0.45598100  0.68734700  1
  O  O5  1  0.08004900  0.14399400  0.91268900  1
  O  O6  1  0.59619500  0.64356400  0.85223400  1
  O  O7  1  0.60386600  0.95640200  0.74765800  1
  O  O8  1  0.95424600  0.86279400  0.10760000  1
  O  O9  1  0.24581700  0.73718000  0.49237200  1
loop_
_geom_bond_atom_site_label_1
_geom_bond_atom_site_label_2
_geom_bond_distance
_geom_bond_site_symmetry_2
Li0 O2 2.103444 1_455
Li0 O3 2.103708 1_556
Li0 O4 2.155113 1_555
Li0 O5 2.157039 1_555
Li0 O3 2.192458 1_456
Li0 O2 2.193320 1_555
Li1 O6 2.049053 1_555
Li1 O7 2.049316 1_555
Li1 O9 2.095996 1_555
Li1 O8 2.096579 1_556
Li1 O8 2.249990 1_456
Li1 O9 2.250341 1_655
Li2 O7 2.036692 1_545
Li2 O5 2.056886 1_555
Li2 O5 2.106729 1_655
Li2 O0 2.111392 1_555
Li2 O2 2.165915 1_555
Li2 O0 2.530119 1_655
Li3 O6 2.036116 1_555
Li3 O4 2.057405 1_655
Li3 O4 2.106017 1_555
Li3 O1 2.111755 1_556
Li3 O3 2.166360 1_556
Li3 O1 2.529274 1_456
Li4 O9 2.003428 1_655
Li4 O9 2.014433 1_555
Li4 O8 2.060101 1_555
Li4 O6 2.171761 1_554
Li4 O1 2.268234 1_555
Li5 O8 2.003421 1_455
Li5 O8 2.015188 1_555
Li5 O9 2.061407 1_555
Li5 O7 2.170855 1_555
Li5 O0 2.266575 1_565
Mn0 O9 1.817365 1_555
Mn0 O6 1.938719 1_555
Mn0 O6 1.943450 1_455
Mn0 O1 1.999891 1_455
Mn0 O1 2.043111 1_555
Mn0 O4 2.049908 1_555
Mn1 O4 1.936609 1_655
Mn1 O3 1.944528 1_555
Mn1 O2 1.980204 1_555
Mn1 O1 1.989860 1_555
Mn1 O4 2.217327 1_555
Mn1 O3 2.271536 1_655
Mn2 O8 1.817051 1_456
Mn2 O7 1.938940 1_455
Mn2 O7 1.943174 1_555
Mn2 O0 2.000153 1_566
Mn2 O0 2.043358 1_466
Mn2 O5 2.050148 1_565
Mn3 O5 1.936772 1_554
Mn3 O2 1.944445 1_555
Mn3 O3 1.980195 1_555
Mn3 O0 1.990527 1_555
Mn3 O5 2.217778 1_654
Mn3 O2 2.271367 1_455
