# generated using pymatgen
data_KY(BH4)4
_symmetry_space_group_name_H-M   'P 1'
_cell_length_a   7.91467282
_cell_length_b   7.91467282
_cell_length_c   9.87817700
_cell_angle_alpha   90.00000000
_cell_angle_beta   90.00000000
_cell_angle_gamma   112.08947758
_symmetry_Int_Tables_number   1
_chemical_formula_structural   KY(BH4)4
_chemical_formula_sum   'K2 Y2 B8 H32'
_cell_volume   573.36867011
_cell_formula_units_Z   2
loop_
 _symmetry_equiv_pos_site_id
 _symmetry_equiv_pos_as_xyz
  1  'x, y, z'
loop_
 _atom_site_type_symbol
 _atom_site_label
 _atom_site_symmetry_multiplicity
 _atom_site_fract_x
 _atom_site_fract_y
 _atom_site_fract_z
 _atom_site_occupancy
  K  K0  1  0.00000000  0.00000000  0.50000000  1
  K  K1  1  0.00000000  0.00000000  0.00000000  1
  Y  Y0  1  0.36391100  0.63608900  0.25000000  1
  Y  Y1  1  0.63608900  0.36391100  0.75000000  1
  B  B0  1  0.25805200  0.74194800  0.04399100  1
  B  B1  1  0.74194800  0.25805200  0.95600900  1
  B  B2  1  0.25805200  0.74194800  0.45600900  1
  B  B3  1  0.74194800  0.25805200  0.54399100  1
  B  B4  1  0.24608200  0.29720200  0.25000000  1
  B  B5  1  0.29720200  0.24608200  0.75000000  1
  B  B6  1  0.75391800  0.70279800  0.75000000  1
  B  B7  1  0.70279800  0.75391800  0.25000000  1
  H  H0  1  0.13023900  0.64332300  0.11600400  1
  H  H1  1  0.64332300  0.13023900  0.88399600  1
  H  H2  1  0.13023900  0.64332300  0.38399600  1
  H  H3  1  0.64332300  0.13023900  0.61600400  1
  H  H4  1  0.86976100  0.35667700  0.88399600  1
  H  H5  1  0.35667700  0.86976100  0.11600400  1
  H  H6  1  0.86976100  0.35667700  0.61600400  1
  H  H7  1  0.35667700  0.86976100  0.38399600  1
  H  H8  1  0.34058100  0.36262800  0.14899000  1
  H  H9  1  0.36262800  0.34058100  0.85101000  1
  H  H10  1  0.34058100  0.36262800  0.35101000  1
  H  H11  1  0.36262800  0.34058100  0.64899000  1
  H  H12  1  0.65941900  0.63737200  0.85101000  1
  H  H13  1  0.63737200  0.65941900  0.14899000  1
  H  H14  1  0.65941900  0.63737200  0.64899000  1
  H  H15  1  0.63737200  0.65941900  0.35101000  1
  H  H16  1  0.20467200  0.79532800  0.94487200  1
  H  H17  1  0.79532800  0.20467200  0.05512800  1
  H  H18  1  0.20467200  0.79532800  0.55512800  1
  H  H19  1  0.79532800  0.20467200  0.44487200  1
  H  H20  1  0.34958600  0.65041400  0.01344300  1
  H  H21  1  0.65041400  0.34958600  0.98655700  1
  H  H22  1  0.34958600  0.65041400  0.48655700  1
  H  H23  1  0.65041400  0.34958600  0.51344300  1
  H  H24  1  0.19650100  0.13257800  0.25000000  1
  H  H25  1  0.13257800  0.19650100  0.75000000  1
  H  H26  1  0.80349900  0.86742200  0.75000000  1
  H  H27  1  0.86742200  0.80349900  0.25000000  1
  H  H28  1  0.11757800  0.35052500  0.25000000  1
  H  H29  1  0.35052500  0.11757800  0.75000000  1
  H  H30  1  0.88242200  0.64947500  0.75000000  1
  H  H31  1  0.64947500  0.88242200  0.25000000  1
loop_
_geom_bond_atom_site_label_1
_geom_bond_atom_site_label_2
_geom_bond_distance
_geom_bond_site_symmetry_2
B0 H16 1.204118 1_554
B0 H20 1.239148 1_555
B0 H5 1.242891 1_555
B0 H0 1.242891 1_555
B1 H17 1.204118 1_556
B1 H21 1.239148 1_555
B1 H4 1.242891 1_555
B1 H1 1.242891 1_555
B2 H18 1.204118 1_555
B2 H22 1.239148 1_555
B2 H7 1.242891 1_555
B2 H2 1.242891 1_555
B3 H19 1.204118 1_555
B3 H23 1.239148 1_555
B3 H6 1.242891 1_555
B3 H3 1.242891 1_555
B4 H24 1.211241 1_555
B4 H10 1.237678 1_555
B4 H8 1.237678 1_555
B4 H28 1.239101 1_555
B5 H25 1.211241 1_555
B5 H11 1.237678 1_555
B5 H9 1.237678 1_555
B5 H29 1.239101 1_555
B6 H26 1.211241 1_555
B6 H12 1.237678 1_555
B6 H14 1.237678 1_555
B6 H30 1.239101 1_555
B7 H27 1.211241 1_555
B7 H15 1.237678 1_555
B7 H13 1.237678 1_555
B7 H31 1.239101 1_555
H0 Y0 2.292455 1_555
H1 Y1 2.292455 1_555
H2 Y0 2.292455 1_555
H3 Y1 2.292455 1_555
H4 Y1 2.292455 1_555
H5 Y0 2.292455 1_555
H6 Y1 2.292455 1_555
H7 Y0 2.292455 1_555
H8 Y0 2.326702 1_555
H9 Y1 2.326702 1_555
H10 Y0 2.326702 1_555
H11 Y1 2.326702 1_555
H12 Y1 2.326702 1_555
H13 Y0 2.326702 1_555
H14 Y1 2.326702 1_555
H15 Y0 2.326702 1_555
H16 K1 2.741970 1_566
H17 K1 2.741970 1_655
H18 K0 2.741970 1_565
H19 K0 2.741970 1_655
H20 Y0 2.344309 1_555
H21 Y1 2.344309 1_555
H22 Y0 2.344309 1_555
H23 Y1 2.344309 1_555
H24 K0 2.896738 1_555
H24 K1 2.896738 1_555
H25 K0 2.896738 1_555
H25 K1 2.896738 1_556
H26 K1 2.896738 1_666
H26 K0 2.896738 1_665
H27 K1 2.896738 1_665
H27 K0 2.896738 1_665
H28 Y0 2.365422 1_555
H29 Y1 2.365422 1_555
H30 Y1 2.365422 1_555
H31 Y0 2.365422 1_555
