# generated using pymatgen
data_KEu(WO3)4
_symmetry_space_group_name_H-M   'P 1'
_cell_length_a   5.57471937
_cell_length_b   5.57471937
_cell_length_c   7.86550363
_cell_angle_alpha   90.00000000
_cell_angle_beta   90.00000000
_cell_angle_gamma   90.70604083
_symmetry_Int_Tables_number   1
_chemical_formula_structural   KEu(WO3)4
_chemical_formula_sum   'K1 Eu1 W4 O12'
_cell_volume   244.42159948
_cell_formula_units_Z   1
loop_
 _symmetry_equiv_pos_site_id
 _symmetry_equiv_pos_as_xyz
  1  'x, y, z'
loop_
 _atom_site_type_symbol
 _atom_site_label
 _atom_site_symmetry_multiplicity
 _atom_site_fract_x
 _atom_site_fract_y
 _atom_site_fract_z
 _atom_site_occupancy
  K  K0  1  0.01848153  0.98151847  0.50000000  1
  Eu  Eu0  1  0.48562883  0.51437117  0.00000000  1
  W  W0  1  0.50073168  0.00098422  0.25264999  1
  W  W1  1  0.50073168  0.00098422  0.74735001  1
  W  W2  1  -0.00098422  0.49926832  0.74735001  1
  W  W3  1  -0.00098422  0.49926832  0.25264999  1
  O  O0  1  0.21934733  0.21828854  0.24342603  1
  O  O1  1  0.78171146  0.78065267  0.24342603  1
  O  O2  1  0.78171146  0.78065267  0.75657397  1
  O  O3  1  0.21934733  0.21828854  0.75657397  1
  O  O4  1  0.29245307  0.70754693  0.27971083  1
  O  O5  1  0.71002588  0.28997412  0.21171525  1
  O  O6  1  0.71002588  0.28997412  0.78828475  1
  O  O7  1  0.29245307  0.70754693  0.72028917  1
  O  O8  1  0.46397402  0.95757369  0.00000000  1
  O  O9  1  0.53561419  0.04379528  0.50000000  1
  O  O10  1  0.04242631  0.53602598  -0.00000000  1
  O  O11  1  0.95620472  0.46438581  0.50000000  1
loop_
_geom_bond_atom_site_label_1
_geom_bond_atom_site_label_2
_geom_bond_distance
_geom_bond_site_symmetry_2
K0 O1 2.651854 1_455
K0 O3 2.651854 1_565
K0 O0 2.651854 1_565
K0 O2 2.651854 1_455
K0 O11 2.718385 1_465
K0 O9 2.718385 1_465
K0 O4 2.779400 1_555
K0 O7 2.779400 1_555
K0 O9 2.899448 1_565
K0 O11 2.899448 1_455
Eu0 O5 2.437492 1_555
Eu0 O6 2.437492 1_554
Eu0 O10 2.475162 1_555
Eu0 O8 2.475162 1_555
Eu0 O7 2.681101 1_554
Eu0 O4 2.681101 1_555
Eu0 O3 2.921224 1_554
Eu0 O1 2.921224 1_555
Eu0 O0 2.921224 1_555
Eu0 O2 2.921224 1_554
Eu0 O8 3.104850 1_545
Eu0 O10 3.104850 1_655
O0 W0 1.995054 1_555
O0 W3 2.003728 1_555
O1 W3 1.995054 1_655
O1 W0 2.003728 1_565
O2 W2 1.995054 1_655
O2 W1 2.003728 1_565
O3 W1 1.995054 1_555
O3 W2 2.003728 1_555
O4 W3 2.005636 1_555
O4 W0 2.005636 1_565
O5 W3 2.003523 1_655
O5 W0 2.003523 1_555
O6 W2 2.003523 1_655
O6 W1 2.003523 1_555
O7 W2 2.005636 1_555
O7 W1 2.005636 1_565
O8 W0 2.012057 1_565
O8 W1 2.012057 1_564
O9 W0 1.969448 1_555
O9 W1 1.969448 1_555
O10 W2 2.012057 1_554
O10 W3 2.012057 1_555
O11 W2 1.969448 1_655
O11 W3 1.969448 1_655
