# generated using pymatgen
data_RbNbWO6
_symmetry_space_group_name_H-M   'P 1'
_cell_length_a   7.45682568
_cell_length_b   7.45682568
_cell_length_c   7.45682568
_cell_angle_alpha   120.39550530
_cell_angle_beta   119.78980656
_cell_angle_gamma   89.84039263
_symmetry_Int_Tables_number   1
_chemical_formula_structural   RbNbWO6
_chemical_formula_sum   'Rb2 Nb2 W2 O12'
_cell_volume   292.76642904
_cell_formula_units_Z   2
loop_
 _symmetry_equiv_pos_site_id
 _symmetry_equiv_pos_as_xyz
  1  'x, y, z'
loop_
 _atom_site_type_symbol
 _atom_site_label
 _atom_site_symmetry_multiplicity
 _atom_site_fract_x
 _atom_site_fract_y
 _atom_site_fract_z
 _atom_site_occupancy
  Rb  Rb0  1  0.62393900  0.87393900  0.75000000  1
  Rb  Rb1  1  0.37606100  0.12606100  0.25000000  1
  Nb  Nb0  1  0.50000000  0.50000000  0.00000000  1
  Nb  Nb1  1  0.00000000  0.50000000  0.50000000  1
  W  W0  1  0.00000000  0.50000000  0.00000000  1
  W  W1  1  0.00000000  0.00000000  0.50000000  1
  O  O0  1  0.05896500  0.80896500  0.25000000  1
  O  O1  1  0.68631800  0.43631800  0.25000000  1
  O  O2  1  0.05972500  0.81757800  0.62286900  1
  O  O3  1  0.69470900  0.43685600  0.87713100  1
  O  O4  1  0.69470900  0.81757800  0.25785300  1
  O  O5  1  0.05972500  0.43685600  0.24214700  1
  O  O6  1  0.94103500  0.19103500  0.75000000  1
  O  O7  1  0.31368200  0.56368200  0.75000000  1
  O  O8  1  0.94027500  0.18242200  0.37713100  1
  O  O9  1  0.30529100  0.56314400  0.12286900  1
  O  O10  1  0.30529100  0.18242200  0.74214700  1
  O  O11  1  0.94027500  0.56314400  0.75785300  1
loop_
_geom_bond_atom_site_label_1
_geom_bond_atom_site_label_2
_geom_bond_distance
_geom_bond_site_symmetry_2
Nb0 O1 1.987366 1_555
Nb0 O7 1.987366 1_554
Nb0 O9 2.012619 1_555
Nb0 O4 2.012619 1_555
Nb0 O3 2.012619 1_554
Nb0 O10 2.012619 1_554
Nb1 O7 1.987366 1_555
Nb1 O1 1.987366 1_455
Nb1 O2 2.012619 1_555
Nb1 O5 2.012619 1_555
Nb1 O11 2.012619 1_455
Nb1 O8 2.012619 1_455
O0 W0 1.954874 1_555
O0 W1 1.954874 1_565
O0 Rb1 3.348604 1_565
O1 Rb1 3.276383 1_555
O2 W1 1.934047 1_565
O2 Rb1 3.302771 1_566
O3 W0 1.934047 1_656
O3 Rb1 3.302771 1_555
O4 W1 1.934047 1_665
O4 Rb1 3.302771 1_565
O5 W0 1.934047 1_555
O5 Rb1 3.302771 1_555
O6 W1 1.954874 1_655
O6 W0 1.954874 1_656
O6 Rb0 3.348604 1_545
O7 Rb0 3.276383 1_555
O8 W1 1.934047 1_655
O8 Rb0 3.302771 1_544
O9 W0 1.934047 1_555
O9 Rb0 3.302771 1_555
O10 W1 1.934047 1_555
O10 Rb0 3.302771 1_545
O11 W0 1.934047 1_656
O11 Rb0 3.302771 1_555
