# generated using pymatgen
data_SrNdCuS3
_symmetry_space_group_name_H-M   'P 1'
_cell_length_a   4.02064700
_cell_length_b   10.67608300
_cell_length_c   12.99410800
_cell_angle_alpha   90.00000000
_cell_angle_beta   90.00000000
_cell_angle_gamma   90.00000000
_symmetry_Int_Tables_number   1
_chemical_formula_structural   SrNdCuS3
_chemical_formula_sum   'Sr4 Nd4 Cu4 S12'
_cell_volume   557.76898142
_cell_formula_units_Z   4
loop_
 _symmetry_equiv_pos_site_id
 _symmetry_equiv_pos_as_xyz
  1  'x, y, z'
loop_
 _atom_site_type_symbol
 _atom_site_label
 _atom_site_symmetry_multiplicity
 _atom_site_fract_x
 _atom_site_fract_y
 _atom_site_fract_z
 _atom_site_occupancy
  Sr  Sr0  1  0.25000000  0.21202000  0.99720400  1
  Sr  Sr1  1  0.25000000  0.71202000  0.50279600  1
  Sr  Sr2  1  0.75000000  0.78798000  0.00279600  1
  Sr  Sr3  1  0.75000000  0.28798000  0.49720400  1
  Nd  Nd0  1  0.25000000  0.48291100  0.23272400  1
  Nd  Nd1  1  0.25000000  0.98291100  0.26727600  1
  Nd  Nd2  1  0.75000000  0.51708900  0.76727600  1
  Nd  Nd3  1  0.75000000  0.01708900  0.73272400  1
  Cu  Cu0  1  0.25000000  0.26714600  0.72203400  1
  Cu  Cu1  1  0.25000000  0.76714600  0.77796600  1
  Cu  Cu2  1  0.75000000  0.73285400  0.27796600  1
  Cu  Cu3  1  0.75000000  0.23285400  0.22203400  1
  S  S0  1  0.25000000  0.24095200  0.32587800  1
  S  S1  1  0.25000000  0.74095200  0.17412200  1
  S  S2  1  0.75000000  0.75904800  0.67412200  1
  S  S3  1  0.75000000  0.25904800  0.82587800  1
  S  S4  1  0.25000000  0.44824900  0.61997100  1
  S  S5  1  0.25000000  0.94824900  0.88002900  1
  S  S6  1  0.75000000  0.55175100  0.38002900  1
  S  S7  1  0.75000000  0.05175100  0.11997100  1
  S  S8  1  0.25000000  0.10579600  0.60098200  1
  S  S9  1  0.25000000  0.60579600  0.89901800  1
  S  S10  1  0.75000000  0.89420400  0.39901800  1
  S  S11  1  0.75000000  0.39420400  0.10098200  1
loop_
_geom_bond_atom_site_label_1
_geom_bond_atom_site_label_2
_geom_bond_distance
_geom_bond_site_symmetry_2
Nd0 S11 2.805136 1_555
Nd0 S11 2.805136 1_455
Nd0 S0 2.852716 1_555
Nd0 S1 2.858172 1_555
Nd0 S6 2.871464 1_555
Nd0 S6 2.871464 1_455
Nd1 S10 2.805136 1_455
Nd1 S10 2.805136 1_555
Nd1 S1 2.852716 1_555
Nd1 S0 2.858172 1_565
Nd1 S7 2.871464 1_565
Nd1 S7 2.871464 1_465
Nd2 S9 2.805136 1_655
Nd2 S9 2.805136 1_555
Nd2 S2 2.852716 1_555
Nd2 S3 2.858172 1_555
Nd2 S4 2.871464 1_555
Nd2 S4 2.871464 1_655
Nd3 S8 2.805136 1_655
Nd3 S8 2.805136 1_555
Nd3 S3 2.852716 1_555
Nd3 S2 2.858172 1_545
Nd3 S5 2.871464 1_545
Nd3 S5 2.871464 1_645
Cu0 S8 2.332705 1_555
Cu0 S4 2.344603 1_555
Cu0 S3 2.422736 1_555
Cu0 S3 2.422736 1_455
Cu1 S9 2.332705 1_555
Cu1 S5 2.344603 1_555
Cu1 S2 2.422736 1_455
Cu1 S2 2.422736 1_555
Cu2 S10 2.332705 1_555
Cu2 S6 2.344603 1_555
Cu2 S1 2.422736 1_655
Cu2 S1 2.422736 1_555
Cu3 S11 2.332705 1_555
Cu3 S7 2.344603 1_555
Cu3 S0 2.422736 1_655
Cu3 S0 2.422736 1_555
S0 Sr3 3.041311 1_455
S0 Sr3 3.041311 1_555
S1 Sr2 3.041311 1_455
S1 Sr2 3.041311 1_555
S2 Sr1 3.041311 1_655
S2 Sr1 3.041311 1_555
S3 Sr0 3.041311 1_655
S3 Sr0 3.041311 1_555
S4 Sr3 3.084460 1_455
S4 Sr3 3.084460 1_555
S4 Sr1 3.201305 1_555
S5 Sr2 3.084460 1_456
S5 Sr2 3.084460 1_556
S5 Sr0 3.201305 1_565
S6 Sr1 3.084460 1_555
S6 Sr1 3.084460 1_655
S6 Sr3 3.201305 1_555
S7 Sr0 3.084460 1_554
S7 Sr0 3.084460 1_654
S7 Sr2 3.201305 1_545
S8 Sr3 3.105307 1_555
S8 Sr3 3.105307 1_455
S9 Sr2 3.105307 1_456
S9 Sr2 3.105307 1_556
S10 Sr1 3.105307 1_555
S10 Sr1 3.105307 1_655
S11 Sr0 3.105307 1_654
S11 Sr0 3.105307 1_554
