# generated using pymatgen
data_Mg14VBiO16
_symmetry_space_group_name_H-M   'P 1'
_cell_length_a   8.68650015
_cell_length_b   8.85435420
_cell_length_c   4.40849044
_cell_angle_alpha   90.00000000
_cell_angle_beta   90.00000000
_cell_angle_gamma   90.00000000
_symmetry_Int_Tables_number   1
_chemical_formula_structural   Mg14VBiO16
_chemical_formula_sum   'Mg14 V1 Bi1 O16'
_cell_volume   339.07176416
_cell_formula_units_Z   1
loop_
 _symmetry_equiv_pos_site_id
 _symmetry_equiv_pos_as_xyz
  1  'x, y, z'
loop_
 _atom_site_type_symbol
 _atom_site_label
 _atom_site_symmetry_multiplicity
 _atom_site_fract_x
 _atom_site_fract_y
 _atom_site_fract_z
 _atom_site_occupancy
  Mg  Mg0  1  0.50000000  0.00000000  0.00000000  1
  Mg  Mg1  1  0.50000000  0.50000000  0.00000000  1
  Mg  Mg2  1  0.00000000  0.23650920  0.50000000  1
  Mg  Mg3  1  0.00000000  0.76349080  0.50000000  1
  Mg  Mg4  1  0.50000000  0.24707226  0.50000000  1
  Mg  Mg5  1  0.50000000  0.75292774  0.50000000  1
  Mg  Mg6  1  0.25275577  0.00000000  0.50000000  1
  Mg  Mg7  1  0.26395844  0.50000000  0.50000000  1
  Mg  Mg8  1  0.74724423  0.00000000  0.50000000  1
  Mg  Mg9  1  0.73604156  0.50000000  0.50000000  1
  Mg  Mg10  1  0.25694700  0.24207489  0.00000000  1
  Mg  Mg11  1  0.25694700  0.75792511  0.00000000  1
  Mg  Mg12  1  0.74305300  0.24207489  0.00000000  1
  Mg  Mg13  1  0.74305300  0.75792511  0.00000000  1
  V  V0  1  0.00000000  0.00000000  0.00000000  1
  Bi  Bi0  1  0.00000000  0.50000000  0.00000000  1
  O  O0  1  0.25735543  0.00000000  0.00000000  1
  O  O1  1  0.27049209  0.50000000  0.00000000  1
  O  O2  1  0.74264457  0.00000000  0.00000000  1
  O  O3  1  0.72950791  0.50000000  0.00000000  1
  O  O4  1  0.24922381  0.25105469  0.50000000  1
  O  O5  1  0.24922381  0.74894531  0.50000000  1
  O  O6  1  0.75077619  0.25105469  0.50000000  1
  O  O7  1  0.75077619  0.74894531  0.50000000  1
  O  O8  1  0.00000000  0.00000000  0.50000000  1
  O  O9  1  0.00000000  0.50000000  0.50000000  1
  O  O10  1  0.50000000  0.00000000  0.50000000  1
  O  O11  1  0.50000000  0.50000000  0.50000000  1
  O  O12  1  0.00000000  0.23390290  0.00000000  1
  O  O13  1  0.00000000  0.76609710  0.00000000  1
  O  O14  1  0.50000000  0.24663257  0.00000000  1
  O  O15  1  0.50000000  0.75336743  0.00000000  1
loop_
_geom_bond_atom_site_label_1
_geom_bond_atom_site_label_2
_geom_bond_distance
_geom_bond_site_symmetry_2
Mg0 O2 2.107732 1_555
Mg0 O0 2.107732 1_555
Mg0 O14 2.183772 1_555
Mg0 O15 2.183772 1_545
Mg0 O10 2.204245 1_554
Mg0 O10 2.204245 1_555
Mg1 O1 1.993620 1_555
Mg1 O3 1.993620 1_555
Mg1 O11 2.204245 1_555
Mg1 O11 2.204245 1_554
Mg1 O15 2.243405 1_555
Mg1 O14 2.243405 1_555
Mg2 O8 2.094136 1_555
Mg2 O4 2.168710 1_555
Mg2 O6 2.168710 1_455
Mg2 O12 2.204366 1_556
Mg2 O12 2.204366 1_555
Mg2 O9 2.333041 1_555
Mg3 O8 2.094136 1_565
Mg3 O7 2.168710 1_455
Mg3 O5 2.168710 1_555
Mg3 O13 2.204366 1_555
Mg3 O13 2.204366 1_556
Mg3 O9 2.333041 1_555
Mg4 O6 2.178653 1_555
Mg4 O4 2.178653 1_555
Mg4 O10 2.187665 1_555
Mg4 O14 2.204249 1_556
Mg4 O14 2.204249 1_555
Mg4 O11 2.239512 1_555
Mg5 O7 2.178653 1_555
Mg5 O5 2.178653 1_555
Mg5 O10 2.187665 1_565
Mg5 O15 2.204249 1_556
Mg5 O15 2.204249 1_555
Mg5 O11 2.239512 1_555
Mg6 O10 2.147687 1_555
Mg6 O8 2.195563 1_555
Mg6 O0 2.204607 1_555
Mg6 O0 2.204607 1_556
Mg6 O4 2.223139 1_555
Mg6 O5 2.223139 1_545
Mg7 O11 2.050375 1_555
Mg7 O1 2.204976 1_555
Mg7 O1 2.204976 1_556
Mg7 O4 2.207963 1_555
Mg7 O5 2.207963 1_555
Mg7 O9 2.292875 1_555
Mg8 O10 2.147687 1_555
Mg8 O8 2.195563 1_655
Mg8 O2 2.204607 1_556
Mg8 O2 2.204607 1_555
Mg8 O6 2.223139 1_555
Mg8 O7 2.223139 1_545
Mg9 O11 2.050375 1_555
Mg9 O3 2.204976 1_556
Mg9 O3 2.204976 1_555
Mg9 O6 2.207963 1_555
Mg9 O7 2.207963 1_555
Mg9 O9 2.292875 1_655
Mg10 O14 2.111666 1_555
Mg10 O0 2.143420 1_555
Mg10 O4 2.206699 1_555
Mg10 O4 2.206699 1_554
Mg10 O12 2.233143 1_555
Mg10 O1 2.286789 1_555
Mg11 O15 2.111666 1_555
Mg11 O0 2.143420 1_565
Mg11 O5 2.206699 1_554
Mg11 O5 2.206699 1_555
Mg11 O13 2.233143 1_555
Mg11 O1 2.286789 1_555
Mg12 O14 2.111666 1_555
Mg12 O2 2.143420 1_555
Mg12 O6 2.206699 1_554
Mg12 O6 2.206699 1_555
Mg12 O12 2.233143 1_655
Mg12 O3 2.286789 1_555
Mg13 O15 2.111666 1_555
Mg13 O2 2.143420 1_565
Mg13 O7 2.206699 1_554
Mg13 O7 2.206699 1_555
Mg13 O13 2.233143 1_655
Mg13 O3 2.286789 1_555
Bi0 O9 2.204245 1_555
Bi0 O9 2.204245 1_554
Bi0 O3 2.349630 1_455
Bi0 O1 2.349630 1_555
Bi0 O12 2.356118 1_555
Bi0 O13 2.356118 1_555
O0 V0 2.235518 1_555
O2 V0 2.235518 1_655
O8 V0 2.204245 1_556
O8 V0 2.204245 1_555
O12 V0 2.071059 1_555
O13 V0 2.071059 1_565
