# generated using pymatgen
data_Ca5P3H
_symmetry_space_group_name_H-M   'P 1'
_cell_length_a   6.56087216
_cell_length_b   8.25951110
_cell_length_c   8.25951270
_cell_angle_alpha   119.99991094
_cell_angle_beta   89.99999230
_cell_angle_gamma   90.00000453
_symmetry_Int_Tables_number   1
_chemical_formula_structural   Ca5P3H
_chemical_formula_sum   'Ca10 P6 H2'
_cell_volume   387.61570372
_cell_formula_units_Z   2
loop_
 _symmetry_equiv_pos_site_id
 _symmetry_equiv_pos_as_xyz
  1  'x, y, z'
loop_
 _atom_site_type_symbol
 _atom_site_label
 _atom_site_symmetry_multiplicity
 _atom_site_fract_x
 _atom_site_fract_y
 _atom_site_fract_z
 _atom_site_occupancy
  Ca  Ca0  1  0.49999987  0.33333309  0.66666659  1
  Ca  Ca1  1  0.50000001  0.66666614  0.33333321  1
  Ca  Ca2  1  0.00000019  0.66666691  0.33333315  1
  Ca  Ca3  1  -0.00000003  0.33333370  0.66666693  1
  Ca  Ca4  1  0.75000002  0.24914014  0.00000073  1
  Ca  Ca5  1  0.74999992  0.75086009  0.75085943  1
  Ca  Ca6  1  0.75000015  0.99999939  0.24914042  1
  Ca  Ca7  1  0.25000003  0.75086029  0.00000078  1
  Ca  Ca8  1  0.24999983  0.24914070  0.24914021  1
  Ca  Ca9  1  0.24999991  0.99999942  0.75085943  1
  P  P0  1  0.74999995  0.60947077  -0.00000005  1
  P  P1  1  0.75000006  0.39052919  0.39052954  1
  P  P2  1  0.74999999  0.00000039  0.60947097  1
  P  P3  1  0.25000002  0.39052909  -0.00000040  1
  P  P4  1  0.25000002  0.60947059  0.60947077  1
  P  P5  1  0.25000003  0.00000013  0.39052938  1
  H  H0  1  0.49999998  -0.00000003  -0.00000005  1
  H  H1  1  0.00000004  -0.00000001  -0.00000004  1
loop_
_geom_bond_atom_site_label_1
_geom_bond_atom_site_label_2
_geom_bond_distance
_geom_bond_site_symmetry_2
Ca0 P2 3.031962 1_555
Ca0 P3 3.031962 1_556
Ca0 P1 3.031963 1_555
Ca0 P4 3.031964 1_555
Ca0 P5 3.031965 1_555
Ca0 P0 3.031969 1_556
Ca1 P1 3.031963 1_555
Ca1 P4 3.031963 1_555
Ca1 P0 3.031966 1_555
Ca1 P3 3.031968 1_555
Ca1 P5 3.031969 1_565
Ca1 P2 3.031972 1_565
Ca2 P5 3.031963 1_565
Ca2 P0 3.031965 1_455
Ca2 P4 3.031967 1_555
Ca2 P1 3.031968 1_455
Ca2 P3 3.031969 1_555
Ca2 P2 3.031970 1_465
Ca3 P4 3.031961 1_555
Ca3 P1 3.031962 1_455
Ca3 P3 3.031962 1_556
Ca3 P2 3.031964 1_455
Ca3 P0 3.031965 1_456
Ca3 P5 3.031969 1_555
Ca4 H0 2.631491 1_555
Ca4 H1 2.631491 1_655
Ca4 P1 2.828654 1_555
Ca4 P2 2.828662 1_554
Ca4 P0 2.976158 1_555
Ca5 H0 2.631496 1_566
Ca5 H1 2.631497 1_666
Ca5 P2 2.828651 1_565
Ca5 P0 2.828659 1_556
Ca5 P1 2.976157 1_555
Ca6 H1 2.631497 1_665
Ca6 H0 2.631498 1_565
Ca6 P0 2.828655 1_555
Ca6 P1 2.828661 1_565
Ca6 P2 2.976151 1_565
Ca7 H0 2.631493 1_565
Ca7 H1 2.631493 1_565
Ca7 P5 2.828654 1_565
Ca7 P4 2.828663 1_554
Ca7 P3 2.976155 1_555
Ca8 H1 2.631497 1_555
Ca8 H0 2.631498 1_555
Ca8 P3 2.828653 1_555
Ca8 P5 2.828658 1_555
Ca8 P4 2.976156 1_555
Ca9 H1 2.631493 1_566
Ca9 H0 2.631495 1_566
Ca9 P4 2.828654 1_555
Ca9 P3 2.828661 1_566
Ca9 P5 2.976154 1_565
