# generated using pymatgen
data_Lu4CdIr
_symmetry_space_group_name_H-M   'P 1'
_cell_length_a   9.37921101
_cell_length_b   9.37926343
_cell_length_c   9.37958323
_cell_angle_alpha   60.00180271
_cell_angle_beta   60.00100586
_cell_angle_gamma   60.00169291
_symmetry_Int_Tables_number   1
_chemical_formula_structural   Lu4CdIr
_chemical_formula_sum   'Lu16 Cd4 Ir4'
_cell_volume   583.46976798
_cell_formula_units_Z   4
loop_
 _symmetry_equiv_pos_site_id
 _symmetry_equiv_pos_as_xyz
  1  'x, y, z'
loop_
 _atom_site_type_symbol
 _atom_site_label
 _atom_site_symmetry_multiplicity
 _atom_site_fract_x
 _atom_site_fract_y
 _atom_site_fract_z
 _atom_site_occupancy
  Lu  Lu0  1  0.34889158  0.34892547  0.34892757  1
  Lu  Lu1  1  0.34890303  0.34893868  0.95320553  1
  Lu  Lu2  1  0.34890646  0.95323287  0.34892919  1
  Lu  Lu3  1  0.95324804  0.34892526  0.34890689  1
  Lu  Lu4  1  0.80933136  0.19068805  0.19069019  1
  Lu  Lu5  1  0.19069186  0.80930462  0.80929791  1
  Lu  Lu6  1  0.19069164  0.80929087  0.19071182  1
  Lu  Lu7  1  0.80932538  0.19069646  0.80927454  1
  Lu  Lu8  1  0.19070057  0.19071605  0.80928493  1
  Lu  Lu9  1  0.80932644  0.80927666  0.19070398  1
  Lu  Lu10  1  0.93807979  0.56191032  0.56194417  1
  Lu  Lu11  1  0.56188869  0.93810361  0.93812133  1
  Lu  Lu12  1  0.56187958  0.93812249  0.56188756  1
  Lu  Lu13  1  0.93813308  0.56188961  0.93811113  1
  Lu  Lu14  1  0.56191894  0.56191879  0.93808796  1
  Lu  Lu15  1  0.93807767  0.93805581  0.56193606  1
  Cd  Cd0  1  0.58112127  0.58113175  0.58114000  1
  Cd  Cd1  1  0.58113236  0.58112244  0.25659168  1
  Cd  Cd2  1  0.58109308  0.25662163  0.58114911  1
  Cd  Cd3  1  0.25662731  0.58110378  0.58113494  1
  Ir  Ir0  1  0.14114250  0.14111848  0.14110870  1
  Ir  Ir1  1  0.14110852  0.14113866  0.57663501  1
  Ir  Ir2  1  0.14112949  0.57663650  0.14111906  1
  Ir  Ir3  1  0.57664936  0.14113016  0.14109675  1
loop_
_geom_bond_atom_site_label_1
_geom_bond_atom_site_label_2
_geom_bond_distance
_geom_bond_site_symmetry_2
Cd0 Cd3 3.043652 1_555
Cd0 Cd2 3.043755 1_555
Cd0 Cd1 3.044120 1_555
Cd0 Lu10 3.178061 1_555
Cd0 Lu12 3.178065 1_555
Cd0 Lu14 3.178106 1_555
Cd0 Lu1 3.347851 1_555
Cd0 Lu2 3.348068 1_555
Cd0 Lu3 3.348175 1_555
Cd0 Lu5 3.387648 1_555
Cd0 Lu7 3.387751 1_555
Cd0 Lu9 3.387786 1_555
Cd1 Cd3 3.043887 1_555
Cd1 Cd2 3.043979 1_555
Cd1 Lu14 3.177817 1_554
Cd1 Lu11 3.178032 1_554
Cd1 Lu13 3.178126 1_554
Cd1 Lu0 3.347962 1_555
Cd1 Lu3 3.348074 1_555
Cd1 Lu2 3.348126 1_555
Cd1 Lu6 3.387629 1_555
Cd1 Lu4 3.387666 1_555
Cd1 Lu9 3.387731 1_555
Cd2 Cd3 3.043396 1_555
Cd2 Lu12 3.177976 1_545
Cd2 Lu11 3.178198 1_545
Cd2 Lu15 3.178381 1_545
Cd2 Lu1 3.347680 1_555
Cd2 Lu0 3.348058 1_555
Cd2 Lu3 3.348290 1_555
Cd2 Lu8 3.387301 1_555
Cd2 Lu7 3.387739 1_555
Cd2 Lu4 3.388064 1_555
Cd3 Lu10 3.177941 1_455
Cd3 Lu13 3.178077 1_455
Cd3 Lu15 3.178152 1_455
Cd3 Lu1 3.347652 1_555
Cd3 Lu0 3.347895 1_555
Cd3 Lu2 3.348015 1_555
Cd3 Lu8 3.387383 1_555
Cd3 Lu5 3.387735 1_555
Cd3 Lu6 3.387819 1_555
Ir0 Lu4 2.727613 1_455
Ir0 Lu6 2.727784 1_545
Ir0 Lu8 2.727841 1_554
Ir0 Lu1 2.762500 1_554
Ir0 Lu2 2.762617 1_545
Ir0 Lu3 2.762731 1_455
Ir0 Lu11 3.379619 1_544
Ir0 Lu13 3.379822 1_454
Ir0 Lu15 3.380466 1_445
Ir1 Lu7 2.727435 1_455
Ir1 Lu8 2.727688 1_555
Ir1 Lu5 2.727863 1_545
Ir1 Lu0 2.762471 1_555
Ir1 Lu3 2.762675 1_455
Ir1 Lu2 2.762778 1_545
Ir1 Lu12 3.379784 1_545
Ir1 Lu10 3.379949 1_455
Ir1 Lu15 3.380166 1_445
Ir2 Lu9 2.727557 1_455
Ir2 Lu6 2.727575 1_555
Ir2 Lu5 2.727836 1_554
Ir2 Lu0 2.762548 1_555
Ir2 Lu3 2.762610 1_455
Ir2 Lu1 2.762761 1_554
Ir2 Lu13 3.379614 1_454
Ir2 Lu14 3.379986 1_554
Ir2 Lu10 3.380390 1_455
Ir3 Lu4 2.727797 1_555
Ir3 Lu7 2.727839 1_554
Ir3 Lu9 2.727994 1_545
Ir3 Lu0 2.762899 1_555
Ir3 Lu2 2.762924 1_545
Ir3 Lu1 2.762979 1_554
Ir3 Lu11 3.379669 1_544
Ir3 Lu14 3.379995 1_554
Ir3 Lu12 3.380030 1_545
