# generated using pymatgen
data_LiCo5O7F
_symmetry_space_group_name_H-M   'P 1'
_cell_length_a   5.83448898
_cell_length_b   5.82734410
_cell_length_c   10.21458286
_cell_angle_alpha   74.59163269
_cell_angle_beta   91.63831751
_cell_angle_gamma   61.23474457
_symmetry_Int_Tables_number   1
_chemical_formula_structural   LiCo5O7F
_chemical_formula_sum   'Li2 Co10 O14 F2'
_cell_volume   288.41965024
_cell_formula_units_Z   2
loop_
 _symmetry_equiv_pos_site_id
 _symmetry_equiv_pos_as_xyz
  1  'x, y, z'
loop_
 _atom_site_type_symbol
 _atom_site_label
 _atom_site_symmetry_multiplicity
 _atom_site_fract_x
 _atom_site_fract_y
 _atom_site_fract_z
 _atom_site_occupancy
  Li  Li0  1  0.02190100  0.01313600  0.00713900  1
  Li  Li1  1  0.51451900  0.01308600  0.50180300  1
  Co  Co0  1  0.36020500  0.23608600  0.12422300  1
  Co  Co1  1  0.86188100  0.23998400  0.62278300  1
  Co  Co2  1  0.93629400  0.62454900  0.31272000  1
  Co  Co3  1  0.43516000  0.12609600  0.81176200  1
  Co  Co4  1  0.93815600  0.62332100  0.81142500  1
  Co  Co5  1  0.44198400  0.62883600  0.81203400  1
  Co  Co6  1  0.68313400  0.61846500  0.06355700  1
  Co  Co7  1  0.17519300  0.61276000  0.56150500  1
  Co  Co8  1  0.92094200  0.12750100  0.30782000  1
  Co  Co9  1  0.43540000  0.61416100  0.30778900  1
  O  O0  1  0.56050400  0.37671800  0.18320000  1
  O  O1  1  0.06677100  0.38610100  0.68017600  1
  O  O2  1  0.01979500  0.38277800  0.19550000  1
  O  O3  1  0.52934400  0.38552100  0.69847900  1
  O  O4  1  0.57861000  0.82433200  0.19536000  1
  O  O5  1  0.08454400  0.83115200  0.69747500  1
  O  O6  1  0.79876100  0.38599400  0.41467800  1
  O  O7  1  0.29163000  0.37252100  0.91961400  1
  O  O8  1  0.07364700  0.85859700  0.21378000  1
  O  O9  1  0.59161400  0.88278200  0.70836200  1
  O  O10  1  0.29130500  0.42374000  0.42473700  1
  O  O11  1  0.79332300  0.43139300  0.92824900  1
  O  O12  1  0.84486400  0.86882600  0.42357500  1
  O  O13  1  0.36113600  0.86270000  0.92874800  1
  F  F0  1  0.31474200  0.87059400  0.44736600  1
  F  F1  1  0.82464700  0.87827500  0.94614800  1
loop_
_geom_bond_atom_site_label_1
_geom_bond_atom_site_label_2
_geom_bond_distance
_geom_bond_site_symmetry_2
Li0 O8 2.012264 1_545
Li0 O13 2.029987 1_544
Li0 O11 2.033453 1_454
Li1 O12 1.986367 1_545
Li1 O10 1.995793 1_555
Li1 O9 1.999074 1_545
Co0 O0 1.882572 1_555
Co0 O7 1.980734 1_554
Co0 O2 1.996210 1_555
Co0 O4 1.996724 1_545
Co1 O1 1.924208 1_655
Co1 O3 1.982926 1_555
Co1 O5 1.986026 1_645
Co1 O6 2.017609 1_555
Co2 O12 1.937345 1_555
Co2 O10 1.946549 1_655
Co2 O8 1.972194 1_655
Co2 O4 1.981061 1_555
Co2 O2 1.981193 1_655
Co2 O6 2.003268 1_555
Co3 O9 1.887962 1_545
Co3 O13 1.913963 1_545
Co3 O7 1.926935 1_555
Co3 O3 1.957721 1_555
Co3 O1 2.083350 1_555
Co3 F1 2.177985 1_545
Co4 O9 1.890135 1_555
Co4 O11 1.909711 1_555
Co4 O7 1.928988 1_655
Co4 O5 1.963250 1_655
Co4 O1 2.077343 1_655
Co4 F1 2.175146 1_555
Co5 O13 1.943674 1_555
Co5 O11 1.949389 1_555
Co5 O3 1.956472 1_555
Co5 O5 1.967097 1_555
Co5 O9 2.130018 1_555
Co5 O7 2.156858 1_555
Co6 O13 1.920547 1_554
Co6 O11 1.920645 1_554
Co6 O4 1.955691 1_555
Co6 O2 1.956922 1_655
Co6 O0 2.023666 1_555
Co6 F1 2.169574 1_554
Co7 O1 1.900343 1_555
Co7 O10 1.943591 1_555
Co7 O12 1.971238 1_455
Co7 O5 2.040045 1_555
Co7 O3 2.048749 1_555
Co7 F0 2.140203 1_555
Co8 O12 1.895825 1_545
Co8 O8 1.917577 1_645
Co8 O2 1.954103 1_655
Co8 O6 1.962984 1_555
Co8 O0 2.019193 1_555
Co8 F0 2.218179 1_645
Co9 O10 1.901589 1_555
Co9 O8 1.915624 1_555
Co9 O4 1.951759 1_555
Co9 O6 1.959013 1_555
Co9 O0 2.020812 1_555
Co9 F0 2.222234 1_555
F0 Li1 1.870050 1_565
F1 Li0 1.849300 1_666
