# generated using pymatgen
data_Sc3NiC4
_symmetry_space_group_name_H-M   'P 1'
_cell_length_a   3.45690090
_cell_length_b   4.35461662
_cell_length_c   6.55329841
_cell_angle_alpha   109.40517052
_cell_angle_beta   105.29285853
_cell_angle_gamma   90.00000000
_symmetry_Int_Tables_number   1
_chemical_formula_structural   Sc3NiC4
_chemical_formula_sum   'Sc3 Ni1 C4'
_cell_volume   89.33386827
_cell_formula_units_Z   1
loop_
 _symmetry_equiv_pos_site_id
 _symmetry_equiv_pos_as_xyz
  1  'x, y, z'
loop_
 _atom_site_type_symbol
 _atom_site_label
 _atom_site_symmetry_multiplicity
 _atom_site_fract_x
 _atom_site_fract_y
 _atom_site_fract_z
 _atom_site_occupancy
  Sc  Sc0  1  0.68728347  0.18728347  0.37456794  1
  Sc  Sc1  1  0.31271653  0.81271653  0.62543206  1
  Sc  Sc2  1  0.50000000  0.50000000  -0.00000000  1
  Ni  Ni0  1  -0.00000000  -0.00000000  -0.00000000  1
  C  C0  1  0.12414054  0.45681125  0.24828207  1
  C  C1  1  0.87585946  0.54318875  0.75171793  1
  C  C2  1  0.12414054  0.79146982  0.24828207  1
  C  C3  1  0.87585946  0.20853018  0.75171793  1
loop_
_geom_bond_atom_site_label_1
_geom_bond_atom_site_label_2
_geom_bond_distance
_geom_bond_site_symmetry_2
C0 C2 1.457310 1_555
C0 Ni0 2.066286 1_555
C0 Sc1 2.353796 1_555
C0 Sc0 2.376508 1_555
C0 Sc0 2.376508 1_455
C0 Sc2 2.385251 1_455
C0 Sc2 2.385254 1_555
C1 C3 1.457310 1_555
C1 Ni0 2.066286 1_666
C1 Sc0 2.353796 1_555
C1 Sc1 2.376508 1_555
C1 Sc1 2.376508 1_655
C1 Sc2 2.385251 1_656
C1 Sc2 2.385254 1_556
C2 Ni0 2.066289 1_565
C2 Sc1 2.353794 1_555
C2 Sc0 2.376508 1_565
C2 Sc0 2.376508 1_465
C2 Sc2 2.385250 1_455
C2 Sc2 2.385252 1_555
C3 Ni0 2.066289 1_656
C3 Sc0 2.353794 1_555
C3 Sc1 2.376508 1_545
C3 Sc1 2.376508 1_645
C3 Sc2 2.385250 1_656
C3 Sc2 2.385252 1_556
