# generated using pymatgen
data_Mg3Fe(SiO4)2
_symmetry_space_group_name_H-M   'P 1'
_cell_length_a   10.38069200
_cell_length_b   4.84815400
_cell_length_c   7.75121021
_cell_angle_alpha   51.57419883
_cell_angle_beta   90.00000000
_cell_angle_gamma   90.00000000
_symmetry_Int_Tables_number   1
_chemical_formula_structural   Mg3Fe(SiO4)2
_chemical_formula_sum   'Mg6 Fe2 Si4 O16'
_cell_volume   305.60705077
_cell_formula_units_Z   2
loop_
 _symmetry_equiv_pos_site_id
 _symmetry_equiv_pos_as_xyz
  1  'x, y, z'
loop_
 _atom_site_type_symbol
 _atom_site_label
 _atom_site_symmetry_multiplicity
 _atom_site_fract_x
 _atom_site_fract_y
 _atom_site_fract_z
 _atom_site_occupancy
  Mg  Mg0  1  0.50000000  0.00000000  0.50000000  1
  Mg  Mg1  1  0.00000000  0.00000000  0.00000000  1
  Mg  Mg2  1  0.77760500  0.25961100  0.24943000  1
  Mg  Mg3  1  0.27760500  0.74038900  0.25057000  1
  Mg  Mg4  1  0.22239500  0.74038900  0.75057000  1
  Mg  Mg5  1  0.72239500  0.25961100  0.74943000  1
  Fe  Fe0  1  0.50000000  0.50000000  0.00000000  1
  Fe  Fe1  1  0.00000000  0.50000000  0.50000000  1
  Si  Si0  1  0.59505200  0.82290100  0.25107200  1
  Si  Si1  1  0.09505200  0.17709900  0.24892800  1
  Si  Si2  1  0.40494800  0.17709900  0.74892800  1
  Si  Si3  1  0.90494800  0.82290100  0.75107200  1
  O  O0  1  0.59332000  0.48217000  0.25277600  1
  O  O1  1  0.09332000  0.51783000  0.24722400  1
  O  O2  1  0.40668000  0.51783000  0.74722400  1
  O  O3  1  0.90668000  0.48217000  0.75277600  1
  O  O4  1  0.94762800  0.03996500  0.24628200  1
  O  O5  1  0.44762800  0.96003500  0.25371800  1
  O  O6  1  0.05237200  0.96003500  0.75371800  1
  O  O7  1  0.55237200  0.03996500  0.74628200  1
  O  O8  1  0.66619400  0.17965900  0.03549700  1
  O  O9  1  0.16619400  0.82034100  0.46450300  1
  O  O10  1  0.33654600  0.24351200  0.53326900  1
  O  O11  1  0.83654600  0.75648800  0.96673100  1
  O  O12  1  0.33380600  0.82034100  0.96450300  1
  O  O13  1  0.83380600  0.17965900  0.53549700  1
  O  O14  1  0.66345400  0.75648800  0.46673100  1
  O  O15  1  0.16345400  0.24351200  0.03326900  1
loop_
_geom_bond_atom_site_label_1
_geom_bond_atom_site_label_2
_geom_bond_distance
_geom_bond_site_symmetry_2
Mg0 O7 2.106438 1_555
Mg0 O5 2.106438 1_545
Mg0 O0 2.122969 1_555
Mg0 O2 2.122969 1_545
Mg0 O10 2.172030 1_555
Mg0 O14 2.172030 1_545
Mg1 O4 2.106438 1_455
Mg1 O6 2.106438 1_544
Mg1 O3 2.122969 1_454
Mg1 O1 2.122969 1_545
Mg1 O15 2.172030 1_555
Mg1 O11 2.172030 1_444
Mg2 O4 2.069282 1_555
Mg2 O13 2.083019 1_555
Mg2 O11 2.101818 1_554
Mg2 O0 2.204380 1_555
Mg2 O8 2.244218 1_555
Mg2 O14 2.254794 1_545
Mg3 O5 2.069282 1_555
Mg3 O12 2.083019 1_554
Mg3 O10 2.101818 1_555
Mg3 O1 2.204380 1_555
Mg3 O9 2.244218 1_555
Mg3 O15 2.254794 1_565
Mg4 O6 2.069282 1_555
Mg4 O9 2.083019 1_555
Mg4 O15 2.101818 1_556
Mg4 O2 2.204380 1_555
Mg4 O12 2.244218 1_555
Mg4 O10 2.254794 1_565
Mg5 O7 2.069282 1_555
Mg5 O8 2.083019 1_556
Mg5 O14 2.101818 1_555
Mg5 O3 2.204380 1_555
Mg5 O13 2.244218 1_555
Mg5 O11 2.254794 1_545
Fe0 O0 2.138764 1_555
Fe0 O2 2.138764 1_554
Fe0 O7 2.148694 1_564
Fe0 O5 2.148694 1_545
Fe0 O8 2.221013 1_555
Fe0 O12 2.221013 1_554
Fe1 O3 2.138764 1_455
Fe1 O1 2.138764 1_555
Fe1 O4 2.148694 1_465
Fe1 O6 2.148694 1_545
Fe1 O13 2.221013 1_455
Fe1 O9 2.221013 1_555
O0 Si0 1.643838 1_555
O1 Si1 1.643838 1_555
O2 Si2 1.643838 1_555
O3 Si3 1.643838 1_555
O4 Si1 1.673739 1_655
O5 Si0 1.673739 1_555
O6 Si3 1.673739 1_455
O7 Si2 1.673739 1_555
O8 Si0 1.654284 1_545
O9 Si1 1.654284 1_565
O10 Si2 1.653223 1_555
O11 Si3 1.653223 1_555
O12 Si2 1.654284 1_565
O13 Si3 1.654284 1_545
O14 Si0 1.653223 1_555
O15 Si1 1.653223 1_555
