# generated using pymatgen
data_Mg6VSb
_symmetry_space_group_name_H-M   'P 1'
_cell_length_a   5.02532900
_cell_length_b   6.42079300
_cell_length_c   10.70312000
_cell_angle_alpha   90.00000000
_cell_angle_beta   90.00000000
_cell_angle_gamma   90.00000000
_symmetry_Int_Tables_number   1
_chemical_formula_structural   Mg6VSb
_chemical_formula_sum   'Mg12 V2 Sb2'
_cell_volume   345.35326253
_cell_formula_units_Z   2
loop_
 _symmetry_equiv_pos_site_id
 _symmetry_equiv_pos_as_xyz
  1  'x, y, z'
loop_
 _atom_site_type_symbol
 _atom_site_label
 _atom_site_symmetry_multiplicity
 _atom_site_fract_x
 _atom_site_fract_y
 _atom_site_fract_z
 _atom_site_occupancy
  Mg  Mg0  1  0.00000000  0.24514100  0.08139400  1
  Mg  Mg1  1  0.00000000  0.75485900  0.08139400  1
  Mg  Mg2  1  0.00000000  0.50000000  0.83482900  1
  Mg  Mg3  1  0.50000000  0.24588800  0.91434900  1
  Mg  Mg4  1  0.50000000  0.75411200  0.91434900  1
  Mg  Mg5  1  0.50000000  0.50000000  0.66786400  1
  Mg  Mg6  1  0.00000000  0.74514100  0.58139400  1
  Mg  Mg7  1  0.00000000  0.25485900  0.58139400  1
  Mg  Mg8  1  0.00000000  0.00000000  0.33482900  1
  Mg  Mg9  1  0.50000000  0.74588800  0.41434900  1
  Mg  Mg10  1  0.50000000  0.25411200  0.41434900  1
  Mg  Mg11  1  0.50000000  0.00000000  0.16786400  1
  V  V0  1  0.00000000  0.50000000  0.33162600  1
  V  V1  1  0.00000000  0.00000000  0.83162600  1
  Sb  Sb0  1  0.50000000  0.50000000  0.17419700  1
  Sb  Sb1  1  0.50000000  0.00000000  0.67419700  1
loop_
_geom_bond_atom_site_label_1
_geom_bond_atom_site_label_2
_geom_bond_distance
_geom_bond_site_symmetry_2
Mg0 Mg3 3.083845 1_554
Mg0 Mg3 3.083845 1_454
Mg0 V1 3.102256 1_554
Mg0 Mg2 3.105188 1_554
Mg0 Mg11 3.106043 1_455
Mg0 Mg11 3.106043 1_555
Mg0 Mg8 3.136140 1_555
Mg0 V0 3.138612 1_555
Mg0 Mg1 3.147999 1_545
Mg0 Sb0 3.158779 1_455
Mg0 Sb0 3.158779 1_555
Mg0 Mg1 3.272794 1_555
Mg1 Mg4 3.083845 1_454
Mg1 Mg4 3.083845 1_554
Mg1 V1 3.102256 1_564
Mg1 Mg2 3.105188 1_554
Mg1 Mg11 3.106043 1_565
Mg1 Mg11 3.106043 1_465
Mg1 Mg8 3.136140 1_565
Mg1 V0 3.138612 1_555
Mg1 Sb0 3.158779 1_455
Mg1 Sb0 3.158779 1_555
Mg2 Mg5 3.083345 1_555
Mg2 Mg5 3.083345 1_455
Mg2 Mg3 3.114482 1_555
Mg2 Mg4 3.114482 1_555
Mg2 Mg3 3.114482 1_455
Mg2 Mg4 3.114482 1_455
Mg2 Mg6 3.136140 1_555
Mg2 Mg7 3.136140 1_555
Mg2 V1 3.210580 1_555
Mg2 V1 3.210580 1_565
Mg3 Sb1 3.016526 1_555
Mg3 V1 3.096773 1_555
Mg3 V1 3.096773 1_655
Mg3 Mg5 3.101935 1_555
Mg3 Mg4 3.157592 1_545
Mg3 Sb0 3.224454 1_556
Mg3 Mg4 3.263201 1_555
Mg4 Sb1 3.016526 1_565
Mg4 V1 3.096773 1_565
Mg4 V1 3.096773 1_665
Mg4 Mg5 3.101935 1_555
Mg4 Sb0 3.224454 1_556
Mg5 Mg6 3.106043 1_655
Mg5 Mg6 3.106043 1_555
Mg5 Mg7 3.106043 1_555
Mg5 Mg7 3.106043 1_655
Mg5 Mg9 3.139290 1_555
Mg5 Sb1 3.211112 1_555
Mg5 Sb1 3.211112 1_565
Mg6 Mg9 3.083845 1_555
Mg6 Mg9 3.083845 1_455
Mg6 V0 3.102256 1_555
Mg6 Mg8 3.105188 1_565
Mg6 V1 3.138612 1_565
Mg6 Mg7 3.147999 1_555
Mg6 Sb1 3.158779 1_465
Mg6 Sb1 3.158779 1_565
Mg6 Mg7 3.272794 1_565
Mg7 V0 3.102256 1_555
Mg7 Mg8 3.105188 1_555
Mg7 V1 3.138612 1_555
Mg7 Sb1 3.158779 1_455
Mg7 Sb1 3.158779 1_555
Mg8 Mg9 3.114482 1_545
Mg8 Mg9 3.114482 1_445
Mg8 V0 3.210580 1_545
Mg8 V0 3.210580 1_555
Mg9 Sb0 3.016526 1_555
Mg9 V0 3.096773 1_555
Mg9 V0 3.096773 1_655
Mg9 Sb1 3.224454 1_565
Mg10 Sb0 3.016526 1_555
Mg10 Mg7 3.083845 1_555
Mg10 Mg7 3.083845 1_655
Mg10 V0 3.096773 1_555
Mg10 V0 3.096773 1_655
Mg10 Mg11 3.101935 1_555
Mg10 Mg8 3.114482 1_555
Mg10 Mg8 3.114482 1_655
Mg10 Mg5 3.139290 1_555
Mg10 Mg9 3.157592 1_555
Mg10 Sb1 3.224454 1_555
Mg10 Mg9 3.263201 1_545
Mg11 Mg8 3.083345 1_655
Mg11 Mg8 3.083345 1_555
Mg11 Mg9 3.101935 1_545
Mg11 Mg3 3.139290 1_554
Mg11 Mg4 3.139290 1_544
Mg11 Sb0 3.211112 1_545
Mg11 Sb0 3.211112 1_555
Sb0 V0 3.025334 1_655
Sb0 V0 3.025334 1_555
Sb1 V1 3.025334 1_555
Sb1 V1 3.025334 1_655
