# generated using pymatgen
data_Mo21S8
_symmetry_space_group_name_H-M   'P 1'
_cell_length_a   11.75994537
_cell_length_b   11.75994537
_cell_length_c   11.75994537
_cell_angle_alpha   91.04373190
_cell_angle_beta   91.04373190
_cell_angle_gamma   164.48680823
_symmetry_Int_Tables_number   1
_chemical_formula_structural   Mo21S8
_chemical_formula_sum   'Mo21 S8'
_cell_volume   431.00589361
_cell_formula_units_Z   1
loop_
 _symmetry_equiv_pos_site_id
 _symmetry_equiv_pos_as_xyz
  1  'x, y, z'
loop_
 _atom_site_type_symbol
 _atom_site_label
 _atom_site_symmetry_multiplicity
 _atom_site_fract_x
 _atom_site_fract_y
 _atom_site_fract_z
 _atom_site_occupancy
  Mo  Mo0  1  0.34774200  0.44485800  0.79260000  1
  Mo  Mo1  1  0.65225800  0.55514200  0.20740000  1
  Mo  Mo2  1  0.55514200  0.34774200  0.90288400  1
  Mo  Mo3  1  0.44485800  0.65225800  0.09711600  1
  Mo  Mo4  1  0.02212300  0.27945900  0.30158200  1
  Mo  Mo5  1  0.97787700  0.72054100  0.69841800  1
  Mo  Mo6  1  0.72054100  0.02212300  0.74266500  1
  Mo  Mo7  1  0.27945900  0.97787700  0.25733500  1
  Mo  Mo8  1  0.19459400  0.19706100  0.39165500  1
  Mo  Mo9  1  0.80540600  0.80293900  0.60834500  1
  Mo  Mo10  1  0.80293900  0.19459400  0.99753300  1
  Mo  Mo11  1  0.19706100  0.80540600  0.00246700  1
  Mo  Mo12  1  0.44832600  0.07689100  0.52521700  1
  Mo  Mo13  1  0.55167400  0.92310900  0.47478300  1
  Mo  Mo14  1  0.92310900  0.44832600  0.37143500  1
  Mo  Mo15  1  0.07689100  0.55167400  0.62856500  1
  Mo  Mo16  1  0.18450700  0.38508500  0.56959300  1
  Mo  Mo17  1  0.81549300  0.61491500  0.43040700  1
  Mo  Mo18  1  0.61491500  0.18450700  0.79942200  1
  Mo  Mo19  1  0.38508500  0.81549300  0.20057800  1
  Mo  Mo20  1  0.00000000  0.00000000  0.00000000  1
  S  S0  1  0.06246800  0.13420200  0.19666900  1
  S  S1  1  0.93753200  0.86579800  0.80333100  1
  S  S2  1  0.86579800  0.06246800  0.92826600  1
  S  S3  1  0.13420200  0.93753200  0.07173400  1
  S  S4  1  0.36530100  0.21306000  0.57836100  1
  S  S5  1  0.63469900  0.78694000  0.42163900  1
  S  S6  1  0.78694000  0.36530100  0.15224100  1
  S  S7  1  0.21306000  0.63469900  0.84775900  1
loop_
_geom_bond_atom_site_label_1
_geom_bond_atom_site_label_2
_geom_bond_distance
_geom_bond_site_symmetry_2
Mo0 S2 2.522666 1_455
Mo0 S2 2.522666 1_565
Mo0 S1 2.530973 1_555
Mo0 S1 2.530975 1_445
Mo1 S3 2.522666 1_655
Mo1 S3 2.522666 1_545
Mo1 S0 2.530973 1_555
Mo1 S0 2.530975 1_665
Mo2 S1 2.522660 1_555
Mo2 S1 2.522662 1_445
Mo2 S3 2.530974 1_546
Mo2 S3 2.530974 1_656
Mo3 S0 2.522660 1_555
Mo3 S0 2.522662 1_665
Mo3 S2 2.530974 1_564
Mo3 S2 2.530974 1_454
Mo4 S5 2.444554 1_445
Mo4 S5 2.444554 1_555
Mo4 S0 2.484297 1_555
Mo5 S4 2.444554 1_665
Mo5 S4 2.444554 1_555
Mo5 S1 2.484297 1_555
Mo6 S7 2.444547 1_545
Mo6 S7 2.444550 1_655
Mo6 S2 2.484281 1_555
Mo7 S6 2.444547 1_565
Mo7 S6 2.444550 1_455
Mo7 S3 2.484281 1_555
Mo8 S5 2.384743 1_555
Mo8 S5 2.384743 1_445
Mo8 S0 2.411148 1_555
Mo8 S4 2.825392 1_555
Mo9 S4 2.384743 1_555
Mo9 S4 2.384743 1_665
Mo9 S1 2.411148 1_555
Mo9 S5 2.825392 1_555
Mo10 S7 2.384743 1_545
Mo10 S7 2.384743 1_655
Mo10 S2 2.411137 1_555
Mo10 S6 2.825392 1_556
Mo11 S6 2.384743 1_455
Mo11 S6 2.384743 1_565
Mo11 S3 2.411137 1_555
Mo11 S7 2.825392 1_554
Mo12 S4 2.628122 1_555
Mo13 S5 2.628122 1_555
Mo14 S6 2.628122 1_555
Mo15 S7 2.628122 1_555
Mo16 S5 2.410102 1_445
Mo16 S5 2.410104 1_555
Mo17 S4 2.410102 1_665
Mo17 S4 2.410104 1_555
Mo18 S7 2.410095 1_655
Mo18 S7 2.410095 1_545
Mo19 S6 2.410095 1_455
Mo19 S6 2.410095 1_565
Mo20 S0 2.439336 1_555
Mo20 S1 2.439336 1_444
Mo20 S3 2.439347 1_545
Mo20 S2 2.439347 1_454
