# generated using pymatgen
data_SrLaMnO4
_symmetry_space_group_name_H-M   'P 1'
_cell_length_a   3.88972700
_cell_length_b   3.88972700
_cell_length_c   6.99669462
_cell_angle_alpha   73.86098467
_cell_angle_beta   73.86098467
_cell_angle_gamma   90.00000000
_symmetry_Int_Tables_number   1
_chemical_formula_structural   SrLaMnO4
_chemical_formula_sum   'Sr1 La1 Mn1 O4'
_cell_volume   97.33732463
_cell_formula_units_Z   1
loop_
 _symmetry_equiv_pos_site_id
 _symmetry_equiv_pos_as_xyz
  1  'x, y, z'
loop_
 _atom_site_type_symbol
 _atom_site_label
 _atom_site_symmetry_multiplicity
 _atom_site_fract_x
 _atom_site_fract_y
 _atom_site_fract_z
 _atom_site_occupancy
  Sr  Sr0  1  0.35679700  0.35679700  0.28640500  1
  La  La0  1  0.64343700  0.64343700  0.71312600  1
  Mn  Mn0  1  0.99717000  0.99717000  0.00566000  1
  O  O0  1  0.50557300  0.00557300  0.98885300  1
  O  O1  1  0.00557300  0.50557300  0.98885300  1
  O  O2  1  0.16780700  0.16780700  0.66438500  1
  O  O3  1  0.82364200  0.82364200  0.35271600  1
loop_
_geom_bond_atom_site_label_1
_geom_bond_atom_site_label_2
_geom_bond_distance
_geom_bond_site_symmetry_2
La0 O3 2.318665 1_555
La0 O0 2.632315 1_565
La0 O1 2.632315 1_655
La0 O0 2.632318 1_555
La0 O1 2.632318 1_555
La0 O2 2.768267 1_665
La0 O2 2.768269 1_655
La0 O2 2.768269 1_565
La0 O2 2.768272 1_555
Mn0 O0 1.947865 1_664
Mn0 O1 1.947865 1_664
Mn0 O0 1.947869 1_564
Mn0 O1 1.947869 1_654
Mn0 O2 2.195562 1_664
Mn0 O3 2.232753 1_555
O0 Sr0 2.728908 1_556
O0 Sr0 2.728908 1_546
O1 Sr0 2.728908 1_556
O1 Sr0 2.728908 1_456
O2 Sr0 2.431700 1_555
O3 Sr0 2.783337 1_665
O3 Sr0 2.783340 1_655
O3 Sr0 2.783340 1_565
O3 Sr0 2.783342 1_555
