# generated using pymatgen
data_Y4CrS7
_symmetry_space_group_name_H-M   'P 1'
_cell_length_a   6.51686063
_cell_length_b   6.51686063
_cell_length_c   11.37948385
_cell_angle_alpha   75.04825653
_cell_angle_beta   75.04825653
_cell_angle_gamma   34.00353680
_symmetry_Int_Tables_number   1
_chemical_formula_structural   Y4CrS7
_chemical_formula_sum   'Y4 Cr1 S7'
_cell_volume   260.24944882
_cell_formula_units_Z   1
loop_
 _symmetry_equiv_pos_site_id
 _symmetry_equiv_pos_as_xyz
  1  'x, y, z'
loop_
 _atom_site_type_symbol
 _atom_site_label
 _atom_site_symmetry_multiplicity
 _atom_site_fract_x
 _atom_site_fract_y
 _atom_site_fract_z
 _atom_site_occupancy
  Y  Y0  1  0.69333600  0.69333600  0.20835000  1
  Y  Y1  1  0.30715700  0.30715700  0.80124400  1
  Y  Y2  1  0.99828700  0.99828700  0.00813400  1
  Y  Y3  1  0.11272000  0.11272000  0.56192600  1
  Cr  Cr0  1  0.88469200  0.88469200  0.42538300  1
  S  S0  1  0.74831400  0.74831400  0.63137300  1
  S  S1  1  0.27424100  0.27424100  0.35252600  1
  S  S2  1  0.33570400  0.33570400  0.05251300  1
  S  S3  1  0.65945300  0.65945300  0.94752200  1
  S  S4  1  0.02997500  0.02997500  0.23279200  1
  S  S5  1  0.96483800  0.96483800  0.78463100  1
  S  S6  1  0.49128200  0.49128200  0.49360700  1
loop_
_geom_bond_atom_site_label_1
_geom_bond_atom_site_label_2
_geom_bond_distance
_geom_bond_site_symmetry_2
Cr0 S4 2.437357 1_665
Cr0 S0 2.496803 1_555
Cr0 S6 2.560349 1_565
Cr0 S6 2.560349 1_655
Cr0 S1 2.613338 1_565
Cr0 S1 2.613338 1_655
S0 Y3 2.798674 1_655
S0 Y3 2.798674 1_565
S0 Y1 2.944597 1_565
S0 Y1 2.944597 1_655
S1 Y3 2.672550 1_555
S1 Y0 2.869218 1_545
S1 Y0 2.869218 1_455
S2 Y2 2.727710 1_455
S2 Y2 2.727710 1_545
S2 Y0 2.868214 1_455
S2 Y0 2.868214 1_545
S2 Y1 2.975103 1_554
S3 Y2 2.719267 1_456
S3 Y2 2.719267 1_546
S3 Y1 2.852642 1_655
S3 Y1 2.852642 1_565
S3 Y0 3.108742 1_556
S4 Y2 2.690071 1_445
S4 Y0 2.747497 1_545
S4 Y0 2.747497 1_455
S5 Y2 2.686000 1_556
S5 Y3 2.701741 1_665
S5 Y1 2.707200 1_655
S5 Y1 2.707200 1_565
S6 Y3 2.676092 1_565
S6 Y3 2.676092 1_655
S6 Y0 3.531046 1_555
