# generated using pymatgen
data_Mn5Al8
_symmetry_space_group_name_H-M   'P 1'
_cell_length_a   7.71380517
_cell_length_b   7.71380517
_cell_length_c   7.71380540
_cell_angle_alpha   109.53494299
_cell_angle_beta   109.53494299
_cell_angle_gamma   109.53493989
_symmetry_Int_Tables_number   1
_chemical_formula_structural   Mn5Al8
_chemical_formula_sum   'Mn10 Al16'
_cell_volume   352.49687893
_cell_formula_units_Z   2
loop_
 _symmetry_equiv_pos_site_id
 _symmetry_equiv_pos_as_xyz
  1  'x, y, z'
loop_
 _atom_site_type_symbol
 _atom_site_label
 _atom_site_symmetry_multiplicity
 _atom_site_fract_x
 _atom_site_fract_y
 _atom_site_fract_z
 _atom_site_occupancy
  Mn  Mn0  1  0.15087900  0.15087900  0.15087900  1
  Mn  Mn1  1  0.78894500  0.00088200  0.00088200  1
  Mn  Mn2  1  0.00088200  0.00088200  0.78894500  1
  Mn  Mn3  1  0.00088200  0.78894500  0.00088200  1
  Mn  Mn4  1  0.32893900  0.98763500  0.98763500  1
  Mn  Mn5  1  0.98763500  0.98763500  0.32893900  1
  Mn  Mn6  1  0.98763500  0.32893900  0.98763500  1
  Mn  Mn7  1  0.02112500  0.36779400  0.36779400  1
  Mn  Mn8  1  0.36779400  0.36779400  0.02112500  1
  Mn  Mn9  1  0.36779400  0.02112500  0.36779400  1
  Al  Al0  1  0.68931600  0.68931600  0.68931600  1
  Al  Al1  1  0.99950300  0.64142900  0.64142900  1
  Al  Al2  1  0.64142900  0.64142900  0.99950300  1
  Al  Al3  1  0.64142900  0.99950300  0.64142900  1
  Al  Al4  1  0.55610300  0.33634700  0.33634700  1
  Al  Al5  1  0.33634700  0.33634700  0.55610300  1
  Al  Al6  1  0.33634700  0.55610300  0.33634700  1
  Al  Al7  1  0.38248600  0.73746500  0.73746500  1
  Al  Al8  1  0.73746500  0.73746500  0.38248600  1
  Al  Al9  1  0.73746500  0.38248600  0.73746500  1
  Al  Al10  1  0.04655400  0.67310900  0.27913600  1
  Al  Al11  1  0.67310900  0.27913600  0.04655400  1
  Al  Al12  1  0.27913600  0.04655400  0.67310900  1
  Al  Al13  1  0.04655400  0.27913600  0.67310900  1
  Al  Al14  1  0.27913600  0.67310900  0.04655400  1
  Al  Al15  1  0.67310900  0.04655400  0.27913600  1
loop_
_geom_bond_atom_site_label_1
_geom_bond_atom_site_label_2
_geom_bond_distance
_geom_bond_site_symmetry_2
Mn0 Mn1 2.292634 1_455
Mn0 Mn3 2.292634 1_545
Mn0 Mn2 2.292634 1_554
Mn0 Mn6 2.512134 1_454
Mn0 Mn4 2.512134 1_544
Mn0 Mn5 2.512134 1_445
Mn0 Mn9 2.639870 1_555
Mn0 Mn7 2.639870 1_555
Mn0 Mn8 2.639870 1_555
Mn1 Mn5 2.539120 1_545
Mn1 Mn6 2.539120 1_554
Mn1 Mn7 2.663007 1_655
Mn1 Mn3 2.670733 1_645
Mn1 Mn2 2.670733 1_654
Mn2 Mn4 2.539119 1_545
Mn2 Mn6 2.539119 1_455
Mn2 Mn8 2.663007 1_556
Mn2 Mn3 2.670733 1_546
Mn3 Mn5 2.539120 1_455
Mn3 Mn4 2.539120 1_554
Mn3 Mn9 2.663007 1_565
Mn4 Mn8 2.758580 1_566
Mn4 Mn9 2.758580 1_566
Mn5 Mn9 2.758580 1_665
Mn5 Mn7 2.758580 1_665
Mn6 Mn8 2.758580 1_656
Mn6 Mn7 2.758580 1_656
Al0 Mn1 2.410307 1_566
Al0 Mn3 2.410307 1_656
Al0 Mn2 2.410307 1_665
Al0 Al9 2.638425 1_555
Al0 Al7 2.638425 1_555
Al0 Al8 2.638425 1_555
Al0 Al3 2.662506 1_555
Al0 Al1 2.662506 1_555
Al0 Al2 2.662506 1_555
Al0 Al4 2.680035 1_555
Al0 Al6 2.680035 1_555
Al0 Al5 2.680035 1_555
Al1 Mn7 2.535706 1_655
Al1 Al7 2.555581 1_655
Al1 Mn2 2.616340 1_665
Al1 Mn3 2.616340 1_656
Al1 Mn4 2.622009 1_655
Al1 Al8 2.813382 1_555
Al1 Al9 2.813382 1_555
Al1 Al4 2.881875 1_555
Al1 Al13 3.012855 1_655
Al1 Al10 3.012855 1_655
Al1 Al14 3.017816 1_656
Al1 Al12 3.017816 1_665
Al2 Mn8 2.535706 1_556
Al2 Al8 2.555581 1_556
Al2 Mn3 2.616340 1_656
Al2 Mn1 2.616340 1_566
Al2 Mn5 2.622009 1_556
Al2 Al7 2.813382 1_555
Al2 Al9 2.813382 1_555
Al2 Al5 2.881875 1_555
Al3 Mn9 2.535706 1_565
Al3 Al9 2.555581 1_565
Al3 Mn2 2.616340 1_665
Al3 Mn1 2.616340 1_566
Al3 Mn6 2.622009 1_565
Al3 Al8 2.813382 1_555
Al3 Al7 2.813382 1_555
Al3 Al6 2.881875 1_555
Al4 Mn8 2.519788 1_555
Al4 Mn9 2.519788 1_555
Al4 Mn4 2.529493 1_544
Al4 Mn0 2.552274 1_555
Al4 Al6 2.769264 1_555
Al4 Al5 2.769265 1_555
Al4 Al8 2.773675 1_555
Al4 Al9 2.773676 1_555
Al5 Mn9 2.519788 1_555
Al5 Mn7 2.519788 1_555
Al5 Mn5 2.529493 1_445
Al5 Mn0 2.552274 1_555
Al5 Al6 2.769265 1_555
Al5 Al7 2.773675 1_555
Al5 Al9 2.773675 1_555
Al6 Mn8 2.519788 1_555
Al6 Mn7 2.519788 1_555
Al6 Mn6 2.529493 1_454
Al6 Mn0 2.552274 1_555
Al6 Al8 2.773675 1_555
Al6 Al7 2.773676 1_555
Al7 Mn4 2.488824 1_555
Al7 Mn1 2.608759 1_566
Al7 Mn7 2.821936 1_555
Al8 Mn5 2.488824 1_555
Al8 Mn2 2.608759 1_665
Al8 Mn8 2.821936 1_555
Al9 Mn6 2.488824 1_555
Al9 Mn3 2.608759 1_656
Al9 Mn9 2.821936 1_555
Al10 Mn5 2.543899 1_455
Al10 Mn3 2.552836 1_555
Al10 Mn6 2.613099 1_454
Al10 Mn7 2.628837 1_555
Al10 Al6 2.638625 1_555
Al10 Mn9 2.646678 1_565
Al10 Al12 2.792046 1_565
Al10 Al11 2.792046 1_455
Al10 Al8 2.892182 1_455
Al10 Al14 2.930892 1_555
Al10 Al2 3.017816 1_454
Al11 Mn6 2.543899 1_554
Al11 Mn1 2.552836 1_555
Al11 Mn4 2.613099 1_544
Al11 Mn8 2.628837 1_555
Al11 Al4 2.638625 1_555
Al11 Mn7 2.646678 1_655
Al11 Al12 2.792046 1_554
Al11 Al9 2.892183 1_554
Al11 Al15 2.930892 1_555
Al11 Al2 3.012855 1_554
Al11 Al3 3.017816 1_544
Al12 Mn4 2.543899 1_545
Al12 Mn2 2.552836 1_555
Al12 Mn5 2.613099 1_445
Al12 Mn9 2.628837 1_555
Al12 Al5 2.638625 1_555
Al12 Mn8 2.646678 1_556
Al12 Al7 2.892182 1_545
Al12 Al13 2.930892 1_555
Al12 Al3 3.012855 1_545
Al13 Mn6 2.543899 1_455
Al13 Mn2 2.552836 1_555
Al13 Mn5 2.613099 1_445
Al13 Mn7 2.628837 1_555
Al13 Al5 2.638625 1_555
Al13 Mn8 2.646678 1_556
Al13 Al14 2.792046 1_556
Al13 Al15 2.792046 1_455
Al13 Al9 2.892182 1_455
Al13 Al3 3.017816 1_445
Al14 Mn4 2.543899 1_554
Al14 Mn3 2.552836 1_555
Al14 Mn6 2.613099 1_454
Al14 Mn8 2.628837 1_555
Al14 Al6 2.638625 1_555
Al14 Mn9 2.646678 1_565
Al14 Al15 2.792046 1_565
Al14 Al7 2.892183 1_554
Al14 Al2 3.012855 1_554
Al15 Mn5 2.543899 1_545
Al15 Mn1 2.552836 1_555
Al15 Mn4 2.613099 1_544
Al15 Mn9 2.628837 1_555
Al15 Al4 2.638625 1_555
Al15 Mn7 2.646678 1_655
Al15 Al8 2.892182 1_545
Al15 Al3 3.012855 1_545
Al15 Al2 3.017816 1_544
