# generated using pymatgen
data_Tm6Ni2Sn
_symmetry_space_group_name_H-M   'P 1'
_cell_length_a   8.29707165
_cell_length_b   8.29746425
_cell_length_c   8.29684775
_cell_angle_alpha   105.81290459
_cell_angle_beta   110.39867061
_cell_angle_gamma   112.27393065
_symmetry_Int_Tables_number   1
_chemical_formula_structural   Tm6Ni2Sn
_chemical_formula_sum   'Tm12 Ni4 Sn2'
_cell_volume   438.21748799
_cell_formula_units_Z   2
loop_
 _symmetry_equiv_pos_site_id
 _symmetry_equiv_pos_as_xyz
  1  'x, y, z'
loop_
 _atom_site_type_symbol
 _atom_site_label
 _atom_site_symmetry_multiplicity
 _atom_site_fract_x
 _atom_site_fract_y
 _atom_site_fract_z
 _atom_site_occupancy
  Tm  Tm0  1  0.70579600  0.26706100  0.97284700  1
  Tm  Tm1  1  0.29423000  0.73300400  0.02724700  1
  Tm  Tm2  1  0.70580800  0.73292000  0.43872600  1
  Tm  Tm3  1  0.29420500  0.26698800  0.56119200  1
  Tm  Tm4  1  0.80795900  0.13471200  0.32676700  1
  Tm  Tm5  1  0.80796600  0.48120400  0.67326600  1
  Tm  Tm6  1  0.19202000  0.86529500  0.67323000  1
  Tm  Tm7  1  0.19203900  0.51882300  0.32673600  1
  Tm  Tm8  1  0.61478300  0.79593700  0.81884800  1
  Tm  Tm9  1  0.97708100  0.79588200  0.18118300  1
  Tm  Tm10  1  0.02288600  0.20409900  0.81879300  1
  Tm  Tm11  1  0.38521300  0.20407500  0.18112600  1
  Ni  Ni0  1  0.85275900  0.50000200  0.35274500  1
  Ni  Ni1  1  0.14731600  0.49999000  0.64732900  1
  Ni  Ni2  1  0.99996400  0.12815400  0.12811900  1
  Ni  Ni3  1  0.00001200  0.87185600  0.87188300  1
  Sn  Sn0  1  0.49995200  0.49999600  0.99994600  1
  Sn  Sn1  1  0.50001100  0.00000300  0.50001500  1
loop_
_geom_bond_atom_site_label_1
_geom_bond_atom_site_label_2
_geom_bond_distance
_geom_bond_site_symmetry_2
Ni0 Tm0 2.715037 1_554
Ni0 Tm2 2.715109 1_555
Ni0 Tm6 2.846588 1_655
Ni0 Tm7 2.846739 1_655
Ni0 Tm5 2.847014 1_555
Ni0 Tm4 2.847017 1_555
Ni0 Tm9 3.182098 1_555
Ni0 Tm11 3.182530 1_555
Ni1 Tm1 2.715399 1_556
Ni1 Tm3 2.715548 1_555
Ni1 Tm4 2.846932 1_455
Ni1 Tm5 2.847143 1_455
Ni1 Tm7 2.847430 1_555
Ni1 Tm6 2.847546 1_555
Ni1 Tm10 3.181710 1_555
Ni1 Tm8 3.182211 1_555
Ni2 Ni3 2.565045 1_644
Ni2 Tm4 2.665415 1_555
Ni2 Tm7 2.665510 1_655
Ni2 Tm8 2.854237 1_544
Ni2 Tm11 2.854833 1_655
Ni2 Tm10 2.854928 1_654
Ni2 Tm9 2.855519 1_545
Ni2 Tm3 3.113683 1_655
Ni2 Tm0 3.113697 1_554
Ni3 Tm5 2.665413 1_455
Ni3 Tm6 2.665472 1_555
Ni3 Tm11 2.854258 1_566
Ni3 Tm8 2.854606 1_455
Ni3 Tm9 2.854844 1_456
Ni3 Tm10 2.855396 1_565
Ni3 Tm1 3.113849 1_556
Ni3 Tm2 3.113948 1_455
Sn0 Tm3 3.038762 1_555
Sn0 Tm2 3.038785 1_556
Sn0 Tm1 3.038955 1_556
Sn0 Tm0 3.039130 1_555
Sn0 Tm10 3.229437 1_555
Sn0 Tm8 3.229606 1_555
Sn0 Tm9 3.229709 1_556
Sn0 Tm11 3.229876 1_556
Sn1 Tm1 3.307127 1_545
Sn1 Tm3 3.307577 1_555
Sn1 Tm0 3.307633 1_555
Sn1 Tm2 3.308325 1_545
Sn1 Tm7 3.333747 1_545
Sn1 Tm4 3.333877 1_555
Sn1 Tm5 3.333899 1_555
Sn1 Tm6 3.333942 1_545
Sn1 Tm10 3.560204 1_655
Sn1 Tm9 3.560605 1_445
Sn1 Tm8 3.560743 1_545
Sn1 Tm11 3.561185 1_555
