# generated using pymatgen
data_Yb(BRu)4
_symmetry_space_group_name_H-M   'P 1'
_cell_length_a   9.13352351
_cell_length_b   9.13352351
_cell_length_c   9.13352351
_cell_angle_alpha   132.10812830
_cell_angle_beta   132.10812830
_cell_angle_gamma   70.05830351
_symmetry_Int_Tables_number   1
_chemical_formula_structural   Yb(BRu)4
_chemical_formula_sum   'Yb4 B16 Ru16'
_cell_volume   411.11958726
_cell_formula_units_Z   4
loop_
 _symmetry_equiv_pos_site_id
 _symmetry_equiv_pos_as_xyz
  1  'x, y, z'
loop_
 _atom_site_type_symbol
 _atom_site_label
 _atom_site_symmetry_multiplicity
 _atom_site_fract_x
 _atom_site_fract_y
 _atom_site_fract_z
 _atom_site_occupancy
  Yb  Yb0  1  0.75000000  0.75000000  0.00000000  1
  Yb  Yb1  1  0.25000000  0.25000000  0.00000000  1
  Yb  Yb2  1  0.00000000  0.50000000  0.50000000  1
  Yb  Yb3  1  0.50000000  0.00000000  0.50000000  1
  B  B0  1  0.72043644  0.41341994  0.97134024  1
  B  B1  1  0.22043644  0.24909519  0.30701650  1
  B  B2  1  0.66341994  0.47043644  0.47134024  1
  B  B3  1  0.16341994  0.69207869  0.19298350  1
  B  B4  1  0.02956356  0.83658006  0.52865976  1
  B  B5  1  0.52956356  0.00090481  0.19298350  1
  B  B6  1  0.08658006  0.77956356  0.02865976  1
  B  B7  1  0.58658006  0.55792131  0.30701650  1
  B  B8  1  0.94207869  0.91341994  0.69298350  1
  B  B9  1  0.44207869  0.74909519  0.02865976  1
  B  B10  1  0.49909519  0.97043644  0.80701650  1
  B  B11  1  0.99909519  0.19207869  0.52865976  1
  B  B12  1  0.80792131  0.33658006  0.80701650  1
  B  B13  1  0.30792131  0.50090481  0.47134024  1
  B  B14  1  0.25090481  0.27956356  0.69298350  1
  B  B15  1  0.75090481  0.05792131  0.97134024  1
  Ru  Ru0  1  0.03847204  0.57333819  0.23507527  1
  Ru  Ru1  1  0.53847204  0.30339777  0.46513485  1
  Ru  Ru2  1  0.82333819  0.78847204  0.73507527  1
  Ru  Ru3  1  0.32333819  0.58826292  0.03486515  1
  Ru  Ru4  1  0.71152796  0.67666181  0.26492473  1
  Ru  Ru5  1  0.21152796  0.94660223  0.03486515  1
  Ru  Ru6  1  0.92666181  0.46152796  0.76492473  1
  Ru  Ru7  1  0.42666181  0.66173708  0.46513485  1
  Ru  Ru8  1  0.83826292  0.07333819  0.53486515  1
  Ru  Ru9  1  0.33826292  0.80339777  0.76492473  1
  Ru  Ru10  1  0.55339777  0.28847204  0.96513485  1
  Ru  Ru11  1  0.05339777  0.08826292  0.26492473  1
  Ru  Ru12  1  0.91173708  0.17666181  0.96513485  1
  Ru  Ru13  1  0.41173708  0.44660223  0.73507527  1
  Ru  Ru14  1  0.19660223  0.96152796  0.53486515  1
  Ru  Ru15  1  0.69660223  0.16173708  0.23507527  1
loop_
_geom_bond_atom_site_label_1
_geom_bond_atom_site_label_2
_geom_bond_distance
_geom_bond_site_symmetry_2
B0 B12 1.787946 1_555
B0 Ru4 2.119152 1_556
B0 Ru10 2.148986 1_555
B0 Ru13 2.198385 1_555
B0 Ru12 2.263487 1_555
B0 Ru0 2.272837 1_656
B0 Yb3 2.933769 1_555
B0 Yb0 2.997361 1_556
B0 Yb2 3.190989 1_656
B1 B13 1.787957 1_555
B1 Ru5 2.119154 1_545
B1 Ru11 2.148972 1_555
B1 Ru12 2.198387 1_454
B1 Ru13 2.263486 1_555
B1 Ru1 2.272838 1_555
B1 Yb2 2.933771 1_555
B1 Yb1 2.997367 1_555
B1 Yb3 3.190981 1_555
B2 B7 1.787946 1_555
B2 Ru6 2.119152 1_555
B2 Ru1 2.148986 1_555
B2 Ru15 2.198385 1_555
B2 Ru7 2.263487 1_555
B2 Ru2 2.272837 1_555
B2 Yb1 2.933769 1_555
B2 Yb2 2.997361 1_655
B2 Yb0 3.190989 1_556
B3 B6 1.787946 1_555
B3 Ru7 2.119151 1_555
B3 Ru0 2.148980 1_555
B3 Ru14 2.198389 1_555
B3 Ru6 2.263485 1_454
B3 Ru3 2.272846 1_555
B3 Yb0 2.933771 1_455
B3 Yb3 2.997367 1_565
B3 Yb1 3.190981 1_555
B4 B8 1.787946 1_455
B4 Ru0 2.119152 1_555
B4 Ru14 2.148986 1_555
B4 Ru9 2.198385 1_555
B4 Ru8 2.263487 1_465
B4 Ru4 2.272837 1_455
B4 Yb1 2.933769 1_566
B4 Yb2 2.997361 1_555
B4 Yb0 3.190989 1_455
B5 B9 1.787957 1_545
B5 Ru1 2.119154 1_555
B5 Ru15 2.148972 1_555
B5 Ru8 2.198387 1_555
B5 Ru9 2.263486 1_544
B5 Ru5 2.272838 1_545
B5 Yb0 2.933771 1_545
B5 Yb3 2.997367 1_555
B5 Yb1 3.190981 1_555
B6 Ru2 2.119152 1_454
B6 Ru5 2.148986 1_555
B6 Ru11 2.198385 1_565
B6 Ru3 2.263487 1_555
B6 Ru6 2.272837 1_454
B6 Yb3 2.933769 1_565
B6 Yb0 2.997361 1_455
B6 Yb2 3.190989 1_554
B7 Ru3 2.119151 1_555
B7 Ru4 2.148980 1_555
B7 Ru10 2.198389 1_554
B7 Ru2 2.263485 1_555
B7 Ru7 2.272846 1_555
B7 Yb2 2.933771 1_655
B7 Yb1 2.997367 1_555
B7 Yb3 3.190981 1_565
B8 Ru12 2.119151 1_565
B8 Ru2 2.148980 1_555
B8 Ru5 2.198389 1_656
B8 Ru4 2.263485 1_555
B8 Ru8 2.272846 1_565
B8 Yb2 2.933771 1_655
B8 Yb1 2.997367 1_666
B8 Yb3 3.190981 1_565
B9 Ru13 2.119154 1_554
B9 Ru3 2.148965 1_555
B9 Ru4 2.198386 1_555
B9 Ru5 2.263478 1_555
B9 Ru9 2.272855 1_554
B9 Yb3 2.933763 1_565
B9 Yb0 2.997374 1_555
B9 Yb2 3.190983 1_554
B10 B15 1.787957 1_565
B10 Ru14 2.119154 1_555
B10 Ru9 2.148972 1_555
B10 Ru7 2.198387 1_555
B10 Ru15 2.263486 1_566
B10 Ru10 2.272838 1_565
B10 Yb0 2.933771 1_556
B10 Yb3 2.997367 1_565
B10 Yb1 3.190981 1_566
B11 B14 1.787957 1_655
B11 Ru15 2.119154 1_555
B11 Ru8 2.148965 1_555
B11 Ru6 2.198386 1_555
B11 Ru14 2.263478 1_645
B11 Ru11 2.272855 1_655
B11 Yb1 2.933763 1_656
B11 Yb2 2.997374 1_655
B11 Yb0 3.190983 1_545
B12 Ru8 2.119151 1_555
B12 Ru6 2.148980 1_555
B12 Ru1 2.198389 1_555
B12 Ru0 2.263485 1_656
B12 Ru12 2.272846 1_555
B12 Yb0 2.933771 1_556
B12 Yb3 2.997367 1_555
B12 Yb1 3.190981 1_656
B13 Ru9 2.119154 1_555
B13 Ru7 2.148965 1_555
B13 Ru0 2.198386 1_555
B13 Ru1 2.263478 1_555
B13 Ru13 2.272855 1_555
B13 Yb1 2.933763 1_555
B13 Yb2 2.997374 1_555
B13 Yb0 3.190983 1_556
B14 Ru10 2.119154 1_555
B14 Ru13 2.148972 1_555
B14 Ru3 2.198387 1_556
B14 Ru11 2.263486 1_555
B14 Ru14 2.272838 1_545
B14 Yb2 2.933771 1_555
B14 Yb1 2.997367 1_556
B14 Yb3 3.190981 1_555
B15 Ru11 2.119154 1_656
B15 Ru12 2.148965 1_555
B15 Ru2 2.198386 1_545
B15 Ru10 2.263478 1_555
B15 Ru15 2.272855 1_556
B15 Yb3 2.933763 1_555
B15 Yb0 2.997374 1_546
B15 Yb2 3.190983 1_656
Ru0 Yb0 2.883577 1_455
Ru0 Yb2 3.146659 1_555
Ru0 Yb1 3.198685 1_555
Ru1 Yb1 2.883579 1_555
Ru1 Yb3 3.146661 1_555
Ru1 Yb0 3.198678 1_556
Ru2 Yb2 2.883577 1_655
Ru2 Yb0 3.146659 1_556
Ru2 Yb3 3.198685 1_565
Ru3 Yb3 2.883579 1_565
Ru3 Yb1 3.146666 1_555
Ru3 Yb2 3.198678 1_554
Ru4 Yb2 2.883577 1_655
Ru4 Yb0 3.146659 1_555
Ru4 Yb3 3.198685 1_565
Ru5 Yb3 2.883579 1_565
Ru5 Yb1 3.146661 1_565
Ru5 Yb2 3.198678 1_554
Ru6 Yb0 2.883577 1_556
Ru6 Yb2 3.146659 1_655
Ru6 Yb1 3.198685 1_656
Ru7 Yb1 2.883579 1_555
Ru7 Yb3 3.146666 1_565
Ru7 Yb0 3.198678 1_556
Ru8 Yb1 2.883579 1_656
Ru8 Yb3 3.146666 1_555
Ru8 Yb0 3.198678 1_545
Ru9 Yb0 2.883579 1_556
Ru9 Yb2 3.146666 1_555
Ru9 Yb1 3.198678 1_566
Ru10 Yb3 2.883579 1_555
Ru10 Yb1 3.146661 1_556
Ru10 Yb2 3.198678 1_656
Ru11 Yb2 2.883579 1_555
Ru11 Yb0 3.146666 1_445
Ru11 Yb3 3.198678 1_555
Ru12 Yb3 2.883579 1_555
Ru12 Yb1 3.146666 1_656
Ru12 Yb2 3.198678 1_656
Ru13 Yb2 2.883579 1_555
Ru13 Yb0 3.146666 1_556
Ru13 Yb3 3.198678 1_555
Ru14 Yb1 2.883579 1_566
Ru14 Yb3 3.146661 1_565
Ru14 Yb0 3.198678 1_455
Ru15 Yb0 2.883579 1_545
Ru15 Yb2 3.146666 1_655
Ru15 Yb1 3.198678 1_555
