# generated using pymatgen
data_Ga40Mo8S
_symmetry_space_group_name_H-M   'P 1'
_cell_length_a   9.63833205
_cell_length_b   9.63833205
_cell_length_c   18.48961375
_cell_angle_alpha   89.80774593
_cell_angle_beta   89.80774593
_cell_angle_gamma   32.18891620
_symmetry_Int_Tables_number   1
_chemical_formula_structural   Ga40Mo8S
_chemical_formula_sum   'Ga40 Mo8 S1'
_cell_volume   915.00170635
_cell_formula_units_Z   1
loop_
 _symmetry_equiv_pos_site_id
 _symmetry_equiv_pos_as_xyz
  1  'x, y, z'
loop_
 _atom_site_type_symbol
 _atom_site_label
 _atom_site_symmetry_multiplicity
 _atom_site_fract_x
 _atom_site_fract_y
 _atom_site_fract_z
 _atom_site_occupancy
  Ga  Ga0  1  0.39456200  0.39456200  0.53169400  1
  Ga  Ga1  1  0.87875900  0.87875900  0.03750200  1
  Ga  Ga2  1  0.12124100  0.12124100  0.96249800  1
  Ga  Ga3  1  0.60543800  0.60543800  0.46830600  1
  Ga  Ga4  1  0.53219700  0.53219700  0.60501100  1
  Ga  Ga5  1  0.03799700  0.03799700  0.12169300  1
  Ga  Ga6  1  0.96200300  0.96200300  0.87830700  1
  Ga  Ga7  1  0.46780300  0.46780300  0.39498900  1
  Ga  Ga8  1  0.36756400  0.36756400  0.92337700  1
  Ga  Ga9  1  0.86925800  0.86925800  0.42551600  1
  Ga  Ga10  1  0.13074200  0.13074200  0.57448400  1
  Ga  Ga11  1  0.63243600  0.63243600  0.07662300  1
  Ga  Ga12  1  0.92461300  0.92461300  0.62933100  1
  Ga  Ga13  1  0.42405100  0.42405100  0.13260700  1
  Ga  Ga14  1  0.57594900  0.57594900  0.86739300  1
  Ga  Ga15  1  0.07538700  0.07538700  0.37066900  1
  Ga  Ga16  1  0.00000000  0.50000000  0.00000000  1
  Ga  Ga17  1  0.50000000  0.00000000  0.50000000  1
  Ga  Ga18  1  0.50000000  0.00000000  0.00000000  1
  Ga  Ga19  1  0.00000000  0.50000000  0.50000000  1
  Ga  Ga20  1  0.74851200  0.25355300  0.74816700  1
  Ga  Ga21  1  0.25148800  0.74644700  0.25183300  1
  Ga  Ga22  1  0.25355300  0.74851200  0.74816700  1
  Ga  Ga23  1  0.74644700  0.25148800  0.25183300  1
  Ga  Ga24  1  0.89795600  0.40045900  0.71328600  1
  Ga  Ga25  1  0.40280900  0.89738600  0.21613100  1
  Ga  Ga26  1  0.10261400  0.59719100  0.78386900  1
  Ga  Ga27  1  0.59954100  0.10204400  0.28671400  1
  Ga  Ga28  1  0.46488600  0.96374400  0.84928300  1
  Ga  Ga29  1  0.96579300  0.46386600  0.35142900  1
  Ga  Ga30  1  0.53613400  0.03420700  0.64857100  1
  Ga  Ga31  1  0.03625600  0.53511400  0.15071700  1
  Ga  Ga32  1  0.59719100  0.10261400  0.78386900  1
  Ga  Ga33  1  0.10204400  0.59954100  0.28671400  1
  Ga  Ga34  1  0.40045900  0.89795600  0.71328600  1
  Ga  Ga35  1  0.89738600  0.40280900  0.21613100  1
  Ga  Ga36  1  0.03420700  0.53613400  0.64857100  1
  Ga  Ga37  1  0.53511400  0.03625600  0.15071700  1
  Ga  Ga38  1  0.96374400  0.46488600  0.84928300  1
  Ga  Ga39  1  0.46386600  0.96579300  0.35142900  1
  Mo  Mo0  1  0.09518000  0.09518000  0.82155500  1
  Mo  Mo1  1  0.59296200  0.59296200  0.32659800  1
  Mo  Mo2  1  0.40703800  0.40703800  0.67340200  1
  Mo  Mo3  1  0.90482000  0.90482000  0.17844500  1
  Mo  Mo4  1  0.82212600  0.82212600  0.90406500  1
  Mo  Mo5  1  0.32561300  0.32561300  0.40688100  1
  Mo  Mo6  1  0.67438700  0.67438700  0.59311900  1
  Mo  Mo7  1  0.17787400  0.17787400  0.09593500  1
  S  S0  1  0.00000000  0.00000000  0.00000000  1
loop_
_geom_bond_atom_site_label_1
_geom_bond_atom_site_label_2
_geom_bond_distance
_geom_bond_site_symmetry_2
Ga0 Mo2 2.631099 1_555
Ga0 Mo5 2.641407 1_555
Ga1 S0 2.347826 1_665
Ga1 Mo3 2.651963 1_555
Ga1 Mo4 2.684278 1_554
Ga1 Ga16 2.822105 1_655
Ga1 Ga18 2.822105 1_565
Ga2 S0 2.347826 1_556
Ga2 Mo0 2.651963 1_555
Ga2 Mo7 2.684278 1_556
Ga3 Mo1 2.631099 1_555
Ga3 Mo6 2.641407 1_555
Ga4 Mo2 2.636678 1_555
Ga4 Mo6 2.641918 1_555
Ga5 S0 2.359889 1_555
Ga5 Mo7 2.632457 1_555
Ga5 Mo3 2.677137 1_445
Ga6 S0 2.359889 1_666
Ga6 Mo4 2.632457 1_555
Ga6 Mo0 2.677137 1_665
Ga7 Mo1 2.636678 1_555
Ga7 Mo5 2.641918 1_555
Ga8 Mo4 2.824389 1_545
Ga8 Mo4 2.824389 1_455
Ga9 Mo5 2.813084 1_655
Ga9 Mo5 2.813084 1_565
Ga10 Mo6 2.813084 1_545
Ga10 Mo6 2.813084 1_455
Ga10 Ga24 2.917573 1_455
Ga10 Ga34 2.917573 1_545
Ga10 Ga17 2.922154 1_555
Ga10 Ga19 2.922154 1_555
Ga11 Mo7 2.824389 1_655
Ga11 Mo7 2.824389 1_565
Ga11 Ga16 2.917459 1_655
Ga11 Ga18 2.917459 1_565
Ga11 Ga35 2.917667 1_555
Ga11 Ga25 2.917667 1_555
Ga12 Mo2 2.812017 1_565
Ga12 Mo2 2.812017 1_655
Ga12 Ga36 2.925959 1_655
Ga12 Ga30 2.925959 1_565
Ga13 Mo3 2.825314 1_455
Ga13 Mo3 2.825314 1_545
Ga13 Ga37 2.906928 1_555
Ga13 Ga31 2.906928 1_555
Ga13 Ga21 2.924931 1_555
Ga13 Ga23 2.924931 1_555
Ga14 Mo0 2.825314 1_655
Ga14 Mo0 2.825314 1_565
Ga14 Ga28 2.906928 1_555
Ga14 Ga38 2.906928 1_555
Ga14 Ga20 2.924931 1_555
Ga14 Ga22 2.924931 1_555
Ga15 Mo1 2.812017 1_545
Ga15 Mo1 2.812017 1_455
Ga15 Ga29 2.925959 1_455
Ga15 Ga39 2.925959 1_545
Ga16 Mo7 2.588275 1_555
Ga16 Mo4 2.588275 1_454
Ga16 Ga18 2.671955 1_555
Ga16 Ga18 2.671955 1_465
Ga16 Ga2 2.822105 1_554
Ga16 Ga31 2.866250 1_555
Ga16 Ga38 2.866250 1_454
Ga16 Ga8 2.917459 1_554
Ga17 Mo5 2.587198 1_555
Ga17 Mo6 2.587198 1_545
Ga17 Ga30 2.825414 1_555
Ga17 Ga39 2.825414 1_545
Ga17 Ga9 2.922154 1_545
Ga18 Mo7 2.588275 1_555
Ga18 Mo4 2.588275 1_544
Ga18 Ga2 2.822105 1_554
Ga18 Ga37 2.866250 1_555
Ga18 Ga28 2.866250 1_544
Ga18 Ga8 2.917459 1_554
Ga19 Mo5 2.587198 1_555
Ga19 Mo6 2.587198 1_455
Ga19 Ga36 2.825414 1_555
Ga19 Ga29 2.825414 1_455
Ga19 Ga9 2.922154 1_455
Ga20 Mo2 2.589880 1_555
Ga20 Mo0 2.592163 1_655
Ga20 Ga24 2.816947 1_555
Ga20 Ga32 2.873639 1_555
Ga21 Mo1 2.589880 1_555
Ga21 Mo3 2.592163 1_455
Ga21 Ga33 2.816947 1_555
Ga21 Ga25 2.873639 1_555
Ga22 Mo2 2.589880 1_555
Ga22 Mo0 2.592163 1_565
Ga22 Ga34 2.816947 1_555
Ga22 Ga26 2.873639 1_555
Ga23 Mo1 2.589880 1_555
Ga23 Mo3 2.592163 1_545
Ga23 Ga27 2.816947 1_555
Ga23 Ga35 2.873639 1_555
Ga24 Mo0 2.607196 1_655
Ga24 Mo6 2.629418 1_555
Ga24 Ga34 2.658579 1_555
Ga24 Ga34 2.685331 1_645
Ga24 Ga36 2.784237 1_655
Ga24 Ga38 2.792521 1_555
Ga25 Ga35 2.642975 1_555
Ga25 Mo7 2.649415 1_565
Ga25 Mo1 2.650061 1_555
Ga25 Ga35 2.700935 1_465
Ga25 Ga39 2.777906 1_555
Ga25 Ga37 2.783565 1_565
Ga25 Ga5 3.034592 1_565
Ga26 Ga32 2.642975 1_555
Ga26 Mo4 2.649415 1_455
Ga26 Mo2 2.650061 1_555
Ga26 Ga32 2.700935 1_465
Ga26 Ga36 2.777906 1_555
Ga26 Ga38 2.783565 1_455
Ga26 Ga8 2.917667 1_555
Ga26 Ga6 3.034592 1_455
Ga27 Mo3 2.607196 1_545
Ga27 Mo5 2.629418 1_555
Ga27 Ga33 2.658579 1_555
Ga27 Ga33 2.685331 1_645
Ga27 Ga39 2.784237 1_545
Ga27 Ga37 2.792521 1_555
Ga27 Ga9 2.917573 1_545
Ga28 Mo4 2.608432 1_555
Ga28 Mo0 2.632955 1_565
Ga28 Ga32 2.783565 1_565
Ga28 Ga34 2.792521 1_555
Ga29 Mo5 2.654626 1_655
Ga29 Ga39 2.661657 1_645
Ga29 Mo1 2.666694 1_555
Ga29 Ga39 2.682253 1_555
Ga29 Ga35 2.777906 1_555
Ga29 Ga33 2.784237 1_655
Ga30 Mo6 2.654626 1_545
Ga30 Ga36 2.661657 1_645
Ga30 Mo2 2.666694 1_555
Ga30 Ga36 2.682253 1_555
Ga30 Ga32 2.777906 1_555
Ga30 Ga34 2.784237 1_545
Ga31 Mo7 2.608432 1_555
Ga31 Mo3 2.632955 1_455
Ga31 Ga35 2.783565 1_455
Ga31 Ga33 2.792521 1_555
Ga32 Mo4 2.649415 1_545
Ga32 Mo2 2.650061 1_555
Ga32 Ga8 2.917667 1_555
Ga32 Ga6 3.034592 1_545
Ga33 Mo3 2.607196 1_455
Ga33 Mo5 2.629418 1_555
Ga33 Ga9 2.917573 1_455
Ga34 Mo0 2.607196 1_565
Ga34 Mo6 2.629418 1_555
Ga35 Mo7 2.649415 1_655
Ga35 Mo1 2.650061 1_555
Ga35 Ga5 3.034592 1_655
Ga36 Mo6 2.654626 1_455
Ga36 Mo2 2.666694 1_555
Ga37 Mo7 2.608432 1_555
Ga37 Mo3 2.632955 1_545
Ga38 Mo4 2.608432 1_555
Ga38 Mo0 2.632955 1_655
Ga39 Mo5 2.654626 1_565
Ga39 Mo1 2.666694 1_555
