# generated using pymatgen
data_Li2V2OF6
_symmetry_space_group_name_H-M   'P 1'
_cell_length_a   6.43781800
_cell_length_b   6.66016541
_cell_length_c   7.54799184
_cell_angle_alpha   112.27485321
_cell_angle_beta   96.79666552
_cell_angle_gamma   107.97851563
_symmetry_Int_Tables_number   1
_chemical_formula_structural   Li2V2OF6
_chemical_formula_sum   'Li4 V4 O2 F12'
_cell_volume   274.48949383
_cell_formula_units_Z   2
loop_
 _symmetry_equiv_pos_site_id
 _symmetry_equiv_pos_as_xyz
  1  'x, y, z'
loop_
 _atom_site_type_symbol
 _atom_site_label
 _atom_site_symmetry_multiplicity
 _atom_site_fract_x
 _atom_site_fract_y
 _atom_site_fract_z
 _atom_site_occupancy
  Li  Li0  1  0.33446000  0.64895600  0.11782700  1
  Li  Li1  1  0.08745000  0.35099600  0.81462200  1
  Li  Li2  1  0.91255000  0.64900400  0.18537800  1
  Li  Li3  1  0.66554000  0.35104400  0.88217300  1
  V  V0  1  0.20363300  0.14782100  0.56815700  1
  V  V1  1  0.33618800  0.06604600  0.27004400  1
  V  V2  1  0.66381200  0.93395400  0.72995600  1
  V  V3  1  0.79636700  0.85217900  0.43184300  1
  O  O0  1  0.09989900  0.98306800  0.38878800  1
  O  O1  1  0.90010100  0.01693200  0.61121200  1
  F  F0  1  0.11655600  0.43067800  0.33714100  1
  F  F1  1  0.33126100  0.30855900  0.74605500  1
  F  F2  1  0.36343000  0.87563100  0.79463300  1
  F  F3  1  0.26917800  0.36706600  0.06283900  1
  F  F4  1  0.19165800  0.87675100  0.11263800  1
  F  F5  1  0.50487500  0.20869500  0.49204500  1
  F  F6  1  0.49512500  0.79130500  0.50795500  1
  F  F7  1  0.80834200  0.12324900  0.88736200  1
  F  F8  1  0.73082200  0.63293400  0.93716100  1
  F  F9  1  0.63657000  0.12436900  0.20536700  1
  F  F10  1  0.66873900  0.69144100  0.25394500  1
  F  F11  1  0.88344400  0.56932200  0.66285900  1
loop_
_geom_bond_atom_site_label_1
_geom_bond_atom_site_label_2
_geom_bond_distance
_geom_bond_site_symmetry_2
Li1 O1 2.019328 1_455
Li2 O0 2.019328 1_655
O0 V0 1.300154 1_565
O0 V1 1.897890 1_565
O0 V3 1.999371 1_455
O1 V3 1.300154 1_545
O1 V2 1.897890 1_545
O1 V0 1.999371 1_655
F1 V0 1.315408 1_555
F1 Li1 1.779511 1_555
F1 Li3 2.155746 1_555
F2 V2 2.008059 1_555
F3 Li0 1.659683 1_555
F3 Li1 2.035245 1_554
F4 V1 1.321148 1_565
F4 Li0 2.011468 1_555
F4 Li2 2.239023 1_455
F5 V1 1.617185 1_555
F5 V0 2.051917 1_555
F6 V2 1.617185 1_555
F6 V3 2.051917 1_555
F7 V2 1.321148 1_545
F7 Li3 2.011468 1_555
F7 Li1 2.239023 1_655
F8 Li3 1.659683 1_555
F8 Li2 2.035245 1_556
F9 V1 2.008059 1_555
F10 V3 1.315408 1_555
F10 Li2 1.779511 1_555
F10 Li0 2.155746 1_555
