# generated using pymatgen
data_HfMg14Nb
_symmetry_space_group_name_H-M   'P 1'
_cell_length_a   6.39022147
_cell_length_b   6.39022095
_cell_length_c   10.00044868
_cell_angle_alpha   90.00000000
_cell_angle_beta   90.00000000
_cell_angle_gamma   120.00000272
_symmetry_Int_Tables_number   1
_chemical_formula_structural   HfMg14Nb
_chemical_formula_sum   'Hf1 Mg14 Nb1'
_cell_volume   353.65670008
_cell_formula_units_Z   1
loop_
 _symmetry_equiv_pos_site_id
 _symmetry_equiv_pos_as_xyz
  1  'x, y, z'
loop_
 _atom_site_type_symbol
 _atom_site_label
 _atom_site_symmetry_multiplicity
 _atom_site_fract_x
 _atom_site_fract_y
 _atom_site_fract_z
 _atom_site_occupancy
  Hf  Hf0  1  0.16666700  0.33333300  0.62500000  1
  Mg  Mg0  1  0.16775804  0.83387852  0.12500000  1
  Mg  Mg1  1  0.16967509  0.83483704  0.62500000  1
  Mg  Mg2  1  0.66612148  0.33224196  0.12500000  1
  Mg  Mg3  1  0.66516296  0.33032491  0.62500000  1
  Mg  Mg4  1  0.66612148  0.83387852  0.12500000  1
  Mg  Mg5  1  0.66516296  0.83483704  0.62500000  1
  Mg  Mg6  1  0.32866070  0.17133930  0.37145148  1
  Mg  Mg7  1  0.32866070  0.17133930  0.87854852  1
  Mg  Mg8  1  0.32866070  0.65732239  0.37145148  1
  Mg  Mg9  1  0.32866070  0.65732239  0.87854852  1
  Mg  Mg10  1  0.84267761  0.17133930  0.37145148  1
  Mg  Mg11  1  0.84267761  0.17133930  0.87854852  1
  Mg  Mg12  1  0.83333300  0.66666700  0.37596189  1
  Mg  Mg13  1  0.83333300  0.66666700  0.87403811  1
  Nb  Nb0  1  0.16666700  0.33333300  0.12500000  1
loop_
_geom_bond_atom_site_label_1
_geom_bond_atom_site_label_2
_geom_bond_distance
_geom_bond_site_symmetry_2
Hf0 Mg6 3.105483 1_555
Hf0 Mg7 3.105483 1_555
Hf0 Mg8 3.105490 1_555
Hf0 Mg9 3.105490 1_555
Hf0 Mg10 3.105490 1_455
Hf0 Mg11 3.105490 1_455
Hf0 Mg1 3.195154 1_555
Hf0 Mg5 3.195154 1_555
Hf0 Mg5 3.195154 1_445
Hf0 Mg1 3.195154 1_545
Hf0 Mg3 3.195154 1_455
Hf0 Mg3 3.195154 1_555
Mg0 Mg9 3.092660 1_554
Mg0 Mg8 3.092660 1_555
Mg0 Mg7 3.092666 1_564
Mg0 Mg6 3.092666 1_565
Mg0 Mg13 3.118331 1_454
Mg0 Mg12 3.118331 1_455
Mg0 Mg2 3.184652 1_565
Mg0 Mg4 3.184653 1_555
Mg0 Nb0 3.195116 1_555
Mg0 Nb0 3.195116 1_565
Mg0 Mg2 3.205568 1_455
Mg0 Mg4 3.205569 1_455
Mg1 Mg13 3.109208 1_455
Mg1 Mg12 3.109208 1_455
Mg1 Mg8 3.146529 1_555
Mg1 Mg9 3.146529 1_555
Mg1 Mg6 3.146536 1_565
Mg1 Mg7 3.146536 1_565
Mg1 Mg3 3.166277 1_565
Mg1 Mg5 3.166277 1_555
Mg1 Mg3 3.223944 1_455
Mg1 Mg5 3.223944 1_455
Mg2 Mg7 3.092666 1_554
Mg2 Mg6 3.092666 1_555
Mg2 Mg4 3.184652 1_545
Mg2 Nb0 3.195116 1_655
Mg2 Nb0 3.195116 1_555
Mg2 Mg4 3.205568 1_555
Mg3 Mg6 3.146536 1_555
Mg3 Mg7 3.146536 1_555
Mg3 Mg5 3.166277 1_545
Mg3 Mg5 3.223944 1_555
Mg4 Mg8 3.092666 1_555
Mg4 Mg9 3.092666 1_554
Mg4 Nb0 3.195116 1_555
Mg4 Nb0 3.195116 1_665
Mg5 Mg8 3.146536 1_555
Mg5 Mg9 3.146536 1_555
Mg6 Nb0 3.047810 1_555
Mg6 Mg8 3.105539 1_555
Mg6 Mg8 3.284682 1_545
Mg7 Nb0 3.047810 1_556
Mg7 Mg9 3.105539 1_555
Mg7 Mg9 3.284682 1_545
Mg8 Nb0 3.047816 1_555
Mg9 Nb0 3.047816 1_556
Mg10 Nb0 3.047816 1_655
Mg10 Mg2 3.092660 1_555
Mg10 Mg4 3.092666 1_545
Mg10 Mg8 3.105539 1_655
Mg10 Mg6 3.105540 1_655
Mg10 Mg3 3.146529 1_555
Mg10 Mg5 3.146535 1_545
Mg10 Mg12 3.195847 1_545
Mg10 Mg12 3.195847 1_555
Mg10 Mg8 3.284682 1_545
Mg10 Mg6 3.284682 1_555
Mg11 Nb0 3.047816 1_656
Mg11 Mg2 3.092660 1_556
Mg11 Mg4 3.092666 1_546
Mg11 Mg9 3.105539 1_655
Mg11 Mg7 3.105540 1_655
Mg11 Mg3 3.146529 1_555
Mg11 Mg5 3.146535 1_545
Mg11 Mg13 3.195847 1_545
Mg11 Mg13 3.195847 1_555
Mg11 Mg9 3.284682 1_545
Mg11 Mg7 3.284682 1_555
Mg12 Mg5 3.109201 1_555
Mg12 Mg3 3.109208 1_555
Mg12 Mg4 3.118325 1_555
Mg12 Mg2 3.118331 1_555
Mg12 Mg6 3.195847 1_665
Mg12 Mg6 3.195847 1_555
Mg12 Mg8 3.195848 1_555
Mg12 Mg8 3.195848 1_655
Mg13 Mg5 3.109201 1_555
Mg13 Mg3 3.109208 1_555
Mg13 Mg4 3.118325 1_556
Mg13 Mg2 3.118331 1_556
Mg13 Mg7 3.195847 1_665
Mg13 Mg7 3.195847 1_555
Mg13 Mg9 3.195848 1_555
Mg13 Mg9 3.195848 1_655
