# generated using pymatgen
data_Mg5Si9
_symmetry_space_group_name_H-M   'P 1'
_cell_length_a   6.12452324
_cell_length_b   7.44031052
_cell_length_c   13.12321202
_cell_angle_alpha   76.87578991
_cell_angle_beta   78.09332677
_cell_angle_gamma   112.49973435
_symmetry_Int_Tables_number   1
_chemical_formula_structural   Mg5Si9
_chemical_formula_sum   'Mg10 Si18'
_cell_volume   508.68144153
_cell_formula_units_Z   2
loop_
 _symmetry_equiv_pos_site_id
 _symmetry_equiv_pos_as_xyz
  1  'x, y, z'
loop_
 _atom_site_type_symbol
 _atom_site_label
 _atom_site_symmetry_multiplicity
 _atom_site_fract_x
 _atom_site_fract_y
 _atom_site_fract_z
 _atom_site_occupancy
  Mg  Mg0  1  0.42704700  0.02882700  0.71095900  1
  Mg  Mg1  1  0.16925400  0.95020300  0.43958900  1
  Mg  Mg2  1  0.93206900  0.46391100  0.53321800  1
  Mg  Mg3  1  0.30786100  0.42265500  0.30991800  1
  Mg  Mg4  1  0.10061300  0.16703400  0.61588600  1
  Mg  Mg5  1  0.64280000  0.67298800  0.42292900  1
  Mg  Mg6  1  0.49907600  0.99653000  0.04220100  1
  Mg  Mg7  1  0.61144900  0.75150900  0.83620100  1
  Mg  Mg8  1  0.00059500  0.28376900  0.06199700  1
  Mg  Mg9  1  0.11169700  0.73199000  0.97260800  1
  Si  Si0  1  0.77929500  0.80252200  0.12573300  1
  Si  Si1  1  0.42306400  0.26218200  0.87807300  1
  Si  Si2  1  0.84735900  0.13796900  0.32114100  1
  Si  Si3  1  0.97479700  0.74454700  0.67150200  1
  Si  Si4  1  0.11122700  0.70042100  0.31250400  1
  Si  Si5  1  0.81003400  0.21305400  0.80025300  1
  Si  Si6  1  0.80679700  0.46437100  0.24349800  1
  Si  Si7  1  0.08042700  0.55137600  0.81269800  1
  Si  Si8  1  0.50042300  0.24638300  0.17383700  1
  Si  Si9  1  0.72183600  0.00947800  0.52229700  1
  Si  Si10  1  0.97655800  0.03940000  0.92569700  1
  Si  Si11  1  0.07825700  0.00091000  0.21252500  1
  Si  Si12  1  0.55341300  0.92714400  0.25003000  1
  Si  Si13  1  0.56346300  0.47667800  0.68877500  1
  Si  Si14  1  0.65958200  0.44313600  0.98012500  1
  Si  Si15  1  0.41495800  0.58514200  0.07405400  1
  Si  Si16  1  0.34537500  0.66102200  0.61023200  1
  Si  Si17  1  0.55097100  0.26503700  0.45130600  1
loop_
_geom_bond_atom_site_label_1
_geom_bond_atom_site_label_2
_geom_bond_distance
_geom_bond_site_symmetry_2
Mg0 Si9 2.815403 1_555
Mg0 Si5 2.856009 1_555
Mg0 Mg4 2.937887 1_555
Mg0 Si3 3.003180 1_445
Mg0 Si13 3.035521 1_555
Mg0 Mg7 3.040322 1_545
Mg0 Si1 3.092600 1_555
Mg0 Si7 3.132639 1_545
Mg0 Si16 3.217815 1_545
Mg0 Si17 3.235441 1_555
Mg0 Mg9 3.309539 1_545
Mg0 Mg2 3.378973 1_555
Mg1 Si17 2.663987 1_565
Mg1 Si4 2.740112 1_555
Mg1 Si3 2.831442 1_455
Mg1 Si9 2.965881 1_465
Mg1 Si11 3.109316 1_565
Mg1 Si12 3.137035 1_555
Mg2 Si4 2.754313 1_655
Mg2 Si13 2.761045 1_555
Mg2 Si17 2.811953 1_555
Mg2 Si16 2.909858 1_655
Mg2 Si3 3.036458 1_555
Mg2 Si9 3.174057 1_555
Mg3 Si2 2.752705 1_455
Mg3 Si4 2.764494 1_555
Mg3 Si8 2.771007 1_555
Mg3 Si6 2.871559 1_555
Mg3 Si15 2.885932 1_555
Mg3 Si17 2.919448 1_555
Mg3 Si0 3.152656 1_555
Mg4 Si3 2.807103 1_445
Mg4 Si9 2.830620 1_455
Mg4 Si17 2.844581 1_555
Mg4 Si5 2.864294 1_455
Mg5 Si16 2.701272 1_555
Mg5 Si17 2.785977 1_555
Mg5 Si4 2.841513 1_655
Mg5 Si12 2.894873 1_555
Mg5 Si9 3.003050 1_565
Mg5 Si11 3.100235 1_665
Mg6 Si12 2.771730 1_555
Mg6 Si8 2.809379 1_565
Mg6 Si15 2.816412 1_555
Mg6 Si1 2.819099 1_564
Mg6 Si0 2.860842 1_555
Mg6 Si10 2.865455 1_564
Mg6 Mg9 2.910903 1_554
Mg6 Si14 2.934585 1_564
Mg6 Si5 3.022831 1_564
Mg6 Si11 3.059407 1_565
Mg6 Mg8 3.102690 1_665
Mg7 Si14 2.774516 1_555
Mg7 Si3 2.789395 1_555
Mg7 Si15 2.877292 1_556
Mg7 Si5 3.053744 1_565
Mg7 Si10 3.086752 1_565
Mg7 Si13 3.095484 1_555
Mg7 Si7 3.131391 1_555
Mg7 Si1 3.240846 1_555
Mg8 Si15 2.732187 1_555
Mg8 Si11 2.797057 1_555
Mg8 Si10 2.812041 1_454
Mg8 Si8 2.987077 1_455
Mg8 Si14 3.027401 1_454
Mg8 Si12 3.050652 1_445
Mg8 Si0 3.132942 1_445
Mg8 Si1 3.234732 1_554
Mg8 Si7 3.247080 1_554
Mg9 Si10 2.704642 1_465
Mg9 Si7 2.737865 1_555
Mg9 Si14 2.744501 1_455
Mg9 Si0 2.840149 1_456
Mg9 Si15 2.885946 1_556
Si0 Si12 2.484308 1_555
Si0 Si11 2.526688 1_665
Si0 Si15 2.532855 1_555
Si0 Si10 2.533305 1_564
Si0 Si6 2.722643 1_555
Si1 Si13 2.392788 1_555
Si1 Si14 2.414802 1_555
Si1 Si10 2.443651 1_455
Si1 Si5 2.574357 1_555
Si2 Si9 2.434665 1_555
Si2 Si6 2.537746 1_555
Si3 Si7 2.431973 1_655
Si4 Si6 2.508723 1_455
Si5 Si7 2.492656 1_655
Si6 Si8 2.457447 1_555
Si10 Si5 2.480927 1_555
Si11 Si8 2.387810 1_555
Si11 Si4 2.425583 1_545
Si11 Si2 2.450205 1_455
Si12 Si2 2.401891 1_565
Si12 Si4 2.410661 1_555
Si12 Si8 2.528282 1_565
Si13 Si16 2.460875 1_555
Si13 Si3 2.467076 1_555
Si14 Si8 2.398111 1_556
Si14 Si15 2.433375 1_556
Si14 Si7 2.718541 1_655
Si16 Si9 2.517487 1_565
Si16 Si7 2.565482 1_555
Si16 Si3 2.595624 1_455
Si17 Si9 2.588287 1_555
Si17 Si6 2.590991 1_555
Si17 Si2 2.806099 1_555
