# generated using pymatgen
data_Cr3Fe3SiAs2
_symmetry_space_group_name_H-M   'P 1'
_cell_length_a   6.02513527
_cell_length_b   6.02513527
_cell_length_c   3.61118400
_cell_angle_alpha   90.00000000
_cell_angle_beta   90.00000000
_cell_angle_gamma   119.99999204
_symmetry_Int_Tables_number   1
_chemical_formula_structural   Cr3Fe3SiAs2
_chemical_formula_sum   'Cr3 Fe3 Si1 As2'
_cell_volume   113.53084966
_cell_formula_units_Z   1
loop_
 _symmetry_equiv_pos_site_id
 _symmetry_equiv_pos_as_xyz
  1  'x, y, z'
loop_
 _atom_site_type_symbol
 _atom_site_label
 _atom_site_symmetry_multiplicity
 _atom_site_fract_x
 _atom_site_fract_y
 _atom_site_fract_z
 _atom_site_occupancy
  Cr  Cr0  1  0.40947100  0.40947100  0.50000000  1
  Cr  Cr1  1  0.59052900  0.00000000  0.50000000  1
  Cr  Cr2  1  0.00000000  0.59052900  0.50000000  1
  Fe  Fe0  1  0.75719900  0.75719900  0.00000000  1
  Fe  Fe1  1  0.24280100  0.00000000  0.00000000  1
  Fe  Fe2  1  0.00000000  0.24280100  0.00000000  1
  Si  Si0  1  0.00000000  0.00000000  0.50000000  1
  As  As0  1  0.66666700  0.33333300  0.00000000  1
  As  As1  1  0.33333300  0.66666700  0.00000000  1
loop_
_geom_bond_atom_site_label_1
_geom_bond_atom_site_label_2
_geom_bond_distance
_geom_bond_site_symmetry_2
Cr0 Si0 2.467118 1_555
Cr0 Fe0 2.765799 1_556
Cr0 Fe0 2.765799 1_555
Cr0 Fe1 2.806736 1_556
Cr0 Fe2 2.806736 1_555
Cr0 Fe2 2.806736 1_556
Cr0 Fe1 2.806736 1_555
Cr1 Si0 2.467118 1_655
Cr1 Fe1 2.765798 1_556
Cr1 Fe1 2.765798 1_555
Cr1 Fe0 2.806736 1_545
Cr1 Fe0 2.806736 1_546
Cr1 Fe2 2.806736 1_655
Cr1 Fe2 2.806736 1_656
Cr2 Si0 2.467118 1_565
Cr2 Fe2 2.765798 1_555
Cr2 Fe2 2.765798 1_556
Cr2 Fe0 2.806736 1_456
Cr2 Fe0 2.806736 1_455
Cr2 Fe1 2.806736 1_566
Cr2 Fe1 2.806736 1_565
Fe0 Si0 2.323847 1_664
Fe0 Si0 2.323847 1_665
Fe0 Fe2 2.533833 1_665
Fe0 Fe1 2.533833 1_665
Fe1 Si0 2.323847 1_554
Fe1 Si0 2.323847 1_555
Fe1 Fe2 2.533832 1_555
Fe2 Si0 2.323847 1_554
Fe2 Si0 2.323847 1_555
As0 Fe2 2.329510 1_655
As0 Fe1 2.329514 1_555
As0 Fe0 2.329516 1_555
As0 Cr1 2.565708 1_555
As0 Cr1 2.565708 1_554
As0 Cr2 2.565709 1_655
As0 Cr2 2.565709 1_654
As0 Cr0 2.565712 1_554
As0 Cr0 2.565712 1_555
As1 Fe1 2.329510 1_565
As1 Fe2 2.329514 1_555
As1 Fe0 2.329516 1_555
As1 Cr2 2.565708 1_555
As1 Cr2 2.565708 1_554
As1 Cr1 2.565709 1_565
As1 Cr1 2.565709 1_564
As1 Cr0 2.565712 1_554
As1 Cr0 2.565712 1_555
