# generated using pymatgen
data_U6Fe30P19
_symmetry_space_group_name_H-M   'P 1'
_cell_length_a   14.62857100
_cell_length_b   3.59869500
_cell_length_c   14.63036272
_cell_angle_alpha   90.00000000
_cell_angle_beta   119.98388303
_cell_angle_gamma   90.00000000
_symmetry_Int_Tables_number   1
_chemical_formula_structural   U6Fe30P19
_chemical_formula_sum   'U6 Fe30 P19'
_cell_volume   667.11879801
_cell_formula_units_Z   1
loop_
 _symmetry_equiv_pos_site_id
 _symmetry_equiv_pos_as_xyz
  1  'x, y, z'
loop_
 _atom_site_type_symbol
 _atom_site_label
 _atom_site_symmetry_multiplicity
 _atom_site_fract_x
 _atom_site_fract_y
 _atom_site_fract_z
 _atom_site_occupancy
  U  U0  1  0.09954300  0.00000000  0.70632200  1
  U  U1  1  0.29377800  0.00000000  0.39335600  1
  U  U2  1  0.60669600  0.00000000  0.90056300  1
  U  U3  1  0.39448500  0.50000000  0.09875600  1
  U  U4  1  0.90114800  0.50000000  0.29569700  1
  U  U5  1  0.70424900  0.50000000  0.60532500  1
  Fe  Fe0  1  0.53551600  0.00000000  0.07600700  1
  Fe  Fe1  1  0.92399300  0.00000000  0.45954000  1
  Fe  Fe2  1  0.54049000  0.00000000  0.46448800  1
  Fe  Fe3  1  0.02899600  0.00000000  0.89111600  1
  Fe  Fe4  1  0.10887300  0.00000000  0.13812100  1
  Fe  Fe5  1  0.86258000  0.00000000  0.97075100  1
  Fe  Fe6  1  0.41588800  0.00000000  0.26394300  1
  Fe  Fe7  1  0.73610100  0.00000000  0.15206600  1
  Fe  Fe8  1  0.84797300  0.00000000  0.58401700  1
  Fe  Fe9  1  0.23067000  0.00000000  0.95775900  1
  Fe  Fe10  1  0.04236300  0.00000000  0.27282300  1
  Fe  Fe11  1  0.72723000  0.00000000  0.76954100  1
  Fe  Fe12  1  0.34923700  0.00000000  0.77576400  1
  Fe  Fe13  1  0.22425800  0.00000000  0.57348400  1
  Fe  Fe14  1  0.42657500  0.00000000  0.65080300  1
  Fe  Fe15  1  0.26954100  0.50000000  0.23137200  1
  Fe  Fe16  1  0.76862600  0.50000000  0.03825500  1
  Fe  Fe17  1  0.96154500  0.50000000  0.73024800  1
  Fe  Fe18  1  0.15979400  0.50000000  0.03351300  1
  Fe  Fe19  1  0.96656700  0.50000000  0.12627400  1
  Fe  Fe20  1  0.87368800  0.50000000  0.84029100  1
  Fe  Fe21  1  0.57259100  0.50000000  0.34817600  1
  Fe  Fe22  1  0.65176900  0.50000000  0.22442700  1
  Fe  Fe23  1  0.77560000  0.50000000  0.42740700  1
  Fe  Fe24  1  0.26399000  0.50000000  0.84589700  1
  Fe  Fe25  1  0.15402900  0.50000000  0.41811600  1
  Fe  Fe26  1  0.58192900  0.50000000  0.73585800  1
  Fe  Fe27  1  0.07560200  0.50000000  0.54051800  1
  Fe  Fe28  1  0.45940400  0.50000000  0.53504700  1
  Fe  Fe29  1  0.46485900  0.50000000  0.92439300  1
  P  P0  1  0.25351500  0.00000000  0.12417100  1
  P  P1  1  0.87593700  0.00000000  0.12944900  1
  P  P2  1  0.87054000  0.00000000  0.74632000  1
  P  P3  1  0.55405000  0.00000000  0.23715000  1
  P  P4  1  0.76278600  0.00000000  0.31704100  1
  P  P5  1  0.68298300  0.00000000  0.44574400  1
  P  P6  1  0.37164900  0.00000000  0.93621000  1
  P  P7  1  0.06373900  0.00000000  0.43540000  1
  P  P8  1  0.56464500  0.00000000  0.62835500  1
  P  P9  1  0.43441000  0.50000000  0.37152800  1
  P  P10  1  0.62838800  0.50000000  0.06295300  1
  P  P11  1  0.93711400  0.50000000  0.56555800  1
  P  P12  1  0.12549500  0.50000000  0.87056100  1
  P  P13  1  0.12943700  0.50000000  0.25495300  1
  P  P14  1  0.74481800  0.50000000  0.87428500  1
  P  P15  1  0.23687700  0.50000000  0.68222100  1
  P  P16  1  0.31776800  0.50000000  0.55471900  1
  P  P17  1  0.44544600  0.50000000  0.76320000  1
  P  P18  1  0.00022800  0.50000000  0.00015000  1
loop_
_geom_bond_atom_site_label_1
_geom_bond_atom_site_label_2
_geom_bond_distance
_geom_bond_site_symmetry_2
Fe0 P3 2.234459 1_555
Fe0 P6 2.242547 1_554
Fe0 P10 2.319315 1_555
Fe0 P10 2.319315 1_545
Fe0 U3 2.879417 1_555
Fe0 U3 2.879417 1_545
Fe1 P4 2.234640 1_555
Fe1 P7 2.241757 1_655
Fe1 P11 2.320081 1_555
Fe1 P11 2.320081 1_545
Fe1 U4 2.880043 1_555
Fe1 U4 2.880043 1_545
Fe2 P5 2.234180 1_555
Fe2 P8 2.241834 1_555
Fe2 P9 2.320767 1_555
Fe2 P9 2.320767 1_545
Fe2 U5 2.878952 1_545
Fe2 U5 2.878952 1_555
Fe3 P2 2.225462 1_455
Fe3 P12 2.396901 1_555
Fe3 P12 2.396901 1_545
Fe3 P18 2.574962 1_546
Fe3 P18 2.574962 1_556
Fe4 P0 2.224937 1_555
Fe4 P13 2.394972 1_555
Fe4 P13 2.394972 1_545
Fe4 P18 2.575192 1_555
Fe4 P18 2.575192 1_545
Fe5 P1 2.230590 1_556
Fe5 P14 2.401472 1_545
Fe5 P14 2.401472 1_555
Fe5 P18 2.571294 1_646
Fe5 P18 2.571294 1_656
Fe6 P0 2.229073 1_555
Fe6 P3 2.242861 1_555
Fe6 P9 2.315663 1_545
Fe6 P9 2.315663 1_555
Fe6 U3 2.901730 1_545
Fe6 U3 2.901730 1_555
Fe7 P1 2.229467 1_555
Fe7 P4 2.244175 1_555
Fe7 P10 2.316659 1_545
Fe7 P10 2.316659 1_555
Fe7 U4 2.900288 1_545
Fe7 U4 2.900288 1_555
Fe8 P2 2.227996 1_555
Fe8 P5 2.244447 1_555
Fe8 P11 2.315816 1_545
Fe8 P11 2.315816 1_555
Fe8 U5 2.900062 1_545
Fe8 U5 2.900062 1_555
Fe9 P6 2.236612 1_555
Fe9 P0 2.286055 1_556
Fe9 P12 2.295753 1_555
Fe9 P12 2.295753 1_545
Fe9 U3 2.880044 1_546
Fe9 U3 2.880044 1_556
Fe10 P7 2.238731 1_555
Fe10 P1 2.285351 1_455
Fe10 P13 2.293763 1_545
Fe10 P13 2.293763 1_555
Fe10 U4 2.882369 1_455
Fe10 U4 2.882369 1_445
Fe11 P8 2.238979 1_555
Fe11 P2 2.285229 1_555
Fe11 P14 2.293064 1_555
Fe11 P14 2.293064 1_545
Fe11 U5 2.883674 1_545
Fe11 U5 2.883674 1_555
Fe12 P6 2.201924 1_555
Fe12 P17 2.347507 1_555
Fe12 P17 2.347507 1_545
Fe12 P15 2.358791 1_545
Fe12 P15 2.358791 1_555
Fe13 P7 2.203103 1_555
Fe13 P15 2.347135 1_555
Fe13 P15 2.347135 1_545
Fe13 P16 2.357877 1_555
Fe13 P16 2.357877 1_545
Fe14 P8 2.202347 1_555
Fe14 P16 2.347515 1_545
Fe14 P16 2.347515 1_555
Fe14 P17 2.358858 1_545
Fe14 P17 2.358858 1_555
Fe15 P13 2.241941 1_555
Fe15 P9 2.253529 1_555
Fe15 P0 2.320549 1_555
Fe15 P0 2.320549 1_565
Fe15 U1 2.853046 1_555
Fe15 U1 2.853046 1_565
Fe16 P14 2.245245 1_554
Fe16 P10 2.253900 1_555
Fe16 P1 2.321340 1_565
Fe16 P1 2.321340 1_555
Fe16 U2 2.852620 1_564
Fe16 U2 2.852620 1_554
Fe17 P12 2.246152 1_655
Fe17 P11 2.252241 1_555
Fe17 P2 2.319076 1_555
Fe17 P2 2.319076 1_565
Fe17 U0 2.853364 1_655
Fe17 U0 2.853364 1_665
Fe18 P18 2.132613 1_555
Fe18 P12 2.177114 1_554
Fe18 P0 2.249217 1_555
Fe18 P0 2.249217 1_565
Fe19 P18 2.134375 1_655
Fe19 P13 2.176595 1_655
Fe19 P1 2.249239 1_565
Fe19 P1 2.249239 1_555
Fe20 P18 2.137592 1_656
Fe20 P14 2.176786 1_555
Fe20 P2 2.250922 1_555
Fe20 P2 2.250922 1_565
Fe21 P9 2.212015 1_555
Fe21 P3 2.347206 1_565
Fe21 P3 2.347206 1_555
Fe21 P5 2.362005 1_555
Fe21 P5 2.362005 1_565
Fe22 P10 2.211425 1_555
Fe22 P4 2.347683 1_555
Fe22 P4 2.347683 1_565
Fe22 P3 2.362562 1_555
Fe22 P3 2.362562 1_565
Fe23 P11 2.212349 1_555
Fe23 P5 2.347031 1_555
Fe23 P5 2.347031 1_565
Fe23 P4 2.361673 1_565
Fe23 P4 2.361673 1_555
Fe24 P15 2.223128 1_555
Fe24 P12 2.228346 1_555
Fe24 P6 2.320324 1_565
Fe24 P6 2.320324 1_555
Fe24 U0 2.878300 1_555
Fe24 U0 2.878300 1_565
Fe25 P16 2.224136 1_555
Fe25 P13 2.229234 1_555
Fe25 P7 2.319478 1_565
Fe25 P7 2.319478 1_555
Fe25 U1 2.878949 1_555
Fe25 U1 2.878949 1_565
Fe26 P17 2.223626 1_555
Fe26 P14 2.226214 1_555
Fe26 P8 2.319015 1_565
Fe26 P8 2.319015 1_555
Fe26 U2 2.881479 1_555
Fe26 U2 2.881479 1_565
Fe27 P15 2.230532 1_555
Fe27 P11 2.231639 1_455
Fe27 P7 2.316504 1_555
Fe27 P7 2.316504 1_565
Fe27 U0 2.897505 1_565
Fe27 U0 2.897505 1_555
Fe28 P16 2.229746 1_555
Fe28 P9 2.232198 1_555
Fe28 P8 2.317486 1_565
Fe28 P8 2.317486 1_555
Fe28 U1 2.895705 1_565
Fe28 U1 2.895705 1_555
Fe29 P17 2.229997 1_555
Fe29 P10 2.232715 1_556
Fe29 P6 2.315680 1_565
Fe29 P6 2.315680 1_555
Fe29 U2 2.896089 1_555
Fe29 U2 2.896089 1_565
P0 U3 2.897404 1_555
P0 U3 2.897404 1_545
P1 U4 2.897069 1_545
P1 U4 2.897069 1_555
P2 U5 2.897383 1_545
P2 U5 2.897383 1_555
P3 U3 2.839351 1_545
P3 U3 2.839351 1_555
P4 U4 2.839654 1_545
P4 U4 2.839654 1_555
P5 U5 2.838913 1_545
P5 U5 2.838913 1_555
P6 U3 2.865414 1_556
P6 U3 2.865414 1_546
P7 U4 2.865891 1_445
P7 U4 2.865891 1_455
P8 U5 2.865231 1_555
P8 U5 2.865231 1_545
P9 U1 2.868546 1_555
P9 U1 2.868546 1_565
P10 U2 2.868685 1_564
P10 U2 2.868685 1_554
P11 U0 2.869449 1_655
P11 U0 2.869449 1_665
P12 U0 2.871203 1_565
P12 U0 2.871203 1_555
P13 U1 2.872592 1_555
P13 U1 2.872592 1_565
P14 U2 2.871309 1_565
P14 U2 2.871309 1_555
P15 U0 2.847122 1_555
P15 U0 2.847122 1_565
P16 U1 2.847119 1_565
P16 U1 2.847119 1_555
P17 U2 2.846475 1_555
P17 U2 2.846475 1_565
