# generated using pymatgen
data_Li(CoO2)3
_symmetry_space_group_name_H-M   'P 1'
_cell_length_a   4.94912117
_cell_length_b   6.60288464
_cell_length_c   6.60352075
_cell_angle_alpha   79.67118318
_cell_angle_beta   83.28512609
_cell_angle_gamma   83.28414681
_symmetry_Int_Tables_number   1
_chemical_formula_structural   Li(CoO2)3
_chemical_formula_sum   'Li2 Co6 O12'
_cell_volume   209.81999626
_cell_formula_units_Z   2
loop_
 _symmetry_equiv_pos_site_id
 _symmetry_equiv_pos_as_xyz
  1  'x, y, z'
loop_
 _atom_site_type_symbol
 _atom_site_label
 _atom_site_symmetry_multiplicity
 _atom_site_fract_x
 _atom_site_fract_y
 _atom_site_fract_z
 _atom_site_occupancy
  Li  Li0  1  0.99104700  0.33361700  0.66702200  1
  Li  Li1  1  0.50895000  0.83290600  0.16645400  1
  Co  Co0  1  0.75000100  0.08336800  0.41663300  1
  Co  Co1  1  0.24999900  0.58333300  0.91666700  1
  Co  Co2  1  0.25002000  0.25047400  0.24954600  1
  Co  Co3  1  0.74997400  0.74970200  0.75027600  1
  Co  Co4  1  0.75002500  0.41697800  0.08304600  1
  Co  Co5  1  0.24998700  0.91614600  0.58383400  1
  O  O0  1  0.65135500  0.47904800  0.81242000  1
  O  O1  1  0.11764500  0.99013000  0.32347000  1
  O  O2  1  0.84864300  0.68765600  0.02087700  1
  O  O3  1  0.38235600  0.17651600  0.50988500  1
  O  O4  1  0.39421900  0.84427400  0.84628800  1
  O  O5  1  0.88772600  0.34323000  0.35129100  1
  O  O6  1  0.10576800  0.32243200  0.98702300  1
  O  O7  1  0.61220500  0.82348300  0.48201900  1
  O  O8  1  0.10569700  0.65366300  0.65570700  1
  O  O9  1  0.61232200  0.14870700  0.15680700  1
  O  O10  1  0.39431700  0.51302700  0.17758800  1
  O  O11  1  0.88774700  0.01798200  0.67647900  1
loop_
_geom_bond_atom_site_label_1
_geom_bond_atom_site_label_2
_geom_bond_distance
_geom_bond_site_symmetry_2
Li0 O0 2.060553 1_555
Li0 O11 2.191762 1_555
Li0 O5 2.192428 1_555
Li0 O8 2.237675 1_655
Li0 O6 2.237845 1_655
Li0 O3 2.312897 1_655
Li1 O2 2.060551 1_555
Li1 O7 2.191462 1_555
Li1 O9 2.192738 1_565
Li1 O10 2.236776 1_555
Li1 O4 2.238718 1_554
Li1 O1 2.312888 1_555
Co0 O9 1.879756 1_555
Co0 O5 1.879937 1_555
Co0 O11 1.880030 1_555
Co0 O7 1.880238 1_545
Co0 O1 1.918376 1_645
Co0 O3 1.918379 1_555
Co1 O6 1.901613 1_555
Co1 O4 1.901833 1_555
Co1 O10 1.902050 1_556
Co1 O8 1.902253 1_555
Co1 O0 2.103320 1_555
Co1 O2 2.103321 1_456
Co2 O1 1.873564 1_545
Co2 O3 1.873600 1_555
Co2 O5 1.910624 1_455
Co2 O9 1.910667 1_555
Co2 O6 1.911922 1_554
Co2 O10 1.912066 1_555
Co3 O2 1.869261 1_556
Co3 O0 1.869365 1_555
Co3 O8 1.874916 1_655
Co3 O4 1.875008 1_555
Co3 O7 1.932755 1_555
Co3 O11 1.932767 1_565
Co4 O0 1.869422 1_554
Co4 O2 1.869517 1_555
Co4 O10 1.874821 1_555
Co4 O6 1.874929 1_654
Co4 O5 1.932527 1_555
Co4 O9 1.932552 1_555
Co5 O3 1.873717 1_565
Co5 O1 1.873772 1_555
Co5 O7 1.910271 1_555
Co5 O11 1.910369 1_465
Co5 O4 1.911441 1_555
Co5 O8 1.911608 1_555
