# generated using pymatgen
data_Eu2Zn3Ge
_symmetry_space_group_name_H-M   'P 1'
_cell_length_a   9.11248710
_cell_length_b   8.74960764
_cell_length_c   5.94641929
_cell_angle_alpha   73.88773649
_cell_angle_beta   67.28867341
_cell_angle_gamma   38.82359010
_symmetry_Int_Tables_number   1
_chemical_formula_structural   Eu2Zn3Ge
_chemical_formula_sum   'Eu4 Zn6 Ge2'
_cell_volume   273.96354953
_cell_formula_units_Z   2
loop_
 _symmetry_equiv_pos_site_id
 _symmetry_equiv_pos_as_xyz
  1  'x, y, z'
loop_
 _atom_site_type_symbol
 _atom_site_label
 _atom_site_symmetry_multiplicity
 _atom_site_fract_x
 _atom_site_fract_y
 _atom_site_fract_z
 _atom_site_occupancy
  Eu  Eu0  1  0.75849800  0.24150200  0.24150200  1
  Eu  Eu1  1  0.24150200  0.75849800  0.75849800  1
  Eu  Eu2  1  0.75000000  0.75000000  0.75000000  1
  Eu  Eu3  1  0.25000000  0.25000000  0.25000000  1
  Zn  Zn0  1  0.33604700  0.83043500  0.16956500  1
  Zn  Zn1  1  0.83043500  0.33604700  0.66395300  1
  Zn  Zn2  1  0.16736800  0.16736800  0.83263200  1
  Zn  Zn3  1  0.83263200  0.83263200  0.16736800  1
  Zn  Zn4  1  0.16956500  0.66395300  0.33604700  1
  Zn  Zn5  1  0.66395300  0.16956500  0.83043500  1
  Ge  Ge0  1  0.66443300  0.66443300  0.33556700  1
  Ge  Ge1  1  0.33556700  0.33556700  0.66443300  1
loop_
_geom_bond_atom_site_label_1
_geom_bond_atom_site_label_2
_geom_bond_distance
_geom_bond_site_symmetry_2
Eu0 Zn3 3.213811 1_545
Eu0 Zn2 3.213811 1_654
Eu0 Zn1 3.230858 1_554
Eu0 Zn5 3.230858 1_554
Eu0 Zn0 3.230858 1_645
Eu0 Zn4 3.230858 1_645
Eu0 Ge1 3.252296 1_555
Eu0 Ge0 3.252296 1_555
Eu0 Zn0 3.270236 1_555
Eu0 Zn1 3.270236 1_555
Eu0 Zn5 3.270236 1_555
Eu0 Zn4 3.270236 1_555
Eu1 Zn3 3.213811 1_456
Eu1 Zn2 3.213811 1_565
Eu1 Zn4 3.230858 1_556
Eu1 Zn1 3.230858 1_465
Eu1 Zn0 3.230858 1_556
Eu1 Zn5 3.230858 1_465
Eu1 Ge1 3.252296 1_555
Eu1 Ge0 3.252296 1_555
Eu1 Zn5 3.270236 1_555
Eu1 Zn0 3.270236 1_555
Eu1 Zn1 3.270236 1_555
Eu1 Zn4 3.270236 1_555
Eu2 Zn0 3.243442 1_556
Eu2 Zn4 3.243442 1_655
Eu2 Zn5 3.243442 1_565
Eu2 Zn1 3.243442 1_555
Eu2 Zn3 3.246000 1_555
Eu2 Zn2 3.246000 1_565
Eu2 Zn3 3.246000 1_556
Eu2 Zn2 3.246000 1_655
Eu2 Ge0 3.264839 1_555
Eu2 Ge0 3.264839 1_556
Eu2 Ge1 3.264839 1_565
Eu2 Ge1 3.264839 1_655
Eu3 Zn1 3.243442 1_455
Eu3 Zn5 3.243442 1_554
Eu3 Zn0 3.243442 1_545
Eu3 Zn4 3.243442 1_555
Eu3 Zn3 3.246000 1_545
Eu3 Zn2 3.246000 1_554
Eu3 Zn3 3.246000 1_455
Eu3 Zn2 3.246000 1_555
Eu3 Ge0 3.264839 1_455
Eu3 Ge0 3.264839 1_545
Eu3 Ge1 3.264839 1_554
Eu3 Ge1 3.264839 1_555
Zn0 Zn4 2.624225 1_555
Zn0 Zn2 2.665851 1_564
Zn1 Zn5 2.624225 1_555
Zn1 Zn2 2.665851 1_655
Zn3 Zn4 2.665851 1_655
Zn3 Zn5 2.665851 1_564
Ge0 Zn1 2.598343 1_555
Ge0 Zn0 2.598343 1_555
Ge0 Zn3 2.651290 1_555
Ge1 Zn5 2.598343 1_555
Ge1 Zn4 2.598343 1_555
Ge1 Zn2 2.651290 1_555
