# generated using pymatgen
data_U2(Ga3Ir)3
_symmetry_space_group_name_H-M   'P 1'
_cell_length_a   7.65269583
_cell_length_b   7.65269583
_cell_length_c   9.40828600
_cell_angle_alpha   90.00000000
_cell_angle_beta   90.00000000
_cell_angle_gamma   120.27567727
_symmetry_Int_Tables_number   1
_chemical_formula_structural   U2(Ga3Ir)3
_chemical_formula_sum   'U4 Ga18 Ir6'
_cell_volume   475.83556777
_cell_formula_units_Z   2
loop_
 _symmetry_equiv_pos_site_id
 _symmetry_equiv_pos_as_xyz
  1  'x, y, z'
loop_
 _atom_site_type_symbol
 _atom_site_label
 _atom_site_symmetry_multiplicity
 _atom_site_fract_x
 _atom_site_fract_y
 _atom_site_fract_z
 _atom_site_occupancy
  U  U0  1  0.99699300  0.66875600  0.75000000  1
  U  U1  1  0.00300700  0.33124400  0.25000000  1
  U  U2  1  0.66875600  0.99699300  0.75000000  1
  U  U3  1  0.33124400  0.00300700  0.25000000  1
  Ga  Ga0  1  0.12754800  0.12754800  0.75000000  1
  Ga  Ga1  1  0.87245200  0.87245200  0.25000000  1
  Ga  Ga2  1  0.99991100  0.33362000  0.57852100  1
  Ga  Ga3  1  0.00008900  0.66638000  0.42147900  1
  Ga  Ga4  1  0.00008900  0.66638000  0.07852100  1
  Ga  Ga5  1  0.33362000  0.99991100  0.92147900  1
  Ga  Ga6  1  0.99991100  0.33362000  0.92147900  1
  Ga  Ga7  1  0.66638000  0.00008900  0.07852100  1
  Ga  Ga8  1  0.66638000  0.00008900  0.42147900  1
  Ga  Ga9  1  0.33362000  0.99991100  0.57852100  1
  Ga  Ga10  1  0.33307800  0.33307800  0.06734400  1
  Ga  Ga11  1  0.66692200  0.66692200  0.93265600  1
  Ga  Ga12  1  0.66692200  0.66692200  0.56734400  1
  Ga  Ga13  1  0.33307800  0.33307800  0.43265600  1
  Ga  Ga14  1  0.33792900  0.54354500  0.75000000  1
  Ga  Ga15  1  0.66207100  0.45645500  0.25000000  1
  Ga  Ga16  1  0.54354500  0.33792900  0.75000000  1
  Ga  Ga17  1  0.45645500  0.66207100  0.25000000  1
  Ir  Ir0  1  0.67127800  0.32872200  0.50000000  1
  Ir  Ir1  1  0.32872200  0.67127800  0.50000000  1
  Ir  Ir2  1  0.32872200  0.67127800  0.00000000  1
  Ir  Ir3  1  0.67127800  0.32872200  0.00000000  1
  Ir  Ir4  1  0.00000000  0.00000000  0.50000000  1
  Ir  Ir5  1  0.00000000  0.00000000  0.00000000  1
loop_
_geom_bond_atom_site_label_1
_geom_bond_atom_site_label_2
_geom_bond_distance
_geom_bond_site_symmetry_2
Ga0 Ir4 2.545006 1_555
Ga0 Ir5 2.545006 1_556
Ga0 Ga14 2.749305 1_555
Ga0 Ga16 2.749305 1_555
Ga0 Ga6 2.756270 1_455
Ga0 Ga5 2.756270 1_545
Ga0 Ga9 2.756270 1_545
Ga0 Ga2 2.756270 1_455
Ga0 U2 3.128621 1_445
Ga0 U0 3.128621 1_445
Ga1 Ir5 2.545006 1_665
Ga1 Ir4 2.545006 1_665
Ga1 Ga17 2.749305 1_555
Ga1 Ga15 2.749305 1_555
Ga1 Ga3 2.756270 1_655
Ga1 Ga8 2.756270 1_565
Ga1 Ga7 2.756270 1_565
Ga1 Ga4 2.756270 1_655
Ga1 U3 3.128621 1_665
Ga1 U1 3.128621 1_665
Ga2 Ir0 2.603261 1_555
Ga2 Ir1 2.645430 1_655
Ga2 Ir4 2.658154 1_655
Ga2 Ga8 2.939997 1_555
Ga2 Ga3 2.943504 1_655
Ga2 U2 3.013083 1_545
Ga2 U0 3.039525 1_555
Ga2 U1 3.091034 1_655
Ga3 Ir1 2.603261 1_555
Ga3 Ir0 2.645430 1_455
Ga3 Ir4 2.658154 1_565
Ga3 Ga9 2.939997 1_555
Ga3 U3 3.013083 1_565
Ga3 U1 3.039525 1_555
Ga3 U0 3.091034 1_455
Ga4 Ir2 2.603261 1_555
Ga4 Ir3 2.645430 1_455
Ga4 Ir5 2.658154 1_565
Ga4 Ga5 2.939997 1_554
Ga4 Ga6 2.943504 1_454
Ga4 U3 3.013083 1_565
Ga4 U1 3.039525 1_555
Ga4 U0 3.091034 1_454
Ga5 Ir2 2.603261 1_556
Ga5 Ir3 2.645430 1_566
Ga5 Ir5 2.658154 1_566
Ga5 Ga7 2.943504 1_566
Ga5 U0 3.013083 1_455
Ga5 U2 3.039525 1_555
Ga5 U3 3.091034 1_566
Ga6 Ir3 2.603261 1_556
Ga6 Ir2 2.645430 1_656
Ga6 Ir5 2.658154 1_656
Ga6 Ga7 2.939997 1_556
Ga6 U2 3.013083 1_545
Ga6 U0 3.039525 1_555
Ga6 U1 3.091034 1_656
Ga7 Ir3 2.603261 1_555
Ga7 Ir2 2.645430 1_545
Ga7 Ir5 2.658154 1_655
Ga7 U1 3.013083 1_655
Ga7 U3 3.039525 1_555
Ga7 U2 3.091034 1_544
Ga8 Ir0 2.603261 1_555
Ga8 Ir1 2.645430 1_545
Ga8 Ir4 2.658154 1_655
Ga8 Ga9 2.943504 1_545
Ga8 U1 3.013083 1_655
Ga8 U3 3.039525 1_555
Ga8 U2 3.091034 1_545
Ga9 Ir1 2.603261 1_555
Ga9 Ir0 2.645430 1_565
Ga9 Ir4 2.658154 1_565
Ga9 U0 3.013083 1_455
Ga9 U2 3.039525 1_555
Ga9 U3 3.091034 1_565
Ga10 Ir5 2.616197 1_555
Ga10 Ir3 2.681049 1_555
Ga10 Ir2 2.681049 1_555
Ga10 Ga17 2.790423 1_555
Ga10 Ga15 2.790423 1_555
Ga10 Ga11 2.842265 1_554
Ga10 Ga5 2.897342 1_544
Ga10 Ga6 2.897342 1_454
Ga10 U3 3.049256 1_555
Ga10 U1 3.049256 1_555
Ga11 Ir5 2.616197 1_666
Ga11 Ir2 2.681049 1_556
Ga11 Ir3 2.681049 1_556
Ga11 Ga14 2.790423 1_555
Ga11 Ga16 2.790423 1_555
Ga11 Ga4 2.897342 1_656
Ga11 Ga7 2.897342 1_566
Ga11 U2 3.049256 1_555
Ga11 U0 3.049256 1_555
Ga12 Ir4 2.616197 1_665
Ga12 Ir0 2.681049 1_555
Ga12 Ir1 2.681049 1_555
Ga12 Ga16 2.790423 1_555
Ga12 Ga14 2.790423 1_555
Ga12 Ga13 2.842265 1_555
Ga12 Ga8 2.897342 1_565
Ga12 Ga3 2.897342 1_655
Ga12 U2 3.049256 1_555
Ga12 U0 3.049256 1_555
Ga13 Ir4 2.616197 1_555
Ga13 Ir1 2.681049 1_555
Ga13 Ir0 2.681049 1_555
Ga13 Ga17 2.790423 1_555
Ga13 Ga15 2.790423 1_555
Ga13 Ga9 2.897342 1_545
Ga13 Ga2 2.897342 1_455
Ga13 U3 3.049256 1_555
Ga13 U1 3.049256 1_555
Ga14 Ir2 2.561671 1_556
Ga14 Ir1 2.561671 1_555
Ga14 Ga16 2.729188 1_555
Ga14 Ga6 2.772134 1_455
Ga14 Ga2 2.772134 1_455
Ga14 U2 3.097218 1_555
Ga14 U0 3.200981 1_455
Ga15 Ir0 2.561671 1_555
Ga15 Ir3 2.561671 1_555
Ga15 Ga17 2.729188 1_555
Ga15 Ga4 2.772134 1_655
Ga15 Ga3 2.772134 1_655
Ga15 U3 3.097218 1_555
Ga15 U1 3.200981 1_655
Ga16 Ir3 2.561671 1_556
Ga16 Ir0 2.561671 1_555
Ga16 Ga5 2.772134 1_545
Ga16 Ga9 2.772134 1_545
Ga16 U0 3.097218 1_555
Ga16 U2 3.200981 1_545
Ga17 Ir2 2.561671 1_555
Ga17 Ir1 2.561671 1_555
Ga17 Ga7 2.772134 1_565
Ga17 Ga8 2.772134 1_565
Ga17 U1 3.097218 1_555
Ga17 U3 3.200981 1_565
