# generated using pymatgen
data_Na2Nb2C8S4N3ClO19
_symmetry_space_group_name_H-M   'P 1'
_cell_length_a   10.74870624
_cell_length_b   11.38389463
_cell_length_c   13.33065879
_cell_angle_alpha   98.34283810
_cell_angle_beta   93.83110011
_cell_angle_gamma   117.70286862
_symmetry_Int_Tables_number   1
_chemical_formula_structural   Na2Nb2C8S4N3ClO19
_chemical_formula_sum   'Na4 Nb4 C16 S8 N6 Cl2 O38'
_cell_volume   1412.02027747
_cell_formula_units_Z   2
loop_
 _symmetry_equiv_pos_site_id
 _symmetry_equiv_pos_as_xyz
  1  'x, y, z'
loop_
 _atom_site_type_symbol
 _atom_site_label
 _atom_site_symmetry_multiplicity
 _atom_site_fract_x
 _atom_site_fract_y
 _atom_site_fract_z
 _atom_site_occupancy
  Na  Na0  1  0.17432889  0.77524073  0.33485090  1
  Na  Na1  1  0.82567111  0.22475927  0.66514910  1
  Na  Na2  1  0.16545961  0.57079022  0.71689303  1
  Na  Na3  1  0.83454039  0.42920978  0.28310697  1
  Nb  Nb0  1  0.46389242  0.63415555  0.01493398  1
  Nb  Nb1  1  0.53610758  0.36584445  0.98506602  1
  Nb  Nb2  1  0.32393220  0.41131685  0.50530438  1
  Nb  Nb3  1  0.67606780  0.58868315  0.49469562  1
  C  C0  1  0.55697250  0.87907038  0.92316803  1
  C  C1  1  0.44302750  0.12092962  0.07683197  1
  C  C2  1  0.43542555  0.76324594  0.84146879  1
  C  C3  1  0.56457445  0.23675406  0.15853121  1
  C  C4  1  0.40823960  0.74337848  0.21472129  1
  C  C5  1  0.59176040  0.25662152  0.78527871  1
  C  C6  1  0.13883983  0.25526907  0.64285976  1
  C  C7  1  0.86116017  0.74473093  0.35714024  1
  C  C8  1  0.17918007  0.15477276  0.58098094  1
  C  C9  1  0.82081993  0.84522724  0.41901906  1
  C  C10  1  0.06299918  0.35601222  0.37272258  1
  C  C11  1  0.93700082  0.64398778  0.62727742  1
  C  C12  1  0.26982421  0.68809688  0.13663517  1
  C  C13  1  0.73017579  0.31190312  0.86336483  1
  C  C14  1  0.12556365  0.50607648  0.42680619  1
  C  C15  1  0.87443635  0.49392352  0.57319381  1
  S  S0  1  0.52233472  0.62860533  0.62061971  1
  S  S1  1  0.47766528  0.37139467  0.37938029  1
  S  S2  1  0.63686115  0.58570303  0.90823046  1
  S  S3  1  0.36313885  0.41429697  0.09176954  1
  S  S4  1  0.69281489  0.62176218  0.06326691  1
  S  S5  1  0.30718511  0.37823782  0.93673309  1
  S  S6  1  0.54620330  0.46238155  0.63297839  1
  S  S7  1  0.45379670  0.53761845  0.36702161  1
  N  N0  1  0.06117546  0.81323018  0.96401871  1
  N  N1  1  0.93882454  0.18676982  0.03598129  1
  N  N2  1  0.62031466  0.95684713  0.55788108  1
  N  N3  1  0.37968534  0.04315287  0.44211892  1
  N  N4  1  0.09626835  0.04553239  0.23812186  1
  N  N5  1  0.90373165  0.95446761  0.76187814  1
  Cl  Cl0  1  0.22599270  0.97265633  0.81575149  1
  Cl  Cl1  1  0.77400730  0.02734367  0.18424851  1
  O  O0  1  0.39214288  0.78115104  0.76079919  1
  O  O1  1  0.60785712  0.21884896  0.23920081  1
  O  O2  1  0.16244578  0.68641579  0.16483969  1
  O  O3  1  0.83755422  0.31358421  0.83516031  1
  O  O4  1  0.50671831  0.72587956  0.17392836  1
  O  O5  1  0.49328169  0.27412044  0.82607164  1
  O  O6  1  0.04176429  0.53190581  0.87391855  1
  O  O7  1  0.95823571  0.46809419  0.12608145  1
  O  O8  1  0.26984867  0.21407401  0.51815801  1
  O  O9  1  0.73015133  0.78592599  0.48184199  1
  O  O10  1  0.61964653  0.99586681  0.91435263  1
  O  O11  1  0.38035347  0.00413319  0.08564737  1
  O  O12  1  0.04400016  0.22316449  0.69542874  1
  O  O13  1  0.95599984  0.77683551  0.30457126  1
  O  O14  1  0.12927867  0.03751060  0.58940547  1
  O  O15  1  0.87072133  0.96248940  0.41059453  1
  O  O16  1  0.07093456  0.57473130  0.40118566  1
  O  O17  1  0.92906544  0.42526870  0.59881434  1
  O  O18  1  0.23448060  0.54754596  0.49655899  1
  O  O19  1  0.76551940  0.45245404  0.50344101  1
  O  O20  1  0.28007675  0.63922827  0.04400147  1
  O  O21  1  0.71992325  0.36077173  0.95599853  1
  O  O22  1  0.62801609  0.95340915  0.64842181  1
  O  O23  1  0.37198391  0.04659085  0.35157819  1
  O  O24  1  0.38396265  0.64420355  0.86816251  1
  O  O25  1  0.61603735  0.35579645  0.13183749  1
  O  O26  1  0.14413155  0.30321787  0.39809885  1
  O  O27  1  0.85586845  0.69678213  0.60190115  1
  O  O28  1  0.58022014  0.83043423  0.00512523  1
  O  O29  1  0.41977986  0.16956577  0.99487477  1
  O  O30  1  0.31501311  0.95525663  0.48933126  1
  O  O31  1  0.68498689  0.04474337  0.51066874  1
  O  O32  1  0.41203770  0.78837272  0.30546161  1
  O  O33  1  0.58796230  0.21162728  0.69453839  1
  O  O34  1  0.95024333  0.29745748  0.31398783  1
  O  O35  1  0.04975667  0.70254252  0.68601217  1
  O  O36  1  0.21554941  0.38278091  0.62886106  1
  O  O37  1  0.78445059  0.61721909  0.37113894  1
loop_
_geom_bond_atom_site_label_1
_geom_bond_atom_site_label_2
_geom_bond_distance
_geom_bond_site_symmetry_2
Na0 O2 2.313306 1_555
Na0 O13 2.363403 1_455
Na0 O16 2.363407 1_555
Na0 O30 2.490987 1_555
Na0 O32 2.549471 1_555
Na0 O23 2.782154 1_565
Na1 O3 2.313306 1_555
Na1 O12 2.363403 1_655
Na1 O17 2.363407 1_555
Na1 O31 2.490987 1_555
Na1 O33 2.549471 1_555
Na1 O22 2.782154 1_545
Na2 O35 2.410556 1_555
Na2 O0 2.447785 1_555
Na2 O6 2.537516 1_555
Na2 O17 2.544301 1_455
Na2 O36 2.583562 1_555
Na2 O24 2.708124 1_555
Na3 O34 2.410556 1_555
Na3 O1 2.447785 1_555
Na3 O7 2.537516 1_555
Na3 O16 2.544301 1_655
Na3 O37 2.583562 1_555
Na3 O25 2.708124 1_555
Nb0 O28 2.020428 1_555
Nb0 O20 2.063756 1_555
Nb0 O24 2.123917 1_554
Nb0 O4 2.138917 1_555
Nb0 S4 2.574294 1_555
Nb0 S5 2.594785 1_554
Nb0 S3 2.618816 1_555
Nb0 S2 2.619793 1_554
Nb1 O29 2.020428 1_555
Nb1 O21 2.063756 1_555
Nb1 O25 2.123917 1_556
Nb1 O5 2.138917 1_555
Nb1 S5 2.574294 1_555
Nb1 S4 2.594785 1_556
Nb1 S2 2.618816 1_555
Nb1 S3 2.619793 1_556
Nb2 O26 2.049657 1_555
Nb2 O36 2.058015 1_555
Nb2 O8 2.078558 1_555
Nb2 O18 2.183336 1_555
Nb2 S0 2.565814 1_555
Nb2 S1 2.569527 1_555
Nb2 S7 2.580856 1_555
Nb2 S6 2.611665 1_555
Nb3 O27 2.049657 1_555
Nb3 O37 2.058015 1_555
Nb3 O9 2.078558 1_555
Nb3 O19 2.183336 1_555
Nb3 S1 2.565814 1_555
Nb3 S0 2.569527 1_555
Nb3 S6 2.580856 1_555
Nb3 S7 2.611665 1_555
C0 O10 1.207719 1_555
C0 O28 1.352898 1_556
C1 O11 1.207719 1_555
C1 O29 1.352898 1_554
C2 O0 1.224479 1_555
C2 O24 1.318465 1_555
C3 O1 1.224479 1_555
C3 O25 1.318465 1_555
C4 O32 1.233445 1_555
C4 O4 1.302843 1_555
C5 O33 1.233445 1_555
C5 O5 1.302843 1_555
C6 O12 1.219521 1_555
C6 O36 1.344660 1_555
C7 O13 1.219521 1_555
C7 O37 1.344660 1_555
C8 O14 1.211651 1_555
C8 O8 1.329773 1_555
C9 O15 1.211651 1_555
C9 O9 1.329773 1_555
C10 O34 1.223462 1_455
C10 O26 1.320239 1_555
C11 O35 1.223462 1_655
C11 O27 1.320239 1_555
C12 O2 1.230204 1_555
C12 O20 1.312388 1_555
C13 O3 1.230204 1_555
C13 O21 1.312388 1_555
C14 O16 1.244844 1_555
C14 O18 1.292805 1_555
C15 O17 1.244844 1_555
C15 O19 1.292805 1_555
S0 S6 2.051796 1_555
S1 S7 2.051796 1_555
S2 S4 2.039556 1_556
S3 S5 2.039556 1_554
N2 O22 1.211827 1_555
N2 O31 1.214510 1_565
N3 O23 1.211827 1_555
N3 O30 1.214510 1_545
