# generated using pymatgen
data_MnCO3
_symmetry_space_group_name_H-M   'P 1'
_cell_length_a   4.86729591
_cell_length_b   6.19998399
_cell_length_c   7.70277245
_cell_angle_alpha   73.78829314
_cell_angle_beta   89.88513274
_cell_angle_gamma   89.53859001
_symmetry_Int_Tables_number   1
_chemical_formula_structural   MnCO3
_chemical_formula_sum   'Mn4 C4 O12'
_cell_volume   223.19762703
_cell_formula_units_Z   4
loop_
 _symmetry_equiv_pos_site_id
 _symmetry_equiv_pos_as_xyz
  1  'x, y, z'
loop_
 _atom_site_type_symbol
 _atom_site_label
 _atom_site_symmetry_multiplicity
 _atom_site_fract_x
 _atom_site_fract_y
 _atom_site_fract_z
 _atom_site_occupancy
  Mn  Mn0  1  0.31326100  0.24980800  0.50406200  1
  Mn  Mn1  1  0.68672100  0.75019700  0.99594000  1
  Mn  Mn2  1  0.31333900  0.24989400  0.00402200  1
  Mn  Mn3  1  0.68668800  0.75012800  0.49595500  1
  C  C0  1  0.81214700  0.24987800  0.25053800  1
  C  C1  1  0.81215100  0.24987500  0.75053500  1
  C  C2  1  0.18785500  0.75012300  0.24946600  1
  C  C3  1  0.18784900  0.75012100  0.74946600  1
  O  O0  1  0.07905800  0.24883900  0.25412400  1
  O  O1  1  0.07911600  0.24883600  0.75412500  1
  O  O2  1  0.92094000  0.75115900  0.24587600  1
  O  O3  1  0.92088100  0.75114400  0.74587800  1
  O  O4  1  0.67393300  0.11595100  0.37983400  1
  O  O5  1  0.67392200  0.11595200  0.87986600  1
  O  O6  1  0.32606400  0.88405000  0.12017000  1
  O  O7  1  0.32607500  0.88404500  0.62013500  1
  O  O8  1  0.31938200  0.61561000  0.38312400  1
  O  O9  1  0.31940700  0.61562200  0.88316400  1
  O  O10  1  0.68061600  0.38439000  0.11688100  1
  O  O11  1  0.68059600  0.38437800  0.61684100  1
loop_
_geom_bond_atom_site_label_1
_geom_bond_atom_site_label_2
_geom_bond_distance
_geom_bond_site_symmetry_2
Mn0 O7 2.193552 1_545
Mn0 O8 2.198553 1_555
Mn0 O1 2.234689 1_555
Mn0 O0 2.240828 1_555
Mn0 O11 2.254421 1_555
Mn0 O4 2.258187 1_555
Mn1 O5 2.193506 1_565
Mn1 O10 2.198583 1_556
Mn1 O3 2.234756 1_555
Mn1 O2 2.240844 1_556
Mn1 O9 2.254343 1_555
Mn1 O6 2.258127 1_556
Mn2 O6 2.194074 1_545
Mn2 O9 2.198045 1_554
Mn2 O0 2.235164 1_555
Mn2 O1 2.240742 1_554
Mn2 O10 2.254276 1_555
Mn2 O5 2.257814 1_554
Mn3 O4 2.193933 1_565
Mn3 O11 2.198201 1_555
Mn3 O2 2.234974 1_555
Mn3 O3 2.240776 1_555
Mn3 O8 2.254349 1_555
Mn3 O7 2.257949 1_555
C0 O4 1.295561 1_555
C0 O10 1.296118 1_555
C0 O0 1.299410 1_655
C1 O5 1.295747 1_555
C1 O11 1.296327 1_555
C1 O1 1.299673 1_655
C2 O6 1.295548 1_555
C2 O8 1.296115 1_555
C2 O2 1.299430 1_455
C3 O7 1.295742 1_555
C3 O9 1.296343 1_555
C3 O3 1.299688 1_455
