# generated using pymatgen
data_Tm(Co2B)6
_symmetry_space_group_name_H-M   'P 1'
_cell_length_a   5.91274167
_cell_length_b   5.91271774
_cell_length_c   5.91272040
_cell_angle_alpha   104.10226356
_cell_angle_beta   104.10246877
_cell_angle_gamma   104.10247894
_symmetry_Int_Tables_number   1
_chemical_formula_structural   Tm(Co2B)6
_chemical_formula_sum   'Tm1 Co12 B6'
_cell_volume   184.07312687
_cell_formula_units_Z   1
loop_
 _symmetry_equiv_pos_site_id
 _symmetry_equiv_pos_as_xyz
  1  'x, y, z'
loop_
 _atom_site_type_symbol
 _atom_site_label
 _atom_site_symmetry_multiplicity
 _atom_site_fract_x
 _atom_site_fract_y
 _atom_site_fract_z
 _atom_site_occupancy
  Tm  Tm0  1  0.00000000  0.00000000  0.00000000  1
  Co  Co0  1  0.13231360  0.86766746  0.49999782  1
  Co  Co1  1  0.50000171  0.13232048  0.86767533  1
  Co  Co2  1  0.86768785  0.50000199  0.13233332  1
  Co  Co3  1  0.49999829  0.86767952  0.13232467  1
  Co  Co4  1  0.13231215  0.49999801  0.86766668  1
  Co  Co5  1  0.86768640  0.13233254  0.50000218  1
  Co  Co6  1  0.54409704  0.81496112  0.54408884  1
  Co  Co7  1  0.54409650  0.54408966  0.81496393  1
  Co  Co8  1  0.81494180  0.54409535  0.54409553  1
  Co  Co9  1  0.45590296  0.18503888  0.45591116  1
  Co  Co10  1  0.45590350  0.45591034  0.18503607  1
  Co  Co11  1  0.18505820  0.45590465  0.45590447  1
  B  B0  1  0.76842980  0.31933173  0.76842273  1
  B  B1  1  0.76842893  0.76842109  0.31932898  1
  B  B2  1  0.31934378  0.76842516  0.76842590  1
  B  B3  1  0.23157020  0.68066827  0.23157727  1
  B  B4  1  0.23157107  0.23157891  0.68067102  1
  B  B5  1  0.68065622  0.23157484  0.23157410  1
loop_
_geom_bond_atom_site_label_1
_geom_bond_atom_site_label_2
_geom_bond_distance
_geom_bond_site_symmetry_2
Co0 Tm0 3.203525 1_566
Co0 Tm0 3.203545 1_565
Co1 Tm0 3.203527 1_656
Co1 Tm0 3.203556 1_556
Co2 Tm0 3.203519 1_655
Co2 Tm0 3.203547 1_665
Co3 Tm0 3.203527 1_565
Co3 Tm0 3.203556 1_665
Co4 Tm0 3.203519 1_566
Co4 Tm0 3.203547 1_556
Co5 Tm0 3.203525 1_655
Co5 Tm0 3.203545 1_656
Co6 Tm0 3.051987 1_666
Co7 Tm0 3.051986 1_666
Co8 Tm0 3.051960 1_666
Co9 Tm0 3.051987 1_555
Co10 Tm0 3.051986 1_555
Co11 Tm0 3.051960 1_555
B0 Co5 2.000200 1_555
B0 Co1 2.000247 1_555
B0 Co4 2.018381 1_655
B0 Co2 2.018518 1_556
B0 Co9 2.089396 1_555
B0 Co8 2.111802 1_555
B0 Co7 2.111836 1_555
B0 Tm0 2.986743 1_656
B1 Co2 2.000193 1_555
B1 Co3 2.000262 1_555
B1 Co0 2.018394 1_655
B1 Co5 2.018525 1_565
B1 Co10 2.089388 1_555
B1 Co8 2.111809 1_555
B1 Co6 2.111838 1_555
B1 Tm0 2.986737 1_665
B2 Co4 2.000248 1_555
B2 Co0 2.000254 1_555
B2 Co1 2.018429 1_565
B2 Co3 2.018440 1_556
B2 Co11 2.089409 1_555
B2 Co7 2.111820 1_555
B2 Co6 2.111828 1_555
B2 Tm0 2.986818 1_566
B3 Co0 2.000200 1_555
B3 Co3 2.000247 1_555
B3 Co2 2.018381 1_455
B3 Co4 2.018518 1_554
B3 Co6 2.089396 1_555
B3 Co11 2.111802 1_555
B3 Co10 2.111836 1_555
B3 Tm0 2.986743 1_565
B4 Co4 2.000193 1_555
B4 Co1 2.000262 1_555
B4 Co5 2.018394 1_455
B4 Co0 2.018525 1_545
B4 Co7 2.089388 1_555
B4 Co11 2.111809 1_555
B4 Co9 2.111838 1_555
B4 Tm0 2.986737 1_556
B5 Co2 2.000248 1_555
B5 Co5 2.000254 1_555
B5 Co3 2.018429 1_545
B5 Co1 2.018440 1_554
B5 Co8 2.089409 1_555
B5 Co10 2.111820 1_555
B5 Co9 2.111828 1_555
B5 Tm0 2.986818 1_655
