# generated using pymatgen
data_Ba6Nd2Y(CuO2)12
_symmetry_space_group_name_H-M   'P 1'
_cell_length_a   3.94121300
_cell_length_b   3.91130700
_cell_length_c   41.45025831
_cell_angle_alpha   87.29573861
_cell_angle_beta   90.00000000
_cell_angle_gamma   90.00000000
_symmetry_Int_Tables_number   1
_chemical_formula_structural   Ba6Nd2Y(CuO2)12
_chemical_formula_sum   'Ba6 Nd2 Y1 Cu12 O24'
_cell_volume   638.25634328
_cell_formula_units_Z   1
loop_
 _symmetry_equiv_pos_site_id
 _symmetry_equiv_pos_as_xyz
  1  'x, y, z'
loop_
 _atom_site_type_symbol
 _atom_site_label
 _atom_site_symmetry_multiplicity
 _atom_site_fract_x
 _atom_site_fract_y
 _atom_site_fract_z
 _atom_site_occupancy
  Ba  Ba0  1  0.50000000  0.45453200  0.09093700  1
  Ba  Ba1  1  0.50000000  0.78774400  0.42451100  1
  Ba  Ba2  1  0.50000000  0.12112700  0.75774800  1
  Ba  Ba3  1  0.50000000  0.87887300  0.24225200  1
  Ba  Ba4  1  0.50000000  0.21225600  0.57548900  1
  Ba  Ba5  1  0.50000000  0.54546800  0.90906300  1
  Nd  Nd0  1  0.50000000  0.83334700  0.33330600  1
  Nd  Nd1  1  0.50000000  0.16665300  0.66669400  1
  Y  Y0  1  0.50000000  0.50000000  0.00000000  1
  Cu  Cu0  1  0.00000000  0.97915500  0.04168900  1
  Cu  Cu1  1  0.00000000  0.31203000  0.37593900  1
  Cu  Cu2  1  0.00000000  0.64537900  0.70924300  1
  Cu  Cu3  1  0.00000000  0.35462100  0.29075700  1
  Cu  Cu4  1  0.00000000  0.68797000  0.62406100  1
  Cu  Cu5  1  0.00000000  0.02084500  0.95831100  1
  Cu  Cu6  1  0.00000000  0.92914600  0.14170700  1
  Cu  Cu7  1  0.00000000  0.26246700  0.47506500  1
  Cu  Cu8  1  0.00000000  0.59578800  0.80842400  1
  Cu  Cu9  1  0.00000000  0.40421200  0.19157600  1
  Cu  Cu10  1  0.00000000  0.73753300  0.52493400  1
  Cu  Cu11  1  0.00000000  0.07085400  0.85829300  1
  O  O0  1  0.00000000  0.95150700  0.09698500  1
  O  O1  1  0.00000000  0.28472500  0.43054900  1
  O  O2  1  0.00000000  0.61805600  0.76388800  1
  O  O3  1  0.00000000  0.38194400  0.23611200  1
  O  O4  1  0.00000000  0.71527500  0.56945100  1
  O  O5  1  0.00000000  0.04849300  0.90301500  1
  O  O6  1  0.00000000  0.42718000  0.14564200  1
  O  O7  1  0.00000000  0.76043700  0.47912500  1
  O  O8  1  0.00000000  0.09378600  0.81242700  1
  O  O9  1  0.00000000  0.90621400  0.18757300  1
  O  O10  1  0.00000000  0.23956300  0.52087500  1
  O  O11  1  0.00000000  0.57282000  0.85435800  1
  O  O12  1  0.50000000  0.98241100  0.03517800  1
  O  O13  1  0.50000000  0.31477500  0.37045100  1
  O  O14  1  0.50000000  0.64810000  0.70380100  1
  O  O15  1  0.50000000  0.35190000  0.29619900  1
  O  O16  1  0.50000000  0.68522500  0.62954900  1
  O  O17  1  0.50000000  0.01758900  0.96482200  1
  O  O18  1  0.00000000  0.48271700  0.03456800  1
  O  O19  1  0.00000000  0.81503900  0.36992300  1
  O  O20  1  0.00000000  0.14837500  0.70325000  1
  O  O21  1  0.00000000  0.85162500  0.29675000  1
  O  O22  1  0.00000000  0.18496100  0.63007700  1
  O  O23  1  0.00000000  0.51728300  0.96543200  1
loop_
_geom_bond_atom_site_label_1
_geom_bond_atom_site_label_2
_geom_bond_distance
_geom_bond_site_symmetry_2
Ba0 O0 2.787573 1_555
Ba0 O0 2.787573 1_655
Ba0 O0 2.787578 1_545
Ba0 O0 2.787578 1_645
Ba0 O6 3.002260 1_555
Ba0 O6 3.002260 1_655
Ba0 O12 3.025631 1_555
Ba0 O12 3.025634 1_545
Ba0 O18 3.054573 1_655
Ba0 O18 3.054573 1_555
Ba1 O1 2.787538 1_555
Ba1 O1 2.787538 1_655
Ba1 O1 2.787538 1_665
Ba1 O1 2.787538 1_565
Ba1 O13 2.972302 1_555
Ba1 O13 2.972307 1_565
Ba1 O19 2.998607 1_655
Ba1 O19 2.998607 1_555
Ba1 O7 2.999419 1_655
Ba1 O7 2.999419 1_555
Ba2 O2 2.787917 1_655
Ba2 O2 2.787917 1_555
Ba2 O2 2.787923 1_545
Ba2 O2 2.787923 1_645
Ba2 O14 2.968781 1_555
Ba2 O14 2.968784 1_545
Ba2 O20 2.995799 1_555
Ba2 O20 2.995799 1_655
Ba2 O8 3.001448 1_555
Ba2 O8 3.001448 1_655
Ba3 O3 2.787917 1_655
Ba3 O3 2.787917 1_555
Ba3 O3 2.787923 1_665
Ba3 O3 2.787923 1_565
Ba3 O15 2.968781 1_555
Ba3 O15 2.968784 1_565
Ba3 O21 2.995799 1_555
Ba3 O21 2.995799 1_655
Ba3 O9 3.001448 1_555
Ba3 O9 3.001448 1_655
Ba4 O4 2.787538 1_555
Ba4 O4 2.787538 1_655
Ba4 O4 2.787538 1_545
Ba4 O4 2.787538 1_645
Ba4 O16 2.972302 1_555
Ba4 O16 2.972307 1_545
Ba4 O22 2.998607 1_655
Ba4 O22 2.998607 1_555
Ba4 O10 2.999419 1_555
Ba4 O10 2.999419 1_655
Ba5 O5 2.787573 1_655
Ba5 O5 2.787573 1_555
Ba5 O5 2.787578 1_565
Ba5 O5 2.787578 1_665
Ba5 O11 3.002260 1_655
Ba5 O11 3.002260 1_555
Ba5 O17 3.025631 1_555
Ba5 O17 3.025634 1_565
Ba5 O23 3.054573 1_655
Ba5 O23 3.054573 1_555
Nd0 O21 2.484789 1_655
Nd0 O21 2.484789 1_555
Nd0 O19 2.486329 1_555
Nd0 O19 2.486329 1_655
Nd0 O15 2.486974 1_565
Nd0 O15 2.486978 1_555
Nd0 O13 2.487947 1_555
Nd0 O13 2.487950 1_565
Nd1 O20 2.484789 1_555
Nd1 O20 2.484789 1_655
Nd1 O22 2.486329 1_655
Nd1 O22 2.486329 1_555
Nd1 O14 2.486974 1_545
Nd1 O14 2.486978 1_555
Nd1 O16 2.487947 1_555
Nd1 O16 2.487950 1_545
Cu0 O18 1.977748 1_555
Cu0 O18 1.977760 1_565
Cu0 O12 1.988961 1_455
Cu0 O12 1.988961 1_555
Cu0 O0 2.289481 1_555
Cu1 O19 1.971449 1_545
Cu1 O19 1.971456 1_555
Cu1 O13 1.983664 1_455
Cu1 O13 1.983664 1_555
Cu1 O1 2.261078 1_555
Cu2 O20 1.971330 1_565
Cu2 O20 1.971334 1_555
Cu2 O14 1.983446 1_555
Cu2 O14 1.983446 1_455
Cu2 O2 2.262527 1_555
Cu3 O21 1.971330 1_545
Cu3 O21 1.971334 1_555
Cu3 O15 1.983446 1_555
Cu3 O15 1.983446 1_455
Cu3 O3 2.262527 1_555
Cu4 O22 1.971449 1_565
Cu4 O22 1.971456 1_555
Cu4 O16 1.983664 1_555
Cu4 O16 1.983664 1_455
Cu4 O4 2.261078 1_555
Cu5 O23 1.977748 1_555
Cu5 O23 1.977760 1_545
Cu5 O17 1.988961 1_455
Cu5 O17 1.988961 1_555
Cu5 O5 2.289481 1_555
Cu6 O0 1.851674 1_555
Cu6 O9 1.899040 1_555
Cu6 O6 1.962423 1_555
Cu6 O6 1.962434 1_565
Cu7 O1 1.843145 1_555
Cu7 O10 1.896722 1_555
Cu7 O7 1.962865 1_545
Cu7 O7 1.962865 1_555
Cu8 O2 1.843973 1_555
Cu8 O11 1.901856 1_555
Cu8 O8 1.962662 1_565
Cu8 O8 1.962666 1_555
Cu9 O3 1.843973 1_555
Cu9 O6 1.901856 1_555
Cu9 O9 1.962662 1_545
Cu9 O9 1.962666 1_555
Cu10 O4 1.843186 1_555
Cu10 O7 1.896680 1_555
Cu10 O10 1.962859 1_555
Cu10 O10 1.962863 1_565
Cu11 O5 1.851674 1_555
Cu11 O8 1.899040 1_555
Cu11 O11 1.962423 1_555
Cu11 O11 1.962434 1_545
O12 Y0 2.438445 1_565
O12 Y0 2.438445 1_555
O17 Y0 2.438445 1_546
O17 Y0 2.438445 1_556
O18 Y0 2.435526 1_455
O18 Y0 2.435526 1_555
O23 Y0 2.435526 1_556
O23 Y0 2.435526 1_456
