# generated using pymatgen
data_MgV12Zn6O24
_symmetry_space_group_name_H-M   'P 1'
_cell_length_a   6.15289684
_cell_length_b   6.10674547
_cell_length_c   18.57488629
_cell_angle_alpha   60.45697878
_cell_angle_beta   58.96612602
_cell_angle_gamma   60.12269405
_symmetry_Int_Tables_number   1
_chemical_formula_structural   MgV12Zn6O24
_chemical_formula_sum   'Mg1 V12 Zn6 O24'
_cell_volume   491.63673780
_cell_formula_units_Z   1
loop_
 _symmetry_equiv_pos_site_id
 _symmetry_equiv_pos_as_xyz
  1  'x, y, z'
loop_
 _atom_site_type_symbol
 _atom_site_label
 _atom_site_symmetry_multiplicity
 _atom_site_fract_x
 _atom_site_fract_y
 _atom_site_fract_z
 _atom_site_occupancy
  Mg  Mg0  1  0.68021965  0.08829721  0.54836124  1
  V  V0  1  0.99316877  0.50794526  0.16355536  1
  V  V1  1  0.49246816  0.50683902  0.16341144  1
  V  V2  1  0.98991923  0.50600520  0.49909757  1
  V  V3  1  0.49218503  0.00965459  0.16351328  1
  V  V4  1  0.47348121  0.51897061  0.32892734  1
  V  V5  1  0.46194215  0.57643099  0.48501616  1
  V  V6  1  0.00863117  0.48611007  0.83941552  1
  V  V7  1  0.46449347  0.00610475  0.48499534  1
  V  V8  1  0.49899604  0.99615746  0.83891554  1
  V  V9  1  0.53286113  0.48224095  0.66867678  1
  V  V10  1  0.50017511  0.48903899  0.83835912  1
  V  V11  1  0.87372622  0.87555770  0.95801271  1
  Zn  Zn0  1  0.11508129  0.11965610  0.04848050  1
  Zn  Zn1  1  0.10665148  0.15152127  0.36318761  1
  Zn  Zn2  1  0.49502656  0.49775427  0.00284939  1
  Zn  Zn3  1  0.13532949  0.12056076  0.70835488  1
  Zn  Zn4  1  0.86972649  0.88954139  0.28327077  1
  Zn  Zn5  1  0.93577030  0.80804945  0.65146378  1
  O  O0  1  0.24876944  0.25680649  0.09021875  1
  O  O1  1  0.24707019  0.27504659  0.23428391  1
  O  O2  1  0.24950389  0.72328531  0.09019915  1
  O  O3  1  0.71570625  0.25641239  0.08975911  1
  O  O4  1  0.27378787  0.75406707  0.23925139  1
  O  O5  1  0.24159040  0.28074410  0.40961807  1
  O  O6  1  0.72355065  0.29721670  0.24277106  1
  O  O7  1  0.74308870  0.74754394  0.08695574  1
  O  O8  1  0.24035217  0.74787900  0.40942713  1
  O  O9  1  0.28476517  0.25083608  0.57146645  1
  O  O10  1  0.72300532  0.74929470  0.24314298  1
  O  O11  1  0.69869892  0.26832661  0.42137052  1
  O  O12  1  0.30665349  0.72248482  0.58371278  1
  O  O13  1  0.26656825  0.26143577  0.75602912  1
  O  O14  1  0.77044976  0.23351099  0.59439118  1
  O  O15  1  0.74151934  0.75271045  0.41715458  1
  O  O16  1  0.25570900  0.25580616  0.91079685  1
  O  O17  1  0.28026896  0.70557891  0.75663358  1
  O  O18  1  0.77121719  0.71431272  0.59380607  1
  O  O19  1  0.72825323  0.23815803  0.76134316  1
  O  O20  1  0.26894006  0.75166957  0.91220547  1
  O  O21  1  0.74224160  0.71882280  0.77421412  1
  O  O22  1  0.74156383  0.26642941  0.91336873  1
  O  O23  1  0.75228235  0.73935436  0.91358380  1
loop_
_geom_bond_atom_site_label_1
_geom_bond_atom_site_label_2
_geom_bond_distance
_geom_bond_site_symmetry_2
Mg0 O14 1.885010 1_555
Mg0 O18 1.885235 1_545
Mg0 O9 2.006741 1_555
Mg0 O11 2.018991 1_555
O0 Zn0 1.990838 1_555
O0 V0 2.032076 1_455
O0 V3 2.049048 1_555
O0 Zn2 2.103688 1_555
O1 Zn1 1.945162 1_555
O1 V0 2.061385 1_455
O1 V3 2.061751 1_555
O1 V1 2.063659 1_555
O2 Zn0 1.990001 1_565
O2 V0 2.038862 1_455
O2 V1 2.046023 1_555
O2 Zn2 2.101202 1_555
O3 Zn0 1.991965 1_655
O3 V3 2.031062 1_555
O3 V1 2.032225 1_555
O3 Zn2 2.131192 1_555
O4 Zn4 2.013909 1_455
O4 V1 2.047780 1_555
O4 V3 2.048412 1_565
O4 V4 2.083263 1_555
O5 V7 2.006685 1_555
O5 V4 2.027644 1_555
O5 Zn1 2.029310 1_555
O5 V2 2.128706 1_455
O6 Zn4 2.047610 1_545
O6 V4 2.069960 1_555
O6 V0 2.077470 1_555
O6 V1 2.078481 1_555
O7 V11 1.946355 1_554
O7 V3 2.118197 1_565
O7 V0 2.119974 1_555
O7 V1 2.120623 1_555
O8 V5 2.007099 1_555
O8 V4 2.024728 1_555
O8 Zn1 2.027524 1_565
O8 V2 2.127297 1_455
O9 Zn3 2.065651 1_555
O9 V7 2.219359 1_555
O9 V5 2.219540 1_555
O9 V2 2.271277 1_455
O10 Zn4 2.048829 1_555
O10 V4 2.072025 1_555
O10 V0 2.072417 1_555
O10 V3 2.080828 1_565
O11 Zn1 2.038792 1_655
O11 V7 2.171237 1_555
O11 V5 2.178747 1_555
O11 V4 2.227107 1_555
O12 Zn5 1.887778 1_455
O12 V7 2.003257 1_565
O12 V5 2.006661 1_555
O12 V9 2.127785 1_555
O13 V6 2.047431 1_555
O13 Zn3 2.087348 1_555
O13 V9 2.106622 1_555
O13 V8 2.131298 1_545
O14 V9 2.030506 1_555
O14 V2 2.143643 1_555
O14 Zn5 2.161407 1_545
O15 V7 1.992047 1_565
O15 V5 1.994459 1_555
O15 Zn4 2.022315 1_555
O15 V2 2.183033 1_555
O16 V6 2.038728 1_555
O16 V8 2.049364 1_545
O16 V10 2.063810 1_555
O16 Zn0 2.078150 1_556
O17 V10 2.059011 1_555
O17 Zn3 2.086504 1_565
O17 V9 2.100552 1_555
O17 V6 2.122172 1_555
O18 V9 2.029162 1_555
O18 V2 2.141102 1_555
O18 Zn5 2.190855 1_555
O19 Zn3 2.030046 1_655
O19 V8 2.032540 1_545
O19 V10 2.076646 1_555
O19 V9 2.109052 1_555
O20 V11 1.969288 1_455
O20 V8 2.049467 1_555
O20 V10 2.088503 1_555
O20 Zn2 2.205835 1_556
O21 Zn5 1.880255 1_555
O21 V8 2.044488 1_555
O21 V6 2.049816 1_655
O21 V10 2.052000 1_555
O22 V11 1.963662 1_545
O22 V10 2.061438 1_555
O22 V6 2.106760 1_655
O22 Zn2 2.154073 1_556
O23 V11 1.965501 1_555
O23 V6 2.051284 1_655
O23 V8 2.112002 1_555
O23 Zn2 2.153974 1_556
