# generated using pymatgen
data_Eu2CoSi3O10
_symmetry_space_group_name_H-M   'P 1'
_cell_length_a   6.65509113
_cell_length_b   6.81457900
_cell_length_c   17.25837191
_cell_angle_alpha   90.00000000
_cell_angle_beta   89.86914246
_cell_angle_gamma   90.00000000
_symmetry_Int_Tables_number   1
_chemical_formula_structural   Eu2CoSi3O10
_chemical_formula_sum   'Eu8 Co4 Si12 O40'
_cell_volume   782.69350159
_cell_formula_units_Z   4
loop_
 _symmetry_equiv_pos_site_id
 _symmetry_equiv_pos_as_xyz
  1  'x, y, z'
loop_
 _atom_site_type_symbol
 _atom_site_label
 _atom_site_symmetry_multiplicity
 _atom_site_fract_x
 _atom_site_fract_y
 _atom_site_fract_z
 _atom_site_occupancy
  Eu  Eu0  1  0.60336600  0.22709300  0.26028200  1
  Eu  Eu1  1  0.10336600  0.27290700  0.76028200  1
  Eu  Eu2  1  0.39663400  0.77290700  0.73971800  1
  Eu  Eu3  1  0.89663400  0.72709300  0.23971800  1
  Eu  Eu4  1  0.26851300  0.82078800  0.40964600  1
  Eu  Eu5  1  0.76851300  0.67921200  0.90964600  1
  Eu  Eu6  1  0.73148700  0.17921200  0.59035400  1
  Eu  Eu7  1  0.23148700  0.32078800  0.09035400  1
  Co  Co0  1  0.85025500  0.44592300  0.42282400  1
  Co  Co1  1  0.35025500  0.05407700  0.92282400  1
  Co  Co2  1  0.14974500  0.55407700  0.57717600  1
  Co  Co3  1  0.64974500  0.94592300  0.07717600  1
  Si  Si0  1  0.08346700  0.23213800  0.28864800  1
  Si  Si1  1  0.58346700  0.26786200  0.78864800  1
  Si  Si2  1  0.91653300  0.76786200  0.71135200  1
  Si  Si3  1  0.41653300  0.73213800  0.21135200  1
  Si  Si4  1  0.34137700  0.32295200  0.43093900  1
  Si  Si5  1  0.84137700  0.17704800  0.93093900  1
  Si  Si6  1  0.65862300  0.67704800  0.56906100  1
  Si  Si7  1  0.15862300  0.82295200  0.06906100  1
  Si  Si8  1  0.74607200  0.93083000  0.42201100  1
  Si  Si9  1  0.24607200  0.56917000  0.92201100  1
  Si  Si10  1  0.25392800  0.06917000  0.57798900  1
  Si  Si11  1  0.75392800  0.43083000  0.07798900  1
  O  O0  1  0.92110200  0.06427600  0.26794100  1
  O  O1  1  0.42110200  0.43572400  0.76794100  1
  O  O2  1  0.07889800  0.93572400  0.73205900  1
  O  O3  1  0.57889800  0.56427600  0.23205900  1
  O  O4  1  0.25614200  0.26174600  0.22325300  1
  O  O5  1  0.75614200  0.23825400  0.72325300  1
  O  O6  1  0.74385800  0.73825400  0.77674700  1
  O  O7  1  0.24385800  0.76174600  0.27674700  1
  O  O8  1  0.93898600  0.41893600  0.31175100  1
  O  O9  1  0.43898600  0.08106400  0.81175100  1
  O  O10  1  0.06101400  0.58106400  0.68824900  1
  O  O11  1  0.56101400  0.91893600  0.18824900  1
  O  O12  1  0.21527800  0.17760000  0.36934500  1
  O  O13  1  0.71527800  0.32240000  0.86934500  1
  O  O14  1  0.78472200  0.82240000  0.63065500  1
  O  O15  1  0.28472200  0.67760000  0.13065500  1
  O  O16  1  0.54270200  0.40999300  0.39129200  1
  O  O17  1  0.04270200  0.09000700  0.89129200  1
  O  O18  1  0.45729800  0.59000700  0.60870800  1
  O  O19  1  0.95729800  0.90999300  0.10870800  1
  O  O20  1  0.18520800  0.49397800  0.45967700  1
  O  O21  1  0.68520800  0.00602200  0.95967700  1
  O  O22  1  0.81479200  0.50602200  0.54032300  1
  O  O23  1  0.31479200  0.99397800  0.04032300  1
  O  O24  1  0.38876700  0.17733700  0.50535400  1
  O  O25  1  0.88876700  0.32266300  0.00535400  1
  O  O26  1  0.61123300  0.82266300  0.49464600  1
  O  O27  1  0.11123300  0.67733700  0.99464600  1
  O  O28  1  0.83647300  0.13476000  0.45805200  1
  O  O29  1  0.33647300  0.36524000  0.95805200  1
  O  O30  1  0.16352700  0.86524000  0.54194800  1
  O  O31  1  0.66352700  0.63476000  0.04194800  1
  O  O32  1  0.57182500  0.96477000  0.35763900  1
  O  O33  1  0.07182500  0.53523000  0.85763900  1
  O  O34  1  0.42817500  0.03523000  0.64236100  1
  O  O35  1  0.92817500  0.46477000  0.14236100  1
  O  O36  1  0.90813200  0.76638300  0.39222700  1
  O  O37  1  0.40813200  0.73361700  0.89222700  1
  O  O38  1  0.09186800  0.23361700  0.60777300  1
  O  O39  1  0.59186800  0.26638300  0.10777300  1
loop_
_geom_bond_atom_site_label_1
_geom_bond_atom_site_label_2
_geom_bond_distance
_geom_bond_site_symmetry_2
Eu0 O3 2.354534 1_555
Eu0 O0 2.391898 1_555
Eu0 O4 2.410547 1_555
Eu0 O11 2.456899 1_545
Eu0 O32 2.461948 1_545
Eu0 O16 2.612377 1_555
Eu0 O39 2.646920 1_555
Eu0 O8 2.737898 1_555
Eu1 O2 2.354534 1_545
Eu1 O1 2.391898 1_555
Eu1 O5 2.410547 1_455
Eu1 O10 2.456899 1_555
Eu1 O33 2.461948 1_555
Eu1 O17 2.612377 1_555
Eu1 O38 2.646920 1_555
Eu1 O9 2.737898 1_555
Eu2 O1 2.354534 1_555
Eu2 O2 2.391898 1_555
Eu2 O6 2.410547 1_555
Eu2 O9 2.456899 1_565
Eu2 O34 2.461948 1_565
Eu2 O18 2.612377 1_555
Eu2 O37 2.646920 1_555
Eu2 O10 2.737898 1_555
Eu3 O0 2.354534 1_565
Eu3 O3 2.391898 1_555
Eu3 O7 2.410547 1_655
Eu3 O8 2.456899 1_555
Eu3 O35 2.461948 1_555
Eu3 O19 2.612377 1_555
Eu3 O36 2.646920 1_555
Eu3 O11 2.737898 1_555
Eu4 O7 2.334785 1_555
Eu4 O30 2.405448 1_555
Eu4 O32 2.415504 1_555
Eu4 O36 2.446077 1_455
Eu4 O20 2.451648 1_555
Eu4 O12 2.553960 1_565
Eu4 O26 2.714705 1_555
Eu5 O6 2.334785 1_555
Eu5 O31 2.405448 1_556
Eu5 O33 2.415504 1_655
Eu5 O37 2.446077 1_555
Eu5 O21 2.451648 1_565
Eu5 O13 2.553960 1_555
Eu5 O27 2.714705 1_655
Eu6 O5 2.334785 1_555
Eu6 O28 2.405448 1_555
Eu6 O34 2.415504 1_555
Eu6 O38 2.446077 1_655
Eu6 O22 2.451648 1_555
Eu6 O14 2.553960 1_545
Eu6 O24 2.714705 1_555
Eu7 O4 2.334785 1_555
Eu7 O29 2.405448 1_554
Eu7 O35 2.415504 1_455
Eu7 O39 2.446077 1_555
Eu7 O23 2.451648 1_545
Eu7 O15 2.553960 1_555
Eu7 O25 2.714705 1_455
Co0 O8 2.012961 1_555
Co0 O22 2.081679 1_555
Co0 O16 2.133201 1_555
Co0 O28 2.207732 1_555
Co0 O36 2.279310 1_555
Co0 O20 2.342503 1_655
Co1 O9 2.012961 1_555
Co1 O23 2.081679 1_546
Co1 O17 2.133201 1_555
Co1 O29 2.207732 1_555
Co1 O37 2.279310 1_545
Co1 O21 2.342503 1_555
Co2 O10 2.012961 1_555
Co2 O20 2.081679 1_555
Co2 O18 2.133201 1_555
Co2 O30 2.207732 1_555
Co2 O38 2.279310 1_555
Co2 O22 2.342503 1_455
Co3 O11 2.012961 1_555
Co3 O21 2.081679 1_564
Co3 O19 2.133201 1_555
Co3 O31 2.207732 1_555
Co3 O39 2.279310 1_565
Co3 O23 2.342503 1_555
O0 Si0 1.614187 1_655
O1 Si1 1.614187 1_555
O2 Si2 1.614187 1_455
O3 Si3 1.614187 1_555
O4 Si0 1.621461 1_555
O5 Si1 1.621461 1_555
O6 Si2 1.621461 1_555
O7 Si3 1.621461 1_555
O8 Si0 1.643830 1_655
O9 Si1 1.643830 1_555
O10 Si2 1.643830 1_455
O11 Si3 1.643830 1_555
O12 Si4 1.679119 1_555
O12 Si0 1.689030 1_555
O13 Si5 1.679119 1_555
O13 Si1 1.689030 1_555
O14 Si6 1.679119 1_555
O14 Si2 1.689030 1_555
O15 Si7 1.679119 1_555
O15 Si3 1.689030 1_555
O16 Si4 1.615855 1_555
O17 Si5 1.615855 1_455
O18 Si6 1.615855 1_555
O19 Si7 1.615855 1_655
O20 Si4 1.637723 1_555
O21 Si5 1.637723 1_555
O22 Si6 1.637723 1_555
O23 Si7 1.637723 1_555
O24 Si4 1.653894 1_555
O24 Si10 1.707302 1_555
O25 Si5 1.653894 1_554
O25 Si11 1.707302 1_555
O26 Si6 1.653894 1_555
O26 Si8 1.707302 1_555
O27 Si7 1.653894 1_556
O27 Si9 1.707302 1_555
O28 Si8 1.637626 1_545
O29 Si9 1.637626 1_555
O30 Si10 1.637626 1_565
O31 Si11 1.637626 1_555
O32 Si8 1.624297 1_555
O33 Si9 1.624297 1_555
O34 Si10 1.624297 1_555
O35 Si11 1.624297 1_555
O36 Si8 1.637293 1_555
O37 Si9 1.637293 1_555
O38 Si10 1.637293 1_555
O39 Si11 1.637293 1_555
