# generated using pymatgen
data_Mo4N2O15
_symmetry_space_group_name_H-M   'P 1'
_cell_length_a   8.08023900
_cell_length_b   9.99391733
_cell_length_c   10.85683443
_cell_angle_alpha   113.06304201
_cell_angle_beta   97.93135793
_cell_angle_gamma   110.25584045
_symmetry_Int_Tables_number   1
_chemical_formula_structural   Mo4N2O15
_chemical_formula_sum   'Mo8 N4 O30'
_cell_volume   717.73922440
_cell_formula_units_Z   2
loop_
 _symmetry_equiv_pos_site_id
 _symmetry_equiv_pos_as_xyz
  1  'x, y, z'
loop_
 _atom_site_type_symbol
 _atom_site_label
 _atom_site_symmetry_multiplicity
 _atom_site_fract_x
 _atom_site_fract_y
 _atom_site_fract_z
 _atom_site_occupancy
  Mo  Mo0  1  0.19540100  0.01333400  0.56325800  1
  Mo  Mo1  1  0.80459900  0.98666600  0.43674200  1
  Mo  Mo2  1  0.83549600  0.59365100  0.77950700  1
  Mo  Mo3  1  0.16450400  0.40634900  0.22049300  1
  Mo  Mo4  1  0.66619600  0.85531300  0.79337400  1
  Mo  Mo5  1  0.33380400  0.14468700  0.20662600  1
  Mo  Mo6  1  0.97236200  0.22930000  0.58443900  1
  Mo  Mo7  1  0.02763800  0.77070000  0.41556100  1
  N  N0  1  0.29984100  0.46157800  0.65400500  1
  N  N1  1  0.70015900  0.53842200  0.34599500  1
  N  N2  1  0.06382200  0.78750700  0.03506900  1
  N  N3  1  0.93617800  0.21249300  0.96493100  1
  O  O0  1  0.03702000  0.07060600  0.68954800  1
  O  O1  1  0.96298000  0.92939400  0.31045200  1
  O  O2  1  0.74549100  0.05120500  0.61018800  1
  O  O3  1  0.25450900  0.94879500  0.38981200  1
  O  O4  1  0.96872700  0.61299600  0.57944700  1
  O  O5  1  0.03127300  0.38700400  0.42055300  1
  O  O6  1  0.75634000  0.71478500  0.87265400  1
  O  O7  1  0.24366000  0.28521500  0.12734600  1
  O  O8  1  0.85354900  0.84316900  0.58062800  1
  O  O9  1  0.14645100  0.15683100  0.41937200  1
  O  O10  1  0.12070200  0.81741000  0.68149200  1
  O  O11  1  0.87929800  0.18259000  0.31850800  1
  O  O12  1  0.63081300  0.93652500  0.91325500  1
  O  O13  1  0.36918700  0.06347500  0.08674500  1
  O  O14  1  0.88296500  0.28642300  0.71153900  1
  O  O15  1  0.11703500  0.71357700  0.28846100  1
  O  O16  1  0.44020500  0.73969200  0.81056800  1
  O  O17  1  0.55979500  0.26030800  0.18943200  1
  O  O18  1  0.28896700  0.39510500  0.58020500  1
  O  O19  1  0.71103300  0.60489500  0.41979500  1
  O  O20  1  0.61141500  0.46682000  0.79861600  1
  O  O21  1  0.38858500  0.53318000  0.20138400  1
  O  O22  1  0.89964300  0.48297400  0.88912600  1
  O  O23  1  0.10035700  0.51702600  0.11087400  1
  O  O24  1  0.42802000  0.12513800  0.53758300  1
  O  O25  1  0.57198000  0.87486200  0.46241700  1
  O  O26  1  0.10152200  0.26728700  0.91652800  1
  O  O27  1  0.89847800  0.73271300  0.08347200  1
  O  O28  1  0.45423600  0.17762000  0.75437200  1
  O  O29  1  0.54576400  0.82238000  0.24562800  1
loop_
_geom_bond_atom_site_label_1
_geom_bond_atom_site_label_2
_geom_bond_distance
_geom_bond_site_symmetry_2
Mo0 O3 1.923538 1_545
Mo0 O24 1.947701 1_555
Mo0 O0 2.054727 1_555
Mo0 O28 2.265096 1_555
Mo0 O9 2.575043 1_555
Mo0 O10 2.685284 1_545
Mo0 O8 2.774888 1_445
Mo1 O2 1.923538 1_565
Mo1 O25 1.947701 1_555
Mo1 O1 2.054727 1_555
Mo1 O29 2.265096 1_555
Mo1 O8 2.575043 1_555
Mo1 O11 2.685284 1_565
Mo1 O9 2.774888 1_665
Mo2 O6 1.628740 1_555
Mo2 O20 1.910137 1_555
Mo2 O22 2.041223 1_555
Mo2 O4 2.596952 1_555
Mo3 O7 1.628740 1_555
Mo3 O21 1.910137 1_555
Mo3 O23 2.041223 1_555
Mo3 O5 2.596952 1_555
Mo4 O12 1.367545 1_555
Mo4 O16 1.872586 1_555
Mo4 O6 2.173987 1_555
Mo4 O8 2.917875 1_555
Mo5 O13 1.367545 1_555
Mo5 O17 1.872586 1_555
Mo5 O7 2.173987 1_555
Mo5 O9 2.917875 1_555
Mo6 O14 1.641721 1_555
Mo6 O9 2.469647 1_655
Mo6 O11 2.687180 1_555
Mo6 O5 2.790673 1_655
Mo7 O15 1.641721 1_555
Mo7 O8 2.469647 1_455
Mo7 O10 2.687180 1_555
Mo7 O4 2.790673 1_455
N0 O18 0.783674 1_555
N1 O19 0.783674 1_555
N2 O27 1.507848 1_455
N3 O26 1.507848 1_655
O0 O8 1.959502 1_445
O1 O9 1.959502 1_665
O2 O25 1.760270 1_545
O10 O4 1.738685 1_455
O11 O5 1.738685 1_655
O12 O16 1.787361 1_555
O13 O17 1.787361 1_555
O18 O9 2.081863 1_555
O19 O8 2.081863 1_555
O24 O3 1.760270 1_545
