# generated using pymatgen
data_Li4V3CrO8
_symmetry_space_group_name_H-M   'P 1'
_cell_length_a   5.17703700
_cell_length_b   5.98331158
_cell_length_c   10.78264821
_cell_angle_alpha   106.02238872
_cell_angle_beta   94.59187159
_cell_angle_gamma   106.85090840
_symmetry_Int_Tables_number   1
_chemical_formula_structural   Li4V3CrO8
_chemical_formula_sum   'Li8 V6 Cr2 O16'
_cell_volume   302.55531956
_cell_formula_units_Z   2
loop_
 _symmetry_equiv_pos_site_id
 _symmetry_equiv_pos_as_xyz
  1  'x, y, z'
loop_
 _atom_site_type_symbol
 _atom_site_label
 _atom_site_symmetry_multiplicity
 _atom_site_fract_x
 _atom_site_fract_y
 _atom_site_fract_z
 _atom_site_occupancy
  Li  Li0  1  0.87591100  0.56350600  0.12630800  1
  Li  Li1  1  0.12694000  0.93899000  0.87313500  1
  Li  Li2  1  0.62415100  0.18559100  0.37411700  1
  Li  Li3  1  0.37584900  0.81440900  0.62588300  1
  Li  Li4  1  0.87306000  0.06101000  0.12686500  1
  Li  Li5  1  0.12408900  0.43649400  0.87369200  1
  Li  Li6  1  0.62705200  0.69116100  0.37355800  1
  Li  Li7  1  0.37294800  0.30883900  0.62644200  1
  V  V0  1  0.49852600  0.74957300  0.00009500  1
  V  V1  1  0.24998700  0.37546100  0.25025800  1
  V  V2  1  0.00000000  0.00000000  0.50000000  1
  V  V3  1  0.50147400  0.25042700  0.99990500  1
  V  V4  1  0.75001300  0.62453900  0.74974200  1
  V  V5  1  0.00000000  0.50000000  0.50000000  1
  Cr  Cr0  1  0.25084300  0.87692000  0.25012400  1
  Cr  Cr1  1  0.74915700  0.12308000  0.74987600  1
  O  O0  1  0.70575300  0.15510100  0.56607200  1
  O  O1  1  0.29199700  0.33964400  0.43594400  1
  O  O2  1  0.20565400  0.40897700  0.06494400  1
  O  O3  1  0.79434600  0.59102300  0.93505600  1
  O  O4  1  0.03890400  0.96247600  0.68819000  1
  O  O5  1  0.45589300  0.78790800  0.81436800  1
  O  O6  1  0.96109600  0.03752400  0.31181000  1
  O  O7  1  0.54410700  0.21209200  0.18563200  1
  O  O8  1  0.70800300  0.66035600  0.56405600  1
  O  O9  1  0.29424700  0.84489900  0.43392800  1
  O  O10  1  0.20861000  0.91042600  0.06544900  1
  O  O11  1  0.79139000  0.08957400  0.93455100  1
  O  O12  1  0.46062400  0.28604400  0.81257500  1
  O  O13  1  0.95676000  0.54102900  0.31581100  1
  O  O14  1  0.04324000  0.45897100  0.68418900  1
  O  O15  1  0.53937600  0.71395600  0.18742500  1
loop_
_geom_bond_atom_site_label_1
_geom_bond_atom_site_label_2
_geom_bond_distance
_geom_bond_site_symmetry_2
Li0 O13 2.101411 1_555
Li0 O3 2.132230 1_554
Li0 O2 2.228242 1_655
Li0 O15 2.246266 1_555
Li0 V3 2.277431 1_554
Li0 O10 2.562430 1_655
Li0 O7 2.570077 1_555
Li1 O4 2.061696 1_555
Li1 O10 2.145966 1_556
Li1 O5 2.206357 1_555
Li1 O11 2.242829 1_465
Li1 V3 2.274909 1_565
Li1 V4 2.278554 1_455
Li2 O7 2.099648 1_555
Li2 O0 2.146829 1_555
Li2 O1 2.239253 1_555
Li2 O6 2.243687 1_555
Li2 V5 2.283151 1_655
Li3 O5 2.099648 1_555
Li3 O9 2.146829 1_555
Li3 O8 2.239253 1_555
Li3 O4 2.243687 1_555
Li3 V5 2.283151 1_555
Li4 O6 2.061696 1_555
Li4 O11 2.145966 1_554
Li4 O7 2.206357 1_555
Li4 O10 2.242829 1_645
Li4 V0 2.274909 1_545
Li4 V1 2.278554 1_655
Li5 O14 2.101411 1_555
Li5 O2 2.132230 1_556
Li5 O3 2.228242 1_455
Li5 O12 2.246266 1_555
Li5 V0 2.277431 1_556
Li5 O11 2.562430 1_455
Li5 O5 2.570077 1_555
Li6 O15 2.072159 1_555
Li6 O8 2.131846 1_555
Li6 O13 2.204208 1_555
Li6 O9 2.237476 1_555
Li6 V2 2.262872 1_665
Li6 V1 2.281795 1_555
Li7 O12 2.072159 1_555
Li7 O1 2.131846 1_555
Li7 O14 2.204208 1_555
Li7 O0 2.237476 1_555
Li7 V2 2.262872 1_555
Li7 V4 2.281795 1_555
Cr0 O9 2.044106 1_555
Cr0 O10 2.056523 1_555
Cr0 O6 2.063621 1_465
Cr0 O15 2.069133 1_555
Cr0 Li2 2.255513 1_565
Cr0 Li0 2.271415 1_455
Cr0 O7 2.446234 1_565
Cr0 O13 2.458281 1_455
Cr1 O0 2.044106 1_555
Cr1 O11 2.056523 1_555
Cr1 O4 2.063621 1_645
Cr1 O12 2.069133 1_555
Cr1 Li3 2.255513 1_545
Cr1 Li5 2.271415 1_655
Cr1 O5 2.446234 1_545
Cr1 O14 2.458281 1_655
O0 V2 2.077907 1_655
O0 V5 2.499899 1_655
O1 V1 2.072713 1_555
O1 V5 2.079672 1_555
O1 V2 2.460287 1_555
O2 V1 2.063989 1_555
O2 V3 2.093842 1_554
O2 V0 2.470996 1_555
O3 V4 2.063989 1_555
O3 V0 2.093842 1_556
O3 V3 2.470996 1_555
O4 V2 2.102581 1_565
O4 V4 2.431503 1_455
O5 V0 2.079422 1_556
O5 V4 2.101520 1_555
O6 V2 2.102581 1_655
O6 V1 2.431503 1_655
O7 V3 2.079422 1_554
O7 V1 2.101520 1_555
O8 V4 2.072713 1_555
O8 V5 2.079672 1_655
O8 V2 2.460287 1_665
O9 V2 2.077907 1_565
O9 V5 2.499899 1_555
O10 V0 2.075578 1_555
O10 V3 2.472604 1_564
O11 V3 2.075578 1_555
O11 V0 2.472604 1_546
O12 V3 2.089389 1_555
O12 V4 2.442600 1_555
O13 V5 2.069920 1_655
O13 V1 2.107748 1_655
O14 V5 2.069920 1_555
O14 V4 2.107748 1_455
O15 V0 2.089389 1_555
O15 V1 2.442600 1_555
