# generated using pymatgen
data_LaIr3
_symmetry_space_group_name_H-M   'P 1'
_cell_length_a   9.39217004
_cell_length_b   9.39217004
_cell_length_c   9.39217006
_cell_angle_alpha   33.37053451
_cell_angle_beta   33.37053451
_cell_angle_gamma   33.37053409
_symmetry_Int_Tables_number   1
_chemical_formula_structural   LaIr3
_chemical_formula_sum   'La3 Ir9'
_cell_volume   223.21026012
_cell_formula_units_Z   3
loop_
 _symmetry_equiv_pos_site_id
 _symmetry_equiv_pos_as_xyz
  1  'x, y, z'
loop_
 _atom_site_type_symbol
 _atom_site_label
 _atom_site_symmetry_multiplicity
 _atom_site_fract_x
 _atom_site_fract_y
 _atom_site_fract_z
 _atom_site_occupancy
  La  La0  1  0.86043211  0.86043211  0.86043211  1
  La  La1  1  0.13956789  0.13956789  0.13956789  1
  La  La2  1  -0.00000000  0.00000000  0.00000000  1
  Ir  Ir0  1  0.42254154  0.91473797  0.42254154  1
  Ir  Ir1  1  0.42254154  0.42254154  0.91473797  1
  Ir  Ir2  1  0.91473797  0.42254154  0.42254154  1
  Ir  Ir3  1  0.57745846  0.08526203  0.57745846  1
  Ir  Ir4  1  0.57745846  0.57745846  0.08526203  1
  Ir  Ir5  1  0.08526203  0.57745846  0.57745846  1
  Ir  Ir6  1  0.66869258  0.66869258  0.66869258  1
  Ir  Ir7  1  0.33130742  0.33130742  0.33130742  1
  Ir  Ir8  1  0.50000000  0.50000000  0.50000000  1
loop_
_geom_bond_atom_site_label_1
_geom_bond_atom_site_label_2
_geom_bond_distance
_geom_bond_site_symmetry_2
Ir0 Ir7 2.608292 1_565
Ir0 Ir2 2.654539 1_555
Ir0 Ir1 2.654539 1_555
Ir0 Ir6 2.666519 1_555
Ir0 Ir2 2.738712 1_465
Ir0 Ir1 2.738712 1_564
Ir0 Ir8 2.765739 1_555
Ir0 La0 3.126469 1_455
Ir0 La0 3.126469 1_554
Ir0 La1 3.411234 1_565
Ir0 La2 3.435362 1_566
Ir0 La2 3.435362 1_665
Ir1 Ir7 2.608292 1_556
Ir1 Ir2 2.654539 1_555
Ir1 Ir6 2.666519 1_555
Ir1 Ir2 2.738712 1_456
Ir1 Ir8 2.765739 1_555
Ir1 La0 3.126469 1_455
Ir1 La0 3.126469 1_545
Ir1 La1 3.411234 1_556
Ir1 La2 3.435362 1_656
Ir1 La2 3.435362 1_566
Ir2 Ir7 2.608292 1_655
Ir2 Ir6 2.666519 1_555
Ir2 Ir8 2.765739 1_555
Ir2 La0 3.126469 1_545
Ir2 La0 3.126469 1_554
Ir2 La1 3.411234 1_655
Ir2 La2 3.435362 1_656
Ir2 La2 3.435362 1_665
Ir3 Ir6 2.608292 1_545
Ir3 Ir5 2.654539 1_555
Ir3 Ir4 2.654539 1_555
Ir3 Ir7 2.666519 1_555
Ir3 Ir5 2.738712 1_645
Ir3 Ir4 2.738712 1_546
Ir3 Ir8 2.765739 1_555
Ir3 La1 3.126469 1_655
Ir3 La1 3.126469 1_556
Ir3 La0 3.411234 1_545
Ir3 La2 3.435362 1_655
Ir3 La2 3.435362 1_556
Ir4 Ir6 2.608292 1_554
Ir4 Ir5 2.654539 1_555
Ir4 Ir7 2.666519 1_555
Ir4 Ir5 2.738712 1_654
Ir4 Ir8 2.765739 1_555
Ir4 La1 3.126469 1_565
Ir4 La1 3.126469 1_655
Ir4 La0 3.411234 1_554
Ir4 La2 3.435362 1_565
Ir4 La2 3.435362 1_655
Ir5 Ir6 2.608292 1_455
Ir5 Ir7 2.666519 1_555
Ir5 Ir8 2.765739 1_555
Ir5 La1 3.126469 1_565
Ir5 La1 3.126469 1_556
Ir5 La0 3.411234 1_455
Ir5 La2 3.435362 1_565
Ir5 La2 3.435362 1_556
Ir6 La2 3.114261 1_656
Ir6 La2 3.114261 1_566
Ir6 La2 3.114261 1_665
Ir7 La2 3.114261 1_565
Ir7 La2 3.114261 1_655
Ir7 La2 3.114261 1_556
Ir8 La1 3.196036 1_565
Ir8 La1 3.196036 1_655
Ir8 La0 3.196036 1_455
Ir8 La0 3.196036 1_545
Ir8 La1 3.196036 1_556
Ir8 La0 3.196036 1_554
