# generated using pymatgen
data_Nd4Fe4Co12B3C
_symmetry_space_group_name_H-M   'P 1'
_cell_length_a   5.11753671
_cell_length_b   5.11753671
_cell_length_c   13.46937100
_cell_angle_alpha   90.00000000
_cell_angle_beta   90.00000000
_cell_angle_gamma   120.00000917
_symmetry_Int_Tables_number   1
_chemical_formula_structural   Nd4Fe4Co12B3C
_chemical_formula_sum   'Nd4 Fe4 Co12 B3 C1'
_cell_volume   305.49199888
_cell_formula_units_Z   1
loop_
 _symmetry_equiv_pos_site_id
 _symmetry_equiv_pos_as_xyz
  1  'x, y, z'
loop_
 _atom_site_type_symbol
 _atom_site_label
 _atom_site_symmetry_multiplicity
 _atom_site_fract_x
 _atom_site_fract_y
 _atom_site_fract_z
 _atom_site_occupancy
  Nd  Nd0  1  0.66666700  0.33333300  0.24927000  1
  Nd  Nd1  1  0.66666700  0.33333300  0.75073000  1
  Nd  Nd2  1  0.66666700  0.33333300  0.00000000  1
  Nd  Nd3  1  0.66666700  0.33333300  0.50000000  1
  Fe  Fe0  1  0.00000000  0.00000000  0.74992400  1
  Fe  Fe1  1  0.00000000  0.00000000  0.25007600  1
  Fe  Fe2  1  0.33333300  0.66666700  0.24809900  1
  Fe  Fe3  1  0.33333300  0.66666700  0.75190100  1
  Co  Co0  1  0.67173400  0.83586700  0.10104600  1
  Co  Co1  1  0.66639100  0.83319500  0.60557800  1
  Co  Co2  1  0.16413300  0.83586700  0.10104600  1
  Co  Co3  1  0.16680500  0.83319500  0.60557800  1
  Co  Co4  1  0.16413300  0.32826600  0.10104600  1
  Co  Co5  1  0.16680500  0.33360900  0.60557800  1
  Co  Co6  1  0.67173400  0.83586700  0.89895400  1
  Co  Co7  1  0.66639100  0.83319500  0.39442200  1
  Co  Co8  1  0.16413300  0.83586700  0.89895400  1
  Co  Co9  1  0.16680500  0.83319500  0.39442200  1
  Co  Co10  1  0.16413300  0.32826600  0.89895400  1
  Co  Co11  1  0.16680500  0.33360900  0.39442200  1
  B  B0  1  0.00000000  0.00000000  0.50000000  1
  B  B1  1  0.33333300  0.66666700  0.00000000  1
  B  B2  1  0.33333300  0.66666700  0.50000000  1
  C  C0  1  0.00000000  0.00000000  0.00000000  1
loop_
_geom_bond_atom_site_label_1
_geom_bond_atom_site_label_2
_geom_bond_distance
_geom_bond_site_symmetry_2
Fe0 Nd1 2.954628 1_455
Fe0 Nd1 2.954632 1_445
Fe0 Nd1 2.954632 1_555
Fe1 Nd0 2.954628 1_455
Fe1 Nd0 2.954632 1_555
Fe1 Nd0 2.954632 1_445
Fe2 Nd0 2.954650 1_455
Fe2 Nd0 2.954650 1_565
Fe2 Nd0 2.954659 1_555
Fe3 Nd1 2.954650 1_455
Fe3 Nd1 2.954650 1_565
Fe3 Nd1 2.954659 1_555
Co0 Fe1 2.479112 1_665
Co0 Fe2 2.484454 1_555
Co0 Nd2 2.898306 1_565
Co0 Nd2 2.898311 1_555
Co1 Fe0 2.442570 1_665
Co1 Fe3 2.462355 1_555
Co1 Nd3 2.927384 1_565
Co1 Nd3 2.927384 1_555
Co2 Fe1 2.479112 1_565
Co2 Fe2 2.484452 1_555
Co2 Nd2 2.898308 1_455
Co2 Nd2 2.898308 1_565
Co3 Fe0 2.442573 1_565
Co3 Fe3 2.462350 1_555
Co3 Nd3 2.927384 1_455
Co3 Nd3 2.927384 1_565
Co4 Fe1 2.479112 1_555
Co4 Fe2 2.484454 1_555
Co4 Nd2 2.898306 1_455
Co4 Nd2 2.898311 1_555
Co5 Fe0 2.442570 1_555
Co5 Fe3 2.462355 1_555
Co5 Nd3 2.927384 1_455
Co5 Nd3 2.927384 1_555
Co6 Fe0 2.479112 1_665
Co6 Fe3 2.484454 1_555
Co6 Nd2 2.898306 1_566
Co6 Nd2 2.898311 1_556
Co7 Fe1 2.442570 1_665
Co7 Fe2 2.462355 1_555
Co7 Nd3 2.927384 1_565
Co7 Nd3 2.927384 1_555
Co8 Fe0 2.479112 1_565
Co8 Fe3 2.484452 1_555
Co8 Nd2 2.898308 1_456
Co8 Nd2 2.898308 1_566
Co9 Fe1 2.442573 1_565
Co9 Fe2 2.462350 1_555
Co9 Nd3 2.927384 1_455
Co9 Nd3 2.927384 1_565
Co10 Fe0 2.479112 1_555
Co10 Fe3 2.484454 1_555
Co10 Nd2 2.898306 1_456
Co10 Nd2 2.898311 1_556
Co11 Fe1 2.442570 1_555
Co11 Fe2 2.462355 1_555
Co11 Nd3 2.927384 1_455
Co11 Nd3 2.927384 1_555
B0 Co1 2.051420 1_445
B0 Co5 2.051420 1_555
B0 Co11 2.051420 1_555
B0 Co7 2.051420 1_445
B0 Co3 2.051423 1_545
B0 Co9 2.051423 1_545
B0 Nd3 2.954608 1_455
B0 Nd3 2.954612 1_555
B0 Nd3 2.954612 1_445
B1 Co2 2.025259 1_555
B1 Co8 2.025259 1_554
B1 Co0 2.025262 1_555
B1 Co4 2.025262 1_555
B1 Co6 2.025262 1_554
B1 Co10 2.025262 1_554
B1 Nd2 2.954608 1_455
B1 Nd2 2.954608 1_565
B1 Nd2 2.954617 1_555
B2 Co3 2.049654 1_555
B2 Co9 2.049654 1_555
B2 Co1 2.049661 1_555
B2 Co5 2.049661 1_555
B2 Co7 2.049661 1_555
B2 Co11 2.049661 1_555
B2 Nd3 2.954608 1_455
B2 Nd3 2.954608 1_565
B2 Nd3 2.954617 1_555
C0 Co4 1.992228 1_555
C0 Co0 1.992228 1_445
C0 Co10 1.992228 1_554
C0 Co6 1.992228 1_444
C0 Co2 1.992228 1_545
C0 Co8 1.992228 1_544
C0 Nd2 2.954608 1_455
C0 Nd2 2.954612 1_445
C0 Nd2 2.954612 1_555
