# generated using pymatgen
data_YThRe4
_symmetry_space_group_name_H-M   'P 1'
_cell_length_a   5.41099154
_cell_length_b   5.41099154
_cell_length_c   9.18508300
_cell_angle_alpha   90.00000000
_cell_angle_beta   90.00000000
_cell_angle_gamma   119.99999437
_symmetry_Int_Tables_number   1
_chemical_formula_structural   YThRe4
_chemical_formula_sum   'Y2 Th2 Re8'
_cell_volume   232.89890745
_cell_formula_units_Z   2
loop_
 _symmetry_equiv_pos_site_id
 _symmetry_equiv_pos_as_xyz
  1  'x, y, z'
loop_
 _atom_site_type_symbol
 _atom_site_label
 _atom_site_symmetry_multiplicity
 _atom_site_fract_x
 _atom_site_fract_y
 _atom_site_fract_z
 _atom_site_occupancy
  Y  Y0  1  0.66666700  0.33333300  0.93722500  1
  Y  Y1  1  0.33333300  0.66666700  0.06277500  1
  Th  Th0  1  0.33333300  0.66666700  0.43980500  1
  Th  Th1  1  0.66666700  0.33333300  0.56019500  1
  Re  Re0  1  0.00000000  0.00000000  0.50000000  1
  Re  Re1  1  0.00000000  0.00000000  0.00000000  1
  Re  Re2  1  0.83004200  0.16995800  0.24227100  1
  Re  Re3  1  0.83004200  0.66008500  0.24227100  1
  Re  Re4  1  0.33991500  0.16995800  0.24227100  1
  Re  Re5  1  0.16995800  0.83004200  0.75772900  1
  Re  Re6  1  0.16995800  0.33991500  0.75772900  1
  Re  Re7  1  0.66008500  0.83004200  0.75772900  1
loop_
_geom_bond_atom_site_label_1
_geom_bond_atom_site_label_2
_geom_bond_distance
_geom_bond_site_symmetry_2
Y0 Y1 3.330080 1_656
Y0 Y1 3.330080 1_546
Y0 Y1 3.330088 1_556
Th0 Th1 3.313966 1_455
Th0 Th1 3.313966 1_565
Th0 Th1 3.313974 1_555
Th0 Y1 3.463052 1_555
Th1 Y0 3.463052 1_555
Re0 Re6 2.853268 1_555
Re0 Re4 2.853268 1_555
Re0 Re3 2.853268 1_445
Re0 Re7 2.853268 1_445
Re0 Re2 2.853270 1_455
Re0 Re5 2.853270 1_545
Re0 Th1 3.172583 1_455
Re0 Th0 3.172583 1_545
Re0 Th0 3.172588 1_445
Re0 Th0 3.172588 1_555
Re0 Th1 3.172588 1_445
Re0 Th1 3.172588 1_555
Re1 Re4 2.736617 1_555
Re1 Re6 2.736617 1_554
Re1 Re3 2.736617 1_445
Re1 Re7 2.736617 1_444
Re1 Re5 2.736620 1_544
Re1 Re2 2.736620 1_455
Re1 Y1 3.176799 1_545
Re1 Y0 3.176799 1_454
Re1 Y1 3.176804 1_555
Re1 Y0 3.176804 1_444
Re1 Y1 3.176804 1_445
Re1 Y0 3.176804 1_554
Re2 Re3 2.652073 1_555
Re2 Re4 2.652073 1_555
Re2 Re4 2.758918 1_655
Re2 Re3 2.758918 1_545
Re2 Y1 3.168410 1_545
Re2 Y1 3.168410 1_655
Re2 Y0 3.192956 1_554
Re2 Th0 3.257696 1_545
Re2 Th0 3.257696 1_655
Re2 Th1 3.297242 1_555
Re3 Re4 2.652073 1_555
Re3 Re4 2.758919 1_665
Re3 Y1 3.168410 1_555
Re3 Y1 3.168410 1_655
Re3 Y0 3.192961 1_554
Re3 Th0 3.257696 1_555
Re3 Th0 3.257696 1_655
Re3 Th1 3.297246 1_555
Re4 Y1 3.168410 1_555
Re4 Y1 3.168410 1_545
Re4 Y0 3.192961 1_554
Re4 Th0 3.257696 1_555
Re4 Th0 3.257696 1_545
Re4 Th1 3.297246 1_555
Re5 Re7 2.652073 1_555
Re5 Re6 2.652073 1_555
Re5 Re6 2.758918 1_565
Re5 Re7 2.758918 1_455
Re5 Y0 3.168410 1_455
Re5 Y0 3.168410 1_565
Re5 Y1 3.192956 1_556
Re5 Th1 3.257696 1_455
Re5 Th1 3.257696 1_565
Re5 Th0 3.297242 1_555
Re6 Re7 2.652073 1_555
Re6 Re7 2.758919 1_445
Re6 Y0 3.168410 1_555
Re6 Y0 3.168410 1_455
Re6 Y1 3.192961 1_556
Re6 Th1 3.257696 1_555
Re6 Th1 3.257696 1_455
Re6 Th0 3.297246 1_555
Re7 Y0 3.168410 1_555
Re7 Y0 3.168410 1_565
Re7 Y1 3.192961 1_556
Re7 Th1 3.257696 1_555
Re7 Th1 3.257696 1_565
Re7 Th0 3.297246 1_555
