# generated using pymatgen
data_Li9Co7O16
_symmetry_space_group_name_H-M   'P 1'
_cell_length_a   2.99594900
_cell_length_b   5.09345992
_cell_length_c   19.51408412
_cell_angle_alpha   91.69875845
_cell_angle_beta   92.97663410
_cell_angle_gamma   104.06283852
_symmetry_Int_Tables_number   1
_chemical_formula_structural   Li9Co7O16
_chemical_formula_sum   'Li9 Co7 O16'
_cell_volume   288.19107195
_cell_formula_units_Z   1
loop_
 _symmetry_equiv_pos_site_id
 _symmetry_equiv_pos_as_xyz
  1  'x, y, z'
loop_
 _atom_site_type_symbol
 _atom_site_label
 _atom_site_symmetry_multiplicity
 _atom_site_fract_x
 _atom_site_fract_y
 _atom_site_fract_z
 _atom_site_occupancy
  Li  Li0  1  0.93043100  0.18890600  0.68623500  1
  Li  Li1  1  0.56515700  0.31211100  0.81310900  1
  Li  Li2  1  0.18347600  0.43688200  0.93600300  1
  Li  Li3  1  0.81652400  0.56311800  0.06399700  1
  Li  Li4  1  0.43484300  0.68788900  0.18689100  1
  Li  Li5  1  0.06956900  0.81109400  0.31376500  1
  Li  Li6  1  0.68532800  0.92890400  0.43751400  1
  Li  Li7  1  0.31467200  0.07109600  0.56248600  1
  Li  Li8  1  0.00000000  0.50000000  0.50000000  1
  Co  Co0  1  0.62382700  0.62264000  0.62002800  1
  Co  Co1  1  0.37617300  0.37736000  0.37997200  1
  Co  Co2  1  0.25022500  0.74981800  0.74906100  1
  Co  Co3  1  0.87016200  0.87610300  0.87344400  1
  Co  Co4  1  0.50000000  0.00000000  0.00000000  1
  Co  Co5  1  0.12983800  0.12389700  0.12655600  1
  Co  Co6  1  0.74977500  0.25018200  0.25093900  1
  O  O0  1  0.30311400  0.88727800  0.65852200  1
  O  O1  1  0.87942700  0.01206200  0.78360500  1
  O  O2  1  0.55802500  0.13615800  0.90617200  1
  O  O3  1  0.15532600  0.25985400  0.03484000  1
  O  O4  1  0.82404100  0.38992700  0.15917200  1
  O  O5  1  0.38613000  0.50798900  0.28675400  1
  O  O6  1  0.03980900  0.63023100  0.40371000  1
  O  O7  1  0.66124400  0.77541500  0.54111900  1
  O  O8  1  0.61387000  0.49201100  0.71324600  1
  O  O9  1  0.17595900  0.61007300  0.84082800  1
  O  O10  1  0.84467400  0.74014600  0.96516000  1
  O  O11  1  0.44197500  0.86384200  0.09382800  1
  O  O12  1  0.12057300  0.98793800  0.21639500  1
  O  O13  1  0.69688600  0.11272200  0.34147800  1
  O  O14  1  0.33875600  0.22458500  0.45888100  1
  O  O15  1  0.96019100  0.36976900  0.59629000  1
loop_
_geom_bond_atom_site_label_1
_geom_bond_atom_site_label_2
_geom_bond_distance
_geom_bond_site_symmetry_2
Li0 O15 2.002374 1_555
Li0 O8 2.067850 1_555
Li0 O1 2.123620 1_555
Li0 O0 2.151032 1_545
Li0 O0 2.178647 1_645
Li0 O8 2.270951 1_655
Li1 O2 2.047649 1_555
Li1 O1 2.063262 1_555
Li1 O9 2.107937 1_655
Li1 O8 2.174607 1_555
Li1 O9 2.198245 1_555
Li1 O1 2.277481 1_455
Li2 O9 2.080989 1_555
Li2 O10 2.123635 1_455
Li2 O3 2.150147 1_556
Li2 O2 2.152968 1_455
Li2 O2 2.189632 1_555
Li2 O10 2.231048 1_555
Li3 O4 2.080989 1_555
Li3 O3 2.123635 1_655
Li3 O10 2.150147 1_554
Li3 O11 2.152968 1_655
Li3 O11 2.189632 1_555
Li3 O3 2.231048 1_555
Li4 O11 2.047649 1_555
Li4 O12 2.063262 1_555
Li4 O4 2.107937 1_455
Li4 O5 2.174607 1_555
Li4 O4 2.198245 1_555
Li4 O12 2.277481 1_655
Li5 O6 2.002374 1_555
Li5 O5 2.067850 1_555
Li5 O12 2.123620 1_555
Li5 O13 2.151032 1_565
Li5 O13 2.178647 1_465
Li5 O5 2.270951 1_455
Li6 O14 2.070692 1_565
Li6 O13 2.117757 1_565
Li6 O6 2.162335 1_655
Li6 O14 2.172456 1_665
Li6 O7 2.187545 1_555
Li6 O6 2.206312 1_555
Li7 O7 2.070692 1_545
Li7 O0 2.117757 1_545
Li7 O15 2.162335 1_455
Li7 O7 2.172456 1_445
Li7 O14 2.187545 1_555
Li7 O15 2.206312 1_555
Li8 O15 2.010879 1_455
Li8 O6 2.010879 1_555
Li8 O7 2.086018 1_455
Li8 O14 2.086018 1_555
Li8 O14 2.225745 1_455
Li8 O7 2.225745 1_555
Co0 O7 1.742344 1_555
Co0 O15 1.879596 1_555
Co0 O8 1.954566 1_555
Co0 O0 1.987134 1_555
Co0 O15 2.109740 1_455
Co0 O0 2.229557 1_655
Co1 O14 1.742344 1_555
Co1 O6 1.879596 1_555
Co1 O5 1.954566 1_555
Co1 O13 1.987134 1_555
Co1 O6 2.109740 1_655
Co1 O13 2.229557 1_455
Co2 O0 1.919726 1_555
Co2 O9 1.950106 1_555
Co2 O8 2.029678 1_555
Co2 O1 2.053815 1_465
Co2 O1 2.093566 1_565
Co2 O8 2.106668 1_455
Co3 O1 1.903016 1_565
Co3 O2 1.910687 1_565
Co3 O9 1.921771 1_655
Co3 O10 1.936639 1_555
Co3 O2 2.212668 1_665
Co3 O9 2.237981 1_555
Co4 O11 1.978226 1_545
Co4 O2 1.978226 1_554
Co4 O3 1.991004 1_555
Co4 O10 1.991004 1_544
Co4 O10 2.147988 1_444
Co4 O3 2.147988 1_655
Co5 O12 1.903016 1_545
Co5 O11 1.910687 1_545
Co5 O4 1.921771 1_455
Co5 O3 1.936639 1_555
Co5 O11 2.212668 1_445
Co5 O4 2.237981 1_555
Co6 O13 1.919726 1_555
Co6 O4 1.950106 1_555
Co6 O5 2.029678 1_555
Co6 O12 2.053815 1_645
Co6 O12 2.093566 1_545
Co6 O5 2.106668 1_655
