# generated using pymatgen
data_Ce(Cd10Pd)2
_symmetry_space_group_name_H-M   'P 1'
_cell_length_a   11.32407044
_cell_length_b   11.32407044
_cell_length_c   11.32407044
_cell_angle_alpha   60.00000000
_cell_angle_beta   60.00000000
_cell_angle_gamma   60.00000000
_symmetry_Int_Tables_number   1
_chemical_formula_structural   Ce(Cd10Pd)2
_chemical_formula_sum   'Ce2 Cd40 Pd4'
_cell_volume   1026.81614566
_cell_formula_units_Z   2
loop_
 _symmetry_equiv_pos_site_id
 _symmetry_equiv_pos_as_xyz
  1  'x, y, z'
loop_
 _atom_site_type_symbol
 _atom_site_label
 _atom_site_symmetry_multiplicity
 _atom_site_fract_x
 _atom_site_fract_y
 _atom_site_fract_z
 _atom_site_occupancy
  Ce  Ce0  1  0.50000000  0.50000000  0.50000000  1
  Ce  Ce1  1  0.75000000  0.75000000  0.75000000  1
  Cd  Cd0  1  0.56839100  0.30221300  0.30221300  1
  Cd  Cd1  1  0.30221300  0.56839100  0.82718300  1
  Cd  Cd2  1  0.30221300  0.82718300  0.56839100  1
  Cd  Cd3  1  0.82718300  0.30221300  0.30221300  1
  Cd  Cd4  1  0.30221300  0.30221300  0.56839100  1
  Cd  Cd5  1  0.56839100  0.82718300  0.30221300  1
  Cd  Cd6  1  0.82718300  0.56839100  0.30221300  1
  Cd  Cd7  1  0.30221300  0.30221300  0.82718300  1
  Cd  Cd8  1  0.30221300  0.56839100  0.30221300  1
  Cd  Cd9  1  0.82718300  0.30221300  0.56839100  1
  Cd  Cd10  1  0.56839100  0.30221300  0.82718300  1
  Cd  Cd11  1  0.30221300  0.82718300  0.30221300  1
  Cd  Cd12  1  0.68160900  0.94778700  0.94778700  1
  Cd  Cd13  1  0.94778700  0.68160900  0.42281700  1
  Cd  Cd14  1  0.94778700  0.42281700  0.68160900  1
  Cd  Cd15  1  0.42281700  0.94778700  0.94778700  1
  Cd  Cd16  1  0.94778700  0.94778700  0.68160900  1
  Cd  Cd17  1  0.68160900  0.42281700  0.94778700  1
  Cd  Cd18  1  0.42281700  0.68160900  0.94778700  1
  Cd  Cd19  1  0.94778700  0.94778700  0.42281700  1
  Cd  Cd20  1  0.94778700  0.68160900  0.94778700  1
  Cd  Cd21  1  0.42281700  0.94778700  0.68160900  1
  Cd  Cd22  1  0.68160900  0.94778700  0.42281700  1
  Cd  Cd23  1  0.94778700  0.42281700  0.94778700  1
  Cd  Cd24  1  0.86209900  0.86209900  0.13790100  1
  Cd  Cd25  1  0.13790100  0.13790100  0.86209900  1
  Cd  Cd26  1  0.86209900  0.13790100  0.86209900  1
  Cd  Cd27  1  0.13790100  0.86209900  0.13790100  1
  Cd  Cd28  1  0.13790100  0.86209900  0.86209900  1
  Cd  Cd29  1  0.86209900  0.13790100  0.13790100  1
  Cd  Cd30  1  0.38790100  0.38790100  0.11209900  1
  Cd  Cd31  1  0.11209900  0.11209900  0.38790100  1
  Cd  Cd32  1  0.38790100  0.11209900  0.38790100  1
  Cd  Cd33  1  0.11209900  0.38790100  0.11209900  1
  Cd  Cd34  1  0.11209900  0.38790100  0.38790100  1
  Cd  Cd35  1  0.38790100  0.11209900  0.11209900  1
  Cd  Cd36  1  0.12500000  0.62500000  0.62500000  1
  Cd  Cd37  1  0.62500000  0.12500000  0.62500000  1
  Cd  Cd38  1  0.62500000  0.62500000  0.12500000  1
  Cd  Cd39  1  0.62500000  0.62500000  0.62500000  1
  Pd  Pd0  1  0.62500000  0.12500000  0.12500000  1
  Pd  Pd1  1  0.12500000  0.62500000  0.12500000  1
  Pd  Pd2  1  0.12500000  0.12500000  0.62500000  1
  Pd  Pd3  1  0.12500000  0.12500000  0.12500000  1
loop_
_geom_bond_atom_site_label_1
_geom_bond_atom_site_label_2
_geom_bond_distance
_geom_bond_site_symmetry_2
Cd0 Cd3 2.930579 1_555
Cd0 Cd29 3.011866 1_555
Cd0 Cd4 3.014218 1_555
Cd0 Cd8 3.014218 1_555
Cd0 Pd0 3.149521 1_555
Cd0 Cd32 3.175181 1_555
Cd0 Cd30 3.175181 1_555
Cd0 Cd22 3.277402 1_545
Cd0 Cd17 3.277402 1_554
Cd0 Cd37 3.394185 1_555
Cd0 Cd38 3.394185 1_555
Cd0 Ce0 3.489995 1_555
Cd1 Cd2 2.930579 1_555
Cd1 Cd28 3.011866 1_555
Cd1 Cd7 3.014218 1_555
Cd1 Cd10 3.014218 1_555
Cd1 Pd1 3.149521 1_556
Cd1 Cd30 3.175181 1_556
Cd1 Cd33 3.175181 1_556
Cd1 Cd18 3.277402 1_555
Cd1 Cd20 3.277402 1_455
Cd1 Cd36 3.394185 1_555
Cd1 Cd39 3.394185 1_555
Cd1 Ce0 3.489995 1_555
Cd2 Cd28 3.011866 1_555
Cd2 Cd5 3.014218 1_555
Cd2 Pd2 3.149521 1_565
Cd2 Cd32 3.175181 1_565
Cd2 Cd31 3.175181 1_565
Cd2 Cd21 3.277402 1_555
Cd2 Cd36 3.394185 1_555
Cd2 Cd39 3.394185 1_555
Cd2 Ce0 3.489995 1_555
Cd3 Cd6 3.014218 1_555
Cd3 Cd9 3.014218 1_555
Cd3 Pd3 3.149521 1_655
Cd3 Cd31 3.175181 1_655
Cd3 Cd33 3.175181 1_655
Cd3 Cd38 3.394185 1_555
Cd3 Cd37 3.394185 1_555
Cd3 Ce0 3.489995 1_555
Cd4 Cd7 2.930579 1_555
Cd4 Cd8 3.014218 1_555
Cd4 Pd2 3.149521 1_555
Cd4 Ce0 3.489995 1_555
Cd5 Cd6 2.930579 1_555
Cd5 Pd0 3.149521 1_565
Cd5 Ce0 3.489995 1_555
Cd6 Cd9 3.014218 1_555
Cd6 Pd1 3.149521 1_655
Cd6 Ce0 3.489995 1_555
Cd7 Pd3 3.149521 1_556
Cd7 Ce0 3.489995 1_555
Cd8 Pd1 3.149521 1_555
Cd8 Ce0 3.489995 1_555
Cd9 Pd2 3.149521 1_655
Cd9 Ce0 3.489995 1_555
Cd10 Cd9 2.930579 1_555
Cd10 Cd26 3.011866 1_555
Cd10 Cd7 3.014218 1_555
Cd10 Pd0 3.149521 1_556
Cd10 Cd30 3.175181 1_556
Cd10 Cd35 3.175181 1_556
Cd10 Cd17 3.277402 1_555
Cd10 Cd12 3.277402 1_545
Cd10 Cd39 3.394185 1_555
Cd10 Cd37 3.394185 1_555
Cd10 Ce0 3.489995 1_555
Cd11 Cd8 2.930579 1_555
Cd11 Cd27 3.011866 1_555
Cd11 Cd2 3.014218 1_555
Cd11 Cd5 3.014218 1_555
Cd11 Pd3 3.149521 1_565
Cd11 Cd35 3.175181 1_565
Cd11 Cd31 3.175181 1_565
Cd11 Cd15 3.277402 1_554
Cd11 Cd19 3.277402 1_455
Cd11 Cd38 3.394185 1_555
Cd11 Cd36 3.394185 1_555
Cd11 Ce0 3.489995 1_555
Cd12 Cd15 2.930579 1_555
Cd12 Cd35 3.011866 1_566
Cd12 Cd20 3.014218 1_555
Cd12 Cd16 3.014218 1_555
Cd12 Pd0 3.149521 1_566
Cd12 Cd26 3.175181 1_565
Cd12 Cd24 3.175181 1_556
Cd12 Cd5 3.277402 1_556
Cd12 Cd38 3.394185 1_556
Cd12 Cd37 3.394185 1_565
Cd12 Ce1 3.489995 1_555
Cd13 Cd14 2.930579 1_555
Cd13 Cd34 3.011866 1_655
Cd13 Cd22 3.014218 1_555
Cd13 Cd19 3.014218 1_555
Cd13 Pd1 3.149521 1_655
Cd13 Cd24 3.175181 1_555
Cd13 Cd27 3.175181 1_655
Cd13 Cd6 3.277402 1_555
Cd13 Cd8 3.277402 1_655
Cd13 Cd39 3.394185 1_555
Cd13 Cd36 3.394185 1_655
Cd13 Ce1 3.489995 1_555
Cd14 Cd34 3.011866 1_655
Cd14 Cd17 3.014218 1_555
Cd14 Cd23 3.014218 1_555
Cd14 Pd2 3.149521 1_655
Cd14 Cd26 3.175181 1_555
Cd14 Cd25 3.175181 1_655
Cd14 Cd9 3.277402 1_555
Cd14 Cd4 3.277402 1_655
Cd14 Cd39 3.394185 1_555
Cd14 Cd36 3.394185 1_655
Cd14 Ce1 3.489995 1_555
Cd15 Cd35 3.011866 1_566
Cd15 Cd18 3.014218 1_555
Cd15 Cd21 3.014218 1_555
Cd15 Pd3 3.149521 1_566
Cd15 Cd27 3.175181 1_556
Cd15 Cd25 3.175181 1_565
Cd15 Cd7 3.277402 1_565
Cd15 Cd37 3.394185 1_565
Cd15 Cd38 3.394185 1_556
Cd15 Ce1 3.489995 1_555
Cd16 Cd19 2.930579 1_555
Cd16 Cd31 3.011866 1_665
Cd16 Cd20 3.014218 1_555
Cd16 Pd2 3.149521 1_665
Cd16 Cd28 3.175181 1_655
Cd16 Cd26 3.175181 1_565
Cd16 Cd9 3.277402 1_565
Cd16 Cd2 3.277402 1_655
Cd16 Cd36 3.394185 1_655
Cd16 Cd37 3.394185 1_565
Cd16 Ce1 3.489995 1_555
Cd17 Cd18 2.930579 1_555
Cd17 Cd30 3.011866 1_556
Cd17 Cd23 3.014218 1_555
Cd17 Pd0 3.149521 1_556
Cd17 Cd26 3.175181 1_555
Cd17 Cd29 3.175181 1_556
Cd17 Cd39 3.394185 1_555
Cd17 Cd38 3.394185 1_556
Cd17 Ce1 3.489995 1_555
Cd18 Cd30 3.011866 1_556
Cd18 Cd21 3.014218 1_555
Cd18 Pd1 3.149521 1_556
Cd18 Cd28 3.175181 1_555
Cd18 Cd27 3.175181 1_556
Cd18 Cd8 3.277402 1_556
Cd18 Cd39 3.394185 1_555
Cd18 Cd38 3.394185 1_556
Cd18 Ce1 3.489995 1_555
Cd19 Cd31 3.011866 1_665
Cd19 Cd22 3.014218 1_555
Cd19 Pd3 3.149521 1_665
Cd19 Cd29 3.175181 1_565
Cd19 Cd27 3.175181 1_655
Cd19 Cd3 3.277402 1_565
Cd19 Cd37 3.394185 1_565
Cd19 Cd36 3.394185 1_655
Cd19 Ce1 3.489995 1_555
Cd20 Cd23 2.930579 1_555
Cd20 Cd33 3.011866 1_656
Cd20 Pd1 3.149521 1_656
Cd20 Cd24 3.175181 1_556
Cd20 Cd28 3.175181 1_655
Cd20 Cd6 3.277402 1_556
Cd20 Cd36 3.394185 1_655
Cd20 Cd38 3.394185 1_556
Cd20 Ce1 3.489995 1_555
Cd21 Cd22 2.930579 1_555
Cd21 Cd32 3.011866 1_565
Cd21 Pd2 3.149521 1_565
Cd21 Cd28 3.175181 1_555
Cd21 Cd25 3.175181 1_565
Cd21 Cd4 3.277402 1_565
Cd21 Cd39 3.394185 1_555
Cd21 Cd37 3.394185 1_565
Cd21 Ce1 3.489995 1_555
Cd22 Cd32 3.011866 1_565
Cd22 Pd0 3.149521 1_565
Cd22 Cd24 3.175181 1_555
Cd22 Cd29 3.175181 1_565
Cd22 Cd5 3.277402 1_555
Cd22 Cd39 3.394185 1_555
Cd22 Cd37 3.394185 1_565
Cd22 Ce1 3.489995 1_555
Cd23 Cd33 3.011866 1_656
Cd23 Pd3 3.149521 1_656
Cd23 Cd25 3.175181 1_655
Cd23 Cd29 3.175181 1_556
Cd23 Cd3 3.277402 1_556
Cd23 Cd7 3.277402 1_655
Cd23 Cd38 3.394185 1_556
Cd23 Cd36 3.394185 1_655
Cd23 Ce1 3.489995 1_555
Cd24 Pd0 2.838547 1_565
Cd24 Pd1 2.838547 1_655
Cd24 Cd5 3.011866 1_555
Cd24 Cd6 3.011866 1_555
Cd24 Cd29 3.123201 1_565
Cd24 Cd26 3.123201 1_564
Cd24 Cd28 3.123201 1_654
Cd24 Cd27 3.123201 1_655
Cd25 Pd2 2.838547 1_555
Cd25 Pd3 2.838547 1_556
Cd25 Cd4 3.011866 1_555
Cd25 Cd7 3.011866 1_555
Cd25 Cd26 3.123201 1_455
Cd25 Cd28 3.123201 1_545
Cd25 Cd27 3.123201 1_546
Cd25 Cd29 3.123201 1_456
Cd26 Pd0 2.838547 1_556
Cd26 Pd2 2.838547 1_655
Cd26 Cd9 3.011866 1_555
Cd26 Cd29 3.123201 1_556
Cd26 Cd28 3.123201 1_645
Cd27 Pd1 2.838547 1_555
Cd27 Pd3 2.838547 1_565
Cd27 Cd8 3.011866 1_555
Cd27 Cd28 3.123201 1_554
Cd27 Cd29 3.123201 1_465
Cd28 Pd1 2.838547 1_556
Cd28 Pd2 2.838547 1_565
Cd29 Pd0 2.838547 1_555
Cd29 Pd3 2.838547 1_655
Cd29 Cd3 3.011866 1_555
Cd30 Pd1 2.838547 1_555
Cd30 Pd0 2.838547 1_555
Cd30 Cd34 3.123201 1_555
Cd30 Cd35 3.123201 1_555
Cd30 Cd32 3.123201 1_555
Cd30 Cd33 3.123201 1_555
Cd30 Cd8 3.175181 1_555
Cd31 Pd3 2.838547 1_555
Cd31 Pd2 2.838547 1_555
Cd31 Cd34 3.123201 1_555
Cd31 Cd35 3.123201 1_555
Cd31 Cd32 3.123201 1_555
Cd31 Cd33 3.123201 1_555
Cd31 Cd9 3.175181 1_455
Cd32 Pd2 2.838547 1_555
Cd32 Pd0 2.838547 1_555
Cd32 Cd34 3.123201 1_555
Cd32 Cd35 3.123201 1_555
Cd32 Cd5 3.175181 1_545
Cd32 Cd4 3.175181 1_555
Cd33 Pd3 2.838547 1_555
Cd33 Pd1 2.838547 1_555
Cd33 Cd34 3.123201 1_555
Cd33 Cd35 3.123201 1_555
Cd33 Cd7 3.175181 1_554
Cd33 Cd6 3.175181 1_455
Cd34 Pd2 2.838547 1_555
Cd34 Pd1 2.838547 1_555
Cd34 Cd9 3.175181 1_455
Cd34 Cd6 3.175181 1_455
Cd34 Cd4 3.175181 1_555
Cd34 Cd8 3.175181 1_555
Cd35 Pd3 2.838547 1_555
Cd35 Pd0 2.838547 1_555
Cd35 Cd7 3.175181 1_554
Cd35 Cd5 3.175181 1_545
Cd36 Cd4 3.394185 1_555
Cd36 Cd8 3.394185 1_555
Cd36 Cd7 3.394185 1_555
Cd36 Ce0 3.467274 1_555
Cd36 Ce1 3.467274 1_455
Cd37 Cd9 3.394185 1_555
Cd37 Cd4 3.394185 1_555
Cd37 Cd7 3.394185 1_555
Cd37 Ce1 3.467274 1_545
Cd37 Ce0 3.467274 1_555
Cd38 Cd6 3.394185 1_555
Cd38 Cd5 3.394185 1_555
Cd38 Cd8 3.394185 1_555
Cd38 Ce1 3.467274 1_554
Cd38 Ce0 3.467274 1_555
Cd39 Cd9 3.394185 1_555
Cd39 Cd5 3.394185 1_555
Cd39 Cd6 3.394185 1_555
Cd39 Ce1 3.467274 1_555
Cd39 Ce0 3.467274 1_555
