# generated using pymatgen
data_Y2Te3MoO12
_symmetry_space_group_name_H-M   'P 1'
_cell_length_a   5.26594800
_cell_length_b   11.22604400
_cell_length_c   18.00801100
_cell_angle_alpha   90.00000000
_cell_angle_beta   90.00000000
_cell_angle_gamma   90.00000000
_symmetry_Int_Tables_number   1
_chemical_formula_structural   Y2Te3MoO12
_chemical_formula_sum   'Y8 Te12 Mo4 O48'
_cell_volume   1064.55732748
_cell_formula_units_Z   4
loop_
 _symmetry_equiv_pos_site_id
 _symmetry_equiv_pos_as_xyz
  1  'x, y, z'
loop_
 _atom_site_type_symbol
 _atom_site_label
 _atom_site_symmetry_multiplicity
 _atom_site_fract_x
 _atom_site_fract_y
 _atom_site_fract_z
 _atom_site_occupancy
  Y  Y0  1  0.74428800  0.57791800  0.93890600  1
  Y  Y1  1  0.75571200  0.92208200  0.43890600  1
  Y  Y2  1  0.25571200  0.07791800  0.06109400  1
  Y  Y3  1  0.24428800  0.42208200  0.56109400  1
  Y  Y4  1  0.25571200  0.42208200  0.06109400  1
  Y  Y5  1  0.24428800  0.07791800  0.56109400  1
  Y  Y6  1  0.74428800  0.92208200  0.93890600  1
  Y  Y7  1  0.75571200  0.57791800  0.43890600  1
  Te  Te0  1  0.21883400  0.75000000  0.04652100  1
  Te  Te1  1  0.28116600  0.75000000  0.54652100  1
  Te  Te2  1  0.78116600  0.25000000  0.95347900  1
  Te  Te3  1  0.71883400  0.25000000  0.45347900  1
  Te  Te4  1  0.22759000  0.41458600  0.83216300  1
  Te  Te5  1  0.27241000  0.08541400  0.33216300  1
  Te  Te6  1  0.77241000  0.91458600  0.16783700  1
  Te  Te7  1  0.72759000  0.58541400  0.66783700  1
  Te  Te8  1  0.77241000  0.58541400  0.16783700  1
  Te  Te9  1  0.72759000  0.91458600  0.66783700  1
  Te  Te10  1  0.22759000  0.08541400  0.83216300  1
  Te  Te11  1  0.27241000  0.41458600  0.33216300  1
  Mo  Mo0  1  0.23904700  0.75000000  0.82191700  1
  Mo  Mo1  1  0.26095300  0.75000000  0.32191700  1
  Mo  Mo2  1  0.76095300  0.25000000  0.17808300  1
  Mo  Mo3  1  0.73904700  0.25000000  0.67808300  1
  O  O0  1  0.98014100  0.75000000  0.96445600  1
  O  O1  1  0.51985900  0.75000000  0.46445600  1
  O  O2  1  0.01985900  0.25000000  0.03554400  1
  O  O3  1  0.48014100  0.25000000  0.53554400  1
  O  O4  1  0.40363000  0.61511500  0.00986900  1
  O  O5  1  0.09637000  0.88488500  0.50986900  1
  O  O6  1  0.59637000  0.11511500  0.99013100  1
  O  O7  1  0.90363000  0.38488500  0.49013100  1
  O  O8  1  0.59637000  0.38488500  0.99013100  1
  O  O9  1  0.90363000  0.11511500  0.49013100  1
  O  O10  1  0.40363000  0.88488500  0.00986900  1
  O  O11  1  0.09637000  0.61511500  0.50986900  1
  O  O12  1  0.07966100  0.43772500  0.92901200  1
  O  O13  1  0.42033900  0.06227500  0.42901200  1
  O  O14  1  0.92033900  0.93772500  0.07098800  1
  O  O15  1  0.57966100  0.56227500  0.57098800  1
  O  O16  1  0.92033900  0.56227500  0.07098800  1
  O  O17  1  0.57966100  0.93772500  0.57098800  1
  O  O18  1  0.07966100  0.06227500  0.92901200  1
  O  O19  1  0.42033900  0.43772500  0.42901200  1
  O  O20  1  0.03748400  0.61879400  0.82964700  1
  O  O21  1  0.46251600  0.88120600  0.32964700  1
  O  O22  1  0.96251600  0.11879400  0.17035300  1
  O  O23  1  0.53748400  0.38120600  0.67035300  1
  O  O24  1  0.96251600  0.38120600  0.17035300  1
  O  O25  1  0.53748400  0.11879400  0.67035300  1
  O  O26  1  0.03748400  0.88120600  0.82964700  1
  O  O27  1  0.46251600  0.61879400  0.32964700  1
  O  O28  1  0.54163200  0.48869900  0.84284400  1
  O  O29  1  0.95836800  0.01130100  0.34284400  1
  O  O30  1  0.45836800  0.98869900  0.15715600  1
  O  O31  1  0.04163200  0.51130100  0.65715600  1
  O  O32  1  0.45836800  0.51130100  0.15715600  1
  O  O33  1  0.04163200  0.98869900  0.65715600  1
  O  O34  1  0.54163200  0.01130100  0.84284400  1
  O  O35  1  0.95836800  0.48869900  0.34284400  1
  O  O36  1  0.35299400  0.25000000  0.85906800  1
  O  O37  1  0.14700600  0.25000000  0.35906800  1
  O  O38  1  0.64700600  0.75000000  0.14093200  1
  O  O39  1  0.85299400  0.75000000  0.64093200  1
  O  O40  1  0.52387700  0.75000000  0.88009700  1
  O  O41  1  0.97612300  0.75000000  0.38009700  1
  O  O42  1  0.47612300  0.25000000  0.11990300  1
  O  O43  1  0.02387700  0.25000000  0.61990300  1
  O  O44  1  0.35173700  0.75000000  0.73014700  1
  O  O45  1  0.14826300  0.75000000  0.23014700  1
  O  O46  1  0.64826300  0.25000000  0.26985300  1
  O  O47  1  0.85173700  0.25000000  0.76985300  1
loop_
_geom_bond_atom_site_label_1
_geom_bond_atom_site_label_2
_geom_bond_distance
_geom_bond_site_symmetry_2
Mo0 O44 1.755909 1_555
Mo0 O26 1.820850 1_555
Mo0 O20 1.820850 1_555
Mo0 O40 1.829587 1_555
Mo1 O45 1.755909 1_555
Mo1 O21 1.820850 1_555
Mo1 O27 1.820850 1_555
Mo1 O41 1.829587 1_455
Mo2 O46 1.755909 1_555
Mo2 O22 1.820850 1_555
Mo2 O24 1.820850 1_555
Mo2 O42 1.829587 1_555
Mo3 O47 1.755909 1_555
Mo3 O23 1.820850 1_555
Mo3 O25 1.820850 1_555
Mo3 O43 1.829587 1_655
O0 Te0 1.940073 1_656
O0 Y6 2.342240 1_555
O0 Y0 2.342240 1_555
O1 Te1 1.940073 1_555
O1 Y1 2.342240 1_555
O1 Y7 2.342240 1_555
O2 Te2 1.940073 1_454
O2 Y4 2.342240 1_555
O2 Y2 2.342240 1_555
O3 Te3 1.940073 1_555
O3 Y3 2.342240 1_555
O3 Y5 2.342240 1_555
O4 Te0 1.917157 1_555
O4 Y0 2.241748 1_554
O4 Y4 2.480633 1_555
O5 Te1 1.917157 1_555
O5 Y1 2.241748 1_455
O5 Y5 2.480633 1_565
O6 Te2 1.917157 1_555
O6 Y2 2.241748 1_556
O6 Y6 2.480633 1_545
O7 Te3 1.917157 1_555
O7 Y3 2.241748 1_655
O7 Y7 2.480633 1_555
O8 Te2 1.917157 1_555
O8 Y4 2.241748 1_556
O8 Y0 2.480633 1_555
O9 Te3 1.917157 1_555
O9 Y5 2.241748 1_655
O9 Y1 2.480633 1_545
O10 Te0 1.917157 1_555
O10 Y6 2.241748 1_554
O10 Y2 2.480633 1_565
O11 Te1 1.917157 1_555
O11 Y7 2.241748 1_455
O11 Y3 2.480633 1_555
O12 Te4 1.927701 1_555
O12 Y0 2.372254 1_455
O12 Y4 2.558854 1_556
O12 Te2 2.665717 1_455
O13 Te5 1.927701 1_555
O13 Y1 2.372254 1_545
O13 Y5 2.558854 1_555
O13 Te3 2.665717 1_555
O14 Te6 1.927701 1_555
O14 Y2 2.372254 1_665
O14 Y6 2.558854 1_554
O14 Te0 2.665717 1_655
O15 Te7 1.927701 1_555
O15 Y3 2.372254 1_555
O15 Y7 2.558854 1_555
O15 Te1 2.665717 1_555
O16 Te8 1.927701 1_555
O16 Y4 2.372254 1_655
O16 Y0 2.558854 1_554
O16 Te0 2.665717 1_655
O17 Te9 1.927701 1_555
O17 Y5 2.372254 1_565
O17 Y1 2.558854 1_555
O17 Te1 2.665717 1_555
O18 Te10 1.927701 1_555
O18 Y6 2.372254 1_445
O18 Y2 2.558854 1_556
O18 Te2 2.665717 1_455
O19 Te11 1.927701 1_555
O19 Y7 2.372254 1_555
O19 Y3 2.558854 1_555
O19 Te3 2.665717 1_555
O20 Te4 2.501909 1_555
O20 Y0 2.542748 1_455
O21 Te5 2.501909 1_565
O21 Y1 2.542748 1_555
O22 Te6 2.501909 1_545
O22 Y2 2.542748 1_655
O23 Te7 2.501909 1_555
O23 Y3 2.542748 1_555
O24 Te8 2.501909 1_555
O24 Y4 2.542748 1_655
O25 Te9 2.501909 1_545
O25 Y5 2.542748 1_555
O26 Te10 2.501909 1_565
O26 Y6 2.542748 1_455
O27 Te11 2.501909 1_555
O27 Y7 2.542748 1_555
O28 Te4 1.861191 1_555
O28 Y0 2.265949 1_555
O29 Te5 1.861191 1_655
O29 Y1 2.265949 1_545
O30 Te6 1.861191 1_555
O30 Y2 2.265949 1_565
O31 Te7 1.861191 1_455
O31 Y3 2.265949 1_555
O32 Te8 1.861191 1_555
O32 Y4 2.265949 1_555
O33 Te9 1.861191 1_455
O33 Y5 2.265949 1_565
O34 Te10 1.861191 1_555
O34 Y6 2.265949 1_545
O35 Te11 1.861191 1_655
O35 Y7 2.265949 1_555
O36 Te4 2.021050 1_555
O36 Te10 2.021050 1_555
O37 Te11 2.021050 1_555
O37 Te5 2.021050 1_555
O38 Te6 2.021050 1_555
O38 Te8 2.021050 1_555
O39 Te9 2.021050 1_555
O39 Te7 2.021050 1_555
O40 Y6 2.490093 1_555
O40 Y0 2.490093 1_555
O41 Y1 2.490093 1_555
O41 Y7 2.490093 1_555
O42 Y4 2.490093 1_555
O42 Y2 2.490093 1_555
O43 Y3 2.490093 1_555
O43 Y5 2.490093 1_555
