# generated using pymatgen
data_MgB6H28(C2O)2
_symmetry_space_group_name_H-M   'P 1'
_cell_length_a   7.34879110
_cell_length_b   14.62616008
_cell_length_c   16.67481919
_cell_angle_alpha   90.00000000
_cell_angle_beta   90.00000000
_cell_angle_gamma   90.00000000
_symmetry_Int_Tables_number   1
_chemical_formula_structural   MgB6H28(C2O)2
_chemical_formula_sum   'Mg4 B24 H112 C16 O8'
_cell_volume   1792.28618772
_cell_formula_units_Z   4
loop_
 _symmetry_equiv_pos_site_id
 _symmetry_equiv_pos_as_xyz
  1  'x, y, z'
loop_
 _atom_site_type_symbol
 _atom_site_label
 _atom_site_symmetry_multiplicity
 _atom_site_fract_x
 _atom_site_fract_y
 _atom_site_fract_z
 _atom_site_occupancy
  Mg  Mg0  1  0.28883469  0.46160936  0.88880351  1
  Mg  Mg1  1  0.71116531  0.53839064  0.38880351  1
  Mg  Mg2  1  0.28883469  0.03839064  0.38880351  1
  Mg  Mg3  1  0.71116531  0.96160936  0.88880351  1
  B  B0  1  0.32223045  0.31166913  0.96785853  1
  B  B1  1  0.67776955  0.68833087  0.46785853  1
  B  B2  1  0.32223045  0.18833087  0.46785853  1
  B  B3  1  0.67776955  0.81166913  0.96785853  1
  B  B4  1  0.52757787  0.37605592  0.97370206  1
  B  B5  1  0.47242213  0.62394408  0.47370206  1
  B  B6  1  0.52757787  0.12394408  0.47370206  1
  B  B7  1  0.47242213  0.87605592  0.97370206  1
  B  B8  1  0.41346513  0.34163350  0.06395570  1
  B  B9  1  0.58653487  0.65836650  0.56395570  1
  B  B10  1  0.41346513  0.15836650  0.56395570  1
  B  B11  1  0.58653487  0.84163350  0.06395570  1
  B  B12  1  0.06230281  0.43795789  0.77309345  1
  B  B13  1  0.93769719  0.56204211  0.27309345  1
  B  B14  1  0.06230281  0.06204211  0.27309345  1
  B  B15  1  0.93769719  0.93795789  0.77309345  1
  B  B16  1  0.28057280  0.39516302  0.74659330  1
  B  B17  1  0.71942720  0.60483698  0.24659330  1
  B  B18  1  0.28057280  0.10483698  0.24659330  1
  B  B19  1  0.71942720  0.89516302  0.74659330  1
  B  B20  1  0.08579220  0.32160628  0.73982921  1
  B  B21  1  0.91420780  0.67839372  0.23982921  1
  B  B22  1  0.08579220  0.17839372  0.23982921  1
  B  B23  1  0.91420780  0.82160628  0.73982921  1
  H  H0  1  0.18750220  0.35200470  0.94230914  1
  H  H1  1  0.81249780  0.64799530  0.44230914  1
  H  H2  1  0.18750220  0.14799530  0.44230914  1
  H  H3  1  0.81249780  0.85200470  0.94230914  1
  H  H4  1  0.34477010  0.23845881  0.93650725  1
  H  H5  1  0.65522990  0.76154119  0.43650725  1
  H  H6  1  0.34477010  0.26154119  0.43650725  1
  H  H7  1  0.65522990  0.73845881  0.93650725  1
  H  H8  1  0.25671118  0.29212004  0.03604862  1
  H  H9  1  0.74328882  0.70787996  0.53604862  1
  H  H10  1  0.25671118  0.20787996  0.53604862  1
  H  H11  1  0.74328882  0.79212004  0.03604862  1
  H  H12  1  0.51938797  0.45617262  0.95158277  1
  H  H13  1  0.48061203  0.54382738  0.45158277  1
  H  H14  1  0.51938797  0.04382738  0.45158277  1
  H  H15  1  0.48061203  0.95617262  0.95158277  1
  H  H16  1  0.65529624  0.33592068  0.94541667  1
  H  H17  1  0.34470376  0.66407932  0.44541667  1
  H  H18  1  0.65529624  0.16407932  0.44541667  1
  H  H19  1  0.34470376  0.83592068  0.94541667  1
  H  H20  1  0.57648232  0.39254901  0.04507457  1
  H  H21  1  0.42351768  0.60745099  0.54507457  1
  H  H22  1  0.57648232  0.10745099  0.54507457  1
  H  H23  1  0.42351768  0.89254901  0.04507457  1
  H  H24  1  0.33531842  0.39962705  0.10205299  1
  H  H25  1  0.66468158  0.60037295  0.60205299  1
  H  H26  1  0.33531842  0.10037295  0.60205299  1
  H  H27  1  0.66468158  0.89962705  0.10205299  1
  H  H28  1  0.48426663  0.28064359  0.10111537  1
  H  H29  1  0.51573337  0.71935641  0.60111537  1
  H  H30  1  0.48426663  0.21935641  0.60111537  1
  H  H31  1  0.51573337  0.78064359  0.10111537  1
  H  H32  1  0.03743560  0.45323063  0.84493768  1
  H  H33  1  0.96256440  0.54676937  0.34493768  1
  H  H34  1  0.03743560  0.04676937  0.34493768  1
  H  H35  1  0.96256440  0.95323063  0.84493768  1
  H  H36  1  0.01469008  0.50024442  0.73082536  1
  H  H37  1  0.98530992  0.49975558  0.23082536  1
  H  H38  1  0.01469008  0.99975558  0.23082536  1
  H  H39  1  0.98530992  0.00024442  0.73082536  1
  H  H40  1  0.93684433  0.37952152  0.76545830  1
  H  H41  1  0.06315567  0.62047848  0.26545830  1
  H  H42  1  0.93684433  0.12047848  0.26545830  1
  H  H43  1  0.06315567  0.87952152  0.76545830  1
  H  H44  1  0.38874433  0.38386601  0.80200644  1
  H  H45  1  0.61125567  0.61613399  0.30200644  1
  H  H46  1  0.38874433  0.11613399  0.30200644  1
  H  H47  1  0.61125567  0.88386601  0.80200644  1
  H  H48  1  0.34557465  0.43673045  0.69131434  1
  H  H49  1  0.65442535  0.56326955  0.19131434  1
  H  H50  1  0.34557465  0.06326955  0.19131434  1
  H  H51  1  0.65442535  0.93673045  0.69131434  1
  H  H52  1  0.27668729  0.31311633  0.72202474  1
  H  H53  1  0.72331271  0.68688367  0.22202474  1
  H  H54  1  0.27668729  0.18688367  0.22202474  1
  H  H55  1  0.72331271  0.81311633  0.72202474  1
  H  H56  1  0.07116241  0.26244571  0.78974979  1
  H  H57  1  0.92883759  0.73755429  0.28974979  1
  H  H58  1  0.07116241  0.23755429  0.28974979  1
  H  H59  1  0.92883759  0.76244571  0.78974979  1
  H  H60  1  0.02797281  0.30434485  0.67388467  1
  H  H61  1  0.97202719  0.69565515  0.17388467  1
  H  H62  1  0.02797281  0.19565515  0.17388467  1
  H  H63  1  0.97202719  0.80434485  0.67388467  1
  H  H64  1  0.90953742  0.58955481  0.01064695  1
  H  H65  1  0.09046258  0.41044519  0.51064695  1
  H  H66  1  0.90953742  0.91044519  0.51064695  1
  H  H67  1  0.09046258  0.08955481  0.01064695  1
  H  H68  1  0.91580729  0.47420499  0.97308072  1
  H  H69  1  0.08419271  0.52579501  0.47308072  1
  H  H70  1  0.91580729  0.02579501  0.47308072  1
  H  H71  1  0.08419271  0.97420499  0.97308072  1
  H  H72  1  0.00220534  0.49930806  0.07166667  1
  H  H73  1  0.99779466  0.50069194  0.57166667  1
  H  H74  1  0.00220534  0.00069194  0.57166667  1
  H  H75  1  0.99779466  0.99930806  0.07166667  1
  H  H76  1  0.27973521  0.58228088  0.08433705  1
  H  H77  1  0.72026479  0.41771912  0.58433705  1
  H  H78  1  0.27973521  0.91771912  0.58433705  1
  H  H79  1  0.72026479  0.08228088  0.08433705  1
  H  H80  1  0.39067744  0.62315909  0.99489490  1
  H  H81  1  0.60932256  0.37684091  0.49489490  1
  H  H82  1  0.39067744  0.87684091  0.49489490  1
  H  H83  1  0.60932256  0.12315909  0.99489490  1
  H  H84  1  0.17826218  0.67228890  0.02550882  1
  H  H85  1  0.82173782  0.32771110  0.52550882  1
  H  H86  1  0.17826218  0.82771110  0.52550882  1
  H  H87  1  0.82173782  0.17228890  0.02550882  1
  H  H88  1  0.29297063  0.63925476  0.74301991  1
  H  H89  1  0.70702937  0.36074524  0.24301991  1
  H  H90  1  0.29297063  0.86074524  0.24301991  1
  H  H91  1  0.70702937  0.13925476  0.74301991  1
  H  H92  1  0.18584388  0.65645922  0.83868640  1
  H  H93  1  0.81415612  0.34354078  0.33868640  1
  H  H94  1  0.18584388  0.84354078  0.33868640  1
  H  H95  1  0.81415612  0.15645922  0.83868640  1
  H  H96  1  0.39536340  0.71409577  0.81670724  1
  H  H97  1  0.60463660  0.28590423  0.31670724  1
  H  H98  1  0.39536340  0.78590423  0.31670724  1
  H  H99  1  0.60463660  0.21409577  0.81670724  1
  H  H100  1  0.66426478  0.63730547  0.81722334  1
  H  H101  1  0.33573522  0.36269453  0.31722334  1
  H  H102  1  0.66426478  0.86269453  0.31722334  1
  H  H103  1  0.33573522  0.13730547  0.81722334  1
  H  H104  1  0.67254034  0.51655045  0.83681028  1
  H  H105  1  0.32745966  0.48344955  0.33681028  1
  H  H106  1  0.67254034  0.98344955  0.33681028  1
  H  H107  1  0.32745966  0.01655045  0.83681028  1
  H  H108  1  0.58762048  0.55719592  0.74211683  1
  H  H109  1  0.41237952  0.44280408  0.24211683  1
  H  H110  1  0.58762048  0.94280408  0.24211683  1
  H  H111  1  0.41237952  0.05719592  0.74211683  1
  C  C0  1  0.98625085  0.52494003  0.00997459  1
  C  C1  1  0.01374915  0.47505997  0.50997459  1
  C  C2  1  0.98625085  0.97505997  0.50997459  1
  C  C3  1  0.01374915  0.02494003  0.00997459  1
  C  C4  1  0.25979149  0.60921066  0.02332640  1
  C  C5  1  0.74020851  0.39078934  0.52332640  1
  C  C6  1  0.25979149  0.89078934  0.52332640  1
  C  C7  1  0.74020851  0.10921066  0.02332640  1
  C  C8  1  0.31590563  0.65118738  0.80740490  1
  C  C9  1  0.68409437  0.34881262  0.30740490  1
  C  C10  1  0.31590563  0.84881262  0.30740490  1
  C  C11  1  0.68409437  0.15118738  0.80740490  1
  C  C12  1  0.59720367  0.57122440  0.80688886  1
  C  C13  1  0.40279633  0.42877560  0.30688886  1
  C  C14  1  0.59720367  0.92877560  0.30688886  1
  C  C15  1  0.40279633  0.07122440  0.80688886  1
  O  O0  1  0.16378749  0.54194419  0.97566908  1
  O  O1  1  0.83621251  0.45805581  0.47566908  1
  O  O2  1  0.16378749  0.95805581  0.47566908  1
  O  O3  1  0.83621251  0.04194419  0.97566908  1
  O  O4  1  0.41652485  0.57537613  0.84118258  1
  O  O5  1  0.58347515  0.42462387  0.34118258  1
  O  O6  1  0.41652485  0.92462387  0.34118258  1
  O  O7  1  0.58347515  0.07537613  0.84118258  1
loop_
_geom_bond_atom_site_label_1
_geom_bond_atom_site_label_2
_geom_bond_distance
_geom_bond_site_symmetry_2
Mg0 O4 2.068788 1_555
Mg0 O0 2.079212 1_555
Mg1 O5 2.068788 1_555
Mg1 O1 2.079212 1_555
Mg2 O6 2.068788 1_545
Mg2 O2 2.079212 1_545
Mg3 O7 2.068788 1_565
Mg3 O3 2.079212 1_565
B0 H4 1.203044 1_555
B0 H0 1.228750 1_555
B0 H8 1.267472 1_556
B1 H5 1.203044 1_555
B1 H1 1.228750 1_555
B1 H9 1.267472 1_555
B2 H6 1.203044 1_555
B2 H2 1.228750 1_555
B2 H10 1.267472 1_555
B3 H7 1.203044 1_555
B3 H3 1.228750 1_555
B3 H11 1.267472 1_556
B4 H16 1.203320 1_555
B4 H12 1.229950 1_555
B4 H20 1.266391 1_556
B5 H17 1.203320 1_555
B5 H13 1.229950 1_555
B5 H21 1.266391 1_555
B6 H18 1.203320 1_555
B6 H14 1.229950 1_555
B6 H22 1.266391 1_555
B7 H19 1.203320 1_555
B7 H15 1.229950 1_555
B7 H23 1.266391 1_556
B8 H28 1.204330 1_555
B8 H24 1.205341 1_555
B8 H8 1.438052 1_555
B8 H20 1.445287 1_555
B9 H29 1.204330 1_555
B9 H25 1.205341 1_555
B9 H9 1.438052 1_555
B9 H21 1.445287 1_555
B10 H30 1.204330 1_555
B10 H26 1.205341 1_555
B10 H10 1.438052 1_555
B10 H22 1.445287 1_555
B11 H31 1.204330 1_555
B11 H27 1.205341 1_555
B11 H11 1.438052 1_555
B11 H23 1.445287 1_555
B12 H36 1.203799 1_555
B12 H32 1.232264 1_555
B12 H40 1.263624 1_455
B13 H37 1.203799 1_555
B13 H33 1.232264 1_555
B13 H41 1.263624 1_655
B14 H38 1.203799 1_545
B14 H34 1.232264 1_555
B14 H42 1.263624 1_455
B15 H39 1.203799 1_565
B15 H35 1.232264 1_555
B15 H43 1.263624 1_655
B16 H48 1.203107 1_555
B16 H44 1.230040 1_555
B16 H52 1.268352 1_555
B17 H49 1.203107 1_555
B17 H45 1.230040 1_555
B17 H53 1.268352 1_555
B18 H50 1.203107 1_555
B18 H46 1.230040 1_555
B18 H54 1.268352 1_555
B19 H51 1.203107 1_555
B19 H47 1.230040 1_555
B19 H55 1.268352 1_555
B20 H56 1.205490 1_555
B20 H60 1.205584 1_555
B20 H52 1.439286 1_555
B20 H40 1.448550 1_455
B21 H57 1.205490 1_555
B21 H61 1.205584 1_555
B21 H53 1.439286 1_555
B21 H41 1.448550 1_655
B22 H58 1.205490 1_555
B22 H62 1.205584 1_555
B22 H54 1.439286 1_555
B22 H42 1.448550 1_455
B23 H59 1.205490 1_555
B23 H63 1.205584 1_555
B23 H55 1.439286 1_555
B23 H43 1.448550 1_655
H0 Mg0 1.980016 1_555
H1 Mg1 1.980016 1_555
H2 Mg2 1.980016 1_555
H3 Mg3 1.980016 1_555
H12 Mg0 1.993187 1_555
H13 Mg1 1.993187 1_555
H14 Mg2 1.993187 1_555
H15 Mg3 1.993187 1_555
H32 Mg0 1.990785 1_555
H33 Mg1 1.990785 1_555
H34 Mg2 1.990785 1_555
H35 Mg3 1.990785 1_555
H44 Mg0 1.981613 1_555
H45 Mg1 1.981613 1_555
H46 Mg2 1.981613 1_555
H47 Mg3 1.981613 1_555
C0 H68 1.094124 1_554
C0 H64 1.100496 1_555
C0 H72 1.101148 1_655
C0 O0 1.446123 1_654
C1 H69 1.094124 1_555
C1 H65 1.100496 1_555
C1 H73 1.101148 1_455
C1 O1 1.446123 1_455
C2 H70 1.094124 1_565
C2 H66 1.100496 1_555
C2 H74 1.101148 1_665
C2 O2 1.446123 1_655
C3 H71 1.094124 1_544
C3 H67 1.100496 1_555
C3 H75 1.101148 1_445
C3 O3 1.446123 1_454
C4 H80 1.091579 1_554
C4 H84 1.100669 1_555
C4 H76 1.100729 1_555
C4 O0 1.448179 1_554
C5 H81 1.091579 1_555
C5 H85 1.100669 1_555
C5 H77 1.100729 1_555
C5 O1 1.448179 1_555
C6 H82 1.091579 1_555
C6 H86 1.100669 1_555
C6 H78 1.100729 1_555
C6 O2 1.448179 1_555
C7 H83 1.091579 1_554
C7 H87 1.100669 1_555
C7 H79 1.100729 1_555
C7 O3 1.448179 1_554
C8 H92 1.091592 1_555
C8 H88 1.100682 1_555
C8 H96 1.100736 1_555
C8 O4 1.446890 1_555
C9 H93 1.091592 1_555
C9 H89 1.100682 1_555
C9 H97 1.100736 1_555
C9 O5 1.446890 1_555
C10 H94 1.091592 1_555
C10 H90 1.100682 1_555
C10 H98 1.100736 1_555
C10 O6 1.446890 1_555
C11 H95 1.091592 1_555
C11 H91 1.100682 1_555
C11 H99 1.100736 1_555
C11 O7 1.446890 1_555
C12 H104 1.093123 1_555
C12 H100 1.098504 1_555
C12 H108 1.101632 1_555
C12 O4 1.446951 1_555
C13 H105 1.093123 1_555
C13 H101 1.098504 1_555
C13 H109 1.101632 1_555
C13 O5 1.446951 1_555
C14 H106 1.093123 1_555
C14 H102 1.098504 1_555
C14 H110 1.101632 1_555
C14 O6 1.446951 1_555
C15 H107 1.093123 1_555
C15 H103 1.098504 1_555
C15 H111 1.101632 1_555
C15 O7 1.446951 1_555
