# generated using pymatgen
data_NaPt
_symmetry_space_group_name_H-M   'P 1'
_cell_length_a   5.70194600
_cell_length_b   5.70193048
_cell_length_c   9.77966400
_cell_angle_alpha   89.99820995
_cell_angle_beta   90.00182335
_cell_angle_gamma   119.99850568
_symmetry_Int_Tables_number   1
_chemical_formula_structural   NaPt
_chemical_formula_sum   'Na8 Pt8'
_cell_volume   275.36334124
_cell_formula_units_Z   8
loop_
 _symmetry_equiv_pos_site_id
 _symmetry_equiv_pos_as_xyz
  1  'x, y, z'
loop_
 _atom_site_type_symbol
 _atom_site_label
 _atom_site_symmetry_multiplicity
 _atom_site_fract_x
 _atom_site_fract_y
 _atom_site_fract_z
 _atom_site_occupancy
  Na  Na0_0  1  0.33333400  0.16666650  0.37500100  1
  Na  Na0_1  1  0.33333400  0.16666650  0.87500100  1
  Na  Na0_2  1  0.33333400  0.66666650  0.37500100  1
  Na  Na0_3  1  0.33333400  0.66666650  0.87500100  1
  Na  Na0_4  1  0.83333400  0.16666650  0.37500100  1
  Na  Na0_5  1  0.83333400  0.16666650  0.87500100  1
  Na  Na0_6  1  0.83333400  0.66666650  0.37500100  1
  Na  Na0_7  1  0.83333400  0.66666650  0.87500100  1
  Pt  Pt0_0  1  0.16666650  0.33333200  0.12500050  1
  Pt  Pt0_1  1  0.16666650  0.33333200  0.62500050  1
  Pt  Pt0_2  1  0.16666650  0.83333200  0.12500050  1
  Pt  Pt0_3  1  0.16666650  0.83333200  0.62500050  1
  Pt  Pt0_4  1  0.66666650  0.33333200  0.12500050  1
  Pt  Pt0_5  1  0.66666650  0.33333200  0.62500050  1
  Pt  Pt0_6  1  0.66666650  0.83333200  0.12500050  1
  Pt  Pt0_7  1  0.66666650  0.83333200  0.62500050  1
loop_
_geom_bond_atom_site_label_1
_geom_bond_atom_site_label_2
_geom_bond_distance
_geom_bond_site_symmetry_2
Na0_0 Na0_2 2.850965 1_555
Na0_0 Na0_2 2.850965 1_545
Na0_0 Na0_4 2.850973 1_455
Na0_0 Na0_4 2.850973 1_555
Na0_0 Na0_6 2.851034 1_555
Na0_0 Na0_6 2.851034 1_445
Na0_0 Pt0_0 2.947311 1_555
Na0_0 Pt0_5 2.947347 1_555
Na0_0 Pt0_3 2.947352 1_545
Na0_0 Pt0_1 2.947402 1_555
Na0_0 Pt0_4 2.947407 1_555
Na0_0 Pt0_2 2.947408 1_545
Na0_1 Na0_3 2.850965 1_555
Na0_1 Na0_3 2.850965 1_545
Na0_1 Na0_5 2.850973 1_455
Na0_1 Na0_5 2.850973 1_555
Na0_1 Na0_7 2.851034 1_445
Na0_1 Na0_7 2.851034 1_555
Na0_1 Pt0_1 2.947311 1_555
Na0_1 Pt0_4 2.947347 1_556
Na0_1 Pt0_2 2.947352 1_546
Na0_1 Pt0_0 2.947402 1_556
Na0_1 Pt0_5 2.947407 1_555
Na0_1 Pt0_3 2.947408 1_545
Na0_2 Na0_6 2.850973 1_555
Na0_2 Na0_6 2.850973 1_455
Na0_2 Na0_4 2.851034 1_455
Na0_2 Na0_4 2.851034 1_565
Na0_2 Pt0_2 2.947311 1_555
Na0_2 Pt0_7 2.947347 1_555
Na0_2 Pt0_1 2.947352 1_555
Na0_2 Pt0_3 2.947402 1_555
Na0_2 Pt0_6 2.947407 1_555
Na0_2 Pt0_0 2.947408 1_555
Na0_3 Na0_7 2.850973 1_555
Na0_3 Na0_7 2.850973 1_455
Na0_3 Na0_5 2.851034 1_455
Na0_3 Na0_5 2.851034 1_565
Na0_3 Pt0_3 2.947311 1_555
Na0_3 Pt0_6 2.947347 1_556
Na0_3 Pt0_0 2.947352 1_556
Na0_3 Pt0_2 2.947402 1_556
Na0_3 Pt0_7 2.947407 1_555
Na0_3 Pt0_1 2.947408 1_555
Na0_4 Na0_6 2.850965 1_555
Na0_4 Na0_6 2.850965 1_545
Na0_4 Pt0_4 2.947311 1_555
Na0_4 Pt0_1 2.947347 1_655
Na0_4 Pt0_7 2.947352 1_545
Na0_4 Pt0_5 2.947402 1_555
Na0_4 Pt0_0 2.947407 1_655
Na0_4 Pt0_6 2.947408 1_545
Na0_5 Na0_7 2.850965 1_545
Na0_5 Na0_7 2.850965 1_555
Na0_5 Pt0_5 2.947311 1_555
Na0_5 Pt0_0 2.947347 1_656
Na0_5 Pt0_6 2.947352 1_546
Na0_5 Pt0_4 2.947402 1_556
Na0_5 Pt0_1 2.947407 1_655
Na0_5 Pt0_7 2.947408 1_545
Na0_6 Pt0_6 2.947311 1_555
Na0_6 Pt0_3 2.947347 1_655
Na0_6 Pt0_5 2.947352 1_555
Na0_6 Pt0_7 2.947402 1_555
Na0_6 Pt0_2 2.947407 1_655
Na0_6 Pt0_4 2.947408 1_555
Na0_7 Pt0_7 2.947311 1_555
Na0_7 Pt0_2 2.947347 1_656
Na0_7 Pt0_4 2.947352 1_556
Na0_7 Pt0_6 2.947402 1_556
Na0_7 Pt0_3 2.947407 1_655
Na0_7 Pt0_5 2.947408 1_555
Pt0_0 Pt0_2 2.850965 1_555
Pt0_0 Pt0_2 2.850965 1_545
Pt0_0 Pt0_4 2.850973 1_555
Pt0_0 Pt0_4 2.850973 1_455
Pt0_0 Pt0_6 2.851034 1_555
Pt0_0 Pt0_6 2.851034 1_445
Pt0_1 Pt0_3 2.850965 1_555
Pt0_1 Pt0_3 2.850965 1_545
Pt0_1 Pt0_5 2.850973 1_455
Pt0_1 Pt0_5 2.850973 1_555
Pt0_1 Pt0_7 2.851034 1_445
Pt0_1 Pt0_7 2.851034 1_555
Pt0_2 Pt0_6 2.850973 1_555
Pt0_2 Pt0_6 2.850973 1_455
Pt0_2 Pt0_4 2.851034 1_565
Pt0_2 Pt0_4 2.851034 1_455
Pt0_3 Pt0_7 2.850973 1_555
Pt0_3 Pt0_7 2.850973 1_455
Pt0_3 Pt0_5 2.851034 1_455
Pt0_3 Pt0_5 2.851034 1_565
Pt0_4 Pt0_6 2.850965 1_555
Pt0_4 Pt0_6 2.850965 1_545
Pt0_5 Pt0_7 2.850965 1_545
Pt0_5 Pt0_7 2.850965 1_555
