# generated using pymatgen
data_NaLiBeF4
_symmetry_space_group_name_H-M   'P 1'
_cell_length_a   4.67785900
_cell_length_b   6.28476800
_cell_length_c   10.95634000
_cell_angle_alpha   90.00000000
_cell_angle_beta   90.00000000
_cell_angle_gamma   90.00000000
_symmetry_Int_Tables_number   1
_chemical_formula_structural   NaLiBeF4
_chemical_formula_sum   'Na4 Li4 Be4 F16'
_cell_volume   322.10827244
_cell_formula_units_Z   4
loop_
 _symmetry_equiv_pos_site_id
 _symmetry_equiv_pos_as_xyz
  1  'x, y, z'
loop_
 _atom_site_type_symbol
 _atom_site_label
 _atom_site_symmetry_multiplicity
 _atom_site_fract_x
 _atom_site_fract_y
 _atom_site_fract_z
 _atom_site_occupancy
  Na  Na0  1  0.02293900  0.75000000  0.72325400  1
  Na  Na1  1  0.97706100  0.25000000  0.27674600  1
  Na  Na2  1  0.52293900  0.25000000  0.77674600  1
  Na  Na3  1  0.47706100  0.75000000  0.22325400  1
  Li  Li0  1  0.50000000  0.50000000  0.50000000  1
  Li  Li1  1  0.00000000  0.50000000  0.00000000  1
  Li  Li2  1  0.50000000  0.00000000  0.50000000  1
  Li  Li3  1  0.00000000  0.00000000  0.00000000  1
  Be  Be0  1  0.59551500  0.75000000  0.91888700  1
  Be  Be1  1  0.40448500  0.25000000  0.08111300  1
  Be  Be2  1  0.09551500  0.25000000  0.58111300  1
  Be  Be3  1  0.90448500  0.75000000  0.41888700  1
  F  F0  1  0.72365300  0.54899400  0.85398400  1
  F  F1  1  0.27634700  0.45100600  0.14601600  1
  F  F2  1  0.22365300  0.45100600  0.64601600  1
  F  F3  1  0.27634700  0.04899400  0.14601600  1
  F  F4  1  0.77634700  0.54899400  0.35398400  1
  F  F5  1  0.72365300  0.95100600  0.85398400  1
  F  F6  1  0.77634700  0.95100600  0.35398400  1
  F  F7  1  0.22365300  0.04899400  0.64601600  1
  F  F8  1  0.75326200  0.75000000  0.54890900  1
  F  F9  1  0.24673800  0.25000000  0.45109100  1
  F  F10  1  0.25326200  0.25000000  0.95109100  1
  F  F11  1  0.74673800  0.75000000  0.04890900  1
  F  F12  1  0.26492500  0.75000000  0.92275600  1
  F  F13  1  0.73507500  0.25000000  0.07724400  1
  F  F14  1  0.76492500  0.25000000  0.57724400  1
  F  F15  1  0.23507500  0.75000000  0.42275600  1
loop_
_geom_bond_atom_site_label_1
_geom_bond_atom_site_label_2
_geom_bond_distance
_geom_bond_site_symmetry_2
Be0 F12 1.547034 1_555
Be0 F5 1.568701 1_555
Be0 F0 1.568701 1_555
Be0 F11 1.590535 1_556
Be1 F13 1.547034 1_555
Be1 F1 1.568701 1_555
Be1 F3 1.568701 1_555
Be1 F10 1.590535 1_554
Be2 F14 1.547034 1_455
Be2 F2 1.568701 1_555
Be2 F7 1.568701 1_555
Be2 F9 1.590535 1_555
Be3 F15 1.547034 1_655
Be3 F6 1.568701 1_555
Be3 F4 1.568701 1_555
Be3 F8 1.590535 1_555
F0 Li1 2.079731 1_656
F0 Na2 2.264671 1_555
F0 Na0 2.368008 1_655
F1 Li1 2.079731 1_555
F1 Na3 2.264671 1_555
F1 Na1 2.368008 1_455
F2 Li0 2.079731 1_555
F2 Na0 2.264671 1_555
F2 Na2 2.368008 1_555
F3 Li3 2.079731 1_555
F3 Na3 2.264671 1_545
F3 Na1 2.368008 1_455
F4 Li0 2.079731 1_555
F4 Na1 2.264671 1_555
F4 Na3 2.368008 1_555
F5 Li3 2.079731 1_666
F5 Na2 2.264671 1_565
F5 Na0 2.368008 1_655
F6 Li2 2.079731 1_565
F6 Na1 2.264671 1_565
F6 Na3 2.368008 1_555
F7 Li2 2.079731 1_555
F7 Na0 2.264671 1_545
F7 Na2 2.368008 1_555
F8 Li2 2.039452 1_565
F8 Li0 2.039452 1_555
F8 Na0 2.289150 1_655
F9 Li2 2.039452 1_555
F9 Li0 2.039452 1_555
F9 Na1 2.289150 1_455
F10 Li3 2.039452 1_556
F10 Li1 2.039452 1_556
F10 Na2 2.289150 1_555
F11 Li3 2.039452 1_665
F11 Li1 2.039452 1_655
F11 Na3 2.289150 1_555
F12 Li1 2.172719 1_556
F12 Li3 2.172719 1_566
F12 Na0 2.461533 1_555
F13 Li3 2.172719 1_655
F13 Li1 2.172719 1_655
F13 Na1 2.461533 1_555
F14 Li2 2.172719 1_555
F14 Li0 2.172719 1_555
F14 Na2 2.461533 1_555
F15 Li0 2.172719 1_555
F15 Li2 2.172719 1_565
F15 Na3 2.461533 1_555
