# generated using pymatgen
data_Ba3GaS4Br
_symmetry_space_group_name_H-M   'P 1'
_cell_length_a   8.57113357
_cell_length_b   9.70016628
_cell_length_c   12.51511046
_cell_angle_alpha   90.00000000
_cell_angle_beta   90.00000000
_cell_angle_gamma   90.00000000
_symmetry_Int_Tables_number   1
_chemical_formula_structural   Ba3GaS4Br
_chemical_formula_sum   'Ba12 Ga4 S16 Br4'
_cell_volume   1040.52406558
_cell_formula_units_Z   4
loop_
 _symmetry_equiv_pos_site_id
 _symmetry_equiv_pos_as_xyz
  1  'x, y, z'
loop_
 _atom_site_type_symbol
 _atom_site_label
 _atom_site_symmetry_multiplicity
 _atom_site_fract_x
 _atom_site_fract_y
 _atom_site_fract_z
 _atom_site_occupancy
  Ba  Ba0  1  0.41640517  0.75000000  0.47453438  1
  Ba  Ba1  1  0.08359483  0.75000000  0.97453438  1
  Ba  Ba2  1  0.58359483  0.25000000  0.52546562  1
  Ba  Ba3  1  0.91640517  0.25000000  0.02546562  1
  Ba  Ba4  1  0.91213889  0.52014000  0.33601141  1
  Ba  Ba5  1  0.58786111  0.97986000  0.83601141  1
  Ba  Ba6  1  0.08786111  0.02014000  0.66398859  1
  Ba  Ba7  1  0.41213889  0.47986000  0.16398859  1
  Ba  Ba8  1  0.08786111  0.47986000  0.66398859  1
  Ba  Ba9  1  0.41213889  0.02014000  0.16398859  1
  Ba  Ba10  1  0.91213889  0.97986000  0.33601141  1
  Ba  Ba11  1  0.58786111  0.52014000  0.83601141  1
  Ga  Ga0  1  0.68952493  0.75000000  0.10579704  1
  Ga  Ga1  1  0.81047507  0.75000000  0.60579704  1
  Ga  Ga2  1  0.31047507  0.25000000  0.89420296  1
  Ga  Ga3  1  0.18952493  0.25000000  0.39420296  1
  S  S0  1  0.81215558  0.55055837  0.07136921  1
  S  S1  1  0.68784442  0.94944163  0.57136921  1
  S  S2  1  0.18784442  0.05055837  0.92863079  1
  S  S3  1  0.31215558  0.44944163  0.42863079  1
  S  S4  1  0.18784442  0.44944163  0.92863079  1
  S  S5  1  0.31215558  0.05055837  0.42863079  1
  S  S6  1  0.81215558  0.94944163  0.07136921  1
  S  S7  1  0.68784442  0.55055837  0.57136921  1
  S  S8  1  0.63892130  0.75000000  0.28405801  1
  S  S9  1  0.86107870  0.75000000  0.78405801  1
  S  S10  1  0.36107870  0.25000000  0.71594199  1
  S  S11  1  0.13892130  0.25000000  0.21594199  1
  S  S12  1  0.46563727  0.75000000  0.00756580  1
  S  S13  1  0.03436273  0.75000000  0.50756580  1
  S  S14  1  0.53436273  0.25000000  0.99243420  1
  S  S15  1  0.96563727  0.25000000  0.49243420  1
  Br  Br0  1  0.16970154  0.75000000  0.23219427  1
  Br  Br1  1  0.33029846  0.75000000  0.73219427  1
  Br  Br2  1  0.83029846  0.25000000  0.76780573  1
  Br  Br3  1  0.66970154  0.25000000  0.26780573  1
loop_
_geom_bond_atom_site_label_1
_geom_bond_atom_site_label_2
_geom_bond_distance
_geom_bond_site_symmetry_2
Ba0 S8 3.052889 1_555
Ba0 S3 3.102964 1_555
Ba0 S5 3.102964 1_565
Ba0 S7 3.259484 1_555
Ba0 S1 3.259484 1_555
Ba0 S13 3.300528 1_555
Ba0 Br1 3.308022 1_555
Ba0 Br0 3.697269 1_555
Ba1 S9 3.052889 1_455
Ba1 S4 3.102964 1_555
Ba1 S2 3.102964 1_565
Ba1 S6 3.259484 1_456
Ba1 S0 3.259484 1_456
Ba1 S12 3.300528 1_556
Ba1 Br0 3.308022 1_556
Ba1 Br1 3.697269 1_555
Ba2 S10 3.052889 1_555
Ba2 S1 3.102964 1_545
Ba2 S7 3.102964 1_555
Ba2 S5 3.259484 1_555
Ba2 S3 3.259484 1_555
Ba2 S15 3.300528 1_555
Ba2 Br3 3.308022 1_555
Ba2 Br2 3.697269 1_555
Ba3 S11 3.052889 1_655
Ba3 S0 3.102964 1_555
Ba3 S6 3.102964 1_545
Ba3 S4 3.259484 1_654
Ba3 S2 3.259484 1_654
Ba3 S14 3.300528 1_554
Ba3 Br2 3.308022 1_554
Ba3 Br3 3.697269 1_555
Ba4 S13 3.267818 1_655
Ba4 S8 3.298210 1_555
Ba4 S15 3.302902 1_555
Ba4 Br0 3.396045 1_655
Ba4 S0 3.433800 1_555
Ba4 Br3 3.451533 1_555
Ba4 S7 3.529738 1_555
Ba4 S11 3.592054 1_655
Ba4 S3 3.683638 1_655
Ba5 S12 3.267818 1_556
Ba5 S9 3.298210 1_555
Ba5 S14 3.302902 1_565
Ba5 Br1 3.396045 1_555
Ba5 S1 3.433800 1_555
Ba5 Br2 3.451533 1_565
Ba5 S6 3.529738 1_556
Ba5 S10 3.592054 1_565
Ba5 S2 3.683638 1_565
Ba6 S15 3.267818 1_455
Ba6 S10 3.298210 1_555
Ba6 S13 3.302902 1_545
Ba6 Br2 3.396045 1_455
Ba6 S2 3.433800 1_555
Ba6 Br1 3.451533 1_545
Ba6 S5 3.529738 1_555
Ba6 S9 3.592054 1_445
Ba6 S1 3.683638 1_445
Ba7 S14 3.267818 1_554
Ba7 S11 3.298210 1_555
Ba7 S12 3.302902 1_555
Ba7 Br3 3.396045 1_555
Ba7 S3 3.433800 1_555
Ba7 Br0 3.451533 1_555
Ba7 S4 3.529738 1_554
Ba7 S8 3.592054 1_555
Ba7 S0 3.683638 1_555
Ba8 S15 3.267818 1_455
Ba8 S10 3.298210 1_555
Ba8 S13 3.302902 1_555
Ba8 Br2 3.396045 1_455
Ba8 S4 3.433800 1_555
Ba8 Br1 3.451533 1_555
Ba8 S3 3.529738 1_555
Ba8 S9 3.592054 1_455
Ba8 S7 3.683638 1_455
Ba9 S14 3.267818 1_554
Ba9 S11 3.298210 1_555
Ba9 S12 3.302902 1_545
Ba9 Br3 3.396045 1_555
Ba9 S5 3.433800 1_555
Ba9 Br0 3.451533 1_545
Ba9 S2 3.529738 1_554
Ba9 S8 3.592054 1_545
Ba9 S6 3.683638 1_545
Ba10 S13 3.267818 1_655
Ba10 S8 3.298210 1_555
Ba10 S15 3.302902 1_565
Ba10 Br0 3.396045 1_655
Ba10 S6 3.433800 1_555
Ba10 Br3 3.451533 1_565
Ba10 S1 3.529738 1_555
Ba10 S11 3.592054 1_665
Ba10 S5 3.683638 1_665
Ba11 S12 3.267818 1_556
Ba11 S9 3.298210 1_555
Ba11 S14 3.302902 1_555
Ba11 Br1 3.396045 1_555
Ba11 S7 3.433800 1_555
Ba11 Br2 3.451533 1_555
Ba11 S0 3.529738 1_556
Ba11 S10 3.592054 1_555
Ba11 S4 3.683638 1_555
Ga0 S6 2.243472 1_555
Ga0 S0 2.243472 1_555
Ga0 S8 2.272726 1_555
Ga0 S12 2.278994 1_555
Ga1 S7 2.243472 1_555
Ga1 S1 2.243472 1_555
Ga1 S9 2.272726 1_555
Ga1 S13 2.278994 1_655
Ga2 S2 2.243472 1_555
Ga2 S4 2.243472 1_555
Ga2 S10 2.272726 1_555
Ga2 S14 2.278994 1_555
Ga3 S3 2.243472 1_555
Ga3 S5 2.243472 1_555
Ga3 S11 2.272726 1_555
Ga3 S15 2.278994 1_455
