# generated using pymatgen
data_NaCa3Fe(SiO3)8
_symmetry_space_group_name_H-M   'P 1'
_cell_length_a   9.19654300
_cell_length_b   5.20714500
_cell_length_c   10.12609749
_cell_angle_alpha   79.41024236
_cell_angle_beta   90.00000000
_cell_angle_gamma   90.00000000
_symmetry_Int_Tables_number   1
_chemical_formula_structural   NaCa3Fe(SiO3)8
_chemical_formula_sum   'Na1 Ca3 Fe1 Si8 O24'
_cell_volume   476.65687060
_cell_formula_units_Z   1
loop_
 _symmetry_equiv_pos_site_id
 _symmetry_equiv_pos_as_xyz
  1  'x, y, z'
loop_
 _atom_site_type_symbol
 _atom_site_label
 _atom_site_symmetry_multiplicity
 _atom_site_fract_x
 _atom_site_fract_y
 _atom_site_fract_z
 _atom_site_occupancy
  Na  Na0  1  0.20961900  0.00000000  0.50000000  1
  Ca  Ca0  1  0.76823800  0.50000000  0.50000000  1
  Ca  Ca1  1  0.26333700  0.00000000  0.00000000  1
  Ca  Ca2  1  0.74092700  0.50000000  0.00000000  1
  Fe  Fe0  1  0.40523800  0.50000000  0.50000000  1
  Si  Si0  1  0.11171200  0.64146700  0.30346400  1
  Si  Si1  1  0.57473000  0.20253100  0.76852400  1
  Si  Si2  1  0.11171200  0.35853300  0.69653600  1
  Si  Si3  1  0.57473000  0.79746900  0.23147600  1
  Si  Si4  1  0.91643400  0.85664500  0.69673500  1
  Si  Si5  1  0.40433700  0.31405700  0.22492000  1
  Si  Si6  1  0.91643400  0.14335500  0.30326500  1
  Si  Si7  1  0.40433700  0.68594300  0.77508000  1
  O  O0  1  0.13465900  0.69597200  0.14077900  1
  O  O1  1  0.56197300  0.31499600  0.60868000  1
  O  O2  1  0.13465900  0.30402800  0.85922100  1
  O  O3  1  0.56197300  0.68500400  0.39132000  1
  O  O4  1  0.87536600  0.78468800  0.85583900  1
  O  O5  1  0.40553300  0.25460700  0.38836800  1
  O  O6  1  0.87536600  0.21531200  0.14416100  1
  O  O7  1  0.40553300  0.74539300  0.61163200  1
  O  O8  1  0.26161400  0.67970700  0.38278100  1
  O  O9  1  0.74007000  0.22087400  0.82673100  1
  O  O10  1  0.26161400  0.32029300  0.61721900  1
  O  O11  1  0.74007000  0.77912600  0.17326900  1
  O  O12  1  0.76754600  0.85985200  0.60889300  1
  O  O13  1  0.24553600  0.29073700  0.15612700  1
  O  O14  1  0.76754600  0.14014800  0.39110700  1
  O  O15  1  0.24553600  0.70926300  0.84387300  1
  O  O16  1  0.02185600  0.36664500  0.35516000  1
  O  O17  1  0.50120100  0.91573600  0.83043400  1
  O  O18  1  0.02185600  0.63335500  0.64484000  1
  O  O19  1  0.50120100  0.08426400  0.16956600  1
  O  O20  1  0.00286900  0.13385500  0.65389900  1
  O  O21  1  0.48333400  0.59153500  0.15170300  1
  O  O22  1  0.00286900  0.86614500  0.34610100  1
  O  O23  1  0.48333400  0.40846500  0.84829700  1
loop_
_geom_bond_atom_site_label_1
_geom_bond_atom_site_label_2
_geom_bond_distance
_geom_bond_site_symmetry_2
Na0 O10 2.268649 1_555
Na0 O8 2.268649 1_545
Na0 O7 2.393926 1_545
Na0 O5 2.393926 1_555
Na0 O22 2.632283 1_545
Na0 O20 2.632283 1_555
Na0 O18 2.783630 1_545
Na0 O16 2.783630 1_555
Ca0 O3 2.312531 1_555
Ca0 O1 2.312531 1_555
Ca0 O14 2.342319 1_555
Ca0 O12 2.342319 1_555
Ca1 O0 2.260389 1_545
Ca1 O2 2.260389 1_554
Ca1 O13 2.387018 1_555
Ca1 O15 2.387018 1_544
Ca2 O4 2.249836 1_554
Ca2 O6 2.249836 1_555
Ca2 O11 2.475538 1_555
Ca2 O9 2.475538 1_554
Ca2 O23 2.909997 1_554
Ca2 O21 2.909997 1_555
Fe0 O7 1.855119 1_555
Fe0 O5 1.855119 1_555
Fe0 O8 1.902874 1_555
Fe0 O10 1.902874 1_555
Fe0 O3 1.956315 1_555
Fe0 O1 1.956315 1_555
O0 Si0 1.633110 1_555
O1 Si1 1.621164 1_555
O2 Si2 1.633110 1_555
O3 Si3 1.621164 1_555
O4 Si4 1.629973 1_555
O5 Si5 1.626947 1_555
O6 Si6 1.629973 1_555
O7 Si7 1.626947 1_555
O8 Si0 1.626038 1_555
O9 Si1 1.639912 1_555
O10 Si2 1.626038 1_555
O11 Si3 1.639912 1_555
O12 Si4 1.631221 1_555
O13 Si5 1.632152 1_555
O14 Si6 1.631221 1_555
O15 Si7 1.632152 1_555
O16 Si0 1.652101 1_555
O16 Si6 1.671095 1_455
O17 Si1 1.654196 1_565
O17 Si7 1.669137 1_555
O18 Si2 1.652101 1_555
O18 Si4 1.671095 1_455
O19 Si3 1.654196 1_545
O19 Si5 1.669137 1_555
O20 Si4 1.635084 1_445
O20 Si2 1.656127 1_555
O21 Si5 1.664750 1_555
O21 Si3 1.681450 1_555
O22 Si6 1.635084 1_465
O22 Si0 1.656127 1_555
O23 Si7 1.664750 1_555
O23 Si1 1.681450 1_555
