# generated using pymatgen
data_Eu(GaS2)2
_symmetry_space_group_name_H-M   'P 1'
_cell_length_a   14.55203929
_cell_length_b   12.03348557
_cell_length_c   11.90643301
_cell_angle_alpha   74.87165267
_cell_angle_beta   52.96277359
_cell_angle_gamma   52.16804637
_symmetry_Int_Tables_number   1
_chemical_formula_structural   Eu(GaS2)2
_chemical_formula_sum   'Eu8 Ga16 S32'
_cell_volume   1294.89304905
_cell_formula_units_Z   8
loop_
 _symmetry_equiv_pos_site_id
 _symmetry_equiv_pos_as_xyz
  1  'x, y, z'
loop_
 _atom_site_type_symbol
 _atom_site_label
 _atom_site_symmetry_multiplicity
 _atom_site_fract_x
 _atom_site_fract_y
 _atom_site_fract_z
 _atom_site_occupancy
  Eu  Eu0  1  0.24794357  0.24795485  0.75204702  1
  Eu  Eu1  1  0.99999300  0.99999325  0.00000573  1
  Eu  Eu2  1  0.25000700  0.25000675  0.24999427  1
  Eu  Eu3  1  0.50000749  0.50000489  0.49999540  1
  Eu  Eu4  1  0.00205643  0.00204515  0.49795298  1
  Eu  Eu5  1  0.49795346  0.49795479  0.00203669  1
  Eu  Eu6  1  0.75204654  0.75204521  0.24796331  1
  Eu  Eu7  1  0.74999251  0.74999511  0.75000460  1
  Ga  Ga0  1  0.76015422  0.48872284  0.01387761  1
  Ga  Ga1  1  0.48870181  0.76015734  0.73726588  1
  Ga  Ga2  1  0.48984578  0.76127716  0.23612239  1
  Ga  Ga3  1  0.26493801  0.98546288  0.59312086  1
  Ga  Ga4  1  0.59308127  0.15649063  0.26496466  1
  Ga  Ga5  1  0.26453763  0.98504472  0.09354733  1
  Ga  Ga6  1  0.01382900  0.73724960  0.76021948  1
  Ga  Ga7  1  0.23617100  0.51275040  0.48978052  1
  Ga  Ga8  1  0.73722977  0.01385063  0.48871094  1
  Ga  Ga9  1  0.98546237  0.26495528  0.15645267  1
  Ga  Ga10  1  0.15649022  0.59309077  0.98546087  1
  Ga  Ga11  1  0.65691873  0.09350937  0.98503534  1
  Ga  Ga12  1  0.76129819  0.48984266  0.51273412  1
  Ga  Ga13  1  0.09350978  0.65690923  0.26453913  1
  Ga  Ga14  1  0.98506199  0.26453712  0.65687914  1
  Ga  Ga15  1  0.51277023  0.23614937  0.76128906  1
  S  S0  1  0.78207337  0.47015829  0.31002939  1
  S  S1  1  0.77983496  0.46793301  0.81226659  1
  S  S2  1  0.31004387  0.43774149  0.78206654  1
  S  S3  1  0.04069152  0.04290629  0.20924389  1
  S  S4  1  0.43775461  0.31003209  0.47015623  1
  S  S5  1  0.77723823  0.97490079  0.28387598  1
  S  S6  1  0.04124627  0.54302678  0.70936247  1
  S  S7  1  0.46792663  0.77984171  0.93997061  1
  S  S8  1  0.70701099  0.20872673  0.54363701  1
  S  S9  1  0.81224539  0.93996791  0.77984377  1
  S  S10  1  0.54367185  0.54058604  0.70695673  1
  S  S11  1  0.04288703  0.04072150  0.70714206  1
  S  S12  1  0.93995613  0.81225851  0.46793346  1
  S  S13  1  0.96392913  0.28385460  0.97492323  1
  S  S14  1  0.54284372  0.04076794  0.20708167  1
  S  S15  1  0.20930848  0.20709371  0.04075611  1
  S  S16  1  0.96615881  0.28604826  0.47272041  1
  S  S17  1  0.20924499  0.70715117  0.04071334  1
  S  S18  1  0.70941675  0.70633836  0.04124904  1
  S  S19  1  0.47276177  0.27509921  0.96612402  1
  S  S20  1  0.28384119  0.96395174  0.77727959  1
  S  S21  1  0.27511745  0.47274599  0.28600292  1
  S  S22  1  0.47016504  0.78206699  0.43773341  1
  S  S23  1  0.28607087  0.96614540  0.27507677  1
  S  S24  1  0.20875373  0.70697322  0.54063753  1
  S  S25  1  0.20711297  0.20927850  0.54285794  1
  S  S26  1  0.70715628  0.20923206  0.04291833  1
  S  S27  1  0.54298901  0.04127327  0.70636299  1
  S  S28  1  0.70632815  0.70941396  0.54304327  1
  S  S29  1  0.04075501  0.54284883  0.20928666  1
  S  S30  1  0.97488255  0.77725401  0.96399708  1
  S  S31  1  0.54058325  0.54366164  0.20875096  1
loop_
_geom_bond_atom_site_label_1
_geom_bond_atom_site_label_2
_geom_bond_distance
_geom_bond_site_symmetry_2
Eu0 S25 3.082251 1_555
Eu0 S15 3.082684 1_556
Eu0 S20 3.083169 1_545
Eu0 S13 3.083189 1_455
Eu0 S4 3.083292 1_555
Eu0 S2 3.083342 1_555
Eu0 S27 3.115992 1_555
Eu0 S6 3.116350 1_555
Eu1 S20 3.080468 1_654
Eu1 S13 3.080567 1_564
Eu1 S30 3.080826 1_554
Eu1 S5 3.080902 1_555
Eu1 S26 3.105909 1_565
Eu1 S3 3.106120 1_665
Eu1 S17 3.106218 1_655
Eu1 S11 3.106438 1_664
Eu2 S16 3.080468 1_455
Eu2 S23 3.080567 1_545
Eu2 S21 3.080826 1_555
Eu2 S19 3.080902 1_554
Eu2 S14 3.105909 1_555
Eu2 S15 3.106120 1_555
Eu2 S29 3.106218 1_555
Eu2 S25 3.106438 1_555
Eu3 S0 3.086160 1_555
Eu3 S4 3.086243 1_555
Eu3 S22 3.086260 1_555
Eu3 S2 3.086336 1_555
Eu3 S10 3.099884 1_555
Eu3 S24 3.100019 1_555
Eu3 S31 3.100403 1_555
Eu3 S8 3.100433 1_555
Eu4 S11 3.082251 1_555
Eu4 S3 3.082684 1_555
Eu4 S16 3.083169 1_455
Eu4 S23 3.083189 1_545
Eu4 S9 3.083292 1_445
Eu4 S12 3.083342 1_445
Eu4 S8 3.115992 1_455
Eu4 S24 3.116350 1_545
Eu5 S17 3.082325 1_555
Eu5 S19 3.082567 1_554
Eu5 S21 3.082576 1_555
Eu5 S26 3.082777 1_555
Eu5 S1 3.082986 1_554
Eu5 S7 3.083123 1_554
Eu5 S31 3.115999 1_555
Eu5 S10 3.116329 1_554
Eu6 S29 3.082325 1_655
Eu6 S5 3.082567 1_555
Eu6 S30 3.082576 1_554
Eu6 S14 3.082777 1_565
Eu6 S22 3.082986 1_555
Eu6 S0 3.083123 1_555
Eu6 S18 3.115999 1_555
Eu6 S28 3.116329 1_555
Eu7 S7 3.086160 1_555
Eu7 S9 3.086243 1_555
Eu7 S1 3.086260 1_555
Eu7 S12 3.086336 1_555
Eu7 S28 3.099884 1_555
Eu7 S6 3.100019 1_655
Eu7 S18 3.100403 1_556
Eu7 S27 3.100433 1_565
Ga0 S13 2.249072 1_554
Ga0 S18 2.300569 1_555
Ga0 S1 2.303093 1_554
Ga0 S31 2.303989 1_555
Ga1 S20 2.249212 1_555
Ga1 S28 2.300511 1_555
Ga1 S7 2.303044 1_555
Ga1 S10 2.304042 1_555
Ga2 S23 2.249072 1_555
Ga2 S31 2.300569 1_555
Ga2 S22 2.303093 1_555
Ga2 S18 2.303989 1_555
Ga3 S22 2.252398 1_555
Ga3 S11 2.297242 1_565
Ga3 S20 2.300759 1_555
Ga3 S25 2.303312 1_565
Ga4 S4 2.252174 1_555
Ga4 S26 2.297316 1_555
Ga4 S5 2.300855 1_545
Ga4 S14 2.303325 1_555
Ga5 S7 2.252313 1_554
Ga5 S15 2.297457 1_565
Ga5 S23 2.300721 1_555
Ga5 S3 2.303475 1_565
Ga6 S30 2.249033 1_455
Ga6 S6 2.300442 1_555
Ga6 S9 2.303078 1_455
Ga6 S24 2.304281 1_555
Ga7 S21 2.249033 1_555
Ga7 S24 2.300442 1_555
Ga7 S4 2.303078 1_555
Ga7 S6 2.304281 1_555
Ga8 S5 2.249010 1_545
Ga8 S27 2.300472 1_555
Ga8 S12 2.303088 1_545
Ga8 S8 2.304195 1_555
Ga9 S0 2.252313 1_555
Ga9 S3 2.297457 1_655
Ga9 S13 2.300721 1_554
Ga9 S15 2.303475 1_655
Ga10 S2 2.252182 1_555
Ga10 S17 2.297446 1_556
Ga10 S30 2.300941 1_455
Ga10 S29 2.303306 1_556
Ga11 S9 2.252174 1_545
Ga11 S14 2.297316 1_556
Ga11 S19 2.300855 1_555
Ga11 S26 2.303325 1_556
Ga12 S16 2.249212 1_555
Ga12 S10 2.300511 1_555
Ga12 S0 2.303044 1_555
Ga12 S28 2.304042 1_555
Ga13 S12 2.252182 1_455
Ga13 S29 2.297446 1_555
Ga13 S21 2.300941 1_555
Ga13 S17 2.303306 1_555
Ga14 S1 2.252398 1_555
Ga14 S25 2.297242 1_655
Ga14 S16 2.300759 1_555
Ga14 S11 2.303312 1_655
Ga15 S19 2.249010 1_555
Ga15 S8 2.300472 1_555
Ga15 S2 2.303088 1_555
Ga15 S27 2.304195 1_555
