# generated using pymatgen
data_NaBrF4
_symmetry_space_group_name_H-M   'P 1'
_cell_length_a   5.68600446
_cell_length_b   5.68600446
_cell_length_c   6.54246572
_cell_angle_alpha   115.75641260
_cell_angle_beta   115.75641260
_cell_angle_gamma   90.00000000
_symmetry_Int_Tables_number   1
_chemical_formula_structural   NaBrF4
_chemical_formula_sum   'Na2 Br2 F8'
_cell_volume   166.86663573
_cell_formula_units_Z   2
loop_
 _symmetry_equiv_pos_site_id
 _symmetry_equiv_pos_as_xyz
  1  'x, y, z'
loop_
 _atom_site_type_symbol
 _atom_site_label
 _atom_site_symmetry_multiplicity
 _atom_site_fract_x
 _atom_site_fract_y
 _atom_site_fract_z
 _atom_site_occupancy
  Na  Na0  1  0.25000000  0.25000000  0.50000000  1
  Na  Na1  1  0.75000000  0.75000000  0.50000000  1
  Br  Br0  1  0.00000000  0.50000000  0.00000000  1
  Br  Br1  1  0.50000000  0.00000000  0.00000000  1
  F  F0  1  0.29979999  0.79979999  0.26605930  1
  F  F1  1  0.70020001  0.20020001  0.73394070  1
  F  F2  1  0.96625930  0.46625930  0.26605930  1
  F  F3  1  0.46625930  0.29979999  0.26605930  1
  F  F4  1  0.20020001  0.03374070  0.73394070  1
  F  F5  1  0.03374070  0.53374070  0.73394070  1
  F  F6  1  0.53374070  0.70020001  0.73394070  1
  F  F7  1  0.79979999  0.96625930  0.26605930  1
loop_
_geom_bond_atom_site_label_1
_geom_bond_atom_site_label_2
_geom_bond_distance
_geom_bond_site_symmetry_2
Br0 F0 1.919390 1_555
Br0 F1 1.919390 1_454
Br0 F5 1.919390 1_554
Br0 F2 1.919390 1_455
Br1 F4 1.919390 1_554
Br1 F6 1.919390 1_544
Br1 F3 1.919390 1_555
Br1 F7 1.919390 1_545
F0 Na0 2.438674 1_565
F0 Na1 2.438674 1_555
F1 Na0 2.438674 1_555
F1 Na1 2.438674 1_545
F2 Na1 2.438674 1_555
F2 Na0 2.438674 1_655
F3 Na1 2.438674 1_555
F3 Na0 2.438674 1_555
F4 Na1 2.438674 1_445
F4 Na0 2.438674 1_555
F5 Na1 2.438674 1_455
F5 Na0 2.438674 1_555
F6 Na0 2.438674 1_555
F6 Na1 2.438674 1_555
F7 Na0 2.438674 1_665
F7 Na1 2.438674 1_555
