# generated using pymatgen
data_Na3PdF6
_symmetry_space_group_name_H-M   'P 1'
_cell_length_a   5.96656702
_cell_length_b   5.96656702
_cell_length_c   5.96656702
_cell_angle_alpha   60.00000000
_cell_angle_beta   60.00000000
_cell_angle_gamma   60.00000000
_symmetry_Int_Tables_number   1
_chemical_formula_structural   Na3PdF6
_chemical_formula_sum   'Na3 Pd1 F6'
_cell_volume   150.19607092
_cell_formula_units_Z   1
loop_
 _symmetry_equiv_pos_site_id
 _symmetry_equiv_pos_as_xyz
  1  'x, y, z'
loop_
 _atom_site_type_symbol
 _atom_site_label
 _atom_site_symmetry_multiplicity
 _atom_site_fract_x
 _atom_site_fract_y
 _atom_site_fract_z
 _atom_site_occupancy
  Na  Na0  1  0.25000000  0.25000000  0.25000000  1
  Na  Na1  1  0.75000000  0.75000000  0.75000000  1
  Na  Na2  1  0.50000000  0.50000000  0.50000000  1
  Pd  Pd0  1  0.00000000  0.00000000  0.00000000  1
  F  F0  1  0.24145300  0.24145300  0.75854700  1
  F  F1  1  0.24145300  0.75854700  0.75854700  1
  F  F2  1  0.75854700  0.75854700  0.24145300  1
  F  F3  1  0.24145300  0.75854700  0.24145300  1
  F  F4  1  0.75854700  0.24145300  0.75854700  1
  F  F5  1  0.75854700  0.24145300  0.24145300  1
loop_
_geom_bond_atom_site_label_1
_geom_bond_atom_site_label_2
_geom_bond_distance
_geom_bond_site_symmetry_2
F0 Pd0 2.037380 1_556
F0 Na2 2.181620 1_555
F0 Na1 2.984155 1_545
F0 Na1 2.984155 1_455
F0 Na0 2.984155 1_555
F0 Na0 2.984155 1_556
F1 Pd0 2.037380 1_566
F1 Na2 2.181620 1_555
F1 Na0 2.984155 1_565
F1 Na1 2.984155 1_555
F1 Na1 2.984155 1_455
F1 Na0 2.984155 1_556
F2 Pd0 2.037380 1_665
F2 Na2 2.181620 1_555
F2 Na0 2.984155 1_655
F2 Na0 2.984155 1_565
F2 Na1 2.984155 1_554
F2 Na1 2.984155 1_555
F3 Pd0 2.037380 1_565
F3 Na2 2.181620 1_555
F3 Na1 2.984155 1_554
F3 Na1 2.984155 1_455
F3 Na0 2.984155 1_555
F3 Na0 2.984155 1_565
F4 Pd0 2.037380 1_656
F4 Na2 2.181620 1_555
F4 Na1 2.984155 1_545
F4 Na1 2.984155 1_555
F4 Na0 2.984155 1_556
F4 Na0 2.984155 1_655
F5 Pd0 2.037380 1_655
F5 Na2 2.181620 1_555
F5 Na0 2.984155 1_555
F5 Na1 2.984155 1_554
F5 Na1 2.984155 1_545
F5 Na0 2.984155 1_655
