# generated using pymatgen
data_LaAsPd
_symmetry_space_group_name_H-M   'P 1'
_cell_length_a   4.40384106
_cell_length_b   4.40384176
_cell_length_c   8.01887544
_cell_angle_alpha   90.00000000
_cell_angle_beta   90.00000000
_cell_angle_gamma   119.99999475
_symmetry_Int_Tables_number   1
_chemical_formula_structural   LaAsPd
_chemical_formula_sum   'La2 As2 Pd2'
_cell_volume   134.68135091
_cell_formula_units_Z   2
loop_
 _symmetry_equiv_pos_site_id
 _symmetry_equiv_pos_as_xyz
  1  'x, y, z'
loop_
 _atom_site_type_symbol
 _atom_site_label
 _atom_site_symmetry_multiplicity
 _atom_site_fract_x
 _atom_site_fract_y
 _atom_site_fract_z
 _atom_site_occupancy
  La  La0  1  0.00000000  -0.00000000  0.50000000  1
  La  La1  1  0.00000000  -0.00000000  0.00000000  1
  As  As0  1  0.66666700  0.33333300  0.25000000  1
  As  As1  1  0.33333300  0.66666700  0.75000000  1
  Pd  Pd0  1  0.33333300  0.66666700  0.25000000  1
  Pd  Pd1  1  0.66666700  0.33333300  0.75000000  1
loop_
_geom_bond_atom_site_label_1
_geom_bond_atom_site_label_2
_geom_bond_distance
_geom_bond_site_symmetry_2
La0 Pd1 3.237822 1_455
La0 Pd0 3.237822 1_545
La0 Pd1 3.237825 1_555
La0 Pd0 3.237825 1_445
La0 Pd0 3.237825 1_555
La0 Pd1 3.237825 1_445
La1 Pd1 3.237822 1_454
La1 Pd0 3.237822 1_545
La1 Pd1 3.237825 1_554
La1 Pd0 3.237825 1_445
La1 Pd0 3.237825 1_555
La1 Pd1 3.237825 1_444
As0 Pd0 2.542556 1_655
As0 Pd0 2.542557 1_545
As0 Pd0 2.542564 1_555
As0 La0 3.237822 1_655
As0 La1 3.237822 1_655
As0 La0 3.237825 1_555
As0 La1 3.237825 1_555
As0 La0 3.237825 1_665
As0 La1 3.237825 1_665
As1 Pd1 2.542556 1_455
As1 Pd1 2.542557 1_565
As1 Pd1 2.542564 1_555
As1 La0 3.237822 1_565
As1 La1 3.237822 1_566
As1 La1 3.237825 1_666
As1 La0 3.237825 1_665
As1 La0 3.237825 1_555
As1 La1 3.237825 1_556
