# generated using pymatgen
data_Al(FeO2)2
_symmetry_space_group_name_H-M   'P 1'
_cell_length_a   5.99778728
_cell_length_b   5.94287822
_cell_length_c   5.94060713
_cell_angle_alpha   59.09886906
_cell_angle_beta   59.60939611
_cell_angle_gamma   59.62211611
_symmetry_Int_Tables_number   1
_chemical_formula_structural   Al(FeO2)2
_chemical_formula_sum   'Al2 Fe4 O8'
_cell_volume   147.82431888
_cell_formula_units_Z   2
loop_
 _symmetry_equiv_pos_site_id
 _symmetry_equiv_pos_as_xyz
  1  'x, y, z'
loop_
 _atom_site_type_symbol
 _atom_site_label
 _atom_site_symmetry_multiplicity
 _atom_site_fract_x
 _atom_site_fract_y
 _atom_site_fract_z
 _atom_site_occupancy
  Al  Al0  1  0.88234200  0.86725500  0.86753800  1
  Al  Al1  1  0.11766000  0.13273600  0.13246800  1
  Fe  Fe0  1  0.49995100  0.49999900  0.50003200  1
  Fe  Fe1  1  0.49999400  0.50002000  0.99998600  1
  Fe  Fe2  1  0.00001400  0.50005900  0.49993900  1
  Fe  Fe3  1  0.50001300  0.99995900  0.50002900  1
  O  O0  1  0.23725800  0.25640200  0.25716800  1
  O  O1  1  0.75688000  0.73844600  0.24782500  1
  O  O2  1  0.25140300  0.74320000  0.74371100  1
  O  O3  1  0.75688200  0.24735900  0.73862500  1
  O  O4  1  0.74860100  0.25680300  0.25629100  1
  O  O5  1  0.24312300  0.75263200  0.26137900  1
  O  O6  1  0.24312900  0.26154200  0.75217700  1
  O  O7  1  0.76275100  0.74358900  0.74283200  1
loop_
_geom_bond_atom_site_label_1
_geom_bond_atom_site_label_2
_geom_bond_distance
_geom_bond_site_symmetry_2
Al0 O7 1.798187 1_555
Al0 O2 1.800958 1_655
Al0 O1 1.828182 1_556
Al0 O3 1.828237 1_565
Al1 O0 1.798192 1_555
Al1 O4 1.800948 1_455
Al1 O6 1.828202 1_554
Al1 O5 1.828237 1_545
Fe0 O2 2.047725 1_555
Fe0 O4 2.047971 1_555
Fe0 O6 2.077898 1_555
Fe0 O1 2.078318 1_555
Fe0 O5 2.078753 1_555
Fe0 O3 2.078954 1_555
Fe1 O2 2.118235 1_555
Fe1 O4 2.118424 1_556
Fe1 O7 2.124315 1_555
Fe1 O0 2.124423 1_556
Fe1 O5 2.161756 1_556
Fe1 O3 2.161825 1_555
Fe2 O7 2.045989 1_455
Fe2 O0 2.046013 1_555
Fe2 O1 2.077905 1_455
Fe2 O6 2.078324 1_555
Fe2 O5 2.079780 1_555
Fe2 O3 2.080395 1_455
Fe3 O2 2.120319 1_555
Fe3 O4 2.120575 1_565
Fe3 O7 2.121174 1_555
Fe3 O0 2.121482 1_565
Fe3 O1 2.160591 1_555
Fe3 O6 2.160655 1_565
