# generated using pymatgen
data_Cr2Ni
_symmetry_space_group_name_H-M   'P 1'
_cell_length_a   4.64075312
_cell_length_b   4.64075312
_cell_length_c   4.64075312
_cell_angle_alpha   60.00000000
_cell_angle_beta   60.00000000
_cell_angle_gamma   60.00000000
_symmetry_Int_Tables_number   1
_chemical_formula_structural   Cr2Ni
_chemical_formula_sum   'Cr4 Ni2'
_cell_volume   70.67249076
_cell_formula_units_Z   2
loop_
 _symmetry_equiv_pos_site_id
 _symmetry_equiv_pos_as_xyz
  1  'x, y, z'
loop_
 _atom_site_type_symbol
 _atom_site_label
 _atom_site_symmetry_multiplicity
 _atom_site_fract_x
 _atom_site_fract_y
 _atom_site_fract_z
 _atom_site_occupancy
  Cr  Cr0  1  0.62500000  0.62500000  0.12500000  1
  Cr  Cr1  1  0.62500000  0.12500000  0.62500000  1
  Cr  Cr2  1  0.12500000  0.62500000  0.62500000  1
  Cr  Cr3  1  0.62500000  0.62500000  0.62500000  1
  Ni  Ni0  1  0.25000000  0.25000000  0.25000000  1
  Ni  Ni1  1  0.00000000  0.00000000  0.00000000  1
loop_
_geom_bond_atom_site_label_1
_geom_bond_atom_site_label_2
_geom_bond_distance
_geom_bond_site_symmetry_2
Cr0 Cr1 2.320377 1_555
Cr0 Cr2 2.320377 1_654
Cr0 Cr3 2.320377 1_555
Cr0 Cr3 2.320377 1_554
Cr0 Cr2 2.320377 1_555
Cr0 Cr1 2.320377 1_564
Cr0 Ni0 2.720883 1_565
Cr0 Ni1 2.720883 1_655
Cr0 Ni1 2.720883 1_665
Cr0 Ni1 2.720883 1_565
Cr0 Ni0 2.720883 1_655
Cr0 Ni0 2.720883 1_555
Cr1 Cr3 2.320377 1_555
Cr1 Cr3 2.320377 1_545
Cr1 Cr2 2.320377 1_645
Cr1 Cr2 2.320377 1_555
Cr1 Ni0 2.720883 1_556
Cr1 Ni1 2.720883 1_655
Cr1 Ni1 2.720883 1_656
Cr1 Ni1 2.720883 1_556
Cr1 Ni0 2.720883 1_655
Cr1 Ni0 2.720883 1_555
Cr2 Cr3 2.320377 1_555
Cr2 Cr3 2.320377 1_455
Cr2 Ni0 2.720883 1_556
Cr2 Ni0 2.720883 1_565
Cr2 Ni1 2.720883 1_566
Cr2 Ni1 2.720883 1_556
Cr2 Ni1 2.720883 1_565
Cr2 Ni0 2.720883 1_555
Cr3 Ni0 2.720883 1_556
Cr3 Ni0 2.720883 1_565
Cr3 Ni1 2.720883 1_665
Cr3 Ni1 2.720883 1_656
Cr3 Ni1 2.720883 1_566
Cr3 Ni0 2.720883 1_655
Ni0 Ni1 2.841869 1_655
Ni0 Ni1 2.841869 1_556
Ni0 Ni1 2.841869 1_565
Ni0 Ni1 2.841869 1_555
