# generated using pymatgen
data_Nb2GeAs2
_symmetry_space_group_name_H-M   'P 1'
_cell_length_a   5.48728000
_cell_length_b   5.48728000
_cell_length_c   29.17183000
_cell_angle_alpha   90.00000000
_cell_angle_beta   90.00000000
_cell_angle_gamma   90.00000000
_symmetry_Int_Tables_number   1
_chemical_formula_structural   Nb2GeAs2
_chemical_formula_sum   'Nb16 Ge8 As16'
_cell_volume   878.37085500
_cell_formula_units_Z   8
loop_
 _symmetry_equiv_pos_site_id
 _symmetry_equiv_pos_as_xyz
  1  'x, y, z'
loop_
 _atom_site_type_symbol
 _atom_site_label
 _atom_site_symmetry_multiplicity
 _atom_site_fract_x
 _atom_site_fract_y
 _atom_site_fract_z
 _atom_site_occupancy
  Nb  Nb0_0  1  0.25000000  0.25000000  0.09008100  1
  Nb  Nb0_1  1  0.25000000  0.25000000  0.59008100  1
  Nb  Nb0_2  1  0.25000000  0.75000000  0.09008100  1
  Nb  Nb0_3  1  0.25000000  0.75000000  0.59008100  1
  Nb  Nb0_4  1  0.75000000  0.25000000  0.09008100  1
  Nb  Nb0_5  1  0.75000000  0.25000000  0.59008100  1
  Nb  Nb0_6  1  0.75000000  0.75000000  0.09008100  1
  Nb  Nb0_7  1  0.75000000  0.75000000  0.59008100  1
  Nb  Nb1_0  1  0.25000000  0.25000000  0.40991900  1
  Nb  Nb1_1  1  0.25000000  0.25000000  0.90991900  1
  Nb  Nb1_2  1  0.25000000  0.75000000  0.40991900  1
  Nb  Nb1_3  1  0.25000000  0.75000000  0.90991900  1
  Nb  Nb1_4  1  0.75000000  0.25000000  0.40991900  1
  Nb  Nb1_5  1  0.75000000  0.25000000  0.90991900  1
  Nb  Nb1_6  1  0.75000000  0.75000000  0.40991900  1
  Nb  Nb1_7  1  0.75000000  0.75000000  0.90991900  1
  Ge  Ge0_0  1  0.25000000  0.25000000  0.00000000  1
  Ge  Ge0_1  1  0.25000000  0.25000000  0.50000000  1
  Ge  Ge0_2  1  0.25000000  0.75000000  0.00000000  1
  Ge  Ge0_3  1  0.25000000  0.75000000  0.50000000  1
  Ge  Ge0_4  1  0.75000000  0.25000000  0.00000000  1
  Ge  Ge0_5  1  0.75000000  0.25000000  0.50000000  1
  Ge  Ge0_6  1  0.75000000  0.75000000  0.00000000  1
  Ge  Ge0_7  1  0.75000000  0.75000000  0.50000000  1
  As  As0_0  1  0.25000000  0.25000000  0.31866050  1
  As  As0_1  1  0.25000000  0.25000000  0.81866050  1
  As  As0_2  1  0.25000000  0.75000000  0.31866050  1
  As  As0_3  1  0.25000000  0.75000000  0.81866050  1
  As  As0_4  1  0.75000000  0.25000000  0.31866050  1
  As  As0_5  1  0.75000000  0.25000000  0.81866050  1
  As  As0_6  1  0.75000000  0.75000000  0.31866050  1
  As  As0_7  1  0.75000000  0.75000000  0.81866050  1
  As  As1_0  1  0.25000000  0.25000000  0.18133950  1
  As  As1_1  1  0.25000000  0.25000000  0.68133950  1
  As  As1_2  1  0.25000000  0.75000000  0.18133950  1
  As  As1_3  1  0.25000000  0.75000000  0.68133950  1
  As  As1_4  1  0.75000000  0.25000000  0.18133950  1
  As  As1_5  1  0.75000000  0.25000000  0.68133950  1
  As  As1_6  1  0.75000000  0.75000000  0.18133950  1
  As  As1_7  1  0.75000000  0.75000000  0.68133950  1
loop_
_geom_bond_atom_site_label_1
_geom_bond_atom_site_label_2
_geom_bond_distance
_geom_bond_site_symmetry_2
Nb0_0 Nb0_2 2.743640 1_545
Nb0_0 Nb0_4 2.743640 1_455
Nb0_0 Nb0_4 2.743640 1_555
Nb0_0 Nb0_2 2.743640 1_555
Nb0_1 Nb0_3 2.743640 1_545
Nb0_1 Nb0_5 2.743640 1_455
Nb0_1 Nb0_5 2.743640 1_555
Nb0_1 Nb0_3 2.743640 1_555
Nb0_2 Nb0_6 2.743640 1_455
Nb0_2 Nb0_6 2.743640 1_555
Nb0_3 Nb0_7 2.743640 1_455
Nb0_3 Nb0_7 2.743640 1_555
Nb0_4 Nb0_6 2.743640 1_545
Nb0_4 Nb0_6 2.743640 1_555
Nb0_5 Nb0_7 2.743640 1_545
Nb0_5 Nb0_7 2.743640 1_555
Nb1_0 Nb1_2 2.743640 1_545
Nb1_0 Nb1_4 2.743640 1_455
Nb1_0 Nb1_2 2.743640 1_555
Nb1_0 Nb1_4 2.743640 1_555
Nb1_1 Nb1_5 2.743640 1_455
Nb1_1 Nb1_3 2.743640 1_545
Nb1_1 Nb1_5 2.743640 1_555
Nb1_1 Nb1_3 2.743640 1_555
Nb1_2 Nb1_6 2.743640 1_455
Nb1_2 Nb1_6 2.743640 1_555
Nb1_3 Nb1_7 2.743640 1_455
Nb1_3 Nb1_7 2.743640 1_555
Nb1_4 Nb1_6 2.743640 1_545
Nb1_4 Nb1_6 2.743640 1_555
Nb1_5 Nb1_7 2.743640 1_545
Nb1_5 Nb1_7 2.743640 1_555
Ge0_0 Nb1_1 2.627828 1_554
Ge0_0 Nb0_0 2.627828 1_555
Ge0_0 Ge0_4 2.743640 1_455
Ge0_0 Ge0_2 2.743640 1_545
Ge0_0 Ge0_2 2.743640 1_555
Ge0_0 Ge0_4 2.743640 1_555
Ge0_1 Nb1_0 2.627828 1_555
Ge0_1 Nb0_1 2.627828 1_555
Ge0_1 Ge0_5 2.743640 1_455
Ge0_1 Ge0_3 2.743640 1_545
Ge0_1 Ge0_5 2.743640 1_555
Ge0_1 Ge0_3 2.743640 1_555
Ge0_2 Nb1_3 2.627828 1_554
Ge0_2 Nb0_2 2.627828 1_555
Ge0_2 Ge0_6 2.743640 1_455
Ge0_2 Ge0_6 2.743640 1_555
Ge0_3 Nb1_2 2.627828 1_555
Ge0_3 Nb0_3 2.627828 1_555
Ge0_3 Ge0_7 2.743640 1_455
Ge0_3 Ge0_7 2.743640 1_555
Ge0_4 Nb1_5 2.627828 1_554
Ge0_4 Nb0_4 2.627828 1_555
Ge0_4 Ge0_6 2.743640 1_545
Ge0_4 Ge0_6 2.743640 1_555
Ge0_5 Nb1_4 2.627828 1_555
Ge0_5 Nb0_5 2.627828 1_555
Ge0_5 Ge0_7 2.743640 1_545
Ge0_5 Ge0_7 2.743640 1_555
Ge0_6 Nb1_7 2.627828 1_554
Ge0_6 Nb0_6 2.627828 1_555
Ge0_7 Nb1_6 2.627828 1_555
Ge0_7 Nb0_7 2.627828 1_555
As0_0 Nb1_0 2.662177 1_555
As0_1 Nb1_1 2.662177 1_555
As0_2 Nb1_2 2.662177 1_555
As0_3 Nb1_3 2.662177 1_555
As0_4 Nb1_4 2.662177 1_555
As0_5 Nb1_5 2.662177 1_555
As0_6 Nb1_6 2.662177 1_555
As0_7 Nb1_7 2.662177 1_555
As1_0 Nb0_0 2.662177 1_555
As1_1 Nb0_1 2.662177 1_555
As1_2 Nb0_2 2.662177 1_555
As1_3 Nb0_3 2.662177 1_555
As1_4 Nb0_4 2.662177 1_555
As1_5 Nb0_5 2.662177 1_555
As1_6 Nb0_6 2.662177 1_555
As1_7 Nb0_7 2.662177 1_555
