# generated using pymatgen
data_MgTi2
_symmetry_space_group_name_H-M   'P 1'
_cell_length_a   5.14388691
_cell_length_b   5.14388691
_cell_length_c   4.89178700
_cell_angle_alpha   90.00000000
_cell_angle_beta   90.00000000
_cell_angle_gamma   120.00001169
_symmetry_Int_Tables_number   1
_chemical_formula_structural   MgTi2
_chemical_formula_sum   'Mg2 Ti4'
_cell_volume   112.09363241
_cell_formula_units_Z   2
loop_
 _symmetry_equiv_pos_site_id
 _symmetry_equiv_pos_as_xyz
  1  'x, y, z'
loop_
 _atom_site_type_symbol
 _atom_site_label
 _atom_site_symmetry_multiplicity
 _atom_site_fract_x
 _atom_site_fract_y
 _atom_site_fract_z
 _atom_site_occupancy
  Mg  Mg0  1  0.66666700  0.33333300  0.00000000  1
  Mg  Mg1  1  0.33333300  0.66666700  0.00000000  1
  Ti  Ti0  1  0.00000000  0.31612700  0.50000000  1
  Ti  Ti1  1  0.68387300  0.68387300  0.50000000  1
  Ti  Ti2  1  0.31612700  0.00000000  0.50000000  1
  Ti  Ti3  1  0.00000000  0.00000000  0.00000000  1
loop_
_geom_bond_atom_site_label_1
_geom_bond_atom_site_label_2
_geom_bond_distance
_geom_bond_site_symmetry_2
Mg0 Mg1 2.969821 1_655
Mg0 Mg1 2.969821 1_545
Mg0 Ti3 2.969822 1_655
Mg0 Ti3 2.969826 1_665
Mg0 Ti3 2.969826 1_555
Mg0 Mg1 2.969831 1_555
Mg0 Ti0 3.013624 1_655
Mg0 Ti0 3.013624 1_654
Mg0 Ti2 3.013625 1_554
Mg0 Ti2 3.013625 1_555
Mg0 Ti1 3.013627 1_554
Mg0 Ti1 3.013627 1_555
Mg1 Ti3 2.969822 1_565
Mg1 Ti3 2.969826 1_665
Mg1 Ti3 2.969826 1_555
Mg1 Ti2 3.013624 1_565
Mg1 Ti2 3.013624 1_564
Mg1 Ti0 3.013625 1_555
Mg1 Ti0 3.013625 1_554
Mg1 Ti1 3.013627 1_554
Mg1 Ti1 3.013627 1_555
Ti0 Ti1 2.816525 1_445
Ti0 Ti2 2.816525 1_555
Ti0 Ti3 2.937119 1_555
Ti0 Ti3 2.937119 1_556
Ti0 Ti1 3.049365 1_555
Ti0 Ti2 3.049365 1_455
Ti0 Ti2 3.049365 1_565
Ti0 Ti1 3.049366 1_455
Ti1 Ti2 2.816525 1_665
Ti1 Ti3 2.937119 1_665
Ti1 Ti3 2.937119 1_666
Ti1 Ti2 3.049365 1_555
Ti1 Ti2 3.049366 1_565
Ti2 Ti3 2.937119 1_555
Ti2 Ti3 2.937119 1_556
