# generated using pymatgen
data_W3(SeS2)2
_symmetry_space_group_name_H-M   'P 1'
_cell_length_a   3.22621209
_cell_length_b   3.22621074
_cell_length_c   29.16796423
_cell_angle_alpha   89.99996049
_cell_angle_beta   89.99998815
_cell_angle_gamma   119.99998491
_symmetry_Int_Tables_number   1
_chemical_formula_structural   W3(SeS2)2
_chemical_formula_sum   'W3 Se2 S4'
_cell_volume   262.91929747
_cell_formula_units_Z   1
loop_
 _symmetry_equiv_pos_site_id
 _symmetry_equiv_pos_as_xyz
  1  'x, y, z'
loop_
 _atom_site_type_symbol
 _atom_site_label
 _atom_site_symmetry_multiplicity
 _atom_site_fract_x
 _atom_site_fract_y
 _atom_site_fract_z
 _atom_site_occupancy
  W  W0  1  0.00000131  0.00000046  0.76882393  1
  W  W1  1  0.00000051  -0.00000009  0.23117924  1
  W  W2  1  0.33333165  0.66666682  -0.00000255  1
  Se  Se0  1  -0.00000245  -0.00000079  0.05821728  1
  Se  Se1  1  -0.00000172  0.00000148  0.94177752  1
  S  S0  1  0.33333404  0.66666743  0.71585602  1
  S  S1  1  0.33333405  0.66666668  0.17819467  1
  S  S2  1  0.33333402  0.66666691  0.82180884  1
  S  S3  1  0.33333360  0.66666610  0.28414606  1
loop_
_geom_bond_atom_site_label_1
_geom_bond_atom_site_label_2
_geom_bond_distance
_geom_bond_site_symmetry_2
Se0 W2 2.520557 1_445
Se0 W2 2.520557 1_545
Se0 W2 2.520558 1_555
Se1 W2 2.520557 1_556
Se1 W2 2.520558 1_446
Se1 W2 2.520561 1_546
S0 W0 2.419998 1_565
S0 W0 2.420000 1_555
S0 W0 2.420003 1_665
S1 W1 2.420309 1_555
S1 W1 2.420311 1_565
S1 W1 2.420311 1_665
S2 W0 2.420315 1_565
S2 W0 2.420317 1_555
S2 W0 2.420318 1_665
S3 W1 2.419980 1_555
S3 W1 2.419980 1_565
S3 W1 2.419980 1_665
