# generated using pymatgen
data_Mg14AlMo
_symmetry_space_group_name_H-M   'P 1'
_cell_length_a   6.25879562
_cell_length_b   6.25879513
_cell_length_c   9.97114521
_cell_angle_alpha   90.00000000
_cell_angle_beta   90.00000000
_cell_angle_gamma   120.00000258
_symmetry_Int_Tables_number   1
_chemical_formula_structural   Mg14AlMo
_chemical_formula_sum   'Mg14 Al1 Mo1'
_cell_volume   338.26508050
_cell_formula_units_Z   1
loop_
 _symmetry_equiv_pos_site_id
 _symmetry_equiv_pos_as_xyz
  1  'x, y, z'
loop_
 _atom_site_type_symbol
 _atom_site_label
 _atom_site_symmetry_multiplicity
 _atom_site_fract_x
 _atom_site_fract_y
 _atom_site_fract_z
 _atom_site_occupancy
  Mg  Mg0  1  0.16662241  0.83331070  0.12500000  1
  Mg  Mg1  1  0.16774604  0.83387252  0.62500000  1
  Mg  Mg2  1  0.66668930  0.33337759  0.12500000  1
  Mg  Mg3  1  0.66612748  0.33225396  0.62500000  1
  Mg  Mg4  1  0.66668930  0.83331070  0.12500000  1
  Mg  Mg5  1  0.66612748  0.83387252  0.62500000  1
  Mg  Mg6  1  0.32595859  0.17404141  0.37945819  1
  Mg  Mg7  1  0.32595859  0.17404141  0.87054181  1
  Mg  Mg8  1  0.32595859  0.65191818  0.37945819  1
  Mg  Mg9  1  0.32595859  0.65191818  0.87054181  1
  Mg  Mg10  1  0.84808182  0.17404141  0.37945819  1
  Mg  Mg11  1  0.84808182  0.17404141  0.87054181  1
  Mg  Mg12  1  0.83333300  0.66666700  0.37596316  1
  Mg  Mg13  1  0.83333300  0.66666700  0.87403684  1
  Al  Al0  1  0.16666700  0.33333300  0.12500000  1
  Mo  Mo0  1  0.16666700  0.33333300  0.62500000  1
loop_
_geom_bond_atom_site_label_1
_geom_bond_atom_site_label_2
_geom_bond_distance
_geom_bond_site_symmetry_2
Mg0 Mg13 3.086336 1_454
Mg0 Mg12 3.086336 1_455
Mg0 Mg2 3.128979 1_455
Mg0 Mg4 3.128979 1_455
Mg0 Mg2 3.129816 1_565
Mg0 Mg4 3.129816 1_555
Mg0 Mg8 3.138978 1_555
Mg0 Mg9 3.138978 1_554
Mg0 Mg7 3.138984 1_564
Mg0 Mg6 3.138984 1_565
Mg1 Mg8 3.065852 1_555
Mg1 Mg9 3.065852 1_555
Mg1 Mg6 3.065858 1_565
Mg1 Mg7 3.065858 1_565
Mg1 Mg13 3.074370 1_455
Mg1 Mg12 3.074370 1_455
Mg1 Mg3 3.119267 1_565
Mg1 Mg5 3.119268 1_555
Mg1 Mo0 3.129403 1_555
Mg1 Mo0 3.129403 1_565
Mg1 Mg3 3.139528 1_455
Mg1 Mg5 3.139528 1_455
Mg2 Mg4 3.128979 1_555
Mg2 Mg4 3.129816 1_545
Mg2 Mg7 3.138984 1_554
Mg2 Mg6 3.138984 1_555
Mg3 Mg6 3.065858 1_555
Mg3 Mg7 3.065858 1_555
Mg3 Mg5 3.119267 1_545
Mg3 Mo0 3.129403 1_655
Mg3 Mo0 3.129403 1_555
Mg3 Mg5 3.139528 1_555
Mg4 Mg8 3.138984 1_555
Mg4 Mg9 3.138984 1_554
Mg5 Mg8 3.065858 1_555
Mg5 Mg9 3.065858 1_555
Mg5 Mo0 3.129403 1_555
Mg5 Mo0 3.129403 1_665
Mg6 Mg8 2.990933 1_555
Mg6 Mo0 2.996031 1_555
Mg6 Mg8 3.267862 1_545
Mg7 Mg9 2.990933 1_555
Mg7 Mo0 2.996031 1_555
Mg7 Mg9 3.267862 1_545
Mg8 Mo0 2.996037 1_555
Mg9 Mo0 2.996037 1_555
Mg10 Mg8 2.990933 1_655
Mg10 Mg6 2.990933 1_655
Mg10 Mo0 2.996037 1_655
Mg10 Mg3 3.065852 1_555
Mg10 Mg5 3.065858 1_545
Mg10 Mg12 3.130612 1_545
Mg10 Mg12 3.130612 1_555
Mg10 Mg2 3.138978 1_555
Mg10 Mg4 3.138984 1_545
Mg10 Mg8 3.267862 1_545
Mg10 Mg6 3.267863 1_555
Mg11 Mg9 2.990933 1_655
Mg11 Mg7 2.990933 1_655
Mg11 Mo0 2.996037 1_655
Mg11 Mg3 3.065852 1_555
Mg11 Mg5 3.065858 1_545
Mg11 Mg13 3.130612 1_545
Mg11 Mg13 3.130612 1_555
Mg11 Mg2 3.138978 1_556
Mg11 Mg4 3.138984 1_546
Mg11 Mg9 3.267862 1_545
Mg11 Mg7 3.267863 1_555
Mg12 Mg5 3.074364 1_555
Mg12 Mg3 3.074370 1_555
Mg12 Mg4 3.086330 1_555
Mg12 Mg2 3.086336 1_555
Mg12 Mg6 3.130612 1_665
Mg12 Mg6 3.130612 1_555
Mg12 Mg8 3.130613 1_555
Mg12 Mg8 3.130613 1_655
Mg13 Mg5 3.074364 1_555
Mg13 Mg3 3.074370 1_555
Mg13 Mg4 3.086330 1_556
Mg13 Mg2 3.086336 1_556
Mg13 Mg7 3.130612 1_665
Mg13 Mg7 3.130612 1_555
Mg13 Mg9 3.130613 1_555
Mg13 Mg9 3.130613 1_655
Al0 Mg7 3.069113 1_554
Al0 Mg6 3.069113 1_555
Al0 Mg8 3.069119 1_555
Al0 Mg9 3.069119 1_554
Al0 Mg11 3.069119 1_454
Al0 Mg10 3.069119 1_455
Al0 Mg0 3.129398 1_555
Al0 Mg4 3.129398 1_445
Al0 Mg4 3.129398 1_555
Al0 Mg0 3.129398 1_545
Al0 Mg2 3.129398 1_455
Al0 Mg2 3.129398 1_555
