# generated using pymatgen
data_Sr2La2MnZnO8
_symmetry_space_group_name_H-M   'P 1'
_cell_length_a   3.89631904
_cell_length_b   3.89633604
_cell_length_c   50.51100900
_cell_angle_alpha   89.99973946
_cell_angle_beta   89.99973492
_cell_angle_gamma   89.98267742
_symmetry_Int_Tables_number   1
_chemical_formula_structural   Sr2La2MnZnO8
_chemical_formula_sum   'Sr8 La8 Mn4 Zn4 O32'
_cell_volume   766.82619750
_cell_formula_units_Z   4
loop_
 _symmetry_equiv_pos_site_id
 _symmetry_equiv_pos_as_xyz
  1  'x, y, z'
loop_
 _atom_site_type_symbol
 _atom_site_label
 _atom_site_symmetry_multiplicity
 _atom_site_fract_x
 _atom_site_fract_y
 _atom_site_fract_z
 _atom_site_occupancy
  Sr  Sr0  1  0.99998900  0.00000200  0.15921900  1
  Sr  Sr1  1  0.00000100  0.00000000  0.40916000  1
  Sr  Sr2  1  0.00000100  0.99999900  0.65923500  1
  Sr  Sr3  1  0.00000100  0.00000000  0.90926100  1
  Sr  Sr4  1  0.99999200  0.99999600  0.09081500  1
  Sr  Sr5  1  0.00000600  0.99999600  0.34077600  1
  Sr  Sr6  1  0.00000600  0.99999900  0.59076600  1
  Sr  Sr7  1  0.99999900  0.99999900  0.84077400  1
  La  La0  1  0.50001200  0.49999300  0.03635400  1
  La  La1  1  0.50000600  0.50000700  0.28633000  1
  La  La2  1  0.50000700  0.49999100  0.53626900  1
  La  La3  1  0.49999900  0.50000400  0.78628300  1
  La  La4  1  0.49999300  0.50001100  0.21367600  1
  La  La5  1  0.49999300  0.50000600  0.46360600  1
  La  La6  1  0.49998500  0.50001000  0.71370300  1
  La  La7  1  0.50000100  0.50000600  0.96376800  1
  Mn  Mn0  1  0.50000900  0.50000300  0.62499600  1
  Mn  Mn1  1  0.49999400  0.50000400  0.87500000  1
  Mn  Mn2  1  0.49996800  0.49998300  0.12501600  1
  Mn  Mn3  1  0.50000700  0.50000000  0.37497800  1
  Zn  Zn0  1  0.00000500  0.00000400  0.00004000  1
  Zn  Zn1  1  0.00000300  0.00000300  0.25000200  1
  Zn  Zn2  1  0.00000400  0.00000100  0.49995500  1
  Zn  Zn3  1  0.00000200  0.00000200  0.75000000  1
  O  O0  1  0.49999300  0.50000000  0.08403600  1
  O  O1  1  0.50000800  0.50000000  0.33399300  1
  O  O2  1  0.50000400  0.50000000  0.58397800  1
  O  O3  1  0.50000100  0.50000200  0.83398200  1
  O  O4  1  0.49999100  0.50000200  0.16599900  1
  O  O5  1  0.50000200  0.49999900  0.41594400  1
  O  O6  1  0.50000400  0.50000200  0.66602900  1
  O  O7  1  0.49999900  0.50000100  0.91604300  1
  O  O8  1  0.00000800  0.00000700  0.20646400  1
  O  O9  1  0.00000400  0.00000200  0.45639200  1
  O  O10  1  0.00000100  0.00000200  0.70650100  1
  O  O11  1  0.00001000  0.00000000  0.95655100  1
  O  O12  1  0.99999700  0.00000300  0.04356500  1
  O  O13  1  0.00000700  0.99999500  0.29353200  1
  O  O14  1  0.00000600  0.00000000  0.54349600  1
  O  O15  1  0.00000400  0.00000200  0.79350300  1
  O  O16  1  0.50000300  0.99991100  0.12502700  1
  O  O17  1  0.50000400  0.00000600  0.37496900  1
  O  O18  1  0.50000200  0.00000400  0.62500100  1
  O  O19  1  0.50000400  0.00000300  0.87500400  1
  O  O20  1  0.99992700  0.50002000  0.12502700  1
  O  O21  1  0.00001100  0.50000000  0.37496800  1
  O  O22  1  0.00000900  0.50000200  0.62500100  1
  O  O23  1  0.99998800  0.50000400  0.87500500  1
  O  O24  1  0.00000300  0.50000100  0.00006300  1
  O  O25  1  0.00000300  0.50000100  0.24999800  1
  O  O26  1  0.00000800  0.50000200  0.49993900  1
  O  O27  1  0.00000400  0.50000400  0.75000300  1
  O  O28  1  0.50000300  0.99999900  0.00006400  1
  O  O29  1  0.50000600  0.00000200  0.24999800  1
  O  O30  1  0.50000200  0.00000200  0.49993900  1
  O  O31  1  0.50000000  0.00000000  0.75000300  1
loop_
_geom_bond_atom_site_label_1
_geom_bond_atom_site_label_2
_geom_bond_distance
_geom_bond_site_symmetry_2
La0 O0 2.408466 1_555
La0 O28 2.674949 1_545
La0 O24 2.674957 1_655
La0 O28 2.674971 1_555
La0 O24 2.675020 1_555
La0 O12 2.778611 1_555
La0 O12 2.778747 1_465
La0 O12 2.779493 1_565
La0 O12 2.779516 1_455
La1 O1 2.407506 1_555
La1 O25 2.676393 1_655
La1 O29 2.676394 1_565
La1 O25 2.676423 1_555
La1 O29 2.676434 1_555
La1 O13 2.778584 1_555
La1 O13 2.778655 1_645
La1 O13 2.779417 1_655
La1 O13 2.779473 1_545
La2 O2 2.409830 1_555
La2 O30 2.676320 1_555
La2 O26 2.676335 1_655
La2 O26 2.676342 1_555
La2 O30 2.676370 1_565
La2 O14 2.778758 1_655
La2 O14 2.778812 1_565
La2 O14 2.779586 1_555
La2 O14 2.779635 1_665
La3 O3 2.409325 1_555
La3 O31 2.674596 1_565
La3 O27 2.674600 1_555
La3 O27 2.674616 1_655
La3 O31 2.674631 1_555
La3 O15 2.778719 1_565
La3 O15 2.778758 1_655
La3 O15 2.779554 1_555
La3 O15 2.779575 1_665
La4 O4 2.408213 1_555
La4 O25 2.676027 1_555
La4 O29 2.676048 1_565
La4 O29 2.676087 1_555
La4 O25 2.676096 1_655
La4 O8 2.778634 1_565
La4 O8 2.778737 1_655
La4 O8 2.779484 1_555
La4 O8 2.779539 1_665
La5 O5 2.407456 1_555
La5 O26 2.676394 1_555
La5 O30 2.676444 1_565
La5 O30 2.676454 1_555
La5 O26 2.676491 1_655
La5 O9 2.778658 1_565
La5 O9 2.778740 1_655
La5 O9 2.779508 1_555
La5 O9 2.779541 1_665
La6 O6 2.408062 1_555
La6 O27 2.675240 1_555
La6 O31 2.675284 1_565
La6 O31 2.675328 1_555
La6 O27 2.675360 1_655
La6 O10 2.778554 1_565
La6 O10 2.778685 1_655
La6 O10 2.779426 1_555
La6 O10 2.779465 1_665
La7 O7 2.410638 1_555
La7 O24 2.675115 1_556
La7 O24 2.675139 1_656
La7 O28 2.675154 1_556
La7 O28 2.675181 1_546
La7 O11 2.778678 1_565
La7 O11 2.778760 1_655
La7 O11 2.779539 1_555
La7 O11 2.779550 1_665
Mn0 O22 1.948160 1_655
Mn0 O22 1.948160 1_555
Mn0 O18 1.948164 1_555
Mn0 O18 1.948172 1_565
Mn0 O2 2.071861 1_555
Mn0 O6 2.072618 1_555
Mn1 O23 1.948136 1_555
Mn1 O19 1.948164 1_565
Mn1 O19 1.948172 1_555
Mn1 O23 1.948183 1_455
Mn1 O3 2.071861 1_555
Mn1 O7 2.073123 1_555
Mn2 O16 1.947888 1_555
Mn2 O20 1.948000 1_555
Mn2 O20 1.948319 1_455
Mn2 O16 1.948449 1_545
Mn2 O0 2.069941 1_555
Mn2 O4 2.070093 1_555
Mn3 O21 1.948144 1_555
Mn3 O17 1.948145 1_555
Mn3 O21 1.948175 1_655
Mn3 O17 1.948191 1_565
Mn3 O5 2.069234 1_555
Mn3 O1 2.070194 1_555
O0 Sr4 2.775895 1_455
O0 Sr4 2.775911 1_545
O0 Sr4 2.776718 1_555
O0 Sr4 2.776741 1_445
O1 Sr5 2.775922 1_555
O1 Sr5 2.775933 1_645
O1 Sr5 2.776740 1_655
O1 Sr5 2.776769 1_545
O2 Sr6 2.775951 1_555
O2 Sr6 2.775967 1_645
O2 Sr6 2.776781 1_545
O2 Sr6 2.776791 1_655
O3 Sr7 2.775981 1_455
O3 Sr7 2.775987 1_545
O3 Sr7 2.776799 1_555
O3 Sr7 2.776822 1_445
O4 Sr0 2.775904 1_555
O4 Sr0 2.775915 1_465
O4 Sr0 2.776728 1_565
O4 Sr0 2.776743 1_455
O5 Sr1 2.775929 1_655
O5 Sr1 2.775940 1_565
O5 Sr1 2.776758 1_665
O5 Sr1 2.776763 1_555
O6 Sr2 2.775996 1_645
O6 Sr2 2.775996 1_555
O6 Sr2 2.776804 1_655
O6 Sr2 2.776842 1_545
O7 Sr3 2.775913 1_565
O7 Sr3 2.775930 1_655
O7 Sr3 2.776748 1_555
O7 Sr3 2.776749 1_665
O8 Zn1 2.199148 1_555
O8 Sr0 2.386393 1_455
O9 Zn2 2.200411 1_555
O9 Sr1 2.385736 1_555
O10 Zn3 2.197178 1_555
O10 Sr2 2.387453 1_545
O11 Zn0 2.196673 1_556
O11 Sr3 2.388666 1_555
O12 Zn0 2.198492 1_655
O12 Sr4 2.386645 1_545
O13 Zn1 2.198744 1_565
O13 Sr5 2.386342 1_555
O14 Zn2 2.199300 1_555
O14 Sr6 2.387655 1_545
O15 Zn3 2.197380 1_555
O15 Sr7 2.387706 1_445
O16 Sr0 2.603445 1_565
O16 Sr0 2.603514 1_465
O16 Sr4 2.604112 1_555
O16 Sr4 2.604188 1_455
O17 Sr1 2.603443 1_655
O17 Sr1 2.603449 1_555
O17 Sr5 2.603513 1_645
O17 Sr5 2.603513 1_545
O18 Sr2 2.604884 1_545
O18 Sr2 2.604890 1_645
O18 Sr6 2.604915 1_545
O18 Sr6 2.604926 1_645
O19 Sr7 2.604732 1_545
O19 Sr7 2.604774 1_445
O19 Sr3 2.605656 1_655
O19 Sr3 2.605661 1_555
O20 Sr0 2.603439 1_565
O20 Sr0 2.603532 1_555
O20 Sr4 2.604080 1_555
O20 Sr4 2.604232 1_545
O21 Sr5 2.603468 1_555
O21 Sr1 2.603480 1_555
O21 Sr1 2.603492 1_565
O21 Sr5 2.603503 1_545
O22 Sr2 2.604891 1_555
O22 Sr2 2.604896 1_545
O22 Sr6 2.604912 1_555
O22 Sr6 2.604942 1_545
O23 Sr7 2.604772 1_555
O23 Sr7 2.604813 1_545
O23 Sr3 2.605626 1_665
O23 Sr3 2.605637 1_655
O24 Zn0 1.948157 1_555
O24 Zn0 1.948180 1_565
O25 Zn1 1.948160 1_555
O25 Zn1 1.948176 1_565
O26 Zn2 1.948164 1_565
O26 Zn2 1.948172 1_555
O27 Zn3 1.948160 1_565
O27 Zn3 1.948176 1_555
O28 Zn0 1.948152 1_565
O28 Zn0 1.948168 1_665
O29 Zn1 1.948148 1_655
O29 Zn1 1.948171 1_555
O30 Zn2 1.948152 1_555
O30 Zn2 1.948167 1_655
O31 Zn3 1.948152 1_555
O31 Zn3 1.948167 1_655
