# generated using pymatgen
data_RbNb4Br11
_symmetry_space_group_name_H-M   'P 1'
_cell_length_a   7.16036203
_cell_length_b   7.34607050
_cell_length_c   17.04019673
_cell_angle_alpha   90.00000000
_cell_angle_beta   90.00000000
_cell_angle_gamma   90.00000000
_symmetry_Int_Tables_number   1
_chemical_formula_structural   RbNb4Br11
_chemical_formula_sum   'Rb2 Nb8 Br22'
_cell_volume   896.32328180
_cell_formula_units_Z   2
loop_
 _symmetry_equiv_pos_site_id
 _symmetry_equiv_pos_as_xyz
  1  'x, y, z'
loop_
 _atom_site_type_symbol
 _atom_site_label
 _atom_site_symmetry_multiplicity
 _atom_site_fract_x
 _atom_site_fract_y
 _atom_site_fract_z
 _atom_site_occupancy
  Rb  Rb0  1  0.00628830  0.50000000  0.75000000  1
  Rb  Rb1  1  0.99371170  0.50000000  0.25000000  1
  Nb  Nb0  1  0.38193694  -0.00000000  0.63859654  1
  Nb  Nb1  1  0.61806306  0.00000000  0.36140346  1
  Nb  Nb2  1  0.38193694  -0.00000000  0.86140346  1
  Nb  Nb3  1  0.61806306  -0.00000000  0.13859654  1
  Nb  Nb4  1  0.50000000  0.20678224  0.50000000  1
  Nb  Nb5  1  0.50000000  0.20678224  -0.00000000  1
  Nb  Nb6  1  0.50000000  0.79321776  0.50000000  1
  Nb  Nb7  1  0.50000000  0.79321776  -0.00000000  1
  Br  Br0  1  0.72035695  0.00000000  0.58680688  1
  Br  Br1  1  0.27964305  0.00000000  0.41319312  1
  Br  Br2  1  0.72035695  0.00000000  0.91319312  1
  Br  Br3  1  0.27964305  -0.00000000  0.08680688  1
  Br  Br4  1  0.18250153  0.74537633  0.57861601  1
  Br  Br5  1  0.81749847  0.74537633  0.42138399  1
  Br  Br6  1  0.18250153  0.74537633  0.92138399  1
  Br  Br7  1  0.81749847  0.74537633  0.07861601  1
  Br  Br8  1  0.81749847  0.25462367  0.42138399  1
  Br  Br9  1  0.18250153  0.25462367  0.57861601  1
  Br  Br10  1  0.81749847  0.25462367  0.07861601  1
  Br  Br11  1  0.18250153  0.25462367  0.92138399  1
  Br  Br12  1  0.36285280  0.50000000  0.41535162  1
  Br  Br13  1  0.63714720  0.50000000  0.58464838  1
  Br  Br14  1  0.36285280  0.50000000  0.08464838  1
  Br  Br15  1  0.63714720  0.50000000  0.91535162  1
  Br  Br16  1  0.09138181  -0.00000000  0.75000000  1
  Br  Br17  1  0.90861819  -0.00000000  0.25000000  1
  Br  Br18  1  0.51539709  0.23633849  0.75000000  1
  Br  Br19  1  0.48460291  0.23633849  0.25000000  1
  Br  Br20  1  0.48460291  0.76366151  0.25000000  1
  Br  Br21  1  0.51539709  0.76366151  0.75000000  1
loop_
_geom_bond_atom_site_label_1
_geom_bond_atom_site_label_2
_geom_bond_distance
_geom_bond_site_symmetry_2
Br0 Nb0 2.578907 1_555
Br0 Nb4 2.642932 1_555
Br0 Nb6 2.642932 1_545
Br1 Nb1 2.578907 1_555
Br1 Nb6 2.642932 1_545
Br1 Nb4 2.642932 1_555
Br2 Nb2 2.578907 1_555
Br2 Nb5 2.642932 1_556
Br2 Nb7 2.642932 1_546
Br3 Nb3 2.578907 1_555
Br3 Nb5 2.642932 1_555
Br3 Nb7 2.642932 1_545
Br4 Nb0 2.565663 1_565
Br4 Nb6 2.662047 1_555
Br4 Rb0 3.656507 1_555
Br5 Nb1 2.565663 1_565
Br5 Nb6 2.662047 1_555
Br5 Rb1 3.656507 1_555
Br6 Nb2 2.565663 1_565
Br6 Nb7 2.662047 1_556
Br6 Rb0 3.656507 1_555
Br7 Nb3 2.565663 1_565
Br7 Nb7 2.662047 1_555
Br7 Rb1 3.656507 1_555
Br8 Nb1 2.565663 1_555
Br8 Nb4 2.662047 1_555
Br8 Rb1 3.656507 1_555
Br9 Nb0 2.565663 1_555
Br9 Nb4 2.662047 1_555
Br9 Rb0 3.656507 1_555
Br10 Nb3 2.565663 1_555
Br10 Nb5 2.662047 1_555
Br10 Rb1 3.656507 1_555
Br11 Nb2 2.565663 1_555
Br11 Nb5 2.662047 1_556
Br11 Rb0 3.656507 1_555
Br12 Nb6 2.772124 1_555
Br12 Nb4 2.772124 1_555
Br12 Rb1 3.863344 1_455
Br13 Nb6 2.772124 1_555
Br13 Nb4 2.772124 1_555
Br13 Rb0 3.863344 1_655
Br14 Nb7 2.772124 1_555
Br14 Nb5 2.772124 1_555
Br14 Rb1 3.863344 1_455
Br15 Nb5 2.772124 1_556
Br15 Nb7 2.772124 1_556
Br15 Rb0 3.863344 1_655
Br16 Nb2 2.816395 1_555
Br16 Nb0 2.816395 1_555
Br16 Rb0 3.723229 1_545
Br16 Rb0 3.723229 1_555
Br17 Nb3 2.816395 1_555
Br17 Nb1 2.816395 1_555
Br17 Rb1 3.723229 1_555
Br17 Rb1 3.723229 1_545
Br18 Nb0 2.744294 1_555
Br18 Nb2 2.744294 1_555
Br18 Rb0 4.013281 1_655
Br18 Rb0 4.128008 1_555
Br19 Nb1 2.744294 1_555
Br19 Nb3 2.744294 1_555
Br19 Rb1 4.013281 1_455
Br19 Rb1 4.128008 1_555
Br20 Nb1 2.744294 1_565
Br20 Nb3 2.744294 1_565
Br20 Rb1 4.013281 1_455
Br20 Rb1 4.128008 1_555
Br21 Nb2 2.744294 1_565
Br21 Nb0 2.744294 1_565
Br21 Rb0 4.013281 1_655
Br21 Rb0 4.128008 1_555
