# generated using pymatgen
data_LiMn3O4
_symmetry_space_group_name_H-M   'P 1'
_cell_length_a   3.16602943
_cell_length_b   6.28579757
_cell_length_c   8.65174190
_cell_angle_alpha   89.99999328
_cell_angle_beta   89.99997720
_cell_angle_gamma   91.42309089
_symmetry_Int_Tables_number   1
_chemical_formula_structural   LiMn3O4
_chemical_formula_sum   'Li2 Mn6 O8'
_cell_volume   172.12538341
_cell_formula_units_Z   2
loop_
 _symmetry_equiv_pos_site_id
 _symmetry_equiv_pos_as_xyz
  1  'x, y, z'
loop_
 _atom_site_type_symbol
 _atom_site_label
 _atom_site_symmetry_multiplicity
 _atom_site_fract_x
 _atom_site_fract_y
 _atom_site_fract_z
 _atom_site_occupancy
  Li  Li0  1  0.49999900  0.74999800  0.74661100  1
  Li  Li1  1  0.50000000  0.24999900  0.24668400  1
  Mn  Mn0  1  0.49996300  0.24998300  0.75247700  1
  Mn  Mn1  1  0.00183600  0.49949300  0.49836100  1
  Mn  Mn2  1  0.99816300  0.00054000  0.49835900  1
  Mn  Mn3  1  0.50001500  0.75001500  0.25251100  1
  Mn  Mn4  1  0.00185100  0.99910200  0.99834800  1
  Mn  Mn5  1  0.99817500  0.50087200  0.99832800  1
  O  O0  1  0.07542300  0.51272600  0.24971100  1
  O  O1  1  0.07513800  0.01261200  0.74970900  1
  O  O2  1  0.92486000  0.48738900  0.74970900  1
  O  O3  1  0.92457900  0.98727500  0.24971000  1
  O  O4  1  0.50000100  0.74999900  0.02086900  1
  O  O5  1  0.50000000  0.24999900  0.52084700  1
  O  O6  1  0.49999800  0.24999900  0.98384600  1
  O  O7  1  0.50000000  0.74999700  0.48392100  1
loop_
_geom_bond_atom_site_label_1
_geom_bond_atom_site_label_2
_geom_bond_distance
_geom_bond_site_symmetry_2
Li0 O2 2.155271 1_555
Li0 O1 2.155296 1_565
Li0 O7 2.272726 1_555
Li0 O4 2.372809 1_556
Li0 O2 2.427335 1_455
Li0 O1 2.427356 1_665
Li1 O3 2.155255 1_545
Li1 O0 2.155265 1_555
Li1 O6 2.274007 1_554
Li1 O5 2.371988 1_555
Li1 O3 2.428461 1_445
Li1 O0 2.428479 1_655
Mn0 O1 1.983986 1_555
Mn0 O2 1.984298 1_555
Mn0 O6 2.001745 1_555
Mn0 O5 2.004003 1_555
Mn0 O2 2.382801 1_455
Mn0 O1 2.382837 1_655
Mn1 O0 2.165210 1_555
Mn1 O2 2.189324 1_455
Mn1 O7 2.204368 1_555
Mn1 O5 2.213125 1_455
Mn1 O5 2.260030 1_555
Mn1 O7 2.267965 1_455
Mn2 O3 2.165208 1_545
Mn2 O1 2.189334 1_655
Mn2 O7 2.204536 1_545
Mn2 O5 2.212977 1_655
Mn2 O5 2.259873 1_555
Mn2 O7 2.268141 1_645
Mn3 O3 1.982932 1_555
Mn3 O0 1.983125 1_555
Mn3 O7 2.002100 1_555
Mn3 O4 2.004107 1_555
Mn3 O3 2.383034 1_455
Mn3 O0 2.383082 1_655
Mn4 O1 2.165078 1_565
Mn4 O3 2.189493 1_456
Mn4 O6 2.206082 1_565
Mn4 O4 2.211486 1_456
Mn4 O4 2.258277 1_556
Mn4 O6 2.269792 1_465
Mn5 O2 2.164909 1_555
Mn5 O0 2.189670 1_656
Mn5 O6 2.206034 1_555
Mn5 O4 2.211552 1_656
Mn5 O4 2.258454 1_556
Mn5 O6 2.269607 1_655
