# generated using pymatgen
data_SrMg6Nb
_symmetry_space_group_name_H-M   'P 1'
_cell_length_a   6.48078000
_cell_length_b   6.48078000
_cell_length_c   4.59724100
_cell_angle_alpha   90.00000000
_cell_angle_beta   90.00000000
_cell_angle_gamma   90.00000000
_symmetry_Int_Tables_number   1
_chemical_formula_structural   SrMg6Nb
_chemical_formula_sum   'Sr1 Mg6 Nb1'
_cell_volume   193.08646387
_cell_formula_units_Z   1
loop_
 _symmetry_equiv_pos_site_id
 _symmetry_equiv_pos_as_xyz
  1  'x, y, z'
loop_
 _atom_site_type_symbol
 _atom_site_label
 _atom_site_symmetry_multiplicity
 _atom_site_fract_x
 _atom_site_fract_y
 _atom_site_fract_z
 _atom_site_occupancy
  Sr  Sr0  1  0.00000000  0.00000000  0.50000000  1
  Mg  Mg0  1  0.00000000  0.50000000  0.50000000  1
  Mg  Mg1  1  0.50000000  0.00000000  0.50000000  1
  Mg  Mg2  1  0.72237900  0.27762100  0.00000000  1
  Mg  Mg3  1  0.27762100  0.72237900  0.00000000  1
  Mg  Mg4  1  0.72237900  0.72237900  0.00000000  1
  Mg  Mg5  1  0.27762100  0.27762100  0.00000000  1
  Nb  Nb0  1  0.50000000  0.50000000  0.50000000  1
loop_
_geom_bond_atom_site_label_1
_geom_bond_atom_site_label_2
_geom_bond_distance
_geom_bond_site_symmetry_2
Mg0 Sr0 3.240390 1_565
Mg0 Nb0 3.240390 1_455
Mg0 Nb0 3.240390 1_555
Mg0 Sr0 3.240390 1_555
Mg0 Mg2 3.255427 1_455
Mg0 Mg5 3.255427 1_555
Mg0 Mg3 3.255427 1_556
Mg0 Mg4 3.255427 1_456
Mg0 Mg4 3.255427 1_455
Mg0 Mg3 3.255427 1_555
Mg0 Mg2 3.255427 1_456
Mg0 Mg5 3.255427 1_556
Mg1 Nb0 3.240390 1_545
Mg1 Sr0 3.240390 1_655
Mg1 Sr0 3.240390 1_555
Mg1 Nb0 3.240390 1_555
Mg1 Mg2 3.255427 1_555
Mg1 Mg5 3.255427 1_555
Mg1 Mg5 3.255427 1_556
Mg1 Mg4 3.255427 1_546
Mg1 Mg3 3.255427 1_545
Mg1 Mg3 3.255427 1_546
Mg1 Mg4 3.255427 1_545
Mg1 Mg2 3.255427 1_556
Mg2 Mg5 2.882379 1_555
Mg2 Mg4 2.882379 1_555
Mg2 Nb0 3.072086 1_555
Mg2 Nb0 3.072086 1_554
Mg2 Sr0 3.428980 1_655
Mg2 Sr0 3.428980 1_654
Mg3 Mg5 2.882379 1_555
Mg3 Mg4 2.882379 1_555
Mg3 Nb0 3.072086 1_555
Mg3 Nb0 3.072086 1_554
Mg3 Sr0 3.428980 1_565
Mg3 Sr0 3.428980 1_564
Mg4 Nb0 3.072086 1_555
Mg4 Nb0 3.072086 1_554
Mg4 Sr0 3.428980 1_664
Mg4 Sr0 3.428980 1_665
Mg5 Nb0 3.072086 1_555
Mg5 Nb0 3.072086 1_554
Mg5 Sr0 3.428980 1_555
Mg5 Sr0 3.428980 1_554
