# generated using pymatgen
data_UBi4(AsO8)2
_symmetry_space_group_name_H-M   'P 1'
_cell_length_a   5.59800800
_cell_length_b   6.70489246
_cell_length_c   10.97736794
_cell_angle_alpha   75.49366977
_cell_angle_beta   78.84472802
_cell_angle_gamma   71.96657858
_symmetry_Int_Tables_number   1
_chemical_formula_structural   UBi4(AsO8)2
_chemical_formula_sum   'U1 Bi4 As2 O16'
_cell_volume   376.27517025
_cell_formula_units_Z   1
loop_
 _symmetry_equiv_pos_site_id
 _symmetry_equiv_pos_as_xyz
  1  'x, y, z'
loop_
 _atom_site_type_symbol
 _atom_site_label
 _atom_site_symmetry_multiplicity
 _atom_site_fract_x
 _atom_site_fract_y
 _atom_site_fract_z
 _atom_site_occupancy
  U  U0  1  0.00000000  0.00000000  0.00000000  1
  Bi  Bi0  1  0.41314500  0.77119000  0.54203900  1
  Bi  Bi1  1  0.58685500  0.22881000  0.45796100  1
  Bi  Bi2  1  0.99730600  0.59453900  0.32414900  1
  Bi  Bi3  1  0.00269400  0.40546100  0.67585100  1
  As  As0  1  0.37173100  0.06954100  0.22600900  1
  As  As1  1  0.62826900  0.93045900  0.77399100  1
  O  O0  1  0.16046500  0.73064800  0.08561700  1
  O  O1  1  0.83953500  0.26935200  0.91438300  1
  O  O2  1  0.72393400  0.90411300  0.43401500  1
  O  O3  1  0.27606600  0.09588700  0.56598500  1
  O  O4  1  0.25900500  0.50031100  0.48240800  1
  O  O5  1  0.74099500  0.49968900  0.51759200  1
  O  O6  1  0.28435800  0.86978000  0.34586500  1
  O  O7  1  0.71564200  0.13022000  0.65413500  1
  O  O8  1  0.35586500  0.28800600  0.28791000  1
  O  O9  1  0.64413500  0.71199400  0.71209000  1
  O  O10  1  0.17343900  0.14315200  0.11327100  1
  O  O11  1  0.82656100  0.85684800  0.88672900  1
  O  O12  1  0.67736100  0.96701900  0.16033900  1
  O  O13  1  0.32263900  0.03298100  0.83966100  1
  O  O14  1  0.17920600  0.65064700  0.69119400  1
  O  O15  1  0.82079400  0.34935300  0.30880600  1
loop_
_geom_bond_atom_site_label_1
_geom_bond_atom_site_label_2
_geom_bond_distance
_geom_bond_site_symmetry_2
Bi0 O14 2.052268 1_555
Bi0 O3 2.138184 1_565
Bi0 O5 2.177107 1_555
Bi0 O2 2.204463 1_555
Bi0 O6 2.277435 1_555
Bi0 O9 2.357811 1_555
Bi0 O4 2.501227 1_555
Bi1 O15 2.052268 1_555
Bi1 O2 2.138184 1_545
Bi1 O4 2.177107 1_555
Bi1 O3 2.204463 1_555
Bi1 O7 2.277435 1_555
Bi1 O8 2.357811 1_555
Bi1 O5 2.501227 1_555
Bi2 O15 2.217238 1_555
Bi2 O4 2.329233 1_655
Bi2 O5 2.383673 1_555
Bi2 O8 2.440849 1_655
Bi2 O2 2.584202 1_555
Bi2 O0 2.630004 1_655
Bi3 O14 2.217238 1_555
Bi3 O5 2.329233 1_455
Bi3 O4 2.383673 1_555
Bi3 O9 2.440849 1_455
Bi3 O3 2.584202 1_555
Bi3 O1 2.630004 1_455
As0 O10 1.701089 1_555
As0 O12 1.721128 1_545
As0 O8 1.734921 1_555
As0 O6 1.742989 1_545
As1 O11 1.701089 1_555
As1 O13 1.721128 1_565
As1 O9 1.734921 1_555
As1 O7 1.742989 1_565
O0 U0 1.850325 1_565
O1 U0 1.850325 1_656
O10 U0 2.247668 1_555
O11 U0 2.247668 1_666
O12 U0 2.287184 1_665
O13 U0 2.287184 1_556
