# generated using pymatgen
data_K5BaTaP4
_symmetry_space_group_name_H-M   'P 1'
_cell_length_a   10.27040945
_cell_length_b   10.27040945
_cell_length_c   7.99663348
_cell_angle_alpha   89.31073233
_cell_angle_beta   89.31073233
_cell_angle_gamma   120.51751124
_symmetry_Int_Tables_number   1
_chemical_formula_structural   K5BaTaP4
_chemical_formula_sum   'K10 Ba2 Ta2 P8'
_cell_volume   726.43566056
_cell_formula_units_Z   2
loop_
 _symmetry_equiv_pos_site_id
 _symmetry_equiv_pos_as_xyz
  1  'x, y, z'
loop_
 _atom_site_type_symbol
 _atom_site_label
 _atom_site_symmetry_multiplicity
 _atom_site_fract_x
 _atom_site_fract_y
 _atom_site_fract_z
 _atom_site_occupancy
  K  K0  1  0.46436600  0.52530700  0.50073800  1
  K  K1  1  0.06081600  0.52616700  0.50095200  1
  K  K2  1  0.52530700  0.46436600  0.00073800  1
  K  K3  1  0.52616700  0.06081600  0.00095200  1
  K  K4  1  0.86566300  0.14615100  0.67652200  1
  K  K5  1  0.28891900  0.15402200  0.69563500  1
  K  K6  1  0.85300000  0.71257400  0.66725800  1
  K  K7  1  0.14615100  0.86566300  0.17652200  1
  K  K8  1  0.71257400  0.85300000  0.16725800  1
  K  K9  1  0.15402200  0.28891900  0.19563500  1
  Ba  Ba0  1  0.46451400  0.93283200  0.49561500  1
  Ba  Ba1  1  0.93283200  0.46451400  0.99561500  1
  Ta  Ta0  1  0.66952400  0.33447600  0.39505000  1
  Ta  Ta1  1  0.33447600  0.66952400  0.89505000  1
  P  P0  1  0.67705300  0.33322300  0.69596200  1
  P  P1  1  0.33322300  0.67705300  0.19596200  1
  P  P2  1  0.79388700  0.20308200  0.29229400  1
  P  P3  1  0.40661500  0.19600500  0.31171700  1
  P  P4  1  0.80104600  0.59075700  0.28254600  1
  P  P5  1  0.20308200  0.79388700  0.79229400  1
  P  P6  1  0.59075700  0.80104600  0.78254600  1
  P  P7  1  0.19600500  0.40661500  0.81171700  1
loop_
_geom_bond_atom_site_label_1
_geom_bond_atom_site_label_2
_geom_bond_distance
_geom_bond_site_symmetry_2
K0 P6 3.357642 1_555
K0 P7 3.408303 1_555
K0 P3 3.490297 1_555
K0 P1 3.507470 1_555
K0 P4 3.594281 1_555
K1 P5 3.358385 1_555
K1 P7 3.369271 1_555
K1 P1 3.393916 1_555
K1 P2 3.509251 1_455
K1 P4 3.534113 1_455
K2 P4 3.357642 1_555
K2 P3 3.408303 1_555
K2 P7 3.490297 1_554
K2 P0 3.507470 1_554
K2 P6 3.594281 1_554
K3 P2 3.358385 1_555
K3 P3 3.369271 1_555
K3 P0 3.393916 1_554
K3 P5 3.509251 1_544
K3 P6 3.534113 1_544
K4 P2 3.282493 1_555
K4 P7 3.282667 1_655
K4 P6 3.310552 1_545
K4 P0 3.353763 1_555
K5 P3 3.228285 1_555
K5 P7 3.324633 1_555
K5 P5 3.414451 1_545
K5 P0 3.439058 1_555
K6 P4 3.281515 1_555
K6 P0 3.363905 1_555
K6 P6 3.372766 1_555
K6 P5 3.417857 1_655
K7 P5 3.282493 1_554
K7 P3 3.282667 1_565
K7 P4 3.310552 1_455
K7 P1 3.353763 1_555
K8 P6 3.281515 1_554
K8 P1 3.363905 1_555
K8 P4 3.372766 1_555
K8 P2 3.417857 1_565
K9 P7 3.228285 1_554
K9 P3 3.324633 1_555
K9 P2 3.414451 1_455
K9 P1 3.439058 1_555
Ba0 P6 3.249127 1_555
Ba0 P5 3.278423 1_555
Ba0 P1 3.330563 1_555
Ba0 P3 3.373360 1_565
Ba0 P2 3.466124 1_565
Ba1 P4 3.249127 1_556
Ba1 P2 3.278423 1_556
Ba1 P0 3.330563 1_555
Ba1 P7 3.373360 1_655
Ba1 P5 3.466124 1_655
P0 Ta0 2.408544 1_555
P1 Ta1 2.408544 1_554
P2 Ta0 2.424788 1_555
P3 Ta0 2.433860 1_555
P4 Ta0 2.421756 1_555
P5 Ta1 2.424788 1_555
P6 Ta1 2.421756 1_555
P7 Ta1 2.433860 1_555
