# generated using pymatgen
data_Zr6CuBi2
_symmetry_space_group_name_H-M   'P 1'
_cell_length_a   7.83408747
_cell_length_b   7.83408657
_cell_length_c   3.80799414
_cell_angle_alpha   90.00000000
_cell_angle_beta   90.00000000
_cell_angle_gamma   119.99999545
_symmetry_Int_Tables_number   1
_chemical_formula_structural   Zr6CuBi2
_chemical_formula_sum   'Zr6 Cu1 Bi2'
_cell_volume   202.39682981
_cell_formula_units_Z   1
loop_
 _symmetry_equiv_pos_site_id
 _symmetry_equiv_pos_as_xyz
  1  'x, y, z'
loop_
 _atom_site_type_symbol
 _atom_site_label
 _atom_site_symmetry_multiplicity
 _atom_site_fract_x
 _atom_site_fract_y
 _atom_site_fract_z
 _atom_site_occupancy
  Zr  Zr0  1  0.39475256  0.39475256  0.50000000  1
  Zr  Zr1  1  0.60524744  -0.00000000  0.50000000  1
  Zr  Zr2  1  -0.00000000  0.60524844  0.50000000  1
  Zr  Zr3  1  0.76284901  0.76284901  0.00000000  1
  Zr  Zr4  1  0.23715099  0.00000000  0.00000000  1
  Zr  Zr5  1  0.00000000  0.23714999  -0.00000000  1
  Cu  Cu0  1  0.00000000  -0.00000000  0.50000000  1
  Bi  Bi0  1  0.66666700  0.33333300  0.00000000  1
  Bi  Bi1  1  0.33333300  0.66666700  0.00000000  1
loop_
_geom_bond_atom_site_label_1
_geom_bond_atom_site_label_2
_geom_bond_distance
_geom_bond_site_symmetry_2
Cu0 Zr5 2.660230 1_556
Cu0 Zr5 2.660230 1_555
Cu0 Zr4 2.660236 1_555
Cu0 Zr4 2.660236 1_556
Cu0 Zr3 2.660236 1_445
Cu0 Zr3 2.660236 1_446
Cu0 Zr2 3.092518 1_545
Cu0 Zr1 3.092526 1_455
Cu0 Zr0 3.092526 1_555
Bi0 Zr5 3.058537 1_655
Bi0 Zr4 3.058537 1_555
Bi0 Zr3 3.058539 1_555
Bi0 Zr1 3.069108 1_555
Bi0 Zr1 3.069108 1_554
Bi0 Zr2 3.069113 1_655
Bi0 Zr2 3.069113 1_654
Bi0 Zr0 3.069115 1_555
Bi0 Zr0 3.069115 1_554
Bi1 Zr4 3.058531 1_565
Bi1 Zr3 3.058539 1_555
Bi1 Zr5 3.058542 1_555
Bi1 Zr1 3.069111 1_565
Bi1 Zr1 3.069111 1_564
Bi1 Zr2 3.069111 1_554
Bi1 Zr2 3.069111 1_555
Bi1 Zr0 3.069115 1_555
Bi1 Zr0 3.069115 1_554
