# generated using pymatgen
data_YbV4O8
_symmetry_space_group_name_H-M   'P 1'
_cell_length_a   9.22007400
_cell_length_b   5.90541800
_cell_length_c   11.22045004
_cell_angle_alpha   74.25005840
_cell_angle_beta   90.00000000
_cell_angle_gamma   90.00000000
_symmetry_Int_Tables_number   1
_chemical_formula_structural   YbV4O8
_chemical_formula_sum   'Yb4 V16 O32'
_cell_volume   587.99819249
_cell_formula_units_Z   4
loop_
 _symmetry_equiv_pos_site_id
 _symmetry_equiv_pos_as_xyz
  1  'x, y, z'
loop_
 _atom_site_type_symbol
 _atom_site_label
 _atom_site_symmetry_multiplicity
 _atom_site_fract_x
 _atom_site_fract_y
 _atom_site_fract_z
 _atom_site_occupancy
  Yb  Yb0  1  0.25760000  0.94637700  0.84397000  1
  Yb  Yb1  1  0.74240000  0.05362300  0.15603000  1
  Yb  Yb2  1  0.75760000  0.05362300  0.65603000  1
  Yb  Yb3  1  0.24240000  0.94637700  0.34397000  1
  V  V0  1  0.43385100  0.07561900  0.60618200  1
  V  V1  1  0.56614900  0.92438100  0.39381800  1
  V  V2  1  0.93385100  0.92438100  0.89381800  1
  V  V3  1  0.06614900  0.07561900  0.10618200  1
  V  V4  1  0.43835100  0.56359500  0.61976500  1
  V  V5  1  0.56164900  0.43640500  0.38023500  1
  V  V6  1  0.93835100  0.43640500  0.88023500  1
  V  V7  1  0.06164900  0.56359500  0.11976500  1
  V  V8  1  0.41392100  0.32354500  0.10071100  1
  V  V9  1  0.58607900  0.67645500  0.89928900  1
  V  V10  1  0.91392100  0.67645500  0.39928900  1
  V  V11  1  0.08607900  0.32354500  0.60071100  1
  V  V12  1  0.42008900  0.81705000  0.10488500  1
  V  V13  1  0.57991100  0.18295000  0.89511500  1
  V  V14  1  0.92008900  0.18295000  0.39511500  1
  V  V15  1  0.07991100  0.81705000  0.60488500  1
  O  O0  1  0.20793700  0.81338100  0.15128100  1
  O  O1  1  0.79206300  0.18661900  0.84871900  1
  O  O2  1  0.70793700  0.18661900  0.34871900  1
  O  O3  1  0.29206300  0.81338100  0.65128100  1
  O  O4  1  0.20326300  0.28004100  0.15198400  1
  O  O5  1  0.79673700  0.71995900  0.84801600  1
  O  O6  1  0.70326300  0.71995900  0.34801600  1
  O  O7  1  0.29673700  0.28004100  0.65198400  1
  O  O8  1  0.11381200  0.64681900  0.47901600  1
  O  O9  1  0.88618800  0.35318100  0.52098400  1
  O  O10  1  0.61381200  0.35318100  0.02098400  1
  O  O11  1  0.38618800  0.64681900  0.97901600  1
  O  O12  1  0.11578500  0.11580900  0.48033700  1
  O  O13  1  0.88421500  0.88419100  0.51966300  1
  O  O14  1  0.61578500  0.88419100  0.01966300  1
  O  O15  1  0.38421500  0.11580900  0.98033700  1
  O  O16  1  0.02300900  0.01095800  0.72149300  1
  O  O17  1  0.97699100  0.98904200  0.27850700  1
  O  O18  1  0.52300900  0.98904200  0.77850700  1
  O  O19  1  0.47699100  0.01095800  0.22149300  1
  O  O20  1  0.02554300  0.53289400  0.71184800  1
  O  O21  1  0.97445700  0.46710600  0.28815200  1
  O  O22  1  0.52554300  0.46710600  0.78815200  1
  O  O23  1  0.47445700  0.53289400  0.21184800  1
  O  O24  1  0.42370500  0.67322000  0.43351800  1
  O  O25  1  0.57629500  0.32678000  0.56648200  1
  O  O26  1  0.92370500  0.32678000  0.06648200  1
  O  O27  1  0.07629500  0.67322000  0.93351800  1
  O  O28  1  0.42074500  0.14809500  0.42469500  1
  O  O29  1  0.57925500  0.85190500  0.57530500  1
  O  O30  1  0.92074500  0.85190500  0.07530500  1
  O  O31  1  0.07925500  0.14809500  0.92469500  1
loop_
_geom_bond_atom_site_label_1
_geom_bond_atom_site_label_2
_geom_bond_distance
_geom_bond_site_symmetry_2
O0 V3 1.984415 1_565
O0 V12 2.022749 1_555
O0 V7 2.098415 1_555
O0 Yb3 2.512798 1_555
O1 V2 1.984415 1_545
O1 V13 2.022749 1_555
O1 V6 2.098415 1_555
O1 Yb2 2.512798 1_555
O2 V1 1.984415 1_545
O2 V14 2.022749 1_555
O2 V5 2.098415 1_555
O2 Yb1 2.512798 1_555
O3 V0 1.984415 1_565
O3 V15 2.022749 1_555
O3 V4 2.098415 1_555
O3 Yb0 2.512798 1_555
O4 V3 1.912184 1_555
O4 V8 2.022178 1_555
O4 V7 2.076260 1_555
O4 Yb3 2.519705 1_545
O5 V2 1.912184 1_555
O5 V9 2.022178 1_555
O5 V6 2.076260 1_555
O5 Yb2 2.519705 1_565
O6 V1 1.912184 1_555
O6 V10 2.022178 1_555
O6 V5 2.076260 1_555
O6 Yb1 2.519705 1_565
O7 V0 1.912184 1_555
O7 V11 2.022178 1_555
O7 V4 2.076260 1_555
O7 Yb0 2.519705 1_545
O8 V15 1.968165 1_555
O8 V10 2.035333 1_455
O8 V11 2.039430 1_555
O8 Yb3 2.318597 1_555
O9 V14 1.968165 1_555
O9 V11 2.035333 1_655
O9 V10 2.039430 1_555
O9 Yb2 2.318597 1_555
O10 V13 1.968165 1_554
O10 V8 2.035333 1_555
O10 V9 2.039430 1_554
O10 Yb1 2.318597 1_555
O11 V12 1.968165 1_556
O11 V9 2.035333 1_555
O11 V8 2.039430 1_556
O11 Yb0 2.318597 1_555
O12 V15 1.958724 1_545
O12 V14 2.030115 1_455
O12 V11 2.074548 1_555
O12 Yb3 2.352932 1_545
O13 V14 1.958724 1_565
O13 V15 2.030115 1_655
O13 V10 2.074548 1_555
O13 Yb2 2.352932 1_565
O14 V13 1.958724 1_564
O14 V12 2.030115 1_555
O14 V9 2.074548 1_554
O14 Yb1 2.352932 1_565
O15 V12 1.958724 1_546
O15 V13 2.030115 1_555
O15 V8 2.074548 1_556
O15 Yb0 2.352932 1_545
O16 V15 2.027754 1_545
O16 V2 2.034489 1_445
O16 V11 2.055295 1_555
O16 Yb0 2.535313 1_545
O16 Yb2 2.547703 1_455
O17 V14 2.027754 1_565
O17 V3 2.034489 1_665
O17 V10 2.055295 1_555
O17 Yb1 2.535313 1_565
O17 Yb3 2.547703 1_655
O18 V13 2.027754 1_565
O18 V0 2.034489 1_565
O18 V9 2.055295 1_555
O18 Yb2 2.535313 1_565
O18 Yb0 2.547703 1_555
O19 V12 2.027754 1_545
O19 V1 2.034489 1_545
O19 V8 2.055295 1_555
O19 Yb3 2.535313 1_545
O19 Yb1 2.547703 1_555
O20 V15 1.847767 1_555
O20 V6 1.989034 1_455
O20 V11 2.057162 1_555
O21 V14 1.847767 1_555
O21 V7 1.989034 1_655
O21 V10 2.057162 1_555
O22 V13 1.847767 1_555
O22 V4 1.989034 1_555
O22 V9 2.057162 1_555
O23 V12 1.847767 1_555
O23 V5 1.989034 1_555
O23 V8 2.057162 1_555
O24 V1 1.940241 1_555
O24 V4 2.017436 1_555
O24 V5 2.093974 1_555
O24 Yb3 2.350781 1_555
O25 V0 1.940241 1_555
O25 V5 2.017436 1_555
O25 V4 2.093974 1_555
O25 Yb2 2.350781 1_555
O26 V3 1.940241 1_655
O26 V6 2.017436 1_554
O26 V7 2.093974 1_655
O26 Yb1 2.350781 1_555
O27 V2 1.940241 1_455
O27 V7 2.017436 1_556
O27 V6 2.093974 1_455
O27 Yb0 2.350781 1_555
O28 V0 1.967592 1_555
O28 V1 1.977672 1_545
O28 V5 2.091497 1_555
O28 Yb3 2.351405 1_545
O29 V1 1.967592 1_555
O29 V0 1.977672 1_565
O29 V4 2.091497 1_555
O29 Yb2 2.351405 1_565
O30 V2 1.967592 1_554
O30 V3 1.977672 1_665
O30 V7 2.091497 1_655
O30 Yb1 2.351405 1_565
O31 V3 1.967592 1_556
O31 V2 1.977672 1_445
O31 V6 2.091497 1_455
O31 Yb0 2.351405 1_545
