# generated using pymatgen
data_Ce6Mg23Sb
_symmetry_space_group_name_H-M   'P 1'
_cell_length_a   10.28510572
_cell_length_b   10.28510572
_cell_length_c   10.28510572
_cell_angle_alpha   60.00000000
_cell_angle_beta   60.00000000
_cell_angle_gamma   60.00000000
_symmetry_Int_Tables_number   1
_chemical_formula_structural   Ce6Mg23Sb
_chemical_formula_sum   'Ce6 Mg23 Sb1'
_cell_volume   769.32754576
_cell_formula_units_Z   1
loop_
 _symmetry_equiv_pos_site_id
 _symmetry_equiv_pos_as_xyz
  1  'x, y, z'
loop_
 _atom_site_type_symbol
 _atom_site_label
 _atom_site_symmetry_multiplicity
 _atom_site_fract_x
 _atom_site_fract_y
 _atom_site_fract_z
 _atom_site_occupancy
  Ce  Ce0  1  0.78353400  0.78353400  0.21646600  1
  Ce  Ce1  1  0.21646600  0.78353400  0.21646600  1
  Ce  Ce2  1  0.78353400  0.21646600  0.21646600  1
  Ce  Ce3  1  0.21646600  0.21646600  0.78353400  1
  Ce  Ce4  1  0.78353400  0.21646600  0.78353400  1
  Ce  Ce5  1  0.21646600  0.78353400  0.78353400  1
  Mg  Mg0  1  0.82872300  0.82872300  0.51383100  1
  Mg  Mg1  1  0.82872300  0.51383100  0.82872300  1
  Mg  Mg2  1  0.51383100  0.82872300  0.82872300  1
  Mg  Mg3  1  0.82872300  0.82872300  0.82872300  1
  Mg  Mg4  1  0.17127700  0.17127700  0.48616900  1
  Mg  Mg5  1  0.17127700  0.48616900  0.17127700  1
  Mg  Mg6  1  0.48616900  0.17127700  0.17127700  1
  Mg  Mg7  1  0.17127700  0.17127700  0.17127700  1
  Mg  Mg8  1  0.62149800  0.62149800  0.13550700  1
  Mg  Mg9  1  0.62149800  0.13550700  0.62149800  1
  Mg  Mg10  1  0.13550700  0.62149800  0.62149800  1
  Mg  Mg11  1  0.62149800  0.62149800  0.62149800  1
  Mg  Mg12  1  0.37850200  0.37850200  0.86449300  1
  Mg  Mg13  1  0.37850200  0.86449300  0.37850200  1
  Mg  Mg14  1  0.86449300  0.37850200  0.37850200  1
  Mg  Mg15  1  0.37850200  0.37850200  0.37850200  1
  Mg  Mg16  1  0.00000000  0.00000000  0.50000000  1
  Mg  Mg17  1  0.50000000  0.00000000  0.50000000  1
  Mg  Mg18  1  0.00000000  0.50000000  0.50000000  1
  Mg  Mg19  1  0.50000000  0.50000000  0.00000000  1
  Mg  Mg20  1  0.00000000  0.50000000  0.00000000  1
  Mg  Mg21  1  0.50000000  0.00000000  0.00000000  1
  Mg  Mg22  1  0.50000000  0.50000000  0.50000000  1
  Sb  Sb0  1  0.00000000  0.00000000  0.00000000  1
loop_
_geom_bond_atom_site_label_1
_geom_bond_atom_site_label_2
_geom_bond_distance
_geom_bond_site_symmetry_2
Ce0 Sb0 3.148571 1_665
Ce0 Mg8 3.435255 1_555
Ce0 Mg11 3.435262 1_555
Ce0 Mg14 3.435263 1_555
Ce0 Mg13 3.435263 1_555
Ce0 Mg6 3.583992 1_565
Ce0 Mg5 3.583992 1_655
Ce0 Mg3 3.583992 1_554
Ce0 Mg0 3.583992 1_555
Ce0 Mg20 3.668901 1_655
Ce0 Mg21 3.668901 1_565
Ce0 Mg18 3.668901 1_655
Ce0 Mg17 3.668901 1_565
Ce1 Sb0 3.148571 1_565
Ce1 Mg13 3.435255 1_555
Ce1 Mg15 3.435262 1_555
Ce1 Mg8 3.435263 1_555
Ce1 Mg10 3.435263 1_555
Ce1 Mg5 3.583992 1_555
Ce1 Mg7 3.583992 1_565
Ce1 Mg0 3.583992 1_455
Ce1 Mg2 3.583992 1_554
Ce1 Mg19 3.668901 1_555
Ce1 Mg18 3.668901 1_555
Ce1 Mg21 3.668901 1_565
Ce1 Mg16 3.668901 1_565
Ce2 Sb0 3.148571 1_655
Ce2 Mg14 3.435255 1_555
Ce2 Mg15 3.435262 1_555
Ce2 Mg8 3.435263 1_555
Ce2 Mg9 3.435263 1_555
Ce2 Mg6 3.583992 1_555
Ce2 Mg7 3.583992 1_655
Ce2 Mg1 3.583992 1_554
Ce2 Mg0 3.583992 1_545
Ce2 Mg19 3.668901 1_555
Ce2 Mg17 3.668901 1_555
Ce2 Mg16 3.668901 1_655
Ce2 Mg20 3.668901 1_655
Ce3 Sb0 3.148571 1_556
Ce3 Mg12 3.435255 1_555
Ce3 Mg15 3.435262 1_555
Ce3 Mg9 3.435263 1_555
Ce3 Mg10 3.435263 1_555
Ce3 Mg4 3.583992 1_555
Ce3 Mg7 3.583992 1_556
Ce3 Mg2 3.583992 1_545
Ce3 Mg1 3.583992 1_455
Ce3 Mg17 3.668901 1_555
Ce3 Mg18 3.668901 1_555
Ce3 Mg21 3.668901 1_556
Ce3 Mg20 3.668901 1_556
Ce4 Sb0 3.148571 1_656
Ce4 Mg9 3.435255 1_555
Ce4 Mg11 3.435262 1_555
Ce4 Mg12 3.435263 1_555
Ce4 Mg14 3.435263 1_555
Ce4 Mg6 3.583992 1_556
Ce4 Mg4 3.583992 1_655
Ce4 Mg3 3.583992 1_545
Ce4 Mg1 3.583992 1_555
Ce4 Mg21 3.668901 1_556
Ce4 Mg16 3.668901 1_655
Ce4 Mg18 3.668901 1_655
Ce4 Mg19 3.668901 1_556
Ce5 Sb0 3.148571 1_566
Ce5 Mg10 3.435255 1_555
Ce5 Mg11 3.435262 1_555
Ce5 Mg12 3.435263 1_555
Ce5 Mg13 3.435263 1_555
Ce5 Mg4 3.583992 1_565
Ce5 Mg5 3.583992 1_556
Ce5 Mg3 3.583992 1_455
Ce5 Mg2 3.583992 1_555
Ce5 Mg16 3.668901 1_565
Ce5 Mg20 3.668901 1_556
Ce5 Mg17 3.668901 1_565
Ce5 Mg19 3.668901 1_556
Mg0 Mg18 2.971325 1_655
Mg0 Mg17 2.971325 1_565
Mg0 Mg16 2.971325 1_665
Mg0 Mg11 3.183339 1_555
Mg0 Mg10 3.183348 1_655
Mg0 Mg9 3.183348 1_565
Mg0 Mg1 3.238698 1_555
Mg0 Mg3 3.238698 1_555
Mg0 Mg2 3.238698 1_555
Mg1 Mg19 2.971325 1_556
Mg1 Mg18 2.971325 1_655
Mg1 Mg20 2.971325 1_656
Mg1 Mg11 3.183339 1_555
Mg1 Mg8 3.183348 1_556
Mg1 Mg10 3.183348 1_655
Mg1 Mg2 3.238698 1_555
Mg1 Mg3 3.238698 1_555
Mg2 Mg21 2.971325 1_566
Mg2 Mg8 3.183348 1_556
Mg2 Mg9 3.183348 1_565
Mg2 Mg3 3.238698 1_555
Mg3 Mg9 3.183342 1_565
Mg3 Mg8 3.183342 1_556
Mg4 Mg7 3.238698 1_555
Mg4 Mg5 3.238698 1_555
Mg4 Mg6 3.238698 1_555
Mg5 Mg7 3.238698 1_555
Mg5 Mg6 3.238698 1_555
Mg6 Mg7 3.238698 1_555
Mg10 Mg22 3.060922 1_555
Mg10 Mg16 3.179655 1_565
Mg10 Mg20 3.179655 1_556
Mg10 Mg18 3.179663 1_555
Mg10 Mg3 3.183342 1_455
Mg11 Mg22 3.060931 1_555
Mg11 Mg18 3.179655 1_655
Mg11 Mg19 3.179655 1_556
Mg11 Mg17 3.179655 1_565
Mg11 Mg2 3.183339 1_555
Mg12 Mg22 3.060922 1_555
Mg12 Mg21 3.179655 1_556
Mg12 Mg20 3.179655 1_556
Mg12 Mg19 3.179663 1_556
Mg12 Mg7 3.183342 1_556
Mg12 Mg5 3.183348 1_556
Mg12 Mg6 3.183348 1_556
Mg13 Mg22 3.060922 1_555
Mg13 Mg21 3.179655 1_565
Mg13 Mg16 3.179655 1_565
Mg13 Mg17 3.179663 1_565
Mg13 Mg7 3.183342 1_565
Mg13 Mg4 3.183348 1_565
Mg13 Mg6 3.183348 1_565
Mg14 Mg22 3.060922 1_555
Mg14 Mg20 3.179655 1_655
Mg14 Mg16 3.179655 1_655
Mg14 Mg18 3.179663 1_655
Mg14 Mg7 3.183342 1_655
Mg14 Mg5 3.183348 1_655
Mg14 Mg4 3.183348 1_655
Mg15 Mg22 3.060931 1_555
Mg15 Mg18 3.179655 1_555
Mg15 Mg19 3.179655 1_555
Mg15 Mg17 3.179655 1_555
Mg15 Mg5 3.183339 1_555
Mg15 Mg6 3.183339 1_555
Mg15 Mg4 3.183339 1_555
Mg16 Mg3 2.971325 1_445
Mg16 Mg7 2.971325 1_555
Mg16 Mg4 2.971325 1_555
Mg16 Mg9 3.179655 1_455
Mg17 Mg2 2.971325 1_545
Mg17 Mg6 2.971325 1_555
Mg17 Mg4 2.971325 1_555
Mg17 Mg9 3.179663 1_555
Mg18 Mg5 2.971325 1_555
Mg18 Mg4 2.971325 1_555
Mg19 Mg5 2.971325 1_555
Mg19 Mg6 2.971325 1_555
Mg19 Mg2 2.971325 1_554
Mg19 Mg8 3.179663 1_555
Mg20 Mg3 2.971325 1_454
Mg20 Mg7 2.971325 1_555
Mg20 Mg5 2.971325 1_555
Mg20 Mg8 3.179655 1_455
Mg21 Mg7 2.971325 1_555
Mg21 Mg6 2.971325 1_555
Mg21 Mg3 2.971325 1_544
Mg21 Mg9 3.179655 1_554
Mg21 Mg8 3.179655 1_545
Mg22 Mg8 3.060922 1_555
Mg22 Mg9 3.060922 1_555
