# generated using pymatgen
data_Yb5Ni19P12
_symmetry_space_group_name_H-M   'P 1'
_cell_length_a   14.32772369
_cell_length_b   14.32772369
_cell_length_c   9.11201392
_cell_angle_alpha   76.27186122
_cell_angle_beta   76.27186122
_cell_angle_gamma   14.76651675
_symmetry_Int_Tables_number   1
_chemical_formula_structural   Yb5Ni19P12
_chemical_formula_sum   'Yb5 Ni19 P12'
_cell_volume   462.91445461
_cell_formula_units_Z   1
loop_
 _symmetry_equiv_pos_site_id
 _symmetry_equiv_pos_as_xyz
  1  'x, y, z'
loop_
 _atom_site_type_symbol
 _atom_site_label
 _atom_site_symmetry_multiplicity
 _atom_site_fract_x
 _atom_site_fract_y
 _atom_site_fract_z
 _atom_site_occupancy
  Yb  Yb0  1  0.00000000  0.00000000  0.00000000  1
  Yb  Yb1  1  0.92144500  0.92144500  0.68485500  1
  Yb  Yb2  1  0.07855500  0.07855500  0.31514500  1
  Yb  Yb3  1  0.67527700  0.67527700  0.73075700  1
  Yb  Yb4  1  0.32472300  0.32472300  0.26924300  1
  Ni  Ni0  1  0.50000000  0.50000000  0.50000000  1
  Ni  Ni1  1  0.28012300  0.28012300  0.00750500  1
  Ni  Ni2  1  0.71987700  0.71987700  0.99249500  1
  Ni  Ni3  1  0.34912200  0.34912200  0.59356500  1
  Ni  Ni4  1  0.65087800  0.65087800  0.40643500  1
  Ni  Ni5  1  0.25771300  0.25771300  0.59376900  1
  Ni  Ni6  1  0.74228700  0.74228700  0.40623100  1
  Ni  Ni7  1  0.15661100  0.15661100  0.01081900  1
  Ni  Ni8  1  0.84338900  0.84338900  0.98918100  1
  Ni  Ni9  1  0.02611600  0.02611600  0.66303400  1
  Ni  Ni10  1  0.97388400  0.97388400  0.33696600  1
  Ni  Ni11  1  0.41270700  0.41270700  0.95002000  1
  Ni  Ni12  1  0.58729300  0.58729300  0.04998000  1
  Ni  Ni13  1  0.56582100  0.56582100  0.79946100  1
  Ni  Ni14  1  0.43417900  0.43417900  0.20053900  1
  Ni  Ni15  1  0.11680500  0.11680500  0.61272200  1
  Ni  Ni16  1  0.88319500  0.88319500  0.38727800  1
  Ni  Ni17  1  0.79477100  0.79477100  0.77296900  1
  Ni  Ni18  1  0.20522900  0.20522900  0.22703100  1
  P  P0  1  0.23280100  0.23280100  0.84255700  1
  P  P1  1  0.76719900  0.76719900  0.15744300  1
  P  P2  1  0.34969300  0.34969300  0.83755500  1
  P  P3  1  0.65030700  0.65030700  0.16244500  1
  P  P4  1  0.10102200  0.10102200  0.87692600  1
  P  P5  1  0.89897800  0.89897800  0.12307400  1
  P  P6  1  0.80617000  0.80617000  0.51922800  1
  P  P7  1  0.19383000  0.19383000  0.48077200  1
  P  P8  1  0.48502800  0.48502800  0.77112300  1
  P  P9  1  0.51497200  0.51497200  0.22887700  1
  P  P10  1  0.57529600  0.57529600  0.55063800  1
  P  P11  1  0.42470400  0.42470400  0.44936200  1
loop_
_geom_bond_atom_site_label_1
_geom_bond_atom_site_label_2
_geom_bond_distance
_geom_bond_site_symmetry_2
Ni0 P11 2.294333 1_555
Ni0 P10 2.294333 1_555
Ni0 P8 2.404416 1_555
Ni0 P9 2.404416 1_555
Ni0 Ni10 2.583677 1_545
Ni0 Ni9 2.583677 1_565
Ni0 Ni9 2.583677 1_655
Ni0 Ni10 2.583677 1_455
Ni0 Yb2 3.067741 1_565
Ni0 Yb2 3.067741 1_655
Ni0 Yb1 3.067741 1_455
Ni0 Yb1 3.067741 1_545
Ni1 P2 2.200339 1_554
Ni1 P0 2.243848 1_554
Ni1 P1 2.269657 1_455
Ni1 P1 2.269657 1_545
Ni2 P3 2.200339 1_556
Ni2 P1 2.243848 1_556
Ni2 P0 2.269657 1_655
Ni2 P0 2.269657 1_565
Ni3 P2 2.227179 1_555
Ni3 P11 2.233650 1_555
Ni3 P6 2.394659 1_455
Ni3 P6 2.394659 1_545
Ni3 Yb1 3.020646 1_545
Ni3 Yb1 3.020646 1_455
Ni4 P3 2.227179 1_555
Ni4 P10 2.233650 1_555
Ni4 P7 2.394659 1_655
Ni4 P7 2.394659 1_565
Ni4 Yb2 3.020646 1_655
Ni4 Yb2 3.020646 1_565
Ni5 P0 2.207306 1_555
Ni5 P7 2.291393 1_555
Ni5 P6 2.302162 1_455
Ni5 P6 2.302162 1_545
Ni6 P1 2.207306 1_555
Ni6 P6 2.291393 1_555
Ni6 P7 2.302162 1_655
Ni6 P7 2.302162 1_565
Ni7 P4 2.215042 1_554
Ni7 P3 2.283091 1_545
Ni7 P3 2.283091 1_455
Ni7 P0 2.334492 1_554
Ni7 Yb2 3.109035 1_555
Ni8 P5 2.215042 1_556
Ni8 P2 2.283091 1_565
Ni8 P2 2.283091 1_655
Ni8 P1 2.334492 1_556
Ni8 Yb1 3.109035 1_555
Ni9 P8 2.274427 1_545
Ni9 P8 2.274427 1_455
Ni9 P10 2.388956 1_545
Ni9 P10 2.388956 1_455
Ni9 Yb1 2.933305 1_445
Ni9 Yb0 2.981239 1_556
Ni9 Yb2 3.163631 1_555
Ni10 P9 2.274427 1_655
Ni10 P9 2.274427 1_565
Ni10 P11 2.388956 1_655
Ni10 P11 2.388956 1_565
Ni10 Ni16 2.507310 1_555
Ni10 Ni14 2.622938 1_565
Ni10 Ni14 2.622938 1_655
Ni10 Yb2 2.933305 1_665
Ni10 Yb0 2.981239 1_665
Ni10 Yb1 3.163631 1_555
Ni11 P2 2.266086 1_555
Ni11 P8 2.297332 1_555
Ni11 P5 2.394640 1_546
Ni11 P5 2.394640 1_456
Ni11 Yb1 3.000413 1_455
Ni11 Yb1 3.000413 1_545
Ni11 Yb0 3.208096 1_656
Ni11 Yb0 3.208096 1_566
Ni12 P3 2.266086 1_555
Ni12 P9 2.297332 1_555
Ni12 P4 2.394640 1_564
Ni12 P4 2.394640 1_654
Ni12 Yb2 3.000413 1_565
Ni12 Yb2 3.000413 1_655
Ni12 Yb0 3.208096 1_655
Ni12 Yb0 3.208096 1_565
Ni13 P10 2.218305 1_555
Ni13 P4 2.286232 1_565
Ni13 P4 2.286232 1_655
Ni13 P8 2.371047 1_555
Ni13 Ni9 2.622938 1_655
Ni13 Ni9 2.622938 1_565
Ni13 Yb0 2.931208 1_566
Ni13 Yb0 2.931208 1_656
Ni14 P11 2.218305 1_555
Ni14 P5 2.286232 1_455
Ni14 P5 2.286232 1_545
Ni14 P9 2.371047 1_555
Ni14 Yb0 2.931208 1_655
Ni14 Yb0 2.931208 1_565
Ni15 P7 2.230977 1_555
Ni15 P10 2.328273 1_545
Ni15 P10 2.328273 1_455
Ni15 P4 2.340964 1_555
Ni15 Ni9 2.507310 1_555
Ni15 Yb3 2.857130 1_545
Ni15 Yb3 2.857130 1_455
Ni15 Yb2 3.153493 1_555
Ni16 P6 2.230977 1_555
Ni16 P11 2.328273 1_655
Ni16 P11 2.328273 1_565
Ni16 P5 2.340964 1_555
Ni16 Yb4 2.857130 1_565
Ni16 Yb4 2.857130 1_655
Ni16 Yb1 3.153493 1_555
Ni17 P6 2.256601 1_555
Ni17 P0 2.521696 1_565
Ni17 P0 2.521696 1_655
Ni17 P2 2.571369 1_565
Ni17 P2 2.571369 1_655
Ni18 P7 2.256601 1_555
Ni18 P1 2.521696 1_455
Ni18 P1 2.521696 1_545
Ni18 P3 2.571369 1_545
Ni18 P3 2.571369 1_455
P0 Yb3 2.810176 1_455
P0 Yb3 2.810176 1_545
P1 Yb4 2.810176 1_655
P1 Yb4 2.810176 1_565
P2 Yb1 2.850586 1_455
P2 Yb1 2.850586 1_545
P3 Yb2 2.850586 1_655
P3 Yb2 2.850586 1_565
P4 Yb0 2.821075 1_556
P4 Yb3 2.876046 1_545
P4 Yb3 2.876046 1_455
P5 Yb0 2.821075 1_665
P5 Yb4 2.876046 1_655
P5 Yb4 2.876046 1_565
P6 Yb4 2.877824 1_565
P6 Yb4 2.877824 1_655
P7 Yb3 2.877824 1_455
P7 Yb3 2.877824 1_545
P8 Yb1 2.820028 1_545
P8 Yb1 2.820028 1_455
P8 Yb0 2.888796 1_566
P8 Yb0 2.888796 1_656
P9 Yb2 2.820028 1_655
P9 Yb2 2.820028 1_565
P9 Yb0 2.888796 1_655
P9 Yb0 2.888796 1_565
P10 Yb2 2.812115 1_565
P10 Yb2 2.812115 1_655
P11 Yb1 2.812115 1_455
P11 Yb1 2.812115 1_545
