# generated using pymatgen
data_Mg16Al12S
_symmetry_space_group_name_H-M   'P 1'
_cell_length_a   9.05418195
_cell_length_b   9.05418195
_cell_length_c   9.05418246
_cell_angle_alpha   108.90472450
_cell_angle_beta   108.90472450
_cell_angle_gamma   108.90472511
_symmetry_Int_Tables_number   1
_chemical_formula_structural   Mg16Al12S
_chemical_formula_sum   'Mg16 Al12 S1'
_cell_volume   583.05715786
_cell_formula_units_Z   1
loop_
 _symmetry_equiv_pos_site_id
 _symmetry_equiv_pos_as_xyz
  1  'x, y, z'
loop_
 _atom_site_type_symbol
 _atom_site_label
 _atom_site_symmetry_multiplicity
 _atom_site_fract_x
 _atom_site_fract_y
 _atom_site_fract_z
 _atom_site_occupancy
  Mg  Mg0  1  0.99913100  0.99913100  0.65519700  1
  Mg  Mg1  1  0.30876100  0.30876100  0.71070400  1
  Mg  Mg2  1  0.57728600  0.57728600  0.29583200  1
  Mg  Mg3  1  0.03996600  0.03996600  0.03996600  1
  Mg  Mg4  1  0.67523600  0.40419600  0.99877400  1
  Mg  Mg5  1  0.57728600  0.29583200  0.57728600  1
  Mg  Mg6  1  0.99877400  0.67523600  0.40419600  1
  Mg  Mg7  1  0.99913100  0.65519700  0.99913100  1
  Mg  Mg8  1  0.71070400  0.30876100  0.30876100  1
  Mg  Mg9  1  0.40419600  0.99877400  0.67523600  1
  Mg  Mg10  1  0.99877400  0.40419600  0.67523600  1
  Mg  Mg11  1  0.30876100  0.71070400  0.30876100  1
  Mg  Mg12  1  0.65519700  0.99913100  0.99913100  1
  Mg  Mg13  1  0.67523600  0.99877400  0.40419600  1
  Mg  Mg14  1  0.29583200  0.57728600  0.57728600  1
  Mg  Mg15  1  0.40419600  0.67523600  0.99877400  1
  Al  Al0  1  0.80742800  0.80742800  0.19428600  1
  Al  Al1  1  0.64974700  0.64974700  0.83947600  1
  Al  Al2  1  0.36261400  0.17380700  0.98592900  1
  Al  Al3  1  0.17380700  0.98592900  0.36261400  1
  Al  Al4  1  0.83947600  0.64974700  0.64974700  1
  Al  Al5  1  0.36261400  0.98592900  0.17380700  1
  Al  Al6  1  0.19428600  0.80742800  0.80742800  1
  Al  Al7  1  0.80742800  0.19428600  0.80742800  1
  Al  Al8  1  0.98592900  0.36261400  0.17380700  1
  Al  Al9  1  0.64974700  0.83947600  0.64974700  1
  Al  Al10  1  0.98592900  0.17380700  0.36261400  1
  Al  Al11  1  0.17380700  0.36261400  0.98592900  1
  S  S0  1  0.37870600  0.37870600  0.37870600  1
loop_
_geom_bond_atom_site_label_1
_geom_bond_atom_site_label_2
_geom_bond_distance
_geom_bond_site_symmetry_2
Mg0 Mg1 3.008736 1_665
Mg0 Mg6 3.071707 1_555
Mg0 Mg13 3.071707 1_555
Mg0 Mg3 3.263768 1_666
Mg1 Mg14 3.062671 1_555
Mg1 Mg5 3.062671 1_555
Mg1 Mg15 3.103745 1_555
Mg1 Mg4 3.103745 1_555
Mg1 Mg10 3.145551 1_455
Mg1 Mg9 3.145551 1_545
Mg2 S0 2.584987 1_555
Mg2 Mg8 3.062671 1_555
Mg3 S0 3.151761 1_555
Mg3 Mg7 3.263767 1_444
Mg4 Mg7 3.071707 1_555
Mg4 Mg8 3.145552 1_556
Mg5 S0 2.584987 1_555
Mg5 Mg8 3.062671 1_555
Mg6 Mg8 3.103745 1_555
Mg10 Mg7 3.071707 1_555
Mg10 Mg8 3.103745 1_555
Mg11 Mg7 3.008736 1_454
Mg11 Mg2 3.062671 1_555
Mg11 Mg14 3.062671 1_555
Mg11 Mg13 3.103745 1_555
Mg11 Mg9 3.103745 1_555
Mg11 Mg6 3.145551 1_455
Mg11 Mg15 3.145552 1_554
Mg12 Mg8 3.008736 1_566
Mg12 Mg15 3.071707 1_555
Mg12 Mg9 3.071707 1_555
Mg12 Mg3 3.263767 1_666
Mg13 Mg8 3.145551 1_565
Mg14 S0 2.584987 1_555
Al0 Al1 2.670593 1_554
Al0 Al10 2.755504 1_565
Al0 Al3 2.755504 1_655
Al0 Mg6 2.954698 1_555
Al0 Mg13 2.954698 1_555
Al0 Mg2 3.032925 1_555
Al0 Mg4 3.082711 1_554
Al0 Mg15 3.082711 1_554
Al0 Mg12 3.161346 1_554
Al0 Mg7 3.161346 1_554
Al1 Al4 2.795382 1_555
Al1 Al9 2.795382 1_555
Al1 Mg7 2.998088 1_555
Al1 Mg12 2.998088 1_555
Al1 Mg14 3.005557 1_555
Al1 Mg5 3.005557 1_555
Al1 Mg4 3.044846 1_555
Al1 Mg15 3.044846 1_555
Al1 Mg1 3.095371 1_555
Al2 Al6 2.755504 1_545
Al2 Al5 2.768110 1_546
Al2 Mg4 2.860112 1_555
Al2 Mg9 2.958166 1_545
Al2 Mg8 3.031605 1_556
Al2 Mg3 3.042755 1_556
Al2 Mg0 3.077618 1_445
Al2 Mg1 3.084205 1_555
Al2 Mg2 3.196774 1_556
Al3 Al5 2.781798 1_555
Al3 Mg9 2.860112 1_555
Al3 Mg6 2.958166 1_455
Al3 Mg1 3.031605 1_565
Al3 Mg3 3.042755 1_565
Al3 Mg7 3.077618 1_454
Al3 Mg11 3.084205 1_555
Al3 Mg5 3.196774 1_565
Al4 Al6 2.670593 1_655
Al4 Al9 2.795382 1_555
Al4 Mg0 2.998088 1_555
Al4 Mg7 2.998088 1_555
Al4 Mg5 3.005557 1_555
Al4 Mg2 3.005557 1_555
Al4 Mg10 3.044846 1_555
Al4 Mg6 3.044846 1_555
Al4 Mg8 3.095371 1_555
Al5 Al6 2.755504 1_554
Al5 Mg13 2.860112 1_555
Al5 Mg15 2.958166 1_554
Al5 Mg8 3.031604 1_565
Al5 Mg3 3.042755 1_565
Al5 Mg7 3.077618 1_454
Al5 Mg11 3.084205 1_555
Al5 Mg5 3.196774 1_565
Al6 Mg9 2.954698 1_555
Al6 Mg15 2.954698 1_555
Al6 Mg14 3.032925 1_555
Al6 Mg10 3.082711 1_455
Al6 Mg6 3.082711 1_455
Al6 Mg0 3.161346 1_455
Al6 Mg7 3.161346 1_455
Al7 Al9 2.670593 1_545
Al7 Al8 2.755504 1_556
Al7 Mg10 2.954698 1_555
Al7 Mg4 2.954698 1_555
Al7 Mg5 3.032925 1_555
Al7 Mg9 3.082711 1_545
Al7 Mg13 3.082711 1_545
Al7 Mg0 3.161346 1_545
Al7 Mg12 3.161346 1_545
Al8 Mg6 2.860112 1_555
Al8 Mg4 2.958166 1_554
Al8 Mg11 3.031604 1_655
Al8 Mg3 3.042755 1_655
Al8 Mg12 3.077618 1_544
Al8 Mg8 3.084205 1_555
Al8 Mg14 3.196774 1_655
Al9 Mg0 2.998088 1_555
Al9 Mg12 2.998088 1_555
Al9 Mg14 3.005557 1_555
Al9 Mg2 3.005557 1_555
Al9 Mg9 3.044846 1_555
Al9 Mg13 3.044846 1_555
Al9 Mg11 3.095371 1_555
Al10 Al3 2.768110 1_645
Al10 Al8 2.781798 1_555
Al10 Mg10 2.860112 1_555
Al10 Mg13 2.958166 1_545
Al10 Mg1 3.031605 1_655
Al10 Mg3 3.042755 1_655
Al10 Mg12 3.077618 1_544
Al10 Mg8 3.084205 1_555
Al10 Mg14 3.196774 1_655
Al11 Al7 2.755504 1_455
Al11 Al8 2.768110 1_456
Al11 Al2 2.781798 1_555
Al11 Mg15 2.860112 1_555
Al11 Mg10 2.958166 1_455
Al11 Mg11 3.031605 1_556
Al11 Mg3 3.042755 1_556
Al11 Mg0 3.077618 1_445
Al11 Mg1 3.084205 1_555
Al11 Mg2 3.196774 1_556
