# generated using pymatgen
data_Mg6ZrAl
_symmetry_space_group_name_H-M   'P 1'
_cell_length_a   4.93326700
_cell_length_b   6.40603400
_cell_length_c   11.02321800
_cell_angle_alpha   90.00000000
_cell_angle_beta   90.00000000
_cell_angle_gamma   90.00000000
_symmetry_Int_Tables_number   1
_chemical_formula_structural   Mg6ZrAl
_chemical_formula_sum   'Mg12 Zr2 Al2'
_cell_volume   348.36318840
_cell_formula_units_Z   2
loop_
 _symmetry_equiv_pos_site_id
 _symmetry_equiv_pos_as_xyz
  1  'x, y, z'
loop_
 _atom_site_type_symbol
 _atom_site_label
 _atom_site_symmetry_multiplicity
 _atom_site_fract_x
 _atom_site_fract_y
 _atom_site_fract_z
 _atom_site_occupancy
  Mg  Mg0  1  0.00000000  0.25102500  0.08389500  1
  Mg  Mg1  1  0.00000000  0.74897500  0.08389500  1
  Mg  Mg2  1  0.00000000  0.50000000  0.83298400  1
  Mg  Mg3  1  0.50000000  0.24676900  0.91782100  1
  Mg  Mg4  1  0.50000000  0.75323100  0.91782100  1
  Mg  Mg5  1  0.50000000  0.50000000  0.66598600  1
  Mg  Mg6  1  0.00000000  0.75102500  0.58389500  1
  Mg  Mg7  1  0.00000000  0.24897500  0.58389500  1
  Mg  Mg8  1  0.00000000  0.00000000  0.33298400  1
  Mg  Mg9  1  0.50000000  0.74676900  0.41782100  1
  Mg  Mg10  1  0.50000000  0.25323100  0.41782100  1
  Mg  Mg11  1  0.50000000  0.00000000  0.16598600  1
  Zr  Zr0  1  0.50000000  0.50000000  0.17466500  1
  Zr  Zr1  1  0.50000000  0.00000000  0.67466500  1
  Al  Al0  1  0.00000000  0.50000000  0.32293300  1
  Al  Al1  1  0.00000000  0.00000000  0.82293300  1
loop_
_geom_bond_atom_site_label_1
_geom_bond_atom_site_label_2
_geom_bond_distance
_geom_bond_site_symmetry_2
Mg0 Mg3 3.071869 1_554
Mg0 Mg3 3.071869 1_454
Mg0 Mg11 3.080429 1_455
Mg0 Mg11 3.080429 1_555
Mg0 Zr0 3.103108 1_455
Mg0 Zr0 3.103108 1_555
Mg0 Mg8 3.181999 1_555
Mg0 Mg1 3.189885 1_555
Mg0 Mg2 3.192765 1_554
Mg0 Mg1 3.216149 1_545
Mg1 Mg4 3.071869 1_454
Mg1 Mg4 3.071869 1_554
Mg1 Mg11 3.080429 1_565
Mg1 Mg11 3.080429 1_465
Mg1 Zr0 3.103108 1_555
Mg1 Zr0 3.103108 1_455
Mg1 Mg8 3.181999 1_565
Mg1 Mg2 3.192765 1_554
Mg2 Mg5 3.077829 1_455
Mg2 Mg5 3.077829 1_555
Mg2 Mg3 3.096835 1_455
Mg2 Mg4 3.096835 1_455
Mg2 Mg3 3.096835 1_555
Mg2 Mg4 3.096835 1_555
Mg2 Mg7 3.181999 1_555
Mg2 Mg6 3.181999 1_555
Mg3 Zr1 3.111800 1_555
Mg3 Mg4 3.161621 1_545
Mg3 Mg5 3.215262 1_555
Mg3 Mg4 3.244413 1_555
Mg3 Zr0 3.263053 1_556
Mg4 Zr1 3.111800 1_565
Mg4 Mg5 3.215262 1_555
Mg4 Zr0 3.263053 1_556
Mg5 Mg7 3.080429 1_655
Mg5 Mg6 3.080429 1_555
Mg5 Mg7 3.080429 1_555
Mg5 Mg6 3.080429 1_655
Mg5 Mg9 3.159485 1_555
Mg5 Zr1 3.204445 1_565
Mg5 Zr1 3.204445 1_555
Mg6 Mg9 3.071869 1_555
Mg6 Mg9 3.071869 1_455
Mg6 Zr1 3.103108 1_465
Mg6 Zr1 3.103108 1_565
Mg6 Mg7 3.189885 1_565
Mg6 Mg8 3.192765 1_565
Mg6 Mg7 3.216149 1_555
Mg7 Zr1 3.103108 1_455
Mg7 Zr1 3.103108 1_555
Mg7 Mg8 3.192765 1_555
Mg8 Mg9 3.096835 1_445
Mg8 Mg9 3.096835 1_545
Mg9 Zr0 3.111800 1_555
Mg9 Zr1 3.263053 1_565
Mg10 Mg7 3.071869 1_655
Mg10 Mg7 3.071869 1_555
Mg10 Mg8 3.096835 1_655
Mg10 Mg8 3.096835 1_555
Mg10 Zr0 3.111800 1_555
Mg10 Mg5 3.159485 1_555
Mg10 Mg9 3.161621 1_555
Mg10 Mg11 3.215262 1_555
Mg10 Mg9 3.244413 1_545
Mg10 Zr1 3.263053 1_555
Mg11 Mg8 3.077829 1_555
Mg11 Mg8 3.077829 1_655
Mg11 Mg3 3.159485 1_554
Mg11 Mg4 3.159485 1_544
Mg11 Zr0 3.204445 1_545
Mg11 Zr0 3.204445 1_555
Mg11 Mg9 3.215262 1_545
Al0 Zr0 2.958972 1_455
Al0 Zr0 2.958972 1_555
Al0 Mg1 3.080081 1_555
Al0 Mg0 3.080081 1_555
Al0 Mg9 3.110836 1_455
Al0 Mg9 3.110836 1_555
Al0 Mg10 3.110836 1_455
Al0 Mg10 3.110836 1_555
Al0 Mg8 3.204933 1_555
Al0 Mg8 3.204933 1_565
Al0 Mg7 3.295598 1_555
Al0 Mg6 3.295598 1_555
Al1 Zr1 2.958972 1_555
Al1 Zr1 2.958972 1_455
Al1 Mg6 3.080081 1_545
Al1 Mg7 3.080081 1_555
Al1 Mg3 3.110836 1_455
Al1 Mg4 3.110836 1_545
Al1 Mg3 3.110836 1_555
Al1 Mg4 3.110836 1_445
Al1 Mg2 3.204933 1_555
Al1 Mg2 3.204933 1_545
Al1 Mg0 3.295598 1_556
Al1 Mg1 3.295598 1_546
