# generated using pymatgen
data_Li4MnCo2O7
_symmetry_space_group_name_H-M   'P 1'
_cell_length_a   3.02920300
_cell_length_b   7.79574031
_cell_length_c   11.14985522
_cell_angle_alpha   79.56287174
_cell_angle_beta   83.40665545
_cell_angle_gamma   83.34820798
_symmetry_Int_Tables_number   1
_chemical_formula_structural   Li4MnCo2O7
_chemical_formula_sum   'Li8 Mn2 Co4 O14'
_cell_volume   256.01336623
_cell_formula_units_Z   2
loop_
 _symmetry_equiv_pos_site_id
 _symmetry_equiv_pos_as_xyz
  1  'x, y, z'
loop_
 _atom_site_type_symbol
 _atom_site_label
 _atom_site_symmetry_multiplicity
 _atom_site_fract_x
 _atom_site_fract_y
 _atom_site_fract_z
 _atom_site_occupancy
  Li  Li0  1  0.77939600  0.36057700  0.07805300  1
  Li  Li1  1  0.93027900  0.78659800  0.35412300  1
  Li  Li2  1  0.07108800  0.21337000  0.64023500  1
  Li  Li3  1  0.21592600  0.64248000  0.92881100  1
  Li  Li4  1  0.35343300  0.07119500  0.21896600  1
  Li  Li5  1  0.50395300  0.49598900  0.49670100  1
  Li  Li6  1  0.64707800  0.92863300  0.78322100  1
  Li  Li7  1  0.14360500  0.42721500  0.28629000  1
  Mn  Mn0  1  0.00301500  0.99593100  0.00276000  1
  Mn  Mn1  1  0.42450200  0.28997900  0.85627400  1
  Co  Co0  1  0.28648000  0.85740700  0.56891800  1
  Co  Co1  1  0.58159800  0.69954100  0.14909500  1
  Co  Co2  1  0.71375600  0.15487300  0.42470000  1
  Co  Co3  1  0.84969100  0.57473200  0.71139900  1
  O  O0  1  0.36692900  0.17812000  0.03040100  1
  O  O1  1  0.53126800  0.61978400  0.30614500  1
  O  O2  1  0.69699700  0.03573700  0.59184100  1
  O  O3  1  0.80029200  0.46643000  0.88093000  1
  O  O4  1  0.94901800  0.88361000  0.17178300  1
  O  O5  1  0.09995100  0.30708900  0.46116000  1
  O  O6  1  0.21330300  0.74935200  0.73909500  1
  O  O7  1  0.19643300  0.54822100  0.11101200  1
  O  O8  1  0.34591100  0.96942400  0.40212300  1
  O  O9  1  0.48389700  0.40187300  0.68556200  1
  O  O10  1  0.62638400  0.81793400  0.97956700  1
  O  O11  1  0.75430800  0.23469200  0.26771200  1
  O  O12  1  0.86515200  0.68302100  0.54404000  1
  O  O13  1  0.06635500  0.10619400  0.82908400  1
loop_
_geom_bond_atom_site_label_1
_geom_bond_atom_site_label_2
_geom_bond_distance
_geom_bond_site_symmetry_2
Li0 O7 2.144831 1_655
Li0 O11 2.160825 1_555
Li0 O0 2.169004 1_555
Li0 O3 2.199710 1_554
Li0 O7 2.200145 1_555
Li0 O0 2.223331 1_655
Li1 O4 2.033445 1_555
Li1 O1 2.050099 1_555
Li1 O12 2.120470 1_555
Li1 O8 2.179405 1_655
Li1 O1 2.184382 1_655
Li1 O8 2.219375 1_555
Li2 O5 1.993555 1_555
Li2 O2 2.065815 1_455
Li2 O13 2.119065 1_555
Li2 O9 2.195119 1_555
Li2 O9 2.244069 1_455
Li2 O2 2.287166 1_555
Li3 O7 2.027842 1_556
Li3 O6 2.128971 1_555
Li3 O10 2.138482 1_555
Li3 O3 2.138674 1_455
Li3 O3 2.188081 1_555
Li3 O10 2.205183 1_455
Li4 O11 2.038550 1_555
Li4 O8 2.051078 1_545
Li4 O0 2.114255 1_555
Li4 O11 2.168476 1_455
Li4 O4 2.181239 1_445
Li4 O4 2.262692 1_545
Li5 O12 2.093493 1_555
Li5 O9 2.097012 1_555
Li5 O5 2.136269 1_555
Li5 O1 2.165101 1_555
Li5 O5 2.239710 1_655
Li5 O12 2.353638 1_455
Li6 O2 2.140794 1_565
Li6 O13 2.145588 1_665
Li6 O6 2.153452 1_655
Li6 O6 2.178315 1_555
Li6 O13 2.181250 1_565
Li6 O10 2.199524 1_555
Li7 O5 2.001004 1_555
Li7 O7 2.007503 1_555
Li7 O11 2.065166 1_455
Li7 O1 2.066444 1_555
Li7 O11 2.258137 1_555
Li7 O1 2.263691 1_455
Mn0 O4 1.926040 1_455
Mn0 O10 1.964311 1_454
Mn0 O13 1.968598 1_564
Mn0 O0 1.981612 1_565
Mn0 O10 2.229106 1_554
Mn0 O0 2.283229 1_465
Mn1 O9 1.942269 1_555
Mn1 O3 1.958374 1_555
Mn1 O0 1.975930 1_556
Mn1 O13 1.978552 1_555
Mn1 O3 2.226695 1_455
Mn1 O13 2.302525 1_655
Co0 O8 1.903877 1_555
Co0 O6 1.930441 1_555
Co0 O2 2.036331 1_565
Co0 O12 2.043012 1_455
Co0 O12 2.114402 1_555
Co0 O2 2.153006 1_465
Co1 O1 1.744223 1_555
Co1 O7 1.883423 1_555
Co1 O10 1.944530 1_554
Co1 O4 1.981920 1_555
Co1 O7 2.128736 1_655
Co1 O4 2.275553 1_455
Co2 O11 1.743521 1_555
Co2 O5 1.883492 1_655
Co2 O2 1.923605 1_555
Co2 O8 1.991115 1_545
Co2 O5 2.126162 1_555
Co2 O8 2.280392 1_645
Co3 O12 1.901384 1_555
Co3 O9 1.920054 1_555
Co3 O3 1.922068 1_555
Co3 O6 1.933769 1_655
Co3 O9 2.236848 1_655
Co3 O6 2.252185 1_555
