# generated using pymatgen
data_K2Nd4MgNb2O12
_symmetry_space_group_name_H-M   'P 1'
_cell_length_a   5.84527922
_cell_length_b   7.00689843
_cell_length_c   8.78044342
_cell_angle_alpha   99.43334732
_cell_angle_beta   90.01835134
_cell_angle_gamma   114.62182551
_symmetry_Int_Tables_number   1
_chemical_formula_structural   K2Nd4MgNb2O12
_chemical_formula_sum   'K2 Nd4 Mg1 Nb2 O12'
_cell_volume   321.55907570
_cell_formula_units_Z   1
loop_
 _symmetry_equiv_pos_site_id
 _symmetry_equiv_pos_as_xyz
  1  'x, y, z'
loop_
 _atom_site_type_symbol
 _atom_site_label
 _atom_site_symmetry_multiplicity
 _atom_site_fract_x
 _atom_site_fract_y
 _atom_site_fract_z
 _atom_site_occupancy
  K  K0  1  0.11020800  0.22030100  0.45302200  1
  K  K1  1  0.91640500  0.83129200  0.60807400  1
  Nd  Nd0  1  0.14669100  0.29328200  0.94008100  1
  Nd  Nd1  1  0.54288500  0.08579700  0.18951300  1
  Nd  Nd2  1  0.41735000  0.83424600  0.79436500  1
  Nd  Nd3  1  0.87339000  0.74593300  0.03867300  1
  Mg  Mg0  1  0.78762000  0.57695700  0.31929000  1
  Nb  Nb0  1  0.67199800  0.34388200  0.69390900  1
  Nb  Nb1  1  0.31937400  0.64001000  0.29386000  1
  O  O0  1  0.00091500  0.55092200  0.82337800  1
  O  O1  1  0.14613000  0.84153400  0.29860800  1
  O  O2  1  0.24642100  0.00341000  0.98566600  1
  O  O3  1  0.79993900  0.13512100  0.70738300  1
  O  O4  1  0.69475700  0.84031800  0.29870300  1
  O  O5  1  0.75764900  0.00376600  0.98598900  1
  O  O6  1  0.33532100  0.13581000  0.70773700  1
  O  O7  1  0.96789000  0.42121700  0.18521200  1
  O  O8  1  0.69782900  0.39620000  0.48599700  1
  O  O9  1  0.33660500  0.67503000  0.51697600  1
  O  O10  1  0.45061900  0.41989500  0.18575400  1
  O  O11  1  0.55083600  0.55137600  0.82352400  1
loop_
_geom_bond_atom_site_label_1
_geom_bond_atom_site_label_2
_geom_bond_distance
_geom_bond_site_symmetry_2
K0 O9 2.849264 1_555
K0 O6 2.857478 1_555
K0 O3 2.858512 1_455
K0 O1 2.865477 1_545
K0 O4 2.872265 1_445
K0 O8 3.123409 1_555
K0 O8 3.126063 1_455
K0 O10 3.190986 1_555
K0 O7 3.203622 1_455
K1 O6 2.519437 1_665
K1 O3 2.521015 1_565
K1 Mg0 2.751685 1_555
K1 O8 2.785301 1_555
K1 O1 3.029469 1_655
K1 O4 3.030480 1_555
K1 O0 3.114910 1_655
K1 O11 3.117420 1_555
K1 O9 3.134731 1_655
K1 O9 3.153373 1_555
Nd0 O5 2.423586 1_455
Nd0 O2 2.424532 1_555
Nd0 O10 2.579394 1_556
Nd0 O7 2.584220 1_456
Nd0 O6 2.621529 1_555
Nd0 O3 2.625719 1_455
Nd0 O0 2.631090 1_555
Nd0 O11 2.635707 1_555
Nd1 O2 2.316380 1_554
Nd1 O5 2.316408 1_554
Nd1 O1 2.541014 1_545
Nd1 O4 2.545223 1_545
Nd1 O10 2.617161 1_555
Nd1 O7 2.619311 1_555
Nd1 O8 2.971331 1_555
Nd2 O2 2.357940 1_565
Nd2 O5 2.360618 1_565
Nd2 O11 2.461241 1_555
Nd2 O9 2.463598 1_555
Nd2 O0 2.463899 1_555
Nd2 O3 2.574764 1_565
Nd2 O6 2.577633 1_565
Nd3 O2 2.285592 1_664
Nd3 O5 2.286420 1_564
Nd3 O11 2.448219 1_554
Nd3 O0 2.449328 1_654
Nd3 O1 2.608845 1_655
Nd3 O4 2.611995 1_555
Nd3 O7 3.023880 1_555
Nd3 O10 3.042814 1_555
Mg0 O8 2.019037 1_555
Mg0 O7 2.055468 1_555
Mg0 O10 2.058015 1_555
Mg0 O4 2.162531 1_555
Mg0 O1 2.175948 1_655
Nb0 O8 1.913970 1_555
Nb0 O6 1.918505 1_555
Nb0 O3 1.918635 1_555
Nb0 O11 2.055896 1_555
Nb0 O0 2.056023 1_655
Nb1 O9 1.931311 1_555
Nb1 O1 2.047768 1_555
Nb1 O4 2.049524 1_555
Nb1 O10 2.091603 1_555
Nb1 O7 2.091946 1_455
