# generated using pymatgen
data_Al(CuO2)2
_symmetry_space_group_name_H-M   'P 1'
_cell_length_a   5.83147003
_cell_length_b   5.83147003
_cell_length_c   5.83147003
_cell_angle_alpha   60.00000000
_cell_angle_beta   60.00000000
_cell_angle_gamma   60.00000000
_symmetry_Int_Tables_number   1
_chemical_formula_structural   Al(CuO2)2
_chemical_formula_sum   'Al2 Cu4 O8'
_cell_volume   140.22296478
_cell_formula_units_Z   2
loop_
 _symmetry_equiv_pos_site_id
 _symmetry_equiv_pos_as_xyz
  1  'x, y, z'
loop_
 _atom_site_type_symbol
 _atom_site_label
 _atom_site_symmetry_multiplicity
 _atom_site_fract_x
 _atom_site_fract_y
 _atom_site_fract_z
 _atom_site_occupancy
  Al  Al0  1  0.75000000  0.75000000  0.75000000  1
  Al  Al1  1  0.50000000  0.50000000  0.50000000  1
  Cu  Cu0  1  0.12500000  0.12500000  0.62500000  1
  Cu  Cu1  1  0.12500000  0.12500000  0.12500000  1
  Cu  Cu2  1  0.12500000  0.62500000  0.12500000  1
  Cu  Cu3  1  0.62500000  0.12500000  0.12500000  1
  O  O0  1  0.87695800  0.36912700  0.87695800  1
  O  O1  1  0.88087300  0.37304200  0.37304200  1
  O  O2  1  0.37304200  0.37304200  0.88087300  1
  O  O3  1  0.37304200  0.37304200  0.37304200  1
  O  O4  1  0.36912700  0.87695800  0.87695800  1
  O  O5  1  0.37304200  0.88087300  0.37304200  1
  O  O6  1  0.87695800  0.87695800  0.36912700  1
  O  O7  1  0.87695800  0.87695800  0.87695800  1
loop_
_geom_bond_atom_site_label_1
_geom_bond_atom_site_label_2
_geom_bond_distance
_geom_bond_site_symmetry_2
Al0 O4 1.813479 1_555
Al0 O0 1.813479 1_555
Al0 O6 1.813479 1_555
Al0 O7 1.813484 1_555
Al1 O1 1.813479 1_555
Al1 O2 1.813479 1_555
Al1 O5 1.813479 1_555
Al1 O3 1.813484 1_555
Cu0 O3 2.045716 1_555
Cu0 O7 2.045716 1_445
Cu0 O0 2.045720 1_455
Cu0 O4 2.045720 1_545
Cu0 O5 2.045720 1_545
Cu0 O1 2.045720 1_455
Cu1 O4 2.045716 1_544
Cu1 O0 2.045716 1_454
Cu1 O1 2.045716 1_455
Cu1 O5 2.045716 1_545
Cu1 O2 2.045716 1_554
Cu1 O6 2.045716 1_445
Cu2 O3 2.045716 1_555
Cu2 O7 2.045716 1_454
Cu2 O6 2.045720 1_455
Cu2 O4 2.045720 1_554
Cu2 O2 2.045720 1_554
Cu2 O1 2.045720 1_455
Cu3 O3 2.045716 1_555
Cu3 O7 2.045716 1_544
Cu3 O6 2.045720 1_545
Cu3 O0 2.045720 1_554
Cu3 O5 2.045720 1_545
Cu3 O2 2.045720 1_554
