# generated using pymatgen
data_BaHo2NiO5
_symmetry_space_group_name_H-M   'P 1'
_cell_length_a   3.78935861
_cell_length_b   5.78512231
_cell_length_c   6.65924078
_cell_angle_alpha   115.74508494
_cell_angle_beta   106.53007885
_cell_angle_gamma   89.99999954
_symmetry_Int_Tables_number   1
_chemical_formula_structural   BaHo2NiO5
_chemical_formula_sum   'Ba1 Ho2 Ni1 O5'
_cell_volume   124.76003791
_cell_formula_units_Z   1
loop_
 _symmetry_equiv_pos_site_id
 _symmetry_equiv_pos_as_xyz
  1  'x, y, z'
loop_
 _atom_site_type_symbol
 _atom_site_label
 _atom_site_symmetry_multiplicity
 _atom_site_fract_x
 _atom_site_fract_y
 _atom_site_fract_z
 _atom_site_occupancy
  Ba  Ba0  1  0.49999900  0.50000000  0.00000000  1
  Ho  Ho0  1  0.29660300  0.79660300  0.59320500  1
  Ho  Ho1  1  0.70339800  0.20339800  0.40679500  1
  Ni  Ni0  1  0.00000000  0.00000000  0.00000000  1
  O  O0  1  0.50000100  0.00000000  0.00000000  1
  O  O1  1  0.15053700  0.91058700  0.30107500  1
  O  O2  1  0.84946300  0.08941200  0.69892500  1
  O  O3  1  0.84946200  0.60951100  0.69892500  1
  O  O4  1  0.15053800  0.39048700  0.30107500  1
loop_
_geom_bond_atom_site_label_1
_geom_bond_atom_site_label_2
_geom_bond_distance
_geom_bond_site_symmetry_2
Ba0 O0 2.892561 1_555
Ba0 O0 2.892561 1_565
Ba0 O3 2.964621 1_454
Ba0 O3 2.964623 1_554
Ba0 O1 2.964624 1_555
Ba0 O4 2.964624 1_555
Ba0 O2 2.964625 1_454
Ba0 O1 2.964626 1_655
Ba0 O2 2.964631 1_554
Ba0 O4 2.964632 1_655
Ho0 O1 2.242169 1_555
Ho0 O4 2.242177 1_555
Ho0 O0 2.315117 1_566
Ho0 O2 2.424608 1_465
Ho0 O2 2.424609 1_565
Ho0 O3 2.424616 1_555
Ho0 O3 2.424621 1_455
Ho1 O3 2.242165 1_555
Ho1 O2 2.242177 1_555
Ho1 O0 2.315117 1_555
Ho1 O4 2.424608 1_655
Ho1 O4 2.424609 1_555
Ho1 O1 2.424612 1_645
Ho1 O1 2.424618 1_545
Ni0 O0 1.894676 1_455
Ni0 O0 1.894683 1_555
Ni0 O2 2.205185 1_454
Ni0 O4 2.205185 1_555
Ni0 O1 2.205189 1_545
Ni0 O3 2.205193 1_444
