# generated using pymatgen
data_CaHgC4S4N4O3
_symmetry_space_group_name_H-M   'P 1'
_cell_length_a   23.39792800
_cell_length_b   7.34608700
_cell_length_c   9.76813641
_cell_angle_alpha   87.89343637
_cell_angle_beta   90.00000000
_cell_angle_gamma   90.00000000
_symmetry_Int_Tables_number   1
_chemical_formula_structural   CaHgC4S4N4O3
_chemical_formula_sum   'Ca4 Hg4 C16 S16 N16 O12'
_cell_volume   1677.84401628
_cell_formula_units_Z   4
loop_
 _symmetry_equiv_pos_site_id
 _symmetry_equiv_pos_as_xyz
  1  'x, y, z'
loop_
 _atom_site_type_symbol
 _atom_site_label
 _atom_site_symmetry_multiplicity
 _atom_site_fract_x
 _atom_site_fract_y
 _atom_site_fract_z
 _atom_site_occupancy
  Ca  Ca0  1  0.06509900  0.33788400  0.09880500  1
  Ca  Ca1  1  0.56509900  0.16211600  0.90119500  1
  Ca  Ca2  1  0.93490100  0.66211600  0.90119500  1
  Ca  Ca3  1  0.43490100  0.83788400  0.09880500  1
  Hg  Hg0  1  0.66422200  0.61000100  0.38482700  1
  Hg  Hg1  1  0.16422200  0.88999900  0.61517300  1
  Hg  Hg2  1  0.33577800  0.38999900  0.61517300  1
  Hg  Hg3  1  0.83577800  0.11000100  0.38482700  1
  C  C0  1  0.62854100  0.99064100  0.20923500  1
  C  C1  1  0.12854100  0.50935900  0.79076500  1
  C  C2  1  0.37145900  0.00935900  0.79076500  1
  C  C3  1  0.87145900  0.49064100  0.20923500  1
  C  C4  1  0.53127600  0.59528700  0.31397100  1
  C  C5  1  0.03127600  0.90471300  0.68602900  1
  C  C6  1  0.46872400  0.40471300  0.68602900  1
  C  C7  1  0.96872400  0.09528700  0.31397100  1
  C  C8  1  0.65180900  0.48270700  0.06334500  1
  C  C9  1  0.15180900  0.01729300  0.93665500  1
  C  C10  1  0.34819100  0.51729300  0.93665500  1
  C  C11  1  0.84819100  0.98270700  0.06334500  1
  C  C12  1  0.16820300  0.12466000  0.32910000  1
  C  C13  1  0.66820300  0.37534000  0.67090000  1
  C  C14  1  0.83179700  0.87534000  0.67090000  1
  C  C15  1  0.33179700  0.62466000  0.32910000  1
  S  S0  1  0.65064300  0.96786700  0.36788100  1
  S  S1  1  0.15064300  0.53213300  0.63211900  1
  S  S2  1  0.34935700  0.03213300  0.63211900  1
  S  S3  1  0.84935700  0.46786700  0.36788100  1
  S  S4  1  0.06608800  0.05709300  0.59129400  1
  S  S5  1  0.56608800  0.44290700  0.40870600  1
  S  S6  1  0.93391200  0.94290700  0.40870600  1
  S  S7  1  0.43391200  0.55709300  0.59129400  1
  S  S8  1  0.70810400  0.55363600  0.14766000  1
  S  S9  1  0.20810400  0.94636400  0.85234000  1
  S  S10  1  0.29189600  0.44636400  0.85234000  1
  S  S11  1  0.79189600  0.05363600  0.14766000  1
  S  S12  1  0.28646600  0.46716200  0.38460900  1
  S  S13  1  0.78646600  0.03283800  0.61539100  1
  S  S14  1  0.71353400  0.53283800  0.61539100  1
  S  S15  1  0.21353400  0.96716200  0.38460900  1
  N  N0  1  0.61361300  0.01489800  0.09448400  1
  N  N1  1  0.11361300  0.48510200  0.90551600  1
  N  N2  1  0.38638700  0.98510200  0.90551600  1
  N  N3  1  0.88638700  0.51489800  0.09448400  1
  N  N4  1  0.50426500  0.70222900  0.24851100  1
  N  N5  1  0.00426500  0.79777100  0.75148900  1
  N  N6  1  0.49573500  0.29777100  0.75148900  1
  N  N7  1  0.99573500  0.20222900  0.24851100  1
  N  N8  1  0.11329800  0.07214300  0.00131000  1
  N  N9  1  0.61329800  0.42785700  0.99869000  1
  N  N10  1  0.88670200  0.92785700  0.99869000  1
  N  N11  1  0.38670200  0.57214300  0.00131000  1
  N  N12  1  0.13678700  0.23736300  0.28402300  1
  N  N13  1  0.63678700  0.26263700  0.71597700  1
  N  N14  1  0.86321300  0.76263700  0.71597700  1
  N  N15  1  0.36321300  0.73736300  0.28402300  1
  O  O0  1  0.00175400  0.59786600  0.07870000  1
  O  O1  1  0.50175400  0.90213400  0.92130000  1
  O  O2  1  0.99824600  0.40213400  0.92130000  1
  O  O3  1  0.49824600  0.09786600  0.07870000  1
  O  O4  1  0.59028900  0.84761400  0.71939600  1
  O  O5  1  0.09028900  0.65238600  0.28060400  1
  O  O6  1  0.40971100  0.15238600  0.28060400  1
  O  O7  1  0.90971100  0.34761400  0.71939600  1
  O  O8  1  0.63442900  0.85419500  0.78875800  1
  O  O9  1  0.13442900  0.64580500  0.21124200  1
  O  O10  1  0.36557100  0.14580500  0.21124200  1
  O  O11  1  0.86557100  0.35419500  0.78875800  1
loop_
_geom_bond_atom_site_label_1
_geom_bond_atom_site_label_2
_geom_bond_distance
_geom_bond_site_symmetry_2
Ca0 O2 2.369764 1_454
Ca0 N7 2.378750 1_455
Ca0 O0 2.419766 1_555
Ca0 N1 2.423388 1_554
Ca0 N8 2.475154 1_555
Ca0 N12 2.556150 1_555
Ca0 O9 3.022760 1_555
Ca0 O5 3.023304 1_555
Ca1 O3 2.369764 1_556
Ca1 N6 2.378750 1_555
Ca1 O1 2.419766 1_545
Ca1 N0 2.423388 1_556
Ca1 N9 2.475154 1_555
Ca1 N13 2.556150 1_555
Ca1 O8 3.022760 1_545
Ca1 O4 3.023304 1_545
Ca2 O0 2.369764 1_656
Ca2 N5 2.378750 1_655
Ca2 O2 2.419766 1_555
Ca2 N3 2.423388 1_556
Ca2 N10 2.475154 1_555
Ca2 N14 2.556150 1_555
Ca2 O11 3.022760 1_555
Ca2 O7 3.023304 1_555
Ca3 O1 2.369764 1_554
Ca3 N4 2.378750 1_555
Ca3 O3 2.419766 1_565
Ca3 N2 2.423388 1_554
Ca3 N11 2.475154 1_555
Ca3 N15 2.556150 1_555
Ca3 O10 3.022760 1_565
Ca3 O6 3.023304 1_565
Hg0 S14 2.575079 1_555
Hg0 S8 2.581314 1_555
Hg0 S5 2.610039 1_555
Hg0 S0 2.647177 1_555
Hg1 S15 2.575079 1_555
Hg1 S9 2.581314 1_555
Hg1 S4 2.610039 1_565
Hg1 S1 2.647177 1_555
Hg2 S12 2.575079 1_555
Hg2 S10 2.581314 1_555
Hg2 S7 2.610039 1_555
Hg2 S2 2.647177 1_555
Hg3 S13 2.575079 1_555
Hg3 S11 2.581314 1_555
Hg3 S6 2.610039 1_545
Hg3 S3 2.647177 1_555
C0 N0 1.181310 1_565
C0 S0 1.636417 1_555
C1 N1 1.181310 1_555
C1 S1 1.636417 1_555
C2 N2 1.181310 1_545
C2 S2 1.636417 1_555
C3 N3 1.181310 1_555
C3 S3 1.636417 1_555
C4 N4 1.178360 1_555
C4 S5 1.642160 1_555
C5 N5 1.178360 1_555
C5 S4 1.642160 1_565
C6 N6 1.178360 1_555
C6 S7 1.642160 1_555
C7 N7 1.178360 1_555
C7 S6 1.642160 1_545
C8 N9 1.179776 1_554
C8 S8 1.648132 1_555
C9 N8 1.179776 1_556
C9 S9 1.648132 1_545
C10 N11 1.179776 1_556
C10 S10 1.648132 1_555
C11 N10 1.179776 1_554
C11 S11 1.648132 1_565
C12 N12 1.180198 1_555
C12 S15 1.646663 1_545
C13 N13 1.180198 1_555
C13 S14 1.646663 1_555
C14 N14 1.180198 1_555
C14 S13 1.646663 1_565
C15 N15 1.180198 1_555
C15 S12 1.646663 1_555
O4 O8 1.237112 1_555
O5 O9 1.237112 1_555
O10 O6 1.237112 1_555
O11 O7 1.237112 1_555
