# generated using pymatgen
data_Ba2Cd(BO3)2
_symmetry_space_group_name_H-M   'P 1'
_cell_length_a   5.40449900
_cell_length_b   5.59748968
_cell_length_c   6.76680869
_cell_angle_alpha   114.23367959
_cell_angle_beta   90.00000000
_cell_angle_gamma   118.86587472
_symmetry_Int_Tables_number   1
_chemical_formula_structural   Ba2Cd(BO3)2
_chemical_formula_sum   'Ba2 Cd1 B2 O6'
_cell_volume   158.36241231
_cell_formula_units_Z   1
loop_
 _symmetry_equiv_pos_site_id
 _symmetry_equiv_pos_as_xyz
  1  'x, y, z'
loop_
 _atom_site_type_symbol
 _atom_site_label
 _atom_site_symmetry_multiplicity
 _atom_site_fract_x
 _atom_site_fract_y
 _atom_site_fract_z
 _atom_site_occupancy
  Ba  Ba0  1  0.21007500  0.42015000  0.68957100  1
  Ba  Ba1  1  0.78992500  0.57985000  0.31042900  1
  Cd  Cd0  1  0.00000000  0.00000000  0.00000000  1
  B  B0  1  0.56070500  0.12140900  0.76189800  1
  B  B1  1  0.43929500  0.87859100  0.23810200  1
  O  O0  1  0.25569100  0.95802100  0.72830400  1
  O  O1  1  0.70233000  0.95802100  0.72830400  1
  O  O2  1  0.74430900  0.04197900  0.27169600  1
  O  O3  1  0.29767000  0.04197900  0.27169600  1
  O  O4  1  0.71771600  0.43543200  0.82648200  1
  O  O5  1  0.28228400  0.56456800  0.17351800  1
loop_
_geom_bond_atom_site_label_1
_geom_bond_atom_site_label_2
_geom_bond_distance
_geom_bond_site_symmetry_2
Ba0 O0 2.798126 1_555
Ba0 O1 2.798127 1_555
Ba0 O0 2.827210 1_545
Ba0 O1 2.827210 1_445
Ba0 O4 2.846229 1_455
Ba0 O4 2.846229 1_555
Ba0 O3 2.958816 1_555
Ba0 O2 2.958816 1_455
Ba0 O5 3.008680 1_556
Ba1 O2 2.798126 1_555
Ba1 O3 2.798127 1_555
Ba1 O2 2.827210 1_565
Ba1 O3 2.827210 1_665
Ba1 O5 2.846229 1_655
Ba1 O5 2.846229 1_555
Ba1 O1 2.958816 1_555
Ba1 O0 2.958816 1_655
Ba1 O4 3.008680 1_554
Cd0 O2 2.303002 1_455
Cd0 O0 2.303002 1_544
Cd0 O1 2.303002 1_444
Cd0 O3 2.303002 1_555
Cd0 O4 2.447809 1_444
Cd0 O5 2.447809 1_555
B0 O4 1.389231 1_555
B0 O1 1.406829 1_545
B0 O0 1.406834 1_545
B1 O5 1.389231 1_555
B1 O3 1.406829 1_565
B1 O2 1.406834 1_565
