# generated using pymatgen
data_BiAsO2
_symmetry_space_group_name_H-M   'P 1'
_cell_length_a   7.62013823
_cell_length_b   7.62013823
_cell_length_c   7.62013823
_cell_angle_alpha   128.65835681
_cell_angle_beta   128.65835681
_cell_angle_gamma   75.56091665
_symmetry_Int_Tables_number   1
_chemical_formula_structural   BiAsO2
_chemical_formula_sum   'Bi4 As4 O8'
_cell_volume   262.51425157
_cell_formula_units_Z   4
loop_
 _symmetry_equiv_pos_site_id
 _symmetry_equiv_pos_as_xyz
  1  'x, y, z'
loop_
 _atom_site_type_symbol
 _atom_site_label
 _atom_site_symmetry_multiplicity
 _atom_site_fract_x
 _atom_site_fract_y
 _atom_site_fract_z
 _atom_site_occupancy
  Bi  Bi0  1  0.87500000  0.62500000  0.25000000  1
  Bi  Bi1  1  0.37500000  0.62500000  0.75000000  1
  Bi  Bi2  1  0.37500000  0.62500000  0.25000000  1
  Bi  Bi3  1  0.37500000  0.12500000  0.75000000  1
  As  As0  1  0.37500000  0.12500000  0.25000000  1
  As  As1  1  0.87500000  0.12500000  0.75000000  1
  As  As2  1  0.87500000  0.12500000  0.25000000  1
  As  As3  1  0.87500000  0.62500000  0.75000000  1
  O  O0  1  0.17203600  0.39963100  0.22759600  1
  O  O1  1  0.17203600  0.94444000  0.77240400  1
  O  O2  1  0.14963100  0.42203600  0.72759600  1
  O  O3  1  0.57796400  0.85036900  0.27240400  1
  O  O4  1  0.69444000  0.42203600  0.27240400  1
  O  O5  1  0.57796400  0.30556000  0.72759600  1
  O  O6  1  0.60036900  0.82796400  0.77240400  1
  O  O7  1  0.05556000  0.82796400  0.22759600  1
loop_
_geom_bond_atom_site_label_1
_geom_bond_atom_site_label_2
_geom_bond_distance
_geom_bond_site_symmetry_2
Bi0 O4 2.449246 1_555
Bi0 O7 2.449246 1_655
Bi0 O1 2.505911 1_655
Bi0 O5 2.505911 1_554
Bi0 O3 2.505915 1_555
Bi0 O0 2.505915 1_655
Bi1 O2 2.449252 1_555
Bi1 O6 2.449252 1_555
Bi1 O3 2.505910 1_556
Bi1 O0 2.505910 1_555
Bi1 O1 2.505911 1_555
Bi1 O5 2.505911 1_555
Bi2 O0 2.449252 1_555
Bi2 O3 2.449252 1_555
Bi2 O6 2.505910 1_555
Bi2 O2 2.505910 1_554
Bi2 O4 2.505911 1_555
Bi2 O7 2.505911 1_555
Bi3 O5 2.449246 1_555
Bi3 O1 2.449246 1_545
Bi3 O4 2.505911 1_556
Bi3 O7 2.505911 1_545
Bi3 O6 2.505915 1_545
Bi3 O2 2.505915 1_555
As0 O3 2.302831 1_545
As0 O0 2.302831 1_555
As0 O5 2.302837 1_555
As0 O1 2.302837 1_544
As1 O3 2.302835 1_545
As1 O0 2.302835 1_656
As1 O5 2.302837 1_555
As1 O1 2.302837 1_645
As2 O6 2.302835 1_544
As2 O2 2.302835 1_655
As2 O7 2.302837 1_645
As2 O4 2.302837 1_555
As3 O6 2.302831 1_555
As3 O2 2.302831 1_655
As3 O7 2.302837 1_656
As3 O4 2.302837 1_555
