# generated using pymatgen
data_Na2SiO12
_symmetry_space_group_name_H-M   'P 1'
_cell_length_a   7.49846500
_cell_length_b   13.37828500
_cell_length_c   11.55455331
_cell_angle_alpha   125.37449533
_cell_angle_beta   108.93412919
_cell_angle_gamma   90.00000000
_symmetry_Int_Tables_number   1
_chemical_formula_structural   Na2SiO12
_chemical_formula_sum   'Na8 Si4 O48'
_cell_volume   867.06477924
_cell_formula_units_Z   4
loop_
 _symmetry_equiv_pos_site_id
 _symmetry_equiv_pos_as_xyz
  1  'x, y, z'
loop_
 _atom_site_type_symbol
 _atom_site_label
 _atom_site_symmetry_multiplicity
 _atom_site_fract_x
 _atom_site_fract_y
 _atom_site_fract_z
 _atom_site_occupancy
  Na  Na0  1  0.76462200  0.44555500  0.74343000  1
  Na  Na1  1  0.73537800  0.70212500  0.25657000  1
  Na  Na2  1  0.97880800  0.79787500  0.74343000  1
  Na  Na3  1  0.52119200  0.05444500  0.25657000  1
  Na  Na4  1  0.23537800  0.55444500  0.25657000  1
  Na  Na5  1  0.26462200  0.29787500  0.74343000  1
  Na  Na6  1  0.02119200  0.20212500  0.25657000  1
  Na  Na7  1  0.47880800  0.94555500  0.74343000  1
  Si  Si0  1  0.75000000  0.91809400  0.00000000  1
  Si  Si1  1  0.25000000  0.58190600  0.00000000  1
  Si  Si2  1  0.25000000  0.08190600  0.00000000  1
  Si  Si3  1  0.75000000  0.41809400  0.00000000  1
  O  O0  1  0.55783600  0.78645800  0.92236400  1
  O  O1  1  0.94216400  0.86409500  0.07763600  1
  O  O2  1  0.36452700  0.63590500  0.92236400  1
  O  O3  1  0.13547300  0.71354200  0.07763600  1
  O  O4  1  0.44216400  0.21354200  0.07763600  1
  O  O5  1  0.05783600  0.13590500  0.92236400  1
  O  O6  1  0.63547300  0.36409500  0.07763600  1
  O  O7  1  0.86452700  0.28645800  0.92236400  1
  O  O8  1  0.75440600  0.89472600  0.85122900  1
  O  O9  1  0.74559400  0.04349700  0.14877100  1
  O  O10  1  0.09682300  0.45650300  0.85122900  1
  O  O11  1  0.40317700  0.60527400  0.14877100  1
  O  O12  1  0.24559400  0.10527400  0.14877100  1
  O  O13  1  0.25440600  0.95650300  0.85122900  1
  O  O14  1  0.90317700  0.54349700  0.14877100  1
  O  O15  1  0.59682300  0.39472600  0.85122900  1
  O  O16  1  0.95168200  0.68550800  0.05123600  1
  O  O17  1  0.54831800  0.63427300  0.94876400  1
  O  O18  1  0.09955400  0.86572700  0.05123600  1
  O  O19  1  0.40044600  0.81449200  0.94876400  1
  O  O20  1  0.04831800  0.31449200  0.94876400  1
  O  O21  1  0.45168200  0.36572700  0.05123600  1
  O  O22  1  0.90044600  0.13427300  0.94876400  1
  O  O23  1  0.59955400  0.18550800  0.05123600  1
  O  O24  1  0.35373100  0.41273200  0.55328100  1
  O  O25  1  0.14626900  0.85945200  0.44671900  1
  O  O26  1  0.19955000  0.64054800  0.55328100  1
  O  O27  1  0.30045000  0.08726800  0.44671900  1
  O  O28  1  0.64626900  0.58726800  0.44671900  1
  O  O29  1  0.85373100  0.14054800  0.55328100  1
  O  O30  1  0.80045000  0.35945200  0.44671900  1
  O  O31  1  0.69955000  0.91273200  0.55328100  1
  O  O32  1  0.34854400  0.70408900  0.56546700  1
  O  O33  1  0.15145600  0.13862200  0.43453300  1
  O  O34  1  0.21692300  0.36137800  0.56546700  1
  O  O35  1  0.28307700  0.79591100  0.43453300  1
  O  O36  1  0.65145600  0.29591100  0.43453300  1
  O  O37  1  0.84854400  0.86137800  0.56546700  1
  O  O38  1  0.78307700  0.63862200  0.43453300  1
  O  O39  1  0.71692300  0.20408900  0.56546700  1
  O  O40  1  0.69505600  0.60933800  0.58091900  1
  O  O41  1  0.80494400  0.02841900  0.41908100  1
  O  O42  1  0.88586300  0.47158100  0.58091900  1
  O  O43  1  0.61413700  0.89066200  0.41908100  1
  O  O44  1  0.30494400  0.39066200  0.41908100  1
  O  O45  1  0.19505600  0.97158100  0.58091900  1
  O  O46  1  0.11413700  0.52841900  0.41908100  1
  O  O47  1  0.38586300  0.10933800  0.58091900  1
loop_
_geom_bond_atom_site_label_1
_geom_bond_atom_site_label_2
_geom_bond_distance
_geom_bond_site_symmetry_2
Na0 O10 2.356522 1_655
Na0 O15 2.365322 1_555
Na0 O42 2.517634 1_555
Na0 O39 2.573589 1_555
Na0 O36 2.688538 1_555
Na0 O16 2.909484 1_556
Na0 O24 3.000467 1_555
Na1 O11 2.356522 1_555
Na1 O14 2.365322 1_555
Na1 O43 2.517634 1_555
Na1 O38 2.573589 1_555
Na1 O37 2.688538 1_555
Na1 O17 2.909489 1_554
Na1 O25 3.000470 1_655
Na2 O8 2.356522 1_555
Na2 O13 2.365322 1_655
Na2 O40 2.517634 1_555
Na2 O37 2.573589 1_555
Na2 O38 2.688538 1_555
Na2 O18 2.909489 1_656
Na2 O26 3.000470 1_655
Na3 O9 2.356522 1_555
Na3 O12 2.365322 1_555
Na3 O41 2.517634 1_555
Na3 O36 2.573589 1_555
Na3 O39 2.688538 1_555
Na3 O19 2.909484 1_544
Na3 O27 3.000466 1_555
Na4 O14 2.356522 1_455
Na4 O11 2.365322 1_555
Na4 O46 2.517634 1_555
Na4 O35 2.573589 1_555
Na4 O32 2.688538 1_555
Na4 O20 2.909484 1_554
Na4 O28 3.000467 1_555
Na5 O15 2.356522 1_555
Na5 O10 2.365322 1_555
Na5 O47 2.517634 1_555
Na5 O34 2.573589 1_555
Na5 O33 2.688538 1_555
Na5 O21 2.909489 1_556
Na5 O29 3.000470 1_455
Na6 O12 2.356522 1_555
Na6 O9 2.365322 1_455
Na6 O44 2.517634 1_555
Na6 O33 2.573589 1_555
Na6 O34 2.688538 1_555
Na6 O22 2.909489 1_454
Na6 O30 3.000470 1_455
Na7 O13 2.356522 1_555
Na7 O8 2.365322 1_555
Na7 O45 2.517634 1_555
Na7 O32 2.573589 1_555
Na7 O35 2.688538 1_555
Na7 O23 2.909484 1_566
Na7 O31 3.000466 1_555
O0 O19 1.314424 1_555
O0 Si0 1.820547 1_556
O1 O18 1.314420 1_655
O1 Si0 1.820538 1_555
O2 Si1 1.820533 1_556
O3 Si1 1.820542 1_555
O4 Si2 1.820547 1_555
O5 Si2 1.820538 1_556
O6 Si3 1.820533 1_555
O7 Si3 1.820542 1_556
O8 Si0 1.571104 1_556
O9 Si0 1.571104 1_545
O10 Si1 1.571104 1_556
O11 Si1 1.571104 1_555
O12 Si2 1.571104 1_555
O13 Si2 1.571104 1_566
O14 Si3 1.571104 1_555
O15 Si3 1.571104 1_556
O16 O3 1.314431 1_655
O17 O2 1.314427 1_555
O20 O7 1.314431 1_455
O21 O6 1.314427 1_555
O22 O5 1.314420 1_655
O23 O4 1.314424 1_555
O24 O44 1.314232 1_555
O24 O34 1.322855 1_555
O25 O45 1.314226 1_555
O25 O35 1.322863 1_555
O26 O46 1.314226 1_555
O26 O32 1.322863 1_555
O27 O47 1.314232 1_555
O27 O33 1.322855 1_555
O28 O40 1.314232 1_555
O28 O38 1.322855 1_555
O29 O41 1.314226 1_555
O29 O39 1.322863 1_555
O30 O42 1.314226 1_555
O30 O36 1.322863 1_555
O31 O43 1.314232 1_555
O31 O37 1.322855 1_555
