# generated using pymatgen
data_U6Al43W4
_symmetry_space_group_name_H-M   'P 1'
_cell_length_a   11.01271306
_cell_length_b   11.01271306
_cell_length_c   17.55068400
_cell_angle_alpha   90.00000000
_cell_angle_beta   90.00000000
_cell_angle_gamma   119.99999434
_symmetry_Int_Tables_number   1
_chemical_formula_structural   U6Al43W4
_chemical_formula_sum   'U12 Al86 W8'
_cell_volume   1843.37354492
_cell_formula_units_Z   2
loop_
 _symmetry_equiv_pos_site_id
 _symmetry_equiv_pos_as_xyz
  1  'x, y, z'
loop_
 _atom_site_type_symbol
 _atom_site_label
 _atom_site_symmetry_multiplicity
 _atom_site_fract_x
 _atom_site_fract_y
 _atom_site_fract_z
 _atom_site_occupancy
  U  U0  1  0.47616700  0.47616700  0.91125200  1
  U  U1  1  0.52383300  0.00000000  0.91125200  1
  U  U2  1  0.00000000  0.52383300  0.91125200  1
  U  U3  1  0.52383300  0.52383300  0.08874800  1
  U  U4  1  0.47616700  0.00000000  0.08874800  1
  U  U5  1  0.00000000  0.47616700  0.08874800  1
  U  U6  1  0.52383300  0.52383300  0.41125200  1
  U  U7  1  0.47616700  0.00000000  0.41125200  1
  U  U8  1  0.00000000  0.47616700  0.41125200  1
  U  U9  1  0.47616700  0.47616700  0.58874800  1
  U  U10  1  0.52383300  0.00000000  0.58874800  1
  U  U11  1  0.00000000  0.52383300  0.58874800  1
  Al  Al0  1  0.84090500  0.23532700  0.83701300  1
  Al  Al1  1  0.76467300  0.60557800  0.83701300  1
  Al  Al2  1  0.39442200  0.15909500  0.83701300  1
  Al  Al3  1  0.23532700  0.84090500  0.83701300  1
  Al  Al4  1  0.60557800  0.76467300  0.83701300  1
  Al  Al5  1  0.15909500  0.39442200  0.83701300  1
  Al  Al6  1  0.15909500  0.76467300  0.16298700  1
  Al  Al7  1  0.23532700  0.39442200  0.16298700  1
  Al  Al8  1  0.60557800  0.84090500  0.16298700  1
  Al  Al9  1  0.76467300  0.15909500  0.16298700  1
  Al  Al10  1  0.39442200  0.23532700  0.16298700  1
  Al  Al11  1  0.84090500  0.60557800  0.16298700  1
  Al  Al12  1  0.15909500  0.76467300  0.33701300  1
  Al  Al13  1  0.23532700  0.39442200  0.33701300  1
  Al  Al14  1  0.60557800  0.84090500  0.33701300  1
  Al  Al15  1  0.76467300  0.15909500  0.33701300  1
  Al  Al16  1  0.39442200  0.23532700  0.33701300  1
  Al  Al17  1  0.84090500  0.60557800  0.33701300  1
  Al  Al18  1  0.84090500  0.23532700  0.66298700  1
  Al  Al19  1  0.76467300  0.60557800  0.66298700  1
  Al  Al20  1  0.39442200  0.15909500  0.66298700  1
  Al  Al21  1  0.23532700  0.84090500  0.66298700  1
  Al  Al22  1  0.60557800  0.76467300  0.66298700  1
  Al  Al23  1  0.15909500  0.39442200  0.66298700  1
  Al  Al24  1  0.83591600  0.83591600  0.38669100  1
  Al  Al25  1  0.16408400  0.00000000  0.38669100  1
  Al  Al26  1  0.00000000  0.16408400  0.38669100  1
  Al  Al27  1  0.16408400  0.16408400  0.61330900  1
  Al  Al28  1  0.83591600  0.00000000  0.61330900  1
  Al  Al29  1  0.00000000  0.83591600  0.61330900  1
  Al  Al30  1  0.16408400  0.16408400  0.88669100  1
  Al  Al31  1  0.83591600  0.00000000  0.88669100  1
  Al  Al32  1  0.00000000  0.83591600  0.88669100  1
  Al  Al33  1  0.83591600  0.83591600  0.11330900  1
  Al  Al34  1  0.16408400  0.00000000  0.11330900  1
  Al  Al35  1  0.00000000  0.16408400  0.11330900  1
  Al  Al36  1  0.74311200  0.74311200  0.97082500  1
  Al  Al37  1  0.25688800  0.00000000  0.97082500  1
  Al  Al38  1  0.00000000  0.25688800  0.97082500  1
  Al  Al39  1  0.25688800  0.25688800  0.02917500  1
  Al  Al40  1  0.74311200  0.00000000  0.02917500  1
  Al  Al41  1  0.00000000  0.74311200  0.02917500  1
  Al  Al42  1  0.25688800  0.25688800  0.47082500  1
  Al  Al43  1  0.74311200  0.00000000  0.47082500  1
  Al  Al44  1  0.00000000  0.74311200  0.47082500  1
  Al  Al45  1  0.74311200  0.74311200  0.52917500  1
  Al  Al46  1  0.25688800  0.00000000  0.52917500  1
  Al  Al47  1  0.00000000  0.25688800  0.52917500  1
  Al  Al48  1  0.85579700  0.44785800  0.75000000  1
  Al  Al49  1  0.55214200  0.40794000  0.75000000  1
  Al  Al50  1  0.59206000  0.14420300  0.75000000  1
  Al  Al51  1  0.44785800  0.85579700  0.75000000  1
  Al  Al52  1  0.40794000  0.55214200  0.75000000  1
  Al  Al53  1  0.14420300  0.59206000  0.75000000  1
  Al  Al54  1  0.14420300  0.55214200  0.25000000  1
  Al  Al55  1  0.44785800  0.59206000  0.25000000  1
  Al  Al56  1  0.40794000  0.85579700  0.25000000  1
  Al  Al57  1  0.55214200  0.14420300  0.25000000  1
  Al  Al58  1  0.59206000  0.44785800  0.25000000  1
  Al  Al59  1  0.85579700  0.40794000  0.25000000  1
  Al  Al60  1  0.75325500  0.24674500  0.00000000  1
  Al  Al61  1  0.75325500  0.50650900  0.00000000  1
  Al  Al62  1  0.49349100  0.24674500  0.00000000  1
  Al  Al63  1  0.24674500  0.75325500  0.00000000  1
  Al  Al64  1  0.50650900  0.75325500  0.00000000  1
  Al  Al65  1  0.24674500  0.49349100  0.00000000  1
  Al  Al66  1  0.24674500  0.75325500  0.50000000  1
  Al  Al67  1  0.24674500  0.49349100  0.50000000  1
  Al  Al68  1  0.50650900  0.75325500  0.50000000  1
  Al  Al69  1  0.75325500  0.24674500  0.50000000  1
  Al  Al70  1  0.49349100  0.24674500  0.50000000  1
  Al  Al71  1  0.75325500  0.50650900  0.50000000  1
  Al  Al72  1  0.66666700  0.33333300  0.87276100  1
  Al  Al73  1  0.33333300  0.66666700  0.87276100  1
  Al  Al74  1  0.33333300  0.66666700  0.12723900  1
  Al  Al75  1  0.66666700  0.33333300  0.12723900  1
  Al  Al76  1  0.33333300  0.66666700  0.37276100  1
  Al  Al77  1  0.66666700  0.33333300  0.37276100  1
  Al  Al78  1  0.66666700  0.33333300  0.62723900  1
  Al  Al79  1  0.33333300  0.66666700  0.62723900  1
  Al  Al80  1  0.85311800  0.85311800  0.75000000  1
  Al  Al81  1  0.14688200  0.00000000  0.75000000  1
  Al  Al82  1  0.00000000  0.14688200  0.75000000  1
  Al  Al83  1  0.14688200  0.14688200  0.25000000  1
  Al  Al84  1  0.85311800  0.00000000  0.25000000  1
  Al  Al85  1  0.00000000  0.85311800  0.25000000  1
  W  W0  1  0.27065300  0.27065300  0.75000000  1
  W  W1  1  0.72934700  0.00000000  0.75000000  1
  W  W2  1  0.00000000  0.72934700  0.75000000  1
  W  W3  1  0.72934700  0.72934700  0.25000000  1
  W  W4  1  0.27065300  0.00000000  0.25000000  1
  W  W5  1  0.00000000  0.27065300  0.25000000  1
  W  W6  1  0.00000000  0.00000000  0.00000000  1
  W  W7  1  0.00000000  0.00000000  0.50000000  1
loop_
_geom_bond_atom_site_label_1
_geom_bond_atom_site_label_2
_geom_bond_distance
_geom_bond_site_symmetry_2
U0 U3 3.159094 1_556
U0 W0 3.623775 1_555
U1 U4 3.159094 1_556
U1 W1 3.623775 1_555
U2 U5 3.159094 1_556
U2 W2 3.623775 1_555
U3 W3 3.623775 1_555
U4 W4 3.623775 1_555
U5 W5 3.623775 1_555
U6 U9 3.159094 1_555
U6 W3 3.623775 1_555
U7 W4 3.623775 1_555
U8 W5 3.623775 1_555
U9 W0 3.623775 1_555
U10 U7 3.159094 1_555
U10 W1 3.623775 1_555
U11 U8 3.159094 1_555
U11 W2 3.623775 1_555
Al0 Al72 2.703976 1_555
Al0 Al31 2.708716 1_555
Al0 W1 2.715496 1_555
Al0 Al48 2.730080 1_555
Al0 Al82 2.838512 1_655
Al0 Al50 2.845911 1_555
Al0 Al38 2.868016 1_655
Al0 Al5 3.034670 1_655
Al0 Al60 3.041640 1_556
Al0 U2 3.048851 1_655
Al0 Al18 3.054275 1_555
Al0 U1 3.399626 1_555
Al1 Al72 2.703986 1_555
Al1 Al32 2.708716 1_655
Al1 W2 2.715496 1_655
Al1 Al49 2.730076 1_555
Al1 Al80 2.838512 1_555
Al1 Al48 2.845902 1_555
Al1 Al36 2.868016 1_555
Al1 Al4 3.034670 1_555
Al1 Al61 3.041644 1_556
Al1 U0 3.048851 1_555
Al1 Al19 3.054275 1_555
Al1 U2 3.399626 1_655
Al2 Al72 2.703985 1_555
Al2 Al30 2.708716 1_555
Al2 W0 2.715496 1_555
Al2 Al50 2.730071 1_555
Al2 Al81 2.838512 1_555
Al2 Al49 2.845910 1_555
Al2 Al37 2.868016 1_555
Al2 Al3 3.034670 1_545
Al2 Al62 3.041642 1_556
Al2 U1 3.048851 1_555
Al2 Al20 3.054275 1_555
Al2 U0 3.399626 1_555
Al3 Al73 2.703976 1_555
Al3 Al32 2.708716 1_555
Al3 W2 2.715496 1_555
Al3 Al51 2.730080 1_555
Al3 Al81 2.838512 1_565
Al3 Al53 2.845911 1_555
Al3 Al37 2.868016 1_565
Al3 Al63 3.041640 1_556
Al3 U1 3.048851 1_565
Al3 U2 3.399626 1_555
Al4 Al73 2.703986 1_555
Al4 W1 2.715496 1_565
Al4 Al52 2.730076 1_555
Al4 Al80 2.838512 1_555
Al4 Al51 2.845902 1_555
Al4 Al64 3.041644 1_556
Al4 U0 3.048851 1_555
Al4 U1 3.399626 1_565
Al5 Al73 2.703985 1_555
Al5 W0 2.715496 1_555
Al5 Al53 2.730071 1_555
Al5 Al82 2.838512 1_555
Al5 Al52 2.845910 1_555
Al5 Al65 3.041642 1_556
Al5 U2 3.048851 1_555
Al5 U0 3.399626 1_555
Al6 Al74 2.703976 1_555
Al6 W4 2.715496 1_565
Al6 Al85 2.838512 1_555
Al6 Al63 3.041640 1_555
Al6 U5 3.048851 1_555
Al6 U4 3.399626 1_565
Al7 Al74 2.703986 1_555
Al7 W5 2.715496 1_555
Al7 Al83 2.838512 1_555
Al7 U3 3.048851 1_555
Al7 U5 3.399626 1_555
Al8 W3 2.715496 1_555
Al8 Al84 2.838512 1_565
Al8 Al9 3.034670 1_565
Al8 U4 3.048851 1_565
Al8 U3 3.399626 1_555
Al9 W5 2.715496 1_655
Al9 U4 3.048851 1_555
Al9 U5 3.399626 1_655
Al10 Al75 2.703986 1_555
Al10 Al34 2.708716 1_555
Al10 W4 2.715496 1_555
Al10 Al58 2.730076 1_555
Al10 Al83 2.838512 1_555
Al10 Al57 2.845902 1_555
Al10 Al39 2.868016 1_555
Al10 Al7 3.034670 1_555
Al10 Al62 3.041644 1_555
Al10 U3 3.048851 1_555
Al10 Al16 3.054275 1_555
Al10 U4 3.399626 1_555
Al11 Al75 2.703985 1_555
Al11 Al33 2.708716 1_555
Al11 W3 2.715496 1_555
Al11 Al59 2.730071 1_555
Al11 Al85 2.838512 1_655
Al11 Al58 2.845910 1_555
Al11 Al41 2.868016 1_655
Al11 Al6 3.034670 1_655
Al11 Al61 3.041642 1_555
Al11 U5 3.048851 1_655
Al11 Al17 3.054275 1_555
Al11 U3 3.399626 1_555
Al12 Al76 2.703976 1_555
Al12 Al25 2.708716 1_565
Al12 W4 2.715496 1_565
Al12 Al54 2.730080 1_555
Al12 Al85 2.838512 1_555
Al12 Al56 2.845911 1_555
Al12 Al44 2.868016 1_555
Al12 Al17 3.034670 1_455
Al12 Al66 3.041640 1_555
Al12 U8 3.048851 1_555
Al12 Al6 3.054275 1_555
Al12 U7 3.399626 1_565
Al13 Al76 2.703986 1_555
Al13 Al26 2.708716 1_555
Al13 W5 2.715496 1_555
Al13 Al55 2.730076 1_555
Al13 Al83 2.838512 1_555
Al13 Al54 2.845902 1_555
Al13 Al42 2.868016 1_555
Al13 Al16 3.034670 1_555
Al13 Al67 3.041644 1_555
Al13 U6 3.048851 1_555
Al13 Al7 3.054275 1_555
Al13 U8 3.399626 1_555
Al14 Al76 2.703985 1_555
Al14 Al24 2.708716 1_555
Al14 W3 2.715496 1_555
Al14 Al56 2.730071 1_555
Al14 Al84 2.838512 1_565
Al14 Al55 2.845910 1_555
Al14 Al43 2.868016 1_565
Al14 Al15 3.034670 1_565
Al14 Al68 3.041642 1_555
Al14 U7 3.048851 1_565
Al14 Al8 3.054275 1_555
Al14 U6 3.399626 1_555
Al15 Al77 2.703976 1_555
Al15 Al26 2.708716 1_655
Al15 W5 2.715496 1_655
Al15 Al57 2.730080 1_555
Al15 Al84 2.838512 1_555
Al15 Al59 2.845911 1_555
Al15 Al43 2.868016 1_555
Al15 Al69 3.041640 1_555
Al15 U7 3.048851 1_555
Al15 Al9 3.054275 1_555
Al15 U8 3.399626 1_655
Al16 Al77 2.703986 1_555
Al16 Al25 2.708716 1_555
Al16 W4 2.715496 1_555
Al16 Al58 2.730076 1_555
Al16 Al83 2.838512 1_555
Al16 Al57 2.845902 1_555
Al16 Al42 2.868016 1_555
Al16 Al70 3.041644 1_555
Al16 U6 3.048851 1_555
Al16 U7 3.399626 1_555
Al17 Al77 2.703985 1_555
Al17 Al24 2.708716 1_555
Al17 W3 2.715496 1_555
Al17 Al59 2.730071 1_555
Al17 Al85 2.838512 1_655
Al17 Al58 2.845910 1_555
Al17 Al44 2.868016 1_655
Al17 Al71 3.041642 1_555
Al17 U8 3.048851 1_655
Al17 U6 3.399626 1_555
Al18 Al78 2.703976 1_555
Al18 Al28 2.708716 1_555
Al18 W1 2.715496 1_555
Al18 Al48 2.730080 1_555
Al18 Al82 2.838512 1_655
Al18 Al50 2.845911 1_555
Al18 Al47 2.868016 1_655
Al18 Al23 3.034670 1_655
Al18 Al69 3.041640 1_555
Al18 U11 3.048851 1_655
Al18 U10 3.399626 1_555
Al19 Al78 2.703986 1_555
Al19 Al29 2.708716 1_655
Al19 W2 2.715496 1_655
Al19 Al49 2.730076 1_555
Al19 Al80 2.838512 1_555
Al19 Al48 2.845902 1_555
Al19 Al45 2.868016 1_555
Al19 Al22 3.034670 1_555
Al19 Al71 3.041644 1_555
Al19 U9 3.048851 1_555
Al19 U11 3.399626 1_655
Al20 Al78 2.703985 1_555
Al20 Al27 2.708716 1_555
Al20 W0 2.715496 1_555
Al20 Al50 2.730071 1_555
Al20 Al81 2.838512 1_555
Al20 Al49 2.845910 1_555
Al20 Al46 2.868016 1_555
Al20 Al21 3.034670 1_545
Al20 Al70 3.041642 1_555
Al20 U10 3.048851 1_555
Al20 U9 3.399626 1_555
Al21 Al79 2.703976 1_555
Al21 Al29 2.708716 1_555
Al21 W2 2.715496 1_555
Al21 Al51 2.730080 1_555
Al21 Al81 2.838512 1_565
Al21 Al53 2.845911 1_555
Al21 Al46 2.868016 1_565
Al21 Al66 3.041640 1_555
Al21 U10 3.048851 1_565
Al21 Al3 3.054275 1_555
Al21 U11 3.399626 1_555
Al22 Al79 2.703986 1_555
Al22 Al28 2.708716 1_565
Al22 W1 2.715496 1_565
Al22 Al52 2.730076 1_555
Al22 Al80 2.838512 1_555
Al22 Al51 2.845902 1_555
Al22 Al45 2.868016 1_555
Al22 Al68 3.041644 1_555
Al22 U9 3.048851 1_555
Al22 Al4 3.054275 1_555
Al22 U10 3.399626 1_565
Al23 Al79 2.703985 1_555
Al23 Al27 2.708716 1_555
Al23 W0 2.715496 1_555
Al23 Al53 2.730071 1_555
Al23 Al82 2.838512 1_555
Al23 Al52 2.845910 1_555
Al23 Al47 2.868016 1_555
Al23 Al67 3.041642 1_555
Al23 U11 3.048851 1_555
Al23 Al5 3.054275 1_555
Al23 U9 3.399626 1_555
Al24 W3 2.670706 1_555
Al24 W7 2.687009 1_665
Al24 Al45 2.701480 1_555
Al24 Al43 2.887386 1_565
Al24 Al44 2.887386 1_655
Al24 Al85 2.951974 1_655
Al24 Al84 2.951974 1_565
Al24 Al25 3.129833 1_665
Al24 Al26 3.129833 1_665
Al24 U6 3.463808 1_555
Al25 W4 2.670706 1_555
Al25 W7 2.687009 1_555
Al25 Al46 2.701479 1_555
Al25 Al42 2.887386 1_555
Al25 Al44 2.887387 1_545
Al25 Al83 2.951974 1_555
Al25 Al85 2.951974 1_545
Al25 Al26 3.129833 1_555
Al25 U7 3.463808 1_555
Al26 W5 2.670706 1_555
Al26 W7 2.687009 1_555
Al26 Al47 2.701479 1_555
Al26 Al42 2.887386 1_555
Al26 Al43 2.887387 1_455
Al26 Al83 2.951974 1_555
Al26 Al84 2.951974 1_455
Al26 U8 3.463808 1_555
Al27 W0 2.670706 1_555
Al27 W7 2.687009 1_555
Al27 Al42 2.701480 1_555
Al27 Al47 2.887386 1_555
Al27 Al46 2.887386 1_555
Al27 Al82 2.951974 1_555
Al27 Al81 2.951974 1_555
Al27 Al28 3.129833 1_455
Al27 Al29 3.129833 1_545
Al27 U9 3.463808 1_555
Al28 W1 2.670706 1_555
Al28 W7 2.687009 1_655
Al28 Al43 2.701479 1_555
Al28 Al45 2.887386 1_545
Al28 Al47 2.887387 1_655
Al28 Al80 2.951974 1_545
Al28 Al82 2.951974 1_655
Al28 Al29 3.129833 1_645
Al28 U10 3.463808 1_555
Al29 W2 2.670706 1_555
Al29 W7 2.687009 1_565
Al29 Al44 2.701479 1_555
Al29 Al45 2.887386 1_455
Al29 Al46 2.887387 1_565
Al29 Al80 2.951974 1_455
Al29 Al81 2.951974 1_565
Al29 U11 3.463808 1_555
Al30 W0 2.670706 1_555
Al30 W6 2.687009 1_556
Al30 Al39 2.701480 1_556
Al30 Al5 2.708716 1_555
Al30 Al37 2.887386 1_555
Al30 Al38 2.887386 1_555
Al30 Al82 2.951974 1_555
Al30 Al81 2.951974 1_555
Al30 Al31 3.129833 1_455
Al30 Al32 3.129833 1_545
Al30 U0 3.463808 1_555
Al31 W1 2.670706 1_555
Al31 W6 2.687009 1_656
Al31 Al40 2.701479 1_556
Al31 Al4 2.708716 1_545
Al31 Al36 2.887386 1_545
Al31 Al38 2.887387 1_655
Al31 Al80 2.951974 1_545
Al31 Al82 2.951974 1_655
Al31 Al32 3.129833 1_645
Al31 U1 3.463808 1_555
Al32 W2 2.670706 1_555
Al32 W6 2.687009 1_566
Al32 Al41 2.701479 1_556
Al32 Al36 2.887386 1_455
Al32 Al37 2.887387 1_565
Al32 Al80 2.951974 1_455
Al32 Al81 2.951974 1_565
Al32 U2 3.463808 1_555
Al33 W3 2.670706 1_555
Al33 W6 2.687009 1_665
Al33 Al36 2.701480 1_554
Al33 Al8 2.708716 1_555
Al33 Al41 2.887386 1_655
Al33 Al40 2.887386 1_565
Al33 Al84 2.951974 1_565
Al33 Al85 2.951974 1_655
Al33 Al34 3.129833 1_665
Al33 Al35 3.129833 1_665
Al33 U3 3.463808 1_555
Al34 W4 2.670706 1_555
Al34 W6 2.687009 1_555
Al34 Al37 2.701479 1_554
Al34 Al6 2.708716 1_545
Al34 Al39 2.887386 1_555
Al34 Al41 2.887387 1_545
Al34 Al83 2.951974 1_555
Al34 Al85 2.951974 1_545
Al34 Al35 3.129833 1_555
Al34 U4 3.463808 1_555
Al35 W5 2.670706 1_555
Al35 W6 2.687009 1_555
Al35 Al38 2.701479 1_554
Al35 Al9 2.708716 1_455
Al35 Al7 2.708716 1_555
Al35 Al39 2.887386 1_555
Al35 Al40 2.887387 1_455
Al35 Al83 2.951974 1_555
Al35 Al84 2.951974 1_455
Al35 U5 3.463808 1_555
Al36 Al64 2.712026 1_556
Al36 Al61 2.712026 1_556
Al36 Al4 2.868016 1_555
Al36 W6 2.874999 1_666
Al36 Al41 3.008684 1_656
Al36 Al40 3.008684 1_566
Al36 U0 3.120181 1_555
Al36 U3 3.180393 1_556
Al37 Al63 2.712015 1_546
Al37 Al62 2.712020 1_556
Al37 W6 2.874999 1_556
Al37 Al39 3.008684 1_556
Al37 Al41 3.008684 1_546
Al37 U1 3.120180 1_555
Al37 U4 3.180393 1_556
Al38 Al60 2.712015 1_456
Al38 Al65 2.712020 1_556
Al38 Al5 2.868016 1_555
Al38 W6 2.874999 1_556
Al38 Al39 3.008684 1_556
Al38 Al40 3.008684 1_456
Al38 U2 3.120180 1_555
Al38 U5 3.180393 1_556
Al39 Al62 2.712026 1_555
Al39 Al65 2.712026 1_555
Al39 Al7 2.868016 1_555
Al39 W6 2.874999 1_555
Al39 U3 3.120181 1_555
Al39 U0 3.180393 1_554
Al40 Al60 2.712015 1_555
Al40 Al64 2.712020 1_545
Al40 Al9 2.868016 1_555
Al40 Al8 2.868016 1_545
Al40 W6 2.874999 1_655
Al40 U4 3.120180 1_555
Al40 U1 3.180393 1_554
Al41 Al63 2.712015 1_555
Al41 Al61 2.712020 1_455
Al41 Al6 2.868016 1_555
Al41 W6 2.874999 1_565
Al41 U5 3.120180 1_555
Al41 U2 3.180393 1_554
Al42 Al67 2.712026 1_555
Al42 Al70 2.712026 1_555
Al42 W7 2.874999 1_555
Al42 Al47 3.008684 1_555
Al42 Al46 3.008684 1_555
Al42 U6 3.120181 1_555
Al42 U9 3.180393 1_555
Al43 Al69 2.712015 1_555
Al43 Al68 2.712020 1_545
Al43 W7 2.874999 1_655
Al43 Al45 3.008684 1_545
Al43 Al47 3.008684 1_655
Al43 U7 3.120180 1_555
Al43 U10 3.180393 1_555
Al44 Al66 2.712015 1_555
Al44 Al71 2.712020 1_455
Al44 W7 2.874999 1_565
Al44 Al45 3.008684 1_455
Al44 Al46 3.008684 1_565
Al44 U8 3.120180 1_555
Al44 U11 3.180393 1_555
Al45 Al68 2.712026 1_555
Al45 Al71 2.712026 1_555
Al45 W7 2.874999 1_665
Al45 U9 3.120181 1_555
Al45 U6 3.180393 1_555
Al46 Al66 2.712015 1_545
Al46 Al70 2.712020 1_555
Al46 W7 2.874999 1_555
Al46 U10 3.120180 1_555
Al46 U7 3.180393 1_555
Al47 Al69 2.712015 1_455
Al47 Al67 2.712020 1_555
Al47 W7 2.874999 1_555
Al47 U11 3.120180 1_555
Al47 U8 3.180393 1_555
Al48 W2 2.684912 1_655
Al48 Al53 2.750612 1_655
Al48 Al78 2.818512 1_555
Al48 Al72 2.818512 1_555
Al48 U2 3.146848 1_655
Al48 U11 3.146848 1_655
Al49 W0 2.684912 1_555
Al49 Al52 2.750592 1_555
Al49 Al72 2.818523 1_555
Al49 Al78 2.818523 1_555
Al49 U0 3.146844 1_555
Al49 U9 3.146844 1_555
Al50 W1 2.684922 1_555
Al50 Al51 2.750612 1_545
Al50 Al78 2.818510 1_555
Al50 Al72 2.818510 1_555
Al50 U1 3.146849 1_555
Al50 U10 3.146849 1_555
Al51 W1 2.684912 1_565
Al51 Al73 2.818512 1_555
Al51 Al79 2.818512 1_555
Al51 U1 3.146848 1_565
Al51 U10 3.146848 1_565
Al52 W0 2.684912 1_555
Al52 Al79 2.818523 1_555
Al52 Al73 2.818523 1_555
Al52 U0 3.146844 1_555
Al52 U9 3.146844 1_555
Al53 W2 2.684922 1_555
Al53 Al73 2.818510 1_555
Al53 Al79 2.818510 1_555
Al53 U2 3.146849 1_555
Al53 U11 3.146849 1_555
Al54 W5 2.684912 1_555
Al54 Al6 2.730080 1_555
Al54 Al59 2.750612 1_455
Al54 Al74 2.818512 1_555
Al54 Al76 2.818512 1_555
Al54 Al7 2.845902 1_555
Al54 U8 3.146848 1_555
Al54 U5 3.146848 1_555
Al55 W3 2.684912 1_555
Al55 Al7 2.730076 1_555
Al55 Al58 2.750592 1_555
Al55 Al76 2.818523 1_555
Al55 Al74 2.818523 1_555
Al55 Al8 2.845910 1_555
Al55 U3 3.146844 1_555
Al55 U6 3.146844 1_555
Al56 W4 2.684922 1_565
Al56 Al8 2.730071 1_555
Al56 Al57 2.750612 1_565
Al56 Al76 2.818510 1_555
Al56 Al74 2.818510 1_555
Al56 Al6 2.845911 1_555
Al56 U4 3.146849 1_565
Al56 U7 3.146849 1_565
Al57 W4 2.684912 1_555
Al57 Al9 2.730080 1_555
Al57 Al77 2.818512 1_555
Al57 Al75 2.818512 1_555
Al57 U7 3.146848 1_555
Al57 U4 3.146848 1_555
Al58 W3 2.684912 1_555
Al58 Al77 2.818523 1_555
Al58 Al75 2.818523 1_555
Al58 U3 3.146844 1_555
Al58 U6 3.146844 1_555
Al59 W5 2.684922 1_655
Al59 Al77 2.818510 1_555
Al59 Al75 2.818510 1_555
Al59 Al9 2.845911 1_555
Al59 U8 3.146849 1_655
Al59 U5 3.146849 1_655
Al60 Al75 2.777545 1_555
Al60 Al72 2.777545 1_554
Al60 Al61 2.860706 1_555
Al60 Al62 2.860706 1_555
Al60 Al9 3.041640 1_555
Al60 U5 3.054173 1_655
Al60 U1 3.054173 1_554
Al60 U2 3.290844 1_654
Al60 U4 3.290844 1_555
Al61 Al75 2.777545 1_555
Al61 Al72 2.777545 1_554
Al61 Al62 2.860707 1_555
Al61 U2 3.054169 1_654
Al61 U3 3.054178 1_555
Al61 U5 3.290839 1_655
Al61 U0 3.290848 1_554
Al62 Al75 2.777545 1_555
Al62 Al72 2.777545 1_554
Al62 U4 3.054169 1_555
Al62 U0 3.054178 1_554
Al62 U1 3.290839 1_554
Al62 U3 3.290848 1_555
Al63 Al73 2.777545 1_554
Al63 Al74 2.777545 1_555
Al63 Al64 2.860706 1_555
Al63 Al65 2.860706 1_555
Al63 U4 3.054173 1_565
Al63 U2 3.054173 1_554
Al63 U1 3.290844 1_564
Al63 U5 3.290844 1_555
Al64 Al73 2.777545 1_554
Al64 Al74 2.777545 1_555
Al64 Al65 2.860707 1_555
Al64 Al8 3.041642 1_555
Al64 U1 3.054169 1_564
Al64 U3 3.054178 1_555
Al64 U4 3.290839 1_565
Al64 U0 3.290848 1_554
Al65 Al73 2.777545 1_554
Al65 Al74 2.777545 1_555
Al65 Al7 3.041644 1_555
Al65 U5 3.054169 1_555
Al65 U0 3.054178 1_554
Al65 U2 3.290839 1_554
Al65 U3 3.290848 1_555
Al66 Al79 2.777545 1_555
Al66 Al76 2.777545 1_555
Al66 Al68 2.860706 1_555
Al66 Al67 2.860706 1_555
Al66 U11 3.054173 1_555
Al66 U7 3.054173 1_565
Al66 U10 3.290844 1_565
Al66 U8 3.290844 1_555
Al67 Al79 2.777545 1_555
Al67 Al76 2.777545 1_555
Al67 Al68 2.860707 1_555
Al67 U8 3.054169 1_555
Al67 U9 3.054178 1_555
Al67 U11 3.290839 1_555
Al67 U6 3.290848 1_555
Al68 Al79 2.777545 1_555
Al68 Al76 2.777545 1_555
Al68 U10 3.054169 1_565
Al68 U6 3.054178 1_555
Al68 U7 3.290839 1_565
Al68 U9 3.290848 1_555
Al69 Al78 2.777545 1_555
Al69 Al77 2.777545 1_555
Al69 Al71 2.860706 1_555
Al69 Al70 2.860706 1_555
Al69 U10 3.054173 1_555
Al69 U8 3.054173 1_655
Al69 U11 3.290844 1_655
Al69 U7 3.290844 1_555
Al70 Al77 2.777545 1_555
Al70 Al78 2.777545 1_555
Al70 Al71 2.860707 1_555
Al70 U7 3.054169 1_555
Al70 U9 3.054178 1_555
Al70 U10 3.290839 1_555
Al70 U6 3.290848 1_555
Al71 Al77 2.777545 1_555
Al71 Al78 2.777545 1_555
Al71 U11 3.054169 1_655
Al71 U6 3.054178 1_555
Al71 U8 3.290839 1_655
Al71 U9 3.290848 1_555
Al72 U1 3.260656 1_555
Al72 U2 3.260657 1_655
Al72 U0 3.260666 1_555
Al73 U2 3.260656 1_555
Al73 U1 3.260657 1_565
Al73 U0 3.260666 1_555
Al74 Al8 2.703985 1_555
Al74 U4 3.260656 1_565
Al74 U5 3.260657 1_555
Al74 U3 3.260666 1_555
Al75 Al9 2.703976 1_555
Al75 U5 3.260656 1_655
Al75 U4 3.260657 1_555
Al75 U3 3.260666 1_555
Al76 U7 3.260656 1_565
Al76 U8 3.260657 1_555
Al76 U6 3.260666 1_555
Al77 U8 3.260656 1_655
Al77 U7 3.260657 1_555
Al77 U6 3.260666 1_555
Al78 U10 3.260656 1_555
Al78 U11 3.260657 1_655
Al78 U9 3.260666 1_555
Al79 U11 3.260656 1_555
Al79 U10 3.260657 1_565
Al79 U9 3.260666 1_555
Al80 W1 2.584431 1_565
Al80 W2 2.584431 1_655
Al80 Al82 2.801712 1_665
Al80 Al81 2.801712 1_665
Al81 W0 2.584431 1_555
Al81 W2 2.584431 1_545
Al81 Al82 2.801712 1_555
Al82 W0 2.584431 1_555
Al82 W1 2.584431 1_455
Al83 W5 2.584431 1_555
Al83 W4 2.584431 1_555
Al83 Al85 2.801712 1_545
Al83 Al84 2.801712 1_455
Al84 W3 2.584431 1_545
Al84 W5 2.584431 1_655
Al84 Al85 2.801712 1_645
Al84 Al9 2.838512 1_555
Al85 W3 2.584431 1_455
Al85 W4 2.584431 1_565
