# generated using pymatgen
data_Nd2SbO2
_symmetry_space_group_name_H-M   'P 1'
_cell_length_a   4.07182500
_cell_length_b   13.83946600
_cell_length_c   7.86886000
_cell_angle_alpha   90.00000000
_cell_angle_beta   90.00000000
_cell_angle_gamma   90.00000000
_symmetry_Int_Tables_number   1
_chemical_formula_structural   Nd2SbO2
_chemical_formula_sum   'Nd8 Sb4 O8'
_cell_volume   443.42508314
_cell_formula_units_Z   4
loop_
 _symmetry_equiv_pos_site_id
 _symmetry_equiv_pos_as_xyz
  1  'x, y, z'
loop_
 _atom_site_type_symbol
 _atom_site_label
 _atom_site_symmetry_multiplicity
 _atom_site_fract_x
 _atom_site_fract_y
 _atom_site_fract_z
 _atom_site_occupancy
  Nd  Nd0  1  0.00000000  0.33781200  0.87647600  1
  Nd  Nd1  1  0.00000000  0.66218800  0.87647600  1
  Nd  Nd2  1  0.50000000  0.16218800  0.12352400  1
  Nd  Nd3  1  0.50000000  0.83781200  0.12352400  1
  Nd  Nd4  1  0.00000000  0.33421700  0.37360600  1
  Nd  Nd5  1  0.00000000  0.66578300  0.37360600  1
  Nd  Nd6  1  0.50000000  0.16578300  0.62639400  1
  Nd  Nd7  1  0.50000000  0.83421700  0.62639400  1
  Sb  Sb0  1  0.00000000  0.00000000  0.84382600  1
  Sb  Sb1  1  0.50000000  0.50000000  0.15617400  1
  Sb  Sb2  1  0.00000000  0.00000000  0.40664600  1
  Sb  Sb3  1  0.50000000  0.50000000  0.59335400  1
  O  O0  1  0.00000000  0.25144600  0.62781500  1
  O  O1  1  0.00000000  0.74855400  0.62781500  1
  O  O2  1  0.50000000  0.24855400  0.37218500  1
  O  O3  1  0.50000000  0.75144600  0.37218500  1
  O  O4  1  0.00000000  0.24475600  0.12217600  1
  O  O5  1  0.00000000  0.75524400  0.12217600  1
  O  O6  1  0.50000000  0.25524400  0.87782400  1
  O  O7  1  0.50000000  0.74475600  0.87782400  1
loop_
_geom_bond_atom_site_label_1
_geom_bond_atom_site_label_2
_geom_bond_distance
_geom_bond_site_symmetry_2
Nd0 O0 2.292866 1_555
Nd0 O4 2.323037 1_556
Nd0 O6 2.334697 1_455
Nd0 O6 2.334697 1_555
Nd0 Sb1 3.745281 1_556
Nd0 Sb1 3.745281 1_456
Nd0 Sb3 3.761177 1_455
Nd0 Sb3 3.761177 1_555
Nd1 O1 2.292866 1_555
Nd1 O5 2.323037 1_556
Nd1 O7 2.334697 1_555
Nd1 O7 2.334697 1_455
Nd1 Sb1 3.745281 1_556
Nd1 Sb1 3.745281 1_456
Nd1 Sb3 3.761177 1_455
Nd1 Sb3 3.761177 1_555
Nd2 O2 2.292866 1_555
Nd2 O6 2.323037 1_554
Nd2 O4 2.334697 1_655
Nd2 O4 2.334697 1_555
Nd2 Sb0 3.745281 1_554
Nd2 Sb0 3.745281 1_654
Nd2 Sb2 3.761177 1_555
Nd2 Sb2 3.761177 1_655
Nd3 O3 2.292866 1_555
Nd3 O7 2.323037 1_554
Nd3 O5 2.334697 1_555
Nd3 O5 2.334697 1_655
Nd3 Sb0 3.745281 1_664
Nd3 Sb0 3.745281 1_564
Nd3 Sb2 3.761177 1_565
Nd3 Sb2 3.761177 1_665
Nd4 O0 2.305109 1_555
Nd4 O4 2.333925 1_555
Nd4 O2 2.355960 1_455
Nd4 O2 2.355960 1_555
Nd4 Sb1 3.512306 1_555
Nd4 Sb1 3.512306 1_455
Nd4 Sb3 3.521220 1_455
Nd4 Sb3 3.521220 1_555
Nd5 O1 2.305109 1_555
Nd5 O5 2.333925 1_555
Nd5 O3 2.355960 1_455
Nd5 O3 2.355960 1_555
Nd5 Sb1 3.512306 1_555
Nd5 Sb1 3.512306 1_455
Nd5 Sb3 3.521220 1_455
Nd5 Sb3 3.521220 1_555
Nd6 O2 2.305109 1_555
Nd6 O6 2.333925 1_555
Nd6 O0 2.355960 1_555
Nd6 O0 2.355960 1_655
Nd6 Sb0 3.512306 1_655
Nd6 Sb0 3.512306 1_555
Nd6 Sb2 3.521220 1_555
Nd6 Sb2 3.521220 1_655
Nd7 O3 2.305109 1_555
Nd7 O7 2.333925 1_555
Nd7 O1 2.355960 1_555
Nd7 O1 2.355960 1_655
Nd7 Sb0 3.512306 1_665
Nd7 Sb0 3.512306 1_565
Nd7 Sb2 3.521220 1_565
Nd7 Sb2 3.521220 1_665
