# generated using pymatgen
data_TiZnFe(PO4)3
_symmetry_space_group_name_H-M   'P 1'
_cell_length_a   8.42147779
_cell_length_b   8.42147779
_cell_length_c   8.42147747
_cell_angle_alpha   60.94812746
_cell_angle_beta   60.94812746
_cell_angle_gamma   60.94812951
_symmetry_Int_Tables_number   1
_chemical_formula_structural   TiZnFe(PO4)3
_chemical_formula_sum   'Ti2 Zn2 Fe2 P6 O24'
_cell_volume   431.35062829
_cell_formula_units_Z   2
loop_
 _symmetry_equiv_pos_site_id
 _symmetry_equiv_pos_as_xyz
  1  'x, y, z'
loop_
 _atom_site_type_symbol
 _atom_site_label
 _atom_site_symmetry_multiplicity
 _atom_site_fract_x
 _atom_site_fract_y
 _atom_site_fract_z
 _atom_site_occupancy
  Ti  Ti0  1  0.14365130  0.14365130  0.14365130  1
  Ti  Ti1  1  0.64365130  0.64365130  0.64365130  1
  Zn  Zn0  1  0.99729951  0.99729951  0.99729951  1
  Zn  Zn1  1  0.49729951  0.49729951  0.49729951  1
  Fe  Fe0  1  0.35538771  0.35538771  0.35538771  1
  Fe  Fe1  1  0.85538771  0.85538771  0.85538771  1
  P  P0  1  0.45511937  0.04570848  0.75179321  1
  P  P1  1  0.75179321  0.45511937  0.04570848  1
  P  P2  1  0.04570848  0.75179321  0.45511937  1
  P  P3  1  0.95511937  0.25179321  0.54570848  1
  P  P4  1  0.25179321  0.54570848  0.95511937  1
  P  P5  1  0.54570848  0.95511937  0.25179321  1
  O  O0  1  0.50041053  0.10902294  0.32410846  1
  O  O1  1  0.10902294  0.32410846  0.50041053  1
  O  O2  1  0.25700021  0.05588499  0.91206409  1
  O  O3  1  0.32410846  0.50041053  0.10902294  1
  O  O4  1  0.60902294  0.00041053  0.82410846  1
  O  O5  1  0.44047576  0.24065116  0.59208485  1
  O  O6  1  0.91206409  0.25700021  0.05588499  1
  O  O7  1  0.59208485  0.44047576  0.24065116  1
  O  O8  1  0.00207598  0.18589959  0.38136186  1
  O  O9  1  0.24065116  0.59208485  0.44047576  1
  O  O10  1  0.94047576  0.09208485  0.74065116  1
  O  O11  1  0.18589959  0.38136186  0.00207598  1
  O  O12  1  0.82410846  0.60902294  0.00041053  1
  O  O13  1  0.05588499  0.91206409  0.25700021  1
  O  O14  1  0.75700021  0.41206409  0.55588499  1
  O  O15  1  0.00041053  0.82410846  0.60902294  1
  O  O16  1  0.41206409  0.55588499  0.75700021  1
  O  O17  1  0.09208485  0.74065116  0.94047576  1
  O  O18  1  0.55588499  0.75700021  0.41206409  1
  O  O19  1  0.38136186  0.00207598  0.18589959  1
  O  O20  1  0.68589959  0.50207598  0.88136186  1
  O  O21  1  0.74065116  0.94047576  0.09208485  1
  O  O22  1  0.88136186  0.68589959  0.50207598  1
  O  O23  1  0.50207598  0.88136186  0.68589959  1
loop_
_geom_bond_atom_site_label_1
_geom_bond_atom_site_label_2
_geom_bond_distance
_geom_bond_site_symmetry_2
Fe0 O3 1.903414 1_555
Fe0 O1 1.903414 1_555
Fe0 O0 1.903414 1_555
Fe0 O5 2.065114 1_555
Fe0 O7 2.065114 1_555
Fe0 O9 2.065114 1_555
Fe1 O15 1.903414 1_655
Fe1 O12 1.903414 1_556
Fe1 O4 1.903414 1_565
Fe1 O21 2.065114 1_556
Fe1 O10 2.065114 1_565
Fe1 O17 2.065114 1_655
O0 P5 1.502346 1_545
O1 P3 1.502346 1_455
O2 P0 1.548936 1_555
O2 Ti0 2.041541 1_556
O2 Zn0 2.172845 1_445
O3 P4 1.502346 1_554
O4 P0 1.502346 1_555
O5 P0 1.529498 1_555
O5 Zn1 2.120280 1_555
O6 P1 1.548937 1_555
O6 Ti0 2.041541 1_655
O6 Zn0 2.172845 1_544
O7 P1 1.529498 1_555
O7 Zn1 2.120280 1_555
O8 P3 1.543091 1_455
O8 Ti0 1.875450 1_555
O9 P2 1.529498 1_555
O9 Zn1 2.120280 1_555
O10 P3 1.529498 1_555
O10 Zn0 2.120280 1_545
O11 P4 1.543091 1_554
O11 Ti0 1.875450 1_555
O12 P1 1.502346 1_555
O13 P2 1.548936 1_555
O13 Ti0 2.041541 1_565
O13 Zn0 2.172845 1_454
O14 P3 1.548937 1_555
O14 Ti1 2.041541 1_555
O14 Zn1 2.172845 1_555
O15 P2 1.502346 1_555
O16 P4 1.548936 1_555
O16 Ti1 2.041541 1_555
O16 Zn1 2.172845 1_555
O17 P4 1.529498 1_555
O17 Zn0 2.120280 1_455
O18 P5 1.548936 1_555
O18 Ti1 2.041541 1_555
O18 Zn1 2.172845 1_555
O19 P5 1.543091 1_545
O19 Ti0 1.875450 1_555
O20 P1 1.543091 1_556
O20 Ti1 1.875450 1_555
O21 P5 1.529498 1_555
O21 Zn0 2.120280 1_554
O22 P2 1.543091 1_655
O22 Ti1 1.875450 1_555
O23 P0 1.543091 1_565
O23 Ti1 1.875450 1_555
