# generated using pymatgen
data_ZrCo5Si3
_symmetry_space_group_name_H-M   'P 1'
_cell_length_a   14.54655000
_cell_length_b   14.54655014
_cell_length_c   3.64200000
_cell_angle_alpha   90.00000000
_cell_angle_beta   90.00000000
_cell_angle_gamma   119.99999968
_symmetry_Int_Tables_number   1
_chemical_formula_structural   ZrCo5Si3
_chemical_formula_sum   'Zr6 Co30 Si18'
_cell_volume   667.40673802
_cell_formula_units_Z   6
loop_
 _symmetry_equiv_pos_site_id
 _symmetry_equiv_pos_as_xyz
  1  'x, y, z'
loop_
 _atom_site_type_symbol
 _atom_site_label
 _atom_site_symmetry_multiplicity
 _atom_site_fract_x
 _atom_site_fract_y
 _atom_site_fract_z
 _atom_site_occupancy
  Zr  Zr0  1  0.39486400  0.29441700  0.75000000  1
  Zr  Zr1  1  0.70558300  0.10044700  0.75000000  1
  Zr  Zr2  1  0.89955300  0.60513600  0.75000000  1
  Zr  Zr3  1  0.60513600  0.70558300  0.25000000  1
  Zr  Zr4  1  0.29441700  0.89955300  0.25000000  1
  Zr  Zr5  1  0.10044700  0.39486400  0.25000000  1
  Co  Co0  1  0.65233900  0.42854400  0.75000000  1
  Co  Co1  1  0.57145600  0.22379600  0.75000000  1
  Co  Co2  1  0.77620400  0.34766100  0.75000000  1
  Co  Co3  1  0.34766100  0.57145600  0.25000000  1
  Co  Co4  1  0.42854400  0.77620400  0.25000000  1
  Co  Co5  1  0.22379600  0.65233900  0.25000000  1
  Co  Co6  1  0.46020600  0.53466900  0.75000000  1
  Co  Co7  1  0.46533100  0.92553700  0.75000000  1
  Co  Co8  1  0.07446300  0.53979400  0.75000000  1
  Co  Co9  1  0.53979400  0.46533100  0.25000000  1
  Co  Co10  1  0.53466900  0.07446300  0.25000000  1
  Co  Co11  1  0.92553700  0.46020600  0.25000000  1
  Co  Co12  1  0.26829100  0.04780800  0.75000000  1
  Co  Co13  1  0.95219200  0.22048300  0.75000000  1
  Co  Co14  1  0.77951700  0.73170900  0.75000000  1
  Co  Co15  1  0.73170900  0.95219200  0.25000000  1
  Co  Co16  1  0.04780800  0.77951700  0.25000000  1
  Co  Co17  1  0.22048300  0.26829100  0.25000000  1
  Co  Co18  1  0.14881100  0.73507400  0.75000000  1
  Co  Co19  1  0.26492600  0.41373700  0.75000000  1
  Co  Co20  1  0.58626300  0.85118900  0.75000000  1
  Co  Co21  1  0.85118900  0.26492600  0.25000000  1
  Co  Co22  1  0.73507400  0.58626300  0.25000000  1
  Co  Co23  1  0.41373700  0.14881100  0.25000000  1
  Co  Co24  1  0.13215900  0.10464600  0.75000000  1
  Co  Co25  1  0.89535400  0.02751400  0.75000000  1
  Co  Co26  1  0.97248600  0.86784100  0.75000000  1
  Co  Co27  1  0.86784100  0.89535400  0.25000000  1
  Co  Co28  1  0.10464600  0.97248600  0.25000000  1
  Co  Co29  1  0.02751400  0.13215900  0.25000000  1
  Si  Si0  1  0.44494100  0.68242600  0.75000000  1
  Si  Si1  1  0.31757400  0.76251500  0.75000000  1
  Si  Si2  1  0.23748500  0.55505900  0.75000000  1
  Si  Si3  1  0.55505900  0.31757400  0.25000000  1
  Si  Si4  1  0.68242600  0.23748500  0.25000000  1
  Si  Si5  1  0.76251500  0.44494100  0.25000000  1
  Si  Si6  1  0.13379300  0.88208000  0.75000000  1
  Si  Si7  1  0.11792000  0.25171300  0.75000000  1
  Si  Si8  1  0.74828700  0.86620700  0.75000000  1
  Si  Si9  1  0.86620700  0.11792000  0.25000000  1
  Si  Si10  1  0.88208000  0.74828700  0.25000000  1
  Si  Si11  1  0.25171300  0.13379300  0.25000000  1
  Si  Si12  1  0.42905100  0.05876900  0.75000000  1
  Si  Si13  1  0.94123100  0.37028300  0.75000000  1
  Si  Si14  1  0.62971700  0.57094900  0.75000000  1
  Si  Si15  1  0.57094900  0.94123100  0.25000000  1
  Si  Si16  1  0.05876900  0.62971700  0.25000000  1
  Si  Si17  1  0.37028300  0.42905100  0.25000000  1
loop_
_geom_bond_atom_site_label_1
_geom_bond_atom_site_label_2
_geom_bond_distance
_geom_bond_site_symmetry_2
Co0 Si14 2.254125 1_555
Co0 Si5 2.357806 1_555
Co0 Si5 2.357806 1_556
Co0 Si3 2.374864 1_555
Co0 Si3 2.374864 1_556
Co0 Co9 2.675576 1_555
Co0 Co9 2.675576 1_556
Co0 Co22 2.695731 1_556
Co0 Co22 2.695731 1_555
Co1 Si12 2.254125 1_555
Co1 Si3 2.357796 1_556
Co1 Si3 2.357796 1_555
Co1 Si4 2.374867 1_555
Co1 Si4 2.374867 1_556
Co1 Co10 2.675586 1_555
Co1 Co10 2.675586 1_556
Co1 Co23 2.695731 1_556
Co1 Co23 2.695731 1_555
Co2 Si13 2.254125 1_555
Co2 Si4 2.357802 1_555
Co2 Si4 2.357802 1_556
Co2 Si5 2.374858 1_556
Co2 Si5 2.374858 1_555
Co2 Co21 2.695740 1_555
Co2 Co21 2.695740 1_556
Co3 Si17 2.254125 1_555
Co3 Si2 2.357806 1_555
Co3 Si2 2.357806 1_554
Co3 Si0 2.374864 1_554
Co3 Si0 2.374864 1_555
Co3 Co6 2.675576 1_554
Co3 Co6 2.675576 1_555
Co4 Si15 2.254125 1_555
Co4 Si0 2.357796 1_555
Co4 Si0 2.357796 1_554
Co4 Si1 2.374867 1_554
Co4 Si1 2.374867 1_555
Co4 Co7 2.675586 1_555
Co4 Co7 2.675586 1_554
Co5 Si16 2.254125 1_555
Co5 Si1 2.357802 1_554
Co5 Si1 2.357802 1_555
Co5 Si2 2.374858 1_555
Co5 Si2 2.374858 1_554
Co5 Co8 2.675583 1_555
Co5 Co8 2.675583 1_554
Co6 Si14 2.248859 1_555
Co6 Si0 2.268547 1_555
Co6 Si17 2.319020 1_555
Co6 Si17 2.319020 1_556
Co6 Co9 2.615614 1_555
Co6 Co9 2.615614 1_556
Co6 Zr3 2.949646 1_555
Co6 Zr3 2.949646 1_556
Co6 Zr0 3.129776 1_555
Co7 Si12 2.248873 1_565
Co7 Si1 2.268547 1_555
Co7 Si15 2.319023 1_556
Co7 Si15 2.319023 1_555
Co7 Zr4 2.949646 1_555
Co7 Zr4 2.949646 1_556
Co7 Zr1 3.129776 1_565
Co8 Si13 2.248864 1_455
Co8 Si2 2.268547 1_555
Co8 Si16 2.319015 1_555
Co8 Si16 2.319015 1_556
Co8 Zr5 2.949646 1_556
Co8 Zr5 2.949646 1_555
Co8 Zr2 3.129776 1_455
Co9 Si17 2.248859 1_555
Co9 Si3 2.268547 1_555
Co9 Si14 2.319020 1_555
Co9 Si14 2.319020 1_554
Co9 Zr0 2.949646 1_555
Co9 Zr0 2.949646 1_554
Co9 Zr3 3.129776 1_555
Co10 Si15 2.248873 1_545
Co10 Si4 2.268547 1_555
Co10 Si12 2.319023 1_554
Co10 Si12 2.319023 1_555
Co10 Co23 2.483298 1_555
Co10 Co7 2.615614 1_545
Co10 Co7 2.615614 1_544
Co10 Zr1 2.949646 1_555
Co10 Zr1 2.949646 1_554
Co10 Zr4 3.129776 1_545
Co11 Si16 2.248864 1_655
Co11 Si5 2.268547 1_555
Co11 Si13 2.319015 1_554
Co11 Si13 2.319015 1_555
Co11 Co21 2.483298 1_555
Co11 Co8 2.615614 1_654
Co11 Co8 2.615614 1_655
Co11 Co2 2.675583 1_555
Co11 Co2 2.675583 1_554
Co11 Zr2 2.949646 1_555
Co11 Zr2 2.949646 1_554
Co11 Zr5 3.129776 1_655
Co12 Si6 2.218785 1_545
Co12 Si12 2.262998 1_555
Co12 Si11 2.289168 1_556
Co12 Si11 2.289168 1_555
Co12 Co24 2.498450 1_555
Co12 Co23 2.615823 1_556
Co12 Co23 2.615823 1_555
Co12 Co28 2.752265 1_546
Co12 Co28 2.752265 1_545
Co12 Zr4 2.988477 1_546
Co12 Zr4 2.988477 1_545
Co12 Zr0 3.107066 1_555
Co13 Si7 2.218785 1_655
Co13 Si13 2.263012 1_555
Co13 Si9 2.289168 1_555
Co13 Si9 2.289168 1_556
Co13 Co25 2.498436 1_555
Co13 Co21 2.615823 1_555
Co13 Co21 2.615823 1_556
Co13 Co29 2.752274 1_655
Co13 Co29 2.752274 1_656
Co13 Zr5 2.988477 1_655
Co13 Zr5 2.988477 1_656
Co13 Zr1 3.107066 1_555
Co14 Si8 2.218785 1_555
Co14 Si14 2.263004 1_555
Co14 Si10 2.289168 1_555
Co14 Si10 2.289168 1_556
Co14 Co26 2.498439 1_555
Co14 Co22 2.615823 1_556
Co14 Co22 2.615823 1_555
Co14 Co27 2.752265 1_556
Co14 Co27 2.752265 1_555
Co14 Zr3 2.988477 1_555
Co14 Zr3 2.988477 1_556
Co14 Zr2 3.107066 1_555
Co15 Si9 2.218785 1_565
Co15 Si15 2.262998 1_555
Co15 Si8 2.289168 1_554
Co15 Si8 2.289168 1_555
Co15 Co27 2.498450 1_555
Co15 Co20 2.615823 1_555
Co15 Co20 2.615823 1_554
Co15 Co25 2.752265 1_565
Co15 Co25 2.752265 1_564
Co15 Zr1 2.988477 1_565
Co15 Zr1 2.988477 1_564
Co15 Zr3 3.107066 1_555
Co16 Si10 2.218785 1_455
Co16 Si16 2.263012 1_555
Co16 Si6 2.289168 1_555
Co16 Si6 2.289168 1_554
Co16 Co28 2.498436 1_555
Co16 Co18 2.615823 1_554
Co16 Co18 2.615823 1_555
Co16 Co26 2.752274 1_455
Co16 Co26 2.752274 1_454
Co16 Zr2 2.988477 1_455
Co16 Zr2 2.988477 1_454
Co16 Zr4 3.107066 1_555
Co17 Si11 2.218785 1_555
Co17 Si17 2.263004 1_555
Co17 Si7 2.289168 1_554
Co17 Si7 2.289168 1_555
Co17 Co29 2.498439 1_555
Co17 Co19 2.615823 1_554
Co17 Co19 2.615823 1_555
Co17 Co24 2.752265 1_554
Co17 Co24 2.752265 1_555
Co17 Zr0 2.988477 1_555
Co17 Zr0 2.988477 1_554
Co17 Zr5 3.107066 1_555
Co18 Si6 2.255609 1_555
Co18 Si1 2.281673 1_555
Co18 Si16 2.317983 1_555
Co18 Si16 2.317983 1_556
Co18 Co8 2.483298 1_555
Co18 Co5 2.695740 1_556
Co18 Co5 2.695740 1_555
Co18 Zr4 2.908453 1_555
Co18 Zr4 2.908453 1_556
Co18 Zr2 3.141023 1_455
Co19 Si7 2.255609 1_555
Co19 Si2 2.281673 1_555
Co19 Si17 2.317987 1_556
Co19 Si17 2.317987 1_555
Co19 Co6 2.483298 1_555
Co19 Co3 2.695731 1_556
Co19 Co3 2.695731 1_555
Co19 Zr5 2.908453 1_556
Co19 Zr5 2.908453 1_555
Co19 Zr0 3.141023 1_555
Co20 Si8 2.255609 1_555
Co20 Si0 2.281673 1_555
Co20 Si15 2.317978 1_555
Co20 Si15 2.317978 1_556
Co20 Co7 2.483298 1_555
Co20 Co4 2.695731 1_555
Co20 Co4 2.695731 1_556
Co20 Zr3 2.908453 1_555
Co20 Zr3 2.908453 1_556
Co20 Zr1 3.141023 1_565
Co21 Si9 2.255609 1_555
Co21 Si4 2.281673 1_555
Co21 Si13 2.317983 1_554
Co21 Si13 2.317983 1_555
Co21 Zr1 2.908453 1_555
Co21 Zr1 2.908453 1_554
Co21 Zr5 3.141023 1_655
Co22 Si10 2.255609 1_555
Co22 Si5 2.281673 1_555
Co22 Si14 2.317987 1_555
Co22 Si14 2.317987 1_554
Co22 Co9 2.483298 1_555
Co22 Zr2 2.908453 1_554
Co22 Zr2 2.908453 1_555
Co22 Zr3 3.141023 1_555
Co23 Si11 2.255609 1_555
Co23 Si3 2.281673 1_555
Co23 Si12 2.317978 1_554
Co23 Si12 2.317978 1_555
Co23 Zr0 2.908453 1_555
Co23 Zr0 2.908453 1_554
Co23 Zr4 3.141023 1_545
Co24 Si7 2.250043 1_555
Co24 Si11 2.404769 1_555
Co24 Si11 2.404769 1_556
Co24 Co29 2.530337 1_555
Co24 Co29 2.530337 1_556
Co24 Co28 2.530357 1_546
Co24 Co28 2.530357 1_545
Co25 Si8 2.250052 1_545
Co25 Si9 2.404759 1_556
Co25 Si9 2.404759 1_555
Co25 Co29 2.530350 1_656
Co25 Co29 2.530350 1_655
Co25 Co27 2.530357 1_546
Co25 Co27 2.530357 1_545
Co26 Si6 2.250058 1_655
Co26 Si10 2.404766 1_555
Co26 Si10 2.404766 1_556
Co26 Co27 2.530337 1_556
Co26 Co27 2.530337 1_555
Co26 Co28 2.530350 1_655
Co26 Co28 2.530350 1_656
Co27 Si10 2.250043 1_555
Co27 Si8 2.404769 1_554
Co27 Si8 2.404769 1_555
Co28 Si11 2.250052 1_565
Co28 Si6 2.404759 1_554
Co28 Si6 2.404759 1_555
Co29 Si9 2.250058 1_455
Co29 Si7 2.404766 1_554
Co29 Si7 2.404766 1_555
Si0 Si1 2.635990 1_555
Si0 Si2 2.635990 1_555
Si0 Zr3 2.841614 1_555
Si0 Zr3 2.841614 1_556
Si1 Si2 2.635990 1_555
Si1 Zr4 2.841614 1_555
Si1 Zr4 2.841614 1_556
Si2 Zr5 2.841614 1_556
Si2 Zr5 2.841614 1_555
Si3 Si4 2.635990 1_555
Si3 Si5 2.635990 1_555
Si3 Zr0 2.841614 1_555
Si3 Zr0 2.841614 1_554
Si4 Si5 2.635990 1_555
Si4 Zr1 2.841614 1_555
Si4 Zr1 2.841614 1_554
Si5 Zr2 2.841614 1_554
Si5 Zr2 2.841614 1_555
Si6 Zr4 2.871605 1_555
Si6 Zr4 2.871605 1_556
Si7 Zr5 2.871605 1_556
Si7 Zr5 2.871605 1_555
Si8 Zr3 2.871605 1_555
Si8 Zr3 2.871605 1_556
Si9 Zr1 2.871605 1_554
Si9 Zr1 2.871605 1_555
Si10 Zr2 2.871605 1_555
Si10 Zr2 2.871605 1_554
Si11 Zr0 2.871605 1_555
Si11 Zr0 2.871605 1_554
Si12 Zr4 2.824851 1_546
Si12 Zr4 2.824851 1_545
Si13 Zr5 2.824856 1_655
Si13 Zr5 2.824856 1_656
Si14 Zr3 2.824845 1_555
Si14 Zr3 2.824845 1_556
Si15 Zr1 2.824851 1_564
Si15 Zr1 2.824851 1_565
Si16 Zr2 2.824856 1_455
Si16 Zr2 2.824856 1_454
Si17 Zr0 2.824845 1_555
Si17 Zr0 2.824845 1_554
