# generated using pymatgen
data_Cu8SiSe6
_symmetry_space_group_name_H-M   'P 1'
_cell_length_a   7.20177500
_cell_length_b   7.30674500
_cell_length_c   10.21774400
_cell_angle_alpha   90.00000000
_cell_angle_beta   90.00000000
_cell_angle_gamma   90.00000000
_symmetry_Int_Tables_number   1
_chemical_formula_structural   Cu8SiSe6
_chemical_formula_sum   'Cu16 Si2 Se12'
_cell_volume   537.67335791
_cell_formula_units_Z   2
loop_
 _symmetry_equiv_pos_site_id
 _symmetry_equiv_pos_as_xyz
  1  'x, y, z'
loop_
 _atom_site_type_symbol
 _atom_site_label
 _atom_site_symmetry_multiplicity
 _atom_site_fract_x
 _atom_site_fract_y
 _atom_site_fract_z
 _atom_site_occupancy
  Cu  Cu0  1  0.15855100  0.30628600  0.65587800  1
  Cu  Cu1  1  0.73212600  0.50000000  0.96508900  1
  Cu  Cu2  1  0.26787400  0.00000000  0.46508900  1
  Cu  Cu3  1  0.59365600  0.50000000  0.53455900  1
  Cu  Cu4  1  0.40634400  0.00000000  0.03455900  1
  Cu  Cu5  1  0.84144900  0.19371400  0.15587800  1
  Cu  Cu6  1  0.51788500  0.68772400  0.74851000  1
  Cu  Cu7  1  0.15855100  0.69371400  0.65587800  1
  Cu  Cu8  1  0.84144900  0.80628600  0.15587800  1
  Cu  Cu9  1  0.89444600  0.21462000  0.84383500  1
  Cu  Cu10  1  0.10555400  0.28538000  0.34383500  1
  Cu  Cu11  1  0.10555400  0.71462000  0.34383500  1
  Cu  Cu12  1  0.48211500  0.81227600  0.24851000  1
  Cu  Cu13  1  0.51788500  0.31227600  0.74851000  1
  Cu  Cu14  1  0.48211500  0.18772400  0.24851000  1
  Cu  Cu15  1  0.89444600  0.78538000  0.84383500  1
  Si  Si0  1  0.74822800  0.00000000  0.50796500  1
  Si  Si1  1  0.25177200  0.50000000  0.00796500  1
  Se  Se0  1  0.24852000  0.76114700  0.88749700  1
  Se  Se1  1  0.26600500  0.50000000  0.48590200  1
  Se  Se2  1  0.73399500  0.00000000  0.98590200  1
  Se  Se3  1  0.79942000  0.50000000  0.73183600  1
  Se  Se4  1  0.20058000  0.00000000  0.23183600  1
  Se  Se5  1  0.50375600  0.50000000  0.13897200  1
  Se  Se6  1  0.49624400  0.00000000  0.63897200  1
  Se  Se7  1  0.99531200  0.50000000  0.13923600  1
  Se  Se8  1  0.00468800  0.00000000  0.63923600  1
  Se  Se9  1  0.24852000  0.23885300  0.88749700  1
  Se  Se10  1  0.75148000  0.26114700  0.38749700  1
  Se  Se11  1  0.75148000  0.73885300  0.38749700  1
loop_
_geom_bond_atom_site_label_1
_geom_bond_atom_site_label_2
_geom_bond_distance
_geom_bond_site_symmetry_2
Cu0 Se1 2.370368 1_555
Cu0 Se9 2.502698 1_555
Cu0 Se8 2.503040 1_555
Cu0 Se3 3.048793 1_455
Cu1 Se5 2.421068 1_556
Cu1 Se3 2.432095 1_555
Cu1 Se7 2.599768 1_556
Cu2 Se6 2.421068 1_555
Cu2 Se4 2.432095 1_555
Cu2 Se8 2.599768 1_555
Cu3 Se1 2.411475 1_555
Cu3 Se3 2.501815 1_555
Cu3 Se10 2.568205 1_555
Cu3 Se11 2.568205 1_555
Cu4 Se2 2.411475 1_554
Cu4 Se4 2.501815 1_555
Cu4 Se9 2.568205 1_554
Cu4 Se0 2.568205 1_544
Cu5 Se2 2.370368 1_554
Cu5 Se10 2.502698 1_555
Cu5 Se7 2.503040 1_555
Cu5 Se4 3.048793 1_655
Cu6 Se3 2.453858 1_555
Cu6 Se0 2.463296 1_555
Cu6 Se6 2.546217 1_565
Cu7 Se1 2.370368 1_555
Cu7 Se0 2.502698 1_555
Cu7 Se8 2.503040 1_565
Cu7 Se3 3.048793 1_455
Cu8 Se2 2.370368 1_564
Cu8 Se11 2.502698 1_555
Cu8 Se7 2.503040 1_555
Cu8 Se4 3.048793 1_665
Cu9 Se2 2.429316 1_555
Cu9 Se3 2.475075 1_555
Cu9 Se9 2.594742 1_655
Cu9 Se8 2.731275 1_655
Cu10 Se1 2.429316 1_555
Cu10 Se4 2.475075 1_555
Cu10 Se10 2.594742 1_455
Cu10 Se7 2.731275 1_455
Cu11 Se1 2.429316 1_555
Cu11 Se4 2.475075 1_565
Cu11 Se11 2.594742 1_455
Cu11 Se7 2.731275 1_455
Cu12 Se4 2.453858 1_565
Cu12 Se11 2.463296 1_555
Cu12 Se5 2.546217 1_555
Cu13 Se3 2.453858 1_555
Cu13 Se9 2.463296 1_555
Cu13 Se6 2.546217 1_555
Cu14 Se4 2.453858 1_555
Cu14 Se10 2.463296 1_555
Cu14 Se5 2.546217 1_555
Cu15 Se2 2.429316 1_565
Cu15 Se3 2.475075 1_555
Cu15 Se0 2.594742 1_655
Cu15 Se8 2.731275 1_665
Se0 Si1 2.270830 1_556
Se5 Si1 2.255015 1_555
Se6 Si0 2.255015 1_555
Se7 Si1 2.282620 1_655
Se8 Si0 2.282620 1_455
Se9 Si1 2.270830 1_556
Se10 Si0 2.270830 1_555
Se11 Si0 2.270830 1_565
