# generated using pymatgen
data_YH24C9(N3O4)3
_symmetry_space_group_name_H-M   'P 1'
_cell_length_a   8.95510693
_cell_length_b   8.95510693
_cell_length_c   19.31714149
_cell_angle_alpha   76.42354010
_cell_angle_beta   76.42354010
_cell_angle_gamma   61.19813707
_symmetry_Int_Tables_number   1
_chemical_formula_structural   YH24C9(N3O4)3
_chemical_formula_sum   'Y2 H48 C18 N18 O24'
_cell_volume   1306.02107946
_cell_formula_units_Z   2
loop_
 _symmetry_equiv_pos_site_id
 _symmetry_equiv_pos_as_xyz
  1  'x, y, z'
loop_
 _atom_site_type_symbol
 _atom_site_label
 _atom_site_symmetry_multiplicity
 _atom_site_fract_x
 _atom_site_fract_y
 _atom_site_fract_z
 _atom_site_occupancy
  Y  Y0  1  0.13380300  0.86852100  0.50287900  1
  Y  Y1  1  0.86852100  0.13380300  0.00287900  1
  H  H0  1  0.28976300  0.24225100  0.44898400  1
  H  H1  1  0.24225100  0.28976300  0.94898400  1
  H  H2  1  0.34503300  0.18879500  0.55977000  1
  H  H3  1  0.18879500  0.34503300  0.05977000  1
  H  H4  1  0.94149300  0.77787800  0.79263100  1
  H  H5  1  0.77787800  0.94149300  0.29263100  1
  H  H6  1  0.78322400  0.83288700  0.63207300  1
  H  H7  1  0.83288700  0.78322400  0.13207300  1
  H  H8  1  0.68825300  0.53594700  0.48238600  1
  H  H9  1  0.53594700  0.68825300  0.98238600  1
  H  H10  1  0.76647000  0.49960600  0.58293100  1
  H  H11  1  0.49960600  0.76647000  0.08293100  1
  H  H12  1  0.23580800  0.38963200  0.33868900  1
  H  H13  1  0.38963200  0.23580800  0.83868900  1
  H  H14  1  0.28466300  0.55029300  0.35434700  1
  H  H15  1  0.55029300  0.28466300  0.85434700  1
  H  H16  1  0.07543600  0.56406200  0.38479000  1
  H  H17  1  0.56406200  0.07543600  0.88479000  1
  H  H18  1  0.47784300  0.24317900  0.64035900  1
  H  H19  1  0.24317900  0.47784300  0.14035900  1
  H  H20  1  0.25105100  0.35712700  0.66734300  1
  H  H21  1  0.35712700  0.25105100  0.16734300  1
  H  H22  1  0.36545800  0.46844000  0.61066800  1
  H  H23  1  0.46844000  0.36545800  0.11066800  1
  H  H24  1  0.24269500  0.64836100  0.79626800  1
  H  H25  1  0.64836100  0.24269500  0.29626800  1
  H  H26  1  0.18894800  0.86903600  0.76242400  1
  H  H27  1  0.86903600  0.18894800  0.26242400  1
  H  H28  1  0.27625300  0.71476100  0.70158100  1
  H  H29  1  0.71476100  0.27625300  0.20158100  1
  H  H30  1  0.57112500  0.84774500  0.72924000  1
  H  H31  1  0.84774500  0.57112500  0.22924000  1
  H  H32  1  0.66932300  0.91081300  0.77934600  1
  H  H33  1  0.91081300  0.66932300  0.27934600  1
  H  H34  1  0.74027300  0.68696500  0.77811600  1
  H  H35  1  0.68696500  0.74027300  0.27811600  1
  H  H36  1  0.66641500  0.48069600  0.37896000  1
  H  H37  1  0.48069600  0.66641500  0.87896000  1
  H  H38  1  0.67459400  0.28257500  0.42819300  1
  H  H39  1  0.28257500  0.67459400  0.92819300  1
  H  H40  1  0.86784200  0.28988300  0.38028700  1
  H  H41  1  0.28988300  0.86784200  0.88028700  1
  H  H42  1  0.93599100  0.34987500  0.67685200  1
  H  H43  1  0.34987500  0.93599100  0.17685200  1
  H  H44  1  0.00425800  0.15045000  0.64645200  1
  H  H45  1  0.15045000  0.00425800  0.14645200  1
  H  H46  1  0.79115900  0.25782700  0.69215200  1
  H  H47  1  0.25782700  0.79115900  0.19215200  1
  C  C0  1  0.21353100  0.47433600  0.37670700  1
  C  C1  1  0.47433600  0.21353100  0.87670700  1
  C  C2  1  0.27757500  0.42572100  0.49999900  1
  C  C3  1  0.42572100  0.27757500  0.99999900  1
  C  C4  1  0.35667400  0.34694900  0.62290400  1
  C  C5  1  0.34694900  0.35667400  0.12290400  1
  C  C6  1  0.19179400  0.75201800  0.75200700  1
  C  C7  1  0.75201800  0.19179400  0.25200700  1
  C  C8  1  0.97324600  0.79914300  0.68186100  1
  C  C9  1  0.79914300  0.97324600  0.18186100  1
  C  C10  1  0.69307700  0.81560600  0.74572300  1
  C  C11  1  0.81560600  0.69307700  0.24572300  1
  C  C12  1  0.74365600  0.36180900  0.41212100  1
  C  C13  1  0.36180900  0.74365600  0.91212100  1
  C  C14  1  0.84496800  0.29867000  0.52929500  1
  C  C15  1  0.29867000  0.84496800  0.02929500  1
  C  C16  1  0.89536100  0.27655400  0.65384900  1
  C  C17  1  0.27655400  0.89536100  0.15384900  1
  N  N0  1  0.27228100  0.36529200  0.44289600  1
  N  N1  1  0.36529200  0.27228100  0.94289600  1
  N  N2  1  0.33154100  0.30903900  0.55881400  1
  N  N3  1  0.30903900  0.33154100  0.05881400  1
  N  N4  1  0.02222200  0.77924400  0.74578400  1
  N  N5  1  0.77924400  0.02222200  0.24578400  1
  N  N6  1  0.81347300  0.82083600  0.68135500  1
  N  N7  1  0.82083600  0.81347300  0.18135500  1
  N  N8  1  0.76592500  0.41188400  0.47366200  1
  N  N9  1  0.41188400  0.76592500  0.97366200  1
  N  N10  1  0.84006200  0.37022500  0.58507300  1
  N  N11  1  0.37022500  0.84006200  0.08507300  1
  N  N12  1  0.41402400  0.84934800  0.56625900  1
  N  N13  1  0.84934800  0.41402400  0.06625900  1
  N  N14  1  0.85932200  0.87347500  0.44623700  1
  N  N15  1  0.87347500  0.85932200  0.94623700  1
  N  N16  1  0.31041900  0.96773100  0.36590300  1
  N  N17  1  0.96773100  0.31041900  0.86590300  1
  O  O0  1  0.23845600  0.58324500  0.49677100  1
  O  O1  1  0.58324500  0.23845600  0.99677100  1
  O  O2  1  0.07540800  0.79755400  0.62347600  1
  O  O3  1  0.79755400  0.07540800  0.12347600  1
  O  O4  1  0.91993800  0.13737900  0.52856700  1
  O  O5  1  0.13737900  0.91993800  0.02856700  1
  O  O6  1  0.42646200  0.72003100  0.54317700  1
  O  O7  1  0.72003100  0.42646200  0.04317700  1
  O  O8  1  0.28309700  0.99432000  0.55134700  1
  O  O9  1  0.99432000  0.28309700  0.05134700  1
  O  O10  1  0.97445400  0.91401800  0.40578300  1
  O  O11  1  0.91401800  0.97445400  0.90578300  1
  O  O12  1  0.87153900  0.83340000  0.51369900  1
  O  O13  1  0.83340000  0.87153900  0.01369900  1
  O  O14  1  0.34647600  0.80961600  0.39036100  1
  O  O15  1  0.80961600  0.34647600  0.89036100  1
  O  O16  1  0.19543700  0.07875400  0.40681600  1
  O  O17  1  0.07875400  0.19543700  0.90681600  1
  O  O18  1  0.51990600  0.83566000  0.60151800  1
  O  O19  1  0.83566000  0.51990600  0.10151800  1
  O  O20  1  0.74474900  0.87176100  0.42124100  1
  O  O21  1  0.87176100  0.74474900  0.92124100  1
  O  O22  1  0.38021300  0.01213600  0.30731400  1
  O  O23  1  0.01213600  0.38021300  0.80731400  1
loop_
_geom_bond_atom_site_label_1
_geom_bond_atom_site_label_2
_geom_bond_distance
_geom_bond_site_symmetry_2
H0 N0 1.016857 1_555
H1 N1 1.016857 1_555
H2 N2 1.020188 1_555
H3 N3 1.020188 1_555
H4 N4 1.018773 1_655
H5 N5 1.018773 1_565
H6 N6 1.017827 1_555
H7 N7 1.017827 1_555
H8 N8 1.017241 1_555
H9 N9 1.017241 1_555
H10 N10 1.016358 1_555
H11 N11 1.016358 1_555
C0 H12 1.096109 1_555
C0 H14 1.097904 1_555
C0 H16 1.100050 1_555
C0 N0 1.449046 1_555
C1 H13 1.096109 1_555
C1 H15 1.097904 1_555
C1 H17 1.100050 1_555
C1 N1 1.449046 1_555
C2 O0 1.268590 1_555
C2 N2 1.352787 1_555
C2 N0 1.356968 1_555
C3 O1 1.268590 1_555
C3 N3 1.352787 1_556
C3 N1 1.356968 1_555
C4 H22 1.094864 1_555
C4 H18 1.098957 1_555
C4 H20 1.101062 1_555
C4 N2 1.449278 1_555
C5 H23 1.094864 1_555
C5 H19 1.098957 1_555
C5 H21 1.101062 1_555
C5 N3 1.449278 1_555
C6 H28 1.093503 1_555
C6 H24 1.096865 1_555
C6 H26 1.100051 1_555
C6 N4 1.447425 1_555
C7 H29 1.093503 1_555
C7 H25 1.096865 1_555
C7 H27 1.100051 1_555
C7 N5 1.447425 1_555
C8 O2 1.272699 1_655
C8 N6 1.350122 1_555
C8 N4 1.350745 1_655
C9 O3 1.272699 1_565
C9 N7 1.350122 1_555
C9 N5 1.350745 1_565
C10 H30 1.092818 1_555
C10 H34 1.101753 1_555
C10 H32 1.101984 1_555
C10 N6 1.450037 1_555
C11 H31 1.092818 1_555
C11 H35 1.101753 1_555
C11 H33 1.101984 1_555
C11 N7 1.450037 1_555
C12 H36 1.095680 1_555
C12 H40 1.097482 1_555
C12 H38 1.100730 1_555
C12 N8 1.449772 1_555
C13 H37 1.095680 1_555
C13 H41 1.097482 1_555
C13 H39 1.100730 1_555
C13 N9 1.449772 1_555
C14 O4 1.268025 1_555
C14 N8 1.355710 1_555
C14 N10 1.359512 1_555
C15 O5 1.268025 1_555
C15 N9 1.355710 1_554
C15 N11 1.359512 1_555
C16 H44 1.093560 1_655
C16 H42 1.097283 1_555
C16 H46 1.102142 1_555
C16 N10 1.448910 1_555
C17 H45 1.093560 1_565
C17 H43 1.097283 1_555
C17 H47 1.102142 1_555
C17 N11 1.448910 1_555
N12 O18 1.236929 1_555
N12 O6 1.283395 1_555
N12 O8 1.288172 1_555
N13 O19 1.236929 1_555
N13 O7 1.283395 1_555
N13 O9 1.288172 1_555
N14 O20 1.239890 1_555
N14 O12 1.283962 1_555
N14 O10 1.286358 1_555
N15 O21 1.239890 1_555
N15 O13 1.283962 1_556
N15 O11 1.286358 1_555
N16 O22 1.235218 1_565
N16 O14 1.284276 1_555
N16 O16 1.293731 1_565
N17 O23 1.235218 1_655
N17 O15 1.284276 1_555
N17 O17 1.293731 1_655
O0 Y0 2.280624 1_555
O1 Y1 2.280624 1_556
O2 Y0 2.271023 1_555
O3 Y1 2.271023 1_555
O4 Y0 2.320041 1_645
O5 Y1 2.320041 1_465
O6 Y0 2.521225 1_555
O7 Y1 2.521225 1_555
O8 Y0 2.543071 1_555
O9 Y1 2.543071 1_555
O10 Y0 2.461263 1_655
O11 Y1 2.461263 1_566
O12 Y0 2.471631 1_655
O13 Y1 2.471631 1_565
O14 Y0 2.501290 1_555
O15 Y1 2.501290 1_556
O16 Y0 2.484500 1_545
O17 Y1 2.484500 1_456
