# generated using pymatgen
data_Zn2Cr3O8
_symmetry_space_group_name_H-M   'P 1'
_cell_length_a   5.95074377
_cell_length_b   5.95074377
_cell_length_c   4.97315540
_cell_angle_alpha   71.23944949
_cell_angle_beta   71.23944949
_cell_angle_gamma   59.11903616
_symmetry_Int_Tables_number   1
_chemical_formula_structural   Zn2Cr3O8
_chemical_formula_sum   'Zn2 Cr3 O8'
_cell_volume   140.43016425
_cell_formula_units_Z   1
loop_
 _symmetry_equiv_pos_site_id
 _symmetry_equiv_pos_as_xyz
  1  'x, y, z'
loop_
 _atom_site_type_symbol
 _atom_site_label
 _atom_site_symmetry_multiplicity
 _atom_site_fract_x
 _atom_site_fract_y
 _atom_site_fract_z
 _atom_site_occupancy
  Zn  Zn0  1  0.71689300  0.71689300  0.34187300  1
  Zn  Zn1  1  0.28310700  0.28310700  0.65812700  1
  Cr  Cr0  1  0.00000000  0.00000000  0.50000000  1
  Cr  Cr1  1  0.74024700  0.25975300  0.00000000  1
  Cr  Cr2  1  0.25975300  0.74024700  0.00000000  1
  O  O0  1  0.39590800  0.39590800  0.92498000  1
  O  O1  1  0.60409200  0.60409200  0.07502000  1
  O  O2  1  0.89171000  0.89171000  0.92494500  1
  O  O3  1  0.10829000  0.10829000  0.07505500  1
  O  O4  1  0.33928800  0.88637900  0.58988700  1
  O  O5  1  0.88637900  0.33928800  0.58988700  1
  O  O6  1  0.11362100  0.66071200  0.41011300  1
  O  O7  1  0.66071200  0.11362100  0.41011300  1
loop_
_geom_bond_atom_site_label_1
_geom_bond_atom_site_label_2
_geom_bond_distance
_geom_bond_site_symmetry_2
Cr0 O4 1.928270 1_545
Cr0 O5 1.928270 1_455
Cr0 O7 1.928270 1_455
Cr0 O6 1.928270 1_545
Cr0 O2 1.992726 1_445
Cr0 O3 1.992726 1_555
Cr1 O1 1.894052 1_555
Cr1 O0 1.894052 1_554
Cr1 O7 1.949549 1_555
Cr1 O5 1.949549 1_554
Cr1 O3 2.007849 1_655
Cr1 O2 2.007849 1_544
Cr2 O1 1.894052 1_555
Cr2 O0 1.894052 1_554
Cr2 O6 1.949549 1_555
Cr2 O4 1.949549 1_554
Cr2 O3 2.007849 1_565
Cr2 O2 2.007849 1_454
O0 Zn1 2.066608 1_555
O1 Zn0 2.066608 1_555
O2 Zn0 2.190804 1_556
O3 Zn1 2.190804 1_554
O4 Zn0 2.068512 1_555
O4 Zn1 2.330797 1_565
O5 Zn0 2.068512 1_555
O5 Zn1 2.330797 1_655
O6 Zn1 2.068512 1_555
O6 Zn0 2.330797 1_455
O7 Zn1 2.068512 1_555
O7 Zn0 2.330797 1_545
