# generated using pymatgen
data_Ni3Se
_symmetry_space_group_name_H-M   'P 1'
_cell_length_a   5.15255430
_cell_length_b   5.15255430
_cell_length_c   4.18343700
_cell_angle_alpha   90.00000000
_cell_angle_beta   90.00000000
_cell_angle_gamma   120.00000380
_symmetry_Int_Tables_number   1
_chemical_formula_structural   Ni3Se
_chemical_formula_sum   'Ni6 Se2'
_cell_volume   96.18536604
_cell_formula_units_Z   2
loop_
 _symmetry_equiv_pos_site_id
 _symmetry_equiv_pos_as_xyz
  1  'x, y, z'
loop_
 _atom_site_type_symbol
 _atom_site_label
 _atom_site_symmetry_multiplicity
 _atom_site_fract_x
 _atom_site_fract_y
 _atom_site_fract_z
 _atom_site_occupancy
  Ni  Ni0  1  0.16409600  0.32819200  0.25000000  1
  Ni  Ni1  1  0.67180800  0.83590400  0.25000000  1
  Ni  Ni2  1  0.16409600  0.83590400  0.25000000  1
  Ni  Ni3  1  0.83590400  0.67180800  0.75000000  1
  Ni  Ni4  1  0.32819200  0.16409600  0.75000000  1
  Ni  Ni5  1  0.83590400  0.16409600  0.75000000  1
  Se  Se0  1  0.33333300  0.66666700  0.75000000  1
  Se  Se1  1  0.66666700  0.33333300  0.25000000  1
loop_
_geom_bond_atom_site_label_1
_geom_bond_atom_site_label_2
_geom_bond_distance
_geom_bond_site_symmetry_2
Ni0 Ni1 2.536541 1_445
Ni0 Ni2 2.536541 1_545
Ni0 Ni5 2.553422 1_455
Ni0 Ni5 2.553422 1_454
Ni0 Ni4 2.553422 1_555
Ni0 Ni4 2.553422 1_554
Ni0 Se1 2.576377 1_455
Ni0 Se1 2.576382 1_555
Ni0 Se0 2.580013 1_555
Ni0 Se0 2.580013 1_554
Ni0 Ni1 2.616013 1_555
Ni0 Ni2 2.616014 1_555
Ni1 Ni2 2.536541 1_655
Ni1 Ni5 2.553422 1_564
Ni1 Ni5 2.553422 1_565
Ni1 Ni3 2.553422 1_554
Ni1 Ni3 2.553422 1_555
Ni1 Se1 2.576377 1_565
Ni1 Se1 2.576382 1_555
Ni1 Se0 2.580013 1_555
Ni1 Se0 2.580013 1_554
Ni1 Ni2 2.616014 1_555
Ni2 Ni3 2.553422 1_455
Ni2 Ni4 2.553422 1_564
Ni2 Ni3 2.553422 1_454
Ni2 Ni4 2.553422 1_565
Ni2 Se1 2.576379 1_455
Ni2 Se1 2.576379 1_565
Ni2 Se0 2.580010 1_554
Ni2 Se0 2.580010 1_555
Ni3 Ni4 2.536541 1_665
Ni3 Ni5 2.536541 1_565
Ni3 Se0 2.576377 1_655
Ni3 Se0 2.576382 1_555
Ni3 Se1 2.580013 1_555
Ni3 Se1 2.580013 1_556
Ni3 Ni4 2.616013 1_555
Ni3 Ni5 2.616014 1_555
Ni4 Ni5 2.536541 1_455
Ni4 Se0 2.576377 1_545
Ni4 Se0 2.576382 1_555
Ni4 Se1 2.580013 1_556
Ni4 Se1 2.580013 1_555
Ni4 Ni5 2.616014 1_555
Ni5 Se0 2.576379 1_545
Ni5 Se0 2.576379 1_655
Ni5 Se1 2.580010 1_555
Ni5 Se1 2.580010 1_556
