# generated using pymatgen
data_SrMg30NiO32
_symmetry_space_group_name_H-M   'P 1'
_cell_length_a   8.59786800
_cell_length_b   8.59786800
_cell_length_c   8.58736979
_cell_angle_alpha   90.00000000
_cell_angle_beta   90.00000000
_cell_angle_gamma   90.00000000
_symmetry_Int_Tables_number   1
_chemical_formula_structural   SrMg30NiO32
_chemical_formula_sum   'Sr1 Mg30 Ni1 O32'
_cell_volume   634.80700642
_cell_formula_units_Z   1
loop_
 _symmetry_equiv_pos_site_id
 _symmetry_equiv_pos_as_xyz
  1  'x, y, z'
loop_
 _atom_site_type_symbol
 _atom_site_label
 _atom_site_symmetry_multiplicity
 _atom_site_fract_x
 _atom_site_fract_y
 _atom_site_fract_z
 _atom_site_occupancy
  Sr  Sr0  1  0.00000000  0.00000000  0.50000000  1
  Mg  Mg0  1  0.00000000  0.50000000  0.00000000  1
  Mg  Mg1  1  0.00000000  0.50000000  0.50000000  1
  Mg  Mg2  1  0.50000000  0.00000000  0.00000000  1
  Mg  Mg3  1  0.50000000  0.00000000  0.50000000  1
  Mg  Mg4  1  0.50000000  0.50000000  0.00000000  1
  Mg  Mg5  1  0.50000000  0.50000000  0.50000000  1
  Mg  Mg6  1  0.00000000  0.25473963  0.24456659  1
  Mg  Mg7  1  0.00000000  0.25473963  0.75543341  1
  Mg  Mg8  1  0.00000000  0.74526037  0.24456659  1
  Mg  Mg9  1  0.00000000  0.74526037  0.75543341  1
  Mg  Mg10  1  0.50000000  0.25022101  0.24944915  1
  Mg  Mg11  1  0.50000000  0.25022101  0.75055085  1
  Mg  Mg12  1  0.50000000  0.74977899  0.24944915  1
  Mg  Mg13  1  0.50000000  0.74977899  0.75055085  1
  Mg  Mg14  1  0.25473963  0.00000000  0.24456659  1
  Mg  Mg15  1  0.25473963  0.00000000  0.75543341  1
  Mg  Mg16  1  0.25022101  0.50000000  0.24944915  1
  Mg  Mg17  1  0.25022101  0.50000000  0.75055085  1
  Mg  Mg18  1  0.74526037  0.00000000  0.24456659  1
  Mg  Mg19  1  0.74526037  0.00000000  0.75543341  1
  Mg  Mg20  1  0.74977899  0.50000000  0.24944915  1
  Mg  Mg21  1  0.74977899  0.50000000  0.75055085  1
  Mg  Mg22  1  0.24958764  0.24958764  0.00000000  1
  Mg  Mg23  1  0.25490644  0.25490644  0.50000000  1
  Mg  Mg24  1  0.24958764  0.75041236  0.00000000  1
  Mg  Mg25  1  0.25490644  0.74509356  0.50000000  1
  Mg  Mg26  1  0.75041236  0.24958764  0.00000000  1
  Mg  Mg27  1  0.74509356  0.25490644  0.50000000  1
  Mg  Mg28  1  0.75041236  0.75041236  0.00000000  1
  Mg  Mg29  1  0.74509356  0.74509356  0.50000000  1
  Ni  Ni0  1  0.00000000  0.00000000  0.00000000  1
  O  O0  1  0.25480730  0.00000000  0.00000000  1
  O  O1  1  0.26992161  0.00000000  0.50000000  1
  O  O2  1  0.25064277  0.50000000  0.00000000  1
  O  O3  1  0.25359480  0.50000000  0.50000000  1
  O  O4  1  0.74519270  0.00000000  0.00000000  1
  O  O5  1  0.73007839  0.00000000  0.50000000  1
  O  O6  1  0.74935723  0.50000000  0.00000000  1
  O  O7  1  0.74640520  0.50000000  0.50000000  1
  O  O8  1  0.24930675  0.24930675  0.25016421  1
  O  O9  1  0.24930675  0.24930675  0.74983579  1
  O  O10  1  0.24930675  0.75069325  0.25016421  1
  O  O11  1  0.24930675  0.75069325  0.74983579  1
  O  O12  1  0.75069325  0.24930675  0.25016421  1
  O  O13  1  0.75069325  0.24930675  0.74983579  1
  O  O14  1  0.75069325  0.75069325  0.25016421  1
  O  O15  1  0.75069325  0.75069325  0.74983579  1
  O  O16  1  0.00000000  0.00000000  0.23042214  1
  O  O17  1  0.00000000  0.00000000  0.76957786  1
  O  O18  1  0.00000000  0.50000000  0.24627468  1
  O  O19  1  0.00000000  0.50000000  0.75372532  1
  O  O20  1  0.50000000  0.00000000  0.24627468  1
  O  O21  1  0.50000000  0.00000000  0.75372532  1
  O  O22  1  0.50000000  0.50000000  0.24919815  1
  O  O23  1  0.50000000  0.50000000  0.75080185  1
  O  O24  1  0.00000000  0.25480730  0.00000000  1
  O  O25  1  0.00000000  0.26992161  0.50000000  1
  O  O26  1  0.00000000  0.74519270  0.00000000  1
  O  O27  1  0.00000000  0.73007839  0.50000000  1
  O  O28  1  0.50000000  0.25064277  0.00000000  1
  O  O29  1  0.50000000  0.25359480  0.50000000  1
  O  O30  1  0.50000000  0.74935723  0.00000000  1
  O  O31  1  0.50000000  0.74640520  0.50000000  1
loop_
_geom_bond_atom_site_label_1
_geom_bond_atom_site_label_2
_geom_bond_distance
_geom_bond_site_symmetry_2
Mg0 O24 2.108134 1_555
Mg0 O26 2.108134 1_555
Mg0 O18 2.114852 1_555
Mg0 O19 2.114852 1_554
Mg0 O2 2.154993 1_555
Mg0 O6 2.154993 1_455
Mg1 O27 1.978184 1_555
Mg1 O25 1.978184 1_555
Mg1 O18 2.178833 1_555
Mg1 O19 2.178833 1_555
Mg1 O3 2.180375 1_555
Mg1 O7 2.180375 1_455
Mg2 O0 2.108134 1_555
Mg2 O4 2.108134 1_555
Mg2 O20 2.114852 1_555
Mg2 O21 2.114852 1_554
Mg2 O30 2.154993 1_545
Mg2 O28 2.154993 1_555
Mg3 O5 1.978184 1_555
Mg3 O1 1.978184 1_555
Mg3 O21 2.178833 1_555
Mg3 O20 2.178833 1_555
Mg3 O31 2.180375 1_545
Mg3 O29 2.180375 1_555
Mg4 O22 2.139957 1_555
Mg4 O23 2.139957 1_554
Mg4 O2 2.143941 1_555
Mg4 O28 2.143941 1_555
Mg4 O6 2.143941 1_555
Mg4 O30 2.143941 1_555
Mg5 O3 2.118559 1_555
Mg5 O31 2.118559 1_555
Mg5 O7 2.118559 1_555
Mg5 O29 2.118559 1_555
Mg5 O22 2.153728 1_555
Mg5 O23 2.153728 1_555
Mg6 O24 2.100184 1_555
Mg6 O18 2.108767 1_555
Mg6 O8 2.144554 1_555
Mg6 O12 2.144554 1_455
Mg6 O16 2.193583 1_555
Mg6 O25 2.197382 1_555
Mg7 O24 2.100184 1_556
Mg7 O19 2.108767 1_555
Mg7 O9 2.144554 1_555
Mg7 O13 2.144554 1_455
Mg7 O17 2.193583 1_555
Mg7 O25 2.197382 1_555
Mg8 O26 2.100184 1_555
Mg8 O18 2.108767 1_555
Mg8 O10 2.144554 1_555
Mg8 O14 2.144554 1_455
Mg8 O16 2.193583 1_565
Mg8 O27 2.197382 1_555
Mg9 O26 2.100184 1_556
Mg9 O19 2.108767 1_555
Mg9 O11 2.144554 1_555
Mg9 O15 2.144554 1_455
Mg9 O17 2.193583 1_565
Mg9 O27 2.197382 1_555
Mg10 O28 2.142115 1_555
Mg10 O22 2.147568 1_555
Mg10 O20 2.151540 1_555
Mg10 O29 2.151768 1_555
Mg10 O12 2.155451 1_555
Mg10 O8 2.155451 1_555
Mg11 O28 2.142115 1_556
Mg11 O23 2.147568 1_555
Mg11 O21 2.151540 1_555
Mg11 O29 2.151768 1_555
Mg11 O9 2.155451 1_555
Mg11 O13 2.155451 1_555
Mg12 O30 2.142115 1_555
Mg12 O22 2.147568 1_555
Mg12 O20 2.151540 1_565
Mg12 O31 2.151768 1_555
Mg12 O10 2.155451 1_555
Mg12 O14 2.155451 1_555
Mg13 O30 2.142115 1_556
Mg13 O23 2.147568 1_555
Mg13 O21 2.151540 1_565
Mg13 O31 2.151768 1_555
Mg13 O11 2.155451 1_555
Mg13 O15 2.155451 1_555
Mg14 O0 2.100184 1_555
Mg14 O20 2.108767 1_555
Mg14 O8 2.144554 1_555
Mg14 O10 2.144554 1_545
Mg14 O16 2.193583 1_555
Mg14 O1 2.197382 1_555
Mg15 O0 2.100184 1_556
Mg15 O21 2.108767 1_555
Mg15 O9 2.144554 1_555
Mg15 O11 2.144554 1_545
Mg15 O17 2.193583 1_555
Mg15 O1 2.197382 1_555
Mg16 O2 2.142115 1_555
Mg16 O22 2.147568 1_555
Mg16 O18 2.151540 1_555
Mg16 O3 2.151768 1_555
Mg16 O10 2.155451 1_555
Mg16 O8 2.155451 1_555
Mg17 O2 2.142115 1_556
Mg17 O23 2.147568 1_555
Mg17 O19 2.151540 1_555
Mg17 O3 2.151768 1_555
Mg17 O9 2.155451 1_555
Mg17 O11 2.155451 1_555
Mg18 O4 2.100184 1_555
Mg18 O20 2.108767 1_555
Mg18 O14 2.144554 1_545
Mg18 O12 2.144554 1_555
Mg18 O16 2.193583 1_655
Mg18 O5 2.197382 1_555
Mg19 O4 2.100184 1_556
Mg19 O21 2.108767 1_555
Mg19 O15 2.144554 1_545
Mg19 O13 2.144554 1_555
Mg19 O17 2.193583 1_655
Mg19 O5 2.197382 1_555
Mg20 O6 2.142115 1_555
Mg20 O22 2.147568 1_555
Mg20 O18 2.151540 1_655
Mg20 O7 2.151768 1_555
Mg20 O12 2.155451 1_555
Mg20 O14 2.155451 1_555
Mg21 O6 2.142115 1_556
Mg21 O23 2.147568 1_555
Mg21 O19 2.151540 1_655
Mg21 O7 2.151768 1_555
Mg21 O13 2.155451 1_555
Mg21 O15 2.155451 1_555
Mg22 O24 2.146391 1_555
Mg22 O0 2.146391 1_555
Mg22 O8 2.148255 1_555
Mg22 O9 2.148255 1_554
Mg22 O2 2.153032 1_555
Mg22 O28 2.153032 1_555
Mg23 O3 2.107312 1_555
Mg23 O29 2.107312 1_555
Mg23 O9 2.146512 1_555
Mg23 O8 2.146512 1_555
Mg23 O1 2.195451 1_555
Mg23 O25 2.195451 1_555
Mg24 O26 2.146391 1_555
Mg24 O0 2.146391 1_565
Mg24 O10 2.148255 1_555
Mg24 O11 2.148255 1_554
Mg24 O2 2.153032 1_555
Mg24 O30 2.153032 1_555
Mg25 O31 2.107312 1_555
Mg25 O3 2.107312 1_555
Mg25 O10 2.146512 1_555
Mg25 O11 2.146512 1_555
Mg25 O1 2.195451 1_565
Mg25 O27 2.195451 1_555
Mg26 O24 2.146391 1_655
Mg26 O4 2.146391 1_555
Mg26 O13 2.148255 1_554
Mg26 O12 2.148255 1_555
Mg26 O6 2.153032 1_555
Mg26 O28 2.153032 1_555
Mg27 O7 2.107312 1_555
Mg27 O29 2.107312 1_555
Mg27 O13 2.146512 1_555
Mg27 O12 2.146512 1_555
Mg27 O25 2.195451 1_655
Mg27 O5 2.195451 1_555
Mg28 O26 2.146391 1_655
Mg28 O4 2.146391 1_565
Mg28 O14 2.148255 1_555
Mg28 O15 2.148255 1_554
Mg28 O6 2.153032 1_555
Mg28 O30 2.153032 1_555
Mg29 O7 2.107312 1_555
Mg29 O31 2.107312 1_555
Mg29 O15 2.146512 1_555
Mg29 O14 2.146512 1_555
Mg29 O5 2.195451 1_565
Mg29 O27 2.195451 1_655
Ni0 O16 1.978720 1_555
Ni0 O17 1.978720 1_554
Ni0 O4 2.190800 1_455
Ni0 O26 2.190800 1_545
Ni0 O0 2.190800 1_555
Ni0 O24 2.190800 1_555
O1 Sr0 2.320750 1_555
O5 Sr0 2.320750 1_655
O16 Sr0 2.314965 1_555
O17 Sr0 2.314965 1_555
O25 Sr0 2.320750 1_555
O27 Sr0 2.320750 1_565
