# generated using pymatgen
data_BaSr7Fe7CoO24
_symmetry_space_group_name_H-M   'P 1'
_cell_length_a   7.85822691
_cell_length_b   7.85822691
_cell_length_c   7.85822639
_cell_angle_alpha   89.98716616
_cell_angle_beta   89.98716616
_cell_angle_gamma   89.98716244
_symmetry_Int_Tables_number   1
_chemical_formula_structural   BaSr7Fe7CoO24
_chemical_formula_sum   'Ba1 Sr7 Fe7 Co1 O24'
_cell_volume   485.25903915
_cell_formula_units_Z   1
loop_
 _symmetry_equiv_pos_site_id
 _symmetry_equiv_pos_as_xyz
  1  'x, y, z'
loop_
 _atom_site_type_symbol
 _atom_site_label
 _atom_site_symmetry_multiplicity
 _atom_site_fract_x
 _atom_site_fract_y
 _atom_site_fract_z
 _atom_site_occupancy
  Ba  Ba0  1  0.74987200  0.74987200  0.74987200  1
  Sr  Sr0  1  0.75032100  0.24965400  0.75032100  1
  Sr  Sr1  1  0.75033100  0.24963100  0.24963100  1
  Sr  Sr2  1  0.75032100  0.75032100  0.24965400  1
  Sr  Sr3  1  0.24963100  0.24963100  0.75033100  1
  Sr  Sr4  1  0.24967800  0.24967800  0.24967800  1
  Sr  Sr5  1  0.24965400  0.75032100  0.75032100  1
  Sr  Sr6  1  0.24963100  0.75033100  0.24963100  1
  Fe  Fe0  1  0.49928100  0.00067800  0.00067800  1
  Fe  Fe1  1  0.49933300  0.00096200  0.49933300  1
  Fe  Fe2  1  0.49933300  0.49933300  0.00096200  1
  Fe  Fe3  1  0.00071400  0.00071400  0.00071400  1
  Fe  Fe4  1  0.00067800  0.00067800  0.49928100  1
  Fe  Fe5  1  0.00067800  0.49928100  0.00067800  1
  Fe  Fe6  1  0.00096200  0.49933300  0.49933300  1
  Co  Co0  1  0.49918200  0.49918200  0.49918200  1
  O  O0  1  0.75132800  0.00307500  0.00307500  1
  O  O1  1  0.74864900  0.00321300  0.49687200  1
  O  O2  1  0.74864900  0.49687200  0.00321300  1
  O  O3  1  0.74252800  0.49709300  0.49709300  1
  O  O4  1  0.24866200  0.00037400  0.00037400  1
  O  O5  1  0.25135600  0.00035700  0.49961600  1
  O  O6  1  0.25135600  0.49961600  0.00035700  1
  O  O7  1  0.25733800  0.49966500  0.49966500  1
  O  O8  1  0.49961600  0.25135600  0.00035700  1
  O  O9  1  0.49966500  0.25733800  0.49966500  1
  O  O10  1  0.49687200  0.74864900  0.00321300  1
  O  O11  1  0.49709300  0.74252800  0.49709300  1
  O  O12  1  0.00037400  0.24866200  0.00037400  1
  O  O13  1  0.00035700  0.25135600  0.49961600  1
  O  O14  1  0.00307500  0.75132800  0.00307500  1
  O  O15  1  0.00321300  0.74864900  0.49687200  1
  O  O16  1  0.49687200  0.00321300  0.74864900  1
  O  O17  1  0.49961600  0.00035700  0.25135600  1
  O  O18  1  0.49709300  0.49709300  0.74252800  1
  O  O19  1  0.49966500  0.49966500  0.25733800  1
  O  O20  1  0.00307500  0.00307500  0.75132800  1
  O  O21  1  0.00037400  0.00037400  0.24866200  1
  O  O22  1  0.00321300  0.49687200  0.74864900  1
  O  O23  1  0.00035700  0.49961600  0.25135600  1
loop_
_geom_bond_atom_site_label_1
_geom_bond_atom_site_label_2
_geom_bond_distance
_geom_bond_site_symmetry_2
Ba0 O3 2.810112 1_555
Ba0 O11 2.810112 1_555
Ba0 O18 2.810112 1_555
Ba0 O15 2.813239 1_655
Ba0 O1 2.813239 1_565
Ba0 O10 2.813239 1_556
Ba0 O2 2.813239 1_556
Ba0 O22 2.813239 1_655
Ba0 O16 2.813239 1_565
Ba0 O14 2.814240 1_656
Ba0 O0 2.814240 1_566
Ba0 O20 2.814240 1_665
Fe0 O4 1.969425 1_555
Fe0 O17 1.969888 1_555
Fe0 O8 1.969888 1_555
Fe0 O16 1.980691 1_554
Fe0 O10 1.980691 1_545
Fe0 O0 1.980830 1_555
Fe1 O17 1.948667 1_555
Fe1 O5 1.948667 1_555
Fe1 O16 1.959356 1_555
Fe1 O1 1.959357 1_555
Fe1 O9 2.014665 1_555
Fe1 O11 2.030993 1_545
Fe2 O6 1.948667 1_555
Fe2 O8 1.948667 1_555
Fe2 O10 1.959357 1_555
Fe2 O2 1.959357 1_555
Fe2 O19 2.014665 1_555
Fe2 O18 2.030993 1_554
Fe3 O21 1.948434 1_555
Fe3 O12 1.948434 1_555
Fe3 O4 1.948434 1_555
Fe3 O20 1.959899 1_554
Fe3 O0 1.959899 1_455
Fe3 O14 1.959899 1_545
Fe4 O21 1.969425 1_555
Fe4 O13 1.969888 1_555
Fe4 O5 1.969888 1_555
Fe4 O15 1.980691 1_545
Fe4 O1 1.980691 1_455
Fe4 O20 1.980830 1_555
Fe5 O12 1.969425 1_555
Fe5 O23 1.969888 1_555
Fe5 O6 1.969888 1_555
Fe5 O22 1.980691 1_554
Fe5 O2 1.980691 1_455
Fe5 O14 1.980830 1_555
Fe6 O23 1.948667 1_555
Fe6 O13 1.948667 1_555
Fe6 O22 1.959356 1_555
Fe6 O15 1.959357 1_555
Fe6 O7 2.014665 1_555
Fe6 O3 2.030993 1_455
Co0 O19 1.900471 1_555
Co0 O7 1.900471 1_555
Co0 O9 1.900471 1_555
Co0 O18 1.912402 1_555
Co0 O3 1.912402 1_555
Co0 O11 1.912402 1_555
O0 Sr1 2.740344 1_555
O0 Sr0 2.774509 1_554
O0 Sr2 2.774509 1_545
O1 Sr1 2.742797 1_555
O1 Sr0 2.778311 1_555
O1 Sr2 2.779431 1_545
O2 Sr1 2.742797 1_555
O2 Sr2 2.778311 1_555
O2 Sr0 2.779431 1_554
O3 Sr1 2.751069 1_555
O3 Sr0 2.782558 1_555
O3 Sr2 2.782558 1_555
O4 Sr4 2.770892 1_555
O4 Sr6 2.774116 1_545
O4 Sr3 2.774116 1_554
O4 Sr5 2.779211 1_544
O5 Sr4 2.773908 1_555
O5 Sr3 2.778593 1_555
O5 Sr6 2.778712 1_545
O5 Sr5 2.782143 1_545
O6 Sr4 2.773908 1_555
O6 Sr6 2.778593 1_555
O6 Sr3 2.778712 1_554
O6 Sr5 2.782143 1_554
O7 Sr4 2.779140 1_555
O7 Sr6 2.782542 1_555
O7 Sr3 2.782542 1_555
O7 Sr5 2.786540 1_555
O8 Sr4 2.773908 1_555
O8 Sr1 2.778593 1_555
O8 Sr3 2.778712 1_554
O8 Sr0 2.782143 1_554
O9 Sr4 2.779140 1_555
O9 Sr1 2.782542 1_555
O9 Sr3 2.782542 1_555
O9 Sr0 2.786540 1_555
O10 Sr6 2.742797 1_555
O10 Sr2 2.778311 1_555
O10 Sr5 2.779431 1_554
O11 Sr6 2.751069 1_555
O11 Sr5 2.782558 1_555
O11 Sr2 2.782558 1_555
O12 Sr4 2.770892 1_555
O12 Sr1 2.774116 1_455
O12 Sr3 2.774116 1_554
O12 Sr0 2.779211 1_454
O13 Sr4 2.773908 1_555
O13 Sr3 2.778593 1_555
O13 Sr1 2.778712 1_455
O13 Sr0 2.782143 1_455
O14 Sr6 2.740344 1_555
O14 Sr5 2.774509 1_554
O14 Sr2 2.774509 1_455
O15 Sr6 2.742797 1_555
O15 Sr5 2.778311 1_555
O15 Sr2 2.779431 1_455
O16 Sr3 2.742797 1_555
O16 Sr0 2.778311 1_555
O16 Sr5 2.779431 1_545
O17 Sr4 2.773908 1_555
O17 Sr1 2.778593 1_555
O17 Sr6 2.778712 1_545
O17 Sr2 2.782143 1_545
O18 Sr3 2.751070 1_555
O18 Sr0 2.782558 1_555
O18 Sr5 2.782558 1_555
O19 Sr4 2.779141 1_555
O19 Sr6 2.782542 1_555
O19 Sr1 2.782542 1_555
O19 Sr2 2.786540 1_555
O20 Sr3 2.740345 1_555
O20 Sr5 2.774509 1_545
O20 Sr0 2.774509 1_455
O21 Sr4 2.770892 1_555
O21 Sr6 2.774116 1_545
O21 Sr1 2.774116 1_455
O21 Sr2 2.779212 1_445
O22 Sr3 2.742797 1_555
O22 Sr5 2.778311 1_555
O22 Sr0 2.779431 1_455
O23 Sr4 2.773908 1_555
O23 Sr6 2.778593 1_555
O23 Sr1 2.778712 1_455
O23 Sr2 2.782143 1_455
