# generated using pymatgen
data_Hf(PO5)2
_symmetry_space_group_name_H-M   'P 1'
_cell_length_a   6.63648300
_cell_length_b   5.40403700
_cell_length_c   12.32588202
_cell_angle_alpha   80.93813794
_cell_angle_beta   90.00000000
_cell_angle_gamma   90.00000000
_symmetry_Int_Tables_number   1
_chemical_formula_structural   Hf(PO5)2
_chemical_formula_sum   'Hf2 P4 O20'
_cell_volume   436.53564014
_cell_formula_units_Z   2
loop_
 _symmetry_equiv_pos_site_id
 _symmetry_equiv_pos_as_xyz
  1  'x, y, z'
loop_
 _atom_site_type_symbol
 _atom_site_label
 _atom_site_symmetry_multiplicity
 _atom_site_fract_x
 _atom_site_fract_y
 _atom_site_fract_z
 _atom_site_occupancy
  Hf  Hf0  1  0.26094100  0.80728800  0.86992900  1
  Hf  Hf1  1  0.76094100  0.19271200  0.13007100  1
  P  P0  1  0.26200700  0.24421800  0.05733100  1
  P  P1  1  0.76200700  0.75578200  0.94266900  1
  P  P2  1  0.31463900  0.36535400  0.68245400  1
  P  P3  1  0.81463900  0.63464600  0.31754600  1
  O  O0  1  0.26097000  0.06228100  0.97266800  1
  O  O1  1  0.76097000  0.93771900  0.02733200  1
  O  O2  1  0.45152500  0.19765900  0.13003100  1
  O  O3  1  0.95152500  0.80234100  0.86996900  1
  O  O4  1  0.07253300  0.20057400  0.13017400  1
  O  O5  1  0.57253300  0.79942600  0.86982600  1
  O  O6  1  0.26309300  0.51576400  0.99586700  1
  O  O7  1  0.76309400  0.48423600  0.00413300  1
  O  O8  1  0.27215300  0.09530800  0.73288000  1
  O  O9  1  0.77215300  0.90469200  0.26712000  1
  O  O10  1  0.26306800  0.55146900  0.75853100  1
  O  O11  1  0.76306800  0.44853100  0.24146900  1
  O  O12  1  0.54018500  0.38203500  0.64375900  1
  O  O13  1  0.04018500  0.61796500  0.35624100  1
  O  O14  1  0.19996200  0.45026000  0.57178200  1
  O  O15  1  0.69996200  0.54974000  0.42821800  1
  O  O16  1  0.22567300  0.28676300  0.36368200  1
  O  O17  1  0.72567300  0.71323700  0.63631800  1
  O  O18  1  0.03525000  0.19041800  0.48987000  1
  O  O19  1  0.53525000  0.80958200  0.51013000  1
loop_
_geom_bond_atom_site_label_1
_geom_bond_atom_site_label_2
_geom_bond_distance
_geom_bond_site_symmetry_2
Hf0 O0 2.013004 1_565
Hf0 O6 2.030123 1_555
Hf0 O3 2.053607 1_455
Hf0 O5 2.068316 1_555
Hf0 O10 2.096347 1_555
Hf0 O8 2.110327 1_565
Hf1 O1 2.013004 1_545
Hf1 O7 2.030123 1_555
Hf1 O2 2.053607 1_555
Hf1 O4 2.068316 1_655
Hf1 O11 2.096347 1_555
Hf1 O9 2.110327 1_545
O0 P0 1.542369 1_556
O1 P1 1.542369 1_554
O2 P0 1.541803 1_555
O3 P1 1.541803 1_555
O4 P0 1.541500 1_555
O5 P1 1.541500 1_555
O6 P0 1.541818 1_556
O7 P1 1.541818 1_554
O8 P2 1.519792 1_555
O9 P3 1.519792 1_555
O10 P2 1.518259 1_555
O11 P3 1.518259 1_555
O12 P2 1.569258 1_555
O13 P3 1.569258 1_455
O14 P2 1.566339 1_555
O15 P3 1.566339 1_555
O16 O18 2.008040 1_555
O17 O19 2.008040 1_555
