# generated using pymatgen
data_Mg6Si5
_symmetry_space_group_name_H-M   'P 1'
_cell_length_a   5.41079200
_cell_length_b   6.75222008
_cell_length_c   12.27199803
_cell_angle_alpha   100.42198849
_cell_angle_beta   92.76622195
_cell_angle_gamma   96.40439093
_symmetry_Int_Tables_number   1
_chemical_formula_structural   Mg6Si5
_chemical_formula_sum   'Mg12 Si10'
_cell_volume   437.13126646
_cell_formula_units_Z   2
loop_
 _symmetry_equiv_pos_site_id
 _symmetry_equiv_pos_as_xyz
  1  'x, y, z'
loop_
 _atom_site_type_symbol
 _atom_site_label
 _atom_site_symmetry_multiplicity
 _atom_site_fract_x
 _atom_site_fract_y
 _atom_site_fract_z
 _atom_site_occupancy
  Mg  Mg0  1  0.89391700  0.65850900  0.07445800  1
  Mg  Mg1  1  0.23099000  0.12808200  0.50847800  1
  Mg  Mg2  1  0.92896800  0.60350200  0.37380000  1
  Mg  Mg3  1  0.73619500  0.94376900  0.60316700  1
  Mg  Mg4  1  0.96238800  0.76751400  0.80552300  1
  Mg  Mg5  1  0.38620000  0.53402300  0.16496300  1
  Mg  Mg6  1  0.74274300  0.02595500  0.34938700  1
  Mg  Mg7  1  0.80898900  0.40676000  0.57479600  1
  Mg  Mg8  1  0.35263700  0.54467300  0.91801400  1
  Mg  Mg9  1  0.46228200  0.95917900  0.10149300  1
  Mg  Mg10  1  0.00888300  0.15572400  0.00877600  1
  Mg  Mg11  1  0.49054100  0.02653200  0.86793300  1
  Si  Si0  1  0.17169000  0.74041100  0.57654500  1
  Si  Si1  1  0.43069300  0.73406500  0.41809300  1
  Si  Si2  1  0.74880600  0.30377900  0.20759900  1
  Si  Si3  1  0.07787000  0.15949200  0.76967400  1
  Si  Si4  1  0.46993400  0.30233100  0.71608500  1
  Si  Si5  1  0.48194900  0.37628200  0.37017500  1
  Si  Si6  1  0.14716100  0.20764400  0.24315300  1
  Si  Si7  1  0.44986600  0.65903600  0.71312100  1
  Si  Si8  1  0.81895900  0.39268200  0.86343400  1
  Si  Si9  1  0.19486000  0.86638800  0.27484500  1
loop_
_geom_bond_atom_site_label_1
_geom_bond_atom_site_label_2
_geom_bond_distance
_geom_bond_site_symmetry_2
Mg0 Si8 2.854332 1_554
Mg0 Si9 2.919571 1_655
Mg0 Si2 3.184864 1_555
Mg1 Si4 2.793757 1_555
Mg1 Si5 2.876984 1_555
Mg1 Si0 2.877903 1_545
Mg1 Si1 3.027457 1_545
Mg1 Si9 3.068707 1_545
Mg2 Si9 2.659732 1_655
Mg2 Si2 2.660946 1_555
Mg2 Si5 2.709827 1_555
Mg2 Si0 2.711376 1_655
Mg2 Si1 2.755486 1_655
Mg2 Si1 2.973170 1_555
Mg3 Si3 2.769960 1_665
Mg3 Si1 2.801394 1_555
Mg3 Si0 2.859810 1_655
Mg3 Si7 2.897096 1_555
Mg3 Si4 3.100729 1_565
Mg3 Si0 3.182356 1_555
Mg4 Si3 2.769111 1_665
Mg4 Si8 2.789059 1_555
Mg4 Si7 2.907843 1_555
Mg4 Si7 3.032940 1_655
Mg4 Si0 3.062608 1_655
Mg5 Si2 2.723197 1_555
Mg5 Si9 2.735850 1_555
Mg5 Si6 2.774746 1_555
Mg5 Si5 2.951712 1_555
Mg5 Si1 3.141565 1_555
Mg6 Si1 2.728086 1_545
Mg6 Si2 2.778595 1_555
Mg6 Si5 2.865814 1_555
Mg6 Si6 2.871954 1_655
Mg6 Si9 2.903366 1_645
Mg6 Si9 3.074887 1_545
Mg7 Si4 2.707394 1_555
Mg7 Si0 2.814152 1_655
Mg7 Si5 2.963479 1_555
Mg7 Si7 3.093489 1_555
Mg8 Si7 2.816920 1_555
Mg8 Si4 2.852666 1_555
Mg8 Si8 2.891434 1_555
Mg8 Si8 2.956979 1_455
Mg8 Si3 3.074371 1_555
Mg9 Si2 2.723479 1_565
Mg9 Si9 2.754831 1_555
Mg9 Si6 2.934814 1_565
Mg10 Si8 2.831917 1_454
Mg10 Si6 2.885239 1_555
Mg10 Si2 2.948868 1_455
Mg10 Si3 2.980011 1_554
Mg11 Si3 2.797279 1_555
Mg11 Si7 2.819129 1_545
Mg11 Si4 2.869629 1_555
Mg11 Si8 2.889969 1_555
Si0 Si7 2.377133 1_555
Si0 Si1 2.448109 1_555
Si1 Si5 2.431088 1_555
Si1 Si9 2.474474 1_555
Si2 Si6 2.362495 1_655
Si2 Si5 2.527344 1_555
Si3 Si8 2.399565 1_455
Si3 Si4 2.402217 1_555
Si4 Si7 2.429792 1_555
Si4 Si8 2.494533 1_555
Si5 Si6 2.373397 1_555
Si6 Si9 2.444297 1_545
