# generated using pymatgen
data_Ta(WO4)2
_symmetry_space_group_name_H-M   'P 1'
_cell_length_a   5.12305800
_cell_length_b   5.29318612
_cell_length_c   7.21802772
_cell_angle_alpha   107.76114870
_cell_angle_beta   92.91596581
_cell_angle_gamma   104.84113825
_symmetry_Int_Tables_number   1
_chemical_formula_structural   Ta(WO4)2
_chemical_formula_sum   'Ta1 W2 O8'
_cell_volume   178.40749913
_cell_formula_units_Z   1
loop_
 _symmetry_equiv_pos_site_id
 _symmetry_equiv_pos_as_xyz
  1  'x, y, z'
loop_
 _atom_site_type_symbol
 _atom_site_label
 _atom_site_symmetry_multiplicity
 _atom_site_fract_x
 _atom_site_fract_y
 _atom_site_fract_z
 _atom_site_occupancy
  Ta  Ta0  1  0.97915800  0.10762900  0.23641900  1
  W  W0  1  0.70244700  0.65225800  0.41204400  1
  W  W1  1  0.22763200  0.56594300  0.04397300  1
  O  O0  1  0.63524200  0.82006700  0.64163700  1
  O  O1  1  0.85491800  0.35173000  0.43705800  1
  O  O2  1  0.59705600  0.81279400  0.19357300  1
  O  O3  1  0.89614900  0.30505500  0.05039700  1
  O  O4  1  0.09550800  0.83698300  0.99749900  1
  O  O5  1  0.31903200  0.40380500  0.82129500  1
  O  O6  1  0.34373700  0.37490800  0.25310800  1
  O  O7  1  0.07407500  0.86544100  0.36862800  1
loop_
_geom_bond_atom_site_label_1
_geom_bond_atom_site_label_2
_geom_bond_distance
_geom_bond_site_symmetry_2
O0 W0 1.723515 1_555
O1 Ta0 1.882913 1_555
O1 W0 1.992649 1_555
O2 W1 2.029680 1_555
O2 Ta0 2.107617 1_565
O2 W0 2.113346 1_555
O3 W1 1.907550 1_655
O3 Ta0 2.025191 1_555
O4 W1 1.843080 1_556
O4 Ta0 2.101511 1_466
O5 W1 1.726286 1_556
O6 Ta0 2.006003 1_455
O6 W0 2.055321 1_555
O6 W1 2.191586 1_555
O7 Ta0 1.951664 1_465
O7 W0 2.042583 1_455
