# generated using pymatgen
data_B(HO)2
_symmetry_space_group_name_H-M   'P 1'
_cell_length_a   7.80892876
_cell_length_b   8.16435654
_cell_length_c   7.70117000
_cell_angle_alpha   90.00000000
_cell_angle_beta   90.00000000
_cell_angle_gamma   122.59037459
_symmetry_Int_Tables_number   1
_chemical_formula_structural   B(HO)2
_chemical_formula_sum   'B8 H16 O16'
_cell_volume   413.67774224
_cell_formula_units_Z   8
loop_
 _symmetry_equiv_pos_site_id
 _symmetry_equiv_pos_as_xyz
  1  'x, y, z'
loop_
 _atom_site_type_symbol
 _atom_site_label
 _atom_site_symmetry_multiplicity
 _atom_site_fract_x
 _atom_site_fract_y
 _atom_site_fract_z
 _atom_site_occupancy
  B  B0  1  0.58527900  0.58210200  0.57360200  1
  B  B1  1  0.91472100  0.41789800  0.07360200  1
  B  B2  1  0.41472100  0.41789800  0.42639800  1
  B  B3  1  0.08527900  0.58210200  0.92639800  1
  B  B4  1  0.57290000  0.07468200  0.58343200  1
  B  B5  1  0.92710000  0.92531800  0.08343200  1
  B  B6  1  0.42710000  0.92531800  0.41656800  1
  B  B7  1  0.07290000  0.07468200  0.91656800  1
  H  H0  1  0.79219900  0.29169600  0.43626900  1
  H  H1  1  0.70780100  0.70830400  0.93626900  1
  H  H2  1  0.20780100  0.70830400  0.56373100  1
  H  H3  1  0.29219900  0.29169600  0.06373100  1
  H  H4  1  0.43878700  0.43520100  0.79121200  1
  H  H5  1  0.06121300  0.56479900  0.29121200  1
  H  H6  1  0.56121300  0.56479900  0.20878800  1
  H  H7  1  0.93878700  0.43520100  0.70878800  1
  H  H8  1  0.84328800  0.83778900  0.61357800  1
  H  H9  1  0.65671200  0.16221100  0.11357800  1
  H  H10  1  0.15671200  0.16221100  0.38642200  1
  H  H11  1  0.34328800  0.83778900  0.88642200  1
  H  H12  1  0.61031200  0.11645500  0.83994600  1
  H  H13  1  0.88968800  0.88354500  0.33994600  1
  H  H14  1  0.38968800  0.88354500  0.16005400  1
  H  H15  1  0.11031200  0.11645500  0.66005400  1
  O  O0  1  0.56260900  0.55687100  0.75028000  1
  O  O1  1  0.93739100  0.44312900  0.25028000  1
  O  O2  1  0.43739100  0.44312900  0.24972000  1
  O  O3  1  0.06260900  0.55687100  0.74972000  1
  O  O4  1  0.75621500  0.75258100  0.51658400  1
  O  O5  1  0.74378500  0.24741900  0.01658400  1
  O  O6  1  0.24378500  0.24741900  0.48341600  1
  O  O7  1  0.25621500  0.75258100  0.98341600  1
  O  O8  1  0.74996900  0.25243400  0.55873200  1
  O  O9  1  0.75003100  0.74756600  0.05873200  1
  O  O10  1  0.25003100  0.74756600  0.44126800  1
  O  O11  1  0.24996900  0.25243400  0.94126800  1
  O  O12  1  0.51414700  0.01933200  0.75343200  1
  O  O13  1  0.98585300  0.98066800  0.25343200  1
  O  O14  1  0.48585300  0.98066800  0.24656800  1
  O  O15  1  0.01414700  0.01933200  0.74656800  1
loop_
_geom_bond_atom_site_label_1
_geom_bond_atom_site_label_2
_geom_bond_distance
_geom_bond_site_symmetry_2
B0 O0 1.373243 1_555
B0 O4 1.382175 1_555
B1 O1 1.373243 1_555
B1 O5 1.382175 1_555
B2 O2 1.373243 1_555
B2 O6 1.382175 1_555
B3 O3 1.373243 1_555
B3 O7 1.382175 1_555
B4 O8 1.375678 1_555
B4 O12 1.380348 1_555
B5 O9 1.375678 1_555
B5 O13 1.380348 1_555
B6 O10 1.375678 1_555
B6 O14 1.380348 1_555
B7 O11 1.375678 1_555
B7 O15 1.380348 1_555
H0 O8 0.993519 1_555
H1 O9 0.993519 1_556
H2 O10 0.993519 1_555
H3 O11 0.993519 1_554
H4 O0 0.993153 1_555
H5 O1 0.993153 1_455
H6 O2 0.993153 1_555
H7 O3 0.993153 1_655
H8 O4 0.997337 1_555
H9 O5 0.997337 1_555
H10 O6 0.997337 1_555
H11 O7 0.997337 1_555
H12 O12 0.997557 1_555
H13 O13 0.997557 1_555
H14 O14 0.997557 1_555
H15 O15 0.997557 1_555
