# generated using pymatgen
data_Mg2Cr3O8
_symmetry_space_group_name_H-M   'P 1'
_cell_length_a   5.92516443
_cell_length_b   5.92516443
_cell_length_c   4.94084310
_cell_angle_alpha   71.91792230
_cell_angle_beta   71.91792230
_cell_angle_gamma   59.33995937
_symmetry_Int_Tables_number   1
_chemical_formula_structural   Mg2Cr3O8
_chemical_formula_sum   'Mg2 Cr3 O8'
_cell_volume   139.36797166
_cell_formula_units_Z   1
loop_
 _symmetry_equiv_pos_site_id
 _symmetry_equiv_pos_as_xyz
  1  'x, y, z'
loop_
 _atom_site_type_symbol
 _atom_site_label
 _atom_site_symmetry_multiplicity
 _atom_site_fract_x
 _atom_site_fract_y
 _atom_site_fract_z
 _atom_site_occupancy
  Mg  Mg0  1  0.72584800  0.72584800  0.34060100  1
  Mg  Mg1  1  0.27415200  0.27415200  0.65939900  1
  Cr  Cr0  1  0.00000000  0.00000000  0.50000000  1
  Cr  Cr1  1  0.73912700  0.26087300  0.00000000  1
  Cr  Cr2  1  0.26087300  0.73912700  0.00000000  1
  O  O0  1  0.39535100  0.39535100  0.92274900  1
  O  O1  1  0.60464900  0.60464900  0.07725100  1
  O  O2  1  0.89067100  0.89067100  0.92371500  1
  O  O3  1  0.10932900  0.10932900  0.07628500  1
  O  O4  1  0.33963700  0.88693400  0.59072100  1
  O  O5  1  0.88693400  0.33963700  0.59072100  1
  O  O6  1  0.11306600  0.66036300  0.40927900  1
  O  O7  1  0.66036300  0.11306600  0.40927900  1
loop_
_geom_bond_atom_site_label_1
_geom_bond_atom_site_label_2
_geom_bond_distance
_geom_bond_site_symmetry_2
Mg0 O1 2.100115 1_555
Mg0 O4 2.103317 1_555
Mg0 O5 2.103317 1_555
Mg0 O2 2.150690 1_554
Mg0 O6 2.241265 1_655
Mg0 O7 2.241265 1_565
Mg1 O0 2.100115 1_555
Mg1 O6 2.103317 1_555
Mg1 O7 2.103317 1_555
Mg1 O3 2.150690 1_556
Mg1 O5 2.241265 1_455
Mg1 O4 2.241265 1_545
Cr0 O6 1.923032 1_545
Cr0 O7 1.923032 1_455
Cr0 O4 1.923032 1_545
Cr0 O5 1.923032 1_455
Cr0 O2 1.991566 1_445
Cr0 O3 1.991566 1_555
Cr1 O0 1.888963 1_554
Cr1 O1 1.888963 1_555
Cr1 O5 1.950814 1_554
Cr1 O7 1.950814 1_555
Cr1 O2 2.013496 1_544
Cr1 O3 2.013496 1_655
Cr2 O0 1.888963 1_554
Cr2 O1 1.888963 1_555
Cr2 O4 1.950814 1_554
Cr2 O6 1.950814 1_555
Cr2 O2 2.013496 1_454
Cr2 O3 2.013496 1_565
