# generated using pymatgen
data_TaSb2
_symmetry_space_group_name_H-M   'P 1'
_cell_length_a   3.69775716
_cell_length_b   5.46235228
_cell_length_c   7.48602831
_cell_angle_alpha   78.70237678
_cell_angle_beta   75.70915995
_cell_angle_gamma   70.14568255
_symmetry_Int_Tables_number   1
_chemical_formula_structural   TaSb2
_chemical_formula_sum   'Ta2 Sb4'
_cell_volume   136.77168960
_cell_formula_units_Z   2
loop_
 _symmetry_equiv_pos_site_id
 _symmetry_equiv_pos_as_xyz
  1  'x, y, z'
loop_
 _atom_site_type_symbol
 _atom_site_label
 _atom_site_symmetry_multiplicity
 _atom_site_fract_x
 _atom_site_fract_y
 _atom_site_fract_z
 _atom_site_occupancy
  Ta  Ta0  1  0.84885526  0.61268074  0.68899167  1
  Ta  Ta1  1  0.15114150  0.38731414  0.31101163  1
  Sb  Sb0  1  0.14770511  0.73811603  0.96470169  1
  Sb  Sb1  1  0.85227817  0.26188791  0.03530674  1
  Sb  Sb2  1  0.40518174  0.80046150  0.38969024  1
  Sb  Sb3  1  0.59483921  0.19953869  0.61029904  1
loop_
_geom_bond_atom_site_label_1
_geom_bond_atom_site_label_2
_geom_bond_distance
_geom_bond_site_symmetry_2
Sb0 Sb1 2.800478 1_466
Sb0 Ta0 2.853955 1_455
Sb0 Ta0 2.856054 1_555
Sb0 Ta1 2.906251 1_556
Sb0 Sb1 3.057146 1_456
Sb0 Sb1 3.061309 1_556
Sb1 Ta1 2.853929 1_655
Sb1 Ta1 2.855997 1_555
Sb1 Ta0 2.906256 1_554
Sb2 Ta0 2.921486 1_555
Sb2 Ta1 2.922131 1_655
Sb2 Ta1 2.925105 1_555
Sb2 Ta0 2.926007 1_455
Sb2 Ta1 2.998856 1_565
Sb3 Ta1 2.921454 1_555
Sb3 Ta0 2.922186 1_455
Sb3 Ta0 2.925067 1_555
Sb3 Ta1 2.925883 1_655
Sb3 Ta0 2.998890 1_545
