# generated using pymatgen
data_ZrCrAgS4
_symmetry_space_group_name_H-M   'P 1'
_cell_length_a   11.37668500
_cell_length_b   3.62352500
_cell_length_c   13.16192300
_cell_angle_alpha   90.00000000
_cell_angle_beta   90.00000000
_cell_angle_gamma   90.00000000
_symmetry_Int_Tables_number   1
_chemical_formula_structural   ZrCrAgS4
_chemical_formula_sum   'Zr4 Cr4 Ag4 S16'
_cell_volume   542.58319827
_cell_formula_units_Z   4
loop_
 _symmetry_equiv_pos_site_id
 _symmetry_equiv_pos_as_xyz
  1  'x, y, z'
loop_
 _atom_site_type_symbol
 _atom_site_label
 _atom_site_symmetry_multiplicity
 _atom_site_fract_x
 _atom_site_fract_y
 _atom_site_fract_z
 _atom_site_occupancy
  Zr  Zr0  1  0.93467900  0.75000000  0.89989700  1
  Zr  Zr1  1  0.56532100  0.25000000  0.39989700  1
  Zr  Zr2  1  0.08718200  0.25000000  0.58723400  1
  Zr  Zr3  1  0.41281800  0.75000000  0.08723400  1
  Cr  Cr0  1  0.05100500  0.25000000  0.11955700  1
  Cr  Cr1  1  0.44899500  0.75000000  0.61955700  1
  Cr  Cr2  1  0.92633600  0.75000000  0.40138600  1
  Cr  Cr3  1  0.57366400  0.25000000  0.90138600  1
  Ag  Ag0  1  0.24310600  0.25000000  0.31666900  1
  Ag  Ag1  1  0.75495600  0.75000000  0.67268900  1
  Ag  Ag2  1  0.25689400  0.75000000  0.81666900  1
  Ag  Ag3  1  0.74504400  0.25000000  0.17268900  1
  S  S0  1  0.03708100  0.75000000  0.71743000  1
  S  S1  1  0.96378900  0.25000000  0.28842500  1
  S  S2  1  0.46291900  0.25000000  0.21743000  1
  S  S3  1  0.53621100  0.75000000  0.78842500  1
  S  S4  1  0.08814900  0.25000000  0.93842400  1
  S  S5  1  0.91015700  0.75000000  0.08825400  1
  S  S6  1  0.41185100  0.75000000  0.43842400  1
  S  S7  1  0.58984300  0.25000000  0.58825400  1
  S  S8  1  0.12689900  0.75000000  0.45432100  1
  S  S9  1  0.87840000  0.25000000  0.52100100  1
  S  S10  1  0.37310100  0.25000000  0.95432100  1
  S  S11  1  0.62160000  0.75000000  0.02100100  1
  S  S12  1  0.19052100  0.75000000  0.15231600  1
  S  S13  1  0.78635700  0.25000000  0.84239900  1
  S  S14  1  0.30947900  0.25000000  0.65231600  1
  S  S15  1  0.71364300  0.75000000  0.34239900  1
loop_
_geom_bond_atom_site_label_1
_geom_bond_atom_site_label_2
_geom_bond_distance
_geom_bond_site_symmetry_2
Cr0 S4 2.421220 1_554
Cr0 S1 2.434048 1_455
Cr0 S12 2.446976 1_555
Cr0 S12 2.446976 1_545
Cr0 S5 2.453542 1_455
Cr0 S5 2.453542 1_445
Cr1 S6 2.421220 1_555
Cr1 S3 2.434048 1_555
Cr1 S14 2.446976 1_555
Cr1 S14 2.446976 1_565
Cr1 S7 2.453542 1_555
Cr1 S7 2.453542 1_565
Cr2 S1 2.382134 1_555
Cr2 S1 2.382134 1_565
Cr2 S8 2.385744 1_655
Cr2 S9 2.461405 1_555
Cr2 S9 2.461405 1_565
Cr2 S15 2.541243 1_555
Cr3 S3 2.382134 1_555
Cr3 S3 2.382134 1_545
Cr3 S10 2.385744 1_555
Cr3 S11 2.461405 1_556
Cr3 S11 2.461405 1_546
Cr3 S13 2.541243 1_555
Ag0 S2 2.821314 1_555
Ag0 S8 2.883191 1_555
Ag0 S8 2.883191 1_545
Ag0 S12 2.884410 1_555
Ag0 S12 2.884410 1_545
Ag0 S6 3.088051 1_545
Ag0 S6 3.088051 1_555
Ag1 S7 2.836558 1_555
Ag1 S7 2.836558 1_565
Ag1 S13 2.898200 1_555
Ag1 S13 2.898200 1_565
Ag1 S3 2.917801 1_555
Ag1 S9 3.039870 1_565
Ag1 S9 3.039870 1_555
Ag2 S0 2.821314 1_555
Ag2 S10 2.883191 1_555
Ag2 S10 2.883191 1_565
Ag2 S14 2.884410 1_555
Ag2 S14 2.884410 1_565
Ag2 S4 3.088051 1_555
Ag2 S4 3.088051 1_565
Ag3 S5 2.836558 1_545
Ag3 S5 2.836558 1_555
Ag3 S15 2.898200 1_555
Ag3 S15 2.898200 1_545
Ag3 S1 2.917801 1_555
Ag3 S11 3.039870 1_545
Ag3 S11 3.039870 1_555
S0 Zr2 2.558103 1_565
S0 Zr2 2.558103 1_555
S0 Zr0 2.669265 1_455
S2 Zr3 2.558103 1_555
S2 Zr3 2.558103 1_545
S2 Zr1 2.669265 1_555
S4 Zr0 2.566723 1_445
S4 Zr0 2.566723 1_455
S5 Zr0 2.494788 1_554
S6 Zr1 2.566723 1_565
S6 Zr1 2.566723 1_555
S7 Zr1 2.494788 1_555
S8 Zr2 2.558714 1_565
S8 Zr2 2.558714 1_555
S9 Zr2 2.530169 1_655
S10 Zr3 2.558714 1_556
S10 Zr3 2.558714 1_546
S11 Zr3 2.530169 1_555
S12 Zr3 2.670136 1_555
S13 Zr0 2.588932 1_545
S13 Zr0 2.588932 1_555
S14 Zr2 2.670136 1_555
S15 Zr1 2.588932 1_565
S15 Zr1 2.588932 1_555
