# generated using pymatgen
data_Ca2AlCoO5
_symmetry_space_group_name_H-M   'P 1'
_cell_length_a   8.30127968
_cell_length_b   8.30127968
_cell_length_c   5.58986313
_cell_angle_alpha   70.56233689
_cell_angle_beta   70.56233689
_cell_angle_gamma   36.90551796
_symmetry_Int_Tables_number   1
_chemical_formula_structural   Ca2AlCoO5
_chemical_formula_sum   'Ca4 Al2 Co2 O10'
_cell_volume   216.61267194
_cell_formula_units_Z   2
loop_
 _symmetry_equiv_pos_site_id
 _symmetry_equiv_pos_as_xyz
  1  'x, y, z'
loop_
 _atom_site_type_symbol
 _atom_site_label
 _atom_site_symmetry_multiplicity
 _atom_site_fract_x
 _atom_site_fract_y
 _atom_site_fract_z
 _atom_site_occupancy
  Ca  Ca0  1  0.88251200  0.89767500  0.64424800  1
  Ca  Ca1  1  0.59883800  0.62114900  0.91968400  1
  Ca  Ca2  1  0.10232500  0.11748800  0.35575200  1
  Ca  Ca3  1  0.37885100  0.40116200  0.08031600  1
  Al  Al0  1  0.70691400  0.79099000  0.32618600  1
  Al  Al1  1  0.20901000  0.29308600  0.67381400  1
  Co  Co0  1  0.50268800  0.49731200  0.50000000  1
  Co  Co1  1  0.00158000  0.99842000  0.00000000  1
  O  O0  1  0.37032500  0.12957600  0.39055000  1
  O  O1  1  0.87042400  0.62967500  0.60945000  1
  O  O2  1  0.38302400  0.32800100  0.71023900  1
  O  O3  1  0.67199900  0.61697600  0.28976100  1
  O  O4  1  0.88228100  0.81744300  0.07699400  1
  O  O5  1  0.18255700  0.11771900  0.92300600  1
  O  O6  1  0.76207300  0.26505600  0.74370300  1
  O  O7  1  0.73494400  0.23792700  0.25629700  1
  O  O8  1  0.23613400  0.73657500  0.26421300  1
  O  O9  1  0.26342500  0.76386600  0.73578700  1
loop_
_geom_bond_atom_site_label_1
_geom_bond_atom_site_label_2
_geom_bond_distance
_geom_bond_site_symmetry_2
Ca0 O4 2.285120 1_556
Ca0 O1 2.378113 1_555
Ca0 O2 2.502116 1_565
Ca0 O7 2.517783 1_565
Ca0 O8 2.525987 1_655
Ca0 O6 2.547886 1_565
Ca0 O9 2.564319 1_655
Ca0 O2 2.863361 1_655
Ca1 O3 2.324723 1_556
Ca1 O1 2.380444 1_555
Ca1 O9 2.455985 1_555
Ca1 O5 2.482210 1_565
Ca1 O6 2.486804 1_555
Ca1 O8 2.539223 1_556
Ca1 O7 2.572946 1_556
Ca1 O5 2.927126 1_655
Ca2 O5 2.285120 1_554
Ca2 O0 2.378113 1_555
Ca2 O3 2.502116 1_455
Ca2 O6 2.517783 1_455
Ca2 O9 2.525987 1_545
Ca2 O7 2.547886 1_455
Ca2 O8 2.564319 1_545
Ca2 O3 2.863361 1_545
Ca3 O2 2.324723 1_554
Ca3 O0 2.380444 1_555
Ca3 O8 2.455985 1_555
Ca3 O4 2.482210 1_455
Ca3 O7 2.486804 1_555
Ca3 O9 2.539223 1_554
Ca3 O6 2.572946 1_554
Ca3 O4 2.927126 1_545
Al0 O4 1.750949 1_555
Al0 O3 1.765439 1_555
Al0 O1 1.804197 1_555
Al0 O0 1.811331 1_565
Al1 O5 1.750949 1_555
Al1 O2 1.765439 1_555
Al1 O0 1.804197 1_555
Al1 O1 1.811331 1_455
Co0 O9 1.936098 1_555
Co0 O8 1.936098 1_555
Co0 O6 1.942772 1_555
Co0 O7 1.942772 1_555
Co0 O3 2.167906 1_555
Co0 O2 2.167906 1_555
Co1 O6 1.911045 1_464
Co1 O7 1.911045 1_465
Co1 O8 1.925095 1_555
Co1 O9 1.925095 1_554
Co1 O5 2.255748 1_564
Co1 O4 2.255748 1_455
