# generated using pymatgen
data_Mn5SnO8
_symmetry_space_group_name_H-M   'P 1'
_cell_length_a   6.15341570
_cell_length_b   10.62514516
_cell_length_c   6.33457787
_cell_angle_alpha   88.86269257
_cell_angle_beta   61.42258349
_cell_angle_gamma   74.02124497
_symmetry_Int_Tables_number   1
_chemical_formula_structural   Mn5SnO8
_chemical_formula_sum   'Mn10 Sn2 O16'
_cell_volume   346.57080391
_cell_formula_units_Z   2
loop_
 _symmetry_equiv_pos_site_id
 _symmetry_equiv_pos_as_xyz
  1  'x, y, z'
loop_
 _atom_site_type_symbol
 _atom_site_label
 _atom_site_symmetry_multiplicity
 _atom_site_fract_x
 _atom_site_fract_y
 _atom_site_fract_z
 _atom_site_occupancy
  Mn  Mn0  1  0.23819300  0.62851600  0.87205300  1
  Mn  Mn1  1  0.62110400  0.80891300  0.43672300  1
  Mn  Mn2  1  0.13668200  0.80787200  0.42937900  1
  Mn  Mn3  1  0.61871400  0.81379300  0.95183800  1
  Mn  Mn4  1  0.62332900  0.07040900  0.68597400  1
  Mn  Mn5  1  0.23941300  0.12853300  0.37220500  1
  Mn  Mn6  1  0.62183300  0.30893900  0.93671500  1
  Mn  Mn7  1  0.13788600  0.30779300  0.92921700  1
  Mn  Mn8  1  0.61934600  0.31374200  0.45155600  1
  Mn  Mn9  1  0.62252400  0.57032000  0.18590100  1
  Sn  Sn0  1  0.01655100  0.99133700  0.00523900  1
  Sn  Sn1  1  0.01637700  0.49119700  0.50524000  1
  O  O0  1  0.40844000  0.42616100  0.30880500  1
  O  O1  1  0.40852200  0.92627700  0.80864300  1
  O  O2  1  0.85196100  0.43392900  0.32889000  1
  O  O3  1  0.85148800  0.93393200  0.82961400  1
  O  O4  1  0.89894400  0.19113100  0.04147400  1
  O  O5  1  0.89768300  0.69112000  0.54217500  1
  O  O6  1  0.88695200  0.42915000  0.83581900  1
  O  O7  1  0.88557000  0.92931200  0.33592700  1
  O  O8  1  0.39616900  0.69948700  0.05036700  1
  O  O9  1  0.39661700  0.19947400  0.55091300  1
  O  O10  1  0.83870800  0.70522900  0.06652100  1
  O  O11  1  0.83971200  0.20525300  0.56585400  1
  O  O12  1  0.35894600  0.19504600  0.03629100  1
  O  O13  1  0.35821100  0.69493400  0.53598800  1
  O  O14  1  0.35556200  0.42407800  0.82502700  1
  O  O15  1  0.35456300  0.92412300  0.32565300  1
loop_
_geom_bond_atom_site_label_1
_geom_bond_atom_site_label_2
_geom_bond_distance
_geom_bond_site_symmetry_2
Mn0 O10 2.065018 1_456
Mn0 O8 2.068169 1_556
Mn0 O14 2.069992 1_555
Mn0 O13 2.073294 1_555
Mn1 O13 2.134047 1_555
Mn1 O15 2.155917 1_555
Mn1 O5 2.188797 1_555
Mn1 O10 2.189129 1_555
Mn1 O7 2.193669 1_555
Mn1 O1 2.255409 1_555
Mn2 O13 1.924102 1_555
Mn2 O15 1.947220 1_555
Mn2 O7 2.037172 1_455
Mn2 O5 2.043568 1_455
Mn2 O8 2.251627 1_555
Mn2 O3 2.426043 1_455
Mn3 O10 1.933583 1_556
Mn3 O8 1.951357 1_556
Mn3 O1 2.037739 1_555
Mn3 O3 2.046211 1_555
Mn3 O15 2.236593 1_556
Mn3 O5 2.453682 1_555
Mn4 O11 2.107688 1_555
Mn4 O9 2.144927 1_555
Mn4 O1 2.186508 1_545
Mn4 O12 2.191242 1_556
Mn4 O3 2.225007 1_545
Mn4 O7 2.268302 1_545
Mn5 O11 2.065909 1_455
Mn5 O9 2.066003 1_555
Mn5 O15 2.069871 1_545
Mn5 O12 2.073028 1_555
Mn6 O12 2.133160 1_556
Mn6 O14 2.157049 1_555
Mn6 O4 2.188443 1_556
Mn6 O11 2.192363 1_555
Mn6 O6 2.195129 1_555
Mn6 O0 2.255270 1_556
Mn7 O12 1.923211 1_556
Mn7 O14 1.946620 1_555
Mn7 O6 2.035792 1_455
Mn7 O4 2.042578 1_456
Mn7 O9 2.247814 1_555
Mn7 O2 2.424148 1_456
Mn8 O11 1.933202 1_555
Mn8 O9 1.951704 1_555
Mn8 O0 2.038407 1_555
Mn8 O2 2.046038 1_555
Mn8 O14 2.234872 1_555
Mn8 O4 2.455578 1_555
Mn9 O10 2.107273 1_555
Mn9 O8 2.146047 1_555
Mn9 O0 2.184047 1_555
Mn9 O13 2.190124 1_555
Mn9 O2 2.226800 1_555
Mn9 O6 2.269692 1_554
O0 Sn1 2.022492 1_555
O1 Sn0 2.022096 1_556
O2 Sn1 2.022105 1_655
O3 Sn0 2.022476 1_656
O4 Sn0 2.024222 1_645
O5 Sn1 2.025469 1_655
O6 Sn1 2.023067 1_655
O7 Sn0 2.023459 1_655
