# generated using pymatgen
data_RbLa2C6N6ClO6
_symmetry_space_group_name_H-M   'P 1'
_cell_length_a   6.78591474
_cell_length_b   6.78591474
_cell_length_c   14.58869300
_cell_angle_alpha   90.00000000
_cell_angle_beta   90.00000000
_cell_angle_gamma   120.00000100
_symmetry_Int_Tables_number   1
_chemical_formula_structural   RbLa2C6N6ClO6
_chemical_formula_sum   'Rb2 La4 C12 N12 Cl2 O12'
_cell_volume   581.78672897
_cell_formula_units_Z   2
loop_
 _symmetry_equiv_pos_site_id
 _symmetry_equiv_pos_as_xyz
  1  'x, y, z'
loop_
 _atom_site_type_symbol
 _atom_site_label
 _atom_site_symmetry_multiplicity
 _atom_site_fract_x
 _atom_site_fract_y
 _atom_site_fract_z
 _atom_site_occupancy
  Rb  Rb0  1  0.66666700  0.33333300  0.25000000  1
  Rb  Rb1  1  0.33333300  0.66666700  0.75000000  1
  La  La0  1  0.33333300  0.66666700  0.05126316  1
  La  La1  1  0.66666700  0.33333300  0.55126316  1
  La  La2  1  0.66666700  0.33333300  0.94873684  1
  La  La3  1  0.33333300  0.66666700  0.44873684  1
  C  C0  1  0.95481851  0.16781117  0.09654202  1
  C  C1  1  0.83218883  0.78700734  0.09654202  1
  C  C2  1  0.21299266  0.04518149  0.09654202  1
  C  C3  1  0.04518149  0.83218883  0.59654202  1
  C  C4  1  0.16781117  0.21299266  0.59654202  1
  C  C5  1  0.78700734  0.95481851  0.59654202  1
  C  C6  1  0.04518149  0.83218883  0.90345798  1
  C  C7  1  0.16781117  0.21299266  0.90345798  1
  C  C8  1  0.78700734  0.95481851  0.90345798  1
  C  C9  1  0.95481851  0.16781117  0.40345798  1
  C  C10  1  0.83218883  0.78700734  0.40345798  1
  C  C11  1  0.21299266  0.04518149  0.40345798  1
  N  N0  1  0.17558902  0.22170278  0.09982865  1
  N  N1  1  0.77829722  0.95388624  0.09982865  1
  N  N2  1  0.04611376  0.82441098  0.09982865  1
  N  N3  1  0.82441098  0.77829722  0.59982865  1
  N  N4  1  0.22170278  0.04611376  0.59982865  1
  N  N5  1  0.95388624  0.17558902  0.59982865  1
  N  N6  1  0.82441098  0.77829722  0.90017135  1
  N  N7  1  0.22170278  0.04611376  0.90017135  1
  N  N8  1  0.95388624  0.17558902  0.90017135  1
  N  N9  1  0.17558902  0.22170278  0.40017135  1
  N  N10  1  0.77829722  0.95388624  0.40017135  1
  N  N11  1  0.04611376  0.82441098  0.40017135  1
  Cl  Cl0  1  0.33333300  0.66666700  0.25000000  1
  Cl  Cl1  1  0.66666700  0.33333300  0.75000000  1
  O  O0  1  0.92032943  0.33678753  0.08362326  1
  O  O1  1  0.66321247  0.58354290  0.08362326  1
  O  O2  1  0.41645710  0.07967057  0.08362326  1
  O  O3  1  0.07967057  0.66321247  0.58362326  1
  O  O4  1  0.33678753  0.41645710  0.58362326  1
  O  O5  1  0.58354290  0.92032943  0.58362326  1
  O  O6  1  0.07967057  0.66321247  0.91637674  1
  O  O7  1  0.33678753  0.41645710  0.91637674  1
  O  O8  1  0.58354290  0.92032943  0.91637674  1
  O  O9  1  0.92032943  0.33678753  0.41637674  1
  O  O10  1  0.66321247  0.58354290  0.41637674  1
  O  O11  1  0.41645710  0.07967057  0.41637674  1
loop_
_geom_bond_atom_site_label_1
_geom_bond_atom_site_label_2
_geom_bond_distance
_geom_bond_site_symmetry_2
La0 O6 2.606815 1_554
La0 O8 2.606819 1_554
La0 O7 2.606824 1_554
La0 O0 2.610513 1_455
La0 O2 2.610513 1_565
La0 O1 2.610513 1_555
La0 N2 2.744618 1_555
La0 N1 2.744623 1_555
La0 N0 2.744624 1_555
La1 O9 2.606815 1_555
La1 O11 2.606819 1_555
La1 O10 2.606824 1_555
La1 O3 2.610513 1_655
La1 O5 2.610513 1_545
La1 O4 2.610513 1_555
La1 N5 2.744618 1_555
La1 N4 2.744623 1_555
La1 N3 2.744624 1_555
La2 O0 2.606815 1_556
La2 O2 2.606819 1_556
La2 O1 2.606824 1_556
La2 O6 2.610513 1_655
La2 O8 2.610513 1_545
La2 O7 2.610513 1_555
La2 N8 2.744618 1_555
La2 N7 2.744623 1_555
La2 N6 2.744624 1_555
La3 O3 2.606815 1_555
La3 O5 2.606819 1_555
La3 O4 2.606824 1_555
La3 O9 2.610513 1_455
La3 O11 2.610513 1_565
La3 O10 2.610513 1_555
La3 N11 2.744618 1_555
La3 N10 2.744623 1_555
La3 N9 2.744624 1_555
C0 O0 1.293633 1_555
C0 N1 1.343736 1_545
C0 N0 1.353721 1_655
C1 O1 1.293629 1_555
C1 N2 1.343736 1_655
C1 N1 1.353721 1_555
C2 O2 1.293626 1_555
C2 N0 1.343736 1_555
C2 N2 1.353721 1_545
C3 O3 1.293633 1_555
C3 N4 1.343736 1_565
C3 N3 1.353721 1_455
C4 O4 1.293629 1_555
C4 N5 1.343736 1_455
C4 N4 1.353721 1_555
C5 O5 1.293626 1_555
C5 N3 1.343736 1_555
C5 N5 1.353721 1_565
C6 O6 1.293633 1_555
C6 N7 1.343736 1_565
C6 N6 1.353721 1_455
C7 O7 1.293629 1_555
C7 N8 1.343736 1_455
C7 N7 1.353721 1_555
C8 O8 1.293626 1_555
C8 N6 1.343736 1_555
C8 N8 1.353721 1_565
C9 O9 1.293633 1_555
C9 N10 1.343736 1_545
C9 N9 1.353721 1_655
C10 O10 1.293629 1_555
C10 N11 1.343736 1_655
C10 N10 1.353721 1_555
C11 O11 1.293626 1_555
C11 N9 1.343736 1_555
C11 N11 1.353721 1_545
Cl0 La0 2.899311 1_555
Cl0 La3 2.899311 1_555
Cl1 La1 2.899311 1_555
Cl1 La2 2.899311 1_555
O0 Rb0 2.968935 1_555
O1 Rb0 2.968943 1_555
O2 Rb0 2.968939 1_555
O3 Rb1 2.968935 1_555
O4 Rb1 2.968943 1_555
O5 Rb1 2.968939 1_555
O6 Rb1 2.968935 1_555
O7 Rb1 2.968943 1_555
O8 Rb1 2.968939 1_555
O9 Rb0 2.968935 1_555
O10 Rb0 2.968943 1_555
O11 Rb0 2.968939 1_555
