# generated using pymatgen
data_AgBiS2
_symmetry_space_group_name_H-M   'P 1'
_cell_length_a   4.04844097
_cell_length_b   4.04844097
_cell_length_c   19.11027700
_cell_angle_alpha   90.00000000
_cell_angle_beta   90.00000000
_cell_angle_gamma   120.00001577
_symmetry_Int_Tables_number   1
_chemical_formula_structural   AgBiS2
_chemical_formula_sum   'Ag3 Bi3 S6'
_cell_volume   271.25213566
_cell_formula_units_Z   3
loop_
 _symmetry_equiv_pos_site_id
 _symmetry_equiv_pos_as_xyz
  1  'x, y, z'
loop_
 _atom_site_type_symbol
 _atom_site_label
 _atom_site_symmetry_multiplicity
 _atom_site_fract_x
 _atom_site_fract_y
 _atom_site_fract_z
 _atom_site_occupancy
  Ag  Ag0  1  0.33333300  0.66666700  0.66870300  1
  Ag  Ag1  1  0.66666700  0.33333300  0.33129700  1
  Ag  Ag2  1  0.00000000  0.00000000  0.00000000  1
  Bi  Bi0  1  0.66666700  0.33333300  0.83492900  1
  Bi  Bi1  1  0.33333300  0.66666700  0.16507100  1
  Bi  Bi2  1  0.00000000  0.00000000  0.50000000  1
  S  S0  1  0.66666700  0.33333300  0.58645500  1
  S  S1  1  0.00000000  0.00000000  0.74921900  1
  S  S2  1  0.33333300  0.66666700  0.92071500  1
  S  S3  1  0.00000000  0.00000000  0.25078100  1
  S  S4  1  0.66666700  0.33333300  0.07928500  1
  S  S5  1  0.33333300  0.66666700  0.41354500  1
loop_
_geom_bond_atom_site_label_1
_geom_bond_atom_site_label_2
_geom_bond_distance
_geom_bond_site_symmetry_2
Ag0 S1 2.798361 1_565
Ag0 S1 2.798364 1_665
Ag0 S1 2.798364 1_555
Ag0 S0 2.816696 1_455
Ag0 S0 2.816696 1_565
Ag0 S0 2.816703 1_555
Ag1 S3 2.798361 1_655
Ag1 S3 2.798364 1_555
Ag1 S3 2.798364 1_665
Ag1 S5 2.816696 1_545
Ag1 S5 2.816696 1_655
Ag1 S5 2.816703 1_555
Ag2 S4 2.785496 1_455
Ag2 S2 2.785496 1_544
Ag2 S4 2.785498 1_555
Ag2 S4 2.785498 1_445
Ag2 S2 2.785498 1_554
Ag2 S2 2.785498 1_444
Bi0 S1 2.854143 1_655
Bi0 S1 2.854146 1_665
Bi0 S1 2.854146 1_555
Bi0 S2 2.854977 1_545
Bi0 S2 2.854977 1_655
Bi0 S2 2.854983 1_555
Bi1 S3 2.854143 1_565
Bi1 S3 2.854146 1_665
Bi1 S3 2.854146 1_555
Bi1 S4 2.854977 1_455
Bi1 S4 2.854977 1_565
Bi1 S4 2.854983 1_555
Bi2 S0 2.862338 1_455
Bi2 S5 2.862338 1_545
Bi2 S0 2.862340 1_445
Bi2 S0 2.862340 1_555
Bi2 S5 2.862340 1_555
Bi2 S5 2.862340 1_445
