# generated using pymatgen
data_Cs2IrCl5O
_symmetry_space_group_name_H-M   'P 1'
_cell_length_a   9.66825625
_cell_length_b   9.66825625
_cell_length_c   8.72378800
_cell_angle_alpha   90.00000000
_cell_angle_beta   90.00000000
_cell_angle_gamma   136.33252001
_symmetry_Int_Tables_number   1
_chemical_formula_structural   Cs2IrCl5O
_chemical_formula_sum   'Cs4 Ir2 Cl10 O2'
_cell_volume   563.05063521
_cell_formula_units_Z   2
loop_
 _symmetry_equiv_pos_site_id
 _symmetry_equiv_pos_as_xyz
  1  'x, y, z'
loop_
 _atom_site_type_symbol
 _atom_site_label
 _atom_site_symmetry_multiplicity
 _atom_site_fract_x
 _atom_site_fract_y
 _atom_site_fract_z
 _atom_site_occupancy
  Cs  Cs0  1  0.52825100  0.47174900  0.75000000  1
  Cs  Cs1  1  0.47174900  0.52825100  0.25000000  1
  Cs  Cs2  1  0.24104300  0.75895700  0.75000000  1
  Cs  Cs3  1  0.75895700  0.24104300  0.25000000  1
  Ir  Ir0  1  0.89027800  0.10972200  0.75000000  1
  Ir  Ir1  1  0.10972200  0.89027800  0.25000000  1
  Cl  Cl0  1  0.75591600  0.24408400  0.75000000  1
  Cl  Cl1  1  0.24408400  0.75591600  0.25000000  1
  Cl  Cl2  1  0.65182500  0.88139000  0.55777900  1
  Cl  Cl3  1  0.88139000  0.65182500  0.44222100  1
  Cl  Cl4  1  0.65182500  0.88139000  0.94222100  1
  Cl  Cl5  1  0.88139000  0.65182500  0.05777900  1
  Cl  Cl6  1  0.34817500  0.11861000  0.44222100  1
  Cl  Cl7  1  0.11861000  0.34817500  0.55777900  1
  Cl  Cl8  1  0.34817500  0.11861000  0.05777900  1
  Cl  Cl9  1  0.11861000  0.34817500  0.94222100  1
  O  O0  1  0.99103600  0.00896400  0.75000000  1
  O  O1  1  0.00896400  0.99103600  0.25000000  1
loop_
_geom_bond_atom_site_label_1
_geom_bond_atom_site_label_2
_geom_bond_distance
_geom_bond_site_symmetry_2
Cs0 O0 3.657285 1_565
Cs0 O0 3.657285 1_455
Cs1 O1 3.657285 1_655
Cs1 O1 3.657285 1_545
Ir0 O0 1.808550 1_555
Ir1 O1 1.808550 1_555
Cl0 Ir0 2.411723 1_555
Cl0 Cs2 3.605661 1_655
Cl0 Cs2 3.605661 1_545
Cl0 Cs0 4.086461 1_555
Cl1 Ir1 2.411723 1_555
Cl1 Cs3 3.605661 1_565
Cl1 Cs3 3.605661 1_455
Cl1 Cs1 4.086461 1_555
Cl2 Ir0 2.374325 1_565
Cl2 Cs0 3.616556 1_555
Cl2 Cs2 3.631123 1_555
Cl2 Cs1 3.646605 1_555
Cl2 Cs3 3.893912 1_565
Cl3 Ir1 2.374325 1_655
Cl3 Cs1 3.616556 1_555
Cl3 Cs3 3.631123 1_555
Cl3 Cs0 3.646605 1_555
Cl3 Cs2 3.893912 1_655
Cl4 Ir0 2.374325 1_565
Cl4 Cs0 3.616556 1_555
Cl4 Cs2 3.631123 1_555
Cl4 Cs1 3.646605 1_556
Cl4 Cs3 3.893912 1_566
Cl5 Ir1 2.374325 1_655
Cl5 Cs1 3.616556 1_555
Cl5 Cs3 3.631123 1_555
Cl5 Cs0 3.646605 1_554
Cl5 Cs2 3.893912 1_654
Cl6 Ir1 2.374325 1_545
Cl6 Cs1 3.616556 1_555
Cl6 Cs3 3.631123 1_555
Cl6 Cs0 3.646605 1_555
Cl6 Cs2 3.893912 1_545
Cl7 Ir0 2.374325 1_455
Cl7 Cs0 3.616556 1_555
Cl7 Cs2 3.631123 1_555
Cl7 Cs1 3.646605 1_555
Cl7 Cs3 3.893912 1_455
Cl8 Ir1 2.374325 1_545
Cl8 Cs1 3.616556 1_555
Cl8 Cs3 3.631123 1_555
Cl8 Cs0 3.646605 1_554
Cl8 Cs2 3.893912 1_544
Cl9 Ir0 2.374325 1_455
Cl9 Cs0 3.616556 1_555
Cl9 Cs2 3.631123 1_555
Cl9 Cs1 3.646605 1_556
Cl9 Cs3 3.893912 1_456
