# generated using pymatgen
data_Li9Mn2Co5O16
_symmetry_space_group_name_H-M   'P 1'
_cell_length_a   6.61932401
_cell_length_b   6.61932401
_cell_length_c   15.39793869
_cell_angle_alpha   87.76128052
_cell_angle_beta   87.76128052
_cell_angle_gamma   25.31838886
_symmetry_Int_Tables_number   1
_chemical_formula_structural   Li9Mn2Co5O16
_chemical_formula_sum   'Li9 Mn2 Co5 O16'
_cell_volume   288.28893152
_cell_formula_units_Z   1
loop_
 _symmetry_equiv_pos_site_id
 _symmetry_equiv_pos_as_xyz
  1  'x, y, z'
loop_
 _atom_site_type_symbol
 _atom_site_label
 _atom_site_symmetry_multiplicity
 _atom_site_fract_x
 _atom_site_fract_y
 _atom_site_fract_z
 _atom_site_occupancy
  Li  Li0  1  0.69139800  0.69139800  0.93453900  1
  Li  Li1  1  0.05880200  0.05880200  0.80747400  1
  Li  Li2  1  0.43713300  0.43713300  0.68989000  1
  Li  Li3  1  0.31360300  0.31360300  0.05139000  1
  Li  Li4  1  0.93707800  0.93707800  0.18662300  1
  Li  Li5  1  0.56231200  0.56231200  0.31551000  1
  Li  Li6  1  0.81352700  0.81352700  0.56677000  1
  Li  Li7  1  0.18657800  0.18657800  0.44571200  1
  Li  Li8  1  0.37400400  0.37400400  0.87658400  1
  Mn  Mn0  1  0.99470000  0.99470000  0.99708200  1
  Mn  Mn1  1  0.24799400  0.24799400  0.25118400  1
  Co  Co0  1  0.76278600  0.76278600  0.75555000  1
  Co  Co1  1  0.12405900  0.12405900  0.62804600  1
  Co  Co2  1  0.50125700  0.50125700  0.49848900  1
  Co  Co3  1  0.87592900  0.87592900  0.37734800  1
  Co  Co4  1  0.62536000  0.62536000  0.12173800  1
  O  O0  1  0.52741600  0.52741600  0.91839400  1
  O  O1  1  0.89816300  0.89816300  0.77843800  1
  O  O2  1  0.27422800  0.27422800  0.66528600  1
  O  O3  1  0.14769500  0.14769500  0.03234800  1
  O  O4  1  0.77660500  0.77660500  0.16868300  1
  O  O5  1  0.39227700  0.39227700  0.28409600  1
  O  O6  1  0.65278300  0.65278300  0.53764900  1
  O  O7  1  0.03150000  0.03150000  0.40893800  1
  O  O8  1  0.85638400  0.85638400  0.97314300  1
  O  O9  1  0.21965300  0.21965300  0.83269000  1
  O  O10  1  0.59638200  0.59638200  0.71185700  1
  O  O11  1  0.47435800  0.47435800  0.08599400  1
  O  O12  1  0.10386400  0.10386400  0.21595400  1
  O  O13  1  0.71929300  0.71929300  0.33261500  1
  O  O14  1  0.97388100  0.97388100  0.58671900  1
  O  O15  1  0.34900000  0.34900000  0.46326800  1
loop_
_geom_bond_atom_site_label_1
_geom_bond_atom_site_label_2
_geom_bond_distance
_geom_bond_site_symmetry_2
Li0 O0 2.142529 1_555
Li0 O3 2.150148 1_656
Li0 O3 2.150148 1_566
Li0 O9 2.156655 1_565
Li0 O9 2.156655 1_655
Li0 O8 2.235250 1_555
Li1 O10 2.109602 1_545
Li1 O10 2.109602 1_455
Li1 O9 2.128879 1_555
Li1 O1 2.139995 1_445
Li1 O0 2.265018 1_545
Li1 O0 2.265018 1_455
Li2 O1 2.040044 1_545
Li2 O1 2.040044 1_455
Li2 O10 2.097937 1_555
Li2 O2 2.152925 1_555
Li2 O14 2.189288 1_545
Li2 O14 2.189288 1_455
Li3 O8 1.951418 1_544
Li3 O8 1.951418 1_454
Li3 O11 2.164283 1_555
Li3 O3 2.174570 1_555
Li3 O4 2.350639 1_545
Li3 O4 2.350639 1_455
Li4 O4 2.102062 1_555
Li4 O5 2.149959 1_565
Li4 O5 2.149959 1_655
Li4 O11 2.162720 1_565
Li4 O11 2.162720 1_655
Li4 O12 2.218804 1_665
Li5 O13 2.055161 1_555
Li5 O7 2.070376 1_565
Li5 O7 2.070376 1_655
Li5 O12 2.162518 1_565
Li5 O12 2.162518 1_655
Li5 O5 2.267782 1_555
Li6 O14 2.106048 1_555
Li6 O6 2.141646 1_555
Li6 O2 2.145105 1_565
Li6 O2 2.145105 1_655
Li6 O15 2.189920 1_655
Li6 O15 2.189920 1_565
Li7 O6 2.061419 1_545
Li7 O6 2.061419 1_455
Li7 O7 2.103314 1_555
Li7 O15 2.126028 1_555
Li7 O13 2.292742 1_545
Li7 O13 2.292742 1_455
Li8 O8 2.083182 1_545
Li8 O8 2.083182 1_455
Li8 O0 2.107923 1_555
Li8 O1 2.108986 1_455
Li8 O1 2.108986 1_545
Li8 O9 2.130645 1_555
Mn0 O8 1.838630 1_555
Mn0 O0 1.926129 1_565
Mn0 O0 1.926129 1_655
Mn0 O11 2.004720 1_566
Mn0 O11 2.004720 1_656
Mn0 O3 2.070316 1_666
Mn1 O13 1.943385 1_545
Mn1 O13 1.943385 1_455
Mn1 O5 1.950832 1_555
Mn1 O4 1.953740 1_455
Mn1 O4 1.953740 1_545
Mn1 O12 1.959866 1_555
Co0 O1 1.797581 1_555
Co0 O9 1.942323 1_565
Co0 O9 1.942323 1_655
Co0 O2 2.010348 1_655
Co0 O2 2.010348 1_565
Co0 O10 2.277806 1_555
Co1 O10 1.964850 1_545
Co1 O10 1.964850 1_455
Co1 O6 2.034234 1_455
Co1 O6 2.034234 1_545
Co1 O2 2.044587 1_555
Co1 O14 2.065599 1_445
Co2 O14 2.009129 1_545
Co2 O14 2.009129 1_455
Co2 O7 2.028590 1_655
Co2 O7 2.028590 1_565
Co2 O15 2.060909 1_555
Co2 O6 2.070956 1_555
Co3 O15 1.984638 1_655
Co3 O15 1.984638 1_565
Co3 O5 2.046076 1_655
Co3 O5 2.046076 1_565
Co3 O7 2.086360 1_665
Co3 O13 2.163222 1_555
Co4 O3 2.012538 1_565
Co4 O3 2.012538 1_655
Co4 O11 2.047731 1_555
Co4 O12 2.062475 1_655
Co4 O12 2.062475 1_565
Co4 O4 2.110017 1_555
