# generated using pymatgen
data_KSnI3
_symmetry_space_group_name_H-M   'P 1'
_cell_length_a   4.70824602
_cell_length_b   10.44878157
_cell_length_c   16.99764006
_cell_angle_alpha   90.00000000
_cell_angle_beta   90.00000000
_cell_angle_gamma   90.00000000
_symmetry_Int_Tables_number   1
_chemical_formula_structural   KSnI3
_chemical_formula_sum   'K4 Sn4 I12'
_cell_volume   836.20628382
_cell_formula_units_Z   4
loop_
 _symmetry_equiv_pos_site_id
 _symmetry_equiv_pos_as_xyz
  1  'x, y, z'
loop_
 _atom_site_type_symbol
 _atom_site_label
 _atom_site_symmetry_multiplicity
 _atom_site_fract_x
 _atom_site_fract_y
 _atom_site_fract_z
 _atom_site_occupancy
  K  K0  1  0.75000000  0.57730419  0.17258590  1
  K  K1  1  0.25000000  0.42269581  0.82741410  1
  K  K2  1  0.75000000  0.07730419  0.32741410  1
  K  K3  1  0.25000000  0.92269581  0.67258590  1
  Sn  Sn0  1  0.25000000  0.66502076  0.44120282  1
  Sn  Sn1  1  0.75000000  0.33497924  0.55879718  1
  Sn  Sn2  1  0.25000000  0.16502076  0.05879718  1
  Sn  Sn3  1  0.75000000  0.83497924  0.94120282  1
  I  I0  1  0.75000000  0.84052530  0.51154377  1
  I  I1  1  0.25000000  0.15947470  0.48845623  1
  I  I2  1  0.75000000  0.34052530  0.98845623  1
  I  I3  1  0.25000000  0.65947470  0.01154377  1
  I  I4  1  0.25000000  0.51717271  0.62091769  1
  I  I5  1  0.75000000  0.48282729  0.37908231  1
  I  I6  1  0.25000000  0.01717271  0.87908231  1
  I  I7  1  0.75000000  0.98282729  0.12091769  1
  I  I8  1  0.25000000  0.80433048  0.28737111  1
  I  I9  1  0.75000000  0.19566952  0.71262889  1
  I  I10  1  0.25000000  0.30433048  0.21262889  1
  I  I11  1  0.75000000  0.69566952  0.78737111  1
loop_
_geom_bond_atom_site_label_1
_geom_bond_atom_site_label_2
_geom_bond_distance
_geom_bond_site_symmetry_2
I0 Sn0 3.214698 1_555
I0 Sn0 3.214698 1_655
I0 K3 3.711074 1_555
I0 K3 3.711074 1_655
I0 K2 3.989535 1_565
I1 Sn1 3.214698 1_555
I1 Sn1 3.214698 1_455
I1 K2 3.711074 1_455
I1 K2 3.711074 1_555
I1 K3 3.989535 1_545
I2 Sn2 3.214698 1_656
I2 Sn2 3.214698 1_556
I2 K1 3.711074 1_555
I2 K1 3.711074 1_655
I2 K0 3.989535 1_556
I3 Sn3 3.214698 1_454
I3 Sn3 3.214698 1_554
I3 K0 3.711074 1_555
I3 K0 3.711074 1_455
I3 K1 3.989535 1_554
I4 Sn1 3.206384 1_455
I4 Sn1 3.206384 1_555
I4 Sn0 3.423138 1_555
I4 K1 3.646130 1_555
I5 Sn0 3.206384 1_555
I5 Sn0 3.206384 1_655
I5 Sn1 3.423138 1_555
I5 K0 3.646130 1_555
I6 Sn3 3.206384 1_445
I6 Sn3 3.206384 1_545
I6 Sn2 3.423138 1_556
I6 K3 3.646130 1_545
I7 Sn2 3.206384 1_565
I7 Sn2 3.206384 1_665
I7 Sn3 3.423138 1_554
I7 K2 3.646130 1_565
I8 Sn0 2.992637 1_555
I8 K2 3.760379 1_565
I8 K2 3.760379 1_465
I8 K0 3.869843 1_555
I8 K0 3.869843 1_455
I9 Sn1 2.992637 1_555
I9 K3 3.760379 1_645
I9 K3 3.760379 1_545
I9 K1 3.869843 1_655
I9 K1 3.869843 1_555
I10 Sn2 2.992637 1_555
I10 K0 3.760379 1_555
I10 K0 3.760379 1_455
I10 K2 3.869843 1_455
I10 K2 3.869843 1_555
I11 Sn3 2.992637 1_555
I11 K1 3.760379 1_655
I11 K1 3.760379 1_555
I11 K3 3.869843 1_555
I11 K3 3.869843 1_655
