# generated using pymatgen
data_Li3V8O16
_symmetry_space_group_name_H-M   'P 1'
_cell_length_a   8.49242600
_cell_length_b   8.52123256
_cell_length_c   10.28455042
_cell_angle_alpha   114.18266467
_cell_angle_beta   114.29262126
_cell_angle_gamma   89.37217838
_symmetry_Int_Tables_number   1
_chemical_formula_structural   Li3V8O16
_chemical_formula_sum   'Li6 V16 O32'
_cell_volume   607.60936612
_cell_formula_units_Z   2
loop_
 _symmetry_equiv_pos_site_id
 _symmetry_equiv_pos_as_xyz
  1  'x, y, z'
loop_
 _atom_site_type_symbol
 _atom_site_label
 _atom_site_symmetry_multiplicity
 _atom_site_fract_x
 _atom_site_fract_y
 _atom_site_fract_z
 _atom_site_occupancy
  Li  Li0  1  0.40006600  0.13907700  0.75971800  1
  Li  Li1  1  0.87614700  0.12567700  0.23900900  1
  Li  Li2  1  0.68368000  0.43258700  0.61683700  1
  Li  Li3  1  0.30447800  0.55682800  0.37234900  1
  Li  Li4  1  0.06014500  0.80858600  0.87553700  1
  Li  Li5  1  0.43897800  0.68803000  0.12339000  1
  V  V0  1  0.24450400  0.25085200  0.99671000  1
  V  V1  1  0.50152900  0.99236900  0.49574900  1
  V  V2  1  0.86403600  0.12753800  0.75309400  1
  V  V3  1  0.26024100  0.25285000  0.50174800  1
  V  V4  1  0.11002100  0.36923400  0.73733700  1
  V  V5  1  0.36711700  0.11959200  0.24480600  1
  V  V6  1  0.99227600  0.49646600  0.99228400  1
  V  V7  1  0.61857600  0.37138800  0.23313200  1
  V  V8  1  0.74464900  0.73938700  0.99711300  1
  V  V9  1  0.99384600  0.50421500  0.49623800  1
  V  V10  1  0.37144500  0.62158800  0.74724300  1
  V  V11  1  0.74325200  0.74497400  0.49863200  1
  V  V12  1  0.62999900  0.86624900  0.75000900  1
  V  V13  1  0.87516300  0.62712900  0.25212500  1
  V  V14  1  0.49365500  0.99235400  0.00075400  1
  V  V15  1  0.12941200  0.86947200  0.25931100  1
  O  O0  1  0.62446400  0.09278700  0.73810400  1
  O  O1  1  0.00550800  0.27558600  0.99034400  1
  O  O2  1  0.28451000  0.01885700  0.50680800  1
  O  O3  1  0.11516300  0.15491700  0.76998100  1
  O  O4  1  0.13581000  0.11772500  0.28039900  1
  O  O5  1  0.22344000  0.47975700  0.97652000  1
  O  O6  1  0.48024400  0.23074200  0.48393300  1
  O  O7  1  0.89017300  0.37349600  0.75834200  1
  O  O8  1  0.60350600  0.12250900  0.21843400  1
  O  O9  1  0.26174100  0.01581800  0.00427800  1
  O  O10  1  0.01524100  0.27916600  0.51318400  1
  O  O11  1  0.33943700  0.36416400  0.72550400  1
  O  O12  1  0.23842200  0.48860200  0.50860600  1
  O  O13  1  0.12792800  0.60237700  0.73607500  1
  O  O14  1  0.47411900  0.22774600  0.99599900  1
  O  O15  1  0.36674800  0.34973600  0.22250000  1
  O  O16  1  0.75241300  0.49861000  0.47872400  1
  O  O17  1  0.61550100  0.63709900  0.75928300  1
  O  O18  1  0.86961200  0.39426600  0.26389400  1
  O  O19  1  0.50322500  0.75145800  0.98621600  1
  O  O20  1  0.97797100  0.71787000  0.48499600  1
  O  O21  1  0.41347000  0.88006400  0.77310900  1
  O  O22  1  0.64986100  0.61992000  0.25446100  1
  O  O23  1  0.73533700  0.96133300  0.99497800  1
  O  O24  1  0.76927300  0.52544900  0.01298100  1
  O  O25  1  0.51129800  0.76552900  0.51240100  1
  O  O26  1  0.84646200  0.87322200  0.74361800  1
  O  O27  1  0.09670200  0.62308900  0.23673700  1
  O  O28  1  0.88169700  0.84798000  0.23396300  1
  O  O29  1  0.73094100  0.99203400  0.51689500  1
  O  O30  1  0.99013200  0.72882300  0.00826900  1
  O  O31  1  0.36589100  0.89007500  0.25989200  1
loop_
_geom_bond_atom_site_label_1
_geom_bond_atom_site_label_2
_geom_bond_distance
_geom_bond_site_symmetry_2
Li0 O0 2.024072 1_555
Li0 O14 2.029832 1_555
Li0 O11 2.109491 1_555
Li0 O2 2.125265 1_555
Li0 O21 2.265809 1_545
Li0 O3 2.464695 1_555
Li1 O4 2.072817 1_655
Li1 O23 2.092306 1_544
Li1 O18 2.199039 1_555
Li1 O8 2.236084 1_555
Li1 O10 2.308411 1_655
Li1 O28 2.345921 1_545
Li2 O7 1.981887 1_555
Li2 O6 2.001852 1_555
Li2 O16 2.004736 1_555
Li2 O17 2.025478 1_555
Li3 O12 1.984410 1_555
Li3 O27 1.993994 1_555
Li3 O15 2.047142 1_555
Li3 O25 2.051956 1_555
Li4 O26 2.000432 1_455
Li4 O13 2.017050 1_555
Li4 O9 2.021886 1_566
Li4 O30 2.028743 1_456
Li5 O19 1.960767 1_554
Li5 O22 1.998291 1_555
Li5 O31 2.008367 1_555
Li5 O5 2.093269 1_554
O0 V12 1.982548 1_545
O0 V2 1.992126 1_555
O0 V1 2.041047 1_545
O1 V6 1.876708 1_455
O1 V0 2.015144 1_555
O1 V2 2.021841 1_455
O2 V1 1.898136 1_545
O2 V3 2.021890 1_555
O2 V15 2.111367 1_545
O3 V0 1.913800 1_555
O3 V4 1.984517 1_555
O3 V2 2.075056 1_455
O4 V3 1.877394 1_555
O4 V15 2.035174 1_545
O4 V5 2.142441 1_555
O5 V4 2.009503 1_555
O5 V6 2.034042 1_455
O5 V0 2.042889 1_555
O6 V3 1.950767 1_555
O6 V5 2.008931 1_555
O6 V1 2.085536 1_545
O7 V4 1.964123 1_655
O7 V6 1.968875 1_555
O7 V2 2.086263 1_555
O8 V14 1.839107 1_545
O8 V7 2.064998 1_555
O8 V5 2.135162 1_555
O9 V14 1.991089 1_545
O9 V5 2.026282 1_555
O9 V0 2.037284 1_554
O10 V4 1.894358 1_555
O10 V9 1.995263 1_455
O10 V3 2.136051 1_555
O11 V3 1.897337 1_555
O11 V4 2.000369 1_555
O11 V10 2.120585 1_555
O12 V3 1.990349 1_555
O12 V10 2.012958 1_555
O12 V9 2.034310 1_455
O13 V4 1.999877 1_555
O13 V9 2.024837 1_455
O13 V10 2.028151 1_555
O14 V0 1.960463 1_555
O14 V7 2.019030 1_556
O14 V14 2.029697 1_546
O15 V0 1.900701 1_554
O15 V5 2.065541 1_555
O15 V7 2.102248 1_555
O16 V9 1.982396 1_555
O16 V11 2.027933 1_555
O16 V7 2.065988 1_555
O17 V12 2.001144 1_555
O17 V8 2.003093 1_555
O17 V10 2.027317 1_555
O18 V9 1.952942 1_555
O18 V7 2.021567 1_555
O18 V13 2.039058 1_555
O19 V14 1.999388 1_556
O19 V8 2.010605 1_555
O19 V10 2.013266 1_555
O20 V9 1.870935 1_555
O20 V13 1.968034 1_555
O20 V11 2.059071 1_555
O21 V14 1.930735 1_556
O21 V12 1.945118 1_555
O21 V10 2.123291 1_555
O22 V13 1.925333 1_555
O22 V7 2.046350 1_555
O22 V11 2.063500 1_555
O23 V8 1.900761 1_555
O23 V12 2.071993 1_555
O23 V14 2.088441 1_556
O24 V8 1.897646 1_554
O24 V6 1.992808 1_554
O24 V13 2.014905 1_555
O25 V12 1.999550 1_555
O25 V1 2.007123 1_555
O25 V11 2.032900 1_555
O26 V12 1.868741 1_555
O26 V11 2.063686 1_555
O26 V2 2.133101 1_565
O27 V13 1.950644 1_455
O27 V15 2.024669 1_555
O27 V6 2.057995 1_454
O28 V13 1.969370 1_555
O28 V8 1.997160 1_554
O28 V15 2.011256 1_655
O29 V1 1.869440 1_555
O29 V2 1.995803 1_565
O29 V11 2.040999 1_555
O30 V6 1.919016 1_554
O30 V8 2.043276 1_554
O30 V15 2.117691 1_655
O31 V1 1.990303 1_555
O31 V15 2.015203 1_555
O31 V5 2.024745 1_565
