# generated using pymatgen
data_Ba6La2Fe4O15
_symmetry_space_group_name_H-M   'P 1'
_cell_length_a   11.88480550
_cell_length_b   11.88480550
_cell_length_c   7.15574892
_cell_angle_alpha   89.79915523
_cell_angle_beta   89.79915523
_cell_angle_gamma   119.35687539
_symmetry_Int_Tables_number   1
_chemical_formula_structural   Ba6La2Fe4O15
_chemical_formula_sum   'Ba12 La4 Fe8 O30'
_cell_volume   880.92220817
_cell_formula_units_Z   2
loop_
 _symmetry_equiv_pos_site_id
 _symmetry_equiv_pos_as_xyz
  1  'x, y, z'
loop_
 _atom_site_type_symbol
 _atom_site_label
 _atom_site_symmetry_multiplicity
 _atom_site_fract_x
 _atom_site_fract_y
 _atom_site_fract_z
 _atom_site_occupancy
  Ba  Ba0  1  0.33441310  0.66641367  0.01823478  1
  Ba  Ba1  1  0.66641367  0.33441310  0.51823478  1
  Ba  Ba2  1  0.82922495  0.65665097  0.82883746  1
  Ba  Ba3  1  0.34885826  0.17665966  0.84014889  1
  Ba  Ba4  1  0.82489912  0.17120232  0.84218401  1
  Ba  Ba5  1  0.17665966  0.34885826  0.34014889  1
  Ba  Ba6  1  0.65665097  0.82922495  0.32883746  1
  Ba  Ba7  1  0.17120232  0.82489912  0.34218401  1
  Ba  Ba8  1  0.52129689  0.04791309  0.17275256  1
  Ba  Ba9  1  0.04791309  0.52129689  0.67275256  1
  Ba  Ba10  1  0.99719504  0.00401693  0.50226196  1
  Ba  Ba11  1  0.00401693  0.99719504  0.00226196  1
  La  La0  1  0.95711352  0.47897940  0.17068362  1
  La  La1  1  0.52260940  0.47898120  0.16787942  1
  La  La2  1  0.47897940  0.95711352  0.67068362  1
  La  La3  1  0.47898120  0.52260940  0.66787942  1
  Fe  Fe0  1  0.17578082  0.81884769  0.83595204  1
  Fe  Fe1  1  0.18132437  0.35632489  0.84806241  1
  Fe  Fe2  1  0.64351601  0.81794732  0.83088326  1
  Fe  Fe3  1  0.81884769  0.17578082  0.33595204  1
  Fe  Fe4  1  0.81794732  0.64351601  0.33088326  1
  Fe  Fe5  1  0.35632489  0.18132537  0.34806241  1
  Fe  Fe6  1  0.66618336  0.33518666  0.97029238  1
  Fe  Fe7  1  0.33518666  0.66618336  0.47029238  1
  O  O0  1  0.10012531  0.19304221  0.74611043  1
  O  O1  1  0.80994121  0.89399517  0.74097769  1
  O  O2  1  0.07900172  0.88121972  0.71775161  1
  O  O3  1  0.89399517  0.80994121  0.24097769  1
  O  O4  1  0.19304221  0.10012531  0.24611043  1
  O  O5  1  0.88121972  0.07900172  0.21775161  1
  O  O6  1  0.75835077  0.26125564  0.16740148  1
  O  O7  1  0.74896267  0.50842226  0.15106212  1
  O  O8  1  0.49410682  0.25990241  0.16831276  1
  O  O9  1  0.26125564  0.75835077  0.66740148  1
  O  O10  1  0.25990241  0.49410682  0.66831276  1
  O  O11  1  0.50842226  0.74896267  0.65106212  1
  O  O12  1  0.94199244  0.32095340  0.45720205  1
  O  O13  1  0.66764804  0.59835035  0.47339819  1
  O  O14  1  0.39088003  0.07090322  0.49536837  1
  O  O15  1  0.93055538  0.60058562  0.44775008  1
  O  O16  1  0.67866323  0.06994635  0.49519496  1
  O  O17  1  0.39558109  0.33155581  0.48257685  1
  O  O18  1  0.06994635  0.67866323  0.99519496  1
  O  O19  1  0.33155581  0.39558109  0.98257685  1
  O  O20  1  0.60058562  0.93055538  0.94775008  1
  O  O21  1  0.07090322  0.39088003  0.99536837  1
  O  O22  1  0.32095340  0.94199244  0.95720205  1
  O  O23  1  0.59835035  0.66764804  0.97339819  1
  O  O24  1  0.41730459  0.58173030  0.33547410  1
  O  O25  1  0.41466498  0.82580831  0.34018493  1
  O  O26  1  0.17630505  0.58670824  0.32826158  1
  O  O27  1  0.58173030  0.41730459  0.83547410  1
  O  O28  1  0.58670824  0.17630505  0.82826158  1
  O  O29  1  0.82580831  0.41466498  0.84018493  1
loop_
_geom_bond_atom_site_label_1
_geom_bond_atom_site_label_2
_geom_bond_distance
_geom_bond_site_symmetry_2
Ba0 O26 2.749666 1_555
Ba0 O25 2.842577 1_555
Ba0 O24 2.847553 1_555
Ba0 O9 3.029836 1_554
Ba0 O10 3.085614 1_554
Ba0 O23 3.144953 1_554
Ba0 O11 3.177591 1_554
Ba0 O19 3.213336 1_554
Ba0 O20 3.218258 1_554
Ba0 O18 3.221771 1_554
Ba0 O21 3.241919 1_554
Ba0 O22 3.383404 1_554
Ba1 O28 2.749666 1_555
Ba1 O29 2.842577 1_555
Ba1 O27 2.847553 1_555
Ba1 O6 3.029836 1_555
Ba1 O8 3.085614 1_555
Ba1 O13 3.144953 1_555
Ba1 O7 3.177591 1_555
Ba1 O17 3.213336 1_555
Ba1 O15 3.218258 1_555
Ba1 O16 3.221771 1_555
Ba1 O14 3.241919 1_555
Ba1 O12 3.383404 1_555
Ba2 O7 2.763756 1_556
Ba2 O29 2.857132 1_555
Ba2 O27 2.922334 1_555
Ba2 O2 2.961024 1_655
Ba2 O23 2.991456 1_555
Ba2 O18 2.993766 1_655
Ba2 O1 3.004512 1_555
Ba2 O13 3.062471 1_555
Ba2 O15 3.179177 1_555
Ba2 O3 3.359725 1_556
Ba3 O22 2.768522 1_545
Ba3 O8 2.800574 1_556
Ba3 O28 2.829850 1_555
Ba3 O27 2.842220 1_555
Ba3 O19 2.896946 1_555
Ba3 O14 2.923128 1_555
Ba3 O17 3.032975 1_555
Ba3 O0 3.131593 1_555
Ba3 O4 3.314764 1_556
Ba4 O6 2.832189 1_556
Ba4 O28 2.863144 1_555
Ba4 O29 2.888209 1_555
Ba4 O20 2.890055 1_545
Ba4 O16 2.938434 1_555
Ba4 O21 3.020622 1_655
Ba4 O5 3.095546 1_556
Ba4 O12 3.194305 1_555
Ba4 O0 3.223355 1_655
Ba4 O1 3.294470 1_545
Ba5 O12 2.768522 1_455
Ba5 O10 2.800574 1_555
Ba5 O26 2.829850 1_555
Ba5 O24 2.842220 1_555
Ba5 O17 2.896946 1_555
Ba5 O21 2.923128 1_554
Ba5 O19 3.032975 1_554
Ba5 O4 3.131593 1_555
Ba5 O0 3.314764 1_555
Ba6 O11 2.763756 1_555
Ba6 O25 2.857132 1_555
Ba6 O24 2.922334 1_555
Ba6 O5 2.961024 1_565
Ba6 O13 2.991456 1_555
Ba6 O16 2.993766 1_565
Ba6 O3 3.004512 1_555
Ba6 O23 3.062471 1_554
Ba6 O20 3.179177 1_554
Ba6 O1 3.359725 1_555
Ba7 O9 2.832189 1_555
Ba7 O26 2.863144 1_555
Ba7 O25 2.888209 1_555
Ba7 O15 2.890055 1_455
Ba7 O18 2.938434 1_554
Ba7 O14 3.020622 1_565
Ba7 O2 3.095546 1_555
Ba7 O22 3.194305 1_554
Ba7 O4 3.223355 1_565
Ba7 O3 3.294470 1_455
Ba8 O25 2.587768 1_545
Ba8 O20 2.592198 1_544
Ba8 O22 2.594917 1_544
Ba8 O8 2.692742 1_555
Ba8 O6 2.713343 1_555
Ba8 O28 2.794015 1_554
Ba8 O14 2.863758 1_555
Ba8 O16 2.905938 1_555
Ba9 O29 2.587768 1_455
Ba9 O15 2.592198 1_455
Ba9 O12 2.594917 1_455
Ba9 O10 2.692742 1_555
Ba9 O9 2.713343 1_555
Ba9 O26 2.794015 1_555
Ba9 O21 2.863758 1_555
Ba9 O18 2.905938 1_555
Ba10 O1 2.585514 1_545
Ba10 O2 2.615132 1_645
Ba10 O0 2.633622 1_655
Ba10 O4 2.725944 1_655
Ba10 O3 2.755487 1_545
Ba10 O5 2.837289 1_555
Ba11 O3 2.585514 1_455
Ba11 O5 2.615132 1_465
Ba11 O4 2.633622 1_565
Ba11 O0 2.725944 1_564
Ba11 O1 2.755487 1_454
Ba11 O2 2.837289 1_554
La0 O18 2.419545 1_654
La0 O21 2.425837 1_654
La0 O6 2.506782 1_555
La0 O26 2.541146 1_655
La0 O15 2.565576 1_555
La0 O7 2.666995 1_555
La0 O12 2.720775 1_555
La0 O29 2.735249 1_554
La1 O19 2.391662 1_554
La1 O23 2.401057 1_554
La1 O24 2.448268 1_555
La1 O8 2.455442 1_555
La1 O7 2.539370 1_555
La1 O27 2.682219 1_554
La1 O13 2.722853 1_555
La1 O17 2.788384 1_555
La2 O16 2.419545 1_565
La2 O14 2.425837 1_565
La2 O9 2.506782 1_555
La2 O28 2.541146 1_565
La2 O20 2.565576 1_555
La2 O11 2.666995 1_555
La2 O22 2.720775 1_555
La2 O25 2.735249 1_555
La3 O17 2.391662 1_555
La3 O13 2.401057 1_555
La3 O27 2.448268 1_555
La3 O10 2.455442 1_555
La3 O11 2.539370 1_555
La3 O24 2.682219 1_555
La3 O23 2.722853 1_555
La3 O19 2.788384 1_555
Fe0 O22 1.848002 1_555
Fe0 O2 1.851019 1_555
Fe0 O18 1.891628 1_555
Fe0 O9 1.928013 1_555
Fe1 O0 1.846089 1_555
Fe1 O21 1.877165 1_555
Fe1 O19 1.878966 1_555
Fe1 O10 1.919739 1_555
Fe2 O1 1.837707 1_555
Fe2 O20 1.850719 1_555
Fe2 O23 1.887370 1_555
Fe2 O11 1.907081 1_555
Fe3 O12 1.848002 1_555
Fe3 O5 1.851019 1_555
Fe3 O16 1.891628 1_555
Fe3 O6 1.928013 1_555
Fe4 O3 1.837707 1_555
Fe4 O15 1.850719 1_555
Fe4 O13 1.887370 1_555
Fe4 O7 1.907081 1_555
Fe5 O4 1.846089 1_555
Fe5 O14 1.877175 1_555
Fe5 O17 1.878956 1_555
Fe5 O8 1.919738 1_555
Fe6 O29 1.892745 1_555
Fe6 O28 1.939615 1_555
Fe6 O27 1.962466 1_555
Fe6 O6 2.215213 1_556
Fe6 O7 2.218479 1_556
Fe6 O8 2.273209 1_556
Fe7 O25 1.892745 1_555
Fe7 O26 1.939615 1_555
Fe7 O24 1.962466 1_555
Fe7 O9 2.215213 1_555
Fe7 O11 2.218479 1_555
Fe7 O10 2.273209 1_555
