# generated using pymatgen
data_Li3MnCoO5
_symmetry_space_group_name_H-M   'P 1'
_cell_length_a   4.97615500
_cell_length_b   5.14688232
_cell_length_c   7.79880692
_cell_angle_alpha   108.92117165
_cell_angle_beta   102.20235805
_cell_angle_gamma   99.64718391
_symmetry_Int_Tables_number   1
_chemical_formula_structural   Li3MnCoO5
_chemical_formula_sum   'Li6 Mn2 Co2 O10'
_cell_volume   178.55522479
_cell_formula_units_Z   2
loop_
 _symmetry_equiv_pos_site_id
 _symmetry_equiv_pos_as_xyz
  1  'x, y, z'
loop_
 _atom_site_type_symbol
 _atom_site_label
 _atom_site_symmetry_multiplicity
 _atom_site_fract_x
 _atom_site_fract_y
 _atom_site_fract_z
 _atom_site_occupancy
  Li  Li0  1  0.00000000  0.50000000  0.50000000  1
  Li  Li1  1  0.39150400  0.48906800  0.71174000  1
  Li  Li2  1  0.79972800  0.50487500  0.90914900  1
  Li  Li3  1  0.20027200  0.49512500  0.09085100  1
  Li  Li4  1  0.60849600  0.51093200  0.28826000  1
  Li  Li5  1  0.00000000  0.00000000  0.00000000  1
  Mn  Mn0  1  0.19895000  0.99906100  0.60232800  1
  Mn  Mn1  1  0.80105000  0.00093900  0.39767200  1
  Co  Co0  1  0.59378200  0.99877400  0.81307900  1
  Co  Co1  1  0.40621800  0.00122600  0.18692100  1
  O  O0  1  0.17814900  0.22242700  0.36516400  1
  O  O1  1  0.58639800  0.22115900  0.54643200  1
  O  O2  1  0.99921900  0.22126300  0.73634300  1
  O  O3  1  0.42202400  0.24322900  0.94888100  1
  O  O4  1  0.78255600  0.22762000  0.17186700  1
  O  O5  1  0.82185100  0.77757300  0.63483600  1
  O  O6  1  0.21744400  0.77238000  0.82813300  1
  O  O7  1  0.57797600  0.75677100  0.05111900  1
  O  O8  1  0.00078100  0.77873700  0.26365700  1
  O  O9  1  0.41360200  0.77884100  0.45356800  1
loop_
_geom_bond_atom_site_label_1
_geom_bond_atom_site_label_2
_geom_bond_distance
_geom_bond_site_symmetry_2
Li0 O5 1.943428 1_455
Li0 O0 1.943428 1_555
Li1 O6 1.896762 1_555
Li1 O1 2.080341 1_555
Li1 O2 2.274934 1_455
Li1 O7 2.435768 1_556
Li1 O3 2.551018 1_555
Li2 O7 2.046807 1_556
Li2 O2 2.169761 1_555
Li2 O3 2.260659 1_555
Li3 O3 2.046807 1_554
Li3 O8 2.169761 1_555
Li3 O7 2.260659 1_555
Li4 O4 1.896762 1_555
Li4 O9 2.080341 1_555
Li4 O8 2.274934 1_655
Li4 O3 2.435768 1_554
Li4 O7 2.551018 1_555
Li5 O6 2.087924 1_544
Li5 O4 2.087924 1_455
Li5 O3 2.435735 1_554
Li5 O7 2.435735 1_445
Mn0 O2 1.852837 1_465
Mn0 O9 1.961733 1_555
Mn0 O5 2.134632 1_455
Mn0 O3 2.485471 1_565
Mn1 O8 1.852837 1_645
Mn1 O1 1.961733 1_555
Mn1 O0 2.134632 1_655
Mn1 O7 2.485471 1_545
Co0 O3 1.820463 1_565
Co0 O6 2.080599 1_555
Co0 O5 2.142453 1_555
Co0 O7 2.555861 1_556
Co1 O7 1.820463 1_545
Co1 O4 2.080599 1_555
Co1 O0 2.142453 1_555
Co1 O3 2.555861 1_554
