# generated using pymatgen
data_Ni3(BO3)2
_symmetry_space_group_name_H-M   'P 1'
_cell_length_a   4.44715457
_cell_length_b   5.39281546
_cell_length_c   8.28571509
_cell_angle_alpha   89.99987883
_cell_angle_beta   89.99998731
_cell_angle_gamma   89.99929390
_symmetry_Int_Tables_number   1
_chemical_formula_structural   Ni3(BO3)2
_chemical_formula_sum   'Ni6 B4 O12'
_cell_volume   198.71368603
_cell_formula_units_Z   2
loop_
 _symmetry_equiv_pos_site_id
 _symmetry_equiv_pos_as_xyz
  1  'x, y, z'
loop_
 _atom_site_type_symbol
 _atom_site_label
 _atom_site_symmetry_multiplicity
 _atom_site_fract_x
 _atom_site_fract_y
 _atom_site_fract_z
 _atom_site_occupancy
  Ni  Ni0  1  0.99998286  0.00000511  0.99985056  1
  Ni  Ni1  1  0.00002160  0.50000611  0.81582937  1
  Ni  Ni2  1  0.49997806  0.00000695  0.68420640  1
  Ni  Ni3  1  0.50001873  0.50000318  0.49984837  1
  Ni  Ni4  1  0.00002130  0.50000792  0.18420498  1
  Ni  Ni5  1  0.49997778  0.00000700  0.31583322  1
  B  B0  1  0.04236395  0.24550414  0.50004414  1
  B  B1  1  0.95763787  0.75449164  0.50004425  1
  B  B2  1  0.45765114  0.74550984  0.00004200  1
  B  B3  1  0.54234638  0.25448655  0.00004315  1
  O  O0  1  0.74561926  0.17481442  0.50009489  1
  O  O1  1  0.25437483  0.82520465  0.50009539  1
  O  O2  1  0.75439744  0.67481821  0.00008812  1
  O  O3  1  0.24560758  0.32520157  0.00008885  1
  O  O4  1  0.20176463  0.29821479  0.35920719  1
  O  O5  1  0.79823928  0.70176841  0.35921293  1
  O  O6  1  0.29804768  0.79852439  0.14071435  1
  O  O7  1  0.70194937  0.20146207  0.14071057  1
  O  O8  1  0.79803341  0.70144966  0.64070723  1
  O  O9  1  0.20196913  0.29853314  0.64071236  1
  O  O10  1  0.70175549  0.20176188  0.85921349  1
  O  O11  1  0.29824024  0.79821839  0.85920718  1
loop_
_geom_bond_atom_site_label_1
_geom_bond_atom_site_label_2
_geom_bond_distance
_geom_bond_site_symmetry_2
Ni0 O2 2.065968 1_546
Ni0 O3 2.066105 1_656
Ni0 O7 2.073439 1_556
Ni0 O6 2.073610 1_646
Ni0 O10 2.073797 1_555
Ni0 O11 2.073998 1_645
Ni1 O9 2.022958 1_555
Ni1 O8 2.022981 1_455
Ni1 O3 2.100552 1_556
Ni1 O2 2.100657 1_456
Ni1 O11 2.115284 1_555
Ni1 O10 2.115555 1_455
Ni2 O11 2.022777 1_545
Ni2 O10 2.022799 1_555
Ni2 O1 2.099708 1_545
Ni2 O0 2.099808 1_555
Ni2 O9 2.116125 1_555
Ni2 O8 2.116390 1_545
Ni3 O0 2.065990 1_555
Ni3 O1 2.066150 1_555
Ni3 O8 2.073368 1_555
Ni3 O9 2.073555 1_555
Ni3 O5 2.073811 1_555
Ni3 O4 2.074001 1_555
Ni4 O4 2.022798 1_555
Ni4 O5 2.022817 1_455
Ni4 O3 2.099697 1_555
Ni4 O2 2.099795 1_455
Ni4 O6 2.116153 1_555
Ni4 O7 2.116407 1_455
Ni5 O6 2.022975 1_545
Ni5 O7 2.022996 1_555
Ni5 O1 2.100614 1_545
Ni5 O0 2.100716 1_555
Ni5 O4 2.115220 1_555
Ni5 O5 2.115488 1_545
B0 O0 1.373633 1_455
B0 O9 1.394297 1_555
B0 O4 1.394652 1_555
B1 O1 1.373634 1_655
B1 O8 1.394273 1_555
B1 O5 1.394623 1_555
B2 O2 1.373633 1_555
B2 O6 1.394302 1_555
B2 O11 1.394654 1_554
B3 O3 1.373636 1_555
B3 O7 1.394277 1_555
B3 O10 1.394633 1_554
