# generated using pymatgen
data_BeSe
_symmetry_space_group_name_H-M   'P 1'
_cell_length_a   3.52275944
_cell_length_b   3.52275944
_cell_length_c   5.55316100
_cell_angle_alpha   90.00000000
_cell_angle_beta   90.00000000
_cell_angle_gamma   119.99998940
_symmetry_Int_Tables_number   1
_chemical_formula_structural   BeSe
_chemical_formula_sum   'Be2 Se2'
_cell_volume   59.68111341
_cell_formula_units_Z   2
loop_
 _symmetry_equiv_pos_site_id
 _symmetry_equiv_pos_as_xyz
  1  'x, y, z'
loop_
 _atom_site_type_symbol
 _atom_site_label
 _atom_site_symmetry_multiplicity
 _atom_site_fract_x
 _atom_site_fract_y
 _atom_site_fract_z
 _atom_site_occupancy
  Be  Be0  1  0.00000000  0.00000000  0.50000000  1
  Be  Be1  1  0.00000000  0.00000000  0.00000000  1
  Se  Se0  1  0.33333300  0.66666700  0.25000000  1
  Se  Se1  1  0.66666700  0.33333300  0.75000000  1
loop_
_geom_bond_atom_site_label_1
_geom_bond_atom_site_label_2
_geom_bond_distance
_geom_bond_site_symmetry_2
Be0 Se0 2.462509 1_545
Be0 Se1 2.462509 1_455
Be0 Se0 2.462512 1_555
Be0 Se1 2.462512 1_445
Be0 Se1 2.462512 1_555
Be0 Se0 2.462512 1_445
Be1 Se0 2.462509 1_545
Be1 Se1 2.462509 1_454
Be1 Se1 2.462512 1_554
Be1 Se1 2.462512 1_444
Be1 Se0 2.462512 1_555
Be1 Se0 2.462512 1_445
