# generated using pymatgen
data_BaFe2(PO4)2
_symmetry_space_group_name_H-M   'P 1'
_cell_length_a   4.94748552
_cell_length_b   8.56034700
_cell_length_c   8.46182720
_cell_angle_alpha   109.67610201
_cell_angle_beta   89.84772120
_cell_angle_gamma   90.02987119
_symmetry_Int_Tables_number   1
_chemical_formula_structural   BaFe2(PO4)2
_chemical_formula_sum   'Ba2 Fe4 P4 O16'
_cell_volume   337.45047071
_cell_formula_units_Z   2
loop_
 _symmetry_equiv_pos_site_id
 _symmetry_equiv_pos_as_xyz
  1  'x, y, z'
loop_
 _atom_site_type_symbol
 _atom_site_label
 _atom_site_symmetry_multiplicity
 _atom_site_fract_x
 _atom_site_fract_y
 _atom_site_fract_z
 _atom_site_occupancy
  Ba  Ba0  1  0.00027000  0.99946200  0.99955300  1
  Ba  Ba1  1  0.49970900  0.50053100  0.00042500  1
  Fe  Fe0  1  0.00029000  0.83212600  0.48951700  1
  Fe  Fe1  1  0.49929400  0.66790600  0.51035000  1
  Fe  Fe2  1  0.50018700  0.32575300  0.48994700  1
  Fe  Fe3  1  0.00125000  0.17415000  0.51031600  1
  P  P0  1  0.99851800  0.42618300  0.27557400  1
  P  P1  1  0.50004300  0.92395500  0.27543900  1
  P  P2  1  0.99990100  0.57607100  0.72444700  1
  P  P3  1  0.50156600  0.07377600  0.72450200  1
  O  O0  1  0.99811100  0.36080500  0.08377200  1
  O  O1  1  0.50023400  0.86135000  0.08359600  1
  O  O2  1  0.99959200  0.63888600  0.91630100  1
  O  O3  1  0.50204200  0.13880000  0.91629400  1
  O  O4  1  0.15699800  0.59437300  0.33953600  1
  O  O5  1  0.66037500  0.09259200  0.34043700  1
  O  O6  1  0.14038900  0.29448400  0.34047300  1
  O  O7  1  0.63876900  0.79206900  0.33971200  1
  O  O8  1  0.69886200  0.45402000  0.34136300  1
  O  O9  1  0.20000800  0.95224500  0.34024900  1
  O  O10  1  0.83790300  0.40807800  0.65965800  1
  O  O11  1  0.34408600  0.90516000  0.66019200  1
  O  O12  1  0.86217600  0.70818800  0.65988800  1
  O  O13  1  0.35825300  0.20518200  0.66010000  1
  O  O14  1  0.29987300  0.54719500  0.65972900  1
  O  O15  1  0.80130000  0.04665700  0.65862900  1
loop_
_geom_bond_atom_site_label_1
_geom_bond_atom_site_label_2
_geom_bond_distance
_geom_bond_site_symmetry_2
Ba0 O2 2.925653 1_455
Ba0 O3 2.928033 1_465
Ba0 O1 2.928758 1_456
Ba0 O0 2.931136 1_466
Ba0 O1 2.932689 1_556
Ba0 O3 2.938612 1_565
Ba0 O12 3.182374 1_455
Ba0 O11 3.194643 1_555
Ba0 O5 3.195440 1_466
Ba0 O9 3.201771 1_556
Ba0 O15 3.202331 1_465
Ba0 O6 3.206784 1_566
Ba1 O1 2.927757 1_555
Ba1 O2 2.929387 1_554
Ba1 O0 2.930666 1_555
Ba1 O3 2.934456 1_554
Ba1 O2 2.934598 1_454
Ba1 O0 2.939781 1_455
Ba1 O7 3.182453 1_555
Ba1 O4 3.190225 1_555
Ba1 O10 3.190547 1_554
Ba1 O14 3.199891 1_554
Ba1 O8 3.200213 1_555
Ba1 O13 3.206400 1_554
Fe0 O9 2.120364 1_555
Fe0 O4 2.147330 1_555
Fe0 O15 2.148089 1_465
Fe0 O7 2.154604 1_455
Fe0 O12 2.166770 1_455
Fe0 O11 2.184883 1_555
Fe1 O14 2.123871 1_555
Fe1 O11 2.141148 1_555
Fe1 O8 2.145520 1_555
Fe1 O12 2.158923 1_555
Fe1 O7 2.172134 1_555
Fe1 O4 2.180041 1_555
Fe2 O5 2.123279 1_555
Fe2 O6 2.150267 1_555
Fe2 O13 2.150821 1_555
Fe2 O8 2.162068 1_555
Fe2 O10 2.163485 1_555
Fe2 O14 2.190896 1_555
Fe3 O10 2.133601 1_455
Fe3 O13 2.140413 1_555
Fe3 O6 2.142759 1_555
Fe3 O15 2.158561 1_455
Fe3 O5 2.175735 1_455
Fe3 O9 2.190871 1_545
O0 P0 1.528294 1_555
O1 P1 1.528592 1_555
O2 P2 1.528667 1_555
O3 P3 1.528193 1_555
O4 P0 1.567470 1_455
O5 P1 1.575482 1_545
O6 P0 1.576405 1_455
O7 P1 1.567723 1_555
O8 P0 1.572030 1_555
O9 P1 1.571469 1_555
O10 P2 1.575190 1_555
O11 P3 1.568040 1_565
O12 P2 1.568645 1_555
O13 P3 1.575045 1_555
O14 P2 1.571140 1_455
O15 P3 1.572419 1_555
