# generated using pymatgen
data_LaGaO3
_symmetry_space_group_name_H-M   'P 1'
_cell_length_a   5.52989012
_cell_length_b   5.52989012
_cell_length_c   5.52989052
_cell_angle_alpha   60.78512786
_cell_angle_beta   60.78512786
_cell_angle_gamma   60.78512610
_symmetry_Int_Tables_number   1
_chemical_formula_structural   LaGaO3
_chemical_formula_sum   'La2 Ga2 O6'
_cell_volume   121.69108631
_cell_formula_units_Z   2
loop_
 _symmetry_equiv_pos_site_id
 _symmetry_equiv_pos_as_xyz
  1  'x, y, z'
loop_
 _atom_site_type_symbol
 _atom_site_label
 _atom_site_symmetry_multiplicity
 _atom_site_fract_x
 _atom_site_fract_y
 _atom_site_fract_z
 _atom_site_occupancy
  La  La0  1  0.74822400  0.74822400  0.74822400  1
  La  La1  1  0.24822400  0.24822400  0.24822400  1
  Ga  Ga0  1  0.49639500  0.49639500  0.49639500  1
  Ga  Ga1  1  0.99639500  0.99639500  0.99639500  1
  O  O0  1  0.67569600  0.81518000  0.24260400  1
  O  O1  1  0.24260400  0.67569600  0.81518000  1
  O  O2  1  0.81518000  0.24260400  0.67569600  1
  O  O3  1  0.74260400  0.31518000  0.17569600  1
  O  O4  1  0.17569600  0.74260400  0.31518000  1
  O  O5  1  0.31518000  0.17569600  0.74260400  1
loop_
_geom_bond_atom_site_label_1
_geom_bond_atom_site_label_2
_geom_bond_distance
_geom_bond_site_symmetry_2
La0 O5 2.408000 1_565
La0 O3 2.408000 1_556
La0 O4 2.408000 1_655
La0 O2 2.746778 1_565
La0 O1 2.746778 1_655
La0 O0 2.746778 1_556
La0 O1 2.838104 1_555
La0 O2 2.838104 1_555
La0 O0 2.838104 1_555
La1 O0 2.408000 1_545
La1 O2 2.408000 1_455
La1 O1 2.408000 1_554
La1 O3 2.746778 1_555
La1 O4 2.746778 1_555
La1 O5 2.746778 1_555
La1 O4 2.838104 1_545
La1 O3 2.838104 1_455
La1 O5 2.838104 1_554
Ga0 O2 1.998284 1_555
Ga0 O0 1.998284 1_555
Ga0 O1 1.998284 1_555
Ga0 O4 2.012189 1_555
Ga0 O5 2.012189 1_555
Ga0 O3 2.012189 1_555
Ga1 O3 1.998284 1_566
Ga1 O5 1.998284 1_665
Ga1 O4 1.998284 1_656
Ga1 O1 2.012189 1_655
Ga1 O0 2.012189 1_556
Ga1 O2 2.012189 1_565
