# generated using pymatgen
data_PrIn2Ni
_symmetry_space_group_name_H-M   'P 1'
_cell_length_a   9.54406665
_cell_length_b   9.54406665
_cell_length_c   22.00893100
_cell_angle_alpha   90.00000000
_cell_angle_beta   90.00000000
_cell_angle_gamma   153.21426086
_symmetry_Int_Tables_number   1
_chemical_formula_structural   PrIn2Ni
_chemical_formula_sum   'Pr10 In20 Ni10'
_cell_volume   903.46309954
_cell_formula_units_Z   10
loop_
 _symmetry_equiv_pos_site_id
 _symmetry_equiv_pos_as_xyz
  1  'x, y, z'
loop_
 _atom_site_type_symbol
 _atom_site_label
 _atom_site_symmetry_multiplicity
 _atom_site_fract_x
 _atom_site_fract_y
 _atom_site_fract_z
 _atom_site_occupancy
  Pr  Pr0  1  0.56252800  0.43747200  0.08015100  1
  Pr  Pr1  1  0.43747200  0.56252800  0.91984900  1
  Pr  Pr2  1  0.56252800  0.43747200  0.41984900  1
  Pr  Pr3  1  0.43747200  0.56252800  0.58015100  1
  Pr  Pr4  1  0.77204500  0.22795500  0.12902600  1
  Pr  Pr5  1  0.22795500  0.77204500  0.87097400  1
  Pr  Pr6  1  0.77204500  0.22795500  0.37097400  1
  Pr  Pr7  1  0.22795500  0.77204500  0.62902600  1
  Pr  Pr8  1  0.53041900  0.46958100  0.25000000  1
  Pr  Pr9  1  0.46958100  0.53041900  0.75000000  1
  In  In0  1  0.27509500  0.72490500  0.25000000  1
  In  In1  1  0.72490500  0.27509500  0.75000000  1
  In  In2  1  0.20032900  0.79967100  0.03316300  1
  In  In3  1  0.79967100  0.20032900  0.96683700  1
  In  In4  1  0.20032900  0.79967100  0.46683700  1
  In  In5  1  0.79967100  0.20032900  0.53316300  1
  In  In6  1  0.40113300  0.59886700  0.14339600  1
  In  In7  1  0.59886700  0.40113300  0.85660400  1
  In  In8  1  0.40113300  0.59886700  0.35660400  1
  In  In9  1  0.59886700  0.40113300  0.64339600  1
  In  In10  1  0.13654800  0.86345200  0.17524800  1
  In  In11  1  0.86345200  0.13654800  0.82475200  1
  In  In12  1  0.13654800  0.86345200  0.32475200  1
  In  In13  1  0.86345200  0.13654800  0.67524800  1
  In  In14  1  0.89176800  0.10823200  0.25000000  1
  In  In15  1  0.10823200  0.89176800  0.75000000  1
  In  In16  1  0.93265800  0.06734200  0.04322900  1
  In  In17  1  0.06734200  0.93265800  0.95677100  1
  In  In18  1  0.93265800  0.06734200  0.45677100  1
  In  In19  1  0.06734200  0.93265800  0.54322900  1
  Ni  Ni0  1  0.65539000  0.34461000  0.96779100  1
  Ni  Ni1  1  0.34461000  0.65539000  0.03220900  1
  Ni  Ni2  1  0.65539000  0.34461000  0.53220900  1
  Ni  Ni3  1  0.34461000  0.65539000  0.46779100  1
  Ni  Ni4  1  0.98524300  0.01475700  0.15775500  1
  Ni  Ni5  1  0.01475700  0.98524300  0.84224500  1
  Ni  Ni6  1  0.98524300  0.01475700  0.34224500  1
  Ni  Ni7  1  0.01475700  0.98524300  0.65775500  1
  Ni  Ni8  1  0.68255900  0.31744100  0.25000000  1
  Ni  Ni9  1  0.31744100  0.68255900  0.75000000  1
loop_
_geom_bond_atom_site_label_1
_geom_bond_atom_site_label_2
_geom_bond_distance
_geom_bond_site_symmetry_2
In0 Ni8 2.799927 1_565
In0 Ni8 2.799927 1_455
In0 In12 3.053755 1_555
In0 In10 3.053755 1_555
In0 In14 3.095281 1_565
In0 In14 3.095281 1_455
In0 In8 3.313960 1_555
In0 In6 3.313960 1_555
In0 Pr6 3.461096 1_565
In0 Pr6 3.461096 1_455
In0 Pr4 3.461096 1_565
In0 Pr4 3.461096 1_455
In1 Ni9 2.799927 1_655
In1 Ni9 2.799927 1_545
In1 In11 3.053755 1_555
In1 In13 3.053755 1_555
In1 In15 3.095281 1_655
In1 In15 3.095281 1_545
In1 In7 3.313960 1_555
In1 In9 3.313960 1_555
In1 Pr5 3.461096 1_655
In1 Pr5 3.461096 1_545
In1 Pr7 3.461096 1_655
In1 Pr7 3.461096 1_545
In2 Ni1 2.679240 1_555
In2 Ni0 2.766482 1_454
In2 Ni0 2.766482 1_564
In2 In3 3.228126 1_564
In2 In3 3.228126 1_454
In2 Pr4 3.333448 1_455
In2 Pr4 3.333448 1_565
In2 Pr0 3.536116 1_455
In2 Pr0 3.536116 1_565
In2 Pr5 3.606279 1_554
In3 Ni0 2.679240 1_555
In3 Ni1 2.766482 1_546
In3 Ni1 2.766482 1_656
In3 Pr5 3.333448 1_545
In3 Pr5 3.333448 1_655
In3 Pr1 3.536116 1_545
In3 Pr1 3.536116 1_655
In3 Pr4 3.606279 1_556
In4 Ni3 2.679240 1_555
In4 Ni2 2.766482 1_455
In4 Ni2 2.766482 1_565
In4 In5 3.228126 1_565
In4 In5 3.228126 1_455
In4 Pr6 3.333448 1_455
In4 Pr6 3.333448 1_565
In4 Pr2 3.536116 1_455
In4 Pr2 3.536116 1_565
In4 Pr7 3.606279 1_555
In5 Ni2 2.679240 1_555
In5 Ni3 2.766482 1_545
In5 Ni3 2.766482 1_655
In5 Pr7 3.333448 1_545
In5 Pr7 3.333448 1_655
In5 Pr3 3.536116 1_545
In5 Pr3 3.536116 1_655
In5 Pr6 3.606279 1_555
In6 Ni1 2.662695 1_555
In6 Ni4 2.725114 1_455
In6 Ni4 2.725114 1_565
In6 Pr4 3.276102 1_455
In6 Pr4 3.276102 1_565
In6 Pr0 3.304427 1_555
In6 Pr8 3.356825 1_555
In7 Ni0 2.662695 1_555
In7 Ni5 2.725114 1_545
In7 Ni5 2.725114 1_655
In7 Pr5 3.276102 1_545
In7 Pr5 3.276102 1_655
In7 Pr1 3.304427 1_555
In7 Pr9 3.356825 1_555
In8 Ni3 2.662695 1_555
In8 Ni6 2.725114 1_455
In8 Ni6 2.725114 1_565
In8 Pr6 3.276102 1_455
In8 Pr6 3.276102 1_565
In8 Pr2 3.304427 1_555
In8 Pr8 3.356825 1_555
In9 Ni2 2.662695 1_555
In9 Ni7 2.725114 1_545
In9 Ni7 2.725114 1_655
In9 Pr7 3.276102 1_545
In9 Pr7 3.276102 1_655
In9 Pr3 3.304427 1_555
In9 Pr9 3.356825 1_555
In10 Ni4 2.835843 1_465
In10 Ni8 2.885084 1_565
In10 Ni8 2.885084 1_455
In10 In12 3.290423 1_555
In10 Pr0 3.340179 1_565
In10 Pr0 3.340179 1_455
In10 In2 3.343903 1_555
In10 Pr8 3.387839 1_565
In10 Pr8 3.387839 1_455
In10 Pr4 3.500345 1_455
In10 Pr4 3.500345 1_565
In11 Ni5 2.835843 1_645
In11 Ni9 2.885084 1_655
In11 Ni9 2.885084 1_545
In11 In13 3.290423 1_555
In11 Pr1 3.340179 1_655
In11 Pr1 3.340179 1_545
In11 In3 3.343903 1_555
In11 Pr9 3.387839 1_655
In11 Pr9 3.387839 1_545
In11 Pr5 3.500345 1_545
In11 Pr5 3.500345 1_655
In12 Ni6 2.835843 1_465
In12 Ni8 2.885084 1_565
In12 Ni8 2.885084 1_455
In12 Pr2 3.340179 1_565
In12 Pr2 3.340179 1_455
In12 In4 3.343903 1_555
In12 Pr8 3.387839 1_565
In12 Pr8 3.387839 1_455
In12 Pr6 3.500345 1_455
In12 Pr6 3.500345 1_565
In13 Ni7 2.835843 1_645
In13 Ni9 2.885084 1_655
In13 Ni9 2.885084 1_545
In13 Pr3 3.340179 1_655
In13 Pr3 3.340179 1_545
In13 In5 3.343903 1_555
In13 Pr9 3.387839 1_655
In13 Pr9 3.387839 1_545
In13 Pr7 3.500345 1_545
In13 Pr7 3.500345 1_655
In14 Ni6 2.671060 1_555
In14 Ni4 2.671060 1_555
In14 In8 3.228329 1_655
In14 In6 3.228329 1_655
In14 In8 3.228329 1_545
In14 In6 3.228329 1_545
In14 Pr8 3.393474 1_655
In14 Pr8 3.393474 1_545
In14 Pr6 3.468616 1_555
In14 Pr4 3.468616 1_555
In15 Ni5 2.671060 1_555
In15 Ni7 2.671060 1_555
In15 In7 3.228329 1_565
In15 In7 3.228329 1_455
In15 In9 3.228329 1_565
In15 In9 3.228329 1_455
In15 Pr9 3.393474 1_565
In15 Pr9 3.393474 1_455
In15 Pr5 3.468616 1_555
In15 Pr7 3.468616 1_555
In16 Ni4 2.703120 1_555
In16 Ni1 2.760247 1_545
In16 Ni1 2.760247 1_655
In16 In3 2.987460 1_554
In16 In17 3.142544 1_644
In16 In6 3.176449 1_655
In16 In6 3.176449 1_545
In16 Pr0 3.370903 1_655
In16 Pr0 3.370903 1_545
In16 Pr1 3.502678 1_654
In16 Pr1 3.502678 1_544
In16 Pr4 3.529950 1_555
In17 Ni5 2.703120 1_555
In17 Ni0 2.760247 1_455
In17 Ni0 2.760247 1_565
In17 In2 2.987460 1_556
In17 In7 3.176449 1_565
In17 In7 3.176449 1_455
In17 Pr1 3.370903 1_565
In17 Pr1 3.370903 1_455
In17 Pr0 3.502678 1_566
In17 Pr0 3.502678 1_456
In17 Pr5 3.529950 1_555
In18 Ni6 2.703120 1_555
In18 Ni3 2.760247 1_545
In18 Ni3 2.760247 1_655
In18 In5 2.987460 1_555
In18 In19 3.142544 1_645
In18 In8 3.176449 1_655
In18 In8 3.176449 1_545
In18 Pr2 3.370903 1_655
In18 Pr2 3.370903 1_545
In18 Pr3 3.502678 1_655
In18 Pr3 3.502678 1_545
In18 Pr6 3.529950 1_555
In19 Ni7 2.703120 1_555
In19 Ni2 2.760247 1_455
In19 Ni2 2.760247 1_565
In19 In4 2.987460 1_555
In19 In9 3.176449 1_565
In19 In9 3.176449 1_455
In19 Pr3 3.370903 1_565
In19 Pr3 3.370903 1_455
In19 Pr2 3.502678 1_565
In19 Pr2 3.502678 1_455
In19 Pr7 3.529950 1_555
Ni0 Pr0 3.014757 1_556
Ni0 Pr5 3.353081 1_655
Ni0 Pr5 3.353081 1_545
Ni1 Pr1 3.014757 1_554
Ni1 Pr4 3.353081 1_565
Ni1 Pr4 3.353081 1_455
Ni2 Pr2 3.014757 1_555
Ni2 Pr7 3.353081 1_655
Ni2 Pr7 3.353081 1_545
Ni3 Pr3 3.014757 1_555
Ni3 Pr6 3.353081 1_565
Ni3 Pr6 3.353081 1_455
Ni4 Pr8 3.116489 1_655
Ni4 Pr8 3.116489 1_545
Ni4 Pr0 3.140662 1_655
Ni4 Pr0 3.140662 1_545
Ni5 Pr9 3.116489 1_565
Ni5 Pr9 3.116489 1_455
Ni5 Pr1 3.140662 1_565
Ni5 Pr1 3.140662 1_455
Ni6 Pr8 3.116489 1_655
Ni6 Pr8 3.116489 1_545
Ni6 Pr2 3.140662 1_655
Ni6 Pr2 3.140662 1_545
Ni7 Pr9 3.116489 1_565
Ni7 Pr9 3.116489 1_455
Ni7 Pr3 3.140662 1_565
Ni7 Pr3 3.140662 1_455
Ni8 Pr8 2.825092 1_555
Ni8 Pr6 3.138485 1_555
Ni8 Pr4 3.138485 1_555
Ni9 Pr9 2.825092 1_555
Ni9 Pr5 3.138485 1_555
Ni9 Pr7 3.138485 1_555
