# generated using pymatgen
data_CoO2
_symmetry_space_group_name_H-M   'P 1'
_cell_length_a   10.38441456
_cell_length_b   10.71109132
_cell_length_c   10.64408271
_cell_angle_alpha   86.85424010
_cell_angle_beta   88.80934639
_cell_angle_gamma   89.37578931
_symmetry_Int_Tables_number   1
_chemical_formula_structural   CoO2
_chemical_formula_sum   'Co30 O60'
_cell_volume   1181.82878191
_cell_formula_units_Z   30
loop_
 _symmetry_equiv_pos_site_id
 _symmetry_equiv_pos_as_xyz
  1  'x, y, z'
loop_
 _atom_site_type_symbol
 _atom_site_label
 _atom_site_symmetry_multiplicity
 _atom_site_fract_x
 _atom_site_fract_y
 _atom_site_fract_z
 _atom_site_occupancy
  Co  Co0  1  0.37833649  0.18930664  0.70161150  1
  Co  Co1  1  0.59981183  0.24925449  0.53240702  1
  Co  Co2  1  0.97382054  0.60576164  0.37093859  1
  Co  Co3  1  0.51662242  0.98828796  0.46687629  1
  Co  Co4  1  0.57484068  0.62214806  0.15173408  1
  Co  Co5  1  0.43220149  0.18687879  0.05840281  1
  Co  Co6  1  0.85901880  0.08703685  0.80748902  1
  Co  Co7  1  0.79135323  0.09661307  0.32678703  1
  Co  Co8  1  0.93566637  0.45733178  0.90461178  1
  Co  Co9  1  0.28441394  0.68955445  0.33191027  1
  Co  Co10  1  0.03634030  0.06835768  0.52690864  1
  Co  Co11  1  0.91683946  0.53727994  0.64702792  1
  Co  Co12  1  0.78789673  0.23258363  0.07736825  1
  Co  Co13  1  0.17373901  0.40238902  0.77580805  1
  Co  Co14  1  0.15091109  0.17851374  0.95226784  1
  Co  Co15  1  0.20211971  0.92558946  0.78269380  1
  Co  Co16  1  0.62702889  0.71989116  0.63947387  1
  Co  Co17  1  0.31666122  0.98188089  0.18928282  1
  Co  Co18  1  0.55942116  0.37562339  0.25270309  1
  Co  Co19  1  0.84609450  0.28940647  0.61977171  1
  Co  Co20  1  0.63927974  0.31419175  0.81565467  1
  Co  Co21  1  0.28689513  0.71028735  0.03771134  1
  Co  Co22  1  0.44694488  0.48850852  0.95735065  1
  Co  Co23  1  0.40325109  0.49641971  0.65727694  1
  Co  Co24  1  0.36489355  0.20495461  0.38363893  1
  Co  Co25  1  0.94859385  0.71316545  0.04737079  1
  Co  Co26  1  0.04112834  0.30988048  0.40520170  1
  Co  Co27  1  0.78857248  0.82167742  0.21863456  1
  Co  Co28  1  0.81838189  0.45977096  0.21612287  1
  Co  Co29  1  0.43846659  0.94994776  0.90953127  1
  O  O0  1  0.81110851  0.72218773  0.69654759  1
  O  O1  1  0.10651959  0.96820344  0.65720534  1
  O  O2  1  0.46455180  0.66388945  0.02345694  1
  O  O3  1  0.62109317  0.76101291  0.21102497  1
  O  O4  1  0.94046951  0.16011757  0.40082193  1
  O  O5  1  0.65670485  0.10969951  0.43314854  1
  O  O6  1  0.75974218  0.20229080  0.91667620  1
  O  O7  1  0.44914712  0.13801497  0.55317334  1
  O  O8  1  0.57315109  0.55447045  0.71085271  1
  O  O9  1  0.00199059  0.07760278  0.92697932  1
  O  O10  1  0.81267058  0.92072729  0.33854263  1
  O  O11  1  0.25116107  0.14299686  0.08748062  1
  O  O12  1  0.12939648  0.99195087  0.28772971  1
  O  O13  1  0.39406394  0.02903804  0.34691547  1
  O  O14  1  0.36245252  0.02827214  0.76977678  1
  O  O15  1  0.80198217  0.92926138  0.73092674  1
  O  O16  1  0.85834795  0.60861693  0.50082572  1
  O  O17  1  0.56098599  0.46425423  0.09506963  1
  O  O18  1  0.33587524  0.50226285  0.82976413  1
  O  O19  1  0.24908380  0.24474733  0.80306908  1
  O  O20  1  0.43783047  0.26141556  0.21549905  1
  O  O21  1  0.88316967  0.65536435  0.21726270  1
  O  O22  1  0.60095230  0.87373090  0.88071583  1
  O  O23  1  0.98000951  0.38104289  0.55694452  1
  O  O24  1  0.07231892  0.34366664  0.91096704  1
  O  O25  1  0.46646064  0.01840988  0.06514294  1
  O  O26  1  0.30525047  0.79575254  0.19803218  1
  O  O27  1  0.25396574  0.43743595  0.61818062  1
  O  O28  1  0.86129651  0.81964402  0.76257519  1
  O  O29  1  0.49976274  0.33262405  0.41520957  1
  O  O30  1  0.10840567  0.99002391  0.93123810  1
  O  O31  1  0.24803335  0.69270264  0.66915404  1
  O  O32  1  0.29630897  0.83771502  0.91108777  1
  O  O33  1  0.48918078  0.32762764  0.67959534  1
  O  O34  1  0.35154507  0.53165476  0.28105650  1
  O  O35  1  0.73599503  0.28993630  0.23321586  1
  O  O36  1  0.29727384  0.79891056  0.66426707  1
  O  O37  1  0.79878211  0.08855358  0.15053163  1
  O  O38  1  0.85292156  0.39179011  0.05235950  1
  O  O39  1  0.97560679  0.43868068  0.30085150  1
  O  O40  1  0.69985256  0.20080295  0.68467443  1
  O  O41  1  0.48020059  0.63359558  0.52447827  1
  O  O42  1  0.11453118  0.95419858  0.40297007  1
  O  O43  1  0.13018575  0.66143860  0.40184239  1
  O  O44  1  0.27612917  0.51164493  0.08120206  1
  O  O45  1  0.57935548  0.87309325  0.56806735  1
  O  O46  1  0.73229252  0.35055768  0.50077239  1
  O  O47  1  0.19555465  0.22842427  0.42491176  1
  O  O48  1  0.81985357  0.40789375  0.75232569  1
  O  O49  1  0.58891107  0.76917845  0.83100867  1
  O  O50  1  0.04424257  0.52947903  0.76585663  1
  O  O51  1  0.60206317  0.50413600  0.83111778  1
  O  O52  1  0.49910094  0.30124190  0.94097964  1
  O  O53  1  0.26691040  0.47092476  0.20457487  1
  O  O54  1  0.11515304  0.70024283  0.03574814  1
  O  O55  1  0.41027424  0.71502221  0.45555710  1
  O  O56  1  0.66078254  0.52258615  0.27910969  1
  O  O57  1  0.87839068  0.60906101  0.94637834  1
  O  O58  1  0.85677984  0.85219022  0.05657649  1
  O  O59  1  0.95030231  0.15806323  0.65939781  1
loop_
_geom_bond_atom_site_label_1
_geom_bond_atom_site_label_2
_geom_bond_distance
_geom_bond_site_symmetry_2
Co0 O19 1.820215 1_555
Co0 O7 1.837683 1_555
Co0 O14 1.841911 1_555
Co0 O33 1.887519 1_555
Co1 O46 1.776675 1_555
Co1 O29 1.828763 1_555
Co1 O5 1.956477 1_555
Co1 O7 1.978314 1_555
Co1 O40 1.985271 1_555
Co1 O33 2.127806 1_555
Co2 O43 1.779122 1_655
Co2 O16 1.812497 1_555
Co2 O21 1.949817 1_555
Co2 O39 1.976069 1_555
Co3 O45 1.724151 1_555
Co3 O13 1.853360 1_565
Co3 O5 1.975957 1_565
Co3 O7 2.004279 1_565
Co4 O3 1.724095 1_555
Co4 O2 1.833767 1_555
Co4 O17 1.834543 1_555
Co4 O56 1.908604 1_555
Co5 O52 1.832952 1_554
Co5 O25 1.833234 1_555
Co5 O20 1.894328 1_555
Co5 O11 1.957094 1_555
Co6 O59 1.945261 1_555
Co6 O9 1.973125 1_655
Co6 O6 2.004355 1_555
Co6 O15 2.015905 1_545
Co6 O40 2.407649 1_555
Co7 O5 1.789914 1_555
Co7 O37 1.882733 1_555
Co7 O10 1.892099 1_545
Co7 O4 1.901045 1_555
Co7 O35 2.319862 1_555
Co8 O57 1.799964 1_555
Co8 O24 1.859531 1_655
Co8 O38 1.881533 1_556
Co8 O50 1.968312 1_655
Co8 O48 2.131509 1_555
Co9 O43 1.773741 1_555
Co9 O26 1.784942 1_555
Co9 O55 1.906153 1_555
Co9 O34 1.923147 1_555
Co10 O1 1.862005 1_545
Co10 O4 1.909907 1_455
Co10 O59 1.946244 1_455
Co10 O42 2.001416 1_545
Co10 O47 2.575766 1_555
Co11 O16 1.809190 1_555
Co11 O50 1.847333 1_655
Co11 O48 2.001044 1_555
Co11 O23 2.067914 1_555
Co11 O0 2.334332 1_555
Co12 O37 1.693288 1_555
Co12 O6 1.788869 1_554
Co12 O38 1.844608 1_555
Co12 O35 1.867388 1_555
Co13 O24 1.851127 1_555
Co13 O19 1.863954 1_555
Co13 O27 1.878722 1_555
Co13 O50 1.903373 1_555
Co13 O18 2.110897 1_555
Co14 O11 1.814765 1_556
Co14 O9 1.928184 1_555
Co14 O24 1.971467 1_555
Co14 O19 1.972167 1_555
Co14 O30 2.096221 1_545
Co15 O1 1.719400 1_555
Co15 O32 1.898580 1_555
Co15 O30 1.991104 1_555
Co15 O14 2.003609 1_565
Co15 O36 2.124427 1_555
Co16 O45 1.837546 1_555
Co16 O8 1.971258 1_555
Co16 O0 2.018574 1_555
Co16 O49 2.161426 1_555
Co16 O41 2.215813 1_555
Co17 O13 1.968324 1_565
Co17 O26 1.995399 1_555
Co17 O25 2.046947 1_565
Co17 O11 2.101136 1_565
Co17 O12 2.194182 1_555
Co18 O20 1.831704 1_555
Co18 O29 1.860685 1_555
Co18 O17 1.881783 1_555
Co18 O56 1.939529 1_555
Co18 O35 2.053279 1_555
Co19 O59 1.802433 1_555
Co19 O23 1.806517 1_555
Co19 O46 1.839634 1_555
Co19 O40 1.897374 1_555
Co19 O48 1.961794 1_555
Co20 O52 1.954762 1_555
Co20 O40 1.986744 1_555
Co20 O6 2.009836 1_555
Co20 O51 2.081504 1_555
Co20 O33 2.147938 1_555
Co20 O48 2.211814 1_555
Co21 O54 1.788477 1_555
Co21 O32 1.866696 1_554
Co21 O2 1.910544 1_555
Co21 O26 1.993775 1_555
Co21 O44 2.156092 1_555
Co22 O18 1.798814 1_555
Co22 O17 1.908514 1_556
Co22 O2 2.053116 1_556
Co22 O51 2.078300 1_555
Co22 O52 2.087541 1_555
Co22 O44 2.207901 1_556
Co23 O27 1.747162 1_555
Co23 O18 1.955119 1_555
Co23 O8 1.982234 1_555
Co23 O33 2.011934 1_555
Co23 O41 2.132161 1_555
Co23 O31 2.642158 1_555
Co24 O47 1.821769 1_555
Co24 O13 1.964297 1_555
Co24 O20 1.994308 1_555
Co24 O29 2.013989 1_555
Co24 O7 2.108525 1_555
Co25 O54 1.736035 1_655
Co25 O57 1.764159 1_554
Co25 O58 1.765581 1_555
Co25 O21 1.987514 1_555
Co26 O47 1.827641 1_555
Co26 O39 1.855445 1_455
Co26 O23 1.916909 1_455
Co26 O4 1.927374 1_455
Co27 O10 1.727670 1_555
Co27 O58 1.864504 1_555
Co27 O3 1.868090 1_555
Co27 O21 2.025511 1_555
Co28 O56 1.886921 1_555
Co28 O39 1.887021 1_555
Co28 O38 1.950619 1_555
Co28 O35 2.016270 1_555
Co28 O21 2.208105 1_555
Co29 O14 1.853953 1_565
Co29 O25 1.877146 1_566
Co29 O22 1.893022 1_555
Co29 O32 1.913140 1_555
O0 O28 1.400999 1_555
O12 O42 1.277111 1_555
O15 O28 1.349402 1_555
O22 O49 1.272992 1_555
O30 O9 1.441528 1_565
O31 O36 1.250353 1_555
O34 O53 1.399498 1_555
O41 O55 1.328252 1_555
O44 O53 1.362604 1_555
O51 O8 1.398640 1_555
