# generated using pymatgen
data_K6Pd3(BrCl2)4
_symmetry_space_group_name_H-M   'P 1'
_cell_length_a   16.48574399
_cell_length_b   16.48574399
_cell_length_c   4.27349600
_cell_angle_alpha   90.00000000
_cell_angle_beta   90.00000000
_cell_angle_gamma   143.95260788
_symmetry_Int_Tables_number   1
_chemical_formula_structural   K6Pd3(BrCl2)4
_chemical_formula_sum   'K6 Pd3 Br4 Cl8'
_cell_volume   683.45998402
_cell_formula_units_Z   1
loop_
 _symmetry_equiv_pos_site_id
 _symmetry_equiv_pos_as_xyz
  1  'x, y, z'
loop_
 _atom_site_type_symbol
 _atom_site_label
 _atom_site_symmetry_multiplicity
 _atom_site_fract_x
 _atom_site_fract_y
 _atom_site_fract_z
 _atom_site_occupancy
  K  K0  1  0.33596400  0.16372300  0.50000000  1
  K  K1  1  0.66633900  0.83296300  0.50000000  1
  K  K2  1  0.00268500  0.49626400  0.50000000  1
  K  K3  1  0.16372300  0.33596400  0.50000000  1
  K  K4  1  0.49626400  0.00268500  0.50000000  1
  K  K5  1  0.83296300  0.66633900  0.50000000  1
  Pd  Pd0  1  0.00051700  0.00051700  0.00000000  1
  Pd  Pd1  1  0.33063500  0.66453300  0.00000000  1
  Pd  Pd2  1  0.66453300  0.33063500  0.00000000  1
  Br  Br0  1  0.24301300  0.24301300  0.00000000  1
  Br  Br1  1  0.57262800  0.90694500  0.00000000  1
  Br  Br2  1  0.90694500  0.57262800  0.00000000  1
  Br  Br3  1  0.75705500  0.75705500  0.00000000  1
  Cl  Cl0  1  0.10008000  0.43372400  0.00000000  1
  Cl  Cl1  1  0.43372400  0.10008000  0.00000000  1
  Cl  Cl2  1  0.59028000  0.40526900  0.00000000  1
  Cl  Cl3  1  0.92599900  0.07522000  0.00000000  1
  Cl  Cl4  1  0.25661600  0.73954500  0.00000000  1
  Cl  Cl5  1  0.40526900  0.59028000  0.00000000  1
  Cl  Cl6  1  0.73954500  0.25661600  0.00000000  1
  Cl  Cl7  1  0.07522000  0.92599900  0.00000000  1
loop_
_geom_bond_atom_site_label_1
_geom_bond_atom_site_label_2
_geom_bond_distance
_geom_bond_site_symmetry_2
Br0 Pd0 2.473876 1_555
Br0 K3 3.444057 1_555
Br0 K0 3.444057 1_555
Br0 K3 3.444057 1_554
Br0 K0 3.444057 1_554
Br1 Pd1 2.470890 1_555
Br1 K1 3.389226 1_555
Br1 K1 3.389226 1_554
Br1 K4 3.443087 1_565
Br1 K4 3.443087 1_564
Br2 Pd2 2.470890 1_555
Br2 K5 3.389226 1_555
Br2 K5 3.389226 1_554
Br2 K2 3.443087 1_655
Br2 K2 3.443087 1_654
Br3 Pd0 2.483731 1_665
Br3 K5 3.375588 1_555
Br3 K1 3.375588 1_555
Br3 K1 3.375588 1_554
Br3 K5 3.375588 1_554
Cl0 Pd1 2.353356 1_555
Cl0 K2 3.299041 1_554
Cl0 K2 3.299041 1_555
Cl0 K3 3.316365 1_555
Cl0 K3 3.316365 1_554
Cl1 Pd2 2.353356 1_555
Cl1 K4 3.299041 1_555
Cl1 K4 3.299041 1_554
Cl1 K0 3.316365 1_554
Cl1 K0 3.316365 1_555
Cl2 Pd2 2.334067 1_555
Cl2 K0 3.317113 1_554
Cl2 K0 3.317113 1_555
Cl2 K5 3.354323 1_554
Cl2 K5 3.354323 1_555
Cl3 Pd0 2.339303 1_655
Cl3 K3 3.340781 1_654
Cl3 K3 3.340781 1_655
Cl3 K1 3.345861 1_544
Cl3 K1 3.345861 1_545
Cl4 Pd1 2.336330 1_555
Cl4 K2 3.320530 1_554
Cl4 K2 3.320530 1_555
Cl4 K4 3.358386 1_565
Cl4 K4 3.358386 1_564
Cl5 Pd1 2.334067 1_555
Cl5 K3 3.317113 1_555
Cl5 K3 3.317113 1_554
Cl5 K1 3.354323 1_555
Cl5 K1 3.354323 1_554
Cl6 Pd2 2.336330 1_555
Cl6 K4 3.320530 1_555
Cl6 K4 3.320530 1_554
Cl6 K2 3.358386 1_655
Cl6 K2 3.358386 1_654
Cl7 Pd0 2.339303 1_565
Cl7 K0 3.340781 1_564
Cl7 K0 3.340781 1_565
Cl7 K5 3.345861 1_454
Cl7 K5 3.345861 1_455
