# generated using pymatgen
data_Li(SiO2)6
_symmetry_space_group_name_H-M   'P 1'
_cell_length_a   5.26088796
_cell_length_b   7.48450629
_cell_length_c   7.61828031
_cell_angle_alpha   72.41560634
_cell_angle_beta   70.43633151
_cell_angle_gamma   70.83201734
_symmetry_Int_Tables_number   1
_chemical_formula_structural   Li(SiO2)6
_chemical_formula_sum   'Li1 Si6 O12'
_cell_volume   260.68613885
_cell_formula_units_Z   1
loop_
 _symmetry_equiv_pos_site_id
 _symmetry_equiv_pos_as_xyz
  1  'x, y, z'
loop_
 _atom_site_type_symbol
 _atom_site_label
 _atom_site_symmetry_multiplicity
 _atom_site_fract_x
 _atom_site_fract_y
 _atom_site_fract_z
 _atom_site_occupancy
  Li  Li0  1  0.60070800  0.22670900  0.63658200  1
  Si  Si0  1  0.36659900  0.35360400  0.33598900  1
  Si  Si1  1  0.01260300  0.18948600  0.18298800  1
  Si  Si2  1  0.65293000  0.63557400  0.65767200  1
  Si  Si3  1  0.99175900  0.81334600  0.81505600  1
  Si  Si4  1  0.02626800  0.22263100  0.76792100  1
  Si  Si5  1  0.00718000  0.75587600  0.23528600  1
  O  O0  1  0.72893700  0.39819100  0.71808400  1
  O  O1  1  0.90437500  0.04967800  0.73027600  1
  O  O2  1  0.29490200  0.58306300  0.23871700  1
  O  O3  1  0.07480600  0.95510900  0.22790700  1
  O  O4  1  0.24794800  0.32026800  0.56823000  1
  O  O5  1  0.00518900  0.29628200  0.96486900  1
  O  O6  1  0.31619400  0.71563200  0.72142800  1
  O  O7  1  0.79568300  0.72450000  0.75821300  1
  O  O8  1  0.70199400  0.27021600  0.32180700  1
  O  O9  1  0.24932700  0.23624000  0.24489800  1
  O  O10  1  0.91348900  0.77118200  0.04743500  1
  O  O11  1  0.75910800  0.70562600  0.42485500  1
loop_
_geom_bond_atom_site_label_1
_geom_bond_atom_site_label_2
_geom_bond_distance
_geom_bond_site_symmetry_2
Li0 O1 1.902496 1_555
Li0 O4 1.943991 1_555
Li0 O0 1.954087 1_555
Li0 O8 2.219673 1_555
O0 Si2 1.640427 1_555
O0 Si4 1.750453 1_655
O1 Si3 1.652824 1_545
O1 Si4 1.749771 1_655
O2 Si0 1.622862 1_555
O2 Si5 1.638670 1_555
O3 Si1 1.623797 1_565
O3 Si5 1.624078 1_555
O4 Si0 1.636506 1_555
O4 Si4 1.705349 1_555
O5 Si1 1.619272 1_556
O5 Si4 1.707498 1_555
O6 Si2 1.623518 1_555
O6 Si3 1.623887 1_455
O7 Si2 1.617150 1_555
O7 Si3 1.617828 1_555
O8 Si0 1.644531 1_555
O8 Si1 1.653517 1_655
O9 Si0 1.626267 1_555
O9 Si1 1.635587 1_555
O10 Si5 1.624927 1_655
O10 Si3 1.631802 1_554
O11 Si5 1.631639 1_655
O11 Si2 1.643084 1_555
