# generated using pymatgen
data_LiCrPO4
_symmetry_space_group_name_H-M   'P 1'
_cell_length_a   5.99378600
_cell_length_b   6.50310503
_cell_length_c   9.71504431
_cell_angle_alpha   109.54515095
_cell_angle_beta   92.77376178
_cell_angle_gamma   98.83385395
_symmetry_Int_Tables_number   1
_chemical_formula_structural   LiCrPO4
_chemical_formula_sum   'Li4 Cr4 P4 O16'
_cell_volume   350.59236272
_cell_formula_units_Z   4
loop_
 _symmetry_equiv_pos_site_id
 _symmetry_equiv_pos_as_xyz
  1  'x, y, z'
loop_
 _atom_site_type_symbol
 _atom_site_label
 _atom_site_symmetry_multiplicity
 _atom_site_fract_x
 _atom_site_fract_y
 _atom_site_fract_z
 _atom_site_occupancy
  Li  Li0  1  0.41814600  0.36070400  0.67557500  1
  Li  Li1  1  0.41002000  0.83243500  0.70551500  1
  Li  Li2  1  0.58185400  0.63929600  0.32442500  1
  Li  Li3  1  0.58998000  0.16756500  0.29448500  1
  Cr  Cr0  1  0.79378800  0.36198700  0.92750400  1
  Cr  Cr1  1  0.01493600  0.90081300  0.27617300  1
  Cr  Cr2  1  0.20621200  0.63801300  0.07249600  1
  Cr  Cr3  1  0.98506400  0.09918700  0.72382700  1
  P  P0  1  0.70823400  0.81630700  0.98627200  1
  P  P1  1  0.29176600  0.18369300  0.01372800  1
  P  P2  1  0.84550300  0.72678400  0.61098800  1
  P  P3  1  0.15449700  0.27321600  0.38901200  1
  O  O0  1  0.09617600  0.74137300  0.66964700  1
  O  O1  1  0.20686700  0.94116600  0.10494400  1
  O  O2  1  0.73040200  0.79347800  0.15163100  1
  O  O3  1  0.28615000  0.49979600  0.30800200  1
  O  O4  1  0.86495600  0.66434400  0.96163400  1
  O  O5  1  0.13504400  0.33565600  0.03836600  1
  O  O6  1  0.19073500  0.24783200  0.55661600  1
  O  O7  1  0.26959800  0.20652200  0.84836900  1
  O  O8  1  0.71385000  0.50020400  0.69199800  1
  O  O9  1  0.79313300  0.05883400  0.89505600  1
  O  O10  1  0.53672800  0.24098900  0.07399000  1
  O  O11  1  0.46327200  0.75901100  0.92601000  1
  O  O12  1  0.80926500  0.75216800  0.44338400  1
  O  O13  1  0.27123200  0.08803600  0.36511900  1
  O  O14  1  0.72876800  0.91196400  0.63488100  1
  O  O15  1  0.90382400  0.25862700  0.33035300  1
loop_
_geom_bond_atom_site_label_1
_geom_bond_atom_site_label_2
_geom_bond_distance
_geom_bond_site_symmetry_2
Li0 O6 1.644678 1_555
Li0 O8 1.836228 1_555
Li0 O7 2.369133 1_555
Li1 O0 1.861999 1_555
Li1 O14 2.109330 1_555
Li1 O11 2.362953 1_555
Li2 O12 1.644678 1_555
Li2 O3 1.836228 1_555
Li2 O2 2.369133 1_555
Li3 O15 1.861999 1_555
Li3 O13 2.109330 1_555
Li3 O10 2.362953 1_555
Cr0 O4 1.857566 1_555
Cr0 O9 1.888817 1_555
Cr0 O5 2.321808 1_656
Cr0 O10 2.368011 1_556
Cr1 O13 1.783830 1_565
Cr1 O2 1.931125 1_455
Cr1 O1 2.131683 1_555
Cr1 O15 2.413596 1_465
Cr1 O12 2.443658 1_455
Cr2 O5 1.857566 1_555
Cr2 O1 1.888817 1_555
Cr2 O4 2.321808 1_454
Cr2 O11 2.368011 1_554
Cr3 O14 1.783830 1_545
Cr3 O7 1.931125 1_655
Cr3 O9 2.131683 1_555
Cr3 O0 2.413596 1_645
Cr3 O6 2.443658 1_655
O0 P2 1.558326 1_455
O1 P1 2.064954 1_565
O2 P0 1.662954 1_554
O3 P3 1.972842 1_555
O4 P0 1.436975 1_555
O5 P1 1.436975 1_555
O6 P3 1.697749 1_555
O7 P1 1.662954 1_556
O8 P2 1.972842 1_555
O9 P0 2.064954 1_545
O10 P1 1.496716 1_555
O11 P0 1.496716 1_555
O12 P2 1.697749 1_555
O13 P3 1.442610 1_555
O14 P2 1.442610 1_555
O15 P3 1.558326 1_655
