# generated using pymatgen
data_Li2CuAuF6
_symmetry_space_group_name_H-M   'P 1'
_cell_length_a   5.94413335
_cell_length_b   5.94413335
_cell_length_c   5.94413335
_cell_angle_alpha   60.00000000
_cell_angle_beta   60.00000000
_cell_angle_gamma   60.00000000
_symmetry_Int_Tables_number   1
_chemical_formula_structural   Li2CuAuF6
_chemical_formula_sum   'Li2 Cu1 Au1 F6'
_cell_volume   148.50826813
_cell_formula_units_Z   1
loop_
 _symmetry_equiv_pos_site_id
 _symmetry_equiv_pos_as_xyz
  1  'x, y, z'
loop_
 _atom_site_type_symbol
 _atom_site_label
 _atom_site_symmetry_multiplicity
 _atom_site_fract_x
 _atom_site_fract_y
 _atom_site_fract_z
 _atom_site_occupancy
  Li  Li0  1  0.75000000  0.75000000  0.75000000  1
  Li  Li1  1  0.25000000  0.25000000  0.25000000  1
  Cu  Cu0  1  0.50000000  0.50000000  0.50000000  1
  Au  Au0  1  0.00000000  0.00000000  0.00000000  1
  F  F0  1  0.73502700  0.26497300  0.26497300  1
  F  F1  1  0.26497300  0.26497300  0.73502700  1
  F  F2  1  0.26497300  0.73502700  0.73502700  1
  F  F3  1  0.26497300  0.73502700  0.26497300  1
  F  F4  1  0.73502700  0.26497300  0.73502700  1
  F  F5  1  0.73502700  0.73502700  0.26497300  1
loop_
_geom_bond_atom_site_label_1
_geom_bond_atom_site_label_2
_geom_bond_distance
_geom_bond_site_symmetry_2
Cu0 F1 1.975701 1_555
Cu0 F4 1.975701 1_555
Cu0 F2 1.975701 1_555
Cu0 F5 1.975701 1_555
Cu0 F3 1.975701 1_555
Cu0 F0 1.975701 1_555
Au0 F4 2.227436 1_454
Au0 F3 2.227436 1_545
Au0 F1 2.227436 1_554
Au0 F2 2.227436 1_544
Au0 F0 2.227436 1_455
Au0 F5 2.227436 1_445
