# generated using pymatgen
data_Li4V3P8O29
_symmetry_space_group_name_H-M   'P 1'
_cell_length_a   9.75016900
_cell_length_b   9.77909370
_cell_length_c   14.24001711
_cell_angle_alpha   90.70851292
_cell_angle_beta   90.17894075
_cell_angle_gamma   119.67786676
_symmetry_Int_Tables_number   1
_chemical_formula_structural   Li4V3P8O29
_chemical_formula_sum   'Li8 V6 P16 O58'
_cell_volume   1179.49116466
_cell_formula_units_Z   2
loop_
 _symmetry_equiv_pos_site_id
 _symmetry_equiv_pos_as_xyz
  1  'x, y, z'
loop_
 _atom_site_type_symbol
 _atom_site_label
 _atom_site_symmetry_multiplicity
 _atom_site_fract_x
 _atom_site_fract_y
 _atom_site_fract_z
 _atom_site_occupancy
  Li  Li0  1  0.77664700  0.08251100  0.44230100  1
  Li  Li1  1  0.67210300  0.32688700  0.10438400  1
  Li  Li2  1  0.76756200  0.68207500  0.93424300  1
  Li  Li3  1  0.08910100  0.31801500  0.56518200  1
  Li  Li4  1  0.91113600  0.68251800  0.43952100  1
  Li  Li5  1  0.23213000  0.32894100  0.05930900  1
  Li  Li6  1  0.22296700  0.91605900  0.56178700  1
  Li  Li7  1  0.00239300  0.99952300  0.99407600  1
  V  V0  1  0.99651600  0.43228400  0.75530600  1
  V  V1  1  0.00336600  0.57100000  0.24691900  1
  V  V2  1  0.42965600  0.42977800  0.25624400  1
  V  V3  1  0.56422700  0.56725000  0.74499100  1
  V  V4  1  0.43955400  0.00500500  0.76031000  1
  V  V5  1  0.56271100  0.99272700  0.24311700  1
  P  P0  1  0.30236400  0.08402800  0.16142700  1
  P  P1  1  0.31245800  0.22275900  0.66451900  1
  P  P2  1  0.76739900  0.08716900  0.65703200  1
  P  P3  1  0.66737700  0.33937600  0.87041300  1
  P  P4  1  0.67015400  0.33217100  0.36809500  1
  P  P5  1  0.91157100  0.21846000  0.16132400  1
  P  P6  1  0.08490900  0.32008800  0.34376600  1
  P  P7  1  0.76652300  0.67693100  0.15313900  1
  P  P8  1  0.23280900  0.31939700  0.84480600  1
  P  P9  1  0.91160000  0.67846600  0.65767500  1
  P  P10  1  0.08469000  0.78207000  0.83923400  1
  P  P11  1  0.32890100  0.66837700  0.63268700  1
  P  P12  1  0.33242400  0.65998500  0.13013100  1
  P  P13  1  0.23300100  0.91576300  0.34383500  1
  P  P14  1  0.69011700  0.77534100  0.33461500  1
  P  P15  1  0.70176600  0.91886300  0.83872500  1
  O  O0  1  0.24790100  0.99025700  0.43700200  1
  O  O1  1  0.34001300  0.07980300  0.66411400  1
  O  O2  1  0.22519400  0.24520000  0.93666100  1
  O  O3  1  0.34111400  0.26059500  0.16477400  1
  O  O4  1  0.46750800  0.09082600  0.16792900  1
  O  O5  1  0.51272100  0.19045400  0.82857800  1
  O  O6  1  0.61742600  0.09672900  0.68417300  1
  O  O7  1  0.80554800  0.99839100  0.92084700  1
  O  O8  1  0.73834400  0.07812100  0.16326900  1
  O  O9  1  0.52185700  0.33813300  0.32254200  1
  O  O10  1  0.47510900  0.37770900  0.67856700  1
  O  O11  1  0.66474300  0.18280200  0.32046400  1
  O  O12  1  0.66071400  0.34086700  0.97553000  1
  O  O13  1  0.66184100  0.32331600  0.47188500  1
  O  O14  1  0.80679100  0.32696900  0.82979900  1
  O  O15  1  0.61734200  0.51511700  0.17115500  1
  O  O16  1  0.67123800  0.49101600  0.83146500  1
  O  O17  1  0.91555300  0.25263400  0.66374400  1
  O  O18  1  0.98403100  0.20015400  0.26048500  1
  O  O19  1  0.00634200  0.25050500  0.43461700  1
  O  O20  1  0.00632000  0.20400000  0.08419100  1
  O  O21  1  0.89842200  0.36958800  0.16664300  1
  O  O22  1  0.81699300  0.48378100  0.33201000  1
  O  O23  1  0.09295300  0.35002200  0.83040900  1
  O  O24  1  0.90241000  0.51990900  0.67779700  1
  O  O25  1  0.74241400  0.65493200  0.66624200  1
  O  O26  1  0.21641900  0.20100100  0.76072600  1
  O  O27  1  0.22197100  0.22760400  0.58209200  1
  O  O28  1  0.78097200  0.77318600  0.41715500  1
  O  O29  1  0.25363500  0.34083300  0.33498900  1
  O  O30  1  0.09508000  0.47849300  0.32187200  1
  O  O31  1  0.90986300  0.64984900  0.16688200  1
  O  O32  1  0.18132500  0.51767900  0.66803100  1
  O  O33  1  0.07877400  0.62327900  0.83504300  1
  O  O34  1  0.99677300  0.80843100  0.91655500  1
  O  O35  1  0.99149500  0.74912400  0.56686300  1
  O  O36  1  0.01156500  0.80102700  0.74008400  1
  O  O37  1  0.08369000  0.75062400  0.33549200  1
  O  O38  1  0.33258200  0.51191700  0.17508200  1
  O  O39  1  0.38796000  0.47461000  0.82619600  1
  O  O40  1  0.19225400  0.66959800  0.17230900  1
  O  O41  1  0.34151700  0.65188700  0.02664300  1
  O  O42  1  0.33806500  0.67759300  0.52866900  1
  O  O43  1  0.33694400  0.81824300  0.68026200  1
  O  O44  1  0.52766500  0.62111600  0.32052600  1
  O  O45  1  0.47680900  0.66008600  0.67746700  1
  O  O46  1  0.25994600  0.91803900  0.83488500  1
  O  O47  1  0.21646100  0.01725700  0.26070100  1
  O  O48  1  0.19901500  0.00044200  0.08024000  1
  O  O49  1  0.38253400  0.90557700  0.31535800  1
  O  O50  1  0.48503800  0.81145900  0.17403600  1
  O  O51  1  0.54328000  0.92454300  0.83247600  1
  O  O52  1  0.65825800  0.74203400  0.83355500  1
  O  O53  1  0.77215300  0.75095900  0.06203500  1
  O  O54  1  0.78272300  0.79485700  0.23772000  1
  O  O55  1  0.66307500  0.91974700  0.33526700  1
  O  O56  1  0.75194100  0.00902000  0.56468700  1
  O  O57  1  0.78815200  0.98784600  0.74025900  1
loop_
_geom_bond_atom_site_label_1
_geom_bond_atom_site_label_2
_geom_bond_distance
_geom_bond_site_symmetry_2
Li0 O56 1.863858 1_555
Li0 O19 2.022165 1_655
Li0 O55 2.065639 1_545
Li0 O11 2.500467 1_555
Li1 O12 1.848724 1_554
Li1 O21 2.212654 1_555
Li1 O15 2.347445 1_555
Li1 O4 2.372768 1_555
Li2 O53 1.925257 1_556
Li2 O34 1.965062 1_555
Li2 O52 2.040932 1_555
Li2 O16 2.168198 1_555
Li3 O27 1.911953 1_555
Li3 O19 1.994120 1_555
Li3 O17 2.051254 1_455
Li3 O32 2.224494 1_555
Li4 O28 1.901843 1_555
Li4 O35 1.944980 1_555
Li4 O37 2.097378 1_655
Li4 O22 2.261541 1_555
Li5 O2 1.906446 1_554
Li5 O20 1.953857 1_555
Li5 O3 2.132947 1_555
Li5 O38 2.249545 1_555
Li6 O0 1.898159 1_555
Li6 O1 2.027813 1_565
Li6 O35 2.029608 1_455
Li6 O43 2.465171 1_555
Li7 O34 2.135619 1_455
Li7 O7 2.176533 1_455
Li7 O48 2.269095 1_566
Li7 O20 2.346697 1_566
Li7 O2 2.459891 1_565
Li7 O53 2.559828 1_456
O0 P13 1.477166 1_555
O1 P1 1.548644 1_555
O1 V4 2.018138 1_555
O2 P8 1.487823 1_555
O3 P0 1.574243 1_555
O3 V2 1.924689 1_555
O4 P0 1.580695 1_555
O4 V5 1.956854 1_545
O5 P3 1.596224 1_555
O5 V4 1.847642 1_555
O6 P2 1.560234 1_555
O6 V4 1.866315 1_555
O7 P15 1.478896 1_555
O8 P5 1.562946 1_555
O8 V5 1.882089 1_545
O9 P4 1.610411 1_555
O9 V2 1.821007 1_555
O10 P1 1.569074 1_555
O10 V3 1.855251 1_555
O11 P4 1.579689 1_555
O11 V5 1.941448 1_545
O12 P3 1.498683 1_555
O13 P4 1.481699 1_555
O14 P3 1.537341 1_555
O14 V0 1.939225 1_555
O15 P7 1.555198 1_555
O15 V2 2.009965 1_555
O16 P3 1.572644 1_555
O16 V3 1.986367 1_555
O17 P2 1.547501 1_555
O17 V0 1.993283 1_555
O18 P6 1.601683 1_655
O18 P5 1.627988 1_555
O19 P6 1.495106 1_555
O20 P5 1.487186 1_455
O21 P5 1.546371 1_555
O21 V1 2.043151 1_655
O22 P4 1.559946 1_555
O22 V1 2.000578 1_655
O23 P8 1.547693 1_555
O23 V0 1.854465 1_455
O24 P9 1.538794 1_555
O24 V0 1.894734 1_555
O25 P9 1.554032 1_555
O25 V3 1.889950 1_555
O26 P8 1.606513 1_555
O26 P1 1.617686 1_555
O27 P1 1.481436 1_555
O28 P14 1.476235 1_555
O29 P6 1.560315 1_555
O29 V2 1.875451 1_555
O30 P6 1.538386 1_555
O30 V1 1.891079 1_555
O31 P7 1.558137 1_555
O31 V1 1.853652 1_655
O32 P11 1.555169 1_555
O32 V0 2.009577 1_455
O33 P10 1.525505 1_555
O33 V0 1.969647 1_455
O34 P10 1.493743 1_655
O35 P9 1.500640 1_555
O36 P9 1.601524 1_455
O36 P10 1.633167 1_555
O37 P13 1.551622 1_555
O37 V1 1.966331 1_555
O38 P12 1.591062 1_555
O38 V2 1.909390 1_555
O39 P8 1.549586 1_555
O39 V3 1.899507 1_555
O40 P12 1.538944 1_555
O40 V1 1.931170 1_555
O41 P12 1.480108 1_555
O42 P11 1.485351 1_555
O43 P11 1.572980 1_555
O43 V4 1.941100 1_565
O44 P14 1.564826 1_555
O44 V2 1.853033 1_555
O45 P11 1.613768 1_555
O45 V3 1.804983 1_555
O46 P10 1.563492 1_555
O46 V4 1.864643 1_565
O47 P13 1.612117 1_545
O47 P0 1.617091 1_555
O48 P0 1.474392 1_555
O49 P13 1.564145 1_555
O49 V5 1.849635 1_555
O50 P12 1.608687 1_555
O50 V5 1.818332 1_555
O51 P15 1.575788 1_555
O51 V4 1.870700 1_565
O52 P15 1.563924 1_555
O52 V3 1.933966 1_555
O53 P7 1.481367 1_555
O54 P7 1.609220 1_555
O54 P14 1.612191 1_555
O55 P14 1.559550 1_555
O55 V5 1.973715 1_555
O56 P2 1.481829 1_555
O57 P15 1.612039 1_555
O57 P2 1.615712 1_565
