# generated using pymatgen
data_SmGeRh
_symmetry_space_group_name_H-M   'P 1'
_cell_length_a   4.44839154
_cell_length_b   7.11419740
_cell_length_c   7.39250734
_cell_angle_alpha   90.00000000
_cell_angle_beta   90.00000000
_cell_angle_gamma   90.00000000
_symmetry_Int_Tables_number   1
_chemical_formula_structural   SmGeRh
_chemical_formula_sum   'Sm4 Ge4 Rh4'
_cell_volume   233.94872468
_cell_formula_units_Z   4
loop_
 _symmetry_equiv_pos_site_id
 _symmetry_equiv_pos_as_xyz
  1  'x, y, z'
loop_
 _atom_site_type_symbol
 _atom_site_label
 _atom_site_symmetry_multiplicity
 _atom_site_fract_x
 _atom_site_fract_y
 _atom_site_fract_z
 _atom_site_occupancy
  Sm  Sm0  1  0.25000000  0.98297824  0.30239213  1
  Sm  Sm1  1  0.25000000  0.48297824  0.19760787  1
  Sm  Sm2  1  0.75000000  0.01702176  0.69760787  1
  Sm  Sm3  1  0.75000000  0.51702176  0.80239213  1
  Ge  Ge0  1  0.25000000  0.31204884  0.58866224  1
  Ge  Ge1  1  0.25000000  0.81204884  0.91133776  1
  Ge  Ge2  1  0.75000000  0.68795116  0.41133776  1
  Ge  Ge3  1  0.75000000  0.18795116  0.08866224  1
  Rh  Rh0  1  0.25000000  0.68787268  0.58563551  1
  Rh  Rh1  1  0.25000000  0.18787268  0.91436449  1
  Rh  Rh2  1  0.75000000  0.31212732  0.41436449  1
  Rh  Rh3  1  0.75000000  0.81212732  0.08563551  1
loop_
_geom_bond_atom_site_label_1
_geom_bond_atom_site_label_2
_geom_bond_distance
_geom_bond_site_symmetry_2
Ge0 Rh1 2.564705 1_555
Ge0 Rh2 2.570462 1_455
Ge0 Rh2 2.570462 1_555
Ge0 Rh0 2.673779 1_555
Ge0 Sm3 3.093517 1_555
Ge0 Sm3 3.093517 1_455
Ge0 Sm1 3.136218 1_555
Ge0 Sm0 3.155813 1_545
Ge0 Sm2 3.162434 1_555
Ge0 Sm2 3.162434 1_455
Ge1 Rh0 2.564705 1_555
Ge1 Rh3 2.570462 1_556
Ge1 Rh3 2.570462 1_456
Ge1 Rh1 2.673779 1_565
Ge1 Sm2 3.093517 1_465
Ge1 Sm2 3.093517 1_565
Ge1 Sm0 3.136218 1_556
Ge1 Sm1 3.155813 1_556
Ge1 Sm3 3.162434 1_555
Ge1 Sm3 3.162434 1_455
Ge2 Rh3 2.564705 1_555
Ge2 Rh0 2.570462 1_655
Ge2 Rh0 2.570462 1_555
Ge2 Rh2 2.673779 1_555
Ge2 Sm1 3.093517 1_655
Ge2 Sm1 3.093517 1_555
Ge2 Sm3 3.136218 1_555
Ge2 Sm2 3.155813 1_565
Ge2 Sm0 3.162434 1_555
Ge2 Sm0 3.162434 1_655
Ge3 Rh2 2.564705 1_555
Ge3 Rh1 2.570462 1_654
Ge3 Rh1 2.570462 1_554
Ge3 Rh3 2.673779 1_545
Ge3 Sm0 3.093517 1_545
Ge3 Sm0 3.093517 1_645
Ge3 Sm2 3.136218 1_554
Ge3 Sm3 3.155813 1_554
Ge3 Sm1 3.162434 1_655
Ge3 Sm1 3.162434 1_555
Rh0 Sm0 2.965126 1_555
Rh0 Sm3 2.998668 1_555
Rh0 Sm3 2.998668 1_455
Rh0 Sm1 3.217615 1_555
Rh0 Sm2 3.333986 1_465
Rh0 Sm2 3.333986 1_565
Rh1 Sm1 2.965126 1_556
Rh1 Sm2 2.998668 1_455
Rh1 Sm2 2.998668 1_555
Rh1 Sm0 3.217615 1_546
Rh1 Sm3 3.333986 1_555
Rh1 Sm3 3.333986 1_455
Rh2 Sm2 2.965126 1_555
Rh2 Sm1 2.998668 1_555
Rh2 Sm1 2.998668 1_655
Rh2 Sm3 3.217615 1_555
Rh2 Sm0 3.333986 1_645
Rh2 Sm0 3.333986 1_545
Rh3 Sm3 2.965126 1_554
Rh3 Sm0 2.998668 1_555
Rh3 Sm0 2.998668 1_655
Rh3 Sm2 3.217615 1_564
Rh3 Sm1 3.333986 1_555
Rh3 Sm1 3.333986 1_655
