# generated using pymatgen
data_Ca8Mn7CrO20
_symmetry_space_group_name_H-M   'P 1'
_cell_length_a   10.97306404
_cell_length_b   15.36530548
_cell_length_c   11.14999499
_cell_angle_alpha   89.84257496
_cell_angle_beta   91.86601733
_cell_angle_gamma   90.39164346
_symmetry_Int_Tables_number   1
_chemical_formula_structural   Ca8Mn7CrO20
_chemical_formula_sum   'Ca32 Mn28 Cr4 O80'
_cell_volume   1878.89230556
_cell_formula_units_Z   4
loop_
 _symmetry_equiv_pos_site_id
 _symmetry_equiv_pos_as_xyz
  1  'x, y, z'
loop_
 _atom_site_type_symbol
 _atom_site_label
 _atom_site_symmetry_multiplicity
 _atom_site_fract_x
 _atom_site_fract_y
 _atom_site_fract_z
 _atom_site_occupancy
  Ca  Ca0  1  0.00032729  0.10718009  0.51381404  1
  Ca  Ca1  1  0.99929350  0.11304154  0.00987163  1
  Ca  Ca2  1  0.00723684  0.61239063  0.50793494  1
  Ca  Ca3  1  0.00362802  0.61131186  0.00974229  1
  Ca  Ca4  1  0.54340214  0.12887592  0.48149199  1
  Ca  Ca5  1  0.54645384  0.12806217  0.98444410  1
  Ca  Ca6  1  0.54214981  0.62901408  0.48056070  1
  Ca  Ca7  1  0.54281373  0.62887812  0.98032194  1
  Ca  Ca8  1  0.51703264  0.37370999  0.99218707  1
  Ca  Ca9  1  0.51507197  0.37301063  0.48921947  1
  Ca  Ca10  1  0.51985862  0.87379365  0.98673576  1
  Ca  Ca11  1  0.51900059  0.87560267  0.48709428  1
  Ca  Ca12  1  0.96033968  0.38494976  0.00608638  1
  Ca  Ca13  1  0.95962162  0.38635347  0.50888394  1
  Ca  Ca14  1  0.95803222  0.88093150  0.00835882  1
  Ca  Ca15  1  0.95977124  0.88219079  0.50393361  1
  Ca  Ca16  1  0.23246616  0.39630154  0.27093470  1
  Ca  Ca17  1  0.23479034  0.39560493  0.76724906  1
  Ca  Ca18  1  0.23351740  0.89257947  0.27087160  1
  Ca  Ca19  1  0.23460178  0.89372762  0.77105665  1
  Ca  Ca20  1  0.74966479  0.37679429  0.25467300  1
  Ca  Ca21  1  0.75142708  0.37389267  0.75669159  1
  Ca  Ca22  1  0.75318216  0.87365363  0.25639060  1
  Ca  Ca23  1  0.75222442  0.87368641  0.75547040  1
  Ca  Ca24  1  0.22580735  0.12026090  0.24508241  1
  Ca  Ca25  1  0.22287404  0.11823477  0.74081869  1
  Ca  Ca26  1  0.22640895  0.61971346  0.24581807  1
  Ca  Ca27  1  0.22630482  0.62033422  0.74809414  1
  Ca  Ca28  1  0.78026066  0.11745426  0.25402148  1
  Ca  Ca29  1  0.78073889  0.12212760  0.75383299  1
  Ca  Ca30  1  0.78188950  0.62478814  0.25232367  1
  Ca  Ca31  1  0.78244116  0.62369056  0.75458476  1
  Mn  Mn0  1  0.99505959  0.99523085  0.75848966  1
  Mn  Mn1  1  0.99309790  0.49672592  0.25770318  1
  Mn  Mn2  1  0.99435556  0.49673749  0.75595823  1
  Mn  Mn3  1  0.50237338  0.99119460  0.23411920  1
  Mn  Mn4  1  0.50471774  0.99115124  0.73532712  1
  Mn  Mn5  1  0.50467935  0.49221798  0.23662902  1
  Mn  Mn6  1  0.50482703  0.49134321  0.73527251  1
  Mn  Mn7  1  0.24341644  0.00092057  0.51844813  1
  Mn  Mn8  1  0.24423807  0.50011466  0.02192190  1
  Mn  Mn9  1  0.24646264  0.50250454  0.52127915  1
  Mn  Mn10  1  0.74583573  0.00189014  0.99873850  1
  Mn  Mn11  1  0.74585785  0.00235918  0.49938389  1
  Mn  Mn12  1  0.74375048  0.50236048  0.99803171  1
  Mn  Mn13  1  0.74371467  0.50292962  0.49802621  1
  Mn  Mn14  1  0.27012563  0.24508173  0.45572003  1
  Mn  Mn15  1  0.27473550  0.74504331  0.96098994  1
  Mn  Mn16  1  0.27571579  0.74430927  0.46017440  1
  Mn  Mn17  1  0.75749869  0.24826650  0.00403632  1
  Mn  Mn18  1  0.75628307  0.24887552  0.50319030  1
  Mn  Mn19  1  0.75661309  0.74670926  0.00192536  1
  Mn  Mn20  1  0.75666978  0.74679760  0.50295326  1
  Mn  Mn21  1  0.99579488  0.25413695  0.76330887  1
  Mn  Mn22  1  0.99661322  0.75312112  0.26220557  1
  Mn  Mn23  1  0.99644937  0.75337950  0.76119780  1
  Mn  Mn24  1  0.51251527  0.24709196  0.24968882  1
  Mn  Mn25  1  0.50406071  0.24809072  0.75421681  1
  Mn  Mn26  1  0.51099479  0.74706504  0.24797416  1
  Mn  Mn27  1  0.51064864  0.74697947  0.74742740  1
  Cr  Cr0  1  0.99669896  0.99783334  0.25594803  1
  Cr  Cr1  1  0.23927324  0.99918589  0.02169238  1
  Cr  Cr2  1  0.26952613  0.24088170  0.95292630  1
  Cr  Cr3  1  0.99285049  0.25303763  0.27078117  1
  O  O0  1  0.59181271  0.25574796  0.09353795  1
  O  O1  1  0.57249060  0.25389113  0.59624192  1
  O  O2  1  0.58695645  0.75487964  0.09091213  1
  O  O3  1  0.58572546  0.75587353  0.59133675  1
  O  O4  1  0.39756864  0.18268466  0.34932541  1
  O  O5  1  0.39192886  0.18052952  0.86118459  1
  O  O6  1  0.39966424  0.68066644  0.34818995  1
  O  O7  1  0.40016596  0.68294260  0.84881176  1
  O  O8  1  0.92521016  0.23182121  0.41234971  1
  O  O9  1  0.90804044  0.23579036  0.91975456  1
  O  O10  1  0.90669019  0.73312968  0.41910718  1
  O  O11  1  0.90810233  0.73308176  0.91901039  1
  O  O12  1  0.16072561  0.25625769  0.29367948  1
  O  O13  1  0.17101862  0.25430117  0.80948204  1
  O  O14  1  0.16496877  0.75244659  0.30993878  1
  O  O15  1  0.16446924  0.75417164  0.80911082  1
  O  O16  1  0.66339951  0.22709810  0.35369049  1
  O  O17  1  0.65711680  0.22799995  0.85463312  1
  O  O18  1  0.65902669  0.72756373  0.35495004  1
  O  O19  1  0.65926196  0.72745034  0.85305018  1
  O  O20  1  0.86885716  0.27617099  0.15330817  1
  O  O21  1  0.86027436  0.27500862  0.64863278  1
  O  O22  1  0.85539098  0.77172273  0.15094756  1
  O  O23  1  0.85628570  0.77306033  0.65082033  1
  O  O24  1  0.34685528  0.50541925  0.16870150  1
  O  O25  1  0.34778816  0.50843402  0.66936213  1
  O  O26  1  0.34556672  0.01040294  0.16772150  1
  O  O27  1  0.34724966  0.00972541  0.66464352  1
  O  O28  1  0.84702662  0.48203410  0.14024079  1
  O  O29  1  0.84620052  0.48117136  0.64068305  1
  O  O30  1  0.84906847  0.97984407  0.14410938  1
  O  O31  1  0.85463526  0.98224389  0.64835080  1
  O  O32  1  0.15071796  0.01067863  0.36798405  1
  O  O33  1  0.15063556  0.01259774  0.86694494  1
  O  O34  1  0.15434687  0.51294669  0.37455668  1
  O  O35  1  0.15555132  0.50902438  0.87341632  1
  O  O36  1  0.62734610  0.02400961  0.34558746  1
  O  O37  1  0.63146969  0.02429512  0.85016318  1
  O  O38  1  0.63214748  0.52643476  0.34606293  1
  O  O39  1  0.63121565  0.52527926  0.84519718  1
  O  O40  1  0.88592860  0.01563729  0.39533914  1
  O  O41  1  0.88701082  0.01668652  0.89533709  1
  O  O42  1  0.88536236  0.51959671  0.39489136  1
  O  O43  1  0.88706063  0.51679040  0.89319912  1
  O  O44  1  0.09740864  0.47147196  0.12455240  1
  O  O45  1  0.09860832  0.47307320  0.62381538  1
  O  O46  1  0.10154021  0.97056612  0.11488188  1
  O  O47  1  0.09766151  0.97329239  0.62332703  1
  O  O48  1  0.59045606  0.49588568  0.08583963  1
  O  O49  1  0.58954699  0.49522810  0.58500036  1
  O  O50  1  0.59299355  0.99564665  0.08645187  1
  O  O51  1  0.59540318  0.99563258  0.58816053  1
  O  O52  1  0.99304096  0.37768841  0.30692939  1
  O  O53  1  0.99722899  0.37544889  0.79968294  1
  O  O54  1  0.99676628  0.87412445  0.29863982  1
  O  O55  1  0.99460773  0.87587189  0.80157483  1
  O  O56  1  0.47969417  0.37338771  0.28321715  1
  O  O57  1  0.46938643  0.37509570  0.78948814  1
  O  O58  1  0.47455889  0.87287418  0.28212925  1
  O  O59  1  0.47496711  0.87184504  0.78039117  1
  O  O60  1  -0.00002101  0.12791727  0.21947679  1
  O  O61  1  0.00021872  0.12854374  0.72342872  1
  O  O62  1  0.00077453  0.62718044  0.21997585  1
  O  O63  1  0.00129501  0.62777649  0.71967266  1
  O  O64  1  0.21963776  0.13836625  0.03608631  1
  O  O65  1  0.21684000  0.13341036  0.53483834  1
  O  O66  1  0.22368909  0.63191674  0.03853440  1
  O  O67  1  0.22447580  0.63323447  0.54155455  1
  O  O68  1  0.75504889  0.12590980  0.04150126  1
  O  O69  1  0.75445153  0.12574701  0.54166768  1
  O  O70  1  0.75046228  0.62442365  0.04048934  1
  O  O71  1  0.74881636  0.62505826  0.54386184  1
  O  O72  1  0.29686168  0.37658461  0.48714129  1
  O  O73  1  0.29287584  0.36356415  0.99436827  1
  O  O74  1  0.29886291  0.87856949  0.48501558  1
  O  O75  1  0.30090999  0.87874571  0.98530041  1
  O  O76  1  0.74009583  0.37755813  0.46383078  1
  O  O77  1  0.74042225  0.37653350  0.96608443  1
  O  O78  1  0.74253273  0.87446203  0.46652910  1
  O  O79  1  0.74240872  0.87357809  0.96526328  1
loop_
_geom_bond_atom_site_label_1
_geom_bond_atom_site_label_2
_geom_bond_distance
_geom_bond_site_symmetry_2
Ca0 O40 2.275383 1_455
Ca0 O61 2.361075 1_555
Ca0 O8 2.361367 1_455
Ca0 O65 2.411019 1_555
Ca0 O47 2.606766 1_545
Ca0 O69 2.742750 1_455
Ca0 O32 2.790568 1_555
Ca0 O31 2.930809 1_445
Ca1 O41 2.285574 1_554
Ca1 O60 2.348635 1_655
Ca1 O9 2.349348 1_554
Ca1 O64 2.454505 1_655
Ca1 O46 2.712224 1_645
Ca1 O68 2.723170 1_555
Ca1 O33 2.810761 1_654
Ca2 O42 2.298722 1_455
Ca2 O10 2.363618 1_455
Ca2 O63 2.376378 1_555
Ca2 O67 2.420230 1_555
Ca2 O45 2.680834 1_555
Ca2 O34 2.711965 1_555
Ca2 O71 2.884666 1_455
Ca3 O43 2.304504 1_454
Ca3 O62 2.358660 1_555
Ca3 O11 2.360150 1_454
Ca3 O66 2.444158 1_555
Ca3 O44 2.691443 1_555
Ca3 O35 2.788145 1_554
Ca3 O70 2.818773 1_455
Ca4 O4 2.296481 1_555
Ca4 O1 2.325355 1_555
Ca4 O69 2.390784 1_555
Ca4 O36 2.421903 1_555
Ca4 O51 2.426951 1_545
Ca4 O16 2.474939 1_555
Ca5 O5 2.296666 1_555
Ca5 O0 2.353053 1_556
Ca5 O68 2.356077 1_556
Ca5 O50 2.378597 1_546
Ca5 O37 2.403860 1_555
Ca5 O17 2.450356 1_555
Ca6 O6 2.261206 1_555
Ca6 O3 2.348569 1_555
Ca6 O71 2.354151 1_555
Ca6 O49 2.411292 1_555
Ca6 O38 2.416446 1_555
Ca6 O18 2.445011 1_555
Ca7 O7 2.269792 1_555
Ca7 O2 2.337693 1_556
Ca7 O70 2.355594 1_556
Ca7 O48 2.407199 1_556
Ca7 O39 2.423701 1_555
Ca7 O19 2.453641 1_555
Ca8 O0 2.276905 1_556
Ca8 O48 2.280123 1_556
Ca8 O57 2.303204 1_555
Ca8 O73 2.464465 1_555
Ca8 O77 2.477952 1_555
Ca9 O1 2.264015 1_555
Ca9 O49 2.295239 1_555
Ca9 O56 2.316999 1_555
Ca9 O72 2.394797 1_555
Ca9 O76 2.495001 1_555
Ca10 O2 2.276145 1_556
Ca10 O50 2.306195 1_556
Ca10 O59 2.337376 1_555
Ca10 O75 2.403793 1_555
Ca10 O79 2.461537 1_555
Ca11 O3 2.285317 1_555
Ca11 O51 2.302808 1_555
Ca11 O58 2.321660 1_555
Ca11 O74 2.415682 1_555
Ca11 O78 2.471136 1_555
Ca12 O53 2.354765 1_554
Ca12 O44 2.372198 1_655
Ca12 O77 2.442334 1_554
Ca12 O28 2.483446 1_555
Ca12 O43 2.505388 1_554
Ca12 O9 2.542994 1_554
Ca12 O20 2.562272 1_555
Ca13 O52 2.297578 1_555
Ca13 O45 2.366004 1_655
Ca13 O29 2.446797 1_555
Ca13 O76 2.447526 1_555
Ca13 O42 2.532204 1_555
Ca13 O21 2.571746 1_555
Ca13 O8 2.629522 1_555
Ca14 O55 2.354735 1_554
Ca14 O46 2.375888 1_655
Ca14 O79 2.400928 1_554
Ca14 O30 2.487139 1_555
Ca14 O11 2.532472 1_554
Ca14 O41 2.547606 1_564
Ca14 O22 2.586133 1_555
Ca15 O54 2.341485 1_555
Ca15 O78 2.408748 1_555
Ca15 O47 2.423046 1_655
Ca15 O40 2.504429 1_565
Ca15 O10 2.537205 1_555
Ca15 O31 2.538920 1_555
Ca15 O23 2.619839 1_555
Ca16 O12 2.302429 1_555
Ca16 O34 2.319245 1_555
Ca16 O24 2.395805 1_555
Ca16 O44 2.459642 1_555
Ca16 O72 2.508097 1_555
Ca16 O52 2.683833 1_455
Ca16 O56 2.736944 1_555
Ca17 O35 2.300759 1_555
Ca17 O13 2.328196 1_555
Ca17 O25 2.404698 1_555
Ca17 O45 2.462891 1_555
Ca17 O57 2.599343 1_555
Ca17 O73 2.637022 1_555
Ca17 O53 2.659271 1_455
Ca18 O14 2.320728 1_555
Ca18 O32 2.321258 1_565
Ca18 O74 2.479800 1_555
Ca18 O26 2.482390 1_565
Ca18 O46 2.531108 1_555
Ca18 O54 2.639528 1_455
Ca18 O58 2.663152 1_555
Ca19 O15 2.316049 1_555
Ca19 O33 2.329358 1_565
Ca19 O27 2.483191 1_565
Ca19 O75 2.484939 1_555
Ca19 O47 2.513690 1_555
Ca19 O59 2.659808 1_555
Ca19 O55 2.678469 1_455
Ca20 O28 2.331952 1_555
Ca20 O76 2.337949 1_555
Ca20 O20 2.347759 1_555
Ca20 O52 2.714755 1_555
Ca20 O16 2.725781 1_555
Ca20 O38 2.850765 1_555
Ca21 O21 2.305505 1_555
Ca21 O77 2.342250 1_555
Ca21 O29 2.350364 1_555
Ca21 O17 2.705017 1_555
Ca21 O53 2.724008 1_555
Ca22 O22 2.283220 1_555
Ca22 O30 2.321156 1_555
Ca22 O78 2.349824 1_555
Ca22 O54 2.698875 1_555
Ca22 O18 2.709713 1_555
Ca23 O23 2.275260 1_555
Ca23 O79 2.345164 1_555
Ca23 O31 2.350003 1_555
Ca23 O55 2.692426 1_555
Ca23 O19 2.701979 1_555
Ca24 O12 2.285170 1_555
Ca24 O26 2.330764 1_555
Ca24 O32 2.331036 1_555
Ca24 O64 2.344935 1_555
Ca24 O4 2.379489 1_555
Ca24 O60 2.488716 1_555
Ca25 O33 2.298500 1_555
Ca25 O65 2.306699 1_555
Ca25 O13 2.309627 1_555
Ca25 O27 2.340562 1_555
Ca25 O5 2.445245 1_555
Ca25 O61 2.450763 1_555
Ca26 O14 2.276703 1_555
Ca26 O66 2.317532 1_555
Ca26 O34 2.328142 1_555
Ca26 O6 2.373730 1_555
Ca26 O24 2.384176 1_555
Ca26 O62 2.486668 1_555
Ca27 O15 2.282341 1_555
Ca27 O67 2.310335 1_555
Ca27 O35 2.349438 1_555
Ca27 O25 2.370603 1_555
Ca27 O7 2.380662 1_555
Ca27 O63 2.482418 1_555
Ca28 O68 2.380026 1_555
Ca28 O16 2.418728 1_555
Ca28 O36 2.447439 1_555
Ca28 O60 2.458024 1_655
Ca28 O40 2.483347 1_555
Ca28 O30 2.576641 1_545
Ca28 O20 2.859579 1_555
Ca28 O8 2.920673 1_555
Ca29 O69 2.374367 1_555
Ca29 O17 2.426764 1_555
Ca29 O61 2.444303 1_655
Ca29 O37 2.483592 1_555
Ca29 O41 2.523095 1_555
Ca29 O31 2.600065 1_545
Ca29 O21 2.771133 1_555
Ca29 O9 2.870562 1_555
Ca30 O70 2.375873 1_555
Ca30 O18 2.400060 1_555
Ca30 O62 2.440371 1_655
Ca30 O38 2.478978 1_555
Ca30 O42 2.514346 1_555
Ca30 O28 2.641707 1_555
Ca30 O22 2.654396 1_555
Ca30 O10 2.815111 1_555
Ca31 O71 2.366513 1_555
Ca31 O19 2.389528 1_555
Ca31 O63 2.445679 1_655
Ca31 O39 2.475356 1_555
Ca31 O43 2.510155 1_555
Ca31 O29 2.644228 1_555
Ca31 O23 2.698843 1_555
Ca31 O11 2.812168 1_555
Mn0 O55 1.894599 1_555
Mn0 O47 1.941881 1_655
Mn0 O31 1.948373 1_555
Mn0 O41 1.992117 1_565
Mn0 O33 2.075813 1_665
Mn0 O61 2.085042 1_665
Mn1 O52 1.908184 1_555
Mn1 O44 1.945439 1_655
Mn1 O42 1.996819 1_555
Mn1 O28 2.048262 1_555
Mn1 O62 2.048739 1_655
Mn1 O34 2.176255 1_655
Mn2 O53 1.925261 1_555
Mn2 O45 1.931364 1_655
Mn2 O43 1.986857 1_555
Mn2 O29 2.052435 1_555
Mn2 O63 2.054001 1_655
Mn2 O35 2.173814 1_655
Mn3 O26 1.875799 1_565
Mn3 O36 1.887460 1_565
Mn3 O58 1.919023 1_555
Mn3 O50 1.951788 1_555
Mn4 O27 1.898702 1_565
Mn4 O37 1.926457 1_565
Mn4 O59 1.927957 1_555
Mn4 O51 1.947387 1_555
Mn5 O24 1.879495 1_555
Mn5 O38 1.898421 1_555
Mn5 O56 1.917289 1_555
Mn5 O48 1.953889 1_555
Mn6 O25 1.871124 1_555
Mn6 O39 1.892214 1_555
Mn6 O57 1.925351 1_555
Mn6 O49 1.943022 1_555
Mn7 O32 1.939408 1_555
Mn7 O27 1.962592 1_555
Mn7 O74 2.019318 1_545
Mn7 O47 2.053171 1_545
Mn7 O65 2.067930 1_555
Mn8 O35 1.898215 1_554
Mn8 O24 1.957670 1_555
Mn8 O66 2.048787 1_555
Mn8 O44 2.051013 1_555
Mn8 O73 2.193388 1_554
Mn9 O34 1.901809 1_555
Mn9 O25 1.962298 1_555
Mn9 O67 2.038844 1_555
Mn9 O72 2.055859 1_555
Mn9 O45 2.061976 1_555
Mn10 O68 1.966747 1_556
Mn10 O50 1.970437 1_546
Mn10 O41 1.972503 1_555
Mn10 O30 1.976830 1_546
Mn10 O79 2.007453 1_545
Mn10 O37 2.074887 1_555
Mn11 O51 1.954397 1_545
Mn11 O69 1.955799 1_555
Mn11 O40 1.964783 1_555
Mn11 O78 1.999891 1_545
Mn11 O31 2.037701 1_545
Mn11 O36 2.144759 1_555
Mn12 O70 1.935948 1_556
Mn12 O28 1.944513 1_556
Mn12 O77 1.966752 1_555
Mn12 O48 1.975443 1_556
Mn12 O43 2.000470 1_555
Mn12 O39 2.102010 1_555
Mn13 O71 1.946204 1_555
Mn13 O29 1.947374 1_555
Mn13 O76 1.964653 1_555
Mn13 O42 1.978180 1_555
Mn13 O49 1.979832 1_555
Mn13 O38 2.089913 1_555
Mn14 O65 2.018874 1_555
Mn14 O72 2.068975 1_555
Mn14 O4 2.101134 1_555
Mn14 O12 2.143546 1_555
Mn15 O66 2.023046 1_556
Mn15 O15 2.054026 1_555
Mn15 O75 2.089584 1_555
Mn15 O7 2.122720 1_555
Mn16 O67 2.015913 1_555
Mn16 O14 2.041281 1_555
Mn16 O74 2.094847 1_555
Mn16 O6 2.121482 1_555
Mn17 O68 1.924975 1_555
Mn17 O9 1.937799 1_554
Mn17 O17 1.990972 1_554
Mn17 O77 2.023308 1_554
Mn17 O20 2.076404 1_555
Mn17 O0 2.106223 1_555
Mn18 O69 1.938907 1_555
Mn18 O16 1.953755 1_555
Mn18 O21 1.992488 1_555
Mn18 O76 2.031898 1_555
Mn18 O8 2.158925 1_555
Mn18 O1 2.299691 1_555
Mn19 O70 1.927599 1_555
Mn19 O11 1.941056 1_554
Mn19 O19 1.966484 1_554
Mn19 O22 1.990974 1_555
Mn19 O79 1.996772 1_554
Mn19 O2 2.142464 1_555
Mn20 O71 1.926175 1_555
Mn20 O10 1.932373 1_555
Mn20 O18 1.960054 1_555
Mn20 O23 1.989024 1_555
Mn20 O78 2.008126 1_555
Mn20 O3 2.152647 1_555
Mn21 O53 1.908547 1_555
Mn21 O21 1.956934 1_555
Mn21 O13 1.974200 1_655
Mn21 O61 1.982808 1_655
Mn21 O9 2.037771 1_555
Mn22 O54 1.904185 1_555
Mn22 O14 1.905878 1_655
Mn22 O22 1.975069 1_555
Mn22 O62 1.994013 1_655
Mn22 O10 2.057645 1_555
Mn23 O15 1.902718 1_655
Mn23 O55 1.936823 1_555
Mn23 O23 1.962817 1_555
Mn23 O63 1.987396 1_655
Mn23 O11 2.058458 1_555
Mn24 O4 1.967907 1_555
Mn24 O0 1.975348 1_555
Mn24 O56 2.014347 1_555
Mn24 O16 2.015012 1_555
Mn25 O1 1.938744 1_555
Mn25 O17 2.013037 1_555
Mn25 O5 2.021243 1_555
Mn25 O57 2.032679 1_555
Mn26 O6 1.961496 1_555
Mn26 O2 1.966870 1_555
Mn26 O18 2.007381 1_555
Mn26 O58 2.016499 1_555
Mn27 O7 1.944895 1_555
Mn27 O3 1.953693 1_555
Mn27 O59 1.998230 1_555
Mn27 O19 2.003997 1_555
Cr0 O54 1.958251 1_555
Cr0 O40 2.024286 1_565
Cr0 O46 2.025105 1_655
Cr0 O30 2.029752 1_555
Cr0 O60 2.038942 1_665
Cr0 O32 2.077273 1_665
Cr1 O46 1.909947 1_555
Cr1 O33 1.963946 1_564
Cr1 O26 1.978975 1_565
Cr1 O75 2.021366 1_554
Cr1 O64 2.157779 1_565
Cr2 O64 1.911512 1_556
Cr2 O13 1.912500 1_555
Cr2 O5 1.955001 1_555
Cr2 O73 1.955265 1_555
Cr3 O8 1.794145 1_555
Cr3 O12 1.851804 1_655
Cr3 O20 1.892398 1_555
Cr3 O52 1.958303 1_555
Cr3 O60 2.010080 1_655
