# generated using pymatgen
data_RbHfCdF7
_symmetry_space_group_name_H-M   'P 1'
_cell_length_a   6.61844890
_cell_length_b   6.61844890
_cell_length_c   8.61647000
_cell_angle_alpha   90.00000000
_cell_angle_beta   90.00000000
_cell_angle_gamma   117.31186934
_symmetry_Int_Tables_number   1
_chemical_formula_structural   RbHfCdF7
_chemical_formula_sum   'Rb2 Hf2 Cd2 F14'
_cell_volume   335.35910622
_cell_formula_units_Z   2
loop_
 _symmetry_equiv_pos_site_id
 _symmetry_equiv_pos_as_xyz
  1  'x, y, z'
loop_
 _atom_site_type_symbol
 _atom_site_label
 _atom_site_symmetry_multiplicity
 _atom_site_fract_x
 _atom_site_fract_y
 _atom_site_fract_z
 _atom_site_occupancy
  Rb  Rb0  1  0.00000000  0.00000000  0.00000000  1
  Rb  Rb1  1  0.00000000  0.00000000  0.50000000  1
  Hf  Hf0  1  0.69248000  0.30752000  0.75000000  1
  Hf  Hf1  1  0.30752000  0.69248000  0.25000000  1
  Cd  Cd0  1  0.30917500  0.69082500  0.75000000  1
  Cd  Cd1  1  0.69082500  0.30917500  0.25000000  1
  F  F0  1  0.34967200  0.06522600  0.75000000  1
  F  F1  1  0.65032800  0.93477400  0.25000000  1
  F  F2  1  0.93477400  0.65032800  0.75000000  1
  F  F3  1  0.06522600  0.34967200  0.25000000  1
  F  F4  1  0.51222700  0.48777300  0.75000000  1
  F  F5  1  0.48777300  0.51222700  0.25000000  1
  F  F6  1  0.70303800  0.29696200  0.98330400  1
  F  F7  1  0.29696200  0.70303800  0.01669600  1
  F  F8  1  0.29696200  0.70303800  0.48330400  1
  F  F9  1  0.70303800  0.29696200  0.51669600  1
  F  F10  1  0.67044200  0.97811800  0.75000000  1
  F  F11  1  0.32955800  0.02188200  0.25000000  1
  F  F12  1  0.02188200  0.32955800  0.75000000  1
  F  F13  1  0.97811800  0.67044200  0.25000000  1
loop_
_geom_bond_atom_site_label_1
_geom_bond_atom_site_label_2
_geom_bond_distance
_geom_bond_site_symmetry_2
Cd0 F10 2.271651 1_555
Cd0 F12 2.271651 1_555
Cd0 F4 2.295522 1_555
Cd0 F7 2.302122 1_556
Cd0 F8 2.302122 1_555
Cd0 F0 2.366985 1_565
Cd0 F2 2.366985 1_455
Cd1 F13 2.271651 1_555
Cd1 F11 2.271651 1_555
Cd1 F5 2.295522 1_555
Cd1 F9 2.302122 1_555
Cd1 F6 2.302122 1_554
Cd1 F3 2.366985 1_655
Cd1 F1 2.366985 1_545
F0 Hf0 2.092958 1_555
F0 Rb0 3.043960 1_556
F0 Rb1 3.043960 1_555
F1 Hf1 2.092958 1_555
F1 Rb0 3.043960 1_665
F1 Rb1 3.043960 1_665
F2 Hf0 2.092958 1_555
F2 Rb1 3.043960 1_665
F2 Rb0 3.043960 1_666
F3 Hf1 2.092958 1_555
F3 Rb1 3.043960 1_555
F3 Rb0 3.043960 1_555
F4 Hf0 2.037777 1_555
F5 Hf1 2.037777 1_555
F6 Hf0 2.013797 1_555
F6 Rb0 3.360264 1_656
F7 Hf1 2.013797 1_555
F7 Rb0 3.360264 1_565
F8 Hf1 2.013797 1_555
F8 Rb1 3.360264 1_565
F9 Hf0 2.013797 1_555
F9 Rb1 3.360264 1_655
F10 Hf0 2.117176 1_565
F10 Rb1 3.021389 1_665
F10 Rb0 3.021389 1_666
F11 Hf1 2.117176 1_545
F11 Rb0 3.021389 1_555
F11 Rb1 3.021389 1_555
F12 Hf0 2.117176 1_455
F12 Rb0 3.021389 1_556
F12 Rb1 3.021389 1_555
F13 Hf1 2.117176 1_655
F13 Rb0 3.021389 1_665
F13 Rb1 3.021389 1_665
