# generated using pymatgen
data_Ca2Co2O5
_symmetry_space_group_name_H-M   'P 1'
_cell_length_a   5.36656100
_cell_length_b   11.14595800
_cell_length_c   14.77482678
_cell_angle_alpha   89.92465175
_cell_angle_beta   90.00000000
_cell_angle_gamma   90.00000000
_symmetry_Int_Tables_number   1
_chemical_formula_structural   Ca2Co2O5
_chemical_formula_sum   'Ca16 Co16 O40'
_cell_volume   883.76234769
_cell_formula_units_Z   8
loop_
 _symmetry_equiv_pos_site_id
 _symmetry_equiv_pos_as_xyz
  1  'x, y, z'
loop_
 _atom_site_type_symbol
 _atom_site_label
 _atom_site_symmetry_multiplicity
 _atom_site_fract_x
 _atom_site_fract_y
 _atom_site_fract_z
 _atom_site_occupancy
  Ca  Ca0  1  0.98675700  0.76079500  0.60511600  1
  Ca  Ca1  1  0.98675700  0.73920500  0.39488400  1
  Ca  Ca2  1  0.01324300  0.23920500  0.39488400  1
  Ca  Ca3  1  0.01324300  0.26079500  0.60511600  1
  Ca  Ca4  1  0.98361600  0.76300700  0.88992100  1
  Ca  Ca5  1  0.98361600  0.73699300  0.11007900  1
  Ca  Ca6  1  0.01638400  0.23699300  0.11007900  1
  Ca  Ca7  1  0.01638400  0.26300700  0.88992100  1
  Ca  Ca8  1  0.51419600  0.98930500  0.89012600  1
  Ca  Ca9  1  0.51419600  0.51069500  0.10987400  1
  Ca  Ca10  1  0.48580400  0.01069500  0.10987400  1
  Ca  Ca11  1  0.48580400  0.48930500  0.89012600  1
  Ca  Ca12  1  0.51265000  0.98926100  0.60508400  1
  Ca  Ca13  1  0.51265000  0.51073900  0.39491600  1
  Ca  Ca14  1  0.48735000  0.01073900  0.39491600  1
  Ca  Ca15  1  0.48735000  0.48926100  0.60508400  1
  Co  Co0  1  0.44739900  0.71700300  0.74600000  1
  Co  Co1  1  0.44739900  0.78299700  0.25400000  1
  Co  Co2  1  0.55260100  0.28299700  0.25400000  1
  Co  Co3  1  0.55260100  0.21700300  0.74600000  1
  Co  Co4  1  0.95442600  0.53099200  0.74735600  1
  Co  Co5  1  0.95442600  0.96900800  0.25264400  1
  Co  Co6  1  0.04557400  0.46900800  0.25264400  1
  Co  Co7  1  0.04557400  0.03099200  0.74735600  1
  Co  Co8  1  0.00000000  0.50000000  0.00000000  1
  Co  Co9  1  0.00000000  0.00000000  0.00000000  1
  Co  Co10  1  0.00000000  0.50000000  0.50000000  1
  Co  Co11  1  0.00000000  0.00000000  0.50000000  1
  Co  Co12  1  0.49392500  0.75000000  0.00000000  1
  Co  Co13  1  0.50607500  0.25000000  0.00000000  1
  Co  Co14  1  0.49419400  0.75000000  0.50000000  1
  Co  Co15  1  0.50580600  0.25000000  0.50000000  1
  O  O0  1  0.59135500  0.55805000  0.74822900  1
  O  O1  1  0.59135500  0.94195000  0.25177100  1
  O  O2  1  0.40864500  0.44195000  0.25177100  1
  O  O3  1  0.40864500  0.05805000  0.74822900  1
  O  O4  1  0.08672000  0.69282300  0.74843900  1
  O  O5  1  0.08672000  0.80717700  0.25156100  1
  O  O6  1  0.91328000  0.30717700  0.25156100  1
  O  O7  1  0.91328000  0.19282300  0.74843900  1
  O  O8  1  0.51578100  0.78512700  0.85420900  1
  O  O9  1  0.51578100  0.71487300  0.14579100  1
  O  O10  1  0.48421900  0.21487300  0.14579100  1
  O  O11  1  0.48421900  0.28512700  0.85420900  1
  O  O12  1  0.50398800  0.77918400  0.63347800  1
  O  O13  1  0.50398800  0.72081600  0.36652200  1
  O  O14  1  0.49601200  0.22081600  0.36652200  1
  O  O15  1  0.49601200  0.27918400  0.63347800  1
  O  O16  1  0.02372200  0.46922900  0.63655200  1
  O  O17  1  0.02372200  0.03077100  0.36344800  1
  O  O18  1  0.97627800  0.53077100  0.36344800  1
  O  O19  1  0.97627800  0.96922900  0.63655200  1
  O  O20  1  0.76046800  0.37349200  0.48630900  1
  O  O21  1  0.76046800  0.12650800  0.51369100  1
  O  O22  1  0.23953200  0.62650800  0.51369100  1
  O  O23  1  0.23953200  0.87349200  0.48630900  1
  O  O24  1  0.74502300  0.62185100  0.51683900  1
  O  O25  1  0.74502300  0.87814900  0.48316100  1
  O  O26  1  0.25497700  0.37814900  0.48316100  1
  O  O27  1  0.25497700  0.12185100  0.51683900  1
  O  O28  1  0.75329900  0.36930100  0.01089800  1
  O  O29  1  0.75329900  0.13069900  0.98910200  1
  O  O30  1  0.24670100  0.63069900  0.98910200  1
  O  O31  1  0.24670100  0.86930100  0.01089800  1
  O  O32  1  0.73948600  0.62832100  0.98453100  1
  O  O33  1  0.73948600  0.87167900  0.01546900  1
  O  O34  1  0.26051400  0.37167900  0.01546900  1
  O  O35  1  0.26051400  0.12832100  0.98453100  1
  O  O36  1  0.02445000  0.46920100  0.85820000  1
  O  O37  1  0.02445000  0.03079900  0.14180000  1
  O  O38  1  0.97555000  0.53079900  0.14180000  1
  O  O39  1  0.97555000  0.96920100  0.85820000  1
loop_
_geom_bond_atom_site_label_1
_geom_bond_atom_site_label_2
_geom_bond_distance
_geom_bond_site_symmetry_2
Ca0 O4 2.311203 1_655
Ca0 O19 2.370436 1_555
Ca0 O24 2.405774 1_555
Ca0 O22 2.431133 1_655
Ca0 O23 2.548229 1_655
Ca0 O25 2.575728 1_555
Ca0 O12 2.632513 1_555
Ca0 O12 2.814717 1_655
Ca1 O5 2.311203 1_655
Ca1 O18 2.370436 1_555
Ca1 O25 2.405774 1_555
Ca1 O23 2.431133 1_655
Ca1 O22 2.548229 1_655
Ca1 O24 2.575728 1_555
Ca1 O13 2.632513 1_555
Ca1 O13 2.814717 1_655
Ca2 O6 2.311203 1_455
Ca2 O17 2.370436 1_555
Ca2 O26 2.405774 1_555
Ca2 O20 2.431133 1_455
Ca2 O21 2.548229 1_455
Ca2 O27 2.575728 1_555
Ca2 O14 2.632513 1_555
Ca2 O14 2.814717 1_455
Ca3 O7 2.311203 1_455
Ca3 O16 2.370436 1_555
Ca3 O27 2.405774 1_555
Ca3 O21 2.431133 1_455
Ca3 O20 2.548229 1_455
Ca3 O26 2.575728 1_555
Ca3 O15 2.632513 1_555
Ca3 O15 2.814717 1_455
Ca4 O4 2.300447 1_655
Ca4 O39 2.345326 1_555
Ca4 O32 2.432804 1_555
Ca4 O30 2.511922 1_655
Ca4 O31 2.568541 1_656
Ca4 O33 2.574946 1_556
Ca4 O8 2.577263 1_555
Ca4 O8 2.914616 1_655
Ca5 O5 2.300447 1_655
Ca5 O38 2.345326 1_555
Ca5 O33 2.432804 1_555
Ca5 O31 2.511922 1_655
Ca5 O30 2.568541 1_654
Ca5 O32 2.574946 1_554
Ca5 O9 2.577263 1_555
Ca5 O9 2.914616 1_655
Ca6 O6 2.300447 1_455
Ca6 O37 2.345326 1_555
Ca6 O34 2.432804 1_555
Ca6 O28 2.511922 1_455
Ca6 O29 2.568541 1_454
Ca6 O35 2.574946 1_554
Ca6 O10 2.577263 1_555
Ca6 O10 2.914616 1_455
Ca7 O7 2.300447 1_455
Ca7 O36 2.345326 1_555
Ca7 O35 2.432804 1_555
Ca7 O29 2.511922 1_455
Ca7 O28 2.568541 1_456
Ca7 O34 2.574946 1_556
Ca7 O11 2.577263 1_555
Ca7 O11 2.914616 1_455
Ca8 O3 2.301971 1_565
Ca8 O8 2.337507 1_555
Ca8 O35 2.491075 1_565
Ca8 O29 2.504940 1_565
Ca8 O39 2.530414 1_555
Ca8 O33 2.569796 1_556
Ca8 O31 2.650955 1_556
Ca8 O39 2.937516 1_455
Ca9 O2 2.301971 1_555
Ca9 O9 2.337507 1_555
Ca9 O34 2.491075 1_555
Ca9 O28 2.504940 1_555
Ca9 O38 2.530414 1_555
Ca9 O32 2.569796 1_554
Ca9 O30 2.650955 1_554
Ca9 O38 2.937516 1_455
Ca10 O1 2.301971 1_545
Ca10 O10 2.337507 1_555
Ca10 O33 2.491075 1_545
Ca10 O31 2.504940 1_545
Ca10 O37 2.530414 1_555
Ca10 O35 2.569796 1_554
Ca10 O29 2.650955 1_554
Ca10 O37 2.937516 1_655
Ca11 O0 2.301971 1_555
Ca11 O11 2.337507 1_555
Ca11 O32 2.491075 1_555
Ca11 O30 2.504940 1_555
Ca11 O36 2.530414 1_555
Ca11 O34 2.569796 1_556
Ca11 O28 2.650955 1_556
Ca11 O36 2.937516 1_655
Ca12 O3 2.318757 1_565
Ca12 O12 2.378705 1_555
Ca12 O27 2.406459 1_565
Ca12 O21 2.434495 1_565
Ca12 O25 2.517887 1_555
Ca12 O19 2.540930 1_555
Ca12 O23 2.626570 1_555
Ca12 O19 2.924269 1_455
Ca13 O2 2.318757 1_555
Ca13 O13 2.378705 1_555
Ca13 O26 2.406459 1_555
Ca13 O20 2.434495 1_555
Ca13 O24 2.517887 1_555
Ca13 O18 2.540930 1_555
Ca13 O22 2.626570 1_555
Ca13 O18 2.924269 1_455
Ca14 O1 2.318757 1_545
Ca14 O14 2.378705 1_555
Ca14 O25 2.406459 1_545
Ca14 O23 2.434495 1_545
Ca14 O27 2.517887 1_555
Ca14 O17 2.540930 1_555
Ca14 O21 2.626570 1_555
Ca14 O17 2.924269 1_655
Ca15 O0 2.318757 1_555
Ca15 O15 2.378705 1_555
Ca15 O24 2.406459 1_555
Ca15 O22 2.434495 1_555
Ca15 O26 2.517887 1_555
Ca15 O16 2.540930 1_555
Ca15 O20 2.626570 1_555
Ca15 O16 2.924269 1_655
Co0 O8 1.808445 1_555
Co0 O12 1.825766 1_555
Co0 O0 1.933035 1_555
Co0 O4 1.954604 1_555
Co1 O9 1.808445 1_555
Co1 O13 1.825766 1_555
Co1 O1 1.933035 1_555
Co1 O5 1.954604 1_555
Co2 O10 1.808445 1_555
Co2 O14 1.825766 1_555
Co2 O2 1.933035 1_555
Co2 O6 1.954604 1_555
Co3 O11 1.808445 1_555
Co3 O15 1.825766 1_555
Co3 O3 1.933035 1_555
Co3 O7 1.954604 1_555
Co4 O36 1.815117 1_655
Co4 O16 1.815294 1_655
Co4 O4 1.938540 1_655
Co4 O0 1.971690 1_555
Co5 O37 1.815117 1_665
Co5 O17 1.815294 1_665
Co5 O5 1.938540 1_655
Co5 O1 1.971690 1_555
Co6 O38 1.815117 1_455
Co6 O18 1.815294 1_455
Co6 O6 1.938540 1_455
Co6 O2 1.971690 1_555
Co7 O39 1.815117 1_445
Co7 O19 1.815294 1_445
Co7 O7 1.938540 1_455
Co7 O3 1.971690 1_555
Co8 O28 1.974913 1_455
Co8 O30 1.974913 1_554
Co8 O32 2.012860 1_454
Co8 O34 2.012860 1_555
Co8 O38 2.127504 1_455
Co8 O36 2.127504 1_554
Co9 O29 1.974913 1_454
Co9 O31 1.974913 1_545
Co9 O35 2.012860 1_554
Co9 O33 2.012860 1_445
Co9 O37 2.127504 1_555
Co9 O39 2.127504 1_444
Co10 O22 1.918941 1_555
Co10 O20 1.918941 1_455
Co10 O26 1.944152 1_555
Co10 O24 1.944152 1_455
Co10 O16 2.049988 1_555
Co10 O18 2.049988 1_455
Co11 O23 1.918941 1_545
Co11 O21 1.918941 1_455
Co11 O27 1.944152 1_555
Co11 O25 1.944152 1_445
Co11 O19 2.049988 1_445
Co11 O17 2.049988 1_555
Co12 O31 1.885445 1_555
Co12 O30 1.885445 1_554
Co12 O32 1.905007 1_554
Co12 O33 1.905007 1_555
Co12 O9 2.191964 1_555
Co12 O8 2.191964 1_554
Co13 O28 1.885445 1_555
Co13 O29 1.885445 1_554
Co13 O34 1.905007 1_555
Co13 O35 1.905007 1_554
Co13 O11 2.191964 1_554
Co13 O10 2.191964 1_555
Co14 O23 1.950005 1_555
Co14 O22 1.950005 1_555
Co14 O25 1.978152 1_555
Co14 O24 1.978152 1_555
Co14 O13 1.999874 1_555
Co14 O12 1.999874 1_555
Co15 O21 1.950005 1_555
Co15 O20 1.950005 1_555
Co15 O26 1.978152 1_555
Co15 O27 1.978152 1_555
Co15 O15 1.999874 1_555
Co15 O14 1.999874 1_555
