# generated using pymatgen
data_Mg14BSbO16
_symmetry_space_group_name_H-M   'P 1'
_cell_length_a   8.71397665
_cell_length_b   8.71397665
_cell_length_c   4.33425004
_cell_angle_alpha   90.00000000
_cell_angle_beta   90.00000000
_cell_angle_gamma   90.00000000
_symmetry_Int_Tables_number   1
_chemical_formula_structural   Mg14BSbO16
_chemical_formula_sum   'Mg14 B1 Sb1 O16'
_cell_volume   329.11429456
_cell_formula_units_Z   1
loop_
 _symmetry_equiv_pos_site_id
 _symmetry_equiv_pos_as_xyz
  1  'x, y, z'
loop_
 _atom_site_type_symbol
 _atom_site_label
 _atom_site_symmetry_multiplicity
 _atom_site_fract_x
 _atom_site_fract_y
 _atom_site_fract_z
 _atom_site_occupancy
  Mg  Mg0  1  -0.00000000  0.50000000  -0.00000000  1
  Mg  Mg1  1  0.50000000  -0.00000000  -0.00000000  1
  Mg  Mg2  1  -0.00000000  0.24312752  0.50000000  1
  Mg  Mg3  1  -0.00000000  0.75687248  0.50000000  1
  Mg  Mg4  1  0.50000000  0.23491602  0.50000000  1
  Mg  Mg5  1  0.50000000  0.76508398  0.50000000  1
  Mg  Mg6  1  0.24312752  -0.00000000  0.50000000  1
  Mg  Mg7  1  0.23491602  0.50000000  0.50000000  1
  Mg  Mg8  1  0.75687248  -0.00000000  0.50000000  1
  Mg  Mg9  1  0.76508398  0.50000000  0.50000000  1
  Mg  Mg10  1  0.23728813  0.23728813  0.00000000  1
  Mg  Mg11  1  0.23728813  0.76271187  -0.00000000  1
  Mg  Mg12  1  0.76271187  0.23728813  0.00000000  1
  Mg  Mg13  1  0.76271187  0.76271187  -0.00000000  1
  B  B0  1  -0.00000000  -0.00000000  -0.00000000  1
  Sb  Sb0  1  0.50000000  0.50000000  -0.00000000  1
  O  O0  1  0.26576075  -0.00000000  0.00000000  1
  O  O1  1  0.23935329  0.50000000  0.00000000  1
  O  O2  1  0.73423925  -0.00000000  -0.00000000  1
  O  O3  1  0.76064671  0.50000000  -0.00000000  1
  O  O4  1  0.25029851  0.25029851  0.50000000  1
  O  O5  1  0.25029851  0.74970149  0.50000000  1
  O  O6  1  0.74970149  0.25029851  0.50000000  1
  O  O7  1  0.74970149  0.74970149  0.50000000  1
  O  O8  1  -0.00000000  -0.00000000  0.50000000  1
  O  O9  1  -0.00000000  0.50000000  0.50000000  1
  O  O10  1  0.50000000  -0.00000000  0.50000000  1
  O  O11  1  0.50000000  0.50000000  0.50000000  1
  O  O12  1  -0.00000000  0.26576075  0.00000000  1
  O  O13  1  -0.00000000  0.73423925  -0.00000000  1
  O  O14  1  0.50000000  0.23935329  0.00000000  1
  O  O15  1  0.50000000  0.76064671  -0.00000000  1
loop_
_geom_bond_atom_site_label_1
_geom_bond_atom_site_label_2
_geom_bond_distance
_geom_bond_site_symmetry_2
Mg0 O13 2.041155 1_555
Mg0 O12 2.041155 1_555
Mg0 O3 2.085719 1_455
Mg0 O1 2.085719 1_555
Mg0 O9 2.167125 1_555
Mg0 O9 2.167125 1_554
Mg1 O2 2.041155 1_555
Mg1 O0 2.041155 1_555
Mg1 O15 2.085719 1_545
Mg1 O14 2.085719 1_555
Mg1 O10 2.167125 1_555
Mg1 O10 2.167125 1_554
Mg2 O8 2.118608 1_555
Mg2 O12 2.176081 1_555
Mg2 O12 2.176081 1_556
Mg2 O4 2.181990 1_555
Mg2 O6 2.181990 1_455
Mg2 O9 2.238381 1_555
Mg3 O8 2.118608 1_565
Mg3 O13 2.176081 1_555
Mg3 O13 2.176081 1_556
Mg3 O5 2.181990 1_555
Mg3 O7 2.181990 1_455
Mg3 O9 2.238381 1_555
Mg4 O10 2.047053 1_555
Mg4 O14 2.167470 1_556
Mg4 O14 2.167470 1_555
Mg4 O6 2.180018 1_555
Mg4 O4 2.180018 1_555
Mg4 O11 2.309936 1_555
Mg5 O10 2.047053 1_565
Mg5 O15 2.167470 1_555
Mg5 O15 2.167470 1_556
Mg5 O5 2.180018 1_555
Mg5 O7 2.180018 1_555
Mg5 O11 2.309936 1_555
Mg6 O8 2.118608 1_555
Mg6 O0 2.176081 1_555
Mg6 O0 2.176081 1_556
Mg6 O5 2.181990 1_545
Mg6 O4 2.181990 1_555
Mg6 O10 2.238381 1_555
Mg7 O9 2.047053 1_555
Mg7 O1 2.167470 1_555
Mg7 O1 2.167470 1_556
Mg7 O5 2.180018 1_555
Mg7 O4 2.180018 1_555
Mg7 O11 2.309936 1_555
Mg8 O8 2.118608 1_655
Mg8 O2 2.176081 1_556
Mg8 O2 2.176081 1_555
Mg8 O7 2.181990 1_545
Mg8 O6 2.181990 1_555
Mg8 O10 2.238381 1_555
Mg9 O9 2.047053 1_655
Mg9 O3 2.167470 1_556
Mg9 O3 2.167470 1_555
Mg9 O6 2.180018 1_555
Mg9 O7 2.180018 1_555
Mg9 O11 2.309936 1_555
Mg10 O0 2.082556 1_555
Mg10 O12 2.082556 1_555
Mg10 O4 2.173048 1_554
Mg10 O4 2.173048 1_555
Mg10 O1 2.289336 1_555
Mg10 O14 2.289336 1_555
Mg11 O0 2.082556 1_565
Mg11 O13 2.082556 1_555
Mg11 O5 2.173048 1_554
Mg11 O5 2.173048 1_555
Mg11 O15 2.289336 1_555
Mg11 O1 2.289336 1_555
Mg12 O12 2.082556 1_655
Mg12 O2 2.082556 1_555
Mg12 O6 2.173048 1_554
Mg12 O6 2.173048 1_555
Mg12 O3 2.289336 1_555
Mg12 O14 2.289336 1_555
Mg13 O2 2.082556 1_565
Mg13 O13 2.082556 1_655
Mg13 O7 2.173048 1_555
Mg13 O7 2.173048 1_554
Mg13 O15 2.289336 1_555
Mg13 O3 2.289336 1_555
B0 O8 2.167125 1_555
B0 O8 2.167125 1_554
O1 Sb0 2.271269 1_555
O3 Sb0 2.271269 1_555
O11 Sb0 2.167125 1_556
O11 Sb0 2.167125 1_555
O14 Sb0 2.271269 1_555
O15 Sb0 2.271269 1_555
