# generated using pymatgen
data_Li2FeO2
_symmetry_space_group_name_H-M   'P 1'
_cell_length_a   5.26224513
_cell_length_b   6.28351276
_cell_length_c   5.64844887
_cell_angle_alpha   93.70669507
_cell_angle_beta   91.35138578
_cell_angle_gamma   92.52753224
_symmetry_Int_Tables_number   1
_chemical_formula_structural   Li2FeO2
_chemical_formula_sum   'Li8 Fe4 O8'
_cell_volume   186.13064032
_cell_formula_units_Z   4
loop_
 _symmetry_equiv_pos_site_id
 _symmetry_equiv_pos_as_xyz
  1  'x, y, z'
loop_
 _atom_site_type_symbol
 _atom_site_label
 _atom_site_symmetry_multiplicity
 _atom_site_fract_x
 _atom_site_fract_y
 _atom_site_fract_z
 _atom_site_occupancy
  Li  Li0  1  0.63553200  0.24819100  0.16532900  1
  Li  Li1  1  0.63477000  0.49918600  0.66466500  1
  Li  Li2  1  0.63577400  0.74929000  0.16623500  1
  Li  Li3  1  0.63500600  0.99789500  0.66587100  1
  Li  Li4  1  0.36502500  0.25172200  0.83400400  1
  Li  Li5  1  0.36419700  0.50087300  0.33387100  1
  Li  Li6  1  0.36521700  0.75061800  0.83544800  1
  Li  Li7  1  0.36441400  0.00207500  0.33468200  1
  Fe  Fe0  1  0.00135400  0.99923200  0.99912600  1
  Fe  Fe1  1  0.99858400  0.25073600  0.50100400  1
  Fe  Fe2  1  0.99967700  0.49935100  0.99936700  1
  Fe  Fe3  1  0.00041400  0.75059700  0.50064500  1
  O  O0  1  0.24481600  0.23793600  0.15881600  1
  O  O1  1  0.24491300  0.48805800  0.65918900  1
  O  O2  1  0.24310800  0.73816700  0.15907300  1
  O  O3  1  0.24450300  0.98839800  0.65958100  1
  O  O4  1  0.75560400  0.26143500  0.84039300  1
  O  O5  1  0.75679500  0.51198300  0.34105100  1
  O  O6  1  0.75517800  0.76181900  0.84089000  1
  O  O7  1  0.75511800  0.01223700  0.34116100  1
loop_
_geom_bond_atom_site_label_1
_geom_bond_atom_site_label_2
_geom_bond_distance
_geom_bond_site_symmetry_2
Li0 O5 1.950363 1_555
Li0 O7 1.955447 1_555
Li0 O4 1.960766 1_554
Li0 O0 2.053597 1_555
Li1 O6 1.944549 1_555
Li1 O5 1.957009 1_555
Li1 O4 1.966485 1_555
Li1 O1 2.049065 1_555
Li2 O7 1.941306 1_565
Li2 O6 1.961359 1_554
Li2 O5 1.961764 1_555
Li2 O2 2.063756 1_555
Li3 O4 1.945104 1_565
Li3 O6 1.954608 1_555
Li3 O7 1.960255 1_565
Li3 O3 2.052559 1_555
Li4 O3 1.943653 1_545
Li4 O1 1.955186 1_555
Li4 O0 1.960656 1_556
Li4 O4 2.052932 1_555
Li5 O0 1.941635 1_555
Li5 O1 1.961156 1_555
Li5 O2 1.961767 1_555
Li5 O5 2.063399 1_555
Li6 O1 1.944117 1_555
Li6 O2 1.957034 1_556
Li6 O3 1.966843 1_555
Li6 O6 2.049609 1_555
Li7 O2 1.950726 1_545
Li7 O0 1.955104 1_555
Li7 O3 1.960522 1_545
Li7 O7 2.053544 1_555
Fe0 O6 2.074847 1_455
Fe0 O0 2.075030 1_566
Fe0 O3 2.329523 1_555
Fe0 O2 2.333889 1_556
Fe0 O4 2.348384 1_465
Fe0 O7 2.350565 1_466
Fe1 O7 2.074505 1_555
Fe1 O1 2.074830 1_655
Fe1 O4 2.328281 1_555
Fe1 O5 2.334868 1_555
Fe1 O3 2.349165 1_645
Fe1 O0 2.351266 1_655
Fe2 O4 2.072074 1_555
Fe2 O2 2.075439 1_656
Fe2 O1 2.338780 1_655
Fe2 O5 2.338842 1_556
Fe2 O0 2.344509 1_656
Fe2 O6 2.345273 1_555
Fe3 O3 2.071562 1_555
Fe3 O5 2.074925 1_455
Fe3 O2 2.337746 1_555
Fe3 O6 2.339094 1_455
Fe3 O1 2.345765 1_555
Fe3 O7 2.346124 1_465
