# generated using pymatgen
data_Ca2CoSi2O7
_symmetry_space_group_name_H-M   'P 1'
_cell_length_a   7.90945800
_cell_length_b   7.90945800
_cell_length_c   10.12681000
_cell_angle_alpha   90.00000000
_cell_angle_beta   90.00000000
_cell_angle_gamma   90.00000000
_symmetry_Int_Tables_number   1
_chemical_formula_structural   Ca2CoSi2O7
_chemical_formula_sum   'Ca8 Co4 Si8 O28'
_cell_volume   633.52843201
_cell_formula_units_Z   4
loop_
 _symmetry_equiv_pos_site_id
 _symmetry_equiv_pos_as_xyz
  1  'x, y, z'
loop_
 _atom_site_type_symbol
 _atom_site_label
 _atom_site_symmetry_multiplicity
 _atom_site_fract_x
 _atom_site_fract_y
 _atom_site_fract_z
 _atom_site_occupancy
  Ca  Ca0  1  0.17007700  0.67007800  0.24971100  1
  Ca  Ca1  1  0.17007700  0.67007800  0.74971100  1
  Ca  Ca2  1  0.82992200  0.32992200  0.24971100  1
  Ca  Ca3  1  0.82992200  0.32992200  0.74971100  1
  Ca  Ca4  1  0.67007800  0.82992200  0.25028900  1
  Ca  Ca5  1  0.67007800  0.82992200  0.75028900  1
  Ca  Ca6  1  0.32992200  0.17007700  0.25028900  1
  Ca  Ca7  1  0.32992200  0.17007700  0.75028900  1
  Co  Co0  1  0.50000000  0.50000000  0.50000000  1
  Co  Co1  1  0.00000000  0.00000000  0.00000000  1
  Co  Co2  1  0.50000000  0.50000000  0.00000000  1
  Co  Co3  1  0.00000000  0.00000000  0.50000000  1
  Si  Si0  1  0.85914000  0.64086000  0.46608300  1
  Si  Si1  1  0.85914000  0.64086000  0.96608300  1
  Si  Si2  1  0.64086000  0.14085900  0.03391700  1
  Si  Si3  1  0.64086000  0.14085900  0.53391700  1
  Si  Si4  1  0.35914000  0.85914000  0.03391700  1
  Si  Si5  1  0.35914000  0.85914000  0.53391700  1
  Si  Si6  1  0.14085900  0.35914000  0.46608300  1
  Si  Si7  1  0.14085900  0.35914000  0.96608300  1
  O  O0  1  0.50000000  0.00000000  0.09199100  1
  O  O1  1  0.50000000  0.00000000  0.59199100  1
  O  O2  1  0.00000000  0.50000000  0.40800900  1
  O  O3  1  0.00000000  0.50000000  0.90800900  1
  O  O4  1  0.85691300  0.64308800  0.12537900  1
  O  O5  1  0.85691300  0.64308800  0.62537900  1
  O  O6  1  0.64308800  0.14308800  0.37462100  1
  O  O7  1  0.64308800  0.14308800  0.87462200  1
  O  O8  1  0.35691200  0.85691300  0.37462100  1
  O  O9  1  0.35691200  0.85691300  0.87462200  1
  O  O10  1  0.14308800  0.35691200  0.12537900  1
  O  O11  1  0.14308800  0.35691200  0.62537900  1
  O  O12  1  0.68595500  0.58226800  0.38874400  1
  O  O13  1  0.68595500  0.58226800  0.88874400  1
  O  O14  1  0.31404600  0.41773200  0.38874400  1
  O  O15  1  0.31404600  0.41773200  0.88874400  1
  O  O16  1  0.41773200  0.68595500  0.11125500  1
  O  O17  1  0.41773200  0.68595500  0.61125500  1
  O  O18  1  0.58226800  0.31404600  0.11125500  1
  O  O19  1  0.58226800  0.31404600  0.61125500  1
  O  O20  1  0.91773100  0.81404500  0.38874400  1
  O  O21  1  0.91773100  0.81404500  0.88874400  1
  O  O22  1  0.81404500  0.08226900  0.11125500  1
  O  O23  1  0.81404500  0.08226900  0.61125500  1
  O  O24  1  0.18595400  0.91773100  0.11125500  1
  O  O25  1  0.18595400  0.91773100  0.61125500  1
  O  O26  1  0.08226900  0.18595400  0.38874400  1
  O  O27  1  0.08226900  0.18595400  0.88874400  1
loop_
_geom_bond_atom_site_label_1
_geom_bond_atom_site_label_2
_geom_bond_distance
_geom_bond_site_symmetry_2
Ca0 O24 2.412178 1_555
Ca0 O16 2.412191 1_555
Ca0 O8 2.442876 1_555
Ca0 O2 2.487774 1_555
Ca0 O20 2.694938 1_455
Ca0 O14 2.694945 1_555
Ca0 O4 2.786788 1_455
Ca0 O10 2.786802 1_555
Ca1 O25 2.412178 1_555
Ca1 O17 2.412191 1_555
Ca1 O9 2.442881 1_555
Ca1 O3 2.487774 1_555
Ca1 O21 2.694938 1_455
Ca1 O15 2.694945 1_555
Ca1 O5 2.786788 1_455
Ca1 O11 2.786802 1_555
Ca2 O22 2.412178 1_555
Ca2 O18 2.412185 1_555
Ca2 O6 2.442866 1_555
Ca2 O2 2.487778 1_655
Ca2 O12 2.694938 1_555
Ca2 O26 2.694947 1_655
Ca2 O10 2.786802 1_655
Ca2 O4 2.786803 1_555
Ca3 O23 2.412178 1_555
Ca3 O19 2.412185 1_555
Ca3 O7 2.442872 1_555
Ca3 O3 2.487778 1_655
Ca3 O13 2.694938 1_555
Ca3 O27 2.694947 1_655
Ca3 O11 2.786802 1_655
Ca3 O5 2.786803 1_555
Ca4 O20 2.412173 1_555
Ca4 O12 2.412179 1_555
Ca4 O4 2.442871 1_555
Ca4 O0 2.487778 1_565
Ca4 O16 2.694943 1_555
Ca4 O22 2.694949 1_565
Ca4 O6 2.786802 1_565
Ca4 O8 2.786803 1_555
Ca5 O21 2.412173 1_555
Ca5 O13 2.412179 1_555
Ca5 O5 2.442871 1_555
Ca5 O1 2.487778 1_565
Ca5 O17 2.694943 1_555
Ca5 O23 2.694949 1_565
Ca5 O7 2.786807 1_565
Ca5 O9 2.786808 1_555
Ca6 O26 2.412173 1_555
Ca6 O14 2.412185 1_555
Ca6 O10 2.442871 1_555
Ca6 O0 2.487774 1_555
Ca6 O24 2.694947 1_545
Ca6 O18 2.694950 1_555
Ca6 O8 2.786788 1_545
Ca6 O6 2.786802 1_555
Ca7 O27 2.412173 1_555
Ca7 O15 2.412185 1_555
Ca7 O11 2.442871 1_555
Ca7 O1 2.487774 1_555
Ca7 O25 2.694947 1_545
Ca7 O19 2.694950 1_555
Ca7 O9 2.786793 1_545
Ca7 O7 2.786806 1_555
Co0 O19 1.963671 1_555
Co0 O14 1.963676 1_555
Co0 O17 1.963677 1_555
Co0 O12 1.963682 1_555
Co1 O24 1.963673 1_545
Co1 O27 1.963679 1_554
Co1 O22 1.963679 1_455
Co1 O21 1.963685 1_444
Co2 O18 1.963671 1_555
Co2 O15 1.963676 1_554
Co2 O16 1.963677 1_555
Co2 O13 1.963682 1_554
Co3 O25 1.963673 1_545
Co3 O26 1.963679 1_555
Co3 O23 1.963679 1_455
Co3 O20 1.963685 1_445
O0 Si2 1.681786 1_555
O0 Si4 1.681791 1_545
O1 Si3 1.681786 1_555
O1 Si5 1.681791 1_545
O2 Si6 1.681786 1_555
O2 Si0 1.681791 1_455
O3 Si7 1.681786 1_555
O3 Si1 1.681791 1_455
O4 Si1 1.613353 1_554
O5 Si0 1.613353 1_555
O6 Si3 1.613353 1_555
O7 Si2 1.613343 1_556
O8 Si5 1.613353 1_555
O9 Si4 1.613343 1_556
O10 Si7 1.613353 1_554
O11 Si6 1.613353 1_555
O12 Si0 1.644542 1_555
O13 Si1 1.644542 1_555
O14 Si6 1.644555 1_555
O15 Si7 1.644555 1_555
O16 Si4 1.644537 1_555
O17 Si5 1.644537 1_555
O18 Si2 1.644550 1_555
O19 Si3 1.644550 1_555
O20 Si0 1.644539 1_555
O21 Si1 1.644539 1_555
O22 Si2 1.644532 1_555
O23 Si3 1.644532 1_555
O24 Si4 1.644541 1_555
O25 Si5 1.644541 1_555
O26 Si6 1.644544 1_555
O27 Si7 1.644544 1_555
