# generated using pymatgen
data_ZrInPt2
_symmetry_space_group_name_H-M   'P 1'
_cell_length_a   3.40017200
_cell_length_b   3.40017200
_cell_length_c   6.60780600
_cell_angle_alpha   90.00000000
_cell_angle_beta   90.00000000
_cell_angle_gamma   90.00000000
_symmetry_Int_Tables_number   1
_chemical_formula_structural   ZrInPt2
_chemical_formula_sum   'Zr1 In1 Pt2'
_cell_volume   76.39396605
_cell_formula_units_Z   1
loop_
 _symmetry_equiv_pos_site_id
 _symmetry_equiv_pos_as_xyz
  1  'x, y, z'
loop_
 _atom_site_type_symbol
 _atom_site_label
 _atom_site_symmetry_multiplicity
 _atom_site_fract_x
 _atom_site_fract_y
 _atom_site_fract_z
 _atom_site_occupancy
  Zr  Zr0  1  0.00000000  0.00000000  0.50000000  1
  In  In0  1  0.00000000  0.00000000  0.00000000  1
  Pt  Pt0  1  0.50000000  0.50000000  0.27143300  1
  Pt  Pt1  1  0.50000000  0.50000000  0.72856700  1
loop_
_geom_bond_atom_site_label_1
_geom_bond_atom_site_label_2
_geom_bond_distance
_geom_bond_site_symmetry_2
In0 Pt0 2.999584 1_455
In0 Pt0 2.999584 1_555
In0 Pt0 2.999584 1_445
In0 Pt0 2.999584 1_545
In0 Pt1 2.999584 1_544
In0 Pt1 2.999584 1_444
In0 Pt1 2.999584 1_454
In0 Pt1 2.999584 1_554
Pt0 Zr0 2.839308 1_555
Pt0 Zr0 2.839308 1_655
Pt0 Zr0 2.839308 1_565
Pt0 Zr0 2.839308 1_665
Pt1 Zr0 2.839308 1_555
Pt1 Zr0 2.839308 1_655
Pt1 Zr0 2.839308 1_565
Pt1 Zr0 2.839308 1_665
