# generated using pymatgen
data_Sm5Si3NO12
_symmetry_space_group_name_H-M   'P 1'
_cell_length_a   9.64503806
_cell_length_b   9.64503806
_cell_length_c   6.99613100
_cell_angle_alpha   90.00000000
_cell_angle_beta   90.00000000
_cell_angle_gamma   120.00000042
_symmetry_Int_Tables_number   1
_chemical_formula_structural   Sm5Si3NO12
_chemical_formula_sum   'Sm10 Si6 N2 O24'
_cell_volume   563.63305426
_cell_formula_units_Z   2
loop_
 _symmetry_equiv_pos_site_id
 _symmetry_equiv_pos_as_xyz
  1  'x, y, z'
loop_
 _atom_site_type_symbol
 _atom_site_label
 _atom_site_symmetry_multiplicity
 _atom_site_fract_x
 _atom_site_fract_y
 _atom_site_fract_z
 _atom_site_occupancy
  Sm  Sm0  1  0.33333300  0.66666700  0.50071800  1
  Sm  Sm1  1  0.66666700  0.33333300  0.49928200  1
  Sm  Sm2  1  0.66666700  0.33333300  0.00071800  1
  Sm  Sm3  1  0.33333300  0.66666700  0.99928200  1
  Sm  Sm4  1  0.22902100  0.23034600  0.75000000  1
  Sm  Sm5  1  0.77097900  0.76965400  0.25000000  1
  Sm  Sm6  1  0.76965400  0.99867500  0.75000000  1
  Sm  Sm7  1  0.23034600  0.00132500  0.25000000  1
  Sm  Sm8  1  0.00132500  0.77097900  0.75000000  1
  Sm  Sm9  1  0.99867500  0.22902100  0.25000000  1
  Si  Si0  1  0.40695300  0.03419700  0.75000000  1
  Si  Si1  1  0.59304700  0.96580300  0.25000000  1
  Si  Si2  1  0.96580300  0.37275500  0.75000000  1
  Si  Si3  1  0.03419700  0.62724500  0.25000000  1
  Si  Si4  1  0.62724500  0.59304700  0.75000000  1
  Si  Si5  1  0.37275500  0.40695300  0.25000000  1
  N  N0  1  0.00000000  0.00000000  0.75000000  1
  N  N1  1  0.00000000  0.00000000  0.25000000  1
  O  O0  1  0.16010900  0.49324800  0.75000000  1
  O  O1  1  0.83989100  0.50675200  0.25000000  1
  O  O2  1  0.50675200  0.66686100  0.75000000  1
  O  O3  1  0.49324800  0.33313900  0.25000000  1
  O  O4  1  0.33313900  0.83989100  0.75000000  1
  O  O5  1  0.66686100  0.16010900  0.25000000  1
  O  O6  1  0.60426600  0.13599500  0.75000000  1
  O  O7  1  0.39573400  0.86400500  0.25000000  1
  O  O8  1  0.86400500  0.46827100  0.75000000  1
  O  O9  1  0.13599500  0.53172900  0.25000000  1
  O  O10  1  0.53172900  0.39573400  0.75000000  1
  O  O11  1  0.46827100  0.60426600  0.25000000  1
  O  O12  1  0.35253800  0.09607900  0.55970300  1
  O  O13  1  0.64746200  0.90392100  0.44029700  1
  O  O14  1  0.90392100  0.25646000  0.55970300  1
  O  O15  1  0.64746200  0.90392100  0.05970300  1
  O  O16  1  0.09607900  0.74354000  0.44029700  1
  O  O17  1  0.35253800  0.09607900  0.94029700  1
  O  O18  1  0.74354000  0.64746200  0.55970300  1
  O  O19  1  0.09607900  0.74354000  0.05970300  1
  O  O20  1  0.25646000  0.35253800  0.44029700  1
  O  O21  1  0.90392100  0.25646000  0.94029700  1
  O  O22  1  0.25646000  0.35253800  0.05970300  1
  O  O23  1  0.74354000  0.64746200  0.94029700  1
loop_
_geom_bond_atom_site_label_1
_geom_bond_atom_site_label_2
_geom_bond_distance
_geom_bond_site_symmetry_2
N0 Sm4 2.215334 1_555
N0 Sm6 2.215334 1_445
N0 Sm8 2.215334 1_545
N1 Sm5 2.215334 1_445
N1 Sm7 2.215334 1_555
N1 Sm9 2.215334 1_455
O0 Si2 1.638546 1_455
O0 Sm0 2.415808 1_555
O0 Sm3 2.415808 1_555
O0 Sm4 2.925221 1_555
O1 Si3 1.638546 1_655
O1 Sm2 2.415808 1_555
O1 Sm1 2.415808 1_555
O1 Sm5 2.925221 1_555
O2 Si4 1.638554 1_555
O2 Sm3 2.415811 1_555
O2 Sm0 2.415811 1_555
O2 Sm6 2.925221 1_555
O3 Si5 1.638554 1_555
O3 Sm2 2.415811 1_555
O3 Sm1 2.415811 1_555
O3 Sm7 2.925221 1_555
O4 Si0 1.638545 1_565
O4 Sm3 2.415805 1_555
O4 Sm0 2.415805 1_555
O4 Sm8 2.925221 1_555
O5 Si1 1.638545 1_545
O5 Sm2 2.415805 1_555
O5 Sm1 2.415805 1_555
O5 Sm9 2.925221 1_555
O6 Si0 1.648404 1_555
O6 Sm1 2.432300 1_555
O6 Sm2 2.432300 1_556
O6 Sm6 2.532094 1_545
O7 Si1 1.648404 1_555
O7 Sm3 2.432300 1_554
O7 Sm0 2.432300 1_555
O7 Sm7 2.532094 1_565
O8 Si2 1.648412 1_555
O8 Sm1 2.432301 1_555
O8 Sm2 2.432301 1_556
O8 Sm8 2.532094 1_655
O9 Si3 1.648412 1_555
O9 Sm0 2.432301 1_555
O9 Sm3 2.432301 1_554
O9 Sm9 2.532094 1_455
O10 Si4 1.648404 1_555
O10 Sm1 2.432306 1_555
O10 Sm2 2.432306 1_556
O10 Sm4 2.532094 1_555
O11 Si5 1.648404 1_555
O11 Sm3 2.432306 1_554
O11 Sm0 2.432306 1_555
O11 Sm5 2.532094 1_555
O12 Si0 1.648457 1_555
O12 Sm7 2.416982 1_555
O12 Sm4 2.532106 1_555
O12 Sm1 2.767957 1_555
O13 Si1 1.648457 1_555
O13 Sm6 2.416982 1_555
O13 Sm5 2.532106 1_555
O13 Sm0 2.767957 1_555
O14 Si2 1.648447 1_555
O14 Sm9 2.416985 1_555
O14 Sm6 2.532113 1_545
O14 Sm1 2.767944 1_555
O15 Si1 1.648457 1_555
O15 Sm6 2.416982 1_554
O15 Sm5 2.532106 1_555
O15 Sm3 2.767957 1_554
O16 Si3 1.648447 1_555
O16 Sm8 2.416985 1_555
O16 Sm7 2.532113 1_565
O16 Sm0 2.767944 1_555
O17 Si0 1.648457 1_555
O17 Sm7 2.416982 1_556
O17 Sm4 2.532106 1_555
O17 Sm2 2.767957 1_556
O18 Si4 1.648447 1_555
O18 Sm5 2.416981 1_555
O18 Sm8 2.532114 1_655
O18 Sm1 2.767962 1_555
O19 Si3 1.648447 1_555
O19 Sm8 2.416985 1_554
O19 Sm7 2.532113 1_565
O19 Sm3 2.767944 1_554
O20 Si5 1.648447 1_555
O20 Sm4 2.416981 1_555
O20 Sm9 2.532114 1_455
O20 Sm0 2.767962 1_555
O21 Si2 1.648447 1_555
O21 Sm9 2.416985 1_556
O21 Sm6 2.532113 1_545
O21 Sm2 2.767944 1_556
O22 Si5 1.648447 1_555
O22 Sm4 2.416981 1_554
O22 Sm9 2.532114 1_455
O22 Sm3 2.767962 1_554
O23 Si4 1.648447 1_555
O23 Sm5 2.416981 1_556
O23 Sm8 2.532114 1_655
O23 Sm2 2.767962 1_556
