# generated using pymatgen
data_BaPb3
_symmetry_space_group_name_H-M   'P 1'
_cell_length_a   5.12377908
_cell_length_b   5.12377908
_cell_length_c   5.12377908
_cell_angle_alpha   90.00000000
_cell_angle_beta   90.00000000
_cell_angle_gamma   90.00000000
_symmetry_Int_Tables_number   1
_chemical_formula_structural   BaPb3
_chemical_formula_sum   'Ba1 Pb3'
_cell_volume   134.51514636
_cell_formula_units_Z   1
loop_
 _symmetry_equiv_pos_site_id
 _symmetry_equiv_pos_as_xyz
  1  'x, y, z'
loop_
 _atom_site_type_symbol
 _atom_site_label
 _atom_site_symmetry_multiplicity
 _atom_site_fract_x
 _atom_site_fract_y
 _atom_site_fract_z
 _atom_site_occupancy
  Ba  Ba0  1  -0.00000000  0.00000000  -0.00000000  1
  Pb  Pb0  1  -0.00000000  0.50000000  0.50000000  1
  Pb  Pb1  1  0.50000000  -0.00000000  0.50000000  1
  Pb  Pb2  1  0.50000000  0.50000000  -0.00000000  1
loop_
_geom_bond_atom_site_label_1
_geom_bond_atom_site_label_2
_geom_bond_distance
_geom_bond_site_symmetry_2
Ba0 Pb2 3.623059 1_455
Ba0 Pb0 3.623059 1_544
Ba0 Pb0 3.623059 1_555
Ba0 Pb2 3.623059 1_545
Ba0 Pb1 3.623059 1_554
Ba0 Pb2 3.623059 1_555
Ba0 Pb0 3.623059 1_545
Ba0 Pb1 3.623059 1_454
Ba0 Pb1 3.623059 1_555
Ba0 Pb2 3.623059 1_445
Ba0 Pb1 3.623059 1_455
Ba0 Pb0 3.623059 1_554
Pb0 Pb2 3.623059 1_455
Pb0 Pb2 3.623059 1_556
Pb0 Pb1 3.623059 1_555
Pb0 Pb1 3.623059 1_565
Pb0 Pb1 3.623059 1_465
Pb0 Pb2 3.623059 1_555
Pb0 Pb1 3.623059 1_455
Pb0 Pb2 3.623059 1_456
Pb1 Pb2 3.623059 1_545
Pb1 Pb2 3.623059 1_556
Pb1 Pb2 3.623059 1_546
Pb1 Pb2 3.623059 1_555
