# generated using pymatgen
data_CaSnS3
_symmetry_space_group_name_H-M   'P 1'
_cell_length_a   8.84125859
_cell_length_b   8.84125859
_cell_length_c   25.19747835
_cell_angle_alpha   89.67706098
_cell_angle_beta   89.67706098
_cell_angle_gamma   120.29425912
_symmetry_Int_Tables_number   1
_chemical_formula_structural   CaSnS3
_chemical_formula_sum   'Ca12 Sn12 S36'
_cell_volume   1700.56272814
_cell_formula_units_Z   12
loop_
 _symmetry_equiv_pos_site_id
 _symmetry_equiv_pos_as_xyz
  1  'x, y, z'
loop_
 _atom_site_type_symbol
 _atom_site_label
 _atom_site_symmetry_multiplicity
 _atom_site_fract_x
 _atom_site_fract_y
 _atom_site_fract_z
 _atom_site_occupancy
  Ca  Ca0  1  0.00000000  0.00000000  0.50000000  1
  Ca  Ca1  1  0.66690000  0.32173100  0.49893500  1
  Ca  Ca2  1  0.33310000  0.67826900  0.50106500  1
  Ca  Ca3  1  0.99203100  0.00796900  0.25000000  1
  Ca  Ca4  1  0.00796900  0.99203100  0.75000000  1
  Ca  Ca5  1  0.66929100  0.33070900  0.25000000  1
  Ca  Ca6  1  0.33070900  0.66929100  0.75000000  1
  Ca  Ca7  1  0.32041800  0.67958200  0.25000000  1
  Ca  Ca8  1  0.67958200  0.32041800  0.75000000  1
  Ca  Ca9  1  0.00000000  0.00000000  0.00000000  1
  Ca  Ca10  1  0.67826900  0.33310000  0.00106500  1
  Ca  Ca11  1  0.32173100  0.66690000  0.99893500  1
  Sn  Sn0  1  0.67220300  0.72495600  0.37525300  1
  Sn  Sn1  1  0.32779700  0.27504400  0.62474700  1
  Sn  Sn2  1  0.38584400  0.99513900  0.37801100  1
  Sn  Sn3  1  0.61415600  0.00486100  0.62198900  1
  Sn  Sn4  1  0.94132800  0.28255000  0.37116400  1
  Sn  Sn5  1  0.05867200  0.71745000  0.62883600  1
  Sn  Sn6  1  0.71745000  0.05867200  0.12883600  1
  Sn  Sn7  1  0.28255000  0.94132800  0.87116400  1
  Sn  Sn8  1  0.27504400  0.32779700  0.12474700  1
  Sn  Sn9  1  0.72495600  0.67220300  0.87525300  1
  Sn  Sn10  1  0.00486100  0.61415600  0.12198900  1
  Sn  Sn11  1  0.99513900  0.38584400  0.87801100  1
  S  S0  1  0.68428100  0.64617600  0.46383300  1
  S  S1  1  0.31571900  0.35382400  0.53616700  1
  S  S2  1  0.31058700  0.99719200  0.46852900  1
  S  S3  1  0.68941300  0.00280800  0.53147100  1
  S  S4  1  0.02564600  0.37371400  0.45887400  1
  S  S5  1  0.97435400  0.62628600  0.54112600  1
  S  S6  1  0.67400200  0.64421000  0.28685100  1
  S  S7  1  0.32599800  0.35579000  0.71314900  1
  S  S8  1  0.28927800  0.98664300  0.29047700  1
  S  S9  1  0.71072200  0.01335700  0.70952300  1
  S  S10  1  0.01456600  0.36085900  0.28025600  1
  S  S11  1  0.98543400  0.63914100  0.71974400  1
  S  S12  1  0.63914100  0.98543400  0.21974400  1
  S  S13  1  0.36085900  0.01456600  0.78025600  1
  S  S14  1  0.35579000  0.32599800  0.21314900  1
  S  S15  1  0.64421000  0.67400200  0.78685100  1
  S  S16  1  0.01335700  0.71072200  0.20952300  1
  S  S17  1  0.98664300  0.28927800  0.79047700  1
  S  S18  1  0.62628600  0.97435400  0.04112600  1
  S  S19  1  0.37371400  0.02564600  0.95887400  1
  S  S20  1  0.35382400  0.31571900  0.03616700  1
  S  S21  1  0.64617600  0.68428100  0.96383300  1
  S  S22  1  0.00280800  0.68941300  0.03147100  1
  S  S23  1  0.99719200  0.31058700  0.96852900  1
  S  S24  1  0.38710700  0.71678800  0.37691500  1
  S  S25  1  0.61289300  0.28321200  0.62308500  1
  S  S26  1  0.95270200  0.01007900  0.37353200  1
  S  S27  1  0.04729800  0.98992100  0.62646800  1
  S  S28  1  0.66035400  0.28082000  0.37379500  1
  S  S29  1  0.33964600  0.71918000  0.62620500  1
  S  S30  1  0.98992100  0.04729800  0.12646800  1
  S  S31  1  0.01007900  0.95270200  0.87353200  1
  S  S32  1  0.71918000  0.33964600  0.12620500  1
  S  S33  1  0.28082000  0.66035400  0.87379500  1
  S  S34  1  0.28321200  0.61289300  0.12308500  1
  S  S35  1  0.71678800  0.38710700  0.87691500  1
loop_
_geom_bond_atom_site_label_1
_geom_bond_atom_site_label_2
_geom_bond_distance
_geom_bond_site_symmetry_2
Ca0 S2 2.866062 1_545
Ca0 S3 2.866062 1_455
Ca0 S1 3.107941 1_555
Ca0 S0 3.107941 1_445
Ca0 S27 3.222906 1_545
Ca0 S26 3.222906 1_455
Ca0 S5 3.353398 1_445
Ca0 S4 3.353398 1_555
Ca1 S5 2.906899 1_555
Ca1 S0 2.925641 1_555
Ca1 S3 3.033865 1_555
Ca1 S2 3.110746 1_545
Ca1 S4 3.127026 1_655
Ca1 S25 3.152321 1_555
Ca1 S28 3.173440 1_555
Ca1 S1 3.385249 1_555
Ca2 S4 2.906899 1_555
Ca2 S1 2.925641 1_555
Ca2 S2 3.033865 1_555
Ca2 S3 3.110746 1_565
Ca2 S5 3.127026 1_455
Ca2 S24 3.152321 1_555
Ca2 S29 3.173440 1_555
Ca2 S0 3.385249 1_555
Ca3 S16 2.917246 1_645
Ca3 S8 2.917246 1_645
Ca3 S12 3.123563 1_545
Ca3 S10 3.123563 1_655
Ca3 S26 3.131313 1_555
Ca3 S30 3.131313 1_555
Ca3 S6 3.150425 1_545
Ca3 S14 3.150425 1_655
Ca4 S9 2.917246 1_465
Ca4 S17 2.917246 1_465
Ca4 S11 3.123563 1_455
Ca4 S13 3.123563 1_565
Ca4 S27 3.131313 1_555
Ca4 S31 3.131313 1_555
Ca4 S15 3.150425 1_455
Ca4 S7 3.150425 1_565
Ca5 S6 2.908519 1_555
Ca5 S14 2.908519 1_555
Ca5 S10 3.029621 1_655
Ca5 S12 3.029621 1_545
Ca5 S28 3.142851 1_555
Ca5 S32 3.142851 1_555
Ca5 S16 3.346232 1_655
Ca5 S8 3.346232 1_545
Ca6 S15 2.908519 1_555
Ca6 S7 2.908519 1_555
Ca6 S13 3.029621 1_565
Ca6 S11 3.029621 1_455
Ca6 S29 3.142851 1_555
Ca6 S33 3.142851 1_555
Ca6 S9 3.346232 1_565
Ca6 S17 3.346232 1_455
Ca7 S12 2.845873 1_555
Ca7 S10 2.845873 1_555
Ca7 S8 3.044392 1_555
Ca7 S16 3.044392 1_555
Ca7 S34 3.243470 1_555
Ca7 S24 3.243470 1_555
Ca7 S6 3.427603 1_555
Ca7 S14 3.427603 1_555
Ca8 S11 2.845873 1_555
Ca8 S13 2.845873 1_555
Ca8 S17 3.044392 1_555
Ca8 S9 3.044392 1_555
Ca8 S25 3.243470 1_555
Ca8 S35 3.243470 1_555
Ca8 S15 3.427603 1_555
Ca8 S7 3.427603 1_555
Ca9 S23 2.866062 1_454
Ca9 S22 2.866062 1_545
Ca9 S20 3.107941 1_555
Ca9 S21 3.107941 1_444
Ca9 S30 3.222906 1_455
Ca9 S31 3.222906 1_544
Ca9 S18 3.353398 1_445
Ca9 S19 3.353398 1_554
Ca10 S19 2.906899 1_554
Ca10 S20 2.925641 1_555
Ca10 S23 3.033865 1_554
Ca10 S22 3.110746 1_655
Ca10 S18 3.127026 1_545
Ca10 S35 3.152321 1_554
Ca10 S32 3.173440 1_555
Ca10 S21 3.385249 1_554
Ca11 S18 2.906899 1_556
Ca11 S21 2.925641 1_555
Ca11 S22 3.033865 1_556
Ca11 S23 3.110746 1_455
Ca11 S19 3.127026 1_565
Ca11 S34 3.152321 1_556
Ca11 S33 3.173440 1_555
Ca11 S20 3.385249 1_556
S0 Sn0 2.353407 1_555
S1 Sn1 2.353407 1_555
S2 Sn2 2.375026 1_555
S3 Sn3 2.375026 1_555
S4 Sn4 2.349947 1_455
S5 Sn5 2.349947 1_655
S6 Sn0 2.345351 1_555
S7 Sn1 2.345351 1_555
S8 Sn2 2.357495 1_555
S9 Sn3 2.357495 1_555
S10 Sn4 2.378829 1_455
S11 Sn5 2.378829 1_655
S12 Sn6 2.378829 1_565
S13 Sn7 2.378829 1_545
S14 Sn8 2.345351 1_555
S15 Sn9 2.345351 1_555
S16 Sn10 2.357495 1_555
S17 Sn11 2.357495 1_555
S18 Sn6 2.349947 1_565
S19 Sn7 2.349947 1_545
S20 Sn8 2.353407 1_555
S21 Sn9 2.353407 1_555
S22 Sn10 2.375026 1_555
S23 Sn11 2.375026 1_555
S24 Sn2 2.466934 1_555
S24 Sn0 2.485068 1_555
S25 Sn3 2.466934 1_555
S25 Sn1 2.485068 1_555
S26 Sn4 2.461653 1_555
S26 Sn0 2.489415 1_545
S27 Sn5 2.461653 1_555
S27 Sn1 2.489415 1_565
S28 Sn2 2.467947 1_545
S28 Sn4 2.476994 1_555
S29 Sn3 2.467947 1_565
S29 Sn5 2.476994 1_555
S30 Sn6 2.461653 1_555
S30 Sn8 2.489415 1_655
S31 Sn7 2.461653 1_555
S31 Sn9 2.489415 1_455
S32 Sn10 2.467947 1_655
S32 Sn6 2.476994 1_555
S33 Sn11 2.467947 1_455
S33 Sn7 2.476994 1_555
S34 Sn10 2.466934 1_555
S34 Sn8 2.485068 1_555
S35 Sn11 2.466934 1_555
S35 Sn9 2.485068 1_555
