# generated using pymatgen
data_Ca4Sm2Cu3(ClO2)4
_symmetry_space_group_name_H-M   'P 1'
_cell_length_a   21.69838401
_cell_length_b   21.69838401
_cell_length_c   21.69838401
_cell_angle_alpha   169.67797475
_cell_angle_beta   169.67797475
_cell_angle_gamma   14.61742564
_symmetry_Int_Tables_number   1
_chemical_formula_structural   Ca4Sm2Cu3(ClO2)4
_chemical_formula_sum   'Ca4 Sm2 Cu3 Cl4 O8'
_cell_volume   327.98110304
_cell_formula_units_Z   1
loop_
 _symmetry_equiv_pos_site_id
 _symmetry_equiv_pos_as_xyz
  1  'x, y, z'
loop_
 _atom_site_type_symbol
 _atom_site_label
 _atom_site_symmetry_multiplicity
 _atom_site_fract_x
 _atom_site_fract_y
 _atom_site_fract_z
 _atom_site_occupancy
  Ca  Ca0  1  0.46315400  0.46315400  0.00000000  1
  Ca  Ca1  1  0.53684600  0.53684600  0.00000000  1
  Ca  Ca2  1  0.14375400  0.14375400  0.00000000  1
  Ca  Ca3  1  0.85624600  0.85624600  0.00000000  1
  Sm  Sm0  1  0.22188500  0.22188500  0.00000000  1
  Sm  Sm1  1  0.77811500  0.77811500  0.00000000  1
  Cu  Cu0  1  0.32005100  0.32005100  0.00000000  1
  Cu  Cu1  1  0.67994900  0.67994900  0.00000000  1
  Cu  Cu2  1  0.00000000  0.00000000  0.00000000  1
  Cl  Cl0  1  0.38468400  0.38468400  0.00000000  1
  Cl  Cl1  1  0.61531600  0.61531600  0.00000000  1
  Cl  Cl2  1  0.06453200  0.06453200  0.00000000  1
  Cl  Cl3  1  0.93546800  0.93546800  0.00000000  1
  O  O0  1  0.50000000  0.00000000  0.50000000  1
  O  O1  1  0.00000000  0.50000000  0.50000000  1
  O  O2  1  0.75000000  0.25000000  0.50000000  1
  O  O3  1  0.25000000  0.75000000  0.50000000  1
  O  O4  1  0.67903800  0.17903800  0.50000000  1
  O  O5  1  0.32096200  0.82096200  0.50000000  1
  O  O6  1  0.17903800  0.67903800  0.50000000  1
  O  O7  1  0.82096200  0.32096200  0.50000000  1
loop_
_geom_bond_atom_site_label_1
_geom_bond_atom_site_label_2
_geom_bond_distance
_geom_bond_site_symmetry_2
Ca0 O0 2.515002 1_554
Ca0 O1 2.515002 1_554
Ca0 O1 2.515002 1_655
Ca0 O0 2.515002 1_565
Ca0 Cl3 3.006632 1_444
Ca0 Cl3 3.006632 1_455
Ca0 Cl3 3.006632 1_545
Ca0 Cl3 3.006632 1_556
Ca0 Cl0 3.377676 1_555
Ca1 O0 2.515002 1_565
Ca1 O0 2.515002 1_554
Ca1 O1 2.515002 1_554
Ca1 O1 2.515002 1_655
Ca1 Cl2 3.006632 1_666
Ca1 Cl2 3.006632 1_565
Ca1 Cl2 3.006632 1_655
Ca1 Cl2 3.006632 1_554
Ca1 Cl1 3.377676 1_555
Ca2 O6 2.473153 1_555
Ca2 O4 2.473153 1_555
Ca2 O6 2.473153 1_544
Ca2 O4 2.473153 1_454
Ca2 Cl1 3.019609 1_444
Ca2 Cl1 3.019609 1_455
Ca2 Cl1 3.019609 1_545
Ca2 Cl1 3.019609 1_556
Ca2 Cl2 3.410046 1_555
Ca3 O7 2.473153 1_565
Ca3 O5 2.473153 1_655
Ca3 O7 2.473153 1_554
Ca3 O5 2.473153 1_554
Ca3 Cl0 3.019609 1_554
Ca3 Cl0 3.019609 1_565
Ca3 Cl0 3.019609 1_655
Ca3 Cl0 3.019609 1_666
Ca3 Cl3 3.410046 1_555
Cu0 O7 1.952270 1_454
Cu0 O5 1.952270 1_544
Cu0 O5 1.952270 1_555
Cu0 O7 1.952270 1_555
Cu1 O4 1.952270 1_554
Cu1 O6 1.952270 1_554
Cu1 O6 1.952270 1_655
Cu1 O4 1.952270 1_565
Cu2 O1 1.951876 1_555
Cu2 O0 1.951876 1_454
Cu2 O1 1.951876 1_544
Cu2 O0 1.951876 1_555
Cl0 Cu0 2.782074 1_555
Cl1 Cu1 2.782074 1_555
Cl2 Cu2 2.777727 1_555
Cl3 Cu2 2.777727 1_665
O2 Sm1 2.296600 1_556
O2 Sm1 2.296600 1_545
O2 Sm0 2.296600 1_555
O2 Sm0 2.296600 1_656
O3 Sm0 2.296600 1_555
O3 Sm0 2.296600 1_566
O3 Sm1 2.296600 1_455
O3 Sm1 2.296600 1_556
O4 Sm0 2.685389 1_555
O4 Sm0 2.685389 1_656
O5 Sm1 2.685389 1_455
O5 Sm1 2.685389 1_556
O6 Sm0 2.685389 1_555
O6 Sm0 2.685389 1_566
O7 Sm1 2.685389 1_545
O7 Sm1 2.685389 1_556
