# generated using pymatgen
data_V2Ag(PO5)2
_symmetry_space_group_name_H-M   'P 1'
_cell_length_a   5.30821666
_cell_length_b   8.21994400
_cell_length_c   17.26434924
_cell_angle_alpha   90.00000000
_cell_angle_beta   91.69809459
_cell_angle_gamma   90.00000000
_symmetry_Int_Tables_number   1
_chemical_formula_structural   V2Ag(PO5)2
_chemical_formula_sum   'V8 Ag4 P8 O40'
_cell_volume   752.96874350
_cell_formula_units_Z   4
loop_
 _symmetry_equiv_pos_site_id
 _symmetry_equiv_pos_as_xyz
  1  'x, y, z'
loop_
 _atom_site_type_symbol
 _atom_site_label
 _atom_site_symmetry_multiplicity
 _atom_site_fract_x
 _atom_site_fract_y
 _atom_site_fract_z
 _atom_site_occupancy
  V  V0  1  0.14490300  0.63247100  0.57065900  1
  V  V1  1  0.85509700  0.13247100  0.92934100  1
  V  V2  1  0.85509700  0.36752900  0.42934100  1
  V  V3  1  0.14490300  0.86752900  0.07065900  1
  V  V4  1  0.46584500  0.46778800  0.85312200  1
  V  V5  1  0.53415500  0.96778800  0.64687800  1
  V  V6  1  0.53415500  0.53221200  0.14687800  1
  V  V7  1  0.46584500  0.03221200  0.35312200  1
  Ag  Ag0  1  0.06620400  0.28758300  0.68722300  1
  Ag  Ag1  1  0.93379600  0.78758300  0.81277700  1
  Ag  Ag2  1  0.93379600  0.71241700  0.31277700  1
  Ag  Ag3  1  0.06620400  0.21241700  0.18722300  1
  P  P0  1  0.36716700  0.23512000  0.51597100  1
  P  P1  1  0.63283300  0.73512000  0.98402900  1
  P  P2  1  0.63283300  0.76488000  0.48402900  1
  P  P3  1  0.36716700  0.26488000  0.01597100  1
  P  P4  1  0.35672900  0.07777500  0.81723300  1
  P  P5  1  0.64327100  0.57777500  0.68276700  1
  P  P6  1  0.64327100  0.92222500  0.18276700  1
  P  P7  1  0.35672900  0.42222500  0.31723300  1
  O  O0  1  0.18379900  0.81332000  0.61089100  1
  O  O1  1  0.81620100  0.31332000  0.88910900  1
  O  O2  1  0.81620100  0.18668000  0.38910900  1
  O  O3  1  0.18379900  0.68668000  0.11089100  1
  O  O4  1  0.86282800  0.64694700  0.48742200  1
  O  O5  1  0.13717200  0.14694700  0.01257800  1
  O  O6  1  0.13717200  0.35305300  0.51257800  1
  O  O7  1  0.86282800  0.85305300  0.98742200  1
  O  O8  1  0.88299600  0.53021100  0.63977700  1
  O  O9  1  0.11700400  0.03021100  0.86022300  1
  O  O10  1  0.11700400  0.46978900  0.36022300  1
  O  O11  1  0.88299600  0.96978900  0.13977700  1
  O  O12  1  0.38310100  0.67302200  0.48623700  1
  O  O13  1  0.61689900  0.17302200  0.01376300  1
  O  O14  1  0.61689900  0.32697800  0.51376300  1
  O  O15  1  0.38310100  0.82697800  0.98623700  1
  O  O16  1  0.39939700  0.52043300  0.64150500  1
  O  O17  1  0.60060300  0.02043300  0.85849500  1
  O  O18  1  0.60060300  0.47956700  0.35849500  1
  O  O19  1  0.39939700  0.97956700  0.14150500  1
  O  O20  1  0.22514000  0.57842000  0.82426200  1
  O  O21  1  0.77486000  0.07842000  0.67573800  1
  O  O22  1  0.77486000  0.42158000  0.17573800  1
  O  O23  1  0.22514000  0.92158000  0.32426200  1
  O  O24  1  0.35562400  0.26542200  0.80300400  1
  O  O25  1  0.64437600  0.76542200  0.69699600  1
  O  O26  1  0.64437600  0.73457800  0.19699600  1
  O  O27  1  0.35562400  0.23457800  0.30300400  1
  O  O28  1  0.67264000  0.49711400  0.76451300  1
  O  O29  1  0.32736000  0.99711400  0.73548700  1
  O  O30  1  0.32736000  0.50288600  0.23548700  1
  O  O31  1  0.67264000  0.00288600  0.26451300  1
  O  O32  1  0.65475600  0.63750500  0.90679500  1
  O  O33  1  0.34524400  0.13750500  0.59320500  1
  O  O34  1  0.34524400  0.36249500  0.09320500  1
  O  O35  1  0.65475600  0.86249500  0.40679500  1
  O  O36  1  0.34247200  0.38962100  0.94822600  1
  O  O37  1  0.65752800  0.88962100  0.55177400  1
  O  O38  1  0.65752800  0.61037900  0.05177400  1
  O  O39  1  0.34247200  0.11037900  0.44822600  1
loop_
_geom_bond_atom_site_label_1
_geom_bond_atom_site_label_2
_geom_bond_distance
_geom_bond_site_symmetry_2
Ag0 O21 2.317084 1_455
Ag0 O8 2.355230 1_455
Ag0 O24 2.491375 1_555
Ag0 O33 2.548127 1_555
Ag0 O16 2.738124 1_555
Ag1 O20 2.317084 1_655
Ag1 O9 2.355230 1_665
Ag1 O25 2.491375 1_555
Ag1 O32 2.548127 1_555
Ag1 O17 2.738124 1_565
Ag2 O23 2.317084 1_655
Ag2 O10 2.355230 1_655
Ag2 O26 2.491375 1_555
Ag2 O35 2.548127 1_555
Ag2 O18 2.738124 1_555
Ag3 O22 2.317084 1_455
Ag3 O11 2.355230 1_445
Ag3 O27 2.491375 1_555
Ag3 O34 2.548127 1_555
Ag3 O19 2.738124 1_545
O0 V0 1.651199 1_555
O0 V5 2.321301 1_555
O1 V1 1.651199 1_555
O1 V4 2.321301 1_555
O2 V2 1.651199 1_555
O2 V7 2.321301 1_555
O3 V3 1.651199 1_555
O3 V6 2.321301 1_555
O4 P2 1.558667 1_555
O4 V0 2.047841 1_655
O4 V2 2.505994 1_555
O5 P3 1.558667 1_555
O5 V1 2.047841 1_454
O5 V3 2.505994 1_545
O6 P0 1.558667 1_555
O6 V2 2.047841 1_455
O6 V0 2.505994 1_555
O7 P1 1.558667 1_555
O7 V3 2.047841 1_656
O7 V1 2.505994 1_565
O8 P5 1.542392 1_555
O8 V0 2.040003 1_655
O9 P4 1.542392 1_555
O9 V1 2.040003 1_455
O10 P7 1.542392 1_555
O10 V2 2.040003 1_455
O11 P6 1.542392 1_555
O11 V3 2.040003 1_655
O12 P2 1.527048 1_555
O12 V0 1.985782 1_555
O13 P3 1.527048 1_555
O13 V1 1.985782 1_554
O14 P0 1.527048 1_555
O14 V2 1.985782 1_555
O15 P1 1.527048 1_555
O15 V3 1.985782 1_556
O16 P5 1.533231 1_555
O16 V0 2.017714 1_555
O17 P4 1.533231 1_555
O17 V1 2.017714 1_555
O18 P7 1.533231 1_555
O18 V2 2.017714 1_555
O19 P6 1.533231 1_555
O19 V3 2.017714 1_555
O20 V4 1.634033 1_555
O21 V5 1.634033 1_545
O22 V6 1.634033 1_555
O23 V7 1.634033 1_565
O24 P4 1.561871 1_555
O24 V4 1.956528 1_555
O25 P5 1.561871 1_555
O25 V5 1.956528 1_555
O26 P6 1.561871 1_555
O26 V6 1.956528 1_555
O27 P7 1.561871 1_555
O27 V7 1.956528 1_555
O28 P5 1.562887 1_555
O28 V4 1.924272 1_555
O29 P4 1.562887 1_565
O29 V5 1.924272 1_555
O30 P7 1.562887 1_555
O30 V6 1.924272 1_555
O31 P6 1.562887 1_545
O31 V7 1.924272 1_555
O32 P1 1.563493 1_555
O32 V4 1.937871 1_555
O33 P0 1.563493 1_555
O33 V5 1.937871 1_545
O34 P3 1.563493 1_555
O34 V6 1.937871 1_555
O35 P2 1.563493 1_555
O35 V7 1.937871 1_565
O36 P3 1.558002 1_556
O36 V4 1.897713 1_555
O37 P2 1.558002 1_555
O37 V5 1.897713 1_555
O38 P1 1.558002 1_554
O38 V6 1.897713 1_555
O39 P0 1.558002 1_555
O39 V7 1.897713 1_555
