# generated using pymatgen
data_Nd2Ni7
_symmetry_space_group_name_H-M   'P 1'
_cell_length_a   5.01688400
_cell_length_b   5.01688401
_cell_length_c   24.49636600
_cell_angle_alpha   90.00000000
_cell_angle_beta   90.00000000
_cell_angle_gamma   119.99999995
_symmetry_Int_Tables_number   1
_chemical_formula_structural   Nd2Ni7
_chemical_formula_sum   'Nd8 Ni28'
_cell_volume   533.94978201
_cell_formula_units_Z   4
loop_
 _symmetry_equiv_pos_site_id
 _symmetry_equiv_pos_as_xyz
  1  'x, y, z'
loop_
 _atom_site_type_symbol
 _atom_site_label
 _atom_site_symmetry_multiplicity
 _atom_site_fract_x
 _atom_site_fract_y
 _atom_site_fract_z
 _atom_site_occupancy
  Nd  Nd0  1  0.33333300  0.66666700  0.47013000  1
  Nd  Nd1  1  0.66666700  0.33333300  0.52987000  1
  Nd  Nd2  1  0.66666700  0.33333300  0.97013000  1
  Nd  Nd3  1  0.33333300  0.66666700  0.02987000  1
  Nd  Nd4  1  0.33333300  0.66666700  0.32549800  1
  Nd  Nd5  1  0.66666700  0.33333300  0.67450200  1
  Nd  Nd6  1  0.66666700  0.33333300  0.82549800  1
  Nd  Nd7  1  0.33333300  0.66666700  0.17450200  1
  Ni  Ni0  1  0.00000000  0.00000000  0.50000000  1
  Ni  Ni1  1  0.00000000  0.00000000  0.00000000  1
  Ni  Ni2  1  0.83243600  0.16756400  0.25000000  1
  Ni  Ni3  1  0.83243600  0.66487200  0.25000000  1
  Ni  Ni4  1  0.33512800  0.16756400  0.25000000  1
  Ni  Ni5  1  0.16756400  0.83243600  0.75000000  1
  Ni  Ni6  1  0.16756400  0.33512800  0.75000000  1
  Ni  Ni7  1  0.66487200  0.83243600  0.75000000  1
  Ni  Ni8  1  0.83400900  0.16599100  0.41275300  1
  Ni  Ni9  1  0.83400900  0.66801800  0.41275300  1
  Ni  Ni10  1  0.33198200  0.16599100  0.41275300  1
  Ni  Ni11  1  0.16599100  0.83400900  0.58724700  1
  Ni  Ni12  1  0.16599100  0.33198200  0.58724700  1
  Ni  Ni13  1  0.66801800  0.83400900  0.58724700  1
  Ni  Ni14  1  0.16599100  0.83400900  0.91275300  1
  Ni  Ni15  1  0.16599100  0.33198200  0.91275300  1
  Ni  Ni16  1  0.66801800  0.83400900  0.91275300  1
  Ni  Ni17  1  0.83400900  0.16599100  0.08724700  1
  Ni  Ni18  1  0.83400900  0.66801800  0.08724700  1
  Ni  Ni19  1  0.33198200  0.16599100  0.08724700  1
  Ni  Ni20  1  0.00000000  0.00000000  0.33097600  1
  Ni  Ni21  1  0.00000000  0.00000000  0.66902400  1
  Ni  Ni22  1  0.00000000  0.00000000  0.83097600  1
  Ni  Ni23  1  0.00000000  0.00000000  0.16902400  1
  Ni  Ni24  1  0.33333300  0.66666700  0.66752100  1
  Ni  Ni25  1  0.66666700  0.33333300  0.33247900  1
  Ni  Ni26  1  0.66666700  0.33333300  0.16752100  1
  Ni  Ni27  1  0.33333300  0.66666700  0.83247900  1
loop_
_geom_bond_atom_site_label_1
_geom_bond_atom_site_label_2
_geom_bond_distance
_geom_bond_site_symmetry_2
Nd0 Ni9 2.875380 1_455
Nd0 Ni10 2.875380 1_565
Nd0 Ni8 2.875383 1_565
Nd0 Ni8 2.875383 1_455
Nd0 Ni9 2.875385 1_555
Nd0 Ni10 2.875385 1_555
Nd0 Ni0 2.987488 1_565
Nd0 Ni0 2.987492 1_665
Nd0 Ni0 2.987492 1_555
Nd0 Ni11 3.216408 1_555
Nd0 Ni13 3.216410 1_555
Nd0 Ni12 3.216410 1_555
Nd1 Ni12 2.875380 1_655
Nd1 Ni13 2.875380 1_545
Nd1 Ni11 2.875383 1_545
Nd1 Ni11 2.875383 1_655
Nd1 Ni12 2.875385 1_555
Nd1 Ni13 2.875385 1_555
Nd1 Ni0 2.987488 1_655
Nd1 Ni0 2.987492 1_555
Nd1 Ni0 2.987492 1_665
Nd1 Ni8 3.216408 1_555
Nd1 Ni10 3.216410 1_555
Nd1 Ni9 3.216410 1_555
Nd2 Ni15 2.875380 1_655
Nd2 Ni16 2.875380 1_545
Nd2 Ni14 2.875383 1_545
Nd2 Ni14 2.875383 1_655
Nd2 Ni15 2.875385 1_555
Nd2 Ni16 2.875385 1_555
Nd2 Ni1 2.987488 1_656
Nd2 Ni1 2.987492 1_556
Nd2 Ni1 2.987492 1_666
Nd2 Ni17 3.216408 1_556
Nd2 Ni19 3.216410 1_556
Nd2 Ni18 3.216410 1_556
Nd3 Ni18 2.875380 1_455
Nd3 Ni19 2.875380 1_565
Nd3 Ni17 2.875383 1_565
Nd3 Ni17 2.875383 1_455
Nd3 Ni18 2.875385 1_555
Nd3 Ni19 2.875385 1_555
Nd3 Ni1 2.987488 1_565
Nd3 Ni1 2.987492 1_665
Nd3 Ni1 2.987492 1_555
Nd3 Ni14 3.216408 1_554
Nd3 Ni16 3.216410 1_554
Nd3 Ni15 3.216410 1_554
Nd4 Ni20 2.899603 1_565
Nd4 Ni20 2.899608 1_665
Nd4 Ni20 2.899608 1_555
Nd4 Ni25 2.901540 1_455
Nd4 Ni25 2.901540 1_565
Nd4 Ni25 2.901549 1_555
Nd4 Ni3 3.116522 1_455
Nd4 Ni4 3.116522 1_565
Nd4 Ni2 3.116524 1_455
Nd4 Ni2 3.116524 1_565
Nd4 Ni3 3.116526 1_555
Nd4 Ni4 3.116526 1_555
Nd4 Ni9 3.295590 1_455
Nd4 Ni10 3.295590 1_565
Nd4 Ni8 3.295592 1_565
Nd4 Ni8 3.295592 1_455
Nd4 Ni9 3.295594 1_555
Nd4 Ni10 3.295594 1_555
Nd5 Ni21 2.899603 1_655
Nd5 Ni21 2.899608 1_555
Nd5 Ni21 2.899608 1_665
Nd5 Ni24 2.901540 1_655
Nd5 Ni24 2.901540 1_545
Nd5 Ni24 2.901549 1_555
Nd5 Ni6 3.116522 1_655
Nd5 Ni7 3.116522 1_545
Nd5 Ni5 3.116524 1_655
Nd5 Ni5 3.116524 1_545
Nd5 Ni6 3.116526 1_555
Nd5 Ni7 3.116526 1_555
Nd5 Ni12 3.295590 1_655
Nd5 Ni13 3.295590 1_545
Nd5 Ni11 3.295592 1_545
Nd5 Ni11 3.295592 1_655
Nd5 Ni12 3.295594 1_555
Nd5 Ni13 3.295594 1_555
Nd6 Ni22 2.899603 1_655
Nd6 Ni22 2.899608 1_555
Nd6 Ni22 2.899608 1_665
Nd6 Ni27 2.901540 1_655
Nd6 Ni27 2.901540 1_545
Nd6 Ni27 2.901549 1_555
Nd6 Ni6 3.116522 1_655
Nd6 Ni7 3.116522 1_545
Nd6 Ni5 3.116524 1_655
Nd6 Ni5 3.116524 1_545
Nd6 Ni6 3.116526 1_555
Nd6 Ni7 3.116526 1_555
Nd6 Ni15 3.295590 1_655
Nd6 Ni16 3.295590 1_545
Nd6 Ni14 3.295592 1_545
Nd6 Ni14 3.295592 1_655
Nd6 Ni15 3.295594 1_555
Nd6 Ni16 3.295594 1_555
Nd7 Ni23 2.899603 1_565
Nd7 Ni23 2.899608 1_665
Nd7 Ni23 2.899608 1_555
Nd7 Ni26 2.901540 1_455
Nd7 Ni26 2.901540 1_565
Nd7 Ni26 2.901549 1_555
Nd7 Ni3 3.116522 1_455
Nd7 Ni4 3.116522 1_565
Nd7 Ni2 3.116524 1_455
Nd7 Ni2 3.116524 1_565
Nd7 Ni3 3.116526 1_555
Nd7 Ni4 3.116526 1_555
Nd7 Ni18 3.295590 1_455
Nd7 Ni19 3.295590 1_565
Nd7 Ni17 3.295592 1_565
Nd7 Ni17 3.295592 1_455
Nd7 Ni18 3.295594 1_555
Nd7 Ni19 3.295594 1_555
Ni0 Ni13 2.578416 1_445
Ni0 Ni11 2.578416 1_545
Ni0 Ni10 2.578416 1_555
Ni0 Ni8 2.578416 1_455
Ni0 Ni12 2.578416 1_555
Ni0 Ni9 2.578416 1_445
Ni1 Ni14 2.578416 1_544
Ni1 Ni16 2.578416 1_444
Ni1 Ni17 2.578416 1_455
Ni1 Ni19 2.578416 1_555
Ni1 Ni15 2.578416 1_554
Ni1 Ni18 2.578416 1_445
Ni2 Ni23 2.460653 1_655
Ni2 Ni20 2.460653 1_655
Ni2 Ni26 2.481341 1_555
Ni2 Ni25 2.481341 1_555
Ni2 Ni4 2.494937 1_555
Ni2 Ni3 2.494937 1_555
Ni2 Ni4 2.521947 1_655
Ni2 Ni3 2.521947 1_545
Ni3 Ni4 2.494937 1_555
Ni3 Ni4 2.521947 1_665
Ni5 Ni7 2.494937 1_555
Ni5 Ni6 2.494937 1_555
Ni5 Ni7 2.521947 1_455
Ni5 Ni6 2.521947 1_565
Ni6 Ni7 2.494937 1_555
Ni6 Ni7 2.521947 1_445
Ni8 Ni9 2.498273 1_545
Ni8 Ni9 2.518611 1_555
Ni10 Ni25 2.445666 1_555
Ni10 Ni20 2.468486 1_555
Ni10 Ni8 2.498273 1_455
Ni10 Ni9 2.498273 1_445
Ni10 Ni8 2.518611 1_555
Ni10 Ni9 2.518611 1_555
Ni11 Ni24 2.445664 1_555
Ni11 Ni21 2.468486 1_565
Ni11 Ni13 2.498273 1_455
Ni11 Ni12 2.498273 1_565
Ni11 Ni13 2.518611 1_555
Ni11 Ni12 2.518611 1_555
Ni12 Ni24 2.445666 1_555
Ni12 Ni21 2.468486 1_555
Ni12 Ni13 2.498273 1_445
Ni12 Ni13 2.518611 1_555
Ni13 Ni24 2.445666 1_555
Ni13 Ni21 2.468486 1_665
Ni14 Ni27 2.445664 1_555
Ni14 Ni22 2.468486 1_565
Ni14 Ni16 2.498273 1_455
Ni14 Ni15 2.498273 1_565
Ni14 Ni16 2.518611 1_555
Ni14 Ni15 2.518611 1_555
Ni15 Ni27 2.445666 1_555
Ni15 Ni22 2.468486 1_555
Ni15 Ni16 2.498273 1_445
Ni15 Ni16 2.518611 1_555
Ni16 Ni27 2.445666 1_555
Ni16 Ni22 2.468486 1_665
Ni17 Ni26 2.445664 1_555
Ni17 Ni23 2.468486 1_655
Ni17 Ni19 2.498273 1_655
Ni17 Ni18 2.498273 1_545
Ni17 Ni19 2.518611 1_555
Ni17 Ni18 2.518611 1_555
Ni18 Ni26 2.445666 1_555
Ni18 Ni23 2.468486 1_665
Ni18 Ni19 2.498273 1_665
Ni18 Ni19 2.518611 1_555
Ni19 Ni26 2.445666 1_555
Ni19 Ni23 2.468486 1_555
Ni20 Ni4 2.460653 1_555
Ni20 Ni3 2.460653 1_445
Ni20 Ni8 2.468486 1_455
Ni20 Ni9 2.468486 1_445
Ni21 Ni7 2.460653 1_445
Ni21 Ni5 2.460653 1_545
Ni21 Ni6 2.460653 1_555
Ni22 Ni7 2.460653 1_445
Ni22 Ni5 2.460653 1_545
Ni22 Ni6 2.460653 1_555
Ni23 Ni4 2.460653 1_555
Ni23 Ni3 2.460653 1_445
Ni24 Ni5 2.481341 1_555
Ni24 Ni7 2.481344 1_555
Ni24 Ni6 2.481344 1_555
Ni25 Ni8 2.445664 1_555
Ni25 Ni9 2.445666 1_555
Ni25 Ni4 2.481344 1_555
Ni25 Ni3 2.481344 1_555
Ni26 Ni4 2.481344 1_555
Ni26 Ni3 2.481344 1_555
Ni27 Ni5 2.481341 1_555
Ni27 Ni7 2.481344 1_555
Ni27 Ni6 2.481344 1_555
