# generated using pymatgen
data_Nd3Tl
_symmetry_space_group_name_H-M   'P 1'
_cell_length_a   4.98879862
_cell_length_b   4.98878694
_cell_length_c   4.98879543
_cell_angle_alpha   90.00000000
_cell_angle_beta   90.00000000
_cell_angle_gamma   90.00000000
_symmetry_Int_Tables_number   1
_chemical_formula_structural   Nd3Tl
_chemical_formula_sum   'Nd3 Tl1'
_cell_volume   124.16140707
_cell_formula_units_Z   1
loop_
 _symmetry_equiv_pos_site_id
 _symmetry_equiv_pos_as_xyz
  1  'x, y, z'
loop_
 _atom_site_type_symbol
 _atom_site_label
 _atom_site_symmetry_multiplicity
 _atom_site_fract_x
 _atom_site_fract_y
 _atom_site_fract_z
 _atom_site_occupancy
  Nd  Nd0  1  0.00000000  0.50000000  0.50000000  1
  Nd  Nd1  1  0.50000000  0.50000000  -0.00000000  1
  Nd  Nd2  1  0.50000000  -0.00000000  0.50000000  1
  Tl  Tl0  1  0.00000000  -0.00000000  -0.00000000  1
loop_
_geom_bond_atom_site_label_1
_geom_bond_atom_site_label_2
_geom_bond_distance
_geom_bond_site_symmetry_2
Nd0 Tl0 3.527608 1_566
Nd0 Tl0 3.527608 1_555
Nd0 Tl0 3.527608 1_556
Nd0 Tl0 3.527608 1_565
Nd0 Nd2 3.527609 1_555
Nd0 Nd2 3.527609 1_565
Nd0 Nd2 3.527609 1_455
Nd0 Nd2 3.527609 1_465
Nd0 Nd1 3.527612 1_555
Nd0 Nd1 3.527612 1_556
Nd0 Nd1 3.527612 1_456
Nd0 Nd1 3.527612 1_455
Nd1 Nd2 3.527608 1_565
Nd1 Nd2 3.527608 1_554
Nd1 Nd2 3.527608 1_564
Nd1 Nd2 3.527608 1_555
Nd1 Tl0 3.527609 1_555
Nd1 Tl0 3.527609 1_565
Nd1 Tl0 3.527609 1_655
Nd1 Tl0 3.527609 1_665
Nd2 Tl0 3.527612 1_555
Nd2 Tl0 3.527612 1_556
Nd2 Tl0 3.527612 1_655
Nd2 Tl0 3.527612 1_656
