# generated using pymatgen
data_EuZnPd
_symmetry_space_group_name_H-M   'P 1'
_cell_length_a   4.42921589
_cell_length_b   7.28821133
_cell_length_c   7.85662490
_cell_angle_alpha   90.08615350
_cell_angle_beta   90.00000000
_cell_angle_gamma   90.00000000
_symmetry_Int_Tables_number   1
_chemical_formula_structural   EuZnPd
_chemical_formula_sum   'Eu4 Zn4 Pd4'
_cell_volume   253.61990437
_cell_formula_units_Z   4
loop_
 _symmetry_equiv_pos_site_id
 _symmetry_equiv_pos_as_xyz
  1  'x, y, z'
loop_
 _atom_site_type_symbol
 _atom_site_label
 _atom_site_symmetry_multiplicity
 _atom_site_fract_x
 _atom_site_fract_y
 _atom_site_fract_z
 _atom_site_occupancy
  Eu  Eu0  1  0.25000000  0.01332824  0.30463777  1
  Eu  Eu1  1  0.25000000  0.51303744  0.19444105  1
  Eu  Eu2  1  0.75000000  0.98686387  0.69567746  1
  Eu  Eu3  1  0.75000000  0.48673281  0.80547628  1
  Zn  Zn0  1  0.25000000  0.66718404  0.57725047  1
  Zn  Zn1  1  0.25000000  0.16730787  0.92241529  1
  Zn  Zn2  1  0.75000000  0.33282053  0.42271739  1
  Zn  Zn3  1  0.75000000  0.83274367  0.07755492  1
  Pd  Pd0  1  0.25000000  0.29295407  0.60089652  1
  Pd  Pd1  1  0.25000000  0.79331066  0.89901079  1
  Pd  Pd2  1  0.75000000  0.70730692  0.39874933  1
  Pd  Pd3  1  0.75000000  0.20640987  0.10117373  1
loop_
_geom_bond_atom_site_label_1
_geom_bond_atom_site_label_2
_geom_bond_distance
_geom_bond_site_symmetry_2
Eu0 Pd3 3.073573 1_555
Eu0 Pd3 3.073573 1_455
Eu0 Pd0 3.091401 1_555
Eu0 Zn3 3.132519 1_545
Eu0 Zn3 3.132519 1_445
Eu0 Zn1 3.207402 1_554
Eu0 Pd2 3.229646 1_545
Eu0 Pd2 3.229646 1_445
Eu0 Zn0 3.311798 1_545
Eu0 Zn2 3.343751 1_555
Eu0 Zn2 3.343751 1_455
Eu0 Pd1 3.565393 1_544
Eu0 Eu1 3.744745 1_555
Eu0 Eu1 3.746335 1_545
Eu0 Eu2 3.792388 1_445
Eu0 Eu2 3.792388 1_545
Eu1 Pd2 3.078789 1_455
Eu1 Pd2 3.078789 1_555
Eu1 Pd1 3.094233 1_554
Eu1 Zn2 3.139000 1_455
Eu1 Zn2 3.139000 1_555
Eu1 Zn0 3.208985 1_555
Eu1 Pd3 3.229658 1_455
Eu1 Pd3 3.229658 1_555
Eu1 Zn1 3.301604 1_554
Eu1 Zn3 3.344183 1_455
Eu1 Zn3 3.344183 1_555
Eu1 Pd0 3.575733 1_555
Eu1 Eu3 3.778665 1_454
Eu1 Eu3 3.778665 1_554
Eu2 Pd1 3.074617 1_655
Eu2 Pd1 3.074617 1_555
Eu2 Pd2 3.095027 1_555
Eu2 Zn1 3.130548 1_565
Eu2 Zn1 3.130548 1_665
Eu2 Zn3 3.205223 1_556
Eu2 Pd0 3.231206 1_565
Eu2 Pd0 3.231206 1_665
Eu2 Zn2 3.312525 1_565
Eu2 Zn0 3.345458 1_655
Eu2 Zn0 3.345458 1_555
Eu2 Pd3 3.562935 1_566
Eu2 Eu3 3.742627 1_565
Eu2 Eu3 3.747010 1_555
Eu3 Pd0 3.078261 1_555
Eu3 Pd0 3.078261 1_655
Eu3 Pd3 3.096049 1_556
Eu3 Zn0 3.139490 1_555
Eu3 Zn0 3.139490 1_655
Eu3 Zn2 3.208018 1_555
Eu3 Pd1 3.229882 1_555
Eu3 Pd1 3.229882 1_655
Eu3 Zn3 3.303435 1_556
Eu3 Zn1 3.342868 1_655
Eu3 Zn1 3.342868 1_555
Eu3 Pd2 3.579249 1_555
Pd0 Zn2 2.636250 1_455
Pd0 Zn2 2.636250 1_555
Pd0 Zn1 2.688209 1_555
Pd0 Zn0 2.734066 1_555
Pd1 Zn3 2.636966 1_556
Pd1 Zn3 2.636966 1_456
Pd1 Zn0 2.688595 1_555
Pd1 Zn1 2.731690 1_565
Pd2 Zn0 2.637803 1_655
Pd2 Zn0 2.637803 1_555
Pd2 Zn3 2.685291 1_555
Pd2 Zn2 2.736107 1_555
Pd3 Zn1 2.637602 1_554
Pd3 Zn1 2.637602 1_654
Pd3 Zn2 2.687701 1_555
Pd3 Zn3 2.729394 1_545
