# generated using pymatgen
data_Li9Mn2Co5O16
_symmetry_space_group_name_H-M   'P 1'
_cell_length_a   5.82743600
_cell_length_b   5.87656222
_cell_length_c   8.62889471
_cell_angle_alpha   88.25166097
_cell_angle_beta   70.90799490
_cell_angle_gamma   87.21071530
_symmetry_Int_Tables_number   1
_chemical_formula_structural   Li9Mn2Co5O16
_chemical_formula_sum   'Li9 Mn2 Co5 O16'
_cell_volume   278.88078281
_cell_formula_units_Z   1
loop_
 _symmetry_equiv_pos_site_id
 _symmetry_equiv_pos_as_xyz
  1  'x, y, z'
loop_
 _atom_site_type_symbol
 _atom_site_label
 _atom_site_symmetry_multiplicity
 _atom_site_fract_x
 _atom_site_fract_y
 _atom_site_fract_z
 _atom_site_occupancy
  Li  Li0  1  0.12671000  0.24973100  0.25536600  1
  Li  Li1  1  0.24387000  0.99720200  0.49569900  1
  Li  Li2  1  0.61940300  0.24982900  0.25417900  1
  Li  Li3  1  0.76075700  0.99717300  0.49631600  1
  Li  Li4  1  0.87536100  0.74729200  0.74408200  1
  Li  Li5  1  0.37953000  0.75059500  0.74712000  1
  Li  Li6  1  0.49129800  0.50430100  0.00508100  1
  Li  Li7  1  0.00603700  0.50268600  0.00288400  1
  Li  Li8  1  0.12857100  0.75120400  0.25384900  1
  Mn  Mn0  1  0.99912700  0.99526000  0.00148400  1
  Mn  Mn1  1  0.62348300  0.75017100  0.25279400  1
  Co  Co0  1  0.24992500  0.50398300  0.49973200  1
  Co  Co1  1  0.37259600  0.25015300  0.74912100  1
  Co  Co2  1  0.49471400  0.99699100  0.00002000  1
  Co  Co3  1  0.76104500  0.50603500  0.49662100  1
  Co  Co4  1  0.87020400  0.24677100  0.74792700  1
  O  O0  1  0.86667900  0.98414500  0.23463500  1
  O  O1  1  0.01723900  0.73299200  0.50129200  1
  O  O2  1  0.39537100  0.99075500  0.23684000  1
  O  O3  1  0.52783900  0.74888500  0.48595500  1
  O  O4  1  0.64351600  0.48697900  0.74021000  1
  O  O5  1  0.14153000  0.48449000  0.74280400  1
  O  O6  1  0.24058900  0.22240400  0.99332000  1
  O  O7  1  0.74410400  0.22259600  0.98739500  1
  O  O8  1  0.39298100  0.52107600  0.25976300  1
  O  O9  1  0.48188400  0.26941400  0.51367000  1
  O  O10  1  0.86094100  0.50822000  0.25930600  1
  O  O11  1  0.98187400  0.25795500  0.51004900  1
  O  O12  1  0.09945300  0.00882400  0.76280200  1
  O  O13  1  0.59916800  0.01366900  0.76242200  1
  O  O14  1  0.75118200  0.77009800  0.00925800  1
  O  O15  1  0.25301400  0.77812000  0.99800800  1
loop_
_geom_bond_atom_site_label_1
_geom_bond_atom_site_label_2
_geom_bond_distance
_geom_bond_site_symmetry_2
Li0 O11 2.081686 1_455
Li0 O2 2.100486 1_545
Li0 O10 2.108784 1_455
Li0 O6 2.146910 1_554
Li0 O0 2.277850 1_445
Li0 O8 2.287975 1_555
Li1 O1 2.076182 1_555
Li1 O11 2.086766 1_465
Li1 O2 2.117078 1_555
Li1 O3 2.134556 1_555
Li1 O12 2.181781 1_565
Li1 O9 2.208750 1_565
Li2 O8 2.010604 1_555
Li2 O0 2.044674 1_545
Li2 O2 2.092803 1_545
Li2 O9 2.121798 1_555
Li2 O10 2.131124 1_555
Li2 O7 2.184019 1_554
Li3 O3 2.063807 1_555
Li3 O11 2.079930 1_565
Li3 O1 2.111405 1_655
Li3 O0 2.140021 1_555
Li3 O13 2.181485 1_565
Li3 O9 2.196656 1_565
Li4 O1 1.987605 1_655
Li4 O4 2.097714 1_555
Li4 O12 2.107602 1_665
Li4 O5 2.132551 1_655
Li4 O13 2.160839 1_565
Li4 O14 2.168744 1_556
Li5 O15 2.054774 1_555
Li5 O13 2.088364 1_565
Li5 O4 2.117471 1_555
Li5 O3 2.133549 1_555
Li5 O12 2.147548 1_565
Li5 O5 2.149141 1_555
Li6 O8 2.086044 1_555
Li6 O15 2.086414 1_554
Li6 O7 2.136622 1_554
Li6 O4 2.167965 1_554
Li6 O14 2.236965 1_555
Li6 O6 2.287329 1_554
Li7 O6 2.074456 1_554
Li7 O10 2.095138 1_455
Li7 O14 2.098306 1_455
Li7 O5 2.125692 1_554
Li7 O15 2.208173 1_554
Li7 O7 2.334172 1_454
Li8 O8 2.012479 1_555
Li8 O1 2.019381 1_555
Li8 O0 2.044227 1_455
Li8 O15 2.089758 1_554
Li8 O2 2.114633 1_555
Li8 O10 2.153621 1_455
Mn0 O15 1.899390 1_654
Mn0 O0 1.904879 1_555
Mn0 O12 1.948533 1_664
Mn0 O6 1.969488 1_664
Mn0 O7 1.980703 1_564
Mn0 O14 1.990035 1_555
Mn1 O3 1.903800 1_555
Mn1 O2 1.926080 1_555
Mn1 O8 1.933551 1_555
Mn1 O10 1.947848 1_555
Mn1 O14 1.988474 1_555
Mn1 O0 1.988666 1_555
Co0 O1 1.860515 1_555
Co0 O9 1.912241 1_555
Co0 O8 1.964419 1_555
Co0 O5 1.984205 1_555
Co0 O11 2.158527 1_455
Co0 O3 2.190594 1_555
Co1 O5 1.890886 1_555
Co1 O13 1.896991 1_555
Co1 O9 1.921636 1_555
Co1 O6 1.997339 1_555
Co1 O4 2.136169 1_555
Co1 O12 2.155302 1_555
Co2 O2 1.932863 1_555
Co2 O13 1.939237 1_564
Co2 O6 1.952311 1_564
Co2 O15 1.957590 1_554
Co2 O14 1.973668 1_555
Co2 O7 1.989171 1_564
Co3 O11 1.923394 1_555
Co3 O10 1.936928 1_555
Co3 O3 1.943466 1_555
Co3 O4 1.987709 1_555
Co3 O1 2.060535 1_655
Co3 O9 2.157025 1_555
Co4 O4 1.900639 1_555
Co4 O12 1.917258 1_655
Co4 O11 1.939893 1_555
Co4 O7 1.956753 1_555
Co4 O13 2.111311 1_555
Co4 O5 2.149174 1_655
