# generated using pymatgen
data_Sr2NbBiO6
_symmetry_space_group_name_H-M   'P 1'
_cell_length_a   8.51732627
_cell_length_b   8.51732627
_cell_length_c   8.51732627
_cell_angle_alpha   90.00000000
_cell_angle_beta   90.00000000
_cell_angle_gamma   90.00000000
_symmetry_Int_Tables_number   1
_chemical_formula_structural   Sr2NbBiO6
_chemical_formula_sum   'Sr8 Nb4 Bi4 O24'
_cell_volume   617.88812931
_cell_formula_units_Z   4
loop_
 _symmetry_equiv_pos_site_id
 _symmetry_equiv_pos_as_xyz
  1  'x, y, z'
loop_
 _atom_site_type_symbol
 _atom_site_label
 _atom_site_symmetry_multiplicity
 _atom_site_fract_x
 _atom_site_fract_y
 _atom_site_fract_z
 _atom_site_occupancy
  Sr  Sr0  1  0.50000000  0.50000000  0.50000000  1
  Sr  Sr1  1  -0.00000000  0.00000000  -0.00000000  1
  Sr  Sr2  1  -0.00000000  0.00000000  0.50000000  1
  Sr  Sr3  1  -0.00000000  0.50000000  -0.00000000  1
  Sr  Sr4  1  0.50000000  0.00000000  -0.00000000  1
  Sr  Sr5  1  0.50000000  0.50000000  -0.00000000  1
  Sr  Sr6  1  0.50000000  0.00000000  0.50000000  1
  Sr  Sr7  1  -0.00000000  0.50000000  0.50000000  1
  Nb  Nb0  1  0.25000000  0.25000000  0.25000000  1
  Nb  Nb1  1  0.25000000  0.75000000  0.75000000  1
  Nb  Nb2  1  0.75000000  0.25000000  0.75000000  1
  Nb  Nb3  1  0.75000000  0.75000000  0.25000000  1
  Bi  Bi0  1  0.75000000  0.75000000  0.75000000  1
  Bi  Bi1  1  0.75000000  0.25000000  0.25000000  1
  Bi  Bi2  1  0.25000000  0.75000000  0.25000000  1
  Bi  Bi3  1  0.25000000  0.25000000  0.75000000  1
  O  O0  1  0.21301215  0.29689791  0.48053084  1
  O  O1  1  0.21301215  0.70310209  0.51946916  1
  O  O2  1  0.78698785  0.29689791  0.51946916  1
  O  O3  1  0.78698785  0.70310209  0.48053084  1
  O  O4  1  0.29689791  0.48053084  0.21301215  1
  O  O5  1  0.70310209  0.51946916  0.21301215  1
  O  O6  1  0.29689791  0.51946916  0.78698785  1
  O  O7  1  0.70310209  0.48053084  0.78698785  1
  O  O8  1  0.48053084  0.21301215  0.29689791  1
  O  O9  1  0.51946916  0.21301215  0.70310209  1
  O  O10  1  0.51946916  0.78698785  0.29689791  1
  O  O11  1  0.48053084  0.78698785  0.70310209  1
  O  O12  1  0.28698785  0.20310209  0.01946916  1
  O  O13  1  0.28698785  0.79689791  0.98053084  1
  O  O14  1  0.71301215  0.20310209  0.98053084  1
  O  O15  1  0.71301215  0.79689791  0.01946916  1
  O  O16  1  0.20310209  0.01946916  0.28698785  1
  O  O17  1  0.79689791  0.98053084  0.28698785  1
  O  O18  1  0.20310209  0.98053084  0.71301215  1
  O  O19  1  0.79689791  0.01946916  0.71301215  1
  O  O20  1  0.01946916  0.28698785  0.20310209  1
  O  O21  1  0.98053084  0.28698785  0.79689791  1
  O  O22  1  0.98053084  0.71301215  0.20310209  1
  O  O23  1  0.01946916  0.71301215  0.79689791  1
loop_
_geom_bond_atom_site_label_1
_geom_bond_atom_site_label_2
_geom_bond_distance
_geom_bond_site_symmetry_2
Nb0 O20 2.028340 1_555
Nb0 O4 2.028340 1_555
Nb0 O12 2.028340 1_555
Nb0 O8 2.028340 1_555
Nb0 O0 2.028340 1_555
Nb0 O16 2.028340 1_555
Nb1 O23 2.028340 1_555
Nb1 O11 2.028340 1_555
Nb1 O1 2.028340 1_555
Nb1 O6 2.028340 1_555
Nb1 O18 2.028340 1_555
Nb1 O13 2.028340 1_555
Nb2 O2 2.028340 1_555
Nb2 O21 2.028340 1_555
Nb2 O14 2.028340 1_555
Nb2 O7 2.028340 1_555
Nb2 O19 2.028340 1_555
Nb2 O9 2.028340 1_555
Nb3 O10 2.028340 1_555
Nb3 O22 2.028340 1_555
Nb3 O17 2.028340 1_555
Nb3 O3 2.028340 1_555
Nb3 O5 2.028340 1_555
Nb3 O15 2.028340 1_555
Bi0 O7 2.350861 1_555
Bi0 O3 2.350861 1_555
Bi0 O11 2.350861 1_555
Bi0 O19 2.350861 1_565
Bi0 O23 2.350861 1_655
Bi0 O15 2.350861 1_556
Bi1 O5 2.350861 1_555
Bi1 O8 2.350861 1_555
Bi1 O17 2.350861 1_545
Bi1 O2 2.350861 1_555
Bi1 O14 2.350861 1_554
Bi1 O20 2.350861 1_655
Bi2 O22 2.350861 1_455
Bi2 O13 2.350861 1_554
Bi2 O10 2.350861 1_555
Bi2 O4 2.350861 1_555
Bi2 O1 2.350861 1_555
Bi2 O16 2.350861 1_565
Bi3 O21 2.350861 1_455
Bi3 O6 2.350861 1_555
Bi3 O0 2.350861 1_555
Bi3 O9 2.350861 1_555
Bi3 O18 2.350861 1_545
Bi3 O12 2.350861 1_556
O0 Sr7 2.512303 1_555
O0 Sr0 2.999158 1_555
O0 Sr2 3.116708 1_555
O1 Sr7 2.512303 1_555
O1 Sr0 2.999158 1_555
O1 Sr2 3.116708 1_565
O2 Sr7 2.512303 1_655
O2 Sr0 2.999158 1_555
O2 Sr2 3.116708 1_655
O3 Sr7 2.512303 1_655
O3 Sr0 2.999158 1_555
O3 Sr2 3.116708 1_665
O4 Sr5 2.512303 1_555
O4 Sr0 2.999158 1_555
O4 Sr3 3.116708 1_555
O5 Sr5 2.512303 1_555
O5 Sr0 2.999158 1_555
O5 Sr3 3.116708 1_655
O6 Sr5 2.512303 1_556
O6 Sr0 2.999158 1_555
O6 Sr3 3.116708 1_556
O7 Sr5 2.512303 1_556
O7 Sr0 2.999158 1_555
O7 Sr3 3.116708 1_656
O8 Sr6 2.512303 1_555
O8 Sr0 2.999158 1_555
O8 Sr4 3.116708 1_555
O9 Sr6 2.512303 1_555
O9 Sr0 2.999158 1_555
O9 Sr4 3.116708 1_556
O10 Sr6 2.512303 1_565
O10 Sr0 2.999158 1_555
O10 Sr4 3.116708 1_565
O11 Sr6 2.512303 1_565
O11 Sr0 2.999158 1_555
O11 Sr4 3.116708 1_566
O12 Sr4 2.512303 1_555
O12 Sr1 2.999158 1_555
O12 Sr5 3.116708 1_555
O13 Sr4 2.512303 1_566
O13 Sr1 2.999158 1_566
O13 Sr5 3.116708 1_556
O14 Sr4 2.512303 1_556
O14 Sr1 2.999158 1_656
O14 Sr5 3.116708 1_556
O15 Sr4 2.512303 1_565
O15 Sr1 2.999158 1_665
O15 Sr5 3.116708 1_555
O16 Sr2 2.512303 1_555
O16 Sr1 2.999158 1_555
O16 Sr6 3.116708 1_555
O17 Sr2 2.512303 1_665
O17 Sr1 2.999158 1_665
O17 Sr6 3.116708 1_565
O18 Sr2 2.512303 1_565
O18 Sr1 2.999158 1_566
O18 Sr6 3.116708 1_565
O19 Sr2 2.512303 1_655
O19 Sr1 2.999158 1_656
O19 Sr6 3.116708 1_555
O20 Sr3 2.512303 1_555
O20 Sr1 2.999158 1_555
O20 Sr7 3.116708 1_555
O21 Sr3 2.512303 1_656
O21 Sr1 2.999158 1_656
O21 Sr7 3.116708 1_655
O22 Sr3 2.512303 1_655
O22 Sr1 2.999158 1_665
O22 Sr7 3.116708 1_655
O23 Sr3 2.512303 1_556
O23 Sr1 2.999158 1_566
O23 Sr7 3.116708 1_555
