# generated using pymatgen
data_NaTiSn(PO4)3
_symmetry_space_group_name_H-M   'P 1'
_cell_length_a   8.99960114
_cell_length_b   8.99960114
_cell_length_c   8.99960121
_cell_angle_alpha   57.66898882
_cell_angle_beta   57.66898882
_cell_angle_gamma   57.66898780
_symmetry_Int_Tables_number   1
_chemical_formula_structural   NaTiSn(PO4)3
_chemical_formula_sum   'Na2 Ti2 Sn2 P6 O24'
_cell_volume   487.80430767
_cell_formula_units_Z   2
loop_
 _symmetry_equiv_pos_site_id
 _symmetry_equiv_pos_as_xyz
  1  'x, y, z'
loop_
 _atom_site_type_symbol
 _atom_site_label
 _atom_site_symmetry_multiplicity
 _atom_site_fract_x
 _atom_site_fract_y
 _atom_site_fract_z
 _atom_site_occupancy
  Na  Na0  1  0.50084200  0.50084200  0.50084200  1
  Na  Na1  1  0.00084200  0.00084200  0.00084200  1
  Ti  Ti0  1  0.64530400  0.64530400  0.64530400  1
  Ti  Ti1  1  0.14530400  0.14530400  0.14530400  1
  Sn  Sn0  1  0.35300600  0.35300600  0.35300600  1
  Sn  Sn1  1  0.85300600  0.85300600  0.85300600  1
  P  P0  1  0.45871200  0.03820200  0.75104200  1
  P  P1  1  0.03820200  0.75104200  0.45871200  1
  P  P2  1  0.75104200  0.45871200  0.03820200  1
  P  P3  1  0.95871200  0.25104200  0.53820200  1
  P  P4  1  0.25104200  0.53820200  0.95871200  1
  P  P5  1  0.53820200  0.95871200  0.25104200  1
  O  O0  1  0.56087200  0.77971900  0.42550300  1
  O  O1  1  0.77971900  0.42550300  0.56087200  1
  O  O2  1  0.42550300  0.56087200  0.77971900  1
  O  O3  1  0.06087200  0.92550300  0.27971900  1
  O  O4  1  0.92550300  0.27971900  0.06087200  1
  O  O5  1  0.27971900  0.06087200  0.92550300  1
  O  O6  1  0.43321700  0.22097900  0.58119300  1
  O  O7  1  0.22097900  0.58119300  0.43321700  1
  O  O8  1  0.58119300  0.43321700  0.22097900  1
  O  O9  1  0.93321700  0.08119300  0.72097900  1
  O  O10  1  0.08119300  0.72097900  0.93321700  1
  O  O11  1  0.72097900  0.93321700  0.08119300  1
  O  O12  1  0.49771300  0.86653700  0.71784500  1
  O  O13  1  0.86653700  0.71784500  0.49771300  1
  O  O14  1  0.71784500  0.49771300  0.86653700  1
  O  O15  1  0.99771300  0.21784500  0.36653700  1
  O  O16  1  0.21784500  0.36653700  0.99771300  1
  O  O17  1  0.36653700  0.99771300  0.21784500  1
  O  O18  1  0.51702300  0.12433300  0.27795900  1
  O  O19  1  0.12433300  0.27795900  0.51702300  1
  O  O20  1  0.27795900  0.51702300  0.12433300  1
  O  O21  1  0.01702300  0.77795900  0.62433300  1
  O  O22  1  0.77795900  0.62433300  0.01702300  1
  O  O23  1  0.62433300  0.01702300  0.77795900  1
loop_
_geom_bond_atom_site_label_1
_geom_bond_atom_site_label_2
_geom_bond_distance
_geom_bond_site_symmetry_2
Na0 O1 2.507773 1_555
Na0 O0 2.507773 1_555
Na0 O2 2.507773 1_555
Na0 O7 2.541192 1_555
Na0 O6 2.541192 1_555
Na0 O8 2.541192 1_555
Na1 O4 2.507773 1_455
Na1 O5 2.507773 1_554
Na1 O3 2.507773 1_545
Na1 O10 2.541192 1_544
Na1 O11 2.541192 1_445
Na1 O9 2.541192 1_454
O0 P5 1.545152 1_555
O0 Ti0 2.004679 1_555
O1 P3 1.545152 1_555
O1 Ti0 2.004679 1_555
O2 P4 1.545152 1_555
O2 Ti0 2.004679 1_555
O3 P1 1.545152 1_555
O3 Ti1 2.004679 1_565
O4 P2 1.545152 1_555
O4 Ti1 2.004679 1_655
O5 P0 1.545152 1_555
O5 Ti1 2.004679 1_556
O6 P0 1.541739 1_555
O6 Sn0 2.051436 1_555
O7 P1 1.541739 1_555
O7 Sn0 2.051436 1_555
O8 P2 1.541739 1_555
O8 Sn0 2.051436 1_555
O9 P3 1.541739 1_555
O9 Sn1 2.051436 1_545
O10 P4 1.541739 1_555
O10 Sn1 2.051436 1_455
O11 P5 1.541739 1_555
O11 Sn1 2.051436 1_554
O12 P0 1.549433 1_565
O12 Ti0 1.946456 1_555
O13 P1 1.549433 1_655
O13 Ti0 1.946456 1_555
O14 P2 1.549433 1_556
O14 Ti0 1.946456 1_555
O15 P3 1.549433 1_555
O15 Ti1 1.946456 1_655
O16 P4 1.549433 1_555
O16 Ti1 1.946456 1_556
O17 P5 1.549433 1_555
O17 Ti1 1.946456 1_565
O18 P5 1.532844 1_545
O18 Sn0 2.010310 1_555
O19 P3 1.532844 1_455
O19 Sn0 2.010310 1_555
O20 P4 1.532844 1_554
O20 Sn0 2.010310 1_555
O21 P1 1.532844 1_555
O21 Sn1 2.010310 1_455
O22 P2 1.532844 1_555
O22 Sn1 2.010310 1_554
O23 P0 1.532844 1_555
O23 Sn1 2.010310 1_545
