# generated using pymatgen
data_YThC3
_symmetry_space_group_name_H-M   'P 1'
_cell_length_a   7.29896256
_cell_length_b   7.29896256
_cell_length_c   7.29896256
_cell_angle_alpha   109.47122063
_cell_angle_beta   109.47122063
_cell_angle_gamma   109.47122063
_symmetry_Int_Tables_number   1
_chemical_formula_structural   YThC3
_chemical_formula_sum   'Y4 Th4 C12'
_cell_volume   299.33776897
_cell_formula_units_Z   4
loop_
 _symmetry_equiv_pos_site_id
 _symmetry_equiv_pos_as_xyz
  1  'x, y, z'
loop_
 _atom_site_type_symbol
 _atom_site_label
 _atom_site_symmetry_multiplicity
 _atom_site_fract_x
 _atom_site_fract_y
 _atom_site_fract_z
 _atom_site_occupancy
  Y  Y0  1  0.09630300  0.50000000  0.00000000  1
  Y  Y1  1  0.40369700  0.40369700  0.40369700  1
  Y  Y2  1  0.00000000  0.09630300  0.50000000  1
  Y  Y3  1  0.50000000  0.00000000  0.09630300  1
  Th  Th0  1  0.90528300  0.90528300  0.90528300  1
  Th  Th1  1  0.59471700  0.50000000  0.00000000  1
  Th  Th2  1  0.00000000  0.59471700  0.50000000  1
  Th  Th3  1  0.50000000  0.00000000  0.59471700  1
  C  C0  1  0.75000000  0.45132400  0.70132400  1
  C  C1  1  0.25000000  0.04867600  0.79867600  1
  C  C2  1  0.25000000  0.21229400  0.96229400  1
  C  C3  1  0.75000000  0.28770600  0.53770600  1
  C  C4  1  0.04867600  0.79867600  0.25000000  1
  C  C5  1  0.45132400  0.70132400  0.75000000  1
  C  C6  1  0.28770600  0.53770600  0.75000000  1
  C  C7  1  0.21229400  0.96229400  0.25000000  1
  C  C8  1  0.70132400  0.75000000  0.45132400  1
  C  C9  1  0.79867600  0.25000000  0.04867600  1
  C  C10  1  0.96229400  0.25000000  0.21229400  1
  C  C11  1  0.53770600  0.75000000  0.28770600  1
loop_
_geom_bond_atom_site_label_1
_geom_bond_atom_site_label_2
_geom_bond_distance
_geom_bond_site_symmetry_2
C0 C3 1.378991 1_555
C0 Y1 2.545419 1_555
C0 Y0 2.545419 1_656
C0 Th0 2.750032 1_555
C0 Th1 2.750032 1_556
C0 Th2 2.850277 1_655
C0 Th3 2.850277 1_555
C1 C2 1.378991 1_555
C1 Y3 2.545419 1_556
C1 Y2 2.545419 1_555
C1 Th3 2.750032 1_555
C1 Th2 2.750032 1_545
C1 Th1 2.850277 1_556
C1 Th0 2.850277 1_445
C2 Th1 2.539061 1_556
C2 Th0 2.539061 1_445
C2 Y0 2.671164 1_556
C2 Y1 2.671164 1_556
C3 Th2 2.539061 1_655
C3 Th3 2.539061 1_555
C3 Y2 2.671164 1_655
C3 Y3 2.671164 1_555
C4 C7 1.378991 1_555
C4 Y2 2.545419 1_565
C4 Y0 2.545419 1_555
C4 Th2 2.750032 1_555
C4 Th1 2.750032 1_455
C4 Th0 2.850277 1_454
C4 Th3 2.850277 1_565
C5 C6 1.378991 1_555
C5 Y3 2.545419 1_566
C5 Y1 2.545419 1_555
C5 Th0 2.750032 1_555
C5 Th3 2.750032 1_565
C5 Th1 2.850277 1_556
C5 Th2 2.850277 1_555
C6 Th1 2.539061 1_556
C6 Th2 2.539061 1_555
C6 Y0 2.671164 1_556
C6 Y2 2.671164 1_555
C7 Th3 2.539061 1_565
C7 Th0 2.539061 1_454
C7 Y3 2.671164 1_565
C7 Y1 2.671164 1_565
C8 Y2 2.545419 1_665
C8 Y1 2.545419 1_555
C8 Th0 2.750032 1_555
C8 Th2 2.750032 1_655
C8 Th1 2.850277 1_555
C8 Th3 2.850277 1_565
C9 Y0 2.545419 1_655
C9 Y3 2.545419 1_555
C9 Th1 2.750032 1_555
C9 Th3 2.750032 1_554
C9 Th0 2.850277 1_544
C9 Th2 2.850277 1_655
C10 C9 1.378991 1_555
C10 Th2 2.539061 1_655
C10 Th0 2.539061 1_544
C10 Y2 2.671164 1_655
C10 Y1 2.671164 1_655
C11 C8 1.378991 1_555
C11 Th3 2.539061 1_565
C11 Th1 2.539061 1_555
C11 Y0 2.671164 1_555
C11 Y3 2.671164 1_565
