# generated using pymatgen
data_CeMg2
_symmetry_space_group_name_H-M   'P 1'
_cell_length_a   5.95641524
_cell_length_b   5.95641524
_cell_length_c   5.12561500
_cell_angle_alpha   90.00000000
_cell_angle_beta   90.00000000
_cell_angle_gamma   120.20991900
_symmetry_Int_Tables_number   1
_chemical_formula_structural   CeMg2
_chemical_formula_sum   'Ce2 Mg4'
_cell_volume   157.15347846
_cell_formula_units_Z   2
loop_
 _symmetry_equiv_pos_site_id
 _symmetry_equiv_pos_as_xyz
  1  'x, y, z'
loop_
 _atom_site_type_symbol
 _atom_site_label
 _atom_site_symmetry_multiplicity
 _atom_site_fract_x
 _atom_site_fract_y
 _atom_site_fract_z
 _atom_site_occupancy
  Ce  Ce0  1  0.62878900  0.62878900  0.75000000  1
  Ce  Ce1  1  0.37121100  0.37121100  0.25000000  1
  Mg  Mg0  1  0.97297400  0.31667500  0.75000000  1
  Mg  Mg1  1  0.31667500  0.97297400  0.75000000  1
  Mg  Mg2  1  0.68332500  0.02702600  0.25000000  1
  Mg  Mg3  1  0.02702600  0.68332500  0.25000000  1
loop_
_geom_bond_atom_site_label_1
_geom_bond_atom_site_label_2
_geom_bond_distance
_geom_bond_site_symmetry_2
Ce0 Ce1 2.984453 1_555
Ce0 Ce1 2.984453 1_556
Ce0 Mg0 3.377460 1_455
Ce0 Mg1 3.377460 1_545
Ce0 Mg0 3.390369 1_555
Ce0 Mg1 3.390369 1_555
Ce0 Mg2 3.394815 1_566
Ce0 Mg3 3.394815 1_656
Ce0 Mg2 3.394815 1_565
Ce0 Mg3 3.394815 1_655
Ce0 Mg0 3.540885 1_565
Ce0 Mg1 3.540885 1_655
Ce1 Mg2 3.377460 1_565
Ce1 Mg3 3.377460 1_655
Ce1 Mg2 3.390369 1_555
Ce1 Mg3 3.390369 1_555
Ce1 Mg1 3.394815 1_545
Ce1 Mg1 3.394815 1_544
Ce1 Mg0 3.394815 1_455
Ce1 Mg0 3.394815 1_454
Ce1 Mg3 3.540885 1_545
Ce1 Mg2 3.540885 1_455
Mg0 Mg2 3.086368 1_555
Mg0 Mg2 3.086368 1_556
Mg0 Mg3 3.276211 1_656
Mg0 Mg3 3.276211 1_655
Mg0 Mg1 3.379226 1_545
Mg0 Mg1 3.379226 1_655
Mg0 Mg1 3.549644 1_645
Mg1 Mg3 3.086368 1_556
Mg1 Mg3 3.086368 1_555
Mg1 Mg2 3.276211 1_565
Mg1 Mg2 3.276211 1_566
Mg2 Mg3 3.379226 1_655
Mg2 Mg3 3.379226 1_545
Mg2 Mg3 3.549644 1_645
