# generated using pymatgen
data_CsRbP
_symmetry_space_group_name_H-M   'P 1'
_cell_length_a   5.88943440
_cell_length_b   5.88943440
_cell_length_c   5.88943440
_cell_angle_alpha   60.00000000
_cell_angle_beta   60.00000000
_cell_angle_gamma   60.00000000
_symmetry_Int_Tables_number   1
_chemical_formula_structural   CsRbP
_chemical_formula_sum   'Cs1 Rb1 P1'
_cell_volume   144.44608247
_cell_formula_units_Z   1
loop_
 _symmetry_equiv_pos_site_id
 _symmetry_equiv_pos_as_xyz
  1  'x, y, z'
loop_
 _atom_site_type_symbol
 _atom_site_label
 _atom_site_symmetry_multiplicity
 _atom_site_fract_x
 _atom_site_fract_y
 _atom_site_fract_z
 _atom_site_occupancy
  Cs  Cs0  1  0.75000000  0.75000000  0.75000000  1
  Rb  Rb0  1  0.25000000  0.25000000  0.25000000  1
  P  P0  1  0.00000000  0.00000000  0.00000000  1
loop_
_geom_bond_atom_site_label_1
_geom_bond_atom_site_label_2
_geom_bond_distance
_geom_bond_site_symmetry_2
Cs0 P0 3.606527 1_656
Cs0 P0 3.606527 1_566
Cs0 P0 3.606527 1_665
Cs0 P0 3.606527 1_666
P0 Rb0 3.606527 1_455
P0 Rb0 3.606527 1_545
P0 Rb0 3.606527 1_555
P0 Rb0 3.606527 1_554
