# generated using pymatgen
data_ReN2
_symmetry_space_group_name_H-M   'P 1'
_cell_length_a   4.80646159
_cell_length_b   4.80646159
_cell_length_c   2.83203800
_cell_angle_alpha   90.00000000
_cell_angle_beta   90.00000000
_cell_angle_gamma   107.09451873
_symmetry_Int_Tables_number   1
_chemical_formula_structural   ReN2
_chemical_formula_sum   'Re2 N4'
_cell_volume   62.53550494
_cell_formula_units_Z   2
loop_
 _symmetry_equiv_pos_site_id
 _symmetry_equiv_pos_as_xyz
  1  'x, y, z'
loop_
 _atom_site_type_symbol
 _atom_site_label
 _atom_site_symmetry_multiplicity
 _atom_site_fract_x
 _atom_site_fract_y
 _atom_site_fract_z
 _atom_site_occupancy
  Re  Re0  1  0.50000000  0.00000000  0.00000000  1
  Re  Re1  1  0.00000000  0.50000000  0.00000000  1
  N  N0  1  0.68842900  0.31157100  0.50000000  1
  N  N1  1  0.31157100  0.68842900  0.50000000  1
  N  N2  1  0.88571900  0.88571900  0.00000000  1
  N  N3  1  0.11428100  0.11428100  0.00000000  1
loop_
_geom_bond_atom_site_label_1
_geom_bond_atom_site_label_2
_geom_bond_distance
_geom_bond_site_symmetry_2
N0 Re1 2.066558 1_656
N0 Re0 2.066558 1_556
N0 Re1 2.066558 1_655
N0 Re0 2.066558 1_555
N1 Re1 2.066558 1_555
N1 Re0 2.066558 1_566
N1 Re1 2.066558 1_556
N1 Re0 2.066558 1_565
N2 N3 1.305457 1_665
N2 Re0 2.082668 1_565
N2 Re1 2.082668 1_655
N3 Re0 2.082668 1_555
N3 Re1 2.082668 1_555
