# generated using pymatgen
data_ScGe2Ru
_symmetry_space_group_name_H-M   'P 1'
_cell_length_a   8.17721600
_cell_length_b   9.37219400
_cell_length_c   10.43154100
_cell_angle_alpha   90.00000000
_cell_angle_beta   90.00000000
_cell_angle_gamma   90.00000000
_symmetry_Int_Tables_number   1
_chemical_formula_structural   ScGe2Ru
_chemical_formula_sum   'Sc12 Ge24 Ru12'
_cell_volume   799.45718271
_cell_formula_units_Z   12
loop_
 _symmetry_equiv_pos_site_id
 _symmetry_equiv_pos_as_xyz
  1  'x, y, z'
loop_
 _atom_site_type_symbol
 _atom_site_label
 _atom_site_symmetry_multiplicity
 _atom_site_fract_x
 _atom_site_fract_y
 _atom_site_fract_z
 _atom_site_occupancy
  Sc  Sc0  1  0.24088200  0.82426700  0.45009200  1
  Sc  Sc1  1  0.24088200  0.17573300  0.54990800  1
  Sc  Sc2  1  0.75911800  0.32426700  0.04990800  1
  Sc  Sc3  1  0.75911800  0.67573300  0.95009200  1
  Sc  Sc4  1  0.75911800  0.17573300  0.54990800  1
  Sc  Sc5  1  0.75911800  0.82426700  0.45009200  1
  Sc  Sc6  1  0.24088200  0.67573300  0.95009200  1
  Sc  Sc7  1  0.24088200  0.32426700  0.04990800  1
  Sc  Sc8  1  0.00000000  0.83549400  0.17836000  1
  Sc  Sc9  1  0.00000000  0.16450600  0.82164000  1
  Sc  Sc10  1  0.00000000  0.33549400  0.32164000  1
  Sc  Sc11  1  0.00000000  0.66450600  0.67836000  1
  Ge  Ge0  1  0.34492000  0.83920100  0.18023600  1
  Ge  Ge1  1  0.34492000  0.16079900  0.81976400  1
  Ge  Ge2  1  0.65508000  0.33920100  0.31976400  1
  Ge  Ge3  1  0.65508000  0.66079900  0.68023600  1
  Ge  Ge4  1  0.65508000  0.16079900  0.81976400  1
  Ge  Ge5  1  0.65508000  0.83920100  0.18023600  1
  Ge  Ge6  1  0.34492000  0.66079900  0.68023600  1
  Ge  Ge7  1  0.34492000  0.33920100  0.31976400  1
  Ge  Ge8  1  0.50000000  0.53732000  0.11714100  1
  Ge  Ge9  1  0.50000000  0.46268000  0.88285900  1
  Ge  Ge10  1  0.50000000  0.03732000  0.38285900  1
  Ge  Ge11  1  0.50000000  0.96268000  0.61714100  1
  Ge  Ge12  1  0.00000000  0.53674600  0.11750300  1
  Ge  Ge13  1  0.00000000  0.46325400  0.88249700  1
  Ge  Ge14  1  0.00000000  0.03674600  0.38249700  1
  Ge  Ge15  1  0.00000000  0.96325400  0.61750300  1
  Ge  Ge16  1  0.50000000  0.63026500  0.40446800  1
  Ge  Ge17  1  0.50000000  0.36973500  0.59553200  1
  Ge  Ge18  1  0.50000000  0.13026500  0.09553200  1
  Ge  Ge19  1  0.50000000  0.86973500  0.90446800  1
  Ge  Ge20  1  0.00000000  0.63273600  0.39833400  1
  Ge  Ge21  1  0.00000000  0.36726400  0.60166600  1
  Ge  Ge22  1  0.00000000  0.13273600  0.10166600  1
  Ge  Ge23  1  0.00000000  0.86726400  0.89833400  1
  Ru  Ru0  1  0.24915400  0.58885900  0.23818300  1
  Ru  Ru1  1  0.24915400  0.41114100  0.76181700  1
  Ru  Ru2  1  0.75084600  0.08885900  0.26181700  1
  Ru  Ru3  1  0.75084600  0.91114100  0.73818300  1
  Ru  Ru4  1  0.75084600  0.41114100  0.76181700  1
  Ru  Ru5  1  0.75084600  0.58885900  0.23818300  1
  Ru  Ru6  1  0.24915400  0.91114100  0.73818300  1
  Ru  Ru7  1  0.24915400  0.08885900  0.26181700  1
  Ru  Ru8  1  0.24632800  0.50000000  0.50000000  1
  Ru  Ru9  1  0.75367200  0.00000000  0.00000000  1
  Ru  Ru10  1  0.75367200  0.50000000  0.50000000  1
  Ru  Ru11  1  0.24632800  0.00000000  0.00000000  1
loop_
_geom_bond_atom_site_label_1
_geom_bond_atom_site_label_2
_geom_bond_distance
_geom_bond_site_symmetry_2
Ge0 Ge5 2.536245 1_555
Ge0 Ru11 2.540878 1_565
Ge0 Ru0 2.546280 1_555
Ge0 Ru7 2.610046 1_565
Ge0 Sc8 2.820767 1_555
Ge0 Sc0 2.944088 1_555
Ge0 Sc6 2.972302 1_554
Ge1 Ge4 2.536245 1_555
Ge1 Ru11 2.540878 1_556
Ge1 Ru1 2.546280 1_555
Ge1 Ru6 2.610046 1_545
Ge1 Sc9 2.820767 1_555
Ge1 Sc1 2.944088 1_555
Ge1 Sc7 2.972302 1_556
Ge2 Ge7 2.536245 1_555
Ge2 Ru10 2.540878 1_555
Ge2 Ru2 2.546280 1_555
Ge2 Ru5 2.610046 1_555
Ge2 Sc10 2.820767 1_655
Ge2 Sc2 2.944088 1_555
Ge2 Sc4 2.972302 1_555
Ge3 Ge6 2.536245 1_555
Ge3 Ru10 2.540878 1_555
Ge3 Ru3 2.546280 1_555
Ge3 Ru4 2.610046 1_555
Ge3 Sc11 2.820767 1_655
Ge3 Sc3 2.944088 1_555
Ge3 Sc5 2.972302 1_555
Ge4 Ru9 2.540878 1_556
Ge4 Ru4 2.546280 1_555
Ge4 Ru3 2.610046 1_545
Ge4 Sc9 2.820767 1_655
Ge4 Sc4 2.944088 1_555
Ge4 Sc2 2.972302 1_556
Ge5 Ru9 2.540878 1_565
Ge5 Ru5 2.546280 1_555
Ge5 Ru2 2.610046 1_565
Ge5 Sc8 2.820767 1_655
Ge5 Sc5 2.944088 1_555
Ge5 Sc3 2.972302 1_554
Ge6 Ru8 2.540878 1_555
Ge6 Ru6 2.546280 1_555
Ge6 Ru1 2.610046 1_555
Ge6 Sc11 2.820767 1_555
Ge6 Sc6 2.944088 1_555
Ge6 Sc0 2.972302 1_555
Ge7 Ru8 2.540878 1_555
Ge7 Ru7 2.546280 1_555
Ge7 Ru0 2.610046 1_555
Ge7 Sc10 2.820767 1_555
Ge7 Sc7 2.944088 1_555
Ge7 Sc1 2.972302 1_555
Ge8 Ru0 2.456650 1_555
Ge8 Ru5 2.456650 1_555
Ge8 Ge9 2.542069 1_554
Ge8 Sc2 2.994758 1_555
Ge8 Sc7 2.994758 1_555
Ge8 Sc6 3.034630 1_554
Ge8 Sc3 3.034630 1_554
Ge9 Ru1 2.456650 1_555
Ge9 Ru4 2.456650 1_555
Ge9 Sc3 2.994758 1_555
Ge9 Sc6 2.994758 1_555
Ge9 Sc7 3.034630 1_556
Ge9 Sc2 3.034630 1_556
Ge10 Ru7 2.456650 1_555
Ge10 Ru2 2.456650 1_555
Ge10 Ge11 2.542069 1_545
Ge10 Sc5 2.994758 1_545
Ge10 Sc0 2.994758 1_545
Ge10 Sc1 3.034630 1_555
Ge10 Sc4 3.034630 1_555
Ge11 Ru3 2.456650 1_555
Ge11 Ru6 2.456650 1_555
Ge11 Sc4 2.994758 1_565
Ge11 Sc1 2.994758 1_565
Ge11 Sc5 3.034630 1_555
Ge11 Sc0 3.034630 1_555
Ge12 Ru0 2.444231 1_555
Ge12 Ru5 2.444231 1_455
Ge12 Ge13 2.546399 1_554
Ge12 Sc10 2.844690 1_555
Ge12 Sc8 2.870991 1_555
Ge12 Sc7 2.888380 1_555
Ge12 Sc2 2.888380 1_455
Ge12 Sc6 2.937081 1_554
Ge12 Sc3 2.937081 1_454
Ge13 Ru4 2.444231 1_455
Ge13 Ru1 2.444231 1_555
Ge13 Sc11 2.844690 1_555
Ge13 Sc9 2.870991 1_555
Ge13 Sc6 2.888380 1_555
Ge13 Sc3 2.888380 1_455
Ge13 Sc2 2.937081 1_456
Ge13 Sc7 2.937081 1_556
Ge14 Ru2 2.444231 1_455
Ge14 Ru7 2.444231 1_555
Ge14 Ge15 2.546399 1_545
Ge14 Sc8 2.844690 1_545
Ge14 Sc10 2.870991 1_555
Ge14 Sc5 2.888380 1_445
Ge14 Sc0 2.888380 1_545
Ge14 Sc1 2.937081 1_555
Ge14 Sc4 2.937081 1_455
Ge15 Ru6 2.444231 1_555
Ge15 Ru3 2.444231 1_455
Ge15 Sc9 2.844690 1_565
Ge15 Sc11 2.870991 1_555
Ge15 Sc1 2.888380 1_565
Ge15 Sc4 2.888380 1_465
Ge15 Sc5 2.937081 1_455
Ge15 Sc0 2.937081 1_555
Ge16 Ru8 2.605086 1_555
Ge16 Ru10 2.605086 1_555
Ge16 Ru0 2.714217 1_555
Ge16 Ru5 2.714217 1_555
Ge16 Sc0 2.832319 1_555
Ge16 Sc5 2.832319 1_555
Ge17 Ru8 2.605086 1_555
Ge17 Ru10 2.605086 1_555
Ge17 Ru4 2.714217 1_555
Ge17 Ru1 2.714217 1_555
Ge17 Sc1 2.832319 1_555
Ge17 Sc4 2.832319 1_555
Ge18 Ru11 2.605086 1_555
Ge18 Ru9 2.605086 1_555
Ge18 Ru2 2.714217 1_555
Ge18 Ru7 2.714217 1_555
Ge18 Sc7 2.832319 1_555
Ge18 Sc2 2.832319 1_555
Ge19 Ru9 2.605086 1_566
Ge19 Ru11 2.605086 1_566
Ge19 Ru6 2.714217 1_555
Ge19 Ru3 2.714217 1_555
Ge19 Sc6 2.832319 1_555
Ge19 Sc3 2.832319 1_555
Ge20 Ru10 2.594156 1_455
Ge20 Ru8 2.594156 1_555
Ge20 Ru0 2.666650 1_555
Ge20 Ru5 2.666650 1_455
Ge20 Sc0 2.719129 1_555
Ge20 Sc5 2.719129 1_455
Ge20 Sc10 2.898412 1_555
Ge20 Sc11 2.936239 1_555
Ge20 Sc8 2.979361 1_555
Ge21 Ru10 2.594156 1_455
Ge21 Ru8 2.594156 1_555
Ge21 Ru4 2.666650 1_455
Ge21 Ru1 2.666650 1_555
Ge21 Sc1 2.719129 1_555
Ge21 Sc4 2.719129 1_455
Ge21 Sc11 2.898412 1_555
Ge21 Sc10 2.936239 1_555
Ge21 Sc9 2.979361 1_555
Ge22 Ru11 2.594156 1_555
Ge22 Ru9 2.594156 1_455
Ge22 Ru2 2.666650 1_455
Ge22 Ru7 2.666650 1_555
Ge22 Sc7 2.719129 1_555
Ge22 Sc2 2.719129 1_455
Ge22 Sc8 2.898412 1_545
Ge22 Sc9 2.936239 1_554
Ge22 Sc10 2.979361 1_555
Ge23 Ru11 2.594156 1_566
Ge23 Ru9 2.594156 1_466
Ge23 Ru6 2.666650 1_555
Ge23 Ru3 2.666650 1_455
Ge23 Sc6 2.719129 1_555
Ge23 Sc3 2.719129 1_455
Ge23 Sc9 2.898412 1_565
Ge23 Sc8 2.936239 1_556
Ge23 Sc11 2.979361 1_555
Ru0 Ru8 2.855399 1_555
Ru0 Sc6 3.114309 1_554
Ru0 Sc0 3.123902 1_555
Ru0 Sc8 3.143797 1_555
Ru0 Sc7 3.164066 1_555
Ru0 Sc10 3.247694 1_555
Ru1 Ru8 2.855399 1_555
Ru1 Sc7 3.114309 1_556
Ru1 Sc1 3.123902 1_555
Ru1 Sc9 3.143797 1_555
Ru1 Sc6 3.164066 1_555
Ru1 Sc11 3.247694 1_555
Ru2 Ru9 2.855399 1_555
Ru2 Sc4 3.114309 1_555
Ru2 Sc2 3.123902 1_555
Ru2 Sc10 3.143797 1_655
Ru2 Sc5 3.164066 1_545
Ru2 Sc8 3.247694 1_645
Ru3 Ru9 2.855399 1_566
Ru3 Sc5 3.114309 1_555
Ru3 Sc3 3.123902 1_555
Ru3 Sc11 3.143797 1_655
Ru3 Sc4 3.164066 1_565
Ru3 Sc9 3.247694 1_665
Ru4 Sc2 3.114309 1_556
Ru4 Sc4 3.123902 1_555
Ru4 Sc9 3.143797 1_655
Ru4 Sc3 3.164066 1_555
Ru4 Sc11 3.247694 1_655
Ru5 Sc3 3.114309 1_554
Ru5 Sc5 3.123902 1_555
Ru5 Sc8 3.143797 1_655
Ru5 Sc2 3.164066 1_555
Ru5 Sc10 3.247694 1_655
Ru6 Sc0 3.114309 1_555
Ru6 Sc6 3.123902 1_555
Ru6 Sc11 3.143797 1_555
Ru6 Sc1 3.164066 1_565
Ru6 Sc9 3.247694 1_565
Ru7 Sc1 3.114309 1_555
Ru7 Sc7 3.123902 1_555
Ru7 Sc10 3.143797 1_555
Ru7 Sc0 3.164066 1_545
Ru7 Sc8 3.247694 1_545
Ru8 Sc1 3.083685 1_555
Ru8 Sc0 3.083685 1_555
Ru8 Sc11 3.145811 1_555
Ru8 Sc10 3.145811 1_555
Ru9 Sc3 3.083685 1_544
Ru9 Sc2 3.083685 1_555
Ru9 Sc8 3.145811 1_645
Ru9 Sc9 3.145811 1_654
Ru10 Ru5 2.855399 1_555
Ru10 Ru4 2.855399 1_555
Ru10 Sc4 3.083685 1_555
Ru10 Sc5 3.083685 1_555
Ru10 Sc11 3.145811 1_655
Ru10 Sc10 3.145811 1_655
Ru11 Ru6 2.855399 1_544
Ru11 Ru7 2.855399 1_555
Ru11 Sc6 3.083685 1_544
Ru11 Sc7 3.083685 1_555
Ru11 Sc8 3.145811 1_545
Ru11 Sc9 3.145811 1_554
