# generated using pymatgen
data_CsNiO2
_symmetry_space_group_name_H-M   'P 1'
_cell_length_a   6.02528375
_cell_length_b   6.02528375
_cell_length_c   6.02528375
_cell_angle_alpha   60.00000000
_cell_angle_beta   60.00000000
_cell_angle_gamma   60.00000000
_symmetry_Int_Tables_number   1
_chemical_formula_structural   CsNiO2
_chemical_formula_sum   'Cs2 Ni2 O4'
_cell_volume   154.67407051
_cell_formula_units_Z   2
loop_
 _symmetry_equiv_pos_site_id
 _symmetry_equiv_pos_as_xyz
  1  'x, y, z'
loop_
 _atom_site_type_symbol
 _atom_site_label
 _atom_site_symmetry_multiplicity
 _atom_site_fract_x
 _atom_site_fract_y
 _atom_site_fract_z
 _atom_site_occupancy
  Cs  Cs0  1  0.50000000  0.50000000  0.50000000  1
  Cs  Cs1  1  0.75000000  0.75000000  0.75000000  1
  Ni  Ni0  1  0.00000000  0.00000000  0.00000000  1
  Ni  Ni1  1  0.25000000  0.25000000  0.25000000  1
  O  O0  1  0.12500000  0.12500000  0.12500000  1
  O  O1  1  0.62500000  0.12500000  0.12500000  1
  O  O2  1  0.12500000  0.12500000  0.62500000  1
  O  O3  1  0.12500000  0.62500000  0.12500000  1
loop_
_geom_bond_atom_site_label_1
_geom_bond_atom_site_label_2
_geom_bond_distance
_geom_bond_site_symmetry_2
Cs0 O1 3.532636 1_555
Cs0 O1 3.532636 1_556
Cs0 O0 3.532636 1_565
Cs0 O1 3.532636 1_565
Cs0 O3 3.532636 1_555
Cs0 O2 3.532636 1_555
Cs0 O3 3.532636 1_556
Cs0 O0 3.532636 1_556
Cs0 O0 3.532636 1_655
Cs0 O2 3.532636 1_655
Cs0 O2 3.532636 1_565
Cs0 O3 3.532636 1_655
Cs1 O3 3.532636 1_656
Cs1 O2 3.532636 1_665
Cs1 O1 3.532636 1_556
Cs1 O3 3.532636 1_655
Cs1 O0 3.532636 1_665
Cs1 O0 3.532636 1_566
Cs1 O1 3.532636 1_566
Cs1 O1 3.532636 1_565
Cs1 O0 3.532636 1_656
Cs1 O2 3.532636 1_655
Cs1 O3 3.532636 1_556
Cs1 O2 3.532636 1_565
Ni0 O3 1.844859 1_545
Ni0 O0 1.844859 1_555
Ni0 O2 1.844859 1_554
Ni0 O1 1.844859 1_455
Ni1 O0 1.844859 1_555
Ni1 O3 1.844859 1_555
Ni1 O2 1.844859 1_555
Ni1 O1 1.844859 1_555
