# generated using pymatgen
data_BaSr3Ag4
_symmetry_space_group_name_H-M   'P 1'
_cell_length_a   4.91996700
_cell_length_b   6.45129814
_cell_length_c   8.37073623
_cell_angle_alpha   89.05976130
_cell_angle_beta   90.00000000
_cell_angle_gamma   90.00000000
_symmetry_Int_Tables_number   1
_chemical_formula_structural   BaSr3Ag4
_chemical_formula_sum   'Ba1 Sr3 Ag4'
_cell_volume   265.65285007
_cell_formula_units_Z   1
loop_
 _symmetry_equiv_pos_site_id
 _symmetry_equiv_pos_as_xyz
  1  'x, y, z'
loop_
 _atom_site_type_symbol
 _atom_site_label
 _atom_site_symmetry_multiplicity
 _atom_site_fract_x
 _atom_site_fract_y
 _atom_site_fract_z
 _atom_site_occupancy
  Ba  Ba0  1  0.25000000  0.87060900  0.67923300  1
  Sr  Sr0  1  0.25000000  0.63130400  0.17987800  1
  Sr  Sr1  1  0.75000000  0.13380900  0.31597900  1
  Sr  Sr2  1  0.75000000  0.36774600  0.82200500  1
  Ag  Ag0  1  0.25000000  0.37663300  0.53159300  1
  Ag  Ag1  1  0.25000000  0.12503900  0.03951200  1
  Ag  Ag2  1  0.75000000  0.61633000  0.45937400  1
  Ag  Ag3  1  0.75000000  0.87853000  0.97242600  1
loop_
_geom_bond_atom_site_label_1
_geom_bond_atom_site_label_2
_geom_bond_distance
_geom_bond_site_symmetry_2
Ag0 Ag2 2.962686 1_555
Ag0 Ag2 2.962686 1_455
Ag0 Sr0 3.347890 1_555
Ag0 Ba0 3.436888 1_555
Ag0 Sr1 3.443226 1_455
Ag0 Sr1 3.443226 1_555
Ag0 Sr2 3.458296 1_555
Ag0 Sr2 3.458296 1_455
Ag0 Ba0 3.471594 1_545
Ag1 Ag3 2.987514 1_544
Ag1 Ag3 2.987514 1_444
Ag1 Sr0 3.376895 1_545
Ag1 Sr1 3.378563 1_555
Ag1 Sr1 3.378563 1_455
Ag1 Sr2 3.424111 1_554
Ag1 Sr2 3.424111 1_454
Ag1 Ba0 3.457126 1_544
Ag1 Sr0 3.489080 1_555
Ag2 Sr1 3.354618 1_555
Ag2 Sr0 3.395159 1_655
Ag2 Sr0 3.395159 1_555
Ag2 Sr2 3.409728 1_555
Ag2 Ba0 3.496944 1_555
Ag2 Ba0 3.496944 1_655
Ag2 Sr1 3.529058 1_565
Ag3 Sr1 3.337338 1_566
Ag3 Sr2 3.378732 1_565
Ag3 Sr0 3.394104 1_656
Ag3 Sr0 3.394104 1_556
Ag3 Ba0 3.475852 1_655
Ag3 Ba0 3.475852 1_555
Ag3 Sr2 3.546839 1_555
