# generated using pymatgen
data_Li6MnV3(PO4)6
_symmetry_space_group_name_H-M   'P 1'
_cell_length_a   8.68540200
_cell_length_b   8.69567846
_cell_length_c   15.13626564
_cell_angle_alpha   73.40965982
_cell_angle_beta   74.17250423
_cell_angle_gamma   61.62674655
_symmetry_Int_Tables_number   1
_chemical_formula_structural   Li6MnV3(PO4)6
_chemical_formula_sum   'Li12 Mn2 V6 P12 O48'
_cell_volume   951.15399898
_cell_formula_units_Z   2
loop_
 _symmetry_equiv_pos_site_id
 _symmetry_equiv_pos_as_xyz
  1  'x, y, z'
loop_
 _atom_site_type_symbol
 _atom_site_label
 _atom_site_symmetry_multiplicity
 _atom_site_fract_x
 _atom_site_fract_y
 _atom_site_fract_z
 _atom_site_occupancy
  Li  Li0  1  0.29747200  0.43539900  0.32182200  1
  Li  Li1  1  0.18389900  0.16045300  0.55372800  1
  Li  Li2  1  0.68204100  0.66795800  0.05070600  1
  Li  Li3  1  0.16660400  0.06627000  0.18850200  1
  Li  Li4  1  0.21269400  0.84966100  0.82766900  1
  Li  Li5  1  0.71332000  0.35006100  0.32850400  1
  Li  Li6  1  0.26831000  0.58002600  0.63261800  1
  Li  Li7  1  0.76593000  0.08414900  0.13273600  1
  Li  Li8  1  0.79952800  0.92975400  0.82123000  1
  Li  Li9  1  0.67482700  0.56288700  0.68838300  1
  Li  Li10  1  0.35996100  0.19888200  0.97809200  1
  Li  Li11  1  0.86237400  0.69996300  0.47989600  1
  Mn  Mn0  1  0.78636200  0.28123600  0.57383700  1
  Mn  Mn1  1  0.47763200  0.96143900  0.67596800  1
  V  V0  1  0.28604100  0.78373600  0.07340200  1
  V  V1  1  0.03181900  0.53426700  0.82082000  1
  V  V2  1  0.53379900  0.03988800  0.32004900  1
  V  V3  1  0.21659400  0.72080100  0.42456000  1
  V  V4  1  0.97235000  0.46109200  0.17924600  1
  V  V5  1  0.71596500  0.21476400  0.92358300  1
  P  P0  1  0.01306200  0.21680500  0.73553500  1
  P  P1  1  0.51666500  0.71934900  0.23667600  1
  P  P2  1  0.02272400  0.22744100  0.02300900  1
  P  P3  1  0.09830100  0.16652700  0.37543000  1
  P  P4  1  0.40389500  0.33114000  0.12404600  1
  P  P5  1  0.47694700  0.28006000  0.47640300  1
  P  P6  1  0.52179300  0.73847700  0.52412900  1
  P  P7  1  0.59710000  0.66255100  0.87575900  1
  P  P8  1  0.90685100  0.82436000  0.62617500  1
  P  P9  1  0.97466500  0.77444200  0.97701400  1
  P  P10  1  0.48675700  0.27263900  0.76090900  1
  P  P11  1  0.98722700  0.77830100  0.26251900  1
  O  O0  1  0.02237400  0.60278500  0.23840500  1
  O  O1  1  0.46506200  0.78078800  0.13746800  1
  O  O2  1  0.39923900  0.63651700  0.30930400  1
  O  O3  1  0.00708000  0.21153800  0.47375700  1
  O  O4  1  0.30104500  0.45218900  0.46666100  1
  O  O5  1  0.35725500  0.52394500  0.12281500  1
  O  O6  1  0.23529300  0.29832600  0.14566200  1
  O  O7  1  0.26504700  0.20227400  0.35237800  1
  O  O8  1  0.20336200  0.06711100  0.72638900  1
  O  O9  1  0.70709400  0.56610900  0.22973700  1
  O  O10  1  0.20602700  0.06257200  0.03480000  1
  O  O11  1  0.15222000  0.97264000  0.36999800  1
  O  O12  1  0.10859100  0.85933000  0.19091200  1
  O  O13  1  0.01344300  0.75999700  0.53270000  1
  O  O14  1  0.11836900  0.81254500  0.99532100  1
  O  O15  1  0.42413900  0.14632800  0.55297500  1
  O  O16  1  0.50884900  0.26229500  0.03168200  1
  O  O17  1  0.03056600  0.70589500  0.70089500  1
  O  O18  1  0.05229400  0.71411300  0.87962300  1
  O  O19  1  0.62548400  0.31296500  0.49450300  1
  O  O20  1  0.92611200  0.63741000  0.05473700  1
  O  O21  1  0.02969300  0.72491700  0.36314500  1
  O  O22  1  0.52682900  0.21623500  0.19932500  1
  O  O23  1  0.55273600  0.22234700  0.37831600  1
  O  O24  1  0.52423800  0.09476900  0.73772000  1
  O  O25  1  0.49729800  0.88439900  0.26353200  1
  O  O26  1  0.43503700  0.81467700  0.61779200  1
  O  O27  1  0.94485500  0.29627700  0.11714100  1
  O  O28  1  0.95717800  0.28248400  0.63600400  1
  O  O29  1  0.46859200  0.77547600  0.80438100  1
  O  O30  1  0.07034800  0.36057300  0.94183300  1
  O  O31  1  0.38159200  0.68958200  0.51100300  1
  O  O32  1  0.97092600  0.28170000  0.30281400  1
  O  O33  1  0.56668800  0.87199000  0.44229800  1
  O  O34  1  0.88262300  0.18038900  0.00778400  1
  O  O35  1  0.89680800  0.13215900  0.80804600  1
  O  O36  1  0.50743100  0.70885800  0.97404800  1
  O  O37  1  0.79606200  0.94354300  0.96723700  1
  O  O38  1  0.86024400  0.01508000  0.62670300  1
  O  O39  1  0.29605200  0.41602600  0.75779900  1
  O  O40  1  0.79712700  0.92478500  0.25789700  1
  O  O41  1  0.74007600  0.78875800  0.64565700  1
  O  O42  1  0.76445400  0.69854100  0.85231600  1
  O  O43  1  0.70204700  0.57641800  0.53899000  1
  O  O44  1  0.65398500  0.46714000  0.87169700  1
  O  O45  1  0.60491800  0.35765800  0.68895300  1
  O  O46  1  0.53183900  0.21793400  0.86121300  1
  O  O47  1  0.99087000  0.38366100  0.76168100  1
loop_
_geom_bond_atom_site_label_1
_geom_bond_atom_site_label_2
_geom_bond_distance
_geom_bond_site_symmetry_2
Li0 O7 2.082984 1_555
Li0 O4 2.247833 1_555
Li0 O2 2.250387 1_555
Li0 O23 2.303159 1_555
Li1 O28 1.996373 1_455
Li1 O3 2.019813 1_555
Li1 O15 2.028122 1_555
Li1 O8 2.533120 1_555
Li2 O1 1.966526 1_555
Li2 O36 1.996087 1_554
Li2 O20 2.023406 1_555
Li3 O12 2.075474 1_545
Li3 O6 2.243701 1_555
Li3 O27 2.261934 1_455
Li3 O10 2.264616 1_555
Li4 O29 1.954495 1_555
Li4 O8 2.049113 1_565
Li4 O18 2.093390 1_555
Li4 O14 2.421662 1_555
Li5 O32 1.975832 1_555
Li5 O9 2.027559 1_555
Li5 O23 2.041439 1_555
Li5 O19 2.392631 1_555
Li6 O17 1.965623 1_555
Li6 O39 2.015281 1_555
Li6 O31 2.040987 1_555
Li7 O22 1.974861 1_555
Li7 O40 2.001688 1_545
Li7 O34 2.039924 1_555
Li8 O42 2.078515 1_555
Li8 O35 2.229867 1_565
Li8 O37 2.238524 1_555
Li8 O18 2.305748 1_655
Li8 O46 2.571490 1_565
Li8 O24 2.593395 1_565
Li9 O45 2.138175 1_555
Li9 O41 2.174793 1_555
Li9 O43 2.183091 1_555
Li9 O26 2.411851 1_555
Li9 O29 2.588323 1_555
Li9 O28 2.635916 1_555
Li9 O44 2.641004 1_555
Li10 O46 2.003202 1_555
Li10 O16 2.034600 1_556
Li10 O10 2.056310 1_556
Li10 O30 2.357196 1_555
Li11 O21 1.990412 1_655
Li11 O43 2.021614 1_555
Li11 O13 2.023424 1_655
Li11 O33 2.411809 1_555
Mn0 O19 1.957083 1_555
Mn0 O28 1.967051 1_555
Mn0 O45 2.032044 1_555
Mn0 O3 2.042790 1_655
Mn0 O38 2.054157 1_555
Mn0 O43 2.248118 1_555
Mn1 O24 1.911278 1_565
Mn1 O26 1.951693 1_555
Mn1 O41 2.056919 1_555
Mn1 O15 2.078248 1_565
Mn1 O8 2.104704 1_565
Mn1 O29 2.154434 1_555
O0 P11 1.539583 1_455
O0 V4 1.964627 1_455
O1 P1 1.556482 1_555
O1 V0 2.032001 1_555
O2 P1 1.549811 1_555
O2 V3 2.052466 1_555
O3 P3 1.546179 1_555
O4 P5 1.555527 1_555
O4 V3 2.043657 1_555
O5 P4 1.521880 1_555
O5 V0 2.001197 1_555
O6 P4 1.554134 1_555
O6 V4 2.045170 1_455
O7 P3 1.551160 1_555
O7 V2 2.078653 1_555
O8 P0 1.542299 1_555
O9 P1 1.553287 1_555
O9 V4 2.040655 1_555
O10 P2 1.568894 1_555
O10 V0 2.124700 1_545
O11 P3 1.541537 1_565
O11 V3 1.961058 1_555
O12 P11 1.558498 1_455
O12 V0 2.044639 1_555
O13 P8 1.554798 1_455
O13 V3 2.019968 1_555
O14 P9 1.542244 1_455
O14 V0 2.000846 1_556
O15 P5 1.534041 1_555
O16 P4 1.551768 1_555
O16 V5 2.039118 1_554
O17 P8 1.562192 1_455
O17 V1 1.992679 1_555
O18 P9 1.570400 1_455
O18 V1 2.101214 1_555
O19 P5 1.552321 1_555
O20 P9 1.545368 1_554
O20 V4 2.059445 1_555
O21 P11 1.552843 1_455
O21 V3 2.061429 1_555
O22 P4 1.560855 1_555
O22 V2 2.016477 1_555
O23 P5 1.570930 1_555
O23 V2 2.109127 1_555
O24 P10 1.546154 1_555
O25 P1 1.523092 1_555
O25 V2 1.968826 1_565
O26 P6 1.579847 1_555
O27 P2 1.556406 1_655
O27 V4 2.052263 1_555
O28 P0 1.573360 1_655
O29 P7 1.545171 1_555
O30 P2 1.544863 1_556
O30 V1 2.005605 1_555
O31 P6 1.541209 1_555
O31 V3 2.071135 1_555
O32 P3 1.554561 1_655
O32 V4 2.066732 1_555
O33 P6 1.542637 1_555
O33 V2 1.996581 1_565
O34 P2 1.543110 1_655
O34 V5 2.046080 1_554
O35 P0 1.551266 1_655
O35 V5 2.046466 1_555
O36 P7 1.547267 1_555
O36 V0 2.043223 1_556
O37 P9 1.556752 1_555
O37 V5 2.069857 1_565
O38 P8 1.510661 1_545
O39 P10 1.531834 1_555
O39 V1 2.087397 1_555
O40 P11 1.538431 1_555
O40 V2 2.075098 1_565
O41 P8 1.556292 1_555
O42 P7 1.556986 1_555
O42 V1 2.071855 1_655
O43 P6 1.549752 1_555
O44 P7 1.542868 1_555
O44 V5 1.961205 1_555
O45 P10 1.561287 1_555
O46 P10 1.555455 1_555
O46 V5 2.053346 1_555
O47 P0 1.522976 1_655
O47 V1 1.982090 1_655
