# generated using pymatgen
data_Be2Ru
_symmetry_space_group_name_H-M   'P 1'
_cell_length_a   4.33004310
_cell_length_b   4.33004310
_cell_length_c   7.02681755
_cell_angle_alpha   89.99998776
_cell_angle_beta   90.00000400
_cell_angle_gamma   119.99933481
_symmetry_Int_Tables_number   1
_chemical_formula_structural   Be2Ru
_chemical_formula_sum   'Be8 Ru4'
_cell_volume   114.09763941
_cell_formula_units_Z   4
loop_
 _symmetry_equiv_pos_site_id
 _symmetry_equiv_pos_as_xyz
  1  'x, y, z'
loop_
 _atom_site_type_symbol
 _atom_site_label
 _atom_site_symmetry_multiplicity
 _atom_site_fract_x
 _atom_site_fract_y
 _atom_site_fract_z
 _atom_site_occupancy
  Be  Be0  1  0.00000000  0.00000000  0.50000000  1
  Be  Be1  1  0.00000000  0.00000000  -0.00000000  1
  Be  Be2  1  0.16925467  0.33850487  0.74997828  1
  Be  Be3  1  0.16925904  0.83074096  0.74997875  1
  Be  Be4  1  0.66149513  0.83074533  0.74997928  1
  Be  Be5  1  0.83074533  0.66149513  0.25002172  1
  Be  Be6  1  0.83074096  0.16925904  0.25002125  1
  Be  Be7  1  0.33850487  0.16925467  0.25002072  1
  Ru  Ru0  1  0.66666724  0.33333276  0.56174119  1
  Ru  Ru1  1  0.33333276  0.66666724  0.43825881  1
  Ru  Ru2  1  0.33333282  0.66666718  0.06177496  1
  Ru  Ru3  1  0.66666718  0.33333282  0.93822504  1
loop_
_geom_bond_atom_site_label_1
_geom_bond_atom_site_label_2
_geom_bond_distance
_geom_bond_site_symmetry_2
Be0 Be2 2.167209 1_555
Be0 Be5 2.167209 1_445
Be0 Be4 2.167214 1_445
Be0 Be7 2.167214 1_555
Be0 Be6 2.167233 1_455
Be0 Be3 2.167233 1_545
Be0 Ru0 2.537305 1_455
Be0 Ru1 2.537305 1_545
Be0 Ru1 2.537336 1_555
Be0 Ru0 2.537336 1_445
Be0 Ru1 2.537336 1_445
Be0 Ru0 2.537336 1_555
Be1 Be4 2.167450 1_444
Be1 Be7 2.167450 1_555
Be1 Be5 2.167456 1_445
Be1 Be2 2.167456 1_554
Be1 Be3 2.167475 1_544
Be1 Be6 2.167475 1_455
Be1 Ru2 2.537346 1_545
Be1 Ru3 2.537346 1_454
Be1 Ru2 2.537376 1_445
Be1 Ru3 2.537376 1_554
Be1 Ru3 2.537376 1_444
Be1 Ru2 2.537376 1_555
Be2 Be3 2.131394 1_555
Be2 Be4 2.131444 1_555
Be2 Be4 2.198643 1_445
Be2 Be3 2.198649 1_545
Be2 Ru1 2.512408 1_555
Be2 Ru2 2.512881 1_556
Be2 Ru0 2.537168 1_555
Be2 Ru0 2.537179 1_455
Be2 Ru3 2.537203 1_555
Be2 Ru3 2.537215 1_455
Be3 Be4 2.131394 1_555
Be3 Be4 2.198649 1_455
Be3 Ru1 2.512378 1_555
Be3 Ru2 2.512845 1_556
Be3 Ru0 2.537194 1_565
Be3 Ru0 2.537194 1_455
Be3 Ru3 2.537226 1_455
Be3 Ru3 2.537226 1_565
Be4 Ru1 2.512414 1_555
Be4 Ru2 2.512875 1_556
Be4 Ru0 2.537172 1_555
Be4 Ru0 2.537182 1_565
Be4 Ru3 2.537200 1_555
Be4 Ru3 2.537211 1_565
Be5 Be6 2.131394 1_555
Be5 Be7 2.131444 1_555
Be5 Be7 2.198643 1_665
Be5 Be6 2.198649 1_565
Be5 Ru0 2.512408 1_555
Be5 Ru3 2.512881 1_554
Be5 Ru1 2.537168 1_555
Be5 Ru1 2.537179 1_655
Be5 Ru2 2.537203 1_555
Be5 Ru2 2.537215 1_655
Be6 Be7 2.131394 1_555
Be6 Be7 2.198649 1_655
Be6 Ru0 2.512378 1_555
Be6 Ru3 2.512845 1_554
Be6 Ru1 2.537194 1_545
Be6 Ru1 2.537194 1_655
Be6 Ru2 2.537226 1_655
Be6 Ru2 2.537226 1_545
Be7 Ru0 2.512414 1_555
Be7 Ru3 2.512875 1_554
Be7 Ru1 2.537172 1_555
Be7 Ru1 2.537182 1_545
Be7 Ru2 2.537200 1_555
Be7 Ru2 2.537211 1_545
