# generated using pymatgen
data_AlCo3
_symmetry_space_group_name_H-M   'P 1'
_cell_length_a   5.07436252
_cell_length_b   5.07436252
_cell_length_c   4.08565000
_cell_angle_alpha   90.00000000
_cell_angle_beta   90.00000000
_cell_angle_gamma   120.00000677
_symmetry_Int_Tables_number   1
_chemical_formula_structural   AlCo3
_chemical_formula_sum   'Al2 Co6'
_cell_volume   91.10762866
_cell_formula_units_Z   2
loop_
 _symmetry_equiv_pos_site_id
 _symmetry_equiv_pos_as_xyz
  1  'x, y, z'
loop_
 _atom_site_type_symbol
 _atom_site_label
 _atom_site_symmetry_multiplicity
 _atom_site_fract_x
 _atom_site_fract_y
 _atom_site_fract_z
 _atom_site_occupancy
  Al  Al0  1  0.33333300  0.66666700  0.75000000  1
  Al  Al1  1  0.66666700  0.33333300  0.25000000  1
  Co  Co0  1  0.83512600  0.16487400  0.75000000  1
  Co  Co1  1  0.83512600  0.67025200  0.75000000  1
  Co  Co2  1  0.32974800  0.16487400  0.75000000  1
  Co  Co3  1  0.16487400  0.83512600  0.25000000  1
  Co  Co4  1  0.16487400  0.32974800  0.25000000  1
  Co  Co5  1  0.67025200  0.83512600  0.25000000  1
loop_
_geom_bond_atom_site_label_1
_geom_bond_atom_site_label_2
_geom_bond_distance
_geom_bond_site_symmetry_2
Al0 Co3 2.522954 1_555
Al0 Co3 2.522954 1_556
Al0 Co4 2.522956 1_555
Al0 Co5 2.522956 1_555
Al0 Co5 2.522956 1_556
Al0 Co4 2.522956 1_556
Al0 Co2 2.537228 1_565
Al0 Co1 2.537228 1_455
Al0 Co0 2.537230 1_565
Al0 Co0 2.537230 1_455
Al0 Co1 2.537233 1_555
Al0 Co2 2.537233 1_555
Al1 Co0 2.522954 1_554
Al1 Co0 2.522954 1_555
Al1 Co1 2.522956 1_554
Al1 Co2 2.522956 1_554
Al1 Co1 2.522956 1_555
Al1 Co2 2.522956 1_555
Al1 Co5 2.537228 1_545
Al1 Co4 2.537228 1_655
Al1 Co3 2.537230 1_545
Al1 Co3 2.537230 1_655
Al1 Co5 2.537233 1_555
Al1 Co4 2.537233 1_555
Co0 Co4 2.504593 1_656
Co0 Co4 2.504593 1_655
Co0 Co5 2.504593 1_546
Co0 Co5 2.504593 1_545
Co0 Co2 2.509891 1_655
Co0 Co1 2.509891 1_545
Co0 Co1 2.564471 1_555
Co0 Co2 2.564471 1_555
Co1 Co3 2.504593 1_656
Co1 Co3 2.504593 1_655
Co1 Co5 2.504593 1_555
Co1 Co5 2.504593 1_556
Co1 Co2 2.509891 1_665
Co1 Co2 2.564471 1_555
Co2 Co3 2.504593 1_545
Co2 Co3 2.504593 1_546
Co2 Co4 2.504593 1_556
Co2 Co4 2.504593 1_555
Co3 Co4 2.509891 1_565
Co3 Co5 2.509891 1_455
Co3 Co5 2.564471 1_555
Co3 Co4 2.564471 1_555
Co4 Co5 2.509891 1_445
Co4 Co5 2.564471 1_555
