# generated using pymatgen
data_UGa5Fe
_symmetry_space_group_name_H-M   'P 1'
_cell_length_a   4.30127965
_cell_length_b   4.30127965
_cell_length_c   6.61785601
_cell_angle_alpha   90.00000000
_cell_angle_beta   90.00000000
_cell_angle_gamma   90.00000000
_symmetry_Int_Tables_number   1
_chemical_formula_structural   UGa5Fe
_chemical_formula_sum   'U1 Ga5 Fe1'
_cell_volume   122.43699790
_cell_formula_units_Z   1
loop_
 _symmetry_equiv_pos_site_id
 _symmetry_equiv_pos_as_xyz
  1  'x, y, z'
loop_
 _atom_site_type_symbol
 _atom_site_label
 _atom_site_symmetry_multiplicity
 _atom_site_fract_x
 _atom_site_fract_y
 _atom_site_fract_z
 _atom_site_occupancy
  U  U0  1  -0.00000000  0.00000000  -0.00000000  1
  Ga  Ga0  1  0.50000000  0.50000000  -0.00000000  1
  Ga  Ga1  1  0.50000000  0.00000000  0.69136669  1
  Ga  Ga2  1  0.00000000  0.50000000  0.69136669  1
  Ga  Ga3  1  0.50000000  0.00000000  0.30863331  1
  Ga  Ga4  1  -0.00000000  0.50000000  0.30863331  1
  Fe  Fe0  1  -0.00000000  0.00000000  0.50000000  1
loop_
_geom_bond_atom_site_label_1
_geom_bond_atom_site_label_2
_geom_bond_distance
_geom_bond_site_symmetry_2
Ga0 Ga1 2.965977 1_564
Ga0 Ga2 2.965977 1_554
Ga0 Ga2 2.965977 1_654
Ga0 Ga1 2.965977 1_554
Ga0 Ga4 2.965977 1_655
Ga0 Ga4 2.965977 1_555
Ga0 Ga3 2.965977 1_565
Ga0 Ga3 2.965977 1_555
Ga0 U0 3.041464 1_655
Ga0 U0 3.041464 1_565
Ga0 U0 3.041464 1_555
Ga0 U0 3.041464 1_665
Ga1 Ga3 2.532874 1_555
Ga1 U0 2.965977 1_656
Ga1 U0 2.965977 1_556
Ga1 Ga2 3.041464 1_555
Ga1 Ga2 3.041464 1_545
Ga1 Ga2 3.041464 1_645
Ga1 Ga2 3.041464 1_655
Ga2 Ga4 2.532874 1_555
Ga2 U0 2.965977 1_566
Ga2 U0 2.965977 1_556
Ga3 U0 2.965977 1_655
Ga3 U0 2.965977 1_555
Ga3 Ga4 3.041464 1_655
Ga3 Ga4 3.041464 1_545
Ga3 Ga4 3.041464 1_555
Ga3 Ga4 3.041464 1_645
Ga4 U0 2.965977 1_565
Ga4 U0 2.965977 1_555
Fe0 Ga4 2.495819 1_545
Fe0 Ga2 2.495819 1_555
Fe0 Ga2 2.495819 1_545
Fe0 Ga3 2.495819 1_555
Fe0 Ga1 2.495819 1_455
Fe0 Ga1 2.495819 1_555
Fe0 Ga3 2.495819 1_455
Fe0 Ga4 2.495819 1_555
