# generated using pymatgen
data_BaV2(PO7)2
_symmetry_space_group_name_H-M   'P 1'
_cell_length_a   13.61952400
_cell_length_b   6.34273600
_cell_length_c   8.97824188
_cell_angle_alpha   44.95785333
_cell_angle_beta   90.00000000
_cell_angle_gamma   90.00000000
_symmetry_Int_Tables_number   1
_chemical_formula_structural   BaV2(PO7)2
_chemical_formula_sum   'Ba2 V4 P4 O28'
_cell_volume   548.01843364
_cell_formula_units_Z   2
loop_
 _symmetry_equiv_pos_site_id
 _symmetry_equiv_pos_as_xyz
  1  'x, y, z'
loop_
 _atom_site_type_symbol
 _atom_site_label
 _atom_site_symmetry_multiplicity
 _atom_site_fract_x
 _atom_site_fract_y
 _atom_site_fract_z
 _atom_site_occupancy
  Ba  Ba0  1  0.24805000  0.01162500  0.47140300  1
  Ba  Ba1  1  0.75195000  0.01162500  0.97140300  1
  V  V0  1  0.96775400  0.37548100  0.41076100  1
  V  V1  1  0.03224600  0.37548100  0.91076100  1
  V  V2  1  0.53365500  0.19062600  0.21430700  1
  V  V3  1  0.46634500  0.19062600  0.71430700  1
  P  P0  1  0.49736200  0.69551700  0.70651800  1
  P  P1  1  0.50263800  0.69551700  0.20651800  1
  P  P2  1  0.00190400  0.88716300  0.40667400  1
  P  P3  1  0.99809600  0.88716300  0.90667400  1
  O  O0  1  0.42745800  0.88839000  0.70965200  1
  O  O1  1  0.57254200  0.88839000  0.20965200  1
  O  O2  1  0.43963300  0.48223800  0.40701400  1
  O  O3  1  0.56036700  0.48223800  0.90701400  1
  O  O4  1  0.07137500  0.68689000  0.60345500  1
  O  O5  1  0.92862500  0.68689000  0.10345500  1
  O  O6  1  0.73219400  0.27074000  0.14140700  1
  O  O7  1  0.26780600  0.27074000  0.64140700  1
  O  O8  1  0.24582100  0.53889900  0.48740000  1
  O  O9  1  0.75417900  0.53889900  0.98740000  1
  O  O10  1  0.93180400  0.06862000  0.41686500  1
  O  O11  1  0.06819600  0.06862000  0.91686500  1
  O  O12  1  0.42832900  0.51808600  0.68915400  1
  O  O13  1  0.57167100  0.51808600  0.18915400  1
  O  O14  1  0.76969200  0.44295500  0.40821600  1
  O  O15  1  0.23030800  0.44295500  0.90821600  1
  O  O16  1  0.25344700  0.49870200  0.01311500  1
  O  O17  1  0.74655300  0.49870200  0.51311500  1
  O  O18  1  0.41393600  0.17077600  0.23470700  1
  O  O19  1  0.58606400  0.17077600  0.73470700  1
  O  O20  1  0.08741500  0.35095300  0.41278400  1
  O  O21  1  0.91258500  0.35095300  0.91278400  1
  O  O22  1  0.93969200  0.69884700  0.39402800  1
  O  O23  1  0.06030800  0.69884700  0.89402800  1
  O  O24  1  0.07280700  0.09667600  0.21431500  1
  O  O25  1  0.92719300  0.09667600  0.71431500  1
  O  O26  1  0.56776600  0.89801100  0.51502400  1
  O  O27  1  0.43223400  0.89801100  0.01502400  1
loop_
_geom_bond_atom_site_label_1
_geom_bond_atom_site_label_2
_geom_bond_distance
_geom_bond_site_symmetry_2
Ba0 O18 2.757441 1_555
Ba0 O4 2.825235 1_545
Ba0 O20 2.844731 1_555
Ba0 O8 2.898679 1_545
Ba0 O15 2.903305 1_545
Ba0 O16 2.913693 1_555
Ba0 O7 2.941666 1_555
Ba0 O0 2.964913 1_545
Ba0 O24 3.090796 1_555
Ba0 O12 3.314919 1_545
Ba1 O19 2.757441 1_555
Ba1 O5 2.825235 1_546
Ba1 O21 2.844731 1_555
Ba1 O9 2.898679 1_545
Ba1 O14 2.903305 1_546
Ba1 O17 2.913693 1_555
Ba1 O6 2.941666 1_556
Ba1 O1 2.964913 1_546
Ba1 O25 3.090796 1_555
Ba1 O13 3.314919 1_546
O0 P0 1.566043 1_555
O0 V3 2.017557 1_565
O1 P1 1.566043 1_555
O1 V2 2.017557 1_565
O2 P1 1.536349 1_555
O2 V3 1.985750 1_555
O3 P0 1.536349 1_555
O3 V2 1.985750 1_556
O4 P2 1.566534 1_555
O4 V1 2.021175 1_555
O5 P3 1.566534 1_554
O5 V0 2.021175 1_555
O6 O9 1.251432 1_554
O6 V2 2.743639 1_555
O7 O8 1.251432 1_555
O7 V3 2.743639 1_555
O10 P2 1.547115 1_645
O10 V0 1.969773 1_555
O11 P3 1.547115 1_445
O11 V1 1.969773 1_555
O12 P0 1.556630 1_555
O12 V3 1.992273 1_555
O13 P1 1.556630 1_555
O13 V2 1.992273 1_555
O14 O17 1.258030 1_555
O14 V0 2.728810 1_555
O15 O16 1.258030 1_556
O15 V1 2.728810 1_555
O18 V2 1.635648 1_555
O19 V3 1.635648 1_555
O20 V0 1.636014 1_455
O21 V1 1.636014 1_655
O22 P2 1.532781 1_655
O22 V0 1.984757 1_555
O23 P3 1.532781 1_455
O23 V1 1.984757 1_555
O24 P2 1.559827 1_545
O24 V1 2.009779 1_554
O25 P3 1.559827 1_545
O25 V0 2.009779 1_555
O26 P0 1.549131 1_555
O26 V2 1.964230 1_565
O27 P1 1.549131 1_555
O27 V3 1.964230 1_564
