# generated using pymatgen
data_KNa2AlH6
_symmetry_space_group_name_H-M   'P 1'
_cell_length_a   5.66337500
_cell_length_b   5.58445000
_cell_length_c   7.98758354
_cell_angle_alpha   89.93889948
_cell_angle_beta   90.00000000
_cell_angle_gamma   90.00000000
_symmetry_Int_Tables_number   1
_chemical_formula_structural   KNa2AlH6
_chemical_formula_sum   'K2 Na4 Al2 H12'
_cell_volume   252.62183924
_cell_formula_units_Z   2
loop_
 _symmetry_equiv_pos_site_id
 _symmetry_equiv_pos_as_xyz
  1  'x, y, z'
loop_
 _atom_site_type_symbol
 _atom_site_label
 _atom_site_symmetry_multiplicity
 _atom_site_fract_x
 _atom_site_fract_y
 _atom_site_fract_z
 _atom_site_occupancy
  K  K0  1  0.98105100  0.24104900  0.49951200  1
  K  K1  1  0.48105100  0.75895100  0.50048800  1
  Na  Na0  1  0.03895300  0.24988800  0.99984300  1
  Na  Na1  1  0.53895300  0.75011200  0.00015700  1
  Na  Na2  1  0.50231500  0.25287100  0.75903900  1
  Na  Na3  1  0.00231500  0.74712900  0.24096100  1
  Al  Al0  1  0.49947100  0.23954200  0.23330100  1
  Al  Al1  1  0.99947100  0.76045800  0.76669900  1
  H  H0  1  0.50977900  0.29005400  0.45698200  1
  H  H1  1  0.00977900  0.70994600  0.54301800  1
  H  H2  1  0.47135600  0.17032600  0.02140400  1
  H  H3  1  0.97135600  0.82967400  0.97859600  1
  H  H4  1  0.81837100  0.50238400  0.79840800  1
  H  H5  1  0.31837100  0.49761600  0.20159200  1
  H  H6  1  0.18712800  0.00921900  0.73979500  1
  H  H7  1  0.68712800  0.99078100  0.26020500  1
  H  H8  1  0.75268500  0.42188800  0.19956300  1
  H  H9  1  0.25268500  0.57811200  0.80043700  1
  H  H10  1  0.24889100  0.05949200  0.26923600  1
  H  H11  1  0.74889100  0.94050800  0.73076400  1
loop_
_geom_bond_atom_site_label_1
_geom_bond_atom_site_label_2
_geom_bond_distance
_geom_bond_site_symmetry_2
Al0 H2 1.743808 1_555
Al0 H7 1.762069 1_545
Al0 H10 1.762580 1_555
Al0 H8 1.779175 1_555
Al0 H5 1.786719 1_555
Al0 H0 1.810040 1_555
Al1 H3 1.743808 1_555
Al1 H6 1.762069 1_665
Al1 H11 1.762580 1_555
Al1 H9 1.779175 1_655
Al1 H4 1.786719 1_555
Al1 H1 1.810040 1_655
H0 Na2 2.421773 1_555
H0 K1 2.646863 1_555
H0 K0 2.704368 1_555
H0 K1 2.990268 1_545
H0 K0 3.025961 1_455
H1 Na3 2.421773 1_555
H1 K0 2.646863 1_455
H1 K1 2.704368 1_555
H1 K0 2.990268 1_465
H1 K1 3.025961 1_455
H2 Na2 2.152434 1_554
H2 Na1 2.383913 1_545
H2 Na0 2.494760 1_554
H3 Na3 2.152434 1_656
H3 Na0 2.383913 1_665
H3 Na1 2.494760 1_556
H4 Na2 2.290254 1_555
H4 Na0 2.476452 1_655
H4 Na1 2.649463 1_556
H4 K0 2.947218 1_555
H5 Na3 2.290254 1_555
H5 Na1 2.476452 1_555
H5 Na0 2.649463 1_554
H5 K1 2.947218 1_555
H6 Na2 2.249840 1_555
H6 K0 2.591629 1_455
H6 Na0 2.613634 1_555
H6 K1 2.895456 1_545
H7 Na3 2.249840 1_655
H7 K1 2.591629 1_555
H7 Na1 2.613634 1_555
H7 K0 2.895456 1_565
H8 Na3 2.325559 1_655
H8 Na0 2.469661 1_654
H8 Na1 2.712117 1_555
H8 K0 2.903029 1_555
H9 Na2 2.325559 1_555
H9 Na1 2.469661 1_556
H9 Na0 2.712117 1_555
H9 K1 2.903029 1_555
H10 Na3 2.246057 1_545
H10 K0 2.591541 1_455
H10 Na0 2.677591 1_554
H10 K1 2.819740 1_545
H11 Na2 2.246057 1_565
H11 K1 2.591541 1_555
H11 Na1 2.677591 1_556
H11 K0 2.819740 1_565
