# generated using pymatgen
data_LiCo5SbO8
_symmetry_space_group_name_H-M   'P 1'
_cell_length_a   6.10102183
_cell_length_b   6.24218362
_cell_length_c   5.93259200
_cell_angle_alpha   61.62600529
_cell_angle_beta   60.90958413
_cell_angle_gamma   61.99877162
_symmetry_Int_Tables_number   1
_chemical_formula_structural   LiCo5SbO8
_chemical_formula_sum   'Li1 Co5 Sb1 O8'
_cell_volume   165.15076654
_cell_formula_units_Z   1
loop_
 _symmetry_equiv_pos_site_id
 _symmetry_equiv_pos_as_xyz
  1  'x, y, z'
loop_
 _atom_site_type_symbol
 _atom_site_label
 _atom_site_symmetry_multiplicity
 _atom_site_fract_x
 _atom_site_fract_y
 _atom_site_fract_z
 _atom_site_occupancy
  Li  Li0  1  0.00000000  0.50000000  0.00000000  1
  Co  Co0  1  0.10626300  0.06811200  0.16282100  1
  Co  Co1  1  0.50000000  0.50000000  0.50000000  1
  Co  Co2  1  0.50000000  0.50000000  0.00000000  1
  Co  Co3  1  0.50000000  0.00000000  0.50000000  1
  Co  Co4  1  0.89373700  0.93188800  0.83717900  1
  Sb  Sb0  1  0.00000000  0.50000000  0.50000000  1
  O  O0  1  0.22517400  0.26970000  0.26204700  1
  O  O1  1  0.25694100  0.69874800  0.27214500  1
  O  O2  1  0.22517800  0.26970500  0.74309100  1
  O  O3  1  0.72308500  0.25276400  0.26208400  1
  O  O4  1  0.27691500  0.74723600  0.73791600  1
  O  O5  1  0.74305900  0.30125200  0.72785500  1
  O  O6  1  0.77482200  0.73029500  0.25690900  1
  O  O7  1  0.77482600  0.73030000  0.73795300  1
loop_
_geom_bond_atom_site_label_1
_geom_bond_atom_site_label_2
_geom_bond_distance
_geom_bond_site_symmetry_2
Li0 O6 2.113973 1_455
Li0 O2 2.113973 1_554
Li0 O0 2.113984 1_555
Li0 O7 2.113984 1_454
Li0 O4 2.294961 1_554
Li0 O3 2.294961 1_455
Co0 O1 1.936484 1_545
Co0 O3 1.979104 1_455
Co0 O2 2.105417 1_554
Co0 O0 2.105423 1_555
Co0 Li0 2.261431 1_555
Co1 O5 2.047735 1_555
Co1 O1 2.047735 1_555
Co1 O4 2.111031 1_555
Co1 O3 2.111031 1_555
Co1 O6 2.213413 1_555
Co1 O2 2.213413 1_555
Co2 O1 2.047702 1_555
Co2 O5 2.047702 1_554
Co2 O3 2.111037 1_555
Co2 O4 2.111037 1_554
Co2 O7 2.213453 1_554
Co2 O0 2.213453 1_555
Co3 O3 2.089471 1_555
Co3 O4 2.089471 1_545
Co3 O7 2.242921 1_545
Co3 O0 2.242921 1_555
Co3 O2 2.243052 1_555
Co3 O6 2.243052 1_545
Co4 O5 1.936484 1_565
Co4 O4 1.979104 1_655
Co4 O6 2.105417 1_556
Co4 O7 2.105423 1_555
Co4 Li0 2.261431 1_656
O0 Sb0 2.033566 1_555
O1 Sb0 1.998872 1_555
O2 Sb0 2.033570 1_555
O5 Sb0 1.998872 1_655
O6 Sb0 2.033570 1_655
O7 Sb0 2.033566 1_655
