# generated using pymatgen
data_Y3Sn4BiO14
_symmetry_space_group_name_H-M   'P 1'
_cell_length_a   7.46328880
_cell_length_b   7.46328880
_cell_length_c   7.46328830
_cell_angle_alpha   60.22215921
_cell_angle_beta   60.22215921
_cell_angle_gamma   60.22215919
_symmetry_Int_Tables_number   1
_chemical_formula_structural   Y3Sn4BiO14
_chemical_formula_sum   'Y3 Sn4 Bi1 O14'
_cell_volume   295.43004171
_cell_formula_units_Z   1
loop_
 _symmetry_equiv_pos_site_id
 _symmetry_equiv_pos_as_xyz
  1  'x, y, z'
loop_
 _atom_site_type_symbol
 _atom_site_label
 _atom_site_symmetry_multiplicity
 _atom_site_fract_x
 _atom_site_fract_y
 _atom_site_fract_z
 _atom_site_occupancy
  Y  Y0  1  0.00000000  0.50000000  0.50000000  1
  Y  Y1  1  0.50000000  0.50000000  0.00000000  1
  Y  Y2  1  0.50000000  0.00000000  0.50000000  1
  Sn  Sn0  1  0.00000000  0.00000000  0.00000000  1
  Sn  Sn1  1  0.50000000  0.00000000  0.00000000  1
  Sn  Sn2  1  0.00000000  0.00000000  0.50000000  1
  Sn  Sn3  1  0.00000000  0.50000000  0.00000000  1
  Bi  Bi0  1  0.50000000  0.50000000  0.50000000  1
  O  O0  1  0.37077100  0.37077100  0.37077100  1
  O  O1  1  0.62922900  0.62922900  0.62922900  1
  O  O2  1  0.91816800  0.33667600  0.33667600  1
  O  O3  1  0.33739000  0.91226200  0.91226200  1
  O  O4  1  0.33667600  0.33667600  0.91816800  1
  O  O5  1  0.91226200  0.91226200  0.33739000  1
  O  O6  1  0.91226200  0.33739000  0.91226200  1
  O  O7  1  0.33667600  0.91816800  0.33667600  1
  O  O8  1  0.08183200  0.66332400  0.66332400  1
  O  O9  1  0.66261000  0.08773800  0.08773800  1
  O  O10  1  0.66332400  0.66332400  0.08183200  1
  O  O11  1  0.08773800  0.08773800  0.66261000  1
  O  O12  1  0.08773800  0.66261000  0.08773800  1
  O  O13  1  0.66332400  0.08183200  0.66332400  1
loop_
_geom_bond_atom_site_label_1
_geom_bond_atom_site_label_2
_geom_bond_distance
_geom_bond_site_symmetry_2
Bi0 O1 2.358493 1_555
Bi0 O0 2.358493 1_555
Bi0 O4 2.574931 1_555
Bi0 O10 2.574931 1_555
Bi0 O7 2.574931 1_555
Bi0 O13 2.574931 1_555
Bi0 O8 2.574931 1_555
Bi0 O2 2.574931 1_555
O0 Y1 2.267106 1_555
O0 Y0 2.267106 1_555
O0 Y2 2.267106 1_555
O1 Y1 2.267106 1_556
O1 Y0 2.267106 1_655
O1 Y2 2.267106 1_565
O2 Sn3 2.084570 1_655
O2 Sn2 2.084570 1_655
O2 Y0 2.509839 1_655
O3 Sn1 2.082063 1_566
O3 Sn0 2.085296 1_566
O3 Y2 2.539230 1_565
O3 Y1 2.539230 1_556
O4 Sn3 2.084570 1_556
O4 Sn1 2.084570 1_556
O4 Y1 2.509839 1_556
O5 Sn2 2.082063 1_665
O5 Sn0 2.085296 1_665
O5 Y0 2.539230 1_655
O5 Y2 2.539230 1_565
O6 Sn3 2.082063 1_656
O6 Sn0 2.085296 1_656
O6 Y0 2.539230 1_655
O6 Y1 2.539230 1_556
O7 Sn1 2.084570 1_565
O7 Sn2 2.084570 1_565
O7 Y2 2.509839 1_565
O8 Sn3 2.084570 1_556
O8 Sn2 2.084570 1_565
O8 Y0 2.509839 1_555
O9 Sn1 2.082063 1_555
O9 Sn0 2.085296 1_655
O9 Y2 2.539230 1_555
O9 Y1 2.539230 1_555
O10 Sn3 2.084570 1_655
O10 Sn1 2.084570 1_565
O10 Y1 2.509839 1_555
O11 Sn2 2.082063 1_555
O11 Sn0 2.085296 1_556
O11 Y0 2.539230 1_555
O11 Y2 2.539230 1_555
O12 Sn3 2.082063 1_555
O12 Sn0 2.085296 1_565
O12 Y0 2.539230 1_555
O12 Y1 2.539230 1_555
O13 Sn1 2.084570 1_556
O13 Sn2 2.084570 1_655
O13 Y2 2.509839 1_555
