# generated using pymatgen
data_Co5RuO8
_symmetry_space_group_name_H-M   'P 1'
_cell_length_a   5.97311500
_cell_length_b   6.03675527
_cell_length_c   24.66371742
_cell_angle_alpha   96.50873011
_cell_angle_beta   89.95766884
_cell_angle_gamma   119.43259165
_symmetry_Int_Tables_number   1
_chemical_formula_structural   Co5RuO8
_chemical_formula_sum   'Co25 Ru5 O40'
_cell_volume   768.00193393
_cell_formula_units_Z   5
loop_
 _symmetry_equiv_pos_site_id
 _symmetry_equiv_pos_as_xyz
  1  'x, y, z'
loop_
 _atom_site_type_symbol
 _atom_site_label
 _atom_site_symmetry_multiplicity
 _atom_site_fract_x
 _atom_site_fract_y
 _atom_site_fract_z
 _atom_site_occupancy
  Co  Co0  1  0.51264000  0.97902000  0.07367000  1
  Co  Co1  1  0.00000000  0.00000000  0.00000000  1
  Co  Co2  1  0.19791600  0.30192800  0.09893800  1
  Co  Co3  1  0.11298000  0.35792600  0.87295900  1
  Co  Co4  1  0.50000000  0.50000000  0.00000000  1
  Co  Co5  1  0.80208400  0.69807200  0.90106200  1
  Co  Co6  1  0.71453800  0.75445100  0.67358300  1
  Co  Co7  1  0.10056500  0.90476500  0.80029500  1
  Co  Co8  1  0.48736000  0.02098000  0.92633000  1
  Co  Co9  1  0.40204400  0.10357100  0.70028900  1
  Co  Co10  1  0.31212500  0.15064300  0.47312300  1
  Co  Co11  1  0.60230400  0.90359500  0.80060400  1
  Co  Co12  1  0.70121100  0.30165000  0.60044000  1
  Co  Co13  1  0.08871300  0.45290500  0.72722300  1
  Co  Co14  1  0.20084600  0.30222100  0.60025500  1
  Co  Co15  1  0.91128700  0.54709500  0.27277700  1
  Co  Co16  1  0.00000000  0.50000000  0.50000000  1
  Co  Co17  1  0.29878900  0.69835000  0.39956000  1
  Co  Co18  1  0.39769600  0.09640500  0.19939600  1
  Co  Co19  1  0.79915400  0.69777900  0.39974500  1
  Co  Co20  1  0.68787500  0.84935700  0.52687700  1
  Co  Co21  1  0.59795600  0.89642900  0.29971100  1
  Co  Co22  1  0.89943500  0.09523500  0.19970500  1
  Co  Co23  1  0.28546200  0.24554900  0.32641700  1
  Co  Co24  1  0.88702000  0.64207400  0.12704100  1
  Ru  Ru0  1  0.00000000  0.50000000  0.00000000  1
  Ru  Ru1  1  0.20157300  0.80268100  0.60014900  1
  Ru  Ru2  1  0.59911200  0.40321600  0.80000400  1
  Ru  Ru3  1  0.40088800  0.59678400  0.19999600  1
  Ru  Ru4  1  0.79842700  0.19731900  0.39985100  1
  O  O0  1  0.86117800  0.17069100  0.04694600  1
  O  O1  1  0.14193400  0.35780500  0.95360200  1
  O  O2  1  0.33378300  0.17056400  0.04632300  1
  O  O3  1  0.32706100  0.63360400  0.04697500  1
  O  O4  1  0.67293900  0.36639600  0.95302500  1
  O  O5  1  0.46422700  0.54453700  0.84740300  1
  O  O6  1  0.66621700  0.82943600  0.95367700  1
  O  O7  1  0.85806600  0.64219500  0.04639800  1
  O  O8  1  0.74141600  0.73281300  0.75434900  1
  O  O9  1  0.92768300  0.55040800  0.84651100  1
  O  O10  1  0.93103000  0.01727900  0.84624400  1
  O  O11  1  0.13882200  0.82930900  0.95305400  1
  O  O12  1  0.27245000  0.79435300  0.75370200  1
  O  O13  1  0.06637600  0.94547600  0.64778700  1
  O  O14  1  0.45878500  0.07159500  0.84555300  1
  O  O15  1  0.27110700  0.25805700  0.75427100  1
  O  O16  1  0.34212400  0.13126500  0.55399900  1
  O  O17  1  0.52846300  0.94549400  0.64679800  1
  O  O18  1  0.73614300  0.26236500  0.75285100  1
  O  O19  1  0.53048400  0.41357800  0.64743200  1
  O  O20  1  0.87122500  0.19075000  0.55297400  1
  O  O21  1  0.66345200  0.34105500  0.44698800  1
  O  O22  1  0.87487100  0.65883300  0.55377400  1
  O  O23  1  0.06058900  0.47388400  0.64644900  1
  O  O24  1  0.93941100  0.52611600  0.35355100  1
  O  O25  1  0.12512900  0.34116700  0.44622600  1
  O  O26  1  0.33654800  0.65894500  0.55301200  1
  O  O27  1  0.12877500  0.80925000  0.44702600  1
  O  O28  1  0.26385700  0.73763500  0.24714900  1
  O  O29  1  0.46951600  0.58642200  0.35256800  1
  O  O30  1  0.65787600  0.86873500  0.44600100  1
  O  O31  1  0.47153700  0.05450600  0.35320200  1
  O  O32  1  0.54121500  0.92840500  0.15444700  1
  O  O33  1  0.72889300  0.74194300  0.24572900  1
  O  O34  1  0.72755000  0.20564700  0.24629800  1
  O  O35  1  0.93362400  0.05452400  0.35221300  1
  O  O36  1  0.06897000  0.98272100  0.15375600  1
  O  O37  1  0.07231700  0.44959200  0.15348900  1
  O  O38  1  0.25858400  0.26718700  0.24565100  1
  O  O39  1  0.53577300  0.45546300  0.15259700  1
loop_
_geom_bond_atom_site_label_1
_geom_bond_atom_site_label_2
_geom_bond_distance
_geom_bond_site_symmetry_2
Co0 O3 1.851605 1_555
Co0 O0 1.977580 1_565
Co0 O32 2.069145 1_555
Co0 O2 2.079722 1_565
Co1 O0 1.912540 1_455
Co1 O11 1.912540 1_544
Co1 O2 2.014835 1_555
Co1 O6 2.014835 1_444
Co1 O7 2.335172 1_445
Co1 O1 2.335172 1_554
Co2 O2 1.835510 1_555
Co2 O37 1.884537 1_555
Co2 O0 2.127209 1_455
Co2 O39 2.137914 1_555
Co2 O36 2.294529 1_545
Co2 O3 2.304101 1_555
Co3 O10 1.827974 1_455
Co3 O5 1.975929 1_555
Co3 O1 1.996702 1_555
Co3 O9 2.106543 1_455
Co4 O4 1.914433 1_554
Co4 O3 1.914433 1_555
Co4 O7 2.144131 1_555
Co4 O1 2.144131 1_554
Co4 O6 2.195215 1_554
Co4 O2 2.195215 1_555
Co5 O6 1.835510 1_555
Co5 O9 1.884537 1_555
Co5 O11 2.127209 1_655
Co5 O5 2.137914 1_555
Co5 O10 2.294529 1_565
Co5 O4 2.304101 1_555
Co6 O19 1.826429 1_555
Co6 O13 1.983369 1_655
Co6 O8 2.022606 1_555
Co6 O17 2.106028 1_555
Co7 O10 1.808560 1_465
Co7 O12 1.821008 1_555
Co7 O14 2.114083 1_565
Co7 O8 2.124168 1_455
Co7 O15 2.299285 1_565
Co7 O9 2.306886 1_455
Co8 O4 1.851605 1_555
Co8 O11 1.977580 1_545
Co8 O14 2.069145 1_555
Co8 O6 2.079722 1_545
Co9 O17 1.908574 1_545
Co9 O15 1.920374 1_555
Co9 O18 2.103323 1_555
Co9 O13 2.109648 1_545
Co9 O19 2.220570 1_555
Co9 O12 2.225984 1_545
Co10 O27 1.828417 1_545
Co10 O21 1.983894 1_555
Co10 O16 2.024515 1_555
Co10 O25 2.108818 1_555
Co11 O14 1.894889 1_565
Co11 O8 1.904915 1_555
Co11 O10 2.024169 1_565
Co11 O12 2.051437 1_555
Co11 O5 2.349380 1_555
Co11 O18 2.364786 1_565
Co12 O19 1.826926 1_555
Co12 O20 1.827212 1_555
Co12 O23 2.125850 1_655
Co12 O16 2.130425 1_555
Co12 O17 2.317288 1_545
Co12 O22 2.326519 1_555
Co13 O12 1.830926 1_555
Co13 O18 1.984883 1_455
Co13 O23 2.022788 1_555
Co13 O15 2.110431 1_555
Co14 O23 1.912578 1_555
Co14 O16 1.914751 1_555
Co14 O19 2.051296 1_555
Co14 O20 2.052434 1_455
Co14 O26 2.346064 1_555
Co14 O13 2.351243 1_545
Co15 O34 1.830926 1_555
Co15 O28 1.984883 1_655
Co15 O24 2.022788 1_555
Co15 O33 2.110431 1_555
Co16 O25 1.910896 1_555
Co16 O22 1.910896 1_455
Co16 O26 2.120144 1_555
Co16 O21 2.120144 1_455
Co16 O20 2.219030 1_455
Co16 O27 2.219030 1_555
Co17 O29 1.826926 1_555
Co17 O27 1.827212 1_555
Co17 O24 2.125850 1_455
Co17 O30 2.130425 1_555
Co17 O31 2.317288 1_565
Co17 O25 2.326519 1_555
Co18 O32 1.894889 1_545
Co18 O38 1.904915 1_555
Co18 O36 2.024169 1_545
Co18 O34 2.051437 1_555
Co18 O39 2.349380 1_555
Co18 O28 2.364786 1_545
Co19 O24 1.912578 1_555
Co19 O30 1.914751 1_555
Co19 O29 2.051296 1_555
Co19 O27 2.052434 1_655
Co19 O21 2.346064 1_555
Co19 O35 2.351243 1_565
Co20 O20 1.828417 1_565
Co20 O26 1.983894 1_555
Co20 O30 2.024515 1_555
Co20 O22 2.108818 1_555
Co21 O31 1.908574 1_565
Co21 O33 1.920374 1_555
Co21 O28 2.103323 1_555
Co21 O35 2.109648 1_565
Co21 O29 2.220570 1_555
Co21 O34 2.225984 1_565
Co22 O36 1.808560 1_645
Co22 O34 1.821008 1_555
Co22 O32 2.114083 1_545
Co22 O38 2.124168 1_655
Co22 O33 2.299285 1_545
Co22 O37 2.306886 1_655
Co23 O29 1.826429 1_555
Co23 O35 1.983369 1_455
Co23 O38 2.022606 1_555
Co23 O31 2.106028 1_555
Co24 O36 1.827974 1_655
Co24 O39 1.975929 1_555
Co24 O7 1.996702 1_555
Co24 O37 2.106543 1_655
O0 Ru0 2.209197 1_655
O1 Ru0 1.804497 1_556
O3 Ru0 2.013014 1_555
O4 Ru0 2.013014 1_656
O5 Ru2 1.786508 1_555
O7 Ru0 1.804497 1_655
O8 Ru2 2.189448 1_555
O9 Ru2 2.003840 1_555
O11 Ru0 2.209197 1_556
O13 Ru1 1.796886 1_555
O14 Ru2 2.198094 1_555
O15 Ru2 1.992620 1_555
O16 Ru1 2.192895 1_545
O17 Ru1 2.000877 1_555
O18 Ru2 1.789922 1_555
O21 Ru4 1.792182 1_555
O22 Ru1 1.995766 1_655
O23 Ru1 2.196033 1_555
O24 Ru4 2.196033 1_555
O25 Ru4 1.995766 1_455
O26 Ru1 1.792182 1_555
O28 Ru3 1.789922 1_555
O30 Ru4 2.192895 1_565
O31 Ru4 2.000877 1_555
O32 Ru3 2.198094 1_555
O33 Ru3 1.992620 1_555
O35 Ru4 1.796886 1_555
O37 Ru3 2.003840 1_555
O38 Ru3 2.189448 1_555
O39 Ru3 1.786508 1_555
