# generated using pymatgen
data_SnAsO4
_symmetry_space_group_name_H-M   'P 1'
_cell_length_a   15.60636500
_cell_length_b   4.60816100
_cell_length_c   5.22464564
_cell_angle_alpha   87.34468783
_cell_angle_beta   90.00000000
_cell_angle_gamma   90.00000000
_symmetry_Int_Tables_number   1
_chemical_formula_structural   SnAsO4
_chemical_formula_sum   'Sn4 As4 O16'
_cell_volume   375.33554644
_cell_formula_units_Z   4
loop_
 _symmetry_equiv_pos_site_id
 _symmetry_equiv_pos_as_xyz
  1  'x, y, z'
loop_
 _atom_site_type_symbol
 _atom_site_label
 _atom_site_symmetry_multiplicity
 _atom_site_fract_x
 _atom_site_fract_y
 _atom_site_fract_z
 _atom_site_occupancy
  Sn  Sn0  1  0.33162200  0.07401100  0.57887500  1
  Sn  Sn1  1  0.83162200  0.92598900  0.92112500  1
  Sn  Sn2  1  0.66837800  0.92598900  0.42112500  1
  Sn  Sn3  1  0.16837800  0.07401100  0.07887500  1
  As  As0  1  0.35140800  0.57476100  0.07979100  1
  As  As1  1  0.85140800  0.42523900  0.42020900  1
  As  As2  1  0.64859200  0.42523900  0.92020900  1
  As  As3  1  0.14859200  0.57476100  0.57979100  1
  O  O0  1  0.28851000  0.31503600  0.92203400  1
  O  O1  1  0.78851000  0.68496400  0.57796600  1
  O  O2  1  0.71149000  0.68496400  0.07796600  1
  O  O3  1  0.21149000  0.31503600  0.42203400  1
  O  O4  1  0.40563700  0.38689200  0.32265200  1
  O  O5  1  0.90563700  0.61310800  0.17734800  1
  O  O6  1  0.59436300  0.61310800  0.67734800  1
  O  O7  1  0.09436300  0.38689200  0.82265200  1
  O  O8  1  0.40500200  0.76802900  0.84103700  1
  O  O9  1  0.90500200  0.23197100  0.65896300  1
  O  O10  1  0.59499800  0.23197100  0.15896300  1
  O  O11  1  0.09499800  0.76802900  0.34103700  1
  O  O12  1  0.28639100  0.82597800  0.24108300  1
  O  O13  1  0.78639100  0.17402200  0.25891700  1
  O  O14  1  0.71360900  0.17402200  0.75891700  1
  O  O15  1  0.21360900  0.82597800  0.74108300  1
loop_
_geom_bond_atom_site_label_1
_geom_bond_atom_site_label_2
_geom_bond_distance
_geom_bond_site_symmetry_2
As0 O8 1.716347 1_554
As0 O4 1.724522 1_555
As0 O0 1.779541 1_554
As0 O12 1.780518 1_555
As1 O9 1.716347 1_555
As1 O5 1.724522 1_555
As1 O1 1.779541 1_555
As1 O13 1.780518 1_555
As2 O10 1.716347 1_556
As2 O6 1.724522 1_555
As2 O2 1.779541 1_556
As2 O14 1.780518 1_555
As3 O11 1.716347 1_555
As3 O7 1.724522 1_555
As3 O3 1.779541 1_555
As3 O15 1.780518 1_555
O0 Sn0 2.255048 1_555
O0 Sn3 2.309920 1_556
O1 Sn1 2.255048 1_555
O1 Sn2 2.309920 1_555
O2 Sn2 2.255048 1_555
O2 Sn1 2.309920 1_554
O3 Sn3 2.255048 1_555
O3 Sn0 2.309920 1_555
O4 Sn0 2.241938 1_555
O5 Sn1 2.241938 1_554
O6 Sn2 2.241938 1_555
O7 Sn3 2.241938 1_556
O8 Sn0 2.235342 1_565
O9 Sn1 2.235342 1_545
O10 Sn2 2.235342 1_545
O11 Sn3 2.235342 1_565
O12 Sn0 2.259701 1_565
O12 Sn3 2.308013 1_565
O13 Sn1 2.259701 1_544
O13 Sn2 2.308013 1_545
O14 Sn2 2.259701 1_545
O14 Sn1 2.308013 1_545
O15 Sn3 2.259701 1_566
O15 Sn0 2.308013 1_565
