# generated using pymatgen
data_K2FeF5
_symmetry_space_group_name_H-M   'P 1'
_cell_length_a   5.65007426
_cell_length_b   7.29489707
_cell_length_c   11.48718164
_cell_angle_alpha   90.00000000
_cell_angle_beta   90.00000000
_cell_angle_gamma   90.00000000
_symmetry_Int_Tables_number   1
_chemical_formula_structural   K2FeF5
_chemical_formula_sum   'K8 Fe4 F20'
_cell_volume   473.46383626
_cell_formula_units_Z   4
loop_
 _symmetry_equiv_pos_site_id
 _symmetry_equiv_pos_as_xyz
  1  'x, y, z'
loop_
 _atom_site_type_symbol
 _atom_site_label
 _atom_site_symmetry_multiplicity
 _atom_site_fract_x
 _atom_site_fract_y
 _atom_site_fract_z
 _atom_site_occupancy
  K  K0  1  0.25000000  0.16183065  0.58507516  1
  K  K1  1  0.25000000  0.66183065  0.91492484  1
  K  K2  1  0.75000000  0.83816935  0.41492484  1
  K  K3  1  0.75000000  0.33816935  0.08507516  1
  K  K4  1  0.25000000  0.48153702  0.27849401  1
  K  K5  1  0.25000000  0.98153702  0.22150599  1
  K  K6  1  0.75000000  0.51846298  0.72150599  1
  K  K7  1  0.75000000  0.01846298  0.77849401  1
  Fe  Fe0  1  0.25000000  0.67447086  0.56372826  1
  Fe  Fe1  1  0.25000000  0.17447086  0.93627174  1
  Fe  Fe2  1  0.75000000  0.32552914  0.43627174  1
  Fe  Fe3  1  0.75000000  0.82552914  0.06372826  1
  F  F0  1  0.00000000  0.50000000  0.50000000  1
  F  F1  1  0.50000000  0.00000000  -0.00000000  1
  F  F2  1  0.50000000  0.50000000  0.50000000  1
  F  F3  1  0.00000000  0.00000000  -0.00000000  1
  F  F4  1  0.25000000  0.52510782  0.69868298  1
  F  F5  1  0.25000000  0.02510782  0.80131702  1
  F  F6  1  0.75000000  0.47489218  0.30131702  1
  F  F7  1  0.75000000  0.97489218  0.19868298  1
  F  F8  1  0.25000000  0.78227237  0.40989327  1
  F  F9  1  0.25000000  0.28227237  0.09010673  1
  F  F10  1  0.75000000  0.21772763  0.59010673  1
  F  F11  1  0.75000000  0.71772763  0.90989327  1
  F  F12  1  0.00284368  0.82760797  0.61597011  1
  F  F13  1  0.49715632  0.32760797  0.88402989  1
  F  F14  1  0.50284368  0.17239203  0.38402989  1
  F  F15  1  0.99715632  0.67239203  0.11597011  1
  F  F16  1  0.99715632  0.17239203  0.38402989  1
  F  F17  1  0.50284368  0.67239203  0.11597011  1
  F  F18  1  0.49715632  0.82760797  0.61597011  1
  F  F19  1  0.00284368  0.32760797  0.88402989  1
loop_
_geom_bond_atom_site_label_1
_geom_bond_atom_site_label_2
_geom_bond_distance
_geom_bond_site_symmetry_2
F0 Fe2 2.037401 1_455
F0 Fe0 2.037401 1_555
F0 K4 2.913370 1_555
F0 K6 2.913370 1_455
F0 K2 3.005981 1_455
F0 K0 3.005981 1_555
F1 Fe1 2.037401 1_554
F1 Fe3 2.037401 1_545
F1 K7 2.913370 1_554
F1 K5 2.913370 1_545
F1 K3 3.005981 1_555
F1 K1 3.005981 1_544
F2 Fe2 2.037401 1_555
F2 Fe0 2.037401 1_555
F2 K4 2.913370 1_555
F2 K6 2.913370 1_555
F2 K2 3.005981 1_555
F2 K0 3.005981 1_555
F3 Fe1 2.037401 1_554
F3 Fe3 2.037401 1_445
F3 K7 2.913370 1_454
F3 K5 2.913370 1_545
F3 K1 3.005981 1_544
F3 K3 3.005981 1_455
F4 Fe0 1.894855 1_555
F4 K1 2.676764 1_555
F4 K6 2.837590 1_455
F4 K6 2.837590 1_555
F4 K0 2.953977 1_555
F5 Fe1 1.894855 1_555
F5 K0 2.676764 1_555
F5 K7 2.837590 1_555
F5 K7 2.837590 1_455
F5 K1 2.953977 1_545
F6 Fe2 1.894855 1_555
F6 K3 2.676764 1_555
F6 K4 2.837590 1_555
F6 K4 2.837590 1_655
F6 K2 2.953977 1_555
F7 Fe3 1.894855 1_555
F7 K2 2.676764 1_555
F7 K5 2.837590 1_555
F7 K5 2.837590 1_655
F7 K3 2.953977 1_565
F8 Fe0 1.934212 1_555
F8 K5 2.606926 1_555
F8 K4 2.662934 1_555
F8 K2 2.854899 1_555
F8 K2 2.854899 1_455
F9 Fe1 1.934212 1_554
F9 K4 2.606926 1_555
F9 K5 2.662934 1_545
F9 K3 2.854899 1_555
F9 K3 2.854899 1_455
F10 Fe2 1.934212 1_555
F10 K7 2.606926 1_555
F10 K6 2.662934 1_555
F10 K0 2.854899 1_555
F10 K0 2.854899 1_655
F11 Fe3 1.934212 1_556
F11 K6 2.606926 1_555
F11 K7 2.662934 1_565
F11 K1 2.854899 1_655
F11 K1 2.854899 1_555
F12 Fe0 1.886310 1_555
F12 K2 2.716675 1_455
F12 K7 2.732167 1_465
F12 K0 2.832041 1_565
F12 K6 2.931961 1_455
F13 Fe1 1.886310 1_555
F13 K3 2.716675 1_556
F13 K6 2.732167 1_555
F13 K1 2.832041 1_555
F13 K7 2.931961 1_555
F14 Fe2 1.886310 1_555
F14 K0 2.716675 1_555
F14 K5 2.732167 1_545
F14 K2 2.832041 1_545
F14 K4 2.931961 1_555
F15 Fe3 1.886310 1_555
F15 K1 2.716675 1_654
F15 K4 2.732167 1_655
F15 K3 2.832041 1_555
F15 K5 2.931961 1_655
F16 Fe2 1.886310 1_555
F16 K0 2.716675 1_655
F16 K5 2.732167 1_645
F16 K2 2.832041 1_545
F16 K4 2.931961 1_655
F17 Fe3 1.886310 1_555
F17 K1 2.716675 1_554
F17 K4 2.732167 1_555
F17 K3 2.832041 1_555
F17 K5 2.931961 1_555
F18 Fe0 1.886310 1_555
F18 K2 2.716675 1_555
F18 K7 2.732167 1_565
F18 K0 2.832041 1_565
F18 K6 2.931961 1_555
F19 Fe1 1.886310 1_555
F19 K3 2.716675 1_456
F19 K6 2.732167 1_455
F19 K1 2.832041 1_555
F19 K7 2.931961 1_455
