# generated using pymatgen
data_KYSnWO6
_symmetry_space_group_name_H-M   'P 1'
_cell_length_a   5.93966121
_cell_length_b   5.93966121
_cell_length_c   8.37539326
_cell_angle_alpha   90.00000000
_cell_angle_beta   90.00000000
_cell_angle_gamma   90.00000000
_symmetry_Int_Tables_number   1
_chemical_formula_structural   KYSnWO6
_chemical_formula_sum   'K2 Y2 Sn2 W2 O12'
_cell_volume   295.48031710
_cell_formula_units_Z   2
loop_
 _symmetry_equiv_pos_site_id
 _symmetry_equiv_pos_as_xyz
  1  'x, y, z'
loop_
 _atom_site_type_symbol
 _atom_site_label
 _atom_site_symmetry_multiplicity
 _atom_site_fract_x
 _atom_site_fract_y
 _atom_site_fract_z
 _atom_site_occupancy
  K  K0  1  0.00000000  -0.00000000  0.25000000  1
  K  K1  1  0.00000000  0.00000000  0.75000000  1
  Y  Y0  1  0.50000000  -0.00000000  -0.00000000  1
  Y  Y1  1  0.00000000  0.50000000  0.50000000  1
  Sn  Sn0  1  0.50000000  0.50000000  0.75000000  1
  Sn  Sn1  1  0.50000000  0.50000000  0.25000000  1
  W  W0  1  0.50000000  -0.00000000  0.50000000  1
  W  W1  1  0.00000000  0.50000000  -0.00000000  1
  O  O0  1  0.23922503  0.72641735  -0.00000000  1
  O  O1  1  0.76077497  0.27358265  -0.00000000  1
  O  O2  1  0.27358265  0.76077497  0.50000000  1
  O  O3  1  0.72641735  0.23922503  0.50000000  1
  O  O4  1  0.76077497  0.72641735  -0.00000000  1
  O  O5  1  0.72641735  0.76077497  0.50000000  1
  O  O6  1  0.23922503  0.27358265  -0.00000000  1
  O  O7  1  0.27358265  0.23922503  0.50000000  1
  O  O8  1  0.50000000  0.00000000  0.73245154  1
  O  O9  1  0.00000000  0.50000000  0.76754846  1
  O  O10  1  0.50000000  0.00000000  0.26754846  1
  O  O11  1  0.00000000  0.50000000  0.23245154  1
loop_
_geom_bond_atom_site_label_1
_geom_bond_atom_site_label_2
_geom_bond_distance
_geom_bond_site_symmetry_2
K0 O10 2.973465 1_555
K0 O10 2.973465 1_455
K0 O11 2.973465 1_555
K0 O11 2.973465 1_545
K0 O1 3.007289 1_455
K0 O4 3.007289 1_445
K0 O2 3.007289 1_545
K0 O5 3.007289 1_445
K0 O6 3.007289 1_555
K0 O7 3.007289 1_555
K0 O3 3.007289 1_455
K0 O0 3.007289 1_545
K1 O9 2.973465 1_545
K1 O8 2.973465 1_555
K1 O8 2.973465 1_455
K1 O9 2.973465 1_555
K1 O1 3.007289 1_456
K1 O4 3.007289 1_446
K1 O5 3.007289 1_445
K1 O6 3.007289 1_556
K1 O2 3.007289 1_545
K1 O7 3.007289 1_555
K1 O3 3.007289 1_455
K1 O0 3.007289 1_546
O0 W1 1.956426 1_555
O0 Y0 2.244933 1_565
O1 W1 1.956426 1_655
O1 Y0 2.244933 1_555
O2 W0 1.956426 1_565
O2 Y1 2.244933 1_555
O3 W0 1.956426 1_555
O3 Y1 2.244933 1_655
O4 W1 1.956426 1_655
O4 Y0 2.244933 1_565
O5 W0 1.956426 1_565
O5 Y1 2.244933 1_655
O6 W1 1.956426 1_555
O6 Y0 2.244933 1_555
O7 W0 1.956426 1_555
O7 Y1 2.244933 1_555
O8 W0 1.946873 1_555
O8 Y0 2.240824 1_556
O9 W1 1.946873 1_556
O9 Y1 2.240824 1_555
O10 W0 1.946873 1_555
O10 Y0 2.240824 1_555
O11 W1 1.946873 1_555
O11 Y1 2.240824 1_555
