# generated using pymatgen
data_HoCo5P3
_symmetry_space_group_name_H-M   'P 1'
_cell_length_a   3.63928400
_cell_length_b   10.26344400
_cell_length_c   11.70290100
_cell_angle_alpha   90.00000000
_cell_angle_beta   90.00000000
_cell_angle_gamma   90.00000000
_symmetry_Int_Tables_number   1
_chemical_formula_structural   HoCo5P3
_chemical_formula_sum   'Ho4 Co20 P12'
_cell_volume   437.12193110
_cell_formula_units_Z   4
loop_
 _symmetry_equiv_pos_site_id
 _symmetry_equiv_pos_as_xyz
  1  'x, y, z'
loop_
 _atom_site_type_symbol
 _atom_site_label
 _atom_site_symmetry_multiplicity
 _atom_site_fract_x
 _atom_site_fract_y
 _atom_site_fract_z
 _atom_site_occupancy
  Ho  Ho0  1  0.25000000  0.58299300  0.70296400  1
  Ho  Ho1  1  0.25000000  0.91700700  0.20296400  1
  Ho  Ho2  1  0.75000000  0.41700700  0.29703600  1
  Ho  Ho3  1  0.75000000  0.08299300  0.79703600  1
  Co  Co0  1  0.25000000  0.71624400  0.99022200  1
  Co  Co1  1  0.25000000  0.78375600  0.49022200  1
  Co  Co2  1  0.75000000  0.28375600  0.00977800  1
  Co  Co3  1  0.75000000  0.21624400  0.50977800  1
  Co  Co4  1  0.25000000  0.40665200  0.48757200  1
  Co  Co5  1  0.25000000  0.09334800  0.98757200  1
  Co  Co6  1  0.75000000  0.59334800  0.51242800  1
  Co  Co7  1  0.75000000  0.90665200  0.01242800  1
  Co  Co8  1  0.25000000  0.22092400  0.17627800  1
  Co  Co9  1  0.25000000  0.27907600  0.67627800  1
  Co  Co10  1  0.75000000  0.77907600  0.82372200  1
  Co  Co11  1  0.75000000  0.72092400  0.32372200  1
  Co  Co12  1  0.25000000  0.88263000  0.69810400  1
  Co  Co13  1  0.25000000  0.61737000  0.19810400  1
  Co  Co14  1  0.75000000  0.11737000  0.30189600  1
  Co  Co15  1  0.75000000  0.38263000  0.80189600  1
  Co  Co16  1  0.25000000  0.46737300  0.93172800  1
  Co  Co17  1  0.25000000  0.03262700  0.43172800  1
  Co  Co18  1  0.75000000  0.53262700  0.06827200  1
  Co  Co19  1  0.75000000  0.96737300  0.56827200  1
  P  P0  1  0.25000000  0.41840700  0.11220400  1
  P  P1  1  0.25000000  0.08159300  0.61220400  1
  P  P2  1  0.75000000  0.58159300  0.88779600  1
  P  P3  1  0.75000000  0.91840700  0.38779600  1
  P  P4  1  0.25000000  0.27042200  0.86988900  1
  P  P5  1  0.25000000  0.22957800  0.36988900  1
  P  P6  1  0.75000000  0.72957800  0.13011100  1
  P  P7  1  0.75000000  0.77042200  0.63011100  1
  P  P8  1  0.25000000  0.60151400  0.39095300  1
  P  P9  1  0.25000000  0.89848600  0.89095300  1
  P  P10  1  0.75000000  0.39848600  0.60904700  1
  P  P11  1  0.75000000  0.10151400  0.10904700  1
loop_
_geom_bond_atom_site_label_1
_geom_bond_atom_site_label_2
_geom_bond_distance
_geom_bond_site_symmetry_2
Ho0 P7 2.781817 1_455
Ho0 P7 2.781817 1_555
Ho0 P2 2.826690 1_555
Ho0 P2 2.826690 1_455
Ho0 P10 2.846952 1_555
Ho0 P10 2.846952 1_455
Ho1 P6 2.781817 1_555
Ho1 P6 2.781817 1_455
Ho1 P3 2.826690 1_555
Ho1 P3 2.826690 1_455
Ho1 P11 2.846952 1_565
Ho1 P11 2.846952 1_465
Ho2 P5 2.781817 1_555
Ho2 P5 2.781817 1_655
Ho2 P0 2.826690 1_555
Ho2 P0 2.826690 1_655
Ho2 P8 2.846952 1_655
Ho2 P8 2.846952 1_555
Ho3 P4 2.781817 1_555
Ho3 P4 2.781817 1_655
Ho3 P1 2.826690 1_655
Ho3 P1 2.826690 1_555
Ho3 P9 2.846952 1_645
Ho3 P9 2.846952 1_545
Co0 P9 2.201849 1_555
Co0 P6 2.451519 1_456
Co0 P6 2.451519 1_556
Co0 P2 2.580273 1_555
Co0 P2 2.580273 1_455
Co0 Ho1 3.231771 1_556
Co1 P8 2.201849 1_555
Co1 P7 2.451519 1_455
Co1 P7 2.451519 1_555
Co1 P3 2.580273 1_555
Co1 P3 2.580273 1_455
Co1 Ho0 3.231771 1_555
Co2 P11 2.201849 1_555
Co2 P4 2.451519 1_554
Co2 P4 2.451519 1_654
Co2 P0 2.580273 1_555
Co2 P0 2.580273 1_655
Co2 Ho3 3.231771 1_554
Co3 P10 2.201849 1_555
Co3 P5 2.451519 1_555
Co3 P5 2.451519 1_655
Co3 P1 2.580273 1_655
Co3 P1 2.580273 1_555
Co3 Ho2 3.231771 1_555
Co4 P5 2.280279 1_555
Co4 P8 2.297467 1_555
Co4 P10 2.310648 1_455
Co4 P10 2.310648 1_555
Co4 Ho2 2.880019 1_455
Co4 Ho2 2.880019 1_555
Co4 Ho0 3.103160 1_555
Co5 P4 2.280279 1_555
Co5 P9 2.297467 1_545
Co5 P11 2.310648 1_456
Co5 P11 2.310648 1_556
Co5 Ho3 2.880019 1_555
Co5 Ho3 2.880019 1_455
Co5 Ho1 3.103160 1_546
Co6 P7 2.280279 1_555
Co6 P10 2.297467 1_555
Co6 P8 2.310648 1_555
Co6 P8 2.310648 1_655
Co6 Ho0 2.880019 1_655
Co6 Ho0 2.880019 1_555
Co6 Ho2 3.103160 1_555
Co7 P6 2.280279 1_555
Co7 P11 2.297467 1_565
Co7 P9 2.310648 1_554
Co7 P9 2.310648 1_654
Co7 Ho1 2.880019 1_655
Co7 Ho1 2.880019 1_555
Co7 Ho3 3.103160 1_564
Co8 P0 2.161116 1_555
Co8 P5 2.267551 1_555
Co8 P11 2.330695 1_555
Co8 P11 2.330695 1_455
Co8 Ho2 3.059148 1_455
Co8 Ho2 3.059148 1_555
Co8 Ho1 3.134830 1_545
Co9 P1 2.161116 1_555
Co9 P4 2.267551 1_555
Co9 P10 2.330695 1_555
Co9 P10 2.330695 1_455
Co9 Ho3 3.059148 1_455
Co9 Ho3 3.059148 1_555
Co9 Ho0 3.134830 1_555
Co10 P2 2.161116 1_555
Co10 P7 2.267551 1_555
Co10 P9 2.330695 1_555
Co10 P9 2.330695 1_655
Co10 Ho0 3.059148 1_555
Co10 Ho0 3.059148 1_655
Co10 Ho3 3.134830 1_565
Co11 P3 2.161116 1_555
Co11 P6 2.267551 1_555
Co11 P8 2.330695 1_555
Co11 P8 2.330695 1_655
Co11 Ho1 3.059148 1_555
Co11 Ho1 3.059148 1_655
Co11 Ho2 3.134830 1_555
Co12 P9 2.262752 1_555
Co12 P1 2.276079 1_565
Co12 P7 2.295765 1_455
Co12 P7 2.295765 1_555
Co12 Ho3 2.980003 1_565
Co12 Ho3 2.980003 1_465
Co12 Ho0 3.075833 1_555
Co13 P8 2.262752 1_555
Co13 P0 2.276079 1_555
Co13 P6 2.295765 1_555
Co13 P6 2.295765 1_455
Co13 Ho2 2.980003 1_455
Co13 Ho2 2.980003 1_555
Co13 Ho1 3.075833 1_555
Co14 P11 2.262752 1_555
Co14 P3 2.276079 1_545
Co14 P5 2.295765 1_655
Co14 P5 2.295765 1_555
Co14 Ho1 2.980003 1_545
Co14 Ho1 2.980003 1_645
Co14 Ho2 3.075833 1_555
Co15 P10 2.262752 1_555
Co15 P2 2.276079 1_555
Co15 P4 2.295765 1_555
Co15 P4 2.295765 1_655
Co15 Ho0 2.980003 1_655
Co15 Ho0 2.980003 1_555
Co15 Ho3 3.075833 1_555
Co16 P4 2.147039 1_555
Co16 P0 2.171060 1_556
Co16 P2 2.224791 1_455
Co16 P2 2.224791 1_555
Co16 Ho0 2.928408 1_555
Co17 P5 2.147039 1_555
Co17 P1 2.171060 1_555
Co17 P3 2.224791 1_445
Co17 P3 2.224791 1_545
Co17 Ho1 2.928408 1_545
Co18 P6 2.147039 1_555
Co18 P2 2.171060 1_554
Co18 P0 2.224791 1_555
Co18 P0 2.224791 1_655
Co18 Ho2 2.928408 1_555
Co19 P7 2.147039 1_555
Co19 P3 2.171060 1_555
Co19 P1 2.224791 1_565
Co19 P1 2.224791 1_665
Co19 Ho3 2.928408 1_565
