# generated using pymatgen
data_Mg4Si7
_symmetry_space_group_name_H-M   'P 1'
_cell_length_a   4.27763600
_cell_length_b   6.82425412
_cell_length_c   14.01245673
_cell_angle_alpha   92.76492501
_cell_angle_beta   97.24276784
_cell_angle_gamma   89.91161629
_symmetry_Int_Tables_number   1
_chemical_formula_structural   Mg4Si7
_chemical_formula_sum   'Mg8 Si14'
_cell_volume   405.30660157
_cell_formula_units_Z   2
loop_
 _symmetry_equiv_pos_site_id
 _symmetry_equiv_pos_as_xyz
  1  'x, y, z'
loop_
 _atom_site_type_symbol
 _atom_site_label
 _atom_site_symmetry_multiplicity
 _atom_site_fract_x
 _atom_site_fract_y
 _atom_site_fract_z
 _atom_site_occupancy
  Mg  Mg0  1  0.11092600  0.92475900  0.08361100  1
  Mg  Mg1  1  0.29241500  0.68054000  0.48967200  1
  Mg  Mg2  1  0.86398800  0.87453000  0.65621000  1
  Mg  Mg3  1  0.72556000  0.48098100  0.34183500  1
  Mg  Mg4  1  0.14517800  0.46248700  0.16020300  1
  Mg  Mg5  1  0.92266000  0.39511000  0.78551200  1
  Mg  Mg6  1  0.82442800  0.37080600  0.56768900  1
  Mg  Mg7  1  0.75634200  0.98394800  0.41298000  1
  Si  Si0  1  0.58569200  0.61996500  0.03568200  1
  Si  Si1  1  0.59103900  0.26390000  0.03823300  1
  Si  Si2  1  0.05632700  0.22098400  0.95429700  1
  Si  Si3  1  0.04949800  0.62165500  0.94696600  1
  Si  Si4  1  0.26361400  0.29732800  0.43130300  1
  Si  Si5  1  0.31559800  0.05714500  0.55067800  1
  Si  Si6  1  0.49203300  0.73028400  0.83382700  1
  Si  Si7  1  0.65857000  0.13524600  0.19690300  1
  Si  Si8  1  0.20429900  0.77243800  0.29728200  1
  Si  Si9  1  0.00794900  0.91752400  0.85762900  1
  Si  Si10  1  0.37670500  0.57283900  0.67315500  1
  Si  Si11  1  0.66388300  0.76973700  0.19948000  1
  Si  Si12  1  0.19164000  0.12830200  0.27830300  1
  Si  Si13  1  0.39430900  0.21583500  0.70494800  1
loop_
_geom_bond_atom_site_label_1
_geom_bond_atom_site_label_2
_geom_bond_distance
_geom_bond_site_symmetry_2
Mg0 Si3 2.739796 1_554
Mg0 Si2 2.769416 1_564
Mg0 Si11 2.892567 1_455
Mg0 Si11 2.922293 1_555
Mg0 Si7 2.978877 1_465
Mg0 Si12 2.981543 1_565
Mg0 Si7 2.987306 1_565
Mg0 Si0 3.016287 1_555
Mg0 Si0 3.053608 1_455
Mg0 Si9 3.139565 1_554
Mg1 Si5 2.667057 1_565
Mg1 Si10 2.688537 1_555
Mg1 Si4 2.700425 1_555
Mg1 Si8 2.776541 1_555
Mg2 Si9 2.813100 1_655
Mg2 Si5 2.894348 1_665
Mg2 Si5 2.921766 1_565
Mg2 Si10 2.970707 1_555
Mg2 Si10 3.001204 1_655
Mg2 Si13 3.178990 1_565
Mg2 Si13 3.241872 1_665
Mg3 Si4 2.798396 1_555
Mg3 Si4 2.802662 1_655
Mg3 Si11 2.859471 1_555
Mg3 Si8 2.999046 1_655
Mg3 Si8 3.012099 1_555
Mg3 Si7 3.027581 1_555
Mg4 Si8 2.777531 1_555
Mg4 Si12 2.873821 1_555
Mg4 Si0 2.960811 1_555
Mg4 Si1 2.997602 1_555
Mg4 Si0 3.007857 1_455
Mg4 Si11 3.016456 1_455
Mg4 Si1 3.023469 1_455
Mg4 Si11 3.036049 1_555
Mg4 Si7 3.144091 1_555
Mg4 Si7 3.159012 1_455
Mg4 Si3 3.206046 1_554
Mg4 Si2 3.232947 1_554
Mg5 Si13 2.666672 1_555
Mg5 Si3 2.675527 1_655
Mg5 Si2 2.694562 1_655
Mg5 Si13 2.697235 1_655
Mg5 Si10 2.941468 1_555
Mg5 Si10 2.946963 1_655
Mg5 Si6 3.038981 1_555
Mg6 Si4 2.871083 1_655
Mg6 Si10 2.874336 1_555
Mg6 Si4 2.900689 1_555
Mg6 Si10 2.932432 1_655
Mg6 Si5 3.019296 1_655
Mg6 Si5 3.034871 1_555
Mg6 Si13 3.049161 1_555
Mg6 Si13 3.125111 1_655
Mg7 Si5 2.889344 1_565
Mg7 Si5 2.905567 1_665
Mg7 Si8 2.988739 1_655
Mg7 Si12 3.011655 1_665
Mg7 Si8 3.017873 1_555
Mg7 Si4 3.025142 1_565
Mg7 Si4 3.028020 1_665
Mg7 Si12 3.064220 1_565
Mg7 Si7 3.223248 1_565
Si0 Si1 2.431894 1_555
Si0 Si11 2.450650 1_555
Si0 Si3 2.467520 1_554
Si0 Si3 2.470844 1_654
Si1 Si7 2.413128 1_555
Si1 Si2 2.446580 1_654
Si1 Si2 2.447726 1_554
Si2 Si9 2.413760 1_545
Si2 Si3 2.741130 1_555
Si3 Si9 2.421160 1_555
Si3 Si6 2.742405 1_555
Si3 Si6 2.811415 1_455
Si4 Si5 2.388231 1_555
Si6 Si9 2.481280 1_555
Si6 Si9 2.529100 1_655
Si10 Si6 2.440256 1_555
Si10 Si13 2.497061 1_555
Si11 Si7 2.496356 1_565
Si11 Si8 2.533800 1_555
Si11 Si8 2.534030 1_655
Si12 Si4 2.370171 1_555
Si12 Si7 2.419088 1_455
Si12 Si7 2.423351 1_555
Si12 Si8 2.455519 1_545
Si13 Si5 2.356020 1_555
