# generated using pymatgen
data_Rb3Hf
_symmetry_space_group_name_H-M   'P 1'
_cell_length_a   8.79121876
_cell_length_b   8.79121876
_cell_length_c   6.99463600
_cell_angle_alpha   90.00000000
_cell_angle_beta   90.00000000
_cell_angle_gamma   120.00000575
_symmetry_Int_Tables_number   1
_chemical_formula_structural   Rb3Hf
_chemical_formula_sum   'Rb6 Hf2'
_cell_volume   468.15956398
_cell_formula_units_Z   2
loop_
 _symmetry_equiv_pos_site_id
 _symmetry_equiv_pos_as_xyz
  1  'x, y, z'
loop_
 _atom_site_type_symbol
 _atom_site_label
 _atom_site_symmetry_multiplicity
 _atom_site_fract_x
 _atom_site_fract_y
 _atom_site_fract_z
 _atom_site_occupancy
  Rb  Rb0  1  0.17641400  0.35282700  0.25000000  1
  Rb  Rb1  1  0.64717300  0.82358600  0.25000000  1
  Rb  Rb2  1  0.17641400  0.82358600  0.25000000  1
  Rb  Rb3  1  0.82358600  0.64717300  0.75000000  1
  Rb  Rb4  1  0.35282700  0.17641400  0.75000000  1
  Rb  Rb5  1  0.82358600  0.17641400  0.75000000  1
  Hf  Hf0  1  0.33333300  0.66666700  0.75000000  1
  Hf  Hf1  1  0.66666700  0.33333300  0.25000000  1
loop_
_geom_bond_atom_site_label_1
_geom_bond_atom_site_label_2
_geom_bond_distance
_geom_bond_site_symmetry_2
Rb0 Rb1 4.138545 1_555
Rb0 Rb2 4.138545 1_555
Rb0 Rb4 4.409872 1_555
Rb0 Rb4 4.409872 1_554
Rb0 Rb5 4.409881 1_454
Rb0 Rb5 4.409881 1_455
Rb0 Rb1 4.652673 1_445
Rb0 Rb2 4.652673 1_545
Rb1 Rb2 4.138545 1_555
Rb1 Rb3 4.409872 1_554
Rb1 Rb3 4.409872 1_555
Rb1 Rb5 4.409881 1_564
Rb1 Rb5 4.409881 1_565
Rb1 Rb2 4.652673 1_655
Rb2 Rb4 4.409881 1_564
Rb2 Rb3 4.409881 1_454
Rb2 Rb3 4.409881 1_455
Rb2 Rb4 4.409881 1_565
Rb3 Rb4 4.138545 1_555
Rb3 Rb5 4.138545 1_555
Rb3 Rb4 4.652673 1_665
Rb3 Rb5 4.652673 1_565
Rb4 Rb5 4.138545 1_555
Rb4 Rb5 4.652673 1_455
Hf0 Rb2 4.235608 1_555
Hf0 Rb2 4.235608 1_556
Hf0 Rb0 4.235616 1_555
Hf0 Rb0 4.235616 1_556
Hf0 Rb1 4.235616 1_555
Hf0 Rb1 4.235616 1_556
Hf0 Rb5 4.398114 1_565
Hf0 Rb5 4.398114 1_455
Hf0 Rb4 4.398114 1_565
Hf0 Rb3 4.398114 1_455
Hf0 Rb3 4.398114 1_555
Hf0 Rb4 4.398114 1_555
Hf1 Rb5 4.235608 1_554
Hf1 Rb5 4.235608 1_555
Hf1 Rb3 4.235616 1_554
Hf1 Rb4 4.235616 1_554
Hf1 Rb4 4.235616 1_555
Hf1 Rb3 4.235616 1_555
Hf1 Rb2 4.398114 1_655
Hf1 Rb2 4.398114 1_545
Hf1 Rb0 4.398114 1_655
Hf1 Rb1 4.398114 1_545
Hf1 Rb1 4.398114 1_555
Hf1 Rb0 4.398114 1_555
