# generated using pymatgen
data_MgSi2
_symmetry_space_group_name_H-M   'P 1'
_cell_length_a   3.88028800
_cell_length_b   6.25299000
_cell_length_c   9.27770273
_cell_angle_alpha   77.70459890
_cell_angle_beta   90.00000000
_cell_angle_gamma   90.00000000
_symmetry_Int_Tables_number   1
_chemical_formula_structural   MgSi2
_chemical_formula_sum   'Mg4 Si8'
_cell_volume   219.94524055
_cell_formula_units_Z   4
loop_
 _symmetry_equiv_pos_site_id
 _symmetry_equiv_pos_as_xyz
  1  'x, y, z'
loop_
 _atom_site_type_symbol
 _atom_site_label
 _atom_site_symmetry_multiplicity
 _atom_site_fract_x
 _atom_site_fract_y
 _atom_site_fract_z
 _atom_site_occupancy
  Mg  Mg0  1  0.50000000  0.10924600  0.83206500  1
  Mg  Mg1  1  0.50000000  0.36229100  0.14316900  1
  Mg  Mg2  1  0.00000000  0.60505300  0.33802100  1
  Mg  Mg3  1  0.00000000  0.84430300  0.65162300  1
  Si  Si0  1  0.50000000  0.83372400  0.16579800  1
  Si  Si1  1  0.00000000  0.68490300  0.98077100  1
  Si  Si2  1  0.50000000  0.52353700  0.59750100  1
  Si  Si3  1  0.00000000  0.16540500  0.37655600  1
  Si  Si4  1  0.50000000  0.61713200  0.84028900  1
  Si  Si5  1  0.00000000  0.04559800  0.05483500  1
  Si  Si6  1  0.50000000  0.92421500  0.41045600  1
  Si  Si7  1  0.00000000  0.28461200  0.60920600  1
loop_
_geom_bond_atom_site_label_1
_geom_bond_atom_site_label_2
_geom_bond_distance
_geom_bond_site_symmetry_2
Mg0 Si5 2.800689 1_556
Mg0 Si5 2.800689 1_656
Mg0 Si7 2.876807 1_555
Mg0 Si7 2.876807 1_655
Mg0 Si2 3.007627 1_555
Mg0 Si4 3.061843 1_545
Mg0 Si4 3.192925 1_555
Mg1 Si4 2.920350 1_554
Mg1 Si1 2.968030 1_654
Mg1 Si1 2.968030 1_554
Mg1 Si3 2.972033 1_555
Mg1 Si3 2.972033 1_655
Mg1 Si0 2.999596 1_555
Mg1 Si5 3.008073 1_555
Mg1 Si5 3.008073 1_655
Mg2 Si3 2.695709 1_555
Mg2 Si0 2.718219 1_555
Mg2 Si0 2.718219 1_455
Mg2 Si7 2.863196 1_555
Mg2 Si6 2.961399 1_455
Mg2 Si6 2.961399 1_555
Mg2 Si2 3.049069 1_455
Mg2 Si2 3.049069 1_555
Mg3 Si7 2.696994 1_565
Mg3 Si4 2.790493 1_455
Mg3 Si4 2.790493 1_555
Mg3 Si3 2.891672 1_565
Mg3 Si2 2.910027 1_555
Mg3 Si2 2.910027 1_455
Mg3 Si6 2.923007 1_455
Mg3 Si6 2.923007 1_555
Mg3 Si1 3.003737 1_555
Si0 Si5 2.449146 1_565
Si0 Si5 2.449146 1_665
Si0 Si6 2.453463 1_555
Si1 Si4 2.424397 1_555
Si1 Si4 2.424397 1_455
Si1 Si5 2.493825 1_566
Si2 Si7 2.436981 1_655
Si2 Si7 2.436981 1_555
Si2 Si4 2.444954 1_555
Si2 Si6 2.727067 1_555
Si3 Si7 2.428951 1_555
Si3 Si6 2.436308 1_445
Si3 Si6 2.436308 1_545
