# generated using pymatgen
data_Mg14AlW
_symmetry_space_group_name_H-M   'P 1'
_cell_length_a   6.22058100
_cell_length_b   6.13760937
_cell_length_c   10.13911765
_cell_angle_alpha   90.00000000
_cell_angle_beta   90.00000000
_cell_angle_gamma   119.55975164
_symmetry_Int_Tables_number   1
_chemical_formula_structural   Mg14AlW
_chemical_formula_sum   'Mg14 Al1 W1'
_cell_volume   336.72129010
_cell_formula_units_Z   1
loop_
 _symmetry_equiv_pos_site_id
 _symmetry_equiv_pos_as_xyz
  1  'x, y, z'
loop_
 _atom_site_type_symbol
 _atom_site_label
 _atom_site_symmetry_multiplicity
 _atom_site_fract_x
 _atom_site_fract_y
 _atom_site_fract_z
 _atom_site_occupancy
  Mg  Mg0  1  0.16839458  0.33419679  0.62500000  1
  Mg  Mg1  1  0.16665225  0.83332563  0.62500000  1
  Mg  Mg2  1  0.66752692  0.33347445  0.12500000  1
  Mg  Mg3  1  0.66415641  0.33331576  0.62500000  1
  Mg  Mg4  1  0.66752692  0.83405147  0.12500000  1
  Mg  Mg5  1  0.66415641  0.83083965  0.62500000  1
  Mg  Mg6  1  0.32836525  0.15958875  0.36230885  1
  Mg  Mg7  1  0.32836525  0.15958875  0.88769115  1
  Mg  Mg8  1  0.32836525  0.66877751  0.36230885  1
  Mg  Mg9  1  0.32836525  0.66877751  0.88769115  1
  Mg  Mg10  1  0.83702949  0.16851525  0.37505043  1
  Mg  Mg11  1  0.83702949  0.16851525  0.87494957  1
  Mg  Mg12  1  0.84467969  0.67234034  0.36662184  1
  Mg  Mg13  1  0.84467969  0.67234034  0.88337816  1
  Al  Al0  1  0.16220922  0.33110411  0.12500000  1
  W  W0  1  0.16249791  0.83124845  0.12500000  1
loop_
_geom_bond_atom_site_label_1
_geom_bond_atom_site_label_2
_geom_bond_distance
_geom_bond_site_symmetry_2
Mg0 Mg1 3.068819 1_545
Mg0 Mg1 3.068819 1_555
Mg0 Mg5 3.086598 1_555
Mg0 Mg3 3.086598 1_555
Mg0 Mg10 3.104405 1_455
Mg0 Mg11 3.104405 1_455
Mg0 Mg5 3.133990 1_445
Mg0 Mg3 3.133990 1_455
Mg0 Mg7 3.207015 1_555
Mg0 Mg6 3.207015 1_555
Mg0 Mg9 3.207021 1_555
Mg0 Mg8 3.207021 1_555
Mg1 Mg3 3.102320 1_565
Mg1 Mg5 3.102321 1_555
Mg1 Mg3 3.118317 1_455
Mg1 Mg5 3.118317 1_455
Mg1 Mg12 3.146127 1_455
Mg1 Mg13 3.146127 1_455
Mg1 Mg9 3.182497 1_555
Mg1 Mg8 3.182497 1_555
Mg1 Mg6 3.182502 1_565
Mg1 Mg7 3.182502 1_565
Mg2 Mg7 3.026202 1_554
Mg2 Mg6 3.026202 1_555
Mg2 Mg4 3.065263 1_545
Mg2 Mg4 3.072346 1_555
Mg2 W0 3.087530 1_655
Mg2 W0 3.133122 1_545
Mg3 Mg5 3.053607 1_555
Mg3 Mg5 3.084002 1_545
Mg3 Mg6 3.224368 1_555
Mg3 Mg7 3.224368 1_555
Mg4 Mg8 3.026202 1_555
Mg4 Mg9 3.026202 1_554
Mg4 W0 3.087531 1_655
Mg4 W0 3.133122 1_555
Mg5 Mg8 3.224368 1_555
Mg5 Mg9 3.224368 1_555
Mg6 W0 2.977162 1_545
Mg6 Mg8 3.012408 1_545
Mg6 Mg8 3.125202 1_555
Mg7 W0 2.977162 1_546
Mg7 Mg9 3.012408 1_545
Mg7 Mg9 3.125202 1_555
Mg8 W0 2.977156 1_555
Mg9 W0 2.977156 1_556
Mg10 Mg12 3.070273 1_555
Mg10 Mg12 3.070273 1_545
Mg10 Mg8 3.086495 1_655
Mg10 Mg6 3.086495 1_655
Mg10 Mg2 3.101263 1_555
Mg10 Mg4 3.101269 1_545
Mg10 Mg3 3.110505 1_555
Mg10 Mg5 3.110511 1_545
Mg10 Mg8 3.140179 1_545
Mg10 Mg6 3.140179 1_555
Mg11 Mg13 3.070273 1_555
Mg11 Mg13 3.070273 1_545
Mg11 Mg9 3.086495 1_655
Mg11 Mg7 3.086495 1_655
Mg11 Mg2 3.101263 1_556
Mg11 Mg4 3.101269 1_546
Mg11 Mg3 3.110505 1_555
Mg11 Mg5 3.110511 1_545
Mg11 Mg9 3.140179 1_545
Mg11 Mg7 3.140179 1_555
Mg12 W0 2.993160 1_655
Mg12 Mg6 3.019969 1_665
Mg12 Mg8 3.019970 1_655
Mg12 Mg4 3.046362 1_555
Mg12 Mg2 3.046368 1_555
Mg12 Mg5 3.185626 1_555
Mg12 Mg3 3.185631 1_555
Mg12 Mg6 3.201343 1_555
Mg12 Mg8 3.201343 1_555
Mg13 W0 2.993160 1_656
Mg13 Mg7 3.019969 1_665
Mg13 Mg9 3.019970 1_655
Mg13 Mg4 3.046362 1_556
Mg13 Mg2 3.046368 1_556
Mg13 Mg5 3.185626 1_555
Mg13 Mg3 3.185631 1_555
Mg13 Mg7 3.201343 1_555
Mg13 Mg9 3.201343 1_555
Al0 Mg6 3.006549 1_555
Al0 Mg7 3.006549 1_554
Al0 Mg9 3.006555 1_554
Al0 Mg8 3.006555 1_555
Al0 W0 3.068805 1_555
Al0 W0 3.068805 1_545
Al0 Mg4 3.084414 1_445
Al0 Mg2 3.084414 1_455
Al0 Mg11 3.086036 1_454
Al0 Mg10 3.086036 1_455
Al0 Mg4 3.136218 1_555
Al0 Mg2 3.136218 1_555
