# generated using pymatgen
data_Ca2AgWO6
_symmetry_space_group_name_H-M   'P 1'
_cell_length_a   5.92318500
_cell_length_b   5.62703300
_cell_length_c   9.66649429
_cell_angle_alpha   54.91358258
_cell_angle_beta   90.00000000
_cell_angle_gamma   90.00000000
_symmetry_Int_Tables_number   1
_chemical_formula_structural   Ca2AgWO6
_chemical_formula_sum   'Ca4 Ag2 W2 O12'
_cell_volume   263.63853032
_cell_formula_units_Z   2
loop_
 _symmetry_equiv_pos_site_id
 _symmetry_equiv_pos_as_xyz
  1  'x, y, z'
loop_
 _atom_site_type_symbol
 _atom_site_label
 _atom_site_symmetry_multiplicity
 _atom_site_fract_x
 _atom_site_fract_y
 _atom_site_fract_z
 _atom_site_occupancy
  Ca  Ca0  1  0.06391800  0.27302500  0.74551600  1
  Ca  Ca1  1  0.56391800  0.72697500  0.75448400  1
  Ca  Ca2  1  0.93608200  0.72697500  0.25448400  1
  Ca  Ca3  1  0.43608200  0.27302500  0.24551600  1
  Ag  Ag0  1  0.00000000  0.50000000  0.00000000  1
  Ag  Ag1  1  0.50000000  0.50000000  0.50000000  1
  W  W0  1  0.00000000  0.00000000  0.50000000  1
  W  W1  1  0.50000000  0.00000000  0.00000000  1
  O  O0  1  0.27304400  0.76768200  0.57333100  1
  O  O1  1  0.77304400  0.23231800  0.92666900  1
  O  O2  1  0.72695600  0.23231800  0.42666900  1
  O  O3  1  0.22695600  0.76768200  0.07333100  1
  O  O4  1  0.17164000  0.33821200  0.44651600  1
  O  O5  1  0.67164000  0.66178800  0.05348400  1
  O  O6  1  0.82836000  0.66178800  0.55348400  1
  O  O7  1  0.32836000  0.33821200  0.94651600  1
  O  O8  1  0.44332700  0.11001600  0.76817600  1
  O  O9  1  0.94332700  0.88998400  0.73182400  1
  O  O10  1  0.05667300  0.11001600  0.26817600  1
  O  O11  1  0.55667300  0.88998400  0.23182400  1
loop_
_geom_bond_atom_site_label_1
_geom_bond_atom_site_label_2
_geom_bond_distance
_geom_bond_site_symmetry_2
Ca0 O9 2.345497 1_445
Ca0 O6 2.347269 1_455
Ca0 O1 2.371947 1_455
Ca0 O8 2.389301 1_555
Ca0 O0 2.593501 1_555
Ca0 O7 2.680003 1_555
Ca0 O4 2.770665 1_555
Ca0 O3 2.949737 1_546
Ca1 O8 2.345497 1_565
Ca1 O7 2.347269 1_555
Ca1 O0 2.371947 1_555
Ca1 O9 2.389301 1_555
Ca1 O1 2.593501 1_555
Ca1 O6 2.680003 1_555
Ca1 O5 2.770665 1_556
Ca1 O2 2.949737 1_565
Ca2 O10 2.345497 1_665
Ca2 O4 2.347269 1_655
Ca2 O3 2.371947 1_655
Ca2 O11 2.389301 1_555
Ca2 O2 2.593501 1_555
Ca2 O5 2.680003 1_555
Ca2 O6 2.770665 1_555
Ca2 O1 2.949737 1_564
Ca3 O11 2.345497 1_545
Ca3 O5 2.347269 1_555
Ca3 O2 2.371947 1_555
Ca3 O10 2.389301 1_555
Ca3 O3 2.593501 1_555
Ca3 O4 2.680003 1_555
Ca3 O7 2.770665 1_554
Ca3 O0 2.949737 1_545
Ag0 O10 2.260210 1_555
Ag0 O9 2.260210 1_454
Ag0 O5 2.328083 1_455
Ag0 O7 2.328083 1_554
Ag0 O3 2.409543 1_555
Ag0 O1 2.409543 1_454
Ag1 O11 2.260210 1_555
Ag1 O8 2.260210 1_555
Ag1 O6 2.328083 1_555
Ag1 O4 2.328083 1_555
Ag1 O0 2.409543 1_555
Ag1 O2 2.409543 1_555
O0 W0 1.939517 1_565
O1 W1 1.939517 1_556
O2 W0 1.939517 1_655
O3 W1 1.939517 1_565
O4 W0 1.947214 1_555
O5 W1 1.947214 1_565
O6 W0 1.947214 1_665
O7 W1 1.947214 1_556
O8 W1 1.980613 1_556
O9 W0 1.980613 1_665
O10 W0 1.980613 1_555
O11 W1 1.980613 1_565
