# generated using pymatgen
data_DySnAu
_symmetry_space_group_name_H-M   'P 1'
_cell_length_a   4.72159506
_cell_length_b   4.72159506
_cell_length_c   7.41090200
_cell_angle_alpha   90.00000000
_cell_angle_beta   90.00000000
_cell_angle_gamma   119.99998687
_symmetry_Int_Tables_number   1
_chemical_formula_structural   DySnAu
_chemical_formula_sum   'Dy2 Sn2 Au2'
_cell_volume   143.08010016
_cell_formula_units_Z   2
loop_
 _symmetry_equiv_pos_site_id
 _symmetry_equiv_pos_as_xyz
  1  'x, y, z'
loop_
 _atom_site_type_symbol
 _atom_site_label
 _atom_site_symmetry_multiplicity
 _atom_site_fract_x
 _atom_site_fract_y
 _atom_site_fract_z
 _atom_site_occupancy
  Dy  Dy0  1  0.00000000  0.00000000  0.50000000  1
  Dy  Dy1  1  0.00000000  0.00000000  0.00000000  1
  Sn  Sn0  1  0.33333300  0.66666700  0.25000000  1
  Sn  Sn1  1  0.66666700  0.33333300  0.75000000  1
  Au  Au0  1  0.33333300  0.66666700  0.75000000  1
  Au  Au1  1  0.66666700  0.33333300  0.25000000  1
loop_
_geom_bond_atom_site_label_1
_geom_bond_atom_site_label_2
_geom_bond_distance
_geom_bond_site_symmetry_2
Dy0 Sn1 3.296017 1_455
Dy0 Sn0 3.296017 1_545
Dy0 Sn1 3.296021 1_555
Dy0 Sn1 3.296021 1_445
Dy0 Sn0 3.296021 1_445
Dy0 Sn0 3.296021 1_555
Dy0 Dy1 3.705451 1_556
Dy0 Dy1 3.705451 1_555
Dy1 Sn1 3.296017 1_454
Dy1 Sn0 3.296017 1_545
Dy1 Sn1 3.296021 1_444
Dy1 Sn0 3.296021 1_555
Dy1 Sn0 3.296021 1_445
Dy1 Sn1 3.296021 1_554
Au0 Sn1 2.726012 1_455
Au0 Sn1 2.726012 1_565
Au0 Sn1 2.726019 1_555
Au0 Dy0 3.296017 1_565
Au0 Dy1 3.296017 1_566
Au0 Dy0 3.296021 1_665
Au0 Dy0 3.296021 1_555
Au0 Dy1 3.296021 1_556
Au0 Dy1 3.296021 1_666
Au1 Sn0 2.726012 1_545
Au1 Sn0 2.726012 1_655
Au1 Sn0 2.726019 1_555
Au1 Dy1 3.296017 1_655
Au1 Dy0 3.296017 1_655
Au1 Dy0 3.296021 1_665
Au1 Dy0 3.296021 1_555
Au1 Dy1 3.296021 1_665
Au1 Dy1 3.296021 1_555
