# generated using pymatgen
data_K2CoBr4
_symmetry_space_group_name_H-M   'P 1'
_cell_length_a   7.49621675
_cell_length_b   9.38069331
_cell_length_c   13.27828466
_cell_angle_alpha   90.00000000
_cell_angle_beta   90.00000000
_cell_angle_gamma   90.00000000
_symmetry_Int_Tables_number   1
_chemical_formula_structural   K2CoBr4
_chemical_formula_sum   'K8 Co4 Br16'
_cell_volume   933.72513080
_cell_formula_units_Z   4
loop_
 _symmetry_equiv_pos_site_id
 _symmetry_equiv_pos_as_xyz
  1  'x, y, z'
loop_
 _atom_site_type_symbol
 _atom_site_label
 _atom_site_symmetry_multiplicity
 _atom_site_fract_x
 _atom_site_fract_y
 _atom_site_fract_z
 _atom_site_occupancy
  K  K0  1  0.75000000  0.52258176  0.32503218  1
  K  K1  1  0.25000000  0.47741824  0.67496782  1
  K  K2  1  0.25000000  0.97741824  0.82503218  1
  K  K3  1  0.75000000  0.02258176  0.17496782  1
  K  K4  1  0.75000000  0.88370787  0.56680140  1
  K  K5  1  0.25000000  0.11629213  0.43319860  1
  K  K6  1  0.25000000  0.61629213  0.06680140  1
  K  K7  1  0.75000000  0.38370787  0.93319860  1
  Co  Co0  1  0.75000000  0.78061787  0.92735376  1
  Co  Co1  1  0.25000000  0.21938213  0.07264624  1
  Co  Co2  1  0.25000000  0.71938213  0.42735376  1
  Co  Co3  1  0.75000000  0.28061787  0.57264624  1
  Br  Br0  1  0.00491445  0.67575234  0.84908434  1
  Br  Br1  1  0.99508555  0.32424766  0.15091566  1
  Br  Br2  1  0.99508555  0.82424766  0.34908434  1
  Br  Br3  1  0.50491445  0.32424766  0.15091566  1
  Br  Br4  1  0.00491445  0.17575234  0.65091566  1
  Br  Br5  1  0.49508555  0.67575234  0.84908434  1
  Br  Br6  1  0.49508555  0.17575234  0.65091566  1
  Br  Br7  1  0.50491445  0.82424766  0.34908434  1
  Br  Br8  1  0.75000000  0.03384257  0.91893509  1
  Br  Br9  1  0.25000000  0.96615743  0.08106491  1
  Br  Br10  1  0.25000000  0.46615743  0.41893509  1
  Br  Br11  1  0.75000000  0.53384257  0.58106491  1
  Br  Br12  1  0.75000000  0.19051695  0.40356749  1
  Br  Br13  1  0.25000000  0.80948305  0.59643251  1
  Br  Br14  1  0.25000000  0.30948305  0.90356749  1
  Br  Br15  1  0.75000000  0.69051695  0.09643251  1
loop_
_geom_bond_atom_site_label_1
_geom_bond_atom_site_label_2
_geom_bond_distance
_geom_bond_site_symmetry_2
Br0 Co0 2.387324 1_455
Br0 K2 3.389000 1_555
Br0 K6 3.470422 1_556
Br0 K1 3.490281 1_555
Br0 K7 3.521969 1_455
Br1 Co1 2.387324 1_655
Br1 K3 3.389000 1_555
Br1 K7 3.470422 1_554
Br1 K0 3.490281 1_555
Br1 K6 3.521969 1_655
Br2 Co2 2.387324 1_655
Br2 K0 3.389000 1_555
Br2 K4 3.470422 1_555
Br2 K3 3.490281 1_565
Br2 K5 3.521969 1_665
Br3 Co1 2.387324 1_555
Br3 K3 3.389000 1_555
Br3 K7 3.470422 1_554
Br3 K0 3.490281 1_555
Br3 K6 3.521969 1_555
Br4 Co3 2.387324 1_455
Br4 K1 3.389000 1_555
Br4 K5 3.470422 1_555
Br4 K2 3.490281 1_545
Br4 K4 3.521969 1_445
Br5 Co0 2.387324 1_555
Br5 K2 3.389000 1_555
Br5 K6 3.470422 1_556
Br5 K1 3.490281 1_555
Br5 K7 3.521969 1_555
Br6 Co3 2.387324 1_555
Br6 K1 3.389000 1_555
Br6 K5 3.470422 1_555
Br6 K2 3.490281 1_545
Br6 K4 3.521969 1_545
Br7 Co2 2.387324 1_555
Br7 K0 3.389000 1_555
Br7 K4 3.470422 1_555
Br7 K3 3.490281 1_565
Br7 K5 3.521969 1_565
Br8 Co0 2.378052 1_545
Br8 K7 3.287439 1_555
Br8 K3 3.401316 1_556
Br9 Co1 2.378052 1_565
Br9 K6 3.287439 1_555
Br9 K2 3.401316 1_554
Br10 Co2 2.378052 1_555
Br10 K5 3.287439 1_555
Br10 K1 3.401316 1_555
Br11 Co3 2.378052 1_555
Br11 K4 3.287439 1_555
Br11 K0 3.401316 1_555
Br12 Co3 2.398905 1_555
Br12 K0 3.284916 1_555
Br12 K3 3.419861 1_555
Br12 K4 3.602952 1_545
Br12 K5 3.832483 1_555
Br12 K5 3.832483 1_655
Br13 Co2 2.398905 1_555
Br13 K1 3.284916 1_555
Br13 K2 3.419861 1_555
Br13 K5 3.602952 1_565
Br13 K4 3.832483 1_555
Br13 K4 3.832483 1_455
Br14 Co1 2.398905 1_556
Br14 K2 3.284916 1_545
Br14 K1 3.419861 1_555
Br14 K6 3.602952 1_556
Br14 K7 3.832483 1_455
Br14 K7 3.832483 1_555
Br15 Co0 2.398905 1_554
Br15 K3 3.284916 1_565
Br15 K0 3.419861 1_555
Br15 K7 3.602952 1_554
Br15 K6 3.832483 1_555
Br15 K6 3.832483 1_655
