# generated using pymatgen
data_Cr3Pb3N5
_symmetry_space_group_name_H-M   'P 1'
_cell_length_a   5.78619720
_cell_length_b   7.48372801
_cell_length_c   8.41383104
_cell_angle_alpha   104.21041845
_cell_angle_beta   99.19769832
_cell_angle_gamma   96.95622558
_symmetry_Int_Tables_number   1
_chemical_formula_structural   Cr3Pb3N5
_chemical_formula_sum   'Cr6 Pb6 N10'
_cell_volume   343.71933171
_cell_formula_units_Z   2
loop_
 _symmetry_equiv_pos_site_id
 _symmetry_equiv_pos_as_xyz
  1  'x, y, z'
loop_
 _atom_site_type_symbol
 _atom_site_label
 _atom_site_symmetry_multiplicity
 _atom_site_fract_x
 _atom_site_fract_y
 _atom_site_fract_z
 _atom_site_occupancy
  Cr  Cr0  1  0.93368000  0.32310500  0.97294600  1
  Cr  Cr1  1  0.06632000  0.67689500  0.02705400  1
  Cr  Cr2  1  0.68557600  0.99904600  0.60286900  1
  Cr  Cr3  1  0.31442400  0.00095400  0.39713100  1
  Cr  Cr4  1  0.08676900  0.92793600  0.72218800  1
  Cr  Cr5  1  0.91323100  0.07206400  0.27781200  1
  Pb  Pb0  1  0.76000700  0.44718200  0.54029100  1
  Pb  Pb1  1  0.23999300  0.55281800  0.45970900  1
  Pb  Pb2  1  0.56852300  0.80295700  0.86591200  1
  Pb  Pb3  1  0.43147700  0.19704300  0.13408800  1
  Pb  Pb4  1  0.61846300  0.67005500  0.22811500  1
  Pb  Pb5  1  0.38153700  0.32994500  0.77188500  1
  N  N0  1  0.93228700  0.14285700  0.77529000  1
  N  N1  1  0.06771300  0.85714300  0.22471000  1
  N  N2  1  0.82583400  0.79578900  0.57118700  1
  N  N3  1  0.17416600  0.20421100  0.42881300  1
  N  N4  1  0.77582000  0.52554300  0.96610600  1
  N  N5  1  0.22418000  0.47445700  0.03389400  1
  N  N6  1  0.34942800  0.94920800  0.60573100  1
  N  N7  1  0.65057200  0.05079200  0.39426900  1
  N  N8  1  0.11766600  0.80840400  0.88064700  1
  N  N9  1  0.88233400  0.19159600  0.11935300  1
loop_
_geom_bond_atom_site_label_1
_geom_bond_atom_site_label_2
_geom_bond_distance
_geom_bond_site_symmetry_2
Cr0 N9 1.793240 1_556
Cr0 N5 1.830142 1_656
Cr0 N0 1.864689 1_555
Cr0 N4 1.869229 1_555
Cr1 N8 1.793240 1_554
Cr1 N4 1.830142 1_454
Cr1 N1 1.864689 1_555
Cr1 N5 1.869229 1_555
Cr2 N2 1.792371 1_555
Cr2 N0 1.870817 1_565
Cr2 N7 1.873635 1_565
Cr2 N6 1.940735 1_555
Cr3 N3 1.792371 1_555
Cr3 N1 1.870817 1_545
Cr3 N6 1.873635 1_545
Cr3 N7 1.940735 1_555
Cr4 N8 1.777023 1_555
Cr4 N2 1.811070 1_455
Cr4 N0 1.925796 1_465
Cr4 N6 1.946606 1_555
Cr5 N9 1.777023 1_555
Cr5 N3 1.811070 1_655
Cr5 N1 1.925796 1_645
Cr5 N7 1.946606 1_555
N0 Pb5 2.807171 1_655
N1 Pb4 2.807171 1_455
N2 Pb0 2.532507 1_555
N2 Pb4 2.818344 1_555
N3 Pb1 2.532507 1_555
N3 Pb5 2.818344 1_555
N4 Pb4 2.562828 1_556
N4 Pb5 2.615869 1_555
N4 Pb2 2.756582 1_555
N5 Pb5 2.562828 1_554
N5 Pb4 2.615869 1_555
N5 Pb3 2.756582 1_555
N6 Pb5 2.817915 1_565
N7 Pb4 2.817915 1_545
N8 Pb2 2.636146 1_555
N9 Pb3 2.636146 1_555
