# generated using pymatgen
data_Li4MnCo2O7
_symmetry_space_group_name_H-M   'P 1'
_cell_length_a   5.11624800
_cell_length_b   5.14699144
_cell_length_c   10.43508087
_cell_angle_alpha   84.75376955
_cell_angle_beta   76.70472577
_cell_angle_gamma   70.44226659
_symmetry_Int_Tables_number   1
_chemical_formula_structural   Li4MnCo2O7
_chemical_formula_sum   'Li8 Mn2 Co4 O14'
_cell_volume   251.96451946
_cell_formula_units_Z   2
loop_
 _symmetry_equiv_pos_site_id
 _symmetry_equiv_pos_as_xyz
  1  'x, y, z'
loop_
 _atom_site_type_symbol
 _atom_site_label
 _atom_site_symmetry_multiplicity
 _atom_site_fract_x
 _atom_site_fract_y
 _atom_site_fract_z
 _atom_site_occupancy
  Li  Li0  1  0.00000000  0.50000000  0.50000000  1
  Li  Li1  1  0.56658600  0.49753500  0.36048500  1
  Li  Li2  1  0.13678900  0.50392500  0.21645500  1
  Li  Li3  1  0.71732600  0.49927200  0.06931800  1
  Li  Li4  1  0.28267400  0.50072800  0.93068200  1
  Li  Li5  1  0.86321100  0.49607500  0.78354500  1
  Li  Li6  1  0.43341400  0.50246500  0.63951500  1
  Li  Li7  1  0.50000000  0.00000000  0.50000000  1
  Mn  Mn0  1  0.93384900  0.99312300  0.64004000  1
  Mn  Mn1  1  0.06615100  0.00687700  0.35996000  1
  Co  Co0  1  0.63472800  0.00389000  0.22256700  1
  Co  Co1  1  0.21287300  0.00504400  0.06956600  1
  Co  Co2  1  0.78712700  0.99495600  0.93043400  1
  Co  Co3  1  0.36527200  0.99611000  0.77743300  1
  O  O0  1  0.69360200  0.77038700  0.64612300  1
  O  O1  1  0.21895200  0.77411300  0.50036400  1
  O  O2  1  0.82668600  0.78178300  0.34855600  1
  O  O3  1  0.36523200  0.78035300  0.22260800  1
  O  O4  1  0.95745000  0.77160000  0.06733300  1
  O  O5  1  0.52403500  0.77415300  0.92773600  1
  O  O6  1  0.10217400  0.76529000  0.77847400  1
  O  O7  1  0.30639800  0.22961300  0.35387700  1
  O  O8  1  0.89782600  0.23471000  0.22152600  1
  O  O9  1  0.47596500  0.22584700  0.07226400  1
  O  O10  1  0.04255000  0.22840000  0.93266700  1
  O  O11  1  0.63476800  0.21964700  0.77739200  1
  O  O12  1  0.17331400  0.21821700  0.65144400  1
  O  O13  1  0.78104800  0.22588700  0.49963600  1
loop_
_geom_bond_atom_site_label_1
_geom_bond_atom_site_label_2
_geom_bond_distance
_geom_bond_site_symmetry_2
Li0 O1 2.075207 1_555
Li0 O13 2.075207 1_455
Li0 O0 2.132429 1_455
Li0 O7 2.132429 1_555
Li0 O12 2.179802 1_555
Li0 O2 2.179802 1_455
Li1 O8 2.120897 1_555
Li1 O3 2.131891 1_555
Li1 O13 2.145153 1_555
Li1 O1 2.193447 1_555
Li1 O7 2.228691 1_555
Li1 O2 2.262911 1_555
Li2 O7 2.045634 1_555
Li2 O2 2.073202 1_455
Li2 O8 2.123347 1_455
Li2 O3 2.135177 1_555
Li2 O4 2.140034 1_455
Li2 O9 2.203139 1_555
Li3 O10 2.113025 1_654
Li3 O5 2.124954 1_554
Li3 O4 2.147159 1_555
Li3 O9 2.155112 1_555
Li3 O8 2.160311 1_555
Li3 O3 2.291242 1_555
Li4 O4 2.113025 1_456
Li4 O9 2.124954 1_556
Li4 O10 2.147159 1_555
Li4 O5 2.155112 1_555
Li4 O6 2.160311 1_555
Li4 O11 2.291242 1_555
Li5 O0 2.045634 1_555
Li5 O12 2.073202 1_655
Li5 O6 2.123347 1_655
Li5 O11 2.135177 1_555
Li5 O10 2.140034 1_655
Li5 O5 2.203139 1_555
Li6 O6 2.120897 1_555
Li6 O11 2.131891 1_555
Li6 O1 2.145153 1_555
Li6 O13 2.193447 1_555
Li6 O0 2.228691 1_555
Li6 O12 2.262911 1_555
Li7 O7 2.069838 1_555
Li7 O0 2.069838 1_545
Li7 O2 2.098906 1_545
Li7 O12 2.098906 1_555
Li7 O13 2.129621 1_555
Li7 O1 2.129621 1_545
Mn0 O0 1.929610 1_555
Mn0 O1 1.935073 1_655
Mn0 O13 1.942114 1_565
Mn0 O6 1.946749 1_655
Mn0 O11 1.964053 1_565
Mn0 O12 1.974849 1_665
Mn1 O7 1.929610 1_555
Mn1 O13 1.935073 1_455
Mn1 O1 1.942114 1_545
Mn1 O8 1.946749 1_455
Mn1 O3 1.964053 1_545
Mn1 O2 1.974849 1_445
Co0 O2 1.888699 1_545
Co0 O7 1.993721 1_555
Co0 O9 2.015404 1_555
Co0 O8 2.070031 1_555
Co0 O3 2.070411 1_545
Co0 O4 2.140563 1_545
Co1 O10 1.929573 1_554
Co1 O5 2.026922 1_544
Co1 O3 2.031446 1_545
Co1 O9 2.037561 1_555
Co1 O4 2.054836 1_445
Co1 O8 2.097965 1_455
Co2 O4 1.929573 1_556
Co2 O9 2.026922 1_566
Co2 O11 2.031446 1_565
Co2 O5 2.037561 1_555
Co2 O10 2.054836 1_665
Co2 O6 2.097965 1_655
Co3 O12 1.888699 1_565
Co3 O0 1.993721 1_555
Co3 O5 2.015404 1_555
Co3 O6 2.070031 1_555
Co3 O11 2.070411 1_565
Co3 O10 2.140563 1_565
