# generated using pymatgen
data_SrO6
_symmetry_space_group_name_H-M   'P 1'
_cell_length_a   5.94617585
_cell_length_b   5.94617585
_cell_length_c   6.25372524
_cell_angle_alpha   87.67888478
_cell_angle_beta   87.67888478
_cell_angle_gamma   99.57789347
_symmetry_Int_Tables_number   1
_chemical_formula_structural   SrO6
_chemical_formula_sum   'Sr2 O12'
_cell_volume   217.60133111
_cell_formula_units_Z   2
loop_
 _symmetry_equiv_pos_site_id
 _symmetry_equiv_pos_as_xyz
  1  'x, y, z'
loop_
 _atom_site_type_symbol
 _atom_site_label
 _atom_site_symmetry_multiplicity
 _atom_site_fract_x
 _atom_site_fract_y
 _atom_site_fract_z
 _atom_site_occupancy
  Sr  Sr0  1  0.19158700  0.80841300  0.75000000  1
  Sr  Sr1  1  0.80841300  0.19158700  0.25000000  1
  O  O0  1  0.92740000  0.75691500  0.40914700  1
  O  O1  1  0.24308500  0.07260000  0.09085300  1
  O  O2  1  0.07260000  0.24308500  0.59085300  1
  O  O3  1  0.75691500  0.92740000  0.90914700  1
  O  O4  1  0.75159000  0.59737300  0.42112700  1
  O  O5  1  0.40262700  0.24841000  0.07887300  1
  O  O6  1  0.24841000  0.40262700  0.57887300  1
  O  O7  1  0.59737300  0.75159000  0.92112700  1
  O  O8  1  0.91399000  0.46622500  0.93473400  1
  O  O9  1  0.53377500  0.08601000  0.56526600  1
  O  O10  1  0.08601000  0.53377500  0.06526600  1
  O  O11  1  0.46622500  0.91399000  0.43473400  1
loop_
_geom_bond_atom_site_label_1
_geom_bond_atom_site_label_2
_geom_bond_distance
_geom_bond_site_symmetry_2
O0 O4 1.286976 1_555
O0 Sr0 2.696155 1_655
O0 Sr1 2.937462 1_565
O1 O5 1.286976 1_555
O1 Sr0 2.696155 1_544
O1 Sr1 2.937462 1_455
O2 O6 1.286976 1_555
O2 Sr1 2.696155 1_455
O2 Sr0 2.937462 1_545
O3 O7 1.286976 1_555
O3 Sr1 2.696155 1_566
O3 Sr0 2.937462 1_655
O4 Sr1 2.744556 1_555
O5 Sr1 2.744556 1_555
O6 Sr0 2.744556 1_555
O7 Sr0 2.744556 1_555
O8 Sr1 2.499178 1_556
O8 Sr0 2.595535 1_655
O9 Sr1 2.499178 1_555
O9 Sr0 2.595535 1_545
O10 O8 1.353298 1_454
O10 Sr0 2.499178 1_554
O10 Sr1 2.595535 1_455
O11 O9 1.353298 1_565
O11 Sr0 2.499178 1_555
O11 Sr1 2.595535 1_565
