# generated using pymatgen
data_HoMn2ZnO6
_symmetry_space_group_name_H-M   'P 1'
_cell_length_a   5.17980300
_cell_length_b   5.39778700
_cell_length_c   7.64953400
_cell_angle_alpha   90.00000000
_cell_angle_beta   90.00000000
_cell_angle_gamma   90.00000000
_symmetry_Int_Tables_number   1
_chemical_formula_structural   HoMn2ZnO6
_chemical_formula_sum   'Ho2 Mn4 Zn2 O12'
_cell_volume   213.87694160
_cell_formula_units_Z   2
loop_
 _symmetry_equiv_pos_site_id
 _symmetry_equiv_pos_as_xyz
  1  'x, y, z'
loop_
 _atom_site_type_symbol
 _atom_site_label
 _atom_site_symmetry_multiplicity
 _atom_site_fract_x
 _atom_site_fract_y
 _atom_site_fract_z
 _atom_site_occupancy
  Ho  Ho0  1  0.01804600  0.68522300  0.00000000  1
  Ho  Ho1  1  0.51804600  0.31477700  0.50000000  1
  Mn  Mn0  1  0.99996500  0.24042700  0.74984600  1
  Mn  Mn1  1  0.99996500  0.24042700  0.25015400  1
  Mn  Mn2  1  0.49996500  0.75957300  0.24984600  1
  Mn  Mn3  1  0.49996500  0.75957300  0.75015400  1
  Zn  Zn0  1  0.49096700  0.20631600  0.00000000  1
  Zn  Zn1  1  0.99096700  0.79368400  0.50000000  1
  O  O0  1  0.10599000  0.19524600  0.50000000  1
  O  O1  1  0.19666700  0.94720500  0.81092000  1
  O  O2  1  0.19666700  0.94720500  0.18908000  1
  O  O3  1  0.30886100  0.44103700  0.81140200  1
  O  O4  1  0.30886100  0.44103700  0.18859800  1
  O  O5  1  0.37405300  0.71263800  0.50000000  1
  O  O6  1  0.60599000  0.80475400  0.00000000  1
  O  O7  1  0.69666700  0.05279500  0.31092000  1
  O  O8  1  0.69666700  0.05279500  0.68908000  1
  O  O9  1  0.80886100  0.55896300  0.68859800  1
  O  O10  1  0.80886100  0.55896300  0.31140200  1
  O  O11  1  0.87405300  0.28736200  0.00000000  1
loop_
_geom_bond_atom_site_label_1
_geom_bond_atom_site_label_2
_geom_bond_distance
_geom_bond_site_symmetry_2
Ho0 O1 2.224360 1_554
Ho0 O2 2.224360 1_555
Ho0 O6 2.229757 1_455
Ho0 O11 2.273401 1_455
Ho0 O4 2.467341 1_555
Ho0 O3 2.467341 1_554
Ho0 O9 2.704225 1_454
Ho0 O10 2.704225 1_455
Ho1 O7 2.224360 1_555
Ho1 O8 2.224360 1_555
Ho1 O0 2.229757 1_555
Ho1 O5 2.273401 1_555
Ho1 O10 2.467341 1_555
Ho1 O9 2.467341 1_555
Ho1 O3 2.704225 1_555
Ho1 O4 2.704225 1_555
Mn0 O8 1.926121 1_555
Mn0 O1 1.939452 1_645
Mn0 O3 1.988555 1_655
Mn0 O0 2.003445 1_655
Mn0 O11 2.037465 1_556
Mn0 O9 2.038547 1_555
Mn1 O7 1.926121 1_555
Mn1 O2 1.939452 1_645
Mn1 O4 1.988555 1_655
Mn1 O0 2.003445 1_655
Mn1 O11 2.037465 1_555
Mn1 O10 2.038547 1_555
Mn2 O2 1.926121 1_555
Mn2 O7 1.939452 1_565
Mn2 O10 1.988555 1_555
Mn2 O6 2.003445 1_555
Mn2 O5 2.037465 1_555
Mn2 O4 2.038547 1_555
Mn3 O1 1.926121 1_555
Mn3 O8 1.939452 1_565
Mn3 O9 1.988555 1_555
Mn3 O6 2.003445 1_556
Mn3 O5 2.037465 1_555
Mn3 O3 2.038547 1_555
O0 Zn1 2.247939 1_445
O1 Zn0 2.524281 1_566
O2 Zn0 2.524281 1_565
O3 Zn0 2.139236 1_556
O4 Zn0 2.139236 1_555
O5 Zn1 2.031961 1_455
O6 Zn0 2.247939 1_565
O7 Zn1 2.524281 1_545
O8 Zn1 2.524281 1_545
O9 Zn1 2.139236 1_555
O10 Zn1 2.139236 1_555
O11 Zn0 2.031961 1_555
