# generated using pymatgen
data_CeGa3Pd
_symmetry_space_group_name_H-M   'P 1'
_cell_length_a   6.06706016
_cell_length_b   6.06706016
_cell_length_c   5.85096203
_cell_angle_alpha   90.00000000
_cell_angle_beta   90.00000000
_cell_angle_gamma   116.50995182
_symmetry_Int_Tables_number   1
_chemical_formula_structural   CeGa3Pd
_chemical_formula_sum   'Ce2 Ga6 Pd2'
_cell_volume   192.72473100
_cell_formula_units_Z   2
loop_
 _symmetry_equiv_pos_site_id
 _symmetry_equiv_pos_as_xyz
  1  'x, y, z'
loop_
 _atom_site_type_symbol
 _atom_site_label
 _atom_site_symmetry_multiplicity
 _atom_site_fract_x
 _atom_site_fract_y
 _atom_site_fract_z
 _atom_site_occupancy
  Ce  Ce0  1  0.23149663  0.76850337  0.75000000  1
  Ce  Ce1  1  0.76850337  0.23149663  0.25000000  1
  Ga  Ga0  1  0.66369423  0.33630577  0.75000000  1
  Ga  Ga1  1  0.33630577  0.66369423  0.25000000  1
  Ga  Ga2  1  0.71427852  0.71427852  -0.00000000  1
  Ga  Ga3  1  0.71427852  0.71427852  0.50000000  1
  Ga  Ga4  1  0.28572148  0.28572148  -0.00000000  1
  Ga  Ga5  1  0.28572148  0.28572148  0.50000000  1
  Pd  Pd0  1  0.90475483  0.09524517  0.75000000  1
  Pd  Pd1  1  0.09524517  0.90475483  0.25000000  1
loop_
_geom_bond_atom_site_label_1
_geom_bond_atom_site_label_2
_geom_bond_distance
_geom_bond_site_symmetry_2
Ce0 Ga1 3.118990 1_556
Ce0 Ga1 3.118990 1_555
Ce0 Pd1 3.245790 1_555
Ce0 Pd1 3.245790 1_556
Ce0 Ga0 3.267897 1_455
Ce0 Ga0 3.267897 1_565
Ce0 Ga3 3.342642 1_455
Ce0 Ga2 3.342642 1_456
Ce0 Ga5 3.342642 1_565
Ce0 Ga4 3.342642 1_566
Ce0 Pd0 3.371593 1_465
Ce0 Ga4 3.418699 1_556
Ce0 Ga5 3.418699 1_555
Ce0 Ga2 3.418699 1_556
Ce0 Ga3 3.418699 1_555
Ce0 Pd0 3.658683 1_565
Ce0 Pd0 3.658683 1_455
Ce1 Ga0 3.118990 1_555
Ce1 Ga0 3.118990 1_554
Ce1 Pd0 3.245790 1_554
Ce1 Pd0 3.245790 1_555
Ce1 Ga1 3.267897 1_655
Ce1 Ga1 3.267897 1_545
Ce1 Ga3 3.342642 1_545
Ce1 Ga2 3.342642 1_545
Ce1 Ga4 3.342642 1_655
Ce1 Ga5 3.342642 1_655
Ce1 Pd1 3.371593 1_645
Ce1 Ga5 3.418699 1_555
Ce1 Ga4 3.418699 1_555
Ce1 Ga3 3.418699 1_555
Ce1 Ga2 3.418699 1_555
Ce1 Pd1 3.658683 1_545
Ce1 Pd1 3.658683 1_655
Ga0 Pd0 2.487464 1_555
Ga0 Ga5 2.619966 1_555
Ga0 Ga4 2.619966 1_556
Ga0 Ga2 2.619966 1_556
Ga0 Ga3 2.619966 1_555
Ga1 Pd1 2.487464 1_555
Ga1 Ga2 2.619966 1_555
Ga1 Ga5 2.619966 1_555
Ga1 Ga4 2.619966 1_555
Ga1 Ga3 2.619966 1_555
Ga2 Pd0 2.536325 1_564
Ga2 Pd1 2.536325 1_655
Ga3 Pd0 2.536325 1_565
Ga3 Pd1 2.536325 1_655
Ga4 Pd0 2.536325 1_454
Ga4 Pd1 2.536325 1_545
Ga5 Pd0 2.536325 1_455
Ga5 Pd1 2.536325 1_545
