# generated using pymatgen
data_Eu(CoGe)2
_symmetry_space_group_name_H-M   'P 1'
_cell_length_a   5.95733341
_cell_length_b   5.95733341
_cell_length_c   5.95733341
_cell_angle_alpha   141.04730081
_cell_angle_beta   141.04730081
_cell_angle_gamma   56.26652024
_symmetry_Int_Tables_number   1
_chemical_formula_structural   Eu(CoGe)2
_chemical_formula_sum   'Eu1 Co2 Ge2'
_cell_volume   82.90666263
_cell_formula_units_Z   1
loop_
 _symmetry_equiv_pos_site_id
 _symmetry_equiv_pos_as_xyz
  1  'x, y, z'
loop_
 _atom_site_type_symbol
 _atom_site_label
 _atom_site_symmetry_multiplicity
 _atom_site_fract_x
 _atom_site_fract_y
 _atom_site_fract_z
 _atom_site_occupancy
  Eu  Eu0  1  0.00000000  0.00000000  -0.00000000  1
  Co  Co0  1  0.75000000  0.25000000  0.50000000  1
  Co  Co1  1  0.25000000  0.75000000  0.50000000  1
  Ge  Ge0  1  0.36384348  0.36384348  0.00000000  1
  Ge  Ge1  1  0.63615652  0.63615652  0.00000000  1
loop_
_geom_bond_atom_site_label_1
_geom_bond_atom_site_label_2
_geom_bond_distance
_geom_bond_site_symmetry_2
Eu0 Ge1 3.152336 1_545
Eu0 Ge0 3.152336 1_455
Eu0 Ge1 3.152336 1_556
Eu0 Ge0 3.152336 1_444
Eu0 Ge0 3.152336 1_556
Eu0 Ge1 3.152336 1_444
Eu0 Ge0 3.152336 1_545
Eu0 Ge1 3.152336 1_455
Co0 Ge0 2.318640 1_656
Co0 Ge1 2.318640 1_545
Co0 Ge0 2.318640 1_555
Co0 Ge1 2.318640 1_556
Co0 Eu0 3.293192 1_656
Co0 Eu0 3.293192 1_655
Co0 Eu0 3.293192 1_666
Co0 Eu0 3.293192 1_555
Co1 Ge0 2.318640 1_566
Co1 Ge0 2.318640 1_555
Co1 Ge1 2.318640 1_455
Co1 Ge1 2.318640 1_556
Co1 Eu0 3.293192 1_565
Co1 Eu0 3.293192 1_555
Co1 Eu0 3.293192 1_566
Co1 Eu0 3.293192 1_666
Ge0 Ge1 2.861190 1_555
