# generated using pymatgen
data_Tb5Ni2Bi
_symmetry_space_group_name_H-M   'P 1'
_cell_length_a   8.72545240
_cell_length_b   8.72545240
_cell_length_c   8.72545240
_cell_angle_alpha   127.54203534
_cell_angle_beta   127.54203534
_cell_angle_gamma   77.36809609
_symmetry_Int_Tables_number   1
_chemical_formula_structural   Tb5Ni2Bi
_chemical_formula_sum   'Tb10 Ni4 Bi2'
_cell_volume   405.15401200
_cell_formula_units_Z   2
loop_
 _symmetry_equiv_pos_site_id
 _symmetry_equiv_pos_as_xyz
  1  'x, y, z'
loop_
 _atom_site_type_symbol
 _atom_site_label
 _atom_site_symmetry_multiplicity
 _atom_site_fract_x
 _atom_site_fract_y
 _atom_site_fract_z
 _atom_site_occupancy
  Tb  Tb0  1  0.00000000  0.00000000  0.00000000  1
  Tb  Tb1  1  0.50000000  0.50000000  0.00000000  1
  Tb  Tb2  1  0.78983700  0.28983700  0.81255600  1
  Tb  Tb3  1  0.21016300  0.71016300  0.18744400  1
  Tb  Tb4  1  0.47728100  0.97728100  0.18744400  1
  Tb  Tb5  1  0.28983700  0.47728100  0.50000000  1
  Tb  Tb6  1  0.02271900  0.21016300  0.50000000  1
  Tb  Tb7  1  0.52271900  0.02271900  0.81255600  1
  Tb  Tb8  1  0.71016300  0.52271900  0.50000000  1
  Tb  Tb9  1  0.97728100  0.78983700  0.50000000  1
  Ni  Ni0  1  0.13307200  0.63307200  0.76614400  1
  Ni  Ni1  1  0.86692800  0.36692800  0.23385600  1
  Ni  Ni2  1  0.63307200  0.86692800  0.50000000  1
  Ni  Ni3  1  0.36692800  0.13307200  0.50000000  1
  Bi  Bi0  1  0.25000000  0.25000000  0.00000000  1
  Bi  Bi1  1  0.75000000  0.75000000  0.00000000  1
loop_
_geom_bond_atom_site_label_1
_geom_bond_atom_site_label_2
_geom_bond_distance
_geom_bond_site_symmetry_2
Ni0 Tb8 2.884852 1_455
Ni0 Tb6 2.884852 1_555
Ni0 Tb5 2.884852 1_555
Ni0 Tb9 2.884852 1_455
Ni0 Tb3 2.930726 1_556
Ni0 Tb4 2.930726 1_556
Ni0 Tb1 3.010327 1_556
Ni0 Tb0 3.010327 1_566
Ni1 Tb5 2.884852 1_655
Ni1 Tb6 2.884852 1_655
Ni1 Tb8 2.884852 1_555
Ni1 Tb9 2.884852 1_555
Ni1 Tb7 2.930726 1_554
Ni1 Tb2 2.930726 1_554
Ni1 Tb0 3.010327 1_655
Ni1 Tb1 3.010327 1_555
Ni2 Tb2 2.884852 1_565
Ni2 Tb7 2.884852 1_565
Ni2 Tb4 2.884852 1_555
Ni2 Tb3 2.884852 1_555
Ni2 Tb9 2.930726 1_555
Ni2 Tb8 2.930726 1_555
Ni2 Tb1 3.010327 1_555
Ni2 Tb0 3.010327 1_666
Ni3 Tb3 2.884852 1_545
Ni3 Tb7 2.884852 1_555
Ni3 Tb4 2.884852 1_545
Ni3 Tb2 2.884852 1_555
Ni3 Tb5 2.930726 1_555
Ni3 Tb6 2.930726 1_555
Ni3 Tb1 3.010327 1_556
Ni3 Tb0 3.010327 1_555
Bi0 Tb5 3.316098 1_555
Bi0 Tb9 3.316098 1_444
Bi0 Tb2 3.316098 1_454
Bi0 Tb6 3.316098 1_554
Bi0 Tb3 3.316098 1_555
Bi0 Tb4 3.316098 1_545
Bi0 Tb7 3.316098 1_554
Bi0 Tb8 3.316098 1_555
Bi0 Tb1 3.405563 1_555
Bi0 Tb0 3.405563 1_555
Bi1 Tb4 3.316098 1_555
Bi1 Tb7 3.316098 1_564
Bi1 Tb8 3.316098 1_554
Bi1 Tb2 3.316098 1_554
Bi1 Tb9 3.316098 1_555
Bi1 Tb5 3.316098 1_554
Bi1 Tb3 3.316098 1_655
Bi1 Tb6 3.316098 1_665
Bi1 Tb0 3.405563 1_665
Bi1 Tb1 3.405563 1_555
