# generated using pymatgen
data_Al2O3
_symmetry_space_group_name_H-M   'P 1'
_cell_length_a   10.30426368
_cell_length_b   10.47790620
_cell_length_c   9.93290477
_cell_angle_alpha   91.04740677
_cell_angle_beta   89.18299529
_cell_angle_gamma   88.44020913
_symmetry_Int_Tables_number   1
_chemical_formula_structural   Al2O3
_chemical_formula_sum   'Al40 O60'
_cell_volume   1071.73367661
_cell_formula_units_Z   20
loop_
 _symmetry_equiv_pos_site_id
 _symmetry_equiv_pos_as_xyz
  1  'x, y, z'
loop_
 _atom_site_type_symbol
 _atom_site_label
 _atom_site_symmetry_multiplicity
 _atom_site_fract_x
 _atom_site_fract_y
 _atom_site_fract_z
 _atom_site_occupancy
  Al  Al0  1  0.00146100  0.14671800  0.57672300  1
  Al  Al1  1  0.83242800  0.66088100  0.43900000  1
  Al  Al2  1  0.24873900  0.38373000  0.12968600  1
  Al  Al3  1  0.19858800  0.47164300  0.89291800  1
  Al  Al4  1  0.55766200  0.69378600  0.52259500  1
  Al  Al5  1  0.86257600  0.28721300  0.10806900  1
  Al  Al6  1  0.35662600  0.97809000  0.82474100  1
  Al  Al7  1  0.24510600  0.66940800  0.16527900  1
  Al  Al8  1  0.05046800  0.88616700  0.79942100  1
  Al  Al9  1  0.06514900  0.86808200  0.24087400  1
  Al  Al10  1  0.93418500  0.39202400  0.75830700  1
  Al  Al11  1  0.38562000  0.83224800  0.36924000  1
  Al  Al12  1  0.95241000  0.59114500  0.15411900  1
  Al  Al13  1  0.30264800  0.51440900  0.48484700  1
  Al  Al14  1  0.79310900  0.15291900  0.34566700  1
  Al  Al15  1  0.52667300  0.30100400  0.55800400  1
  Al  Al16  1  0.29862400  0.75205500  0.67912100  1
  Al  Al17  1  0.57823100  0.01311500  0.05364400  1
  Al  Al18  1  0.49139400  0.44784700  0.82190400  1
  Al  Al19  1  0.54481600  0.29860400  0.06196000  1
  Al  Al20  1  0.47737400  0.57296500  0.20652000  1
  Al  Al21  1  0.15185800  0.92925900  0.54312200  1
  Al  Al22  1  0.15155700  0.19261500  0.32886800  1
  Al  Al23  1  0.62940300  0.88698400  0.32394500  1
  Al  Al24  1  0.74204100  0.50690800  0.01063600  1
  Al  Al25  1  0.03357400  0.60567600  0.64783900  1
  Al  Al26  1  0.73531600  0.82224900  0.76361900  1
  Al  Al27  1  0.29670400  0.18908900  0.59848600  1
  Al  Al28  1  0.98605100  0.05666400  0.07333900  1
  Al  Al29  1  0.58913000  0.02417200  0.57758800  1
  Al  Al30  1  0.88030200  0.90816800  0.52007900  1
  Al  Al31  1  0.48741400  0.14723500  0.32667000  1
  Al  Al32  1  0.11730800  0.18482200  0.87531200  1
  Al  Al33  1  0.30712600  0.01037100  0.17165200  1
  Al  Al34  1  0.59881300  0.15361800  0.80770400  1
  Al  Al35  1  0.72494400  0.52172800  0.66642400  1
  Al  Al36  1  0.02228600  0.42886700  0.40584600  1
  Al  Al37  1  0.50282400  0.71286400  0.93509300  1
  Al  Al38  1  0.79922200  0.82733100  0.03173300  1
  Al  Al39  1  0.68423800  0.43161700  0.33713800  1
  O  O0  1  0.97707600  0.20854600  0.99143300  1
  O  O1  1  0.68104000  0.07596100  0.93237400  1
  O  O2  1  0.44878000  0.96754900  0.28188700  1
  O  O3  1  0.91464800  0.72094700  0.58141700  1
  O  O4  1  0.64453600  0.81176900  0.92021600  1
  O  O5  1  0.12708900  0.72627100  0.73060700  1
  O  O6  1  0.70810100  0.33629300  0.04415100  1
  O  O7  1  0.13486300  0.35786900  0.26308700  1
  O  O8  1  0.25284200  0.84553400  0.22664900  1
  O  O9  1  0.73808900  0.93666500  0.63592300  1
  O  O10  1  0.34292100  0.35258000  0.55071400  1
  O  O11  1  0.26320700  0.15541000  0.76754400  1
  O  O12  1  0.66248200  0.68676600  0.67610700  1
  O  O13  1  0.00470500  0.23657000  0.73200500  1
  O  O14  1  0.87908300  0.08266600  0.47562100  1
  O  O15  1  0.09478300  0.00903200  0.92280700  1
  O  O16  1  0.42238100  0.40574300  0.13114600  1
  O  O17  1  0.33726300  0.51223100  0.80957100  1
  O  O18  1  0.03389600  0.88664500  0.41397200  1
  O  O19  1  0.50842200  0.28755100  0.88392000  1
  O  O20  1  0.17981600  0.09707800  0.50073900  1
  O  O21  1  0.06152200  0.49521300  0.79185900  1
  O  O22  1  0.40121500  0.62856700  0.57514400  1
  O  O23  1  0.81467300  0.32266600  0.32069400  1
  O  O24  1  0.13056100  0.52843200  0.51077100  1
  O  O25  1  0.67156200  0.90155700  0.14978900  1
  O  O26  1  0.19586100  0.53721500  0.05977200  1
  O  O27  1  0.00507000  0.97335200  0.64814100  1
  O  O28  1  0.07397600  0.70160000  0.19158300  1
  O  O29  1  0.12108400  0.05357100  0.20306600  1
  O  O30  1  0.89462500  0.47188200  0.59924900  1
  O  O31  1  0.94056200  0.89827600  0.11602800  1
  O  O32  1  0.44440300  0.13609200  0.51211600  1
  O  O33  1  0.32016000  0.56770000  0.30717800  1
  O  O34  1  0.57685600  0.43353500  0.66309100  1
  O  O35  1  0.03750500  0.26941200  0.45742100  1
  O  O36  1  0.81920800  0.66227100  0.06602900  1
  O  O37  1  0.91337200  0.44611000  0.07940100  1
  O  O38  1  0.57952400  0.55516400  0.92763900  1
  O  O39  1  0.23433100  0.92299400  0.71181300  1
  O  O40  1  0.77805200  0.81463600  0.38977200  1
  O  O41  1  0.64238100  0.52281400  0.19800100  1
  O  O42  1  0.88588800  0.83683300  0.85722300  1
  O  O43  1  0.56097300  0.32154600  0.38443300  1
  O  O44  1  0.20324600  0.31333300  0.96786600  1
  O  O45  1  0.49993300  0.02668200  0.74316400  1
  O  O46  1  0.31686500  0.17132400  0.26332800  1
  O  O47  1  0.64840100  0.06199300  0.38519300  1
  O  O48  1  0.86058400  0.12980700  0.18432400  1
  O  O49  1  0.68897100  0.56157500  0.46733900  1
  O  O50  1  0.51724300  0.71482400  0.33136000  1
  O  O51  1  0.92384800  0.55539600  0.33168700  1
  O  O52  1  0.40976400  0.68433100  0.08720200  1
  O  O53  1  0.64320000  0.19216600  0.64000600  1
  O  O54  1  0.39501700  0.99837600  0.00872300  1
  O  O55  1  0.53106100  0.87038300  0.50105900  1
  O  O56  1  0.27164300  0.81358300  0.49773200  1
  O  O57  1  0.79250200  0.46735400  0.82774400  1
  O  O58  1  0.54872700  0.15760400  0.15513100  1
  O  O59  1  0.39893900  0.79114200  0.82024300  1
loop_
_geom_bond_atom_site_label_1
_geom_bond_atom_site_label_2
_geom_bond_distance
_geom_bond_site_symmetry_2
Al0 O14 1.762559 1_455
Al0 O13 1.793478 1_555
Al0 O35 1.806668 1_555
Al0 O27 1.961764 1_545
Al0 O20 2.027754 1_555
Al1 O51 1.765450 1_555
Al1 O40 1.770856 1_555
Al1 O3 1.773603 1_555
Al1 O49 1.851924 1_555
Al2 O7 1.786670 1_555
Al2 O16 1.810503 1_555
Al2 O44 1.828753 1_554
Al2 O26 1.835584 1_555
Al3 O17 1.708901 1_555
Al3 O21 1.758949 1_555
Al3 O26 1.782027 1_556
Al3 O44 1.830251 1_555
Al4 O22 1.840439 1_555
Al4 O55 1.879702 1_555
Al4 O12 1.882506 1_555
Al4 O50 1.965476 1_555
Al4 O49 1.974839 1_555
Al5 O37 1.785355 1_555
Al5 O6 1.788131 1_555
Al5 O0 1.812953 1_554
Al5 O48 1.827933 1_555
Al5 O23 2.184884 1_555
Al6 O45 1.765860 1_565
Al6 O39 1.798812 1_555
Al6 O54 1.884763 1_556
Al6 O59 1.994702 1_555
Al6 O11 2.158280 1_565
Al7 O28 1.800768 1_555
Al7 O26 1.809600 1_555
Al7 O52 1.867075 1_555
Al7 O8 1.936964 1_555
Al7 O33 1.939468 1_555
Al8 O15 1.832528 1_565
Al8 O27 1.832557 1_555
Al8 O42 1.871802 1_455
Al8 O5 1.941176 1_555
Al8 O39 2.121465 1_555
Al9 O18 1.751095 1_555
Al9 O28 1.802699 1_555
Al9 O31 1.823078 1_455
Al9 O8 1.944838 1_555
Al9 O29 2.081361 1_565
Al10 O21 1.754493 1_655
Al10 O57 1.766003 1_555
Al10 O13 1.778756 1_655
Al10 O30 1.846767 1_555
Al11 O56 1.739368 1_555
Al11 O2 1.807014 1_555
Al11 O50 1.836442 1_555
Al11 O8 1.987316 1_555
Al11 O55 2.046819 1_555
Al12 O37 1.738551 1_555
Al12 O28 1.767345 1_655
Al12 O36 1.790893 1_555
Al12 O51 1.831160 1_555
Al13 O24 1.789875 1_555
Al13 O22 1.821992 1_555
Al13 O10 1.866924 1_555
Al13 O33 1.868472 1_555
Al14 O14 1.739176 1_555
Al14 O48 1.747933 1_555
Al14 O23 1.819442 1_555
Al14 O47 1.832902 1_555
Al15 O43 1.773125 1_555
Al15 O34 1.812949 1_555
Al15 O53 1.842005 1_555
Al15 O10 1.957548 1_555
Al15 O32 1.993521 1_555
Al16 O59 1.801248 1_555
Al16 O5 1.861182 1_555
Al16 O39 1.913197 1_555
Al16 O22 1.924548 1_555
Al16 O56 1.945790 1_555
Al17 O1 1.742825 1_554
Al17 O25 1.791374 1_545
Al17 O58 1.819627 1_555
Al17 O54 1.955614 1_545
Al18 O17 1.715443 1_555
Al18 O34 1.797486 1_555
Al18 O38 1.797701 1_555
Al18 O19 1.804452 1_555
Al19 O6 1.745964 1_555
Al19 O58 1.757433 1_555
Al19 O16 1.787202 1_555
Al19 O19 1.815287 1_554
Al20 O41 1.766311 1_555
Al20 O52 1.811478 1_555
Al20 O33 1.894124 1_555
Al20 O50 1.973869 1_555
Al20 O16 1.992437 1_555
Al21 O56 1.754569 1_555
Al21 O18 1.837273 1_555
Al21 O20 1.844816 1_565
Al21 O27 1.867812 1_555
Al21 O39 1.890955 1_555
Al22 O46 1.821385 1_555
Al22 O7 1.866284 1_555
Al22 O35 1.878107 1_555
Al22 O29 1.937037 1_555
Al22 O20 2.015463 1_555
Al23 O25 1.787831 1_555
Al23 O40 1.825323 1_555
Al23 O47 1.937304 1_565
Al23 O55 2.030282 1_555
Al23 O2 2.073805 1_555
Al23 O50 2.170489 1_555
Al24 O6 1.865860 1_555
Al24 O36 1.906616 1_555
Al24 O57 1.917327 1_554
Al24 O38 1.936014 1_554
Al24 O37 1.994543 1_555
Al24 O41 2.114427 1_555
Al25 O5 1.803321 1_555
Al25 O3 1.835046 1_455
Al25 O24 1.839655 1_555
Al25 O21 1.877000 1_555
Al25 O30 2.086243 1_455
Al26 O9 1.761612 1_555
Al26 O4 1.810215 1_555
Al26 O42 1.828637 1_555
Al26 O12 1.834540 1_555
Al27 O11 1.753644 1_555
Al27 O32 1.805537 1_555
Al27 O20 1.839879 1_555
Al27 O10 1.858538 1_555
Al28 O31 1.793349 1_545
Al28 O0 1.801243 1_554
Al28 O48 1.829922 1_555
Al28 O15 1.906455 1_654
Al28 O29 1.909893 1_655
Al29 O9 1.870979 1_545
Al29 O45 1.871984 1_555
Al29 O55 1.884971 1_545
Al29 O53 1.953598 1_555
Al29 O32 1.995606 1_555
Al29 O47 2.046877 1_555
Al30 O9 1.864436 1_555
Al30 O14 1.888529 1_565
Al30 O18 1.894950 1_655
Al30 O40 1.947959 1_555
Al30 O27 1.949381 1_655
Al30 O3 2.087273 1_555
Al31 O58 1.814930 1_555
Al31 O46 1.887099 1_555
Al31 O32 1.894857 1_555
Al31 O47 1.962972 1_555
Al31 O2 1.978956 1_545
Al31 O43 2.070981 1_555
Al32 O0 1.844611 1_455
Al32 O11 1.848733 1_555
Al32 O44 1.866905 1_555
Al32 O13 1.925502 1_555
Al32 O15 1.928986 1_555
Al33 O54 1.843815 1_545
Al33 O2 1.886446 1_545
Al33 O46 1.907635 1_555
Al33 O8 1.916432 1_545
Al33 O29 1.976810 1_555
Al34 O1 1.715424 1_555
Al34 O53 1.777613 1_555
Al34 O45 1.810881 1_555
Al34 O19 1.811049 1_555
Al35 O34 1.805710 1_555
Al35 O12 1.829038 1_555
Al35 O57 1.849431 1_555
Al35 O30 1.918151 1_555
Al35 O49 2.065153 1_555
Al36 O35 1.760049 1_555
Al36 O51 1.820139 1_455
Al36 O24 1.864426 1_555
Al36 O7 1.943543 1_555
Al36 O30 2.342649 1_455
Al37 O59 1.772354 1_555
Al37 O52 1.811760 1_556
Al37 O38 1.811958 1_555
Al37 O4 1.819316 1_555
Al38 O36 1.775872 1_555
Al38 O31 1.856263 1_555
Al38 O25 1.891378 1_555
Al38 O42 1.943981 1_554
Al38 O4 1.962665 1_554
Al39 O23 1.743476 1_555
Al39 O41 1.746989 1_555
Al39 O43 1.801848 1_555
Al39 O49 1.862837 1_555
