# generated using pymatgen
data_As3Pb5BrO12
_symmetry_space_group_name_H-M   'P 1'
_cell_length_a   10.57674984
_cell_length_b   10.57674984
_cell_length_c   7.48516800
_cell_angle_alpha   90.00000000
_cell_angle_beta   90.00000000
_cell_angle_gamma   119.99999897
_symmetry_Int_Tables_number   1
_chemical_formula_structural   As3Pb5BrO12
_chemical_formula_sum   'As6 Pb10 Br2 O24'
_cell_volume   725.16469701
_cell_formula_units_Z   2
loop_
 _symmetry_equiv_pos_site_id
 _symmetry_equiv_pos_as_xyz
  1  'x, y, z'
loop_
 _atom_site_type_symbol
 _atom_site_label
 _atom_site_symmetry_multiplicity
 _atom_site_fract_x
 _atom_site_fract_y
 _atom_site_fract_z
 _atom_site_occupancy
  As  As0  1  0.03012300  0.40889400  0.25000000  1
  As  As1  1  0.96987700  0.59110600  0.75000000  1
  As  As2  1  0.59110600  0.62122900  0.25000000  1
  As  As3  1  0.40889400  0.37877100  0.75000000  1
  As  As4  1  0.37877100  0.96987700  0.25000000  1
  As  As5  1  0.62122900  0.03012300  0.75000000  1
  Pb  Pb0  1  0.24479100  0.26315100  0.25000000  1
  Pb  Pb1  1  0.75520900  0.73684900  0.75000000  1
  Pb  Pb2  1  0.73684900  0.98164000  0.25000000  1
  Pb  Pb3  1  0.26315100  0.01836000  0.75000000  1
  Pb  Pb4  1  0.01836000  0.75520900  0.25000000  1
  Pb  Pb5  1  0.98164000  0.24479100  0.75000000  1
  Pb  Pb6  1  0.33333300  0.66666700  0.99485600  1
  Pb  Pb7  1  0.66666700  0.33333300  0.00514400  1
  Pb  Pb8  1  0.66666700  0.33333300  0.49485600  1
  Pb  Pb9  1  0.33333300  0.66666700  0.50514400  1
  Br  Br0  1  0.00000000  0.00000000  0.00000000  1
  Br  Br1  1  0.00000000  0.00000000  0.50000000  1
  O  O0  1  0.49529600  0.15568500  0.25000000  1
  O  O1  1  0.50470400  0.84431500  0.75000000  1
  O  O2  1  0.84431500  0.33961100  0.25000000  1
  O  O3  1  0.15568500  0.66038900  0.75000000  1
  O  O4  1  0.66038900  0.50470400  0.25000000  1
  O  O5  1  0.33961100  0.49529600  0.75000000  1
  O  O6  1  0.12546800  0.59974400  0.25000000  1
  O  O7  1  0.87453200  0.40025600  0.75000000  1
  O  O8  1  0.40025600  0.52572400  0.25000000  1
  O  O9  1  0.59974400  0.47427600  0.75000000  1
  O  O10  1  0.47427600  0.87453200  0.25000000  1
  O  O11  1  0.52572400  0.12546800  0.75000000  1
  O  O12  1  0.09441500  0.35821600  0.06718800  1
  O  O13  1  0.90558500  0.64178400  0.93281200  1
  O  O14  1  0.64178400  0.73619900  0.06718800  1
  O  O15  1  0.90558500  0.64178400  0.56718800  1
  O  O16  1  0.35821600  0.26380100  0.93281200  1
  O  O17  1  0.09441500  0.35821600  0.43281200  1
  O  O18  1  0.26380100  0.90558500  0.06718800  1
  O  O19  1  0.35821600  0.26380100  0.56718800  1
  O  O20  1  0.73619900  0.09441500  0.93281200  1
  O  O21  1  0.64178400  0.73619900  0.43281200  1
  O  O22  1  0.73619900  0.09441500  0.56718800  1
  O  O23  1  0.26380100  0.90558500  0.43281200  1
loop_
_geom_bond_atom_site_label_1
_geom_bond_atom_site_label_2
_geom_bond_distance
_geom_bond_site_symmetry_2
As0 O2 1.720191 1_455
As0 O17 1.728193 1_555
As0 O12 1.728193 1_555
As0 O6 1.748135 1_555
As1 O3 1.720191 1_655
As1 O13 1.728193 1_555
As1 O15 1.728193 1_555
As1 O7 1.748135 1_555
As2 O4 1.720191 1_555
As2 O21 1.728193 1_555
As2 O14 1.728193 1_555
As2 O8 1.748135 1_555
As3 O5 1.720191 1_555
As3 O16 1.728193 1_555
As3 O19 1.728193 1_555
As3 O9 1.748135 1_555
As4 O0 1.720191 1_565
As4 O23 1.728193 1_555
As4 O18 1.728193 1_555
As4 O10 1.748135 1_555
As5 O1 1.720191 1_545
As5 O22 1.728193 1_555
As5 O20 1.728193 1_555
As5 O11 1.748135 1_555
Br0 Pb4 3.278051 1_545
Br0 Pb5 3.278051 1_454
Br0 Pb3 3.278051 1_554
Br0 Pb2 3.278051 1_445
Br0 Pb0 3.278051 1_555
Br0 Pb1 3.278051 1_444
Br1 Pb4 3.278051 1_545
Br1 Pb5 3.278051 1_455
Br1 Pb2 3.278051 1_445
Br1 Pb3 3.278051 1_555
Br1 Pb0 3.278051 1_555
Br1 Pb1 3.278051 1_445
O0 Pb7 2.601766 1_555
O0 Pb8 2.601766 1_555
O1 Pb6 2.601766 1_555
O1 Pb9 2.601766 1_555
O2 Pb8 2.601763 1_555
O2 Pb7 2.601763 1_555
O3 Pb6 2.601763 1_555
O3 Pb9 2.601763 1_555
O4 Pb7 2.601770 1_555
O4 Pb8 2.601770 1_555
O5 Pb6 2.601770 1_555
O5 Pb9 2.601770 1_555
O6 Pb4 2.418656 1_555
O6 Pb9 2.725017 1_555
O6 Pb6 2.725017 1_554
O7 Pb5 2.418656 1_555
O7 Pb8 2.725017 1_555
O7 Pb7 2.725017 1_556
O8 Pb0 2.418656 1_555
O8 Pb6 2.725024 1_554
O8 Pb9 2.725024 1_555
O9 Pb1 2.418656 1_555
O9 Pb8 2.725024 1_555
O9 Pb7 2.725024 1_556
O10 Pb2 2.418656 1_555
O10 Pb6 2.725018 1_554
O10 Pb9 2.725018 1_555
O11 Pb3 2.418656 1_555
O11 Pb8 2.725018 1_555
O11 Pb7 2.725018 1_556
O12 Pb0 2.648076 1_555
O12 Pb5 2.658544 1_454
O13 Pb1 2.648076 1_555
O13 Pb4 2.658544 1_656
O14 Pb2 2.648076 1_555
O14 Pb1 2.658544 1_554
O15 Pb1 2.648076 1_555
O15 Pb4 2.658544 1_655
O16 Pb3 2.648076 1_555
O16 Pb0 2.658544 1_556
O17 Pb0 2.648076 1_555
O17 Pb5 2.658544 1_455
O18 Pb4 2.648076 1_555
O18 Pb3 2.658544 1_564
O19 Pb3 2.648076 1_555
O19 Pb0 2.658544 1_555
O20 Pb5 2.648076 1_555
O20 Pb2 2.658544 1_546
O21 Pb2 2.648076 1_555
O21 Pb1 2.658544 1_555
O22 Pb5 2.648076 1_555
O22 Pb2 2.658544 1_545
O23 Pb4 2.648076 1_555
O23 Pb3 2.658544 1_565
