# generated using pymatgen
data_CaSi2
_symmetry_space_group_name_H-M   'P 1'
_cell_length_a   4.10270856
_cell_length_b   4.10270856
_cell_length_c   4.21125000
_cell_angle_alpha   90.00000000
_cell_angle_beta   90.00000000
_cell_angle_gamma   120.00000905
_symmetry_Int_Tables_number   1
_chemical_formula_structural   CaSi2
_chemical_formula_sum   'Ca1 Si2'
_cell_volume   61.38792464
_cell_formula_units_Z   1
loop_
 _symmetry_equiv_pos_site_id
 _symmetry_equiv_pos_as_xyz
  1  'x, y, z'
loop_
 _atom_site_type_symbol
 _atom_site_label
 _atom_site_symmetry_multiplicity
 _atom_site_fract_x
 _atom_site_fract_y
 _atom_site_fract_z
 _atom_site_occupancy
  Ca  Ca0  1  0.00000000  0.00000000  0.00000000  1
  Si  Si0  1  0.66666700  0.33333300  0.50000000  1
  Si  Si1  1  0.33333300  0.66666700  0.50000000  1
loop_
_geom_bond_atom_site_label_1
_geom_bond_atom_site_label_2
_geom_bond_distance
_geom_bond_site_symmetry_2
Ca0 Si0 3.169288 1_455
Ca0 Si0 3.169288 1_454
Ca0 Si1 3.169288 1_544
Ca0 Si1 3.169288 1_545
Ca0 Si0 3.169290 1_445
Ca0 Si1 3.169290 1_554
Ca0 Si0 3.169290 1_554
Ca0 Si1 3.169290 1_445
Ca0 Si1 3.169290 1_444
Ca0 Si0 3.169290 1_444
Ca0 Si0 3.169290 1_555
Ca0 Si1 3.169290 1_555
Si0 Si1 2.368697 1_545
Si0 Si1 2.368697 1_655
Si0 Si1 2.368705 1_555
