# generated using pymatgen
data_B3Mo
_symmetry_space_group_name_H-M   'P 1'
_cell_length_a   4.33205216
_cell_length_b   4.33205216
_cell_length_c   4.33205213
_cell_angle_alpha   73.86401156
_cell_angle_beta   73.86401156
_cell_angle_gamma   73.86402524
_symmetry_Int_Tables_number   1
_chemical_formula_structural   B3Mo
_chemical_formula_sum   'B6 Mo2'
_cell_volume   73.22332663
_cell_formula_units_Z   2
loop_
 _symmetry_equiv_pos_site_id
 _symmetry_equiv_pos_as_xyz
  1  'x, y, z'
loop_
 _atom_site_type_symbol
 _atom_site_label
 _atom_site_symmetry_multiplicity
 _atom_site_fract_x
 _atom_site_fract_y
 _atom_site_fract_z
 _atom_site_occupancy
  B  B0  1  0.33493187  0.66506813  0.00000000  1
  B  B1  1  0.00000000  0.33493187  0.66506813  1
  B  B2  1  0.66506813  -0.00000000  0.33493187  1
  B  B3  1  -0.00000000  0.66506813  0.33493187  1
  B  B4  1  0.33493187  0.00000000  0.66506813  1
  B  B5  1  0.66506813  0.33493187  -0.00000000  1
  Mo  Mo0  1  0.83523164  0.83523164  0.83523164  1
  Mo  Mo1  1  0.16476836  0.16476836  0.16476836  1
loop_
_geom_bond_atom_site_label_1
_geom_bond_atom_site_label_2
_geom_bond_distance
_geom_bond_site_symmetry_2
B0 B5 1.718681 1_555
B0 B4 1.743646 1_564
B0 B3 1.743646 1_555
B0 Mo0 2.327735 1_454
B0 Mo1 2.327735 1_565
B0 Mo1 2.342195 1_555
B0 Mo0 2.342195 1_554
B1 B3 1.718680 1_555
B1 B5 1.743646 1_456
B1 B4 1.743647 1_555
B1 Mo0 2.327734 1_445
B1 Mo1 2.327734 1_556
B1 Mo1 2.342195 1_555
B1 Mo0 2.342195 1_455
B2 B4 1.718680 1_555
B2 B5 1.743646 1_555
B2 B3 1.743647 1_645
B2 Mo1 2.327734 1_655
B2 Mo0 2.327734 1_544
B2 Mo0 2.342195 1_545
B2 Mo1 2.342195 1_555
B3 Mo1 2.327734 1_565
B3 Mo0 2.327734 1_454
B3 Mo0 2.342195 1_455
B3 Mo1 2.342195 1_555
B4 Mo0 2.327734 1_445
B4 Mo1 2.327734 1_556
B4 Mo1 2.342195 1_555
B4 Mo0 2.342195 1_545
B5 Mo0 2.327735 1_544
B5 Mo1 2.327735 1_655
B5 Mo1 2.342195 1_555
B5 Mo0 2.342195 1_554
