# generated using pymatgen
data_DyMn4(CrGe3)2
_symmetry_space_group_name_H-M   'P 1'
_cell_length_a   5.15909103
_cell_length_b   5.15275694
_cell_length_c   8.21046500
_cell_angle_alpha   89.99892581
_cell_angle_beta   89.99997588
_cell_angle_gamma   59.64411375
_symmetry_Int_Tables_number   1
_chemical_formula_structural   DyMn4(CrGe3)2
_chemical_formula_sum   'Dy1 Mn4 Cr2 Ge6'
_cell_volume   188.34001185
_cell_formula_units_Z   1
loop_
 _symmetry_equiv_pos_site_id
 _symmetry_equiv_pos_as_xyz
  1  'x, y, z'
loop_
 _atom_site_type_symbol
 _atom_site_label
 _atom_site_symmetry_multiplicity
 _atom_site_fract_x
 _atom_site_fract_y
 _atom_site_fract_z
 _atom_site_occupancy
  Dy  Dy0  1  0.99998500  0.00000500  0.99986300  1
  Mn  Mn0  1  0.49998700  0.49999400  0.25090600  1
  Mn  Mn1  1  0.49998800  0.00001400  0.74914400  1
  Mn  Mn2  1  0.99997800  0.50002100  0.74910400  1
  Mn  Mn3  1  0.50001400  0.49996300  0.74984600  1
  Cr  Cr0  1  0.49999000  0.00000300  0.25007800  1
  Cr  Cr1  1  0.99996800  0.50000900  0.25012900  1
  Ge  Ge0  1  0.66561100  0.66631300  0.50162000  1
  Ge  Ge1  1  0.33432700  0.33369800  0.50163300  1
  Ge  Ge2  1  0.66598200  0.66667000  0.99880700  1
  Ge  Ge3  1  0.33397000  0.33332900  0.99882500  1
  Ge  Ge4  1  0.99999800  0.99999600  0.34577500  1
  Ge  Ge5  1  0.00000200  0.99998500  0.65427000  1
loop_
_geom_bond_atom_site_label_1
_geom_bond_atom_site_label_2
_geom_bond_distance
_geom_bond_site_symmetry_2
Dy0 Ge5 2.837479 1_645
Dy0 Ge4 2.840098 1_546
Dy0 Ge2 2.964253 1_555
Dy0 Ge3 2.964302 1_645
Dy0 Ge2 2.964955 1_645
Dy0 Ge3 2.965035 1_555
Dy0 Ge3 2.984986 1_655
Dy0 Ge2 2.985116 1_545
Cr0 Ge3 2.540104 1_554
Cr0 Ge2 2.540294 1_544
Cr0 Ge0 2.542990 1_545
Cr0 Ge1 2.543141 1_555
Cr0 Cr1 2.564012 1_545
Cr0 Cr1 2.564156 1_455
Cr0 Mn0 2.576333 1_555
Cr0 Mn0 2.576442 1_545
Cr0 Ge4 2.696532 1_445
Cr0 Ge4 2.696577 1_545
Cr0 Dy0 3.297640 1_554
Cr0 Dy0 3.297673 1_454
Cr1 Ge3 2.543306 1_654
Cr1 Ge2 2.543359 1_554
Cr1 Ge0 2.545490 1_555
Cr1 Ge1 2.545557 1_655
Cr1 Mn0 2.579494 1_555
Cr1 Mn0 2.579612 1_655
Cr1 Ge4 2.693378 1_545
Cr1 Ge4 2.693428 1_555
Cr1 Dy0 3.295429 1_564
Cr1 Dy0 3.295452 1_554
Ge0 Mn1 2.516352 1_565
Ge0 Mn2 2.518878 1_555
Ge0 Mn3 2.521577 1_555
Ge0 Mn0 2.538132 1_555
Ge1 Mn1 2.516169 1_555
Ge1 Mn2 2.518768 1_455
Ge1 Mn3 2.521531 1_555
Ge1 Mn0 2.538226 1_555
Ge2 Mn3 2.528399 1_555
Ge2 Mn1 2.529561 1_565
Ge2 Mn2 2.532638 1_555
Ge2 Mn0 2.549236 1_556
Ge3 Mn3 2.528500 1_555
Ge3 Mn1 2.529656 1_555
Ge3 Mn2 2.532721 1_455
Ge3 Mn0 2.549172 1_556
Ge4 Ge5 2.532887 1_655
Ge4 Mn0 2.679775 1_655
Ge4 Mn0 2.679792 1_565
Ge5 Mn3 2.681407 1_465
Ge5 Mn3 2.681546 1_555
Ge5 Mn2 2.691335 1_455
Ge5 Mn2 2.691598 1_465
Ge5 Mn1 2.694590 1_465
Ge5 Mn1 2.694597 1_565
