# generated using pymatgen
data_Nb2SiAs2
_symmetry_space_group_name_H-M   'P 1'
_cell_length_a   5.40422200
_cell_length_b   5.40422200
_cell_length_c   27.01009000
_cell_angle_alpha   90.00000000
_cell_angle_beta   90.00000000
_cell_angle_gamma   90.00000000
_symmetry_Int_Tables_number   1
_chemical_formula_structural   Nb2SiAs2
_chemical_formula_sum   'Nb16 Si8 As16'
_cell_volume   788.84630114
_cell_formula_units_Z   8
loop_
 _symmetry_equiv_pos_site_id
 _symmetry_equiv_pos_as_xyz
  1  'x, y, z'
loop_
 _atom_site_type_symbol
 _atom_site_label
 _atom_site_symmetry_multiplicity
 _atom_site_fract_x
 _atom_site_fract_y
 _atom_site_fract_z
 _atom_site_occupancy
  Nb  Nb0_0  1  0.25000000  0.25000000  0.09525200  1
  Nb  Nb0_1  1  0.25000000  0.25000000  0.59525200  1
  Nb  Nb0_2  1  0.25000000  0.75000000  0.09525200  1
  Nb  Nb0_3  1  0.25000000  0.75000000  0.59525200  1
  Nb  Nb0_4  1  0.75000000  0.25000000  0.09525200  1
  Nb  Nb0_5  1  0.75000000  0.25000000  0.59525200  1
  Nb  Nb0_6  1  0.75000000  0.75000000  0.09525200  1
  Nb  Nb0_7  1  0.75000000  0.75000000  0.59525200  1
  Nb  Nb1_0  1  0.25000000  0.25000000  0.40474800  1
  Nb  Nb1_1  1  0.25000000  0.25000000  0.90474800  1
  Nb  Nb1_2  1  0.25000000  0.75000000  0.40474800  1
  Nb  Nb1_3  1  0.25000000  0.75000000  0.90474800  1
  Nb  Nb1_4  1  0.75000000  0.25000000  0.40474800  1
  Nb  Nb1_5  1  0.75000000  0.25000000  0.90474800  1
  Nb  Nb1_6  1  0.75000000  0.75000000  0.40474800  1
  Nb  Nb1_7  1  0.75000000  0.75000000  0.90474800  1
  Si  Si0_0  1  0.25000000  0.25000000  0.00000000  1
  Si  Si0_1  1  0.25000000  0.25000000  0.50000000  1
  Si  Si0_2  1  0.25000000  0.75000000  0.00000000  1
  Si  Si0_3  1  0.25000000  0.75000000  0.50000000  1
  Si  Si0_4  1  0.75000000  0.25000000  0.00000000  1
  Si  Si0_5  1  0.75000000  0.25000000  0.50000000  1
  Si  Si0_6  1  0.75000000  0.75000000  0.00000000  1
  Si  Si0_7  1  0.75000000  0.75000000  0.50000000  1
  As  As0_0  1  0.25000000  0.25000000  0.30229000  1
  As  As0_1  1  0.25000000  0.25000000  0.80229000  1
  As  As0_2  1  0.25000000  0.75000000  0.30229000  1
  As  As0_3  1  0.25000000  0.75000000  0.80229000  1
  As  As0_4  1  0.75000000  0.25000000  0.30229000  1
  As  As0_5  1  0.75000000  0.25000000  0.80229000  1
  As  As0_6  1  0.75000000  0.75000000  0.30229000  1
  As  As0_7  1  0.75000000  0.75000000  0.80229000  1
  As  As1_0  1  0.25000000  0.25000000  0.19771000  1
  As  As1_1  1  0.25000000  0.25000000  0.69771000  1
  As  As1_2  1  0.25000000  0.75000000  0.19771000  1
  As  As1_3  1  0.25000000  0.75000000  0.69771000  1
  As  As1_4  1  0.75000000  0.25000000  0.19771000  1
  As  As1_5  1  0.75000000  0.25000000  0.69771000  1
  As  As1_6  1  0.75000000  0.75000000  0.19771000  1
  As  As1_7  1  0.75000000  0.75000000  0.69771000  1
loop_
_geom_bond_atom_site_label_1
_geom_bond_atom_site_label_2
_geom_bond_distance
_geom_bond_site_symmetry_2
Nb0_0 Si0_0 2.572765 1_555
Nb0_0 Nb0_2 2.702111 1_545
Nb0_0 Nb0_4 2.702111 1_455
Nb0_0 Nb0_4 2.702111 1_555
Nb0_0 Nb0_2 2.702111 1_555
Nb0_1 Si0_1 2.572765 1_555
Nb0_1 Nb0_5 2.702111 1_555
Nb0_1 Nb0_3 2.702111 1_555
Nb0_1 Nb0_3 2.702111 1_545
Nb0_1 Nb0_5 2.702111 1_455
Nb0_2 Si0_2 2.572765 1_555
Nb0_2 Nb0_6 2.702111 1_455
Nb0_2 Nb0_6 2.702111 1_555
Nb0_3 Si0_3 2.572765 1_555
Nb0_3 Nb0_7 2.702111 1_455
Nb0_3 Nb0_7 2.702111 1_555
Nb0_4 Si0_4 2.572765 1_555
Nb0_4 Nb0_6 2.702111 1_555
Nb0_4 Nb0_6 2.702111 1_545
Nb0_5 Si0_5 2.572765 1_555
Nb0_5 Nb0_7 2.702111 1_555
Nb0_5 Nb0_7 2.702111 1_545
Nb0_6 Si0_6 2.572765 1_555
Nb0_7 Si0_7 2.572765 1_555
Nb1_0 Si0_1 2.572765 1_555
Nb1_0 Nb1_4 2.702111 1_455
Nb1_0 Nb1_4 2.702111 1_555
Nb1_0 Nb1_2 2.702111 1_555
Nb1_0 Nb1_2 2.702111 1_545
Nb1_1 Si0_0 2.572765 1_556
Nb1_1 Nb1_5 2.702111 1_455
Nb1_1 Nb1_3 2.702111 1_545
Nb1_1 Nb1_5 2.702111 1_555
Nb1_1 Nb1_3 2.702111 1_555
Nb1_2 Si0_3 2.572765 1_555
Nb1_2 Nb1_6 2.702111 1_455
Nb1_2 Nb1_6 2.702111 1_555
Nb1_3 Si0_2 2.572765 1_556
Nb1_3 Nb1_7 2.702111 1_555
Nb1_3 Nb1_7 2.702111 1_455
Nb1_4 Si0_5 2.572765 1_555
Nb1_4 Nb1_6 2.702111 1_545
Nb1_4 Nb1_6 2.702111 1_555
Nb1_5 Si0_4 2.572765 1_556
Nb1_5 Nb1_7 2.702111 1_555
Nb1_5 Nb1_7 2.702111 1_545
Nb1_6 Si0_7 2.572765 1_555
Nb1_7 Si0_6 2.572765 1_556
Si0_0 Si0_2 2.702111 1_545
Si0_0 Si0_2 2.702111 1_555
Si0_0 Si0_4 2.702111 1_555
Si0_0 Si0_4 2.702111 1_455
Si0_1 Si0_5 2.702111 1_455
Si0_1 Si0_5 2.702111 1_555
Si0_1 Si0_3 2.702111 1_545
Si0_1 Si0_3 2.702111 1_555
Si0_2 Si0_6 2.702111 1_455
Si0_2 Si0_6 2.702111 1_555
Si0_3 Si0_7 2.702111 1_555
Si0_3 Si0_7 2.702111 1_455
Si0_4 Si0_6 2.702111 1_545
Si0_4 Si0_6 2.702111 1_555
Si0_5 Si0_7 2.702111 1_555
Si0_5 Si0_7 2.702111 1_545
As0_0 As0_2 2.702111 1_555
As0_0 As0_4 2.702111 1_455
As0_0 As0_4 2.702111 1_555
As0_0 As0_2 2.702111 1_545
As0_0 Nb1_0 2.767400 1_555
As0_0 As1_0 2.824715 1_555
As0_1 As0_3 2.702111 1_545
As0_1 As0_3 2.702111 1_555
As0_1 As0_5 2.702111 1_455
As0_1 As0_5 2.702111 1_555
As0_1 Nb1_1 2.767400 1_555
As0_1 As1_1 2.824715 1_555
As0_2 As0_6 2.702111 1_555
As0_2 As0_6 2.702111 1_455
As0_2 Nb1_2 2.767400 1_555
As0_2 As1_2 2.824715 1_555
As0_3 As0_7 2.702111 1_455
As0_3 As0_7 2.702111 1_555
As0_3 Nb1_3 2.767400 1_555
As0_3 As1_3 2.824715 1_555
As0_4 As0_6 2.702111 1_555
As0_4 As0_6 2.702111 1_545
As0_4 Nb1_4 2.767400 1_555
As0_4 As1_4 2.824715 1_555
As0_5 As0_7 2.702111 1_545
As0_5 As0_7 2.702111 1_555
As0_5 Nb1_5 2.767400 1_555
As0_5 As1_5 2.824715 1_555
As0_6 Nb1_6 2.767400 1_555
As0_6 As1_6 2.824715 1_555
As0_7 Nb1_7 2.767400 1_555
As0_7 As1_7 2.824715 1_555
As1_0 As1_2 2.702111 1_545
As1_0 As1_2 2.702111 1_555
As1_0 As1_4 2.702111 1_455
As1_0 As1_4 2.702111 1_555
As1_0 Nb0_0 2.767400 1_555
As1_1 As1_5 2.702111 1_455
As1_1 As1_5 2.702111 1_555
As1_1 As1_3 2.702111 1_555
As1_1 As1_3 2.702111 1_545
As1_1 Nb0_1 2.767400 1_555
As1_2 As1_6 2.702111 1_455
As1_2 As1_6 2.702111 1_555
As1_2 Nb0_2 2.767400 1_555
As1_3 As1_7 2.702111 1_555
As1_3 As1_7 2.702111 1_455
As1_3 Nb0_3 2.767400 1_555
As1_4 As1_6 2.702111 1_555
As1_4 As1_6 2.702111 1_545
As1_4 Nb0_4 2.767400 1_555
As1_5 As1_7 2.702111 1_555
As1_5 As1_7 2.702111 1_545
As1_5 Nb0_5 2.767400 1_555
As1_6 Nb0_6 2.767400 1_555
As1_7 Nb0_7 2.767400 1_555
