# generated using pymatgen
data_SmCo2Ni3
_symmetry_space_group_name_H-M   'P 1'
_cell_length_a   4.90788294
_cell_length_b   4.90788294
_cell_length_c   3.96626800
_cell_angle_alpha   90.00000000
_cell_angle_beta   90.00000000
_cell_angle_gamma   119.99998572
_symmetry_Int_Tables_number   1
_chemical_formula_structural   SmCo2Ni3
_chemical_formula_sum   'Sm1 Co2 Ni3'
_cell_volume   82.73726140
_cell_formula_units_Z   1
loop_
 _symmetry_equiv_pos_site_id
 _symmetry_equiv_pos_as_xyz
  1  'x, y, z'
loop_
 _atom_site_type_symbol
 _atom_site_label
 _atom_site_symmetry_multiplicity
 _atom_site_fract_x
 _atom_site_fract_y
 _atom_site_fract_z
 _atom_site_occupancy
  Sm  Sm0  1  0.00000000  0.00000000  0.00000000  1
  Co  Co0  1  0.66666700  0.33333300  0.00000000  1
  Co  Co1  1  0.33333300  0.66666700  0.00000000  1
  Ni  Ni0  1  0.50000000  0.50000000  0.50000000  1
  Ni  Ni1  1  0.50000000  0.00000000  0.50000000  1
  Ni  Ni2  1  0.00000000  0.50000000  0.50000000  1
loop_
_geom_bond_atom_site_label_1
_geom_bond_atom_site_label_2
_geom_bond_distance
_geom_bond_site_symmetry_2
Co0 Ni1 2.437231 1_554
Co0 Ni2 2.437231 1_654
Co0 Ni2 2.437231 1_655
Co0 Ni1 2.437231 1_555
Co0 Ni0 2.437233 1_554
Co0 Ni0 2.437233 1_555
Co0 Sm0 2.833564 1_655
Co0 Co1 2.833565 1_545
Co0 Co1 2.833565 1_655
Co0 Sm0 2.833569 1_665
Co0 Sm0 2.833569 1_555
Co0 Co1 2.833573 1_555
Co1 Ni2 2.437231 1_555
Co1 Ni1 2.437231 1_564
Co1 Ni2 2.437231 1_554
Co1 Ni1 2.437231 1_565
Co1 Ni0 2.437233 1_554
Co1 Ni0 2.437233 1_555
Co1 Sm0 2.833564 1_565
Co1 Sm0 2.833569 1_665
Co1 Sm0 2.833569 1_555
Ni0 Ni2 2.453941 1_655
Ni0 Ni1 2.453941 1_555
Ni0 Ni1 2.453941 1_565
Ni0 Ni2 2.453941 1_555
Ni0 Sm0 3.155099 1_556
Ni0 Sm0 3.155099 1_555
Ni0 Sm0 3.155099 1_665
Ni0 Sm0 3.155099 1_666
Ni1 Ni2 2.453942 1_655
Ni1 Ni2 2.453942 1_545
Ni1 Sm0 3.155099 1_556
Ni1 Sm0 3.155099 1_555
Ni1 Sm0 3.155099 1_656
Ni1 Sm0 3.155099 1_655
Ni2 Sm0 3.155099 1_565
Ni2 Sm0 3.155099 1_556
Ni2 Sm0 3.155099 1_555
Ni2 Sm0 3.155099 1_566
