# generated using pymatgen
data_BaSrNdBiO6
_symmetry_space_group_name_H-M   'P 1'
_cell_length_a   8.76663150
_cell_length_b   8.76346567
_cell_length_c   8.76597013
_cell_angle_alpha   90.00000000
_cell_angle_beta   90.00000000
_cell_angle_gamma   90.00000000
_symmetry_Int_Tables_number   1
_chemical_formula_structural   BaSrNdBiO6
_chemical_formula_sum   'Ba4 Sr4 Nd4 Bi4 O24'
_cell_volume   673.45507157
_cell_formula_units_Z   4
loop_
 _symmetry_equiv_pos_site_id
 _symmetry_equiv_pos_as_xyz
  1  'x, y, z'
loop_
 _atom_site_type_symbol
 _atom_site_label
 _atom_site_symmetry_multiplicity
 _atom_site_fract_x
 _atom_site_fract_y
 _atom_site_fract_z
 _atom_site_occupancy
  Ba  Ba0  1  -0.00000000  0.00000000  -0.00000000  1
  Ba  Ba1  1  0.50000000  0.50000000  0.50000000  1
  Ba  Ba2  1  0.50000000  0.00000000  -0.00000000  1
  Ba  Ba3  1  0.00000000  0.50000000  -0.00000000  1
  Sr  Sr0  1  -0.00000000  0.50000000  0.50000000  1
  Sr  Sr1  1  0.50000000  0.00000000  0.50000000  1
  Sr  Sr2  1  0.50000000  0.50000000  -0.00000000  1
  Sr  Sr3  1  -0.00000000  0.00000000  0.50000000  1
  Nd  Nd0  1  0.25046733  0.25048392  0.25241041  1
  Nd  Nd1  1  0.74953267  0.74951608  0.25241041  1
  Nd  Nd2  1  0.74953267  0.25048392  0.74758959  1
  Nd  Nd3  1  0.25046733  0.74951608  0.74758959  1
  Bi  Bi0  1  0.74945988  0.74997824  0.74712790  1
  Bi  Bi1  1  0.25054012  0.25002176  0.74712790  1
  Bi  Bi2  1  0.25054012  0.74997824  0.25287210  1
  Bi  Bi3  1  0.74945988  0.25002176  0.25287210  1
  O  O0  1  0.98882291  0.20883682  0.28989621  1
  O  O1  1  0.01117709  0.79116318  0.28989621  1
  O  O2  1  0.01117709  0.20883682  0.71010379  1
  O  O3  1  0.98882291  0.79116318  0.71010379  1
  O  O4  1  0.28062779  0.98973890  0.21810914  1
  O  O5  1  0.28062779  0.01026110  0.78189086  1
  O  O6  1  0.71937221  0.01026110  0.21810914  1
  O  O7  1  0.71937221  0.98973890  0.78189086  1
  O  O8  1  0.21564914  0.27774958  0.98822340  1
  O  O9  1  0.78435086  0.27774958  0.01177660  1
  O  O10  1  0.21564914  0.72225042  0.01177660  1
  O  O11  1  0.78435086  0.72225042  0.98822340  1
  O  O12  1  0.51158885  0.29641947  0.21351130  1
  O  O13  1  0.48841115  0.70358053  0.21351130  1
  O  O14  1  0.48841115  0.29641947  0.78648870  1
  O  O15  1  0.51158885  0.70358053  0.78648870  1
  O  O16  1  0.21007904  0.51194734  0.29571429  1
  O  O17  1  0.21007904  0.48805266  0.70428571  1
  O  O18  1  0.78992096  0.48805266  0.29571429  1
  O  O19  1  0.78992096  0.51194734  0.70428571  1
  O  O20  1  0.29793984  0.21194016  0.51043092  1
  O  O21  1  0.70206016  0.21194016  0.48956908  1
  O  O22  1  0.29793984  0.78805984  0.48956908  1
  O  O23  1  0.70206016  0.78805984  0.51043092  1
loop_
_geom_bond_atom_site_label_1
_geom_bond_atom_site_label_2
_geom_bond_distance
_geom_bond_site_symmetry_2
Ba0 O9 3.083716 1_455
Ba0 O10 3.083716 1_545
Ba0 O8 3.083716 1_554
Ba0 O11 3.083716 1_444
Ba0 O4 3.117047 1_545
Ba0 O7 3.117047 1_444
Ba0 O6 3.117047 1_455
Ba0 O5 3.117047 1_554
Ba0 O0 3.133177 1_455
Ba0 O3 3.133177 1_444
Ba0 O1 3.133177 1_545
Ba0 O2 3.133177 1_554
Ba1 O12 3.082226 1_555
Ba1 O15 3.082226 1_555
Ba1 O14 3.082226 1_555
Ba1 O13 3.082226 1_555
Ba1 O22 3.085252 1_555
Ba1 O20 3.085252 1_555
Ba1 O23 3.085252 1_555
Ba1 O21 3.085252 1_555
Ba1 O17 3.110896 1_555
Ba1 O19 3.110896 1_555
Ba1 O16 3.110896 1_555
Ba1 O18 3.110896 1_555
Ba2 O7 2.713323 1_544
Ba2 O6 2.713323 1_555
Ba2 O5 2.713323 1_554
Ba2 O4 2.713323 1_545
Ba2 O14 3.203308 1_554
Ba2 O13 3.203308 1_545
Ba2 O15 3.203308 1_544
Ba2 O12 3.203308 1_555
Ba3 O10 2.716281 1_555
Ba3 O11 2.716281 1_454
Ba3 O8 2.716281 1_554
Ba3 O9 2.716281 1_455
Ba3 O18 3.181570 1_455
Ba3 O16 3.181570 1_555
Ba3 O19 3.181570 1_454
Ba3 O17 3.181570 1_554
Nd0 O4 2.319846 1_545
Nd0 O20 2.324443 1_555
Nd0 O0 2.345725 1_455
Nd0 O8 2.348074 1_554
Nd0 O12 2.349161 1_555
Nd0 O16 2.349390 1_555
Nd1 O6 2.319846 1_565
Nd1 O23 2.324443 1_555
Nd1 O1 2.345725 1_655
Nd1 O11 2.348074 1_554
Nd1 O13 2.349161 1_555
Nd1 O18 2.349390 1_555
Nd2 O7 2.319846 1_545
Nd2 O21 2.324443 1_555
Nd2 O2 2.345725 1_655
Nd2 O9 2.348074 1_556
Nd2 O14 2.349161 1_555
Nd2 O19 2.349390 1_555
Nd3 O5 2.319846 1_565
Nd3 O22 2.324443 1_555
Nd3 O3 2.345725 1_455
Nd3 O10 2.348074 1_556
Nd3 O15 2.349161 1_555
Nd3 O17 2.349390 1_555
Bi0 O7 2.139439 1_555
Bi0 O23 2.142234 1_555
Bi0 O19 2.148989 1_555
Bi0 O11 2.149236 1_555
Bi0 O15 2.152433 1_555
Bi0 O3 2.153814 1_555
Bi1 O5 2.139439 1_555
Bi1 O20 2.142234 1_555
Bi1 O17 2.148989 1_555
Bi1 O8 2.149236 1_555
Bi1 O14 2.152433 1_555
Bi1 O2 2.153814 1_555
Bi2 O4 2.139439 1_555
Bi2 O22 2.142234 1_555
Bi2 O16 2.148989 1_555
Bi2 O10 2.149236 1_555
Bi2 O13 2.152433 1_555
Bi2 O1 2.153814 1_555
Bi3 O6 2.139439 1_555
Bi3 O21 2.142234 1_555
Bi3 O18 2.148989 1_555
Bi3 O9 2.149236 1_555
Bi3 O12 2.152433 1_555
Bi3 O0 2.153814 1_555
O0 Sr3 2.598285 1_655
O0 Sr0 3.148388 1_655
O1 Sr3 2.598285 1_565
O1 Sr0 3.148388 1_555
O2 Sr3 2.598285 1_555
O2 Sr0 3.148388 1_555
O3 Sr3 2.598285 1_665
O3 Sr0 3.148388 1_655
O4 Sr1 3.132521 1_565
O5 Sr1 3.132521 1_555
O6 Sr1 3.132521 1_555
O7 Sr1 3.132521 1_565
O8 Sr2 3.165150 1_556
O9 Sr2 3.165150 1_555
O10 Sr2 3.165150 1_555
O11 Sr2 3.165150 1_556
O12 Sr2 2.587710 1_555
O13 Sr2 2.587710 1_555
O14 Sr2 2.587710 1_556
O15 Sr2 2.587710 1_556
O16 Sr0 2.570914 1_555
O17 Sr0 2.570914 1_555
O18 Sr0 2.570914 1_655
O19 Sr0 2.570914 1_655
O20 Sr1 2.568238 1_555
O21 Sr1 2.568238 1_555
O22 Sr1 2.568238 1_565
O23 Sr1 2.568238 1_565
