# generated using pymatgen
data_LiCo5SbO8
_symmetry_space_group_name_H-M   'P 1'
_cell_length_a   6.35852372
_cell_length_b   6.17383272
_cell_length_c   6.18232300
_cell_angle_alpha   59.95482455
_cell_angle_beta   60.91198398
_cell_angle_gamma   61.12573475
_symmetry_Int_Tables_number   1
_chemical_formula_structural   LiCo5SbO8
_chemical_formula_sum   'Li1 Co5 Sb1 O8'
_cell_volume   174.14507208
_cell_formula_units_Z   1
loop_
 _symmetry_equiv_pos_site_id
 _symmetry_equiv_pos_as_xyz
  1  'x, y, z'
loop_
 _atom_site_type_symbol
 _atom_site_label
 _atom_site_symmetry_multiplicity
 _atom_site_fract_x
 _atom_site_fract_y
 _atom_site_fract_z
 _atom_site_occupancy
  Li  Li0  1  0.40610400  0.36475100  0.36457300  1
  Co  Co0  1  0.09470500  0.13562500  0.13483500  1
  Co  Co1  1  0.50124900  0.51625700  0.51690900  1
  Co  Co2  1  0.50124900  0.51626600  0.96558500  1
  Co  Co3  1  0.50513900  0.96543200  0.51471200  1
  Co  Co4  1  0.89822500  0.86714500  0.86731200  1
  Sb  Sb0  1  0.98298200  0.50514800  0.50593300  1
  O  O0  1  0.23594700  0.27222700  0.27092400  1
  O  O1  1  0.23662800  0.72086400  0.27125600  1
  O  O2  1  0.23593800  0.27222900  0.72090400  1
  O  O3  1  0.72228800  0.25812800  0.25979600  1
  O  O4  1  0.27745500  0.74183800  0.74035600  1
  O  O5  1  0.75792200  0.27605000  0.73301400  1
  O  O6  1  0.75958600  0.73151800  0.27632300  1
  O  O7  1  0.75958300  0.73152300  0.73256800  1
loop_
_geom_bond_atom_site_label_1
_geom_bond_atom_site_label_2
_geom_bond_distance
_geom_bond_site_symmetry_2
Li0 O3 1.666580 1_555
Li0 O0 1.835550 1_555
Li0 O2 1.835554 1_555
Li0 O1 1.836859 1_555
Co0 O3 1.962915 1_455
Co0 O2 2.098168 1_554
Co0 O0 2.098184 1_555
Co0 O1 2.104373 1_545
Co1 O4 1.993511 1_555
Co1 Li0 2.027443 1_555
Co1 O6 2.104790 1_555
Co1 O5 2.108656 1_555
Co1 O2 2.278067 1_555
Co1 O3 2.289762 1_555
Co1 O1 2.290002 1_555
Co2 O4 1.993515 1_555
Co2 Li0 2.027448 1_556
Co2 O7 2.104759 1_555
Co2 O5 2.108666 1_555
Co2 O0 2.278064 1_556
Co2 O3 2.289828 1_556
Co2 O1 2.289957 1_556
Co3 O4 1.996414 1_555
Co3 Li0 2.028173 1_565
Co3 O6 2.105132 1_555
Co3 O7 2.105145 1_555
Co3 O3 2.257829 1_565
Co3 O0 2.303816 1_565
Co3 O2 2.303827 1_565
Co4 O4 1.998826 1_655
Co4 O7 2.073048 1_555
Co4 O6 2.073058 1_556
Co4 O5 2.074750 1_565
O0 Sb0 2.086160 1_455
O1 Sb0 2.084280 1_455
O2 Sb0 2.086169 1_455
O5 Sb0 2.008087 1_555
O6 Sb0 2.010638 1_555
O7 Sb0 2.010630 1_555
