# generated using pymatgen
data_K8MgMn4O16
_symmetry_space_group_name_H-M   'P 1'
_cell_length_a   5.86074755
_cell_length_b   8.11455406
_cell_length_c   12.22853760
_cell_angle_alpha   91.04263304
_cell_angle_beta   116.08327944
_cell_angle_gamma   91.13076637
_symmetry_Int_Tables_number   1
_chemical_formula_structural   K8MgMn4O16
_chemical_formula_sum   'K8 Mg1 Mn4 O16'
_cell_volume   521.99313758
_cell_formula_units_Z   1
loop_
 _symmetry_equiv_pos_site_id
 _symmetry_equiv_pos_as_xyz
  1  'x, y, z'
loop_
 _atom_site_type_symbol
 _atom_site_label
 _atom_site_symmetry_multiplicity
 _atom_site_fract_x
 _atom_site_fract_y
 _atom_site_fract_z
 _atom_site_occupancy
  K  K0  1  0.17683800  0.75597000  0.90389000  1
  K  K1  1  0.44251300  0.54997800  0.66715400  1
  K  K2  1  0.18794200  0.80362100  0.40105900  1
  K  K3  1  0.54093800  0.01160600  0.78937200  1
  K  K4  1  0.50529500  0.99945000  0.23992700  1
  K  K5  1  0.84765700  0.19859400  0.60948000  1
  K  K6  1  0.51674800  0.49826200  0.25891900  1
  K  K7  1  0.90263900  0.20710100  0.14047300  1
  Mg  Mg0  1  0.62557800  0.46193700  0.94145500  1
  Mn  Mn0  1  0.13444300  0.26069700  0.92611300  1
  Mn  Mn1  1  0.17084500  0.26647000  0.43844600  1
  Mn  Mn2  1  0.83822500  0.74083500  0.56463000  1
  Mn  Mn3  1  0.85708400  0.73281800  0.07541200  1
  O  O0  1  0.12244500  0.08260500  0.84965800  1
  O  O1  1  0.25878600  0.41734900  0.86908400  1
  O  O2  1  0.31016200  0.23172400  0.58744600  1
  O  O3  1  0.13957300  0.80903500  0.63568100  1
  O  O4  1  0.23778000  0.45937600  0.41727900  1
  O  O5  1  0.27537800  0.13248400  0.36696300  1
  O  O6  1  0.81912300  0.30037000  0.90014200  1
  O  O7  1  0.71088300  0.69448900  0.91446600  1
  O  O8  1  0.31584500  0.24676500  0.07851000  1
  O  O9  1  0.17582400  0.75237200  0.13347100  1
  O  O10  1  0.66385500  0.84664900  0.61666200  1
  O  O11  1  0.82582400  0.54231100  0.59004000  1
  O  O12  1  0.85647400  0.23942700  0.37988100  1
  O  O13  1  0.72382300  0.76801900  0.41451500  1
  O  O14  1  0.76878300  0.54270400  0.11437300  1
  O  O15  1  0.72577900  0.89698400  0.10883400  1
loop_
_geom_bond_atom_site_label_1
_geom_bond_atom_site_label_2
_geom_bond_distance
_geom_bond_site_symmetry_2
K0 O0 2.734589 1_565
K0 O9 2.810739 1_556
K0 O7 2.825292 1_455
K0 O1 2.855045 1_555
K0 O7 3.125690 1_555
K0 O3 3.227297 1_555
K0 O15 3.255895 1_556
K1 O3 2.700962 1_555
K1 O2 2.717623 1_555
K1 O11 2.793929 1_555
K1 O4 2.824243 1_555
K1 O10 2.914543 1_555
K1 O7 2.934353 1_555
K2 O5 2.780673 1_565
K2 O13 2.806010 1_455
K2 O4 2.815872 1_555
K2 O10 2.883445 1_555
K2 O3 3.004170 1_555
K2 O13 3.091505 1_555
K2 O9 3.260414 1_555
K3 O3 2.759508 1_545
K3 O6 2.788404 1_555
K3 O10 2.836239 1_545
K3 O2 2.904476 1_555
K3 O0 2.919136 1_555
K3 O7 2.976301 1_545
K3 O0 3.191867 1_655
K4 O15 2.597392 1_555
K4 O9 2.642868 1_555
K4 O5 2.689131 1_565
K4 O8 2.731554 1_565
K4 O13 2.749811 1_555
K4 O12 2.753206 1_565
K5 O11 2.804191 1_555
K5 O0 2.847222 1_655
K5 O2 2.847539 1_655
K5 O12 2.855901 1_555
K5 O10 3.048777 1_545
K5 O2 3.059056 1_555
K6 O13 2.756395 1_555
K6 O14 2.781075 1_555
K6 O8 2.806301 1_555
K6 O9 2.860030 1_555
K6 O12 2.872622 1_555
K6 O4 3.051026 1_555
K7 O15 2.658126 1_545
K7 O5 2.757266 1_655
K7 O14 2.833596 1_555
K7 O8 2.852022 1_655
K7 O6 2.877519 1_554
K7 O12 3.063380 1_555
K7 O8 3.204047 1_555
Mg0 O6 1.949166 1_555
Mg0 O1 1.954469 1_555
Mg0 O14 1.993102 1_556
Mg0 O7 2.012555 1_555
Mn0 O0 1.690111 1_555
Mn0 O8 1.698885 1_556
Mn0 O1 1.753812 1_555
Mn0 O6 1.769392 1_455
Mn1 O4 1.658613 1_555
Mn1 O12 1.665438 1_455
Mn1 O5 1.668575 1_555
Mn1 O2 1.669013 1_555
Mn2 O11 1.652391 1_555
Mn2 O10 1.665230 1_555
Mn2 O3 1.665809 1_655
Mn2 O13 1.675178 1_555
Mn3 O15 1.682568 1_555
Mn3 O9 1.684283 1_655
Mn3 O14 1.756916 1_555
Mn3 O7 1.785706 1_554
